# Generated by pormake.
# Topology snp, (6)-cn, num edge types: 1
# Building blocks:
#     Node 0, Type 0, BuildingBlock: BETDIP_clean_sbu_0, # of connection points: 6
#     Node 1, Type 0, BuildingBlock: BETDIP_clean_sbu_0, # of connection points: 6
#     Node 2, Type 0, BuildingBlock: BETDIP_clean_sbu_0, # of connection points: 6
#     Node 3, Type 0, BuildingBlock: BETDIP_clean_sbu_0, # of connection points: 6
#     Edge 4, Type (0, 0), BuildingBlock: UVAHIK_clean_linker_0, # of connection points: 2
#     Edge 5, Type (0, 0), BuildingBlock: UVAHIK_clean_linker_0, # of connection points: 2
#     Edge 6, Type (0, 0), BuildingBlock: UVAHIK_clean_linker_0, # of connection points: 2
#     Edge 7, Type (0, 0), BuildingBlock: UVAHIK_clean_linker_0, # of connection points: 2
#     Edge 8, Type (0, 0), BuildingBlock: UVAHIK_clean_linker_0, # of connection points: 2
#     Edge 9, Type (0, 0), BuildingBlock: UVAHIK_clean_linker_0, # of connection points: 2
#     Edge 10, Type (0, 0), BuildingBlock: UVAHIK_clean_linker_0, # of connection points: 2
#     Edge 11, Type (0, 0), BuildingBlock: UVAHIK_clean_linker_0, # of connection points: 2
#     Edge 12, Type (0, 0), BuildingBlock: UVAHIK_clean_linker_0, # of connection points: 2
#     Edge 13, Type (0, 0), BuildingBlock: UVAHIK_clean_linker_0, # of connection points: 2
#     Edge 14, Type (0, 0), BuildingBlock: UVAHIK_clean_linker_0, # of connection points: 2
#     Edge 15, Type (0, 0), BuildingBlock: UVAHIK_clean_linker_0, # of connection points: 2
# Relax obj value: 0.545
# Max RMSD: 0.180
# Mean RMSD: 0.171
data_MOF--net-snp--node1-BETDIP_clean_sbu_0--edge1-UVAHIK_clean_linker_0
_symmetry_space_group_name_H-M    P1
_symmetry_Int_Tables_number       1
_symmetry_cell_setting            triclinic
loop_
_symmetry_equiv_pos_as_xyz
'x, y, z'
_cell_length_a     31.810836
_cell_length_b     32.499036
_cell_length_c     36.936012
_cell_angle_alpha  92.131
_cell_angle_beta   90.200224
_cell_angle_gamma 101.99283
loop_
_atom_site_label
_atom_site_type_symbol
_atom_site_fract_x
_atom_site_fract_y
_atom_site_fract_z
_atom_type_partial_charge
Tb0 Tb 0.25504 0.04698 0.15033 0.0
Tb1 Tb 0.25143 0.1315 1.12506 0.0
C2 C 0.2889 0.98518 0.16063 0.0
C3 C 0.32052 0.9759 0.18652 0.0
C4 C 0.35138 0.9534 0.17474 0.0
C5 C 0.38056 0.94293 0.19944 0.0
C6 C 0.37914 0.95469 0.2364 0.0
C7 C 0.34903 0.97868 0.24766 0.0
C8 C 0.32029 0.98943 0.22296 0.0
C9 C 0.17523 0.05509 0.13922 0.0
C10 C 0.23285 0.11216 0.20924 0.0
C11 C 0.24165 0.20492 1.11403 0.0
C12 C 0.26232 0.23926 1.09139 0.0
C13 C 0.24672 0.27648 1.09127 0.0
C14 C 0.26608 0.30944 1.06974 0.0
C15 C 0.30146 0.30566 1.04803 0.0
C16 C 0.31747 0.26846 1.04886 0.0
C17 C 0.29799 0.2355 1.07031 0.0
C18 C 0.32995 0.11528 0.12927 0.0
C19 C 0.23828 0.05879 1.06274 0.0
O20 O 0.30387 0.01442 0.13785 0.0
O21 O 0.25152 0.98875 0.17378 0.0
O22 O 0.20899 0.07253 1.12394 0.0
O23 O 0.18633 0.02927 0.16178 0.0
O24 O 0.25086 0.07871 0.2045 0.0
O25 O 0.22474 0.13288 0.18054 0.0
O26 O 0.21968 0.17128 1.09689 0.0
O27 O 0.26583 0.19568 0.1399 0.0
O28 O 0.29998 0.10556 0.15174 0.0
O29 O 0.31664 0.13631 1.10417 0.0
O30 O 0.23673 0.09878 1.07111 0.0
O31 O 0.24689 0.03419 1.08919 0.0
H32 H 0.35246 0.94333 0.14652 0.0
H33 H 0.40362 0.92497 0.18971 0.0
H34 H 0.34618 0.98771 0.2759 0.0
H35 H 0.29718 0.00743 0.23258 0.0
H36 H 0.21926 0.27986 1.10752 0.0
H37 H 0.2525 0.33734 1.06926 0.0
H38 H 0.34488 0.2647 1.03272 0.0
H39 H 0.3106 0.20702 1.07029 0.0
Tb40 Tb 0.01781 0.26646 0.61988 0.0
Tb41 Tb 0.10168 0.30923 0.64682 0.0
C42 C 0.93807 0.25503 0.60909 0.0
C43 C 0.90988 0.27604 0.58842 0.0
C44 C 0.92507 0.31679 0.57625 0.0
C45 C 0.89731 0.3377 0.55854 0.0
C46 C 0.85396 0.31807 0.55251 0.0
C47 C 0.83891 0.27735 0.56514 0.0
C48 C 0.86667 0.25658 0.58304 0.0
C49 C 0.07103 0.21582 0.63134 0.0
C50 C 0.08885 0.27433 0.56221 0.0
C51 C 0.17953 0.34291 0.65879 0.0
C52 C 0.2036 0.37559 0.68374 0.0
C53 C 0.2463 0.37491 0.69238 0.0
C54 C 0.26833 0.40252 0.71922 0.0
C55 C 0.24792 0.43132 0.73792 0.0
C56 C 0.20585 0.43355 0.72757 0.0
C57 C 0.18377 0.40574 0.70078 0.0
C58 C 0.04672 0.36013 0.64153 0.0
C59 C 0.0347 0.27129 0.70764 0.0
O60 O 0.95853 0.27808 0.63591 0.0
O61 O 0.96291 0.23471 0.59059 0.0
O62 O 0.06665 0.24782 0.64905 0.0
O63 O 0.04056 0.20715 0.60703 0.0
O64 O 0.0474 0.27401 0.56629 0.0
O65 O 0.11499 0.28353 0.59115 0.0
O66 O 0.15973 0.30856 0.67374 0.0
O67 O 0.15559 0.35548 0.63447 0.0
O68 O 0.05156 0.33174 0.61813 0.0
O69 O 0.07217 0.35906 0.66859 0.0
O70 O 0.07585 0.28871 0.70124 0.0
O71 O 0.00733 0.26137 0.67969 0.0
H72 H 0.95833 0.3325 0.58067 0.0
H73 H 0.90983 0.3691 0.54934 0.0
H74 H 0.80598 0.26099 0.56028 0.0
H75 H 0.85443 0.22529 0.59261 0.0
H76 H 0.26202 0.35178 0.67944 0.0
H77 H 0.30038 0.39938 0.72685 0.0
H78 H 0.18938 0.4556 0.74121 0.0
H79 H 0.1508 0.40683 0.69431 0.0
Tb80 Tb 0.86212 0.12365 0.14818 0.0
Tb81 Tb 0.8452 0.03502 1.1213 0.0
C82 C 0.84938 0.19224 0.17459 0.0
C83 C 0.82275 0.20738 0.20257 0.0
C84 C 0.79148 0.22939 0.19182 0.0
C85 C 0.76569 0.2445 0.21742 0.0
C86 C 0.77092 0.2382 0.25441 0.0
C87 C 0.80217 0.21589 0.26511 0.0
C88 C 0.82775 0.20048 0.23944 0.0
C89 C 0.931 0.09866 1.12344 0.0
C90 C 0.872 0.05191 0.20419 0.0
C91 C 0.84127 0.96293 1.09218 0.0
C92 C 0.80879 0.92864 1.07574 0.0
C93 C 0.81836 0.88866 1.07139 0.0
C94 C 0.79002 0.85641 1.05254 0.0
C95 C 0.75159 0.86368 1.0376 0.0
C96 C 0.74099 0.90329 1.04384 0.0
C97 C 0.7694 0.93557 1.06286 0.0
C98 C 0.77453 0.06158 0.14306 0.0
C99 C 0.86663 0.10921 1.0627 0.0
O100 O 0.82771 0.17154 0.14714 0.0
O101 O 0.88138 0.17536 0.18481 0.0
O102 O 0.90022 0.07797 0.14066 0.0
O103 O 0.92641 0.13753 1.12404 0.0
O104 O 0.86052 0.08898 0.20044 0.0
O105 O 0.87514 0.02841 0.17446 0.0
O106 O 0.85001 -0.00223 1.07457 0.0
O107 O 0.8381 0.96993 0.12694 0.0
O108 O 0.80595 0.08169 0.12605 0.0
O109 O 0.781 0.02399 0.14574 0.0
O110 O 0.8606 0.06823 1.06919 0.0
O111 O 0.8653 0.13698 1.08981 0.0
H112 H 0.78702 0.23502 0.16346 0.0
H113 H 0.74175 0.26118 0.20822 0.0
H114 H 0.8077 0.2112 0.29347 0.0
H115 H 0.85159 0.18361 0.24851 0.0
H116 H 0.84859 0.88283 1.08135 0.0
H117 H 0.79958 0.82659 1.04777 0.0
H118 H 0.71151 0.90975 1.03286 0.0
H119 H 0.76136 0.96627 1.0664 0.0
Tb120 Tb 0.9938 0.87321 0.63897 0.0
Tb121 Tb 0.08031 0.87888 0.61066 0.0
C122 C 0.91537 0.84343 0.64861 0.0
C123 C 0.88908 0.81652 0.67459 0.0
C124 C 0.90665 0.78913 0.69571 0.0
C125 C 0.88137 0.76489 0.72124 0.0
C126 C 0.83822 0.76791 0.72623 0.0
C127 C 0.82061 0.79461 0.7042 0.0
C128 C 0.84585 0.81865 0.6786 0.0
C129 C 0.04139 0.94978 0.64151 0.0
C130 C 0.066 0.88649 0.69828 0.0
C131 C 0.16007 0.89201 0.59989 0.0
C132 C 0.19105 0.87835 0.57511 0.0
C133 C 0.18782 0.88138 0.53747 0.0
C134 C 0.21886 0.86985 0.51487 0.0
C135 C 0.25353 0.85474 0.5294 0.0
C136 C 0.2562 0.85113 0.56708 0.0
C137 C 0.2253 0.86296 0.58969 0.0
C138 C 0.03359 0.80081 0.60767 0.0
C139 C 0.01125 0.8956 0.55307 0.0
O140 O 0.94004 0.82511 0.62797 0.0
O141 O 0.93504 0.88072 0.66108 0.0
O142 O 0.0395 0.9215 0.61731 0.0
O143 O 0.01222 0.93657 0.66541 0.0
O144 O 0.02451 0.87012 0.69233 0.0
O145 O 0.09185 0.89559 0.67001 0.0
O146 O 0.13487 0.91518 0.58702 0.0
O147 O 0.13982 0.86345 0.62114 0.0
O148 O 0.03478 0.82789 0.63358 0.0
O149 O 0.05894 0.81799 0.58262 0.0
O150 O 0.05262 0.89525 0.5589 0.0
O151 O 0.98351 0.88706 0.58038 0.0
H152 H 0.94002 0.78697 0.69281 0.0
H153 H 0.89581 0.74438 0.73754 0.0
H154 H 0.78781 0.79834 0.70773 0.0
H155 H 0.83183 0.83963 0.66244 0.0
H156 H 0.16174 0.8932 0.5255 0.0
H157 H 0.21622 0.87388 0.48604 0.0
H158 H 0.28218 0.83927 0.57913 0.0
H159 H 0.22833 0.86039 0.61872 0.0
C160 C 0.96917 0.10389 1.06421 0.0
C161 C 0.95079 0.07956 1.09287 0.0
C162 C 0.9798 0.08455 1.03206 0.0
C163 C -0.00243 0.97789 1.00168 0.0
H164 H 0.09593 0.06531 0.98429 0.0
C165 C 0.13348 -0.00126 1.09924 0.0
C166 C 0.13926 0.04005 1.11418 0.0
C167 C 0.11345 0.98833 1.06544 0.0
C168 C 0.06887 0.03976 0.98882 0.0
H169 H 0.93006 0.01617 1.11098 0.0
H170 H 0.94776 0.98231 1.05615 0.0
H171 H 0.02449 0.07372 0.96723 0.0
H172 H 0.12813 0.1024 1.10617 0.0
H173 H 0.08965 0.08377 1.04921 0.0
H174 H 0.04028 0.94471 1.02715 0.0
C175 C 0.95411 0.01629 1.05707 0.0
C176 C 0.02764 0.04479 0.97951 0.0
C177 C 0.94431 0.03572 1.08926 0.0
C178 C 0.12278 0.07008 1.09576 0.0
C179 C 0.10238 0.05964 1.06231 0.0
C180 C 0.03816 0.97255 1.01264 0.0
C181 C 0.97284 0.04016 1.02776 0.0
C182 C 0.9927 0.01947 0.99681 0.0
C183 C 0.09852 0.01893 1.04615 0.0
C184 C 0.07261 0.00759 1.01241 0.0
H185 H 0.97381 0.13788 1.06603 0.0
H186 H 0.99367 0.10491 1.01084 0.0
H187 H 0.97005 0.95313 1.00691 0.0
H188 H 0.14752 0.97537 1.11224 0.0
H189 H 0.11048 0.95663 1.05409 0.0
C190 C 0.098 -0.01009 0.68397 0.0
C191 C 0.08171 0.98028 0.64872 0.0
C192 C 0.14062 0.01122 0.68959 0.0
C193 C 0.21026 0.08631 0.69556 0.0
H194 H 0.23986 0.12753 0.60037 0.0
C195 C 0.12164 0.17156 0.60735 0.0
C196 C 0.11036 0.19901 0.63386 0.0
C197 C 0.15942 0.15636 0.61154 0.0
C198 C 0.23294 0.117 0.62761 0.0
H199 H 0.09605 0.98591 0.59178 0.0
H200 H 0.16769 0.02568 0.6007 0.0
H201 H 0.23647 0.05384 0.61236 0.0
H202 H 0.1301 0.2334 0.68456 0.0
H203 H 0.1973 0.21067 0.68993 0.0
H204 H 0.2058 0.14849 0.71156 0.0
C205 C 0.14989 0.01543 0.62473 0.0
C206 C 0.23043 0.07454 0.63449 0.0
C207 C 0.10791 -0.00662 0.61931 0.0
C208 C 0.1385 0.21299 0.66321 0.0
C209 C 0.17698 0.1996 0.6665 0.0
C210 C 0.21398 0.12894 0.68944 0.0
C211 C 0.16721 0.02547 0.66002 0.0
C212 C 0.20793 0.05818 0.66541 0.0
C213 C 0.18684 0.16908 0.64202 0.0
C214 C 0.21683 0.14234 0.65349 0.0
H215 H 0.07843 0.97952 0.70714 0.0
H216 H 0.15205 0.01705 0.71726 0.0
H217 H 0.2 0.07569 0.72211 0.0
H218 H 0.10075 0.16087 0.58417 0.0
H219 H 0.16531 0.13244 0.59217 0.0
C220 C 0.69836 0.04584 0.1652 0.0
C221 C 0.73061 0.07144 0.14526 0.0
C222 C 0.65597 0.05224 0.16542 0.0
C223 C 0.57878 0.09557 1.11069 0.0
H224 H 0.51135 0.08844 0.19829 0.0
C225 C 0.40676 0.12999 1.10901 0.0
C226 C 0.37552 0.11012 0.1331 0.0
C227 C 0.44974 0.1259 1.11166 0.0
C228 C 0.5292 0.08988 0.17333 0.0
H229 H 0.74331 0.1245 1.11029 0.0
H230 H 0.66912 0.13533 1.11013 0.0
H231 H 0.58615 0.08124 0.20102 0.0
H232 H 0.36559 0.0703 0.17927 0.0
H233 H 0.44 0.06127 0.18301 0.0
H234 H 0.522 0.10262 1.08257 0.0
C235 C 0.67671 0.1102 0.12572 0.0
C236 C 0.57249 0.08598 0.17499 0.0
C237 C 0.71939 0.10421 0.12598 0.0
C238 C 0.38865 0.0859 0.1601 0.0
C239 C 0.43172 0.08114 0.16242 0.0
C240 C 0.5354 0.09883 1.1089 0.0
C241 C 0.6442 0.08408 0.14524 0.0
C242 C 0.59808 0.08899 0.14373 0.0
C243 C 0.46321 0.10108 0.13816 0.0
C244 C 0.50968 0.09637 0.14021 0.0
H245 H 0.70579 0.02029 0.18034 0.0
H246 H 0.63204 0.03127 0.18057 0.0
H247 H 0.597 0.09725 1.08588 0.0
H248 H 0.39809 0.14925 1.08805 0.0
H249 H 0.47247 0.14288 1.09296 0.0
C250 C 0.02362 0.42487 0.66502 0.0
C251 C 0.032 0.40016 0.63488 0.0
C252 C 0.01775 0.46612 0.66135 0.0
C253 C 7e-05 0.54566 0.59423 0.0
H254 H 0.04886 0.62501 0.67186 0.0
C255 C 0.02749 0.72775 0.58038 0.0
C256 C 0.02378 0.75387 0.61101 0.0
C257 C 0.02387 0.68413 0.58314 0.0
C258 C 0.03438 0.6034 0.6501 0.0
H259 H 0.03922 0.3995 0.57667 0.0
H260 H 0.02929 0.47192 0.56999 0.0
H261 H 0.05135 0.55109 0.67582 0.0
H262 H 0.01192 0.75371 0.66866 0.0
H263 H 0.00522 0.67745 0.67362 0.0
H264 H 0.98387 0.59845 0.56827 0.0
C265 C 0.02678 0.45914 0.59673 0.0
C266 C 0.03578 0.56056 0.65235 0.0
C267 C 0.03237 0.41739 0.60045 0.0
C268 C 0.01491 0.73471 0.64447 0.0
C269 C 0.01151 0.69088 0.6473 0.0
C270 C -0.0012 0.58863 0.59192 0.0
C271 C 0.02054 0.48469 0.62733 0.0
C272 C 0.01863 0.53073 0.62451 0.0
C273 C 0.01655 0.66486 0.61672 0.0
C274 C 0.01602 0.61838 0.61981 0.0
H275 H 0.02296 0.41266 0.69196 0.0
H276 H 0.01171 0.48372 0.68555 0.0
H277 H 0.98597 0.52405 0.57235 0.0
H278 H 0.03441 0.74126 0.55414 0.0
H279 H 0.02845 0.66578 0.55896 0.0
C280 C 0.14928 0.26576 0.51725 0.0
C281 C 0.10508 0.25917 0.52582 0.0
C282 C 0.16384 0.2502 0.48396 0.0
C283 C 0.13206 0.16787 0.40736 0.0
H284 H 0.22354 0.23612 0.35375 0.0
C285 C 0.21215 0.10149 0.27696 0.0
C286 C 0.22055 0.12768 0.24691 0.0
C287 C 0.19863 0.1165 0.31095 0.0
C288 C 0.19793 0.21629 0.36814 0.0
H289 H 0.04214 0.22925 0.50457 0.0
H290 H 0.06725 0.20154 0.44787 0.0
H291 H 0.1998 0.26353 0.41121 0.0
H292 H 0.22146 0.19137 0.23101 0.0
H293 H 0.1999 0.21741 0.28956 0.0
H294 H 0.13076 0.12033 0.36457 0.0
C295 C 0.09094 0.21935 0.46671 0.0
C296 C 0.18433 0.23213 0.40163 0.0
C297 C 0.07635 0.23574 0.49953 0.0
C298 C 0.21554 0.16972 0.2529 0.0
C299 C 0.20316 0.18493 0.28697 0.0
C300 C 0.1464 0.15162 0.3743 0.0
C301 C 0.13508 0.22621 0.45789 0.0
C302 C 0.15072 0.20854 0.42203 0.0
C303 C 0.19395 0.15874 0.31691 0.0
C304 C 0.17947 0.17553 0.35356 0.0
H305 H 0.17289 0.28316 0.53636 0.0
H306 H 0.19806 0.25632 0.479 0.0
H307 H 0.1064 0.14808 0.42173 0.0
H308 H 0.2152 0.06897 0.27406 0.0
H309 H 0.19229 0.0949 0.33284 0.0
C310 C 0.97458 0.24952 0.75347 0.0
C311 C 0.01893 0.25759 0.74541 0.0
C312 C 0.95872 0.23449 0.78744 0.0
C313 C 0.98452 0.1769 0.86911 0.0
H314 H 0.89129 0.21912 0.91425 0.0
C315 C 0.89082 0.09834 0.9969 0.0
C316 C 0.88045 0.12519 1.02504 0.0
C317 C 0.90796 0.11414 0.96341 0.0
C318 C 0.91737 0.20676 0.90231 0.0
H319 H 0.08095 0.25489 0.76836 0.0
H320 H 0.05341 0.22788 0.82703 0.0
H321 H 0.9207 0.24709 0.8569 0.0
H322 H 0.87958 0.19059 1.03793 0.0
H323 H 0.9073 0.21749 0.97976 0.0
H324 H 0.98059 0.13601 0.91434 0.0
C325 C 0.03069 0.23369 0.80694 0.0
C326 C 0.93426 0.2228 0.86889 0.0
C327 C 0.04672 0.24968 0.77311 0.0
C328 C 0.88671 0.16839 1.01746 0.0
C329 C 0.90285 0.18402 0.9837 0.0
C330 C 0.96697 0.16018 0.9022 0.0
C331 C 0.98623 0.22576 0.815 0.0
C332 C 0.9684 0.20846 0.85144 0.0
C333 C 0.91444 0.15744 0.95593 0.0
C334 C 0.93305 0.17483 0.91976 0.0
H335 H 0.9517 0.25477 0.73328 0.0
H336 H 0.92438 0.22874 0.79175 0.0
H337 H 0.01042 0.16441 0.857 0.0
H338 H 0.88689 0.06497 1.00111 0.0
H339 H 0.9159 0.09213 0.94315 0.0
C340 C 0.95394 0.91637 0.5115 0.0
C341 C 0.99639 0.91049 0.51689 0.0
C342 C 0.94061 0.93196 0.47874 0.0
C343 C 0.97284 0.95211 0.3797 0.0
H344 H 0.88341 0.01681 0.38105 0.0
C345 C 0.90053 -0.00064 0.24307 0.0
C346 C 0.88499 0.03704 0.24103 0.0
C347 C 0.9137 0.98502 0.2763 0.0
C348 C 0.90866 -0.00093 0.37973 0.0
H349 H 0.05769 0.91735 0.49001 0.0
H350 H 0.03491 0.94398 0.43368 0.0
H351 H 0.90662 -0.00917 0.43743 0.0
H352 H 0.87157 0.08865 0.27466 0.0
H353 H 0.89419 0.0639 0.33229 0.0
H354 H 0.97532 0.96069 0.32217 0.0
C355 C 0.0113 0.93618 0.4547 0.0
C356 C 0.92187 0.98346 0.41258 0.0
C357 C 0.02469 0.92082 0.48756 0.0
C358 C 0.88305 0.05952 0.27436 0.0
C359 C 0.89605 0.04497 0.30785 0.0
C360 C 0.95944 0.96743 0.34688 0.0
C361 C 0.96888 0.94242 0.4493 0.0
C362 C 0.95439 0.95948 0.41359 0.0
C363 C 0.91204 0.00735 0.30977 0.0
C364 C 0.92688 -0.00867 0.3458 0.0
H365 H 0.93069 0.90917 0.53289 0.0
H366 H 0.90758 0.93531 0.47649 0.0
H367 H -0.00245 0.93374 0.37818 0.0
H368 H 0.90276 0.98052 0.21862 0.0
H369 H 0.92474 0.95569 0.27557 0.0
C370 C 0.05596 0.90285 0.7665 0.0
C371 C 0.0834 0.90006 0.73682 0.0
C372 C 0.07225 0.91884 0.80139 0.0
C373 C 0.17384 0.94262 0.86057 0.0
H374 H 0.112 0.01121 0.91904 0.0
C375 C 0.22588 -0.00108 1.01289 0.0
C376 C 0.22238 0.03987 1.02507 0.0
C377 C 0.20934 0.9814 0.97845 0.0
C378 C 0.13009 -0.00776 0.9033 0.0
H379 H 0.15066 0.91273 0.72236 0.0
H380 H 0.17873 0.93916 0.78249 0.0
H381 H 0.08331 0.98238 0.85968 0.0
H382 H 0.19673 0.09336 1.00908 0.0
H383 H 0.16806 0.06317 0.95026 0.0
H384 H 0.22047 0.95226 0.90434 0.0
C385 C 0.1443 0.92892 0.779 0.0
C386 C 0.11319 0.97515 0.86891 0.0
C387 C 0.12799 0.91357 0.74403 0.0
C388 C 0.201 0.06208 1.00121 0.0
C389 C 0.1839 0.04436 0.96715 0.0
C390 C 0.19035 0.95908 0.89525 0.0
C391 C 0.11691 0.93234 0.80865 0.0
C392 C 0.13473 0.95009 0.84641 0.0
C393 C 0.18762 0.00356 0.95471 0.0
C394 C 0.16913 0.98465 0.91749 0.0
H395 H 0.02149 0.89343 0.76265 0.0
H396 H 0.04951 0.92028 0.8229 0.0
H397 H 0.19178 0.92341 0.84495 0.0
H398 H 0.24146 0.98016 1.03007 0.0
H399 H 0.21292 0.94986 0.97075 0.0
C400 C 0.71531 0.84595 0.97744 0.0
C401 C 0.72695 0.83241 1.01097 0.0
C402 C 0.7039 0.81724 0.94831 0.0
C403 C 0.68622 0.75412 0.8865 0.0
H404 H 0.77799 0.6922 0.88428 0.0
C405 C 0.76849 0.73117 0.7533 0.0
C406 C 0.81302 0.7472 0.75678 0.0
C407 C 0.74367 0.71939 0.78388 0.0
C408 C 0.75182 0.70886 0.8844 0.0
H409 H 0.72963 0.77754 1.04181 0.0
H410 H 0.70916 0.7271 0.99089 0.0
H411 H 0.75328 0.71521 0.94199 0.0
H412 H 0.86669 0.76052 0.7948 0.0
H413 H 0.82397 0.74051 0.8476 0.0
H414 H 0.6885 0.75213 0.82875 0.0
C415 C 0.7101 0.7601 0.9868 0.0
C416 C 0.73711 0.72165 0.91766 0.0
C417 C 0.7218 0.78897 1.01597 0.0
C418 C 0.83261 0.74792 0.79097 0.0
C419 C 0.80791 0.73621 0.82142 0.0
C420 C 0.70145 0.74192 0.85321 0.0
C421 C 0.70372 0.77423 0.95205 0.0
C422 C 0.70644 0.74727 0.919 0.0
C423 C 0.76291 0.72344 0.81852 0.0
C424 C 0.73668 0.72196 0.85189 0.0
H425 H 0.71908 0.87917 0.97255 0.0
H426 H 0.69956 0.82966 0.92209 0.0
H427 H 0.66144 0.77249 0.88658 0.0
H428 H 0.75257 0.7294 0.72715 0.0
H429 H 0.7092 0.70907 0.78062 0.0
C430 C 0.41072 0.89661 0.26126 0.0
C431 C 0.40499 0.93837 0.26404 0.0
C432 C 0.4233 0.87741 0.29158 0.0
C433 C 0.43763 0.89673 0.39338 0.0
H434 H 0.35557 0.79051 0.39197 0.0
C435 C 0.27693 0.82662 0.47053 0.0
C436 C 0.28765 0.84487 0.50523 0.0
C437 C 0.30888 0.82395 0.4454 0.0
C438 C 0.37856 0.82023 0.39299 0.0
H439 H 0.41592 -0.00512 0.29879 0.0
H440 H 0.43394 0.96127 0.3518 0.0
H441 H 0.38658 0.81711 0.3361 0.0
H442 H 0.34077 0.87079 0.54196 0.0
H443 H 0.3967 0.86442 0.49857 0.0
H444 H 0.42471 0.90244 0.44967 0.0
C445 C 0.42929 0.94263 0.3267 0.0
C446 C 0.39728 0.83538 0.36071 0.0
C447 C 0.418 0.96205 0.29619 0.0
C448 C 0.33131 0.85674 0.51535 0.0
C449 C 0.36345 0.8535 0.49028 0.0
C450 C 0.41761 0.88232 0.42548 0.0
C451 C 0.42892 0.89912 0.32557 0.0
C452 C 0.42419 0.87571 0.35998 0.0
C453 C 0.35263 0.83887 0.45442 0.0
C454 C 0.38508 0.84559 0.425 0.0
H455 H 0.4019 0.87745 0.23672 0.0
H456 H 0.42494 0.84452 0.2889 0.0
H457 H 0.4604 0.92656 0.39448 0.0
H458 H 0.24365 0.81607 0.46215 0.0
H459 H 0.29871 0.81284 0.41814 0.0
C460 C 0.24294 0.45315 0.80293 0.0
C461 C 0.26788 0.45338 0.77162 0.0
C462 C 0.26257 0.46263 0.83685 0.0
C463 C 0.36063 0.44525 0.87786 0.0
H464 H 0.29679 0.46382 0.96393 0.0
C465 C 0.32885 0.32766 0.9869 0.0
C466 C 0.3192 0.33894 1.02249 0.0
C467 C 0.33989 0.35824 0.9612 0.0
C468 C 0.31606 0.45944 0.94056 0.0
H469 H 0.3326 0.46967 0.75078 0.0
H470 H 0.36707 0.48646 0.81024 0.0
H471 H 0.2836 0.49659 0.90815 0.0
H472 H 0.31681 0.39157 1.05974 0.0
H473 H 0.33599 0.44526 1.01455 0.0
H474 H 0.39214 0.40709 0.90997 0.0
C475 C 0.33233 0.47784 0.80862 0.0
C476 C 0.30812 0.47792 0.90837 0.0
C477 C 0.31261 0.46818 0.77457 0.0
C478 C 0.32333 0.38185 1.03233 0.0
C479 C 0.33446 0.41259 1.00651 0.0
C480 C 0.36904 0.42734 0.91014 0.0
C481 C 0.30766 0.47261 0.8403 0.0
C482 C 0.32776 0.46818 0.87601 0.0
C483 C 0.34165 0.40099 0.97037 0.0
C484 C 0.34439 0.4315 0.94104 0.0
H485 H 0.20845 0.44172 0.8018 0.0
H486 H 0.24229 0.45787 0.86044 0.0
H487 H 0.37683 0.43725 0.85369 0.0
H488 H 0.3254 0.29491 0.97823 0.0
H489 H 0.34423 0.34786 0.93352 0.0
C490 C 0.73268 0.23536 0.31364 0.0
C491 C 0.74594 0.25687 0.28209 0.0
C492 C 0.71722 0.2559 0.34288 0.0
C493 C 0.73857 0.36348 0.38065 0.0
H494 H 0.6945 0.29885 0.46327 0.0
C495 C 0.78163 0.33317 0.53723 0.0
C496 C 0.82565 0.33774 0.52976 0.0
C497 C 0.7535 0.34321 0.51137 0.0
C498 C 0.70595 0.31847 0.44082 0.0
H499 H 0.74826 0.3153 0.25477 0.0
H500 H 0.71972 0.35065 0.30531 0.0
H501 H 0.6689 0.27382 0.40313 0.0
H502 H 0.87526 0.36048 0.49095 0.0
H503 H 0.82707 0.37704 0.44614 0.0
H504 H 0.776 0.40785 0.41834 0.0
C505 C 0.72267 0.31831 0.30802 0.0
C506 C 0.69166 0.3036 0.40604 0.0
C507 C 0.73874 0.29786 0.27885 0.0
C508 C 0.84159 0.35663 0.49769 0.0
C509 C 0.81362 0.36645 0.47189 0.0
C510 C 0.75182 0.37902 0.41548 0.0
C511 C 0.71416 0.29845 0.34119 0.0
C512 C 0.71165 0.32339 0.37552 0.0
C513 C 0.76889 0.35761 0.47746 0.0
C514 C 0.73952 0.3541 0.4455 0.0
H515 H 0.73653 0.20331 0.31658 0.0
H516 H 0.7113 0.23917 0.36775 0.0
H517 H 0.75391 0.38061 0.35803 0.0
H518 H 0.76859 0.3197 0.56222 0.0
H519 H 0.71943 0.33696 0.51698 0.0
loop_
_geom_bond_atom_site_label_1
_geom_bond_atom_site_label_2
_geom_bond_distance
_geom_bond_site_symmetry_2
_ccdc_geom_bond_type
Tb0 C2 2.809 . S
Tb0 O20 2.484 . S
Tb0 O21 2.440 . S
Tb0 O22 2.659 . S
Tb0 O23 2.409 . S
Tb0 O24 2.378 . S
Tb0 O28 2.325 . S
Tb0 O31 2.341 1_554 S
Tb1 C11 2.809 . S
Tb1 O22 2.324 1_556 S
Tb1 O25 2.341 1_556 S
Tb1 O26 2.484 . S
Tb1 O27 2.440 . S
Tb1 O28 2.658 1_556 S
Tb1 O29 2.409 . S
Tb1 O30 2.378 . S
C2 Tb0 2.809 . S
C2 C3 1.514 . S
C2 O20 1.248 . S
C2 O21 1.266 . S
C3 C2 1.514 . S
C3 C4 1.359 . S
C3 C8 1.348 . S
C4 C3 1.359 . S
C4 C5 1.380 . S
C4 H32 0.929 . S
C5 C4 1.380 . S
C5 C6 1.347 . S
C5 H33 0.931 . S
C6 C5 1.347 . S
C6 C7 1.369 . S
C7 C6 1.369 . S
C7 C8 1.408 . S
C7 H34 0.930 . S
C8 C3 1.348 . S
C8 C7 1.408 . S
C8 H35 0.930 . S
C9 O22 1.282 . S
C9 O23 1.254 . S
C10 O24 1.236 . S
C10 O25 1.266 . S
C11 Tb1 2.809 . S
C11 C12 1.514 . S
C11 O26 1.248 . S
C11 O27 1.266 . S
C12 C11 1.514 . S
C12 C13 1.359 . S
C12 C17 1.348 . S
C13 C12 1.359 . S
C13 C14 1.380 . S
C13 H36 0.929 . S
C14 C13 1.380 . S
C14 C15 1.347 . S
C14 H37 0.931 . S
C15 C14 1.347 . S
C15 C16 1.369 . S
C16 C15 1.369 . S
C16 C17 1.408 . S
C16 H38 0.930 . S
C17 C12 1.348 . S
C17 C16 1.408 . S
C17 H39 0.930 . S
C18 O28 1.281 . S
C18 O29 1.254 1_554 S
C19 O30 1.236 . S
C19 O31 1.266 . S
O20 Tb0 2.484 . S
O20 C2 1.248 . S
O21 Tb0 2.440 . S
O21 C2 1.266 . S
O22 Tb0 2.659 . S
O22 Tb1 2.324 1_554 S
O22 C9 1.282 . S
O23 Tb0 2.409 . S
O23 C9 1.254 . S
O24 Tb0 2.378 . S
O24 C10 1.236 . S
O25 Tb1 2.341 1_554 S
O25 C10 1.266 . S
O26 Tb1 2.484 . S
O26 C11 1.248 . S
O27 Tb1 2.440 . S
O27 C11 1.266 . S
O28 Tb0 2.325 . S
O28 Tb1 2.658 1_554 S
O28 C18 1.281 . S
O29 Tb1 2.409 . S
O29 C18 1.254 1_556 S
O30 Tb1 2.378 . S
O30 C19 1.236 . S
O31 Tb0 2.341 1_556 S
O31 C19 1.266 . S
H32 C4 0.929 . S
H33 C5 0.931 . S
H34 C7 0.930 . S
H35 C8 0.930 . S
H36 C13 0.929 . S
H37 C14 0.931 . S
H38 C16 0.930 . S
H39 C17 0.930 . S
Tb40 C42 2.809 . S
Tb40 O60 2.484 . S
Tb40 O61 2.440 . S
Tb40 O62 2.658 1_655 S
Tb40 O63 2.409 1_655 S
Tb40 O64 2.378 1_655 S
Tb40 O68 2.325 1_655 S
Tb40 O71 2.341 . S
Tb41 C51 2.809 . S
Tb41 O62 2.325 . S
Tb41 O65 2.341 . S
Tb41 O66 2.484 . S
Tb41 O67 2.440 . S
Tb41 O68 2.658 . S
Tb41 O69 2.409 . S
Tb41 O70 2.378 . S
C42 Tb40 2.809 . S
C42 C43 1.514 . S
C42 O60 1.248 . S
C42 O61 1.266 . S
C43 C42 1.514 . S
C43 C44 1.359 . S
C43 C48 1.348 . S
C44 C43 1.359 . S
C44 C45 1.380 . S
C44 H72 0.929 . S
C45 C44 1.380 . S
C45 C46 1.347 . S
C45 H73 0.931 . S
C46 C45 1.347 . S
C46 C47 1.369 . S
C47 C46 1.369 . S
C47 C48 1.408 . S
C47 H74 0.930 . S
C48 C43 1.348 . S
C48 C47 1.408 . S
C48 H75 0.930 . S
C49 O62 1.281 . S
C49 O63 1.254 . S
C50 O64 1.236 . S
C50 O65 1.266 . S
C51 Tb41 2.809 . S
C51 C52 1.514 . S
C51 O66 1.248 . S
C51 O67 1.266 . S
C52 C51 1.514 . S
C52 C53 1.359 . S
C52 C57 1.348 . S
C53 C52 1.359 . S
C53 C54 1.380 . S
C53 H76 0.929 . S
C54 C53 1.380 . S
C54 C55 1.347 . S
C54 H77 0.931 . S
C55 C54 1.347 . S
C55 C56 1.369 . S
C56 C55 1.369 . S
C56 C57 1.408 . S
C56 H78 0.930 . S
C57 C52 1.348 . S
C57 C56 1.408 . S
C57 H79 0.930 . S
C58 O68 1.281 . S
C58 O69 1.254 . S
C59 O70 1.236 . S
C59 O71 1.266 1_455 S
O60 Tb40 2.484 . S
O60 C42 1.248 . S
O61 Tb40 2.440 . S
O61 C42 1.266 . S
O62 Tb40 2.658 1_455 S
O62 Tb41 2.325 . S
O62 C49 1.281 . S
O63 Tb40 2.409 1_455 S
O63 C49 1.254 . S
O64 Tb40 2.378 1_455 S
O64 C50 1.236 . S
O65 Tb41 2.341 . S
O65 C50 1.266 . S
O66 Tb41 2.484 . S
O66 C51 1.248 . S
O67 Tb41 2.440 . S
O67 C51 1.266 . S
O68 Tb40 2.325 1_455 S
O68 Tb41 2.658 . S
O68 C58 1.281 . S
O69 Tb41 2.409 . S
O69 C58 1.254 . S
O70 Tb41 2.378 . S
O70 C59 1.236 . S
O71 Tb40 2.341 . S
O71 C59 1.266 1_655 S
H72 C44 0.929 . S
H73 C45 0.931 . S
H74 C47 0.930 . S
H75 C48 0.930 . S
H76 C53 0.929 . S
H77 C54 0.931 . S
H78 C56 0.930 . S
H79 C57 0.930 . S
Tb80 C82 2.809 . S
Tb80 O100 2.484 . S
Tb80 O101 2.440 . S
Tb80 O102 2.658 1_554 S
Tb80 O103 2.409 . S
Tb80 O104 2.378 . S
Tb80 O108 2.325 . S
Tb80 O111 2.341 1_554 S
Tb81 C91 2.809 . S
Tb81 O102 2.325 1_565 S
Tb81 O105 2.341 1_556 S
Tb81 O106 2.484 . S
Tb81 O107 2.440 . S
Tb81 O108 2.658 1_566 S
Tb81 O109 2.409 . S
Tb81 O110 2.378 1_565 S
C82 Tb80 2.809 . S
C82 C83 1.514 . S
C82 O100 1.248 . S
C82 O101 1.266 . S
C83 C82 1.514 . S
C83 C84 1.359 . S
C83 C88 1.348 . S
C84 C83 1.359 . S
C84 C85 1.380 . S
C84 H112 0.929 . S
C85 C84 1.380 . S
C85 C86 1.347 . S
C85 H113 0.931 . S
C86 C85 1.347 . S
C86 C87 1.369 . S
C87 C86 1.369 . S
C87 C88 1.408 . S
C87 H114 0.930 . S
C88 C83 1.348 . S
C88 C87 1.408 . S
C88 H115 0.930 . S
C89 O102 1.281 1_554 S
C89 O103 1.254 . S
C90 O104 1.236 1_565 S
C90 O105 1.266 . S
C91 Tb81 2.809 . S
C91 C92 1.514 . S
C91 O106 1.248 . S
C91 O107 1.266 . S
C92 C91 1.514 . S
C92 C93 1.359 . S
C92 C97 1.348 . S
C93 C92 1.359 . S
C93 C94 1.380 . S
C93 H116 0.929 . S
C94 C93 1.380 . S
C94 C95 1.347 . S
C94 H117 0.931 . S
C95 C94 1.347 . S
C95 C96 1.369 . S
C96 C95 1.369 . S
C96 C97 1.408 . S
C96 H118 0.930 . S
C97 C92 1.348 . S
C97 C96 1.408 . S
C97 H119 0.930 . S
C98 O108 1.281 . S
C98 O109 1.254 1_544 S
C99 O110 1.236 . S
C99 O111 1.266 . S
O100 Tb80 2.484 . S
O100 C82 1.248 . S
O101 Tb80 2.440 . S
O101 C82 1.266 . S
O102 Tb80 2.658 1_556 S
O102 Tb81 2.325 1_545 S
O102 C89 1.281 1_556 S
O103 Tb80 2.409 . S
O103 C89 1.254 . S
O104 Tb80 2.378 . S
O104 C90 1.236 1_545 S
O105 Tb81 2.341 1_554 S
O105 C90 1.266 . S
O106 Tb81 2.484 . S
O106 C91 1.248 . S
O107 Tb81 2.440 . S
O107 C91 1.266 . S
O108 Tb80 2.325 . S
O108 Tb81 2.658 1_544 S
O108 C98 1.281 . S
O109 Tb81 2.409 . S
O109 C98 1.254 1_566 S
O110 Tb81 2.378 1_545 S
O110 C99 1.236 . S
O111 Tb80 2.341 1_556 S
O111 C99 1.266 . S
H112 C84 0.929 . S
H113 C85 0.931 . S
H114 C87 0.930 . S
H115 C88 0.930 . S
H116 C93 0.929 . S
H117 C94 0.931 . S
H118 C96 0.930 . S
H119 C97 0.930 . S
Tb120 C122 2.809 1_455 S
Tb120 O140 2.484 1_455 S
Tb120 O141 2.440 1_455 S
Tb120 O142 2.658 . S
Tb120 O143 2.409 . S
Tb120 O144 2.378 . S
Tb120 O148 2.325 . S
Tb120 O151 2.341 1_455 S
Tb121 C131 2.809 . S
Tb121 O142 2.325 . S
Tb121 O145 2.341 . S
Tb121 O146 2.484 . S
Tb121 O147 2.440 . S
Tb121 O148 2.658 . S
Tb121 O149 2.409 . S
Tb121 O150 2.378 . S
C122 Tb120 2.809 1_655 S
C122 C123 1.514 . S
C122 O140 1.248 . S
C122 O141 1.266 . S
C123 C122 1.514 . S
C123 C124 1.359 . S
C123 C128 1.348 . S
C124 C123 1.359 . S
C124 C125 1.380 . S
C124 H152 0.929 . S
C125 C124 1.380 . S
C125 C126 1.347 . S
C125 H153 0.931 . S
C126 C125 1.347 . S
C126 C127 1.369 . S
C127 C126 1.369 . S
C127 C128 1.408 . S
C127 H154 0.930 . S
C128 C123 1.348 . S
C128 C127 1.408 . S
C128 H155 0.930 . S
C129 O142 1.281 . S
C129 O143 1.254 . S
C130 O144 1.236 . S
C130 O145 1.266 . S
C131 Tb121 2.809 . S
C131 C132 1.514 . S
C131 O146 1.248 . S
C131 O147 1.266 . S
C132 C131 1.514 . S
C132 C133 1.359 . S
C132 C137 1.348 . S
C133 C132 1.359 . S
C133 C134 1.380 . S
C133 H156 0.929 . S
C134 C133 1.380 . S
C134 C135 1.347 . S
C134 H157 0.931 . S
C135 C134 1.347 . S
C135 C136 1.369 . S
C136 C135 1.369 . S
C136 C137 1.408 . S
C136 H158 0.930 . S
C137 C132 1.348 . S
C137 C136 1.408 . S
C137 H159 0.930 . S
C138 O148 1.281 . S
C138 O149 1.254 . S
C139 O150 1.236 . S
C139 O151 1.266 1_455 S
O140 Tb120 2.484 1_655 S
O140 C122 1.248 . S
O141 Tb120 2.440 1_655 S
O141 C122 1.266 . S
O142 Tb120 2.658 . S
O142 Tb121 2.325 . S
O142 C129 1.281 . S
O143 Tb120 2.409 . S
O143 C129 1.254 . S
O144 Tb120 2.378 . S
O144 C130 1.236 . S
O145 Tb121 2.341 . S
O145 C130 1.266 . S
O146 Tb121 2.484 . S
O146 C131 1.248 . S
O147 Tb121 2.440 . S
O147 C131 1.266 . S
O148 Tb120 2.325 . S
O148 Tb121 2.658 . S
O148 C138 1.281 . S
O149 Tb121 2.409 . S
O149 C138 1.254 . S
O150 Tb121 2.378 . S
O150 C139 1.236 . S
O151 Tb120 2.341 1_655 S
O151 C139 1.266 1_655 S
H152 C124 0.929 . S
H153 C125 0.931 . S
H154 C127 0.930 . S
H155 C128 0.930 . S
H156 C133 0.929 . S
H157 C134 0.931 . S
H158 C136 0.930 . S
H159 C137 0.930 . S
C160 C161 1.349 1_556 S
C160 C162 1.327 . S
C160 H185 0.950 . S
C161 C160 1.349 1_554 S
C161 C177 1.349 . S
C162 C160 1.327 . S
C162 C181 1.429 1_556 S
C162 H186 0.950 . S
C163 C180 1.574 . S
C163 C182 1.368 . S
C163 H187 0.949 . S
H164 C168 0.949 . S
C165 C166 1.349 . S
C165 C167 1.327 . S
C165 H188 0.950 . S
C166 C165 1.349 . S
C166 C178 1.349 1_554 S
C167 C165 1.327 . S
C167 C183 1.429 . S
C167 H189 0.950 . S
C168 H164 0.949 . S
C168 C176 1.574 . S
C168 C184 1.368 1_556 S
H169 C177 0.950 1_565 S
H170 C175 0.950 . S
H171 C176 0.949 . S
H172 C178 0.950 . S
H173 C179 0.950 . S
H174 C180 0.949 . S
C175 H170 0.950 . S
C175 C177 1.327 . S
C175 C181 1.429 . S
C176 C168 1.574 . S
C176 H171 0.949 . S
C176 C182 1.368 1_556 S
C177 C161 1.349 . S
C177 H169 0.950 1_545 S
C177 C175 1.327 . S
C178 C166 1.349 1_556 S
C178 H172 0.950 . S
C178 C179 1.327 . S
C179 H173 0.950 . S
C179 C178 1.327 . S
C179 C183 1.429 1_556 S
C180 C163 1.574 . S
C180 H174 0.949 . S
C180 C184 1.368 . S
C181 C162 1.429 1_554 S
C181 C175 1.429 . S
C181 C182 1.523 1_655 S
C182 C163 1.368 . S
C182 C176 1.368 1_554 S
C182 C181 1.523 1_455 S
C183 C167 1.429 . S
C183 C179 1.429 1_554 S
C183 C184 1.523 . S
C184 C168 1.368 1_554 S
C184 C180 1.368 . S
C184 C183 1.523 . S
H185 C160 0.950 . S
H186 C162 0.950 . S
H187 C163 0.949 . S
H188 C165 0.950 . S
H189 C167 0.950 . S
C190 C191 1.349 . S
C190 C192 1.327 . S
C190 H215 0.950 . S
C191 C190 1.349 . S
C191 C207 1.349 . S
C192 C190 1.327 . S
C192 C211 1.429 1_565 S
C192 H216 0.950 1_565 S
C193 C210 1.574 . S
C193 C212 1.368 . S
C193 H217 0.949 . S
H194 C198 0.949 . S
C195 C196 1.349 . S
C195 C197 1.327 . S
C195 H218 0.950 . S
C196 C195 1.349 . S
C196 C208 1.349 . S
C197 C195 1.327 . S
C197 C213 1.429 . S
C197 H219 0.950 . S
C198 H194 0.949 . S
C198 C206 1.574 . S
C198 C214 1.368 . S
H199 C207 0.950 . S
H200 C205 0.950 . S
H201 C206 0.949 . S
H202 C208 0.950 . S
H203 C209 0.950 . S
H204 C210 0.949 . S
C205 H200 0.950 . S
C205 C207 1.327 . S
C205 C211 1.429 1_565 S
C206 C198 1.574 . S
C206 H201 0.949 . S
C206 C212 1.368 . S
C207 C191 1.349 . S
C207 H199 0.950 . S
C207 C205 1.327 . S
C208 C196 1.349 . S
C208 H202 0.950 . S
C208 C209 1.327 . S
C209 H203 0.950 . S
C209 C208 1.327 . S
C209 C213 1.429 . S
C210 C193 1.574 . S
C210 H204 0.949 . S
C210 C214 1.368 . S
C211 C192 1.429 1_545 S
C211 C205 1.429 1_545 S
C211 C212 1.523 . S
C212 C193 1.368 . S
C212 C206 1.368 . S
C212 C211 1.523 . S
C213 C197 1.429 . S
C213 C209 1.429 . S
C213 C214 1.523 . S
C214 C198 1.368 . S
C214 C210 1.368 . S
C214 C213 1.523 . S
H215 C190 0.950 . S
H216 C192 0.950 1_545 S
H217 C193 0.949 . S
H218 C195 0.950 . S
H219 C197 0.950 . S
C220 C221 1.349 . S
C220 C222 1.327 . S
C220 H245 0.950 . S
C221 C220 1.349 . S
C221 C237 1.349 1_554 S
C222 C220 1.327 . S
C222 C241 1.429 . S
C222 H246 0.950 . S
C223 C240 1.574 . S
C223 C242 1.368 1_556 S
C223 H247 0.949 . S
H224 C228 0.949 . S
C225 C226 1.349 1_556 S
C225 C227 1.327 . S
C225 H248 0.950 . S
C226 C225 1.349 1_554 S
C226 C238 1.349 . S
C227 C225 1.327 . S
C227 C243 1.429 1_556 S
C227 H249 0.950 . S
C228 H224 0.949 . S
C228 C236 1.574 . S
C228 C244 1.368 . S
H229 C237 0.950 1_565 S
H230 C235 0.950 . S
H231 C236 0.949 . S
H232 C238 0.950 . S
H233 C239 0.950 . S
H234 C240 0.949 . S
C235 H230 0.950 . S
C235 C237 1.327 . S
C235 C241 1.429 1_556 S
C236 C228 1.574 . S
C236 H231 0.949 . S
C236 C242 1.368 . S
C237 C221 1.349 1_556 S
C237 H229 0.950 1_545 S
C237 C235 1.327 . S
C238 C226 1.349 . S
C238 H232 0.950 . S
C238 C239 1.327 . S
C239 H233 0.950 . S
C239 C238 1.327 . S
C239 C243 1.429 . S
C240 C223 1.574 . S
C240 H234 0.949 . S
C240 C244 1.368 1_556 S
C241 C222 1.429 . S
C241 C235 1.429 1_554 S
C241 C242 1.523 . S
C242 C223 1.368 1_554 S
C242 C236 1.368 . S
C242 C241 1.523 . S
C243 C227 1.429 1_554 S
C243 C239 1.429 . S
C243 C244 1.523 . S
C244 C228 1.368 . S
C244 C240 1.368 1_554 S
C244 C243 1.523 . S
H245 C220 0.950 . S
H246 C222 0.950 . S
H247 C223 0.949 . S
H248 C225 0.950 . S
H249 C227 0.950 . S
C250 C251 1.349 . S
C250 C252 1.327 . S
C250 H275 0.950 . S
C251 C250 1.349 . S
C251 C267 1.349 . S
C252 C250 1.327 . S
C252 C271 1.429 . S
C252 H276 0.950 . S
C253 C270 1.574 . S
C253 C272 1.368 . S
C253 H277 0.949 . S
H254 C258 0.949 . S
C255 C256 1.349 . S
C255 C257 1.327 . S
C255 H278 0.950 . S
C256 C255 1.349 . S
C256 C268 1.349 . S
C257 C255 1.327 . S
C257 C273 1.429 . S
C257 H279 0.950 . S
C258 H254 0.949 . S
C258 C266 1.574 . S
C258 C274 1.368 . S
H259 C267 0.950 . S
H260 C265 0.950 . S
H261 C266 0.949 . S
H262 C268 0.950 . S
H263 C269 0.950 . S
H264 C270 0.949 . S
C265 H260 0.950 . S
C265 C267 1.327 . S
C265 C271 1.429 . S
C266 C258 1.574 . S
C266 H261 0.949 . S
C266 C272 1.368 . S
C267 C251 1.349 . S
C267 H259 0.950 . S
C267 C265 1.327 . S
C268 C256 1.349 . S
C268 H262 0.950 . S
C268 C269 1.327 . S
C269 H263 0.950 . S
C269 C268 1.327 . S
C269 C273 1.429 . S
C270 C253 1.574 . S
C270 H264 0.949 . S
C270 C274 1.368 . S
C271 C252 1.429 . S
C271 C265 1.429 . S
C271 C272 1.523 . S
C272 C253 1.368 . S
C272 C266 1.368 . S
C272 C271 1.523 . S
C273 C257 1.429 . S
C273 C269 1.429 . S
C273 C274 1.523 . S
C274 C258 1.368 . S
C274 C270 1.368 . S
C274 C273 1.523 . S
H275 C250 0.950 . S
H276 C252 0.950 . S
H277 C253 0.949 . S
H278 C255 0.950 . S
H279 C257 0.950 . S
C280 C281 1.349 . S
C280 C282 1.327 . S
C280 H305 0.950 . S
C281 C280 1.349 . S
C281 C297 1.349 . S
C282 C280 1.327 . S
C282 C301 1.429 . S
C282 H306 0.950 . S
C283 C300 1.574 . S
C283 C302 1.368 . S
C283 H307 0.949 . S
H284 C288 0.949 . S
C285 C286 1.349 . S
C285 C287 1.327 . S
C285 H308 0.950 . S
C286 C285 1.349 . S
C286 C298 1.349 . S
C287 C285 1.327 . S
C287 C303 1.429 . S
C287 H309 0.950 . S
C288 H284 0.949 . S
C288 C296 1.574 . S
C288 C304 1.368 . S
H289 C297 0.950 . S
H290 C295 0.950 . S
H291 C296 0.949 . S
H292 C298 0.950 . S
H293 C299 0.950 . S
H294 C300 0.949 . S
C295 H290 0.950 . S
C295 C297 1.327 . S
C295 C301 1.429 . S
C296 C288 1.574 . S
C296 H291 0.949 . S
C296 C302 1.368 . S
C297 C281 1.349 . S
C297 H289 0.950 . S
C297 C295 1.327 . S
C298 C286 1.349 . S
C298 H292 0.950 . S
C298 C299 1.327 . S
C299 H293 0.950 . S
C299 C298 1.327 . S
C299 C303 1.429 . S
C300 C283 1.574 . S
C300 H294 0.949 . S
C300 C304 1.368 . S
C301 C282 1.429 . S
C301 C295 1.429 . S
C301 C302 1.523 . S
C302 C283 1.368 . S
C302 C296 1.368 . S
C302 C301 1.523 . S
C303 C287 1.429 . S
C303 C299 1.429 . S
C303 C304 1.523 . S
C304 C288 1.368 . S
C304 C300 1.368 . S
C304 C303 1.523 . S
H305 C280 0.950 . S
H306 C282 0.950 . S
H307 C283 0.949 . S
H308 C285 0.950 . S
H309 C287 0.950 . S
C310 C311 1.349 . S
C310 C312 1.327 . S
C310 H335 0.950 . S
C311 C310 1.349 . S
C311 C327 1.349 . S
C312 C310 1.327 . S
C312 C331 1.429 . S
C312 H336 0.950 . S
C313 C330 1.574 . S
C313 C332 1.368 . S
C313 H337 0.949 . S
H314 C318 0.949 . S
C315 C316 1.349 . S
C315 C317 1.327 . S
C315 H338 0.950 . S
C316 C315 1.349 . S
C316 C328 1.349 . S
C317 C315 1.327 . S
C317 C333 1.429 . S
C317 H339 0.950 . S
C318 H314 0.949 . S
C318 C326 1.574 . S
C318 C334 1.368 . S
H319 C327 0.950 . S
H320 C325 0.950 . S
H321 C326 0.949 . S
H322 C328 0.950 . S
H323 C329 0.950 . S
H324 C330 0.949 . S
C325 H320 0.950 . S
C325 C327 1.327 . S
C325 C331 1.429 . S
C326 C318 1.574 . S
C326 H321 0.949 . S
C326 C332 1.368 . S
C327 C311 1.349 . S
C327 H319 0.950 . S
C327 C325 1.327 . S
C328 C316 1.349 . S
C328 H322 0.950 . S
C328 C329 1.327 . S
C329 H323 0.950 . S
C329 C328 1.327 . S
C329 C333 1.429 . S
C330 C313 1.574 . S
C330 H324 0.949 . S
C330 C334 1.368 . S
C331 C312 1.429 . S
C331 C325 1.429 . S
C331 C332 1.523 . S
C332 C313 1.368 . S
C332 C326 1.368 . S
C332 C331 1.523 . S
C333 C317 1.429 . S
C333 C329 1.429 . S
C333 C334 1.523 . S
C334 C318 1.368 . S
C334 C330 1.368 . S
C334 C333 1.523 . S
H335 C310 0.950 . S
H336 C312 0.950 . S
H337 C313 0.949 . S
H338 C315 0.950 . S
H339 C317 0.950 . S
C340 C341 1.349 . S
C340 C342 1.327 . S
C340 H365 0.950 . S
C341 C340 1.349 . S
C341 C357 1.349 . S
C342 C340 1.327 . S
C342 C361 1.429 . S
C342 H366 0.950 . S
C343 C360 1.574 . S
C343 C362 1.368 . S
C343 H367 0.949 . S
H344 C348 0.949 . S
C345 C346 1.349 . S
C345 C347 1.327 . S
C345 H368 0.950 . S
C346 C345 1.349 . S
C346 C358 1.349 . S
C347 C345 1.327 . S
C347 C363 1.429 . S
C347 H369 0.950 . S
C348 H344 0.949 . S
C348 C356 1.574 . S
C348 C364 1.368 . S
H349 C357 0.950 1_455 S
H350 C355 0.950 . S
H351 C356 0.949 . S
H352 C358 0.950 . S
H353 C359 0.950 . S
H354 C360 0.949 . S
C355 H350 0.950 . S
C355 C357 1.327 . S
C355 C361 1.429 . S
C356 C348 1.574 . S
C356 H351 0.949 . S
C356 C362 1.368 . S
C357 C341 1.349 . S
C357 H349 0.950 1_655 S
C357 C355 1.327 . S
C358 C346 1.349 . S
C358 H352 0.950 . S
C358 C359 1.327 . S
C359 H353 0.950 . S
C359 C358 1.327 . S
C359 C363 1.429 . S
C360 C343 1.574 . S
C360 H354 0.949 . S
C360 C364 1.368 . S
C361 C342 1.429 . S
C361 C355 1.429 . S
C361 C362 1.523 . S
C362 C343 1.368 . S
C362 C356 1.368 . S
C362 C361 1.523 . S
C363 C347 1.429 . S
C363 C359 1.429 . S
C363 C364 1.523 . S
C364 C348 1.368 . S
C364 C360 1.368 . S
C364 C363 1.523 . S
H365 C340 0.950 . S
H366 C342 0.950 . S
H367 C343 0.949 . S
H368 C345 0.950 . S
H369 C347 0.950 . S
C370 C371 1.349 . S
C370 C372 1.327 . S
C370 H395 0.950 . S
C371 C370 1.349 . S
C371 C387 1.349 . S
C372 C370 1.327 . S
C372 C391 1.429 . S
C372 H396 0.950 . S
C373 C390 1.574 . S
C373 C392 1.368 . S
C373 H397 0.949 . S
H374 C378 0.949 . S
C375 C376 1.349 . S
C375 C377 1.327 . S
C375 H398 0.950 . S
C376 C375 1.349 . S
C376 C388 1.349 . S
C377 C375 1.327 . S
C377 C393 1.429 . S
C377 H399 0.950 . S
C378 H374 0.949 . S
C378 C386 1.574 . S
C378 C394 1.368 . S
H379 C387 0.950 . S
H380 C385 0.950 . S
H381 C386 0.949 . S
H382 C388 0.950 . S
H383 C389 0.950 . S
H384 C390 0.949 . S
C385 H380 0.950 . S
C385 C387 1.327 . S
C385 C391 1.429 . S
C386 C378 1.574 . S
C386 H381 0.949 . S
C386 C392 1.368 1_545 S
C387 C371 1.349 . S
C387 H379 0.950 . S
C387 C385 1.327 . S
C388 C376 1.349 . S
C388 H382 0.950 . S
C388 C389 1.327 . S
C389 H383 0.950 . S
C389 C388 1.327 . S
C389 C393 1.429 . S
C390 C373 1.574 . S
C390 H384 0.949 . S
C390 C394 1.368 1_565 S
C391 C372 1.429 . S
C391 C385 1.429 . S
C391 C392 1.523 . S
C392 C373 1.368 . S
C392 C386 1.368 1_565 S
C392 C391 1.523 . S
C393 C377 1.429 . S
C393 C389 1.429 . S
C393 C394 1.523 . S
C394 C378 1.368 . S
C394 C390 1.368 1_545 S
C394 C393 1.523 . S
H395 C370 0.950 . S
H396 C372 0.950 . S
H397 C373 0.949 . S
H398 C375 0.950 . S
H399 C377 0.950 . S
C400 C401 1.349 . S
C400 C402 1.327 . S
C400 H425 0.950 . S
C401 C400 1.349 . S
C401 C417 1.349 . S
C402 C400 1.327 . S
C402 C421 1.429 . S
C402 H426 0.950 . S
C403 C420 1.574 . S
C403 C422 1.368 . S
C403 H427 0.949 . S
H404 C408 0.949 . S
C405 C406 1.349 . S
C405 C407 1.327 . S
C405 H428 0.950 . S
C406 C405 1.349 . S
C406 C418 1.349 . S
C407 C405 1.327 . S
C407 C423 1.429 . S
C407 H429 0.950 . S
C408 H404 0.949 . S
C408 C416 1.574 . S
C408 C424 1.368 . S
H409 C417 0.950 . S
H410 C415 0.950 . S
H411 C416 0.949 . S
H412 C418 0.950 . S
H413 C419 0.950 . S
H414 C420 0.949 . S
C415 H410 0.950 . S
C415 C417 1.327 . S
C415 C421 1.429 . S
C416 C408 1.574 . S
C416 H411 0.949 . S
C416 C422 1.368 . S
C417 C401 1.349 . S
C417 H409 0.950 . S
C417 C415 1.327 . S
C418 C406 1.349 . S
C418 H412 0.950 . S
C418 C419 1.327 . S
C419 H413 0.950 . S
C419 C418 1.327 . S
C419 C423 1.429 . S
C420 C403 1.574 . S
C420 H414 0.949 . S
C420 C424 1.368 . S
C421 C402 1.429 . S
C421 C415 1.429 . S
C421 C422 1.523 . S
C422 C403 1.368 . S
C422 C416 1.368 . S
C422 C421 1.523 . S
C423 C407 1.429 . S
C423 C419 1.429 . S
C423 C424 1.523 . S
C424 C408 1.368 . S
C424 C420 1.368 . S
C424 C423 1.523 . S
H425 C400 0.950 . S
H426 C402 0.950 . S
H427 C403 0.949 . S
H428 C405 0.950 . S
H429 C407 0.950 . S
C430 C431 1.349 . S
C430 C432 1.325 1_545 S
C430 H455 0.950 . S
C431 C430 1.349 . S
C431 C447 1.349 . S
C432 C430 1.325 1_565 S
C432 C451 1.426 1_565 S
C432 H456 0.954 . S
C433 C450 1.574 1_545 S
C433 C452 1.368 1_545 S
C433 H457 0.949 . S
H434 C438 0.949 . S
C435 C436 1.349 . S
C435 C437 1.327 . S
C435 H458 0.950 . S
C436 C435 1.349 . S
C436 C448 1.349 . S
C437 C435 1.327 . S
C437 C453 1.429 . S
C437 H459 0.950 . S
C438 H434 0.949 . S
C438 C446 1.574 . S
C438 C454 1.368 . S
H439 C447 0.950 . S
H440 C445 0.950 . S
H441 C446 0.949 . S
H442 C448 0.950 . S
H443 C449 0.950 . S
H444 C450 0.949 . S
C445 H440 0.950 . S
C445 C447 1.327 . S
C445 C451 1.429 . S
C446 C438 1.574 . S
C446 H441 0.949 . S
C446 C452 1.368 . S
C447 C431 1.349 . S
C447 H439 0.950 . S
C447 C445 1.327 . S
C448 C436 1.349 . S
C448 H442 0.950 . S
C448 C449 1.327 . S
C449 H443 0.950 . S
C449 C448 1.327 . S
C449 C453 1.429 . S
C450 C433 1.574 1_565 S
C450 H444 0.949 . S
C450 C454 1.368 . S
C451 C432 1.426 1_545 S
C451 C445 1.429 . S
C451 C452 1.523 1_545 S
C452 C433 1.368 1_565 S
C452 C446 1.368 . S
C452 C451 1.523 1_565 S
C453 C437 1.429 . S
C453 C449 1.429 . S
C453 C454 1.523 . S
C454 C438 1.368 . S
C454 C450 1.368 . S
C454 C453 1.523 . S
H455 C430 0.950 . S
H456 C432 0.954 . S
H457 C433 0.949 . S
H458 C435 0.950 . S
H459 C437 0.950 . S
C460 C461 1.349 . S
C460 C462 1.327 . S
C460 H485 0.950 . S
C461 C460 1.349 . S
C461 C477 1.349 . S
C462 C460 1.327 . S
C462 C481 1.429 . S
C462 H486 0.950 . S
C463 C480 1.574 . S
C463 C482 1.368 . S
C463 H487 0.949 . S
H464 C468 0.949 . S
C465 C466 1.349 . S
C465 C467 1.327 . S
C465 H488 0.950 . S
C466 C465 1.349 . S
C466 C478 1.349 . S
C467 C465 1.327 . S
C467 C483 1.429 . S
C467 H489 0.950 . S
C468 H464 0.949 . S
C468 C476 1.574 . S
C468 C484 1.368 . S
H469 C477 0.950 . S
H470 C475 0.950 . S
H471 C476 0.949 . S
H472 C478 0.950 . S
H473 C479 0.950 . S
H474 C480 0.949 . S
C475 H470 0.950 . S
C475 C477 1.327 . S
C475 C481 1.429 . S
C476 C468 1.574 . S
C476 H471 0.949 . S
C476 C482 1.368 . S
C477 C461 1.349 . S
C477 H469 0.950 . S
C477 C475 1.327 . S
C478 C466 1.349 . S
C478 H472 0.950 . S
C478 C479 1.327 . S
C479 H473 0.950 . S
C479 C478 1.327 . S
C479 C483 1.429 . S
C480 C463 1.574 . S
C480 H474 0.949 . S
C480 C484 1.368 . S
C481 C462 1.429 . S
C481 C475 1.429 . S
C481 C482 1.523 . S
C482 C463 1.368 . S
C482 C476 1.368 . S
C482 C481 1.523 . S
C483 C467 1.429 . S
C483 C479 1.429 . S
C483 C484 1.523 . S
C484 C468 1.368 . S
C484 C480 1.368 . S
C484 C483 1.523 . S
H485 C460 0.950 . S
H486 C462 0.950 . S
H487 C463 0.949 . S
H488 C465 0.950 . S
H489 C467 0.950 . S
C490 C491 1.349 . S
C490 C492 1.327 . S
C490 H515 0.950 . S
C491 C490 1.349 . S
C491 C507 1.349 . S
C492 C490 1.327 . S
C492 C511 1.429 . S
C492 H516 0.950 . S
C493 C510 1.574 . S
C493 C512 1.368 . S
C493 H517 0.949 . S
H494 C498 0.949 . S
C495 C496 1.349 . S
C495 C497 1.327 . S
C495 H518 0.950 . S
C496 C495 1.349 . S
C496 C508 1.349 . S
C497 C495 1.327 . S
C497 C513 1.429 . S
C497 H519 0.950 . S
C498 H494 0.949 . S
C498 C506 1.574 . S
C498 C514 1.368 . S
H499 C507 0.950 . S
H500 C505 0.950 . S
H501 C506 0.949 . S
H502 C508 0.950 . S
H503 C509 0.950 . S
H504 C510 0.949 . S
C505 H500 0.950 . S
C505 C507 1.327 . S
C505 C511 1.429 . S
C506 C498 1.574 . S
C506 H501 0.949 . S
C506 C512 1.368 . S
C507 C491 1.349 . S
C507 H499 0.950 . S
C507 C505 1.327 . S
C508 C496 1.349 . S
C508 H502 0.950 . S
C508 C509 1.327 . S
C509 H503 0.950 . S
C509 C508 1.327 . S
C509 C513 1.429 . S
C510 C493 1.574 . S
C510 H504 0.949 . S
C510 C514 1.368 . S
C511 C492 1.429 . S
C511 C505 1.429 . S
C511 C512 1.523 . S
C512 C493 1.368 . S
C512 C506 1.368 . S
C512 C511 1.523 . S
C513 C497 1.429 . S
C513 C509 1.429 . S
C513 C514 1.523 . S
C514 C498 1.368 . S
C514 C510 1.368 . S
C514 C513 1.523 . S
H515 C490 0.950 . S
H516 C492 0.950 . S
H517 C493 0.949 . S
H518 C495 0.950 . S
H519 C497 0.950 . S
C161 C89 0.914 . S
C166 C9 0.913 . S
C191 C129 1.039 . S
C196 C49 1.026 . S
C221 C98 1.025 . S
C226 C18 1.024 . S
C251 C58 0.723 . S
C256 C138 0.723 . S
C281 C50 4.449 . S
C286 C10 4.409 . S
C311 C59 4.625 1_655 S
C316 C99 4.631 . S
C341 C139 4.706 1_655 S
C346 C90 4.602 . S
C371 C130 4.368 . S
C376 C19 4.440 . S
C401 C95 0.995 . S
C406 C126 1.018 . S
C431 C6 1.084 . S
C436 C135 1.031 . S
C461 C55 0.934 . S
C466 C15 1.013 . S
C491 C86 1.063 . S
C496 C46 1.113 . S
