# Generated by pormake.
# Topology etb, (3)-cn, num edge types: 1
# Building blocks:
#     Node 0, Type 0, BuildingBlock: WUSLED_clean_sbu_0, # of connection points: 3
#     Node 1, Type 0, BuildingBlock: WUSLED_clean_sbu_0, # of connection points: 3
#     Node 2, Type 0, BuildingBlock: WUSLED_clean_sbu_0, # of connection points: 3
#     Node 3, Type 0, BuildingBlock: WUSLED_clean_sbu_0, # of connection points: 3
#     Node 4, Type 0, BuildingBlock: WUSLED_clean_sbu_0, # of connection points: 3
#     Node 5, Type 0, BuildingBlock: WUSLED_clean_sbu_0, # of connection points: 3
#     Node 6, Type 0, BuildingBlock: WUSLED_clean_sbu_0, # of connection points: 3
#     Node 7, Type 0, BuildingBlock: WUSLED_clean_sbu_0, # of connection points: 3
#     Node 8, Type 0, BuildingBlock: WUSLED_clean_sbu_0, # of connection points: 3
#     Node 9, Type 0, BuildingBlock: WUSLED_clean_sbu_0, # of connection points: 3
#     Node 10, Type 0, BuildingBlock: WUSLED_clean_sbu_0, # of connection points: 3
#     Node 11, Type 0, BuildingBlock: WUSLED_clean_sbu_0, # of connection points: 3
#     Node 12, Type 0, BuildingBlock: WUSLED_clean_sbu_0, # of connection points: 3
#     Node 13, Type 0, BuildingBlock: WUSLED_clean_sbu_0, # of connection points: 3
#     Node 14, Type 0, BuildingBlock: WUSLED_clean_sbu_0, # of connection points: 3
#     Node 15, Type 0, BuildingBlock: WUSLED_clean_sbu_0, # of connection points: 3
#     Node 16, Type 0, BuildingBlock: WUSLED_clean_sbu_0, # of connection points: 3
#     Node 17, Type 0, BuildingBlock: WUSLED_clean_sbu_0, # of connection points: 3
#     Edge 18, Type (0, 0), BuildingBlock: KIFKEQ_clean_linker_1, # of connection points: 2
#     Edge 19, Type (0, 0), BuildingBlock: KIFKEQ_clean_linker_1, # of connection points: 2
#     Edge 20, Type (0, 0), BuildingBlock: KIFKEQ_clean_linker_1, # of connection points: 2
#     Edge 21, Type (0, 0), BuildingBlock: KIFKEQ_clean_linker_1, # of connection points: 2
#     Edge 22, Type (0, 0), BuildingBlock: KIFKEQ_clean_linker_1, # of connection points: 2
#     Edge 23, Type (0, 0), BuildingBlock: KIFKEQ_clean_linker_1, # of connection points: 2
#     Edge 24, Type (0, 0), BuildingBlock: KIFKEQ_clean_linker_1, # of connection points: 2
#     Edge 25, Type (0, 0), BuildingBlock: KIFKEQ_clean_linker_1, # of connection points: 2
#     Edge 26, Type (0, 0), BuildingBlock: KIFKEQ_clean_linker_1, # of connection points: 2
#     Edge 27, Type (0, 0), BuildingBlock: KIFKEQ_clean_linker_1, # of connection points: 2
#     Edge 28, Type (0, 0), BuildingBlock: KIFKEQ_clean_linker_1, # of connection points: 2
#     Edge 29, Type (0, 0), BuildingBlock: KIFKEQ_clean_linker_1, # of connection points: 2
#     Edge 30, Type (0, 0), BuildingBlock: KIFKEQ_clean_linker_1, # of connection points: 2
#     Edge 31, Type (0, 0), BuildingBlock: KIFKEQ_clean_linker_1, # of connection points: 2
#     Edge 32, Type (0, 0), BuildingBlock: KIFKEQ_clean_linker_1, # of connection points: 2
#     Edge 33, Type (0, 0), BuildingBlock: KIFKEQ_clean_linker_1, # of connection points: 2
#     Edge 34, Type (0, 0), BuildingBlock: KIFKEQ_clean_linker_1, # of connection points: 2
#     Edge 35, Type (0, 0), BuildingBlock: KIFKEQ_clean_linker_1, # of connection points: 2
#     Edge 36, Type (0, 0), BuildingBlock: KIFKEQ_clean_linker_1, # of connection points: 2
#     Edge 37, Type (0, 0), BuildingBlock: KIFKEQ_clean_linker_1, # of connection points: 2
#     Edge 38, Type (0, 0), BuildingBlock: KIFKEQ_clean_linker_1, # of connection points: 2
#     Edge 39, Type (0, 0), BuildingBlock: KIFKEQ_clean_linker_1, # of connection points: 2
#     Edge 40, Type (0, 0), BuildingBlock: KIFKEQ_clean_linker_1, # of connection points: 2
#     Edge 41, Type (0, 0), BuildingBlock: KIFKEQ_clean_linker_1, # of connection points: 2
#     Edge 42, Type (0, 0), BuildingBlock: KIFKEQ_clean_linker_1, # of connection points: 2
#     Edge 43, Type (0, 0), BuildingBlock: KIFKEQ_clean_linker_1, # of connection points: 2
#     Edge 44, Type (0, 0), BuildingBlock: KIFKEQ_clean_linker_1, # of connection points: 2
# Relax obj value: 0.000
# Max RMSD: 0.008
# Mean RMSD: 0.006
data_MOF--net-etb--node1-WUSLED_clean_sbu_0--edge1-KIFKEQ_clean_linker_1
_symmetry_space_group_name_H-M    P1
_symmetry_Int_Tables_number       1
_symmetry_cell_setting            triclinic
loop_
_symmetry_equiv_pos_as_xyz
'x, y, z'
_cell_length_a     118.54092
_cell_length_b     56.390586
_cell_length_c     756.20416
_cell_angle_alpha  89.436168
_cell_angle_beta   117.78864
_cell_angle_gamma 119.10726
loop_
_atom_site_label
_atom_site_type_symbol
_atom_site_fract_x
_atom_site_fract_y
_atom_site_fract_z
_atom_type_partial_charge
C0 C 0.49697 0.05584 0.00851 0.0
C1 C 0.51415 2.15762 0.00866 0.0
C2 C 0.51663 2.1793 0.01171 0.0
C3 C 0.51082 2.15514 0.01023 0.0
C4 C 0.49921 0.07752 0.01154 0.0
C5 C 0.50255 0.08001 0.00996 0.0
U6 U 0.49411 0.06234 0.00317 0.0
O7 O 0.5125 0.08822 0.00258 0.0
O8 O 0.49912 0.04197 0.00142 0.0
C9 C 0.5107 0.06604 0.00164 0.0
C10 C 0.50209 0.05842 0.007 0.0
C11 C 0.52473 0.06707 0.00216 0.0
C12 C 0.53981 0.046 0.00311 0.0
C13 C 0.52725 0.0459 0.00286 0.0
C14 C 0.5477 0.08865 0.00202 0.0
C15 C 0.55014 0.06722 0.00267 0.0
C16 C 0.53518 0.08852 0.00176 0.0
C17 C 0.80158 0.39299 0.08659 0.0
C18 C 0.79711 0.41815 0.08394 0.0
C19 C 0.77605 0.3739 0.08358 0.0
C20 C 0.78599 0.37182 0.08543 0.0
C21 C 0.78139 0.39735 0.08282 0.0
C22 C 0.80709 0.41606 0.08581 0.0
C23 C 0.81128 0.39174 0.08868 0.0
O24 O 0.52023 2.165 0.00538 0.0
O25 O 0.50714 0.08264 0.00655 0.0
O26 O 0.48265 0.08539 0.00213 0.0
O27 O 0.81133 0.3685 0.08879 0.0
H28 H 0.5098 2.13849 0.00758 0.0
H29 H 0.50376 2.13418 0.01029 0.0
H30 H 0.50409 0.09664 0.01266 0.0
H31 H 0.50988 0.10095 0.00993 0.0
H32 H 0.56772 2.15786 0.00365 0.0
H33 H 0.54574 2.1575 0.00318 0.0
H34 H 0.55519 0.10512 0.00163 0.0
H35 H 0.8755 0.43427 0.08902 0.0
H36 H 0.80166 0.43659 0.08342 0.0
H37 H 0.7641 0.35719 0.08274 0.0
H38 H 0.78139 0.35389 0.086 0.0
H39 H 0.81902 0.43288 0.08666 0.0
C40 C 0.40676 1.18441 0.08521 0.0
C41 C 0.41166 1.17384 0.08424 0.0
C42 C 0.38591 1.13184 0.08205 0.0
C43 C 0.40138 1.14791 0.08268 0.0
C44 C 0.38112 1.14226 0.08305 0.0
C45 C 0.39138 1.16817 0.08461 0.0
U46 U 0.09884 0.91311 0.00268 0.0
O47 O 0.11473 0.95843 0.0032 0.0
O48 O 0.09971 0.94572 0.00442 0.0
C49 C 0.10979 0.96676 0.00414 0.0
C50 C 0.41695 1.2133 0.0867 0.0
C51 C 0.10749 0.99019 0.00358 0.0
C52 C 0.09463 1.01487 0.00319 0.0
C53 C 0.09534 0.99078 0.00343 0.0
C54 C 0.11798 1.03808 0.0032 0.0
C55 C 0.1061 1.03911 0.00311 0.0
C56 C 0.11868 1.01405 0.00344 0.0
C57 C 0.12445 0.89328 0.00712 0.0
C58 C 0.15139 0.91244 0.00959 0.0
C59 C 0.13258 0.87886 0.01031 0.0
C60 C 0.12103 0.87749 0.00844 0.0
C61 C 0.14792 0.89597 0.0109 0.0
C62 C 0.13981 0.91106 0.00773 0.0
C63 C 0.11177 0.88823 0.00502 0.0
O64 O 0.416 1.21612 0.08834 0.0
O65 O 0.43099 1.22865 0.08712 0.0
O66 O 0.1153 0.90042 0.0037 0.0
O67 O 0.10033 0.88782 0.00493 0.0
H68 H 0.42339 1.1858 0.08465 0.0
H69 H 0.40557 1.14049 0.08196 0.0
H70 H 0.3693 1.13084 0.0826 0.0
H71 H 0.38715 1.17589 0.0853 0.0
H72 H 0.08537 1.01486 0.00315 0.0
H73 H 0.08659 0.97298 0.00356 0.0
H74 H 0.1269 1.05604 0.00311 0.0
H75 H 0.12828 1.01447 0.00357 0.0
H76 H 0.16302 0.92566 0.00998 0.0
H77 H 0.12943 0.86623 0.01128 0.0
H78 H 0.10933 0.8634 0.00801 0.0
H79 H 0.14289 0.92332 0.00673 0.0
C80 C 0.73185 1.39095 0.00812 0.0
C81 C 0.74678 1.39707 0.00926 0.0
C82 C 0.75609 1.44285 0.01131 0.0
C83 C 0.75873 1.42266 0.01083 0.0
C84 C 0.7412 1.43689 0.01014 0.0
C85 C 0.72927 1.4113 0.00858 0.0
U86 U 0.70521 1.33202 0.00281 0.0
O87 O 0.69442 1.28585 0.00227 0.0
O88 O 1.0223 1.6327 0.08889 0.0
C89 C 0.68057 1.28055 0.00134 0.0
C90 C 0.7187 1.36256 0.00663 0.0
C91 C 0.66985 1.25925 0.0019 0.0
C92 C 0.66105 1.21622 0.00301 0.0
C93 C 0.67219 1.23867 0.00277 0.0
C94 C 0.645 1.23453 0.00156 0.0
C95 C 0.64715 1.21349 0.00238 0.0
C96 C 0.65614 1.25696 0.00132 0.0
C97 C 1.05625 1.6771 0.08619 0.0
C98 C 1.04807 1.68441 0.08272 0.0
C99 C 1.06371 1.66507 0.08398 0.0
C100 C 1.06387 1.66647 0.08585 0.0
C101 C 1.05604 1.67451 0.0824 0.0
C102 C 1.04822 1.68578 0.08458 0.0
C103 C 1.05853 1.683 0.08829 0.0
O104 O 0.70731 1.36174 0.005 0.0
O105 O 0.72167 1.34456 0.00619 0.0
O106 O 0.72086 1.33978 0.00175 0.0
O107 O 1.04874 1.68666 0.08841 0.0
H108 H 0.74924 1.38186 0.00897 0.0
H109 H 0.77004 1.42656 0.01167 0.0
H110 H 0.73861 1.4516 0.01048 0.0
H111 H 0.71789 1.40713 0.00776 0.0
H112 H 0.66312 1.20036 0.00362 0.0
H113 H 0.68245 1.23933 0.0032 0.0
H114 H 0.97666 1.5629 0.08889 0.0
H115 H 0.99586 1.60148 0.08843 0.0
H116 H 1.04184 1.6915 0.08153 0.0
H117 H 1.07015 1.65766 0.08382 0.0
H118 H 1.07045 1.66013 0.08706 0.0
H119 H 1.0424 1.69449 0.08479 0.0
C120 C 1.03191 0.40683 0.08508 0.0
C121 C 1.03845 0.39289 0.08484 0.0
C122 C 1.03901 0.41183 0.08192 0.0
C123 C 1.04194 0.39535 0.08328 0.0
C124 C 1.03259 0.4259 0.0822 0.0
C125 C 1.02911 0.42342 0.08375 0.0
U126 U 0.69272 0.06809 0.00257 0.0
O127 O 0.68827 0.08853 0.00441 0.0
O128 O 0.67398 0.0425 0.0031 0.0
C129 C 0.67619 0.06475 0.0041 0.0
C130 C 1.02708 0.4035 0.08661 0.0
C131 C 0.66251 0.06521 0.00359 0.0
C132 C 0.6515 0.09107 0.00387 0.0
C133 C 0.66384 0.09085 0.00407 0.0
C134 C 0.63603 0.04003 0.00266 0.0
C135 C 0.63747 0.06565 0.00319 0.0
C136 C 0.64838 0.03981 0.00287 0.0
C137 C 0.72621 0.0637 0.00692 0.0
C138 C 0.75704 2.1636 0.00928 0.0
C139 C 0.75063 0.08399 0.01019 0.0
C140 C 0.74104 0.08675 0.00834 0.0
C141 C 0.77204 2.1865 0.01068 0.0
C142 C 0.74744 2.16639 0.00742 0.0
C143 C 0.71706 0.0662 0.00483 0.0
O144 O 1.02189 0.37879 0.08699 0.0
O145 O 1.03571 0.42488 0.08828 0.0
O146 O 0.71747 0.08991 0.00478 0.0
O147 O 0.70351 0.04379 0.00351 0.0
H148 H 1.04073 0.37994 0.08584 0.0
H149 H 1.04702 0.38444 0.08314 0.0
H150 H 1.02989 0.43837 0.08117 0.0
H151 H 1.02396 0.43417 0.08389 0.0
H152 H 0.65304 0.11125 0.00426 0.0
H153 H 0.67455 0.11085 0.00466 0.0
H154 H 0.65185 2.14851 0.00216 0.0
H155 H 0.67332 2.14814 0.00252 0.0
H156 H 0.75274 2.14335 0.00961 0.0
H157 H 0.76212 0.10202 0.01121 0.0
H158 H 0.74544 0.1068 0.00798 0.0
H159 H 0.73614 2.14808 0.00636 0.0
C160 C 0.41721 1.66321 0.08537 0.0
C161 C 0.40326 1.65576 0.08512 0.0
C162 C 0.39712 1.67462 0.08212 0.0
C163 C 0.3934 1.66147 0.08353 0.0
C164 C 0.41125 1.68269 0.0824 0.0
C165 C 0.42111 1.67697 0.08399 0.0
U166 U 0.10835 1.34143 0.00285 0.0
O167 O 0.10763 1.30995 0.00462 0.0
O168 O 0.12242 1.32411 0.00336 0.0
C169 C 0.11688 1.30656 0.00432 0.0
C170 C 0.42655 1.65345 0.08688 0.0
C171 C 0.1128 1.27699 0.00376 0.0
C172 C 0.10468 1.2308 0.00445 0.0
C173 C 0.10674 1.25748 0.00473 0.0
C174 C 0.11443 1.24213 0.00217 0.0
C175 C 0.10872 1.22284 0.00318 0.0
C176 C 0.11648 1.26882 0.00245 0.0
C177 C 0.13669 1.41383 0.00724 0.0
C178 C 0.14623 1.44079 0.01067 0.0
C179 C 0.16333 1.45271 0.00945 0.0
C180 C 0.15141 1.43088 0.00759 0.0
C181 C 0.16087 1.45833 0.011 0.0
C182 C 0.13432 1.41896 0.00882 0.0
C183 C 0.12348 1.39362 0.00516 0.0
O184 O 0.44041 1.66424 0.08728 0.0
O185 O 0.42565 1.64991 0.08854 0.0
O186 O 0.11152 1.37232 0.00509 0.0
O187 O 0.12637 1.3866 0.00384 0.0
H188 H 0.39974 1.6448 0.08613 0.0
H189 H 0.38276 1.65528 0.08339 0.0
H190 H 0.41448 1.69251 0.08133 0.0
H191 H 0.43161 1.68259 0.08411 0.0
H192 H 0.10046 1.21684 0.00528 0.0
H193 H 0.10404 1.2632 0.00578 0.0
H194 H 0.45956 1.5661 0.08898 0.0
H195 H 0.1213 1.28329 0.00169 0.0
H196 H 0.14388 1.4441 0.01184 0.0
H197 H 0.17436 1.4659 0.00962 0.0
H198 H 0.15366 1.42801 0.0064 0.0
H199 H 0.12311 1.40661 0.0086 0.0
C200 C 0.51128 0.93457 0.00841 0.0
C201 C 0.49938 0.93558 0.00832 0.0
C202 C 0.50487 0.92404 0.01164 0.0
C203 C 0.49621 0.93033 0.00991 0.0
C204 C 0.51656 0.92245 0.0117 0.0
C205 C 0.51975 0.92777 0.01012 0.0
U206 U 0.50793 0.92328 0.00306 0.0
O207 O 0.85303 1.28239 0.08896 0.0
O208 O 0.52621 0.93776 0.00241 0.0
C209 C 0.52311 0.95489 0.00139 0.0
C210 C 0.51594 0.94337 0.00687 0.0
C211 C 0.53612 0.98366 0.00182 0.0
C212 C 0.5631 1.02148 0.00382 0.0
C213 C 0.55084 0.99548 0.00358 0.0
C214 C 0.88823 1.35397 0.08839 0.0
C215 C 0.56098 1.03634 0.00231 0.0
C216 C 0.87603 1.32804 0.08815 0.0
C217 C 0.81663 1.17813 0.08678 0.0
C218 C 0.80595 1.16216 0.08306 0.0
C219 C 0.79691 1.12867 0.08484 0.0
C220 C 0.80705 1.1503 0.08671 0.0
C221 C 0.79606 1.13426 0.08297 0.0
C222 C 0.81611 1.18395 0.08494 0.0
C223 C 0.82637 1.20038 0.08878 0.0
O224 O 0.52187 0.9313 0.00646 0.0
O225 O 0.50686 0.94703 0.00521 0.0
O226 O 0.82532 1.22254 0.08877 0.0
O227 O 0.49829 0.87743 0.00218 0.0
H228 H 0.49268 0.941 0.00704 0.0
H229 H 0.487 0.9314 0.00978 0.0
H230 H 0.52363 0.91805 0.01302 0.0
H231 H 0.52917 0.92728 0.01027 0.0
H232 H 0.57427 1.02992 0.0052 0.0
H233 H 0.55293 0.98446 0.00476 0.0
H234 H 0.88609 1.36436 0.08717 0.0
H235 H 0.86487 1.31933 0.08676 0.0
H236 H 0.80557 1.16731 0.08165 0.0
H237 H 0.78972 1.10747 0.08485 0.0
H238 H 0.80727 1.14529 0.08811 0.0
H239 H 0.82337 1.2053 0.08496 0.0
C240 C 0.25489 0.88608 0.0268 0.0
C241 C 0.25764 0.91216 0.0264 0.0
C242 C 0.23116 0.88987 0.02355 0.0
C243 C 0.24596 0.91406 0.0248 0.0
C244 C 0.22832 0.86385 0.02398 0.0
C245 C 0.24002 0.86196 0.02558 0.0
U246 U 0.28079 0.87868 0.0321 0.0
O247 O 0.2918 0.85489 0.03263 0.0
O248 O 0.3058 0.90098 0.0339 0.0
C249 C 0.30562 0.87783 0.0336 0.0
C250 C 0.26789 0.88395 0.02831 0.0
C251 C 0.31657 0.87952 0.03306 0.0
C252 C 0.34201 0.90601 0.03359 0.0
C253 C 0.33077 0.90497 0.03384 0.0
C254 C 0.32511 0.85625 0.03175 0.0
C255 C 0.33946 0.88157 0.03257 0.0
C256 C 0.31386 0.85521 0.032 0.0
C257 C 0.27114 0.87259 0.03648 0.0
C258 C 0.28006 0.89497 0.04001 0.0
C259 C 0.26297 0.84421 0.03861 0.0
C260 C 0.2628 0.84618 0.03674 0.0
C261 C 0.27136 0.86865 0.04025 0.0
C262 C 0.27992 0.89693 0.03815 0.0
C263 C 0.26897 0.87505 0.03439 0.0
O264 O 0.27905 0.90559 0.02998 0.0
O265 O 0.26478 0.85946 0.02871 0.0
O266 O 0.26482 0.85297 0.03309 0.0
O267 O 0.27873 0.89916 0.0343 0.0
H268 H 0.26897 0.93111 0.02729 0.0
H269 H 0.24859 0.93454 0.02454 0.0
H270 H 0.21716 0.84467 0.02304 0.0
H271 H 0.23748 0.8414 0.02582 0.0
H272 H 0.35279 0.92601 0.03423 0.0
H273 H 0.33338 0.92404 0.03469 0.0
H274 H 0.32274 0.83689 0.03098 0.0
H275 H 0.3032 0.83509 0.03141 0.0
H276 H 0.28684 0.91424 0.04125 0.0
H277 H 0.256 0.8236 0.03872 0.0
H278 H 0.25567 0.82702 0.03548 0.0
H279 H 0.28635 0.9177 0.038 0.0
C280 C 0.85913 1.67575 0.02658 0.0
C281 C 0.8468 1.65329 0.02662 0.0
C282 C 0.83815 1.62363 0.02336 0.0
C283 C 0.83651 1.62759 0.02504 0.0
C284 C 0.85068 1.6459 0.02334 0.0
C285 C 0.86096 1.67157 0.02492 0.0
U286 U 0.89284 1.734 0.03189 0.0
O287 O 0.90823 1.77955 0.03239 0.0
O288 O 0.89327 1.76586 0.03363 0.0
C289 C 0.90315 1.78727 0.03334 0.0
C290 C 0.86892 1.70438 0.02809 0.0
C291 C 0.90042 1.8102 0.03278 0.0
C292 C 0.88591 1.832 0.03215 0.0
C293 C 0.88725 1.80859 0.03241 0.0
C294 C 0.91068 1.85889 0.03256 0.0
C295 C 0.89771 1.85767 0.03225 0.0
C296 C 0.91202 1.83555 0.03283 0.0
C297 C 0.91971 1.71612 0.03631 0.0
C298 C 0.92928 1.71139 0.03985 0.0
C299 C 0.94546 1.72618 0.03844 0.0
C300 C 0.93384 1.72458 0.03658 0.0
C301 C 0.94328 1.71916 0.0401 0.0
C302 C 0.91765 1.70977 0.03798 0.0
C303 C 0.90665 1.71029 0.03422 0.0
O304 O 0.86798 1.70658 0.02974 0.0
O305 O 0.88291 1.72055 0.0285 0.0
O306 O 0.9098 1.72259 0.03288 0.0
O307 O 0.89505 1.709 0.03415 0.0
H308 H 0.84482 1.65579 0.02785 0.0
H309 H 0.82693 1.61117 0.0251 0.0
H310 H 0.8525 1.64363 0.0221 0.0
H311 H 0.87018 1.68845 0.02482 0.0
H312 H 0.87565 1.83003 0.03188 0.0
H313 H 0.8781 1.78948 0.03237 0.0
H314 H 0.92012 1.87828 0.03268 0.0
H315 H 0.9224 1.83764 0.03314 0.0
H316 H 0.92704 1.70545 0.04107 0.0
H317 H 0.95612 1.73263 0.03858 0.0
H318 H 0.93582 1.72925 0.03532 0.0
H319 H 0.90685 1.70262 0.03782 0.0
C320 C 0.52219 2.21201 0.0378 0.0
C321 C 0.52201 2.2368 0.03772 0.0
C322 C 0.5464 2.26339 0.04104 0.0
C323 C 0.53396 2.26212 0.03932 0.0
C324 C 0.54671 2.23872 0.04109 0.0
C325 C 0.53476 2.21342 0.03949 0.0
U326 U 0.49502 2.15487 0.03239 0.0
O327 O 0.48382 2.10855 0.03174 0.0
O328 O 0.46999 2.12685 0.03065 0.0
C329 C 0.47007 2.10371 0.03084 0.0
C330 C 0.50876 2.18412 0.03626 0.0
C331 C 0.4592 2.08206 0.03136 0.0
C332 C 0.43368 2.05531 0.0308 0.0
C333 C 0.44486 2.078 0.03058 0.0
C334 C 0.45093 2.04025 0.03261 0.0
C335 C 0.43643 2.03577 0.03179 0.0
C336 C 0.46212 2.06297 0.03239 0.0
C337 C 0.50409 2.17245 0.02798 0.0
C338 C 0.5051 2.14982 0.02536 0.0
C339 C 0.50227 2.18951 0.02493 0.0
C340 C 0.50243 2.19119 0.02679 0.0
C341 C 0.50385 2.1691 0.0242 0.0
C342 C 0.50524 2.15149 0.02723 0.0
C343 C 0.50641 2.17755 0.03009 0.0
O344 O 0.49748 2.18399 0.03466 0.0
O345 O 0.51148 2.16605 0.03575 0.0
O346 O 0.51058 2.16296 0.03131 0.0
O347 O 0.49674 2.18129 0.03024 0.0
H348 H 0.51244 2.23655 0.03646 0.0
H349 H 0.53315 2.28047 0.03923 0.0
H350 H 0.55615 2.23883 0.04237 0.0
H351 H 0.53522 2.19472 0.03962 0.0
H352 H 0.42278 2.05293 0.03017 0.0
H353 H 0.44208 2.09197 0.02975 0.0
H354 H 0.45348 2.02558 0.03336 0.0
H355 H 0.47291 2.06503 0.03298 0.0
H356 H 0.50611 2.13354 0.02484 0.0
H357 H 0.5015 2.205 0.02411 0.0
H358 H 0.50177 2.20786 0.02735 0.0
H359 H 0.50662 2.13678 0.0281 0.0
C360 C 0.48011 0.89809 0.02686 0.0
C361 C 0.48391 0.88032 0.02633 0.0
C362 C 0.48749 0.90398 0.02373 0.0
C363 C 0.48755 0.88322 0.02478 0.0
C364 C 0.48393 0.92198 0.02429 0.0
C365 C 0.48029 0.91904 0.02583 0.0
U366 U 0.48171 0.88678 0.03207 0.0
O367 O 0.47644 0.90577 0.03387 0.0
O368 O 0.46256 0.85983 0.0325 0.0
C369 C 0.4644 0.8815 0.03351 0.0
C370 C 0.47478 0.8941 0.02834 0.0
C371 C 0.45042 0.88094 0.03295 0.0
C372 C 0.43658 0.90424 0.03227 0.0
C373 C 0.44911 0.90416 0.03253 0.0
C374 C 0.42622 0.8577 0.03279 0.0
C375 C 0.42503 0.88116 0.03242 0.0
C376 C 0.43873 0.85765 0.03305 0.0
C377 C 0.51466 0.88083 0.03642 0.0
C378 C 0.53463 0.90062 0.04011 0.0
C379 C 0.52378 0.85267 0.03835 0.0
C380 C 0.51412 0.85539 0.03649 0.0
C381 C 0.53438 0.8754 0.04018 0.0
C382 C 0.52495 0.90335 0.03826 0.0
C383 C 0.50593 0.88457 0.03436 0.0
O384 O 0.46932 0.86911 0.02867 0.0
O385 O 0.48311 0.91507 0.03003 0.0
O386 O 0.5063 0.90827 0.03436 0.0
O387 O 0.49249 0.86238 0.03298 0.0
H388 H 0.48387 0.86392 0.02709 0.0
H389 H 0.4904 0.86919 0.02441 0.0
H390 H 0.48351 0.93791 0.0235 0.0
H391 H 0.47725 0.93282 0.02619 0.0
H392 H 0.43601 0.92254 0.03196 0.0
H393 H 0.45792 0.92253 0.03245 0.0
H394 H 0.41774 0.83969 0.03294 0.0
H395 H 0.4395 0.83962 0.0334 0.0
H396 H 0.54271 0.9187 0.04148 0.0
H397 H 0.52304 0.83275 0.03833 0.0
H398 H 0.50649 0.83772 0.0351 0.0
H399 H 0.52589 0.92343 0.03826 0.0
C400 C 0.86785 2.1532 0.0266 0.0
C401 C 0.8555 2.15152 0.02657 0.0
C402 C 0.84802 2.16454 0.0233 0.0
C403 C 0.84577 2.15723 0.02494 0.0
C404 C 0.86061 2.16693 0.02336 0.0
C405 C 0.87033 2.16124 0.02498 0.0
U406 U 0.9006 2.16057 0.03195 0.0
O407 O 0.89963 2.12933 0.03375 0.0
O408 O 0.91449 2.14272 0.0325 0.0
C409 C 0.90882 2.12549 0.03346 0.0
C410 C 0.8769 2.14323 0.02814 0.0
C411 C 0.90462 2.09576 0.03292 0.0
C412 C 0.89494 2.04892 0.0335 0.0
C413 C 0.89713 2.07574 0.03375 0.0
C414 C 0.90743 2.06108 0.03156 0.0
C415 C 0.90028 2.0413 0.03243 0.0
C416 C 0.90962 2.08794 0.03181 0.0
C417 C 0.92929 2.23343 0.03629 0.0
C418 C 0.93946 2.25761 0.03985 0.0
C419 C 0.95522 2.27513 0.03837 0.0
C420 C 0.94334 2.2533 0.03652 0.0
C421 C 0.95338 2.27793 0.04005 0.0
C422 C 0.92757 2.23577 0.03799 0.0
C423 C 0.916 2.2131 0.03422 0.0
O424 O 0.89075 2.15347 0.02856 0.0
O425 O 0.87588 2.14021 0.0298 0.0
O426 O 0.90395 2.19217 0.03415 0.0
O427 O 0.91884 2.20554 0.03291 0.0
H428 H 0.85303 2.14491 0.02776 0.0
H429 H 0.83613 2.15481 0.02494 0.0
H430 H 0.86289 2.1729 0.02214 0.0
H431 H 0.87958 2.16241 0.02494 0.0
H432 H 0.88918 2.03422 0.03417 0.0
H433 H 0.89329 2.08107 0.03464 0.0
H434 H 0.91187 2.05624 0.03075 0.0
H435 H 0.91567 2.10287 0.03118 0.0
H436 H 0.93748 2.25917 0.04109 0.0
H437 H 0.96581 2.29005 0.03848 0.0
H438 H 0.94504 2.2525 0.03524 0.0
H439 H 0.91685 2.22128 0.03787 0.0
C440 C 0.26968 1.68465 0.02672 0.0
C441 C 0.25436 1.67571 0.02584 0.0
C442 C 0.24578 1.63296 0.0235 0.0
C443 C 0.24258 1.65019 0.02426 0.0
C444 C 0.26111 1.64167 0.02442 0.0
C445 C 0.27285 1.66715 0.026 0.0
U446 U 0.2955 1.74302 0.03204 0.0
O447 O 0.32037 1.77299 0.03378 0.0
O448 O 0.30548 1.78905 0.03259 0.0
C449 C 0.31951 1.79529 0.03353 0.0
C450 C 0.2825 1.71311 0.02822 0.0
C451 C 0.32993 1.8175 0.03298 0.0
C452 C 0.35058 1.83682 0.03231 0.0
C453 C 0.3396 1.8142 0.03257 0.0
C454 C 0.34231 1.86634 0.03282 0.0
C455 C 0.35224 1.86338 0.03246 0.0
C456 C 0.33137 1.84378 0.03308 0.0
C457 C 0.28646 1.7259 0.03646 0.0
C458 C 0.29317 1.71603 0.03984 0.0
C459 C 0.28021 1.74063 0.03873 0.0
C460 C 0.28014 1.73918 0.03687 0.0
C461 C 0.28649 1.72863 0.04023 0.0
C462 C 0.2931 1.7146 0.03798 0.0
C463 C 0.28431 1.72023 0.03436 0.0
O464 O 0.27909 1.73032 0.02866 0.0
O465 O 0.29401 1.71432 0.02985 0.0
O466 O 0.29446 1.71763 0.03426 0.0
O467 O 0.2795 1.73354 0.03307 0.0
H468 H 0.25145 1.68872 0.02634 0.0
H469 H 0.23098 1.64445 0.02358 0.0
H470 H 0.26408 1.62888 0.02391 0.0
H471 H 0.28451 1.67349 0.02663 0.0
H472 H 0.35784 1.8335 0.032 0.0
H473 H 0.3389 1.79433 0.03249 0.0
H474 H 0.3433 1.88644 0.03298 0.0
H475 H 0.32428 1.84717 0.03343 0.0
H476 H 0.29832 1.70691 0.04096 0.0
H477 H 0.27478 1.75019 0.03895 0.0
H478 H 0.27466 1.74767 0.03572 0.0
H479 H 0.29788 1.70385 0.03771 0.0
C480 C 1.07532 1.68849 0.0667 0.0
C481 C 1.07434 1.70961 0.06747 0.0
C482 C 1.06851 1.68435 0.06988 0.0
C483 C 1.07098 1.70755 0.06904 0.0
C484 C 1.06917 1.66299 0.06907 0.0
C485 C 1.07256 1.66509 0.06751 0.0
U486 U 1.07346 1.69729 0.06144 0.0
O487 O 1.09242 1.72245 0.06095 0.0
O488 O 1.07807 1.67638 0.05965 0.0
C489 C 1.09022 1.70005 0.05997 0.0
C490 C 1.08053 1.69141 0.06521 0.0
C491 C 1.10388 1.6994 0.0605 0.0
C492 C 1.11461 1.67402 0.06003 0.0
C493 C 1.1022 1.67413 0.05981 0.0
C494 C 1.13086 1.72439 0.06167 0.0
C495 C 1.12909 1.69922 0.06094 0.0
C496 C 1.11843 1.72451 0.06145 0.0
C497 C 1.04034 1.70221 0.05703 0.0
C498 C 1.03508 1.73115 0.05474 0.0
C499 C 1.01663 1.68083 0.05363 0.0
C500 C 1.02622 1.67835 0.05551 0.0
C501 C 1.0208 1.70733 0.05323 0.0
C502 C 1.04469 1.72865 0.05661 0.0
C503 C 1.04934 1.69972 0.05912 0.0
O504 O 1.07204 1.66995 0.06354 0.0
O505 O 1.08617 1.71606 0.06483 0.0
O506 O 1.06293 1.72202 0.06045 0.0
O507 O 1.04879 1.67589 0.0592 0.0
H508 H 1.07644 1.728 0.06689 0.0
H509 H 1.07037 1.72425 0.0696 0.0
H510 H 1.06757 1.645 0.0697 0.0
H511 H 1.07342 1.64866 0.06697 0.0
H512 H 1.11278 1.65413 0.05947 0.0
H513 H 1.09116 1.65444 0.05904 0.0
H514 H 1.14174 1.74429 0.06236 0.0
H515 H 1.12016 1.74449 0.06196 0.0
H516 H 1.03881 1.75186 0.05448 0.0
H517 H 1.00567 1.66205 0.05254 0.0
H518 H 1.02233 1.65776 0.05579 0.0
H519 H 1.05538 1.74759 0.05775 0.0
C520 C 0.62058 0.36854 0.05626 0.0
C521 C 0.62532 0.35927 0.05518 0.0
C522 C 0.59995 0.31597 0.05309 0.0
C523 C 0.61516 0.33333 0.05362 0.0
C524 C 0.59534 0.32508 0.05421 0.0
C525 C 0.60548 0.35099 0.05576 0.0
U526 U 0.65461 0.42732 0.06152 0.0
O527 O 0.66967 0.47296 0.06202 0.0
O528 O 0.65493 0.45874 0.06329 0.0
C529 C 0.66458 0.48036 0.06299 0.0
C530 C 0.63053 0.39742 0.05774 0.0
C531 C 0.66148 0.50298 0.06244 0.0
C532 C 0.65257 0.53207 0.06292 0.0
C533 C 0.65364 0.50838 0.06315 0.0
C534 C 0.66689 0.54541 0.06123 0.0
C535 C 0.65941 0.55125 0.06199 0.0
C536 C 0.66798 0.52172 0.06146 0.0
C537 C 0.68132 0.40922 0.06596 0.0
C538 C 0.69013 0.40289 0.06945 0.0
C539 C 0.70706 0.41941 0.06816 0.0
C540 C 0.69568 0.4183 0.06628 0.0
C541 C 0.70435 0.41118 0.06976 0.0
C542 C 0.67879 0.40183 0.06758 0.0
C543 C 0.66847 0.40368 0.06385 0.0
O544 O 0.62971 0.39986 0.0594 0.0
O545 O 0.64448 0.41349 0.05814 0.0
O546 O 0.67182 0.41641 0.06254 0.0
O547 O 0.65672 0.40203 0.06375 0.0
H548 H 0.63681 0.37226 0.0555 0.0
H549 H 0.61922 0.32695 0.05282 0.0
H550 H 0.58371 0.31264 0.05384 0.0
H551 H 0.60135 0.35767 0.05653 0.0
H552 H 0.64652 0.53551 0.0635 0.0
H553 H 0.64868 0.49473 0.06394 0.0
H554 H 0.67247 0.55978 0.06053 0.0
H555 H 0.67435 0.51864 0.06093 0.0
H556 H 0.68766 0.3968 0.07065 0.0
H557 H 0.71778 0.42562 0.06833 0.0
H558 H 0.698 0.42365 0.06506 0.0
H559 H 0.66783 0.39436 0.06738 0.0
C560 C 1.28655 0.8993 0.06676 0.0
C561 C 1.28703 0.92466 0.06661 0.0
C562 C 0.30603 0.95059 0.07001 0.0
C563 C 0.29422 0.94994 0.06821 0.0
C564 C 0.30569 0.92533 0.07013 0.0
C565 C 0.29372 0.90008 0.06854 0.0
U566 U 1.25924 0.84275 0.06133 0.0
O567 O 1.24776 0.7964 0.06064 0.0
O568 O 1.23416 0.81521 0.05958 0.0
C569 C 1.23408 0.7919 0.05975 0.0
C570 C 1.27305 0.87156 0.06522 0.0
C571 C 1.22321 0.77042 0.06027 0.0
C572 C 1.21677 0.73504 0.06212 0.0
C573 C 1.22765 0.75759 0.06184 0.0
C574 C 1.19686 0.73808 0.0593 0.0
C575 C 1.20117 0.72467 0.06084 0.0
C576 C 1.20771 0.76054 0.05902 0.0
C577 C 0.26372 0.86133 0.05694 0.0
C578 C 0.26447 0.83922 0.05426 0.0
C579 C 0.26262 0.88008 0.05398 0.0
C580 C 0.26258 0.88097 0.05583 0.0
C581 C 0.26387 0.85956 0.05319 0.0
C582 C 0.26447 0.84017 0.05612 0.0
C583 C 0.26597 0.86575 0.05905 0.0
O584 O 1.26183 0.8717 0.06363 0.0
O585 O 1.27568 0.85344 0.06469 0.0
O586 O 0.2699 0.85063 0.06023 0.0
O587 O 0.25643 0.86971 0.05922 0.0
H588 H 1.27796 0.92492 0.06528 0.0
H589 H 0.29393 0.96877 0.06806 0.0
H590 H 0.31465 0.92495 0.07147 0.0
H591 H 0.29365 0.88093 0.06871 0.0
H592 H 1.22061 0.72561 0.06334 0.0
H593 H 1.23948 0.76454 0.06283 0.0
H594 H 1.18499 0.73059 0.05826 0.0
H595 H 1.20389 0.7697 0.05778 0.0
H596 H 0.26554 0.8232 0.05371 0.0
H597 H 0.26186 0.89579 0.05318 0.0
H598 H 0.26212 0.89768 0.05642 0.0
H599 H 0.2655 0.82483 0.05694 0.0
C600 C 0.26708 1.71492 0.05592 0.0
C601 C 0.26661 1.69281 0.05498 0.0
C602 C 0.27367 1.71985 0.05271 0.0
C603 C 0.2699 1.69528 0.0534 0.0
C604 C 0.27449 1.74217 0.0537 0.0
C605 C 0.27119 1.73969 0.05528 0.0
U606 U 1.27419 1.70664 0.06122 0.0
O607 O 1.2689 1.72631 0.06296 0.0
O608 O 1.25551 1.68015 0.06174 0.0
C609 C 1.25718 1.70207 0.06269 0.0
C610 C 0.26185 1.71167 0.05742 0.0
C611 C 1.24308 1.70096 0.06214 0.0
C612 C 1.22859 1.72308 0.06137 0.0
C613 C 1.24123 1.72343 0.06163 0.0
C614 C 1.21922 1.67763 0.06207 0.0
C615 C 1.21747 1.70032 0.0616 0.0
C616 C 1.23184 1.678 0.06234 0.0
C617 C 0.30352 1.70445 0.06564 0.0
C618 C 0.30723 1.67808 0.06821 0.0
C619 C 0.32863 1.72311 0.06875 0.0
C620 C 0.31907 1.7257 0.06688 0.0
C621 C 0.32291 1.69907 0.06943 0.0
C622 C 0.29766 1.6807 0.06634 0.0
C623 C 0.29422 1.70637 0.06354 0.0
O624 O 1.26149 1.68719 0.05784 0.0
O625 O 0.27002 1.73331 0.05906 0.0
O626 O 0.2942 1.72966 0.06346 0.0
O627 O 0.28084 1.68352 0.06223 0.0
H628 H 0.26334 1.67326 0.05542 0.0
H629 H 0.26898 1.67749 0.05267 0.0
H630 H 0.27758 1.76161 0.05325 0.0
H631 H 0.27153 1.75702 0.05596 0.0
H632 H 1.22758 1.74077 0.06098 0.0
H633 H 1.24969 1.74154 0.06148 0.0
H634 H 1.21109 1.6599 0.0623 0.0
H635 H 1.23303 1.66058 0.06276 0.0
H636 H 0.30234 1.65945 0.0687 0.0
H637 H 0.34062 1.73957 0.06962 0.0
H638 H 0.32397 1.74404 0.06637 0.0
H639 H 1.29052 1.66386 0.06542 0.0
C640 C 0.6299 0.84459 0.05631 0.0
C641 C 0.63561 0.86633 0.05544 0.0
C642 C 0.61009 0.8563 0.05304 0.0
C643 C 0.62583 0.8721 0.05383 0.0
C644 C 0.6045 0.83512 0.05396 0.0
C645 C 0.61427 0.82931 0.05556 0.0
U646 U 0.66414 0.85518 0.06157 0.0
O647 O 0.66468 0.82522 0.06346 0.0
O648 O 0.6788 0.83914 0.06209 0.0
C649 C 0.67392 0.82221 0.06312 0.0
C650 C 0.63957 0.83558 0.05783 0.0
C651 C 0.67034 0.79302 0.0626 0.0
C652 C 0.65396 0.74176 0.06182 0.0
C653 C 0.65633 0.76878 0.06209 0.0
C654 C 0.67939 0.76255 0.06252 0.0
C655 C 0.66552 0.73825 0.06205 0.0
C656 C 0.68176 0.78949 0.06279 0.0
C657 C 0.69211 0.92983 0.06569 0.0
C658 C 0.71104 0.94436 0.0694 0.0
C659 C 0.70968 0.97975 0.06763 0.0
C660 C 0.69768 0.9584 0.06577 0.0
C661 C 0.71654 0.97315 0.06949 0.0
C662 C 0.69894 0.92292 0.06752 0.0
C663 C 0.67875 0.90812 0.0637 0.0
O664 O 0.65328 0.84643 0.05817 0.0
O665 O 0.63916 0.83311 0.05953 0.0
O666 O 0.66758 0.88682 0.06378 0.0
O667 O 0.68146 0.90051 0.06238 0.0
H668 H 0.64758 0.87854 0.05597 0.0
H669 H 0.63061 0.88884 0.05319 0.0
H670 H 0.59247 0.82224 0.05338 0.0
H671 H 0.60949 0.81222 0.05618 0.0
H672 H 0.64305 0.72361 0.06144 0.0
H673 H 0.64727 0.77068 0.06194 0.0
H674 H 0.68867 0.76093 0.06274 0.0
H675 H 0.69273 0.80775 0.0632 0.0
H676 H 0.71609 0.93835 0.07078 0.0
H677 H 0.7133 1.00145 0.06763 0.0
H678 H 0.69252 0.96426 0.06438 0.0
H679 H 0.69485 0.90101 0.0675 0.0
C680 C 1.06406 0.44083 0.06673 0.0
C681 C 1.05028 0.4357 0.06641 0.0
C682 C 1.05711 0.42949 0.0699 0.0
C683 C 1.04686 0.4301 0.06797 0.0
C684 C 1.07069 0.43388 0.07019 0.0
C685 C 1.07412 0.43956 0.06863 0.0
U686 U 1.06108 0.43284 0.06137 0.0
O687 O 1.06566 0.46498 0.05967 0.0
O688 O 1.0796 0.44692 0.06077 0.0
C689 C 1.07756 0.46586 0.05989 0.0
C690 C 1.0689 0.45026 0.06522 0.0
C691 C 1.09141 0.49424 0.06047 0.0
C692 C 1.11753 0.52232 0.06125 0.0
C693 C 1.10508 0.49672 0.061 0.0
C694 C 1.10314 0.54401 0.06049 0.0
C695 C 1.11669 0.54626 0.06096 0.0
C696 C 1.09067 0.51836 0.06023 0.0
C697 C 1.02739 0.36192 0.05689 0.0
C698 C 1.02126 0.32211 0.05455 0.0
C699 C 1.00337 0.33627 0.05353 0.0
C700 C 1.01336 0.35795 0.05541 0.0
C701 C 1.00704 0.31769 0.05309 0.0
C702 C 1.03126 0.34384 0.05643 0.0
C703 C 1.03676 0.38204 0.05901 0.0
O704 O 1.0743 0.43758 0.06473 0.0
O705 O 1.06033 0.4556 0.06362 0.0
O706 O 1.03632 0.40477 0.05915 0.0
O707 O 1.05037 0.38695 0.06028 0.0
H708 H 1.04225 0.43658 0.06497 0.0
H709 H 1.03619 0.42644 0.06768 0.0
H710 H 1.07897 0.43396 0.07166 0.0
H711 H 1.08491 0.44379 0.06894 0.0
H712 H 1.12779 0.52322 0.06165 0.0
H713 H 1.10604 0.47857 0.06116 0.0
H714 H 1.10193 0.56176 0.06023 0.0
H715 H 1.08028 0.51724 0.05979 0.0
H716 H 1.02462 0.30856 0.05426 0.0
H717 H 0.99248 0.3334 0.05246 0.0
H718 H 1.00983 0.37103 0.05572 0.0
H719 H 1.04186 0.34591 0.05754 0.0
H720 H 0.94884 0.36112 0.08808 0.0
H721 H 0.63895 0.09981 0.00597 0.0
H722 H 0.92803 0.36126 0.08799 0.0
H723 H 0.6182 0.09985 0.00589 0.0
H724 H 0.5792 0.11219 0.00405 0.0
H725 H 0.59984 0.11171 0.00413 0.0
H726 H 0.59795 2.14911 0.00181 0.0
H727 H 0.57704 2.14969 0.00165 0.0
C728 C 0.60943 0.04663 0.00151 0.0
C729 C 0.62463 0.06585 0.00312 0.0
C730 C 0.59745 0.04667 0.00146 0.0
C731 C 0.60029 0.06589 0.00303 0.0
C732 C 0.6155 0.08506 0.00464 0.0
C733 C 0.62746 0.08505 0.00468 0.0
C734 C 0.5773 0.09202 0.00354 0.0
C735 C 0.56315 0.06673 0.00283 0.0
C736 C 0.58926 0.09171 0.00361 0.0
C737 C 0.58751 0.06611 0.00298 0.0
C738 C 0.5734 0.04078 0.00229 0.0
C739 C 0.56143 0.04109 0.00222 0.0
H740 H 0.4238 1.3742 0.08874 0.0
H741 H 0.13045 1.09404 0.00514 0.0
H742 H 0.42397 1.4177 0.08865 0.0
H743 H 0.13062 1.13732 0.00506 0.0
H744 H 0.12858 1.21186 0.00306 0.0
H745 H 0.12741 1.16757 0.00291 0.0
H746 H 0.08565 1.12679 0.00289 0.0
H747 H 0.08649 1.17089 0.00295 0.0
C748 C 0.09247 1.06487 0.00184 0.0
C749 C 0.10608 1.06573 0.00303 0.0
C750 C 0.09257 1.08989 0.00179 0.0
C751 C 0.10628 1.11656 0.00293 0.0
C752 C 0.11986 1.11735 0.00412 0.0
C753 C 0.11976 1.09239 0.00417 0.0
C754 C 0.11899 1.19339 0.00299 0.0
C755 C 0.10763 1.19518 0.00301 0.0
C756 C 0.11843 1.16796 0.00293 0.0
C757 C 0.10649 1.14343 0.0029 0.0
C758 C 0.09498 1.14506 0.00289 0.0
C759 C 0.09555 1.17054 0.00295 0.0
H760 H 0.59024 1.05074 0.00377 0.0
H761 H 0.56161 1.08373 0.00127 0.0
H762 H 0.61103 1.09366 0.00388 0.0
H763 H 0.58236 1.12654 0.00137 0.0
H764 H 0.9584 1.51322 0.08736 0.0
H765 H 0.93821 1.47179 0.08746 0.0
H766 H 0.62933 1.1438 0.00552 0.0
H767 H 0.64961 1.18542 0.00542 0.0
C768 C 0.5884 1.06726 0.00327 0.0
C769 C 0.5741 1.06346 0.0025 0.0
C770 C 0.60038 1.09197 0.00333 0.0
C771 C 0.59844 1.11369 0.00262 0.0
C772 C 0.58425 1.11014 0.00189 0.0
C773 C 0.5723 1.08547 0.00183 0.0
C774 C 0.96144 1.50502 0.08869 0.0
C775 C 0.63471 1.18828 0.00248 0.0
C776 C 0.9498 1.48112 0.08875 0.0
C777 C 0.61099 1.13958 0.00259 0.0
C778 C 0.62632 1.15221 0.0042 0.0
C779 C 0.638 1.17618 0.00414 0.0
H780 H 0.39493 0.83767 0.03058 0.0
H781 H 0.42582 0.92627 0.03397 0.0
H782 H 0.37446 0.83816 0.03057 0.0
H783 H 0.40521 0.92705 0.03389 0.0
H784 H 0.36996 0.91043 0.03556 0.0
H785 H 0.39015 0.91084 0.03543 0.0
H786 H 0.35759 0.85448 0.02918 0.0
H787 H 0.33733 0.85403 0.02933 0.0
C788 C 0.39738 0.85732 0.03132 0.0
C789 C 0.41215 0.8819 0.03228 0.0
C790 C 0.38555 0.85769 0.03129 0.0
C791 C 0.38809 0.88262 0.03223 0.0
C792 C 0.4028 0.90731 0.03317 0.0
C793 C 0.41462 0.90696 0.03319 0.0
C794 C 0.36708 0.8984 0.03415 0.0
C795 C 0.35192 0.88226 0.03245 0.0
C796 C 0.37872 0.89863 0.03407 0.0
C797 C 0.37561 0.88274 0.03229 0.0
C798 C 0.36046 0.86668 0.03059 0.0
C799 C 0.34879 0.86643 0.03067 0.0
H800 H 0.9038 2.01332 0.03545 0.0
H801 H 0.89399 2.00594 0.02915 0.0
H802 H 0.90236 1.96879 0.03531 0.0
H803 H 0.89252 1.96122 0.029 0.0
H804 H 0.90767 1.89819 0.03034 0.0
H805 H 0.90784 1.9416 0.03034 0.0
H806 H 0.8855 1.91872 0.03381 0.0
H807 H 0.88591 1.87595 0.03388 0.0
C808 C 0.90111 2.00204 0.03402 0.0
C809 C 0.89897 2.01341 0.03231 0.0
C810 C 0.90028 1.97636 0.03394 0.0
C811 C 0.89728 1.96114 0.03214 0.0
C812 C 0.89507 1.97242 0.03043 0.0
C813 C 0.89591 1.99816 0.03051 0.0
C814 C 0.90285 1.90244 0.03111 0.0
C815 C 0.89684 1.88341 0.03212 0.0
C816 C 0.90279 1.92728 0.03109 0.0
C817 C 0.89674 1.93395 0.03208 0.0
C818 C 0.89047 1.91465 0.03306 0.0
C819 C 0.89052 1.88981 0.03307 0.0
H820 H 0.40594 2.00255 0.02879 0.0
H821 H 0.43879 2.01095 0.035 0.0
H822 H 0.38589 1.96115 0.02892 0.0
H823 H 0.41868 1.96949 0.03514 0.0
H824 H 0.38164 1.87837 0.03397 0.0
H825 H 0.40167 1.9191 0.03378 0.0
H826 H 0.37103 1.94625 0.03048 0.0
H827 H 0.35083 1.90493 0.0306 0.0
C828 C 0.4089 1.99582 0.0302 0.0
C829 C 0.42408 2.01039 0.03189 0.0
C830 C 0.39734 1.97194 0.03027 0.0
C831 C 0.40054 1.96176 0.03204 0.0
C832 C 0.41573 1.97629 0.03373 0.0
C833 C 0.42732 2.00019 0.03366 0.0
C834 C 0.37907 1.89277 0.03318 0.0
C835 C 0.3645 1.88812 0.0323 0.0
C836 C 0.39068 1.91645 0.03309 0.0
C837 C 0.3881 1.93626 0.03212 0.0
C838 C 0.37349 1.93146 0.03122 0.0
C839 C 0.3619 1.90781 0.03131 0.0
H840 H 1.18777 1.65565 0.05988 0.0
H841 H 1.21731 1.74528 0.06296 0.0
H842 H 1.16684 1.65539 0.05976 0.0
H843 H 1.19619 1.74526 0.06277 0.0
H844 H 1.15936 1.72972 0.06409 0.0
H845 H 1.18044 1.73024 0.06421 0.0
H846 H 1.14946 1.66988 0.05813 0.0
H847 H 1.12844 1.6693 0.058 0.0
C848 C 1.18984 1.67537 0.06053 0.0
C849 C 1.20436 1.70047 0.06144 0.0
C850 C 1.17773 1.67528 0.06044 0.0
C851 C 1.17971 1.7003 0.06126 0.0
C852 C 1.1942 1.72547 0.06215 0.0
C853 C 1.20631 1.72556 0.06223 0.0
C854 C 1.15704 1.71668 0.06277 0.0
C855 C 1.14209 1.69937 0.06104 0.0
C856 C 1.16917 1.71701 0.06284 0.0
C857 C 1.16676 1.70009 0.06118 0.0
C858 C 1.15181 1.68284 0.05945 0.0
C859 C 1.13969 1.68248 0.05938 0.0
H860 H 0.6756 0.71644 0.06031 0.0
H861 H 0.65075 0.69501 0.06343 0.0
H862 H 0.67365 0.67136 0.06025 0.0
H863 H 0.64824 0.64943 0.06329 0.0
H864 H 0.66252 0.58587 0.06494 0.0
H865 H 0.66314 0.62962 0.06486 0.0
H866 H 0.65685 0.62112 0.05874 0.0
H867 H 0.65626 0.57727 0.05883 0.0
C868 C 0.66966 0.70212 0.06098 0.0
C869 C 0.66342 0.70967 0.06189 0.0
C870 C 0.66838 0.676 0.06092 0.0
C871 C 0.66082 0.65656 0.06177 0.0
C872 C 0.65434 0.66389 0.06264 0.0
C873 C 0.65561 0.69 0.0627 0.0
C874 C 0.66104 0.59304 0.06356 0.0
C875 C 0.6593 0.57778 0.06189 0.0
C876 C 0.66141 0.61827 0.06351 0.0
C877 C 0.66003 0.62913 0.06179 0.0
C878 C 0.65818 0.61378 0.06011 0.0
C879 C 0.65783 0.58852 0.06016 0.0
H880 H 1.17479 0.71499 0.06043 0.0
H881 H 1.20057 0.67656 0.06167 0.0
H882 H 1.15487 0.67263 0.06051 0.0
H883 H 1.18097 0.63472 0.06185 0.0
H884 H 1.13517 0.5517 0.05955 0.0
H885 H 1.15567 0.5947 0.05963 0.0
H886 H 1.1481 0.64483 0.06269 0.0
H887 H 1.12749 0.60165 0.06259 0.0
C888 C 1.17627 0.69759 0.06073 0.0
C889 C 1.18936 0.69937 0.06103 0.0
C890 C 1.16488 0.67331 0.0608 0.0
C891 C 1.16617 0.64997 0.06118 0.0
C892 C 1.17939 0.65197 0.06152 0.0
C893 C 1.19079 0.67625 0.06145 0.0
C894 C 1.13797 0.57185 0.06027 0.0
C895 C 1.1296 0.57297 0.06107 0.0
C896 C 1.1498 0.59665 0.06032 0.0
C897 C 1.15368 0.62349 0.06117 0.0
C898 C 1.14535 0.62465 0.06198 0.0
C899 C 1.1335 0.5998 0.06193 0.0
H900 H 0.52214 2.15896 0.02351 0.0
H901 H 0.48791 2.17886 0.02055 0.0
H902 H 0.52462 2.16057 0.02048 0.0
H903 H 0.49042 2.18054 0.01752 0.0
H904 H 0.48476 0.08339 0.01347 0.0
H905 H 0.5077 2.20869 0.01642 0.0
H906 H 0.51207 2.13684 0.01688 0.0
H907 H 0.51604 2.14074 0.01398 0.0
C908 C 0.51496 2.16328 0.0222 0.0
C909 C 0.50482 2.16877 0.02229 0.0
C910 C 0.51641 2.16425 0.02046 0.0
C911 C 0.50775 2.17076 0.01875 0.0
C912 C 0.49748 2.17594 0.01882 0.0
C913 C 0.49603 2.17494 0.02057 0.0
C914 C 0.51144 2.19552 0.0142 0.0
C915 C 0.51388 2.17663 0.01347 0.0
C916 C 0.50931 2.19345 0.01589 0.0
C917 C 0.50961 2.1725 0.01691 0.0
C918 C 0.51193 2.15348 0.01616 0.0
C919 C 0.51402 2.1555 0.01448 0.0
H920 H 0.23378 0.92169 0.02082 0.0
H921 H 0.20069 0.86185 0.02218 0.0
H922 H 0.21393 0.92375 0.01785 0.0
H923 H 0.1808 0.86393 0.0192 0.0
H924 H 0.14659 0.85071 0.0124 0.0
H925 H 0.16641 0.84987 0.01547 0.0
H926 H 0.19694 0.93976 0.01682 0.0
H927 H 0.17707 0.94059 0.01374 0.0
C928 C 0.22231 0.90923 0.0205 0.0
C929 C 0.21893 0.89161 0.02175 0.0
C930 C 0.21087 0.91041 0.01879 0.0
C931 C 0.19566 0.89401 0.01827 0.0
C932 C 0.1923 0.87654 0.01953 0.0
C933 C 0.20375 0.87535 0.02124 0.0
C934 C 0.15745 0.87042 0.01336 0.0
C935 C 0.16012 0.89575 0.01281 0.0
C936 C 0.16887 0.86993 0.01513 0.0
C937 C 0.18337 0.89474 0.01641 0.0
C938 C 0.18603 0.92012 0.01586 0.0
C939 C 0.1746 0.92061 0.01409 0.0
H940 H 0.82291 1.56875 0.02352 0.0
H941 H 0.82692 1.61769 0.01917 0.0
H942 H 0.80344 1.52567 0.02063 0.0
H943 H 0.80793 1.57456 0.01629 0.0
H944 H 0.76149 1.49636 0.01147 0.0
H945 H 0.78119 1.53928 0.01436 0.0
H946 H 0.7993 1.49335 0.018 0.0
H947 H 0.77923 1.45016 0.01513 0.0
C948 C 0.81968 1.57039 0.02195 0.0
C949 C 0.82657 1.59691 0.02159 0.0
C950 C 0.8086 1.54555 0.02029 0.0
C951 C 0.80402 1.54644 0.01821 0.0
C952 C 0.81098 1.57294 0.01786 0.0
C953 C 0.82207 1.59774 0.01952 0.0
C954 C 0.76959 1.4953 0.01289 0.0
C955 C 0.76865 1.46958 0.01306 0.0
C956 C 0.78104 1.52009 0.01455 0.0
C957 C 0.79193 1.51998 0.01643 0.0
C958 C 0.79106 1.49431 0.01659 0.0
C959 C 0.77962 1.46953 0.01493 0.0
H960 H 0.36184 1.08264 0.08174 0.0
H961 H 0.3844 1.11956 0.0784 0.0
H962 H 0.34295 1.03958 0.07885 0.0
H963 H 0.36584 1.07602 0.07554 0.0
H964 H 0.32041 1.00571 0.06985 0.0
H965 H 0.33964 1.04883 0.07273 0.0
H966 H 0.33919 0.99895 0.0771 0.0
H967 H 0.31953 0.956 0.07422 0.0
C968 C 0.36282 1.08162 0.08039 0.0
C969 C 0.37471 1.1048 0.08031 0.0
C970 C 0.35204 1.05669 0.07874 0.0
C971 C 0.35278 1.05411 0.07695 0.0
C972 C 0.36474 1.07722 0.07687 0.0
C973 C 0.37555 1.10214 0.07853 0.0
C974 C 0.32431 1.00389 0.07142 0.0
C975 C 0.3183 0.97716 0.07178 0.0
C976 C 0.33552 1.0287 0.07308 0.0
C977 C 0.34106 1.02758 0.07516 0.0
C978 C 0.33513 1.00083 0.07553 0.0
C979 C 0.32395 0.97605 0.07386 0.0
H980 H 1.04909 1.6376 0.07053 0.0
H981 H 1.08185 1.72755 0.07327 0.0
H982 H 1.04551 1.63484 0.07346 0.0
H983 H 1.07828 1.72479 0.0762 0.0
H984 H 1.05877 1.71528 0.08031 0.0
H985 H 1.06082 1.71716 0.07725 0.0
H986 H 1.05814 1.63798 0.07711 0.0
H987 H 1.05548 1.63554 0.08013 0.0
C988 C 1.0556 1.6568 0.07176 0.0
C989 C 1.06579 1.68281 0.07165 0.0
C990 C 1.05355 1.65521 0.07345 0.0
C991 C 1.06161 1.67956 0.07509 0.0
C992 C 1.07167 1.70561 0.07496 0.0
C993 C 1.07372 1.70721 0.07327 0.0
C994 C 1.05838 1.69801 0.07961 0.0
C995 C 1.05691 1.67521 0.08048 0.0
C996 C 1.05977 1.69929 0.07787 0.0
C997 C 1.05972 1.6778 0.07692 0.0
C998 C 1.05808 1.65483 0.07778 0.0
C999 C 1.05672 1.65358 0.07953 0.0
H1000 H 0.75315 0.38513 0.0817 0.0
H1001 H 0.78482 0.41682 0.07963 0.0
H1002 H 0.73511 0.38923 0.0786 0.0
H1003 H 0.76665 0.42075 0.07651 0.0
H1004 H 0.73553 0.44855 0.07205 0.0
H1005 H 0.75428 0.44597 0.07519 0.0
H1006 H 0.71825 0.36798 0.07495 0.0
H1007 H 0.69961 0.37067 0.07184 0.0
C1008 C 0.75623 0.39269 0.08057 0.0
C1009 C 0.77046 0.40037 0.08091 0.0
C1010 C 0.74583 0.39505 0.07879 0.0
C1011 C 0.74927 0.40513 0.07728 0.0
C1012 C 0.7636 0.41319 0.07764 0.0
C1013 C 0.77405 0.41089 0.07943 0.0
C1014 C 0.73161 0.43078 0.07267 0.0
C1015 C 0.71597 0.40995 0.07169 0.0
C1016 C 0.7424 0.42926 0.07447 0.0
C1017 C 0.73786 0.40683 0.07534 0.0
C1018 C 0.72223 0.38593 0.07436 0.0
C1019 C 0.71148 0.38748 0.07257 0.0
H1020 H 1.06286 0.39899 0.07269 0.0
H1021 H 1.04442 0.45119 0.07105 0.0
H1022 H 1.05898 0.39471 0.07561 0.0
H1023 H 1.04009 0.44615 0.07392 0.0
H1024 H 1.05017 0.45848 0.08056 0.0
H1025 H 1.05425 0.46183 0.07768 0.0
H1026 H 1.03958 0.37394 0.07651 0.0
H1027 H 1.03539 0.3705 0.0794 0.0
C1028 C 1.05795 0.40952 0.07295 0.0
C1029 C 1.054 0.42551 0.07163 0.0
C1030 C 1.05558 0.40683 0.07461 0.0
C1031 C 1.04927 0.42018 0.07502 0.0
C1032 C 1.04517 0.43587 0.07368 0.0
C1033 C 1.04747 0.43846 0.07201 0.0
C1034 C 1.04768 0.43974 0.07968 0.0
C1035 C 1.04232 0.41414 0.08022 0.0
C1036 C 1.05003 0.44168 0.07802 0.0
C1037 C 1.04713 0.41811 0.07683 0.0
C1038 C 1.04208 0.39264 0.07739 0.0
C1039 C 1.03969 0.39067 0.07906 0.0
H1040 H 0.32239 1.6506 0.0701 0.0
H1041 H 0.34741 1.73955 0.07314 0.0
H1042 H 0.34 1.64514 0.07317 0.0
H1043 H 0.36505 1.73408 0.07622 0.0
H1044 H 0.40309 1.71985 0.08045 0.0
H1045 H 0.38516 1.72562 0.07744 0.0
H1046 H 0.34806 1.64511 0.07672 0.0
H1047 H 0.36602 1.63883 0.07968 0.0
C1048 C 0.33151 1.66896 0.07143 0.0
C1049 C 0.33339 1.69554 0.07136 0.0
C1050 C 0.34167 1.66582 0.0732 0.0
C1051 C 0.35405 1.68916 0.07495 0.0
C1052 C 0.35584 1.71569 0.07489 0.0
C1053 C 0.34568 1.71882 0.07312 0.0
C1054 C 0.39112 1.70326 0.07964 0.0
C1055 C 0.38609 1.67885 0.08032 0.0
C1056 C 0.38078 1.70673 0.07793 0.0
C1057 C 0.36508 1.68584 0.07682 0.0
C1058 C 0.36005 1.66154 0.07751 0.0
C1059 C 0.37037 1.6581 0.07923 0.0
H1060 H 0.76642 1.09287 0.08158 0.0
H1061 H 0.79976 1.12282 0.07981 0.0
H1062 H 0.74797 1.05424 0.07838 0.0
H1063 H 0.78132 1.08376 0.07661 0.0
H1064 H 0.73965 1.02659 0.07011 0.0
H1065 H 0.75864 1.06524 0.07331 0.0
H1066 H 0.7414 1.01067 0.07666 0.0
H1067 H 0.72187 0.97247 0.07344 0.0
C1068 C 0.76989 1.09107 0.08051 0.0
C1069 C 0.78467 1.111 0.08097 0.0
C1070 C 0.75927 1.06874 0.07867 0.0
C1071 C 0.76307 1.06548 0.07723 0.0
C1072 C 0.77784 1.08561 0.07767 0.0
C1073 C 0.78846 1.10808 0.07951 0.0
C1074 C 0.73979 1.02282 0.07152 0.0
C1075 C 0.72902 0.99625 0.07149 0.0
C1076 C 0.75087 1.04501 0.07337 0.0
C1077 C 0.75162 1.04138 0.07526 0.0
C1078 C 0.74109 1.0146 0.07524 0.0
C1079 C 0.72997 0.99243 0.07339 0.0
H1080 H 0.21703 1.59355 0.02268 0.0
H1081 H 0.24608 1.61244 0.02025 0.0
H1082 H 0.19674 1.55113 0.01974 0.0
H1083 H 0.22586 1.57014 0.01733 0.0
H1084 H 0.19142 1.47834 0.01332 0.0
H1085 H 0.21169 1.51943 0.01635 0.0
H1086 H 0.17891 1.53579 0.01605 0.0
H1087 H 0.15868 1.49476 0.01302 0.0
C1088 C 0.2191 1.58881 0.02151 0.0
C1089 C 0.23331 1.60658 0.02172 0.0
C1090 C 0.20742 1.5644 0.01983 0.0
C1091 C 0.20958 1.55698 0.01829 0.0
C1092 C 0.2238 1.57473 0.01849 0.0
C1093 C 0.23546 1.5991 0.02018 0.0
C1094 C 0.18852 1.49074 0.01389 0.0
C1095 C 0.17332 1.48303 0.01291 0.0
C1096 C 0.20018 1.51441 0.01564 0.0
C1097 C 0.19704 1.53116 0.01646 0.0
C1098 C 0.18182 1.52326 0.01549 0.0
C1099 C 0.17015 1.49961 0.01375 0.0
H1100 H 0.50345 0.95239 0.02286 0.0
H1101 H 0.47886 0.86145 0.02069 0.0
H1102 H 0.50757 0.95665 0.01997 0.0
H1103 H 0.48304 0.86574 0.0178 0.0
H1104 H 0.50569 0.88594 0.01393 0.0
H1105 H 0.5021 0.88109 0.01688 0.0
H1106 H 0.49383 0.9482 0.01625 0.0
H1107 H 0.49793 0.95368 0.01336 0.0
C1108 C 0.49883 0.93324 0.02176 0.0
C1109 C 0.49072 0.90655 0.02201 0.0
C1110 C 0.5012 0.9357 0.0201 0.0
C1111 C 0.49556 0.91155 0.01863 0.0
C1112 C 0.48771 0.88486 0.0189 0.0
C1113 C 0.48532 0.8824 0.02057 0.0
C1114 C 0.50321 0.8998 0.01443 0.0
C1115 C 0.50212 0.92023 0.0134 0.0
C1116 C 0.50099 0.89682 0.01611 0.0
C1117 C 0.4977 0.91429 0.01682 0.0
C1118 C 0.49653 0.93458 0.01577 0.0
C1119 C 0.49869 0.93748 0.01409 0.0
H1120 H 0.76722 0.09569 0.0146 0.0
H1121 H 0.77494 2.14096 0.01109 0.0
H1122 H 0.78551 0.09087 0.01763 0.0
H1123 H 0.79281 2.13574 0.01414 0.0
H1124 H 0.83753 2.14758 0.01915 0.0
H1125 H 0.81941 2.15327 0.01618 0.0
H1126 H 0.81454 2.19481 0.0203 0.0
H1127 H 0.83317 2.19005 0.02329 0.0
C1128 C 0.79331 2.20482 0.01447 0.0
C1129 C 0.78272 2.18302 0.01259 0.0
C1130 C 0.80373 2.20194 0.01623 0.0
C1131 C 0.80392 2.1772 0.01614 0.0
C1132 C 0.7932 2.15527 0.01427 0.0
C1133 C 0.78277 2.15812 0.01252 0.0
C1134 C 0.83278 2.15828 0.01944 0.0
C1135 C 0.83695 2.16843 0.02148 0.0
C1136 C 0.82218 2.1612 0.01772 0.0
C1137 C 0.81537 2.17438 0.01799 0.0
C1138 C 0.8196 2.18474 0.02003 0.0
C1139 C 0.83019 2.18174 0.02175 0.0
H1140 H 0.27081 0.82889 0.04243 0.0
H1141 H 0.26964 0.90422 0.04242 0.0
H1142 H 0.26912 0.82616 0.04553 0.0
H1143 H 0.26782 0.9014 0.0455 0.0
H1144 H 0.27998 0.90589 0.05218 0.0
H1145 H 0.28198 0.90763 0.04912 0.0
H1146 H 0.25273 0.81653 0.04683 0.0
H1147 H 0.25086 0.81483 0.04992 0.0
C1148 C 0.27011 0.8448 0.04308 0.0
C1149 C 0.27049 0.86691 0.04217 0.0
C1150 C 0.2691 0.8432 0.04486 0.0
C1151 C 0.2684 0.86362 0.04579 0.0
C1152 C 0.26867 0.88559 0.04487 0.0
C1153 C 0.26973 0.88723 0.04309 0.0
C1154 C 0.27384 0.88619 0.05102 0.0
C1155 C 0.26513 0.86023 0.0513 0.0
C1156 C 0.27498 0.88718 0.04925 0.0
C1157 C 0.26743 0.86225 0.0477 0.0
C1158 C 0.25887 0.8362 0.04799 0.0
C1159 C 0.25776 0.83521 0.04977 0.0
H1160 H 1.01525 1.74977 0.05277 0.0
H1161 H 1.0018 1.67118 0.04926 0.0
H1162 H 0.99735 1.75374 0.04963 0.0
H1163 H 0.98347 1.67458 0.04614 0.0
H1164 H 0.96202 1.70164 0.04044 0.0
H1165 H 0.98116 1.70015 0.04357 0.0
H1166 H 0.97052 1.73306 0.0473 0.0
H1167 H 0.95177 1.73561 0.04417 0.0
C1168 C 1.00856 1.73339 0.05133 0.0
C1169 C 1.01007 1.71015 0.05128 0.0
C1170 C 0.9981 1.73548 0.04953 0.0
C1171 C 0.98884 1.71445 0.04762 0.0
C1172 C 0.99047 1.69138 0.04757 0.0
C1173 C 1.0009 1.68925 0.04937 0.0
C1174 C 0.96388 1.70897 0.04193 0.0
C1175 C 0.95528 1.71882 0.04204 0.0
C1176 C 0.97477 1.70775 0.04373 0.0
C1177 C 0.97743 1.71637 0.0457 0.0
C1178 C 0.96894 1.72649 0.04582 0.0
C1179 C 0.95803 1.72765 0.04401 0.0
H1180 H 0.56146 2.26854 0.04524 0.0
H1181 H 0.53295 0.19024 0.04089 0.0
H1182 H 0.58116 2.31149 0.04812 0.0
H1183 H 0.55221 0.23328 0.04378 0.0
H1184 H 0.59722 0.30519 0.04932 0.0
H1185 H 0.57871 0.26172 0.04646 0.0
H1186 H 0.55834 0.22227 0.05001 0.0
H1187 H 0.57722 0.26531 0.0529 0.0
C1188 C 0.56521 2.28871 0.04489 0.0
C1189 C 0.55871 2.28995 0.04281 0.0
C1190 C 0.57642 2.31347 0.04655 0.0
C1191 C 0.55516 0.21181 0.0462 0.0
C1192 C 0.54875 0.21308 0.04412 0.0
C1193 C 0.53753 0.1883 0.04246 0.0
C1194 C 0.58895 0.28714 0.04951 0.0
C1195 C 0.58881 0.28896 0.05136 0.0
C1196 C 0.57816 0.26223 0.04785 0.0
C1197 C 0.5669 0.23831 0.04799 0.0
C1198 C 0.56688 0.24004 0.04984 0.0
C1199 C 0.57764 0.26494 0.0515 0.0
H1200 H 0.96235 2.27865 0.04415 0.0
H1201 H 0.94597 0.20475 0.04034 0.0
H1202 H 0.9816 2.31903 0.04725 0.0
H1203 H 0.96561 0.24487 0.04344 0.0
H1204 H 0.98771 0.316 0.04914 0.0
H1205 H 0.96873 0.27562 0.04604 0.0
H1206 H 0.98222 0.22344 0.04952 0.0
H1207 H 1.00077 0.26352 0.05264 0.0
C1208 C 0.96865 2.29922 0.04397 0.0
C1209 C 0.96567 2.3025 0.04198 0.0
C1210 C 0.97985 2.32242 0.04575 0.0
C1211 C 0.96208 0.22115 0.04561 0.0
C1212 C 0.95917 0.22438 0.04362 0.0
C1213 C 0.948 0.20118 0.04184 0.0
C1214 C 0.98659 0.2959 0.04925 0.0
C1215 C 0.99585 0.29321 0.05115 0.0
C1216 C 0.97578 0.27272 0.04746 0.0
C1217 C 0.97385 0.24607 0.04751 0.0
C1218 C 0.9832 0.24344 0.04941 0.0
C1219 C 0.99403 0.26663 0.0512 0.0
H1220 H 0.28089 1.68594 0.04213 0.0
H1221 H 0.2897 1.7702 0.04267 0.0
H1222 H 0.2784 1.68444 0.04515 0.0
H1223 H 0.28721 1.7687 0.0457 0.0
H1224 H 0.26482 1.74373 0.04957 0.0
H1225 H 0.26853 1.74651 0.04665 0.0
H1226 H 0.2919 1.70314 0.04887 0.0
H1227 H 0.28818 1.70036 0.0518 0.0
C1228 C 0.28252 1.70436 0.04291 0.0
C1229 C 0.28551 1.72821 0.04214 0.0
C1230 C 0.28107 1.70348 0.04465 0.0
C1231 C 0.28256 1.72641 0.04568 0.0
C1232 C 0.28572 1.7504 0.04493 0.0
C1233 C 0.28716 1.75128 0.04318 0.0
C1234 C 0.27094 1.73509 0.04945 0.0
C1235 C 0.27623 1.72188 0.05093 0.0
C1236 C 0.27307 1.73669 0.04777 0.0
C1237 C 0.28056 1.72511 0.04751 0.0
C1238 C 0.28589 1.71195 0.04899 0.0
C1239 C 0.28375 1.71036 0.05068 0.0
H1240 H 0.54944 0.84946 0.04046 0.0
H1241 H 0.54483 0.89638 0.04428 0.0
H1242 H 0.56753 0.84559 0.04357 0.0
H1243 H 0.56342 0.89337 0.04741 0.0
H1244 H 0.58496 0.85545 0.05239 0.0
H1245 H 0.56685 0.8603 0.04933 0.0
H1246 H 0.59313 0.87338 0.04653 0.0
H1247 H 0.6109 0.86754 0.04955 0.0
C1248 C 0.55221 0.85888 0.04197 0.0
C1249 C 0.54553 0.87312 0.04211 0.0
C1250 C 0.5628 0.85699 0.04376 0.0
C1251 C 0.56707 0.86926 0.04576 0.0
C1252 C 0.56036 0.88344 0.0459 0.0
C1253 C 0.54978 0.88542 0.0441 0.0
C1254 C 0.58686 0.85923 0.05112 0.0
C1255 C 0.59944 0.86099 0.05122 0.0
C1256 C 0.57653 0.86232 0.04937 0.0
C1257 C 0.57842 0.86712 0.04767 0.0
C1258 C 0.59113 0.86931 0.04779 0.0
C1259 C 0.60148 0.86632 0.04954 0.0
loop_
_geom_bond_atom_site_label_1
_geom_bond_atom_site_label_2
_geom_bond_distance
_geom_bond_site_symmetry_2
_ccdc_geom_bond_type
C0 C1 1.264 . S
C0 C5 1.479 1_545 S
C0 C10 1.465 . S
C1 C0 1.264 . S
C1 C3 1.339 1_545 S
C1 H28 0.931 . S
C2 C3 1.395 . S
C2 C4 1.320 . S
C3 C1 1.339 1_565 S
C3 C2 1.395 . S
C3 H29 0.949 . S
C4 C2 1.320 . S
C4 C5 1.405 . S
C4 H30 0.930 . S
C5 C0 1.479 1_565 S
C5 C4 1.405 . S
C5 H31 0.901 . S
U6 O7 2.454 . S
U6 O8 2.458 . S
U6 C9 2.984 . S
U6 C10 2.847 . S
U6 C23 2.882 1_554 S
U6 O24 2.441 . S
U6 O25 2.420 . S
U6 O26 2.455 1_554 S
U6 O27 2.449 . S
O7 U6 2.454 . S
O7 C9 1.353 . S
O8 U6 2.458 . S
O8 C9 1.286 . S
C9 U6 2.984 . S
C9 O7 1.353 . S
C9 O8 1.286 . S
C9 C11 1.363 . S
C10 C0 1.465 . S
C10 U6 2.847 . S
C10 O24 1.249 . S
C10 O25 1.202 . S
C11 C9 1.363 . S
C11 C13 1.408 . S
C11 C16 1.342 . S
C12 C13 1.310 . S
C12 C15 1.461 . S
C12 H32 0.932 . S
C13 C11 1.408 . S
C13 C12 1.310 . S
C13 H33 0.930 . S
C14 C15 1.474 . S
C14 C16 1.285 . S
C14 H34 0.929 1_554 S
C15 C12 1.461 . S
C15 C14 1.474 . S
C16 C11 1.342 . S
C16 C14 1.285 . S
C16 H35 0.930 1_554 S
C17 C20 1.424 . S
C17 C22 1.245 . S
C17 C23 1.428 . S
C18 C21 1.260 . S
C18 C22 1.477 . S
C18 H36 0.932 . S
C19 C20 1.384 . S
C19 C21 1.479 . S
C19 H37 0.929 . S
C20 C17 1.424 . S
C20 C19 1.384 . S
C20 H38 0.928 . S
C21 C18 1.260 . S
C21 C19 1.479 . S
C22 C17 1.245 . S
C22 C18 1.477 . S
C22 H39 0.932 . S
C23 U6 2.882 1_556 S
C23 C17 1.428 . S
C23 O26 1.301 . S
C23 O27 1.282 1_556 S
O24 U6 2.441 . S
O24 C10 1.249 . S
O25 U6 2.420 . S
O25 C10 1.202 . S
O26 U6 2.455 1_556 S
O26 C23 1.301 . S
O27 U6 2.449 . S
O27 C23 1.282 1_554 S
H28 C1 0.931 . S
H29 C3 0.949 . S
H30 C4 0.930 . S
H31 C5 0.901 . S
H32 C12 0.932 . S
H33 C13 0.930 . S
H34 C14 0.929 1_556 S
H35 C16 0.930 1_556 S
H36 C18 0.932 . S
H37 C19 0.929 . S
H38 C20 0.928 . S
H39 C22 0.932 . S
C40 C41 1.264 . S
C40 C45 1.479 . S
C40 C50 1.465 . S
C41 C40 1.264 . S
C41 C43 1.339 . S
C41 H68 0.931 . S
C42 C43 1.395 . S
C42 C44 1.320 . S
C43 C41 1.339 . S
C43 C42 1.395 . S
C43 H69 0.929 . S
C44 C42 1.320 . S
C44 C45 1.405 . S
C44 H70 0.930 . S
C45 C40 1.479 . S
C45 C44 1.405 . S
C45 H71 0.931 . S
U46 O47 2.454 1_554 S
U46 O48 2.458 . S
U46 C49 2.984 . S
U46 C50 2.847 1_554 S
U46 C63 2.882 . S
U46 O64 2.441 1_554 S
U46 O65 2.420 1_554 S
U46 O66 2.455 . S
U46 O67 2.449 . S
O47 U46 2.454 1_556 S
O47 C49 1.353 1_556 S
O48 U46 2.458 . S
O48 C49 1.286 . S
C49 U46 2.984 . S
C49 O47 1.353 1_554 S
C49 O48 1.286 . S
C49 C51 1.363 . S
C50 C40 1.465 . S
C50 U46 2.847 1_556 S
C50 O64 1.249 . S
C50 O65 1.202 . S
C51 C49 1.363 . S
C51 C53 1.408 1_554 S
C51 C56 1.342 . S
C52 C53 1.310 . S
C52 C55 1.461 1_556 S
C52 H72 0.932 . S
C53 C51 1.408 1_556 S
C53 C52 1.310 . S
C53 H73 0.930 . S
C54 C55 1.474 . S
C54 C56 1.285 . S
C54 H74 0.929 . S
C55 C52 1.461 1_554 S
C55 C54 1.474 . S
C56 C51 1.342 . S
C56 C54 1.285 . S
C56 H75 0.930 . S
C57 C60 1.424 . S
C57 C62 1.245 . S
C57 C63 1.428 . S
C58 C61 1.260 . S
C58 C62 1.477 . S
C58 H76 0.932 . S
C59 C60 1.384 . S
C59 C61 1.479 . S
C59 H77 0.929 . S
C60 C57 1.424 . S
C60 C59 1.384 . S
C60 H78 0.928 . S
C61 C58 1.260 . S
C61 C59 1.479 . S
C62 C57 1.245 . S
C62 C58 1.477 . S
C62 H79 0.932 . S
C63 U46 2.882 . S
C63 C57 1.428 . S
C63 O66 1.301 . S
C63 O67 1.282 . S
O64 U46 2.441 1_556 S
O64 C50 1.249 . S
O65 U46 2.420 1_556 S
O65 C50 1.202 . S
O66 U46 2.455 . S
O66 C63 1.301 . S
O67 U46 2.449 . S
O67 C63 1.282 . S
H68 C41 0.931 . S
H69 C43 0.929 . S
H70 C44 0.930 . S
H71 C45 0.931 . S
H72 C52 0.932 . S
H73 C53 0.930 . S
H74 C54 0.929 . S
H75 C56 0.930 . S
H76 C58 0.932 . S
H77 C59 0.929 . S
H78 C60 0.928 . S
H79 C62 0.932 . S
C80 C81 1.264 . S
C80 C85 1.479 . S
C80 C90 1.465 . S
C81 C80 1.264 . S
C81 C83 1.339 . S
C81 H108 0.931 . S
C82 C83 1.395 . S
C82 C84 1.320 . S
C83 C81 1.339 . S
C83 C82 1.395 . S
C83 H109 0.929 . S
C84 C82 1.320 . S
C84 C85 1.405 . S
C84 H110 0.930 . S
C85 C80 1.479 . S
C85 C84 1.405 . S
C85 H111 0.931 . S
U86 O87 2.454 . S
U86 O88 2.458 . S
U86 C89 2.984 . S
U86 C90 2.847 . S
U86 C103 2.882 1_554 S
U86 O104 2.441 . S
U86 O105 2.420 . S
U86 O106 2.455 1_554 S
U86 O107 2.449 . S
O87 U86 2.454 . S
O87 C89 1.353 . S
O88 U86 2.458 . S
O88 C89 1.286 . S
C89 U86 2.984 . S
C89 O87 1.353 . S
C89 O88 1.286 . S
C89 C91 1.363 . S
C90 C80 1.465 . S
C90 U86 2.847 . S
C90 O104 1.249 . S
C90 O105 1.202 . S
C91 C89 1.363 . S
C91 C93 1.408 . S
C91 C96 1.342 1_554 S
C92 C93 1.310 . S
C92 C95 1.461 . S
C92 H112 0.932 . S
C93 C91 1.408 . S
C93 C92 1.310 . S
C93 H113 0.930 . S
C94 C95 1.474 1_556 S
C94 C96 1.285 . S
C94 H114 0.929 . S
C95 C92 1.461 . S
C95 C94 1.474 1_554 S
C96 C91 1.342 1_556 S
C96 C94 1.285 . S
C96 H115 0.930 . S
C97 C100 1.424 . S
C97 C102 1.245 . S
C97 C103 1.428 . S
C98 C101 1.260 . S
C98 C102 1.477 . S
C98 H116 0.932 . S
C99 C100 1.384 . S
C99 C101 1.479 . S
C99 H117 0.929 . S
C100 C97 1.424 . S
C100 C99 1.384 . S
C100 H118 0.928 . S
C101 C98 1.260 . S
C101 C99 1.479 . S
C102 C97 1.245 . S
C102 C98 1.477 . S
C102 H119 0.932 . S
C103 U86 2.882 1_556 S
C103 C97 1.428 . S
C103 O106 1.301 . S
C103 O107 1.282 1_556 S
O104 U86 2.441 . S
O104 C90 1.249 . S
O105 U86 2.420 . S
O105 C90 1.202 . S
O106 U86 2.455 1_556 S
O106 C103 1.301 . S
O107 U86 2.449 . S
O107 C103 1.282 1_554 S
H108 C81 0.931 . S
H109 C83 0.929 . S
H110 C84 0.930 . S
H111 C85 0.931 . S
H112 C92 0.932 . S
H113 C93 0.930 . S
H114 C94 0.929 . S
H115 C96 0.930 . S
H116 C98 0.932 . S
H117 C99 0.929 . S
H118 C100 0.928 . S
H119 C102 0.932 . S
C120 C121 1.264 . S
C120 C125 1.479 . S
C120 C130 1.465 . S
C121 C120 1.264 . S
C121 C123 1.339 . S
C121 H148 0.931 . S
C122 C123 1.395 . S
C122 C124 1.320 . S
C123 C121 1.339 . S
C123 C122 1.395 . S
C123 H149 0.929 . S
C124 C122 1.320 . S
C124 C125 1.405 . S
C124 H150 0.930 . S
C125 C120 1.479 . S
C125 C124 1.405 . S
C125 H151 0.931 . S
U126 O127 2.454 1_554 S
U126 O128 2.458 . S
U126 C129 2.984 . S
U126 C130 2.847 1_554 S
U126 C143 2.882 . S
U126 O144 2.441 1_554 S
U126 O145 2.420 1_554 S
U126 O146 2.455 . S
U126 O147 2.449 . S
O127 U126 2.454 1_556 S
O127 C129 1.353 1_556 S
O128 U126 2.458 . S
O128 C129 1.286 . S
C129 U126 2.984 . S
C129 O127 1.353 1_554 S
C129 O128 1.286 . S
C129 C131 1.363 . S
C130 C120 1.465 . S
C130 U126 2.847 1_556 S
C130 O144 1.249 . S
C130 O145 1.202 . S
C131 C129 1.363 . S
C131 C133 1.408 1_554 S
C131 C136 1.342 . S
C132 C133 1.310 . S
C132 C135 1.461 1_556 S
C132 H152 0.932 . S
C133 C131 1.408 1_556 S
C133 C132 1.310 . S
C133 H153 0.930 . S
C134 C135 1.474 . S
C134 C136 1.285 . S
C134 H154 0.929 . S
C135 C132 1.461 1_554 S
C135 C134 1.474 . S
C136 C131 1.342 . S
C136 C134 1.285 . S
C136 H155 0.930 . S
C137 C140 1.424 . S
C137 C142 1.245 . S
C137 C143 1.428 . S
C138 C141 1.260 . S
C138 C142 1.477 . S
C138 H156 0.932 . S
C139 C140 1.384 . S
C139 C141 1.479 . S
C139 H157 0.929 . S
C140 C137 1.424 . S
C140 C139 1.384 . S
C140 H158 0.928 . S
C141 C138 1.260 . S
C141 C139 1.479 . S
C142 C137 1.245 . S
C142 C138 1.477 . S
C142 H159 0.932 . S
C143 U126 2.882 . S
C143 C137 1.428 . S
C143 O146 1.301 . S
C143 O147 1.282 . S
O144 U126 2.441 1_556 S
O144 C130 1.249 . S
O145 U126 2.420 1_556 S
O145 C130 1.202 . S
O146 U126 2.455 . S
O146 C143 1.301 . S
O147 U126 2.449 . S
O147 C143 1.282 . S
H148 C121 0.931 . S
H149 C123 0.929 . S
H150 C124 0.930 . S
H151 C125 0.931 . S
H152 C132 0.932 . S
H153 C133 0.930 . S
H154 C134 0.929 . S
H155 C136 0.930 . S
H156 C138 0.932 . S
H157 C139 0.929 . S
H158 C140 0.928 . S
H159 C142 0.932 . S
C160 C161 1.264 . S
C160 C165 1.479 . S
C160 C170 1.465 . S
C161 C160 1.264 . S
C161 C163 1.339 . S
C161 H188 0.931 . S
C162 C163 1.395 . S
C162 C164 1.320 . S
C163 C161 1.339 . S
C163 C162 1.395 . S
C163 H189 0.929 . S
C164 C162 1.320 . S
C164 C165 1.405 . S
C164 H190 0.930 . S
C165 C160 1.479 . S
C165 C164 1.405 . S
C165 H191 0.931 . S
U166 O167 2.454 1_554 S
U166 O168 2.458 . S
U166 C169 2.984 . S
U166 C170 2.847 1_554 S
U166 C183 2.882 . S
U166 O184 2.441 1_554 S
U166 O185 2.420 1_554 S
U166 O186 2.455 . S
U166 O187 2.449 . S
O167 U166 2.454 1_556 S
O167 C169 1.353 1_556 S
O168 U166 2.458 . S
O168 C169 1.286 . S
C169 U166 2.984 . S
C169 O167 1.353 1_554 S
C169 O168 1.286 . S
C169 C171 1.363 . S
C170 C160 1.465 . S
C170 U166 2.847 1_556 S
C170 O184 1.249 . S
C170 O185 1.202 . S
C171 C169 1.363 . S
C171 C173 1.408 1_554 S
C171 C176 1.342 . S
C172 C173 1.310 . S
C172 C175 1.461 1_556 S
C172 H192 0.932 . S
C173 C171 1.408 1_556 S
C173 C172 1.310 . S
C173 H193 0.930 . S
C174 C175 1.474 . S
C174 C176 1.285 . S
C174 H194 0.929 . S
C175 C172 1.461 1_554 S
C175 C174 1.474 . S
C176 C171 1.342 . S
C176 C174 1.285 . S
C176 H195 0.930 . S
C177 C180 1.424 . S
C177 C182 1.245 . S
C177 C183 1.428 . S
C178 C181 1.260 . S
C178 C182 1.477 . S
C178 H196 0.932 . S
C179 C180 1.384 . S
C179 C181 1.479 . S
C179 H197 0.929 . S
C180 C177 1.424 . S
C180 C179 1.384 . S
C180 H198 0.928 . S
C181 C178 1.260 . S
C181 C179 1.479 . S
C182 C177 1.245 . S
C182 C178 1.477 . S
C182 H199 0.932 . S
C183 U166 2.882 . S
C183 C177 1.428 . S
C183 O186 1.301 . S
C183 O187 1.282 . S
O184 U166 2.441 1_556 S
O184 C170 1.249 . S
O185 U166 2.420 1_556 S
O185 C170 1.202 . S
O186 U166 2.455 . S
O186 C183 1.301 . S
O187 U166 2.449 . S
O187 C183 1.282 . S
H188 C161 0.931 . S
H189 C163 0.929 . S
H190 C164 0.930 . S
H191 C165 0.931 . S
H192 C172 0.932 . S
H193 C173 0.930 . S
H194 C174 0.929 . S
H195 C176 0.930 . S
H196 C178 0.932 . S
H197 C179 0.929 . S
H198 C180 0.928 . S
H199 C182 0.932 . S
C200 C201 1.264 . S
C200 C205 1.479 . S
C200 C210 1.465 . S
C201 C200 1.264 . S
C201 C203 1.339 . S
C201 H228 0.931 . S
C202 C203 1.395 . S
C202 C204 1.320 . S
C203 C201 1.339 . S
C203 C202 1.395 . S
C203 H229 0.929 . S
C204 C202 1.320 . S
C204 C205 1.405 . S
C204 H230 0.930 . S
C205 C200 1.479 . S
C205 C204 1.405 . S
C205 H231 0.931 . S
U206 O207 2.454 . S
U206 O208 2.458 . S
U206 C209 2.984 . S
U206 C210 2.847 . S
U206 C223 2.882 1_554 S
U206 O224 2.441 . S
U206 O225 2.420 . S
U206 O226 2.455 1_554 S
U206 O227 2.449 1_554 S
O207 U206 2.454 . S
O207 C209 1.353 . S
O208 U206 2.458 . S
O208 C209 1.286 . S
C209 U206 2.984 . S
C209 O207 1.353 . S
C209 O208 1.286 . S
C209 C211 1.363 . S
C210 C200 1.465 . S
C210 U206 2.847 . S
C210 O224 1.249 . S
C210 O225 1.202 . S
C211 C209 1.363 . S
C211 C213 1.408 . S
C211 C216 1.320 1_554 S
C212 C213 1.310 . S
C212 C215 1.461 . S
C212 H232 0.932 . S
C213 C211 1.408 . S
C213 C212 1.310 . S
C213 H233 0.930 . S
C214 C215 1.474 1_556 S
C214 C216 1.287 . S
C214 H234 0.929 . S
C215 C212 1.461 . S
C215 C214 1.474 1_554 S
C216 C211 1.320 1_556 S
C216 C214 1.287 . S
C216 H235 0.951 . S
C217 C220 1.424 . S
C217 C222 1.245 . S
C217 C223 1.428 . S
C218 C221 1.260 . S
C218 C222 1.477 . S
C218 H236 0.932 . S
C219 C220 1.384 . S
C219 C221 1.479 . S
C219 H237 0.929 . S
C220 C217 1.424 . S
C220 C219 1.384 . S
C220 H238 0.928 . S
C221 C218 1.260 . S
C221 C219 1.479 . S
C222 C217 1.245 . S
C222 C218 1.477 . S
C222 H239 0.932 . S
C223 U206 2.882 1_556 S
C223 C217 1.428 . S
C223 O226 1.301 . S
C223 O227 1.282 . S
O224 U206 2.441 . S
O224 C210 1.249 . S
O225 U206 2.420 . S
O225 C210 1.202 . S
O226 U206 2.455 1_556 S
O226 C223 1.301 . S
O227 U206 2.449 1_556 S
O227 C223 1.282 . S
H228 C201 0.931 . S
H229 C203 0.929 . S
H230 C204 0.930 . S
H231 C205 0.931 . S
H232 C212 0.932 . S
H233 C213 0.930 . S
H234 C214 0.929 . S
H235 C216 0.951 . S
H236 C218 0.932 . S
H237 C219 0.929 . S
H238 C220 0.928 . S
H239 C222 0.932 . S
C240 C241 1.264 . S
C240 C245 1.479 . S
C240 C250 1.465 . S
C241 C240 1.264 . S
C241 C243 1.339 . S
C241 H268 0.931 . S
C242 C243 1.395 . S
C242 C244 1.320 . S
C243 C241 1.339 . S
C243 C242 1.395 . S
C243 H269 0.929 . S
C244 C242 1.320 . S
C244 C245 1.405 . S
C244 H270 0.930 . S
C245 C240 1.479 . S
C245 C244 1.405 . S
C245 H271 0.931 . S
U246 O247 2.454 . S
U246 O248 2.458 . S
U246 C249 2.984 . S
U246 C250 2.847 . S
U246 C263 2.882 . S
U246 O264 2.441 . S
U246 O265 2.420 . S
U246 O266 2.455 . S
U246 O267 2.449 . S
O247 U246 2.454 . S
O247 C249 1.353 . S
O248 U246 2.458 . S
O248 C249 1.286 . S
C249 U246 2.984 . S
C249 O247 1.353 . S
C249 O248 1.286 . S
C249 C251 1.363 . S
C250 C240 1.465 . S
C250 U246 2.847 . S
C250 O264 1.249 . S
C250 O265 1.202 . S
C251 C249 1.363 . S
C251 C253 1.408 . S
C251 C256 1.342 . S
C252 C253 1.310 . S
C252 C255 1.461 . S
C252 H272 0.932 . S
C253 C251 1.408 . S
C253 C252 1.310 . S
C253 H273 0.930 . S
C254 C255 1.474 . S
C254 C256 1.285 . S
C254 H274 0.929 . S
C255 C252 1.461 . S
C255 C254 1.474 . S
C256 C251 1.342 . S
C256 C254 1.285 . S
C256 H275 0.930 . S
C257 C260 1.424 . S
C257 C262 1.245 . S
C257 C263 1.428 . S
C258 C261 1.260 . S
C258 C262 1.477 . S
C258 H276 0.932 . S
C259 C260 1.384 . S
C259 C261 1.479 . S
C259 H277 0.929 . S
C260 C257 1.424 . S
C260 C259 1.384 . S
C260 H278 0.928 . S
C261 C258 1.260 . S
C261 C259 1.479 . S
C262 C257 1.245 . S
C262 C258 1.477 . S
C262 H279 0.932 . S
C263 U246 2.882 . S
C263 C257 1.428 . S
C263 O266 1.301 . S
C263 O267 1.282 . S
O264 U246 2.441 . S
O264 C250 1.249 . S
O265 U246 2.420 . S
O265 C250 1.202 . S
O266 U246 2.455 . S
O266 C263 1.301 . S
O267 U246 2.449 . S
O267 C263 1.282 . S
H268 C241 0.931 . S
H269 C243 0.929 . S
H270 C244 0.930 . S
H271 C245 0.931 . S
H272 C252 0.932 . S
H273 C253 0.930 . S
H274 C254 0.929 . S
H275 C256 0.930 . S
H276 C258 0.932 . S
H277 C259 0.929 . S
H278 C260 0.928 . S
H279 C262 0.932 . S
C280 C281 1.264 . S
C280 C285 1.479 . S
C280 C290 1.465 . S
C281 C280 1.264 . S
C281 C283 1.339 . S
C281 H308 0.931 . S
C282 C283 1.395 . S
C282 C284 1.320 . S
C283 C281 1.339 . S
C283 C282 1.395 . S
C283 H309 0.929 . S
C284 C282 1.320 . S
C284 C285 1.405 . S
C284 H310 0.930 . S
C285 C280 1.479 . S
C285 C284 1.405 . S
C285 H311 0.931 . S
U286 O287 2.454 . S
U286 O288 2.458 . S
U286 C289 2.984 . S
U286 C290 2.847 . S
U286 C303 2.882 . S
U286 O304 2.441 . S
U286 O305 2.420 . S
U286 O306 2.455 . S
U286 O307 2.449 . S
O287 U286 2.454 . S
O287 C289 1.353 . S
O288 U286 2.458 . S
O288 C289 1.286 . S
C289 U286 2.984 . S
C289 O287 1.353 . S
C289 O288 1.286 . S
C289 C291 1.363 . S
C290 C280 1.465 . S
C290 U286 2.847 . S
C290 O304 1.249 . S
C290 O305 1.202 . S
C291 C289 1.363 . S
C291 C293 1.408 . S
C291 C296 1.342 . S
C292 C293 1.310 . S
C292 C295 1.461 . S
C292 H312 0.932 . S
C293 C291 1.408 . S
C293 C292 1.310 . S
C293 H313 0.930 . S
C294 C295 1.474 . S
C294 C296 1.285 . S
C294 H314 0.929 . S
C295 C292 1.461 . S
C295 C294 1.474 . S
C296 C291 1.342 . S
C296 C294 1.285 . S
C296 H315 0.930 . S
C297 C300 1.424 . S
C297 C302 1.245 . S
C297 C303 1.428 . S
C298 C301 1.260 . S
C298 C302 1.477 . S
C298 H316 0.932 . S
C299 C300 1.384 . S
C299 C301 1.479 . S
C299 H317 0.929 . S
C300 C297 1.424 . S
C300 C299 1.384 . S
C300 H318 0.928 . S
C301 C298 1.260 . S
C301 C299 1.479 . S
C302 C297 1.245 . S
C302 C298 1.477 . S
C302 H319 0.932 . S
C303 U286 2.882 . S
C303 C297 1.428 . S
C303 O306 1.301 . S
C303 O307 1.282 . S
O304 U286 2.441 . S
O304 C290 1.249 . S
O305 U286 2.420 . S
O305 C290 1.202 . S
O306 U286 2.455 . S
O306 C303 1.301 . S
O307 U286 2.449 . S
O307 C303 1.282 . S
H308 C281 0.931 . S
H309 C283 0.929 . S
H310 C284 0.930 . S
H311 C285 0.931 . S
H312 C292 0.932 . S
H313 C293 0.930 . S
H314 C294 0.929 . S
H315 C296 0.930 . S
H316 C298 0.932 . S
H317 C299 0.929 . S
H318 C300 0.928 . S
H319 C302 0.932 . S
C320 C321 1.264 . S
C320 C325 1.479 . S
C320 C330 1.465 . S
C321 C320 1.264 . S
C321 C323 1.339 . S
C321 H348 0.931 . S
C322 C323 1.395 . S
C322 C324 1.320 . S
C323 C321 1.339 . S
C323 C322 1.395 . S
C323 H349 0.929 . S
C324 C322 1.320 . S
C324 C325 1.405 . S
C324 H350 0.930 . S
C325 C320 1.479 . S
C325 C324 1.405 . S
C325 H351 0.931 . S
U326 O327 2.454 . S
U326 O328 2.458 . S
U326 C329 2.984 . S
U326 C330 2.847 . S
U326 C343 2.882 . S
U326 O344 2.441 . S
U326 O345 2.420 . S
U326 O346 2.455 . S
U326 O347 2.449 . S
O327 U326 2.454 . S
O327 C329 1.353 . S
O328 U326 2.458 . S
O328 C329 1.286 . S
C329 U326 2.984 . S
C329 O327 1.353 . S
C329 O328 1.286 . S
C329 C331 1.363 . S
C330 C320 1.465 . S
C330 U326 2.847 . S
C330 O344 1.249 . S
C330 O345 1.202 . S
C331 C329 1.363 . S
C331 C333 1.408 . S
C331 C336 1.342 . S
C332 C333 1.310 . S
C332 C335 1.461 . S
C332 H352 0.932 . S
C333 C331 1.408 . S
C333 C332 1.310 . S
C333 H353 0.930 . S
C334 C335 1.474 . S
C334 C336 1.285 . S
C334 H354 0.929 . S
C335 C332 1.461 . S
C335 C334 1.474 . S
C336 C331 1.342 . S
C336 C334 1.285 . S
C336 H355 0.930 . S
C337 C340 1.424 . S
C337 C342 1.245 . S
C337 C343 1.428 . S
C338 C341 1.260 . S
C338 C342 1.477 . S
C338 H356 0.932 . S
C339 C340 1.384 . S
C339 C341 1.479 . S
C339 H357 0.929 . S
C340 C337 1.424 . S
C340 C339 1.384 . S
C340 H358 0.928 . S
C341 C338 1.260 . S
C341 C339 1.479 . S
C342 C337 1.245 . S
C342 C338 1.477 . S
C342 H359 0.932 . S
C343 U326 2.882 . S
C343 C337 1.428 . S
C343 O346 1.301 . S
C343 O347 1.282 . S
O344 U326 2.441 . S
O344 C330 1.249 . S
O345 U326 2.420 . S
O345 C330 1.202 . S
O346 U326 2.455 . S
O346 C343 1.301 . S
O347 U326 2.449 . S
O347 C343 1.282 . S
H348 C321 0.931 . S
H349 C323 0.929 . S
H350 C324 0.930 . S
H351 C325 0.931 . S
H352 C332 0.932 . S
H353 C333 0.930 . S
H354 C334 0.929 . S
H355 C336 0.930 . S
H356 C338 0.932 . S
H357 C339 0.929 . S
H358 C340 0.928 . S
H359 C342 0.932 . S
C360 C361 1.264 . S
C360 C365 1.479 . S
C360 C370 1.465 . S
C361 C360 1.264 . S
C361 C363 1.339 . S
C361 H388 0.931 . S
C362 C363 1.395 . S
C362 C364 1.320 . S
C363 C361 1.339 . S
C363 C362 1.395 . S
C363 H389 0.929 . S
C364 C362 1.320 . S
C364 C365 1.405 . S
C364 H390 0.930 . S
C365 C360 1.479 . S
C365 C364 1.405 . S
C365 H391 0.931 . S
U366 O367 2.454 . S
U366 O368 2.458 . S
U366 C369 2.984 . S
U366 C370 2.847 . S
U366 C383 2.882 . S
U366 O384 2.441 . S
U366 O385 2.420 . S
U366 O386 2.455 . S
U366 O387 2.449 . S
O367 U366 2.454 . S
O367 C369 1.353 . S
O368 U366 2.458 . S
O368 C369 1.286 . S
C369 U366 2.984 . S
C369 O367 1.353 . S
C369 O368 1.286 . S
C369 C371 1.363 . S
C370 C360 1.465 . S
C370 U366 2.847 . S
C370 O384 1.249 . S
C370 O385 1.202 . S
C371 C369 1.363 . S
C371 C373 1.408 . S
C371 C376 1.342 . S
C372 C373 1.310 . S
C372 C375 1.461 . S
C372 H392 0.932 . S
C373 C371 1.408 . S
C373 C372 1.310 . S
C373 H393 0.930 . S
C374 C375 1.474 . S
C374 C376 1.285 . S
C374 H394 0.929 . S
C375 C372 1.461 . S
C375 C374 1.474 . S
C376 C371 1.342 . S
C376 C374 1.285 . S
C376 H395 0.930 . S
C377 C380 1.424 . S
C377 C382 1.245 . S
C377 C383 1.428 . S
C378 C381 1.260 . S
C378 C382 1.477 . S
C378 H396 0.932 . S
C379 C380 1.384 . S
C379 C381 1.479 . S
C379 H397 0.929 . S
C380 C377 1.424 . S
C380 C379 1.384 . S
C380 H398 0.928 . S
C381 C378 1.260 . S
C381 C379 1.479 . S
C382 C377 1.245 . S
C382 C378 1.477 . S
C382 H399 0.932 . S
C383 U366 2.882 . S
C383 C377 1.428 . S
C383 O386 1.301 . S
C383 O387 1.282 . S
O384 U366 2.441 . S
O384 C370 1.249 . S
O385 U366 2.420 . S
O385 C370 1.202 . S
O386 U366 2.455 . S
O386 C383 1.301 . S
O387 U366 2.449 . S
O387 C383 1.282 . S
H388 C361 0.931 . S
H389 C363 0.929 . S
H390 C364 0.930 . S
H391 C365 0.931 . S
H392 C372 0.932 . S
H393 C373 0.930 . S
H394 C374 0.929 . S
H395 C376 0.930 . S
H396 C378 0.932 . S
H397 C379 0.929 . S
H398 C380 0.928 . S
H399 C382 0.932 . S
C400 C401 1.264 . S
C400 C405 1.479 . S
C400 C410 1.465 . S
C401 C400 1.264 . S
C401 C403 1.339 . S
C401 H428 0.931 . S
C402 C403 1.395 . S
C402 C404 1.320 . S
C403 C401 1.339 . S
C403 C402 1.395 . S
C403 H429 0.929 . S
C404 C402 1.320 . S
C404 C405 1.405 . S
C404 H430 0.930 . S
C405 C400 1.479 . S
C405 C404 1.405 . S
C405 H431 0.931 . S
U406 O407 2.454 . S
U406 O408 2.458 . S
U406 C409 2.984 . S
U406 C410 2.847 . S
U406 C423 2.882 . S
U406 O424 2.441 . S
U406 O425 2.420 . S
U406 O426 2.455 . S
U406 O427 2.449 . S
O407 U406 2.454 . S
O407 C409 1.353 . S
O408 U406 2.458 . S
O408 C409 1.286 . S
C409 U406 2.984 . S
C409 O407 1.353 . S
C409 O408 1.286 . S
C409 C411 1.363 . S
C410 C400 1.465 . S
C410 U406 2.847 . S
C410 O424 1.249 . S
C410 O425 1.202 . S
C411 C409 1.363 . S
C411 C413 1.408 . S
C411 C416 1.342 . S
C412 C413 1.310 . S
C412 C415 1.461 . S
C412 H432 0.932 . S
C413 C411 1.408 . S
C413 C412 1.310 . S
C413 H433 0.930 . S
C414 C415 1.474 . S
C414 C416 1.285 . S
C414 H434 0.929 . S
C415 C412 1.461 . S
C415 C414 1.474 . S
C416 C411 1.342 . S
C416 C414 1.285 . S
C416 H435 0.930 . S
C417 C420 1.424 . S
C417 C422 1.245 . S
C417 C423 1.428 . S
C418 C421 1.260 . S
C418 C422 1.477 . S
C418 H436 0.932 . S
C419 C420 1.384 . S
C419 C421 1.479 . S
C419 H437 0.911 1_565 S
C420 C417 1.424 . S
C420 C419 1.384 . S
C420 H438 0.928 . S
C421 C418 1.260 . S
C421 C419 1.479 . S
C422 C417 1.245 . S
C422 C418 1.477 . S
C422 H439 0.932 . S
C423 U406 2.882 . S
C423 C417 1.428 . S
C423 O426 1.301 . S
C423 O427 1.282 . S
O424 U406 2.441 . S
O424 C410 1.249 . S
O425 U406 2.420 . S
O425 C410 1.202 . S
O426 U406 2.455 . S
O426 C423 1.301 . S
O427 U406 2.449 . S
O427 C423 1.282 . S
H428 C401 0.931 . S
H429 C403 0.929 . S
H430 C404 0.930 . S
H431 C405 0.931 . S
H432 C412 0.932 . S
H433 C413 0.930 . S
H434 C414 0.929 . S
H435 C416 0.930 . S
H436 C418 0.932 . S
H437 C419 0.911 1_545 S
H438 C420 0.928 . S
H439 C422 0.932 . S
C440 C441 1.264 . S
C440 C445 1.479 . S
C440 C450 1.465 . S
C441 C440 1.264 . S
C441 C443 1.339 . S
C441 H468 0.931 . S
C442 C443 1.395 . S
C442 C444 1.320 . S
C443 C441 1.339 . S
C443 C442 1.395 . S
C443 H469 0.929 . S
C444 C442 1.320 . S
C444 C445 1.405 . S
C444 H470 0.930 . S
C445 C440 1.479 . S
C445 C444 1.405 . S
C445 H471 0.931 . S
U446 O447 2.454 . S
U446 O448 2.458 . S
U446 C449 2.984 . S
U446 C450 2.847 . S
U446 C463 2.882 . S
U446 O464 2.441 . S
U446 O465 2.420 . S
U446 O466 2.455 . S
U446 O467 2.449 . S
O447 U446 2.454 . S
O447 C449 1.353 . S
O448 U446 2.458 . S
O448 C449 1.286 . S
C449 U446 2.984 . S
C449 O447 1.353 . S
C449 O448 1.286 . S
C449 C451 1.363 . S
C450 C440 1.465 . S
C450 U446 2.847 . S
C450 O464 1.249 . S
C450 O465 1.202 . S
C451 C449 1.363 . S
C451 C453 1.408 . S
C451 C456 1.342 . S
C452 C453 1.310 . S
C452 C455 1.461 . S
C452 H472 0.932 . S
C453 C451 1.408 . S
C453 C452 1.310 . S
C453 H473 0.930 . S
C454 C455 1.474 . S
C454 C456 1.285 . S
C454 H474 0.929 . S
C455 C452 1.461 . S
C455 C454 1.474 . S
C456 C451 1.342 . S
C456 C454 1.285 . S
C456 H475 0.930 . S
C457 C460 1.424 . S
C457 C462 1.245 . S
C457 C463 1.428 . S
C458 C461 1.260 . S
C458 C462 1.477 . S
C458 H476 0.932 . S
C459 C460 1.384 . S
C459 C461 1.479 . S
C459 H477 0.929 . S
C460 C457 1.424 . S
C460 C459 1.384 . S
C460 H478 0.928 . S
C461 C458 1.260 . S
C461 C459 1.479 . S
C462 C457 1.245 . S
C462 C458 1.477 . S
C462 H479 0.932 . S
C463 U446 2.882 . S
C463 C457 1.428 . S
C463 O466 1.301 . S
C463 O467 1.282 . S
O464 U446 2.441 . S
O464 C450 1.249 . S
O465 U446 2.420 . S
O465 C450 1.202 . S
O466 U446 2.455 . S
O466 C463 1.301 . S
O467 U446 2.449 . S
O467 C463 1.282 . S
H468 C441 0.931 . S
H469 C443 0.929 . S
H470 C444 0.930 . S
H471 C445 0.931 . S
H472 C452 0.932 . S
H473 C453 0.930 . S
H474 C454 0.929 . S
H475 C456 0.930 . S
H476 C458 0.932 . S
H477 C459 0.929 . S
H478 C460 0.928 . S
H479 C462 0.932 . S
C480 C481 1.264 . S
C480 C485 1.479 . S
C480 C490 1.465 . S
C481 C480 1.264 . S
C481 C483 1.339 . S
C481 H508 0.931 . S
C482 C483 1.395 . S
C482 C484 1.320 . S
C483 C481 1.339 . S
C483 C482 1.395 . S
C483 H509 0.929 . S
C484 C482 1.320 . S
C484 C485 1.405 . S
C484 H510 0.930 . S
C485 C480 1.479 . S
C485 C484 1.405 . S
C485 H511 0.931 . S
U486 O487 2.454 . S
U486 O488 2.458 . S
U486 C489 2.984 . S
U486 C490 2.847 . S
U486 C503 2.882 . S
U486 O504 2.441 . S
U486 O505 2.420 . S
U486 O506 2.455 . S
U486 O507 2.449 . S
O487 U486 2.454 . S
O487 C489 1.353 . S
O488 U486 2.458 . S
O488 C489 1.286 . S
C489 U486 2.984 . S
C489 O487 1.353 . S
C489 O488 1.286 . S
C489 C491 1.363 . S
C490 C480 1.465 . S
C490 U486 2.847 . S
C490 O504 1.249 . S
C490 O505 1.202 . S
C491 C489 1.363 . S
C491 C493 1.408 . S
C491 C496 1.342 . S
C492 C493 1.310 . S
C492 C495 1.461 . S
C492 H512 0.932 . S
C493 C491 1.408 . S
C493 C492 1.310 . S
C493 H513 0.930 . S
C494 C495 1.474 . S
C494 C496 1.285 . S
C494 H514 0.929 . S
C495 C492 1.461 . S
C495 C494 1.474 . S
C496 C491 1.342 . S
C496 C494 1.285 . S
C496 H515 0.930 . S
C497 C500 1.424 . S
C497 C502 1.245 . S
C497 C503 1.428 . S
C498 C501 1.260 . S
C498 C502 1.477 . S
C498 H516 0.932 . S
C499 C500 1.384 . S
C499 C501 1.479 . S
C499 H517 0.929 . S
C500 C497 1.424 . S
C500 C499 1.384 . S
C500 H518 0.928 . S
C501 C498 1.260 . S
C501 C499 1.479 . S
C502 C497 1.245 . S
C502 C498 1.477 . S
C502 H519 0.932 . S
C503 U486 2.882 . S
C503 C497 1.428 . S
C503 O506 1.301 . S
C503 O507 1.282 . S
O504 U486 2.441 . S
O504 C490 1.249 . S
O505 U486 2.420 . S
O505 C490 1.202 . S
O506 U486 2.455 . S
O506 C503 1.301 . S
O507 U486 2.449 . S
O507 C503 1.282 . S
H508 C481 0.931 . S
H509 C483 0.929 . S
H510 C484 0.930 . S
H511 C485 0.931 . S
H512 C492 0.932 . S
H513 C493 0.930 . S
H514 C494 0.929 . S
H515 C496 0.930 . S
H516 C498 0.932 . S
H517 C499 0.929 . S
H518 C500 0.928 . S
H519 C502 0.932 . S
C520 C521 1.264 . S
C520 C525 1.479 . S
C520 C530 1.465 . S
C521 C520 1.264 . S
C521 C523 1.339 . S
C521 H548 0.931 . S
C522 C523 1.395 . S
C522 C524 1.320 . S
C523 C521 1.339 . S
C523 C522 1.395 . S
C523 H549 0.929 . S
C524 C522 1.320 . S
C524 C525 1.405 . S
C524 H550 0.930 . S
C525 C520 1.479 . S
C525 C524 1.405 . S
C525 H551 0.931 . S
U526 O527 2.454 . S
U526 O528 2.458 . S
U526 C529 2.984 . S
U526 C530 2.847 . S
U526 C543 2.882 . S
U526 O544 2.441 . S
U526 O545 2.420 . S
U526 O546 2.455 . S
U526 O547 2.449 . S
O527 U526 2.454 . S
O527 C529 1.353 . S
O528 U526 2.458 . S
O528 C529 1.286 . S
C529 U526 2.984 . S
C529 O527 1.353 . S
C529 O528 1.286 . S
C529 C531 1.363 . S
C530 C520 1.465 . S
C530 U526 2.847 . S
C530 O544 1.249 . S
C530 O545 1.202 . S
C531 C529 1.363 . S
C531 C533 1.408 . S
C531 C536 1.342 . S
C532 C533 1.310 . S
C532 C535 1.461 . S
C532 H552 0.932 . S
C533 C531 1.408 . S
C533 C532 1.310 . S
C533 H553 0.930 . S
C534 C535 1.474 . S
C534 C536 1.285 . S
C534 H554 0.929 . S
C535 C532 1.461 . S
C535 C534 1.474 . S
C536 C531 1.342 . S
C536 C534 1.285 . S
C536 H555 0.930 . S
C537 C540 1.424 . S
C537 C542 1.245 . S
C537 C543 1.428 . S
C538 C541 1.260 . S
C538 C542 1.477 . S
C538 H556 0.932 . S
C539 C540 1.384 . S
C539 C541 1.479 . S
C539 H557 0.929 . S
C540 C537 1.424 . S
C540 C539 1.384 . S
C540 H558 0.928 . S
C541 C538 1.260 . S
C541 C539 1.479 . S
C542 C537 1.245 . S
C542 C538 1.477 . S
C542 H559 0.932 . S
C543 U526 2.882 . S
C543 C537 1.428 . S
C543 O546 1.301 . S
C543 O547 1.282 . S
O544 U526 2.441 . S
O544 C530 1.249 . S
O545 U526 2.420 . S
O545 C530 1.202 . S
O546 U526 2.455 . S
O546 C543 1.301 . S
O547 U526 2.449 . S
O547 C543 1.282 . S
H548 C521 0.931 . S
H549 C523 0.929 . S
H550 C524 0.930 . S
H551 C525 0.931 . S
H552 C532 0.932 . S
H553 C533 0.930 . S
H554 C534 0.929 . S
H555 C536 0.930 . S
H556 C538 0.932 . S
H557 C539 0.929 . S
H558 C540 0.928 . S
H559 C542 0.932 . S
C560 C561 1.264 . S
C560 C565 1.540 . S
C560 C570 1.465 . S
C561 C560 1.264 . S
C561 C563 1.339 . S
C561 H588 0.931 . S
C562 C563 1.395 . S
C562 C564 1.320 . S
C563 C561 1.339 . S
C563 C562 1.395 . S
C563 H589 0.929 . S
C564 C562 1.320 . S
C564 C565 1.399 . S
C564 H590 0.930 1_455 S
C565 C560 1.540 . S
C565 C564 1.399 . S
C565 H591 0.889 1_455 S
U566 O567 2.454 . S
U566 O568 2.458 . S
U566 C569 2.984 . S
U566 C570 2.847 1_655 S
U566 C583 2.882 1_655 S
U566 O584 2.441 . S
U566 O585 2.420 1_655 S
U566 O586 2.455 1_655 S
U566 O587 2.449 1_655 S
O567 U566 2.454 . S
O567 C569 1.353 . S
O568 U566 2.458 . S
O568 C569 1.286 . S
C569 U566 2.984 . S
C569 O567 1.353 . S
C569 O568 1.286 . S
C569 C571 1.363 . S
C570 C560 1.465 . S
C570 U566 2.847 1_455 S
C570 O584 1.249 1_455 S
C570 O585 1.202 . S
C571 C569 1.363 . S
C571 C573 1.408 . S
C571 C576 1.342 . S
C572 C573 1.310 . S
C572 C575 1.461 . S
C572 H592 0.932 . S
C573 C571 1.408 . S
C573 C572 1.310 . S
C573 H593 0.930 . S
C574 C575 1.474 . S
C574 C576 1.285 . S
C574 H594 0.929 . S
C575 C572 1.461 . S
C575 C574 1.474 . S
C576 C571 1.342 . S
C576 C574 1.285 . S
C576 H595 0.930 . S
C577 C580 1.424 . S
C577 C582 1.245 . S
C577 C583 1.428 . S
C578 C581 1.260 . S
C578 C582 1.477 . S
C578 H596 0.932 . S
C579 C580 1.384 . S
C579 C581 1.479 . S
C579 H597 0.929 . S
C580 C577 1.424 . S
C580 C579 1.384 . S
C580 H598 0.928 . S
C581 C578 1.260 . S
C581 C579 1.479 . S
C582 C577 1.245 . S
C582 C578 1.477 . S
C582 H599 0.932 . S
C583 U566 2.882 1_455 S
C583 C577 1.428 . S
C583 O586 1.301 . S
C583 O587 1.282 . S
O584 U566 2.441 . S
O584 C570 1.249 1_655 S
O585 U566 2.420 1_455 S
O585 C570 1.202 . S
O586 U566 2.455 1_455 S
O586 C583 1.301 . S
O587 U566 2.449 1_455 S
O587 C583 1.282 . S
H588 C561 0.931 . S
H589 C563 0.929 . S
H590 C564 0.930 1_655 S
H591 C565 0.889 1_655 S
H592 C572 0.932 . S
H593 C573 0.930 . S
H594 C574 0.929 . S
H595 C576 0.930 . S
H596 C578 0.932 . S
H597 C579 0.929 . S
H598 C580 0.928 . S
H599 C582 0.932 . S
C600 C601 1.264 . S
C600 C605 1.479 . S
C600 C610 1.465 . S
C601 C600 1.264 . S
C601 C603 1.339 . S
C601 H628 0.931 . S
C602 C603 1.395 . S
C602 C604 1.320 . S
C603 C601 1.339 . S
C603 C602 1.395 . S
C603 H629 0.929 . S
C604 C602 1.320 . S
C604 C605 1.405 . S
C604 H630 0.930 . S
C605 C600 1.479 . S
C605 C604 1.405 . S
C605 H631 0.931 . S
U606 O607 2.454 1_455 S
U606 O608 2.458 1_455 S
U606 C609 2.984 1_455 S
U606 C610 2.847 . S
U606 C623 2.882 . S
U606 O624 2.441 . S
U606 O625 2.420 . S
U606 O626 2.456 . S
U606 O627 2.449 . S
O607 U606 2.454 1_655 S
O607 C609 1.353 . S
O608 U606 2.458 1_655 S
O608 C609 1.286 . S
C609 U606 2.984 1_655 S
C609 O607 1.353 . S
C609 O608 1.286 . S
C609 C611 1.363 . S
C610 C600 1.465 . S
C610 U606 2.847 . S
C610 O624 1.249 . S
C610 O625 1.202 . S
C611 C609 1.363 . S
C611 C613 1.408 . S
C611 C616 1.342 . S
C612 C613 1.310 . S
C612 C615 1.461 . S
C612 H632 0.932 . S
C613 C611 1.408 . S
C613 C612 1.310 . S
C613 H633 0.930 . S
C614 C615 1.474 . S
C614 C616 1.285 . S
C614 H634 0.929 . S
C615 C612 1.461 . S
C615 C614 1.474 . S
C616 C611 1.342 . S
C616 C614 1.285 . S
C616 H635 0.930 . S
C617 C620 1.424 . S
C617 C622 1.245 . S
C617 C623 1.428 . S
C618 C621 1.260 . S
C618 C622 1.477 . S
C618 H636 0.932 . S
C619 C620 1.384 . S
C619 C621 1.479 . S
C619 H637 0.929 . S
C620 C617 1.424 . S
C620 C619 1.384 . S
C620 H638 0.928 . S
C621 C618 1.260 . S
C621 C619 1.479 . S
C622 C617 1.245 . S
C622 C618 1.477 . S
C622 H639 0.932 1_455 S
C623 U606 2.882 . S
C623 C617 1.428 . S
C623 O626 1.290 . S
C623 O627 1.282 . S
O624 U606 2.441 . S
O624 C610 1.249 . S
O625 U606 2.420 . S
O625 C610 1.202 . S
O626 U606 2.456 . S
O626 C623 1.290 . S
O627 U606 2.449 . S
O627 C623 1.282 . S
H628 C601 0.931 . S
H629 C603 0.929 . S
H630 C604 0.930 . S
H631 C605 0.931 . S
H632 C612 0.932 . S
H633 C613 0.930 . S
H634 C614 0.929 . S
H635 C616 0.930 . S
H636 C618 0.932 . S
H637 C619 0.929 . S
H638 C620 0.928 . S
H639 C622 0.932 1_655 S
C640 C641 1.264 . S
C640 C645 1.479 . S
C640 C650 1.465 . S
C641 C640 1.264 . S
C641 C643 1.339 . S
C641 H668 0.931 . S
C642 C643 1.395 . S
C642 C644 1.320 . S
C643 C641 1.339 . S
C643 C642 1.395 . S
C643 H669 0.929 . S
C644 C642 1.320 . S
C644 C645 1.405 . S
C644 H670 0.930 . S
C645 C640 1.479 . S
C645 C644 1.405 . S
C645 H671 0.931 . S
U646 O647 2.454 . S
U646 O648 2.458 . S
U646 C649 2.984 . S
U646 C650 2.847 . S
U646 C663 2.882 . S
U646 O664 2.441 . S
U646 O665 2.420 . S
U646 O666 2.455 . S
U646 O667 2.449 . S
O647 U646 2.454 . S
O647 C649 1.353 . S
O648 U646 2.458 . S
O648 C649 1.286 . S
C649 U646 2.984 . S
C649 O647 1.353 . S
C649 O648 1.286 . S
C649 C651 1.363 . S
C650 C640 1.465 . S
C650 U646 2.847 . S
C650 O664 1.249 . S
C650 O665 1.202 . S
C651 C649 1.363 . S
C651 C653 1.408 . S
C651 C656 1.342 . S
C652 C653 1.310 . S
C652 C655 1.461 . S
C652 H672 0.932 . S
C653 C651 1.408 . S
C653 C652 1.310 . S
C653 H673 0.930 . S
C654 C655 1.474 . S
C654 C656 1.285 . S
C654 H674 0.929 . S
C655 C652 1.461 . S
C655 C654 1.474 . S
C656 C651 1.342 . S
C656 C654 1.285 . S
C656 H675 0.930 . S
C657 C660 1.424 . S
C657 C662 1.245 . S
C657 C663 1.428 . S
C658 C661 1.260 . S
C658 C662 1.477 . S
C658 H676 0.932 . S
C659 C660 1.384 . S
C659 C661 1.479 . S
C659 H677 0.929 . S
C660 C657 1.424 . S
C660 C659 1.384 . S
C660 H678 0.928 . S
C661 C658 1.260 . S
C661 C659 1.479 . S
C662 C657 1.245 . S
C662 C658 1.477 . S
C662 H679 0.932 . S
C663 U646 2.882 . S
C663 C657 1.428 . S
C663 O666 1.301 . S
C663 O667 1.282 . S
O664 U646 2.441 . S
O664 C650 1.249 . S
O665 U646 2.420 . S
O665 C650 1.202 . S
O666 U646 2.455 . S
O666 C663 1.301 . S
O667 U646 2.449 . S
O667 C663 1.282 . S
H668 C641 0.931 . S
H669 C643 0.929 . S
H670 C644 0.930 . S
H671 C645 0.931 . S
H672 C652 0.932 . S
H673 C653 0.930 . S
H674 C654 0.929 . S
H675 C656 0.930 . S
H676 C658 0.932 . S
H677 C659 0.929 . S
H678 C660 0.928 . S
H679 C662 0.932 . S
C680 C681 1.264 . S
C680 C685 1.479 . S
C680 C690 1.465 . S
C681 C680 1.264 . S
C681 C683 1.339 . S
C681 H708 0.931 . S
C682 C683 1.395 . S
C682 C684 1.320 . S
C683 C681 1.339 . S
C683 C682 1.395 . S
C683 H709 0.929 . S
C684 C682 1.320 . S
C684 C685 1.405 . S
C684 H710 0.930 . S
C685 C680 1.479 . S
C685 C684 1.405 . S
C685 H711 0.931 . S
U686 O687 2.454 . S
U686 O688 2.458 . S
U686 C689 2.984 . S
U686 C690 2.847 . S
U686 C703 2.882 . S
U686 O704 2.441 . S
U686 O705 2.420 . S
U686 O706 2.455 . S
U686 O707 2.449 . S
O687 U686 2.454 . S
O687 C689 1.353 . S
O688 U686 2.458 . S
O688 C689 1.286 . S
C689 U686 2.984 . S
C689 O687 1.353 . S
C689 O688 1.286 . S
C689 C691 1.363 . S
C690 C680 1.465 . S
C690 U686 2.847 . S
C690 O704 1.249 . S
C690 O705 1.202 . S
C691 C689 1.363 . S
C691 C693 1.408 . S
C691 C696 1.342 . S
C692 C693 1.310 . S
C692 C695 1.461 . S
C692 H712 0.932 . S
C693 C691 1.408 . S
C693 C692 1.310 . S
C693 H713 0.930 . S
C694 C695 1.474 . S
C694 C696 1.285 . S
C694 H714 0.929 . S
C695 C692 1.461 . S
C695 C694 1.474 . S
C696 C691 1.342 . S
C696 C694 1.285 . S
C696 H715 0.930 . S
C697 C700 1.424 . S
C697 C702 1.245 . S
C697 C703 1.428 . S
C698 C701 1.260 . S
C698 C702 1.477 . S
C698 H716 0.932 . S
C699 C700 1.384 . S
C699 C701 1.479 . S
C699 H717 0.929 . S
C700 C697 1.424 . S
C700 C699 1.384 . S
C700 H718 0.928 . S
C701 C698 1.260 . S
C701 C699 1.479 . S
C702 C697 1.245 . S
C702 C698 1.477 . S
C702 H719 0.932 . S
C703 U686 2.882 . S
C703 C697 1.428 . S
C703 O706 1.301 . S
C703 O707 1.282 . S
O704 U686 2.441 . S
O704 C690 1.249 . S
O705 U686 2.420 . S
O705 C690 1.202 . S
O706 U686 2.455 . S
O706 C703 1.301 . S
O707 U686 2.449 . S
O707 C703 1.282 . S
H708 C681 0.931 . S
H709 C683 0.929 . S
H710 C684 0.930 . S
H711 C685 0.931 . S
H712 C692 0.932 . S
H713 C693 0.930 . S
H714 C694 0.929 . S
H715 C696 0.930 . S
H716 C698 0.932 . S
H717 C699 0.929 . S
H718 C700 0.928 . S
H719 C702 0.932 . S
H720 C728 0.876 1_565 S
H721 C733 0.950 . S
H722 C730 0.950 1_565 S
H723 C732 0.950 . S
H724 C734 0.950 . S
H725 C736 0.950 . S
H726 C738 0.950 1_565 S
H727 C739 0.950 1_565 S
C728 H720 0.876 1_545 S
C728 C729 1.386 . S
C728 C730 1.391 . S
C729 C728 1.386 . S
C729 C733 1.393 . S
C730 H722 0.950 1_545 S
C730 C728 1.391 . S
C730 C731 1.400 . S
C731 C730 1.400 . S
C731 C732 1.398 . S
C731 C737 1.491 . S
C732 H723 0.950 . S
C732 C731 1.398 . S
C732 C733 1.391 . S
C733 H721 0.950 . S
C733 C729 1.393 . S
C733 C732 1.391 . S
C734 H724 0.950 . S
C734 C735 1.386 . S
C734 C736 1.391 . S
C735 C734 1.386 . S
C735 C739 1.393 . S
C736 H725 0.950 . S
C736 C734 1.391 . S
C736 C737 1.400 . S
C737 C731 1.491 . S
C737 C736 1.400 . S
C737 C738 1.398 . S
C738 H726 0.950 1_545 S
C738 C737 1.398 . S
C738 C739 1.391 . S
C739 H727 0.950 1_545 S
C739 C735 1.393 . S
C739 C738 1.391 . S
H740 C748 0.950 . S
H741 C753 0.950 . S
H742 C750 0.950 . S
H743 C752 0.950 . S
H744 C754 0.950 . S
H745 C756 0.950 . S
H746 C758 0.950 . S
H747 C759 0.950 . S
C748 H740 0.950 . S
C748 C749 1.386 1_556 S
C748 C750 1.391 . S
C749 C748 1.386 1_554 S
C749 C753 1.393 . S
C750 H742 0.950 . S
C750 C748 1.391 . S
C750 C751 1.400 1_556 S
C751 C750 1.400 1_554 S
C751 C752 1.398 . S
C751 C757 1.491 . S
C752 H743 0.950 . S
C752 C751 1.398 . S
C752 C753 1.391 . S
C753 H741 0.950 . S
C753 C749 1.393 . S
C753 C752 1.391 . S
C754 H744 0.950 . S
C754 C755 1.386 . S
C754 C756 1.391 . S
C755 C754 1.386 . S
C755 C759 1.393 1_554 S
C756 H745 0.950 . S
C756 C754 1.391 . S
C756 C757 1.400 . S
C757 C751 1.491 . S
C757 C756 1.400 . S
C757 C758 1.398 1_554 S
C758 H746 0.950 . S
C758 C757 1.398 1_556 S
C758 C759 1.391 . S
C759 H747 0.950 . S
C759 C755 1.393 1_556 S
C759 C758 1.391 . S
H760 C768 0.950 . S
H761 C773 0.950 . S
H762 C770 0.950 . S
H763 C772 0.950 . S
H764 C774 0.950 . S
H765 C776 0.950 . S
H766 C778 0.950 . S
H767 C779 0.950 . S
C768 H760 0.950 . S
C768 C769 1.386 . S
C768 C770 1.391 . S
C769 C768 1.386 . S
C769 C773 1.393 1_554 S
C770 H762 0.950 . S
C770 C768 1.391 . S
C770 C771 1.400 . S
C771 C770 1.400 . S
C771 C772 1.398 1_554 S
C771 C777 1.491 . S
C772 H763 0.950 . S
C772 C771 1.398 1_556 S
C772 C773 1.391 . S
C773 H761 0.950 . S
C773 C769 1.393 1_556 S
C773 C772 1.391 . S
C774 H764 0.950 . S
C774 C775 1.386 1_556 S
C774 C776 1.391 . S
C775 C774 1.386 1_554 S
C775 C779 1.393 . S
C776 H765 0.950 . S
C776 C774 1.391 . S
C776 C777 1.400 1_556 S
C777 C771 1.491 . S
C777 C776 1.400 1_554 S
C777 C778 1.398 . S
C778 H766 0.950 . S
C778 C777 1.398 . S
C778 C779 1.391 . S
C779 H767 0.950 . S
C779 C775 1.393 . S
C779 C778 1.391 . S
H780 C788 0.950 . S
H781 C793 0.950 . S
H782 C790 0.950 . S
H783 C792 0.950 . S
H784 C794 0.950 . S
H785 C796 0.950 . S
H786 C798 0.950 . S
H787 C799 0.950 . S
C788 H780 0.950 . S
C788 C789 1.386 . S
C788 C790 1.391 . S
C789 C788 1.386 . S
C789 C793 1.393 . S
C790 H782 0.950 . S
C790 C788 1.391 . S
C790 C791 1.400 . S
C791 C790 1.400 . S
C791 C792 1.398 . S
C791 C797 1.491 . S
C792 H783 0.950 . S
C792 C791 1.398 . S
C792 C793 1.391 . S
C793 H781 0.950 . S
C793 C789 1.393 . S
C793 C792 1.391 . S
C794 H784 0.950 . S
C794 C795 1.386 . S
C794 C796 1.391 . S
C795 C794 1.386 . S
C795 C799 1.393 . S
C796 H785 0.950 . S
C796 C794 1.391 . S
C796 C797 1.400 . S
C797 C791 1.491 . S
C797 C796 1.400 . S
C797 C798 1.398 . S
C798 H786 0.950 . S
C798 C797 1.398 . S
C798 C799 1.391 . S
C799 H787 0.950 . S
C799 C795 1.393 . S
C799 C798 1.391 . S
H800 C808 0.950 . S
H801 C813 0.950 . S
H802 C810 0.950 . S
H803 C812 0.950 . S
H804 C814 0.950 . S
H805 C816 0.950 . S
H806 C818 0.950 . S
H807 C819 0.950 . S
C808 H800 0.950 . S
C808 C809 1.386 . S
C808 C810 1.391 . S
C809 C808 1.386 . S
C809 C813 1.393 . S
C810 H802 0.950 . S
C810 C808 1.391 . S
C810 C811 1.400 . S
C811 C810 1.400 . S
C811 C812 1.398 . S
C811 C817 1.491 . S
C812 H803 0.950 . S
C812 C811 1.398 . S
C812 C813 1.391 . S
C813 H801 0.950 . S
C813 C809 1.393 . S
C813 C812 1.391 . S
C814 H804 0.950 . S
C814 C815 1.386 . S
C814 C816 1.391 . S
C815 C814 1.386 . S
C815 C819 1.393 . S
C816 H805 0.950 . S
C816 C814 1.391 . S
C816 C817 1.400 . S
C817 C811 1.491 . S
C817 C816 1.400 . S
C817 C818 1.398 . S
C818 H806 0.950 . S
C818 C817 1.398 . S
C818 C819 1.391 . S
C819 H807 0.950 . S
C819 C815 1.393 . S
C819 C818 1.391 . S
H820 C828 0.950 . S
H821 C833 0.950 . S
H822 C830 0.950 . S
H823 C832 0.950 . S
H824 C834 0.950 . S
H825 C836 0.950 . S
H826 C838 0.950 . S
H827 C839 0.950 . S
C828 H820 0.950 . S
C828 C829 1.386 . S
C828 C830 1.391 . S
C829 C828 1.386 . S
C829 C833 1.393 . S
C830 H822 0.950 . S
C830 C828 1.391 . S
C830 C831 1.400 . S
C831 C830 1.400 . S
C831 C832 1.398 . S
C831 C837 1.491 . S
C832 H823 0.950 . S
C832 C831 1.398 . S
C832 C833 1.391 . S
C833 H821 0.950 . S
C833 C829 1.393 . S
C833 C832 1.391 . S
C834 H824 0.950 . S
C834 C835 1.386 . S
C834 C836 1.391 . S
C835 C834 1.386 . S
C835 C839 1.393 . S
C836 H825 0.950 . S
C836 C834 1.391 . S
C836 C837 1.400 . S
C837 C831 1.491 . S
C837 C836 1.400 . S
C837 C838 1.398 . S
C838 H826 0.950 . S
C838 C837 1.398 . S
C838 C839 1.391 . S
C839 H827 0.950 . S
C839 C835 1.393 . S
C839 C838 1.391 . S
H840 C848 0.950 . S
H841 C853 0.950 . S
H842 C850 0.950 . S
H843 C852 0.950 . S
H844 C854 0.950 . S
H845 C856 0.950 . S
H846 C858 0.950 . S
H847 C859 0.950 . S
C848 H840 0.950 . S
C848 C849 1.386 . S
C848 C850 1.391 . S
C849 C848 1.386 . S
C849 C853 1.393 . S
C850 H842 0.950 . S
C850 C848 1.391 . S
C850 C851 1.400 . S
C851 C850 1.400 . S
C851 C852 1.398 . S
C851 C857 1.491 . S
C852 H843 0.950 . S
C852 C851 1.398 . S
C852 C853 1.391 . S
C853 H841 0.950 . S
C853 C849 1.393 . S
C853 C852 1.391 . S
C854 H844 0.950 . S
C854 C855 1.386 . S
C854 C856 1.391 . S
C855 C854 1.386 . S
C855 C859 1.393 . S
C856 H845 0.950 . S
C856 C854 1.391 . S
C856 C857 1.400 . S
C857 C851 1.491 . S
C857 C856 1.400 . S
C857 C858 1.398 . S
C858 H846 0.950 . S
C858 C857 1.398 . S
C858 C859 1.391 . S
C859 H847 0.950 . S
C859 C855 1.393 . S
C859 C858 1.391 . S
H860 C868 0.950 . S
H861 C873 0.950 . S
H862 C870 0.950 . S
H863 C872 0.950 . S
H864 C874 0.950 . S
H865 C876 0.950 . S
H866 C878 0.950 . S
H867 C879 0.950 . S
C868 H860 0.950 . S
C868 C869 1.386 . S
C868 C870 1.391 . S
C869 C868 1.386 . S
C869 C873 1.393 . S
C870 H862 0.950 . S
C870 C868 1.391 . S
C870 C871 1.400 . S
C871 C870 1.400 . S
C871 C872 1.398 . S
C871 C877 1.491 . S
C872 H863 0.950 . S
C872 C871 1.398 . S
C872 C873 1.391 . S
C873 H861 0.950 . S
C873 C869 1.393 . S
C873 C872 1.391 . S
C874 H864 0.950 . S
C874 C875 1.386 . S
C874 C876 1.391 . S
C875 C874 1.386 . S
C875 C879 1.393 . S
C876 H865 0.950 . S
C876 C874 1.391 . S
C876 C877 1.400 . S
C877 C871 1.491 . S
C877 C876 1.400 . S
C877 C878 1.398 . S
C878 H866 0.950 . S
C878 C877 1.398 . S
C878 C879 1.391 . S
C879 H867 0.950 . S
C879 C875 1.393 . S
C879 C878 1.391 . S
H880 C888 0.950 . S
H881 C893 0.950 . S
H882 C890 0.950 . S
H883 C892 0.950 . S
H884 C894 0.950 . S
H885 C896 0.950 . S
H886 C898 0.950 . S
H887 C899 0.950 . S
C888 H880 0.950 . S
C888 C889 1.386 . S
C888 C890 1.391 . S
C889 C888 1.386 . S
C889 C893 1.393 . S
C890 H882 0.950 . S
C890 C888 1.391 . S
C890 C891 1.400 . S
C891 C890 1.400 . S
C891 C892 1.398 . S
C891 C897 1.491 . S
C892 H883 0.950 . S
C892 C891 1.398 . S
C892 C893 1.391 . S
C893 H881 0.950 . S
C893 C889 1.393 . S
C893 C892 1.391 . S
C894 H884 0.950 . S
C894 C895 1.386 . S
C894 C896 1.391 . S
C895 C894 1.386 . S
C895 C899 1.393 . S
C896 H885 0.950 . S
C896 C894 1.391 . S
C896 C897 1.400 . S
C897 C891 1.491 . S
C897 C896 1.400 . S
C897 C898 1.398 . S
C898 H886 0.950 . S
C898 C897 1.398 . S
C898 C899 1.391 . S
C899 H887 0.950 . S
C899 C895 1.393 . S
C899 C898 1.391 . S
H900 C908 0.950 . S
H901 C913 0.950 . S
H902 C910 0.950 . S
H903 C912 0.950 . S
H904 C914 0.950 1_545 S
H905 C916 0.950 . S
H906 C918 0.950 . S
H907 C919 0.950 . S
C908 H900 0.950 . S
C908 C909 1.386 . S
C908 C910 1.391 . S
C909 C908 1.386 . S
C909 C913 1.393 . S
C910 H902 0.950 . S
C910 C908 1.391 . S
C910 C911 1.400 . S
C911 C910 1.400 . S
C911 C912 1.398 . S
C911 C917 1.491 . S
C912 H903 0.950 . S
C912 C911 1.398 . S
C912 C913 1.391 . S
C913 H901 0.950 . S
C913 C909 1.393 . S
C913 C912 1.391 . S
C914 H904 0.950 1_565 S
C914 C915 1.386 . S
C914 C916 1.391 . S
C915 C914 1.386 . S
C915 C919 1.393 . S
C916 H905 0.950 . S
C916 C914 1.391 . S
C916 C917 1.400 . S
C917 C911 1.491 . S
C917 C916 1.400 . S
C917 C918 1.398 . S
C918 H906 0.950 . S
C918 C917 1.398 . S
C918 C919 1.391 . S
C919 H907 0.950 . S
C919 C915 1.393 . S
C919 C918 1.391 . S
H920 C928 0.950 . S
H921 C933 0.950 . S
H922 C930 0.950 . S
H923 C932 0.950 . S
H924 C934 0.950 . S
H925 C936 0.950 . S
H926 C938 0.950 . S
H927 C939 0.950 . S
C928 H920 0.950 . S
C928 C929 1.386 . S
C928 C930 1.391 . S
C929 C928 1.386 . S
C929 C933 1.393 . S
C930 H922 0.950 . S
C930 C928 1.391 . S
C930 C931 1.400 . S
C931 C930 1.400 . S
C931 C932 1.398 . S
C931 C937 1.491 . S
C932 H923 0.950 . S
C932 C931 1.398 . S
C932 C933 1.391 . S
C933 H921 0.950 . S
C933 C929 1.393 . S
C933 C932 1.391 . S
C934 H924 0.950 . S
C934 C935 1.386 . S
C934 C936 1.391 . S
C935 C934 1.386 . S
C935 C939 1.393 . S
C936 H925 0.950 . S
C936 C934 1.391 . S
C936 C937 1.400 . S
C937 C931 1.491 . S
C937 C936 1.400 . S
C937 C938 1.398 . S
C938 H926 0.950 . S
C938 C937 1.398 . S
C938 C939 1.391 . S
C939 H927 0.950 . S
C939 C935 1.393 . S
C939 C938 1.391 . S
H940 C948 0.950 . S
H941 C953 0.950 . S
H942 C950 0.950 . S
H943 C952 0.950 . S
H944 C954 0.950 . S
H945 C956 0.950 . S
H946 C958 0.950 . S
H947 C959 0.950 . S
C948 H940 0.950 . S
C948 C949 1.386 . S
C948 C950 1.391 . S
C949 C948 1.386 . S
C949 C953 1.393 . S
C950 H942 0.950 . S
C950 C948 1.391 . S
C950 C951 1.400 . S
C951 C950 1.400 . S
C951 C952 1.398 . S
C951 C957 1.491 . S
C952 H943 0.950 . S
C952 C951 1.398 . S
C952 C953 1.391 . S
C953 H941 0.950 . S
C953 C949 1.393 . S
C953 C952 1.391 . S
C954 H944 0.950 . S
C954 C955 1.386 . S
C954 C956 1.391 . S
C955 C954 1.386 . S
C955 C959 1.393 . S
C956 H945 0.950 . S
C956 C954 1.391 . S
C956 C957 1.400 . S
C957 C951 1.491 . S
C957 C956 1.400 . S
C957 C958 1.398 . S
C958 H946 0.950 . S
C958 C957 1.398 . S
C958 C959 1.391 . S
C959 H947 0.950 . S
C959 C955 1.393 . S
C959 C958 1.391 . S
H960 C968 0.950 . S
H961 C973 0.950 . S
H962 C970 0.950 . S
H963 C972 0.950 . S
H964 C974 0.950 . S
H965 C976 0.950 . S
H966 C978 0.950 . S
H967 C979 0.950 . S
C968 H960 0.950 . S
C968 C969 1.386 . S
C968 C970 1.391 . S
C969 C968 1.386 . S
C969 C973 1.393 . S
C970 H962 0.950 . S
C970 C968 1.391 . S
C970 C971 1.400 . S
C971 C970 1.400 . S
C971 C972 1.398 . S
C971 C977 1.491 . S
C972 H963 0.950 . S
C972 C971 1.398 . S
C972 C973 1.391 . S
C973 H961 0.950 . S
C973 C969 1.393 . S
C973 C972 1.391 . S
C974 H964 0.950 . S
C974 C975 1.386 . S
C974 C976 1.391 . S
C975 C974 1.386 . S
C975 C979 1.393 . S
C976 H965 0.950 . S
C976 C974 1.391 . S
C976 C977 1.400 . S
C977 C971 1.491 . S
C977 C976 1.400 . S
C977 C978 1.398 . S
C978 H966 0.950 . S
C978 C977 1.398 . S
C978 C979 1.391 . S
C979 H967 0.950 . S
C979 C975 1.393 . S
C979 C978 1.391 . S
H980 C988 0.950 . S
H981 C993 0.950 . S
H982 C990 0.950 . S
H983 C992 0.950 . S
H984 C994 0.950 . S
H985 C996 0.950 . S
H986 C998 0.950 . S
H987 C999 0.950 . S
C988 H980 0.950 . S
C988 C989 1.386 . S
C988 C990 1.391 . S
C989 C988 1.386 . S
C989 C993 1.393 . S
C990 H982 0.950 . S
C990 C988 1.391 . S
C990 C991 1.400 . S
C991 C990 1.400 . S
C991 C992 1.398 . S
C991 C997 1.491 . S
C992 H983 0.950 . S
C992 C991 1.398 . S
C992 C993 1.391 . S
C993 H981 0.950 . S
C993 C989 1.393 . S
C993 C992 1.391 . S
C994 H984 0.950 . S
C994 C995 1.386 . S
C994 C996 1.391 . S
C995 C994 1.386 . S
C995 C999 1.393 . S
C996 H985 0.950 . S
C996 C994 1.391 . S
C996 C997 1.400 . S
C997 C991 1.491 . S
C997 C996 1.400 . S
C997 C998 1.398 . S
C998 H986 0.950 . S
C998 C997 1.398 . S
C998 C999 1.391 . S
C999 H987 0.950 . S
C999 C995 1.393 . S
C999 C998 1.391 . S
H1000 C1008 0.950 . S
H1001 C1013 0.950 . S
H1002 C1010 0.950 . S
H1003 C1012 0.950 . S
H1004 C1014 0.950 . S
H1005 C1016 0.950 . S
H1006 C1018 0.950 . S
H1007 C1019 0.950 . S
C1008 H1000 0.950 . S
C1008 C1009 1.386 . S
C1008 C1010 1.391 . S
C1009 C1008 1.386 . S
C1009 C1013 1.393 . S
C1010 H1002 0.950 . S
C1010 C1008 1.391 . S
C1010 C1011 1.400 . S
C1011 C1010 1.400 . S
C1011 C1012 1.398 . S
C1011 C1017 1.491 . S
C1012 H1003 0.950 . S
C1012 C1011 1.398 . S
C1012 C1013 1.391 . S
C1013 H1001 0.950 . S
C1013 C1009 1.393 . S
C1013 C1012 1.391 . S
C1014 H1004 0.950 . S
C1014 C1015 1.386 . S
C1014 C1016 1.391 . S
C1015 C1014 1.386 . S
C1015 C1019 1.393 . S
C1016 H1005 0.950 . S
C1016 C1014 1.391 . S
C1016 C1017 1.400 . S
C1017 C1011 1.491 . S
C1017 C1016 1.400 . S
C1017 C1018 1.398 . S
C1018 H1006 0.950 . S
C1018 C1017 1.398 . S
C1018 C1019 1.391 . S
C1019 H1007 0.950 . S
C1019 C1015 1.393 . S
C1019 C1018 1.391 . S
H1020 C1028 0.950 . S
H1021 C1033 0.950 . S
H1022 C1030 0.950 . S
H1023 C1032 0.950 . S
H1024 C1034 0.950 . S
H1025 C1036 0.950 . S
H1026 C1038 0.950 . S
H1027 C1039 0.950 . S
C1028 H1020 0.950 . S
C1028 C1029 1.386 . S
C1028 C1030 1.391 . S
C1029 C1028 1.386 . S
C1029 C1033 1.393 . S
C1030 H1022 0.950 . S
C1030 C1028 1.391 . S
C1030 C1031 1.400 . S
C1031 C1030 1.400 . S
C1031 C1032 1.398 . S
C1031 C1037 1.491 . S
C1032 H1023 0.950 . S
C1032 C1031 1.398 . S
C1032 C1033 1.391 . S
C1033 H1021 0.950 . S
C1033 C1029 1.393 . S
C1033 C1032 1.391 . S
C1034 H1024 0.950 . S
C1034 C1035 1.386 . S
C1034 C1036 1.391 . S
C1035 C1034 1.386 . S
C1035 C1039 1.393 . S
C1036 H1025 0.950 . S
C1036 C1034 1.391 . S
C1036 C1037 1.400 . S
C1037 C1031 1.491 . S
C1037 C1036 1.400 . S
C1037 C1038 1.398 . S
C1038 H1026 0.950 . S
C1038 C1037 1.398 . S
C1038 C1039 1.391 . S
C1039 H1027 0.950 . S
C1039 C1035 1.393 . S
C1039 C1038 1.391 . S
H1040 C1048 0.950 . S
H1041 C1053 0.950 . S
H1042 C1050 0.950 . S
H1043 C1052 0.950 . S
H1044 C1054 0.950 . S
H1045 C1056 0.950 . S
H1046 C1058 0.950 . S
H1047 C1059 0.950 . S
C1048 H1040 0.950 . S
C1048 C1049 1.386 . S
C1048 C1050 1.391 . S
C1049 C1048 1.386 . S
C1049 C1053 1.393 . S
C1050 H1042 0.950 . S
C1050 C1048 1.391 . S
C1050 C1051 1.400 . S
C1051 C1050 1.400 . S
C1051 C1052 1.398 . S
C1051 C1057 1.491 . S
C1052 H1043 0.950 . S
C1052 C1051 1.398 . S
C1052 C1053 1.391 . S
C1053 H1041 0.950 . S
C1053 C1049 1.393 . S
C1053 C1052 1.391 . S
C1054 H1044 0.950 . S
C1054 C1055 1.386 . S
C1054 C1056 1.391 . S
C1055 C1054 1.386 . S
C1055 C1059 1.393 . S
C1056 H1045 0.950 . S
C1056 C1054 1.391 . S
C1056 C1057 1.400 . S
C1057 C1051 1.491 . S
C1057 C1056 1.400 . S
C1057 C1058 1.398 . S
C1058 H1046 0.950 . S
C1058 C1057 1.398 . S
C1058 C1059 1.391 . S
C1059 H1047 0.950 . S
C1059 C1055 1.393 . S
C1059 C1058 1.391 . S
H1060 C1068 0.950 . S
H1061 C1073 0.950 . S
H1062 C1070 0.950 . S
H1063 C1072 0.950 . S
H1064 C1074 0.950 . S
H1065 C1076 0.950 . S
H1066 C1078 0.950 . S
H1067 C1079 0.950 . S
C1068 H1060 0.950 . S
C1068 C1069 1.386 . S
C1068 C1070 1.391 . S
C1069 C1068 1.386 . S
C1069 C1073 1.393 . S
C1070 H1062 0.950 . S
C1070 C1068 1.391 . S
C1070 C1071 1.400 . S
C1071 C1070 1.400 . S
C1071 C1072 1.398 . S
C1071 C1077 1.491 . S
C1072 H1063 0.950 . S
C1072 C1071 1.398 . S
C1072 C1073 1.391 . S
C1073 H1061 0.950 . S
C1073 C1069 1.393 . S
C1073 C1072 1.391 . S
C1074 H1064 0.950 . S
C1074 C1075 1.386 . S
C1074 C1076 1.391 . S
C1075 C1074 1.386 . S
C1075 C1079 1.393 . S
C1076 H1065 0.950 . S
C1076 C1074 1.391 . S
C1076 C1077 1.400 . S
C1077 C1071 1.491 . S
C1077 C1076 1.400 . S
C1077 C1078 1.398 . S
C1078 H1066 0.950 . S
C1078 C1077 1.398 . S
C1078 C1079 1.391 . S
C1079 H1067 0.950 . S
C1079 C1075 1.393 . S
C1079 C1078 1.391 . S
H1080 C1088 0.950 . S
H1081 C1093 0.950 . S
H1082 C1090 0.950 . S
H1083 C1092 0.950 . S
H1084 C1094 0.950 . S
H1085 C1096 0.950 . S
H1086 C1098 0.950 . S
H1087 C1099 0.950 . S
C1088 H1080 0.950 . S
C1088 C1089 1.386 . S
C1088 C1090 1.391 . S
C1089 C1088 1.386 . S
C1089 C1093 1.393 . S
C1090 H1082 0.950 . S
C1090 C1088 1.391 . S
C1090 C1091 1.400 . S
C1091 C1090 1.400 . S
C1091 C1092 1.398 . S
C1091 C1097 1.491 . S
C1092 H1083 0.950 . S
C1092 C1091 1.398 . S
C1092 C1093 1.391 . S
C1093 H1081 0.950 . S
C1093 C1089 1.393 . S
C1093 C1092 1.391 . S
C1094 H1084 0.950 . S
C1094 C1095 1.386 . S
C1094 C1096 1.391 . S
C1095 C1094 1.386 . S
C1095 C1099 1.393 . S
C1096 H1085 0.950 . S
C1096 C1094 1.391 . S
C1096 C1097 1.400 . S
C1097 C1091 1.491 . S
C1097 C1096 1.400 . S
C1097 C1098 1.398 . S
C1098 H1086 0.950 . S
C1098 C1097 1.398 . S
C1098 C1099 1.391 . S
C1099 H1087 0.950 . S
C1099 C1095 1.393 . S
C1099 C1098 1.391 . S
H1100 C1108 0.950 . S
H1101 C1113 0.950 . S
H1102 C1110 0.950 . S
H1103 C1112 0.950 . S
H1104 C1114 0.950 . S
H1105 C1116 0.950 . S
H1106 C1118 0.950 . S
H1107 C1119 0.950 . S
C1108 H1100 0.950 . S
C1108 C1109 1.386 . S
C1108 C1110 1.391 . S
C1109 C1108 1.386 . S
C1109 C1113 1.393 . S
C1110 H1102 0.950 . S
C1110 C1108 1.391 . S
C1110 C1111 1.400 . S
C1111 C1110 1.400 . S
C1111 C1112 1.398 . S
C1111 C1117 1.491 . S
C1112 H1103 0.950 . S
C1112 C1111 1.398 . S
C1112 C1113 1.391 . S
C1113 H1101 0.950 . S
C1113 C1109 1.393 . S
C1113 C1112 1.391 . S
C1114 H1104 0.950 . S
C1114 C1115 1.386 . S
C1114 C1116 1.391 . S
C1115 C1114 1.386 . S
C1115 C1119 1.393 . S
C1116 H1105 0.950 . S
C1116 C1114 1.391 . S
C1116 C1117 1.400 . S
C1117 C1111 1.491 . S
C1117 C1116 1.400 . S
C1117 C1118 1.398 . S
C1118 H1106 0.950 . S
C1118 C1117 1.398 . S
C1118 C1119 1.391 . S
C1119 H1107 0.950 . S
C1119 C1115 1.393 . S
C1119 C1118 1.391 . S
H1120 C1128 0.950 . S
H1121 C1133 0.950 . S
H1122 C1130 0.950 . S
H1123 C1132 0.950 . S
H1124 C1134 0.950 . S
H1125 C1136 0.950 . S
H1126 C1138 0.950 1_545 S
H1127 C1139 0.950 . S
C1128 H1120 0.950 . S
C1128 C1129 1.386 1_545 S
C1128 C1130 1.391 . S
C1129 C1128 1.386 1_565 S
C1129 C1133 1.393 . S
C1130 H1122 0.950 . S
C1130 C1128 1.391 . S
C1130 C1131 1.400 1_545 S
C1131 C1130 1.400 1_565 S
C1131 C1132 1.398 . S
C1131 C1137 1.491 . S
C1132 H1123 0.950 . S
C1132 C1131 1.398 . S
C1132 C1133 1.391 . S
C1133 H1121 0.950 . S
C1133 C1129 1.393 . S
C1133 C1132 1.391 . S
C1134 H1124 0.950 . S
C1134 C1135 1.386 . S
C1134 C1136 1.391 . S
C1135 C1134 1.386 . S
C1135 C1139 1.393 . S
C1136 H1125 0.950 . S
C1136 C1134 1.391 . S
C1136 C1137 1.400 . S
C1137 C1131 1.491 . S
C1137 C1136 1.400 . S
C1137 C1138 1.398 . S
C1138 H1126 0.950 1_565 S
C1138 C1137 1.398 . S
C1138 C1139 1.391 . S
C1139 H1127 0.950 . S
C1139 C1135 1.393 . S
C1139 C1138 1.391 . S
H1140 C1148 0.950 . S
H1141 C1153 0.950 . S
H1142 C1150 0.950 . S
H1143 C1152 0.950 . S
H1144 C1154 0.950 . S
H1145 C1156 0.950 . S
H1146 C1158 0.950 . S
H1147 C1159 0.950 . S
C1148 H1140 0.950 . S
C1148 C1149 1.386 . S
C1148 C1150 1.391 . S
C1149 C1148 1.386 . S
C1149 C1153 1.393 . S
C1150 H1142 0.950 . S
C1150 C1148 1.391 . S
C1150 C1151 1.400 . S
C1151 C1150 1.400 . S
C1151 C1152 1.398 . S
C1151 C1157 1.491 . S
C1152 H1143 0.950 . S
C1152 C1151 1.398 . S
C1152 C1153 1.391 . S
C1153 H1141 0.950 . S
C1153 C1149 1.393 . S
C1153 C1152 1.391 . S
C1154 H1144 0.950 . S
C1154 C1155 1.386 . S
C1154 C1156 1.391 . S
C1155 C1154 1.386 . S
C1155 C1159 1.393 . S
C1156 H1145 0.950 . S
C1156 C1154 1.391 . S
C1156 C1157 1.400 . S
C1157 C1151 1.491 . S
C1157 C1156 1.400 . S
C1157 C1158 1.398 . S
C1158 H1146 0.950 . S
C1158 C1157 1.398 . S
C1158 C1159 1.391 . S
C1159 H1147 0.950 . S
C1159 C1155 1.393 . S
C1159 C1158 1.391 . S
H1160 C1168 0.950 . S
H1161 C1173 0.950 . S
H1162 C1170 0.950 . S
H1163 C1172 0.950 . S
H1164 C1174 0.950 . S
H1165 C1176 0.950 . S
H1166 C1178 0.950 . S
H1167 C1179 0.950 . S
C1168 H1160 0.950 . S
C1168 C1169 1.386 . S
C1168 C1170 1.391 . S
C1169 C1168 1.386 . S
C1169 C1173 1.393 . S
C1170 H1162 0.950 . S
C1170 C1168 1.391 . S
C1170 C1171 1.400 . S
C1171 C1170 1.400 . S
C1171 C1172 1.398 . S
C1171 C1177 1.491 . S
C1172 H1163 0.950 . S
C1172 C1171 1.398 . S
C1172 C1173 1.391 . S
C1173 H1161 0.950 . S
C1173 C1169 1.393 . S
C1173 C1172 1.391 . S
C1174 H1164 0.950 . S
C1174 C1175 1.386 . S
C1174 C1176 1.391 . S
C1175 C1174 1.386 . S
C1175 C1179 1.393 . S
C1176 H1165 0.950 . S
C1176 C1174 1.391 . S
C1176 C1177 1.400 . S
C1177 C1171 1.491 . S
C1177 C1176 1.400 . S
C1177 C1178 1.398 . S
C1178 H1166 0.950 . S
C1178 C1177 1.398 . S
C1178 C1179 1.391 . S
C1179 H1167 0.950 . S
C1179 C1175 1.393 . S
C1179 C1178 1.391 . S
H1180 C1188 0.950 . S
H1181 C1193 0.950 . S
H1182 C1190 0.947 1_545 S
H1183 C1192 0.950 . S
H1184 C1194 0.950 . S
H1185 C1196 0.950 . S
H1186 C1198 0.950 . S
H1187 C1199 0.950 . S
C1188 H1180 0.950 . S
C1188 C1189 1.386 . S
C1188 C1190 1.394 . S
C1189 C1188 1.386 . S
C1189 C1193 1.393 . S
C1190 H1182 0.947 1_565 S
C1190 C1188 1.394 . S
C1190 C1191 1.400 1_565 S
C1191 C1190 1.400 1_545 S
C1191 C1192 1.398 . S
C1191 C1197 1.491 . S
C1192 H1183 0.950 . S
C1192 C1191 1.398 . S
C1192 C1193 1.391 1_545 S
C1193 H1181 0.950 . S
C1193 C1189 1.393 . S
C1193 C1192 1.391 1_565 S
C1194 H1184 0.950 . S
C1194 C1195 1.386 . S
C1194 C1196 1.391 . S
C1195 C1194 1.386 . S
C1195 C1199 1.393 . S
C1196 H1185 0.950 . S
C1196 C1194 1.391 . S
C1196 C1197 1.400 . S
C1197 C1191 1.491 . S
C1197 C1196 1.400 . S
C1197 C1198 1.398 . S
C1198 H1186 0.950 . S
C1198 C1197 1.398 . S
C1198 C1199 1.391 . S
C1199 H1187 0.950 . S
C1199 C1195 1.393 . S
C1199 C1198 1.391 . S
H1200 C1208 0.870 1_565 S
H1201 C1213 0.950 . S
H1202 C1210 0.950 . S
H1203 C1212 0.950 . S
H1204 C1214 0.950 . S
H1205 C1216 0.950 . S
H1206 C1218 0.950 . S
H1207 C1219 0.950 . S
C1208 H1200 0.870 1_545 S
C1208 C1209 1.451 1_545 S
C1208 C1210 1.448 . S
C1209 C1208 1.451 1_565 S
C1209 C1213 1.317 1_565 S
C1210 H1202 0.950 . S
C1210 C1208 1.448 . S
C1210 C1211 1.400 . S
C1211 C1210 1.400 . S
C1211 C1212 1.398 . S
C1211 C1217 1.491 . S
C1212 H1203 0.950 . S
C1212 C1211 1.398 . S
C1212 C1213 1.391 . S
C1213 H1201 0.950 . S
C1213 C1209 1.317 1_545 S
C1213 C1212 1.391 . S
C1214 H1204 0.950 . S
C1214 C1215 1.386 . S
C1214 C1216 1.391 . S
C1215 C1214 1.386 . S
C1215 C1219 1.393 . S
C1216 H1205 0.950 . S
C1216 C1214 1.391 . S
C1216 C1217 1.400 . S
C1217 C1211 1.491 . S
C1217 C1216 1.400 . S
C1217 C1218 1.398 . S
C1218 H1206 0.950 . S
C1218 C1217 1.398 . S
C1218 C1219 1.391 . S
C1219 H1207 0.950 . S
C1219 C1215 1.393 . S
C1219 C1218 1.391 . S
H1220 C1228 0.950 . S
H1221 C1233 0.950 . S
H1222 C1230 0.950 . S
H1223 C1232 0.950 . S
H1224 C1234 0.950 . S
H1225 C1236 0.950 . S
H1226 C1238 0.950 . S
H1227 C1239 0.950 . S
C1228 H1220 0.950 . S
C1228 C1229 1.386 . S
C1228 C1230 1.391 . S
C1229 C1228 1.386 . S
C1229 C1233 1.393 . S
C1230 H1222 0.950 . S
C1230 C1228 1.391 . S
C1230 C1231 1.400 . S
C1231 C1230 1.400 . S
C1231 C1232 1.398 . S
C1231 C1237 1.491 . S
C1232 H1223 0.950 . S
C1232 C1231 1.398 . S
C1232 C1233 1.391 . S
C1233 H1221 0.950 . S
C1233 C1229 1.393 . S
C1233 C1232 1.391 . S
C1234 H1224 0.950 . S
C1234 C1235 1.386 . S
C1234 C1236 1.391 . S
C1235 C1234 1.386 . S
C1235 C1239 1.393 . S
C1236 H1225 0.950 . S
C1236 C1234 1.391 . S
C1236 C1237 1.400 . S
C1237 C1231 1.491 . S
C1237 C1236 1.400 . S
C1237 C1238 1.398 . S
C1238 H1226 0.950 . S
C1238 C1237 1.398 . S
C1238 C1239 1.391 . S
C1239 H1227 0.950 . S
C1239 C1235 1.393 . S
C1239 C1238 1.391 . S
H1240 C1248 0.950 . S
H1241 C1253 0.950 . S
H1242 C1250 0.950 . S
H1243 C1252 0.950 . S
H1244 C1254 0.950 . S
H1245 C1256 0.950 . S
H1246 C1258 0.950 . S
H1247 C1259 0.950 . S
C1248 H1240 0.950 . S
C1248 C1249 1.386 . S
C1248 C1250 1.391 . S
C1249 C1248 1.386 . S
C1249 C1253 1.393 . S
C1250 H1242 0.950 . S
C1250 C1248 1.391 . S
C1250 C1251 1.400 . S
C1251 C1250 1.400 . S
C1251 C1252 1.398 . S
C1251 C1257 1.491 . S
C1252 H1243 0.950 . S
C1252 C1251 1.398 . S
C1252 C1253 1.391 . S
C1253 H1241 0.950 . S
C1253 C1249 1.393 . S
C1253 C1252 1.391 . S
C1254 H1244 0.950 . S
C1254 C1255 1.386 . S
C1254 C1256 1.391 . S
C1255 C1254 1.386 . S
C1255 C1259 1.393 . S
C1256 H1245 0.950 . S
C1256 C1254 1.391 . S
C1256 C1257 1.400 . S
C1257 C1251 1.491 . S
C1257 C1256 1.400 . S
C1257 C1258 1.398 . S
C1258 H1246 0.950 . S
C1258 C1257 1.398 . S
C1258 C1259 1.391 . S
C1259 H1247 0.950 . S
C1259 C1255 1.393 . S
C1259 C1258 1.391 . S
C729 C135 1.497 . S
C735 C15 1.497 . S
C749 C55 1.505 . S
C755 C175 1.505 . S
C769 C215 1.498 . S
C775 C95 1.498 . S
C789 C375 1.508 . S
C795 C255 1.508 . S
C809 C415 1.507 . S
C815 C295 1.508 . S
C829 C335 1.501 . S
C835 C455 1.500 . S
C849 C615 1.515 . S
C855 C495 1.502 . S
C869 C655 1.510 . S
C875 C535 1.509 . S
C889 C575 1.508 . S
C895 C695 1.507 . S
C909 C341 1.497 . S
C915 C2 1.484 . S
C929 C242 1.494 . S
C935 C61 1.495 . S
C949 C282 1.504 . S
C955 C82 1.503 . S
C969 C42 1.490 . S
C975 C562 1.499 . S
C989 C482 1.475 . S
C995 C101 1.487 . S
C1009 C21 1.482 . S
C1015 C541 1.485 . S
C1029 C682 1.485 . S
C1035 C122 1.498 . S
C1049 C621 1.506 . S
C1055 C162 1.502 . S
C1069 C221 1.473 . S
C1075 C661 1.482 . S
C1089 C442 1.487 . S
C1095 C181 1.485 . S
C1109 C362 1.504 . S
C1115 C202 1.501 . S
C1129 C141 1.501 1_565 S
C1135 C402 1.498 . S
C1149 C261 1.482 . S
C1155 C581 1.490 . S
C1169 C501 1.486 . S
C1175 C301 1.490 . S
C1189 C322 1.494 . S
C1195 C522 1.487 . S
C1209 C421 1.531 . S
C1215 C701 1.486 . S
C1229 C461 1.500 . S
C1235 C602 1.510 . S
C1249 C381 1.495 . S
C1255 C642 1.491 . S
