# Generated by pormake.
# Topology wjh, (4)-cn, num edge types: 1
# Building blocks:
#     Node 0, Type 0, BuildingBlock: QUQFOY_clean_sbu_1, # of connection points: 4
#     Node 1, Type 0, BuildingBlock: QUQFOY_clean_sbu_1, # of connection points: 4
#     Node 2, Type 0, BuildingBlock: QUQFOY_clean_sbu_1, # of connection points: 4
#     Node 3, Type 0, BuildingBlock: QUQFOY_clean_sbu_1, # of connection points: 4
#     Node 4, Type 0, BuildingBlock: QUQFOY_clean_sbu_1, # of connection points: 4
#     Node 5, Type 0, BuildingBlock: QUQFOY_clean_sbu_1, # of connection points: 4
#     Node 6, Type 0, BuildingBlock: QUQFOY_clean_sbu_1, # of connection points: 4
#     Node 7, Type 0, BuildingBlock: QUQFOY_clean_sbu_1, # of connection points: 4
#     Node 8, Type 0, BuildingBlock: QUQFOY_clean_sbu_1, # of connection points: 4
#     Node 9, Type 0, BuildingBlock: QUQFOY_clean_sbu_1, # of connection points: 4
#     Node 10, Type 0, BuildingBlock: QUQFOY_clean_sbu_1, # of connection points: 4
#     Node 11, Type 0, BuildingBlock: QUQFOY_clean_sbu_1, # of connection points: 4
#     Edge 12, Type (0, 0), BuildingBlock: TEMPAE_clean_linker_10, # of connection points: 2
#     Edge 13, Type (0, 0), BuildingBlock: TEMPAE_clean_linker_10, # of connection points: 2
#     Edge 14, Type (0, 0), BuildingBlock: TEMPAE_clean_linker_10, # of connection points: 2
#     Edge 15, Type (0, 0), BuildingBlock: TEMPAE_clean_linker_10, # of connection points: 2
#     Edge 16, Type (0, 0), BuildingBlock: TEMPAE_clean_linker_10, # of connection points: 2
#     Edge 17, Type (0, 0), BuildingBlock: TEMPAE_clean_linker_10, # of connection points: 2
#     Edge 18, Type (0, 0), BuildingBlock: TEMPAE_clean_linker_10, # of connection points: 2
#     Edge 19, Type (0, 0), BuildingBlock: TEMPAE_clean_linker_10, # of connection points: 2
#     Edge 20, Type (0, 0), BuildingBlock: TEMPAE_clean_linker_10, # of connection points: 2
#     Edge 21, Type (0, 0), BuildingBlock: TEMPAE_clean_linker_10, # of connection points: 2
#     Edge 22, Type (0, 0), BuildingBlock: TEMPAE_clean_linker_10, # of connection points: 2
#     Edge 23, Type (0, 0), BuildingBlock: TEMPAE_clean_linker_10, # of connection points: 2
#     Edge 24, Type (0, 0), BuildingBlock: TEMPAE_clean_linker_10, # of connection points: 2
#     Edge 25, Type (0, 0), BuildingBlock: TEMPAE_clean_linker_10, # of connection points: 2
#     Edge 26, Type (0, 0), BuildingBlock: TEMPAE_clean_linker_10, # of connection points: 2
#     Edge 27, Type (0, 0), BuildingBlock: TEMPAE_clean_linker_10, # of connection points: 2
#     Edge 28, Type (0, 0), BuildingBlock: TEMPAE_clean_linker_10, # of connection points: 2
#     Edge 29, Type (0, 0), BuildingBlock: TEMPAE_clean_linker_10, # of connection points: 2
#     Edge 30, Type (0, 0), BuildingBlock: TEMPAE_clean_linker_10, # of connection points: 2
#     Edge 31, Type (0, 0), BuildingBlock: TEMPAE_clean_linker_10, # of connection points: 2
#     Edge 32, Type (0, 0), BuildingBlock: TEMPAE_clean_linker_10, # of connection points: 2
#     Edge 33, Type (0, 0), BuildingBlock: TEMPAE_clean_linker_10, # of connection points: 2
#     Edge 34, Type (0, 0), BuildingBlock: TEMPAE_clean_linker_10, # of connection points: 2
#     Edge 35, Type (0, 0), BuildingBlock: TEMPAE_clean_linker_10, # of connection points: 2
# Relax obj value: 0.024
# Max RMSD: 0.076
# Mean RMSD: 0.076
data_MOF--net-wjh--node1-QUQFOY_clean_sbu_1--edge1-TEMPAE_clean_linker_10
_symmetry_space_group_name_H-M    P1
_symmetry_Int_Tables_number       1
_symmetry_cell_setting            triclinic
loop_
_symmetry_equiv_pos_as_xyz
'x, y, z'
_cell_length_a     64.112758
_cell_length_b     64.098361
_cell_length_c     28.651565
_cell_angle_alpha  89.931439
_cell_angle_beta   90.046531
_cell_angle_gamma 119.97652
loop_
_atom_site_label
_atom_site_type_symbol
_atom_site_fract_x
_atom_site_fract_y
_atom_site_fract_z
_atom_type_partial_charge
O0 O 0.50455 0.09632 0.07813 0.0
Cd1 Cd 0.53203 0.13138 0.07248 0.0
Cd2 Cd 0.49658 0.13844 0.10975 0.0
O3 O 0.47435 0.1031 0.08913 0.0
O4 O 0.55479 0.13002 0.02685 0.0
O5 O 0.53567 0.15012 0.01346 0.0
C6 C 0.54999 0.1428 0.99877 0.0
C7 C 0.48359 0.16652 0.10822 0.0
C8 C 0.48214 0.08864 0.08207 0.0
C9 C 0.54009 0.14857 0.16914 0.0
O10 O 0.51871 0.14479 0.16656 0.0
O11 O 0.55045 0.14614 0.13347 0.0
O12 O 0.47416 0.14832 0.13607 0.0
O13 O 0.49924 0.16778 0.07828 0.0
O14 O 0.40848 0.50874 0.23765 0.0
Cd15 Cd 0.39692 0.53365 0.23405 0.0
Cd16 Cd 0.35864 0.4955 0.26577 0.0
O17 O 0.37266 0.47618 0.23523 0.0
O18 O 0.42018 0.55897 0.19057 0.0
O19 O 0.38145 0.53612 0.17447 0.0
C20 C 0.40271 0.55249 0.16129 0.0
C21 C 0.3182 0.4844 0.26328 0.0
C22 C 0.39542 0.48604 0.23341 0.0
C23 C 0.38771 0.53553 0.33248 0.0
O24 O 0.37462 0.51293 0.327 0.0
O25 O 0.39635 0.54919 0.29706 0.0
O26 O 0.32549 0.47198 0.28644 0.0
O27 O 0.3338 0.50219 0.2383 0.0
O28 O 0.90173 0.39927 0.38238 0.0
Cd29 Cd 0.86811 0.39597 0.3862 0.0
Cd30 Cd 0.85983 0.35371 0.43415 0.0
O31 O 0.89475 0.36493 0.41403 0.0
O32 O 0.87044 0.42069 0.34068 0.0
O33 O 0.84573 0.38174 0.3308 0.0
C34 C 0.85488 0.40345 0.3149 0.0
C35 C 0.83081 0.31297 0.43636 0.0
C36 C 0.90899 0.38488 0.39449 0.0
C37 C 0.85431 0.3917 0.48717 0.0
O38 O 0.85477 0.37215 0.48716 0.0
O39 O 0.8584 0.40405 0.44999 0.0
O40 O 0.84894 0.32197 0.46435 0.0
O41 O 0.82996 0.32689 0.40466 0.0
O42 O 0.49342 0.89996 0.5368 0.0
Cd43 Cd 0.46376 0.8654 0.53898 0.0
Cd44 Cd 0.49813 0.86021 0.5885 0.0
O45 O 0.52214 0.89337 0.56203 0.0
O46 O 0.44149 0.8677 0.49304 0.0
O47 O 0.45664 0.84381 0.48251 0.0
C48 C 0.44385 0.85273 0.46672 0.0
C49 C 0.50772 0.82976 0.59672 0.0
C50 C 0.51555 0.90751 0.54531 0.0
C51 C 0.4554 0.8559 0.64073 0.0
O52 O 0.47701 0.86032 0.64187 0.0
O53 O 0.44498 0.85417 0.60191 0.0
O54 O 0.5183 0.84919 0.62114 0.0
O55 O 0.49255 0.8282 0.56524 0.0
O56 O 0.59162 0.49661 0.70559 0.0
Cd57 Cd 0.59766 0.46761 0.70528 0.0
Cd58 Cd 0.63732 0.50184 0.75306 0.0
O59 O 0.62689 0.52552 0.73051 0.0
O60 O 0.57363 0.44534 0.65866 0.0
O61 O 0.61285 0.46188 0.64834 0.0
C62 C 0.59129 0.44858 0.63233 0.0
C63 C 0.67766 0.51213 0.75695 0.0
C64 C 0.60586 0.51869 0.71518 0.0
C65 C 0.6005 0.45849 0.80608 0.0
O66 O 0.61757 0.48015 0.80709 0.0
O67 O 0.59113 0.44835 0.76743 0.0
O68 O 0.66911 0.52234 0.78326 0.0
O69 O 0.66354 0.49698 0.72601 0.0
O70 O 0.0927 0.59566 0.87896 0.0
Cd71 Cd 0.12621 0.59866 0.88198 0.0
Cd72 Cd 0.13501 0.6409 0.93101 0.0
O73 O 0.09999 0.62983 0.91175 0.0
O74 O 0.12362 0.57417 0.83574 0.0
O75 O 0.1486 0.61313 0.82668 0.0
C76 C 0.13931 0.59151 0.81031 0.0
C77 C 0.16381 0.6817 0.93529 0.0
C78 C 0.08559 0.61004 0.8919 0.0
C79 C 0.14051 0.60233 0.98241 0.0
O80 O 0.14036 0.62204 0.98286 0.0
O81 O 0.13595 0.59001 0.94515 0.0
O82 O 0.14574 0.67205 0.96337 0.0
O83 O 0.16469 0.66845 0.90227 0.0
O84 O 0.90006 0.49799 0.90876 0.0
Cd85 Cd 0.86702 0.46689 0.90616 0.0
Cd86 Cd 0.85715 0.49953 0.85516 0.0
O87 O 0.89206 0.52403 0.87415 0.0
O88 O 0.87059 0.44565 0.95274 0.0
O89 O 0.84464 0.45844 0.96167 0.0
C90 C 0.85461 0.44676 0.9782 0.0
C91 C 0.82817 0.51128 0.84917 0.0
C92 C 0.90673 0.51925 0.89482 0.0
C93 C 0.85277 0.45544 0.80571 0.0
O94 O 0.85221 0.47494 0.8045 0.0
O95 O 0.85775 0.44825 0.8433 0.0
O96 O 0.84627 0.51949 0.82123 0.0
O97 O 0.82727 0.49743 0.88285 0.0
O98 O 0.40472 0.90027 0.05468 0.0
Cd99 Cd 0.39461 0.86412 0.05649 0.0
Cd100 Cd 0.35574 0.86271 0.0229 0.0
O101 O 0.36822 0.89545 0.05522 0.0
O102 O 0.4182 0.86275 0.10019 0.0
O103 O 0.37923 0.84515 0.11525 0.0
C104 C 0.40066 0.85083 0.12886 0.0
C105 C 0.31549 0.8327 0.02293 0.0
C106 C 0.39085 0.909 0.05873 0.0
C107 C 0.38693 0.85403 0.95725 0.0
O108 O 0.37297 0.86258 0.96233 0.0
O109 O 0.39558 0.84921 0.99294 0.0
O110 O 0.32273 0.85257 1.00043 0.0
O111 O 0.33098 0.83059 0.04845 0.0
O112 O 0.50865 0.40911 0.21732 0.0
Cd113 Cd 0.53389 0.39801 0.22116 0.0
Cd114 Cd 0.49586 0.35936 0.18886 0.0
O115 O 0.47626 0.37312 0.21928 0.0
O116 O 0.55892 0.42163 0.2646 0.0
O117 O 0.53665 0.38286 0.281 0.0
C118 C 0.5527 0.40428 0.29408 0.0
C119 C 0.48446 0.31878 0.18995 0.0
C120 C 0.48596 0.39587 0.22127 0.0
C121 C 0.53614 0.38923 0.1227 0.0
O122 O 0.51359 0.37576 0.12809 0.0
O123 O 0.54973 0.39796 0.15819 0.0
O124 O 0.47237 0.32644 0.16681 0.0
O125 O 0.50208 0.33403 0.21568 0.0
O126 O 0.09468 0.49765 0.40572 0.0
Cd127 Cd 0.12786 0.52854 0.40233 0.0
Cd128 Cd 0.13733 0.4954 0.35325 0.0
O129 O 0.10246 0.47114 0.37274 0.0
O130 O 0.12468 0.55025 0.44815 0.0
O131 O 0.15029 0.53708 0.45775 0.0
C132 C 0.14056 0.54905 0.47382 0.0
C133 C 0.16632 0.48363 0.34871 0.0
C134 C 0.08789 0.47622 0.3928 0.0
C135 C 0.14193 0.53909 0.30171 0.0
O136 O 0.14224 0.51946 0.30138 0.0
O137 O 0.13719 0.54672 0.33893 0.0
O138 O 0.14822 0.47515 0.32069 0.0
O139 O 0.16718 0.49776 0.3817 0.0
O140 O 0.59142 0.0938 0.58343 0.0
Cd141 Cd 0.59505 0.12758 0.58635 0.0
Cd142 Cd 0.63704 0.13786 0.53317 0.0
O143 O 0.62441 0.1017 0.54486 0.0
O144 O 0.57096 0.12383 0.63457 0.0
O145 O 0.61002 0.14853 0.64321 0.0
C146 C 0.58852 0.13902 0.66022 0.0
C147 C 0.67838 0.16467 0.52783 0.0
C148 C 0.60499 0.08683 0.56531 0.0
C149 C 0.59871 0.14658 0.4895 0.0
O150 O 0.6186 0.14689 0.48657 0.0
O151 O 0.58613 0.13955 0.52652 0.0
O152 O 0.66721 0.14792 0.49748 0.0
O153 O 0.6663 0.16533 0.56329 0.0
O154 O 0.49397 0.59413 0.74933 0.0
Cd155 Cd 0.46457 0.59949 0.74978 0.0
Cd156 Cd 0.49849 0.63944 0.70113 0.0
O157 O 0.52252 0.62941 0.72353 0.0
O158 O 0.4427 0.57512 0.79639 0.0
O159 O 0.45841 0.61424 0.80692 0.0
C160 C 0.44556 0.59259 0.82288 0.0
C161 C 0.50859 0.67973 0.69531 0.0
C162 C 0.51595 0.60851 0.7393 0.0
C163 C 0.45514 0.60174 0.64901 0.0
O164 O 0.47663 0.61915 0.64782 0.0
O165 O 0.44514 0.59234 0.68776 0.0
O166 O 0.51861 0.67087 0.6693 0.0
O167 O 0.49379 0.666 0.7271 0.0
C168 C 0.54719 0.16698 0.2482 0.0
C169 C 0.55183 0.15367 0.2152 0.0
C170 C 0.55562 0.16937 0.29418 0.0
C171 C 0.56817 0.1574 0.30771 0.0
C172 C 0.57343 0.14447 0.27411 0.0
C173 C 0.56551 0.1431 0.22798 0.0
C174 C 0.55049 0.18409 0.32853 0.0
C175 C 0.58636 0.13105 0.28739 0.0
C176 C 0.6055 0.17086 0.41766 0.0
C177 C 0.58951 0.15232 0.44724 0.0
C178 C 0.59826 0.17382 0.37314 0.0
C179 C 0.57477 0.15725 0.35737 0.0
C180 C 0.55823 0.13914 0.38798 0.0
C181 C 0.56573 0.13714 0.43298 0.0
C182 C 0.61611 0.19391 0.34222 0.0
C183 C 0.53318 0.12081 0.37212 0.0
H184 H 0.53667 0.17526 0.23814 0.0
H185 H 0.56885 0.13259 0.20254 0.0
H186 H 0.53729 0.17203 0.35487 0.0
H187 H 0.56717 0.19678 0.34751 0.0
H188 H 0.5431 0.19452 0.31119 0.0
H189 H 0.58926 0.12205 0.25699 0.0
H190 H 0.6041 0.14358 0.30314 0.0
H191 H 0.57573 0.11718 0.31405 0.0
H192 H 0.62391 0.18263 0.42889 0.0
H193 H 0.5535 0.12262 0.45574 0.0
H194 H 0.60756 0.20334 0.32525 0.0
H195 H 0.62222 0.18632 0.31411 0.0
H196 H 0.63217 0.20729 0.36198 0.0
H197 H 0.52379 0.12993 0.35756 0.0
H198 H 0.52212 0.10874 0.40093 0.0
H199 H 0.53436 0.10962 0.34386 0.0
C200 C 0.40161 0.56945 0.38995 0.0
C201 C 0.39411 0.54528 0.38037 0.0
C202 C 0.40878 0.57879 0.43522 0.0
C203 C 0.40912 0.56375 0.47117 0.0
C204 C 0.40102 0.53921 0.46181 0.0
C205 C 0.39333 0.53022 0.41672 0.0
C206 C 0.41673 0.60491 0.44421 0.0
C207 C 0.40177 0.52273 0.49871 0.0
C208 C 0.4565 0.593 0.56521 0.0
C209 C 0.44275 0.59185 0.60418 0.0
C210 C 0.44572 0.584 0.52185 0.0
C211 C 0.42058 0.57416 0.51688 0.0
C212 C 0.40657 0.5733 0.55589 0.0
C213 C 0.41781 0.58184 0.59946 0.0
C214 C 0.46125 0.58462 0.48159 0.0
C215 C 0.3798 0.56347 0.55149 0.0
H216 H 0.40198 0.58107 0.36205 0.0
H217 H 0.38764 0.51153 0.4095 0.0
H218 H 0.40806 0.60669 0.47631 0.0
H219 H 0.43648 0.61517 0.44991 0.0
H220 H 0.41232 0.61324 0.41459 0.0
H221 H 0.3934 0.50376 0.48662 0.0
H222 H 0.42076 0.52899 0.50841 0.0
H223 H 0.39235 0.52324 0.53074 0.0
H224 H 0.47579 0.60055 0.56887 0.0
H225 H 0.40721 0.58115 0.62949 0.0
H226 H 0.45995 0.59523 0.45228 0.0
H227 H 0.45475 0.56608 0.46855 0.0
H228 H 0.4805 0.59263 0.49154 0.0
H229 H 0.37614 0.57305 0.52321 0.0
H230 H 0.37172 0.56529 0.58442 0.0
H231 H 0.37071 0.54415 0.54177 0.0
C232 C 0.83292 0.44206 0.72829 0.0
C233 C 0.84906 0.44222 0.76156 0.0
C234 C 0.8314 0.43256 0.68354 0.0
C235 C 0.84696 0.42373 0.67134 0.0
C236 C 0.86286 0.42328 0.70525 0.0
C237 C 0.86346 0.43223 0.75028 0.0
C238 C 0.81364 0.4326 0.64896 0.0
C239 C 0.88003 0.41441 0.6933 0.0
C240 C 0.83513 0.38376 0.56555 0.0
C241 C 0.85027 0.40041 0.53203 0.0
C242 C 0.83316 0.39122 0.61052 0.0
C243 C 0.84726 0.41582 0.62267 0.0
C244 C 0.8622 0.43279 0.5886 0.0
C245 C 0.86325 0.4249 0.54338 0.0
C246 C 0.81641 0.37269 0.6453 0.0
C247 C 0.87784 0.45913 0.60048 0.0
H248 H 0.82171 0.44972 0.73712 0.0
H249 H 0.87614 0.43264 0.77584 0.0
H250 H 0.82345 0.44534 0.62015 0.0
H251 H 0.80273 0.41447 0.63323 0.0
H252 H 0.80129 0.43793 0.6653 0.0
H253 H 0.89088 0.41477 0.72386 0.0
H254 H 0.86996 0.39572 0.67975 0.0
H255 H 0.89247 0.42582 0.66529 0.0
H256 H 0.82499 0.36479 0.55667 0.0
H257 H 0.87516 0.43773 0.51762 0.0
H258 H 0.80434 0.37853 0.66102 0.0
H259 H 0.82701 0.37095 0.67409 0.0
H260 H 0.80519 0.35469 0.62914 0.0
H261 H 0.86661 0.4665 0.61387 0.0
H262 H 0.88825 0.47003 0.56992 0.0
H263 H 0.89066 0.4612 0.62859 0.0
C264 C 0.41835 0.83843 0.69099 0.0
C265 C 0.44317 0.85389 0.68555 0.0
C266 C 0.40727 0.83595 0.73465 0.0
C267 C 0.42127 0.84984 0.77305 0.0
C268 C 0.44626 0.86575 0.76731 0.0
C269 C 0.45692 0.86732 0.72387 0.0
C270 C 0.38068 0.81839 0.73985 0.0
C271 C 0.46175 0.88142 0.80688 0.0
C272 C 0.39278 0.86525 0.87308 0.0
C273 C 0.39408 0.85131 0.90955 0.0
C274 C 0.40086 0.86436 0.82811 0.0
C275 C 0.40993 0.84868 0.81898 0.0
C276 C 0.41029 0.83374 0.85512 0.0
C277 C 0.40268 0.83548 0.90024 0.0
C278 C 0.4008 0.8811 0.791 0.0
C279 C 0.41932 0.81639 0.84641 0.0
H280 H 0.40775 0.82788 0.66148 0.0
H281 H 0.4761 0.87945 0.71965 0.0
H282 H 0.37768 0.8054 0.76827 0.0
H283 H 0.37112 0.82812 0.7498 0.0
H284 H 0.37255 0.8082 0.70719 0.0
H285 H 0.48083 0.89316 0.79633 0.0
H286 H 0.45465 0.893 0.81967 0.0
H287 H 0.46119 0.87003 0.83656 0.0
H288 H 0.38626 0.87762 0.88009 0.0
H289 H 0.40348 0.8245 0.92821 0.0
H290 H 0.39139 0.87082 0.75923 0.0
H291 H 0.4196 0.89421 0.78085 0.0
H292 H 0.39195 0.89125 0.80305 0.0
H293 H 0.41066 0.80545 0.81479 0.0
H294 H 0.41576 0.80407 0.87643 0.0
H295 H 0.439 0.82657 0.83994 0.0
C296 C 0.53053 0.39464 0.03851 0.0
C297 C 0.54586 0.39601 0.07483 0.0
C298 C 0.53937 0.4027 0.99347 0.0
C299 C 0.56409 0.41181 0.98411 0.0
C300 C 0.57947 0.41212 0.02 0.0
C301 C 0.57024 0.40453 0.06523 0.0
C302 C 0.52249 0.4027 0.95664 0.0
C303 C 0.60582 0.42117 0.01098 0.0
C304 C 0.58199 0.42116 0.85572 0.0
C305 C 0.59102 0.44597 0.85097 0.0
C306 C 0.5739 0.4098 0.89934 0.0
C307 C 0.57418 0.42352 0.93838 0.0
C308 C 0.58303 0.44851 0.93338 0.0
C309 C 0.59163 0.45945 0.88996 0.0
C310 C 0.56516 0.38323 0.90375 0.0
C311 C 0.58296 0.46368 0.97368 0.0
H312 H 0.51167 0.38817 0.04571 0.0
H313 H 0.58209 0.40539 0.09308 0.0
H314 H 0.52802 0.42154 0.94697 0.0
H315 H 0.52343 0.39355 0.92458 0.0
H316 H 0.5035 0.39366 0.96876 0.0
H317 H 0.61455 0.41725 0.04057 0.0
H318 H 0.60808 0.41284 0.97885 0.0
H319 H 0.61535 0.44093 1.00533 0.0
H320 H 0.58175 0.41079 0.82566 0.0
H321 H 0.59844 0.47863 0.88627 0.0
H322 H 0.54584 0.37342 0.91351 0.0
H323 H 0.57515 0.38012 0.932 0.0
H324 H 0.56741 0.37545 0.87081 0.0
H325 H 0.56432 0.45647 0.98679 0.0
H326 H 0.59025 0.48285 0.96374 0.0
H327 H 0.59388 0.4629 1.00294 0.0
C328 C 0.1613 0.55128 0.22365 0.0
C329 C 0.14568 0.55197 0.25706 0.0
C330 C 0.16287 0.56056 0.17864 0.0
C331 C 0.14789 0.57006 0.16635 0.0
C332 C 0.13251 0.57135 0.20034 0.0
C333 C 0.13185 0.56257 0.24561 0.0
C334 C 0.18009 0.55961 0.14392 0.0
C335 C 0.11596 0.58099 0.18832 0.0
C336 C 0.16041 0.60991 0.05998 0.0
C337 C 0.14467 0.59342 0.02695 0.0
C338 C 0.16239 0.60239 0.10493 0.0
C339 C 0.14769 0.57792 0.11755 0.0
C340 C 0.13218 0.56107 0.08391 0.0
C341 C 0.13112 0.569 0.03868 0.0
C342 C 0.17974 0.62074 0.13924 0.0
C343 C 0.11592 0.5349 0.0963 0.0
H344 H 0.17209 0.54314 0.23261 0.0
H345 H 0.11956 0.56284 0.27128 0.0
H346 H 0.16982 0.54691 0.11538 0.0
H347 H 0.19146 0.57759 0.12784 0.0
H348 H 0.19201 0.55371 0.16024 0.0
H349 H 0.10539 0.58112 0.21891 0.0
H350 H 0.1265 0.59959 0.17448 0.0
H351 H 0.10325 0.56975 0.16049 0.0
H352 H 0.17098 0.62881 0.05079 0.0
H353 H 0.11874 0.55631 0.01329 0.0
H354 H 0.19134 0.61434 0.15504 0.0
H355 H 0.16958 0.62315 0.16803 0.0
H356 H 0.19142 0.63854 0.12264 0.0
H357 H 0.12669 0.52704 0.1099 0.0
H358 H 0.10522 0.52404 0.06595 0.0
H359 H 0.10333 0.53338 0.12441 0.0
C360 C 0.46234 0.27876 0.15046 0.0
C361 C 0.47997 0.29402 0.1825 0.0
C362 C 0.46031 0.25677 0.13715 0.0
C363 C 0.47622 0.24981 0.15649 0.0
C364 C 0.49329 0.26456 0.1905 0.0
C365 C 0.49498 0.28652 0.20308 0.0
C366 C 0.44182 0.24148 0.10096 0.0
C367 C 0.5104 0.2576 0.21229 0.0
C368 C 0.46295 0.18521 0.15025 0.0
C369 C 0.47879 0.18663 0.11495 0.0
C370 C 0.46128 0.20544 0.16308 0.0
C371 C 0.47573 0.22759 0.13994 0.0
C372 C 0.49075 0.22883 0.10252 0.0
C373 C 0.49211 0.20831 0.09047 0.0
C374 C 0.44496 0.20337 0.20297 0.0
C375 C 0.50624 0.25211 0.07666 0.0
H376 H 0.45065 0.2844 0.13436 0.0
H377 H 0.50864 0.29819 0.22783 0.0
H378 H 0.45107 0.24083 0.06874 0.0
H379 H 0.43075 0.22271 0.11368 0.0
H380 H 0.42966 0.24856 0.09185 0.0
H381 H 0.52168 0.27035 0.24006 0.0
H382 H 0.50022 0.23926 0.22753 0.0
H383 H 0.52247 0.25715 0.18505 0.0
H384 H 0.45252 0.16852 0.16931 0.0
H385 H 0.50439 0.20956 0.06318 0.0
H386 H 0.43326 0.21077 0.19269 0.0
H387 H 0.45601 0.21414 0.23302 0.0
H388 H 0.43338 0.18444 0.21462 0.0
H389 H 0.49514 0.25982 0.06414 0.0
H390 H 0.51556 0.24965 0.04629 0.0
H391 H 0.52004 0.26545 0.10067 0.0
C392 C 0.27764 0.46186 0.30053 0.0
C393 C 0.29348 0.4801 0.27007 0.0
C394 C 0.25569 0.45997 0.31366 0.0
C395 C 0.24939 0.47666 0.2958 0.0
C396 C 0.26472 0.49435 0.26324 0.0
C397 C 0.2866 0.49586 0.25075 0.0
C398 C 0.23975 0.44077 0.34822 0.0
C399 C 0.25849 0.51234 0.24311 0.0
C400 C 0.18516 0.46441 0.30241 0.0
C401 C 0.18654 0.47926 0.33968 0.0
C402 C 0.20529 0.46281 0.28859 0.0
C403 C 0.22732 0.47636 0.31264 0.0
C404 C 0.22856 0.49051 0.35164 0.0
C405 C 0.20812 0.49178 0.36473 0.0
C406 C 0.20323 0.44741 0.24704 0.0
C407 C 0.25174 0.50508 0.37838 0.0
H408 H 0.28279 0.44957 0.3156 0.0
H409 H 0.29873 0.51 0.22724 0.0
H410 H 0.23903 0.44936 0.38131 0.0
H411 H 0.22108 0.43038 0.33469 0.0
H412 H 0.24632 0.42806 0.35605 0.0
H413 H 0.27159 0.52401 0.21614 0.0
H414 H 0.24026 0.50286 0.22729 0.0
H415 H 0.25815 0.52397 0.2714 0.0
H416 H 0.16852 0.4546 0.28291 0.0
H417 H 0.20933 0.5033 0.3935 0.0
H418 H 0.20998 0.435 0.25606 0.0
H419 H 0.21457 0.45906 0.2181 0.0
H420 H 0.18439 0.4366 0.23434 0.0
H421 H 0.25891 0.49336 0.38998 0.0
H422 H 0.24935 0.51402 0.40947 0.0
H423 H 0.26547 0.51913 0.35528 0.0
C424 C 0.71311 0.20592 0.54259 0.0
C425 C 0.70343 0.18392 0.51887 0.0
C426 C 0.73511 0.22573 0.52865 0.0
C427 C 0.74779 0.22335 0.49045 0.0
C428 C 0.73878 0.20078 0.46818 0.0
C429 C 0.71664 0.18136 0.48251 0.0
C430 C 0.74416 0.24954 0.55329 0.0
C431 C 0.75197 0.19743 0.42785 0.0
C432 C 0.78796 0.28101 0.42392 0.0
C433 C 0.81044 0.28836 0.44438 0.0
C434 C 0.76751 0.25946 0.43761 0.0
C435 C 0.7697 0.24484 0.47221 0.0
C436 C 0.79259 0.25149 0.491 0.0
C437 C 0.81268 0.27323 0.477 0.0
C438 C 0.74338 0.25293 0.41671 0.0
C439 C 0.7957 0.2362 0.52739 0.0
H440 H 0.70295 0.20804 0.57057 0.0
H441 H 0.70931 0.16435 0.46417 0.0
H442 H 0.76299 0.25662 0.56511 0.0
H443 H 0.74415 0.26291 0.52868 0.0
H444 H 0.73292 0.24806 0.584 0.0
H445 H 0.74383 0.17824 0.41741 0.0
H446 H 0.75163 0.20791 0.39731 0.0
H447 H 0.77114 0.20436 0.43704 0.0
H448 H 0.78609 0.29264 0.39884 0.0
H449 H 0.83004 0.27875 0.49281 0.0
H450 H 0.7314 0.25327 0.4443 0.0
H451 H 0.73456 0.23439 0.4024 0.0
H452 H 0.74493 0.2655 0.38842 0.0
H453 H 0.78666 0.23647 0.5602 0.0
H454 H 0.81496 0.24266 0.53513 0.0
H455 H 0.78707 0.21719 0.51566 0.0
C456 C 0.52774 0.81155 0.64274 0.0
C457 C 0.5113 0.80921 0.60787 0.0
C458 C 0.52931 0.7916 0.65812 0.0
C459 C 0.51407 0.76873 0.63818 0.0
C460 C 0.49803 0.76638 0.60183 0.0
C461 C 0.49686 0.78667 0.58705 0.0
C462 C 0.54676 0.79486 0.69669 0.0
C463 C 0.48157 0.74227 0.57956 0.0
C464 C 0.5284 0.71827 0.65036 0.0
C465 C 0.5122 0.70398 0.68534 0.0
C466 C 0.52968 0.73974 0.63553 0.0
C467 C 0.51437 0.74711 0.65615 0.0
C468 C 0.49869 0.73331 0.69282 0.0
C469 C 0.49781 0.71191 0.70704 0.0
C470 C 0.54678 0.75406 0.59662 0.0
C471 C 0.48218 0.74068 0.71583 0.0
H472 H 0.53901 0.82892 0.659 0.0
H473 H 0.48409 0.78469 0.5602 0.0
H474 H 0.53666 0.78455 0.72797 0.0
H475 H 0.55853 0.78765 0.68576 0.0
H476 H 0.55829 0.81406 0.70671 0.0
H477 H 0.47085 0.74365 0.55048 0.0
H478 H 0.49223 0.7343 0.56592 0.0
H479 H 0.46899 0.72966 0.60613 0.0
H480 H 0.53964 0.71232 0.63345 0.0
H481 H 0.48522 0.70095 0.734 0.0
H482 H 0.55827 0.77313 0.60727 0.0
H483 H 0.53637 0.7539 0.56553 0.0
H484 H 0.55859 0.74675 0.58641 0.0
H485 H 0.4927 0.75944 0.72889 0.0
H486 H 0.47199 0.7287 0.74544 0.0
H487 H 0.46912 0.74023 0.68984 0.0
C488 C 0.70926 0.50057 0.74581 0.0
C489 C 0.70207 0.51594 0.76571 0.0
C490 C 0.73085 0.5017 0.75943 0.0
C491 C 0.74562 0.51872 0.79349 0.0
C492 C 0.73901 0.53503 0.81204 0.0
C493 C 0.71728 0.5334 0.79802 0.0
C494 C 0.73736 0.48404 0.73876 0.0
C495 C 0.75443 0.5536 0.84798 0.0
C496 C 0.7861 0.50274 0.86331 0.0
C497 C 0.808 0.51566 0.83943 0.0
C498 C 0.76578 0.50408 0.84946 0.0
C499 C 0.76748 0.51876 0.81099 0.0
C500 C 0.78983 0.53269 0.78815 0.0
C501 C 0.80981 0.53095 0.80261 0.0
C502 C 0.74225 0.48903 0.87482 0.0
C503 C 0.79241 0.54872 0.7473 0.0
H504 H 0.69757 0.48699 0.72097 0.0
H505 H 0.71188 0.54541 0.81344 0.0
H506 H 0.75575 0.49377 0.72373 0.0
H507 H 0.73743 0.47203 0.76661 0.0
H508 H 0.72457 0.47273 0.71106 0.0
H509 H 0.74765 0.56608 0.8564 0.0
H510 H 0.75483 0.54445 0.88058 0.0
H511 H 0.77325 0.56433 0.83535 0.0
H512 H 0.78455 0.49085 0.89169 0.0
H513 H 0.8267 0.54107 0.78403 0.0
H514 H 0.72883 0.47542 0.85063 0.0
H515 H 0.73491 0.50052 0.88684 0.0
H516 H 0.74421 0.47952 0.90549 0.0
H517 H 0.78145 0.53753 0.71757 0.0
H518 H 0.8114 0.55973 0.73558 0.0
H519 H 0.78553 0.56099 0.75662 0.0
C520 C 0.20559 0.71537 0.91921 0.0
C521 C 0.18404 0.70628 0.94437 0.0
C522 C 0.22606 0.73702 0.93242 0.0
C523 C 0.2249 0.74984 0.97166 0.0
C524 C 0.20289 0.74133 0.99582 0.0
C525 C 0.18272 0.71967 0.98186 0.0
C526 C 0.2492 0.74566 0.90555 0.0
C527 C 0.20091 0.75456 0.03763 0.0
C528 C 0.28413 0.78943 0.03396 0.0
C529 C 0.29094 0.81215 0.01519 0.0
C530 C 0.26233 0.76907 0.02104 0.0
C531 C 0.24701 0.77154 0.98861 0.0
C532 C 0.25327 0.79459 0.97115 0.0
C533 C 0.27515 0.81462 0.98469 0.0
C534 C 0.25613 0.74478 0.04073 0.0
C535 C 0.23733 0.79795 0.93674 0.0
H536 H 0.20675 0.70512 0.89027 0.0
H537 H 0.16612 0.71281 1.00146 0.0
H538 H 0.25641 0.76459 0.89424 0.0
H539 H 0.26294 0.74522 0.92847 0.0
H540 H 0.24675 0.73443 0.87427 0.0
H541 H 0.1821 0.74653 0.05045 0.0
H542 H 0.21229 0.75414 0.06642 0.0
H543 H 0.20767 0.77375 0.02887 0.0
H544 H 0.29623 0.78736 0.05749 0.0
H545 H 0.28024 0.83212 0.97003 0.0
H546 H 0.25572 0.7329 0.01217 0.0
H547 H 0.23794 0.73599 0.0567 0.0
H548 H 0.2693 0.7461 0.06747 0.0
H549 H 0.2365 0.78863 0.9036 0.0
H550 H 0.24397 0.81725 0.92897 0.0
H551 H 0.21869 0.78975 0.9504 0.0
C552 C 0.60251 0.16186 0.73586 0.0
C553 C 0.584 0.144 0.70866 0.0
C554 C 0.59862 0.16514 0.783 0.0
C555 C 0.57583 0.14992 0.80354 0.0
C556 C 0.55693 0.13237 0.7758 0.0
C557 C 0.56119 0.12976 0.72874 0.0
C558 C 0.6191 0.18436 0.81117 0.0
C559 C 0.53242 0.11557 0.79633 0.0
C560 C 0.57038 0.13475 0.93266 0.0
C561 C 0.5592 0.14718 0.95011 0.0
C562 C 0.57669 0.13624 0.88539 0.0
C563 C 0.57208 0.15081 0.85474 0.0
C564 C 0.56196 0.16441 0.87258 0.0
C565 C 0.55544 0.16228 0.92 0.0
C566 C 0.58718 0.12121 0.86783 0.0
C567 C 0.5572 0.18051 0.84123 0.0
H568 H 0.62015 0.17304 0.72056 0.0
H569 H 0.54676 0.1159 0.70807 0.0
H570 H 0.61304 0.19543 0.8303 0.0
H571 H 0.6251 0.17581 0.83757 0.0
H572 H 0.63476 0.19641 0.78897 0.0
H573 H 0.51934 0.10364 0.7696 0.0
H574 H 0.53407 0.10413 0.82353 0.0
H575 H 0.52506 0.12603 0.81344 0.0
H576 H 0.57336 0.12303 0.95557 0.0
H577 H 0.54694 0.17205 0.93323 0.0
H578 H 0.60416 0.13264 0.84856 0.0
H579 H 0.5744 0.10742 0.84307 0.0
H580 H 0.59093 0.11189 0.89656 0.0
H581 H 0.57336 0.1922 0.81994 0.0
H582 H 0.55207 0.19208 0.86133 0.0
H583 H 0.54236 0.16932 0.81672 0.0
C584 C 0.42795 0.56505 0.89135 0.0
C585 C 0.4359 0.58778 0.87126 0.0
C586 C 0.42111 0.56059 0.93846 0.0
C587 C 0.42172 0.57916 0.96621 0.0
C588 C 0.42865 0.60183 0.94563 0.0
C589 C 0.43593 0.60597 0.89852 0.0
C590 C 0.41424 0.53627 0.95902 0.0
C591 C 0.42901 0.62191 0.9737 0.0
C592 C 0.38857 0.55746 0.08221 0.0
C593 C 0.4075 0.562 0.11277 0.0
C594 C 0.39302 0.56418 0.03485 0.0
C595 C 0.41689 0.5752 0.01742 0.0
C596 C 0.4361 0.58054 0.04852 0.0
C597 C 0.4312 0.57411 0.09578 0.0
C598 C 0.37209 0.55869 1.00312 0.0
C599 C 0.46177 0.5919 0.03143 0.0
H600 H 0.42794 0.55089 0.87069 0.0
H601 H 0.44192 0.62354 0.88322 0.0
H602 H 0.42734 0.53842 0.98658 0.0
H603 H 0.39625 0.52824 0.97569 0.0
H604 H 0.41384 0.52349 0.93239 0.0
H605 H 0.43218 0.63744 0.95148 0.0
H606 H 0.41172 0.61528 0.99257 0.0
H607 H 0.44349 0.62832 1.00032 0.0
H608 H 0.37022 0.54823 0.09508 0.0
H609 H 0.44595 0.57765 0.11902 0.0
H610 H 0.3691 0.54404 0.97868 0.0
H611 H 0.3761 0.57473 0.98177 0.0
H612 H 0.3552 0.55298 0.02294 0.0
H613 H 0.46347 0.57949 1.00676 0.0
H614 H 0.47479 0.59604 0.06042 0.0
H615 H 0.46683 0.60879 0.0122 0.0
C616 C 0.86327 0.42707 0.04495 0.0
C617 C 0.84953 0.43659 0.02623 0.0
C618 C 0.86102 0.42003 0.09193 0.0
C619 C 0.84442 0.42226 0.12108 0.0
C620 C 0.82959 0.43069 0.10188 0.0
C621 C 0.83243 0.4379 0.05474 0.0
C622 C 0.87733 0.41131 0.1109 0.0
C623 C 0.8114 0.43296 0.13156 0.0
C624 C 0.83308 0.38987 0.23802 0.0
C625 C 0.84949 0.40849 0.26707 0.0
C626 C 0.83021 0.39427 0.19092 0.0
C627 C 0.8443 0.41777 0.1723 0.0
C628 C 0.8601 0.4368 0.20203 0.0
C629 C 0.86239 0.43196 0.24897 0.0
C630 C 0.81286 0.37358 0.16062 0.0
C631 C 0.87559 0.46211 0.18371 0.0
H632 H 0.87651 0.42592 0.0233 0.0
H633 H 0.82166 0.44513 0.04059 0.0
H634 H 0.88972 0.42428 0.13723 0.0
H635 H 0.86656 0.39371 0.1287 0.0
H636 H 0.88828 0.40929 0.08314 0.0
H637 H 0.79929 0.43695 0.11033 0.0
H638 H 0.80029 0.41613 0.15156 0.0
H639 H 0.8209 0.44769 0.15725 0.0
H640 H 0.82295 0.3717 0.25169 0.0
H641 H 0.87509 0.44651 0.27105 0.0
H642 H 0.82308 0.36906 0.13529 0.0
H643 H 0.80139 0.3787 0.14022 0.0
H644 H 0.80108 0.35721 0.18144 0.0
H645 H 0.88865 0.4624 0.15793 0.0
H646 H 0.88579 0.47516 0.21191 0.0
H647 H 0.86434 0.46821 0.16542 0.0
C648 C 0.4342 0.82983 0.39091 0.0
C649 C 0.43385 0.84771 0.41857 0.0
C650 C 0.42686 0.82676 0.34383 0.0
C651 C 0.41949 0.84226 0.3237 0.0
C652 C 0.41843 0.85984 0.35193 0.0
C653 C 0.42539 0.86218 0.39897 0.0
C654 C 0.42772 0.80745 0.31525 0.0
C655 C 0.41104 0.87699 0.3319 0.0
C656 C 0.42911 0.8578 0.19456 0.0
C657 C 0.40547 0.8459 0.17723 0.0
C658 C 0.43396 0.85605 0.24176 0.0
C659 C 0.41476 0.84164 0.27247 0.0
C660 C 0.39099 0.8285 0.25469 0.0
C661 C 0.38658 0.83098 0.20739 0.0
C662 C 0.45954 0.87067 0.25922 0.0
C663 C 0.37009 0.81252 0.28599 0.0
H664 H 0.44059 0.81849 0.4058 0.0
H665 H 0.42509 0.87609 0.41994 0.0
H666 H 0.41056 0.79672 0.29599 0.0
H667 H 0.44231 0.81591 0.28895 0.0
H668 H 0.43104 0.7951 0.33718 0.0
H669 H 0.41017 0.88896 0.35891 0.0
H670 H 0.42412 0.88838 0.30469 0.0
H671 H 0.39315 0.86682 0.3149 0.0
H672 H 0.44385 0.86943 0.17165 0.0
H673 H 0.36827 0.82161 0.19428 0.0
H674 H 0.46488 0.85895 0.27808 0.0
H675 H 0.46084 0.88445 0.28432 0.0
H676 H 0.47259 0.87996 0.23049 0.0
H677 H 0.37438 0.8006 0.30703 0.0
H678 H 0.35333 0.80119 0.26587 0.0
H679 H 0.36667 0.82377 0.31073 0.0
C680 C 0.56403 0.43036 0.56371 0.0
C681 C 0.58676 0.43878 0.58407 0.0
C682 C 0.55979 0.42332 0.51669 0.0
C683 C 0.57861 0.42422 0.48931 0.0
C684 C 0.6013 0.43163 0.51019 0.0
C685 C 0.60521 0.43909 0.55719 0.0
C686 C 0.53543 0.41593 0.49579 0.0
C687 C 0.62165 0.4323 0.48255 0.0
C688 C 0.55775 0.39061 0.37361 0.0
C689 C 0.56206 0.40934 0.34269 0.0
C690 C 0.56428 0.39529 0.42102 0.0
C691 C 0.57485 0.41919 0.43813 0.0
C692 C 0.57996 0.43822 0.40669 0.0
C693 C 0.57374 0.4331 0.3594 0.0
C694 C 0.55906 0.37456 0.45313 0.0
C695 C 0.59084 0.46392 0.42341 0.0
H696 H 0.54967 0.43012 0.58408 0.0
H697 H 0.62279 0.44544 0.57271 0.0
H698 H 0.53739 0.42885 0.46796 0.0
H699 H 0.52774 0.39791 0.47939 0.0
H700 H 0.52245 0.41535 0.52216 0.0
H701 H 0.63721 0.43582 0.50502 0.0
H702 H 0.61536 0.41498 0.46397 0.0
H703 H 0.62791 0.44667 0.4557 0.0
H704 H 0.54885 0.37222 0.36097 0.0
H705 H 0.57709 0.44771 0.33589 0.0
H706 H 0.54424 0.37135 0.47729 0.0
H707 H 0.5751 0.37892 0.47476 0.0
H708 H 0.55372 0.35766 0.43359 0.0
H709 H 0.5782 0.4654 0.4478 0.0
H710 H 0.59483 0.47679 0.39422 0.0
H711 H 0.60774 0.46933 0.44287 0.0
C712 C 0.16252 0.55774 0.55059 0.0
C713 C 0.14571 0.55938 0.52169 0.0
C714 C 0.16526 0.56493 0.5977 0.0
C715 C 0.15061 0.57365 0.61646 0.0
C716 C 0.13437 0.57629 0.58687 0.0
C717 C 0.13223 0.56927 0.53992 0.0
C718 C 0.18308 0.56224 0.62785 0.0
C719 C 0.11828 0.58535 0.60535 0.0
C720 C 0.13169 0.56338 0.74378 0.0
C721 C 0.14477 0.58669 0.76242 0.0
C722 C 0.13419 0.55877 0.69685 0.0
C723 C 0.1504 0.57788 0.66768 0.0
C724 C 0.16463 0.60122 0.68683 0.0
C725 C 0.16153 0.6054 0.73391 0.0
C726 C 0.11853 0.53364 0.67793 0.0
C727 C 0.1824 0.62198 0.65713 0.0
H728 H 0.1731 0.55024 0.5368 0.0
H729 H 0.11922 0.57068 0.51795 0.0
H730 H 0.19416 0.5789 0.64828 0.0
H731 H 0.17325 0.54736 0.65315 0.0
H732 H 0.19522 0.55822 0.60691 0.0
H733 H 0.10773 0.58779 0.57725 0.0
H734 H 0.10551 0.57235 0.63122 0.0
H735 H 0.12914 0.60279 0.62356 0.0
H736 H 0.11873 0.54877 0.76544 0.0
H737 H 0.17181 0.62345 0.74802 0.0
H738 H 0.12974 0.52737 0.66004 0.0
H739 H 0.10585 0.53375 0.65169 0.0
H740 H 0.10792 0.52049 0.70573 0.0
H741 H 0.19385 0.61675 0.637 0.0
H742 H 0.19419 0.63816 0.67836 0.0
H743 H 0.17253 0.62686 0.63156 0.0
C744 C 0.44447 0.05227 0.05491 0.0
C745 C 0.46549 0.0625 0.08184 0.0
C746 C 0.42989 0.0271 0.05167 0.0
C747 C 0.43617 0.0121 0.07729 0.0
C748 C 0.45667 0.02255 0.10664 0.0
C749 C 0.47133 0.04763 0.10784 0.0
C750 C 0.40858 0.0166 0.01896 0.0
C751 C 0.46362 0.00725 0.13558 0.0
C752 C 0.39182 0.94527 0.09331 0.0
C753 C 0.40138 0.93523 0.06262 0.0
C754 C 0.4027 0.9704 0.0981 0.0
C755 C 0.42294 0.9856 0.07021 0.0
C756 C 0.43188 0.97539 0.03764 0.0
C757 C 0.42126 0.95032 0.03491 0.0
C758 C 0.39319 0.98064 0.13426 0.0
C759 C 0.45297 0.99094 1.00627 0.0
H760 H 0.44009 0.06389 0.03477 0.0
H761 H 0.48748 0.05567 0.12914 0.0
H762 H 0.41209 0.00757 0.98946 0.0
H763 H 0.39219 0.00274 0.03706 0.0
H764 H 0.40494 0.03058 1.0046 0.0
H765 H 0.47826 0.01816 0.16075 0.0
H766 H 0.44781 0.99343 0.15523 0.0
H767 H 0.46985 0.99763 0.11235 0.0
H768 H 0.37642 0.93349 0.11469 0.0
H769 H 0.42837 0.94246 0.01063 0.0
H770 H 0.38942 0.99417 0.11822 0.0
H771 H 0.40706 0.99004 0.1616 0.0
H772 H 0.37649 0.96648 0.15119 0.0
H773 H 0.45 0.00457 0.98824 0.0
H774 H 0.45602 0.9802 0.97954 0.0
H775 H 0.46958 0.00079 0.02749 0.0
C776 C 0.45049 0.39801 0.25149 0.0
C777 C 0.47092 0.40723 0.22298 0.0
C778 C 0.43663 0.4094 0.2537 0.0
C779 C 0.44294 0.42985 0.22535 0.0
C780 C 0.46304 0.43858 0.19517 0.0
C781 C 0.47705 0.42742 0.19503 0.0
C782 C 0.4158 0.4001 0.28742 0.0
C783 C 0.46994 0.45987 0.16337 0.0
C784 C 0.3976 0.45058 0.20335 0.0
C785 C 0.40693 0.47114 0.23149 0.0
C786 C 0.40902 0.43673 0.20114 0.0
C787 C 0.4296 0.4432 0.22913 0.0
C788 C 0.43847 0.46347 0.2589 0.0
C789 C 0.42728 0.47745 0.25904 0.0
C790 C 0.39956 0.41572 0.16783 0.0
C791 C 0.45992 0.47055 0.29031 0.0
H792 H 0.44583 0.38237 0.27308 0.0
H793 H 0.49266 0.43428 0.1724 0.0
H794 H 0.41926 0.4142 0.31366 0.0
H795 H 0.39902 0.39601 0.26874 0.0
H796 H 0.41283 0.38362 0.306 0.0
H797 H 0.48467 0.46294 0.13895 0.0
H798 H 0.45411 0.45709 0.14268 0.0
H799 H 0.47596 0.4764 0.18448 0.0
H800 H 0.38184 0.44577 0.18208 0.0
H801 H 0.43423 0.49316 0.28141 0.0
H802 H 0.39553 0.39904 0.18682 0.0
H803 H 0.41354 0.41904 0.14142 0.0
H804 H 0.38301 0.41268 0.14944 0.0
H805 H 0.45725 0.45483 0.31129 0.0
H806 H 0.46312 0.48541 0.31445 0.0
H807 H 0.47633 0.47644 0.26889 0.0
C808 C 0.05192 0.4372 0.36898 0.0
C809 C 0.06218 0.45771 0.39757 0.0
C810 C 0.02687 0.42163 0.36791 0.0
C811 C 0.01187 0.42663 0.39643 0.0
C812 C 0.02231 0.44637 0.42765 0.0
C813 C 0.04732 0.46173 0.42766 0.0
C814 C 0.01639 0.40077 0.33417 0.0
C815 C 0.00698 0.45211 0.45919 0.0
C816 C 0.94934 0.41184 0.35956 0.0
C817 C 0.93483 0.39268 0.38948 0.0
C818 C 0.97442 0.42205 0.35945 0.0
C819 C 0.9853 0.41305 0.3904 0.0
C820 C 0.97069 0.39281 0.41873 0.0
C821 C 0.94556 0.38276 0.41777 0.0
C822 C 0.98933 0.44338 0.32811 0.0
C823 C 0.98164 0.38275 0.4522 0.0
H824 H 0.0633 0.43398 0.34561 0.0
H825 H 0.05516 0.47738 0.45026 0.0
H826 H 0.00244 0.38413 0.35149 0.0
H827 H 0.00754 0.40476 0.30497 0.0
H828 H 0.0304 0.39732 0.3194 0.0
H829 H 0.01795 0.46656 0.48464 0.0
H830 H 0.99647 0.45807 0.43779 0.0
H831 H 0.99392 0.43581 0.4787 0.0
H832 H 0.94114 0.41941 0.33721 0.0
H833 H 0.93445 0.36796 0.44101 0.0
H834 H 0.00268 0.44066 0.30845 0.0
H835 H -0.00051 0.45982 0.34968 0.0
H836 H 0.97809 0.44657 0.30279 0.0
H837 H 0.99588 0.3806 0.43472 0.0
H838 H 0.96795 0.36507 0.46678 0.0
H839 H 0.99024 0.39553 0.48155 0.0
C840 C 0.55484 0.94384 0.56615 0.0
C841 C 0.53314 0.93355 0.54103 0.0
C842 C 0.56968 0.96894 0.56905 0.0
C843 C 0.56279 0.98405 0.54577 0.0
C844 C 0.54179 0.97373 0.51774 0.0
C845 C 0.52713 0.94861 0.51596 0.0
C846 C 0.59187 0.97926 0.59945 0.0
C847 C 0.53405 0.98923 0.49169 0.0
C848 C 0.57848 0.04502 0.59474 0.0
C849 C 0.59676 0.06075 0.5644 0.0
C850 C 0.5681 0.02001 0.59037 0.0
C851 C 0.57598 0.01046 0.55437 0.0
C852 C 0.59515 0.02622 0.5249 0.0
C853 C 0.60544 0.05123 0.53046 0.0
C854 C 0.54798 0.0038 0.62307 0.0
C855 C 0.60393 0.0167 0.48597 0.0
H856 H 0.5596 0.93233 0.58572 0.0
H857 H 0.51052 0.94078 0.49611 0.0
H858 H 0.60758 0.99385 0.58089 0.0
H859 H 0.58885 0.98728 0.63121 0.0
H860 H 0.59636 0.96533 0.61042 0.0
H861 H 0.51879 0.97853 0.46756 0.0
H862 H 0.5284 -0.00145 0.51699 0.0
H863 H 0.54931 0.0033 0.47127 0.0
H864 H 0.57183 0.05227 0.6213 0.0
H865 H 0.6195 0.06328 0.50674 0.0
H866 H 0.55172 0.99019 0.63886 0.0
H867 H 0.53088 0.99392 0.60324 0.0
H868 H 0.54537 0.01402 0.65156 0.0
H869 H 0.60752 0.00252 0.49919 0.0
H870 H 0.62057 0.03113 0.46935 0.0
H871 H 0.58974 0.00832 0.45885 0.0
C872 C 0.60694 0.55609 0.7433 0.0
C873 C 0.59677 0.53583 0.71403 0.0
C874 C 0.59619 0.5704 0.74837 0.0
C875 C 0.57508 0.56458 0.72283 0.0
C876 C 0.56556 0.54499 0.69119 0.0
C877 C 0.57637 0.53069 0.68755 0.0
C878 C 0.60667 0.59091 0.78295 0.0
C879 C 0.54338 0.53856 0.66249 0.0
C880 C 0.52856 0.57965 0.76786 0.0
C881 C 0.53324 0.59961 0.74035 0.0
C882 C 0.54285 0.56882 0.76411 0.0
C883 C 0.56192 0.57785 0.73131 0.0
C884 C 0.5673 0.59856 0.70471 0.0
C885 C 0.55304 0.60936 0.70991 0.0
C886 C 0.53691 0.54711 0.79396 0.0
C887 C 0.58725 0.60851 0.6689 0.0
H888 H 0.62261 0.56005 0.76418 0.0
H889 H 0.56853 0.51514 0.6647 0.0
H890 H 0.6092 0.60768 0.76645 0.0
H891 H 0.59394 0.58664 0.81242 0.0
H892 H 0.62423 0.59433 0.79717 0.0
H893 H 0.53962 0.52428 0.63642 0.0
H894 H 0.52752 0.53209 0.68581 0.0
H895 H 0.54548 0.5547 0.6439 0.0
H896 H 0.51336 0.57213 0.7916 0.0
H897 H 0.55661 0.62467 0.68823 0.0
H898 H 0.55335 0.54951 0.81176 0.0
H899 H 0.53008 0.53088 0.77156 0.0
H900 H 0.52307 0.54376 0.82077 0.0
H901 H 0.60427 0.61129 0.68457 0.0
H902 H 0.59043 0.62585 0.6539 0.0
H903 H 0.58251 0.59533 0.64009 0.0
C904 C 0.04933 0.61266 0.91563 0.0
C905 C 0.05973 0.60237 0.88749 0.0
C906 C 0.02423 0.60278 0.9172 0.0
C907 C 0.0093 0.58232 0.8897 0.0
C908 C 0.01983 0.57294 0.85888 0.0
C909 C 0.04489 0.58301 0.85831 0.0
C910 C 0.01366 0.61329 0.95042 0.0
C911 C 0.00456 0.55134 0.82845 0.0
C912 C 0.94749 0.53416 0.92922 0.0
C913 C 0.93245 0.53788 0.89899 0.0
C914 C 0.9725 0.54949 0.92854 0.0
C915 C 0.98276 0.56892 0.89653 0.0
C916 C 0.9676 0.57368 0.86791 0.0
C917 C 0.94255 0.55812 0.86963 0.0
C918 C 0.98801 0.544 0.96018 0.0
C919 C 0.97787 0.59422 0.83339 0.0
H920 H 0.06068 0.62763 0.93828 0.0
H921 H 0.05281 0.57516 0.83604 0.0
H922 H -0.00069 0.61533 0.93306 0.0
H923 H 0.00529 0.60086 0.98037 0.0
H924 H 0.02753 0.6311 0.96413 0.0
H925 H 0.01555 0.54779 0.80315 0.0
H926 H 0.99447 0.53513 0.85069 0.0
H927 H 0.99115 0.554 0.80881 0.0
H928 H 0.93979 0.51872 0.95242 0.0
H929 H 0.93104 0.56112 0.84615 0.0
H930 H 0.00125 0.56048 0.97897 0.0
H931 H -0.00168 0.53777 0.93893 0.0
H932 H 0.97719 0.52983 0.98626 0.0
H933 H 0.99205 0.61098 0.84996 0.0
H934 H 0.9638 0.59765 0.81879 0.0
H935 H 0.9864 0.58989 0.80414 0.0
loop_
_geom_bond_atom_site_label_1
_geom_bond_atom_site_label_2
_geom_bond_distance
_geom_bond_site_symmetry_2
_ccdc_geom_bond_type
O0 Cd1 2.223 . S
O0 C8 1.315 . S
Cd1 O0 2.223 . S
Cd1 O4 2.297 1_554 S
Cd1 O5 2.439 1_554 S
Cd1 O11 2.240 . S
Cd2 O3 2.240 . S
Cd2 O10 2.223 . S
Cd2 O12 2.297 . S
Cd2 O13 2.439 . S
O3 Cd2 2.240 . S
O3 C8 1.279 . S
O4 Cd1 2.297 1_556 S
O4 C6 1.247 . S
O5 Cd1 2.439 1_556 S
O5 C6 1.208 . S
C6 O4 1.247 . S
C6 O5 1.208 . S
C7 O12 1.247 . S
C7 O13 1.208 . S
C8 O0 1.315 . S
C8 O3 1.279 . S
C9 O10 1.315 . S
C9 O11 1.279 . S
O10 Cd2 2.223 . S
O10 C9 1.315 . S
O11 Cd1 2.240 . S
O11 C9 1.279 . S
O12 Cd2 2.297 . S
O12 C7 1.247 . S
O13 Cd2 2.439 . S
O13 C7 1.208 . S
O14 Cd15 2.223 . S
O14 C22 1.315 . S
Cd15 O14 2.223 . S
Cd15 O18 2.297 . S
Cd15 O19 2.439 . S
Cd15 O25 2.240 . S
Cd16 O17 2.240 . S
Cd16 O24 2.223 . S
Cd16 O26 2.297 . S
Cd16 O27 2.439 . S
O17 Cd16 2.240 . S
O17 C22 1.279 . S
O18 Cd15 2.297 . S
O18 C20 1.247 . S
O19 Cd15 2.439 . S
O19 C20 1.208 . S
C20 O18 1.247 . S
C20 O19 1.208 . S
C21 O26 1.247 . S
C21 O27 1.208 . S
C22 O14 1.315 . S
C22 O17 1.279 . S
C23 O24 1.315 . S
C23 O25 1.279 . S
O24 Cd16 2.223 . S
O24 C23 1.315 . S
O25 Cd15 2.240 . S
O25 C23 1.279 . S
O26 Cd16 2.297 . S
O26 C21 1.247 . S
O27 Cd16 2.439 . S
O27 C21 1.208 . S
O28 Cd29 2.223 . S
O28 C36 1.315 . S
Cd29 O28 2.223 . S
Cd29 O32 2.297 . S
Cd29 O33 2.439 . S
Cd29 O39 2.240 . S
Cd30 O31 2.240 . S
Cd30 O38 2.223 . S
Cd30 O40 2.297 . S
Cd30 O41 2.439 . S
O31 Cd30 2.240 . S
O31 C36 1.279 . S
O32 Cd29 2.297 . S
O32 C34 1.247 . S
O33 Cd29 2.439 . S
O33 C34 1.208 . S
C34 O32 1.247 . S
C34 O33 1.208 . S
C35 O40 1.247 . S
C35 O41 1.208 . S
C36 O28 1.315 . S
C36 O31 1.279 . S
C37 O38 1.315 . S
C37 O39 1.279 . S
O38 Cd30 2.223 . S
O38 C37 1.315 . S
O39 Cd29 2.240 . S
O39 C37 1.279 . S
O40 Cd30 2.297 . S
O40 C35 1.247 . S
O41 Cd30 2.439 . S
O41 C35 1.208 . S
O42 Cd43 2.223 . S
O42 C50 1.315 . S
Cd43 O42 2.223 . S
Cd43 O46 2.297 . S
Cd43 O47 2.439 . S
Cd43 O53 2.240 . S
Cd44 O45 2.240 . S
Cd44 O52 2.223 . S
Cd44 O54 2.297 . S
Cd44 O55 2.439 . S
O45 Cd44 2.240 . S
O45 C50 1.279 . S
O46 Cd43 2.297 . S
O46 C48 1.247 . S
O47 Cd43 2.439 . S
O47 C48 1.208 . S
C48 O46 1.247 . S
C48 O47 1.208 . S
C49 O54 1.247 . S
C49 O55 1.208 . S
C50 O42 1.315 . S
C50 O45 1.279 . S
C51 O52 1.315 . S
C51 O53 1.279 . S
O52 Cd44 2.223 . S
O52 C51 1.315 . S
O53 Cd43 2.240 . S
O53 C51 1.279 . S
O54 Cd44 2.297 . S
O54 C49 1.247 . S
O55 Cd44 2.439 . S
O55 C49 1.208 . S
O56 Cd57 2.223 . S
O56 C64 1.315 . S
Cd57 O56 2.223 . S
Cd57 O60 2.297 . S
Cd57 O61 2.439 . S
Cd57 O67 2.240 . S
Cd58 O59 2.240 . S
Cd58 O66 2.223 . S
Cd58 O68 2.297 . S
Cd58 O69 2.439 . S
O59 Cd58 2.240 . S
O59 C64 1.279 . S
O60 Cd57 2.297 . S
O60 C62 1.247 . S
O61 Cd57 2.439 . S
O61 C62 1.208 . S
C62 O60 1.247 . S
C62 O61 1.208 . S
C63 O68 1.247 . S
C63 O69 1.208 . S
C64 O56 1.315 . S
C64 O59 1.279 . S
C65 O66 1.315 . S
C65 O67 1.279 . S
O66 Cd58 2.223 . S
O66 C65 1.315 . S
O67 Cd57 2.240 . S
O67 C65 1.279 . S
O68 Cd58 2.297 . S
O68 C63 1.247 . S
O69 Cd58 2.439 . S
O69 C63 1.208 . S
O70 Cd71 2.223 . S
O70 C78 1.315 . S
Cd71 O70 2.223 . S
Cd71 O74 2.297 . S
Cd71 O75 2.439 . S
Cd71 O81 2.240 . S
Cd72 O73 2.240 . S
Cd72 O80 2.223 . S
Cd72 O82 2.297 . S
Cd72 O83 2.439 . S
O73 Cd72 2.240 . S
O73 C78 1.279 . S
O74 Cd71 2.297 . S
O74 C76 1.247 . S
O75 Cd71 2.439 . S
O75 C76 1.208 . S
C76 O74 1.247 . S
C76 O75 1.208 . S
C77 O82 1.247 . S
C77 O83 1.208 . S
C78 O70 1.315 . S
C78 O73 1.279 . S
C79 O80 1.315 . S
C79 O81 1.279 . S
O80 Cd72 2.223 . S
O80 C79 1.315 . S
O81 Cd71 2.240 . S
O81 C79 1.279 . S
O82 Cd72 2.297 . S
O82 C77 1.247 . S
O83 Cd72 2.439 . S
O83 C77 1.208 . S
O84 Cd85 2.223 . S
O84 C92 1.315 . S
Cd85 O84 2.223 . S
Cd85 O88 2.297 . S
Cd85 O89 2.439 . S
Cd85 O95 2.240 . S
Cd86 O87 2.240 . S
Cd86 O94 2.223 . S
Cd86 O96 2.297 . S
Cd86 O97 2.439 . S
O87 Cd86 2.240 . S
O87 C92 1.279 . S
O88 Cd85 2.297 . S
O88 C90 1.247 . S
O89 Cd85 2.439 . S
O89 C90 1.208 . S
C90 O88 1.247 . S
C90 O89 1.208 . S
C91 O96 1.247 . S
C91 O97 1.208 . S
C92 O84 1.315 . S
C92 O87 1.279 . S
C93 O94 1.315 . S
C93 O95 1.279 . S
O94 Cd86 2.223 . S
O94 C93 1.315 . S
O95 Cd85 2.240 . S
O95 C93 1.279 . S
O96 Cd86 2.297 . S
O96 C91 1.247 . S
O97 Cd86 2.439 . S
O97 C91 1.208 . S
O98 Cd99 2.223 . S
O98 C106 1.315 . S
Cd99 O98 2.223 . S
Cd99 O102 2.297 . S
Cd99 O103 2.439 . S
Cd99 O109 2.240 1_554 S
Cd100 O101 2.240 . S
Cd100 O108 2.223 1_554 S
Cd100 O110 2.297 1_554 S
Cd100 O111 2.439 . S
O101 Cd100 2.240 . S
O101 C106 1.279 . S
O102 Cd99 2.297 . S
O102 C104 1.247 . S
O103 Cd99 2.439 . S
O103 C104 1.208 . S
C104 O102 1.247 . S
C104 O103 1.208 . S
C105 O110 1.247 1_554 S
C105 O111 1.208 . S
C106 O98 1.315 . S
C106 O101 1.279 . S
C107 O108 1.315 . S
C107 O109 1.279 . S
O108 Cd100 2.223 1_556 S
O108 C107 1.315 . S
O109 Cd99 2.240 1_556 S
O109 C107 1.279 . S
O110 Cd100 2.297 1_556 S
O110 C105 1.247 1_556 S
O111 Cd100 2.439 . S
O111 C105 1.208 . S
O112 Cd113 2.223 . S
O112 C120 1.315 . S
Cd113 O112 2.223 . S
Cd113 O116 2.297 . S
Cd113 O117 2.439 . S
Cd113 O123 2.240 . S
Cd114 O115 2.240 . S
Cd114 O122 2.223 . S
Cd114 O124 2.297 . S
Cd114 O125 2.439 . S
O115 Cd114 2.240 . S
O115 C120 1.279 . S
O116 Cd113 2.297 . S
O116 C118 1.247 . S
O117 Cd113 2.439 . S
O117 C118 1.208 . S
C118 O116 1.247 . S
C118 O117 1.208 . S
C119 O124 1.247 . S
C119 O125 1.208 . S
C120 O112 1.315 . S
C120 O115 1.279 . S
C121 O122 1.315 . S
C121 O123 1.279 . S
O122 Cd114 2.223 . S
O122 C121 1.315 . S
O123 Cd113 2.240 . S
O123 C121 1.279 . S
O124 Cd114 2.297 . S
O124 C119 1.247 . S
O125 Cd114 2.439 . S
O125 C119 1.208 . S
O126 Cd127 2.223 . S
O126 C134 1.315 . S
Cd127 O126 2.223 . S
Cd127 O130 2.297 . S
Cd127 O131 2.439 . S
Cd127 O137 2.240 . S
Cd128 O129 2.240 . S
Cd128 O136 2.223 . S
Cd128 O138 2.297 . S
Cd128 O139 2.439 . S
O129 Cd128 2.240 . S
O129 C134 1.279 . S
O130 Cd127 2.297 . S
O130 C132 1.247 . S
O131 Cd127 2.439 . S
O131 C132 1.208 . S
C132 O130 1.247 . S
C132 O131 1.208 . S
C133 O138 1.247 . S
C133 O139 1.208 . S
C134 O126 1.315 . S
C134 O129 1.279 . S
C135 O136 1.315 . S
C135 O137 1.279 . S
O136 Cd128 2.223 . S
O136 C135 1.315 . S
O137 Cd127 2.240 . S
O137 C135 1.279 . S
O138 Cd128 2.297 . S
O138 C133 1.247 . S
O139 Cd128 2.439 . S
O139 C133 1.208 . S
O140 Cd141 2.223 . S
O140 C148 1.315 . S
Cd141 O140 2.223 . S
Cd141 O144 2.297 . S
Cd141 O145 2.439 . S
Cd141 O151 2.240 . S
Cd142 O143 2.240 . S
Cd142 O150 2.223 . S
Cd142 O152 2.297 . S
Cd142 O153 2.439 . S
O143 Cd142 2.240 . S
O143 C148 1.279 . S
O144 Cd141 2.297 . S
O144 C146 1.247 . S
O145 Cd141 2.439 . S
O145 C146 1.208 . S
C146 O144 1.247 . S
C146 O145 1.208 . S
C147 O152 1.247 . S
C147 O153 1.208 . S
C148 O140 1.315 . S
C148 O143 1.279 . S
C149 O150 1.315 . S
C149 O151 1.279 . S
O150 Cd142 2.223 . S
O150 C149 1.315 . S
O151 Cd141 2.240 . S
O151 C149 1.279 . S
O152 Cd142 2.297 . S
O152 C147 1.247 . S
O153 Cd142 2.439 . S
O153 C147 1.208 . S
O154 Cd155 2.223 . S
O154 C162 1.315 . S
Cd155 O154 2.223 . S
Cd155 O158 2.297 . S
Cd155 O159 2.439 . S
Cd155 O165 2.240 . S
Cd156 O157 2.240 . S
Cd156 O164 2.223 . S
Cd156 O166 2.297 . S
Cd156 O167 2.439 . S
O157 Cd156 2.240 . S
O157 C162 1.279 . S
O158 Cd155 2.297 . S
O158 C160 1.247 . S
O159 Cd155 2.439 . S
O159 C160 1.208 . S
C160 O158 1.247 . S
C160 O159 1.208 . S
C161 O166 1.247 . S
C161 O167 1.208 . S
C162 O154 1.315 . S
C162 O157 1.279 . S
C163 O164 1.315 . S
C163 O165 1.279 . S
O164 Cd156 2.223 . S
O164 C163 1.315 . S
O165 Cd155 2.240 . S
O165 C163 1.279 . S
O166 Cd156 2.297 . S
O166 C161 1.247 . S
O167 Cd156 2.439 . S
O167 C161 1.208 . S
C168 C169 1.391 . S
C168 C170 1.394 . S
C168 H184 0.931 . S
C169 C168 1.391 . S
C169 C173 1.376 . S
C170 C168 1.394 . S
C170 C171 1.369 . S
C170 C174 1.531 . S
C171 C170 1.369 . S
C171 C172 1.410 . S
C171 C179 1.503 . S
C172 C171 1.410 . S
C172 C173 1.392 . S
C172 C175 1.511 . S
C173 C169 1.376 . S
C173 C172 1.392 . S
C173 H185 0.929 . S
C174 C170 1.531 . S
C174 H186 0.960 . S
C174 H187 0.962 . S
C174 H188 0.960 . S
C175 C172 1.511 . S
C175 H189 0.961 . S
C175 H190 0.961 . S
C175 H191 0.961 . S
C176 C177 1.370 . S
C176 C178 1.363 . S
C176 H192 0.931 . S
C177 C176 1.370 . S
C177 C181 1.408 . S
C178 C176 1.363 . S
C178 C179 1.370 . S
C178 C182 1.524 . S
C179 C171 1.503 . S
C179 C178 1.370 . S
C179 C180 1.403 . S
C180 C179 1.403 . S
C180 C181 1.404 . S
C180 C183 1.539 . S
C181 C177 1.408 . S
C181 C180 1.404 . S
C181 H193 0.930 . S
C182 C178 1.524 . S
C182 H194 0.956 . S
C182 H195 0.961 . S
C182 H196 0.961 . S
C183 C180 1.539 . S
C183 H197 0.958 . S
C183 H198 0.961 . S
C183 H199 0.960 . S
H184 C168 0.931 . S
H185 C173 0.929 . S
H186 C174 0.960 . S
H187 C174 0.962 . S
H188 C174 0.960 . S
H189 C175 0.961 . S
H190 C175 0.961 . S
H191 C175 0.961 . S
H192 C176 0.931 . S
H193 C181 0.930 . S
H194 C182 0.956 . S
H195 C182 0.961 . S
H196 C182 0.961 . S
H197 C183 0.958 . S
H198 C183 0.961 . S
H199 C183 0.960 . S
C200 C201 1.391 . S
C200 C202 1.394 . S
C200 H216 0.931 . S
C201 C200 1.391 . S
C201 C205 1.376 . S
C202 C200 1.394 . S
C202 C203 1.369 . S
C202 C206 1.531 . S
C203 C202 1.369 . S
C203 C204 1.410 . S
C203 C211 1.503 . S
C204 C203 1.410 . S
C204 C205 1.392 . S
C204 C207 1.511 . S
C205 C201 1.376 . S
C205 C204 1.392 . S
C205 H217 0.929 . S
C206 C202 1.531 . S
C206 H218 0.960 . S
C206 H219 0.962 . S
C206 H220 0.960 . S
C207 C204 1.511 . S
C207 H221 0.961 . S
C207 H222 0.961 . S
C207 H223 0.961 . S
C208 C209 1.370 . S
C208 C210 1.363 . S
C208 H224 0.931 . S
C209 C208 1.370 . S
C209 C213 1.408 . S
C210 C208 1.363 . S
C210 C211 1.370 . S
C210 C214 1.524 . S
C211 C203 1.503 . S
C211 C210 1.370 . S
C211 C212 1.403 . S
C212 C211 1.403 . S
C212 C213 1.404 . S
C212 C215 1.539 . S
C213 C209 1.408 . S
C213 C212 1.404 . S
C213 H225 0.930 . S
C214 C210 1.524 . S
C214 H226 0.956 . S
C214 H227 0.961 . S
C214 H228 0.961 . S
C215 C212 1.539 . S
C215 H229 0.958 . S
C215 H230 0.961 . S
C215 H231 0.960 . S
H216 C200 0.931 . S
H217 C205 0.929 . S
H218 C206 0.960 . S
H219 C206 0.962 . S
H220 C206 0.960 . S
H221 C207 0.961 . S
H222 C207 0.961 . S
H223 C207 0.961 . S
H224 C208 0.931 . S
H225 C213 0.930 . S
H226 C214 0.956 . S
H227 C214 0.961 . S
H228 C214 0.961 . S
H229 C215 0.958 . S
H230 C215 0.961 . S
H231 C215 0.960 . S
C232 C233 1.391 . S
C232 C234 1.394 . S
C232 H248 0.931 . S
C233 C232 1.391 . S
C233 C237 1.376 . S
C234 C232 1.394 . S
C234 C235 1.369 . S
C234 C238 1.531 . S
C235 C234 1.369 . S
C235 C236 1.410 . S
C235 C243 1.503 . S
C236 C235 1.410 . S
C236 C237 1.392 . S
C236 C239 1.511 . S
C237 C233 1.376 . S
C237 C236 1.392 . S
C237 H249 0.929 . S
C238 C234 1.531 . S
C238 H250 0.960 . S
C238 H251 0.962 . S
C238 H252 0.960 . S
C239 C236 1.511 . S
C239 H253 0.961 . S
C239 H254 0.961 . S
C239 H255 0.961 . S
C240 C241 1.370 . S
C240 C242 1.363 . S
C240 H256 0.931 . S
C241 C240 1.370 . S
C241 C245 1.408 . S
C242 C240 1.363 . S
C242 C243 1.370 . S
C242 C246 1.524 . S
C243 C235 1.503 . S
C243 C242 1.370 . S
C243 C244 1.403 . S
C244 C243 1.403 . S
C244 C245 1.404 . S
C244 C247 1.539 . S
C245 C241 1.408 . S
C245 C244 1.404 . S
C245 H257 0.930 . S
C246 C242 1.524 . S
C246 H258 0.956 . S
C246 H259 0.961 . S
C246 H260 0.961 . S
C247 C244 1.539 . S
C247 H261 0.958 . S
C247 H262 0.961 . S
C247 H263 0.960 . S
H248 C232 0.931 . S
H249 C237 0.929 . S
H250 C238 0.960 . S
H251 C238 0.962 . S
H252 C238 0.960 . S
H253 C239 0.961 . S
H254 C239 0.961 . S
H255 C239 0.961 . S
H256 C240 0.931 . S
H257 C245 0.930 . S
H258 C246 0.956 . S
H259 C246 0.961 . S
H260 C246 0.961 . S
H261 C247 0.958 . S
H262 C247 0.961 . S
H263 C247 0.960 . S
C264 C265 1.391 . S
C264 C266 1.394 . S
C264 H280 0.931 . S
C265 C264 1.391 . S
C265 C269 1.376 . S
C266 C264 1.394 . S
C266 C267 1.369 . S
C266 C270 1.531 . S
C267 C266 1.369 . S
C267 C268 1.410 . S
C267 C275 1.503 . S
C268 C267 1.410 . S
C268 C269 1.392 . S
C268 C271 1.511 . S
C269 C265 1.376 . S
C269 C268 1.392 . S
C269 H281 0.929 . S
C270 C266 1.531 . S
C270 H282 0.960 . S
C270 H283 0.962 . S
C270 H284 0.960 . S
C271 C268 1.511 . S
C271 H285 0.961 . S
C271 H286 0.961 . S
C271 H287 0.961 . S
C272 C273 1.370 . S
C272 C274 1.363 . S
C272 H288 0.931 . S
C273 C272 1.370 . S
C273 C277 1.408 . S
C274 C272 1.363 . S
C274 C275 1.370 . S
C274 C278 1.524 . S
C275 C267 1.503 . S
C275 C274 1.370 . S
C275 C276 1.403 . S
C276 C275 1.403 . S
C276 C277 1.404 . S
C276 C279 1.539 . S
C277 C273 1.408 . S
C277 C276 1.404 . S
C277 H289 0.930 . S
C278 C274 1.524 . S
C278 H290 0.956 . S
C278 H291 0.961 . S
C278 H292 0.961 . S
C279 C276 1.539 . S
C279 H293 0.958 . S
C279 H294 0.961 . S
C279 H295 0.960 . S
H280 C264 0.931 . S
H281 C269 0.929 . S
H282 C270 0.960 . S
H283 C270 0.962 . S
H284 C270 0.960 . S
H285 C271 0.961 . S
H286 C271 0.961 . S
H287 C271 0.961 . S
H288 C272 0.931 . S
H289 C277 0.930 . S
H290 C278 0.956 . S
H291 C278 0.961 . S
H292 C278 0.961 . S
H293 C279 0.958 . S
H294 C279 0.961 . S
H295 C279 0.960 . S
C296 C297 1.391 . S
C296 C298 1.394 . S
C296 H312 0.931 . S
C297 C296 1.391 . S
C297 C301 1.376 . S
C298 C296 1.394 . S
C298 C299 1.369 1_554 S
C298 C302 1.531 1_554 S
C299 C298 1.369 1_556 S
C299 C300 1.410 1_556 S
C299 C307 1.503 . S
C300 C299 1.410 1_554 S
C300 C301 1.392 . S
C300 C303 1.511 . S
C301 C297 1.376 . S
C301 C300 1.392 . S
C301 H313 0.929 . S
C302 C298 1.531 1_556 S
C302 H314 0.960 . S
C302 H315 0.962 . S
C302 H316 0.960 . S
C303 C300 1.511 . S
C303 H317 0.961 . S
C303 H318 0.961 1_554 S
C303 H319 0.961 . S
C304 C305 1.370 . S
C304 C306 1.363 . S
C304 H320 0.931 . S
C305 C304 1.370 . S
C305 C309 1.408 . S
C306 C304 1.363 . S
C306 C307 1.370 . S
C306 C310 1.524 . S
C307 C299 1.503 . S
C307 C306 1.370 . S
C307 C308 1.403 . S
C308 C307 1.403 . S
C308 C309 1.404 . S
C308 C311 1.539 . S
C309 C305 1.408 . S
C309 C308 1.404 . S
C309 H321 0.930 . S
C310 C306 1.524 . S
C310 H322 0.956 . S
C310 H323 0.961 . S
C310 H324 0.961 . S
C311 C308 1.539 . S
C311 H325 0.958 . S
C311 H326 0.961 . S
C311 H327 0.960 1_556 S
H312 C296 0.931 . S
H313 C301 0.929 . S
H314 C302 0.960 . S
H315 C302 0.962 . S
H316 C302 0.960 . S
H317 C303 0.961 . S
H318 C303 0.961 1_556 S
H319 C303 0.961 . S
H320 C304 0.931 . S
H321 C309 0.930 . S
H322 C310 0.956 . S
H323 C310 0.961 . S
H324 C310 0.961 . S
H325 C311 0.958 . S
H326 C311 0.961 . S
H327 C311 0.960 1_554 S
C328 C329 1.391 . S
C328 C330 1.394 . S
C328 H344 0.931 . S
C329 C328 1.391 . S
C329 C333 1.376 . S
C330 C328 1.394 . S
C330 C331 1.369 . S
C330 C334 1.531 . S
C331 C330 1.369 . S
C331 C332 1.410 . S
C331 C339 1.503 . S
C332 C331 1.410 . S
C332 C333 1.392 . S
C332 C335 1.511 . S
C333 C329 1.376 . S
C333 C332 1.392 . S
C333 H345 0.929 . S
C334 C330 1.531 . S
C334 H346 0.960 . S
C334 H347 0.962 . S
C334 H348 0.960 . S
C335 C332 1.511 . S
C335 H349 0.961 . S
C335 H350 0.961 . S
C335 H351 0.961 . S
C336 C337 1.370 . S
C336 C338 1.363 . S
C336 H352 0.931 . S
C337 C336 1.370 . S
C337 C341 1.408 . S
C338 C336 1.363 . S
C338 C339 1.370 . S
C338 C342 1.524 . S
C339 C331 1.503 . S
C339 C338 1.370 . S
C339 C340 1.403 . S
C340 C339 1.403 . S
C340 C341 1.404 . S
C340 C343 1.539 . S
C341 C337 1.408 . S
C341 C340 1.404 . S
C341 H353 0.930 . S
C342 C338 1.524 . S
C342 H354 0.956 . S
C342 H355 0.961 . S
C342 H356 0.961 . S
C343 C340 1.539 . S
C343 H357 0.958 . S
C343 H358 0.961 . S
C343 H359 0.960 . S
H344 C328 0.931 . S
H345 C333 0.929 . S
H346 C334 0.960 . S
H347 C334 0.962 . S
H348 C334 0.960 . S
H349 C335 0.961 . S
H350 C335 0.961 . S
H351 C335 0.961 . S
H352 C336 0.931 . S
H353 C341 0.930 . S
H354 C342 0.956 . S
H355 C342 0.961 . S
H356 C342 0.961 . S
H357 C343 0.958 . S
H358 C343 0.961 . S
H359 C343 0.960 . S
C360 C361 1.391 . S
C360 C362 1.394 . S
C360 H376 0.931 . S
C361 C360 1.391 . S
C361 C365 1.376 . S
C362 C360 1.394 . S
C362 C363 1.369 . S
C362 C366 1.531 . S
C363 C362 1.369 . S
C363 C364 1.410 . S
C363 C371 1.503 . S
C364 C363 1.410 . S
C364 C365 1.392 . S
C364 C367 1.511 . S
C365 C361 1.376 . S
C365 C364 1.392 . S
C365 H377 0.929 . S
C366 C362 1.531 . S
C366 H378 0.960 . S
C366 H379 0.962 . S
C366 H380 0.960 . S
C367 C364 1.511 . S
C367 H381 0.961 . S
C367 H382 0.961 . S
C367 H383 0.961 . S
C368 C369 1.370 . S
C368 C370 1.363 . S
C368 H384 0.931 . S
C369 C368 1.370 . S
C369 C373 1.408 . S
C370 C368 1.363 . S
C370 C371 1.370 . S
C370 C374 1.524 . S
C371 C363 1.503 . S
C371 C370 1.370 . S
C371 C372 1.403 . S
C372 C371 1.403 . S
C372 C373 1.404 . S
C372 C375 1.539 . S
C373 C369 1.408 . S
C373 C372 1.404 . S
C373 H385 0.930 . S
C374 C370 1.524 . S
C374 H386 0.956 . S
C374 H387 0.961 . S
C374 H388 0.961 . S
C375 C372 1.539 . S
C375 H389 0.958 . S
C375 H390 0.961 . S
C375 H391 0.960 . S
H376 C360 0.931 . S
H377 C365 0.929 . S
H378 C366 0.960 . S
H379 C366 0.962 . S
H380 C366 0.960 . S
H381 C367 0.961 . S
H382 C367 0.961 . S
H383 C367 0.961 . S
H384 C368 0.931 . S
H385 C373 0.930 . S
H386 C374 0.956 . S
H387 C374 0.961 . S
H388 C374 0.961 . S
H389 C375 0.958 . S
H390 C375 0.961 . S
H391 C375 0.960 . S
C392 C393 1.391 . S
C392 C394 1.394 . S
C392 H408 0.931 . S
C393 C392 1.391 . S
C393 C397 1.376 . S
C394 C392 1.394 . S
C394 C395 1.369 . S
C394 C398 1.531 . S
C395 C394 1.369 . S
C395 C396 1.410 . S
C395 C403 1.503 . S
C396 C395 1.410 . S
C396 C397 1.392 . S
C396 C399 1.511 . S
C397 C393 1.376 . S
C397 C396 1.392 . S
C397 H409 0.929 . S
C398 C394 1.531 . S
C398 H410 0.960 . S
C398 H411 0.962 . S
C398 H412 0.960 . S
C399 C396 1.511 . S
C399 H413 0.961 . S
C399 H414 0.961 . S
C399 H415 0.961 . S
C400 C401 1.370 . S
C400 C402 1.363 . S
C400 H416 0.931 . S
C401 C400 1.370 . S
C401 C405 1.408 . S
C402 C400 1.363 . S
C402 C403 1.370 . S
C402 C406 1.524 . S
C403 C395 1.503 . S
C403 C402 1.370 . S
C403 C404 1.403 . S
C404 C403 1.403 . S
C404 C405 1.404 . S
C404 C407 1.539 . S
C405 C401 1.408 . S
C405 C404 1.404 . S
C405 H417 0.930 . S
C406 C402 1.524 . S
C406 H418 0.956 . S
C406 H419 0.961 . S
C406 H420 0.961 . S
C407 C404 1.539 . S
C407 H421 0.958 . S
C407 H422 0.961 . S
C407 H423 0.960 . S
H408 C392 0.931 . S
H409 C397 0.929 . S
H410 C398 0.960 . S
H411 C398 0.962 . S
H412 C398 0.960 . S
H413 C399 0.961 . S
H414 C399 0.961 . S
H415 C399 0.961 . S
H416 C400 0.931 . S
H417 C405 0.930 . S
H418 C406 0.956 . S
H419 C406 0.961 . S
H420 C406 0.961 . S
H421 C407 0.958 . S
H422 C407 0.961 . S
H423 C407 0.960 . S
C424 C425 1.391 . S
C424 C426 1.394 . S
C424 H440 0.931 . S
C425 C424 1.391 . S
C425 C429 1.376 . S
C426 C424 1.394 . S
C426 C427 1.369 . S
C426 C430 1.531 . S
C427 C426 1.369 . S
C427 C428 1.410 . S
C427 C435 1.503 . S
C428 C427 1.410 . S
C428 C429 1.392 . S
C428 C431 1.511 . S
C429 C425 1.376 . S
C429 C428 1.392 . S
C429 H441 0.929 . S
C430 C426 1.531 . S
C430 H442 0.960 . S
C430 H443 0.962 . S
C430 H444 0.960 . S
C431 C428 1.511 . S
C431 H445 0.961 . S
C431 H446 0.961 . S
C431 H447 0.961 . S
C432 C433 1.370 . S
C432 C434 1.363 . S
C432 H448 0.931 . S
C433 C432 1.370 . S
C433 C437 1.408 . S
C434 C432 1.363 . S
C434 C435 1.370 . S
C434 C438 1.524 . S
C435 C427 1.503 . S
C435 C434 1.370 . S
C435 C436 1.403 . S
C436 C435 1.403 . S
C436 C437 1.404 . S
C436 C439 1.539 . S
C437 C433 1.408 . S
C437 C436 1.404 . S
C437 H449 0.930 . S
C438 C434 1.524 . S
C438 H450 0.956 . S
C438 H451 0.961 . S
C438 H452 0.961 . S
C439 C436 1.539 . S
C439 H453 0.958 . S
C439 H454 0.961 . S
C439 H455 0.960 . S
H440 C424 0.931 . S
H441 C429 0.929 . S
H442 C430 0.960 . S
H443 C430 0.962 . S
H444 C430 0.960 . S
H445 C431 0.961 . S
H446 C431 0.961 . S
H447 C431 0.961 . S
H448 C432 0.931 . S
H449 C437 0.930 . S
H450 C438 0.956 . S
H451 C438 0.961 . S
H452 C438 0.961 . S
H453 C439 0.958 . S
H454 C439 0.961 . S
H455 C439 0.960 . S
C456 C457 1.391 . S
C456 C458 1.394 . S
C456 H472 0.931 . S
C457 C456 1.391 . S
C457 C461 1.376 . S
C458 C456 1.394 . S
C458 C459 1.369 . S
C458 C462 1.531 . S
C459 C458 1.369 . S
C459 C460 1.410 . S
C459 C467 1.503 . S
C460 C459 1.410 . S
C460 C461 1.392 . S
C460 C463 1.511 . S
C461 C457 1.376 . S
C461 C460 1.392 . S
C461 H473 0.929 . S
C462 C458 1.531 . S
C462 H474 0.960 . S
C462 H475 0.962 . S
C462 H476 0.960 . S
C463 C460 1.511 . S
C463 H477 0.961 . S
C463 H478 0.961 . S
C463 H479 0.961 . S
C464 C465 1.370 . S
C464 C466 1.363 . S
C464 H480 0.931 . S
C465 C464 1.370 . S
C465 C469 1.408 . S
C466 C464 1.363 . S
C466 C467 1.370 . S
C466 C470 1.524 . S
C467 C459 1.503 . S
C467 C466 1.370 . S
C467 C468 1.403 . S
C468 C467 1.403 . S
C468 C469 1.404 . S
C468 C471 1.539 . S
C469 C465 1.408 . S
C469 C468 1.404 . S
C469 H481 0.930 . S
C470 C466 1.524 . S
C470 H482 0.956 . S
C470 H483 0.961 . S
C470 H484 0.961 . S
C471 C468 1.539 . S
C471 H485 0.958 . S
C471 H486 0.961 . S
C471 H487 0.960 . S
H472 C456 0.931 . S
H473 C461 0.929 . S
H474 C462 0.960 . S
H475 C462 0.962 . S
H476 C462 0.960 . S
H477 C463 0.961 . S
H478 C463 0.961 . S
H479 C463 0.961 . S
H480 C464 0.931 . S
H481 C469 0.930 . S
H482 C470 0.956 . S
H483 C470 0.961 . S
H484 C470 0.961 . S
H485 C471 0.958 . S
H486 C471 0.961 . S
H487 C471 0.960 . S
C488 C489 1.391 . S
C488 C490 1.394 . S
C488 H504 0.931 . S
C489 C488 1.391 . S
C489 C493 1.376 . S
C490 C488 1.394 . S
C490 C491 1.369 . S
C490 C494 1.531 . S
C491 C490 1.369 . S
C491 C492 1.410 . S
C491 C499 1.503 . S
C492 C491 1.410 . S
C492 C493 1.392 . S
C492 C495 1.511 . S
C493 C489 1.376 . S
C493 C492 1.392 . S
C493 H505 0.929 . S
C494 C490 1.531 . S
C494 H506 0.960 . S
C494 H507 0.962 . S
C494 H508 0.960 . S
C495 C492 1.511 . S
C495 H509 0.961 . S
C495 H510 0.961 . S
C495 H511 0.961 . S
C496 C497 1.370 . S
C496 C498 1.363 . S
C496 H512 0.931 . S
C497 C496 1.370 . S
C497 C501 1.408 . S
C498 C496 1.363 . S
C498 C499 1.370 . S
C498 C502 1.524 . S
C499 C491 1.503 . S
C499 C498 1.370 . S
C499 C500 1.403 . S
C500 C499 1.403 . S
C500 C501 1.404 . S
C500 C503 1.539 . S
C501 C497 1.408 . S
C501 C500 1.404 . S
C501 H513 0.930 . S
C502 C498 1.524 . S
C502 H514 0.956 . S
C502 H515 0.961 . S
C502 H516 0.961 . S
C503 C500 1.539 . S
C503 H517 0.958 . S
C503 H518 0.961 . S
C503 H519 0.960 . S
H504 C488 0.931 . S
H505 C493 0.929 . S
H506 C494 0.960 . S
H507 C494 0.962 . S
H508 C494 0.960 . S
H509 C495 0.961 . S
H510 C495 0.961 . S
H511 C495 0.961 . S
H512 C496 0.931 . S
H513 C501 0.930 . S
H514 C502 0.956 . S
H515 C502 0.961 . S
H516 C502 0.961 . S
H517 C503 0.958 . S
H518 C503 0.961 . S
H519 C503 0.960 . S
C520 C521 1.391 . S
C520 C522 1.394 . S
C520 H536 0.931 . S
C521 C520 1.391 . S
C521 C525 1.376 . S
C522 C520 1.394 . S
C522 C523 1.369 . S
C522 C526 1.531 . S
C523 C522 1.369 . S
C523 C524 1.410 . S
C523 C531 1.503 . S
C524 C523 1.410 . S
C524 C525 1.392 . S
C524 C527 1.511 1_556 S
C525 C521 1.376 . S
C525 C524 1.392 . S
C525 H537 0.929 1_556 S
C526 C522 1.531 . S
C526 H538 0.960 . S
C526 H539 0.962 . S
C526 H540 0.960 . S
C527 C524 1.511 1_554 S
C527 H541 0.961 . S
C527 H542 0.961 . S
C527 H543 0.961 . S
C528 C529 1.369 1_556 S
C528 C530 1.363 . S
C528 H544 0.931 . S
C529 C528 1.369 1_554 S
C529 C533 1.408 1_554 S
C530 C528 1.363 . S
C530 C531 1.370 . S
C530 C534 1.524 . S
C531 C523 1.503 . S
C531 C530 1.370 . S
C531 C532 1.403 . S
C532 C531 1.403 . S
C532 C533 1.404 . S
C532 C535 1.539 . S
C533 C529 1.408 1_556 S
C533 C532 1.404 . S
C533 H545 0.930 1_556 S
C534 C530 1.524 . S
C534 H546 0.956 . S
C534 H547 0.961 . S
C534 H548 0.961 . S
C535 C532 1.539 . S
C535 H549 0.958 . S
C535 H550 0.961 1_556 S
C535 H551 0.960 . S
H536 C520 0.931 . S
H537 C525 0.929 1_554 S
H538 C526 0.960 . S
H539 C526 0.962 . S
H540 C526 0.960 . S
H541 C527 0.961 . S
H542 C527 0.961 . S
H543 C527 0.961 . S
H544 C528 0.931 . S
H545 C533 0.930 1_554 S
H546 C534 0.956 . S
H547 C534 0.961 . S
H548 C534 0.961 . S
H549 C535 0.958 . S
H550 C535 0.961 1_554 S
H551 C535 0.960 . S
C552 C553 1.391 . S
C552 C554 1.394 . S
C552 H568 0.931 . S
C553 C552 1.391 . S
C553 C557 1.376 . S
C554 C552 1.394 . S
C554 C555 1.369 . S
C554 C558 1.531 . S
C555 C554 1.369 . S
C555 C556 1.410 . S
C555 C563 1.503 . S
C556 C555 1.410 . S
C556 C557 1.392 . S
C556 C559 1.511 . S
C557 C553 1.376 . S
C557 C556 1.392 . S
C557 H569 0.929 . S
C558 C554 1.531 . S
C558 H570 0.960 . S
C558 H571 0.962 . S
C558 H572 0.960 . S
C559 C556 1.511 . S
C559 H573 0.961 . S
C559 H574 0.961 . S
C559 H575 0.961 . S
C560 C561 1.370 . S
C560 C562 1.363 . S
C560 H576 0.931 . S
C561 C560 1.370 . S
C561 C565 1.408 . S
C562 C560 1.363 . S
C562 C563 1.370 . S
C562 C566 1.524 . S
C563 C555 1.503 . S
C563 C562 1.370 . S
C563 C564 1.403 . S
C564 C563 1.403 . S
C564 C565 1.404 . S
C564 C567 1.539 . S
C565 C561 1.408 . S
C565 C564 1.404 . S
C565 H577 0.930 . S
C566 C562 1.524 . S
C566 H578 0.956 . S
C566 H579 0.961 . S
C566 H580 0.961 . S
C567 C564 1.539 . S
C567 H581 0.958 . S
C567 H582 0.961 . S
C567 H583 0.960 . S
H568 C552 0.931 . S
H569 C557 0.929 . S
H570 C558 0.960 . S
H571 C558 0.962 . S
H572 C558 0.960 . S
H573 C559 0.961 . S
H574 C559 0.961 . S
H575 C559 0.961 . S
H576 C560 0.931 . S
H577 C565 0.930 . S
H578 C566 0.956 . S
H579 C566 0.961 . S
H580 C566 0.961 . S
H581 C567 0.958 . S
H582 C567 0.961 . S
H583 C567 0.960 . S
C584 C585 1.391 . S
C584 C586 1.394 . S
C584 H600 0.931 . S
C585 C584 1.391 . S
C585 C589 1.376 . S
C586 C584 1.394 . S
C586 C587 1.369 . S
C586 C590 1.531 . S
C587 C586 1.369 . S
C587 C588 1.410 . S
C587 C595 1.503 . S
C588 C587 1.410 . S
C588 C589 1.392 . S
C588 C591 1.511 . S
C589 C585 1.376 . S
C589 C588 1.392 . S
C589 H601 0.929 . S
C590 C586 1.531 . S
C590 H602 0.960 . S
C590 H603 0.962 . S
C590 H604 0.960 . S
C591 C588 1.511 . S
C591 H605 0.961 . S
C591 H606 0.961 . S
C591 H607 0.961 . S
C592 C593 1.370 . S
C592 C594 1.363 1_554 S
C592 H608 0.931 . S
C593 C592 1.370 . S
C593 C597 1.408 . S
C594 C592 1.363 1_556 S
C594 C595 1.370 . S
C594 C598 1.524 . S
C595 C587 1.503 . S
C595 C594 1.370 . S
C595 C596 1.403 1_556 S
C596 C595 1.403 1_554 S
C596 C597 1.404 . S
C596 C599 1.539 . S
C597 C593 1.408 . S
C597 C596 1.404 . S
C597 H609 0.930 . S
C598 C594 1.524 . S
C598 H610 0.956 . S
C598 H611 0.961 . S
C598 H612 0.961 . S
C599 C596 1.539 . S
C599 H613 0.958 . S
C599 H614 0.961 . S
C599 H615 0.960 . S
H600 C584 0.931 . S
H601 C589 0.929 . S
H602 C590 0.960 . S
H603 C590 0.962 . S
H604 C590 0.960 . S
H605 C591 0.961 . S
H606 C591 0.961 . S
H607 C591 0.961 . S
H608 C592 0.931 . S
H609 C597 0.930 . S
H610 C598 0.956 . S
H611 C598 0.961 . S
H612 C598 0.961 . S
H613 C599 0.958 . S
H614 C599 0.961 . S
H615 C599 0.960 . S
C616 C617 1.391 . S
C616 C618 1.394 . S
C616 H632 0.931 . S
C617 C616 1.391 . S
C617 C621 1.376 . S
C618 C616 1.394 . S
C618 C619 1.369 . S
C618 C622 1.531 . S
C619 C618 1.369 . S
C619 C620 1.410 . S
C619 C627 1.503 . S
C620 C619 1.410 . S
C620 C621 1.392 . S
C620 C623 1.511 . S
C621 C617 1.376 . S
C621 C620 1.392 . S
C621 H633 0.929 . S
C622 C618 1.531 . S
C622 H634 0.960 . S
C622 H635 0.962 . S
C622 H636 0.960 . S
C623 C620 1.511 . S
C623 H637 0.961 . S
C623 H638 0.961 . S
C623 H639 0.961 . S
C624 C625 1.370 . S
C624 C626 1.363 . S
C624 H640 0.931 . S
C625 C624 1.370 . S
C625 C629 1.408 . S
C626 C624 1.363 . S
C626 C627 1.370 . S
C626 C630 1.524 . S
C627 C619 1.503 . S
C627 C626 1.370 . S
C627 C628 1.403 . S
C628 C627 1.403 . S
C628 C629 1.404 . S
C628 C631 1.539 . S
C629 C625 1.408 . S
C629 C628 1.404 . S
C629 H641 0.930 . S
C630 C626 1.524 . S
C630 H642 0.956 . S
C630 H643 0.961 . S
C630 H644 0.961 . S
C631 C628 1.539 . S
C631 H645 0.958 . S
C631 H646 0.961 . S
C631 H647 0.960 . S
H632 C616 0.931 . S
H633 C621 0.929 . S
H634 C622 0.960 . S
H635 C622 0.962 . S
H636 C622 0.960 . S
H637 C623 0.961 . S
H638 C623 0.961 . S
H639 C623 0.961 . S
H640 C624 0.931 . S
H641 C629 0.930 . S
H642 C630 0.956 . S
H643 C630 0.961 . S
H644 C630 0.961 . S
H645 C631 0.958 . S
H646 C631 0.961 . S
H647 C631 0.960 . S
C648 C649 1.391 . S
C648 C650 1.394 . S
C648 H664 0.931 . S
C649 C648 1.391 . S
C649 C653 1.376 . S
C650 C648 1.394 . S
C650 C651 1.369 . S
C650 C654 1.531 . S
C651 C650 1.369 . S
C651 C652 1.410 . S
C651 C659 1.503 . S
C652 C651 1.410 . S
C652 C653 1.392 . S
C652 C655 1.511 . S
C653 C649 1.376 . S
C653 C652 1.392 . S
C653 H665 0.929 . S
C654 C650 1.531 . S
C654 H666 0.960 . S
C654 H667 0.962 . S
C654 H668 0.960 . S
C655 C652 1.511 . S
C655 H669 0.961 . S
C655 H670 0.961 . S
C655 H671 0.961 . S
C656 C657 1.370 . S
C656 C658 1.363 . S
C656 H672 0.931 . S
C657 C656 1.370 . S
C657 C661 1.408 . S
C658 C656 1.363 . S
C658 C659 1.370 . S
C658 C662 1.524 . S
C659 C651 1.503 . S
C659 C658 1.370 . S
C659 C660 1.403 . S
C660 C659 1.403 . S
C660 C661 1.404 . S
C660 C663 1.539 . S
C661 C657 1.408 . S
C661 C660 1.404 . S
C661 H673 0.930 . S
C662 C658 1.524 . S
C662 H674 0.956 . S
C662 H675 0.961 . S
C662 H676 0.961 . S
C663 C660 1.539 . S
C663 H677 0.958 . S
C663 H678 0.961 . S
C663 H679 0.960 . S
H664 C648 0.931 . S
H665 C653 0.929 . S
H666 C654 0.960 . S
H667 C654 0.962 . S
H668 C654 0.960 . S
H669 C655 0.961 . S
H670 C655 0.961 . S
H671 C655 0.961 . S
H672 C656 0.931 . S
H673 C661 0.930 . S
H674 C662 0.956 . S
H675 C662 0.961 . S
H676 C662 0.961 . S
H677 C663 0.958 . S
H678 C663 0.961 . S
H679 C663 0.960 . S
C680 C681 1.391 . S
C680 C682 1.394 . S
C680 H696 0.931 . S
C681 C680 1.391 . S
C681 C685 1.376 . S
C682 C680 1.394 . S
C682 C683 1.369 . S
C682 C686 1.531 . S
C683 C682 1.369 . S
C683 C684 1.410 . S
C683 C691 1.503 . S
C684 C683 1.410 . S
C684 C685 1.392 . S
C684 C687 1.511 . S
C685 C681 1.376 . S
C685 C684 1.392 . S
C685 H697 0.929 . S
C686 C682 1.531 . S
C686 H698 0.960 . S
C686 H699 0.962 . S
C686 H700 0.960 . S
C687 C684 1.511 . S
C687 H701 0.961 . S
C687 H702 0.961 . S
C687 H703 0.961 . S
C688 C689 1.370 . S
C688 C690 1.363 . S
C688 H704 0.931 . S
C689 C688 1.370 . S
C689 C693 1.408 . S
C690 C688 1.363 . S
C690 C691 1.370 . S
C690 C694 1.524 . S
C691 C683 1.503 . S
C691 C690 1.370 . S
C691 C692 1.403 . S
C692 C691 1.403 . S
C692 C693 1.404 . S
C692 C695 1.539 . S
C693 C689 1.408 . S
C693 C692 1.404 . S
C693 H705 0.930 . S
C694 C690 1.524 . S
C694 H706 0.956 . S
C694 H707 0.961 . S
C694 H708 0.961 . S
C695 C692 1.539 . S
C695 H709 0.958 . S
C695 H710 0.961 . S
C695 H711 0.960 . S
H696 C680 0.931 . S
H697 C685 0.929 . S
H698 C686 0.960 . S
H699 C686 0.962 . S
H700 C686 0.960 . S
H701 C687 0.961 . S
H702 C687 0.961 . S
H703 C687 0.961 . S
H704 C688 0.931 . S
H705 C693 0.930 . S
H706 C694 0.956 . S
H707 C694 0.961 . S
H708 C694 0.961 . S
H709 C695 0.958 . S
H710 C695 0.961 . S
H711 C695 0.960 . S
C712 C713 1.391 . S
C712 C714 1.394 . S
C712 H728 0.931 . S
C713 C712 1.391 . S
C713 C717 1.376 . S
C714 C712 1.394 . S
C714 C715 1.369 . S
C714 C718 1.531 . S
C715 C714 1.369 . S
C715 C716 1.410 . S
C715 C723 1.503 . S
C716 C715 1.410 . S
C716 C717 1.392 . S
C716 C719 1.511 . S
C717 C713 1.376 . S
C717 C716 1.392 . S
C717 H729 0.929 . S
C718 C714 1.531 . S
C718 H730 0.960 . S
C718 H731 0.962 . S
C718 H732 0.960 . S
C719 C716 1.511 . S
C719 H733 0.961 . S
C719 H734 0.961 . S
C719 H735 0.961 . S
C720 C721 1.370 . S
C720 C722 1.363 . S
C720 H736 0.931 . S
C721 C720 1.370 . S
C721 C725 1.408 . S
C722 C720 1.363 . S
C722 C723 1.370 . S
C722 C726 1.524 . S
C723 C715 1.503 . S
C723 C722 1.370 . S
C723 C724 1.403 . S
C724 C723 1.403 . S
C724 C725 1.404 . S
C724 C727 1.539 . S
C725 C721 1.408 . S
C725 C724 1.404 . S
C725 H737 0.930 . S
C726 C722 1.524 . S
C726 H738 0.956 . S
C726 H739 0.961 . S
C726 H740 0.961 . S
C727 C724 1.539 . S
C727 H741 0.958 . S
C727 H742 0.961 . S
C727 H743 0.960 . S
H728 C712 0.931 . S
H729 C717 0.929 . S
H730 C718 0.960 . S
H731 C718 0.962 . S
H732 C718 0.960 . S
H733 C719 0.961 . S
H734 C719 0.961 . S
H735 C719 0.961 . S
H736 C720 0.931 . S
H737 C725 0.930 . S
H738 C726 0.956 . S
H739 C726 0.961 . S
H740 C726 0.961 . S
H741 C727 0.958 . S
H742 C727 0.961 . S
H743 C727 0.960 . S
C744 C745 1.391 . S
C744 C746 1.394 . S
C744 H760 0.931 . S
C745 C744 1.391 . S
C745 C749 1.376 . S
C746 C744 1.394 . S
C746 C747 1.369 . S
C746 C750 1.531 . S
C747 C746 1.369 . S
C747 C748 1.410 . S
C747 C755 1.503 1_545 S
C748 C747 1.410 . S
C748 C749 1.392 . S
C748 C751 1.511 . S
C749 C745 1.376 . S
C749 C748 1.392 . S
C749 H761 0.929 . S
C750 C746 1.531 . S
C750 H762 0.960 1_554 S
C750 H763 0.962 . S
C750 H764 0.960 1_554 S
C751 C748 1.511 . S
C751 H765 0.961 . S
C751 H766 0.961 1_545 S
C751 H767 0.961 . S
C752 C753 1.370 . S
C752 C754 1.363 . S
C752 H768 0.931 . S
C753 C752 1.370 . S
C753 C757 1.416 . S
C754 C752 1.363 . S
C754 C755 1.370 . S
C754 C758 1.524 . S
C755 C747 1.503 1_565 S
C755 C754 1.370 . S
C755 C756 1.403 . S
C756 C755 1.403 . S
C756 C757 1.404 . S
C756 C759 1.539 1_554 S
C757 C753 1.416 . S
C757 C756 1.404 . S
C757 H769 0.922 1_554 S
C758 C754 1.524 . S
C758 H770 0.956 . S
C758 H771 0.961 . S
C758 H772 0.961 . S
C759 C756 1.539 1_556 S
C759 H773 0.958 . S
C759 H774 0.961 . S
C759 H775 0.960 1_565 S
H760 C744 0.931 . S
H761 C749 0.929 . S
H762 C750 0.960 1_556 S
H763 C750 0.962 . S
H764 C750 0.960 1_556 S
H765 C751 0.961 . S
H766 C751 0.961 1_565 S
H767 C751 0.961 . S
H768 C752 0.931 . S
H769 C757 0.922 1_556 S
H770 C758 0.956 . S
H771 C758 0.961 . S
H772 C758 0.961 . S
H773 C759 0.958 . S
H774 C759 0.961 . S
H775 C759 0.960 1_545 S
C776 C777 1.391 . S
C776 C778 1.394 . S
C776 H792 0.931 . S
C777 C776 1.391 . S
C777 C781 1.376 . S
C778 C776 1.394 . S
C778 C779 1.369 . S
C778 C782 1.531 . S
C779 C778 1.369 . S
C779 C780 1.410 . S
C779 C787 1.503 . S
C780 C779 1.410 . S
C780 C781 1.392 . S
C780 C783 1.511 . S
C781 C777 1.376 . S
C781 C780 1.392 . S
C781 H793 0.929 . S
C782 C778 1.531 . S
C782 H794 0.960 . S
C782 H795 0.962 . S
C782 H796 0.960 . S
C783 C780 1.511 . S
C783 H797 0.961 . S
C783 H798 0.961 . S
C783 H799 0.961 . S
C784 C785 1.370 . S
C784 C786 1.363 . S
C784 H800 0.931 . S
C785 C784 1.370 . S
C785 C789 1.408 . S
C786 C784 1.363 . S
C786 C787 1.370 . S
C786 C790 1.524 . S
C787 C779 1.503 . S
C787 C786 1.370 . S
C787 C788 1.403 . S
C788 C787 1.403 . S
C788 C789 1.404 . S
C788 C791 1.539 . S
C789 C785 1.408 . S
C789 C788 1.404 . S
C789 H801 0.930 . S
C790 C786 1.524 . S
C790 H802 0.956 . S
C790 H803 0.961 . S
C790 H804 0.961 . S
C791 C788 1.539 . S
C791 H805 0.958 . S
C791 H806 0.961 . S
C791 H807 0.960 . S
H792 C776 0.931 . S
H793 C781 0.929 . S
H794 C782 0.960 . S
H795 C782 0.962 . S
H796 C782 0.960 . S
H797 C783 0.961 . S
H798 C783 0.961 . S
H799 C783 0.961 . S
H800 C784 0.931 . S
H801 C789 0.930 . S
H802 C790 0.956 . S
H803 C790 0.961 . S
H804 C790 0.961 . S
H805 C791 0.958 . S
H806 C791 0.961 . S
H807 C791 0.960 . S
C808 C809 1.391 . S
C808 C810 1.394 . S
C808 H824 0.931 . S
C809 C808 1.391 . S
C809 C813 1.376 . S
C810 C808 1.394 . S
C810 C811 1.369 . S
C810 C814 1.531 . S
C811 C810 1.369 . S
C811 C812 1.410 . S
C811 C819 1.503 1_455 S
C812 C811 1.410 . S
C812 C813 1.392 . S
C812 C815 1.511 . S
C813 C809 1.376 . S
C813 C812 1.392 . S
C813 H825 0.929 . S
C814 C810 1.531 . S
C814 H826 0.963 . S
C814 H827 0.962 . S
C814 H828 0.960 . S
C815 C812 1.511 . S
C815 H829 0.961 . S
C815 H830 0.961 1_455 S
C815 H831 0.961 . S
C816 C817 1.370 . S
C816 C818 1.363 . S
C816 H832 0.931 . S
C817 C816 1.370 . S
C817 C821 1.408 . S
C818 C816 1.363 . S
C818 C819 1.370 . S
C818 C822 1.524 . S
C819 C811 1.503 1_655 S
C819 C818 1.370 . S
C819 C820 1.403 . S
C820 C819 1.403 . S
C820 C821 1.404 . S
C820 C823 1.539 . S
C821 C817 1.408 . S
C821 C820 1.404 . S
C821 H833 0.930 . S
C822 C818 1.524 . S
C822 H834 0.956 . S
C822 H835 0.961 . S
C822 H836 0.961 . S
C823 C820 1.539 . S
C823 H837 0.958 . S
C823 H838 0.961 . S
C823 H839 0.960 1_655 S
H824 C808 0.931 . S
H825 C813 0.929 . S
H826 C814 0.963 . S
H827 C814 0.962 . S
H828 C814 0.960 . S
H829 C815 0.961 . S
H830 C815 0.961 1_655 S
H831 C815 0.961 . S
H832 C816 0.931 . S
H833 C821 0.930 . S
H834 C822 0.956 . S
H835 C822 0.961 . S
H836 C822 0.961 . S
H837 C823 0.958 . S
H838 C823 0.961 . S
H839 C823 0.960 1_455 S
C840 C841 1.391 . S
C840 C842 1.394 . S
C840 H856 0.931 . S
C841 C840 1.391 . S
C841 C845 1.376 . S
C842 C840 1.394 . S
C842 C843 1.369 . S
C842 C846 1.531 . S
C843 C842 1.369 . S
C843 C844 1.410 . S
C843 C851 1.503 1_565 S
C844 C843 1.410 . S
C844 C845 1.392 . S
C844 C847 1.511 . S
C845 C841 1.376 . S
C845 C844 1.392 . S
C845 H857 0.929 . S
C846 C842 1.531 . S
C846 H858 0.960 1_565 S
C846 H859 0.962 . S
C846 H860 0.960 . S
C847 C844 1.511 . S
C847 H861 0.961 . S
C847 H862 1.000 . S
C847 H863 0.961 . S
C848 C849 1.370 . S
C848 C850 1.363 . S
C848 H864 0.931 . S
C849 C848 1.370 . S
C849 C853 1.408 . S
C850 C848 1.363 . S
C850 C851 1.370 . S
C850 C854 1.524 . S
C851 C843 1.503 1_545 S
C851 C850 1.370 . S
C851 C852 1.403 . S
C852 C851 1.403 . S
C852 C853 1.404 . S
C852 C855 1.539 . S
C853 C849 1.408 . S
C853 C852 1.404 . S
C853 H865 0.930 . S
C854 C850 1.524 . S
C854 H866 0.956 . S
C854 H867 0.961 . S
C854 H868 0.961 . S
C855 C852 1.539 . S
C855 H869 0.958 . S
C855 H870 0.961 . S
C855 H871 0.960 1_545 S
H856 C840 0.931 . S
H857 C845 0.929 . S
H858 C846 0.960 1_545 S
H859 C846 0.962 . S
H860 C846 0.960 . S
H861 C847 0.961 . S
H862 C847 1.000 . S
H863 C847 0.961 . S
H864 C848 0.931 . S
H865 C853 0.930 . S
H866 C854 0.956 . S
H867 C854 0.961 . S
H868 C854 0.961 . S
H869 C855 0.958 . S
H870 C855 0.961 . S
H871 C855 0.960 1_565 S
C872 C873 1.391 . S
C872 C874 1.394 . S
C872 H888 0.931 . S
C873 C872 1.391 . S
C873 C877 1.376 . S
C874 C872 1.394 . S
C874 C875 1.369 . S
C874 C878 1.531 . S
C875 C874 1.369 . S
C875 C876 1.410 . S
C875 C883 1.503 . S
C876 C875 1.410 . S
C876 C877 1.392 . S
C876 C879 1.511 . S
C877 C873 1.376 . S
C877 C876 1.392 . S
C877 H889 0.929 . S
C878 C874 1.531 . S
C878 H890 0.960 . S
C878 H891 0.962 . S
C878 H892 0.960 . S
C879 C876 1.511 . S
C879 H893 0.961 . S
C879 H894 0.961 . S
C879 H895 0.961 . S
C880 C881 1.370 . S
C880 C882 1.363 . S
C880 H896 0.931 . S
C881 C880 1.370 . S
C881 C885 1.408 . S
C882 C880 1.363 . S
C882 C883 1.370 . S
C882 C886 1.524 . S
C883 C875 1.503 . S
C883 C882 1.370 . S
C883 C884 1.403 . S
C884 C883 1.403 . S
C884 C885 1.404 . S
C884 C887 1.539 . S
C885 C881 1.408 . S
C885 C884 1.404 . S
C885 H897 0.930 . S
C886 C882 1.524 . S
C886 H898 0.956 . S
C886 H899 0.961 . S
C886 H900 0.961 . S
C887 C884 1.539 . S
C887 H901 0.958 . S
C887 H902 0.961 . S
C887 H903 0.960 . S
H888 C872 0.931 . S
H889 C877 0.929 . S
H890 C878 0.960 . S
H891 C878 0.962 . S
H892 C878 0.960 . S
H893 C879 0.961 . S
H894 C879 0.961 . S
H895 C879 0.961 . S
H896 C880 0.931 . S
H897 C885 0.930 . S
H898 C886 0.956 . S
H899 C886 0.961 . S
H900 C886 0.961 . S
H901 C887 0.958 . S
H902 C887 0.961 . S
H903 C887 0.960 . S
C904 C905 1.391 . S
C904 C906 1.394 . S
C904 H920 0.931 . S
C905 C904 1.391 . S
C905 C909 1.376 . S
C906 C904 1.394 . S
C906 C907 1.369 . S
C906 C910 1.531 . S
C907 C906 1.369 . S
C907 C908 1.410 . S
C907 C915 1.503 1_455 S
C908 C907 1.410 . S
C908 C909 1.392 . S
C908 C911 1.511 . S
C909 C905 1.376 . S
C909 C908 1.392 . S
C909 H921 0.929 . S
C910 C906 1.531 . S
C910 H922 0.959 1_455 S
C910 H923 0.962 . S
C910 H924 0.960 . S
C911 C908 1.511 . S
C911 H925 0.961 . S
C911 H926 0.961 1_455 S
C911 H927 0.961 . S
C912 C913 1.370 . S
C912 C914 1.363 . S
C912 H928 0.931 . S
C913 C912 1.370 . S
C913 C917 1.408 . S
C914 C912 1.363 . S
C914 C915 1.370 . S
C914 C918 1.524 . S
C915 C907 1.503 1_655 S
C915 C914 1.370 . S
C915 C916 1.403 . S
C916 C915 1.403 . S
C916 C917 1.404 . S
C916 C919 1.539 . S
C917 C913 1.408 . S
C917 C916 1.404 . S
C917 H929 0.930 . S
C918 C914 1.524 . S
C918 H930 0.956 . S
C918 H931 0.961 . S
C918 H932 0.961 . S
C919 C916 1.539 . S
C919 H933 0.958 . S
C919 H934 0.961 . S
C919 H935 0.960 1_655 S
H920 C904 0.931 . S
H921 C909 0.929 . S
H922 C910 0.959 1_655 S
H923 C910 0.962 . S
H924 C910 0.960 . S
H925 C911 0.961 . S
H926 C911 0.961 1_655 S
H927 C911 0.961 . S
H928 C912 0.931 . S
H929 C917 0.930 . S
H930 C918 0.956 . S
H931 C918 0.961 . S
H932 C918 0.961 . S
H933 C919 0.958 . S
H934 C919 0.961 . S
H935 C919 0.960 1_455 S
C169 C9 1.625 . S
C177 C149 1.642 . S
C201 C23 1.614 . S
C209 C163 1.643 . S
C233 C93 1.631 . S
C241 C37 1.640 . S
C265 C51 1.621 . S
C273 C107 1.637 . S
C297 C121 1.649 . S
C305 C65 1.630 . S
C329 C135 1.626 . S
C337 C79 1.642 1_554 S
C361 C119 1.383 . S
C369 C7 1.407 . S
C393 C21 1.406 . S
C401 C133 1.402 . S
C425 C147 1.405 . S
C433 C35 1.389 . S
C457 C49 1.390 . S
C465 C161 1.407 . S
C489 C63 1.415 . S
C497 C91 1.395 . S
C521 C77 1.380 . S
C529 C105 1.394 . S
C553 C146 1.331 . S
C561 C6 1.372 . S
C585 C160 1.387 . S
C593 C20 1.353 . S
C617 C90 1.384 1_554 S
C625 C34 1.351 . S
C649 C48 1.358 . S
C657 C104 1.372 . S
C681 C62 1.387 . S
C689 C118 1.354 . S
C713 C132 1.329 . S
C721 C76 1.369 . S
C745 C8 1.268 . S
C753 C106 1.300 . S
C777 C120 1.265 . S
C785 C22 1.296 . S
C809 C134 1.276 . S
C817 C36 1.306 . S
C841 C50 1.303 . S
C849 C148 1.314 . S
C873 C64 1.297 . S
C881 C162 1.313 . S
C905 C78 1.278 . S
C913 C92 1.306 . S
