# Generated by pormake.
# Topology zfw, (5)-cn, num edge types: 1
# Building blocks:
#     Node 0, Type 0, BuildingBlock: XOMCOT_clean_sbu_1, # of connection points: 5
#     Node 1, Type 0, BuildingBlock: XOMCOT_clean_sbu_1, # of connection points: 5
#     Node 2, Type 0, BuildingBlock: XOMCOT_clean_sbu_1, # of connection points: 5
#     Node 3, Type 0, BuildingBlock: XOMCOT_clean_sbu_1, # of connection points: 5
#     Node 4, Type 0, BuildingBlock: XOMCOT_clean_sbu_1, # of connection points: 5
#     Node 5, Type 0, BuildingBlock: XOMCOT_clean_sbu_1, # of connection points: 5
#     Node 6, Type 0, BuildingBlock: XOMCOT_clean_sbu_1, # of connection points: 5
#     Node 7, Type 0, BuildingBlock: XOMCOT_clean_sbu_1, # of connection points: 5
#     Node 8, Type 0, BuildingBlock: XOMCOT_clean_sbu_1, # of connection points: 5
#     Node 9, Type 0, BuildingBlock: XOMCOT_clean_sbu_1, # of connection points: 5
#     Node 10, Type 0, BuildingBlock: XOMCOT_clean_sbu_1, # of connection points: 5
#     Node 11, Type 0, BuildingBlock: XOMCOT_clean_sbu_1, # of connection points: 5
#     Node 12, Type 0, BuildingBlock: XOMCOT_clean_sbu_1, # of connection points: 5
#     Node 13, Type 0, BuildingBlock: XOMCOT_clean_sbu_1, # of connection points: 5
#     Node 14, Type 0, BuildingBlock: XOMCOT_clean_sbu_1, # of connection points: 5
#     Node 15, Type 0, BuildingBlock: XOMCOT_clean_sbu_1, # of connection points: 5
#     Edge 16, Type (0, 0), BuildingBlock: OJICUG_clean_linker_0, # of connection points: 2
#     Edge 17, Type (0, 0), BuildingBlock: OJICUG_clean_linker_0, # of connection points: 2
#     Edge 18, Type (0, 0), BuildingBlock: OJICUG_clean_linker_0, # of connection points: 2
#     Edge 19, Type (0, 0), BuildingBlock: OJICUG_clean_linker_0, # of connection points: 2
#     Edge 20, Type (0, 0), BuildingBlock: OJICUG_clean_linker_0, # of connection points: 2
#     Edge 21, Type (0, 0), BuildingBlock: OJICUG_clean_linker_0, # of connection points: 2
#     Edge 22, Type (0, 0), BuildingBlock: OJICUG_clean_linker_0, # of connection points: 2
#     Edge 23, Type (0, 0), BuildingBlock: OJICUG_clean_linker_0, # of connection points: 2
#     Edge 24, Type (0, 0), BuildingBlock: OJICUG_clean_linker_0, # of connection points: 2
#     Edge 25, Type (0, 0), BuildingBlock: OJICUG_clean_linker_0, # of connection points: 2
#     Edge 26, Type (0, 0), BuildingBlock: OJICUG_clean_linker_0, # of connection points: 2
#     Edge 27, Type (0, 0), BuildingBlock: OJICUG_clean_linker_0, # of connection points: 2
#     Edge 28, Type (0, 0), BuildingBlock: OJICUG_clean_linker_0, # of connection points: 2
#     Edge 29, Type (0, 0), BuildingBlock: OJICUG_clean_linker_0, # of connection points: 2
#     Edge 30, Type (0, 0), BuildingBlock: OJICUG_clean_linker_0, # of connection points: 2
#     Edge 31, Type (0, 0), BuildingBlock: OJICUG_clean_linker_0, # of connection points: 2
#     Edge 32, Type (0, 0), BuildingBlock: OJICUG_clean_linker_0, # of connection points: 2
#     Edge 33, Type (0, 0), BuildingBlock: OJICUG_clean_linker_0, # of connection points: 2
#     Edge 34, Type (0, 0), BuildingBlock: OJICUG_clean_linker_0, # of connection points: 2
#     Edge 35, Type (0, 0), BuildingBlock: OJICUG_clean_linker_0, # of connection points: 2
#     Edge 36, Type (0, 0), BuildingBlock: OJICUG_clean_linker_0, # of connection points: 2
#     Edge 37, Type (0, 0), BuildingBlock: OJICUG_clean_linker_0, # of connection points: 2
#     Edge 38, Type (0, 0), BuildingBlock: OJICUG_clean_linker_0, # of connection points: 2
#     Edge 39, Type (0, 0), BuildingBlock: OJICUG_clean_linker_0, # of connection points: 2
#     Edge 40, Type (0, 0), BuildingBlock: OJICUG_clean_linker_0, # of connection points: 2
#     Edge 41, Type (0, 0), BuildingBlock: OJICUG_clean_linker_0, # of connection points: 2
#     Edge 42, Type (0, 0), BuildingBlock: OJICUG_clean_linker_0, # of connection points: 2
#     Edge 43, Type (0, 0), BuildingBlock: OJICUG_clean_linker_0, # of connection points: 2
#     Edge 44, Type (0, 0), BuildingBlock: OJICUG_clean_linker_0, # of connection points: 2
#     Edge 45, Type (0, 0), BuildingBlock: OJICUG_clean_linker_0, # of connection points: 2
#     Edge 46, Type (0, 0), BuildingBlock: OJICUG_clean_linker_0, # of connection points: 2
#     Edge 47, Type (0, 0), BuildingBlock: OJICUG_clean_linker_0, # of connection points: 2
#     Edge 48, Type (0, 0), BuildingBlock: OJICUG_clean_linker_0, # of connection points: 2
#     Edge 49, Type (0, 0), BuildingBlock: OJICUG_clean_linker_0, # of connection points: 2
#     Edge 50, Type (0, 0), BuildingBlock: OJICUG_clean_linker_0, # of connection points: 2
#     Edge 51, Type (0, 0), BuildingBlock: OJICUG_clean_linker_0, # of connection points: 2
#     Edge 52, Type (0, 0), BuildingBlock: OJICUG_clean_linker_0, # of connection points: 2
#     Edge 53, Type (0, 0), BuildingBlock: OJICUG_clean_linker_0, # of connection points: 2
#     Edge 54, Type (0, 0), BuildingBlock: OJICUG_clean_linker_0, # of connection points: 2
#     Edge 55, Type (0, 0), BuildingBlock: OJICUG_clean_linker_0, # of connection points: 2
# Relax obj value: 0.257
# Max RMSD: 0.204
# Mean RMSD: 0.192
data_MOF--net-zfw--node1-XOMCOT_clean_sbu_1--edge1-OJICUG_clean_linker_0
_symmetry_space_group_name_H-M    P1
_symmetry_Int_Tables_number       1
_symmetry_cell_setting            triclinic
loop_
_symmetry_equiv_pos_as_xyz
'x, y, z'
_cell_length_a     52.749267
_cell_length_b     52.350889
_cell_length_c     13.135157
_cell_angle_alpha  89.991059
_cell_angle_beta   89.996768
_cell_angle_gamma 90.017859
loop_
_atom_site_label
_atom_site_type_symbol
_atom_site_fract_x
_atom_site_fract_y
_atom_site_fract_z
_atom_type_partial_charge
C0 C 0.0694 0.08981 0.31901 0.0
C1 C 0.06621 0.08797 0.42271 0.0
N2 N 0.08915 0.0842 0.46519 0.0
N3 N 0.09425 0.08762 0.29671 0.0
C4 C 0.10566 0.08338 0.38683 0.0
H5 H 0.05484 0.09458 0.26421 0.0
Co6 Co 0.1083 0.09657 0.17223 0.0
C7 C 0.15754 0.12108 0.22263 0.0
O8 O 0.15269 0.1381 0.15162 0.0
N9 N 0.12149 0.10428 0.04329 0.0
C10 C 0.14558 0.09746 0.90673 0.0
C11 C 0.14516 0.09856 0.01073 0.0
C12 C 0.10767 0.10545 0.95665 0.0
N13 N 0.12186 0.10125 0.87258 0.0
O14 O 0.11634 0.06146 0.14465 0.0
H15 H 0.16061 0.09239 0.05873 0.0
H16 H 0.08719 0.10575 0.95584 0.0
O17 O 0.14186 0.10267 0.23747 0.0
C18 C 0.09727 0.05097 0.10209 0.0
O19 O 0.07633 0.06441 0.09347 0.0
N20 N 0.09813 0.1309 0.19899 0.0
C21 C 0.07023 0.17253 0.27507 0.0
C22 C 0.09256 0.16442 0.32285 0.0
C23 C 0.10564 0.14325 0.28592 0.0
C24 C 0.07733 0.13949 0.14764 0.0
C25 C 0.06312 0.1602 0.1842 0.0
H26 H 0.12025 0.13557 0.33418 0.0
H27 H 0.07007 0.12875 0.08398 0.0
H28 H 0.1259 0.08181 0.3959 0.0
H29 H 0.04865 0.0907 0.46392 0.0
H30 H 0.16171 0.09202 0.8607 0.0
H31 H 0.09919 0.1733 0.39233 0.0
H32 H 0.04573 0.16515 0.14528 0.0
C33 C 0.24224 0.74296 0.57193 0.0
C34 C 0.24408 0.73978 0.67564 0.0
N35 N 0.24801 0.76288 0.71796 0.0
N36 N 0.24461 0.76797 0.54946 0.0
C37 C 0.24896 0.77947 0.63947 0.0
H38 H 0.23738 0.72831 0.51726 0.0
Co39 Co 0.23582 0.78217 0.42499 0.0
C40 C 0.21129 0.83165 0.47555 0.0
O41 O 0.1947 0.82687 0.4033 0.0
N42 N 0.22827 0.79551 0.2961 0.0
C43 C 0.2352 0.81981 0.15971 0.0
C44 C 0.23408 0.81935 0.26373 0.0
C45 C 0.22704 0.78163 0.20938 0.0
N46 N 0.2313 0.79594 0.1254 0.0
O47 O 0.27072 0.79031 0.39787 0.0
H48 H 0.24023 0.83487 0.31194 0.0
H49 H 0.22663 0.761 0.20844 0.0
O50 O 0.22962 0.81594 0.49055 0.0
C51 C 0.28111 0.77109 0.35532 0.0
O52 O 0.26769 0.75004 0.34632 0.0
N53 N 0.20169 0.77188 0.45134 0.0
C54 C 0.16004 0.74408 0.52666 0.0
C55 C 0.16824 0.7665 0.57464 0.0
C56 C 0.18944 0.77946 0.53827 0.0
C57 C 0.19303 0.75103 0.3997 0.0
C58 C 0.17232 0.73685 0.43592 0.0
H59 H 0.19718 0.794 0.58701 0.0
H60 H 0.20366 0.74367 0.33605 0.0
H61 H 0.25074 0.79986 0.64833 0.0
H62 H 0.24123 0.72212 0.71697 0.0
H63 H 0.24068 0.83606 0.11379 0.0
H64 H 0.15942 0.77325 0.64398 0.0
H65 H 0.16728 0.71938 0.39683 0.0
C66 C 0.59027 0.9157 0.82699 0.0
C67 C 0.59343 0.91754 0.93071 0.0
N68 N 0.57043 0.92077 0.97334 0.0
N69 N 0.56538 0.91737 0.80469 0.0
C70 C 0.5539 0.92133 0.89494 0.0
H71 H 0.60491 0.91116 0.77223 0.0
Co72 Co 0.55158 0.90764 0.68042 0.0
C73 C 0.50283 0.88234 0.73235 0.0
O74 O 0.50813 0.86516 0.66252 0.0
N75 N 0.53864 0.89913 0.5516 0.0
C76 C 0.51443 0.90519 0.41475 0.0
C77 C 0.51483 0.90415 0.51875 0.0
C78 C 0.55252 0.89828 0.46497 0.0
N79 N 0.53826 0.90209 0.38073 0.0
O80 O 0.54311 0.94256 0.64955 0.0
H81 H 0.49921 0.90999 0.56645 0.0
H82 H 0.57301 0.89854 0.46434 0.0
O83 O 0.51802 0.90124 0.74582 0.0
C84 C 0.5622 0.95274 0.6058 0.0
O85 O 0.5832 0.93931 0.59987 0.0
N86 N 0.56223 0.87356 0.70998 0.0
C87 C 0.59046 0.83248 0.78898 0.0
C88 C 0.56816 0.84073 0.83652 0.0
C89 C 0.55492 0.86163 0.79813 0.0
C90 C 0.58301 0.86483 0.65889 0.0
C91 C 0.5974 0.84439 0.69694 0.0
H92 H 0.54032 0.86945 0.84601 0.0
H93 H 0.59005 0.87522 0.59389 0.0
H94 H 0.53363 0.9224 0.90408 0.0
H95 H 0.61104 0.91509 0.97182 0.0
H96 H 0.49817 0.91019 0.36865 0.0
H97 H 0.56162 0.83216 0.90677 0.0
H98 H 0.61475 0.83929 0.65799 0.0
C99 C 0.419 0.26125 0.05483 0.0
C100 C 0.41712 0.2644 0.15854 0.0
N101 N 0.41358 0.24124 0.20089 0.0
N102 N 0.41705 0.23619 0.03242 0.0
C103 C 0.41293 0.22462 0.12246 0.0
H104 H 0.42358 0.27598 0.0001 0.0
Co105 Co 0.42597 0.22211 0.90793 0.0
C106 C 0.45106 0.17286 0.9585 0.0
O107 O 0.4677 0.17784 0.88664 0.0
N108 N 0.43365 0.20887 0.77904 0.0
C109 C 0.42711 0.18448 0.64267 0.0
C110 C 0.4282 0.18495 0.74668 0.0
C111 C 0.4347 0.22277 0.69232 0.0
N112 N 0.43067 0.2084 0.60835 0.0
O113 O 0.39116 0.21353 0.88112 0.0
H114 H 0.42227 0.16934 0.79488 0.0
H115 H 0.43482 0.2434 0.69135 0.0
O116 O 0.4326 0.18842 0.97347 0.0
C117 C 0.38051 0.23265 0.8389 0.0
O118 O 0.3937 0.25384 0.82958 0.0
N119 N 0.45994 0.23288 0.93393 0.0
C120 C 0.50103 0.26154 0.00908 0.0
C121 C 0.49337 0.23889 0.05682 0.0
C122 C 0.47244 0.22546 0.02049 0.0
C123 C 0.46809 0.25399 0.88253 0.0
C124 C 0.48851 0.26858 0.91866 0.0
H125 H 0.46508 0.21068 0.06903 0.0
H126 H 0.45722 0.2612 0.81926 0.0
H127 H 0.4115 0.20421 0.1314 0.0
H128 H 0.41966 0.2821 0.19984 0.0
H129 H 0.42189 0.16815 0.59674 0.0
H130 H 0.50241 0.23226 0.12592 0.0
H131 H 0.49311 0.28621 0.87977 0.0
C132 C 0.06859 0.91281 0.69111 0.0
C133 C 0.06541 0.91467 0.58739 0.0
N134 N 0.08835 0.91838 0.54488 0.0
N135 N 0.09345 0.91494 0.71341 0.0
C136 C 0.10486 0.91916 0.62327 0.0
H137 H 0.05402 0.90808 0.74589 0.0
Co138 Co 0.10751 0.90588 0.83782 0.0
C139 C 0.15674 0.88142 0.78646 0.0
O140 O 0.15193 0.86419 0.8567 0.0
N141 N 0.12069 0.89803 0.9667 0.0
C142 C 0.1448 0.90461 0.1034 0.0
C143 C 0.14441 0.90351 -0.00063 0.0
C144 C 0.10684 0.89698 0.05331 0.0
N145 N 0.12104 0.90105 0.13746 0.0
O146 O 0.11569 0.94094 0.86572 0.0
H147 H 0.15994 0.90955 0.95148 0.0
H148 H 0.08636 0.89686 0.05404 0.0
O149 O 0.14102 0.89981 0.77236 0.0
C150 C 0.09674 0.95151 0.90871 0.0
O151 O 0.0757 0.93821 0.91742 0.0
N152 N 0.09722 0.87159 0.81084 0.0
C153 C 0.06886 0.83058 0.73456 0.0
C154 C 0.09119 0.83823 0.68643 0.0
C155 C 0.10465 0.85915 0.72388 0.0
C156 C 0.07619 0.86336 0.86183 0.0
C157 C 0.06164 0.84297 0.82466 0.0
H158 H 0.11931 0.86674 0.67559 0.0
H159 H 0.06903 0.8742 0.92537 0.0
H160 H 0.12509 0.92071 0.61421 0.0
H161 H 0.04784 0.91198 0.54622 0.0
H162 H 0.16098 0.9099 0.14948 0.0
H163 H 0.09686 0.82974 0.61473 0.0
H164 H 0.04412 0.8379 0.86271 0.0
C165 C 0.41793 0.74098 0.94664 0.0
C166 C 0.41605 0.73782 0.84292 0.0
N167 N 0.41284 0.76101 0.8004 0.0
N168 N 0.4163 0.76607 0.96893 0.0
C169 C 0.41236 0.77765 0.87878 0.0
H170 H 0.42234 0.72622 0.00144 0.0
Co171 Co 0.42559 0.78003 0.09331 0.0
C172 C 0.4509 0.82917 0.04203 0.0
O173 O 0.4678 0.824 0.11264 0.0
N174 N 0.43367 0.79314 0.22218 0.0
C175 C 0.42759 0.81756 0.35883 0.0
C176 C 0.42864 0.81713 0.25481 0.0
C177 C 0.43452 0.77918 0.30882 0.0
N178 N 0.43074 0.79357 0.39296 0.0
O179 O 0.39092 0.78888 0.12149 0.0
H180 H 0.42289 0.83286 0.2069 0.0
H181 H 0.4343 0.75854 0.30959 0.0
O182 O 0.4323 0.81373 0.02783 0.0
C183 C 0.38019 0.76991 0.16456 0.0
O184 O 0.39315 0.74858 0.17335 0.0
N185 N 0.45943 0.76903 0.06601 0.0
C186 C 0.50014 0.7401 0.98935 0.0
C187 C 0.49251 0.76278 0.94179 0.0
C188 C 0.47178 0.77637 0.97897 0.0
C189 C 0.46756 0.74788 0.11716 0.0
C190 C 0.4878 0.73315 0.08029 0.0
H191 H 0.46443 0.79125 0.93085 0.0
H192 H 0.45681 0.74078 0.18099 0.0
H193 H 0.41124 0.79807 0.86971 0.0
H194 H 0.4184 0.72007 0.80174 0.0
H195 H 0.42263 0.83395 0.4049 0.0
H196 H 0.50143 0.76934 0.87233 0.0
H197 H 0.4924 0.71552 0.11912 0.0
C198 C 0.59162 0.08703 0.17348 0.0
C199 C 0.59476 0.08505 0.06978 0.0
N200 N 0.57173 0.082 0.0272 0.0
N201 N 0.56671 0.0856 0.1958 0.0
C202 C 0.5552 0.08168 0.10562 0.0
H203 H 0.60631 0.09144 0.2282 0.0
Co204 Co 0.55296 0.09533 0.32014 0.0
C205 C 0.50446 0.12104 0.26803 0.0
O206 O 0.50986 0.13825 0.33764 0.0
N207 N 0.54006 0.10381 0.44896 0.0
C208 C 0.5158 0.09798 0.5858 0.0
C209 C 0.51619 0.09911 0.48179 0.0
C210 C 0.55397 0.10439 0.53554 0.0
N211 N 0.53968 0.10073 0.61977 0.0
O212 O 0.54409 0.06046 0.35024 0.0
H213 H 0.50047 0.09353 0.43406 0.0
H214 H 0.57445 0.10384 0.53611 0.0
O215 O 0.51954 0.10207 0.25466 0.0
C216 C 0.56301 0.04989 0.39359 0.0
O217 O 0.58425 0.06296 0.39977 0.0
N218 N 0.56398 0.12933 0.29142 0.0
C219 C 0.59251 0.17029 0.21547 0.0
C220 C 0.57039 0.16246 0.16628 0.0
C221 C 0.55686 0.14157 0.20358 0.0
C222 C 0.58489 0.13761 0.34301 0.0
C223 C 0.59953 0.15798 0.30603 0.0
H224 H 0.5423 0.13391 0.15498 0.0
H225 H 0.59181 0.12694 0.40745 0.0
H226 H 0.53492 0.08076 0.09652 0.0
H227 H 0.6124 0.08727 0.02864 0.0
H228 H 0.49948 0.09318 0.63193 0.0
H229 H 0.56488 0.17087 0.09421 0.0
H230 H 0.61688 0.16319 0.34493 0.0
C231 C 0.24292 0.26167 0.43453 0.0
C232 C 0.24474 0.26488 0.33082 0.0
N233 N 0.24811 0.24173 0.28822 0.0
N234 N 0.24472 0.23659 0.4567 0.0
C235 C 0.24871 0.22506 0.36649 0.0
H236 H 0.23842 0.27639 0.48942 0.0
Co237 Co 0.23557 0.22258 0.58112 0.0
C238 C 0.21064 0.17326 0.53109 0.0
O239 O 0.19384 0.17843 0.60208 0.0
N240 N 0.22766 0.20945 0.71009 0.0
C241 C 0.23412 0.18514 0.84676 0.0
C242 C 0.23309 0.18555 0.74278 0.0
C243 C 0.22656 0.2234 0.79669 0.0
N244 N 0.23058 0.20908 0.88084 0.0
O245 O 0.27033 0.21406 0.60917 0.0
H246 H 0.23911 0.16993 0.69489 0.0
H247 H 0.22643 0.24404 0.79741 0.0
O248 O 0.22914 0.18878 0.5161 0.0
C249 C 0.28095 0.23309 0.65227 0.0
O250 O 0.26781 0.2543 0.66155 0.0
N251 N 0.20161 0.23323 0.55363 0.0
C252 C 0.16075 0.26165 0.47531 0.0
C253 C 0.16863 0.23897 0.4286 0.0
C254 C 0.18944 0.22566 0.46651 0.0
C255 C 0.19319 0.25435 0.60419 0.0
C256 C 0.17286 0.26884 0.56645 0.0
H257 H 0.197 0.21083 0.41869 0.0
H258 H 0.20377 0.26162 0.66817 0.0
H259 H 0.24993 0.20464 0.3573 0.0
H260 H 0.24226 0.28263 0.2897 0.0
H261 H 0.23935 0.16883 0.89284 0.0
H262 H 0.15988 0.23222 0.35909 0.0
H263 H 0.16802 0.28648 0.60472 0.0
C264 C 0.91792 0.24241 0.42593 0.0
C265 C 0.91607 0.23923 0.32223 0.0
N266 N 0.91228 0.26234 0.27988 0.0
N267 N 0.9157 0.26745 0.4483 0.0
C268 C 0.91146 0.27896 0.35826 0.0
H269 H 0.92265 0.22774 0.48069 0.0
Co270 Co 0.92439 0.28161 0.57284 0.0
C271 C 0.949 0.33112 0.52308 0.0
O272 O 0.96558 0.32626 0.59529 0.0
N273 N 0.93183 0.29493 0.70177 0.0
C274 C 0.92487 0.31923 0.83806 0.0
C275 C 0.92597 0.31876 0.73406 0.0
C276 C 0.93309 0.28107 0.78851 0.0
N277 N 0.92882 0.29538 0.87242 0.0
O278 O 0.88947 0.28978 0.59929 0.0
H279 H 0.9198 0.33426 0.6858 0.0
H280 H 0.93354 0.26044 0.78951 0.0
O281 O 0.9307 0.31539 0.50753 0.0
C282 C 0.879 0.27054 0.64144 0.0
O283 O 0.89241 0.24951 0.65099 0.0
N284 N 0.95851 0.27126 0.54707 0.0
C285 C 0.99995 0.24317 0.4719 0.0
C286 C 0.992 0.2657 0.42413 0.0
C287 C 0.97091 0.27884 0.46048 0.0
C288 C 0.96693 0.25027 0.5985 0.0
C289 C 0.98755 0.23596 0.56238 0.0
H290 H 0.96335 0.29352 0.41191 0.0
H291 H 0.95617 0.24292 0.66179 0.0
H292 H 0.90984 0.29936 0.34927 0.0
H293 H 0.91879 0.22155 0.28094 0.0
H294 H 0.91938 0.33548 0.88395 0.0
H295 H 1.00094 0.27243 0.35495 0.0
H296 H 0.9924 0.21841 0.60127 0.0
C297 C 0.74188 0.76202 0.94717 0.0
C298 C 0.74368 0.76521 0.84345 0.0
N299 N 0.74728 0.74208 0.801 0.0
N300 N 0.74392 0.73696 0.96947 0.0
C301 C 0.74803 0.72544 0.87935 0.0
H302 H 0.73727 0.77672 0.00198 0.0
Co303 Co 0.73503 0.72284 0.09395 0.0
C304 C 0.71044 0.67329 0.04368 0.0
O305 O 0.69365 0.67819 0.11504 0.0
N306 N 0.72736 0.70959 0.22289 0.0
C307 C 0.73403 0.68528 0.35942 0.0
C308 C 0.73299 0.68572 0.25541 0.0
C309 C 0.72615 0.72349 0.30955 0.0
N310 N 0.73027 0.70918 0.39361 0.0
O311 O 0.76989 0.71458 0.12119 0.0
H312 H 0.7391 0.67016 0.20738 0.0
H313 H 0.72585 0.74413 0.31041 0.0
O314 O 0.72875 0.68904 0.02868 0.0
C315 C 0.7804 0.73375 0.16368 0.0
O316 O 0.76706 0.75483 0.17326 0.0
N317 N 0.701 0.7333 0.06739 0.0
C318 C 0.66008 0.76183 0.99011 0.0
C319 C 0.6678 0.73909 0.94332 0.0
C320 C 0.68863 0.72571 0.98073 0.0
C321 C 0.69273 0.75447 0.11805 0.0
C322 C 0.67239 0.76901 0.08083 0.0
H323 H 0.69608 0.71085 0.9328 0.0
H324 H 0.70347 0.76178 0.18148 0.0
H325 H 0.74949 0.70504 0.87029 0.0
H326 H 0.74105 0.78292 0.80222 0.0
H327 H 0.73937 0.66901 0.40543 0.0
H328 H 0.65891 0.73235 0.87409 0.0
H329 H 0.6677 0.78669 0.11909 0.0
C330 C 0.7411 0.23996 0.04387 0.0
C331 C 0.74298 0.23682 0.14761 0.0
N332 N 0.74636 0.26 0.18997 0.0
N333 N 0.74289 0.26502 0.02141 0.0
C334 C 0.74694 0.27661 0.11146 0.0
H335 H 0.7366 0.22519 0.98918 0.0
Co336 Co 0.73375 0.27908 0.897 0.0
C337 C 0.70861 0.32828 0.94876 0.0
O338 O 0.69165 0.32329 0.87814 0.0
N339 N 0.72582 0.29229 0.76816 0.0
C340 C 0.73192 0.31673 0.63155 0.0
C341 C 0.73085 0.31629 0.7356 0.0
C342 C 0.72497 0.27835 0.68149 0.0
N343 N 0.72875 0.29274 0.59738 0.0
O344 O 0.76846 0.28794 0.86965 0.0
H345 H 0.73657 0.33201 0.78359 0.0
H346 H 0.72518 0.25771 0.68066 0.0
O347 O 0.72708 0.31269 0.96273 0.0
C348 C 0.77929 0.26904 0.82665 0.0
O349 O 0.76636 0.24769 0.8171 0.0
N350 N 0.69988 0.26807 0.92344 0.0
C351 C 0.65944 0.2389 0.99849 0.0
C352 C 0.66666 0.26147 0.04696 0.0
C353 C 0.6873 0.27534 0.01016 0.0
C354 C 0.69211 0.24677 0.87224 0.0
C355 C 0.67202 0.2318 0.90879 0.0
H356 H 0.69455 0.29019 0.05872 0.0
H357 H 0.70308 0.23972 0.80899 0.0
H358 H 0.74826 0.29702 0.12033 0.0
H359 H 0.74054 0.2191 0.18889 0.0
H360 H 0.73687 0.33313 0.58549 0.0
H361 H 0.65801 0.26706 0.11841 0.0
H362 H 0.66729 0.21411 0.87052 0.0
C363 C 0.91928 0.76342 0.56234 0.0
C364 C 0.91739 0.7666 0.66604 0.0
N365 N 0.91372 0.74347 0.70844 0.0
N366 N 0.91722 0.73837 0.53999 0.0
C367 C 0.91301 0.72684 0.63003 0.0
H368 H 0.92393 0.77813 0.50758 0.0
Co369 Co 0.92603 0.72423 0.41551 0.0
C370 C 0.95084 0.67487 0.46604 0.0
O371 O 0.9676 0.67979 0.39459 0.0
N372 N 0.93362 0.71095 0.2866 0.0
C373 C 0.927 0.6866 0.15015 0.0
C374 C 0.92812 0.68704 0.25417 0.0
C375 C 0.93466 0.72487 0.19993 0.0
N376 N 0.93059 0.71053 0.11592 0.0
O377 O 0.8912 0.71571 0.38907 0.0
H378 H 0.92218 0.67143 0.30231 0.0
H379 H 0.93481 0.7455 0.19905 0.0
O380 O 0.93249 0.69055 0.48096 0.0
C381 C 0.88038 0.7347 0.34659 0.0
O382 O 0.8934 0.75597 0.33656 0.0
N383 N 0.96008 0.73485 0.44126 0.0
C384 C 1.00116 0.76325 0.51533 0.0
C385 C 0.99355 0.74086 0.56415 0.0
C386 C 0.97261 0.7274 0.52789 0.0
C387 C 0.96819 0.75598 0.38976 0.0
C388 C 0.98862 0.77056 0.42581 0.0
H389 H 0.96511 0.71274 0.5768 0.0
H390 H 0.95729 0.76321 0.32663 0.0
H391 H 0.91148 0.70644 0.639 0.0
H392 H 0.92 0.7843 0.70729 0.0
H393 H 0.92175 0.67029 0.10416 0.0
H394 H 0.00215 0.73515 0.63555 0.0
H395 H 0.99364 0.78815 0.38733 0.0
C396 C 0.57113 0.58557 0.82984 0.0
C397 C 0.56799 0.58361 0.93354 0.0
N398 N 0.59103 0.58075 0.97621 0.0
N399 N 0.59605 0.58432 0.80758 0.0
C400 C 0.60758 0.58052 0.89785 0.0
H401 H 0.55643 0.58989 0.77508 0.0
Co402 Co 0.60969 0.5943 0.68326 0.0
C403 C 0.65812 0.62018 0.73517 0.0
O404 O 0.65252 0.63739 0.66584 0.0
N405 N 0.62249 0.60303 0.55442 0.0
C406 C 0.64675 0.59731 0.41749 0.0
C407 C 0.64637 0.59841 0.52148 0.0
C408 C 0.60857 0.60359 0.46784 0.0
N409 N 0.62286 0.59997 0.38357 0.0
O410 O 0.61857 0.55951 0.65194 0.0
H411 H 0.6621 0.59282 0.56909 0.0
H412 H 0.58809 0.60297 0.46733 0.0
O413 O 0.64319 0.60106 0.7485 0.0
C414 C 0.59954 0.54916 0.6085 0.0
O415 O 0.57834 0.56231 0.60367 0.0
N416 N 0.59863 0.62822 0.71311 0.0
C417 C 0.57004 0.66914 0.79138 0.0
C418 C 0.59233 0.66102 0.83945 0.0
C419 C 0.60576 0.6402 0.80136 0.0
C420 C 0.57783 0.63677 0.66172 0.0
C421 C 0.56327 0.65712 0.69938 0.0
H422 H 0.62042 0.63252 0.84932 0.0
H423 H 0.57093 0.62632 0.59664 0.0
H424 H 0.62786 0.57981 0.90706 0.0
H425 H 0.55033 0.58574 0.97461 0.0
H426 H 0.66308 0.59255 0.37136 0.0
H427 H 0.59874 0.66966 0.90973 0.0
H428 H 0.54594 0.6621 0.66007 0.0
C429 C 0.09117 0.41451 0.31109 0.0
C430 C 0.09439 0.41633 0.41479 0.0
N431 N 0.07143 0.4197 0.45753 0.0
N432 N 0.06627 0.41632 0.28903 0.0
C433 C 0.05486 0.4203 0.37934 0.0
H434 H 0.10576 0.40997 0.25614 0.0
Co435 Co 0.05236 0.40701 0.16467 0.0
C436 C 0.00321 0.38231 0.2151 0.0
O437 O 0.00835 0.36509 0.14521 0.0
N438 N 0.03934 0.39892 0.03571 0.0
C439 C 0.01526 0.40539 0.89885 0.0
C440 C 0.01563 0.40435 0.00283 0.0
C441 C 0.05322 0.39784 0.94916 0.0
N442 N 0.03904 0.40188 0.86491 0.0
O443 O 0.04414 0.44201 0.1356 0.0
H444 H 1.00009 0.41045 0.05051 0.0
H445 H 0.07371 0.39775 0.94857 0.0
O446 O 0.01874 0.40087 0.22957 0.0
C447 C 0.06312 0.45251 0.09241 0.0
O448 O 0.08415 0.43919 0.08425 0.0
N449 N 0.06271 0.3728 0.19299 0.0
C450 C 0.09093 0.33176 0.27223 0.0
C451 C 0.06842 0.33976 0.31886 0.0
C452 C 0.05517 0.36065 0.28035 0.0
C453 C 0.08366 0.36424 0.14259 0.0
C454 C 0.09805 0.34383 0.18078 0.0
H455 H 0.0404 0.36831 0.32781 0.0
H456 H 0.09088 0.37482 0.07837 0.0
H457 H 0.0346 0.42148 0.38868 0.0
H458 H 0.11201 0.41382 0.45581 0.0
H459 H 0.99909 0.41065 0.85268 0.0
H460 H 0.06175 0.33105 0.38863 0.0
H461 H 0.11555 0.33891 0.14257 0.0
C462 C 0.57118 0.41656 0.16565 0.0
C463 C 0.56806 0.4185 0.06193 0.0
N464 N 0.59108 0.42166 0.01938 0.0
N465 N 0.59608 0.41813 0.18805 0.0
C466 C 0.60759 0.42213 0.09787 0.0
H467 H 0.55652 0.41203 0.2203 0.0
Co468 Co 0.60982 0.40824 0.31232 0.0
C469 C 0.65826 0.38253 0.2598 0.0
O470 O 0.65287 0.36543 0.32986 0.0
N471 N 0.62272 0.39959 0.44111 0.0
C472 C 0.64699 0.40551 0.5779 0.0
C473 C 0.64658 0.40439 0.4739 0.0
C474 C 0.60883 0.39894 0.52778 0.0
N475 N 0.62313 0.40267 0.61198 0.0
O476 O 0.61856 0.44308 0.34349 0.0
H477 H 0.66226 0.41004 0.42612 0.0
H478 H 0.58835 0.39942 0.52842 0.0
O479 O 0.64328 0.4016 0.24667 0.0
C480 C 0.59953 0.45326 0.38758 0.0
O481 O 0.57842 0.43995 0.3926 0.0
N482 N 0.59892 0.37424 0.28267 0.0
C483 C 0.57079 0.33287 0.20541 0.0
C484 C 0.59289 0.34129 0.15676 0.0
C485 C 0.60605 0.36233 0.19429 0.0
C486 C 0.5783 0.36543 0.3346 0.0
C487 C 0.56397 0.34484 0.29744 0.0
H488 H 0.6205 0.37022 0.14584 0.0
H489 H 0.57136 0.3758 0.3998 0.0
H490 H 0.62787 0.42316 0.08885 0.0
H491 H 0.55044 0.41613 0.02077 0.0
H492 H 0.6633 0.41038 0.62394 0.0
H493 H 0.59933 0.3327 0.08642 0.0
H494 H 0.54676 0.33964 0.33717 0.0
C495 C 0.09077 0.59065 0.67984 0.0
C496 C 0.09396 0.58879 0.57615 0.0
N497 N 0.07103 0.58495 0.53369 0.0
N498 N 0.06592 0.58839 0.70216 0.0
C499 C 0.05453 0.58409 0.61206 0.0
H500 H 0.10532 0.59547 0.73461 0.0
Co501 Co 0.05186 0.59734 0.82661 0.0
C502 C 0.00269 0.6219 0.77607 0.0
O503 O 0.00752 0.63883 0.84741 0.0
N504 N 0.03868 0.60505 0.95553 0.0
C505 C 0.01459 0.59817 0.09209 0.0
C506 C 0.01501 0.5993 0.98808 0.0
C507 C 0.05249 0.60622 0.04217 0.0
N508 N 0.03831 0.60198 0.12624 0.0
O509 O 0.0438 0.56223 0.85427 0.0
H510 H 0.99956 0.59313 0.94005 0.0
H511 H 0.07298 0.60654 0.04296 0.0
O512 O 0.01832 0.60345 0.76127 0.0
C513 C 0.06285 0.55173 0.89688 0.0
O514 O 0.08382 0.56513 0.90537 0.0
N515 N 0.06203 0.63169 0.79974 0.0
C516 C 0.08973 0.6735 0.72381 0.0
C517 C 0.06745 0.66528 0.67598 0.0
C518 C 0.0545 0.644 0.71274 0.0
C519 C 0.08277 0.64039 0.85119 0.0
C520 C 0.09689 0.66119 0.81467 0.0
H521 H 0.03998 0.63623 0.66431 0.0
H522 H 0.09006 0.6297 0.91492 0.0
H523 H 0.03429 0.58243 0.60303 0.0
H524 H 0.11151 0.59158 0.53493 0.0
H525 H 0.99846 0.59271 0.1381 0.0
H526 H 0.06076 0.67413 0.60653 0.0
H527 H 0.11425 0.66623 0.85364 0.0
C528 C 0.20986 0.15766 0.35074 0.0
C529 C 0.20368 0.15392 0.45366 0.0
H530 H 0.19997 0.14985 0.19578 0.0
C531 C 0.18625 0.13462 0.47901 0.0
H532 H 0.22319 0.17222 0.3282 0.0
C533 C 0.17313 0.12146 0.40283 0.0
C534 C 0.1769 0.12769 0.29995 0.0
H535 H 0.18125 0.13109 0.5578 0.0
H536 H 0.15839 0.10835 0.42541 0.0
C537 C 0.19642 0.14483 0.27455 0.0
C538 C 0.20975 0.84599 0.6575 0.0
C539 C 0.20399 0.85044 0.55462 0.0
H540 H 0.19914 0.85256 0.81261 0.0
C541 C 0.18654 0.8698 0.53036 0.0
H542 H 0.22308 0.83136 0.67928 0.0
C543 C 0.17299 0.88227 0.60714 0.0
C544 C 0.17635 0.8753 0.7095 0.0
H545 H 0.18186 0.87387 0.45169 0.0
H546 H 0.1583 0.89547 0.58508 0.0
C547 C 0.19588 0.85812 0.73422 0.0
C548 C 0.48764 0.88155 0.91318 0.0
C549 C 0.48371 0.87544 0.81028 0.0
H550 H 0.48003 0.87156 0.06828 0.0
C551 C 0.46441 0.858 0.7853 0.0
H552 H 0.50225 0.89482 0.93547 0.0
C553 C 0.45134 0.84486 0.86172 0.0
C554 C 0.45766 0.84858 0.96451 0.0
H555 H 0.46077 0.85303 0.70656 0.0
H556 H 0.43818 0.83013 0.83934 0.0
C557 C 0.47491 0.86807 0.9896 0.0
C558 C 0.46583 0.14518 0.21603 0.0
C559 C 0.48511 0.12776 0.1908 0.0
H560 H 0.43919 0.17264 0.16208 0.0
C561 C 0.48865 0.12127 0.08805 0.0
H562 H 0.4625 0.15043 0.2947 0.0
C563 C 0.47548 0.13432 0.01169 0.0
C564 C 0.45821 0.15378 0.03673 0.0
H565 H 0.50324 0.10799 0.06558 0.0
H566 H 0.48028 0.13054 0.9329 0.0
C567 C 0.45233 0.15789 0.13972 0.0
C568 C 0.0113 0.80522 0.59573 0.0
C569 C 0.01922 0.78064 0.56712 0.0
H570 H 0.02066 0.83994 0.67377 0.0
C571 C 0.04343 0.77217 0.59652 0.0
H572 H 0.99256 0.812 0.57549 0.0
C573 C 0.05961 0.78825 0.65196 0.0
C574 C 0.05148 0.81271 0.68174 0.0
H575 H 0.04983 0.75318 0.57624 0.0
H576 H 0.07838 0.78157 0.67219 0.0
C577 C 0.02718 0.82101 0.6532 0.0
C578 C 0.03514 0.2104 0.47982 0.0
C579 C 0.01913 0.22619 0.42188 0.0
H580 H 0.0629 0.18083 0.48046 0.0
C581 C 0.02078 0.22473 0.31477 0.0
H582 H 0.03472 0.211 0.56217 0.0
C583 C 0.03778 0.20803 0.26734 0.0
C584 C 0.05336 0.19181 0.32525 0.0
H585 H 0.00846 0.236 0.26661 0.0
H586 H 0.03848 0.20773 0.18499 0.0
C587 C 0.05178 0.19332 0.43236 0.0
C588 C 0.60126 0.21281 0.13365 0.0
C589 C 0.60977 0.18851 0.16381 0.0
H590 H 0.61052 0.24805 0.05807 0.0
C591 C 0.63431 0.18071 0.13648 0.0
H592 H 0.5823 0.21913 0.15298 0.0
C593 C 0.65003 0.19681 0.07958 0.0
C594 C 0.64169 0.22122 0.05041 0.0
H595 H 0.64114 0.16191 0.15737 0.0
H596 H 0.66894 0.1904 0.06004 0.0
C597 C 0.61725 0.22921 0.07883 0.0
C598 C 0.60891 0.81223 0.94745 0.0
C599 C 0.60738 0.8134 0.84025 0.0
H600 H 0.62568 0.79476 0.07831 0.0
C601 C 0.6229 0.79692 0.78332 0.0
H602 H 0.59787 0.82495 0.99485 0.0
C603 C 0.63972 0.78019 0.83178 0.0
C604 C 0.64122 0.77899 0.93898 0.0
H605 H 0.62225 0.79696 0.70096 0.0
H606 H 0.65197 0.76868 0.78431 0.0
C607 C 0.62535 0.79513 0.99593 0.0
C608 C 0.68661 0.63427 0.99152 0.0
C609 C 0.70368 0.6539 0.96612 0.0
H610 H 0.65926 0.60744 0.938 0.0
C611 C 0.70971 0.65779 0.86315 0.0
H612 H 0.68172 0.63064 0.07034 0.0
C613 C 0.69651 0.64469 0.78702 0.0
C614 C 0.67737 0.62712 0.81246 0.0
H615 H 0.72273 0.67264 0.84054 0.0
H616 H 0.69991 0.6498 0.70823 0.0
C617 C 0.67375 0.62083 0.91537 0.0
C618 C 0.69617 0.35764 0.20549 0.0
C619 C 0.67704 0.37529 0.18106 0.0
H620 H 0.72181 0.32933 0.15091 0.0
C621 C 0.67283 0.38125 0.07818 0.0
H622 H 0.70001 0.35276 0.28418 0.0
C623 C 0.68509 0.36746 0.00147 0.0
C624 C 0.70217 0.3478 0.02622 0.0
H625 H 0.65832 0.39468 0.05627 0.0
H626 H 0.67977 0.37088 0.92297 0.0
C627 C 0.70878 0.34418 0.12877 0.0
C628 C 0.96421 0.35861 0.26588 0.0
C629 C 0.98357 0.37592 0.29154 0.0
H630 H 0.9373 0.33133 0.31935 0.0
C631 C 0.98684 0.38258 0.39424 0.0
H632 H 0.96103 0.35327 0.1872 0.0
C633 C 0.97343 0.36969 0.47033 0.0
C634 C 0.95618 0.35022 0.445 0.0
H635 H 1.00142 0.39586 0.41697 0.0
H636 H 0.97806 0.37354 0.54922 0.0
C637 C 0.95047 0.34605 0.34191 0.0
C638 C 0.97484 0.63603 0.51867 0.0
C639 C 0.95758 0.6555 0.54362 0.0
H640 H 0.0022 0.60935 0.57302 0.0
C641 C 0.95118 0.6592 0.64633 0.0
H642 H 0.97999 0.63252 0.44004 0.0
C643 C 0.96423 0.64611 0.72287 0.0
C644 C 0.9836 0.62876 0.69804 0.0
H645 H 0.93795 0.67389 0.66856 0.0
H646 H 0.96053 0.65108 0.80157 0.0
C647 C 0.98757 0.62261 0.5952 0.0
C648 C 0.52182 0.28013 0.16606 0.0
C649 C 0.52003 0.27877 0.05897 0.0
H650 H 0.53954 0.29721 0.29568 0.0
C651 C 0.53571 0.29487 0.00092 0.0
H652 H 0.50974 0.26863 0.21436 0.0
C653 C 0.55217 0.31214 0.04825 0.0
C654 C 0.55394 0.31353 0.15535 0.0
H655 H 0.53519 0.29436 0.91857 0.0
H656 H 0.56302 0.32485 4e-05 0.0
C657 C 0.53868 0.29702 0.21336 0.0
C658 C 0.53483 0.70677 0.9967 0.0
C659 C 0.51902 0.7228 0.93902 0.0
H660 H 0.56236 0.67698 0.99694 0.0
C661 C 0.52064 0.72141 0.83188 0.0
H662 H 0.53443 0.70728 0.07906 0.0
C663 C 0.53753 0.70461 0.78421 0.0
C664 C 0.55301 0.68825 0.84186 0.0
H665 H 0.50843 0.73284 0.78388 0.0
H666 H 0.53827 0.70444 0.70186 0.0
C667 C 0.55135 0.6896 0.949 0.0
C668 C 0.13915 0.72575 0.68389 0.0
C669 C 0.14076 0.72722 0.57677 0.0
H670 H 0.12147 0.70875 0.81376 0.0
C671 C 0.12466 0.71151 0.51892 0.0
H672 H 0.15153 0.73696 0.73204 0.0
C673 C 0.10802 0.69444 0.56645 0.0
C674 C 0.10652 0.69287 0.67358 0.0
H675 H 0.12503 0.71213 0.43657 0.0
H676 H 0.09686 0.68198 0.51835 0.0
C677 C 0.12213 0.70907 0.7314 0.0
C678 C 0.12574 0.29468 0.48023 0.0
C679 C 0.14188 0.27871 0.42371 0.0
H680 H 0.09794 0.32421 0.47832 0.0
C681 C 0.14058 0.27994 0.31647 0.0
H682 H 0.12591 0.29429 0.56262 0.0
C683 C 0.1237 0.2965 0.26753 0.0
C684 C 0.10789 0.3128 0.32402 0.0
H685 H 0.15305 0.26856 0.26935 0.0
H686 H 0.12322 0.29657 0.18515 0.0
C687 C 0.10922 0.31162 0.43127 0.0
C688 C 0.07532 0.01301 0.03101 0.0
C689 C 0.09823 0.02513 0.05602 0.0
H690 H 0.05703 0.9808 0.96449 0.0
C691 C 0.12119 0.01305 0.03019 0.0
H692 H 0.05727 0.02172 0.04948 0.0
C693 C 0.12105 0.98932 0.97962 0.0
C694 C 0.09795 0.9773 0.95519 0.0
H695 H 0.13915 0.02208 0.04756 0.0
H696 H 0.13892 0.98026 0.96103 0.0
C697 C 0.07518 0.98947 0.98179 0.0
C698 C 0.34225 0.74849 0.23697 0.0
C699 C 0.35453 0.77135 0.21053 0.0
H700 H 0.31002 0.73065 0.30386 0.0
C701 C 0.3427 0.79471 0.23449 0.0
H702 H 0.35076 0.73015 0.22003 0.0
C703 C 0.31905 0.795 0.2844 0.0
C704 C 0.30686 0.77194 0.31001 0.0
H705 H 0.35184 0.81265 0.21601 0.0
H706 H 0.31016 0.81315 0.30139 0.0
C707 C 0.31881 0.74878 0.28552 0.0
C708 C 0.58431 0.01241 0.47146 0.0
C709 C 0.56158 0.02457 0.44419 0.0
H710 H 0.60217 0.98088 0.54433 0.0
C711 C 0.53845 0.01315 0.47261 0.0
H712 H 0.60249 0.0206 0.4512 0.0
C713 C 0.53827 0.99005 0.52784 0.0
C714 C 0.56121 0.97802 0.55461 0.0
H715 H 0.52062 0.02223 0.45366 0.0
H716 H 0.52029 0.98147 0.54827 0.0
C717 C 0.58413 0.98955 0.52546 0.0
C718 C 0.34237 0.25467 0.77157 0.0
C719 C 0.35465 0.2316 0.79475 0.0
H720 H 0.31004 0.27308 0.70813 0.0
C721 C 0.34265 0.20846 0.76896 0.0
H722 H 0.35101 0.27286 0.79012 0.0
C723 C 0.31886 0.20858 0.72011 0.0
C724 C 0.30671 0.23185 0.69742 0.0
H725 H 0.35178 0.19037 0.78495 0.0
H726 H 0.30988 0.19058 0.70138 0.0
C727 C 0.31879 0.25479 0.7241 0.0
C728 C 0.81699 0.29394 0.75922 0.0
C729 C 0.80507 0.27054 0.7819 0.0
H730 H 0.84978 0.3125 0.69469 0.0
C731 C 0.81743 0.24773 0.75555 0.0
H732 H 0.8078 0.31185 0.77768 0.0
C733 C 0.84104 0.2481 0.70841 0.0
C734 C 0.85309 0.2713 0.68525 0.0
H735 H 0.80885 0.22935 0.77153 0.0
H736 H 0.84989 0.23 0.69011 0.0
C737 C 0.84082 0.29432 0.71069 0.0
C738 C 0.81834 0.756 0.23186 0.0
C739 C 0.8063 0.73287 0.20751 0.0
H740 H 0.85063 0.77456 0.2952 0.0
C741 C 0.81864 0.70978 0.2314 0.0
H742 H 0.80945 0.77416 0.21483 0.0
C743 C 0.84253 0.71002 0.27934 0.0
C744 C 0.85447 0.73334 0.30294 0.0
H745 H 0.80969 0.69165 0.21448 0.0
H746 H 0.85179 0.69206 0.29644 0.0
C747 C 0.84204 0.75623 0.27839 0.0
C748 C 0.62382 0.5128 0.5254 0.0
C749 C 0.60079 0.52409 0.55587 0.0
H750 H 0.64169 0.48154 0.44601 0.0
C751 C 0.57796 0.51214 0.52844 0.0
H752 H 0.64172 0.52174 0.54439 0.0
C753 C 0.57794 0.48963 0.47219 0.0
C754 C 0.60074 0.47824 0.44096 0.0
H755 H 0.55986 0.52024 0.55024 0.0
H756 H 0.55982 0.48113 0.45328 0.0
C757 C 0.62379 0.49004 0.46798 0.0
C758 C 0.08469 0.51375 0.96831 0.0
C759 C 0.06181 0.52592 0.94332 0.0
H760 H 0.10289 0.48158 0.03536 0.0
C761 C 0.03882 0.51395 0.96963 0.0
H762 H 0.10276 0.52239 0.94947 0.0
C763 C 0.03889 0.49028 0.02072 0.0
C764 C 0.06196 0.47822 0.04519 0.0
H765 H 0.02088 0.52302 0.95229 0.0
H766 H 0.02101 0.48131 0.03972 0.0
C767 C 0.08476 0.49028 0.01805 0.0
C768 C 0.1259 0.07903 0.70737 0.0
C769 C 0.11278 0.0961 0.77118 0.0
H770 H 0.12823 0.06145 0.56073 0.0
C771 C 0.09061 0.10779 0.73471 0.0
H772 H 0.14261 0.06906 0.7337 0.0
C773 C 0.08221 0.10313 0.63544 0.0
C774 C 0.09585 0.08667 0.57085 0.0
H775 H 0.08016 0.12105 0.78198 0.0
H776 H 0.06564 0.11318 0.6081 0.0
C777 C 0.11755 0.07443 0.60842 0.0
C778 C 0.22461 0.76451 0.9875 0.0
C779 C 0.23632 0.78681 0.02392 0.0
H780 H 0.21913 0.73936 0.861 0.0
C781 C 0.2533 0.79996 0.96 0.0
H782 H 0.21141 0.75403 0.03483 0.0
C783 C 0.25781 0.79153 0.86105 0.0
C784 C 0.24558 0.76969 0.82358 0.0
H785 H 0.26326 0.81677 0.98627 0.0
H786 H 0.27074 0.80223 0.8133 0.0
C787 C 0.22919 0.75603 0.88825 0.0
C788 C 0.54177 0.92944 0.11704 0.0
C789 C 0.5638 0.9179 0.07902 0.0
H790 H 0.51662 0.93392 0.24257 0.0
C791 C 0.57791 0.90174 0.14325 0.0
H792 H 0.53072 0.94219 0.06973 0.0
C793 C 0.56968 0.89669 0.24252 0.0
C794 C 0.5472 0.90767 0.2794 0.0
H795 H 0.59476 0.8922 0.11565 0.0
H796 H 0.58052 0.88367 0.28948 0.0
C797 C 0.5336 0.92446 0.21596 0.0
C798 C 0.43225 0.24837 0.37124 0.0
C799 C 0.41608 0.23447 0.30653 0.0
H800 H 0.44995 0.25062 0.51788 0.0
C801 C 0.40417 0.21244 0.34393 0.0
H802 H 0.44205 0.2652 0.34402 0.0
C803 C 0.40878 0.20406 0.44288 0.0
C804 C 0.42555 0.21747 0.50686 0.0
H805 H 0.39141 0.20155 0.29613 0.0
H806 H 0.39906 0.1871 0.4691 0.0
C807 C 0.43693 0.23994 0.4705 0.0
C808 C 0.11692 0.92788 0.40173 0.0
C809 C 0.09506 0.91587 0.43918 0.0
H810 H 0.14209 0.93299 0.27663 0.0
C811 C 0.08126 0.89958 0.37441 0.0
H812 H 0.12772 0.94074 0.44949 0.0
C813 C 0.08965 0.89485 0.27517 0.0
C814 C 0.11198 0.90629 0.23884 0.0
H815 H 0.06456 0.88971 0.40158 0.0
H816 H 0.07906 0.88172 0.22779 0.0
C817 C 0.12525 0.9232 0.30281 0.0
C818 C 0.40397 0.78991 0.65713 0.0
C819 C 0.41551 0.76772 0.69472 0.0
H820 H 0.39934 0.81532 0.53189 0.0
C821 C 0.43149 0.75355 0.63014 0.0
H822 H 0.39136 0.80101 0.70478 0.0
C823 C 0.43636 0.7619 0.53087 0.0
C824 C 0.42538 0.78455 0.49437 0.0
H825 H 0.44101 0.73658 0.65746 0.0
H826 H 0.44923 0.75101 0.4836 0.0
C827 C 0.40878 0.79821 0.5582 0.0
C828 C 0.57126 0.10574 0.75758 0.0
C829 C 0.54858 0.09509 0.72108 0.0
H830 H 0.59647 0.10996 0.88411 0.0
C831 C 0.53474 0.07857 0.78487 0.0
H832 H 0.58228 0.11854 0.71035 0.0
C833 C 0.5429 0.07355 0.8838 0.0
C834 C 0.56512 0.08481 0.92147 0.0
H835 H 0.5176 0.06935 0.75855 0.0
H836 H 0.53166 0.06102 0.93139 0.0
C837 C 0.57946 0.10066 0.85684 0.0
C838 C 0.2245 0.24061 0.01889 0.0
C839 C 0.23585 0.21816 0.98221 0.0
H840 H 0.21949 0.26579 0.14573 0.0
C841 C 0.2527 0.20476 0.04581 0.0
H842 H 0.21143 0.2513 0.97177 0.0
C843 C 0.2574 0.21307 0.14476 0.0
C844 C 0.2455 0.23505 0.18255 0.0
H845 H 0.26242 0.18783 0.01934 0.0
H846 H 0.2702 0.20216 0.19229 0.0
C847 C 0.22928 0.24899 0.11819 0.0
C848 C 0.90238 0.29093 0.1368 0.0
C849 C 0.91466 0.26913 0.17424 0.0
H850 H 0.89686 0.31615 0.01156 0.0
C851 C 0.93104 0.25548 0.10959 0.0
H852 H 0.88946 0.30162 0.1846 0.0
C853 C 0.93559 0.26397 0.01031 0.0
C854 C 0.92384 0.28624 0.97391 0.0
H855 H 0.94112 0.23883 0.13687 0.0
H856 H 0.94879 0.25352 0.96296 0.0
C857 C 0.90686 0.29937 0.03783 0.0
C858 C 0.72848 0.74911 0.63081 0.0
C859 C 0.74478 0.73533 0.69536 0.0
H860 H 0.71069 0.75123 0.48426 0.0
C861 C 0.75687 0.71343 0.65781 0.0
H862 H 0.71854 0.76584 0.65817 0.0
C863 C 0.75228 0.70504 0.55887 0.0
C864 C 0.73537 0.7183 0.49505 0.0
H865 H 0.76974 0.70264 0.7055 0.0
H866 H 0.76214 0.68818 0.53256 0.0
C867 C 0.72382 0.74066 0.53154 0.0
C868 C 0.75055 0.29738 0.43177 0.0
C869 C 0.73402 0.28372 0.49592 0.0
H870 H 0.76788 0.30011 0.285 0.0
C871 C 0.72304 0.26102 0.45976 0.0
H872 H 0.75998 0.31452 0.4578 0.0
C873 C 0.72785 0.25262 0.36054 0.0
C874 C 0.74377 0.26677 0.29562 0.0
H875 H 0.71021 0.25014 0.50726 0.0
H876 H 0.71833 0.23562 0.33354 0.0
C877 C 0.75531 0.28902 0.33287 0.0
C878 C 0.90874 0.70627 0.95035 0.0
C879 C 0.9255 0.71964 0.01446 0.0
H880 H 0.89142 0.70381 0.80349 0.0
C881 C 0.93692 0.74211 0.97825 0.0
H882 H 0.89898 0.68932 0.97645 0.0
C883 C 0.93229 0.75057 0.879 0.0
C884 C 0.91614 0.73669 0.81411 0.0
H885 H 0.94994 0.75276 0.02575 0.0
H886 H 0.94213 0.76739 0.85191 0.0
C887 C 0.90417 0.71468 0.85139 0.0
C888 C 0.62788 0.57763 0.21891 0.0
C889 C 0.614 0.59419 0.28232 0.0
H890 H 0.63107 0.55997 0.07265 0.0
C891 C 0.59132 0.60477 0.24546 0.0
H892 H 0.64501 0.56847 0.24552 0.0
C893 C 0.58319 0.59959 0.14619 0.0
C894 C 0.59758 0.5837 0.08194 0.0
H895 H 0.58026 0.61759 0.29241 0.0
H896 H 0.56618 0.60883 0.11859 0.0
C897 C 0.6198 0.57252 0.11997 0.0
C898 C 0.07037 0.39585 0.72684 0.0
C899 C 0.04808 0.40725 0.76362 0.0
H900 H 0.09535 0.39085 0.59991 0.0
C901 C 0.03478 0.42426 0.70012 0.0
H902 H 0.08098 0.38267 0.7739 0.0
C903 C 0.04302 0.42903 0.60116 0.0
C904 C 0.06483 0.41705 0.56325 0.0
H905 H 0.01798 0.43404 0.72667 0.0
H906 H 0.03218 0.44194 0.55371 0.0
C907 C 0.07867 0.4007 0.62753 0.0
C908 C 0.59163 0.39762 0.75012 0.0
C909 C 0.61424 0.40835 0.7133 0.0
H910 H 0.56648 0.39338 0.87685 0.0
C911 C 0.62802 0.42498 0.7768 0.0
H912 H 0.58065 0.38472 0.70313 0.0
C913 C 0.61988 0.43004 0.87573 0.0
C914 C 0.59771 0.41874 0.91368 0.0
H915 H 0.64511 0.43425 0.75025 0.0
H916 H 0.63107 0.44267 0.92306 0.0
C917 C 0.58344 0.40274 0.84936 0.0
C918 C 0.07795 0.60389 0.3634 0.0
C919 C 0.06432 0.58742 0.42801 0.0
H920 H 0.08 0.62181 0.21684 0.0
C921 C 0.04262 0.57516 0.39044 0.0
H922 H 0.09452 0.61396 0.39073 0.0
C923 C 0.03428 0.57975 0.29147 0.0
C924 C 0.04739 0.59684 0.22764 0.0
H925 H 0.03195 0.56216 0.43813 0.0
H926 H 0.01758 0.56976 0.26515 0.0
C927 C 0.06956 0.60854 0.26412 0.0
loop_
_geom_bond_atom_site_label_1
_geom_bond_atom_site_label_2
_geom_bond_distance
_geom_bond_site_symmetry_2
_ccdc_geom_bond_type
C0 C1 1.351 . S
C0 N3 1.368 . S
C0 H5 0.931 . S
C1 C0 1.351 . S
C1 N2 1.373 . S
C1 H29 0.930 . S
N2 C1 1.373 . S
N2 C4 1.340 . S
N3 C0 1.368 . S
N3 C4 1.321 . S
N3 Co6 2.135 . S
C4 N2 1.340 . S
C4 N3 1.321 . S
C4 H28 0.930 . S
H5 C0 0.931 . S
Co6 N3 2.135 . S
Co6 N9 2.121 . S
Co6 O14 2.055 . S
Co6 O17 2.039 . S
Co6 N20 2.140 . S
C7 O8 1.227 . S
C7 O17 1.265 . S
O8 C7 1.227 . S
N9 Co6 2.121 . S
N9 C11 1.375 . S
N9 C12 1.313 . S
C10 C11 1.338 1_556 S
C10 N13 1.377 . S
C10 H30 0.930 . S
C11 N9 1.375 . S
C11 C10 1.338 1_554 S
C11 H15 0.931 . S
C12 N9 1.313 . S
C12 N13 1.344 1_554 S
C12 H16 0.930 . S
N13 C10 1.377 . S
N13 C12 1.344 1_556 S
O14 Co6 2.055 . S
O14 C18 1.253 . S
H15 C11 0.931 . S
H16 C12 0.930 . S
O17 Co6 2.039 . S
O17 C7 1.265 . S
C18 O14 1.253 . S
C18 O19 1.227 . S
O19 C18 1.227 . S
N20 Co6 2.140 . S
N20 C23 1.346 . S
N20 C24 1.345 . S
C21 C22 1.387 . S
C21 C25 1.391 . S
C22 C21 1.387 . S
C22 C23 1.369 . S
C22 H31 0.929 . S
C23 N20 1.346 . S
C23 C22 1.369 . S
C23 H26 0.928 . S
C24 N20 1.345 . S
C24 C25 1.371 . S
C24 H27 0.931 . S
C25 C21 1.391 . S
C25 C24 1.371 . S
C25 H32 0.930 . S
H26 C23 0.928 . S
H27 C24 0.931 . S
H28 C4 0.930 . S
H29 C1 0.930 . S
H30 C10 0.930 . S
H31 C22 0.929 . S
H32 C25 0.930 . S
C33 C34 1.351 . S
C33 N36 1.368 . S
C33 H38 0.931 . S
C34 C33 1.351 . S
C34 N35 1.373 . S
C34 H62 0.930 . S
N35 C34 1.373 . S
N35 C37 1.340 . S
N36 C33 1.368 . S
N36 C37 1.321 . S
N36 Co39 2.135 . S
C37 N35 1.340 . S
C37 N36 1.321 . S
C37 H61 0.930 . S
H38 C33 0.931 . S
Co39 N36 2.135 . S
Co39 N42 2.121 . S
Co39 O47 2.055 . S
Co39 O50 2.039 . S
Co39 N53 2.140 . S
C40 O41 1.227 . S
C40 O50 1.265 . S
O41 C40 1.227 . S
N42 Co39 2.121 . S
N42 C44 1.375 . S
N42 C45 1.313 . S
C43 C44 1.338 . S
C43 N46 1.377 . S
C43 H63 0.930 . S
C44 N42 1.375 . S
C44 C43 1.338 . S
C44 H48 0.931 . S
C45 N42 1.313 . S
C45 N46 1.344 . S
C45 H49 0.930 . S
N46 C43 1.377 . S
N46 C45 1.344 . S
O47 Co39 2.055 . S
O47 C51 1.253 . S
H48 C44 0.931 . S
H49 C45 0.930 . S
O50 Co39 2.039 . S
O50 C40 1.265 . S
C51 O47 1.253 . S
C51 O52 1.227 . S
O52 C51 1.227 . S
N53 Co39 2.140 . S
N53 C56 1.346 . S
N53 C57 1.345 . S
C54 C55 1.387 . S
C54 C58 1.391 . S
C55 C54 1.387 . S
C55 C56 1.369 . S
C55 H64 0.929 . S
C56 N53 1.346 . S
C56 C55 1.369 . S
C56 H59 0.928 . S
C57 N53 1.345 . S
C57 C58 1.371 . S
C57 H60 0.931 . S
C58 C54 1.391 . S
C58 C57 1.371 . S
C58 H65 0.930 . S
H59 C56 0.928 . S
H60 C57 0.931 . S
H61 C37 0.930 . S
H62 C34 0.930 . S
H63 C43 0.930 . S
H64 C55 0.929 . S
H65 C58 0.930 . S
C66 C67 1.351 1_556 S
C66 N69 1.368 . S
C66 H71 0.931 . S
C67 C66 1.351 1_554 S
C67 N68 1.373 . S
C67 H95 0.930 . S
N68 C67 1.373 . S
N68 C70 1.340 . S
N69 C66 1.368 . S
N69 C70 1.321 1_556 S
N69 Co72 2.135 . S
C70 N68 1.340 . S
C70 N69 1.321 1_554 S
C70 H94 0.930 . S
H71 C66 0.931 . S
Co72 N69 2.135 . S
Co72 N75 2.121 . S
Co72 O80 2.055 . S
Co72 O83 2.039 . S
Co72 N86 2.140 . S
C73 O74 1.227 . S
C73 O83 1.265 . S
O74 C73 1.227 . S
N75 Co72 2.121 . S
N75 C77 1.375 . S
N75 C78 1.313 . S
C76 C77 1.338 . S
C76 N79 1.377 . S
C76 H96 0.930 . S
C77 N75 1.375 . S
C77 C76 1.338 . S
C77 H81 0.931 . S
C78 N75 1.313 . S
C78 N79 1.344 . S
C78 H82 0.930 . S
N79 C76 1.377 . S
N79 C78 1.344 . S
O80 Co72 2.055 . S
O80 C84 1.253 . S
H81 C77 0.931 . S
H82 C78 0.930 . S
O83 Co72 2.039 . S
O83 C73 1.265 . S
C84 O80 1.253 . S
C84 O85 1.227 . S
O85 C84 1.227 . S
N86 Co72 2.140 . S
N86 C89 1.346 . S
N86 C90 1.345 . S
C87 C88 1.387 . S
C87 C91 1.391 . S
C88 C87 1.387 . S
C88 C89 1.369 . S
C88 H97 0.929 . S
C89 N86 1.346 . S
C89 C88 1.369 . S
C89 H92 0.928 . S
C90 N86 1.345 . S
C90 C91 1.371 . S
C90 H93 0.931 . S
C91 C87 1.391 . S
C91 C90 1.371 . S
C91 H98 0.930 . S
H92 C89 0.928 . S
H93 C90 0.931 . S
H94 C70 0.930 . S
H95 C67 0.930 . S
H96 C76 0.930 . S
H97 C88 0.929 . S
H98 C91 0.930 . S
C99 C100 1.351 . S
C99 N102 1.368 . S
C99 H104 0.931 . S
C100 C99 1.351 . S
C100 N101 1.373 . S
C100 H128 0.930 . S
N101 C100 1.373 . S
N101 C103 1.340 . S
N102 C99 1.368 . S
N102 C103 1.321 . S
N102 Co105 2.135 1_554 S
C103 N101 1.340 . S
C103 N102 1.321 . S
C103 H127 0.930 . S
H104 C99 0.931 . S
Co105 N102 2.135 1_556 S
Co105 N108 2.121 . S
Co105 O113 2.055 . S
Co105 O116 2.039 1_556 S
Co105 N119 2.140 1_556 S
C106 O107 1.227 . S
C106 O116 1.265 . S
O107 C106 1.227 . S
N108 Co105 2.121 . S
N108 C110 1.375 . S
N108 C111 1.313 . S
C109 C110 1.338 . S
C109 N112 1.377 . S
C109 H129 0.930 . S
C110 N108 1.375 . S
C110 C109 1.338 . S
C110 H114 0.931 . S
C111 N108 1.313 . S
C111 N112 1.344 . S
C111 H115 0.930 . S
N112 C109 1.377 . S
N112 C111 1.344 . S
O113 Co105 2.055 . S
O113 C117 1.253 . S
H114 C110 0.931 . S
H115 C111 0.930 . S
O116 Co105 2.039 1_554 S
O116 C106 1.265 . S
C117 O113 1.253 . S
C117 O118 1.227 . S
O118 C117 1.227 . S
N119 Co105 2.140 1_554 S
N119 C122 1.346 . S
N119 C123 1.345 1_554 S
C120 C121 1.387 . S
C120 C124 1.391 1_554 S
C121 C120 1.387 . S
C121 C122 1.369 . S
C121 H130 0.929 . S
C122 N119 1.346 . S
C122 C121 1.369 . S
C122 H125 0.928 . S
C123 N119 1.345 1_556 S
C123 C124 1.371 . S
C123 H126 0.931 . S
C124 C120 1.391 1_556 S
C124 C123 1.371 . S
C124 H131 0.930 . S
H125 C122 0.928 . S
H126 C123 0.931 . S
H127 C103 0.930 . S
H128 C100 0.930 . S
H129 C109 0.930 . S
H130 C121 0.929 . S
H131 C124 0.930 . S
C132 C133 1.351 . S
C132 N135 1.368 . S
C132 H137 0.931 . S
C133 C132 1.351 . S
C133 N134 1.373 . S
C133 H161 0.930 . S
N134 C133 1.373 . S
N134 C136 1.340 . S
N135 C132 1.368 . S
N135 C136 1.321 . S
N135 Co138 2.135 . S
C136 N134 1.340 . S
C136 N135 1.321 . S
C136 H160 0.930 . S
H137 C132 0.931 . S
Co138 N135 2.135 . S
Co138 N141 2.121 . S
Co138 O146 2.055 . S
Co138 O149 2.039 . S
Co138 N152 2.140 . S
C139 O140 1.227 . S
C139 O149 1.265 . S
O140 C139 1.227 . S
N141 Co138 2.121 . S
N141 C143 1.375 . S
N141 C144 1.313 . S
C142 C143 1.338 1_554 S
C142 N145 1.377 . S
C142 H162 0.930 . S
C143 N141 1.375 . S
C143 C142 1.338 1_556 S
C143 H147 0.931 . S
C144 N141 1.313 . S
C144 N145 1.344 1_556 S
C144 H148 0.930 . S
N145 C142 1.377 . S
N145 C144 1.344 1_554 S
O146 Co138 2.055 . S
O146 C150 1.253 . S
H147 C143 0.931 . S
H148 C144 0.930 . S
O149 Co138 2.039 . S
O149 C139 1.265 . S
C150 O146 1.253 . S
C150 O151 1.227 . S
O151 C150 1.227 . S
N152 Co138 2.140 . S
N152 C155 1.346 . S
N152 C156 1.345 . S
C153 C154 1.387 . S
C153 C157 1.391 . S
C154 C153 1.387 . S
C154 C155 1.369 . S
C154 H163 0.929 . S
C155 N152 1.346 . S
C155 C154 1.369 . S
C155 H158 0.928 . S
C156 N152 1.345 . S
C156 C157 1.371 . S
C156 H159 0.931 . S
C157 C153 1.391 . S
C157 C156 1.371 . S
C157 H164 0.930 . S
H158 C155 0.928 . S
H159 C156 0.931 . S
H160 C136 0.930 . S
H161 C133 0.930 . S
H162 C142 0.930 . S
H163 C154 0.929 . S
H164 C157 0.930 . S
C165 C166 1.351 . S
C165 N168 1.368 . S
C165 H170 0.931 . S
C166 C165 1.351 . S
C166 N167 1.373 . S
C166 H194 0.930 . S
N167 C166 1.373 . S
N167 C169 1.340 . S
N168 C165 1.368 . S
N168 C169 1.321 . S
N168 Co171 2.135 1_556 S
C169 N167 1.340 . S
C169 N168 1.321 . S
C169 H193 0.930 . S
H170 C165 0.931 . S
Co171 N168 2.135 1_554 S
Co171 N174 2.121 . S
Co171 O179 2.055 . S
Co171 O182 2.039 1_554 S
Co171 N185 2.140 1_554 S
C172 O173 1.227 . S
C172 O182 1.265 . S
O173 C172 1.227 . S
N174 Co171 2.121 . S
N174 C176 1.375 . S
N174 C177 1.313 . S
C175 C176 1.338 . S
C175 N178 1.377 . S
C175 H195 0.930 . S
C176 N174 1.375 . S
C176 C175 1.338 . S
C176 H180 0.931 . S
C177 N174 1.313 . S
C177 N178 1.344 . S
C177 H181 0.930 . S
N178 C175 1.377 . S
N178 C177 1.344 . S
O179 Co171 2.055 . S
O179 C183 1.253 . S
H180 C176 0.931 . S
H181 C177 0.930 . S
O182 Co171 2.039 1_556 S
O182 C172 1.265 . S
C183 O179 1.253 . S
C183 O184 1.227 . S
O184 C183 1.227 . S
N185 Co171 2.140 1_556 S
N185 C188 1.346 . S
N185 C189 1.345 1_556 S
C186 C187 1.387 . S
C186 C190 1.391 1_556 S
C187 C186 1.387 . S
C187 C188 1.369 . S
C187 H196 0.929 . S
C188 N185 1.346 . S
C188 C187 1.369 . S
C188 H191 0.928 . S
C189 N185 1.345 1_554 S
C189 C190 1.371 . S
C189 H192 0.931 . S
C190 C186 1.391 1_554 S
C190 C189 1.371 . S
C190 H197 0.930 . S
H191 C188 0.928 . S
H192 C189 0.931 . S
H193 C169 0.930 . S
H194 C166 0.930 . S
H195 C175 0.930 . S
H196 C187 0.929 . S
H197 C190 0.930 . S
C198 C199 1.351 1_554 S
C198 N201 1.368 . S
C198 H203 0.931 . S
C199 C198 1.351 1_556 S
C199 N200 1.373 . S
C199 H227 0.930 . S
N200 C199 1.373 . S
N200 C202 1.340 . S
N201 C198 1.368 . S
N201 C202 1.321 1_554 S
N201 Co204 2.135 . S
C202 N200 1.340 . S
C202 N201 1.321 1_556 S
C202 H226 0.930 . S
H203 C198 0.931 . S
Co204 N201 2.135 . S
Co204 N207 2.121 . S
Co204 O212 2.055 . S
Co204 O215 2.039 . S
Co204 N218 2.140 . S
C205 O206 1.227 . S
C205 O215 1.265 . S
O206 C205 1.227 . S
N207 Co204 2.121 . S
N207 C209 1.375 . S
N207 C210 1.313 . S
C208 C209 1.338 . S
C208 N211 1.377 . S
C208 H228 0.930 . S
C209 N207 1.375 . S
C209 C208 1.338 . S
C209 H213 0.931 . S
C210 N207 1.313 . S
C210 N211 1.344 . S
C210 H214 0.930 . S
N211 C208 1.377 . S
N211 C210 1.344 . S
O212 Co204 2.055 . S
O212 C216 1.253 . S
H213 C209 0.931 . S
H214 C210 0.930 . S
O215 Co204 2.039 . S
O215 C205 1.265 . S
C216 O212 1.253 . S
C216 O217 1.227 . S
O217 C216 1.227 . S
N218 Co204 2.140 . S
N218 C221 1.346 . S
N218 C222 1.345 . S
C219 C220 1.387 . S
C219 C223 1.391 . S
C220 C219 1.387 . S
C220 C221 1.369 . S
C220 H229 0.929 . S
C221 N218 1.346 . S
C221 C220 1.369 . S
C221 H224 0.928 . S
C222 N218 1.345 . S
C222 C223 1.371 . S
C222 H225 0.931 . S
C223 C219 1.391 . S
C223 C222 1.371 . S
C223 H230 0.930 . S
H224 C221 0.928 . S
H225 C222 0.931 . S
H226 C202 0.930 . S
H227 C199 0.930 . S
H228 C208 0.930 . S
H229 C220 0.929 . S
H230 C223 0.930 . S
C231 C232 1.351 . S
C231 N234 1.368 . S
C231 H236 0.931 . S
C232 C231 1.351 . S
C232 N233 1.373 . S
C232 H260 0.930 . S
N233 C232 1.373 . S
N233 C235 1.340 . S
N234 C231 1.368 . S
N234 C235 1.321 . S
N234 Co237 2.135 . S
C235 N233 1.340 . S
C235 N234 1.321 . S
C235 H259 0.930 . S
H236 C231 0.931 . S
Co237 N234 2.135 . S
Co237 N240 2.121 . S
Co237 O245 2.055 . S
Co237 O248 2.039 . S
Co237 N251 2.140 . S
C238 O239 1.227 . S
C238 O248 1.265 . S
O239 C238 1.227 . S
N240 Co237 2.121 . S
N240 C242 1.375 . S
N240 C243 1.313 . S
C241 C242 1.338 . S
C241 N244 1.377 . S
C241 H261 0.930 . S
C242 N240 1.375 . S
C242 C241 1.338 . S
C242 H246 0.931 . S
C243 N240 1.313 . S
C243 N244 1.344 . S
C243 H247 0.930 . S
N244 C241 1.377 . S
N244 C243 1.344 . S
O245 Co237 2.055 . S
O245 C249 1.253 . S
H246 C242 0.931 . S
H247 C243 0.930 . S
O248 Co237 2.039 . S
O248 C238 1.265 . S
C249 O245 1.253 . S
C249 O250 1.227 . S
O250 C249 1.227 . S
N251 Co237 2.140 . S
N251 C254 1.346 . S
N251 C255 1.345 . S
C252 C253 1.387 . S
C252 C256 1.391 . S
C253 C252 1.387 . S
C253 C254 1.369 . S
C253 H262 0.929 . S
C254 N251 1.346 . S
C254 C253 1.369 . S
C254 H257 0.928 . S
C255 N251 1.345 . S
C255 C256 1.371 . S
C255 H258 0.931 . S
C256 C252 1.391 . S
C256 C255 1.371 . S
C256 H263 0.930 . S
H257 C254 0.928 . S
H258 C255 0.931 . S
H259 C235 0.930 . S
H260 C232 0.930 . S
H261 C241 0.930 . S
H262 C253 0.929 . S
H263 C256 0.930 . S
C264 C265 1.351 . S
C264 N267 1.368 . S
C264 H269 0.931 . S
C265 C264 1.351 . S
C265 N266 1.373 . S
C265 H293 0.930 . S
N266 C265 1.373 . S
N266 C268 1.340 . S
N267 C264 1.368 . S
N267 C268 1.321 . S
N267 Co270 2.135 . S
C268 N266 1.340 . S
C268 N267 1.321 . S
C268 H292 0.930 . S
H269 C264 0.931 . S
Co270 N267 2.135 . S
Co270 N273 2.121 . S
Co270 O278 2.055 . S
Co270 O281 2.039 . S
Co270 N284 2.140 . S
C271 O272 1.227 . S
C271 O281 1.265 . S
O272 C271 1.227 . S
N273 Co270 2.121 . S
N273 C275 1.375 . S
N273 C276 1.313 . S
C274 C275 1.338 . S
C274 N277 1.377 . S
C274 H294 0.930 . S
C275 N273 1.375 . S
C275 C274 1.338 . S
C275 H279 0.931 . S
C276 N273 1.313 . S
C276 N277 1.344 . S
C276 H280 0.930 . S
N277 C274 1.377 . S
N277 C276 1.344 . S
O278 Co270 2.055 . S
O278 C282 1.253 . S
H279 C275 0.931 . S
H280 C276 0.930 . S
O281 Co270 2.039 . S
O281 C271 1.265 . S
C282 O278 1.253 . S
C282 O283 1.227 . S
O283 C282 1.227 . S
N284 Co270 2.140 . S
N284 C287 1.346 . S
N284 C288 1.345 . S
C285 C286 1.387 . S
C285 C289 1.391 . S
C286 C285 1.387 . S
C286 C287 1.369 . S
C286 H295 0.929 . S
C287 N284 1.346 . S
C287 C286 1.369 . S
C287 H290 0.928 . S
C288 N284 1.345 . S
C288 C289 1.371 . S
C288 H291 0.931 . S
C289 C285 1.391 . S
C289 C288 1.371 . S
C289 H296 0.930 . S
H290 C287 0.928 . S
H291 C288 0.931 . S
H292 C268 0.930 . S
H293 C265 0.930 . S
H294 C274 0.930 . S
H295 C286 0.929 . S
H296 C289 0.930 . S
C297 C298 1.351 . S
C297 N300 1.368 . S
C297 H302 0.931 . S
C298 C297 1.351 . S
C298 N299 1.373 . S
C298 H326 0.930 . S
N299 C298 1.373 . S
N299 C301 1.340 . S
N300 C297 1.368 . S
N300 C301 1.321 . S
N300 Co303 2.135 1_556 S
C301 N299 1.340 . S
C301 N300 1.321 . S
C301 H325 0.930 . S
H302 C297 0.931 . S
Co303 N300 2.135 1_554 S
Co303 N306 2.121 . S
Co303 O311 2.055 . S
Co303 O314 2.039 1_554 S
Co303 N317 2.140 1_554 S
C304 O305 1.227 . S
C304 O314 1.265 . S
O305 C304 1.227 . S
N306 Co303 2.121 . S
N306 C308 1.375 . S
N306 C309 1.313 . S
C307 C308 1.338 . S
C307 N310 1.377 . S
C307 H327 0.930 . S
C308 N306 1.375 . S
C308 C307 1.338 . S
C308 H312 0.931 . S
C309 N306 1.313 . S
C309 N310 1.344 . S
C309 H313 0.930 . S
N310 C307 1.377 . S
N310 C309 1.344 . S
O311 Co303 2.055 . S
O311 C315 1.253 . S
H312 C308 0.931 . S
H313 C309 0.930 . S
O314 Co303 2.039 1_556 S
O314 C304 1.265 . S
C315 O311 1.253 . S
C315 O316 1.227 . S
O316 C315 1.227 . S
N317 Co303 2.140 1_556 S
N317 C320 1.346 . S
N317 C321 1.345 1_556 S
C318 C319 1.387 . S
C318 C322 1.391 1_556 S
C319 C318 1.387 . S
C319 C320 1.369 . S
C319 H328 0.929 . S
C320 N317 1.346 . S
C320 C319 1.369 . S
C320 H323 0.928 . S
C321 N317 1.345 1_554 S
C321 C322 1.371 . S
C321 H324 0.931 . S
C322 C318 1.391 1_554 S
C322 C321 1.371 . S
C322 H329 0.930 . S
H323 C320 0.928 . S
H324 C321 0.931 . S
H325 C301 0.930 . S
H326 C298 0.930 . S
H327 C307 0.930 . S
H328 C319 0.929 . S
H329 C322 0.930 . S
C330 C331 1.351 . S
C330 N333 1.368 . S
C330 H335 0.931 . S
C331 C330 1.351 . S
C331 N332 1.373 . S
C331 H359 0.930 . S
N332 C331 1.373 . S
N332 C334 1.340 . S
N333 C330 1.368 . S
N333 C334 1.321 . S
N333 Co336 2.135 1_554 S
C334 N332 1.340 . S
C334 N333 1.321 . S
C334 H358 0.930 . S
H335 C330 0.931 . S
Co336 N333 2.135 1_556 S
Co336 N339 2.121 . S
Co336 O344 2.055 . S
Co336 O347 2.039 1_556 S
Co336 N350 2.140 1_556 S
C337 O338 1.227 . S
C337 O347 1.265 . S
O338 C337 1.227 . S
N339 Co336 2.121 . S
N339 C341 1.375 . S
N339 C342 1.313 . S
C340 C341 1.338 . S
C340 N343 1.377 . S
C340 H360 0.930 . S
C341 N339 1.375 . S
C341 C340 1.338 . S
C341 H345 0.931 . S
C342 N339 1.313 . S
C342 N343 1.344 . S
C342 H346 0.930 . S
N343 C340 1.377 . S
N343 C342 1.344 . S
O344 Co336 2.055 . S
O344 C348 1.253 . S
H345 C341 0.931 . S
H346 C342 0.930 . S
O347 Co336 2.039 1_554 S
O347 C337 1.265 . S
C348 O344 1.253 . S
C348 O349 1.227 . S
O349 C348 1.227 . S
N350 Co336 2.140 1_554 S
N350 C353 1.346 . S
N350 C354 1.345 1_554 S
C351 C352 1.387 . S
C351 C355 1.391 1_554 S
C352 C351 1.387 . S
C352 C353 1.369 . S
C352 H361 0.929 . S
C353 N350 1.346 . S
C353 C352 1.369 . S
C353 H356 0.928 . S
C354 N350 1.345 1_556 S
C354 C355 1.371 . S
C354 H357 0.931 . S
C355 C351 1.391 1_556 S
C355 C354 1.371 . S
C355 H362 0.930 . S
H356 C353 0.928 . S
H357 C354 0.931 . S
H358 C334 0.930 . S
H359 C331 0.930 . S
H360 C340 0.930 . S
H361 C352 0.929 . S
H362 C355 0.930 . S
C363 C364 1.351 . S
C363 N366 1.368 . S
C363 H368 0.931 . S
C364 C363 1.351 . S
C364 N365 1.373 . S
C364 H392 0.930 . S
N365 C364 1.373 . S
N365 C367 1.340 . S
N366 C363 1.368 . S
N366 C367 1.321 . S
N366 Co369 2.135 . S
C367 N365 1.340 . S
C367 N366 1.321 . S
C367 H391 0.930 . S
H368 C363 0.931 . S
Co369 N366 2.135 . S
Co369 N372 2.121 . S
Co369 O377 2.055 . S
Co369 O380 2.039 . S
Co369 N383 2.140 . S
C370 O371 1.227 . S
C370 O380 1.265 . S
O371 C370 1.227 . S
N372 Co369 2.121 . S
N372 C374 1.375 . S
N372 C375 1.313 . S
C373 C374 1.338 . S
C373 N376 1.377 . S
C373 H393 0.930 . S
C374 N372 1.375 . S
C374 C373 1.338 . S
C374 H378 0.931 . S
C375 N372 1.313 . S
C375 N376 1.344 . S
C375 H379 0.930 . S
N376 C373 1.377 . S
N376 C375 1.344 . S
O377 Co369 2.055 . S
O377 C381 1.253 . S
H378 C374 0.931 . S
H379 C375 0.930 . S
O380 Co369 2.039 . S
O380 C370 1.265 . S
C381 O377 1.253 . S
C381 O382 1.227 . S
O382 C381 1.227 . S
N383 Co369 2.140 . S
N383 C386 1.346 . S
N383 C387 1.345 . S
C384 C385 1.387 . S
C384 C388 1.391 . S
C385 C384 1.387 . S
C385 C386 1.369 . S
C385 H394 0.929 . S
C386 N383 1.346 . S
C386 C385 1.369 . S
C386 H389 0.928 . S
C387 N383 1.345 . S
C387 C388 1.371 . S
C387 H390 0.931 . S
C388 C384 1.391 . S
C388 C387 1.371 . S
C388 H395 0.930 . S
H389 C386 0.928 . S
H390 C387 0.931 . S
H391 C367 0.930 . S
H392 C364 0.930 . S
H393 C373 0.930 . S
H394 C385 0.929 . S
H395 C388 0.930 . S
C396 C397 1.351 1_556 S
C396 N399 1.368 . S
C396 H401 0.931 . S
C397 C396 1.351 1_554 S
C397 N398 1.373 . S
C397 H425 0.930 . S
N398 C397 1.373 . S
N398 C400 1.340 . S
N399 C396 1.368 . S
N399 C400 1.321 1_556 S
N399 Co402 2.135 . S
C400 N398 1.340 . S
C400 N399 1.321 1_554 S
C400 H424 0.930 . S
H401 C396 0.931 . S
Co402 N399 2.135 . S
Co402 N405 2.121 . S
Co402 O410 2.055 . S
Co402 O413 2.039 . S
Co402 N416 2.140 . S
C403 O404 1.227 . S
C403 O413 1.265 . S
O404 C403 1.227 . S
N405 Co402 2.121 . S
N405 C407 1.375 . S
N405 C408 1.313 . S
C406 C407 1.338 . S
C406 N409 1.377 . S
C406 H426 0.930 . S
C407 N405 1.375 . S
C407 C406 1.338 . S
C407 H411 0.931 . S
C408 N405 1.313 . S
C408 N409 1.344 . S
C408 H412 0.930 . S
N409 C406 1.377 . S
N409 C408 1.344 . S
O410 Co402 2.055 . S
O410 C414 1.253 . S
H411 C407 0.931 . S
H412 C408 0.930 . S
O413 Co402 2.039 . S
O413 C403 1.265 . S
C414 O410 1.253 . S
C414 O415 1.227 . S
O415 C414 1.227 . S
N416 Co402 2.140 . S
N416 C419 1.346 . S
N416 C420 1.345 . S
C417 C418 1.387 . S
C417 C421 1.391 . S
C418 C417 1.387 . S
C418 C419 1.369 . S
C418 H427 0.929 . S
C419 N416 1.346 . S
C419 C418 1.369 . S
C419 H422 0.928 . S
C420 N416 1.345 . S
C420 C421 1.371 . S
C420 H423 0.931 . S
C421 C417 1.391 . S
C421 C420 1.371 . S
C421 H428 0.930 . S
H422 C419 0.928 . S
H423 C420 0.931 . S
H424 C400 0.930 . S
H425 C397 0.930 . S
H426 C406 0.930 . S
H427 C418 0.929 . S
H428 C421 0.930 . S
C429 C430 1.351 . S
C429 N432 1.368 . S
C429 H434 0.931 . S
C430 C429 1.351 . S
C430 N431 1.373 . S
C430 H458 0.930 . S
N431 C430 1.373 . S
N431 C433 1.340 . S
N432 C429 1.368 . S
N432 C433 1.321 . S
N432 Co435 2.135 . S
C433 N431 1.340 . S
C433 N432 1.321 . S
C433 H457 0.930 . S
H434 C429 0.931 . S
Co435 N432 2.135 . S
Co435 N438 2.121 . S
Co435 O443 2.055 . S
Co435 O446 2.039 . S
Co435 N449 2.140 . S
C436 O437 1.227 . S
C436 O446 1.265 . S
O437 C436 1.227 . S
N438 Co435 2.121 . S
N438 C440 1.375 . S
N438 C441 1.313 . S
C439 C440 1.338 1_556 S
C439 N442 1.377 . S
C439 H459 0.930 . S
C440 N438 1.375 . S
C440 C439 1.338 1_554 S
C440 H444 0.931 . S
C441 N438 1.313 . S
C441 N442 1.344 1_554 S
C441 H445 0.930 . S
N442 C439 1.377 . S
N442 C441 1.344 1_556 S
O443 Co435 2.055 . S
O443 C447 1.253 . S
H444 C440 0.931 . S
H445 C441 0.930 . S
O446 Co435 2.039 . S
O446 C436 1.265 . S
C447 O443 1.253 . S
C447 O448 1.227 . S
O448 C447 1.227 . S
N449 Co435 2.140 . S
N449 C452 1.346 . S
N449 C453 1.345 . S
C450 C451 1.387 . S
C450 C454 1.391 . S
C451 C450 1.387 . S
C451 C452 1.369 . S
C451 H460 0.929 . S
C452 N449 1.346 . S
C452 C451 1.369 . S
C452 H455 0.928 . S
C453 N449 1.345 . S
C453 C454 1.371 . S
C453 H456 0.931 . S
C454 C450 1.391 . S
C454 C453 1.371 . S
C454 H461 0.930 . S
H455 C452 0.928 . S
H456 C453 0.931 . S
H457 C433 0.930 . S
H458 C430 0.930 . S
H459 C439 0.930 . S
H460 C451 0.929 . S
H461 C454 0.930 . S
C462 C463 1.351 1_554 S
C462 N465 1.368 . S
C462 H467 0.931 . S
C463 C462 1.351 1_556 S
C463 N464 1.373 . S
C463 H491 0.930 . S
N464 C463 1.373 . S
N464 C466 1.340 . S
N465 C462 1.368 . S
N465 C466 1.321 1_554 S
N465 Co468 2.135 . S
C466 N464 1.340 . S
C466 N465 1.321 1_556 S
C466 H490 0.930 . S
H467 C462 0.931 . S
Co468 N465 2.135 . S
Co468 N471 2.121 . S
Co468 O476 2.055 . S
Co468 O479 2.039 . S
Co468 N482 2.140 . S
C469 O470 1.227 . S
C469 O479 1.265 . S
O470 C469 1.227 . S
N471 Co468 2.121 . S
N471 C473 1.375 . S
N471 C474 1.313 . S
C472 C473 1.338 . S
C472 N475 1.377 . S
C472 H492 0.930 . S
C473 N471 1.375 . S
C473 C472 1.338 . S
C473 H477 0.931 . S
C474 N471 1.313 . S
C474 N475 1.344 . S
C474 H478 0.930 . S
N475 C472 1.377 . S
N475 C474 1.344 . S
O476 Co468 2.055 . S
O476 C480 1.253 . S
H477 C473 0.931 . S
H478 C474 0.930 . S
O479 Co468 2.039 . S
O479 C469 1.265 . S
C480 O476 1.253 . S
C480 O481 1.227 . S
O481 C480 1.227 . S
N482 Co468 2.140 . S
N482 C485 1.346 . S
N482 C486 1.345 . S
C483 C484 1.387 . S
C483 C487 1.391 . S
C484 C483 1.387 . S
C484 C485 1.369 . S
C484 H493 0.929 . S
C485 N482 1.346 . S
C485 C484 1.369 . S
C485 H488 0.928 . S
C486 N482 1.345 . S
C486 C487 1.371 . S
C486 H489 0.931 . S
C487 C483 1.391 . S
C487 C486 1.371 . S
C487 H494 0.930 . S
H488 C485 0.928 . S
H489 C486 0.931 . S
H490 C466 0.930 . S
H491 C463 0.930 . S
H492 C472 0.930 . S
H493 C484 0.929 . S
H494 C487 0.930 . S
C495 C496 1.351 . S
C495 N498 1.368 . S
C495 H500 0.931 . S
C496 C495 1.351 . S
C496 N497 1.373 . S
C496 H524 0.930 . S
N497 C496 1.373 . S
N497 C499 1.340 . S
N498 C495 1.368 . S
N498 C499 1.321 . S
N498 Co501 2.135 . S
C499 N497 1.340 . S
C499 N498 1.321 . S
C499 H523 0.930 . S
H500 C495 0.931 . S
Co501 N498 2.135 . S
Co501 N504 2.121 . S
Co501 O509 2.055 . S
Co501 O512 2.039 . S
Co501 N515 2.140 . S
C502 O503 1.227 . S
C502 O512 1.265 . S
O503 C502 1.227 . S
N504 Co501 2.121 . S
N504 C506 1.375 . S
N504 C507 1.313 . S
C505 C506 1.338 1_554 S
C505 N508 1.377 . S
C505 H525 0.930 . S
C506 N504 1.375 . S
C506 C505 1.338 1_556 S
C506 H510 0.931 . S
C507 N504 1.313 . S
C507 N508 1.344 1_556 S
C507 H511 0.930 . S
N508 C505 1.377 . S
N508 C507 1.344 1_554 S
O509 Co501 2.055 . S
O509 C513 1.253 . S
H510 C506 0.931 . S
H511 C507 0.930 . S
O512 Co501 2.039 . S
O512 C502 1.265 . S
C513 O509 1.253 . S
C513 O514 1.227 . S
O514 C513 1.227 . S
N515 Co501 2.140 . S
N515 C518 1.346 . S
N515 C519 1.345 . S
C516 C517 1.387 . S
C516 C520 1.391 . S
C517 C516 1.387 . S
C517 C518 1.369 . S
C517 H526 0.929 . S
C518 N515 1.346 . S
C518 C517 1.369 . S
C518 H521 0.928 . S
C519 N515 1.345 . S
C519 C520 1.371 . S
C519 H522 0.931 . S
C520 C516 1.391 . S
C520 C519 1.371 . S
C520 H527 0.930 . S
H521 C518 0.928 . S
H522 C519 0.931 . S
H523 C499 0.930 . S
H524 C496 0.930 . S
H525 C505 0.930 . S
H526 C517 0.929 . S
H527 C520 0.930 . S
C528 C529 1.387 . S
C528 H532 0.950 . S
C528 C537 1.390 . S
C529 C528 1.387 . S
C529 C531 1.387 . S
H530 C537 0.950 . S
C531 C529 1.387 . S
C531 C533 1.390 . S
C531 H535 0.950 . S
H532 C528 0.950 . S
C533 C531 1.390 . S
C533 C534 1.387 . S
C533 H536 0.950 . S
C534 C533 1.387 . S
C534 C537 1.387 . S
H535 C531 0.950 . S
H536 C533 0.950 . S
C537 C528 1.390 . S
C537 H530 0.950 . S
C537 C534 1.387 . S
C538 C539 1.387 . S
C538 H542 0.950 . S
C538 C547 1.390 . S
C539 C538 1.387 . S
C539 C541 1.387 . S
H540 C547 0.950 . S
C541 C539 1.387 . S
C541 C543 1.390 . S
C541 H545 0.950 . S
H542 C538 0.950 . S
C543 C541 1.390 . S
C543 C544 1.387 . S
C543 H546 0.950 . S
C544 C543 1.387 . S
C544 C547 1.387 . S
H545 C541 0.950 . S
H546 C543 0.950 . S
C547 C538 1.390 . S
C547 H540 0.950 . S
C547 C544 1.387 . S
C548 C549 1.387 . S
C548 H552 0.950 . S
C548 C557 1.390 . S
C549 C548 1.387 . S
C549 C551 1.387 . S
H550 C557 0.950 . S
C551 C549 1.387 . S
C551 C553 1.390 . S
C551 H555 0.950 . S
H552 C548 0.950 . S
C553 C551 1.390 . S
C553 C554 1.387 . S
C553 H556 0.950 . S
C554 C553 1.387 . S
C554 C557 1.387 . S
H555 C551 0.950 . S
H556 C553 0.950 . S
C557 C548 1.390 . S
C557 H550 0.950 . S
C557 C554 1.387 . S
C558 C559 1.387 . S
C558 H562 0.950 . S
C558 C567 1.390 . S
C559 C558 1.387 . S
C559 C561 1.387 . S
H560 C567 0.950 . S
C561 C559 1.387 . S
C561 C563 1.390 . S
C561 H565 0.950 1_554 S
H562 C558 0.950 . S
C563 C561 1.390 . S
C563 C564 1.387 . S
C563 H566 0.950 1_554 S
C564 C563 1.387 . S
C564 C567 1.387 . S
H565 C561 0.950 1_556 S
H566 C563 0.950 1_556 S
C567 C558 1.390 . S
C567 H560 0.950 . S
C567 C564 1.387 . S
C568 C569 1.387 . S
C568 H572 0.950 . S
C568 C577 1.390 . S
C569 C568 1.387 . S
C569 C571 1.387 . S
H570 C577 0.950 . S
C571 C569 1.387 . S
C571 C573 1.390 1_655 S
C571 H575 0.950 . S
H572 C568 0.950 . S
C573 C571 1.390 1_455 S
C573 C574 1.387 . S
C573 H576 0.950 . S
C574 C573 1.387 . S
C574 C577 1.387 1_455 S
H575 C571 0.950 . S
H576 C573 0.950 . S
C577 C568 1.390 . S
C577 H570 0.950 . S
C577 C574 1.387 1_655 S
C578 C579 1.387 . S
C578 H582 0.950 . S
C578 C587 1.390 . S
C579 C578 1.387 . S
C579 C581 1.387 . S
H580 C587 0.950 . S
C581 C579 1.387 . S
C581 C583 1.370 1_655 S
C581 H585 0.950 . S
H582 C578 0.950 . S
C583 C581 1.370 1_455 S
C583 C584 1.395 . S
C583 H586 0.964 . S
C584 C583 1.395 . S
C584 C587 1.387 1_455 S
H585 C581 0.950 . S
H586 C583 0.964 . S
C587 C578 1.390 . S
C587 H580 0.950 . S
C587 C584 1.387 1_655 S
C588 C589 1.387 . S
C588 H592 0.950 . S
C588 C597 1.390 . S
C589 C588 1.387 . S
C589 C591 1.387 . S
H590 C597 0.950 . S
C591 C589 1.387 . S
C591 C593 1.390 . S
C591 H595 0.950 . S
H592 C588 0.950 . S
C593 C591 1.390 . S
C593 C594 1.387 . S
C593 H596 0.950 1_554 S
C594 C593 1.387 . S
C594 C597 1.387 . S
H595 C591 0.950 . S
H596 C593 0.950 1_556 S
C597 C588 1.390 . S
C597 H590 0.950 . S
C597 C594 1.387 . S
C598 C599 1.387 . S
C598 H602 0.950 1_556 S
C598 C607 1.391 1_556 S
C599 C598 1.387 . S
C599 C601 1.387 . S
H600 C607 0.949 . S
C601 C599 1.387 . S
C601 C603 1.390 . S
C601 H605 0.950 . S
H602 C598 0.950 1_554 S
C603 C601 1.390 . S
C603 C604 1.387 . S
C603 H606 0.950 . S
C604 C603 1.387 . S
C604 C607 1.388 1_556 S
H605 C601 0.950 . S
H606 C603 0.950 . S
C607 C598 1.391 1_554 S
C607 H600 0.949 . S
C607 C604 1.388 1_554 S
C608 C609 1.387 . S
C608 H612 0.950 1_556 S
C608 C617 1.390 . S
C609 C608 1.387 . S
C609 C611 1.387 . S
H610 C617 0.950 . S
C611 C609 1.387 . S
C611 C613 1.390 . S
C611 H615 0.950 . S
H612 C608 0.950 1_554 S
C613 C611 1.390 . S
C613 C614 1.387 . S
C613 H616 0.950 . S
C614 C613 1.387 . S
C614 C617 1.387 . S
H615 C611 0.950 . S
H616 C613 0.950 . S
C617 C608 1.390 . S
C617 H610 0.950 . S
C617 C614 1.387 . S
C618 C619 1.387 . S
C618 H622 0.950 . S
C618 C627 1.390 . S
C619 C618 1.387 . S
C619 C621 1.387 . S
H620 C627 0.950 . S
C621 C619 1.387 . S
C621 C623 1.390 . S
C621 H625 0.950 . S
H622 C618 0.950 . S
C623 C621 1.390 . S
C623 C624 1.387 . S
C623 H626 0.950 . S
C624 C623 1.387 . S
C624 C627 1.387 . S
H625 C621 0.950 . S
H626 C623 0.950 . S
C627 C618 1.390 . S
C627 H620 0.950 . S
C627 C624 1.387 . S
C628 C629 1.387 . S
C628 H632 0.950 . S
C628 C637 1.390 . S
C629 C628 1.387 . S
C629 C631 1.387 . S
H630 C637 0.950 . S
C631 C629 1.387 . S
C631 C633 1.390 . S
C631 H635 0.950 . S
H632 C628 0.950 . S
C633 C631 1.390 . S
C633 C634 1.387 . S
C633 H636 0.950 . S
C634 C633 1.387 . S
C634 C637 1.387 . S
H635 C631 0.950 . S
H636 C633 0.950 . S
C637 C628 1.390 . S
C637 H630 0.950 . S
C637 C634 1.387 . S
C638 C639 1.387 . S
C638 H642 0.950 . S
C638 C647 1.390 . S
C639 C638 1.387 . S
C639 C641 1.387 . S
H640 C647 0.950 . S
C641 C639 1.387 . S
C641 C643 1.390 . S
C641 H645 0.950 . S
H642 C638 0.950 . S
C643 C641 1.390 . S
C643 C644 1.387 . S
C643 H646 0.950 . S
C644 C643 1.387 . S
C644 C647 1.387 . S
H645 C641 0.950 . S
H646 C643 0.950 . S
C647 C638 1.390 . S
C647 H640 0.950 . S
C647 C644 1.387 . S
C648 C649 1.387 . S
C648 H652 0.950 . S
C648 C657 1.390 . S
C649 C648 1.387 . S
C649 C651 1.387 . S
H650 C657 0.950 . S
C651 C649 1.387 . S
C651 C653 1.390 . S
C651 H655 0.950 1_554 S
H652 C648 0.950 . S
C653 C651 1.390 . S
C653 C654 1.387 . S
C653 H656 0.950 . S
C654 C653 1.387 . S
C654 C657 1.387 . S
H655 C651 0.950 1_556 S
H656 C653 0.950 . S
C657 C648 1.390 . S
C657 H650 0.950 . S
C657 C654 1.387 . S
C658 C659 1.387 . S
C658 H662 0.950 1_556 S
C658 C667 1.390 . S
C659 C658 1.387 . S
C659 C661 1.387 . S
H660 C667 0.950 1_554 S
C661 C659 1.387 . S
C661 C663 1.390 . S
C661 H665 0.950 . S
H662 C658 0.950 1_554 S
C663 C661 1.390 . S
C663 C664 1.387 . S
C663 H666 0.950 . S
C664 C663 1.387 . S
C664 C667 1.387 . S
H665 C661 0.950 . S
H666 C663 0.950 . S
C667 C658 1.390 . S
C667 H660 0.950 1_556 S
C667 C664 1.387 . S
C668 C669 1.387 . S
C668 H672 0.950 . S
C668 C677 1.390 . S
C669 C668 1.387 . S
C669 C671 1.387 . S
H670 C677 0.950 . S
C671 C669 1.387 . S
C671 C673 1.390 . S
C671 H675 0.950 . S
H672 C668 0.950 . S
C673 C671 1.390 . S
C673 C674 1.387 . S
C673 H676 0.950 . S
C674 C673 1.387 . S
C674 C677 1.387 . S
H675 C671 0.950 . S
H676 C673 0.950 . S
C677 C668 1.390 . S
C677 H670 0.950 . S
C677 C674 1.387 . S
C678 C679 1.387 . S
C678 H682 0.950 . S
C678 C687 1.390 . S
C679 C678 1.387 . S
C679 C681 1.387 . S
H680 C687 0.950 . S
C681 C679 1.387 . S
C681 C683 1.390 . S
C681 H685 0.950 . S
H682 C678 0.950 . S
C683 C681 1.390 . S
C683 C684 1.387 . S
C683 H686 0.950 . S
C684 C683 1.387 . S
C684 C687 1.387 . S
H685 C681 0.950 . S
H686 C683 0.950 . S
C687 C678 1.390 . S
C687 H680 0.950 . S
C687 C684 1.387 . S
C688 C689 1.387 . S
C688 H692 0.950 . S
C688 C697 1.390 1_544 S
C689 C688 1.387 . S
C689 C691 1.387 . S
H690 C697 0.950 . S
C691 C689 1.387 . S
C691 C693 1.390 1_544 S
C691 H695 0.950 . S
H692 C688 0.950 . S
C693 C691 1.390 1_566 S
C693 C694 1.387 . S
C693 H696 0.950 . S
C694 C693 1.387 . S
C694 C697 1.387 . S
H695 C691 0.950 . S
H696 C693 0.950 . S
C697 C688 1.390 1_566 S
C697 H690 0.950 . S
C697 C694 1.387 . S
C698 C699 1.387 . S
C698 H702 0.950 . S
C698 C707 1.390 . S
C699 C698 1.387 . S
C699 C701 1.387 . S
H700 C707 0.950 . S
C701 C699 1.387 . S
C701 C703 1.390 . S
C701 H705 0.950 . S
H702 C698 0.950 . S
C703 C701 1.390 . S
C703 C704 1.387 . S
C703 H706 0.950 . S
C704 C703 1.387 . S
C704 C707 1.387 . S
H705 C701 0.950 . S
H706 C703 0.950 . S
C707 C698 1.390 . S
C707 H700 0.950 . S
C707 C704 1.387 . S
C708 C709 1.387 . S
C708 H712 0.950 . S
C708 C717 1.390 1_545 S
C709 C708 1.387 . S
C709 C711 1.387 . S
H710 C717 0.950 . S
C711 C709 1.387 . S
C711 C713 1.390 1_545 S
C711 H715 0.950 . S
H712 C708 0.950 . S
C713 C711 1.390 1_565 S
C713 C714 1.387 . S
C713 H716 0.950 . S
C714 C713 1.387 . S
C714 C717 1.387 . S
H715 C711 0.950 . S
H716 C713 0.950 . S
C717 C708 1.390 1_565 S
C717 H710 0.950 . S
C717 C714 1.387 . S
C718 C719 1.387 . S
C718 H722 0.950 . S
C718 C727 1.390 . S
C719 C718 1.387 . S
C719 C721 1.387 . S
H720 C727 0.950 . S
C721 C719 1.387 . S
C721 C723 1.390 . S
C721 H725 0.950 . S
H722 C718 0.950 . S
C723 C721 1.390 . S
C723 C724 1.387 . S
C723 H726 0.950 . S
C724 C723 1.387 . S
C724 C727 1.387 . S
H725 C721 0.950 . S
H726 C723 0.950 . S
C727 C718 1.390 . S
C727 H720 0.950 . S
C727 C724 1.387 . S
C728 C729 1.387 . S
C728 H732 0.950 . S
C728 C737 1.390 . S
C729 C728 1.387 . S
C729 C731 1.387 . S
H730 C737 0.950 . S
C731 C729 1.387 . S
C731 C733 1.390 . S
C731 H735 0.950 . S
H732 C728 0.950 . S
C733 C731 1.390 . S
C733 C734 1.387 . S
C733 H736 0.950 . S
C734 C733 1.387 . S
C734 C737 1.387 . S
H735 C731 0.950 . S
H736 C733 0.950 . S
C737 C728 1.390 . S
C737 H730 0.950 . S
C737 C734 1.387 . S
C738 C739 1.387 . S
C738 H742 0.950 . S
C738 C747 1.390 . S
C739 C738 1.387 . S
C739 C741 1.387 . S
H740 C747 0.950 . S
C741 C739 1.387 . S
C741 C743 1.390 . S
C741 H745 0.950 . S
H742 C738 0.950 . S
C743 C741 1.390 . S
C743 C744 1.387 . S
C743 H746 0.950 . S
C744 C743 1.387 . S
C744 C747 1.387 . S
H745 C741 0.950 . S
H746 C743 0.950 . S
C747 C738 1.390 . S
C747 H740 0.950 . S
C747 C744 1.387 . S
C748 C749 1.387 . S
C748 H752 0.950 . S
C748 C757 1.390 . S
C749 C748 1.387 . S
C749 C751 1.387 . S
H750 C757 0.950 . S
C751 C749 1.387 . S
C751 C753 1.390 . S
C751 H755 0.950 . S
H752 C748 0.950 . S
C753 C751 1.390 . S
C753 C754 1.387 . S
C753 H756 0.950 . S
C754 C753 1.387 . S
C754 C757 1.387 . S
H755 C751 0.950 . S
H756 C753 0.950 . S
C757 C748 1.390 . S
C757 H750 0.950 . S
C757 C754 1.387 . S
C758 C759 1.387 . S
C758 H762 0.950 . S
C758 C767 1.390 1_556 S
C759 C758 1.387 . S
C759 C761 1.387 . S
H760 C767 0.950 . S
C761 C759 1.387 . S
C761 C763 1.390 1_556 S
C761 H765 0.950 . S
H762 C758 0.950 . S
C763 C761 1.390 1_554 S
C763 C764 1.387 . S
C763 H766 0.950 . S
C764 C763 1.387 . S
C764 C767 1.387 . S
H765 C761 0.950 . S
H766 C763 0.950 . S
C767 C758 1.390 1_554 S
C767 H760 0.950 . S
C767 C764 1.387 . S
C768 C769 1.387 . S
C768 H772 0.950 . S
C768 C777 1.390 . S
C769 C768 1.387 . S
C769 C771 1.387 . S
H770 C777 0.950 . S
C771 C769 1.387 . S
C771 C773 1.390 . S
C771 H775 0.950 . S
H772 C768 0.950 . S
C773 C771 1.390 . S
C773 C774 1.387 . S
C773 H776 0.950 . S
C774 C773 1.387 . S
C774 C777 1.387 . S
H775 C771 0.950 . S
H776 C773 0.950 . S
C777 C768 1.390 . S
C777 H770 0.950 . S
C777 C774 1.387 . S
C778 C779 1.387 . S
C778 H782 0.950 . S
C778 C787 1.390 1_554 S
C779 C778 1.387 . S
C779 C781 1.387 . S
H780 C787 0.950 . S
C781 C779 1.387 . S
C781 C783 1.390 1_554 S
C781 H785 0.950 . S
H782 C778 0.950 . S
C783 C781 1.390 1_556 S
C783 C784 1.387 . S
C783 H786 0.950 . S
C784 C783 1.387 . S
C784 C787 1.387 . S
H785 C781 0.950 . S
H786 C783 0.950 . S
C787 C778 1.390 1_556 S
C787 H780 0.950 . S
C787 C784 1.387 . S
C788 C789 1.387 . S
C788 H792 0.950 . S
C788 C797 1.390 . S
C789 C788 1.387 . S
C789 C791 1.387 . S
H790 C797 0.950 . S
C791 C789 1.387 . S
C791 C793 1.390 . S
C791 H795 0.950 . S
H792 C788 0.950 . S
C793 C791 1.390 . S
C793 C794 1.387 . S
C793 H796 0.950 . S
C794 C793 1.387 . S
C794 C797 1.387 . S
H795 C791 0.950 . S
H796 C793 0.950 . S
C797 C788 1.390 . S
C797 H790 0.950 . S
C797 C794 1.387 . S
C798 C799 1.387 . S
C798 H802 0.950 . S
C798 C807 1.390 . S
C799 C798 1.387 . S
C799 C801 1.387 . S
H800 C807 0.950 . S
C801 C799 1.387 . S
C801 C803 1.390 . S
C801 H805 0.950 . S
H802 C798 0.950 . S
C803 C801 1.390 . S
C803 C804 1.387 . S
C803 H806 0.950 . S
C804 C803 1.387 . S
C804 C807 1.387 . S
H805 C801 0.950 . S
H806 C803 0.950 . S
C807 C798 1.390 . S
C807 H800 0.950 . S
C807 C804 1.387 . S
C808 C809 1.387 . S
C808 H812 0.950 . S
C808 C817 1.390 . S
C809 C808 1.387 . S
C809 C811 1.387 . S
H810 C817 0.950 . S
C811 C809 1.387 . S
C811 C813 1.390 . S
C811 H815 0.950 . S
H812 C808 0.950 . S
C813 C811 1.390 . S
C813 C814 1.387 . S
C813 H816 0.950 . S
C814 C813 1.387 . S
C814 C817 1.387 . S
H815 C811 0.950 . S
H816 C813 0.950 . S
C817 C808 1.390 . S
C817 H810 0.950 . S
C817 C814 1.387 . S
C818 C819 1.387 . S
C818 H822 0.950 . S
C818 C827 1.390 . S
C819 C818 1.387 . S
C819 C821 1.387 . S
H820 C827 0.950 . S
C821 C819 1.387 . S
C821 C823 1.390 . S
C821 H825 0.950 . S
H822 C818 0.950 . S
C823 C821 1.390 . S
C823 C824 1.387 . S
C823 H826 0.950 . S
C824 C823 1.387 . S
C824 C827 1.387 . S
H825 C821 0.950 . S
H826 C823 0.950 . S
C827 C818 1.390 . S
C827 H820 0.950 . S
C827 C824 1.387 . S
C828 C829 1.387 . S
C828 H832 0.950 . S
C828 C837 1.390 . S
C829 C828 1.387 . S
C829 C831 1.387 . S
H830 C837 0.950 . S
C831 C829 1.387 . S
C831 C833 1.390 . S
C831 H835 0.950 . S
H832 C828 0.950 . S
C833 C831 1.390 . S
C833 C834 1.387 . S
C833 H836 0.950 . S
C834 C833 1.387 . S
C834 C837 1.387 . S
H835 C831 0.950 . S
H836 C833 0.950 . S
C837 C828 1.390 . S
C837 H830 0.950 . S
C837 C834 1.387 . S
C838 C839 1.387 . S
C838 H842 0.950 . S
C838 C847 1.390 1_556 S
C839 C838 1.387 . S
C839 C841 1.387 . S
H840 C847 0.950 . S
C841 C839 1.387 . S
C841 C843 1.390 1_556 S
C841 H845 0.950 . S
H842 C838 0.950 . S
C843 C841 1.390 1_554 S
C843 C844 1.387 . S
C843 H846 0.950 . S
C844 C843 1.387 . S
C844 C847 1.387 . S
H845 C841 0.950 . S
H846 C843 0.950 . S
C847 C838 1.390 1_554 S
C847 H840 0.950 . S
C847 C844 1.387 . S
C848 C849 1.387 . S
C848 H852 0.950 . S
C848 C857 1.390 1_554 S
C849 C848 1.387 . S
C849 C851 1.387 . S
H850 C857 0.950 . S
C851 C849 1.387 . S
C851 C853 1.390 1_554 S
C851 H855 0.950 . S
H852 C848 0.950 . S
C853 C851 1.390 1_556 S
C853 C854 1.387 . S
C853 H856 0.950 . S
C854 C853 1.387 . S
C854 C857 1.387 . S
H855 C851 0.950 . S
H856 C853 0.950 . S
C857 C848 1.390 1_556 S
C857 H850 0.950 . S
C857 C854 1.387 . S
C858 C859 1.387 . S
C858 H862 0.950 . S
C858 C867 1.390 . S
C859 C858 1.387 . S
C859 C861 1.387 . S
H860 C867 0.950 . S
C861 C859 1.387 . S
C861 C863 1.390 . S
C861 H865 0.950 . S
H862 C858 0.950 . S
C863 C861 1.390 . S
C863 C864 1.387 . S
C863 H866 0.950 . S
C864 C863 1.387 . S
C864 C867 1.387 . S
H865 C861 0.950 . S
H866 C863 0.950 . S
C867 C858 1.390 . S
C867 H860 0.950 . S
C867 C864 1.387 . S
C868 C869 1.387 . S
C868 H872 0.950 . S
C868 C877 1.390 . S
C869 C868 1.387 . S
C869 C871 1.387 . S
H870 C877 0.950 . S
C871 C869 1.387 . S
C871 C873 1.390 . S
C871 H875 0.950 . S
H872 C868 0.950 . S
C873 C871 1.390 . S
C873 C874 1.387 . S
C873 H876 0.950 . S
C874 C873 1.387 . S
C874 C877 1.387 . S
H875 C871 0.950 . S
H876 C873 0.950 . S
C877 C868 1.390 . S
C877 H870 0.950 . S
C877 C874 1.387 . S
C878 C879 1.387 . S
C878 H882 0.950 . S
C878 C887 1.390 1_554 S
C879 C878 1.387 . S
C879 C881 1.387 . S
H880 C887 0.950 . S
C881 C879 1.387 . S
C881 C883 1.390 1_554 S
C881 H885 0.950 . S
H882 C878 0.950 . S
C883 C881 1.390 1_556 S
C883 C884 1.387 . S
C883 H886 0.950 . S
C884 C883 1.387 . S
C884 C887 1.387 . S
H885 C881 0.950 . S
H886 C883 0.950 . S
C887 C878 1.390 1_556 S
C887 H880 0.950 . S
C887 C884 1.387 . S
C888 C889 1.387 . S
C888 H892 0.950 . S
C888 C897 1.390 . S
C889 C888 1.387 . S
C889 C891 1.387 . S
H890 C897 0.950 . S
C891 C889 1.387 . S
C891 C893 1.390 . S
C891 H895 0.950 . S
H892 C888 0.950 . S
C893 C891 1.390 . S
C893 C894 1.387 . S
C893 H896 0.950 . S
C894 C893 1.387 . S
C894 C897 1.387 . S
H895 C891 0.950 . S
H896 C893 0.950 . S
C897 C888 1.390 . S
C897 H890 0.950 . S
C897 C894 1.387 . S
C898 C899 1.387 . S
C898 H902 0.950 . S
C898 C907 1.390 . S
C899 C898 1.387 . S
C899 C901 1.387 . S
H900 C907 0.950 . S
C901 C899 1.387 . S
C901 C903 1.390 . S
C901 H905 0.950 . S
H902 C898 0.950 . S
C903 C901 1.390 . S
C903 C904 1.387 . S
C903 H906 0.950 . S
C904 C903 1.387 . S
C904 C907 1.387 . S
H905 C901 0.950 . S
H906 C903 0.950 . S
C907 C898 1.390 . S
C907 H900 0.950 . S
C907 C904 1.387 . S
C908 C909 1.387 . S
C908 H912 0.950 . S
C908 C917 1.390 . S
C909 C908 1.387 . S
C909 C911 1.387 . S
H910 C917 0.950 . S
C911 C909 1.387 . S
C911 C913 1.390 . S
C911 H915 0.950 . S
H912 C908 0.950 . S
C913 C911 1.390 . S
C913 C914 1.387 . S
C913 H916 0.950 . S
C914 C913 1.387 . S
C914 C917 1.387 . S
H915 C911 0.950 . S
H916 C913 0.950 . S
C917 C908 1.390 . S
C917 H910 0.950 . S
C917 C914 1.387 . S
C918 C919 1.387 . S
C918 H922 0.950 . S
C918 C927 1.390 . S
C919 C918 1.387 . S
C919 C921 1.387 . S
H920 C927 0.950 . S
C921 C919 1.387 . S
C921 C923 1.390 . S
C921 H925 0.950 . S
H922 C918 0.950 . S
C923 C921 1.390 . S
C923 C924 1.387 . S
C923 H926 0.950 . S
C924 C923 1.387 . S
C924 C927 1.387 . S
H925 C921 0.950 . S
H926 C923 0.950 . S
C927 C918 1.390 . S
C927 H920 0.950 . S
C927 C924 1.387 . S
C529 C238 1.507 . S
C534 C7 1.512 . S
C539 C40 1.507 . S
C544 C139 1.511 . S
C549 C73 1.538 . S
C554 C172 1.542 . S
C559 C205 1.540 . S
C564 C106 1.542 . S
C569 C384 1.558 . S
C574 C153 1.561 . S
C579 C285 1.558 . S
C584 C21 1.561 . S
C589 C219 1.585 . S
C594 C351 1.589 . S
C599 C87 1.586 . S
C604 C318 1.588 . S
C609 C304 1.542 . S
C614 C403 1.538 . S
C619 C469 1.539 . S
C624 C337 1.542 . S
C629 C436 1.512 1_655 S
C634 C271 1.507 . S
C639 C370 1.509 . S
C644 C502 1.510 1_655 S
C649 C120 1.589 . S
C654 C483 1.585 . S
C659 C186 1.588 . S
C664 C417 1.587 . S
C669 C54 1.559 . S
C674 C516 1.560 . S
C679 C252 1.558 . S
C684 C450 1.561 . S
C689 C18 1.601 . S
C694 C150 1.601 . S
C699 C183 1.598 . S
C704 C51 1.595 . S
C709 C216 1.734 . S
C714 C84 1.734 . S
C719 C117 1.598 . S
C724 C249 1.595 . S
C729 C348 1.594 . S
C734 C282 1.590 . S
C739 C315 1.598 . S
C744 C381 1.595 . S
C749 C414 1.730 . S
C754 C480 1.730 . S
C759 C513 1.601 . S
C764 C447 1.601 . S
C769 N13 1.166 . S
C774 N2 1.166 . S
C779 N46 1.154 . S
C784 N35 1.154 . S
C789 N68 1.205 . S
C794 N79 1.204 . S
C799 N101 1.169 . S
C804 N112 1.168 . S
C809 N134 1.166 . S
C814 N145 1.166 . S
C819 N167 1.170 . S
C824 N178 1.170 . S
C829 N211 1.202 . S
C834 N200 1.203 . S
C839 N244 1.154 . S
C844 N233 1.154 . S
C849 N266 1.156 . S
C854 N277 1.155 . S
C859 N299 1.169 . S
C864 N310 1.168 . S
C869 N343 1.170 . S
C874 N332 1.170 . S
C879 N376 1.155 . S
C884 N365 1.156 . S
C889 N409 1.204 . S
C894 N398 1.205 . S
C899 N442 1.164 . S
C904 N431 1.165 . S
C909 N475 1.202 . S
C914 N464 1.203 . S
C919 N497 1.165 . S
C924 N508 1.164 . S
