# Generated by pormake.
# Topology ukb, (4)-cn, num edge types: 1
# Building blocks:
#     Node 0, Type 0, BuildingBlock: KUFVIS_clean_sbu_0, # of connection points: 4
#     Node 1, Type 0, BuildingBlock: KUFVIS_clean_sbu_0, # of connection points: 4
#     Node 2, Type 0, BuildingBlock: KUFVIS_clean_sbu_0, # of connection points: 4
#     Node 3, Type 0, BuildingBlock: KUFVIS_clean_sbu_0, # of connection points: 4
#     Node 4, Type 0, BuildingBlock: KUFVIS_clean_sbu_0, # of connection points: 4
#     Node 5, Type 0, BuildingBlock: KUFVIS_clean_sbu_0, # of connection points: 4
#     Node 6, Type 0, BuildingBlock: KUFVIS_clean_sbu_0, # of connection points: 4
#     Node 7, Type 0, BuildingBlock: KUFVIS_clean_sbu_0, # of connection points: 4
#     Node 8, Type 0, BuildingBlock: KUFVIS_clean_sbu_0, # of connection points: 4
#     Node 9, Type 0, BuildingBlock: KUFVIS_clean_sbu_0, # of connection points: 4
#     Node 10, Type 0, BuildingBlock: KUFVIS_clean_sbu_0, # of connection points: 4
#     Node 11, Type 0, BuildingBlock: KUFVIS_clean_sbu_0, # of connection points: 4
#     Node 12, Type 0, BuildingBlock: KUFVIS_clean_sbu_0, # of connection points: 4
#     Node 13, Type 0, BuildingBlock: KUFVIS_clean_sbu_0, # of connection points: 4
#     Node 14, Type 0, BuildingBlock: KUFVIS_clean_sbu_0, # of connection points: 4
#     Node 15, Type 0, BuildingBlock: KUFVIS_clean_sbu_0, # of connection points: 4
#     Edge 16, Type (0, 0), BuildingBlock: MIFKUJ_clean_linker_0, # of connection points: 2
#     Edge 17, Type (0, 0), BuildingBlock: MIFKUJ_clean_linker_0, # of connection points: 2
#     Edge 18, Type (0, 0), BuildingBlock: MIFKUJ_clean_linker_0, # of connection points: 2
#     Edge 19, Type (0, 0), BuildingBlock: MIFKUJ_clean_linker_0, # of connection points: 2
#     Edge 20, Type (0, 0), BuildingBlock: MIFKUJ_clean_linker_0, # of connection points: 2
#     Edge 21, Type (0, 0), BuildingBlock: MIFKUJ_clean_linker_0, # of connection points: 2
#     Edge 22, Type (0, 0), BuildingBlock: MIFKUJ_clean_linker_0, # of connection points: 2
#     Edge 23, Type (0, 0), BuildingBlock: MIFKUJ_clean_linker_0, # of connection points: 2
#     Edge 24, Type (0, 0), BuildingBlock: MIFKUJ_clean_linker_0, # of connection points: 2
#     Edge 25, Type (0, 0), BuildingBlock: MIFKUJ_clean_linker_0, # of connection points: 2
#     Edge 26, Type (0, 0), BuildingBlock: MIFKUJ_clean_linker_0, # of connection points: 2
#     Edge 27, Type (0, 0), BuildingBlock: MIFKUJ_clean_linker_0, # of connection points: 2
#     Edge 28, Type (0, 0), BuildingBlock: MIFKUJ_clean_linker_0, # of connection points: 2
#     Edge 29, Type (0, 0), BuildingBlock: MIFKUJ_clean_linker_0, # of connection points: 2
#     Edge 30, Type (0, 0), BuildingBlock: MIFKUJ_clean_linker_0, # of connection points: 2
#     Edge 31, Type (0, 0), BuildingBlock: MIFKUJ_clean_linker_0, # of connection points: 2
#     Edge 32, Type (0, 0), BuildingBlock: MIFKUJ_clean_linker_0, # of connection points: 2
#     Edge 33, Type (0, 0), BuildingBlock: MIFKUJ_clean_linker_0, # of connection points: 2
#     Edge 34, Type (0, 0), BuildingBlock: MIFKUJ_clean_linker_0, # of connection points: 2
#     Edge 35, Type (0, 0), BuildingBlock: MIFKUJ_clean_linker_0, # of connection points: 2
#     Edge 36, Type (0, 0), BuildingBlock: MIFKUJ_clean_linker_0, # of connection points: 2
#     Edge 37, Type (0, 0), BuildingBlock: MIFKUJ_clean_linker_0, # of connection points: 2
#     Edge 38, Type (0, 0), BuildingBlock: MIFKUJ_clean_linker_0, # of connection points: 2
#     Edge 39, Type (0, 0), BuildingBlock: MIFKUJ_clean_linker_0, # of connection points: 2
#     Edge 40, Type (0, 0), BuildingBlock: MIFKUJ_clean_linker_0, # of connection points: 2
#     Edge 41, Type (0, 0), BuildingBlock: MIFKUJ_clean_linker_0, # of connection points: 2
#     Edge 42, Type (0, 0), BuildingBlock: MIFKUJ_clean_linker_0, # of connection points: 2
#     Edge 43, Type (0, 0), BuildingBlock: MIFKUJ_clean_linker_0, # of connection points: 2
#     Edge 44, Type (0, 0), BuildingBlock: MIFKUJ_clean_linker_0, # of connection points: 2
#     Edge 45, Type (0, 0), BuildingBlock: MIFKUJ_clean_linker_0, # of connection points: 2
#     Edge 46, Type (0, 0), BuildingBlock: MIFKUJ_clean_linker_0, # of connection points: 2
#     Edge 47, Type (0, 0), BuildingBlock: MIFKUJ_clean_linker_0, # of connection points: 2
# Relax obj value: 0.090
# Max RMSD: 0.068
# Mean RMSD: 0.068
data_MOF--net-ukb--node1-KUFVIS_clean_sbu_0--edge1-MIFKUJ_clean_linker_0
_symmetry_space_group_name_H-M    P1
_symmetry_Int_Tables_number       1
_symmetry_cell_setting            triclinic
loop_
_symmetry_equiv_pos_as_xyz
'x, y, z'
_cell_length_a     56.013386
_cell_length_b     56.020466
_cell_length_c     49.490643
_cell_angle_alpha  89.995466
_cell_angle_beta   90.012926
_cell_angle_gamma 90.010365
loop_
_atom_site_label
_atom_site_type_symbol
_atom_site_fract_x
_atom_site_fract_y
_atom_site_fract_z
_atom_type_partial_charge
Mn0 Mn 0.52687 0.1919 0.19299 0.0
Mn1 Mn 0.5778 0.19763 0.15722 0.0
C2 C 0.56139 0.17419 0.20875 0.0
C3 C 0.49091 0.1727 0.20215 0.0
C4 C 0.56115 0.23497 0.19647 0.0
O5 O 0.51448 0.20396 0.157 0.0
O6 O 0.54987 0.21047 0.13724 0.0
C7 C 0.56375 0.16256 0.11527 0.0
N8 N 0.57965 0.17025 0.13422 0.0
C9 C 0.60667 0.13817 0.12376 0.0
C10 C 0.59062 0.12995 0.10409 0.0
C11 C 0.56904 0.14218 0.09988 0.0
C12 C 0.60033 0.15849 0.1386 0.0
H13 H 0.54718 0.17191 0.11187 0.0
C14 C 0.52711 0.2118 0.13765 0.0
O15 O 0.49438 0.19479 0.20909 0.0
O16 O 0.50806 0.16208 0.18928 0.0
N17 N 0.60697 0.18642 0.17259 0.0
C18 C 0.62094 0.19733 0.1914 0.0
C19 C 0.6436 0.18801 0.19712 0.0
C20 C 0.65168 0.16749 0.18365 0.0
C21 C 0.63723 0.15687 0.1639 0.0
C22 C 0.61503 0.16735 0.15852 0.0
H23 H 0.61495 0.21318 0.20173 0.0
O24 O 0.54354 0.17841 0.22466 0.0
O25 O 0.55828 0.1794 0.18318 0.0
O26 O 0.541 0.22511 0.20154 0.0
O27 O 0.57694 0.22577 0.18097 0.0
C28 C 0.64404 0.13646 0.14916 0.0
C29 C 0.62871 0.12704 0.12921 0.0
H30 H 0.59468 0.11429 0.09211 0.0
H31 H 0.55655 0.13596 0.08474 0.0
H32 H 0.65492 0.19696 0.21151 0.0
H33 H 0.66915 0.16028 0.1883 0.0
H34 H 0.66104 0.12789 0.15299 0.0
H35 H 0.63411 0.11131 0.11804 0.0
Mn36 Mn 0.30504 0.52165 0.68352 0.0
Mn37 Mn 0.29972 0.56878 0.64127 0.0
C38 C 0.32236 0.55779 0.69524 0.0
C39 C 0.32483 0.4868 0.69615 0.0
C40 C 0.26059 0.55322 0.67994 0.0
O41 O 0.29279 0.50625 0.6489 0.0
O42 O 0.29288 0.53857 0.6219 0.0
C43 C 0.34034 0.55766 0.60513 0.0
N44 N 0.3289 0.57314 0.62193 0.0
C45 C 0.35772 0.60396 0.61292 0.0
C46 C 0.36976 0.58839 0.59542 0.0
C47 C 0.36107 0.56511 0.59158 0.0
C48 C 0.33722 0.59548 0.62595 0.0
H49 H 0.33365 0.53982 0.60204 0.0
C50 C 0.28998 0.51626 0.62604 0.0
O51 O 0.30278 0.49058 0.70305 0.0
O52 O 0.3351 0.50296 0.68141 0.0
N53 N 0.30581 0.59954 0.65639 0.0
C54 C 0.29209 0.6123 0.67392 0.0
C55 C 0.29803 0.63611 0.67953 0.0
C56 C 0.31789 0.64661 0.66689 0.0
C57 C 0.33178 0.63313 0.64899 0.0
C58 C 0.32478 0.60958 0.64389 0.0
H59 H 0.27654 0.60448 0.6833 0.0
O60 O 0.31865 0.5413 0.71312 0.0
O61 O 0.31703 0.55224 0.67033 0.0
O62 O 0.27192 0.53594 0.69087 0.0
O63 O 0.26912 0.56596 0.6608 0.0
C64 C 0.35219 0.64217 0.63588 0.0
C65 C 0.36524 0.62755 0.61798 0.0
H66 H 0.38572 0.5941 0.58488 0.0
H67 H 0.37026 0.55297 0.57813 0.0
H68 H 0.28706 0.64641 0.6932 0.0
H69 H 0.32214 0.66513 0.6707 0.0
H70 H 0.35807 0.66031 0.63952 0.0
H71 H 0.381 0.63464 0.60815 0.0
Mn72 Mn 0.97165 0.30887 0.17716 0.0
Mn73 Mn 0.92345 0.30138 0.13691 0.0
C74 C 0.93496 0.32366 0.1907 0.0
C75 C 0.00547 0.33058 0.18963 0.0
C76 C 0.94167 0.26287 0.1743 0.0
O77 O 0.98682 0.29895 0.14145 0.0
O78 O 0.95326 0.29389 0.11726 0.0
C79 C 0.93413 0.34169 0.10016 0.0
N80 N 0.91875 0.33023 0.11705 0.0
C81 C 0.88785 0.35903 0.10832 0.0
C82 C 0.90331 0.3711 0.0907 0.0
C83 C 0.92659 0.36244 0.0867 0.0
C84 C 0.89645 0.33858 0.12132 0.0
H85 H 0.95201 0.33503 0.09699 0.0
C86 C 0.97593 0.29318 0.11985 0.0
O87 O 0.00352 0.30802 0.19533 0.0
O88 O 0.98816 0.34021 0.17609 0.0
N89 N 0.89281 0.3075 0.15224 0.0
C90 C 0.88023 0.29376 0.16992 0.0
C91 C 0.85643 0.29961 0.17569 0.0
C92 C 0.84576 0.31938 0.16306 0.0
C93 C 0.85903 0.3332 0.14487 0.0
C94 C 0.88255 0.32625 0.13956 0.0
H95 H 0.88821 0.27829 0.1793 0.0
O96 O 0.952 0.32016 0.20797 0.0
O97 O 0.9401 0.31934 0.16542 0.0
O98 O 0.95961 0.27447 0.18351 0.0
O99 O 0.92697 0.27137 0.15707 0.0
C100 C 0.84983 0.35352 0.13171 0.0
C101 C 0.86429 0.36654 0.1136 0.0
H102 H 0.89753 0.38706 0.08022 0.0
H103 H 0.93866 0.37169 0.07321 0.0
H104 H 0.84631 0.28862 0.18948 0.0
H105 H 0.82728 0.32363 0.16711 0.0
H106 H 0.83171 0.35938 0.13552 0.0
H107 H 0.85711 0.38226 0.10379 0.0
Mn108 Mn 0.19093 0.96867 0.68842 0.0
Mn109 Mn 0.19298 0.9234 0.64341 0.0
C110 C 0.17529 0.93189 0.70033 0.0
C111 C 0.17185 0.00299 0.70381 0.0
C112 C 0.23535 0.93861 0.67774 0.0
O113 O 0.20008 0.98533 0.65342 0.0
O114 O 0.19672 0.95443 0.62467 0.0
C115 C 0.14853 0.93413 0.61342 0.0
N116 N 0.16215 0.91856 0.62786 0.0
C117 C 0.13376 0.88691 0.6211 0.0
C118 C 0.11944 0.90257 0.60607 0.0
C119 C 0.12683 0.92631 0.6023 0.0
C120 C 0.15513 0.89576 0.6318 0.0
H121 H 0.15421 0.95234 0.61037 0.0
C122 C 0.2001 0.97652 0.62977 0.0
O123 O 0.19438 0.99936 0.7085 0.0
O124 O 0.16059 0.98678 0.69011 0.0
N125 N 0.18952 0.89199 0.65788 0.0
C126 C 0.20533 0.87924 0.67303 0.0
C127 C 0.20087 0.85503 0.67819 0.0
C128 C 0.18031 0.84414 0.66757 0.0
C129 C 0.16423 0.85763 0.6522 0.0
C130 C 0.1698 0.88159 0.64737 0.0
H131 H 0.2214 0.88739 0.68078 0.0
O132 O 0.18016 0.94784 0.7185 0.0
O133 O 0.17837 0.93841 0.67525 0.0
O134 O 0.22467 0.95473 0.69142 0.0
O135 O 0.22536 0.92672 0.65879 0.0
C136 C 0.14297 0.8482 0.64133 0.0
C137 C 0.12767 0.86288 0.62594 0.0
H138 H 0.10272 0.89658 0.59739 0.0
H139 H 0.11587 0.93852 0.59074 0.0
H140 H 0.21348 0.84473 0.68993 0.0
H141 H 0.17718 0.82533 0.67095 0.0
H142 H 0.13816 0.82973 0.64482 0.0
H143 H 0.11128 0.85549 0.61786 0.0
Mn144 Mn 0.52886 0.30642 0.82397 0.0
Mn145 Mn 0.57868 0.30435 0.86225 0.0
C146 C 0.56415 0.32194 0.80691 0.0
C147 C 0.49341 0.32581 0.81281 0.0
C148 C 0.55933 0.2618 0.83102 0.0
O149 O 0.51617 0.29764 0.86131 0.0
O150 O 0.54998 0.30145 0.88538 0.0
C151 C 0.57198 0.34976 0.89191 0.0
N152 N 0.58578 0.33532 0.87624 0.0
C153 C 0.6185 0.36307 0.87789 0.0
C154 C 0.60473 0.37819 0.89424 0.0
C155 C 0.58132 0.37155 0.90116 0.0
C156 C 0.60817 0.34168 0.86915 0.0
H157 H 0.554 0.34467 0.89729 0.0
C158 C 0.52749 0.29791 0.88364 0.0
O159 O 0.49631 0.30321 0.80793 0.0
O160 O 0.51086 0.3369 0.82459 0.0
N161 N 0.60825 0.30697 0.84328 0.0
C162 C 0.61884 0.29073 0.82667 0.0
C163 C 0.64248 0.29443 0.8183 0.0
C164 C 0.65499 0.3147 0.82717 0.0
C165 C 0.64361 0.33135 0.84389 0.0
C166 C 0.62021 0.32646 0.85204 0.0
H167 H 0.6095 0.27485 0.82028 0.0
O168 O 0.54638 0.31695 0.79111 0.0
O169 O 0.56037 0.31888 0.83269 0.0
O170 O 0.54214 0.27259 0.81924 0.0
O171 O 0.57312 0.27179 0.84823 0.0
C172 C 0.65462 0.35251 0.85293 0.0
C173 C 0.64199 0.36848 0.86972 0.0
H174 H 0.61189 0.39498 0.90145 0.0
H175 H 0.57053 0.38316 0.91365 0.0
H176 H 0.65115 0.28143 0.80546 0.0
H177 H 0.67343 0.31718 0.82138 0.0
H178 H 0.6727 0.3568 0.84685 0.0
H179 H 0.65051 0.38485 0.87624 0.0
Mn180 Mn 0.19159 0.53339 0.30914 0.0
Mn181 Mn 0.1965 0.58608 0.34184 0.0
C182 C 0.17777 0.56794 0.28853 0.0
C183 C 0.17031 0.4984 0.30046 0.0
C184 C 0.23774 0.56229 0.31257 0.0
O185 O 0.19933 0.52326 0.3478 0.0
O186 O 0.19889 0.55928 0.36781 0.0
C187 C 0.15162 0.58376 0.37331 0.0
N188 N 0.16618 0.59556 0.3558 0.0
C189 C 0.13987 0.62947 0.35477 0.0
C190 C 0.12462 0.61775 0.37292 0.0
C191 C 0.13047 0.59475 0.38213 0.0
C192 C 0.1606 0.61755 0.34658 0.0
H193 H 0.15613 0.56612 0.38049 0.0
C194 C 0.20068 0.53653 0.36868 0.0
O195 O 0.1932 0.49956 0.29645 0.0
O196 O 0.1601 0.51718 0.3105 0.0
N197 N 0.1946 0.61404 0.31987 0.0
C198 C 0.21083 0.62248 0.30173 0.0
C199 C 0.20793 0.64548 0.29101 0.0
C200 C 0.18842 0.65953 0.29906 0.0
C201 C 0.17173 0.6503 0.31737 0.0
C202 C 0.17585 0.62749 0.32785 0.0
H203 H 0.22614 0.61197 0.29589 0.0
O204 O 0.18227 0.54891 0.27454 0.0
O205 O 0.18065 0.56604 0.3146 0.0
O206 O 0.22618 0.54435 0.3035 0.0
O207 O 0.22848 0.57823 0.32776 0.0
C208 C 0.15126 0.6629 0.32577 0.0
C209 C 0.13522 0.6524 0.34428 0.0
H210 H 0.10832 0.62619 0.37981 0.0
H211 H 0.11875 0.58555 0.39605 0.0
H212 H 0.22098 0.6525 0.277 0.0
H213 H 0.18659 0.6775 0.29137 0.0
H214 H 0.14756 0.68056 0.31792 0.0
H215 H 0.11937 0.66211 0.35031 0.0
Mn216 Mn 0.97234 0.194 0.81152 0.0
Mn217 Mn 0.92289 0.20015 0.84984 0.0
C218 C 0.9367 0.17778 0.79637 0.0
C219 C 0.00768 0.17376 0.80218 0.0
C220 C 0.94301 0.23955 0.81448 0.0
O221 O 0.98539 0.20544 0.84773 0.0
O222 O 0.95181 0.20402 0.87252 0.0
C223 C 0.92863 0.15698 0.88374 0.0
N224 N 0.91511 0.17053 0.86678 0.0
C225 C 0.88175 0.14377 0.87114 0.0
C226 C 0.89522 0.12961 0.88886 0.0
C227 C 0.91881 0.13618 0.89506 0.0
C228 C 0.89255 0.16419 0.86037 0.0
H229 H 0.94675 0.16201 0.88855 0.0
C230 C 0.97435 0.20698 0.87015 0.0
O231 O 0.00479 0.19594 0.79529 0.0
O232 O 0.99016 0.1635 0.81481 0.0
N233 N 0.8932 0.19681 0.83124 0.0
C234 C 0.88297 0.21192 0.81304 0.0
C235 C 0.85925 0.20813 0.80502 0.0
C236 C 0.84629 0.18891 0.81585 0.0
C237 C 0.8573 0.17337 0.83418 0.0
C238 C 0.88081 0.17834 0.84186 0.0
H239 H 0.89267 0.22701 0.80509 0.0
O240 O 0.95445 0.18119 0.78 0.0
O241 O 0.9407 0.18286 0.82171 0.0
O242 O 0.95955 0.22738 0.80342 0.0
O243 O 0.92911 0.23154 0.83282 0.0
C244 C 0.84583 0.15322 0.84523 0.0
C245 C 0.85813 0.13831 0.86353 0.0
H246 H 0.8877 0.11359 0.89766 0.0
H247 H 0.92937 0.12529 0.9086 0.0
H248 H 0.85088 0.22026 0.7909 0.0
H249 H 0.8278 0.1864 0.81028 0.0
H250 H 0.82766 0.14889 0.83958 0.0
H251 H 0.84926 0.12267 0.8716 0.0
Mn252 Mn 0.31031 0.96932 0.31824 0.0
Mn253 Mn 0.31154 0.91529 0.34869 0.0
C254 C 0.33122 0.93834 0.29856 0.0
C255 C 0.32582 0.00747 0.3126 0.0
C256 C 0.26943 0.9331 0.31581 0.0
O257 O 0.2982 0.97683 0.35601 0.0
O258 O 0.30193 0.94045 0.37477 0.0
C259 C 0.35216 0.92475 0.38544 0.0
N260 N 0.34175 0.91109 0.36596 0.0
C261 C 0.37467 0.88351 0.36627 0.0
C262 C 0.38568 0.8972 0.38647 0.0
C263 C 0.37441 0.91796 0.39601 0.0
C264 C 0.35255 0.89124 0.35643 0.0
H265 H 0.34355 0.94072 0.39282 0.0
C266 C 0.29679 0.96269 0.37611 0.0
O267 O 0.30396 0.00255 0.30585 0.0
O268 O 0.3383 0.99051 0.32348 0.0
N269 N 0.32058 0.88881 0.32651 0.0
C270 C 0.30791 0.87798 0.30644 0.0
C271 C 0.31669 0.85689 0.29474 0.0
C272 C 0.33822 0.84699 0.30403 0.0
C273 C 0.35087 0.85836 0.3248 0.0
C274 C 0.34112 0.87919 0.33587 0.0
H275 H 0.29125 0.88537 0.29939 0.0
O276 O 0.32475 0.95669 0.28441 0.0
O277 O 0.32591 0.93883 0.32418 0.0
O278 O 0.27851 0.95315 0.30913 0.0
O279 O 0.28011 0.91788 0.33081 0.0
C280 C 0.37292 0.85001 0.33471 0.0
C281 C 0.38489 0.86266 0.35532 0.0
H282 H 0.40284 0.89201 0.39468 0.0
H283 H 0.38284 0.92867 0.41151 0.0
H284 H 0.30686 0.84825 0.27866 0.0
H285 H 0.34492 0.8307 0.29502 0.0
H286 H 0.38098 0.83404 0.32639 0.0
H287 H 0.40197 0.85623 0.36254 0.0
Mn288 Mn 0.47147 0.80193 0.80821 0.0
Mn289 Mn 0.42195 0.798 0.84684 0.0
C290 C 0.43552 0.81648 0.79173 0.0
C291 C 0.50593 0.82273 0.79614 0.0
C292 C 0.44209 0.75636 0.81473 0.0
O293 O 0.4849 0.79376 0.84541 0.0
O294 O 0.45093 0.7951 0.86952 0.0
C295 C 0.4282 0.84286 0.87769 0.0
N296 N 0.41448 0.82851 0.86181 0.0
C297 C 0.38128 0.85561 0.86472 0.0
C298 C 0.39497 0.8706 0.88131 0.0
C299 C 0.41858 0.86425 0.8877 0.0
C300 C 0.39189 0.83461 0.85522 0.0
H301 H 0.44633 0.838 0.88266 0.0
C302 C 0.47358 0.79284 0.86772 0.0
O303 O 0.50407 0.79992 0.79186 0.0
O304 O 0.48818 0.83311 0.80814 0.0
N305 N 0.39214 0.80054 0.82831 0.0
C306 C 0.38169 0.78453 0.81129 0.0
C307 C 0.35791 0.78801 0.80329 0.0
C308 C 0.34514 0.80782 0.81295 0.0
C309 C 0.35638 0.82425 0.83007 0.0
C310 C 0.37993 0.81959 0.8378 0.0
H311 H 0.39126 0.769 0.80427 0.0
O312 O 0.45313 0.81178 0.7756 0.0
O313 O 0.4397 0.81342 0.81741 0.0
O314 O 0.45936 0.76757 0.80362 0.0
O315 O 0.42787 0.76591 0.83179 0.0
C316 C 0.3451 0.845 0.83987 0.0
C317 C 0.35762 0.86078 0.857 0.0
H318 H 0.38759 0.8871 0.8891 0.0
H319 H 0.4293 0.87579 0.90037 0.0
H320 H 0.34935 0.7752 0.7901 0.0
H321 H 0.3266 0.8101 0.80743 0.0
H322 H 0.32689 0.84911 0.83414 0.0
H323 H 0.34888 0.87685 0.8641 0.0
Mn324 Mn 0.69233 0.47309 0.31769 0.0
Mn325 Mn 0.69649 0.42332 0.35612 0.0
C326 C 0.67096 0.43937 0.30598 0.0
C327 C 0.67465 0.50973 0.30794 0.0
C328 C 0.73429 0.4379 0.31568 0.0
O329 O 0.70726 0.48571 0.35237 0.0
O330 O 0.70833 0.45149 0.37632 0.0
C331 C 0.66038 0.43612 0.39729 0.0
N332 N 0.66869 0.42068 0.37824 0.0
C333 C 0.63725 0.39265 0.38773 0.0
C334 C 0.62836 0.40823 0.4075 0.0
C335 C 0.63995 0.43009 0.41225 0.0
C336 C 0.65761 0.39968 0.37341 0.0
H337 H 0.66933 0.45288 0.40107 0.0
C338 C 0.7122 0.47387 0.37364 0.0
O339 O 0.696 0.50463 0.29949 0.0
O340 O 0.66399 0.4939 0.32279 0.0
N341 N 0.68594 0.39436 0.33956 0.0
C342 C 0.69653 0.38162 0.3194 0.0
C343 C 0.68717 0.35927 0.31214 0.0
C344 C 0.66728 0.35011 0.32595 0.0
C345 C 0.65677 0.36347 0.34674 0.0
C346 C 0.66696 0.38557 0.35317 0.0
H347 H 0.71203 0.38844 0.30898 0.0
O348 O 0.67547 0.4558 0.28826 0.0
O349 O 0.67865 0.44328 0.33044 0.0
O350 O 0.72399 0.45682 0.30718 0.0
O351 O 0.72549 0.42431 0.33383 0.0
C352 C 0.63649 0.35584 0.36121 0.0
C353 C 0.62665 0.37048 0.38157 0.0
H354 H 0.61263 0.40362 0.41911 0.0
H355 H 0.63321 0.44221 0.42747 0.0
H356 H 0.69537 0.34905 0.29608 0.0
H357 H 0.66028 0.33277 0.32043 0.0
H358 H 0.6282 0.33883 0.35669 0.0
H359 H 0.61092 0.36452 0.39236 0.0
Mn360 Mn 0.02819 0.68836 0.82033 0.0
Mn361 Mn 0.07513 0.69184 0.86305 0.0
C362 C 0.06394 0.67065 0.80821 0.0
C363 C 0.9926 0.66993 0.808 0.0
C364 C 0.06047 0.73213 0.82543 0.0
O365 O 0.01316 0.7004 0.8551 0.0
O366 O 0.045 0.69864 0.88271 0.0
C367 C 0.06301 0.64999 0.89691 0.0
N368 N 0.07892 0.66196 0.88111 0.0
C369 C 0.1091 0.63217 0.8887 0.0
C370 C 0.09311 0.61958 0.90521 0.0
C371 C 0.06993 0.62849 0.90923 0.0
C372 C 0.10112 0.65339 0.87681 0.0
H373 H 0.0452 0.65682 0.90009 0.0
C374 C 0.02286 0.70228 0.87821 0.0
O375 O 0.9971 0.69186 0.80116 0.0
O376 O 0.00869 0.65883 0.82206 0.0
N377 N 0.10586 0.68579 0.84786 0.0
C378 C 0.11897 0.69996 0.83112 0.0
C379 C 0.14273 0.69388 0.82546 0.0
C380 C 0.15282 0.6734 0.8372 0.0
C381 C 0.139 0.65906 0.85431 0.0
C382 C 0.11554 0.66626 0.85959 0.0
H383 H 0.11147 0.71597 0.82243 0.0
O384 O 0.04747 0.6748 0.79042 0.0
O385 O 0.05847 0.67563 0.83325 0.0
O386 O 0.04328 0.7212 0.8138 0.0
O387 O 0.07279 0.72308 0.84465 0.0
C388 C 0.14759 0.63798 0.86642 0.0
C389 C 0.13258 0.62443 0.88344 0.0
H390 H 0.0984 0.60303 0.91481 0.0
H391 H 0.05745 0.61884 0.92186 0.0
H392 H 0.15329 0.70521 0.81244 0.0
H393 H 0.17129 0.66899 0.83332 0.0
H394 H 0.16564 0.63192 0.8626 0.0
H395 H 0.13929 0.60813 0.89241 0.0
Mn396 Mn 0.80991 0.03048 0.31919 0.0
Mn397 Mn 0.80662 0.07983 0.35815 0.0
C398 C 0.825 0.06626 0.30288 0.0
C399 C 0.82992 0.99554 0.30731 0.0
C400 C 0.76464 0.0601 0.32628 0.0
O401 O 0.80134 0.01714 0.35626 0.0
O402 O 0.80357 0.05083 0.38078 0.0
C403 C 0.85154 0.0733 0.38879 0.0
N404 N 0.83726 0.08709 0.37292 0.0
C405 C 0.86459 0.12011 0.3757 0.0
C406 C 0.87956 0.10633 0.39221 0.0
C407 C 0.87305 0.08278 0.39868 0.0
C408 C 0.84348 0.10964 0.36631 0.0
H409 H 0.84652 0.05523 0.39386 0.0
C410 C 0.8007 0.02827 0.3787 0.0
O411 O 0.80719 0.99799 0.30287 0.0
O412 O 0.84076 0.01309 0.31919 0.0
N413 N 0.80923 0.10963 0.33966 0.0
C414 C 0.79318 0.12021 0.3228 0.0
C415 C 0.79675 0.14397 0.31482 0.0
C416 C 0.81672 0.1566 0.32433 0.0
C417 C 0.83319 0.14524 0.3413 0.0
C418 C 0.82843 0.12171 0.34903 0.0
H419 H 0.77753 0.11075 0.31591 0.0
O420 O 0.82016 0.04872 0.28669 0.0
O421 O 0.82181 0.06206 0.32855 0.0
O422 O 0.77578 0.04308 0.31463 0.0
O423 O 0.77432 0.07412 0.34347 0.0
C424 C 0.85408 0.15638 0.35097 0.0
C425 C 0.86988 0.14374 0.36797 0.0
H426 H 0.89614 0.11359 0.39992 0.0
H427 H 0.88455 0.07199 0.41133 0.0
H428 H 0.7839 0.15262 0.30178 0.0
H429 H 0.8191 0.17513 0.31881 0.0
H430 H 0.85827 0.17456 0.34524 0.0
H431 H 0.88604 0.15237 0.37499 0.0
Mn432 Mn 0.47482 0.69156 0.17927 0.0
Mn433 Mn 0.4228 0.69467 0.14478 0.0
C434 C 0.44113 0.67298 0.19616 0.0
C435 C 0.51124 0.67316 0.18833 0.0
C436 C 0.44182 0.73519 0.17907 0.0
O437 O 0.48561 0.70271 0.14202 0.0
O438 O 0.45001 0.70289 0.12081 0.0
C439 C 0.43096 0.65405 0.1077 0.0
N440 N 0.41724 0.66511 0.12664 0.0
C441 C 0.38719 0.63453 0.12368 0.0
C442 C 0.40093 0.62286 0.10402 0.0
C443 C 0.42296 0.63262 0.09608 0.0
C444 C 0.39613 0.65578 0.1346 0.0
H445 H 0.44787 0.66155 0.10152 0.0
C446 C 0.47265 0.70606 0.12116 0.0
O447 O 0.50757 0.69542 0.19435 0.0
O448 O 0.49412 0.66194 0.17606 0.0
N449 N 0.39469 0.68735 0.16509 0.0
C450 C 0.38412 0.7003 0.18511 0.0
C451 C 0.36214 0.69272 0.19572 0.0
C452 C 0.35106 0.67219 0.18532 0.0
C453 C 0.36214 0.65931 0.16451 0.0
C454 C 0.38403 0.66773 0.15474 0.0
H455 H 0.39243 0.71625 0.19297 0.0
O456 O 0.45885 0.67826 0.2119 0.0
O457 O 0.44373 0.67827 0.17069 0.0
O458 O 0.4607 0.72466 0.18727 0.0
O459 O 0.42671 0.72557 0.16312 0.0
C460 C 0.35249 0.63828 0.1533 0.0
C461 C 0.36508 0.62582 0.13304 0.0
H462 H 0.39481 0.60634 0.09499 0.0
H463 H 0.4337 0.62367 0.08099 0.0
H464 H 0.35373 0.7027 0.21182 0.0
H465 H 0.33408 0.66644 0.19354 0.0
H466 H 0.33552 0.63138 0.16031 0.0
H467 H 0.35764 0.60949 0.12487 0.0
Mn468 Mn 0.80465 0.47475 0.68961 0.0
Mn469 Mn 0.8074 0.42346 0.65433 0.0
C470 C 0.82464 0.44234 0.70761 0.0
C471 C 0.82078 0.51226 0.69808 0.0
C472 C 0.76316 0.44012 0.68461 0.0
O473 O 0.79398 0.48444 0.65177 0.0
O474 O 0.80231 0.45056 0.62911 0.0
C475 C 0.85245 0.43215 0.62466 0.0
N476 N 0.83924 0.4184 0.64173 0.0
C477 C 0.87118 0.38994 0.64626 0.0
C478 C 0.88507 0.4037 0.62857 0.0
C479 C 0.87569 0.42494 0.6178 0.0
C480 C 0.84819 0.39809 0.65246 0.0
H481 H 0.84532 0.44851 0.61642 0.0
C482 C 0.79595 0.47252 0.62991 0.0
O483 O 0.79866 0.50756 0.70396 0.0
O484 O 0.8331 0.49545 0.68674 0.0
N485 N 0.81238 0.39568 0.67614 0.0
C486 C 0.79673 0.38452 0.69302 0.0
C487 C 0.80337 0.363 0.70551 0.0
C488 C 0.82589 0.35303 0.70023 0.0
C489 C 0.84149 0.36459 0.68236 0.0
C490 C 0.83385 0.38591 0.67041 0.0
H491 H 0.77931 0.39195 0.69701 0.0
O492 O 0.81805 0.4598 0.72307 0.0
O493 O 0.81998 0.44477 0.68206 0.0
O494 O 0.77256 0.45826 0.69607 0.0
O495 O 0.77419 0.42702 0.66748 0.0
C496 C 0.86435 0.3558 0.676 0.0
C497 C 0.87928 0.36855 0.65813 0.0
H498 H 0.90299 0.3982 0.62321 0.0
H499 H 0.88634 0.43571 0.60424 0.0
H500 H 0.79117 0.35414 0.71917 0.0
H501 H 0.83102 0.33652 0.71002 0.0
H502 H 0.87064 0.33933 0.68491 0.0
H503 H 0.89695 0.36175 0.6537 0.0
Mn504 Mn 0.03035 0.81173 0.18014 0.0
Mn505 Mn 0.07452 0.80881 0.1342 0.0
C506 C 0.06728 0.82815 0.19007 0.0
C507 C 0.99652 0.83152 0.19596 0.0
C508 C 0.05911 0.76676 0.16893 0.0
O509 O 0.01329 0.80178 0.14556 0.0
O510 O 0.04325 0.80627 0.1156 0.0
C511 C 0.06544 0.85393 0.10487 0.0
N512 N 0.08041 0.8397 0.11937 0.0
C513 C 0.1129 0.8673 0.11382 0.0
C514 C 0.0979 0.88222 0.09867 0.0
C515 C 0.074 0.87559 0.09437 0.0
C516 C 0.10322 0.8462 0.12426 0.0
H517 H 0.04714 0.84874 0.10129 0.0
C518 C 0.02137 0.80221 0.12149 0.0
O519 O 0.99993 0.80902 0.20109 0.0
O520 O 0.01248 0.84221 0.18138 0.0
N521 N 0.10588 0.8111 0.14923 0.0
C522 C 0.11806 0.79466 0.16415 0.0
C523 C 0.14209 0.79882 0.17068 0.0
C524 C 0.15353 0.81949 0.16119 0.0
C525 C 0.14078 0.83584 0.14533 0.0
C526 C 0.11676 0.83097 0.13988 0.0
H527 H 0.10953 0.7785 0.17106 0.0
O528 O 0.05215 0.82359 0.20923 0.0
O529 O 0.05995 0.82382 0.16568 0.0
O530 O 0.04425 0.77806 0.18375 0.0
O531 O 0.07011 0.77629 0.14901 0.0
C532 C 0.15112 0.85648 0.13418 0.0
C533 C 0.13716 0.87232 0.11861 0.0
H534 H 0.10454 0.89879 0.09025 0.0
H535 H 0.06229 0.88703 0.08276 0.0
H536 H 0.15185 0.786 0.18275 0.0
H537 H 0.17214 0.82253 0.16604 0.0
H538 H 0.16989 0.8601 0.13719 0.0
H539 H 0.14531 0.88811 0.11005 0.0
Mn540 Mn 0.69032 0.0298 0.68591 0.0
Mn541 Mn 0.69372 0.08148 0.65105 0.0
C542 C 0.67604 0.06461 0.70542 0.0
C543 C 0.66981 0.99451 0.69525 0.0
C544 C 0.73588 0.05931 0.68041 0.0
O545 O 0.69791 0.01875 0.6476 0.0
O546 O 0.69617 0.05399 0.62606 0.0
C547 C 0.64838 0.07744 0.62064 0.0
N548 N 0.66299 0.08999 0.63742 0.0
C549 C 0.63605 0.12342 0.63777 0.0
C550 C 0.62073 0.11091 0.62039 0.0
C551 C 0.62688 0.08777 0.61189 0.0
C552 C 0.65713 0.11213 0.64595 0.0
H553 H 0.65315 0.05971 0.61397 0.0
C554 C 0.69856 0.03129 0.62612 0.0
O555 O 0.69265 0.99625 0.69946 0.0
O556 O 0.65918 0.01301 0.68512 0.0
N557 N 0.69169 0.11005 0.67198 0.0
C558 C 0.70806 0.11934 0.6894 0.0
C559 C 0.70489 0.14257 0.69934 0.0
C560 C 0.68499 0.15601 0.69118 0.0
C561 C 0.66816 0.14594 0.67362 0.0
C562 C 0.67253 0.1229 0.66394 0.0
H563 H 0.72367 0.10929 0.69526 0.0
O564 O 0.68093 0.04604 0.72005 0.0
O565 O 0.67874 0.06202 0.67941 0.0
O566 O 0.72478 0.04162 0.69078 0.0
O567 O 0.72607 0.07451 0.66468 0.0
C568 C 0.64731 0.1579 0.66521 0.0
C569 C 0.63115 0.14656 0.64748 0.0
H570 H 0.60416 0.11884 0.61354 0.0
H571 H 0.61512 0.07797 0.59854 0.0
H572 H 0.718 0.15024 0.71285 0.0
H573 H 0.68294 0.17418 0.69817 0.0
H574 H 0.64342 0.17572 0.67246 0.0
H575 H 0.61503 0.15579 0.64143 0.0
H576 H 0.47667 0.12882 0.18491 0.0
H577 H 0.44393 0.10468 0.20252 0.0
H578 H 0.42422 0.16188 0.2565 0.0
H579 H 0.45664 0.18641 0.23838 0.0
H580 H 0.44028 0.08814 0.25077 0.0
H581 H 0.36487 0.15682 0.27335 0.0
H582 H 0.34831 0.19379 0.25379 0.0
H583 H 0.37513 0.17404 0.17566 0.0
H584 H 0.39155 0.13682 0.19465 0.0
H585 H 0.36333 0.02919 0.33738 0.0
H586 H 0.38695 0.0625 0.31991 0.0
H587 H 0.33862 0.06913 0.25237 0.0
H588 H 0.31421 0.03672 0.27068 0.0
H589 H 0.35551 0.11116 0.26353 0.0
H590 H 0.39015 0.03379 0.2491 0.0
H591 H 0.40531 0.99415 0.26247 0.0
H592 H 0.45814 0.02723 0.313 0.0
H593 H 0.44311 0.06706 0.30015 0.0
C594 C 0.46511 0.13643 0.2002 0.0
C595 C 0.46929 0.15946 0.21038 0.0
C596 C 0.44644 0.12258 0.21031 0.0
C597 C 0.43163 0.1314 0.2309 0.0
C598 C 0.4352 0.15477 0.2404 0.0
C599 C 0.45379 0.16875 0.23008 0.0
C600 C 0.41383 0.1154 0.24383 0.0
C601 C 0.42175 0.09323 0.25351 0.0
C602 C 0.38956 0.12184 0.24714 0.0
C603 C 0.37969 0.14416 0.23552 0.0
C604 C 0.36719 0.16035 0.25199 0.0
C605 C 0.35782 0.18135 0.24099 0.0
C606 C 0.36075 0.18631 0.21352 0.0
C607 C 0.37297 0.17024 0.19696 0.0
C608 C 0.38235 0.14921 0.20784 0.0
C609 C 0.35743 0.03821 0.3192 0.0
C610 C 0.33715 0.03027 0.30518 0.0
C611 C 0.37098 0.05714 0.30914 0.0
C612 C 0.36499 0.06782 0.28435 0.0
C613 C 0.3437 0.06109 0.27143 0.0
C614 C 0.32977 0.04255 0.28189 0.0
C615 C 0.38208 0.08406 0.27059 0.0
C616 C 0.37407 0.10621 0.26084 0.0
C617 C 0.40616 0.07731 0.26628 0.0
C618 C 0.41538 0.05338 0.27385 0.0
C619 C 0.40493 0.03259 0.26316 0.0
C620 C 0.4135 0.0101 0.27064 0.0
C621 C 0.43264 0.00817 0.28861 0.0
C622 C 0.4433 0.02874 0.2991 0.0
C623 C 0.43478 0.05128 0.29171 0.0
H624 H 0.43925 0.99074 0.29438 0.0
H625 H 0.35348 0.20257 0.20505 0.0
H626 H 0.31328 0.45707 0.73801 0.0
H627 H 0.33877 0.42658 0.75868 0.0
H628 H 0.39214 0.43875 0.69734 0.0
H629 H 0.36716 0.46975 0.67723 0.0
H630 H 0.35931 0.38557 0.74577 0.0
H631 H 0.44664 0.4379 0.72428 0.0
H632 H 0.45968 0.47952 0.71724 0.0
H633 H 0.39975 0.50477 0.76314 0.0
H634 H 0.38655 0.46331 0.77078 0.0
H635 H 0.4618 0.31344 0.77308 0.0
H636 H 0.42955 0.33801 0.75463 0.0
H637 H 0.44405 0.39207 0.81463 0.0
H638 H 0.47693 0.36807 0.8322 0.0
H639 H 0.44106 0.41244 0.76955 0.0
H640 H 0.39195 0.35541 0.81461 0.0
H641 H 0.37706 0.31547 0.82704 0.0
H642 H 0.35757 0.30223 0.74447 0.0
H643 H 0.37264 0.34199 0.73148 0.0
C644 C 0.33032 0.453 0.72874 0.0
C645 C 0.3384 0.46601 0.70624 0.0
C646 C 0.34484 0.43554 0.74054 0.0
C647 C 0.36759 0.43073 0.72991 0.0
C648 C 0.3749 0.44255 0.70629 0.0
C649 C 0.36058 0.46022 0.69476 0.0
C650 C 0.38437 0.41472 0.74449 0.0
C651 C 0.37721 0.39139 0.75098 0.0
C652 C 0.40749 0.42251 0.75198 0.0
C653 C 0.4155 0.44751 0.74786 0.0
C654 C 0.43631 0.45233 0.73297 0.0
C655 C 0.44372 0.47589 0.72886 0.0
C656 C 0.43051 0.49477 0.73966 0.0
C657 C 0.40992 0.49013 0.75471 0.0
C658 C 0.40246 0.46661 0.75891 0.0
C659 C 0.45783 0.33041 0.78255 0.0
C660 C 0.47192 0.33893 0.80397 0.0
C661 C 0.43932 0.34442 0.77207 0.0
C662 C 0.43422 0.36693 0.78327 0.0
C663 C 0.44769 0.37488 0.80547 0.0
C664 C 0.46644 0.36112 0.81557 0.0
C665 C 0.41622 0.38303 0.77071 0.0
C666 C 0.42318 0.40648 0.76447 0.0
C667 C 0.39272 0.37552 0.76431 0.0
C668 C 0.38363 0.3516 0.77204 0.0
C669 C 0.38466 0.34391 0.79907 0.0
C670 C 0.37616 0.32132 0.80622 0.0
C671 C 0.36643 0.3063 0.78655 0.0
C672 C 0.36513 0.31387 0.75968 0.0
C673 C 0.37363 0.33645 0.75242 0.0
H674 H 0.35985 0.28881 0.79212 0.0
H675 H 0.43626 0.513 0.73643 0.0
H676 H 0.00762 0.37889 0.19273 0.0
H677 H 0.03964 0.40339 0.21092 0.0
H678 H 0.08154 0.34018 0.22639 0.0
H679 H 0.04874 0.31532 0.20928 0.0
H680 H 0.08622 0.36823 0.26697 0.0
H681 H 0.09477 0.38032 0.17299 0.0
H682 H 0.08267 0.38869 0.12603 0.0
H683 H 0.0595 0.45882 0.14918 0.0
H684 H 0.07114 0.45077 0.19637 0.0
H685 H 0.18604 0.45382 0.28561 0.0
H686 H 0.16192 0.42106 0.26682 0.0
H687 H 0.09848 0.46392 0.2753 0.0
H688 H 0.12213 0.49631 0.29462 0.0
H689 H 0.11143 0.44216 0.21969 0.0
H690 H 0.10016 0.42505 0.31611 0.0
H691 H 0.1154 0.41523 0.36152 0.0
H692 H 0.14888 0.35211 0.33012 0.0
H693 H 0.13411 0.36178 0.28441 0.0
C694 C 0.02371 0.37016 0.19979 0.0
C695 C 0.02573 0.34518 0.19938 0.0
C696 C 0.04213 0.38423 0.21007 0.0
C697 C 0.06335 0.37375 0.21949 0.0
C698 C 0.06544 0.34874 0.21912 0.0
C699 C 0.04673 0.33455 0.20925 0.0
C700 C 0.08279 0.3891 0.2305 0.0
C701 C 0.09205 0.38412 0.25631 0.0
C702 C 0.09066 0.40985 0.21669 0.0
C703 C 0.08372 0.41487 0.18828 0.0
C704 C 0.08696 0.39748 0.16811 0.0
C705 C 0.0802 0.40217 0.14144 0.0
C706 C 0.07029 0.42426 0.13464 0.0
C707 C 0.06718 0.44172 0.15448 0.0
C708 C 0.07389 0.43711 0.18119 0.0
C709 C 0.1669 0.45609 0.28382 0.0
C710 C 0.15598 0.47764 0.29159 0.0
C711 C 0.1532 0.4374 0.2731 0.0
C712 C 0.12849 0.4402 0.26965 0.0
C713 C 0.11754 0.46149 0.27782 0.0
C714 C 0.13109 0.47993 0.28896 0.0
C715 C 0.11396 0.4216 0.25626 0.0
C716 C 0.10579 0.42601 0.22997 0.0
C717 C 0.10759 0.40012 0.26933 0.0
C718 C 0.11632 0.39431 0.2968 0.0
C719 C 0.111 0.40922 0.31884 0.0
C720 C 0.11949 0.40365 0.34464 0.0
C721 C 0.13318 0.3831 0.34869 0.0
C722 C 0.13832 0.36804 0.32695 0.0
C723 C 0.12989 0.37356 0.3011 0.0
H724 H 0.13974 0.37882 0.36868 0.0
H725 H 0.06506 0.42785 0.11398 0.0
H726 H 0.12536 0.01491 0.69543 0.0
H727 H 0.10387 0.04941 0.71287 0.0
H728 H 0.16797 0.07421 0.75223 0.0
H729 H 0.1897 0.03935 0.735 0.0
H730 H 0.13015 0.07669 0.78562 0.0
H731 H 0.14795 0.10306 0.6969 0.0
H732 H 0.1511 0.10049 0.6473 0.0
H733 H 0.075 0.09308 0.6411 0.0
H734 H 0.0714 0.09525 0.6907 0.0
H735 H 0.04584 0.18939 0.77252 0.0
H736 H 0.08043 0.16603 0.75776 0.0
H737 H 0.05303 0.10454 0.80012 0.0
H738 H 0.01866 0.12776 0.81514 0.0
H739 H 0.08065 0.12792 0.72601 0.0
H740 H 0.09784 0.0697 0.82187 0.0
H741 H 0.09678 0.07422 0.87142 0.0
H742 H 0.10742 0.14979 0.86335 0.0
H743 H 0.1089 0.14569 0.81378 0.0
C744 C 0.13498 0.02773 0.70768 0.0
C745 C 0.15925 0.02442 0.71381 0.0
C746 C 0.12268 0.04753 0.71752 0.0
C747 C 0.13439 0.06455 0.73356 0.0
C748 C 0.15863 0.06133 0.73979 0.0
C749 C 0.17101 0.04145 0.72989 0.0
C750 C 0.12082 0.08512 0.74449 0.0
C751 C 0.11947 0.08805 0.77261 0.0
C752 C 0.10741 0.10036 0.72746 0.0
C753 C 0.10943 0.0992 0.69756 0.0
C754 C 0.13189 0.10073 0.68498 0.0
C755 C 0.13376 0.09936 0.65685 0.0
C756 C 0.11327 0.09659 0.64106 0.0
C757 C 0.09086 0.09523 0.65336 0.0
C758 C 0.08889 0.09657 0.68148 0.0
C759 C 0.04736 0.17098 0.77897 0.0
C760 C 0.0295 0.16039 0.79494 0.0
C761 C 0.06711 0.15766 0.77049 0.0
C762 C 0.06942 0.13361 0.77802 0.0
C763 C 0.05185 0.12318 0.79444 0.0
C764 C 0.03212 0.13645 0.80288 0.0
C765 C 0.08915 0.11877 0.76718 0.0
C766 C 0.09163 0.11689 0.73905 0.0
C767 C 0.10391 0.10482 0.7842 0.0
C768 C 0.10332 0.10739 0.81406 0.0
C769 C 0.10009 0.08726 0.83066 0.0
C770 C 0.09939 0.08976 0.85876 0.0
C771 C 0.10198 0.11228 0.87052 0.0
C772 C 0.10534 0.13236 0.85421 0.0
C773 C 0.10608 0.12996 0.82611 0.0
H774 H 0.10141 0.11417 0.89227 0.0
H775 H 0.11475 0.09553 0.61929 0.0
H776 H 0.54976 0.80663 0.77898 0.0
H777 H 0.58246 0.83074 0.7599 0.0
H778 H 0.54032 0.89442 0.77053 0.0
H779 H 0.50808 0.87081 0.79013 0.0
H780 H 0.56213 0.88291 0.7145 0.0
H781 H 0.57871 0.89102 0.81176 0.0
H782 H 0.58836 0.87414 0.85647 0.0
H783 H 0.65135 0.84142 0.82372 0.0
H784 H 0.64185 0.85785 0.77868 0.0
H785 H 0.62162 0.99015 0.69794 0.0
H786 H 0.59846 0.95579 0.71242 0.0
H787 H 0.66331 0.91539 0.72372 0.0
H788 H 0.68684 0.95041 0.71015 0.0
H789 H 0.63517 0.9072 0.76415 0.0
H790 H 0.62417 0.9039 0.66973 0.0
H791 H 0.61588 0.91846 0.62366 0.0
H792 H 0.54475 0.93783 0.64736 0.0
H793 H 0.55269 0.92372 0.69369 0.0
C794 C 0.54763 0.82579 0.77746 0.0
C795 C 0.52639 0.83684 0.78608 0.0
C796 C 0.56626 0.83949 0.76659 0.0
C797 C 0.56366 0.86428 0.7638 0.0
C798 C 0.54258 0.87529 0.77252 0.0
C799 C 0.52424 0.86176 0.78382 0.0
C800 C 0.58244 0.87904 0.7511 0.0
C801 C 0.57813 0.88829 0.72526 0.0
C802 C 0.60371 0.88513 0.76477 0.0
C803 C 0.60939 0.87535 0.79181 0.0
C804 C 0.59446 0.88 0.81403 0.0
C805 C 0.59995 0.87058 0.83945 0.0
C806 C 0.62041 0.85664 0.84292 0.0
C807 C 0.63547 0.85217 0.82099 0.0
C808 C 0.63005 0.86153 0.79553 0.0
C809 C 0.63102 0.97392 0.70327 0.0
C810 C 0.65607 0.97296 0.70275 0.0
C811 C 0.61771 0.95417 0.71141 0.0
C812 C 0.62905 0.93273 0.71861 0.0
C813 C 0.65413 0.93166 0.7181 0.0
C814 C 0.66754 0.95164 0.71028 0.0
C815 C 0.61447 0.91203 0.72776 0.0
C816 C 0.61952 0.90155 0.75293 0.0
C817 C 0.59406 0.9044 0.71317 0.0
C818 C 0.58909 0.91283 0.68526 0.0
C819 C 0.6068 0.91139 0.66517 0.0
C820 C 0.60216 0.91955 0.639 0.0
C821 C 0.57981 0.92908 0.6326 0.0
C822 C 0.56205 0.93043 0.65235 0.0
C823 C 0.5666 0.92231 0.67856 0.0
H824 H 0.57626 0.9354 0.61233 0.0
H825 H 0.62463 0.84937 0.86261 0.0
H826 H 0.5266 0.6291 0.17271 0.0
H827 H 0.55823 0.60528 0.19338 0.0
H828 H 0.57531 0.66373 0.24675 0.0
H829 H 0.54415 0.68796 0.22553 0.0
H830 H 0.61494 0.64066 0.23352 0.0
H831 H 0.53815 0.61902 0.26753 0.0
H832 H 0.49592 0.60675 0.26476 0.0
H833 H 0.51644 0.54177 0.22505 0.0
H834 H 0.55877 0.5538 0.22728 0.0
H835 H 0.63519 0.52985 0.33059 0.0
H836 H 0.61109 0.56248 0.3125 0.0
H837 H 0.66038 0.57013 0.246 0.0
H838 H 0.68507 0.5382 0.26473 0.0
H839 H 0.58722 0.56273 0.26936 0.0
H840 H 0.65696 0.62494 0.21773 0.0
H841 H 0.69787 0.63964 0.22575 0.0
H842 H 0.68964 0.62755 0.31091 0.0
H843 H 0.64858 0.61309 0.30347 0.0
C844 C 0.53739 0.63705 0.1885 0.0
C845 C 0.53273 0.6603 0.19771 0.0
C846 C 0.55539 0.62338 0.20038 0.0
C847 C 0.56875 0.63251 0.22207 0.0
C848 C 0.56515 0.65626 0.23015 0.0
C849 C 0.54732 0.67008 0.21802 0.0
C850 C 0.58508 0.61671 0.23755 0.0
C851 C 0.60894 0.6236 0.24135 0.0
C852 C 0.57705 0.5948 0.24855 0.0
C853 C 0.55161 0.58741 0.24736 0.0
C854 C 0.53364 0.60218 0.25806 0.0
C855 C 0.50969 0.59526 0.2566 0.0
C856 C 0.5035 0.57352 0.24467 0.0
C857 C 0.52126 0.55862 0.23425 0.0
C858 C 0.54523 0.56546 0.23563 0.0
C859 C 0.64114 0.53884 0.31242 0.0
C860 C 0.66198 0.53147 0.29904 0.0
C861 C 0.62731 0.55744 0.30203 0.0
C862 C 0.63385 0.56886 0.27785 0.0
C863 C 0.65512 0.56199 0.26493 0.0
C864 C 0.6692 0.54365 0.2756 0.0
C865 C 0.61737 0.58638 0.26504 0.0
C866 C 0.59336 0.57979 0.26166 0.0
C867 C 0.62514 0.60886 0.25527 0.0
C868 C 0.64976 0.61771 0.25998 0.0
C869 C 0.66385 0.62551 0.23818 0.0
C870 C 0.68707 0.63378 0.24263 0.0
C871 C 0.69637 0.63446 0.26881 0.0
C872 C 0.68245 0.62693 0.29063 0.0
C873 C 0.65921 0.61866 0.2863 0.0
H874 H 0.71436 0.64086 0.27221 0.0
H875 H 0.48496 0.56819 0.24353 0.0
H876 H 0.96283 0.68184 0.76638 0.0
H877 H 0.92869 0.65897 0.74959 0.0
H878 H 0.93799 0.6081 0.81429 0.0
H879 H 0.97274 0.63028 0.83028 0.0
H880 H 0.93366 0.58518 0.77103 0.0
H881 H 0.88911 0.64867 0.81027 0.0
H882 H 0.87751 0.69036 0.81939 0.0
H883 H 0.86009 0.70026 0.73564 0.0
H884 H 0.8719 0.65872 0.72593 0.0
H885 H 0.80704 0.54367 0.73756 0.0
H886 H 0.8317 0.57543 0.75734 0.0
H887 H 0.88561 0.563 0.69672 0.0
H888 H 0.86145 0.53106 0.67738 0.0
H889 H 0.85508 0.61736 0.74239 0.0
H890 H 0.93834 0.55733 0.72758 0.0
H891 H 0.9478 0.51451 0.7228 0.0
H892 H 0.88455 0.49624 0.76725 0.0
H893 H 0.87494 0.53893 0.77267 0.0
C894 C 0.95737 0.66592 0.77717 0.0
C895 C 0.97051 0.65771 0.79949 0.0
C896 C 0.93775 0.65294 0.76767 0.0
C897 C 0.93059 0.63184 0.78076 0.0
C898 C 0.9432 0.62422 0.80374 0.0
C899 C 0.96305 0.63692 0.81289 0.0
C900 C 0.91139 0.61656 0.76925 0.0
C901 C 0.91647 0.59232 0.76496 0.0
C902 C 0.88874 0.62564 0.76159 0.0
C903 C 0.88159 0.65063 0.76734 0.0
C904 C 0.88298 0.65979 0.79375 0.0
C905 C 0.87633 0.68338 0.79904 0.0
C906 C 0.86812 0.69796 0.7781 0.0
C907 C 0.86648 0.68895 0.75184 0.0
C908 C 0.87312 0.66537 0.74644 0.0
C909 C 0.82387 0.54817 0.72807 0.0
C910 C 0.83255 0.53468 0.70625 0.0
C911 C 0.83791 0.56632 0.73936 0.0
C912 C 0.86067 0.57118 0.72881 0.0
C913 C 0.86827 0.55922 0.70545 0.0
C914 C 0.85445 0.54098 0.69442 0.0
C915 C 0.87775 0.58639 0.74386 0.0
C916 C 0.87228 0.61044 0.74871 0.0
C917 C 0.89984 0.57706 0.75286 0.0
C918 C 0.90582 0.55133 0.7503 0.0
C919 C 0.92653 0.54418 0.73646 0.0
C920 C 0.93191 0.51993 0.73362 0.0
C921 C 0.91675 0.50267 0.74464 0.0
C922 C 0.89624 0.50962 0.75865 0.0
C923 C 0.89082 0.53384 0.7616 0.0
H924 H 0.92091 0.48391 0.74237 0.0
H925 H 0.86298 0.71623 0.78224 0.0
H926 H 0.87811 0.99063 0.30422 0.0
H927 H 0.90063 0.95746 0.28488 0.0
H928 H 0.83513 0.91939 0.26968 0.0
H929 H 0.81219 0.95294 0.28852 0.0
H930 H 0.88537 0.89543 0.29777 0.0
H931 H 0.84676 0.93186 0.21895 0.0
H932 H 0.83416 0.96693 0.19238 0.0
H933 H 0.90689 0.9909 0.18799 0.0
H934 H 0.91983 0.95613 0.21491 0.0
H935 H 0.95503 0.8138 0.21782 0.0
H936 H 0.92131 0.8368 0.23587 0.0
H937 H 0.95867 0.90231 0.21778 0.0
H938 H 0.99161 0.87958 0.1988 0.0
H939 H 0.91527 0.90785 0.20445 0.0
H940 H 0.95475 0.87593 0.28375 0.0
H941 H 0.97019 0.84403 0.31334 0.0
H942 H 0.89979 0.81425 0.32 0.0
H943 H 0.88398 0.84585 0.29018 0.0
C944 C 0.86843 0.97513 0.29705 0.0
C945 C 0.84336 0.97443 0.29779 0.0
C946 C 0.88135 0.95621 0.28603 0.0
C947 C 0.86949 0.9361 0.27589 0.0
C948 C 0.84452 0.93482 0.27748 0.0
C949 C 0.83149 0.95399 0.28815 0.0
C950 C 0.8835 0.91735 0.26216 0.0
C951 C 0.8915 0.89768 0.27713 0.0
C952 C 0.8919 0.92082 0.23558 0.0
C953 C 0.8842 0.94155 0.21915 0.0
C954 C 0.86001 0.94474 0.21253 0.0
C955 C 0.85282 0.96452 0.19736 0.0
C956 C 0.86971 0.98117 0.18856 0.0
C957 C 0.89382 0.97801 0.19485 0.0
C958 C 0.9011 0.95826 0.21003 0.0
C959 C 0.95592 0.83311 0.21766 0.0
C960 C 0.97593 0.8449 0.20688 0.0
C961 C 0.93671 0.84625 0.22808 0.0
C962 C 0.93748 0.87135 0.22846 0.0
C963 C 0.95749 0.883 0.21761 0.0
C964 C 0.9764 0.86996 0.20681 0.0
C965 C 0.91774 0.88585 0.24015 0.0
C966 C 0.90874 0.90497 0.22483 0.0
C967 C 0.90877 0.88202 0.2666 0.0
C968 C 0.91825 0.86305 0.28448 0.0
C969 C 0.94261 0.86247 0.29136 0.0
C970 C 0.95141 0.84446 0.3082 0.0
C971 C 0.936 0.82707 0.31846 0.0
C972 C 0.91172 0.82769 0.31198 0.0
C973 C 0.90283 0.84565 0.29512 0.0
H974 H 0.94285 0.81315 0.3315 0.0
H975 H 0.86411 0.99648 0.17682 0.0
H976 H 0.60517 0.25527 0.20159 0.0
H977 H 0.61574 0.29183 0.22529 0.0
H978 H 0.54179 0.30372 0.2451 0.0
H979 H 0.53088 0.26646 0.22192 0.0
H980 H 0.57442 0.345 0.21943 0.0
H981 H 0.56538 0.28935 0.29389 0.0
H982 H 0.57207 0.25048 0.31605 0.0
H983 H 0.64784 0.26183 0.31319 0.0
H984 H 0.64161 0.30048 0.29041 0.0
H985 H 0.63104 0.42375 0.33207 0.0
H986 H 0.60437 0.39104 0.31808 0.0
H987 H 0.64766 0.37967 0.24718 0.0
H988 H 0.67469 0.41164 0.26163 0.0
H989 H 0.6198 0.34056 0.30537 0.0
H990 H 0.60537 0.37281 0.19563 0.0
H991 H 0.60215 0.41078 0.17068 0.0
H992 H 0.57686 0.44584 0.24232 0.0
H993 H 0.57956 0.408 0.26758 0.0
C994 C 0.59104 0.26552 0.21095 0.0
C995 C 0.56715 0.25779 0.20997 0.0
C996 C 0.59717 0.28643 0.22449 0.0
C997 C 0.57955 0.30028 0.23696 0.0
C998 C 0.55559 0.29311 0.23558 0.0
C999 C 0.54944 0.27184 0.22241 0.0
C1000 C 0.58668 0.32213 0.25149 0.0
C1001 C 0.58407 0.34417 0.23842 0.0
C1002 C 0.59925 0.32084 0.27621 0.0
C1003 C 0.60301 0.29778 0.29034 0.0
C1004 C 0.58347 0.28347 0.29779 0.0
C1005 C 0.58718 0.26147 0.31046 0.0
C1006 C 0.61037 0.25365 0.31595 0.0
C1007 C 0.62989 0.26787 0.30887 0.0
C1008 C 0.62627 0.28984 0.29612 0.0
C1009 C 0.63505 0.41383 0.31385 0.0
C1010 C 0.65537 0.41935 0.29846 0.0
C1011 C 0.61973 0.39543 0.30575 0.0
C1012 C 0.62412 0.38302 0.28164 0.0
C1013 C 0.64401 0.38909 0.26585 0.0
C1014 C 0.65944 0.40721 0.27413 0.0
C1015 C 0.60841 0.36331 0.27285 0.0
C1016 C 0.60966 0.34159 0.2868 0.0
C1017 C 0.59496 0.36483 0.24873 0.0
C1018 C 0.59282 0.38757 0.23354 0.0
C1019 C 0.59898 0.38858 0.20602 0.0
C1020 C 0.59727 0.41009 0.19183 0.0
C1021 C 0.58936 0.43072 0.20492 0.0
C1022 C 0.58306 0.42986 0.23222 0.0
C1023 C 0.58472 0.40839 0.2465 0.0
H1024 H 0.58807 0.44736 0.1939 0.0
H1025 H 0.61322 0.23661 0.32574 0.0
H1026 H 0.24021 0.53917 0.72791 0.0
H1027 H 0.2055 0.55699 0.75014 0.0
H1028 H 0.19384 0.60209 0.68075 0.0
H1029 H 0.22848 0.58466 0.65854 0.0
H1030 H 0.19722 0.62752 0.72627 0.0
H1031 H 0.15478 0.55752 0.69722 0.0
H1032 H 0.14751 0.51428 0.69279 0.0
H1033 H 0.1437 0.50759 0.77911 0.0
H1034 H 0.15127 0.55076 0.78408 0.0
H1035 H 0.08995 0.6842 0.76525 0.0
H1036 H 0.1229 0.663 0.74428 0.0
H1037 H 0.12216 0.61151 0.8092 0.0
H1038 H 0.08692 0.63129 0.82827 0.0
H1039 H 0.12631 0.58874 0.76699 0.0
H1040 H 0.187 0.65257 0.79295 0.0
H1041 H 0.20043 0.69437 0.7983 0.0
H1042 H 0.17309 0.71124 0.71951 0.0
H1043 H 0.15994 0.66944 0.71373 0.0
C1044 C 0.22995 0.55248 0.71711 0.0
C1045 C 0.23732 0.56064 0.69153 0.0
C1046 C 0.21007 0.56263 0.72985 0.0
C1047 C 0.19711 0.58092 0.71713 0.0
C1048 C 0.20365 0.58809 0.691 0.0
C1049 C 0.22348 0.57806 0.67832 0.0
C1050 C 0.17842 0.59439 0.73192 0.0
C1051 C 0.18153 0.61906 0.73487 0.0
C1052 C 0.15843 0.58328 0.74399 0.0
C1053 C 0.15383 0.55734 0.74103 0.0
C1054 C 0.1526 0.5468 0.71527 0.0
C1055 C 0.14838 0.52231 0.71266 0.0
C1056 C 0.14521 0.50819 0.73566 0.0
C1057 C 0.14619 0.51855 0.76132 0.0
C1058 C 0.15042 0.54303 0.76404 0.0
C1059 C 0.09719 0.66863 0.77533 0.0
C1060 C 0.08661 0.65998 0.79908 0.0
C1061 C 0.11644 0.65671 0.76357 0.0
C1062 C 0.12605 0.63612 0.7756 0.0
C1063 C 0.1155 0.62755 0.79958 0.0
C1064 C 0.09562 0.63907 0.81084 0.0
C1065 C 0.14505 0.6221 0.76152 0.0
C1066 C 0.14203 0.59726 0.75859 0.0
C1067 C 0.16534 0.63296 0.74957 0.0
C1068 C 0.17154 0.65833 0.75352 0.0
C1069 C 0.18339 0.66542 0.77713 0.0
C1070 C 0.19127 0.68897 0.78004 0.0
C1071 C 0.1873 0.70555 0.75942 0.0
C1072 C 0.17587 0.69848 0.73563 0.0
C1073 C 0.16832 0.67485 0.73248 0.0
H1074 H 0.19328 0.72381 0.76178 0.0
H1075 H 0.14194 0.48923 0.73359 0.0
H1076 H 0.86421 0.08995 0.32177 0.0
H1077 H 0.88432 0.12417 0.30118 0.0
H1078 H 0.83543 0.1203 0.23379 0.0
H1079 H 0.8133 0.08894 0.25664 0.0
H1080 H 0.90897 0.12795 0.26167 0.0
H1081 H 0.83259 0.15694 0.19648 0.0
H1082 H 0.78961 0.16691 0.19675 0.0
H1083 H 0.79582 0.19292 0.27806 0.0
H1084 H 0.83885 0.18269 0.27816 0.0
H1085 H 0.91578 0.2278 0.15021 0.0
H1086 H 0.89963 0.19195 0.17121 0.0
H1087 H 0.93756 0.20824 0.24481 0.0
H1088 H 0.95415 0.24421 0.22368 0.0
H1089 H 0.87016 0.1948 0.21303 0.0
H1090 H 0.94386 0.15521 0.28149 0.0
H1091 H 0.98758 0.14994 0.28163 0.0
H1092 H 0.98834 0.15119 0.19488 0.0
H1093 H 0.94461 0.15612 0.1942 0.0
C1094 C 0.85689 0.09761 0.3035 0.0
C1095 C 0.83626 0.08796 0.29177 0.0
C1096 C 0.86874 0.11679 0.29125 0.0
C1097 C 0.86107 0.12576 0.2661 0.0
C1098 C 0.84101 0.11519 0.25386 0.0
C1099 C 0.82855 0.09683 0.26674 0.0
C1100 C 0.87525 0.14452 0.2517 0.0
C1101 C 0.90037 0.1428 0.25153 0.0
C1102 C 0.86443 0.16358 0.23733 0.0
C1103 C 0.8385 0.16825 0.23778 0.0
C1104 C 0.82462 0.16444 0.21453 0.0
C1105 C 0.80032 0.17013 0.21459 0.0
C1106 C 0.7899 0.18021 0.23757 0.0
C1107 C 0.80381 0.18469 0.26047 0.0
C1108 C 0.82805 0.1787 0.2606 0.0
C1109 C 0.92114 0.22352 0.17069 0.0
C1110 C 0.93604 0.23899 0.1854 0.0
C1111 C 0.91188 0.203 0.18265 0.0
C1112 C 0.91724 0.19747 0.20961 0.0
C1113 C 0.93335 0.21203 0.22388 0.0
C1114 C 0.9428 0.23259 0.2118 0.0
C1115 C 0.90362 0.17834 0.22351 0.0
C1116 C 0.87867 0.17999 0.22339 0.0
C1117 C 0.91467 0.15946 0.23771 0.0
C1118 C 0.94097 0.1563 0.23783 0.0
C1119 C 0.95335 0.15428 0.26244 0.0
C1120 C 0.97814 0.15136 0.26262 0.0
C1121 C 0.99074 0.15032 0.23828 0.0
C1122 C 0.97857 0.15211 0.21372 0.0
C1123 C 0.95378 0.15501 0.21343 0.0
H1124 H 0.00993 0.14806 0.23846 0.0
H1125 H 0.77113 0.18477 0.23754 0.0
H1126 H 0.25886 0.9485 0.72506 0.0
H1127 H 0.29581 0.93024 0.7412 0.0
H1128 H 0.30405 0.89394 0.66489 0.0
H1129 H 0.26696 0.91173 0.64879 0.0
H1130 H 0.3058 0.86342 0.70485 0.0
H1131 H 0.34342 0.93788 0.68563 0.0
H1132 H 0.34885 0.98154 0.68683 0.0
H1133 H 0.35567 0.97925 0.77321 0.0
H1134 H 0.34995 0.9356 0.77257 0.0
H1135 H 0.41285 0.80518 0.74527 0.0
H1136 H 0.3815 0.82761 0.72265 0.0
H1137 H 0.37787 0.8759 0.79058 0.0
H1138 H 0.41196 0.85549 0.81098 0.0
H1139 H 0.37494 0.9008 0.7508 0.0
H1140 H 0.31881 0.83073 0.76739 0.0
H1141 H 0.30875 0.78765 0.76637 0.0
H1142 H 0.33492 0.7829 0.68501 0.0
H1143 H 0.34476 0.82592 0.68567 0.0
C1144 C 0.26883 0.9371 0.71146 0.0
C1145 C 0.25981 0.93139 0.68573 0.0
C1146 C 0.29002 0.92671 0.72071 0.0
C1147 C 0.30272 0.9107 0.70426 0.0
C1148 C 0.29449 0.90615 0.67798 0.0
C1149 C 0.27327 0.91637 0.66881 0.0
C1150 C 0.32286 0.89658 0.71544 0.0
C1151 C 0.32113 0.87163 0.71454 0.0
C1152 C 0.34257 0.9072 0.72861 0.0
C1153 C 0.34606 0.93346 0.72906 0.0
C1154 C 0.34589 0.9467 0.7049 0.0
C1155 C 0.34906 0.97145 0.70548 0.0
C1156 C 0.35255 0.98317 0.73008 0.0
C1157 C 0.35294 0.97015 0.75416 0.0
C1158 C 0.34977 0.9454 0.7537 0.0
C1159 C 0.40501 0.82037 0.75552 0.0
C1160 C 0.41388 0.82784 0.78064 0.0
C1161 C 0.38669 0.833 0.74276 0.0
C1162 C 0.37623 0.853 0.75522 0.0
C1163 C 0.38519 0.86039 0.78048 0.0
C1164 C 0.40429 0.84837 0.79261 0.0
C1165 C 0.35756 0.86745 0.74109 0.0
C1166 C 0.35963 0.89253 0.7412 0.0
C1167 C 0.33803 0.85701 0.72719 0.0
C1168 C 0.33334 0.83109 0.72705 0.0
C1169 C 0.32286 0.82023 0.74962 0.0
C1170 C 0.31698 0.79597 0.74897 0.0
C1171 C 0.32155 0.78247 0.7258 0.0
C1172 C 0.33163 0.7933 0.70306 0.0
C1173 C 0.33724 0.81762 0.70352 0.0
H1174 H 0.31707 0.76367 0.72537 0.0
H1175 H 0.35501 0.00233 0.73049 0.0
H1176 H 0.54754 0.23925 0.78376 0.0
H1177 H 0.56451 0.20214 0.76637 0.0
H1178 H 0.60205 0.19166 0.8416 0.0
H1179 H 0.58566 0.22901 0.85881 0.0
H1180 H 0.63179 0.18987 0.80172 0.0
H1181 H 0.55678 0.15323 0.81989 0.0
H1182 H 0.51302 0.14863 0.81899 0.0
H1183 H 0.51438 0.14464 0.73236 0.0
H1184 H 0.55814 0.14956 0.7327 0.0
H1185 H 0.68803 0.08421 0.75342 0.0
H1186 H 0.66612 0.1142 0.77884 0.0
H1187 H 0.61702 0.12239 0.71216 0.0
H1188 H 0.63685 0.08947 0.68882 0.0
H1189 H 0.59269 0.12345 0.7526 0.0
H1190 H 0.66356 0.18015 0.73914 0.0
H1191 H 0.70684 0.18928 0.74044 0.0
H1192 H 0.71193 0.15715 0.819 0.0
H1193 H 0.66873 0.14817 0.81804 0.0
C1194 C 0.55889 0.22872 0.79686 0.0
C1195 C 0.56543 0.2372 0.82257 0.0
C1196 C 0.56855 0.20743 0.78692 0.0
C1197 C 0.58458 0.19406 0.80267 0.0
C1198 C 0.58983 0.20172 0.82902 0.0
C1199 C 0.58042 0.22308 0.83884 0.0
C1200 C 0.59819 0.17395 0.7906 0.0
C1201 C 0.62318 0.17511 0.79137 0.0
C1202 C 0.58708 0.15496 0.7766 0.0
C1203 C 0.56075 0.15195 0.77632 0.0
C1204 C 0.54774 0.15156 0.80063 0.0
C1205 C 0.52293 0.14886 0.80022 0.0
C1206 C 0.51092 0.14639 0.77564 0.0
C1207 C 0.52371 0.14657 0.7514 0.0
C1208 C 0.54852 0.14928 0.75169 0.0
C1209 C 0.67277 0.09276 0.74407 0.0
C1210 C 0.66493 0.08554 0.71842 0.0
C1211 C 0.66044 0.11033 0.75845 0.0
C1212 C 0.64041 0.12171 0.74716 0.0
C1213 C 0.63259 0.11435 0.72141 0.0
C1214 C 0.64429 0.09595 0.70762 0.0
C1215 C 0.62643 0.1398 0.76282 0.0
C1216 C 0.60132 0.13817 0.76294 0.0
C1217 C 0.63736 0.15846 0.77773 0.0
C1218 C 0.66337 0.16263 0.77793 0.0
C1219 C 0.67418 0.17458 0.75629 0.0
C1220 C 0.69855 0.17996 0.75713 0.0
C1221 C 0.71221 0.17344 0.77959 0.0
C1222 C 0.70142 0.16193 0.80147 0.0
C1223 C 0.67699 0.15681 0.80083 0.0
H1224 H 0.73109 0.17754 0.78016 0.0
H1225 H 0.49171 0.1443 0.77537 0.0
H1226 H 0.41621 0.68111 0.24202 0.0
H1227 H 0.38444 0.65632 0.26149 0.0
H1228 H 0.39055 0.60731 0.19465 0.0
H1229 H 0.42299 0.63171 0.17564 0.0
H1230 H 0.34141 0.62462 0.20931 0.0
H1231 H 0.41126 0.58768 0.2468 0.0
H1232 H 0.45009 0.58756 0.27024 0.0
H1233 H 0.41734 0.61748 0.34097 0.0
H1234 H 0.37834 0.61816 0.31779 0.0
H1235 H 0.25944 0.54395 0.26749 0.0
H1236 H 0.29711 0.55723 0.24738 0.0
H1237 H 0.30903 0.60412 0.31517 0.0
H1238 H 0.27154 0.59099 0.33539 0.0
H1239 H 0.35077 0.58368 0.29753 0.0
H1240 H 0.28327 0.62512 0.26135 0.0
H1241 H 0.24411 0.62952 0.23916 0.0
H1242 H 0.27169 0.59643 0.16742 0.0
H1243 H 0.31093 0.59138 0.18938 0.0
C1244 C 0.41065 0.66508 0.2315 0.0
C1245 C 0.42123 0.65871 0.20684 0.0
C1246 C 0.39262 0.65095 0.24262 0.0
C1247 C 0.38513 0.63011 0.22939 0.0
C1248 C 0.39599 0.62346 0.20499 0.0
C1249 C 0.41427 0.63747 0.19404 0.0
C1250 C 0.36579 0.61547 0.24118 0.0
C1251 C 0.34354 0.61524 0.22827 0.0
C1252 C 0.36855 0.60382 0.26632 0.0
C1253 C 0.3919 0.60316 0.28046 0.0
C1254 C 0.41236 0.59443 0.26727 0.0
C1255 C 0.4344 0.59422 0.28052 0.0
C1256 C 0.4362 0.60256 0.30705 0.0
C1257 C 0.41593 0.61104 0.32041 0.0
C1258 C 0.39384 0.61132 0.30723 0.0
C1259 C 0.27037 0.55663 0.27845 0.0
C1260 C 0.26238 0.56658 0.30292 0.0
C1261 C 0.29182 0.56429 0.26686 0.0
C1262 C 0.30566 0.58189 0.27963 0.0
C1263 C 0.29859 0.59056 0.30496 0.0
C1264 C 0.27709 0.58308 0.31644 0.0
C1265 C 0.32627 0.59295 0.26564 0.0
C1266 C 0.34872 0.59267 0.27825 0.0
C1267 C 0.32359 0.6046 0.24041 0.0
C1268 C 0.29994 0.60746 0.2272 0.0
C1269 C 0.28092 0.61849 0.24097 0.0
C1270 C 0.25872 0.62116 0.22841 0.0
C1271 C 0.25539 0.61317 0.20194 0.0
C1272 C 0.27427 0.60253 0.18796 0.0
C1273 C 0.29649 0.59973 0.20047 0.0
H1274 H 0.2382 0.61529 0.19224 0.0
H1275 H 0.45329 0.60239 0.31727 0.0
H1276 H 0.81321 0.40922 0.74523 0.0
H1277 H 0.83897 0.37803 0.76361 0.0
H1278 H 0.89773 0.40472 0.71563 0.0
H1279 H 0.87098 0.43424 0.69524 0.0
H1280 H 0.90326 0.36256 0.71523 0.0
H1281 H 0.89101 0.41273 0.78937 0.0
H1282 H 0.86978 0.43777 0.82253 0.0
H1283 H 0.83246 0.37617 0.85223 0.0
H1284 H 0.85321 0.35079 0.81898 0.0
H1285 H 0.94807 0.28281 0.83896 0.0
H1286 H 0.93567 0.32176 0.82098 0.0
H1287 H 0.91054 0.28712 0.74828 0.0
H1288 H 0.92463 0.24881 0.76548 0.0
H1289 H 0.89689 0.33935 0.81161 0.0
H1290 H 0.90738 0.32041 0.69523 0.0
H1291 H 0.93664 0.30163 0.66477 0.0
H1292 H 0.99163 0.3111 0.72427 0.0
H1293 H 0.96276 0.33034 0.75491 0.0
C1294 C 0.83158 0.40813 0.73852 0.0
C1295 C 0.84008 0.42351 0.71844 0.0
C1296 C 0.84649 0.3906 0.74935 0.0
C1297 C 0.87066 0.38919 0.74164 0.0
C1298 C 0.87923 0.40517 0.72196 0.0
C1299 C 0.86401 0.42207 0.71032 0.0
C1300 C 0.8866 0.37056 0.75349 0.0
C1301 C 0.90186 0.35762 0.73633 0.0
C1302 C 0.88612 0.36475 0.78139 0.0
C1303 C 0.87359 0.37987 0.80155 0.0
C1304 C 0.87818 0.40454 0.80287 0.0
C1305 C 0.86624 0.41879 0.82169 0.0
C1306 C 0.84976 0.40857 0.83945 0.0
C1307 C 0.84523 0.38406 0.83846 0.0
C1308 C 0.85711 0.36972 0.81965 0.0
C1309 C 0.94044 0.28383 0.81887 0.0
C1310 C 0.93758 0.26314 0.80329 0.0
C1311 C 0.93321 0.30598 0.80865 0.0
C1312 C 0.92244 0.30762 0.783 0.0
C1313 C 0.91955 0.28669 0.76763 0.0
C1314 C 0.92742 0.26474 0.7775 0.0
C1315 C 0.91251 0.33069 0.77302 0.0
C1316 C 0.89846 0.3445 0.79056 0.0
C1317 C 0.91534 0.33825 0.74589 0.0
C1318 C 0.93282 0.32677 0.72742 0.0
C1319 C 0.92573 0.3187 0.70174 0.0
C1320 C 0.94225 0.30791 0.68446 0.0
C1321 C 0.96597 0.30514 0.6926 0.0
C1322 C 0.97323 0.3132 0.71802 0.0
C1323 C 0.95678 0.32403 0.73536 0.0
H1324 H 0.97874 0.29676 0.6792 0.0
H1325 H 0.84053 0.41964 0.85401 0.0
H1326 H 0.0784 0.87369 0.17648 0.0
H1327 H 0.1099 0.89811 0.19636 0.0
H1328 H 0.13777 0.83595 0.23724 0.0
H1329 H 0.10444 0.81239 0.21993 0.0
H1330 H 0.13171 0.86892 0.27146 0.0
H1331 H 0.1899 0.88344 0.18269 0.0
H1332 H 0.19472 0.89999 0.13673 0.0
H1333 H 0.13775 0.94954 0.15148 0.0
H1334 H 0.13357 0.93413 0.19795 0.0
H1335 H 0.24778 0.88938 0.31712 0.0
H1336 H 0.21067 0.87755 0.29552 0.0
H1337 H 0.19978 0.94984 0.26799 0.0
H1338 H 0.23755 0.96172 0.28883 0.0
H1339 H 0.19191 0.92144 0.22862 0.0
H1340 H 0.16399 0.92408 0.31832 0.0
H1341 H 0.16375 0.91691 0.36746 0.0
H1342 H 0.15964 0.84134 0.3538 0.0
H1343 H 0.1602 0.84801 0.30456 0.0
C1344 C 0.09171 0.86525 0.18918 0.0
C1345 C 0.08937 0.84115 0.19641 0.0
C1346 C 0.11005 0.87919 0.20026 0.0
C1347 C 0.12685 0.86901 0.21798 0.0
C1348 C 0.12514 0.84443 0.22371 0.0
C1349 C 0.10622 0.83085 0.2137 0.0
C1350 C 0.14414 0.8838 0.23376 0.0
C1351 C 0.145 0.88021 0.26192 0.0
C1352 C 0.16056 0.90003 0.22201 0.0
C1353 C 0.16052 0.90674 0.19318 0.0
C1354 C 0.17809 0.89752 0.17587 0.0
C1355 C 0.18104 0.90704 0.14995 0.0
C1356 C 0.16634 0.92559 0.14106 0.0
C1357 C 0.1489 0.93493 0.15822 0.0
C1358 C 0.14631 0.92589 0.18438 0.0
C1359 C 0.23744 0.90289 0.30673 0.0
C1360 C 0.24577 0.92651 0.30464 0.0
C1361 C 0.21605 0.89611 0.29453 0.0
C1362 C 0.20218 0.91286 0.28041 0.0
C1363 C 0.21014 0.93659 0.2788 0.0
C1364 C 0.23174 0.94336 0.29075 0.0
C1365 C 0.18042 0.90501 0.26571 0.0
C1366 C 0.17858 0.91014 0.23808 0.0
C1367 C 0.16272 0.89071 0.27806 0.0
C1368 C 0.16226 0.88656 0.3077 0.0
C1369 C 0.16319 0.90592 0.32578 0.0
C1370 C 0.16297 0.90195 0.35366 0.0
C1371 C 0.16171 0.87869 0.36375 0.0
C1372 C 0.16061 0.85935 0.34596 0.0
C1373 C 0.16083 0.86322 0.31805 0.0
H1374 H 0.16155 0.87565 0.38535 0.0
H1375 H 0.16855 0.9328 0.12093 0.0
H1376 H 0.31069 0.58352 0.73914 0.0
H1377 H 0.33295 0.61614 0.75939 0.0
H1378 H 0.38179 0.61569 0.69192 0.0
H1379 H 0.36095 0.58083 0.67336 0.0
H1380 H 0.40626 0.61921 0.73347 0.0
H1381 H 0.34168 0.67979 0.71011 0.0
H1382 H 0.29974 0.69333 0.70674 0.0
H1383 H 0.28593 0.66677 0.78662 0.0
H1384 H 0.3279 0.65356 0.79045 0.0
H1385 H 0.45624 0.73424 0.76788 0.0
H1386 H 0.43882 0.69821 0.74803 0.0
H1387 H 0.39656 0.68763 0.81988 0.0
H1388 H 0.41362 0.7236 0.83971 0.0
H1389 H 0.36937 0.69043 0.77568 0.0
H1390 H 0.43997 0.64813 0.80196 0.0
H1391 H 0.48324 0.6405 0.80478 0.0
H1392 H 0.48713 0.63532 0.71833 0.0
H1393 H 0.44392 0.64327 0.71495 0.0
C1394 C 0.32589 0.59076 0.72835 0.0
C1395 C 0.33349 0.58037 0.70404 0.0
C1396 C 0.33843 0.6098 0.73974 0.0
C1397 C 0.3586 0.61936 0.72679 0.0
C1398 C 0.3661 0.60904 0.70224 0.0
C1399 C 0.35395 0.58939 0.6913 0.0
C1400 C 0.37325 0.6382 0.74034 0.0
C1401 C 0.39816 0.63499 0.74223 0.0
C1402 C 0.36294 0.65853 0.75277 0.0
C1403 C 0.33746 0.6648 0.75002 0.0
C1404 C 0.32946 0.67641 0.72663 0.0
C1405 C 0.30584 0.68432 0.72482 0.0
C1406 C 0.29008 0.68059 0.7463 0.0
C1407 C 0.29806 0.66937 0.76985 0.0
C1408 C 0.32177 0.6618 0.7719 0.0
C1409 C 0.44377 0.72386 0.77978 0.0
C1410 C 0.43609 0.73199 0.80525 0.0
C1411 C 0.43383 0.70324 0.7684 0.0
C1412 C 0.41626 0.69031 0.78241 0.0
C1413 C 0.40996 0.69742 0.80863 0.0
C1414 C 0.41977 0.71801 0.81995 0.0
C1415 C 0.40219 0.67143 0.76865 0.0
C1416 C 0.37744 0.67466 0.76679 0.0
C1417 C 0.41274 0.65132 0.75621 0.0
C1418 C 0.43873 0.64654 0.75819 0.0
C1419 C 0.45008 0.64558 0.78353 0.0
C1420 C 0.4746 0.64115 0.78523 0.0
C1421 C 0.48794 0.63749 0.76175 0.0
C1422 C 0.47678 0.63819 0.73651 0.0
C1423 C 0.45227 0.64264 0.73469 0.0
H1424 H 0.50692 0.63405 0.76311 0.0
H1425 H 0.27176 0.6866 0.7448 0.0
H1426 H 0.9107 0.31132 0.23557 0.0
H1427 H 0.87714 0.33202 0.25606 0.0
H1428 H 0.87449 0.38043 0.18829 0.0
H1429 H 0.91032 0.36147 0.16963 0.0
H1430 H 0.86969 0.40462 0.22989 0.0
H1431 H 0.80949 0.33719 0.20754 0.0
H1432 H 0.7981 0.29462 0.20466 0.0
H1433 H 0.8307 0.28162 0.28182 0.0
H1434 H 0.84178 0.32422 0.28518 0.0
H1435 H 0.75349 0.45115 0.26671 0.0
H1436 H 0.78868 0.43384 0.2446 0.0
H1437 H 0.80182 0.39033 0.31497 0.0
H1438 H 0.7668 0.40714 0.33689 0.0
H1439 H 0.79983 0.36397 0.2706 0.0
H1440 H 0.83883 0.43656 0.29774 0.0
H1441 H 0.84421 0.48017 0.30068 0.0
H1442 H 0.84889 0.48456 0.21422 0.0
H1443 H 0.8432 0.441 0.21074 0.0
C1444 C 0.90261 0.3261 0.22481 0.0
C1445 C 0.91233 0.33408 0.20031 0.0
C1446 C 0.88301 0.33767 0.2363 0.0
C1447 C 0.87219 0.35712 0.22321 0.0
C1448 C 0.88205 0.36517 0.19866 0.0
C1449 C 0.90227 0.3541 0.18768 0.0
C1450 C 0.85244 0.37063 0.23654 0.0
C1451 C 0.85423 0.39567 0.23835 0.0
C1452 C 0.83245 0.35923 0.24847 0.0
C1453 C 0.82761 0.33344 0.24583 0.0
C1454 C 0.81474 0.32503 0.22348 0.0
C1455 C 0.80799 0.30103 0.22199 0.0
C1456 C 0.81403 0.28532 0.24283 0.0
C1457 C 0.82637 0.29371 0.26547 0.0
C1458 C 0.83279 0.31778 0.26721 0.0
C1459 C 0.76415 0.43822 0.27762 0.0
C1460 C 0.75718 0.43031 0.30342 0.0
C1461 C 0.78428 0.42839 0.26499 0.0
C1462 C 0.79783 0.41074 0.27813 0.0
C1463 C 0.79154 0.40379 0.30438 0.0
C1464 C 0.77146 0.41342 0.31687 0.0
C1465 C 0.81718 0.39774 0.26389 0.0
C1466 C 0.81526 0.37287 0.26196 0.0
C1467 C 0.8369 0.40936 0.25189 0.0
C1468 C 0.84033 0.43554 0.25397 0.0
C1469 C 0.84079 0.44685 0.27934 0.0
C1470 C 0.84394 0.47156 0.28111 0.0
C1471 C 0.84682 0.48514 0.25765 0.0
C1472 C 0.84662 0.47403 0.23237 0.0
C1473 C 0.84345 0.44932 0.23049 0.0
H1474 H 0.84926 0.50426 0.25906 0.0
H1475 H 0.80892 0.26672 0.24159 0.0
H1476 H 0.09306 0.76291 0.84729 0.0
H1477 H 0.11041 0.79817 0.82623 0.0
H1478 H 0.06365 0.78953 0.75766 0.0
H1479 H 0.04589 0.7543 0.77874 0.0
H1480 H 0.13487 0.79681 0.78027 0.0
H1481 H 0.05654 0.84446 0.72647 0.0
H1482 H 0.0136 0.85212 0.73335 0.0
H1483 H 0.02278 0.84565 0.81917 0.0
H1484 H 0.06581 0.83828 0.81285 0.0
H1485 H 0.13546 0.90923 0.68126 0.0
H1486 H 0.11646 0.87348 0.7 0.0
H1487 H 0.17023 0.87121 0.76252 0.0
H1488 H 0.19063 0.90474 0.74166 0.0
H1489 H 0.09508 0.86855 0.74278 0.0
H1490 H 0.17607 0.83133 0.79411 0.0
H1491 H 0.21804 0.81933 0.78685 0.0
H1492 H 0.20165 0.79978 0.70504 0.0
H1493 H 0.15964 0.81213 0.71188 0.0
C1494 C 0.08609 0.7687 0.82796 0.0
C1495 C 0.06819 0.75559 0.81462 0.0
C1496 C 0.09608 0.78888 0.81593 0.0
C1497 C 0.08838 0.79647 0.79036 0.0
C1498 C 0.0697 0.78417 0.77755 0.0
C1499 C 0.0596 0.76397 0.78963 0.0
C1500 C 0.10158 0.81565 0.77609 0.0
C1501 C 0.1262 0.81267 0.77237 0.0
C1502 C 0.09019 0.83594 0.76503 0.0
C1503 C 0.06437 0.84056 0.76913 0.0
C1504 C 0.04941 0.84474 0.74681 0.0
C1505 C 0.02505 0.84903 0.75062 0.0
C1506 C 0.01545 0.84929 0.77667 0.0
C1507 C 0.03022 0.84534 0.79899 0.0
C1508 C 0.05459 0.84106 0.7953 0.0
C1509 C 0.14391 0.90009 0.69799 0.0
C1510 C 0.16517 0.90888 0.70912 0.0
C1511 C 0.13282 0.87993 0.70911 0.0
C1512 C 0.14216 0.8689 0.73242 0.0
C1513 C 0.16322 0.87818 0.74378 0.0
C1514 C 0.17472 0.89771 0.73207 0.0
C1515 C 0.12854 0.84966 0.74657 0.0
C1516 C 0.1038 0.85264 0.75044 0.0
C1517 C 0.13973 0.8292 0.75771 0.0
C1518 C 0.16511 0.82339 0.75312 0.0
C1519 C 0.18159 0.82482 0.77447 0.0
C1520 C 0.20533 0.81796 0.77046 0.0
C1521 C 0.21258 0.80909 0.74538 0.0
C1522 C 0.19609 0.80701 0.72431 0.0
C1523 C 0.17242 0.81421 0.72813 0.0
H1524 H 0.23092 0.80363 0.74234 0.0
H1525 H 0.99659 0.8526 0.77958 0.0
H1526 H 0.58175 0.18445 0.25659 0.0
H1527 H 0.61276 0.16246 0.27998 0.0
H1528 H 0.62095 0.1164 0.21061 0.0
H1529 H 0.5869 0.13619 0.18915 0.0
H1530 H 0.62493 0.09066 0.24914 0.0
H1531 H 0.6778 0.16618 0.24001 0.0
H1532 H 0.68506 0.20946 0.24582 0.0
H1533 H 0.65312 0.20689 0.32459 0.0
H1534 H 0.64631 0.16354 0.31943 0.0
H1535 H 0.74284 0.04916 0.27832 0.0
H1536 H 0.70514 0.06528 0.26139 0.0
H1537 H 0.69285 0.09968 0.33815 0.0
H1538 H 0.73076 0.08416 0.35492 0.0
H1539 H 0.6899 0.13069 0.29974 0.0
H1540 H 0.65667 0.05363 0.31428 0.0
H1541 H 0.65392 0.00979 0.31134 0.0
H1542 H 0.64946 0.01419 0.22486 0.0
H1543 H 0.65253 0.05807 0.22725 0.0
C1544 C 0.59046 0.16983 0.24619 0.0
C1545 C 0.58285 0.16285 0.22036 0.0
C1546 C 0.6087 0.1575 0.25942 0.0
C1547 C 0.62052 0.13841 0.24675 0.0
C1548 C 0.61262 0.13128 0.22091 0.0
C1549 C 0.59351 0.14293 0.20824 0.0
C1550 C 0.63969 0.1247 0.26108 0.0
C1551 C 0.63935 0.09956 0.25973 0.0
C1552 C 0.65803 0.13584 0.27639 0.0
C1553 C 0.66069 0.16198 0.27885 0.0
C1554 C 0.67196 0.17501 0.25832 0.0
C1555 C 0.67623 0.19945 0.26163 0.0
C1556 C 0.6692 0.21098 0.28536 0.0
C1557 C 0.6583 0.19801 0.30608 0.0
C1558 C 0.65439 0.17351 0.30304 0.0
C1559 C 0.73181 0.05965 0.29182 0.0
C1560 C 0.7399 0.06561 0.31785 0.0
C1561 C 0.7102 0.06881 0.28213 0.0
C1562 C 0.69613 0.08375 0.29847 0.0
C1563 C 0.70346 0.08834 0.3251 0.0
C1564 C 0.72514 0.07944 0.33466 0.0
C1565 C 0.67548 0.09692 0.2869 0.0
C1566 C 0.67551 0.12187 0.28896 0.0
C1567 C 0.65691 0.08555 0.27246 0.0
C1568 C 0.65504 0.05915 0.27094 0.0
C1569 C 0.6553 0.04525 0.29462 0.0
C1570 C 0.65365 0.02039 0.29305 0.0
C1571 C 0.65157 0.00921 0.26793 0.0
C1572 C 0.65109 0.02288 0.24431 0.0
C1573 C 0.65276 0.04775 0.24576 0.0
H1574 H 0.65028 0.98996 0.26676 0.0
H1575 H 0.67243 0.22991 0.2878 0.0
H1576 H 0.45998 0.75779 0.22395 0.0
H1577 H 0.44571 0.79524 0.24402 0.0
H1578 H 0.39686 0.80448 0.17748 0.0
H1579 H 0.41064 0.76723 0.15757 0.0
H1580 H 0.44054 0.8437 0.22723 0.0
H1581 H 0.34268 0.81802 0.20322 0.0
H1582 H 0.31873 0.78168 0.19559 0.0
H1583 H 0.36755 0.74105 0.24417 0.0
H1584 H 0.39149 0.77723 0.25257 0.0
H1585 H 0.32141 0.91523 0.25207 0.0
H1586 H 0.34502 0.88393 0.23027 0.0
H1587 H 0.39737 0.8888 0.29414 0.0
H1588 H 0.37415 0.92094 0.31518 0.0
H1589 H 0.35384 0.84194 0.24762 0.0
H1590 H 0.45134 0.86821 0.27274 0.0
H1591 H 0.47518 0.90469 0.28005 0.0
H1592 H 0.42692 0.94454 0.22995 0.0
H1593 H 0.40302 0.90824 0.222 0.0
C1594 C 0.4465 0.76803 0.21337 0.0
C1595 C 0.43614 0.75932 0.18941 0.0
C1596 C 0.43843 0.78943 0.22483 0.0
C1597 C 0.41997 0.80236 0.21244 0.0
C1598 C 0.41087 0.79455 0.18757 0.0
C1599 C 0.41875 0.7732 0.17626 0.0
C1600 C 0.4084 0.82264 0.22645 0.0
C1601 C 0.42169 0.84326 0.2322 0.0
C1602 C 0.38373 0.82208 0.2325 0.0
C1603 C 0.36902 0.80032 0.22828 0.0
C1604 C 0.34822 0.80137 0.21242 0.0
C1605 C 0.33465 0.78079 0.20795 0.0
C1606 C 0.34165 0.75906 0.21932 0.0
C1607 C 0.36217 0.75788 0.23532 0.0
C1608 C 0.37575 0.77842 0.23993 0.0
C1609 C 0.33804 0.90962 0.26128 0.0
C1610 C 0.34558 0.91957 0.2858 0.0
C1611 C 0.35151 0.89179 0.24887 0.0
C1612 C 0.37295 0.88386 0.26058 0.0
C1613 C 0.38105 0.8947 0.28452 0.0
C1614 C 0.3676 0.91271 0.29681 0.0
C1615 C 0.38585 0.86329 0.24852 0.0
C1616 C 0.37277 0.84247 0.24309 0.0
C1617 C 0.41067 0.86372 0.24298 0.0
C1618 C 0.42527 0.88554 0.24702 0.0
C1619 C 0.4459 0.88473 0.26317 0.0
C1620 C 0.45941 0.90538 0.26744 0.0
C1621 C 0.45252 0.92694 0.25555 0.0
C1622 C 0.43219 0.92786 0.23923 0.0
C1623 C 0.41865 0.90725 0.23484 0.0
H1624 H 0.46296 0.94292 0.25895 0.0
H1625 H 0.33114 0.74316 0.21578 0.0
H1626 H 0.73299 0.40981 0.65812 0.0
H1627 H 0.69613 0.39223 0.67526 0.0
H1628 H 0.70244 0.43418 0.74804 0.0
H1629 H 0.73899 0.45233 0.73069 0.0
H1630 H 0.69362 0.36463 0.71685 0.0
H1631 H 0.64864 0.44036 0.77892 0.0
H1632 H 0.64239 0.48387 0.77606 0.0
H1633 H 0.64948 0.48089 0.68974 0.0
H1634 H 0.65545 0.43733 0.69203 0.0
H1635 H 0.58817 0.36158 0.82396 0.0
H1636 H 0.62208 0.38104 0.80191 0.0
H1637 H 0.61757 0.32988 0.73684 0.0
H1638 H 0.58641 0.30857 0.76105 0.0
H1639 H 0.62423 0.40401 0.76005 0.0
H1640 H 0.65299 0.3259 0.70071 0.0
H1641 H 0.66306 0.28297 0.70256 0.0
H1642 H 0.69284 0.29239 0.7818 0.0
H1643 H 0.68259 0.33539 0.78029 0.0
C1644 C 0.72628 0.41568 0.67754 0.0
C1645 C 0.73902 0.43237 0.69311 0.0
C1646 C 0.7052 0.40559 0.68732 0.0
C1647 C 0.69646 0.41185 0.71294 0.0
C1648 C 0.70856 0.42932 0.72802 0.0
C1649 C 0.72954 0.43964 0.71811 0.0
C1650 C 0.67636 0.39822 0.72502 0.0
C1651 C 0.67823 0.37328 0.7259 0.0
C1652 C 0.65651 0.4094 0.73733 0.0
C1653 C 0.65271 0.43559 0.7357 0.0
C1654 C 0.64877 0.44897 0.75932 0.0
C1655 C 0.64529 0.47364 0.7578 0.0
C1656 C 0.64561 0.48514 0.73275 0.0
C1657 C 0.64933 0.47197 0.70915 0.0
C1658 C 0.6528 0.44729 0.71055 0.0
C1659 C 0.59561 0.35368 0.80588 0.0
C1660 C 0.58581 0.33272 0.79515 0.0
C1661 C 0.61461 0.36511 0.79283 0.0
C1662 C 0.6233 0.35659 0.7679 0.0
C1663 C 0.61265 0.33612 0.7567 0.0
C1664 C 0.59442 0.32414 0.77037 0.0
C1665 C 0.64183 0.37034 0.75269 0.0
C1666 C 0.63959 0.39534 0.75102 0.0
C1667 C 0.66138 0.35927 0.73948 0.0
C1668 C 0.66614 0.33341 0.74096 0.0
C1669 C 0.66132 0.31864 0.71867 0.0
C1670 C 0.66708 0.29437 0.71962 0.0
C1671 C 0.67825 0.28487 0.74248 0.0
C1672 C 0.6838 0.29968 0.76433 0.0
C1673 C 0.67777 0.3239 0.76358 0.0
H1674 H 0.68283 0.26611 0.74314 0.0
H1675 H 0.64293 0.50425 0.73162 0.0
H1676 H 0.18851 0.58559 0.23914 0.0
H1677 H 0.16618 0.61492 0.2132 0.0
H1678 H 0.11948 0.62639 0.28144 0.0
H1679 H 0.1394 0.59386 0.30533 0.0
H1680 H 0.09388 0.62696 0.24222 0.0
H1681 H 0.16798 0.6811 0.24989 0.0
H1682 H 0.21166 0.68709 0.24557 0.0
H1683 H 0.21037 0.65331 0.1677 0.0
H1684 H 0.16674 0.64754 0.17166 0.0
H1685 H 0.05115 0.7438 0.21698 0.0
H1686 H 0.06863 0.70616 0.23192 0.0
H1687 H 0.10011 0.69614 0.15317 0.0
H1688 H 0.08308 0.73401 0.13822 0.0
H1689 H 0.13271 0.69185 0.19027 0.0
H1690 H 0.05577 0.65861 0.17721 0.0
H1691 H 0.01198 0.65555 0.18076 0.0
H1692 H 0.01742 0.65019 0.26709 0.0
H1693 H 0.06123 0.65358 0.26412 0.0
C1694 C 0.17367 0.5947 0.24868 0.0
C1695 C 0.16654 0.58853 0.27495 0.0
C1696 C 0.16112 0.61192 0.23397 0.0
C1697 C 0.14167 0.62408 0.24554 0.0
C1698 C 0.13458 0.61773 0.2719 0.0
C1699 C 0.14638 0.5996 0.28602 0.0
C1700 C 0.12761 0.64212 0.22987 0.0
C1701 C 0.10249 0.64133 0.23126 0.0
C1702 C 0.13841 0.66021 0.21393 0.0
C1703 C 0.16452 0.66309 0.21162 0.0
C1704 C 0.17726 0.67456 0.23221 0.0
C1705 C 0.20188 0.67812 0.22968 0.0
C1706 C 0.21385 0.67022 0.20657 0.0
C1707 C 0.20113 0.65921 0.18571 0.0
C1708 C 0.17646 0.65593 0.18802 0.0
C1709 C 0.06132 0.73335 0.20262 0.0
C1710 C 0.0659 0.74207 0.17648 0.0
C1711 C 0.07127 0.71174 0.21118 0.0
C1712 C 0.08569 0.69825 0.19367 0.0
C1713 C 0.08915 0.70627 0.16708 0.0
C1714 C 0.07936 0.72794 0.15857 0.0
C1715 C 0.09922 0.67732 0.20399 0.0
C1716 C 0.12414 0.67743 0.20126 0.0
C1717 C 0.08819 0.65862 0.21853 0.0
C1718 C 0.06181 0.65652 0.22044 0.0
C1719 C 0.04763 0.65696 0.19698 0.0
C1720 C 0.0228 0.65514 0.19889 0.0
C1721 C 0.01192 0.65272 0.22414 0.0
C1722 C 0.02586 0.65208 0.24754 0.0
C1723 C 0.05071 0.65391 0.24575 0.0
H1724 H 0.99269 0.65131 0.22557 0.0
H1725 H 0.23293 0.67282 0.20472 0.0
H1726 H 0.91453 0.18761 0.74935 0.0
H1727 H 0.88306 0.16487 0.7275 0.0
H1728 H 0.87773 0.11946 0.79778 0.0
H1729 H 0.912 0.14013 0.81766 0.0
H1730 H 0.8744 0.09299 0.75919 0.0
H1731 H 0.81933 0.16437 0.77126 0.0
H1732 H 0.80973 0.20746 0.76835 0.0
H1733 H 0.83788 0.20966 0.6877 0.0
H1734 H 0.84722 0.1666 0.69022 0.0
H1735 H 0.75754 0.04748 0.7282 0.0
H1736 H 0.7948 0.06413 0.7459 0.0
H1737 H 0.80727 0.09952 0.66975 0.0
H1738 H 0.76987 0.08345 0.65225 0.0
H1739 H 0.80753 0.13035 0.70913 0.0
H1740 H 0.84461 0.0548 0.69389 0.0
H1741 H 0.84917 0.0111 0.69675 0.0
H1742 H 0.85269 0.01545 0.78328 0.0
H1743 H 0.8478 0.05916 0.78098 0.0
C1744 C 0.90629 0.17303 0.76031 0.0
C1745 C 0.91479 0.16643 0.7859 0.0
C1746 C 0.88787 0.16022 0.74796 0.0
C1747 C 0.87688 0.14096 0.76128 0.0
C1748 C 0.88545 0.13443 0.78703 0.0
C1749 C 0.90466 0.14661 0.79882 0.0
C1750 C 0.85807 0.12637 0.74751 0.0
C1751 C 0.85957 0.10127 0.74868 0.0
C1752 C 0.8391 0.13675 0.73259 0.0
C1753 C 0.83482 0.16272 0.73142 0.0
C1754 C 0.82393 0.17431 0.75325 0.0
C1755 C 0.81828 0.19858 0.75152 0.0
C1756 C 0.82356 0.21138 0.72802 0.0
C1757 C 0.83406 0.19981 0.70601 0.0
C1758 C 0.8394 0.17547 0.70753 0.0
C1759 C 0.7686 0.05821 0.71498 0.0
C1760 C 0.76067 0.06438 0.68894 0.0
C1761 C 0.78994 0.06771 0.72511 0.0
C1762 C 0.80382 0.08319 0.7092 0.0
C1763 C 0.79679 0.08778 0.68248 0.0
C1764 C 0.77541 0.07855 0.67248 0.0
C1765 C 0.82366 0.09716 0.72133 0.0
C1766 C 0.82237 0.1221 0.71971 0.0
C1767 C 0.84265 0.08655 0.73582 0.0
C1768 C 0.84562 0.06026 0.73726 0.0
C1769 C 0.84615 0.04643 0.71355 0.0
C1770 C 0.84884 0.02165 0.71506 0.0
C1771 C 0.85117 0.0105 0.74018 0.0
C1772 C 0.85086 0.02411 0.76383 0.0
C1773 C 0.84816 0.04889 0.76243 0.0
H1774 H 0.85325 0.99132 0.74131 0.0
H1775 H 0.81927 0.23018 0.72677 0.0
H1776 H 0.4849 0.19938 0.1132 0.0
H1777 H 0.46892 0.21563 0.07059 0.0
H1778 H 0.52711 0.266 0.06743 0.0
H1779 H 0.54329 0.24962 0.10925 0.0
H1780 H 0.48148 0.28529 0.05141 0.0
H1781 H 0.53424 0.21607 0.03687 0.0
H1782 H 0.54436 0.1736 0.04339 0.0
H1783 H 0.47731 0.15307 0.00826 0.0
H1784 H 0.46663 0.1955 0.00201 0.0
H1785 H 0.53917 0.31373 0.93363 0.0
H1786 H 0.52262 0.30097 0.97662 0.0
H1787 H 0.47066 0.25759 0.93499 0.0
H1788 H 0.48735 0.27047 0.89136 0.0
H1789 H 0.49559 0.23229 0.97269 0.0
H1790 H 0.45062 0.30311 0.97335 0.0
H1791 H 0.44186 0.34584 0.96691 0.0
H1792 H 0.49352 0.36401 0.02762 0.0
H1793 H 0.50289 0.32143 0.03417 0.0
C1794 C 0.49395 0.21421 0.10358 0.0
C1795 C 0.51542 0.22314 0.11426 0.0
C1796 C 0.48483 0.22345 0.07935 0.0
C1797 C 0.49686 0.24201 0.06596 0.0
C1798 C 0.51749 0.25179 0.07755 0.0
C1799 C 0.52682 0.24229 0.1013 0.0
C1800 C 0.49009 0.2497 0.0384 0.0
C1801 C 0.48422 0.27373 0.03411 0.0
C1802 C 0.49291 0.23433 0.01597 0.0
C1803 C 0.49951 0.2089 0.01931 0.0
C1804 C 0.52159 0.20249 0.03073 0.0
C1805 C 0.52743 0.17844 0.03436 0.0
C1806 C 0.51145 0.16065 0.02632 0.0
C1807 C 0.48964 0.16688 0.01455 0.0
C1808 C 0.48367 0.19092 0.01098 0.0
C1809 C 0.52391 0.30185 0.93352 0.0
C1810 C 0.51464 0.293 0.90913 0.0
C1811 C 0.51431 0.2947 0.95816 0.0
C1812 C 0.49523 0.27848 0.95906 0.0
C1813 C 0.48526 0.27026 0.93472 0.0
C1814 C 0.49475 0.27768 0.90987 0.0
C1815 C 0.48814 0.26831 0.98555 0.0
C1816 C 0.49159 0.24376 0.98976 0.0
C1817 C 0.48306 0.28325 0.00789 0.0
C1818 C 0.47745 0.30899 0.00425 0.0
C1819 C 0.46021 0.3162 0.98525 0.0
C1820 C 0.45513 0.34042 0.98158 0.0
C1821 C 0.46712 0.35763 0.99685 0.0
C1822 C 0.48421 0.35066 0.01584 0.0
C1823 C 0.48937 0.32646 0.01959 0.0
H1824 H 0.46317 0.37637 0.99397 0.0
H1825 H 0.51601 0.14204 0.02914 0.0
H1826 H 0.22287 0.49379 0.37991 0.0
H1827 H 0.2372 0.48016 0.42424 0.0
H1828 H 0.20469 0.54156 0.46181 0.0
H1829 H 0.19072 0.55534 0.41796 0.0
H1830 H 0.25055 0.53836 0.47491 0.0
H1831 H 0.18274 0.48513 0.47099 0.0
H1832 H 0.15779 0.4535 0.45088 0.0
H1833 H 0.21656 0.40444 0.45524 0.0
H1834 H 0.24197 0.4359 0.47505 0.0
H1835 H 0.24536 0.50004 0.61588 0.0
H1836 H 0.22959 0.49091 0.5708 0.0
H1837 H 0.30097 0.49336 0.53828 0.0
H1838 H 0.31663 0.50283 0.58316 0.0
H1839 H 0.23718 0.4612 0.52191 0.0
H1840 H 0.29976 0.53672 0.49297 0.0
H1841 H 0.32394 0.56782 0.51542 0.0
H1842 H 0.27167 0.57343 0.57855 0.0
H1843 H 0.24705 0.54266 0.55624 0.0
C1844 C 0.21838 0.50408 0.39772 0.0
C1845 C 0.20592 0.52579 0.39538 0.0
C1846 C 0.22658 0.49628 0.42302 0.0
C1847 C 0.22218 0.50996 0.44631 0.0
C1848 C 0.20853 0.53086 0.4441 0.0
C1849 C 0.20053 0.5387 0.41897 0.0
C1850 C 0.23329 0.50397 0.47271 0.0
C1851 C 0.24763 0.52141 0.48502 0.0
C1852 C 0.22963 0.48186 0.48599 0.0
C1853 C 0.21432 0.46294 0.47423 0.0
C1854 C 0.1904 0.46765 0.46745 0.0
C1855 C 0.17616 0.44975 0.45615 0.0
C1856 C 0.1856 0.427 0.45171 0.0
C1857 C 0.20928 0.42209 0.45865 0.0
C1858 C 0.2236 0.43994 0.46993 0.0
C1859 C 0.25773 0.49735 0.59932 0.0
C1860 C 0.28213 0.50213 0.60276 0.0
C1861 C 0.24874 0.49211 0.57361 0.0
C1862 C 0.2641 0.49176 0.5512 0.0
C1863 C 0.28884 0.4936 0.55533 0.0
C1864 C 0.29777 0.49904 0.58093 0.0
C1865 C 0.25418 0.49562 0.5238 0.0
C1866 C 0.2402 0.47793 0.51144 0.0
C1867 C 0.25783 0.51765 0.51045 0.0
C1868 C 0.2717 0.53729 0.52304 0.0
C1869 C 0.29334 0.54477 0.5115 0.0
C1870 C 0.30714 0.5623 0.52422 0.0
C1871 C 0.29937 0.57255 0.54843 0.0
C1872 C 0.27768 0.56546 0.55982 0.0
C1873 C 0.2638 0.548 0.54714 0.0
H1874 H 0.31015 0.58599 0.55834 0.0
H1875 H 0.17455 0.41316 0.44295 0.0
H1876 H 0.96465 0.254 0.09157 0.0
H1877 H 0.98287 0.23943 0.05014 0.0
H1878 H 0.03517 0.29591 0.0537 0.0
H1879 H 0.01693 0.31047 0.0961 0.0
H1880 H 0.00971 0.29273 0.00395 0.0
H1881 H 0.05688 0.24207 0.05757 0.0
H1882 H 0.06656 0.21485 0.09513 0.0
H1883 H 0.01699 0.16319 0.06416 0.0
H1884 H 0.00671 0.1902 0.02664 0.0
H1885 H 0.01529 0.23373 0.87491 0.0
H1886 H 0.0335 0.24822 0.9171 0.0
H1887 H 0.98157 0.20842 0.96309 0.0
H1888 H 0.96335 0.19423 0.92147 0.0
H1889 H 0.02705 0.20728 0.98634 0.0
H1890 H 0.97053 0.26513 0.94635 0.0
H1891 H 0.95803 0.29234 0.90977 0.0
H1892 H 0.02444 0.33023 0.91628 0.0
H1893 H 0.03744 0.30299 0.95268 0.0
C1894 C 0.98031 0.26307 0.08382 0.0
C1895 C 0.98939 0.28335 0.09687 0.0
C1896 C 0.99082 0.25464 0.06025 0.0
C1897 C 0.01053 0.26643 0.04898 0.0
C1898 C 0.02011 0.28644 0.06227 0.0
C1899 C 0.00977 0.29468 0.0864 0.0
C1900 C 0.01878 0.25887 0.02185 0.0
C1901 C 0.01449 0.27428 4e-05 0.0
C1902 C 0.02487 0.23477 0.01677 0.0
C1903 C 0.03106 0.21822 0.03919 0.0
C1904 C 0.04796 0.22495 0.0588 0.0
C1905 C 0.05356 0.20954 0.0801 0.0
C1906 C 0.04241 0.1873 0.08201 0.0
C1907 C 0.02566 0.1804 0.06261 0.0
C1908 C 0.01998 0.19574 0.04127 0.0
C1909 C 0.00815 0.22772 0.89407 0.0
C1910 C 0.98776 0.21306 0.89494 0.0
C1911 C 0.01853 0.23601 0.9181 0.0
C1912 C 0.00882 0.22944 0.9432 0.0
C1913 C 0.98943 0.21362 0.94397 0.0
C1914 C 0.97891 0.20566 0.92013 0.0
C1915 C 0.01654 0.2408 0.96879 0.0
C1916 C 0.02367 0.22604 0.99022 0.0
C1917 C 0.01297 0.26545 0.97356 0.0
C1918 C 0.00507 0.28188 0.95191 0.0
C1919 C 0.98251 0.27917 0.93982 0.0
C1920 C 0.97533 0.2946 0.91916 0.0
C1921 C 0.99047 0.31295 0.91064 0.0
C1922 C 0.01277 0.31596 0.92284 0.0
C1923 C 0.02006 0.30053 0.94347 0.0
H1924 H 0.98488 0.32488 0.89464 0.0
H1925 H 0.04676 0.1754 0.09853 0.0
H1926 H 0.27243 0.00439 0.38634 0.0
H1927 H 0.25463 0.01683 0.4294 0.0
H1928 H 0.28395 0.95432 0.46804 0.0
H1929 H 0.30137 0.94166 0.4254 0.0
H1930 H 0.23794 0.95812 0.47841 0.0
H1931 H 0.30652 0.01013 0.4795 0.0
H1932 H 0.33317 0.04143 0.46166 0.0
H1933 H 0.27531 0.09169 0.46263 0.0
H1934 H 0.24821 0.06058 0.48014 0.0
H1935 H 0.24295 0.9967 0.61955 0.0
H1936 H 0.25757 0.00712 0.57443 0.0
H1937 H 0.18621 0.9998 0.54268 0.0
H1938 H 0.17183 0.98842 0.58754 0.0
H1939 H 0.25047 0.03459 0.52712 0.0
H1940 H 0.18833 0.9591 0.49515 0.0
H1941 H 0.1642 0.92733 0.51645 0.0
H1942 H 0.21546 0.92147 0.58064 0.0
H1943 H 0.24 0.95296 0.55952 0.0
C1944 C 0.27531 0.99348 0.40411 0.0
C1945 C 0.28808 0.97189 0.40236 0.0
C1946 C 0.26516 0.00063 0.42869 0.0
C1947 C 0.26787 0.98643 0.45189 0.0
C1948 C 0.28142 0.96543 0.45034 0.0
C1949 C 0.29139 0.95822 0.42589 0.0
C1950 C 0.25556 0.99235 0.47754 0.0
C1951 C 0.24058 0.97495 0.48887 0.0
C1952 C 0.25901 0.01426 0.4913 0.0
C1953 C 0.27528 0.03296 0.48082 0.0
C1954 C 0.29943 0.0278 0.47568 0.0
C1955 C 0.31462 0.04552 0.46568 0.0
C1956 C 0.30592 0.06852 0.46093 0.0
C1957 C 0.28201 0.07386 0.46626 0.0
C1958 C 0.26673 0.0562 0.47624 0.0
C1959 C 0.23025 0.99852 0.60316 0.0
C1960 C 0.20639 0.99162 0.60671 0.0
C1961 C 0.23858 0.00451 0.57741 0.0
C1962 C 0.22304 0.00371 0.55517 0.0
C1963 C 0.19851 0.00025 0.55958 0.0
C1964 C 0.1903 0.99377 0.58516 0.0
C1965 C 0.23305 0.00033 0.52775 0.0
C1966 C 0.24754 0.01805 0.51622 0.0
C1967 C 0.22969 0.97846 0.51394 0.0
C1968 C 0.21584 0.95848 0.52588 0.0
C1969 C 0.19452 0.95086 0.51368 0.0
C1970 C 0.18076 0.93295 0.52575 0.0
C1971 C 0.18825 0.92245 0.54994 0.0
C1972 C 0.20965 0.92965 0.56195 0.0
C1973 C 0.2235 0.9475 0.54992 0.0
H1974 H 0.17749 0.90872 0.55936 0.0
H1975 H 0.31772 0.08221 0.4532 0.0
H1976 H 0.51531 0.76762 0.87478 0.0
H1977 H 0.53202 0.75385 0.91804 0.0
H1978 H 0.4774 0.79287 0.96078 0.0
H1979 H 0.46089 0.8066 0.91815 0.0
H1980 H 0.51905 0.7943 0.98812 0.0
H1981 H 0.46904 0.73466 0.94213 0.0
H1982 H 0.45987 0.70759 0.90419 0.0
H1983 H 0.52741 0.67255 0.91482 0.0
H1984 H 0.53708 0.69966 0.95264 0.0
H1985 H 0.4518 0.73412 0.08353 0.0
H1986 H 0.46883 0.7491 0.04158 0.0
H1987 H 0.5353 0.71361 0.05928 0.0
H1988 H 0.51841 0.69885 0.10223 0.0
H1989 H 0.50645 0.70747 0.00182 0.0
H1990 H 0.54761 0.76173 0.0598 0.0
H1991 H 0.55163 0.78872 0.09889 0.0
H1992 H 0.4968 0.83405 0.06656 0.0
H1993 H 0.49217 0.80712 0.0275 0.0
C1994 C 0.50732 0.77372 0.89347 0.0
C1995 C 0.48661 0.78792 0.89311 0.0
C1996 C 0.51682 0.76579 0.91813 0.0
C1997 C 0.50581 0.77214 0.94263 0.0
C1998 C 0.48625 0.78776 0.94219 0.0
C1999 C 0.4767 0.79546 0.91774 0.0
C2000 C 0.51221 0.76061 0.96864 0.0
C2001 C 0.5168 0.77524 0.99109 0.0
C2002 C 0.50976 0.73567 0.97247 0.0
C2003 C 0.50391 0.71935 0.9499 0.0
C2004 C 0.48199 0.72128 0.93623 0.0
C2005 C 0.47669 0.70593 0.91478 0.0
C2006 C 0.49309 0.68842 0.90703 0.0
C2007 C 0.51477 0.68617 0.92079 0.0
C2008 C 0.52017 0.70153 0.94222 0.0
C2009 C 0.47007 0.72948 0.07863 0.0
C2010 C 0.48374 0.71521 0.09611 0.0
C2011 C 0.47979 0.73815 0.0547 0.0
C2012 C 0.50328 0.73249 0.04747 0.0
C2013 C 0.51714 0.7182 0.06469 0.0
C2014 C 0.50751 0.70985 0.08913 0.0
C2015 C 0.51231 0.74132 0.02126 0.0
C2016 C 0.51024 0.72627 0.99875 0.0
C2017 C 0.51672 0.76591 0.01741 0.0
C2018 C 0.51951 0.78234 0.04074 0.0
C2019 C 0.53628 0.77736 0.06112 0.0
C2020 C 0.53869 0.79267 0.08326 0.0
C2021 C 0.52447 0.81308 0.08521 0.0
C2022 C 0.50783 0.81824 0.06501 0.0
C2023 C 0.50534 0.80298 0.04283 0.0
H2024 H 0.52636 0.82491 0.10237 0.0
H2025 H 0.48896 0.67654 0.89043 0.0
H2026 H 0.81107 0.45945 0.57988 0.0
H2027 H 0.79833 0.4754 0.53653 0.0
H2028 H 0.75445 0.52755 0.57706 0.0
H2029 H 0.76726 0.51157 0.621 0.0
H2030 H 0.72988 0.50213 0.53824 0.0
H2031 H 0.8006 0.54767 0.5413 0.0
H2032 H 0.84316 0.5562 0.54946 0.0
H2033 H 0.86289 0.5058 0.48806 0.0
H2034 H 0.82048 0.49667 0.47978 0.0
H2035 H 0.69934 0.51588 0.39804 0.0
H2036 H 0.71508 0.53144 0.44114 0.0
H2037 H 0.76658 0.4742 0.44331 0.0
H2038 H 0.75064 0.45846 0.40103 0.0
H2039 H 0.78481 0.51899 0.46192 0.0
H2040 H 0.71591 0.46518 0.47224 0.0
H2041 H 0.67378 0.45466 0.46388 0.0
H2042 H 0.65135 0.52043 0.50053 0.0
H2043 H 0.69344 0.5315 0.50866 0.0
C2044 C 0.79895 0.47453 0.57969 0.0
C2045 C 0.79007 0.48416 0.6039 0.0
C2046 C 0.79184 0.48377 0.55484 0.0
C2047 C 0.77564 0.50284 0.55356 0.0
C2048 C 0.76711 0.51295 0.57765 0.0
C2049 C 0.77448 0.50384 0.60269 0.0
C2050 C 0.76615 0.51019 0.52686 0.0
C2051 C 0.74175 0.5067 0.52171 0.0
C2052 C 0.78166 0.51598 0.50524 0.0
C2053 C 0.80728 0.52147 0.50994 0.0
C2054 C 0.814 0.5383 0.52962 0.0
C2055 C 0.83812 0.54326 0.53426 0.0
C2056 C 0.85572 0.53156 0.51929 0.0
C2057 C 0.84924 0.51489 0.49961 0.0
C2058 C 0.82514 0.50985 0.49489 0.0
C2059 C 0.71439 0.50708 0.40751 0.0
C2060 C 0.72375 0.48594 0.39653 0.0
C2061 C 0.72333 0.51593 0.43201 0.0
C2062 C 0.74197 0.50393 0.44533 0.0
C2063 C 0.75231 0.4838 0.43326 0.0
C2064 C 0.74311 0.47474 0.40925 0.0
C2065 C 0.74891 0.50987 0.47337 0.0
C2066 C 0.77281 0.51567 0.4787 0.0
C2067 C 0.73301 0.50614 0.49516 0.0
C2068 C 0.70776 0.49931 0.49072 0.0
C2069 C 0.70198 0.47747 0.47833 0.0
C2070 C 0.67813 0.4714 0.47365 0.0
C2071 C 0.6599 0.48691 0.48159 0.0
C2072 C 0.6655 0.50847 0.49432 0.0
C2073 C 0.68934 0.51466 0.49895 0.0
H2074 H 0.64144 0.48218 0.47795 0.0
H2075 H 0.87438 0.53541 0.52292 0.0
H2076 H 0.98756 0.76722 0.12099 0.0
H2077 H 0.97067 0.74843 0.08048 0.0
H2078 H 0.00341 0.80254 0.03081 0.0
H2079 H 0.0207 0.82101 0.071 0.0
H2080 H 0.95736 0.78321 0.01043 0.0
H2081 H 0.03688 0.75915 0.04508 0.0
H2082 H 0.06211 0.7442 0.08231 0.0
H2083 H 0.01805 0.68171 0.08885 0.0
H2084 H 0.99231 0.69658 0.05197 0.0
H2085 H 0.01164 0.74774 0.89037 0.0
H2086 H 0.99547 0.7624 0.93306 0.0
H2087 H 0.98596 0.68977 0.96042 0.0
H2088 H 0.00332 0.67525 0.91795 0.0
H2089 H 0.00854 0.71201 0.99624 0.0
H2090 H 0.93707 0.73035 0.95085 0.0
H2091 H 0.91064 0.74543 0.91488 0.0
H2092 H 0.93587 0.81675 0.92876 0.0
H2093 H 0.96273 0.80209 0.96455 0.0
C2094 C 0.99029 0.77563 0.10152 0.0
C2095 C 0.00563 0.79535 0.09897 0.0
C2096 C 0.98064 0.76491 0.07844 0.0
C2097 C 0.98597 0.77405 0.05272 0.0
C2098 C 0.99902 0.79531 0.0505 0.0
C2099 C 0.00901 0.80574 0.07344 0.0
C2100 C 0.98282 0.75923 0.02827 0.0
C2101 C 0.9683 0.7675 0.00719 0.0
C2102 C 0.99662 0.73837 0.02455 0.0
C2103 C 0.01256 0.72907 0.04602 0.0
C2104 C 0.03253 0.74228 0.05456 0.0
C2105 C 0.04691 0.73384 0.0756 0.0
C2106 C 0.04165 0.71204 0.08798 0.0
C2107 C 0.02207 0.69861 0.07927 0.0
C2108 C 0.00758 0.70704 0.05833 0.0
C2109 C 0.00539 0.73499 0.90525 0.0
C2110 C 0.00842 0.71047 0.90104 0.0
C2111 C 0.99599 0.74333 0.9296 0.0
C2112 C 0.98911 0.72722 0.94999 0.0
C2113 C 0.99101 0.70257 0.94504 0.0
C2114 C 0.0008 0.69426 0.9208 0.0
C2115 C 0.98349 0.73626 0.97755 0.0
C2116 C 0.99666 0.72705 0.99936 0.0
C2117 C 0.96817 0.75604 0.9819 0.0
C2118 C 0.95201 0.76507 0.96038 0.0
C2119 C 0.93711 0.74923 0.94614 0.0
C2120 C 0.92203 0.75771 0.92578 0.0
C2121 C 0.92159 0.78203 0.91953 0.0
C2122 C 0.93621 0.79792 0.93365 0.0
C2123 C 0.95134 0.78954 0.95402 0.0
H2124 H 0.9099 0.78855 0.90375 0.0
H2125 H 0.05278 0.70554 0.10429 0.0
H2126 H 0.71483 0.98556 0.61649 0.0
H2127 H 0.72943 0.96959 0.57337 0.0
H2128 H 0.7097 0.03534 0.53377 0.0
H2129 H 0.69453 0.05094 0.57605 0.0
H2130 H 0.70287 0.00034 0.50035 0.0
H2131 H 0.767 0.02527 0.56168 0.0
H2132 H 0.7902 0.02261 0.60398 0.0
H2133 H 0.80579 0.94897 0.58755 0.0
H2134 H 0.78244 0.95117 0.54528 0.0
H2135 H 0.81207 0.04064 0.43012 0.0
H2136 H 0.79431 0.02536 0.47144 0.0
H2137 H 0.75699 0.97139 0.42576 0.0
H2138 H 0.77463 0.98695 0.38389 0.0
H2139 H 0.79021 0.98564 0.50082 0.0
H2140 H 0.69958 0.97031 0.45128 0.0
H2141 H 0.67783 0.98043 0.40938 0.0
H2142 H 0.71739 0.04586 0.40284 0.0
H2143 H 0.73908 0.03625 0.44487 0.0
C2144 C 0.71311 0.99636 0.59844 0.0
C2145 C 0.70392 0.01971 0.59986 0.0
C2146 C 0.72154 0.98724 0.57383 0.0
C2147 C 0.72105 0.00141 0.55037 0.0
C2148 C 0.71032 0.02401 0.55151 0.0
C2149 C 0.70183 0.03303 0.57588 0.0
C2150 C 0.73386 0.99443 0.52529 0.0
C2151 C 0.72186 0.99652 0.50047 0.0
C2152 C 0.75869 0.98959 0.5253 0.0
C2153 C 0.77276 0.98829 0.55058 0.0
C2154 C 0.77527 0.00849 0.5672 0.0
C2155 C 0.78845 0.00707 0.59114 0.0
C2156 C 0.79939 0.98561 0.59849 0.0
C2157 C 0.79725 0.96555 0.58187 0.0
C2158 C 0.78404 0.96687 0.55793 0.0
C2159 C 0.80052 0.02516 0.42886 0.0
C2160 C 0.7944 0.01527 0.40371 0.0
C2161 C 0.7905 0.01631 0.45258 0.0
C2162 C 0.77404 0.99746 0.45168 0.0
C2163 C 0.7695 0.98611 0.42686 0.0
C2164 C 0.77964 0.99496 0.40298 0.0
C2165 C 0.75937 0.99259 0.47604 0.0
C2166 C 0.77101 0.98823 0.50067 0.0
C2167 C 0.73435 0.99623 0.47593 0.0
C2168 C 0.72115 0.00238 0.45094 0.0
C2169 C 0.70357 0.98686 0.44089 0.0
C2170 C 0.69126 0.99252 0.41715 0.0
C2171 C 0.6963 0.01373 0.4034 0.0
C2172 C 0.71356 0.0294 0.41345 0.0
C2173 C 0.72586 0.02386 0.43723 0.0
H2174 H 0.68679 0.01804 0.38499 0.0
H2175 H 0.80959 0.98454 0.61703 0.0
loop_
_geom_bond_atom_site_label_1
_geom_bond_atom_site_label_2
_geom_bond_distance
_geom_bond_site_symmetry_2
_ccdc_geom_bond_type
Mn0 O5 2.095 . S
Mn0 O15 2.162 . S
Mn0 O16 2.297 . S
Mn0 O24 2.385 . S
Mn0 O25 2.209 . S
Mn0 O26 2.094 . S
Mn1 O6 2.121 . S
Mn1 N8 2.257 . S
Mn1 N17 2.282 . S
Mn1 O25 2.215 . S
Mn1 O27 2.117 . S
C2 O24 1.234 . S
C2 O25 1.283 . S
C3 O15 1.281 . S
C3 O16 1.236 . S
C4 O26 1.240 . S
C4 O27 1.264 . S
O5 Mn0 2.095 . S
O5 C14 1.250 . S
O6 Mn1 2.121 . S
O6 C14 1.258 . S
C7 N8 1.326 . S
C7 C11 1.460 . S
C7 H13 0.929 . S
N8 Mn1 2.257 . S
N8 C7 1.326 . S
N8 C12 1.362 . S
C9 C10 1.258 . S
C9 C12 1.431 . S
C9 C29 1.449 . S
C10 C9 1.258 . S
C10 C11 1.477 . S
C10 H30 0.931 . S
C11 C7 1.460 . S
C11 C10 1.477 . S
C11 H31 0.930 . S
C12 N8 1.362 . S
C12 C9 1.431 . S
C12 C22 1.476 . S
H13 C7 0.929 . S
C14 O5 1.250 . S
C14 O6 1.258 . S
O15 Mn0 2.162 . S
O15 C3 1.281 . S
O16 Mn0 2.297 . S
O16 C3 1.236 . S
N17 Mn1 2.282 . S
N17 C18 1.328 . S
N17 C22 1.318 . S
C18 N17 1.328 . S
C18 C19 1.457 . S
C18 H23 0.929 . S
C19 C18 1.457 . S
C19 C20 1.291 . S
C19 H32 0.931 . S
C20 C19 1.291 . S
C20 C21 1.373 . S
C20 H33 0.929 . S
C21 C20 1.373 . S
C21 C22 1.396 . S
C21 C28 1.403 . S
C22 C12 1.476 . S
C22 N17 1.318 . S
C22 C21 1.396 . S
H23 C18 0.929 . S
O24 Mn0 2.385 . S
O24 C2 1.234 . S
O25 Mn0 2.209 . S
O25 Mn1 2.215 . S
O25 C2 1.283 . S
O26 Mn0 2.094 . S
O26 C4 1.240 . S
O27 Mn1 2.117 . S
O27 C4 1.264 . S
C28 C21 1.403 . S
C28 C29 1.399 . S
C28 H34 0.929 . S
C29 C9 1.449 . S
C29 C28 1.399 . S
C29 H35 0.930 . S
H30 C10 0.931 . S
H31 C11 0.930 . S
H32 C19 0.931 . S
H33 C20 0.929 . S
H34 C28 0.929 . S
H35 C29 0.930 . S
Mn36 O41 2.095 . S
Mn36 O51 2.162 . S
Mn36 O52 2.297 . S
Mn36 O60 2.385 . S
Mn36 O61 2.209 . S
Mn36 O62 2.094 . S
Mn37 O42 2.121 . S
Mn37 N44 2.257 . S
Mn37 N53 2.282 . S
Mn37 O61 2.215 . S
Mn37 O63 2.117 . S
C38 O60 1.234 . S
C38 O61 1.283 . S
C39 O51 1.281 . S
C39 O52 1.236 . S
C40 O62 1.240 . S
C40 O63 1.264 . S
O41 Mn36 2.095 . S
O41 C50 1.250 . S
O42 Mn37 2.121 . S
O42 C50 1.258 . S
C43 N44 1.326 . S
C43 C47 1.460 . S
C43 H49 0.929 . S
N44 Mn37 2.257 . S
N44 C43 1.326 . S
N44 C48 1.362 . S
C45 C46 1.258 . S
C45 C48 1.431 . S
C45 C65 1.449 . S
C46 C45 1.258 . S
C46 C47 1.477 . S
C46 H66 0.931 . S
C47 C43 1.460 . S
C47 C46 1.477 . S
C47 H67 0.930 . S
C48 N44 1.362 . S
C48 C45 1.431 . S
C48 C58 1.476 . S
H49 C43 0.929 . S
C50 O41 1.250 . S
C50 O42 1.258 . S
O51 Mn36 2.162 . S
O51 C39 1.281 . S
O52 Mn36 2.297 . S
O52 C39 1.236 . S
N53 Mn37 2.282 . S
N53 C54 1.328 . S
N53 C58 1.318 . S
C54 N53 1.328 . S
C54 C55 1.457 . S
C54 H59 0.929 . S
C55 C54 1.457 . S
C55 C56 1.291 . S
C55 H68 0.931 . S
C56 C55 1.291 . S
C56 C57 1.373 . S
C56 H69 0.929 . S
C57 C56 1.373 . S
C57 C58 1.396 . S
C57 C64 1.403 . S
C58 C48 1.476 . S
C58 N53 1.318 . S
C58 C57 1.396 . S
H59 C54 0.929 . S
O60 Mn36 2.385 . S
O60 C38 1.234 . S
O61 Mn36 2.209 . S
O61 Mn37 2.215 . S
O61 C38 1.283 . S
O62 Mn36 2.094 . S
O62 C40 1.240 . S
O63 Mn37 2.117 . S
O63 C40 1.264 . S
C64 C57 1.403 . S
C64 C65 1.399 . S
C64 H70 0.929 . S
C65 C45 1.449 . S
C65 C64 1.399 . S
C65 H71 0.930 . S
H66 C46 0.931 . S
H67 C47 0.930 . S
H68 C55 0.931 . S
H69 C56 0.929 . S
H70 C64 0.929 . S
H71 C65 0.930 . S
Mn72 O77 2.095 . S
Mn72 O87 2.162 1_655 S
Mn72 O88 2.297 1_655 S
Mn72 O96 2.385 . S
Mn72 O97 2.209 . S
Mn72 O98 2.094 . S
Mn73 O78 2.121 . S
Mn73 N80 2.257 . S
Mn73 N89 2.282 . S
Mn73 O97 2.215 . S
Mn73 O99 2.117 . S
C74 O96 1.234 . S
C74 O97 1.283 . S
C75 O87 1.281 . S
C75 O88 1.236 . S
C76 O98 1.240 . S
C76 O99 1.264 . S
O77 Mn72 2.095 . S
O77 C86 1.250 . S
O78 Mn73 2.121 . S
O78 C86 1.258 . S
C79 N80 1.326 . S
C79 C83 1.460 . S
C79 H85 0.929 . S
N80 Mn73 2.257 . S
N80 C79 1.326 . S
N80 C84 1.362 . S
C81 C82 1.258 . S
C81 C84 1.431 . S
C81 C101 1.449 . S
C82 C81 1.258 . S
C82 C83 1.477 . S
C82 H102 0.931 . S
C83 C79 1.460 . S
C83 C82 1.477 . S
C83 H103 0.930 . S
C84 N80 1.362 . S
C84 C81 1.431 . S
C84 C94 1.476 . S
H85 C79 0.929 . S
C86 O77 1.250 . S
C86 O78 1.258 . S
O87 Mn72 2.162 1_455 S
O87 C75 1.281 . S
O88 Mn72 2.297 1_455 S
O88 C75 1.236 . S
N89 Mn73 2.282 . S
N89 C90 1.328 . S
N89 C94 1.318 . S
C90 N89 1.328 . S
C90 C91 1.457 . S
C90 H95 0.929 . S
C91 C90 1.457 . S
C91 C92 1.291 . S
C91 H104 0.931 . S
C92 C91 1.291 . S
C92 C93 1.373 . S
C92 H105 0.929 . S
C93 C92 1.373 . S
C93 C94 1.396 . S
C93 C100 1.403 . S
C94 C84 1.476 . S
C94 N89 1.318 . S
C94 C93 1.396 . S
H95 C90 0.929 . S
O96 Mn72 2.385 . S
O96 C74 1.234 . S
O97 Mn72 2.209 . S
O97 Mn73 2.215 . S
O97 C74 1.283 . S
O98 Mn72 2.094 . S
O98 C76 1.240 . S
O99 Mn73 2.117 . S
O99 C76 1.264 . S
C100 C93 1.403 . S
C100 C101 1.399 . S
C100 H106 0.929 . S
C101 C81 1.449 . S
C101 C100 1.399 . S
C101 H107 0.930 . S
H102 C82 0.931 . S
H103 C83 0.930 . S
H104 C91 0.931 . S
H105 C92 0.929 . S
H106 C100 0.929 . S
H107 C101 0.930 . S
Mn108 O113 2.095 . S
Mn108 O123 2.162 1_565 S
Mn108 O124 2.297 1_565 S
Mn108 O132 2.385 . S
Mn108 O133 2.209 . S
Mn108 O134 2.094 . S
Mn109 O114 2.121 . S
Mn109 N116 2.257 . S
Mn109 N125 2.282 . S
Mn109 O133 2.215 . S
Mn109 O135 2.117 . S
C110 O132 1.234 . S
C110 O133 1.283 . S
C111 O123 1.281 . S
C111 O124 1.236 . S
C112 O134 1.240 . S
C112 O135 1.264 . S
O113 Mn108 2.095 . S
O113 C122 1.250 . S
O114 Mn109 2.121 . S
O114 C122 1.258 . S
C115 N116 1.326 . S
C115 C119 1.460 . S
C115 H121 0.929 . S
N116 Mn109 2.257 . S
N116 C115 1.326 . S
N116 C120 1.362 . S
C117 C118 1.258 . S
C117 C120 1.431 . S
C117 C137 1.449 . S
C118 C117 1.258 . S
C118 C119 1.477 . S
C118 H138 0.931 . S
C119 C115 1.460 . S
C119 C118 1.477 . S
C119 H139 0.930 . S
C120 N116 1.362 . S
C120 C117 1.431 . S
C120 C130 1.476 . S
H121 C115 0.929 . S
C122 O113 1.250 . S
C122 O114 1.258 . S
O123 Mn108 2.162 1_545 S
O123 C111 1.281 . S
O124 Mn108 2.297 1_545 S
O124 C111 1.236 . S
N125 Mn109 2.282 . S
N125 C126 1.328 . S
N125 C130 1.318 . S
C126 N125 1.328 . S
C126 C127 1.457 . S
C126 H131 0.929 . S
C127 C126 1.457 . S
C127 C128 1.291 . S
C127 H140 0.931 . S
C128 C127 1.291 . S
C128 C129 1.373 . S
C128 H141 0.929 . S
C129 C128 1.373 . S
C129 C130 1.396 . S
C129 C136 1.403 . S
C130 C120 1.476 . S
C130 N125 1.318 . S
C130 C129 1.396 . S
H131 C126 0.929 . S
O132 Mn108 2.385 . S
O132 C110 1.234 . S
O133 Mn108 2.209 . S
O133 Mn109 2.215 . S
O133 C110 1.283 . S
O134 Mn108 2.094 . S
O134 C112 1.240 . S
O135 Mn109 2.117 . S
O135 C112 1.264 . S
C136 C129 1.403 . S
C136 C137 1.399 . S
C136 H142 0.929 . S
C137 C117 1.449 . S
C137 C136 1.399 . S
C137 H143 0.930 . S
H138 C118 0.931 . S
H139 C119 0.930 . S
H140 C127 0.931 . S
H141 C128 0.929 . S
H142 C136 0.929 . S
H143 C137 0.930 . S
Mn144 O149 2.095 . S
Mn144 O159 2.162 . S
Mn144 O160 2.297 . S
Mn144 O168 2.385 . S
Mn144 O169 2.209 . S
Mn144 O170 2.094 . S
Mn145 O150 2.121 . S
Mn145 N152 2.257 . S
Mn145 N161 2.282 . S
Mn145 O169 2.215 . S
Mn145 O171 2.117 . S
C146 O168 1.234 . S
C146 O169 1.283 . S
C147 O159 1.281 . S
C147 O160 1.236 . S
C148 O170 1.240 . S
C148 O171 1.264 . S
O149 Mn144 2.095 . S
O149 C158 1.250 . S
O150 Mn145 2.121 . S
O150 C158 1.258 . S
C151 N152 1.326 . S
C151 C155 1.460 . S
C151 H157 0.929 . S
N152 Mn145 2.257 . S
N152 C151 1.326 . S
N152 C156 1.362 . S
C153 C154 1.258 . S
C153 C156 1.431 . S
C153 C173 1.449 . S
C154 C153 1.258 . S
C154 C155 1.477 . S
C154 H174 0.931 . S
C155 C151 1.460 . S
C155 C154 1.477 . S
C155 H175 0.930 . S
C156 N152 1.362 . S
C156 C153 1.431 . S
C156 C166 1.476 . S
H157 C151 0.929 . S
C158 O149 1.250 . S
C158 O150 1.258 . S
O159 Mn144 2.162 . S
O159 C147 1.281 . S
O160 Mn144 2.297 . S
O160 C147 1.236 . S
N161 Mn145 2.282 . S
N161 C162 1.328 . S
N161 C166 1.318 . S
C162 N161 1.328 . S
C162 C163 1.457 . S
C162 H167 0.929 . S
C163 C162 1.457 . S
C163 C164 1.291 . S
C163 H176 0.931 . S
C164 C163 1.291 . S
C164 C165 1.373 . S
C164 H177 0.929 . S
C165 C164 1.373 . S
C165 C166 1.396 . S
C165 C172 1.403 . S
C166 C156 1.476 . S
C166 N161 1.318 . S
C166 C165 1.396 . S
H167 C162 0.929 . S
O168 Mn144 2.385 . S
O168 C146 1.234 . S
O169 Mn144 2.209 . S
O169 Mn145 2.215 . S
O169 C146 1.283 . S
O170 Mn144 2.094 . S
O170 C148 1.240 . S
O171 Mn145 2.117 . S
O171 C148 1.264 . S
C172 C165 1.403 . S
C172 C173 1.399 . S
C172 H178 0.929 . S
C173 C153 1.449 . S
C173 C172 1.399 . S
C173 H179 0.930 . S
H174 C154 0.931 . S
H175 C155 0.930 . S
H176 C163 0.931 . S
H177 C164 0.929 . S
H178 C172 0.929 . S
H179 C173 0.930 . S
Mn180 O185 2.095 . S
Mn180 O195 2.162 . S
Mn180 O196 2.297 . S
Mn180 O204 2.385 . S
Mn180 O205 2.209 . S
Mn180 O206 2.094 . S
Mn181 O186 2.121 . S
Mn181 N188 2.257 . S
Mn181 N197 2.282 . S
Mn181 O205 2.215 . S
Mn181 O207 2.117 . S
C182 O204 1.234 . S
C182 O205 1.283 . S
C183 O195 1.281 . S
C183 O196 1.236 . S
C184 O206 1.240 . S
C184 O207 1.264 . S
O185 Mn180 2.095 . S
O185 C194 1.250 . S
O186 Mn181 2.121 . S
O186 C194 1.258 . S
C187 N188 1.326 . S
C187 C191 1.460 . S
C187 H193 0.929 . S
N188 Mn181 2.257 . S
N188 C187 1.326 . S
N188 C192 1.362 . S
C189 C190 1.258 . S
C189 C192 1.431 . S
C189 C209 1.449 . S
C190 C189 1.258 . S
C190 C191 1.477 . S
C190 H210 0.931 . S
C191 C187 1.460 . S
C191 C190 1.477 . S
C191 H211 0.930 . S
C192 N188 1.362 . S
C192 C189 1.431 . S
C192 C202 1.476 . S
H193 C187 0.929 . S
C194 O185 1.250 . S
C194 O186 1.258 . S
O195 Mn180 2.162 . S
O195 C183 1.281 . S
O196 Mn180 2.297 . S
O196 C183 1.236 . S
N197 Mn181 2.282 . S
N197 C198 1.328 . S
N197 C202 1.318 . S
C198 N197 1.328 . S
C198 C199 1.457 . S
C198 H203 0.929 . S
C199 C198 1.457 . S
C199 C200 1.291 . S
C199 H212 0.931 . S
C200 C199 1.291 . S
C200 C201 1.373 . S
C200 H213 0.929 . S
C201 C200 1.373 . S
C201 C202 1.396 . S
C201 C208 1.403 . S
C202 C192 1.476 . S
C202 N197 1.318 . S
C202 C201 1.396 . S
H203 C198 0.929 . S
O204 Mn180 2.385 . S
O204 C182 1.234 . S
O205 Mn180 2.209 . S
O205 Mn181 2.215 . S
O205 C182 1.283 . S
O206 Mn180 2.094 . S
O206 C184 1.240 . S
O207 Mn181 2.117 . S
O207 C184 1.264 . S
C208 C201 1.403 . S
C208 C209 1.399 . S
C208 H214 0.929 . S
C209 C189 1.449 . S
C209 C208 1.399 . S
C209 H215 0.930 . S
H210 C190 0.931 . S
H211 C191 0.930 . S
H212 C199 0.931 . S
H213 C200 0.929 . S
H214 C208 0.929 . S
H215 C209 0.930 . S
Mn216 O221 2.095 . S
Mn216 O231 2.162 1_655 S
Mn216 O232 2.297 1_655 S
Mn216 O240 2.385 . S
Mn216 O241 2.209 . S
Mn216 O242 2.094 . S
Mn217 O222 2.121 . S
Mn217 N224 2.257 . S
Mn217 N233 2.282 . S
Mn217 O241 2.215 . S
Mn217 O243 2.117 . S
C218 O240 1.234 . S
C218 O241 1.283 . S
C219 O231 1.281 . S
C219 O232 1.236 . S
C220 O242 1.240 . S
C220 O243 1.264 . S
O221 Mn216 2.095 . S
O221 C230 1.250 . S
O222 Mn217 2.121 . S
O222 C230 1.258 . S
C223 N224 1.326 . S
C223 C227 1.460 . S
C223 H229 0.929 . S
N224 Mn217 2.257 . S
N224 C223 1.326 . S
N224 C228 1.362 . S
C225 C226 1.258 . S
C225 C228 1.431 . S
C225 C245 1.449 . S
C226 C225 1.258 . S
C226 C227 1.477 . S
C226 H246 0.931 . S
C227 C223 1.460 . S
C227 C226 1.477 . S
C227 H247 0.930 . S
C228 N224 1.362 . S
C228 C225 1.431 . S
C228 C238 1.476 . S
H229 C223 0.929 . S
C230 O221 1.250 . S
C230 O222 1.258 . S
O231 Mn216 2.162 1_455 S
O231 C219 1.281 . S
O232 Mn216 2.297 1_455 S
O232 C219 1.236 . S
N233 Mn217 2.282 . S
N233 C234 1.328 . S
N233 C238 1.318 . S
C234 N233 1.328 . S
C234 C235 1.457 . S
C234 H239 0.929 . S
C235 C234 1.457 . S
C235 C236 1.291 . S
C235 H248 0.931 . S
C236 C235 1.291 . S
C236 C237 1.373 . S
C236 H249 0.929 . S
C237 C236 1.373 . S
C237 C238 1.396 . S
C237 C244 1.403 . S
C238 C228 1.476 . S
C238 N233 1.318 . S
C238 C237 1.396 . S
H239 C234 0.929 . S
O240 Mn216 2.385 . S
O240 C218 1.234 . S
O241 Mn216 2.209 . S
O241 Mn217 2.215 . S
O241 C218 1.283 . S
O242 Mn216 2.094 . S
O242 C220 1.240 . S
O243 Mn217 2.117 . S
O243 C220 1.264 . S
C244 C237 1.403 . S
C244 C245 1.399 . S
C244 H250 0.929 . S
C245 C225 1.449 . S
C245 C244 1.399 . S
C245 H251 0.930 . S
H246 C226 0.931 . S
H247 C227 0.930 . S
H248 C235 0.931 . S
H249 C236 0.929 . S
H250 C244 0.929 . S
H251 C245 0.930 . S
Mn252 O257 2.095 . S
Mn252 O267 2.162 1_565 S
Mn252 O268 2.297 1_565 S
Mn252 O276 2.385 . S
Mn252 O277 2.209 . S
Mn252 O278 2.094 . S
Mn253 O258 2.121 . S
Mn253 N260 2.257 . S
Mn253 N269 2.282 . S
Mn253 O277 2.215 . S
Mn253 O279 2.117 . S
C254 O276 1.234 . S
C254 O277 1.283 . S
C255 O267 1.281 . S
C255 O268 1.236 . S
C256 O278 1.240 . S
C256 O279 1.264 . S
O257 Mn252 2.095 . S
O257 C266 1.250 . S
O258 Mn253 2.121 . S
O258 C266 1.258 . S
C259 N260 1.326 . S
C259 C263 1.460 . S
C259 H265 0.929 . S
N260 Mn253 2.257 . S
N260 C259 1.326 . S
N260 C264 1.362 . S
C261 C262 1.258 . S
C261 C264 1.431 . S
C261 C281 1.449 . S
C262 C261 1.258 . S
C262 C263 1.477 . S
C262 H282 0.931 . S
C263 C259 1.460 . S
C263 C262 1.477 . S
C263 H283 0.930 . S
C264 N260 1.362 . S
C264 C261 1.431 . S
C264 C274 1.476 . S
H265 C259 0.929 . S
C266 O257 1.250 . S
C266 O258 1.258 . S
O267 Mn252 2.162 1_545 S
O267 C255 1.281 . S
O268 Mn252 2.297 1_545 S
O268 C255 1.236 . S
N269 Mn253 2.282 . S
N269 C270 1.328 . S
N269 C274 1.318 . S
C270 N269 1.328 . S
C270 C271 1.457 . S
C270 H275 0.929 . S
C271 C270 1.457 . S
C271 C272 1.291 . S
C271 H284 0.931 . S
C272 C271 1.291 . S
C272 C273 1.373 . S
C272 H285 0.929 . S
C273 C272 1.373 . S
C273 C274 1.396 . S
C273 C280 1.403 . S
C274 C264 1.476 . S
C274 N269 1.318 . S
C274 C273 1.396 . S
H275 C270 0.929 . S
O276 Mn252 2.385 . S
O276 C254 1.234 . S
O277 Mn252 2.209 . S
O277 Mn253 2.215 . S
O277 C254 1.283 . S
O278 Mn252 2.094 . S
O278 C256 1.240 . S
O279 Mn253 2.117 . S
O279 C256 1.264 . S
C280 C273 1.403 . S
C280 C281 1.399 . S
C280 H286 0.929 . S
C281 C261 1.449 . S
C281 C280 1.399 . S
C281 H287 0.930 . S
H282 C262 0.931 . S
H283 C263 0.930 . S
H284 C271 0.931 . S
H285 C272 0.929 . S
H286 C280 0.929 . S
H287 C281 0.930 . S
Mn288 O293 2.095 . S
Mn288 O303 2.162 . S
Mn288 O304 2.297 . S
Mn288 O312 2.385 . S
Mn288 O313 2.209 . S
Mn288 O314 2.094 . S
Mn289 O294 2.121 . S
Mn289 N296 2.257 . S
Mn289 N305 2.282 . S
Mn289 O313 2.215 . S
Mn289 O315 2.117 . S
C290 O312 1.234 . S
C290 O313 1.283 . S
C291 O303 1.281 . S
C291 O304 1.236 . S
C292 O314 1.240 . S
C292 O315 1.264 . S
O293 Mn288 2.095 . S
O293 C302 1.250 . S
O294 Mn289 2.121 . S
O294 C302 1.258 . S
C295 N296 1.326 . S
C295 C299 1.460 . S
C295 H301 0.929 . S
N296 Mn289 2.257 . S
N296 C295 1.326 . S
N296 C300 1.362 . S
C297 C298 1.258 . S
C297 C300 1.431 . S
C297 C317 1.449 . S
C298 C297 1.258 . S
C298 C299 1.477 . S
C298 H318 0.931 . S
C299 C295 1.460 . S
C299 C298 1.477 . S
C299 H319 0.930 . S
C300 N296 1.362 . S
C300 C297 1.431 . S
C300 C310 1.476 . S
H301 C295 0.929 . S
C302 O293 1.250 . S
C302 O294 1.258 . S
O303 Mn288 2.162 . S
O303 C291 1.281 . S
O304 Mn288 2.297 . S
O304 C291 1.236 . S
N305 Mn289 2.282 . S
N305 C306 1.328 . S
N305 C310 1.318 . S
C306 N305 1.328 . S
C306 C307 1.457 . S
C306 H311 0.929 . S
C307 C306 1.457 . S
C307 C308 1.291 . S
C307 H320 0.931 . S
C308 C307 1.291 . S
C308 C309 1.373 . S
C308 H321 0.929 . S
C309 C308 1.373 . S
C309 C310 1.396 . S
C309 C316 1.403 . S
C310 C300 1.476 . S
C310 N305 1.318 . S
C310 C309 1.396 . S
H311 C306 0.929 . S
O312 Mn288 2.385 . S
O312 C290 1.234 . S
O313 Mn288 2.209 . S
O313 Mn289 2.215 . S
O313 C290 1.283 . S
O314 Mn288 2.094 . S
O314 C292 1.240 . S
O315 Mn289 2.117 . S
O315 C292 1.264 . S
C316 C309 1.403 . S
C316 C317 1.399 . S
C316 H322 0.929 . S
C317 C297 1.449 . S
C317 C316 1.399 . S
C317 H323 0.930 . S
H318 C298 0.931 . S
H319 C299 0.930 . S
H320 C307 0.931 . S
H321 C308 0.929 . S
H322 C316 0.929 . S
H323 C317 0.930 . S
Mn324 O329 2.095 . S
Mn324 O339 2.162 . S
Mn324 O340 2.297 . S
Mn324 O348 2.385 . S
Mn324 O349 2.209 . S
Mn324 O350 2.094 . S
Mn325 O330 2.121 . S
Mn325 N332 2.257 . S
Mn325 N341 2.282 . S
Mn325 O349 2.215 . S
Mn325 O351 2.117 . S
C326 O348 1.234 . S
C326 O349 1.283 . S
C327 O339 1.281 . S
C327 O340 1.236 . S
C328 O350 1.240 . S
C328 O351 1.264 . S
O329 Mn324 2.095 . S
O329 C338 1.250 . S
O330 Mn325 2.121 . S
O330 C338 1.258 . S
C331 N332 1.326 . S
C331 C335 1.460 . S
C331 H337 0.929 . S
N332 Mn325 2.257 . S
N332 C331 1.326 . S
N332 C336 1.362 . S
C333 C334 1.258 . S
C333 C336 1.431 . S
C333 C353 1.449 . S
C334 C333 1.258 . S
C334 C335 1.477 . S
C334 H354 0.931 . S
C335 C331 1.460 . S
C335 C334 1.477 . S
C335 H355 0.930 . S
C336 N332 1.362 . S
C336 C333 1.431 . S
C336 C346 1.476 . S
H337 C331 0.929 . S
C338 O329 1.250 . S
C338 O330 1.258 . S
O339 Mn324 2.162 . S
O339 C327 1.281 . S
O340 Mn324 2.297 . S
O340 C327 1.236 . S
N341 Mn325 2.282 . S
N341 C342 1.328 . S
N341 C346 1.318 . S
C342 N341 1.328 . S
C342 C343 1.457 . S
C342 H347 0.929 . S
C343 C342 1.457 . S
C343 C344 1.291 . S
C343 H356 0.931 . S
C344 C343 1.291 . S
C344 C345 1.373 . S
C344 H357 0.929 . S
C345 C344 1.373 . S
C345 C346 1.396 . S
C345 C352 1.403 . S
C346 C336 1.476 . S
C346 N341 1.318 . S
C346 C345 1.396 . S
H347 C342 0.929 . S
O348 Mn324 2.385 . S
O348 C326 1.234 . S
O349 Mn324 2.209 . S
O349 Mn325 2.215 . S
O349 C326 1.283 . S
O350 Mn324 2.094 . S
O350 C328 1.240 . S
O351 Mn325 2.117 . S
O351 C328 1.264 . S
C352 C345 1.403 . S
C352 C353 1.399 . S
C352 H358 0.929 . S
C353 C333 1.449 . S
C353 C352 1.399 . S
C353 H359 0.930 . S
H354 C334 0.931 . S
H355 C335 0.930 . S
H356 C343 0.931 . S
H357 C344 0.929 . S
H358 C352 0.929 . S
H359 C353 0.930 . S
Mn360 O365 2.095 . S
Mn360 O375 2.162 1_455 S
Mn360 O376 2.297 1_455 S
Mn360 O384 2.385 . S
Mn360 O385 2.209 . S
Mn360 O386 2.094 . S
Mn361 O366 2.121 . S
Mn361 N368 2.257 . S
Mn361 N377 2.282 . S
Mn361 O385 2.215 . S
Mn361 O387 2.117 . S
C362 O384 1.234 . S
C362 O385 1.283 . S
C363 O375 1.281 . S
C363 O376 1.236 . S
C364 O386 1.240 . S
C364 O387 1.264 . S
O365 Mn360 2.095 . S
O365 C374 1.250 . S
O366 Mn361 2.121 . S
O366 C374 1.258 . S
C367 N368 1.326 . S
C367 C371 1.460 . S
C367 H373 0.929 . S
N368 Mn361 2.257 . S
N368 C367 1.326 . S
N368 C372 1.362 . S
C369 C370 1.258 . S
C369 C372 1.431 . S
C369 C389 1.449 . S
C370 C369 1.258 . S
C370 C371 1.477 . S
C370 H390 0.931 . S
C371 C367 1.460 . S
C371 C370 1.477 . S
C371 H391 0.930 . S
C372 N368 1.362 . S
C372 C369 1.431 . S
C372 C382 1.476 . S
H373 C367 0.929 . S
C374 O365 1.250 . S
C374 O366 1.258 . S
O375 Mn360 2.162 1_655 S
O375 C363 1.281 . S
O376 Mn360 2.297 1_655 S
O376 C363 1.236 . S
N377 Mn361 2.282 . S
N377 C378 1.328 . S
N377 C382 1.318 . S
C378 N377 1.328 . S
C378 C379 1.457 . S
C378 H383 0.929 . S
C379 C378 1.457 . S
C379 C380 1.291 . S
C379 H392 0.931 . S
C380 C379 1.291 . S
C380 C381 1.373 . S
C380 H393 0.929 . S
C381 C380 1.373 . S
C381 C382 1.396 . S
C381 C388 1.403 . S
C382 C372 1.476 . S
C382 N377 1.318 . S
C382 C381 1.396 . S
H383 C378 0.929 . S
O384 Mn360 2.385 . S
O384 C362 1.234 . S
O385 Mn360 2.209 . S
O385 Mn361 2.215 . S
O385 C362 1.283 . S
O386 Mn360 2.094 . S
O386 C364 1.240 . S
O387 Mn361 2.117 . S
O387 C364 1.264 . S
C388 C381 1.403 . S
C388 C389 1.399 . S
C388 H394 0.929 . S
C389 C369 1.449 . S
C389 C388 1.399 . S
C389 H395 0.930 . S
H390 C370 0.931 . S
H391 C371 0.930 . S
H392 C379 0.931 . S
H393 C380 0.929 . S
H394 C388 0.929 . S
H395 C389 0.930 . S
Mn396 O401 2.095 . S
Mn396 O411 2.162 1_545 S
Mn396 O412 2.297 1_545 S
Mn396 O420 2.385 . S
Mn396 O421 2.209 . S
Mn396 O422 2.094 . S
Mn397 O402 2.121 . S
Mn397 N404 2.257 . S
Mn397 N413 2.282 . S
Mn397 O421 2.215 . S
Mn397 O423 2.117 . S
C398 O420 1.234 . S
C398 O421 1.283 . S
C399 O411 1.281 . S
C399 O412 1.236 . S
C400 O422 1.240 . S
C400 O423 1.264 . S
O401 Mn396 2.095 . S
O401 C410 1.250 . S
O402 Mn397 2.121 . S
O402 C410 1.258 . S
C403 N404 1.326 . S
C403 C407 1.460 . S
C403 H409 0.929 . S
N404 Mn397 2.257 . S
N404 C403 1.326 . S
N404 C408 1.362 . S
C405 C406 1.258 . S
C405 C408 1.431 . S
C405 C425 1.449 . S
C406 C405 1.258 . S
C406 C407 1.477 . S
C406 H426 0.931 . S
C407 C403 1.460 . S
C407 C406 1.477 . S
C407 H427 0.930 . S
C408 N404 1.362 . S
C408 C405 1.431 . S
C408 C418 1.476 . S
H409 C403 0.929 . S
C410 O401 1.250 . S
C410 O402 1.258 . S
O411 Mn396 2.162 1_565 S
O411 C399 1.281 . S
O412 Mn396 2.297 1_565 S
O412 C399 1.236 . S
N413 Mn397 2.282 . S
N413 C414 1.328 . S
N413 C418 1.318 . S
C414 N413 1.328 . S
C414 C415 1.457 . S
C414 H419 0.929 . S
C415 C414 1.457 . S
C415 C416 1.291 . S
C415 H428 0.931 . S
C416 C415 1.291 . S
C416 C417 1.373 . S
C416 H429 0.929 . S
C417 C416 1.373 . S
C417 C418 1.396 . S
C417 C424 1.403 . S
C418 C408 1.476 . S
C418 N413 1.318 . S
C418 C417 1.396 . S
H419 C414 0.929 . S
O420 Mn396 2.385 . S
O420 C398 1.234 . S
O421 Mn396 2.209 . S
O421 Mn397 2.215 . S
O421 C398 1.283 . S
O422 Mn396 2.094 . S
O422 C400 1.240 . S
O423 Mn397 2.117 . S
O423 C400 1.264 . S
C424 C417 1.403 . S
C424 C425 1.399 . S
C424 H430 0.929 . S
C425 C405 1.449 . S
C425 C424 1.399 . S
C425 H431 0.930 . S
H426 C406 0.931 . S
H427 C407 0.930 . S
H428 C415 0.931 . S
H429 C416 0.929 . S
H430 C424 0.929 . S
H431 C425 0.930 . S
Mn432 O437 2.095 . S
Mn432 O447 2.162 . S
Mn432 O448 2.297 . S
Mn432 O456 2.385 . S
Mn432 O457 2.209 . S
Mn432 O458 2.094 . S
Mn433 O438 2.121 . S
Mn433 N440 2.257 . S
Mn433 N449 2.282 . S
Mn433 O457 2.215 . S
Mn433 O459 2.117 . S
C434 O456 1.234 . S
C434 O457 1.283 . S
C435 O447 1.281 . S
C435 O448 1.236 . S
C436 O458 1.240 . S
C436 O459 1.264 . S
O437 Mn432 2.095 . S
O437 C446 1.250 . S
O438 Mn433 2.121 . S
O438 C446 1.258 . S
C439 N440 1.326 . S
C439 C443 1.460 . S
C439 H445 0.929 . S
N440 Mn433 2.257 . S
N440 C439 1.326 . S
N440 C444 1.362 . S
C441 C442 1.258 . S
C441 C444 1.431 . S
C441 C461 1.449 . S
C442 C441 1.258 . S
C442 C443 1.477 . S
C442 H462 0.931 . S
C443 C439 1.460 . S
C443 C442 1.477 . S
C443 H463 0.930 . S
C444 N440 1.362 . S
C444 C441 1.431 . S
C444 C454 1.476 . S
H445 C439 0.929 . S
C446 O437 1.250 . S
C446 O438 1.258 . S
O447 Mn432 2.162 . S
O447 C435 1.281 . S
O448 Mn432 2.297 . S
O448 C435 1.236 . S
N449 Mn433 2.282 . S
N449 C450 1.328 . S
N449 C454 1.318 . S
C450 N449 1.328 . S
C450 C451 1.457 . S
C450 H455 0.929 . S
C451 C450 1.457 . S
C451 C452 1.291 . S
C451 H464 0.931 . S
C452 C451 1.291 . S
C452 C453 1.373 . S
C452 H465 0.929 . S
C453 C452 1.373 . S
C453 C454 1.396 . S
C453 C460 1.403 . S
C454 C444 1.476 . S
C454 N449 1.318 . S
C454 C453 1.396 . S
H455 C450 0.929 . S
O456 Mn432 2.385 . S
O456 C434 1.234 . S
O457 Mn432 2.209 . S
O457 Mn433 2.215 . S
O457 C434 1.283 . S
O458 Mn432 2.094 . S
O458 C436 1.240 . S
O459 Mn433 2.117 . S
O459 C436 1.264 . S
C460 C453 1.403 . S
C460 C461 1.399 . S
C460 H466 0.929 . S
C461 C441 1.449 . S
C461 C460 1.399 . S
C461 H467 0.930 . S
H462 C442 0.931 . S
H463 C443 0.930 . S
H464 C451 0.931 . S
H465 C452 0.929 . S
H466 C460 0.929 . S
H467 C461 0.930 . S
Mn468 O473 2.095 . S
Mn468 O483 2.162 . S
Mn468 O484 2.297 . S
Mn468 O492 2.385 . S
Mn468 O493 2.209 . S
Mn468 O494 2.094 . S
Mn469 O474 2.121 . S
Mn469 N476 2.257 . S
Mn469 N485 2.282 . S
Mn469 O493 2.215 . S
Mn469 O495 2.117 . S
C470 O492 1.234 . S
C470 O493 1.283 . S
C471 O483 1.281 . S
C471 O484 1.236 . S
C472 O494 1.240 . S
C472 O495 1.264 . S
O473 Mn468 2.095 . S
O473 C482 1.250 . S
O474 Mn469 2.121 . S
O474 C482 1.258 . S
C475 N476 1.326 . S
C475 C479 1.460 . S
C475 H481 0.929 . S
N476 Mn469 2.257 . S
N476 C475 1.326 . S
N476 C480 1.362 . S
C477 C478 1.258 . S
C477 C480 1.431 . S
C477 C497 1.449 . S
C478 C477 1.258 . S
C478 C479 1.477 . S
C478 H498 0.931 . S
C479 C475 1.460 . S
C479 C478 1.477 . S
C479 H499 0.930 . S
C480 N476 1.362 . S
C480 C477 1.431 . S
C480 C490 1.476 . S
H481 C475 0.929 . S
C482 O473 1.250 . S
C482 O474 1.258 . S
O483 Mn468 2.162 . S
O483 C471 1.281 . S
O484 Mn468 2.297 . S
O484 C471 1.236 . S
N485 Mn469 2.282 . S
N485 C486 1.328 . S
N485 C490 1.318 . S
C486 N485 1.328 . S
C486 C487 1.457 . S
C486 H491 0.929 . S
C487 C486 1.457 . S
C487 C488 1.291 . S
C487 H500 0.931 . S
C488 C487 1.291 . S
C488 C489 1.373 . S
C488 H501 0.929 . S
C489 C488 1.373 . S
C489 C490 1.396 . S
C489 C496 1.403 . S
C490 C480 1.476 . S
C490 N485 1.318 . S
C490 C489 1.396 . S
H491 C486 0.929 . S
O492 Mn468 2.385 . S
O492 C470 1.234 . S
O493 Mn468 2.209 . S
O493 Mn469 2.215 . S
O493 C470 1.283 . S
O494 Mn468 2.094 . S
O494 C472 1.240 . S
O495 Mn469 2.117 . S
O495 C472 1.264 . S
C496 C489 1.403 . S
C496 C497 1.399 . S
C496 H502 0.929 . S
C497 C477 1.449 . S
C497 C496 1.399 . S
C497 H503 0.930 . S
H498 C478 0.931 . S
H499 C479 0.930 . S
H500 C487 0.931 . S
H501 C488 0.929 . S
H502 C496 0.929 . S
H503 C497 0.930 . S
Mn504 O509 2.095 . S
Mn504 O519 2.162 1_455 S
Mn504 O520 2.297 1_455 S
Mn504 O528 2.385 . S
Mn504 O529 2.209 . S
Mn504 O530 2.094 . S
Mn505 O510 2.121 . S
Mn505 N512 2.257 . S
Mn505 N521 2.282 . S
Mn505 O529 2.215 . S
Mn505 O531 2.117 . S
C506 O528 1.234 . S
C506 O529 1.283 . S
C507 O519 1.281 . S
C507 O520 1.236 . S
C508 O530 1.240 . S
C508 O531 1.264 . S
O509 Mn504 2.095 . S
O509 C518 1.250 . S
O510 Mn505 2.121 . S
O510 C518 1.258 . S
C511 N512 1.326 . S
C511 C515 1.460 . S
C511 H517 0.929 . S
N512 Mn505 2.257 . S
N512 C511 1.326 . S
N512 C516 1.362 . S
C513 C514 1.258 . S
C513 C516 1.431 . S
C513 C533 1.449 . S
C514 C513 1.258 . S
C514 C515 1.477 . S
C514 H534 0.931 . S
C515 C511 1.460 . S
C515 C514 1.477 . S
C515 H535 0.930 . S
C516 N512 1.362 . S
C516 C513 1.431 . S
C516 C526 1.476 . S
H517 C511 0.929 . S
C518 O509 1.250 . S
C518 O510 1.258 . S
O519 Mn504 2.162 1_655 S
O519 C507 1.281 . S
O520 Mn504 2.297 1_655 S
O520 C507 1.236 . S
N521 Mn505 2.282 . S
N521 C522 1.328 . S
N521 C526 1.318 . S
C522 N521 1.328 . S
C522 C523 1.457 . S
C522 H527 0.929 . S
C523 C522 1.457 . S
C523 C524 1.291 . S
C523 H536 0.931 . S
C524 C523 1.291 . S
C524 C525 1.373 . S
C524 H537 0.929 . S
C525 C524 1.373 . S
C525 C526 1.396 . S
C525 C532 1.403 . S
C526 C516 1.476 . S
C526 N521 1.318 . S
C526 C525 1.396 . S
H527 C522 0.929 . S
O528 Mn504 2.385 . S
O528 C506 1.234 . S
O529 Mn504 2.209 . S
O529 Mn505 2.215 . S
O529 C506 1.283 . S
O530 Mn504 2.094 . S
O530 C508 1.240 . S
O531 Mn505 2.117 . S
O531 C508 1.264 . S
C532 C525 1.403 . S
C532 C533 1.399 . S
C532 H538 0.929 . S
C533 C513 1.449 . S
C533 C532 1.399 . S
C533 H539 0.930 . S
H534 C514 0.931 . S
H535 C515 0.930 . S
H536 C523 0.931 . S
H537 C524 0.929 . S
H538 C532 0.929 . S
H539 C533 0.930 . S
Mn540 O545 2.095 . S
Mn540 O555 2.162 1_545 S
Mn540 O556 2.297 1_545 S
Mn540 O564 2.385 . S
Mn540 O565 2.209 . S
Mn540 O566 2.094 . S
Mn541 O546 2.121 . S
Mn541 N548 2.257 . S
Mn541 N557 2.282 . S
Mn541 O565 2.215 . S
Mn541 O567 2.117 . S
C542 O564 1.234 . S
C542 O565 1.283 . S
C543 O555 1.281 . S
C543 O556 1.236 . S
C544 O566 1.240 . S
C544 O567 1.264 . S
O545 Mn540 2.095 . S
O545 C554 1.250 . S
O546 Mn541 2.121 . S
O546 C554 1.258 . S
C547 N548 1.326 . S
C547 C551 1.460 . S
C547 H553 0.929 . S
N548 Mn541 2.257 . S
N548 C547 1.326 . S
N548 C552 1.362 . S
C549 C550 1.258 . S
C549 C552 1.431 . S
C549 C569 1.449 . S
C550 C549 1.258 . S
C550 C551 1.477 . S
C550 H570 0.931 . S
C551 C547 1.460 . S
C551 C550 1.477 . S
C551 H571 0.930 . S
C552 N548 1.362 . S
C552 C549 1.431 . S
C552 C562 1.476 . S
H553 C547 0.929 . S
C554 O545 1.250 . S
C554 O546 1.258 . S
O555 Mn540 2.162 1_565 S
O555 C543 1.281 . S
O556 Mn540 2.297 1_565 S
O556 C543 1.236 . S
N557 Mn541 2.282 . S
N557 C558 1.328 . S
N557 C562 1.318 . S
C558 N557 1.328 . S
C558 C559 1.457 . S
C558 H563 0.929 . S
C559 C558 1.457 . S
C559 C560 1.291 . S
C559 H572 0.931 . S
C560 C559 1.291 . S
C560 C561 1.373 . S
C560 H573 0.929 . S
C561 C560 1.373 . S
C561 C562 1.396 . S
C561 C568 1.403 . S
C562 C552 1.476 . S
C562 N557 1.318 . S
C562 C561 1.396 . S
H563 C558 0.929 . S
O564 Mn540 2.385 . S
O564 C542 1.234 . S
O565 Mn540 2.209 . S
O565 Mn541 2.215 . S
O565 C542 1.283 . S
O566 Mn540 2.094 . S
O566 C544 1.240 . S
O567 Mn541 2.117 . S
O567 C544 1.264 . S
C568 C561 1.403 . S
C568 C569 1.399 . S
C568 H574 0.929 . S
C569 C549 1.449 . S
C569 C568 1.399 . S
C569 H575 0.930 . S
H570 C550 0.931 . S
H571 C551 0.930 . S
H572 C559 0.931 . S
H573 C560 0.929 . S
H574 C568 0.929 . S
H575 C569 0.930 . S
H576 C594 0.951 . S
H577 C596 0.951 . S
H578 C598 0.950 . S
H579 C599 0.950 . S
H580 C601 0.950 . S
H581 C604 0.950 . S
H582 C605 0.950 . S
H583 C607 0.950 . S
H584 C608 0.950 . S
H585 C609 0.951 . S
H586 C611 0.951 . S
H587 C613 0.950 . S
H588 C614 0.950 . S
H589 C616 0.950 . S
H590 C619 0.950 . S
H591 C620 0.950 . S
H592 C622 0.950 . S
H593 C623 0.950 . S
C594 H576 0.951 . S
C594 C595 1.366 . S
C594 C596 1.388 . S
C595 C594 1.366 . S
C595 C599 1.385 . S
C596 H577 0.951 . S
C596 C594 1.388 . S
C596 C597 1.366 . S
C597 C596 1.366 . S
C597 C598 1.414 . S
C597 C600 1.499 . S
C598 H578 0.950 . S
C598 C597 1.414 . S
C598 C599 1.374 . S
C599 H579 0.950 . S
C599 C595 1.385 . S
C599 C598 1.374 . S
C600 C597 1.499 . S
C600 C601 1.373 . S
C600 C602 1.389 . S
C601 H580 0.950 . S
C601 C600 1.373 . S
C601 C617 1.377 . S
C602 C600 1.389 . S
C602 C603 1.524 . S
C602 C616 1.377 . S
C603 C602 1.524 . S
C603 C604 1.397 . S
C603 C608 1.363 . S
C604 H581 0.950 . S
C604 C603 1.397 . S
C604 C605 1.334 . S
C605 H582 0.950 . S
C605 C604 1.334 . S
C605 C606 1.287 . S
C606 C605 1.287 . S
C606 C607 1.524 . S
C606 H625 0.913 . S
C607 H583 0.950 . S
C607 C606 1.524 . S
C607 C608 1.415 . S
C608 H584 0.950 . S
C608 C603 1.363 . S
C608 C607 1.415 . S
C609 H585 0.951 . S
C609 C610 1.366 . S
C609 C611 1.388 . S
C610 C609 1.366 . S
C610 C614 1.385 . S
C611 H586 0.951 . S
C611 C609 1.388 . S
C611 C612 1.366 . S
C612 C611 1.366 . S
C612 C613 1.414 . S
C612 C615 1.499 . S
C613 H587 0.950 . S
C613 C612 1.414 . S
C613 C614 1.374 . S
C614 H588 0.950 . S
C614 C610 1.385 . S
C614 C613 1.374 . S
C615 C612 1.499 . S
C615 C616 1.373 . S
C615 C617 1.389 . S
C616 H589 0.950 . S
C616 C602 1.377 . S
C616 C615 1.373 . S
C617 C601 1.377 . S
C617 C615 1.389 . S
C617 C618 1.524 . S
C618 C617 1.524 . S
C618 C619 1.397 . S
C618 C623 1.363 . S
C619 H590 0.950 . S
C619 C618 1.397 . S
C619 C620 1.334 . S
C620 H591 0.950 . S
C620 C619 1.334 . S
C620 C621 1.287 . S
C621 C620 1.287 . S
C621 C622 1.524 . S
C621 H624 0.999 . S
C622 H592 0.950 . S
C622 C621 1.524 . S
C622 C623 1.415 . S
C623 H593 0.950 . S
C623 C618 1.363 . S
C623 C622 1.415 . S
H624 C621 0.999 . S
H625 C606 0.913 . S
H626 C644 0.951 . S
H627 C646 0.951 . S
H628 C648 0.950 . S
H629 C649 0.950 . S
H630 C651 0.950 . S
H631 C654 0.950 . S
H632 C655 0.950 . S
H633 C657 0.950 . S
H634 C658 0.950 . S
H635 C659 0.951 . S
H636 C661 0.951 . S
H637 C663 0.950 . S
H638 C664 0.950 . S
H639 C666 0.950 . S
H640 C669 0.950 . S
H641 C670 0.950 . S
H642 C672 0.950 . S
H643 C673 0.950 . S
C644 H626 0.951 . S
C644 C645 1.366 . S
C644 C646 1.388 . S
C645 C644 1.366 . S
C645 C649 1.385 . S
C646 H627 0.951 . S
C646 C644 1.388 . S
C646 C647 1.366 . S
C647 C646 1.366 . S
C647 C648 1.414 . S
C647 C650 1.499 . S
C648 H628 0.950 . S
C648 C647 1.414 . S
C648 C649 1.374 . S
C649 H629 0.950 . S
C649 C645 1.385 . S
C649 C648 1.374 . S
C650 C647 1.499 . S
C650 C651 1.373 . S
C650 C652 1.389 . S
C651 H630 0.950 . S
C651 C650 1.373 . S
C651 C667 1.377 . S
C652 C650 1.389 . S
C652 C653 1.524 . S
C652 C666 1.377 . S
C653 C652 1.524 . S
C653 C654 1.397 . S
C653 C658 1.363 . S
C654 H631 0.950 . S
C654 C653 1.397 . S
C654 C655 1.334 . S
C655 H632 0.950 . S
C655 C654 1.334 . S
C655 C656 1.287 . S
C656 C655 1.287 . S
C656 C657 1.524 . S
C656 H675 0.913 . S
C657 H633 0.950 . S
C657 C656 1.524 . S
C657 C658 1.415 . S
C658 H634 0.950 . S
C658 C653 1.363 . S
C658 C657 1.415 . S
C659 H635 0.951 . S
C659 C660 1.366 . S
C659 C661 1.388 . S
C660 C659 1.366 . S
C660 C664 1.385 . S
C661 H636 0.951 . S
C661 C659 1.388 . S
C661 C662 1.366 . S
C662 C661 1.366 . S
C662 C663 1.414 . S
C662 C665 1.499 . S
C663 H637 0.950 . S
C663 C662 1.414 . S
C663 C664 1.374 . S
C664 H638 0.950 . S
C664 C660 1.385 . S
C664 C663 1.374 . S
C665 C662 1.499 . S
C665 C666 1.373 . S
C665 C667 1.389 . S
C666 H639 0.950 . S
C666 C652 1.377 . S
C666 C665 1.373 . S
C667 C651 1.377 . S
C667 C665 1.389 . S
C667 C668 1.524 . S
C668 C667 1.524 . S
C668 C669 1.397 . S
C668 C673 1.363 . S
C669 H640 0.950 . S
C669 C668 1.397 . S
C669 C670 1.334 . S
C670 H641 0.950 . S
C670 C669 1.334 . S
C670 C671 1.287 . S
C671 C670 1.287 . S
C671 C672 1.524 . S
C671 H674 0.999 . S
C672 H642 0.950 . S
C672 C671 1.524 . S
C672 C673 1.415 . S
C673 H643 0.950 . S
C673 C668 1.363 . S
C673 C672 1.415 . S
H674 C671 0.999 . S
H675 C656 0.913 . S
H676 C694 0.951 . S
H677 C696 0.951 . S
H678 C698 0.950 . S
H679 C699 0.950 . S
H680 C701 0.950 . S
H681 C704 0.950 . S
H682 C705 0.950 . S
H683 C707 0.950 . S
H684 C708 0.950 . S
H685 C709 0.951 . S
H686 C711 0.951 . S
H687 C713 0.950 . S
H688 C714 0.950 . S
H689 C716 0.950 . S
H690 C719 0.950 . S
H691 C720 0.950 . S
H692 C722 0.950 . S
H693 C723 0.950 . S
C694 H676 0.951 . S
C694 C695 1.366 . S
C694 C696 1.388 . S
C695 C694 1.366 . S
C695 C699 1.385 . S
C696 H677 0.951 . S
C696 C694 1.388 . S
C696 C697 1.366 . S
C697 C696 1.366 . S
C697 C698 1.414 . S
C697 C700 1.499 . S
C698 H678 0.950 . S
C698 C697 1.414 . S
C698 C699 1.374 . S
C699 H679 0.950 . S
C699 C695 1.385 . S
C699 C698 1.374 . S
C700 C697 1.499 . S
C700 C701 1.373 . S
C700 C702 1.389 . S
C701 H680 0.950 . S
C701 C700 1.373 . S
C701 C717 1.377 . S
C702 C700 1.389 . S
C702 C703 1.524 . S
C702 C716 1.377 . S
C703 C702 1.524 . S
C703 C704 1.397 . S
C703 C708 1.363 . S
C704 H681 0.950 . S
C704 C703 1.397 . S
C704 C705 1.334 . S
C705 H682 0.950 . S
C705 C704 1.334 . S
C705 C706 1.287 . S
C706 C705 1.287 . S
C706 C707 1.524 . S
C706 H725 0.913 . S
C707 H683 0.950 . S
C707 C706 1.524 . S
C707 C708 1.415 . S
C708 H684 0.950 . S
C708 C703 1.363 . S
C708 C707 1.415 . S
C709 H685 0.951 . S
C709 C710 1.366 . S
C709 C711 1.388 . S
C710 C709 1.366 . S
C710 C714 1.385 . S
C711 H686 0.951 . S
C711 C709 1.388 . S
C711 C712 1.366 . S
C712 C711 1.366 . S
C712 C713 1.414 . S
C712 C715 1.499 . S
C713 H687 0.950 . S
C713 C712 1.414 . S
C713 C714 1.374 . S
C714 H688 0.950 . S
C714 C710 1.385 . S
C714 C713 1.374 . S
C715 C712 1.499 . S
C715 C716 1.373 . S
C715 C717 1.389 . S
C716 H689 0.950 . S
C716 C702 1.377 . S
C716 C715 1.373 . S
C717 C701 1.377 . S
C717 C715 1.389 . S
C717 C718 1.524 . S
C718 C717 1.524 . S
C718 C719 1.397 . S
C718 C723 1.363 . S
C719 H690 0.950 . S
C719 C718 1.397 . S
C719 C720 1.334 . S
C720 H691 0.950 . S
C720 C719 1.334 . S
C720 C721 1.287 . S
C721 C720 1.287 . S
C721 C722 1.524 . S
C721 H724 0.999 . S
C722 H692 0.950 . S
C722 C721 1.524 . S
C722 C723 1.415 . S
C723 H693 0.950 . S
C723 C718 1.363 . S
C723 C722 1.415 . S
H724 C721 0.999 . S
H725 C706 0.913 . S
H726 C744 0.951 . S
H727 C746 0.951 . S
H728 C748 0.950 . S
H729 C749 0.950 . S
H730 C751 0.950 . S
H731 C754 0.950 . S
H732 C755 0.950 . S
H733 C757 0.950 . S
H734 C758 0.950 . S
H735 C759 0.951 . S
H736 C761 0.951 . S
H737 C763 0.950 . S
H738 C764 0.950 . S
H739 C766 0.950 . S
H740 C769 0.950 . S
H741 C770 0.950 . S
H742 C772 0.950 . S
H743 C773 0.950 . S
C744 H726 0.951 . S
C744 C745 1.366 . S
C744 C746 1.388 . S
C745 C744 1.366 . S
C745 C749 1.385 . S
C746 H727 0.951 . S
C746 C744 1.388 . S
C746 C747 1.366 . S
C747 C746 1.366 . S
C747 C748 1.414 . S
C747 C750 1.499 . S
C748 H728 0.950 . S
C748 C747 1.414 . S
C748 C749 1.374 . S
C749 H729 0.950 . S
C749 C745 1.385 . S
C749 C748 1.374 . S
C750 C747 1.499 . S
C750 C751 1.373 . S
C750 C752 1.389 . S
C751 H730 0.950 . S
C751 C750 1.373 . S
C751 C767 1.377 . S
C752 C750 1.389 . S
C752 C753 1.524 . S
C752 C766 1.377 . S
C753 C752 1.524 . S
C753 C754 1.397 . S
C753 C758 1.363 . S
C754 H731 0.950 . S
C754 C753 1.397 . S
C754 C755 1.334 . S
C755 H732 0.950 . S
C755 C754 1.334 . S
C755 C756 1.287 . S
C756 C755 1.287 . S
C756 C757 1.524 . S
C756 H775 0.913 . S
C757 H733 0.950 . S
C757 C756 1.524 . S
C757 C758 1.415 . S
C758 H734 0.950 . S
C758 C753 1.363 . S
C758 C757 1.415 . S
C759 H735 0.951 . S
C759 C760 1.366 . S
C759 C761 1.388 . S
C760 C759 1.366 . S
C760 C764 1.385 . S
C761 H736 0.951 . S
C761 C759 1.388 . S
C761 C762 1.366 . S
C762 C761 1.366 . S
C762 C763 1.414 . S
C762 C765 1.499 . S
C763 H737 0.950 . S
C763 C762 1.414 . S
C763 C764 1.374 . S
C764 H738 0.950 . S
C764 C760 1.385 . S
C764 C763 1.374 . S
C765 C762 1.499 . S
C765 C766 1.373 . S
C765 C767 1.389 . S
C766 H739 0.950 . S
C766 C752 1.377 . S
C766 C765 1.373 . S
C767 C751 1.377 . S
C767 C765 1.389 . S
C767 C768 1.524 . S
C768 C767 1.524 . S
C768 C769 1.397 . S
C768 C773 1.363 . S
C769 H740 0.950 . S
C769 C768 1.397 . S
C769 C770 1.334 . S
C770 H741 0.950 . S
C770 C769 1.334 . S
C770 C771 1.287 . S
C771 C770 1.287 . S
C771 C772 1.524 . S
C771 H774 0.999 . S
C772 H742 0.950 . S
C772 C771 1.524 . S
C772 C773 1.415 . S
C773 H743 0.950 . S
C773 C768 1.363 . S
C773 C772 1.415 . S
H774 C771 0.999 . S
H775 C756 0.913 . S
H776 C794 0.951 . S
H777 C796 0.951 . S
H778 C798 0.950 . S
H779 C799 0.950 . S
H780 C801 0.950 . S
H781 C804 0.950 . S
H782 C805 0.950 . S
H783 C807 0.950 . S
H784 C808 0.950 . S
H785 C809 0.951 . S
H786 C811 0.951 . S
H787 C813 0.950 . S
H788 C814 0.950 . S
H789 C816 0.950 . S
H790 C819 0.950 . S
H791 C820 0.950 . S
H792 C822 0.950 . S
H793 C823 0.950 . S
C794 H776 0.951 . S
C794 C795 1.366 . S
C794 C796 1.388 . S
C795 C794 1.366 . S
C795 C799 1.385 . S
C796 H777 0.951 . S
C796 C794 1.388 . S
C796 C797 1.366 . S
C797 C796 1.366 . S
C797 C798 1.414 . S
C797 C800 1.499 . S
C798 H778 0.950 . S
C798 C797 1.414 . S
C798 C799 1.374 . S
C799 H779 0.950 . S
C799 C795 1.385 . S
C799 C798 1.374 . S
C800 C797 1.499 . S
C800 C801 1.373 . S
C800 C802 1.389 . S
C801 H780 0.950 . S
C801 C800 1.373 . S
C801 C817 1.377 . S
C802 C800 1.389 . S
C802 C803 1.524 . S
C802 C816 1.377 . S
C803 C802 1.524 . S
C803 C804 1.397 . S
C803 C808 1.363 . S
C804 H781 0.950 . S
C804 C803 1.397 . S
C804 C805 1.334 . S
C805 H782 0.950 . S
C805 C804 1.334 . S
C805 C806 1.287 . S
C806 C805 1.287 . S
C806 C807 1.524 . S
C806 H825 0.913 . S
C807 H783 0.950 . S
C807 C806 1.524 . S
C807 C808 1.415 . S
C808 H784 0.950 . S
C808 C803 1.363 . S
C808 C807 1.415 . S
C809 H785 0.951 . S
C809 C810 1.366 . S
C809 C811 1.388 . S
C810 C809 1.366 . S
C810 C814 1.385 . S
C811 H786 0.951 . S
C811 C809 1.388 . S
C811 C812 1.366 . S
C812 C811 1.366 . S
C812 C813 1.414 . S
C812 C815 1.499 . S
C813 H787 0.950 . S
C813 C812 1.414 . S
C813 C814 1.374 . S
C814 H788 0.950 . S
C814 C810 1.385 . S
C814 C813 1.374 . S
C815 C812 1.499 . S
C815 C816 1.373 . S
C815 C817 1.389 . S
C816 H789 0.950 . S
C816 C802 1.377 . S
C816 C815 1.373 . S
C817 C801 1.377 . S
C817 C815 1.389 . S
C817 C818 1.524 . S
C818 C817 1.524 . S
C818 C819 1.397 . S
C818 C823 1.363 . S
C819 H790 0.950 . S
C819 C818 1.397 . S
C819 C820 1.334 . S
C820 H791 0.950 . S
C820 C819 1.334 . S
C820 C821 1.287 . S
C821 C820 1.287 . S
C821 C822 1.524 . S
C821 H824 0.999 . S
C822 H792 0.950 . S
C822 C821 1.524 . S
C822 C823 1.415 . S
C823 H793 0.950 . S
C823 C818 1.363 . S
C823 C822 1.415 . S
H824 C821 0.999 . S
H825 C806 0.913 . S
H826 C844 0.951 . S
H827 C846 0.951 . S
H828 C848 0.950 . S
H829 C849 0.950 . S
H830 C851 0.950 . S
H831 C854 0.950 . S
H832 C855 0.950 . S
H833 C857 0.950 . S
H834 C858 0.950 . S
H835 C859 0.951 . S
H836 C861 0.951 . S
H837 C863 0.950 . S
H838 C864 0.950 . S
H839 C866 0.950 . S
H840 C869 0.950 . S
H841 C870 0.950 . S
H842 C872 0.950 . S
H843 C873 0.950 . S
C844 H826 0.951 . S
C844 C845 1.366 . S
C844 C846 1.388 . S
C845 C844 1.366 . S
C845 C849 1.385 . S
C846 H827 0.951 . S
C846 C844 1.388 . S
C846 C847 1.366 . S
C847 C846 1.366 . S
C847 C848 1.414 . S
C847 C850 1.499 . S
C848 H828 0.950 . S
C848 C847 1.414 . S
C848 C849 1.374 . S
C849 H829 0.950 . S
C849 C845 1.385 . S
C849 C848 1.374 . S
C850 C847 1.499 . S
C850 C851 1.373 . S
C850 C852 1.389 . S
C851 H830 0.950 . S
C851 C850 1.373 . S
C851 C867 1.377 . S
C852 C850 1.389 . S
C852 C853 1.524 . S
C852 C866 1.377 . S
C853 C852 1.524 . S
C853 C854 1.397 . S
C853 C858 1.363 . S
C854 H831 0.950 . S
C854 C853 1.397 . S
C854 C855 1.334 . S
C855 H832 0.950 . S
C855 C854 1.334 . S
C855 C856 1.287 . S
C856 C855 1.287 . S
C856 C857 1.524 . S
C856 H875 0.913 . S
C857 H833 0.950 . S
C857 C856 1.524 . S
C857 C858 1.415 . S
C858 H834 0.950 . S
C858 C853 1.363 . S
C858 C857 1.415 . S
C859 H835 0.951 . S
C859 C860 1.366 . S
C859 C861 1.388 . S
C860 C859 1.366 . S
C860 C864 1.385 . S
C861 H836 0.951 . S
C861 C859 1.388 . S
C861 C862 1.366 . S
C862 C861 1.366 . S
C862 C863 1.414 . S
C862 C865 1.499 . S
C863 H837 0.950 . S
C863 C862 1.414 . S
C863 C864 1.374 . S
C864 H838 0.950 . S
C864 C860 1.385 . S
C864 C863 1.374 . S
C865 C862 1.499 . S
C865 C866 1.373 . S
C865 C867 1.389 . S
C866 H839 0.950 . S
C866 C852 1.377 . S
C866 C865 1.373 . S
C867 C851 1.377 . S
C867 C865 1.389 . S
C867 C868 1.524 . S
C868 C867 1.524 . S
C868 C869 1.397 . S
C868 C873 1.363 . S
C869 H840 0.950 . S
C869 C868 1.397 . S
C869 C870 1.334 . S
C870 H841 0.950 . S
C870 C869 1.334 . S
C870 C871 1.287 . S
C871 C870 1.287 . S
C871 C872 1.524 . S
C871 H874 0.999 . S
C872 H842 0.950 . S
C872 C871 1.524 . S
C872 C873 1.415 . S
C873 H843 0.950 . S
C873 C868 1.363 . S
C873 C872 1.415 . S
H874 C871 0.999 . S
H875 C856 0.913 . S
H876 C894 0.951 . S
H877 C896 0.951 . S
H878 C898 0.950 . S
H879 C899 0.950 . S
H880 C901 0.950 . S
H881 C904 0.950 . S
H882 C905 0.950 . S
H883 C907 0.950 . S
H884 C908 0.950 . S
H885 C909 0.951 . S
H886 C911 0.951 . S
H887 C913 0.950 . S
H888 C914 0.950 . S
H889 C916 0.950 . S
H890 C919 0.950 . S
H891 C920 0.950 . S
H892 C922 0.950 . S
H893 C923 0.950 . S
C894 H876 0.951 . S
C894 C895 1.366 . S
C894 C896 1.388 . S
C895 C894 1.366 . S
C895 C899 1.385 . S
C896 H877 0.951 . S
C896 C894 1.388 . S
C896 C897 1.366 . S
C897 C896 1.366 . S
C897 C898 1.414 . S
C897 C900 1.499 . S
C898 H878 0.950 . S
C898 C897 1.414 . S
C898 C899 1.374 . S
C899 H879 0.950 . S
C899 C895 1.385 . S
C899 C898 1.374 . S
C900 C897 1.499 . S
C900 C901 1.373 . S
C900 C902 1.389 . S
C901 H880 0.950 . S
C901 C900 1.373 . S
C901 C917 1.377 . S
C902 C900 1.389 . S
C902 C903 1.524 . S
C902 C916 1.377 . S
C903 C902 1.524 . S
C903 C904 1.397 . S
C903 C908 1.363 . S
C904 H881 0.950 . S
C904 C903 1.397 . S
C904 C905 1.334 . S
C905 H882 0.950 . S
C905 C904 1.334 . S
C905 C906 1.287 . S
C906 C905 1.287 . S
C906 C907 1.524 . S
C906 H925 0.913 . S
C907 H883 0.950 . S
C907 C906 1.524 . S
C907 C908 1.415 . S
C908 H884 0.950 . S
C908 C903 1.363 . S
C908 C907 1.415 . S
C909 H885 0.951 . S
C909 C910 1.366 . S
C909 C911 1.388 . S
C910 C909 1.366 . S
C910 C914 1.385 . S
C911 H886 0.951 . S
C911 C909 1.388 . S
C911 C912 1.366 . S
C912 C911 1.366 . S
C912 C913 1.414 . S
C912 C915 1.499 . S
C913 H887 0.950 . S
C913 C912 1.414 . S
C913 C914 1.374 . S
C914 H888 0.950 . S
C914 C910 1.385 . S
C914 C913 1.374 . S
C915 C912 1.499 . S
C915 C916 1.373 . S
C915 C917 1.389 . S
C916 H889 0.950 . S
C916 C902 1.377 . S
C916 C915 1.373 . S
C917 C901 1.377 . S
C917 C915 1.389 . S
C917 C918 1.524 . S
C918 C917 1.524 . S
C918 C919 1.397 . S
C918 C923 1.363 . S
C919 H890 0.950 . S
C919 C918 1.397 . S
C919 C920 1.334 . S
C920 H891 0.950 . S
C920 C919 1.334 . S
C920 C921 1.287 . S
C921 C920 1.287 . S
C921 C922 1.524 . S
C921 H924 0.999 . S
C922 H892 0.950 . S
C922 C921 1.524 . S
C922 C923 1.415 . S
C923 H893 0.950 . S
C923 C918 1.363 . S
C923 C922 1.415 . S
H924 C921 0.999 . S
H925 C906 0.913 . S
H926 C944 0.951 . S
H927 C946 0.951 . S
H928 C948 0.950 . S
H929 C949 0.950 . S
H930 C951 0.950 . S
H931 C954 0.950 . S
H932 C955 0.950 . S
H933 C957 0.950 . S
H934 C958 0.950 . S
H935 C959 0.951 . S
H936 C961 0.951 . S
H937 C963 0.950 . S
H938 C964 0.950 . S
H939 C966 0.950 . S
H940 C969 0.950 . S
H941 C970 0.950 . S
H942 C972 0.950 . S
H943 C973 0.950 . S
C944 H926 0.951 . S
C944 C945 1.366 . S
C944 C946 1.388 . S
C945 C944 1.366 . S
C945 C949 1.385 . S
C946 H927 0.951 . S
C946 C944 1.388 . S
C946 C947 1.366 . S
C947 C946 1.366 . S
C947 C948 1.414 . S
C947 C950 1.499 . S
C948 H928 0.950 . S
C948 C947 1.414 . S
C948 C949 1.374 . S
C949 H929 0.950 . S
C949 C945 1.385 . S
C949 C948 1.374 . S
C950 C947 1.499 . S
C950 C951 1.373 . S
C950 C952 1.389 . S
C951 H930 0.950 . S
C951 C950 1.373 . S
C951 C967 1.377 . S
C952 C950 1.389 . S
C952 C953 1.524 . S
C952 C966 1.377 . S
C953 C952 1.524 . S
C953 C954 1.397 . S
C953 C958 1.363 . S
C954 H931 0.950 . S
C954 C953 1.397 . S
C954 C955 1.334 . S
C955 H932 0.950 . S
C955 C954 1.334 . S
C955 C956 1.287 . S
C956 C955 1.287 . S
C956 C957 1.524 . S
C956 H975 0.913 1_565 S
C957 H933 0.950 . S
C957 C956 1.524 . S
C957 C958 1.415 . S
C958 H934 0.950 . S
C958 C953 1.363 . S
C958 C957 1.415 . S
C959 H935 0.951 . S
C959 C960 1.366 . S
C959 C961 1.388 . S
C960 C959 1.366 . S
C960 C964 1.385 . S
C961 H936 0.951 . S
C961 C959 1.388 . S
C961 C962 1.366 . S
C962 C961 1.366 . S
C962 C963 1.414 . S
C962 C965 1.499 . S
C963 H937 0.950 . S
C963 C962 1.414 . S
C963 C964 1.374 . S
C964 H938 0.950 . S
C964 C960 1.385 . S
C964 C963 1.374 . S
C965 C962 1.499 . S
C965 C966 1.373 . S
C965 C967 1.389 . S
C966 H939 0.950 . S
C966 C952 1.377 . S
C966 C965 1.373 . S
C967 C951 1.377 . S
C967 C965 1.389 . S
C967 C968 1.524 . S
C968 C967 1.524 . S
C968 C969 1.397 . S
C968 C973 1.363 . S
C969 H940 0.950 . S
C969 C968 1.397 . S
C969 C970 1.334 . S
C970 H941 0.950 . S
C970 C969 1.334 . S
C970 C971 1.287 . S
C971 C970 1.287 . S
C971 C972 1.524 . S
C971 H974 0.999 . S
C972 H942 0.950 . S
C972 C971 1.524 . S
C972 C973 1.415 . S
C973 H943 0.950 . S
C973 C968 1.363 . S
C973 C972 1.415 . S
H974 C971 0.999 . S
H975 C956 0.913 1_545 S
H976 C994 0.951 . S
H977 C996 0.951 . S
H978 C998 0.950 . S
H979 C999 0.950 . S
H980 C1001 0.950 . S
H981 C1004 0.950 . S
H982 C1005 0.950 . S
H983 C1007 0.950 . S
H984 C1008 0.950 . S
H985 C1009 0.951 . S
H986 C1011 0.951 . S
H987 C1013 0.950 . S
H988 C1014 0.950 . S
H989 C1016 0.950 . S
H990 C1019 0.950 . S
H991 C1020 0.950 . S
H992 C1022 0.950 . S
H993 C1023 0.950 . S
C994 H976 0.951 . S
C994 C995 1.366 . S
C994 C996 1.388 . S
C995 C994 1.366 . S
C995 C999 1.385 . S
C996 H977 0.951 . S
C996 C994 1.388 . S
C996 C997 1.366 . S
C997 C996 1.366 . S
C997 C998 1.414 . S
C997 C1000 1.499 . S
C998 H978 0.950 . S
C998 C997 1.414 . S
C998 C999 1.374 . S
C999 H979 0.950 . S
C999 C995 1.385 . S
C999 C998 1.374 . S
C1000 C997 1.499 . S
C1000 C1001 1.373 . S
C1000 C1002 1.389 . S
C1001 H980 0.950 . S
C1001 C1000 1.373 . S
C1001 C1017 1.377 . S
C1002 C1000 1.389 . S
C1002 C1003 1.524 . S
C1002 C1016 1.377 . S
C1003 C1002 1.524 . S
C1003 C1004 1.397 . S
C1003 C1008 1.363 . S
C1004 H981 0.950 . S
C1004 C1003 1.397 . S
C1004 C1005 1.334 . S
C1005 H982 0.950 . S
C1005 C1004 1.334 . S
C1005 C1006 1.287 . S
C1006 C1005 1.287 . S
C1006 C1007 1.524 . S
C1006 H1025 0.913 . S
C1007 H983 0.950 . S
C1007 C1006 1.524 . S
C1007 C1008 1.415 . S
C1008 H984 0.950 . S
C1008 C1003 1.363 . S
C1008 C1007 1.415 . S
C1009 H985 0.951 . S
C1009 C1010 1.366 . S
C1009 C1011 1.388 . S
C1010 C1009 1.366 . S
C1010 C1014 1.385 . S
C1011 H986 0.951 . S
C1011 C1009 1.388 . S
C1011 C1012 1.366 . S
C1012 C1011 1.366 . S
C1012 C1013 1.414 . S
C1012 C1015 1.499 . S
C1013 H987 0.950 . S
C1013 C1012 1.414 . S
C1013 C1014 1.374 . S
C1014 H988 0.950 . S
C1014 C1010 1.385 . S
C1014 C1013 1.374 . S
C1015 C1012 1.499 . S
C1015 C1016 1.373 . S
C1015 C1017 1.389 . S
C1016 H989 0.950 . S
C1016 C1002 1.377 . S
C1016 C1015 1.373 . S
C1017 C1001 1.377 . S
C1017 C1015 1.389 . S
C1017 C1018 1.524 . S
C1018 C1017 1.524 . S
C1018 C1019 1.397 . S
C1018 C1023 1.363 . S
C1019 H990 0.950 . S
C1019 C1018 1.397 . S
C1019 C1020 1.334 . S
C1020 H991 0.950 . S
C1020 C1019 1.334 . S
C1020 C1021 1.287 . S
C1021 C1020 1.287 . S
C1021 C1022 1.524 . S
C1021 H1024 0.999 . S
C1022 H992 0.950 . S
C1022 C1021 1.524 . S
C1022 C1023 1.415 . S
C1023 H993 0.950 . S
C1023 C1018 1.363 . S
C1023 C1022 1.415 . S
H1024 C1021 0.999 . S
H1025 C1006 0.913 . S
H1026 C1044 0.951 . S
H1027 C1046 0.951 . S
H1028 C1048 0.950 . S
H1029 C1049 0.950 . S
H1030 C1051 0.950 . S
H1031 C1054 0.950 . S
H1032 C1055 0.950 . S
H1033 C1057 0.950 . S
H1034 C1058 0.950 . S
H1035 C1059 0.951 . S
H1036 C1061 0.951 . S
H1037 C1063 0.950 . S
H1038 C1064 0.950 . S
H1039 C1066 0.950 . S
H1040 C1069 0.950 . S
H1041 C1070 0.950 . S
H1042 C1072 0.950 . S
H1043 C1073 0.950 . S
C1044 H1026 0.951 . S
C1044 C1045 1.366 . S
C1044 C1046 1.388 . S
C1045 C1044 1.366 . S
C1045 C1049 1.385 . S
C1046 H1027 0.951 . S
C1046 C1044 1.388 . S
C1046 C1047 1.366 . S
C1047 C1046 1.366 . S
C1047 C1048 1.414 . S
C1047 C1050 1.499 . S
C1048 H1028 0.950 . S
C1048 C1047 1.414 . S
C1048 C1049 1.374 . S
C1049 H1029 0.950 . S
C1049 C1045 1.385 . S
C1049 C1048 1.374 . S
C1050 C1047 1.499 . S
C1050 C1051 1.373 . S
C1050 C1052 1.389 . S
C1051 H1030 0.950 . S
C1051 C1050 1.373 . S
C1051 C1067 1.377 . S
C1052 C1050 1.389 . S
C1052 C1053 1.524 . S
C1052 C1066 1.377 . S
C1053 C1052 1.524 . S
C1053 C1054 1.397 . S
C1053 C1058 1.363 . S
C1054 H1031 0.950 . S
C1054 C1053 1.397 . S
C1054 C1055 1.334 . S
C1055 H1032 0.950 . S
C1055 C1054 1.334 . S
C1055 C1056 1.287 . S
C1056 C1055 1.287 . S
C1056 C1057 1.524 . S
C1056 H1075 0.913 . S
C1057 H1033 0.950 . S
C1057 C1056 1.524 . S
C1057 C1058 1.415 . S
C1058 H1034 0.950 . S
C1058 C1053 1.363 . S
C1058 C1057 1.415 . S
C1059 H1035 0.951 . S
C1059 C1060 1.366 . S
C1059 C1061 1.388 . S
C1060 C1059 1.366 . S
C1060 C1064 1.385 . S
C1061 H1036 0.951 . S
C1061 C1059 1.388 . S
C1061 C1062 1.366 . S
C1062 C1061 1.366 . S
C1062 C1063 1.414 . S
C1062 C1065 1.499 . S
C1063 H1037 0.950 . S
C1063 C1062 1.414 . S
C1063 C1064 1.374 . S
C1064 H1038 0.950 . S
C1064 C1060 1.385 . S
C1064 C1063 1.374 . S
C1065 C1062 1.499 . S
C1065 C1066 1.373 . S
C1065 C1067 1.389 . S
C1066 H1039 0.950 . S
C1066 C1052 1.377 . S
C1066 C1065 1.373 . S
C1067 C1051 1.377 . S
C1067 C1065 1.389 . S
C1067 C1068 1.524 . S
C1068 C1067 1.524 . S
C1068 C1069 1.397 . S
C1068 C1073 1.363 . S
C1069 H1040 0.950 . S
C1069 C1068 1.397 . S
C1069 C1070 1.334 . S
C1070 H1041 0.950 . S
C1070 C1069 1.334 . S
C1070 C1071 1.287 . S
C1071 C1070 1.287 . S
C1071 C1072 1.524 . S
C1071 H1074 0.999 . S
C1072 H1042 0.950 . S
C1072 C1071 1.524 . S
C1072 C1073 1.415 . S
C1073 H1043 0.950 . S
C1073 C1068 1.363 . S
C1073 C1072 1.415 . S
H1074 C1071 0.999 . S
H1075 C1056 0.913 . S
H1076 C1094 0.951 . S
H1077 C1096 0.951 . S
H1078 C1098 0.950 . S
H1079 C1099 0.950 . S
H1080 C1101 0.950 . S
H1081 C1104 0.950 . S
H1082 C1105 0.950 . S
H1083 C1107 0.950 . S
H1084 C1108 0.950 . S
H1085 C1109 0.951 . S
H1086 C1111 0.951 . S
H1087 C1113 0.950 . S
H1088 C1114 0.950 . S
H1089 C1116 0.950 . S
H1090 C1119 0.950 . S
H1091 C1120 0.950 . S
H1092 C1122 0.950 . S
H1093 C1123 0.950 . S
C1094 H1076 0.951 . S
C1094 C1095 1.366 . S
C1094 C1096 1.388 . S
C1095 C1094 1.366 . S
C1095 C1099 1.385 . S
C1096 H1077 0.951 . S
C1096 C1094 1.388 . S
C1096 C1097 1.366 . S
C1097 C1096 1.366 . S
C1097 C1098 1.414 . S
C1097 C1100 1.499 . S
C1098 H1078 0.950 . S
C1098 C1097 1.414 . S
C1098 C1099 1.374 . S
C1099 H1079 0.950 . S
C1099 C1095 1.385 . S
C1099 C1098 1.374 . S
C1100 C1097 1.499 . S
C1100 C1101 1.373 . S
C1100 C1102 1.389 . S
C1101 H1080 0.950 . S
C1101 C1100 1.373 . S
C1101 C1117 1.377 . S
C1102 C1100 1.389 . S
C1102 C1103 1.524 . S
C1102 C1116 1.377 . S
C1103 C1102 1.524 . S
C1103 C1104 1.397 . S
C1103 C1108 1.363 . S
C1104 H1081 0.950 . S
C1104 C1103 1.397 . S
C1104 C1105 1.334 . S
C1105 H1082 0.950 . S
C1105 C1104 1.334 . S
C1105 C1106 1.287 . S
C1106 C1105 1.287 . S
C1106 C1107 1.524 . S
C1106 H1125 0.913 . S
C1107 H1083 0.950 . S
C1107 C1106 1.524 . S
C1107 C1108 1.415 . S
C1108 H1084 0.950 . S
C1108 C1103 1.363 . S
C1108 C1107 1.415 . S
C1109 H1085 0.951 . S
C1109 C1110 1.366 . S
C1109 C1111 1.388 . S
C1110 C1109 1.366 . S
C1110 C1114 1.385 . S
C1111 H1086 0.951 . S
C1111 C1109 1.388 . S
C1111 C1112 1.366 . S
C1112 C1111 1.366 . S
C1112 C1113 1.414 . S
C1112 C1115 1.499 . S
C1113 H1087 0.950 . S
C1113 C1112 1.414 . S
C1113 C1114 1.374 . S
C1114 H1088 0.950 . S
C1114 C1110 1.385 . S
C1114 C1113 1.374 . S
C1115 C1112 1.499 . S
C1115 C1116 1.373 . S
C1115 C1117 1.389 . S
C1116 H1089 0.950 . S
C1116 C1102 1.377 . S
C1116 C1115 1.373 . S
C1117 C1101 1.377 . S
C1117 C1115 1.389 . S
C1117 C1118 1.524 . S
C1118 C1117 1.524 . S
C1118 C1119 1.397 . S
C1118 C1123 1.363 . S
C1119 H1090 0.950 . S
C1119 C1118 1.397 . S
C1119 C1120 1.334 . S
C1120 H1091 0.950 . S
C1120 C1119 1.334 . S
C1120 C1121 1.287 . S
C1121 C1120 1.287 . S
C1121 C1122 1.524 . S
C1121 H1124 0.999 . S
C1122 H1092 0.950 . S
C1122 C1121 1.524 . S
C1122 C1123 1.415 . S
C1123 H1093 0.950 . S
C1123 C1118 1.363 . S
C1123 C1122 1.415 . S
H1124 C1121 0.999 . S
H1125 C1106 0.913 . S
H1126 C1144 0.951 . S
H1127 C1146 0.951 . S
H1128 C1148 0.950 . S
H1129 C1149 0.950 . S
H1130 C1151 0.950 . S
H1131 C1154 0.950 . S
H1132 C1155 0.950 . S
H1133 C1157 0.950 . S
H1134 C1158 0.950 . S
H1135 C1159 0.951 . S
H1136 C1161 0.951 . S
H1137 C1163 0.950 . S
H1138 C1164 0.950 . S
H1139 C1166 0.950 . S
H1140 C1169 0.950 . S
H1141 C1170 0.950 . S
H1142 C1172 0.950 . S
H1143 C1173 0.950 . S
C1144 H1126 0.951 . S
C1144 C1145 1.366 . S
C1144 C1146 1.388 . S
C1145 C1144 1.366 . S
C1145 C1149 1.385 . S
C1146 H1127 0.951 . S
C1146 C1144 1.388 . S
C1146 C1147 1.366 . S
C1147 C1146 1.366 . S
C1147 C1148 1.414 . S
C1147 C1150 1.499 . S
C1148 H1128 0.950 . S
C1148 C1147 1.414 . S
C1148 C1149 1.374 . S
C1149 H1129 0.950 . S
C1149 C1145 1.385 . S
C1149 C1148 1.374 . S
C1150 C1147 1.499 . S
C1150 C1151 1.373 . S
C1150 C1152 1.389 . S
C1151 H1130 0.950 . S
C1151 C1150 1.373 . S
C1151 C1167 1.377 . S
C1152 C1150 1.389 . S
C1152 C1153 1.524 . S
C1152 C1166 1.377 . S
C1153 C1152 1.524 . S
C1153 C1154 1.397 . S
C1153 C1158 1.363 . S
C1154 H1131 0.950 . S
C1154 C1153 1.397 . S
C1154 C1155 1.334 . S
C1155 H1132 0.950 . S
C1155 C1154 1.334 . S
C1155 C1156 1.287 . S
C1156 C1155 1.287 . S
C1156 C1157 1.524 . S
C1156 H1175 0.913 . S
C1157 H1133 0.950 . S
C1157 C1156 1.524 . S
C1157 C1158 1.415 . S
C1158 H1134 0.950 . S
C1158 C1153 1.363 . S
C1158 C1157 1.415 . S
C1159 H1135 0.951 . S
C1159 C1160 1.366 . S
C1159 C1161 1.388 . S
C1160 C1159 1.366 . S
C1160 C1164 1.385 . S
C1161 H1136 0.951 . S
C1161 C1159 1.388 . S
C1161 C1162 1.366 . S
C1162 C1161 1.366 . S
C1162 C1163 1.414 . S
C1162 C1165 1.499 . S
C1163 H1137 0.950 . S
C1163 C1162 1.414 . S
C1163 C1164 1.374 . S
C1164 H1138 0.950 . S
C1164 C1160 1.385 . S
C1164 C1163 1.374 . S
C1165 C1162 1.499 . S
C1165 C1166 1.373 . S
C1165 C1167 1.389 . S
C1166 H1139 0.950 . S
C1166 C1152 1.377 . S
C1166 C1165 1.373 . S
C1167 C1151 1.377 . S
C1167 C1165 1.389 . S
C1167 C1168 1.524 . S
C1168 C1167 1.524 . S
C1168 C1169 1.397 . S
C1168 C1173 1.363 . S
C1169 H1140 0.950 . S
C1169 C1168 1.397 . S
C1169 C1170 1.334 . S
C1170 H1141 0.950 . S
C1170 C1169 1.334 . S
C1170 C1171 1.287 . S
C1171 C1170 1.287 . S
C1171 C1172 1.524 . S
C1171 H1174 0.999 . S
C1172 H1142 0.950 . S
C1172 C1171 1.524 . S
C1172 C1173 1.415 . S
C1173 H1143 0.950 . S
C1173 C1168 1.363 . S
C1173 C1172 1.415 . S
H1174 C1171 0.999 . S
H1175 C1156 0.913 . S
H1176 C1194 0.951 . S
H1177 C1196 0.951 . S
H1178 C1198 0.950 . S
H1179 C1199 0.950 . S
H1180 C1201 0.950 . S
H1181 C1204 0.950 . S
H1182 C1205 0.950 . S
H1183 C1207 0.950 . S
H1184 C1208 0.950 . S
H1185 C1209 0.951 . S
H1186 C1211 0.951 . S
H1187 C1213 0.950 . S
H1188 C1214 0.950 . S
H1189 C1216 0.950 . S
H1190 C1219 0.950 . S
H1191 C1220 0.950 . S
H1192 C1222 0.950 . S
H1193 C1223 0.950 . S
C1194 H1176 0.951 . S
C1194 C1195 1.366 . S
C1194 C1196 1.388 . S
C1195 C1194 1.366 . S
C1195 C1199 1.385 . S
C1196 H1177 0.951 . S
C1196 C1194 1.388 . S
C1196 C1197 1.366 . S
C1197 C1196 1.366 . S
C1197 C1198 1.414 . S
C1197 C1200 1.499 . S
C1198 H1178 0.950 . S
C1198 C1197 1.414 . S
C1198 C1199 1.374 . S
C1199 H1179 0.950 . S
C1199 C1195 1.385 . S
C1199 C1198 1.374 . S
C1200 C1197 1.499 . S
C1200 C1201 1.373 . S
C1200 C1202 1.389 . S
C1201 H1180 0.950 . S
C1201 C1200 1.373 . S
C1201 C1217 1.377 . S
C1202 C1200 1.389 . S
C1202 C1203 1.524 . S
C1202 C1216 1.377 . S
C1203 C1202 1.524 . S
C1203 C1204 1.397 . S
C1203 C1208 1.363 . S
C1204 H1181 0.950 . S
C1204 C1203 1.397 . S
C1204 C1205 1.334 . S
C1205 H1182 0.950 . S
C1205 C1204 1.334 . S
C1205 C1206 1.287 . S
C1206 C1205 1.287 . S
C1206 C1207 1.524 . S
C1206 H1225 0.913 . S
C1207 H1183 0.950 . S
C1207 C1206 1.524 . S
C1207 C1208 1.415 . S
C1208 H1184 0.950 . S
C1208 C1203 1.363 . S
C1208 C1207 1.415 . S
C1209 H1185 0.951 . S
C1209 C1210 1.366 . S
C1209 C1211 1.388 . S
C1210 C1209 1.366 . S
C1210 C1214 1.385 . S
C1211 H1186 0.951 . S
C1211 C1209 1.388 . S
C1211 C1212 1.366 . S
C1212 C1211 1.366 . S
C1212 C1213 1.414 . S
C1212 C1215 1.499 . S
C1213 H1187 0.950 . S
C1213 C1212 1.414 . S
C1213 C1214 1.374 . S
C1214 H1188 0.950 . S
C1214 C1210 1.385 . S
C1214 C1213 1.374 . S
C1215 C1212 1.499 . S
C1215 C1216 1.373 . S
C1215 C1217 1.389 . S
C1216 H1189 0.950 . S
C1216 C1202 1.377 . S
C1216 C1215 1.373 . S
C1217 C1201 1.377 . S
C1217 C1215 1.389 . S
C1217 C1218 1.524 . S
C1218 C1217 1.524 . S
C1218 C1219 1.397 . S
C1218 C1223 1.363 . S
C1219 H1190 0.950 . S
C1219 C1218 1.397 . S
C1219 C1220 1.334 . S
C1220 H1191 0.950 . S
C1220 C1219 1.334 . S
C1220 C1221 1.287 . S
C1221 C1220 1.287 . S
C1221 C1222 1.524 . S
C1221 H1224 0.999 . S
C1222 H1192 0.950 . S
C1222 C1221 1.524 . S
C1222 C1223 1.415 . S
C1223 H1193 0.950 . S
C1223 C1218 1.363 . S
C1223 C1222 1.415 . S
H1224 C1221 0.999 . S
H1225 C1206 0.913 . S
H1226 C1244 0.951 . S
H1227 C1246 0.951 . S
H1228 C1248 0.950 . S
H1229 C1249 0.950 . S
H1230 C1251 0.950 . S
H1231 C1254 0.950 . S
H1232 C1255 0.950 . S
H1233 C1257 0.950 . S
H1234 C1258 0.950 . S
H1235 C1259 0.951 . S
H1236 C1261 0.951 . S
H1237 C1263 0.950 . S
H1238 C1264 0.950 . S
H1239 C1266 0.950 . S
H1240 C1269 0.950 . S
H1241 C1270 0.950 . S
H1242 C1272 0.950 . S
H1243 C1273 0.950 . S
C1244 H1226 0.951 . S
C1244 C1245 1.366 . S
C1244 C1246 1.388 . S
C1245 C1244 1.366 . S
C1245 C1249 1.385 . S
C1246 H1227 0.951 . S
C1246 C1244 1.388 . S
C1246 C1247 1.366 . S
C1247 C1246 1.366 . S
C1247 C1248 1.414 . S
C1247 C1250 1.499 . S
C1248 H1228 0.950 . S
C1248 C1247 1.414 . S
C1248 C1249 1.374 . S
C1249 H1229 0.950 . S
C1249 C1245 1.385 . S
C1249 C1248 1.374 . S
C1250 C1247 1.499 . S
C1250 C1251 1.373 . S
C1250 C1252 1.389 . S
C1251 H1230 0.950 . S
C1251 C1250 1.373 . S
C1251 C1267 1.377 . S
C1252 C1250 1.389 . S
C1252 C1253 1.524 . S
C1252 C1266 1.377 . S
C1253 C1252 1.524 . S
C1253 C1254 1.397 . S
C1253 C1258 1.363 . S
C1254 H1231 0.950 . S
C1254 C1253 1.397 . S
C1254 C1255 1.334 . S
C1255 H1232 0.950 . S
C1255 C1254 1.334 . S
C1255 C1256 1.287 . S
C1256 C1255 1.287 . S
C1256 C1257 1.524 . S
C1256 H1275 0.913 . S
C1257 H1233 0.950 . S
C1257 C1256 1.524 . S
C1257 C1258 1.415 . S
C1258 H1234 0.950 . S
C1258 C1253 1.363 . S
C1258 C1257 1.415 . S
C1259 H1235 0.951 . S
C1259 C1260 1.366 . S
C1259 C1261 1.388 . S
C1260 C1259 1.366 . S
C1260 C1264 1.385 . S
C1261 H1236 0.951 . S
C1261 C1259 1.388 . S
C1261 C1262 1.366 . S
C1262 C1261 1.366 . S
C1262 C1263 1.414 . S
C1262 C1265 1.499 . S
C1263 H1237 0.950 . S
C1263 C1262 1.414 . S
C1263 C1264 1.374 . S
C1264 H1238 0.950 . S
C1264 C1260 1.385 . S
C1264 C1263 1.374 . S
C1265 C1262 1.499 . S
C1265 C1266 1.373 . S
C1265 C1267 1.389 . S
C1266 H1239 0.950 . S
C1266 C1252 1.377 . S
C1266 C1265 1.373 . S
C1267 C1251 1.377 . S
C1267 C1265 1.389 . S
C1267 C1268 1.524 . S
C1268 C1267 1.524 . S
C1268 C1269 1.397 . S
C1268 C1273 1.363 . S
C1269 H1240 0.950 . S
C1269 C1268 1.397 . S
C1269 C1270 1.334 . S
C1270 H1241 0.950 . S
C1270 C1269 1.334 . S
C1270 C1271 1.287 . S
C1271 C1270 1.287 . S
C1271 C1272 1.524 . S
C1271 H1274 0.999 . S
C1272 H1242 0.950 . S
C1272 C1271 1.524 . S
C1272 C1273 1.415 . S
C1273 H1243 0.950 . S
C1273 C1268 1.363 . S
C1273 C1272 1.415 . S
H1274 C1271 0.999 . S
H1275 C1256 0.913 . S
H1276 C1294 0.951 . S
H1277 C1296 0.951 . S
H1278 C1298 0.950 . S
H1279 C1299 0.950 . S
H1280 C1301 0.950 . S
H1281 C1304 0.950 . S
H1282 C1305 0.950 . S
H1283 C1307 0.950 . S
H1284 C1308 0.950 . S
H1285 C1309 0.951 . S
H1286 C1311 0.951 . S
H1287 C1313 0.950 . S
H1288 C1314 0.950 . S
H1289 C1316 0.950 . S
H1290 C1319 0.950 . S
H1291 C1320 0.950 . S
H1292 C1322 0.950 . S
H1293 C1323 0.950 . S
C1294 H1276 0.951 . S
C1294 C1295 1.366 . S
C1294 C1296 1.388 . S
C1295 C1294 1.366 . S
C1295 C1299 1.385 . S
C1296 H1277 0.951 . S
C1296 C1294 1.388 . S
C1296 C1297 1.366 . S
C1297 C1296 1.366 . S
C1297 C1298 1.414 . S
C1297 C1300 1.499 . S
C1298 H1278 0.950 . S
C1298 C1297 1.414 . S
C1298 C1299 1.374 . S
C1299 H1279 0.950 . S
C1299 C1295 1.385 . S
C1299 C1298 1.374 . S
C1300 C1297 1.499 . S
C1300 C1301 1.373 . S
C1300 C1302 1.389 . S
C1301 H1280 0.950 . S
C1301 C1300 1.373 . S
C1301 C1317 1.377 . S
C1302 C1300 1.389 . S
C1302 C1303 1.524 . S
C1302 C1316 1.377 . S
C1303 C1302 1.524 . S
C1303 C1304 1.397 . S
C1303 C1308 1.363 . S
C1304 H1281 0.950 . S
C1304 C1303 1.397 . S
C1304 C1305 1.334 . S
C1305 H1282 0.950 . S
C1305 C1304 1.334 . S
C1305 C1306 1.287 . S
C1306 C1305 1.287 . S
C1306 C1307 1.524 . S
C1306 H1325 0.913 . S
C1307 H1283 0.950 . S
C1307 C1306 1.524 . S
C1307 C1308 1.415 . S
C1308 H1284 0.950 . S
C1308 C1303 1.363 . S
C1308 C1307 1.415 . S
C1309 H1285 0.951 . S
C1309 C1310 1.366 . S
C1309 C1311 1.388 . S
C1310 C1309 1.366 . S
C1310 C1314 1.385 . S
C1311 H1286 0.951 . S
C1311 C1309 1.388 . S
C1311 C1312 1.366 . S
C1312 C1311 1.366 . S
C1312 C1313 1.414 . S
C1312 C1315 1.499 . S
C1313 H1287 0.950 . S
C1313 C1312 1.414 . S
C1313 C1314 1.374 . S
C1314 H1288 0.950 . S
C1314 C1310 1.385 . S
C1314 C1313 1.374 . S
C1315 C1312 1.499 . S
C1315 C1316 1.373 . S
C1315 C1317 1.389 . S
C1316 H1289 0.950 . S
C1316 C1302 1.377 . S
C1316 C1315 1.373 . S
C1317 C1301 1.377 . S
C1317 C1315 1.389 . S
C1317 C1318 1.524 . S
C1318 C1317 1.524 . S
C1318 C1319 1.397 . S
C1318 C1323 1.363 . S
C1319 H1290 0.950 . S
C1319 C1318 1.397 . S
C1319 C1320 1.334 . S
C1320 H1291 0.950 . S
C1320 C1319 1.334 . S
C1320 C1321 1.287 . S
C1321 C1320 1.287 . S
C1321 C1322 1.524 . S
C1321 H1324 0.999 . S
C1322 H1292 0.950 . S
C1322 C1321 1.524 . S
C1322 C1323 1.415 . S
C1323 H1293 0.950 . S
C1323 C1318 1.363 . S
C1323 C1322 1.415 . S
H1324 C1321 0.999 . S
H1325 C1306 0.913 . S
H1326 C1344 0.951 . S
H1327 C1346 0.951 . S
H1328 C1348 0.950 . S
H1329 C1349 0.950 . S
H1330 C1351 0.950 . S
H1331 C1354 0.950 . S
H1332 C1355 0.950 . S
H1333 C1357 0.950 . S
H1334 C1358 0.950 . S
H1335 C1359 0.951 . S
H1336 C1361 0.951 . S
H1337 C1363 0.950 . S
H1338 C1364 0.950 . S
H1339 C1366 0.950 . S
H1340 C1369 0.950 . S
H1341 C1370 0.950 . S
H1342 C1372 0.950 . S
H1343 C1373 0.950 . S
C1344 H1326 0.951 . S
C1344 C1345 1.366 . S
C1344 C1346 1.388 . S
C1345 C1344 1.366 . S
C1345 C1349 1.385 . S
C1346 H1327 0.951 . S
C1346 C1344 1.388 . S
C1346 C1347 1.366 . S
C1347 C1346 1.366 . S
C1347 C1348 1.414 . S
C1347 C1350 1.499 . S
C1348 H1328 0.950 . S
C1348 C1347 1.414 . S
C1348 C1349 1.374 . S
C1349 H1329 0.950 . S
C1349 C1345 1.385 . S
C1349 C1348 1.374 . S
C1350 C1347 1.499 . S
C1350 C1351 1.373 . S
C1350 C1352 1.389 . S
C1351 H1330 0.950 . S
C1351 C1350 1.373 . S
C1351 C1367 1.377 . S
C1352 C1350 1.389 . S
C1352 C1353 1.524 . S
C1352 C1366 1.377 . S
C1353 C1352 1.524 . S
C1353 C1354 1.397 . S
C1353 C1358 1.363 . S
C1354 H1331 0.950 . S
C1354 C1353 1.397 . S
C1354 C1355 1.334 . S
C1355 H1332 0.950 . S
C1355 C1354 1.334 . S
C1355 C1356 1.287 . S
C1356 C1355 1.287 . S
C1356 C1357 1.524 . S
C1356 H1375 0.913 . S
C1357 H1333 0.950 . S
C1357 C1356 1.524 . S
C1357 C1358 1.415 . S
C1358 H1334 0.950 . S
C1358 C1353 1.363 . S
C1358 C1357 1.415 . S
C1359 H1335 0.951 . S
C1359 C1360 1.366 . S
C1359 C1361 1.388 . S
C1360 C1359 1.366 . S
C1360 C1364 1.385 . S
C1361 H1336 0.951 . S
C1361 C1359 1.388 . S
C1361 C1362 1.366 . S
C1362 C1361 1.366 . S
C1362 C1363 1.414 . S
C1362 C1365 1.499 . S
C1363 H1337 0.950 . S
C1363 C1362 1.414 . S
C1363 C1364 1.374 . S
C1364 H1338 0.950 . S
C1364 C1360 1.385 . S
C1364 C1363 1.374 . S
C1365 C1362 1.499 . S
C1365 C1366 1.373 . S
C1365 C1367 1.389 . S
C1366 H1339 0.950 . S
C1366 C1352 1.377 . S
C1366 C1365 1.373 . S
C1367 C1351 1.377 . S
C1367 C1365 1.389 . S
C1367 C1368 1.524 . S
C1368 C1367 1.524 . S
C1368 C1369 1.397 . S
C1368 C1373 1.363 . S
C1369 H1340 0.950 . S
C1369 C1368 1.397 . S
C1369 C1370 1.334 . S
C1370 H1341 0.950 . S
C1370 C1369 1.334 . S
C1370 C1371 1.287 . S
C1371 C1370 1.287 . S
C1371 C1372 1.524 . S
C1371 H1374 0.999 . S
C1372 H1342 0.950 . S
C1372 C1371 1.524 . S
C1372 C1373 1.415 . S
C1373 H1343 0.950 . S
C1373 C1368 1.363 . S
C1373 C1372 1.415 . S
H1374 C1371 0.999 . S
H1375 C1356 0.913 . S
H1376 C1394 0.951 . S
H1377 C1396 0.951 . S
H1378 C1398 0.950 . S
H1379 C1399 0.950 . S
H1380 C1401 0.950 . S
H1381 C1404 0.950 . S
H1382 C1405 0.950 . S
H1383 C1407 0.950 . S
H1384 C1408 0.950 . S
H1385 C1409 0.951 . S
H1386 C1411 0.951 . S
H1387 C1413 0.950 . S
H1388 C1414 0.950 . S
H1389 C1416 0.950 . S
H1390 C1419 0.950 . S
H1391 C1420 0.950 . S
H1392 C1422 0.950 . S
H1393 C1423 0.950 . S
C1394 H1376 0.951 . S
C1394 C1395 1.366 . S
C1394 C1396 1.388 . S
C1395 C1394 1.366 . S
C1395 C1399 1.385 . S
C1396 H1377 0.951 . S
C1396 C1394 1.388 . S
C1396 C1397 1.366 . S
C1397 C1396 1.366 . S
C1397 C1398 1.414 . S
C1397 C1400 1.499 . S
C1398 H1378 0.950 . S
C1398 C1397 1.414 . S
C1398 C1399 1.374 . S
C1399 H1379 0.950 . S
C1399 C1395 1.385 . S
C1399 C1398 1.374 . S
C1400 C1397 1.499 . S
C1400 C1401 1.373 . S
C1400 C1402 1.389 . S
C1401 H1380 0.950 . S
C1401 C1400 1.373 . S
C1401 C1417 1.377 . S
C1402 C1400 1.389 . S
C1402 C1403 1.524 . S
C1402 C1416 1.377 . S
C1403 C1402 1.524 . S
C1403 C1404 1.397 . S
C1403 C1408 1.363 . S
C1404 H1381 0.950 . S
C1404 C1403 1.397 . S
C1404 C1405 1.334 . S
C1405 H1382 0.950 . S
C1405 C1404 1.334 . S
C1405 C1406 1.287 . S
C1406 C1405 1.287 . S
C1406 C1407 1.524 . S
C1406 H1425 0.913 . S
C1407 H1383 0.950 . S
C1407 C1406 1.524 . S
C1407 C1408 1.415 . S
C1408 H1384 0.950 . S
C1408 C1403 1.363 . S
C1408 C1407 1.415 . S
C1409 H1385 0.951 . S
C1409 C1410 1.366 . S
C1409 C1411 1.388 . S
C1410 C1409 1.366 . S
C1410 C1414 1.385 . S
C1411 H1386 0.951 . S
C1411 C1409 1.388 . S
C1411 C1412 1.366 . S
C1412 C1411 1.366 . S
C1412 C1413 1.414 . S
C1412 C1415 1.499 . S
C1413 H1387 0.950 . S
C1413 C1412 1.414 . S
C1413 C1414 1.374 . S
C1414 H1388 0.950 . S
C1414 C1410 1.385 . S
C1414 C1413 1.374 . S
C1415 C1412 1.499 . S
C1415 C1416 1.373 . S
C1415 C1417 1.389 . S
C1416 H1389 0.950 . S
C1416 C1402 1.377 . S
C1416 C1415 1.373 . S
C1417 C1401 1.377 . S
C1417 C1415 1.389 . S
C1417 C1418 1.524 . S
C1418 C1417 1.524 . S
C1418 C1419 1.397 . S
C1418 C1423 1.363 . S
C1419 H1390 0.950 . S
C1419 C1418 1.397 . S
C1419 C1420 1.334 . S
C1420 H1391 0.950 . S
C1420 C1419 1.334 . S
C1420 C1421 1.287 . S
C1421 C1420 1.287 . S
C1421 C1422 1.524 . S
C1421 H1424 0.999 . S
C1422 H1392 0.950 . S
C1422 C1421 1.524 . S
C1422 C1423 1.415 . S
C1423 H1393 0.950 . S
C1423 C1418 1.363 . S
C1423 C1422 1.415 . S
H1424 C1421 0.999 . S
H1425 C1406 0.913 . S
H1426 C1444 0.951 . S
H1427 C1446 0.951 . S
H1428 C1448 0.950 . S
H1429 C1449 0.950 . S
H1430 C1451 0.950 . S
H1431 C1454 0.950 . S
H1432 C1455 0.950 . S
H1433 C1457 0.950 . S
H1434 C1458 0.950 . S
H1435 C1459 0.951 . S
H1436 C1461 0.951 . S
H1437 C1463 0.950 . S
H1438 C1464 0.950 . S
H1439 C1466 0.950 . S
H1440 C1469 0.950 . S
H1441 C1470 0.950 . S
H1442 C1472 0.950 . S
H1443 C1473 0.950 . S
C1444 H1426 0.951 . S
C1444 C1445 1.366 . S
C1444 C1446 1.388 . S
C1445 C1444 1.366 . S
C1445 C1449 1.385 . S
C1446 H1427 0.951 . S
C1446 C1444 1.388 . S
C1446 C1447 1.366 . S
C1447 C1446 1.366 . S
C1447 C1448 1.414 . S
C1447 C1450 1.499 . S
C1448 H1428 0.950 . S
C1448 C1447 1.414 . S
C1448 C1449 1.374 . S
C1449 H1429 0.950 . S
C1449 C1445 1.385 . S
C1449 C1448 1.374 . S
C1450 C1447 1.499 . S
C1450 C1451 1.373 . S
C1450 C1452 1.389 . S
C1451 H1430 0.950 . S
C1451 C1450 1.373 . S
C1451 C1467 1.377 . S
C1452 C1450 1.389 . S
C1452 C1453 1.524 . S
C1452 C1466 1.377 . S
C1453 C1452 1.524 . S
C1453 C1454 1.397 . S
C1453 C1458 1.363 . S
C1454 H1431 0.950 . S
C1454 C1453 1.397 . S
C1454 C1455 1.334 . S
C1455 H1432 0.950 . S
C1455 C1454 1.334 . S
C1455 C1456 1.287 . S
C1456 C1455 1.287 . S
C1456 C1457 1.524 . S
C1456 H1475 0.913 . S
C1457 H1433 0.950 . S
C1457 C1456 1.524 . S
C1457 C1458 1.415 . S
C1458 H1434 0.950 . S
C1458 C1453 1.363 . S
C1458 C1457 1.415 . S
C1459 H1435 0.951 . S
C1459 C1460 1.366 . S
C1459 C1461 1.388 . S
C1460 C1459 1.366 . S
C1460 C1464 1.385 . S
C1461 H1436 0.951 . S
C1461 C1459 1.388 . S
C1461 C1462 1.366 . S
C1462 C1461 1.366 . S
C1462 C1463 1.414 . S
C1462 C1465 1.499 . S
C1463 H1437 0.950 . S
C1463 C1462 1.414 . S
C1463 C1464 1.374 . S
C1464 H1438 0.950 . S
C1464 C1460 1.385 . S
C1464 C1463 1.374 . S
C1465 C1462 1.499 . S
C1465 C1466 1.373 . S
C1465 C1467 1.389 . S
C1466 H1439 0.950 . S
C1466 C1452 1.377 . S
C1466 C1465 1.373 . S
C1467 C1451 1.377 . S
C1467 C1465 1.389 . S
C1467 C1468 1.524 . S
C1468 C1467 1.524 . S
C1468 C1469 1.397 . S
C1468 C1473 1.363 . S
C1469 H1440 0.950 . S
C1469 C1468 1.397 . S
C1469 C1470 1.334 . S
C1470 H1441 0.950 . S
C1470 C1469 1.334 . S
C1470 C1471 1.287 . S
C1471 C1470 1.287 . S
C1471 C1472 1.524 . S
C1471 H1474 0.999 . S
C1472 H1442 0.950 . S
C1472 C1471 1.524 . S
C1472 C1473 1.415 . S
C1473 H1443 0.950 . S
C1473 C1468 1.363 . S
C1473 C1472 1.415 . S
H1474 C1471 0.999 . S
H1475 C1456 0.913 . S
H1476 C1494 0.951 . S
H1477 C1496 0.951 . S
H1478 C1498 0.950 . S
H1479 C1499 0.950 . S
H1480 C1501 0.950 . S
H1481 C1504 0.950 . S
H1482 C1505 0.950 . S
H1483 C1507 0.950 . S
H1484 C1508 0.950 . S
H1485 C1509 0.951 . S
H1486 C1511 0.951 . S
H1487 C1513 0.950 . S
H1488 C1514 0.950 . S
H1489 C1516 0.950 . S
H1490 C1519 0.950 . S
H1491 C1520 0.950 . S
H1492 C1522 0.950 . S
H1493 C1523 0.950 . S
C1494 H1476 0.951 . S
C1494 C1495 1.366 . S
C1494 C1496 1.388 . S
C1495 C1494 1.366 . S
C1495 C1499 1.385 . S
C1496 H1477 0.951 . S
C1496 C1494 1.388 . S
C1496 C1497 1.366 . S
C1497 C1496 1.366 . S
C1497 C1498 1.414 . S
C1497 C1500 1.499 . S
C1498 H1478 0.950 . S
C1498 C1497 1.414 . S
C1498 C1499 1.374 . S
C1499 H1479 0.950 . S
C1499 C1495 1.385 . S
C1499 C1498 1.374 . S
C1500 C1497 1.499 . S
C1500 C1501 1.373 . S
C1500 C1502 1.389 . S
C1501 H1480 0.950 . S
C1501 C1500 1.373 . S
C1501 C1517 1.377 . S
C1502 C1500 1.389 . S
C1502 C1503 1.524 . S
C1502 C1516 1.377 . S
C1503 C1502 1.524 . S
C1503 C1504 1.397 . S
C1503 C1508 1.363 . S
C1504 H1481 0.950 . S
C1504 C1503 1.397 . S
C1504 C1505 1.334 . S
C1505 H1482 0.950 . S
C1505 C1504 1.334 . S
C1505 C1506 1.287 . S
C1506 C1505 1.287 . S
C1506 C1507 1.524 . S
C1506 H1525 0.916 . S
C1507 H1483 0.950 . S
C1507 C1506 1.524 . S
C1507 C1508 1.415 . S
C1508 H1484 0.950 . S
C1508 C1503 1.363 . S
C1508 C1507 1.415 . S
C1509 H1485 0.951 . S
C1509 C1510 1.366 . S
C1509 C1511 1.388 . S
C1510 C1509 1.366 . S
C1510 C1514 1.385 . S
C1511 H1486 0.951 . S
C1511 C1509 1.388 . S
C1511 C1512 1.366 . S
C1512 C1511 1.366 . S
C1512 C1513 1.414 . S
C1512 C1515 1.499 . S
C1513 H1487 0.950 . S
C1513 C1512 1.414 . S
C1513 C1514 1.374 . S
C1514 H1488 0.950 . S
C1514 C1510 1.385 . S
C1514 C1513 1.374 . S
C1515 C1512 1.499 . S
C1515 C1516 1.373 . S
C1515 C1517 1.389 . S
C1516 H1489 0.950 . S
C1516 C1502 1.377 . S
C1516 C1515 1.373 . S
C1517 C1501 1.377 . S
C1517 C1515 1.389 . S
C1517 C1518 1.524 . S
C1518 C1517 1.524 . S
C1518 C1519 1.397 . S
C1518 C1523 1.363 . S
C1519 H1490 0.950 . S
C1519 C1518 1.397 . S
C1519 C1520 1.334 . S
C1520 H1491 0.950 . S
C1520 C1519 1.334 . S
C1520 C1521 1.287 . S
C1521 C1520 1.287 . S
C1521 C1522 1.524 . S
C1521 H1524 0.999 . S
C1522 H1492 0.950 . S
C1522 C1521 1.524 . S
C1522 C1523 1.415 . S
C1523 H1493 0.950 . S
C1523 C1518 1.363 . S
C1523 C1522 1.415 . S
H1524 C1521 0.999 . S
H1525 C1506 0.916 . S
H1526 C1544 0.951 . S
H1527 C1546 0.951 . S
H1528 C1548 0.950 . S
H1529 C1549 0.950 . S
H1530 C1551 0.950 . S
H1531 C1554 0.950 . S
H1532 C1555 0.950 . S
H1533 C1557 0.950 . S
H1534 C1558 0.950 . S
H1535 C1559 0.951 . S
H1536 C1561 0.951 . S
H1537 C1563 0.950 . S
H1538 C1564 0.950 . S
H1539 C1566 0.950 . S
H1540 C1569 0.950 . S
H1541 C1570 0.950 . S
H1542 C1572 0.950 . S
H1543 C1573 0.950 . S
C1544 H1526 0.951 . S
C1544 C1545 1.366 . S
C1544 C1546 1.388 . S
C1545 C1544 1.366 . S
C1545 C1549 1.385 . S
C1546 H1527 0.951 . S
C1546 C1544 1.388 . S
C1546 C1547 1.366 . S
C1547 C1546 1.366 . S
C1547 C1548 1.414 . S
C1547 C1550 1.499 . S
C1548 H1528 0.950 . S
C1548 C1547 1.414 . S
C1548 C1549 1.374 . S
C1549 H1529 0.950 . S
C1549 C1545 1.385 . S
C1549 C1548 1.374 . S
C1550 C1547 1.499 . S
C1550 C1551 1.373 . S
C1550 C1552 1.389 . S
C1551 H1530 0.950 . S
C1551 C1550 1.373 . S
C1551 C1567 1.377 . S
C1552 C1550 1.389 . S
C1552 C1553 1.524 . S
C1552 C1566 1.377 . S
C1553 C1552 1.524 . S
C1553 C1554 1.397 . S
C1553 C1558 1.363 . S
C1554 H1531 0.950 . S
C1554 C1553 1.397 . S
C1554 C1555 1.334 . S
C1555 H1532 0.950 . S
C1555 C1554 1.334 . S
C1555 C1556 1.287 . S
C1556 C1555 1.287 . S
C1556 C1557 1.524 . S
C1556 H1575 0.913 . S
C1557 H1533 0.950 . S
C1557 C1556 1.524 . S
C1557 C1558 1.415 . S
C1558 H1534 0.950 . S
C1558 C1553 1.363 . S
C1558 C1557 1.415 . S
C1559 H1535 0.951 . S
C1559 C1560 1.366 . S
C1559 C1561 1.388 . S
C1560 C1559 1.366 . S
C1560 C1564 1.385 . S
C1561 H1536 0.951 . S
C1561 C1559 1.388 . S
C1561 C1562 1.366 . S
C1562 C1561 1.366 . S
C1562 C1563 1.414 . S
C1562 C1565 1.499 . S
C1563 H1537 0.950 . S
C1563 C1562 1.414 . S
C1563 C1564 1.374 . S
C1564 H1538 0.950 . S
C1564 C1560 1.385 . S
C1564 C1563 1.374 . S
C1565 C1562 1.499 . S
C1565 C1566 1.373 . S
C1565 C1567 1.389 . S
C1566 H1539 0.950 . S
C1566 C1552 1.377 . S
C1566 C1565 1.373 . S
C1567 C1551 1.377 . S
C1567 C1565 1.389 . S
C1567 C1568 1.524 . S
C1568 C1567 1.524 . S
C1568 C1569 1.397 . S
C1568 C1573 1.363 . S
C1569 H1540 0.950 . S
C1569 C1568 1.397 . S
C1569 C1570 1.334 . S
C1570 H1541 0.950 . S
C1570 C1569 1.334 . S
C1570 C1571 1.287 . S
C1571 C1570 1.287 . S
C1571 C1572 1.524 . S
C1571 H1574 0.991 1_545 S
C1572 H1542 0.950 . S
C1572 C1571 1.524 . S
C1572 C1573 1.415 . S
C1573 H1543 0.950 . S
C1573 C1568 1.363 . S
C1573 C1572 1.415 . S
H1574 C1571 0.991 1_565 S
H1575 C1556 0.913 . S
H1576 C1594 0.951 . S
H1577 C1596 0.951 . S
H1578 C1598 0.950 . S
H1579 C1599 0.950 . S
H1580 C1601 0.950 . S
H1581 C1604 0.950 . S
H1582 C1605 0.950 . S
H1583 C1607 0.950 . S
H1584 C1608 0.950 . S
H1585 C1609 0.951 . S
H1586 C1611 0.951 . S
H1587 C1613 0.950 . S
H1588 C1614 0.950 . S
H1589 C1616 0.950 . S
H1590 C1619 0.950 . S
H1591 C1620 0.950 . S
H1592 C1622 0.950 . S
H1593 C1623 0.950 . S
C1594 H1576 0.951 . S
C1594 C1595 1.366 . S
C1594 C1596 1.388 . S
C1595 C1594 1.366 . S
C1595 C1599 1.385 . S
C1596 H1577 0.951 . S
C1596 C1594 1.388 . S
C1596 C1597 1.366 . S
C1597 C1596 1.366 . S
C1597 C1598 1.414 . S
C1597 C1600 1.499 . S
C1598 H1578 0.950 . S
C1598 C1597 1.414 . S
C1598 C1599 1.374 . S
C1599 H1579 0.950 . S
C1599 C1595 1.385 . S
C1599 C1598 1.374 . S
C1600 C1597 1.499 . S
C1600 C1601 1.373 . S
C1600 C1602 1.389 . S
C1601 H1580 0.950 . S
C1601 C1600 1.373 . S
C1601 C1617 1.377 . S
C1602 C1600 1.389 . S
C1602 C1603 1.524 . S
C1602 C1616 1.377 . S
C1603 C1602 1.524 . S
C1603 C1604 1.397 . S
C1603 C1608 1.363 . S
C1604 H1581 0.950 . S
C1604 C1603 1.397 . S
C1604 C1605 1.334 . S
C1605 H1582 0.950 . S
C1605 C1604 1.334 . S
C1605 C1606 1.287 . S
C1606 C1605 1.287 . S
C1606 C1607 1.524 . S
C1606 H1625 0.913 . S
C1607 H1583 0.950 . S
C1607 C1606 1.524 . S
C1607 C1608 1.415 . S
C1608 H1584 0.950 . S
C1608 C1603 1.363 . S
C1608 C1607 1.415 . S
C1609 H1585 0.951 . S
C1609 C1610 1.366 . S
C1609 C1611 1.388 . S
C1610 C1609 1.366 . S
C1610 C1614 1.385 . S
C1611 H1586 0.951 . S
C1611 C1609 1.388 . S
C1611 C1612 1.366 . S
C1612 C1611 1.366 . S
C1612 C1613 1.414 . S
C1612 C1615 1.499 . S
C1613 H1587 0.950 . S
C1613 C1612 1.414 . S
C1613 C1614 1.374 . S
C1614 H1588 0.950 . S
C1614 C1610 1.385 . S
C1614 C1613 1.374 . S
C1615 C1612 1.499 . S
C1615 C1616 1.373 . S
C1615 C1617 1.389 . S
C1616 H1589 0.950 . S
C1616 C1602 1.377 . S
C1616 C1615 1.373 . S
C1617 C1601 1.377 . S
C1617 C1615 1.389 . S
C1617 C1618 1.524 . S
C1618 C1617 1.524 . S
C1618 C1619 1.397 . S
C1618 C1623 1.363 . S
C1619 H1590 0.950 . S
C1619 C1618 1.397 . S
C1619 C1620 1.334 . S
C1620 H1591 0.950 . S
C1620 C1619 1.334 . S
C1620 C1621 1.287 . S
C1621 C1620 1.287 . S
C1621 C1622 1.524 . S
C1621 H1624 0.999 . S
C1622 H1592 0.950 . S
C1622 C1621 1.524 . S
C1622 C1623 1.415 . S
C1623 H1593 0.950 . S
C1623 C1618 1.363 . S
C1623 C1622 1.415 . S
H1624 C1621 0.999 . S
H1625 C1606 0.913 . S
H1626 C1644 0.951 . S
H1627 C1646 0.951 . S
H1628 C1648 0.950 . S
H1629 C1649 0.950 . S
H1630 C1651 0.950 . S
H1631 C1654 0.950 . S
H1632 C1655 0.950 . S
H1633 C1657 0.950 . S
H1634 C1658 0.950 . S
H1635 C1659 0.951 . S
H1636 C1661 0.951 . S
H1637 C1663 0.950 . S
H1638 C1664 0.950 . S
H1639 C1666 0.950 . S
H1640 C1669 0.950 . S
H1641 C1670 0.950 . S
H1642 C1672 0.950 . S
H1643 C1673 0.950 . S
C1644 H1626 0.951 . S
C1644 C1645 1.366 . S
C1644 C1646 1.388 . S
C1645 C1644 1.366 . S
C1645 C1649 1.385 . S
C1646 H1627 0.951 . S
C1646 C1644 1.388 . S
C1646 C1647 1.366 . S
C1647 C1646 1.366 . S
C1647 C1648 1.414 . S
C1647 C1650 1.499 . S
C1648 H1628 0.950 . S
C1648 C1647 1.414 . S
C1648 C1649 1.374 . S
C1649 H1629 0.950 . S
C1649 C1645 1.385 . S
C1649 C1648 1.374 . S
C1650 C1647 1.499 . S
C1650 C1651 1.373 . S
C1650 C1652 1.389 . S
C1651 H1630 0.950 . S
C1651 C1650 1.373 . S
C1651 C1667 1.377 . S
C1652 C1650 1.389 . S
C1652 C1653 1.524 . S
C1652 C1666 1.377 . S
C1653 C1652 1.524 . S
C1653 C1654 1.397 . S
C1653 C1658 1.363 . S
C1654 H1631 0.950 . S
C1654 C1653 1.397 . S
C1654 C1655 1.334 . S
C1655 H1632 0.950 . S
C1655 C1654 1.334 . S
C1655 C1656 1.287 . S
C1656 C1655 1.287 . S
C1656 C1657 1.524 . S
C1656 H1675 0.913 . S
C1657 H1633 0.950 . S
C1657 C1656 1.524 . S
C1657 C1658 1.415 . S
C1658 H1634 0.950 . S
C1658 C1653 1.363 . S
C1658 C1657 1.415 . S
C1659 H1635 0.951 . S
C1659 C1660 1.366 . S
C1659 C1661 1.388 . S
C1660 C1659 1.366 . S
C1660 C1664 1.385 . S
C1661 H1636 0.951 . S
C1661 C1659 1.388 . S
C1661 C1662 1.366 . S
C1662 C1661 1.366 . S
C1662 C1663 1.414 . S
C1662 C1665 1.499 . S
C1663 H1637 0.950 . S
C1663 C1662 1.414 . S
C1663 C1664 1.374 . S
C1664 H1638 0.950 . S
C1664 C1660 1.385 . S
C1664 C1663 1.374 . S
C1665 C1662 1.499 . S
C1665 C1666 1.373 . S
C1665 C1667 1.389 . S
C1666 H1639 0.950 . S
C1666 C1652 1.377 . S
C1666 C1665 1.373 . S
C1667 C1651 1.377 . S
C1667 C1665 1.389 . S
C1667 C1668 1.524 . S
C1668 C1667 1.524 . S
C1668 C1669 1.397 . S
C1668 C1673 1.363 . S
C1669 H1640 0.950 . S
C1669 C1668 1.397 . S
C1669 C1670 1.334 . S
C1670 H1641 0.950 . S
C1670 C1669 1.334 . S
C1670 C1671 1.287 . S
C1671 C1670 1.287 . S
C1671 C1672 1.524 . S
C1671 H1674 0.999 . S
C1672 H1642 0.950 . S
C1672 C1671 1.524 . S
C1672 C1673 1.415 . S
C1673 H1643 0.950 . S
C1673 C1668 1.363 . S
C1673 C1672 1.415 . S
H1674 C1671 0.999 . S
H1675 C1656 0.913 . S
H1676 C1694 0.951 . S
H1677 C1696 0.951 . S
H1678 C1698 0.950 . S
H1679 C1699 0.950 . S
H1680 C1701 0.950 . S
H1681 C1704 0.950 . S
H1682 C1705 0.950 . S
H1683 C1707 0.950 . S
H1684 C1708 0.950 . S
H1685 C1709 0.951 . S
H1686 C1711 0.951 . S
H1687 C1713 0.950 . S
H1688 C1714 0.950 . S
H1689 C1716 0.950 . S
H1690 C1719 0.950 . S
H1691 C1720 0.950 . S
H1692 C1722 0.950 . S
H1693 C1723 0.950 . S
C1694 H1676 0.951 . S
C1694 C1695 1.366 . S
C1694 C1696 1.388 . S
C1695 C1694 1.366 . S
C1695 C1699 1.385 . S
C1696 H1677 0.951 . S
C1696 C1694 1.388 . S
C1696 C1697 1.366 . S
C1697 C1696 1.366 . S
C1697 C1698 1.414 . S
C1697 C1700 1.499 . S
C1698 H1678 0.950 . S
C1698 C1697 1.414 . S
C1698 C1699 1.374 . S
C1699 H1679 0.950 . S
C1699 C1695 1.385 . S
C1699 C1698 1.374 . S
C1700 C1697 1.499 . S
C1700 C1701 1.373 . S
C1700 C1702 1.389 . S
C1701 H1680 0.950 . S
C1701 C1700 1.373 . S
C1701 C1717 1.377 . S
C1702 C1700 1.389 . S
C1702 C1703 1.524 . S
C1702 C1716 1.377 . S
C1703 C1702 1.524 . S
C1703 C1704 1.397 . S
C1703 C1708 1.363 . S
C1704 H1681 0.950 . S
C1704 C1703 1.397 . S
C1704 C1705 1.334 . S
C1705 H1682 0.950 . S
C1705 C1704 1.334 . S
C1705 C1706 1.287 . S
C1706 C1705 1.287 . S
C1706 C1707 1.524 . S
C1706 H1725 0.913 . S
C1707 H1683 0.950 . S
C1707 C1706 1.524 . S
C1707 C1708 1.415 . S
C1708 H1684 0.950 . S
C1708 C1703 1.363 . S
C1708 C1707 1.415 . S
C1709 H1685 0.951 . S
C1709 C1710 1.366 . S
C1709 C1711 1.388 . S
C1710 C1709 1.366 . S
C1710 C1714 1.385 . S
C1711 H1686 0.951 . S
C1711 C1709 1.388 . S
C1711 C1712 1.366 . S
C1712 C1711 1.366 . S
C1712 C1713 1.414 . S
C1712 C1715 1.499 . S
C1713 H1687 0.950 . S
C1713 C1712 1.414 . S
C1713 C1714 1.374 . S
C1714 H1688 0.950 . S
C1714 C1710 1.385 . S
C1714 C1713 1.374 . S
C1715 C1712 1.499 . S
C1715 C1716 1.373 . S
C1715 C1717 1.389 . S
C1716 H1689 0.950 . S
C1716 C1702 1.377 . S
C1716 C1715 1.373 . S
C1717 C1701 1.377 . S
C1717 C1715 1.389 . S
C1717 C1718 1.524 . S
C1718 C1717 1.524 . S
C1718 C1719 1.397 . S
C1718 C1723 1.363 . S
C1719 H1690 0.950 . S
C1719 C1718 1.397 . S
C1719 C1720 1.334 . S
C1720 H1691 0.950 . S
C1720 C1719 1.334 . S
C1720 C1721 1.287 . S
C1721 C1720 1.287 . S
C1721 C1722 1.524 . S
C1721 H1724 0.999 . S
C1722 H1692 0.950 . S
C1722 C1721 1.524 . S
C1722 C1723 1.415 . S
C1723 H1693 0.950 . S
C1723 C1718 1.363 . S
C1723 C1722 1.415 . S
H1724 C1721 0.999 . S
H1725 C1706 0.913 . S
H1726 C1744 0.951 . S
H1727 C1746 0.951 . S
H1728 C1748 0.950 . S
H1729 C1749 0.950 . S
H1730 C1751 0.950 . S
H1731 C1754 0.950 . S
H1732 C1755 0.950 . S
H1733 C1757 0.950 . S
H1734 C1758 0.950 . S
H1735 C1759 0.951 . S
H1736 C1761 0.951 . S
H1737 C1763 0.950 . S
H1738 C1764 0.950 . S
H1739 C1766 0.950 . S
H1740 C1769 0.950 . S
H1741 C1770 0.950 . S
H1742 C1772 0.950 . S
H1743 C1773 0.950 . S
C1744 H1726 0.951 . S
C1744 C1745 1.366 . S
C1744 C1746 1.388 . S
C1745 C1744 1.366 . S
C1745 C1749 1.385 . S
C1746 H1727 0.951 . S
C1746 C1744 1.388 . S
C1746 C1747 1.366 . S
C1747 C1746 1.366 . S
C1747 C1748 1.414 . S
C1747 C1750 1.499 . S
C1748 H1728 0.950 . S
C1748 C1747 1.414 . S
C1748 C1749 1.374 . S
C1749 H1729 0.950 . S
C1749 C1745 1.385 . S
C1749 C1748 1.374 . S
C1750 C1747 1.499 . S
C1750 C1751 1.373 . S
C1750 C1752 1.389 . S
C1751 H1730 0.950 . S
C1751 C1750 1.373 . S
C1751 C1767 1.377 . S
C1752 C1750 1.389 . S
C1752 C1753 1.524 . S
C1752 C1766 1.377 . S
C1753 C1752 1.524 . S
C1753 C1754 1.397 . S
C1753 C1758 1.363 . S
C1754 H1731 0.950 . S
C1754 C1753 1.397 . S
C1754 C1755 1.334 . S
C1755 H1732 0.950 . S
C1755 C1754 1.334 . S
C1755 C1756 1.287 . S
C1756 C1755 1.287 . S
C1756 C1757 1.524 . S
C1756 H1775 0.913 . S
C1757 H1733 0.950 . S
C1757 C1756 1.524 . S
C1757 C1758 1.415 . S
C1758 H1734 0.950 . S
C1758 C1753 1.363 . S
C1758 C1757 1.415 . S
C1759 H1735 0.951 . S
C1759 C1760 1.366 . S
C1759 C1761 1.388 . S
C1760 C1759 1.366 . S
C1760 C1764 1.385 . S
C1761 H1736 0.951 . S
C1761 C1759 1.388 . S
C1761 C1762 1.366 . S
C1762 C1761 1.366 . S
C1762 C1763 1.414 . S
C1762 C1765 1.499 . S
C1763 H1737 0.950 . S
C1763 C1762 1.414 . S
C1763 C1764 1.374 . S
C1764 H1738 0.950 . S
C1764 C1760 1.385 . S
C1764 C1763 1.374 . S
C1765 C1762 1.499 . S
C1765 C1766 1.373 . S
C1765 C1767 1.389 . S
C1766 H1739 0.950 . S
C1766 C1752 1.377 . S
C1766 C1765 1.373 . S
C1767 C1751 1.377 . S
C1767 C1765 1.389 . S
C1767 C1768 1.524 . S
C1768 C1767 1.524 . S
C1768 C1769 1.397 . S
C1768 C1773 1.363 . S
C1769 H1740 0.950 . S
C1769 C1768 1.397 . S
C1769 C1770 1.334 . S
C1770 H1741 0.950 . S
C1770 C1769 1.334 . S
C1770 C1771 1.287 . S
C1771 C1770 1.287 . S
C1771 C1772 1.524 . S
C1771 H1774 0.999 . S
C1772 H1742 0.950 . S
C1772 C1771 1.524 . S
C1772 C1773 1.415 . S
C1773 H1743 0.950 . S
C1773 C1768 1.363 . S
C1773 C1772 1.415 . S
H1774 C1771 0.999 . S
H1775 C1756 0.913 . S
H1776 C1794 0.951 . S
H1777 C1796 0.951 . S
H1778 C1798 0.950 . S
H1779 C1799 0.950 . S
H1780 C1801 0.950 . S
H1781 C1804 0.950 . S
H1782 C1805 0.950 . S
H1783 C1807 0.950 . S
H1784 C1808 0.950 1_556 S
H1785 C1809 0.951 . S
H1786 C1811 0.951 . S
H1787 C1813 0.950 . S
H1788 C1814 0.950 . S
H1789 C1816 0.950 . S
H1790 C1819 0.950 . S
H1791 C1820 0.950 . S
H1792 C1822 0.950 . S
H1793 C1823 0.950 1_554 S
C1794 H1776 0.951 . S
C1794 C1795 1.366 . S
C1794 C1796 1.388 . S
C1795 C1794 1.366 . S
C1795 C1799 1.385 . S
C1796 H1777 0.951 . S
C1796 C1794 1.388 . S
C1796 C1797 1.366 . S
C1797 C1796 1.366 . S
C1797 C1798 1.414 . S
C1797 C1800 1.499 . S
C1798 H1778 0.950 . S
C1798 C1797 1.414 . S
C1798 C1799 1.374 . S
C1799 H1779 0.950 . S
C1799 C1795 1.385 . S
C1799 C1798 1.374 . S
C1800 C1797 1.499 . S
C1800 C1801 1.373 . S
C1800 C1802 1.389 . S
C1801 H1780 0.950 . S
C1801 C1800 1.373 . S
C1801 C1817 1.377 1_554 S
C1802 C1800 1.389 . S
C1802 C1803 1.524 . S
C1802 C1816 1.377 1_554 S
C1803 C1802 1.524 . S
C1803 C1804 1.397 . S
C1803 C1808 1.363 . S
C1804 H1781 0.950 . S
C1804 C1803 1.397 . S
C1804 C1805 1.334 . S
C1805 H1782 0.950 . S
C1805 C1804 1.334 . S
C1805 C1806 1.287 . S
C1806 C1805 1.287 . S
C1806 C1807 1.524 . S
C1806 H1825 0.913 . S
C1807 H1783 0.950 . S
C1807 C1806 1.524 . S
C1807 C1808 1.415 . S
C1808 H1784 0.950 1_554 S
C1808 C1803 1.363 . S
C1808 C1807 1.415 . S
C1809 H1785 0.951 . S
C1809 C1810 1.366 . S
C1809 C1811 1.388 . S
C1810 C1809 1.366 . S
C1810 C1814 1.385 . S
C1811 H1786 0.951 . S
C1811 C1809 1.388 . S
C1811 C1812 1.366 . S
C1812 C1811 1.366 . S
C1812 C1813 1.414 . S
C1812 C1815 1.499 . S
C1813 H1787 0.950 . S
C1813 C1812 1.414 . S
C1813 C1814 1.374 . S
C1814 H1788 0.950 . S
C1814 C1810 1.385 . S
C1814 C1813 1.374 . S
C1815 C1812 1.499 . S
C1815 C1816 1.373 . S
C1815 C1817 1.389 . S
C1816 H1789 0.950 . S
C1816 C1802 1.377 1_556 S
C1816 C1815 1.373 . S
C1817 C1801 1.377 1_556 S
C1817 C1815 1.389 . S
C1817 C1818 1.524 . S
C1818 C1817 1.524 . S
C1818 C1819 1.397 . S
C1818 C1823 1.363 . S
C1819 H1790 0.950 . S
C1819 C1818 1.397 . S
C1819 C1820 1.334 . S
C1820 H1791 0.950 . S
C1820 C1819 1.334 . S
C1820 C1821 1.287 . S
C1821 C1820 1.287 . S
C1821 C1822 1.524 . S
C1821 H1824 0.999 . S
C1822 H1792 0.950 . S
C1822 C1821 1.524 . S
C1822 C1823 1.415 . S
C1823 H1793 0.950 1_556 S
C1823 C1818 1.363 . S
C1823 C1822 1.415 . S
H1824 C1821 0.999 . S
H1825 C1806 0.913 . S
H1826 C1844 0.951 . S
H1827 C1846 0.951 . S
H1828 C1848 0.950 . S
H1829 C1849 0.950 . S
H1830 C1851 0.950 . S
H1831 C1854 0.950 . S
H1832 C1855 0.950 . S
H1833 C1857 0.950 . S
H1834 C1858 0.950 . S
H1835 C1859 0.951 . S
H1836 C1861 0.951 . S
H1837 C1863 0.950 . S
H1838 C1864 0.950 . S
H1839 C1866 0.950 . S
H1840 C1869 0.950 . S
H1841 C1870 0.950 . S
H1842 C1872 0.950 . S
H1843 C1873 0.950 . S
C1844 H1826 0.951 . S
C1844 C1845 1.366 . S
C1844 C1846 1.388 . S
C1845 C1844 1.366 . S
C1845 C1849 1.385 . S
C1846 H1827 0.951 . S
C1846 C1844 1.388 . S
C1846 C1847 1.366 . S
C1847 C1846 1.366 . S
C1847 C1848 1.414 . S
C1847 C1850 1.499 . S
C1848 H1828 0.950 . S
C1848 C1847 1.414 . S
C1848 C1849 1.374 . S
C1849 H1829 0.950 . S
C1849 C1845 1.385 . S
C1849 C1848 1.374 . S
C1850 C1847 1.499 . S
C1850 C1851 1.373 . S
C1850 C1852 1.389 . S
C1851 H1830 0.950 . S
C1851 C1850 1.373 . S
C1851 C1867 1.377 . S
C1852 C1850 1.389 . S
C1852 C1853 1.524 . S
C1852 C1866 1.377 . S
C1853 C1852 1.524 . S
C1853 C1854 1.397 . S
C1853 C1858 1.363 . S
C1854 H1831 0.950 . S
C1854 C1853 1.397 . S
C1854 C1855 1.334 . S
C1855 H1832 0.950 . S
C1855 C1854 1.334 . S
C1855 C1856 1.287 . S
C1856 C1855 1.287 . S
C1856 C1857 1.524 . S
C1856 H1875 0.913 . S
C1857 H1833 0.950 . S
C1857 C1856 1.524 . S
C1857 C1858 1.415 . S
C1858 H1834 0.950 . S
C1858 C1853 1.363 . S
C1858 C1857 1.415 . S
C1859 H1835 0.951 . S
C1859 C1860 1.366 . S
C1859 C1861 1.388 . S
C1860 C1859 1.366 . S
C1860 C1864 1.385 . S
C1861 H1836 0.951 . S
C1861 C1859 1.388 . S
C1861 C1862 1.366 . S
C1862 C1861 1.366 . S
C1862 C1863 1.414 . S
C1862 C1865 1.499 . S
C1863 H1837 0.950 . S
C1863 C1862 1.414 . S
C1863 C1864 1.374 . S
C1864 H1838 0.950 . S
C1864 C1860 1.385 . S
C1864 C1863 1.374 . S
C1865 C1862 1.499 . S
C1865 C1866 1.373 . S
C1865 C1867 1.389 . S
C1866 H1839 0.950 . S
C1866 C1852 1.377 . S
C1866 C1865 1.373 . S
C1867 C1851 1.377 . S
C1867 C1865 1.389 . S
C1867 C1868 1.524 . S
C1868 C1867 1.524 . S
C1868 C1869 1.397 . S
C1868 C1873 1.363 . S
C1869 H1840 0.950 . S
C1869 C1868 1.397 . S
C1869 C1870 1.334 . S
C1870 H1841 0.950 . S
C1870 C1869 1.334 . S
C1870 C1871 1.287 . S
C1871 C1870 1.287 . S
C1871 C1872 1.524 . S
C1871 H1874 0.999 . S
C1872 H1842 0.950 . S
C1872 C1871 1.524 . S
C1872 C1873 1.415 . S
C1873 H1843 0.950 . S
C1873 C1868 1.363 . S
C1873 C1872 1.415 . S
H1874 C1871 0.999 . S
H1875 C1856 0.913 . S
H1876 C1894 0.951 . S
H1877 C1896 0.951 . S
H1878 C1898 0.950 1_455 S
H1879 C1899 0.950 1_455 S
H1880 C1901 0.950 . S
H1881 C1904 0.950 . S
H1882 C1905 0.950 . S
H1883 C1907 0.950 . S
H1884 C1908 0.950 . S
H1885 C1909 0.951 1_455 S
H1886 C1911 0.951 1_455 S
H1887 C1913 0.950 . S
H1888 C1914 0.950 . S
H1889 C1916 0.950 . S
H1890 C1919 0.950 . S
H1891 C1920 0.950 . S
H1892 C1922 0.950 . S
H1893 C1923 0.950 . S
C1894 H1876 0.951 . S
C1894 C1895 1.366 . S
C1894 C1896 1.388 . S
C1895 C1894 1.366 . S
C1895 C1899 1.385 . S
C1896 H1877 0.951 . S
C1896 C1894 1.388 . S
C1896 C1897 1.366 . S
C1897 C1896 1.366 . S
C1897 C1898 1.414 . S
C1897 C1900 1.499 . S
C1898 H1878 0.950 1_655 S
C1898 C1897 1.414 . S
C1898 C1899 1.374 . S
C1899 H1879 0.950 1_655 S
C1899 C1895 1.385 . S
C1899 C1898 1.374 . S
C1900 C1897 1.499 . S
C1900 C1901 1.373 . S
C1900 C1902 1.389 1_655 S
C1901 H1880 0.950 . S
C1901 C1900 1.373 . S
C1901 C1917 1.377 1_554 S
C1902 C1900 1.389 1_455 S
C1902 C1903 1.524 . S
C1902 C1916 1.377 1_554 S
C1903 C1902 1.524 . S
C1903 C1904 1.397 . S
C1903 C1908 1.363 . S
C1904 H1881 0.950 . S
C1904 C1903 1.397 . S
C1904 C1905 1.334 . S
C1905 H1882 0.950 . S
C1905 C1904 1.334 . S
C1905 C1906 1.287 . S
C1906 C1905 1.287 . S
C1906 C1907 1.524 . S
C1906 H1925 0.913 . S
C1907 H1883 0.950 . S
C1907 C1906 1.524 . S
C1907 C1908 1.415 . S
C1908 H1884 0.950 . S
C1908 C1903 1.363 . S
C1908 C1907 1.415 . S
C1909 H1885 0.951 1_655 S
C1909 C1910 1.366 . S
C1909 C1911 1.388 . S
C1910 C1909 1.366 . S
C1910 C1914 1.385 . S
C1911 H1886 0.951 1_655 S
C1911 C1909 1.388 . S
C1911 C1912 1.366 . S
C1912 C1911 1.366 . S
C1912 C1913 1.414 . S
C1912 C1915 1.499 . S
C1913 H1887 0.950 . S
C1913 C1912 1.414 . S
C1913 C1914 1.374 . S
C1914 H1888 0.950 . S
C1914 C1910 1.385 . S
C1914 C1913 1.374 . S
C1915 C1912 1.499 . S
C1915 C1916 1.373 1_655 S
C1915 C1917 1.389 . S
C1916 H1889 0.950 . S
C1916 C1902 1.377 1_556 S
C1916 C1915 1.373 1_455 S
C1917 C1901 1.377 1_556 S
C1917 C1915 1.389 . S
C1917 C1918 1.524 . S
C1918 C1917 1.524 . S
C1918 C1919 1.397 . S
C1918 C1923 1.363 . S
C1919 H1890 0.950 . S
C1919 C1918 1.397 . S
C1919 C1920 1.334 . S
C1920 H1891 0.950 . S
C1920 C1919 1.334 . S
C1920 C1921 1.287 . S
C1921 C1920 1.287 . S
C1921 C1922 1.524 . S
C1921 H1924 0.999 . S
C1922 H1892 0.950 . S
C1922 C1921 1.524 . S
C1922 C1923 1.415 . S
C1923 H1893 0.950 . S
C1923 C1918 1.363 . S
C1923 C1922 1.415 . S
H1924 C1921 0.999 . S
H1925 C1906 0.913 . S
H1926 C1944 0.951 . S
H1927 C1946 0.951 . S
H1928 C1948 0.950 . S
H1929 C1949 0.950 . S
H1930 C1951 0.950 . S
H1931 C1954 0.950 . S
H1932 C1955 0.950 . S
H1933 C1957 0.950 . S
H1934 C1958 0.950 . S
H1935 C1959 0.951 . S
H1936 C1961 0.951 . S
H1937 C1963 0.950 . S
H1938 C1964 0.950 . S
H1939 C1966 0.950 . S
H1940 C1969 0.950 . S
H1941 C1970 0.950 . S
H1942 C1972 0.950 . S
H1943 C1973 0.950 . S
C1944 H1926 0.951 . S
C1944 C1945 1.366 1_545 S
C1944 C1946 1.388 . S
C1945 C1944 1.366 1_565 S
C1945 C1949 1.385 . S
C1946 H1927 0.951 . S
C1946 C1944 1.388 . S
C1946 C1947 1.366 1_545 S
C1947 C1946 1.366 1_565 S
C1947 C1948 1.414 . S
C1947 C1950 1.499 . S
C1948 H1928 0.950 . S
C1948 C1947 1.414 . S
C1948 C1949 1.374 . S
C1949 H1929 0.950 . S
C1949 C1945 1.385 . S
C1949 C1948 1.374 . S
C1950 C1947 1.499 . S
C1950 C1951 1.373 . S
C1950 C1952 1.389 1_565 S
C1951 H1930 0.950 . S
C1951 C1950 1.373 . S
C1951 C1967 1.377 . S
C1952 C1950 1.389 1_545 S
C1952 C1953 1.524 . S
C1952 C1966 1.377 . S
C1953 C1952 1.524 . S
C1953 C1954 1.397 . S
C1953 C1958 1.363 . S
C1954 H1931 0.950 . S
C1954 C1953 1.397 . S
C1954 C1955 1.334 . S
C1955 H1932 0.950 . S
C1955 C1954 1.334 . S
C1955 C1956 1.287 . S
C1956 C1955 1.287 . S
C1956 C1957 1.524 . S
C1956 H1975 0.913 . S
C1957 H1933 0.950 . S
C1957 C1956 1.524 . S
C1957 C1958 1.415 . S
C1958 H1934 0.950 . S
C1958 C1953 1.363 . S
C1958 C1957 1.415 . S
C1959 H1935 0.951 . S
C1959 C1960 1.366 . S
C1959 C1961 1.388 . S
C1960 C1959 1.366 . S
C1960 C1964 1.385 1_565 S
C1961 H1936 0.951 . S
C1961 C1959 1.388 . S
C1961 C1962 1.366 . S
C1962 C1961 1.366 . S
C1962 C1963 1.414 1_565 S
C1962 C1965 1.499 . S
C1963 H1937 0.950 . S
C1963 C1962 1.414 1_545 S
C1963 C1964 1.374 . S
C1964 H1938 0.950 . S
C1964 C1960 1.385 1_545 S
C1964 C1963 1.374 . S
C1965 C1962 1.499 . S
C1965 C1966 1.373 1_565 S
C1965 C1967 1.389 . S
C1966 H1939 0.950 . S
C1966 C1952 1.377 . S
C1966 C1965 1.373 1_545 S
C1967 C1951 1.377 . S
C1967 C1965 1.389 . S
C1967 C1968 1.524 . S
C1968 C1967 1.524 . S
C1968 C1969 1.397 . S
C1968 C1973 1.363 . S
C1969 H1940 0.950 . S
C1969 C1968 1.397 . S
C1969 C1970 1.334 . S
C1970 H1941 0.950 . S
C1970 C1969 1.334 . S
C1970 C1971 1.287 . S
C1971 C1970 1.287 . S
C1971 C1972 1.524 . S
C1971 H1974 0.999 . S
C1972 H1942 0.950 . S
C1972 C1971 1.524 . S
C1972 C1973 1.415 . S
C1973 H1943 0.950 . S
C1973 C1968 1.363 . S
C1973 C1972 1.415 . S
H1974 C1971 0.999 . S
H1975 C1956 0.913 . S
H1976 C1994 0.951 . S
H1977 C1996 0.951 . S
H1978 C1998 0.950 . S
H1979 C1999 0.950 . S
H1980 C2001 0.950 . S
H1981 C2004 0.950 . S
H1982 C2005 0.950 . S
H1983 C2007 0.950 . S
H1984 C2008 0.950 . S
H1985 C2009 0.951 . S
H1986 C2011 0.951 . S
H1987 C2013 0.950 . S
H1988 C2014 0.950 . S
H1989 C2016 0.950 . S
H1990 C2019 0.950 . S
H1991 C2020 0.950 . S
H1992 C2022 0.950 . S
H1993 C2023 0.950 . S
C1994 H1976 0.951 . S
C1994 C1995 1.366 . S
C1994 C1996 1.388 . S
C1995 C1994 1.366 . S
C1995 C1999 1.385 . S
C1996 H1977 0.951 . S
C1996 C1994 1.388 . S
C1996 C1997 1.366 . S
C1997 C1996 1.366 . S
C1997 C1998 1.414 . S
C1997 C2000 1.499 . S
C1998 H1978 0.950 . S
C1998 C1997 1.414 . S
C1998 C1999 1.374 . S
C1999 H1979 0.950 . S
C1999 C1995 1.385 . S
C1999 C1998 1.374 . S
C2000 C1997 1.499 . S
C2000 C2001 1.373 . S
C2000 C2002 1.389 . S
C2001 H1980 0.950 . S
C2001 C2000 1.373 . S
C2001 C2017 1.377 1_556 S
C2002 C2000 1.389 . S
C2002 C2003 1.524 . S
C2002 C2016 1.377 1_556 S
C2003 C2002 1.524 . S
C2003 C2004 1.397 . S
C2003 C2008 1.363 . S
C2004 H1981 0.950 . S
C2004 C2003 1.397 . S
C2004 C2005 1.334 . S
C2005 H1982 0.950 . S
C2005 C2004 1.334 . S
C2005 C2006 1.287 . S
C2006 C2005 1.287 . S
C2006 C2007 1.524 . S
C2006 H2025 0.913 . S
C2007 H1983 0.950 . S
C2007 C2006 1.524 . S
C2007 C2008 1.415 . S
C2008 H1984 0.950 . S
C2008 C2003 1.363 . S
C2008 C2007 1.415 . S
C2009 H1985 0.951 . S
C2009 C2010 1.366 . S
C2009 C2011 1.388 . S
C2010 C2009 1.366 . S
C2010 C2014 1.385 . S
C2011 H1986 0.951 . S
C2011 C2009 1.388 . S
C2011 C2012 1.366 . S
C2012 C2011 1.366 . S
C2012 C2013 1.414 . S
C2012 C2015 1.499 . S
C2013 H1987 0.950 . S
C2013 C2012 1.414 . S
C2013 C2014 1.374 . S
C2014 H1988 0.950 . S
C2014 C2010 1.385 . S
C2014 C2013 1.374 . S
C2015 C2012 1.499 . S
C2015 C2016 1.373 . S
C2015 C2017 1.389 . S
C2016 H1989 0.950 . S
C2016 C2002 1.377 1_554 S
C2016 C2015 1.373 . S
C2017 C2001 1.377 1_554 S
C2017 C2015 1.389 . S
C2017 C2018 1.524 . S
C2018 C2017 1.524 . S
C2018 C2019 1.397 . S
C2018 C2023 1.363 . S
C2019 H1990 0.950 . S
C2019 C2018 1.397 . S
C2019 C2020 1.334 . S
C2020 H1991 0.950 . S
C2020 C2019 1.334 . S
C2020 C2021 1.287 . S
C2021 C2020 1.287 . S
C2021 C2022 1.524 . S
C2021 H2024 0.999 . S
C2022 H1992 0.950 . S
C2022 C2021 1.524 . S
C2022 C2023 1.415 . S
C2023 H1993 0.950 . S
C2023 C2018 1.363 . S
C2023 C2022 1.415 . S
H2024 C2021 0.999 . S
H2025 C2006 0.913 . S
H2026 C2044 0.951 . S
H2027 C2046 0.951 . S
H2028 C2048 0.950 . S
H2029 C2049 0.950 . S
H2030 C2051 0.950 . S
H2031 C2054 0.950 . S
H2032 C2055 0.950 . S
H2033 C2057 0.950 . S
H2034 C2058 0.950 . S
H2035 C2059 0.951 . S
H2036 C2061 0.951 . S
H2037 C2063 0.950 . S
H2038 C2064 0.950 . S
H2039 C2066 0.950 . S
H2040 C2069 0.950 . S
H2041 C2070 0.950 . S
H2042 C2072 0.950 . S
H2043 C2073 0.950 . S
C2044 H2026 0.951 . S
C2044 C2045 1.366 . S
C2044 C2046 1.388 . S
C2045 C2044 1.366 . S
C2045 C2049 1.385 . S
C2046 H2027 0.951 . S
C2046 C2044 1.388 . S
C2046 C2047 1.366 . S
C2047 C2046 1.366 . S
C2047 C2048 1.414 . S
C2047 C2050 1.499 . S
C2048 H2028 0.950 . S
C2048 C2047 1.414 . S
C2048 C2049 1.374 . S
C2049 H2029 0.950 . S
C2049 C2045 1.385 . S
C2049 C2048 1.374 . S
C2050 C2047 1.499 . S
C2050 C2051 1.373 . S
C2050 C2052 1.389 . S
C2051 H2030 0.950 . S
C2051 C2050 1.373 . S
C2051 C2067 1.377 . S
C2052 C2050 1.389 . S
C2052 C2053 1.524 . S
C2052 C2066 1.377 . S
C2053 C2052 1.524 . S
C2053 C2054 1.397 . S
C2053 C2058 1.363 . S
C2054 H2031 0.950 . S
C2054 C2053 1.397 . S
C2054 C2055 1.334 . S
C2055 H2032 0.950 . S
C2055 C2054 1.334 . S
C2055 C2056 1.287 . S
C2056 C2055 1.287 . S
C2056 C2057 1.524 . S
C2056 H2075 0.913 . S
C2057 H2033 0.950 . S
C2057 C2056 1.524 . S
C2057 C2058 1.415 . S
C2058 H2034 0.950 . S
C2058 C2053 1.363 . S
C2058 C2057 1.415 . S
C2059 H2035 0.951 . S
C2059 C2060 1.366 . S
C2059 C2061 1.388 . S
C2060 C2059 1.366 . S
C2060 C2064 1.385 . S
C2061 H2036 0.951 . S
C2061 C2059 1.388 . S
C2061 C2062 1.366 . S
C2062 C2061 1.366 . S
C2062 C2063 1.414 . S
C2062 C2065 1.499 . S
C2063 H2037 0.950 . S
C2063 C2062 1.414 . S
C2063 C2064 1.374 . S
C2064 H2038 0.950 . S
C2064 C2060 1.385 . S
C2064 C2063 1.374 . S
C2065 C2062 1.499 . S
C2065 C2066 1.373 . S
C2065 C2067 1.389 . S
C2066 H2039 0.950 . S
C2066 C2052 1.377 . S
C2066 C2065 1.373 . S
C2067 C2051 1.377 . S
C2067 C2065 1.389 . S
C2067 C2068 1.524 . S
C2068 C2067 1.524 . S
C2068 C2069 1.397 . S
C2068 C2073 1.363 . S
C2069 H2040 0.950 . S
C2069 C2068 1.397 . S
C2069 C2070 1.334 . S
C2070 H2041 0.950 . S
C2070 C2069 1.334 . S
C2070 C2071 1.287 . S
C2071 C2070 1.287 . S
C2071 C2072 1.524 . S
C2071 H2074 0.999 . S
C2072 H2042 0.950 . S
C2072 C2071 1.524 . S
C2072 C2073 1.415 . S
C2073 H2043 0.950 . S
C2073 C2068 1.363 . S
C2073 C2072 1.415 . S
H2074 C2071 0.999 . S
H2075 C2056 0.913 . S
H2076 C2094 0.951 . S
H2077 C2096 0.951 . S
H2078 C2098 0.951 . S
H2079 C2099 0.954 . S
H2080 C2101 0.950 . S
H2081 C2104 0.950 . S
H2082 C2105 0.950 . S
H2083 C2107 0.950 . S
H2084 C2108 0.950 . S
H2085 C2109 0.958 . S
H2086 C2111 0.970 . S
H2087 C2113 0.950 . S
H2088 C2114 0.950 . S
H2089 C2116 0.950 . S
H2090 C2119 0.950 . S
H2091 C2120 0.950 . S
H2092 C2122 0.950 . S
H2093 C2123 0.950 . S
C2094 H2076 0.951 . S
C2094 C2095 1.366 . S
C2094 C2096 1.388 . S
C2095 C2094 1.366 . S
C2095 C2099 1.380 1_455 S
C2096 H2077 0.951 . S
C2096 C2094 1.388 . S
C2096 C2097 1.366 . S
C2097 C2096 1.366 . S
C2097 C2098 1.414 1_455 S
C2097 C2100 1.499 . S
C2098 H2078 0.951 . S
C2098 C2097 1.414 1_655 S
C2098 C2099 1.374 . S
C2099 H2079 0.954 . S
C2099 C2095 1.380 1_655 S
C2099 C2098 1.374 . S
C2100 C2097 1.499 . S
C2100 C2101 1.373 1_455 S
C2100 C2102 1.389 . S
C2101 H2080 0.950 . S
C2101 C2100 1.373 1_655 S
C2101 C2117 1.377 1_554 S
C2102 C2100 1.389 . S
C2102 C2103 1.524 . S
C2102 C2116 1.377 1_554 S
C2103 C2102 1.524 . S
C2103 C2104 1.397 . S
C2103 C2108 1.363 . S
C2104 H2081 0.950 . S
C2104 C2103 1.397 . S
C2104 C2105 1.334 . S
C2105 H2082 0.950 . S
C2105 C2104 1.334 . S
C2105 C2106 1.287 . S
C2106 C2105 1.287 . S
C2106 C2107 1.524 . S
C2106 H2125 0.913 . S
C2107 H2083 0.950 . S
C2107 C2106 1.524 . S
C2107 C2108 1.415 . S
C2108 H2084 0.950 . S
C2108 C2103 1.363 . S
C2108 C2107 1.415 . S
C2109 H2085 0.958 . S
C2109 C2110 1.358 1_655 S
C2109 C2111 1.387 . S
C2110 C2109 1.358 1_455 S
C2110 C2114 1.385 . S
C2111 H2086 0.970 . S
C2111 C2109 1.387 . S
C2111 C2112 1.350 1_655 S
C2112 C2111 1.350 1_455 S
C2112 C2113 1.414 . S
C2112 C2115 1.499 . S
C2113 H2087 0.950 . S
C2113 C2112 1.414 . S
C2113 C2114 1.374 . S
C2114 H2088 0.950 . S
C2114 C2110 1.385 . S
C2114 C2113 1.374 . S
C2115 C2112 1.499 . S
C2115 C2116 1.373 . S
C2115 C2117 1.389 1_455 S
C2116 H2089 0.950 . S
C2116 C2102 1.377 1_556 S
C2116 C2115 1.373 . S
C2117 C2101 1.377 1_556 S
C2117 C2115 1.389 1_655 S
C2117 C2118 1.524 . S
C2118 C2117 1.524 . S
C2118 C2119 1.397 . S
C2118 C2123 1.363 . S
C2119 H2090 0.950 . S
C2119 C2118 1.397 . S
C2119 C2120 1.334 . S
C2120 H2091 0.950 . S
C2120 C2119 1.334 . S
C2120 C2121 1.287 . S
C2121 C2120 1.287 . S
C2121 C2122 1.524 . S
C2121 H2124 0.999 . S
C2122 H2092 0.950 . S
C2122 C2121 1.524 . S
C2122 C2123 1.415 . S
C2123 H2093 0.950 . S
C2123 C2118 1.363 . S
C2123 C2122 1.415 . S
H2124 C2121 0.999 . S
H2125 C2106 0.913 . S
H2126 C2144 0.951 . S
H2127 C2146 0.951 . S
H2128 C2148 0.950 . S
H2129 C2149 0.950 . S
H2130 C2151 0.950 . S
H2131 C2154 0.950 . S
H2132 C2155 0.950 . S
H2133 C2157 0.950 . S
H2134 C2158 0.950 . S
H2135 C2159 0.951 . S
H2136 C2161 0.951 . S
H2137 C2163 0.950 . S
H2138 C2164 0.950 . S
H2139 C2166 0.950 . S
H2140 C2169 0.950 . S
H2141 C2170 0.950 . S
H2142 C2172 0.950 . S
H2143 C2173 0.950 . S
C2144 H2126 0.951 . S
C2144 C2145 1.366 1_565 S
C2144 C2146 1.388 . S
C2145 C2144 1.366 1_545 S
C2145 C2149 1.385 . S
C2146 H2127 0.951 . S
C2146 C2144 1.388 . S
C2146 C2147 1.366 1_565 S
C2147 C2146 1.366 1_545 S
C2147 C2148 1.414 . S
C2147 C2150 1.499 . S
C2148 H2128 0.950 . S
C2148 C2147 1.414 . S
C2148 C2149 1.374 . S
C2149 H2129 0.950 . S
C2149 C2145 1.385 . S
C2149 C2148 1.374 . S
C2150 C2147 1.499 . S
C2150 C2151 1.373 . S
C2150 C2152 1.389 1_545 S
C2151 H2130 0.950 . S
C2151 C2150 1.373 . S
C2151 C2167 1.377 . S
C2152 C2150 1.389 1_565 S
C2152 C2153 1.524 . S
C2152 C2166 1.377 . S
C2153 C2152 1.524 . S
C2153 C2154 1.397 . S
C2153 C2158 1.363 . S
C2154 H2131 0.950 . S
C2154 C2153 1.397 . S
C2154 C2155 1.334 . S
C2155 H2132 0.950 . S
C2155 C2154 1.334 . S
C2155 C2156 1.287 . S
C2156 C2155 1.287 . S
C2156 C2157 1.524 . S
C2156 H2175 0.913 . S
C2157 H2133 0.950 . S
C2157 C2156 1.524 . S
C2157 C2158 1.415 . S
C2158 H2134 0.950 . S
C2158 C2153 1.363 . S
C2158 C2157 1.415 . S
C2159 H2135 0.951 . S
C2159 C2160 1.366 . S
C2159 C2161 1.388 . S
C2160 C2159 1.366 . S
C2160 C2164 1.385 1_545 S
C2161 H2136 0.951 . S
C2161 C2159 1.388 . S
C2161 C2162 1.366 . S
C2162 C2161 1.366 . S
C2162 C2163 1.414 1_545 S
C2162 C2165 1.499 . S
C2163 H2137 0.950 . S
C2163 C2162 1.414 1_565 S
C2163 C2164 1.374 . S
C2164 H2138 0.950 . S
C2164 C2160 1.385 1_565 S
C2164 C2163 1.374 . S
C2165 C2162 1.499 . S
C2165 C2166 1.373 1_545 S
C2165 C2167 1.389 . S
C2166 H2139 0.950 . S
C2166 C2152 1.377 . S
C2166 C2165 1.373 1_565 S
C2167 C2151 1.377 . S
C2167 C2165 1.389 . S
C2167 C2168 1.524 . S
C2168 C2167 1.524 . S
C2168 C2169 1.397 . S
C2168 C2173 1.363 . S
C2169 H2140 0.950 . S
C2169 C2168 1.397 . S
C2169 C2170 1.334 . S
C2170 H2141 0.950 . S
C2170 C2169 1.334 . S
C2170 C2171 1.287 . S
C2171 C2170 1.287 . S
C2171 C2172 1.524 . S
C2171 H2174 0.999 . S
C2172 H2142 0.950 . S
C2172 C2171 1.524 . S
C2172 C2173 1.415 . S
C2173 H2143 0.950 . S
C2173 C2168 1.363 . S
C2173 C2172 1.415 . S
H2174 C2171 0.999 . S
H2175 C2156 0.913 . S
C595 C3 1.205 . S
C610 C255 1.206 . S
C645 C39 1.206 . S
C660 C147 1.205 . S
C695 C75 1.206 . S
C710 C183 1.205 . S
C745 C111 1.206 . S
C760 C219 1.205 . S
C795 C291 1.205 . S
C810 C543 1.206 . S
C845 C435 1.206 . S
C860 C327 1.205 . S
C895 C363 1.205 . S
C910 C471 1.206 . S
C945 C399 1.206 . S
C960 C507 1.205 . S
C995 C4 1.364 . S
C1010 C326 1.404 . S
C1045 C40 1.363 . S
C1060 C362 1.403 . S
C1095 C398 1.404 . S
C1110 C76 1.363 . S
C1145 C112 1.364 . S
C1160 C290 1.404 . S
C1195 C148 1.363 . S
C1210 C542 1.404 . S
C1245 C434 1.403 . S
C1260 C184 1.364 . S
C1295 C470 1.404 . S
C1310 C220 1.363 . S
C1345 C506 1.403 . S
C1360 C256 1.364 . S
C1395 C38 1.404 . S
C1410 C292 1.363 . S
C1445 C74 1.403 . S
C1460 C328 1.363 . S
C1495 C364 1.363 . S
C1510 C110 1.403 . S
C1545 C2 1.404 . S
C1560 C400 1.363 . S
C1595 C436 1.364 . S
C1610 C254 1.403 . S
C1645 C472 1.363 . S
C1660 C146 1.404 . S
C1695 C182 1.404 . S
C1710 C508 1.363 . S
C1745 C218 1.404 . S
C1760 C544 1.363 . S
C1795 C14 1.509 . S
C1810 C158 1.508 . S
C1845 C194 1.508 . S
C1860 C50 1.509 . S
C1895 C86 1.508 . S
C1910 C230 1.509 . S
C1945 C266 1.508 . S
C1960 C122 1.509 . S
C1995 C302 1.509 . S
C2010 C446 1.508 . S
C2045 C482 1.508 . S
C2060 C338 1.509 . S
C2095 C518 1.509 . S
C2110 C374 1.508 . S
C2145 C554 1.508 . S
C2160 C410 1.509 . S
