# Generated by pormake.
# Topology uoq, (4)-cn, num edge types: 1
# Building blocks:
#     Node 0, Type 0, BuildingBlock: QUQFOY_clean_sbu_1, # of connection points: 4
#     Node 1, Type 0, BuildingBlock: QUQFOY_clean_sbu_1, # of connection points: 4
#     Node 2, Type 0, BuildingBlock: QUQFOY_clean_sbu_1, # of connection points: 4
#     Node 3, Type 0, BuildingBlock: QUQFOY_clean_sbu_1, # of connection points: 4
#     Node 4, Type 0, BuildingBlock: QUQFOY_clean_sbu_1, # of connection points: 4
#     Node 5, Type 0, BuildingBlock: QUQFOY_clean_sbu_1, # of connection points: 4
#     Node 6, Type 0, BuildingBlock: QUQFOY_clean_sbu_1, # of connection points: 4
#     Node 7, Type 0, BuildingBlock: QUQFOY_clean_sbu_1, # of connection points: 4
#     Node 8, Type 0, BuildingBlock: QUQFOY_clean_sbu_1, # of connection points: 4
#     Node 9, Type 0, BuildingBlock: QUQFOY_clean_sbu_1, # of connection points: 4
#     Node 10, Type 0, BuildingBlock: QUQFOY_clean_sbu_1, # of connection points: 4
#     Node 11, Type 0, BuildingBlock: QUQFOY_clean_sbu_1, # of connection points: 4
#     Edge 12, Type (0, 0), BuildingBlock: XUDNAN_clean_linker_2, # of connection points: 2
#     Edge 13, Type (0, 0), BuildingBlock: XUDNAN_clean_linker_2, # of connection points: 2
#     Edge 14, Type (0, 0), BuildingBlock: XUDNAN_clean_linker_2, # of connection points: 2
#     Edge 15, Type (0, 0), BuildingBlock: XUDNAN_clean_linker_2, # of connection points: 2
#     Edge 16, Type (0, 0), BuildingBlock: XUDNAN_clean_linker_2, # of connection points: 2
#     Edge 17, Type (0, 0), BuildingBlock: XUDNAN_clean_linker_2, # of connection points: 2
#     Edge 18, Type (0, 0), BuildingBlock: XUDNAN_clean_linker_2, # of connection points: 2
#     Edge 19, Type (0, 0), BuildingBlock: XUDNAN_clean_linker_2, # of connection points: 2
#     Edge 20, Type (0, 0), BuildingBlock: XUDNAN_clean_linker_2, # of connection points: 2
#     Edge 21, Type (0, 0), BuildingBlock: XUDNAN_clean_linker_2, # of connection points: 2
#     Edge 22, Type (0, 0), BuildingBlock: XUDNAN_clean_linker_2, # of connection points: 2
#     Edge 23, Type (0, 0), BuildingBlock: XUDNAN_clean_linker_2, # of connection points: 2
#     Edge 24, Type (0, 0), BuildingBlock: XUDNAN_clean_linker_2, # of connection points: 2
#     Edge 25, Type (0, 0), BuildingBlock: XUDNAN_clean_linker_2, # of connection points: 2
#     Edge 26, Type (0, 0), BuildingBlock: XUDNAN_clean_linker_2, # of connection points: 2
#     Edge 27, Type (0, 0), BuildingBlock: XUDNAN_clean_linker_2, # of connection points: 2
#     Edge 28, Type (0, 0), BuildingBlock: XUDNAN_clean_linker_2, # of connection points: 2
#     Edge 29, Type (0, 0), BuildingBlock: XUDNAN_clean_linker_2, # of connection points: 2
#     Edge 30, Type (0, 0), BuildingBlock: XUDNAN_clean_linker_2, # of connection points: 2
#     Edge 31, Type (0, 0), BuildingBlock: XUDNAN_clean_linker_2, # of connection points: 2
#     Edge 32, Type (0, 0), BuildingBlock: XUDNAN_clean_linker_2, # of connection points: 2
#     Edge 33, Type (0, 0), BuildingBlock: XUDNAN_clean_linker_2, # of connection points: 2
#     Edge 34, Type (0, 0), BuildingBlock: XUDNAN_clean_linker_2, # of connection points: 2
#     Edge 35, Type (0, 0), BuildingBlock: XUDNAN_clean_linker_2, # of connection points: 2
# Relax obj value: 0.145
# Max RMSD: 0.205
# Mean RMSD: 0.205
data_MOF--net-uoq--node1-QUQFOY_clean_sbu_1--edge1-XUDNAN_clean_linker_2
_symmetry_space_group_name_H-M    P1
_symmetry_Int_Tables_number       1
_symmetry_cell_setting            triclinic
loop_
_symmetry_equiv_pos_as_xyz
'x, y, z'
_cell_length_a     64.246586
_cell_length_b     64.185549
_cell_length_c     23.31242
_cell_angle_alpha  90.002523
_cell_angle_beta   90.04065
_cell_angle_gamma 120.04098
loop_
_atom_site_label
_atom_site_type_symbol
_atom_site_fract_x
_atom_site_fract_y
_atom_site_fract_z
_atom_type_partial_charge
O0 O 0.27763 0.47115 0.28642 0.0
Cd1 Cd 0.30469 0.47511 0.23213 0.0
Cd2 Cd 0.31051 0.44942 0.31967 0.0
O3 O 0.27688 0.44265 0.34062 0.0
O4 O 0.29793 0.48805 0.16159 0.0
O5 O 0.2936 0.45165 0.16619 0.0
C6 C 0.29104 0.46751 0.13776 0.0
C7 C 0.31881 0.41833 0.33361 0.0
C8 C 0.26778 0.45532 0.32529 0.0
C9 C 0.34884 0.50103 0.30271 0.0
O10 O 0.33859 0.48337 0.33701 0.0
O11 O 0.33982 0.50023 0.25364 0.0
O12 O 0.31548 0.4291 0.37613 0.0
O13 O 0.31709 0.42498 0.28238 0.0
O14 O 0.82093 0.27371 0.6503 0.0
Cd15 Cd 0.83127 0.29189 0.57293 0.0
Cd16 Cd 0.87774 0.31775 0.64329 0.0
O17 O 0.8562 0.28912 0.69375 0.0
O18 O 0.80124 0.27489 0.52616 0.0
O19 O 0.83413 0.27363 0.50551 0.0
C20 C 0.81197 0.26689 0.49408 0.0
C21 C 0.91858 0.3325 0.66179 0.0
C22 C 0.83382 0.27433 0.69237 0.0
C23 C 0.85377 0.34527 0.59924 0.0
O24 O 0.86869 0.34396 0.63262 0.0
O25 O 0.83919 0.32745 0.56872 0.0
O26 O 0.90461 0.33373 0.69922 0.0
O27 O 0.9096 0.32313 0.61255 0.0
O28 O 0.54414 0.81655 0.98057 0.0
Cd29 Cd 0.52447 0.82142 0.91831 0.0
Cd30 Cd 0.54305 0.86816 0.98554 0.0
O31 O 0.55616 0.84975 0.03101 0.0
O32 O 0.51619 0.79361 0.86662 0.0
O33 O 0.53788 0.83154 0.83865 0.0
C34 C 0.52831 0.8089 0.82701 0.0
C35 C 0.56668 0.90955 0.00317 0.0
C36 C 0.55543 0.82986 0.02291 0.0
C37 C 0.4889 0.83526 0.96305 0.0
O38 O 0.5065 0.85519 0.97981 0.0
O39 O 0.49222 0.81917 0.94015 0.0
O40 O 0.55241 0.89489 0.0412 0.0
O41 O 0.56704 0.90091 0.95343 0.0
O42 O 0.71359 0.52424 0.30488 0.0
Cd43 Cd 0.69002 0.51388 0.23632 0.0
Cd44 Cd 0.68287 0.54754 0.29011 0.0
O45 O 0.71702 0.5597 0.31952 0.0
O46 O 0.69729 0.49149 0.19311 0.0
O47 O 0.70414 0.52627 0.15757 0.0
C48 C 0.70535 0.50689 0.15192 0.0
C49 C 0.67076 0.5753 0.26824 0.0
C50 C 0.72416 0.54483 0.32861 0.0
C51 C 0.64495 0.49606 0.29963 0.0
O52 O 0.65589 0.51611 0.32556 0.0
O53 O 0.65379 0.49263 0.25432 0.0
O54 O 0.67492 0.57163 0.32019 0.0
O55 O 0.67441 0.56376 0.22775 0.0
O56 O 0.17399 0.74059 0.6761 0.0
Cd57 Cd 0.16996 0.71405 0.6207 0.0
Cd58 Cd 0.12376 0.68731 0.69054 0.0
O59 O 0.14124 0.72069 0.72873 0.0
O60 O 0.19821 0.73206 0.5693 0.0
O61 O 0.16067 0.7138 0.538 0.0
C62 C 0.18338 0.72668 0.52727 0.0
C63 C 0.08212 0.66754 0.70612 0.0
C64 C 0.16077 0.73983 0.71739 0.0
C65 C 0.1583 0.66744 0.67921 0.0
O66 O 0.13818 0.66494 0.69441 0.0
O67 O 0.1736 0.68598 0.65198 0.0
O68 O 0.09703 0.67082 0.74661 0.0
O69 O 0.09077 0.67528 0.65563 0.0
O70 O 0.45792 0.18367 0.95569 0.0
Cd71 Cd 0.46484 0.16559 0.89202 0.0
Cd72 Cd 0.45057 0.13314 0.98395 0.0
O73 O 0.44199 0.15612 0.02365 0.0
O74 O 0.47566 0.18975 0.82919 0.0
O75 O 0.44173 0.15496 0.82484 0.0
C76 C 0.45609 0.17566 0.80227 0.0
C77 C 0.42267 0.09271 0.97325 0.0
C78 C 0.44781 0.17677 0.00425 0.0
C79 C 0.50004 0.15177 0.94092 0.0
O80 O 0.48592 0.14214 0.98303 0.0
O81 O 0.4939 0.15993 0.8984 0.0
O82 O 0.43263 0.10138 0.02223 0.0
O83 O 0.42804 0.10735 0.93044 0.0
O84 O 0.55735 0.7245 0.34632 0.0
Cd85 Cd 0.53902 0.70033 0.41139 0.0
Cd86 Cd 0.55333 0.67353 0.31213 0.0
O87 O 0.56389 0.70594 0.27458 0.0
O88 O 0.52407 0.71866 0.44274 0.0
O89 O 0.54939 0.71223 0.49309 0.0
C90 C 0.53628 0.72218 0.48893 0.0
C91 C 0.5774 0.657 0.28959 0.0
C92 C 0.56519 0.72464 0.29628 0.0
C93 C 0.50283 0.64954 0.36268 0.0
O94 O 0.51754 0.64994 0.32571 0.0
O95 O 0.50877 0.66663 0.39841 0.0
O96 O 0.5625 0.65725 0.25304 0.0
O97 O 0.57841 0.66586 0.33995 0.0
O98 O 0.81196 0.52435 0.67288 0.0
Cd99 Cd 0.82449 0.51332 0.74151 0.0
Cd100 Cd 0.86642 0.54571 0.68584 0.0
O101 O 0.84523 0.55825 0.65334 0.0
O102 O 0.79432 0.49146 0.7837 0.0
O103 O 0.82284 0.52557 0.82064 0.0
C104 C 0.8019 0.50658 0.8255 0.0
C105 C 0.90622 0.57355 0.70849 0.0
C106 C 0.82283 0.54435 0.64653 0.0
C107 C 0.85064 0.49342 0.67979 0.0
O108 O 0.86116 0.51346 0.65376 0.0
O109 O 0.8379 0.49069 0.72384 0.0
O110 O 0.89889 0.56899 0.65617 0.0
O111 O 0.89066 0.56262 0.74869 0.0
O112 O 0.26895 0.82901 0.03918 0.0
Cd113 Cd 0.29321 0.82881 0.09641 0.0
Cd114 Cd 0.32306 0.87581 0.01775 0.0
O115 O 0.29043 0.85797 0.97709 0.0
O116 O 0.27189 0.79579 0.12685 0.0
O117 O 0.28559 0.82819 0.18109 0.0
C118 C 0.27219 0.80517 0.17574 0.0
C119 C 0.34187 0.91715 -0.00015 0.0
C120 C 0.27052 0.84061 0.99383 0.0
C121 C 0.342 0.8413 0.04246 0.0
O122 O 0.34493 0.86099 0.02224 0.0
O123 O 0.32306 0.82682 0.06986 0.0
O124 O 0.34021 0.90213 0.96113 0.0
O125 O 0.33364 0.90886 0.05033 0.0
O126 O 0.45197 0.28265 0.33537 0.0
Cd127 Cd 0.4584 0.30063 0.41272 0.0
Cd128 Cd 0.43894 0.32419 0.34689 0.0
O129 O 0.43291 0.29808 0.2888 0.0
O130 O 0.47018 0.28308 0.46106 0.0
O131 O 0.43609 0.28246 0.47853 0.0
C132 C 0.45103 0.27528 0.49155 0.0
C133 C 0.40863 0.33381 0.35678 0.0
C134 C 0.44073 0.28349 0.29136 0.0
C135 C 0.48993 0.35358 0.3877 0.0
O136 O 0.47365 0.35201 0.35415 0.0
O137 O 0.48662 0.33583 0.4185 0.0
O138 O 0.42195 0.33966 0.31172 0.0
O139 O 0.41251 0.32233 0.39702 0.0
O140 O 0.18115 0.46968 0.66672 0.0
Cd141 Cd 0.17631 0.48068 0.74586 0.0
Cd142 Cd 0.13092 0.46716 0.69484 0.0
O143 O 0.14772 0.4633 0.62435 0.0
O144 O 0.20658 0.48843 0.78675 0.0
O145 O 0.17096 0.45892 0.81371 0.0
C146 C 0.19397 0.47087 0.8211 0.0
C147 C 0.09119 0.43656 0.70511 0.0
C148 C 0.16784 0.46416 0.62258 0.0
C149 C 0.15991 0.51765 0.73865 0.0
O150 O 0.13995 0.50145 0.71837 0.0
O151 O 0.17642 0.51298 0.75112 0.0
O152 O 0.09751 0.45272 0.66587 0.0
O153 O 0.10744 0.43813 0.74034 0.0
O154 O 0.71927 0.17856 0.02678 0.0
Cd155 Cd 0.69182 0.1619 0.08585 0.0
Cd156 Cd 0.67959 0.1255 0.00903 0.0
O157 O 0.71283 0.14701 0.97515 0.0
O158 O 0.70317 0.18551 0.15021 0.0
O159 O 0.70046 0.14985 0.15673 0.0
C160 C 0.70697 0.17064 0.17917 0.0
C161 C 0.6654 0.08491 0.02542 0.0
C162 C 0.72548 0.16918 0.98722 0.0
C163 C 0.64715 0.14619 0.0178 0.0
O164 O 0.65419 0.13442 0.98777 0.0
O165 O 0.65805 0.15653 0.0639 0.0
O166 O 0.6677 0.0933 0.97415 0.0
O167 O 0.67201 0.09988 0.06782 0.0
H168 H 0.341 0.4027 0.25919 0.0
H169 H 0.31342 0.39354 0.43272 0.0
H170 H 0.32969 0.36682 0.4547 0.0
H171 H 0.33268 0.34117 0.24178 0.0
H172 H 0.36045 0.35254 0.2026 0.0
H173 H 0.34329 0.3677 0.19787 0.0
H174 H 0.38072 0.40752 0.23 0.0
H175 H 0.39791 0.39249 0.23522 0.0
H176 H 0.39547 0.40829 0.29644 0.0
H177 H 0.3527 0.34478 0.461 0.0
H178 H 0.38123 0.32971 0.45112 0.0
H179 H 0.39447 0.35423 0.27437 0.0
C180 C 0.33778 0.39449 0.30125 0.0
C181 C 0.3258 0.39999 0.3441 0.0
C182 C 0.32249 0.38946 0.39918 0.0
C183 C 0.33158 0.37419 0.41202 0.0
C184 C 0.34393 0.36966 0.36931 0.0
C185 C 0.34696 0.37942 0.31495 0.0
C186 C 0.36296 0.37371 0.27859 0.0
C187 C 0.34901 0.35783 0.22717 0.0
C188 C 0.3856 0.39688 0.25895 0.0
C189 C 0.36905 0.3599 0.32153 0.0
C190 C 0.35761 0.35738 0.37332 0.0
C191 C 0.36152 0.34635 0.42039 0.0
C192 C 0.37777 0.33789 0.41445 0.0
C193 C 0.39005 0.3408 0.36205 0.0
C194 C 0.38529 0.35165 0.31496 0.0
H195 H 0.95721 0.35758 0.59127 0.0
H196 H 0.93718 0.3303 0.76447 0.0
H197 H 0.98005 0.35066 0.79229 0.0
H198 H 0.01499 0.35716 0.58388 0.0
H199 H 0.0297 0.38523 0.54521 0.0
H200 H -0.00213 0.36508 0.53643 0.0
H201 H 0.98983 0.39946 0.56489 0.0
H202 H 0.02155 0.41962 0.57421 0.0
H203 H 0.00113 0.41478 0.63235 0.0
H204 H 0.02477 0.37656 0.80325 0.0
H205 H 0.06776 0.40802 0.7977 0.0
H206 H 0.05799 0.42061 0.61942 0.0
C207 C 0.96199 0.35532 0.63446 0.0
C208 C 0.94411 0.34213 0.67558 0.0
C209 C 0.95079 0.34022 0.73235 0.0
C210 C 0.97504 0.35162 0.74845 0.0
C211 C 0.99232 0.36509 0.70737 0.0
C212 C 0.98612 0.36707 0.65157 0.0
C213 C 0.00787 0.38489 0.61765 0.0
C214 C 0.0129 0.37233 0.56785 0.0
C215 C 0.00491 0.40593 0.59604 0.0
C216 C 0.0271 0.39302 0.66342 0.0
C217 C 0.01792 0.38102 0.71452 0.0
C218 C 0.03223 0.38597 0.76334 0.0
C219 C 0.05656 0.40385 0.75988 0.0
C220 C 0.06606 0.41679 0.70833 0.0
C221 C 0.05115 0.41108 0.65953 0.0
H222 H 0.59318 0.94738 0.92983 0.0
H223 H 0.57589 0.9296 0.10968 0.0
H224 H 0.60213 0.97219 0.13562 0.0
H225 H 0.65584 0.99447 0.95049 0.0
H226 H 0.65476 0.0133 0.89458 0.0
H227 H 0.63597 0.98107 0.89009 0.0
H228 H 0.59819 0.98556 0.88054 0.0
H229 H 0.61688 0.01776 0.88466 0.0
H230 H 0.59235 0.00217 0.93432 0.0
H231 H 0.62897 0.01677 0.14221 0.0
H232 H 0.65246 0.06079 0.1279 0.0
H233 H 0.65169 0.04976 0.94395 0.0
C234 C 0.5951 0.95244 0.97466 0.0
C235 C 0.58254 0.93518 0.01771 0.0
C236 C 0.58529 0.94253 0.0759 0.0
C237 C 0.60028 0.96666 0.09117 0.0
C238 C 0.61236 0.98326 0.04778 0.0
C239 C 0.60986 0.97654 0.99069 0.0
C240 C 0.62373 0.99821 0.95227 0.0
C241 C 0.64376 0.99666 0.91996 0.0
C242 C 0.60677 0.00109 0.91051 0.0
C243 C 0.63404 0.01813 0.99664 0.0
C244 C 0.62755 0.0091 0.05152 0.0
C245 C 0.63431 0.02408 0.09946 0.0
C246 C 0.64768 0.04905 0.09094 0.0
C247 C 0.65392 0.0587 0.03489 0.0
C248 C 0.6473 0.04294 0.98738 0.0
H249 H 0.66207 0.6018 0.34596 0.0
H250 H 0.65498 0.58306 0.16527 0.0
H251 H 0.63264 0.60471 0.14971 0.0
H252 H 0.60458 0.5924 0.36458 0.0
H253 H 0.61289 0.61708 0.41354 0.0
H254 H 0.63089 0.60288 0.4092 0.0
H255 H 0.6687 0.64401 0.38709 0.0
H256 H 0.65086 0.65843 0.39198 0.0
H257 H 0.66811 0.66188 0.32813 0.0
H258 H 0.60742 0.62445 0.1563 0.0
H259 H 0.58273 0.64246 0.1832 0.0
H260 H 0.60657 0.64835 0.3598 0.0
C261 C 0.6563 0.60266 0.3028 0.0
C262 C 0.66032 0.5908 0.25673 0.0
C263 C 0.65223 0.59215 0.20109 0.0
C264 C 0.63952 0.60438 0.19189 0.0
C265 C 0.63527 0.61528 0.23868 0.0
C266 C 0.64365 0.61476 0.29293 0.0
C267 C 0.63547 0.62659 0.33667 0.0
C268 C 0.62004 0.60866 0.38374 0.0
C269 C 0.65708 0.64907 0.36247 0.0
C270 C 0.62058 0.63327 0.29888 0.0
C271 C 0.62083 0.62675 0.24245 0.0
C272 C 0.60737 0.62994 0.20017 0.0
C273 C 0.59331 0.64008 0.21598 0.0
C274 C 0.59279 0.64687 0.2736 0.0
C275 C 0.60677 0.64355 0.31535 0.0
H276 H 0.94234 0.59847 0.63141 0.0
H277 H 0.92835 0.58503 0.81377 0.0
H278 H 0.97195 0.60963 0.83322 0.0
H279 H 0.99425 0.59366 0.62761 0.0
H280 H 0.0098 0.61719 0.57546 0.0
H281 H 0.97745 0.60039 0.57624 0.0
H282 H 0.97625 0.63999 0.58623 0.0
H283 H 0.00864 0.65697 0.58509 0.0
H284 H 0.99246 0.66047 0.64394 0.0
H285 H 0.01701 0.63296 0.83189 0.0
H286 H 0.0604 0.65439 0.81074 0.0
H287 H 0.04493 0.65274 0.6289 0.0
C288 C 0.94836 0.60096 0.67557 0.0
C289 C 0.93194 0.58988 0.72116 0.0
C290 C 0.9406 0.59345 0.77824 0.0
C291 C 0.96531 0.60737 0.78967 0.0
C292 C 0.98103 0.61767 0.74356 0.0
C293 C 0.97289 0.61478 0.68769 0.0
C294 C 0.99354 0.62685 0.64563 0.0
C295 C 0.99376 0.60842 0.60379 0.0
C296 C 0.99267 0.64729 0.61333 0.0
C297 C 0.01465 0.6366 0.6865 0.0
C298 C 0.00702 0.6312 0.74279 0.0
C299 C 0.02319 0.63749 0.78806 0.0
C300 C 0.04781 0.6496 0.77552 0.0
C301 C 0.05605 0.65528 0.71813 0.0
C302 C 0.03919 0.6488 0.67318 0.0
H303 H 0.35809 0.95572 0.07349 0.0
H304 H 0.34854 0.93646 0.89298 0.0
H305 H 0.36505 0.97907 0.86697 0.0
H306 H 0.34423 0.00428 0.06417 0.0
H307 H 0.36708 0.02304 0.11522 0.0
H308 H 0.35285 0.99075 0.12024 0.0
H309 H 0.39454 0.99364 0.11585 0.0
H310 H 0.40887 0.0259 0.11121 0.0
H311 H 0.41447 0.00931 0.05693 0.0
H312 H 0.38342 0.02369 0.86002 0.0
H313 H 0.40569 0.06782 0.87265 0.0
H314 H 0.40463 0.05833 0.05726 0.0
C315 C 0.3593 0.96048 0.02856 0.0
C316 C 0.35196 0.9428 0.98528 0.0
C317 C 0.35411 0.94974 0.92689 0.0
C318 C 0.36332 0.97387 0.91164 0.0
C319 C 0.37043 0.99089 0.95524 0.0
C320 C 0.36875 0.98458 0.01249 0.0
C321 C 0.37912 0.00662 0.05067 0.0
C322 C 0.35966 0.00614 0.08988 0.0
C323 C 0.40052 0.00901 0.08571 0.0
C324 C 0.38718 0.02625 0.00586 0.0
C325 C 0.38165 0.01676 0.95115 0.0
C326 C 0.38778 0.03137 0.90266 0.0
C327 C 0.40037 0.0564 0.91026 0.0
C328 C 0.4069 0.0665 0.96588 0.0
C329 C 0.39984 0.05115 0.01419 0.0
H330 H 0.23688 0.50083 0.87199 0.0
H331 H 0.17797 0.42706 0.87305 0.0
H332 H 0.19931 0.41682 0.94662 0.0
H333 H 0.28581 0.48878 0.8954 0.0
H334 H 0.3019 0.51427 0.94235 0.0
H335 H 0.28301 0.51516 0.88634 0.0
H336 H 0.25913 0.52472 0.96127 0.0
H337 H 0.27816 0.52423 0.01721 0.0
H338 H 0.24601 0.50508 0.02212 0.0
H339 H 0.22733 0.41508 0.02121 0.0
H340 H 0.25595 0.42326 0.10082 0.0
H341 H 0.29487 0.49872 0.05378 0.0
C342 C 0.22856 0.48245 0.88734 0.0
C343 C 0.20591 0.46465 0.86662 0.0
C344 C 0.19534 0.44094 0.88851 0.0
C345 C 0.20742 0.43494 0.92982 0.0
C346 C 0.2299 0.45294 0.94904 0.0
C347 C 0.24013 0.47631 0.92913 0.0
C348 C 0.26334 0.49285 0.96015 0.0
C349 C 0.28478 0.50338 0.91856 0.0
C350 C 0.26154 0.51289 0.99209 0.0
C351 C 0.26446 0.47526 0.00136 0.0
C352 C 0.24536 0.4522 0.99344 0.0
C353 C 0.24238 0.43305 0.02762 0.0
C354 C 0.25883 0.43782 0.07241 0.0
C355 C 0.27763 0.46159 0.08317 0.0
C356 C 0.28075 0.48035 0.04621 0.0
H357 H 0.77391 0.26304 0.43337 0.0
H358 H 0.81996 0.23194 0.44998 0.0
H359 H 0.79549 0.20121 0.37702 0.0
H360 H 0.71784 0.2082 0.41082 0.0
H361 H 0.70714 0.22111 0.35791 0.0
H362 H 0.72752 0.23985 0.41327 0.0
H363 H 0.7572 0.26842 0.33633 0.0
H364 H 0.73675 0.25 0.28086 0.0
H365 H 0.76739 0.2562 0.28055 0.0
H366 H 0.76496 0.17317 0.30377 0.0
H367 H 0.73541 0.15439 0.22508 0.0
H368 H 0.71138 0.20585 0.25245 0.0
C369 C 0.77882 0.24974 0.42165 0.0
C370 C 0.79869 0.2497 0.44744 0.0
C371 C 0.80482 0.23228 0.4305 0.0
C372 C 0.7909 0.21466 0.38954 0.0
C373 C 0.77117 0.21498 0.36547 0.0
C374 C 0.76546 0.2324 0.38011 0.0
C375 C 0.74443 0.22987 0.34528 0.0
C376 C 0.72296 0.22443 0.38416 0.0
C377 C 0.7519 0.25246 0.30857 0.0
C378 C 0.73919 0.20835 0.30852 0.0
C379 C 0.75446 0.19968 0.32158 0.0
C380 C 0.75297 0.17986 0.29311 0.0
C381 C 0.73599 0.16918 0.24882 0.0
C382 C 0.72111 0.17865 0.23282 0.0
C383 C 0.72248 0.19819 0.2639 0.0
H384 H 0.52972 0.768 0.80349 0.0
H385 H 0.53366 0.83085 0.72328 0.0
H386 H 0.53674 0.81558 0.62792 0.0
H387 H 0.5734 0.76522 0.70864 0.0
H388 H 0.55794 0.73279 0.70846 0.0
H389 H 0.55594 0.74865 0.77009 0.0
H390 H 0.50946 0.72468 0.76298 0.0
H391 H 0.51129 0.70881 0.70125 0.0
H392 H 0.49512 0.72499 0.69673 0.0
H393 H 0.53591 0.79181 0.54173 0.0
H394 H 0.53593 0.7635 0.47004 0.0
H395 H 0.53659 0.71793 0.60651 0.0
C396 C 0.53127 0.77854 0.76578 0.0
C397 C 0.53123 0.80047 0.77037 0.0
C398 C 0.53365 0.814 0.72042 0.0
C399 C 0.53535 0.80544 0.66624 0.0
C400 C 0.53514 0.78363 0.66313 0.0
C401 C 0.5336 0.77057 0.7116 0.0
C402 C 0.53438 0.74798 0.69653 0.0
C403 C 0.55675 0.74872 0.72247 0.0
C404 C 0.51118 0.72528 0.7155 0.0
C405 C 0.53609 0.7501 0.63179 0.0
C406 C 0.53624 0.77068 0.61349 0.0
C407 C 0.53619 0.77586 0.55555 0.0
C408 C 0.53609 0.75964 0.51523 0.0
C409 C 0.53648 0.73874 0.53297 0.0
C410 C 0.53668 0.73401 0.59199 0.0
H411 H 0.74101 0.54025 0.08204 0.0
H412 H 0.69505 0.46348 0.10883 0.0
H413 H 0.71512 0.4553 0.02895 0.0
H414 H 0.74478 0.53865 0.92633 0.0
H415 H 0.77604 0.56168 0.92397 0.0
H416 H 0.75711 0.56156 0.98108 0.0
H417 H 0.78675 0.56109 0.05577 0.0
H418 H 0.80564 0.56096 0.99888 0.0
H419 H 0.79441 0.53766 0.05263 0.0
H420 H 0.73963 0.45523 0.94659 0.0
H421 H 0.76795 0.46325 0.86699 0.0
H422 H 0.80034 0.54003 0.89665 0.0
C423 C 0.73497 0.52175 0.07037 0.0
C424 C 0.71631 0.50246 0.10111 0.0
C425 C 0.70924 0.47849 0.08562 0.0
C426 C 0.72053 0.47367 0.04038 0.0
C427 C 0.73912 0.49303 0.01153 0.0
C428 C 0.74641 0.5166 0.02587 0.0
C429 C 0.76754 0.53401 0.9892 0.0
C430 C 0.76097 0.54991 0.95299 0.0
C431 C 0.78991 0.54933 0.02635 0.0
C432 C 0.77087 0.5165 0.95194 0.0
C433 C 0.75413 0.49297 0.96541 0.0
C434 C 0.75294 0.47356 0.93584 0.0
C435 C 0.76909 0.47829 0.89076 0.0
C436 C 0.78645 0.50222 0.87615 0.0
C437 C 0.78752 0.52156 0.90763 0.0
H438 H 0.22544 0.76671 0.4973 0.0
H439 H 0.16172 0.70569 0.42569 0.0
H440 H 0.17805 0.71894 0.32788 0.0
H441 H 0.23099 0.80899 0.38701 0.0
H442 H 0.2634 0.82482 0.38779 0.0
H443 H 0.24686 0.81023 0.45188 0.0
H444 H 0.26915 0.78601 0.45823 0.0
H445 H 0.28565 0.80042 0.39398 0.0
H446 H 0.26833 0.76805 0.39788 0.0
H447 H 0.20238 0.7375 0.23905 0.0
H448 H 0.23074 0.76256 0.16351 0.0
H449 H 0.27729 0.81345 0.29232 0.0
C450 C 0.21494 0.75615 0.46097 0.0
C451 C 0.19242 0.73507 0.46879 0.0
C452 C 0.179 0.72189 0.4204 0.0
C453 C 0.18817 0.72922 0.36485 0.0
C454 C 0.21055 0.74999 0.35864 0.0
C455 C 0.22358 0.7635 0.40528 0.0
C456 C 0.24675 0.78556 0.38674 0.0
C457 C 0.247 0.80877 0.4044 0.0
C458 C 0.26877 0.78496 0.41063 0.0
C459 C 0.24488 0.78221 0.32229 0.0
C460 C 0.22399 0.76141 0.30713 0.0
C461 C 0.21866 0.75394 0.25034 0.0
C462 C 0.23495 0.76824 0.20781 0.0
C463 C 0.25614 0.78997 0.22214 0.0
C464 C 0.26113 0.79703 0.28017 0.0
H465 H 0.48688 0.20924 0.72686 0.0
H466 H 0.41103 0.16251 0.76218 0.0
H467 H 0.40094 0.18267 0.68527 0.0
H468 H 0.48546 0.26185 0.7021 0.0
H469 H 0.507 0.2725 0.64437 0.0
H470 H 0.5081 0.25313 0.6986 0.0
H471 H 0.50485 0.2228 0.62075 0.0
H472 H 0.50421 0.24231 0.56609 0.0
H473 H 0.48043 0.21136 0.56991 0.0
H474 H 0.39982 0.21165 0.61175 0.0
H475 H 0.40746 0.24274 0.53856 0.0
H476 H 0.48395 0.26855 0.54954 0.0
C477 C 0.46812 0.20291 0.71758 0.0
C478 C 0.44971 0.18434 0.75025 0.0
C479 C 0.42538 0.17655 0.7371 0.0
C480 C 0.41951 0.18802 0.69385 0.0
C481 C 0.4382 0.20689 0.66367 0.0
C482 C 0.46199 0.21385 0.67415 0.0
C483 C 0.4788 0.2347 0.63642 0.0
C484 C 0.49584 0.25685 0.67255 0.0
C485 C 0.49289 0.22734 0.59588 0.0
C486 C 0.46083 0.23883 0.60392 0.0
C487 C 0.43749 0.22278 0.62036 0.0
C488 C 0.418 0.22405 0.59796 0.0
C489 C 0.4225 0.24186 0.55683 0.0
C490 C 0.44626 0.25791 0.53827 0.0
C491 C 0.46557 0.25636 0.5625 0.0
H492 H 0.19766 0.44596 0.60929 0.0
H493 H 0.15734 0.4721 0.514 0.0
H494 H 0.17527 0.46824 0.42353 0.0
H495 H 0.25044 0.4759 0.53469 0.0
H496 H 0.25742 0.45197 0.53598 0.0
H497 H 0.23914 0.45394 0.59161 0.0
H498 H 0.20534 0.41034 0.56949 0.0
H499 H 0.22361 0.4082 0.51373 0.0
H500 H 0.19375 0.40241 0.49749 0.0
H501 H 0.20266 0.46788 0.34686 0.0
H502 H 0.2349 0.46782 0.28881 0.0
H503 H 0.25464 0.43901 0.43395 0.0
C504 C 0.19229 0.45044 0.56922 0.0
C505 C 0.17629 0.45942 0.56829 0.0
C506 C 0.16954 0.46507 0.51529 0.0
C507 C 0.1796 0.46292 0.46383 0.0
C508 C 0.19581 0.45452 0.46633 0.0
C509 C 0.20172 0.44791 0.51759 0.0
C510 C 0.22048 0.44058 0.50931 0.0
C511 C 0.2432 0.45656 0.54499 0.0
C512 C 0.21017 0.41379 0.52332 0.0
C513 C 0.22512 0.44527 0.44585 0.0
C514 C 0.21066 0.45317 0.4216 0.0
C515 C 0.21363 0.46109 0.36491 0.0
C516 C 0.23201 0.46111 0.33242 0.0
C517 C 0.24695 0.4531 0.3568 0.0
C518 C 0.24306 0.44464 0.41378 0.0
H519 H 0.79099 0.23169 0.69758 0.0
H520 H 0.85134 0.28262 0.80128 0.0
H521 H 0.83156 0.25903 0.88789 0.0
H522 H 0.74552 0.22149 0.79419 0.0
H523 H 0.72719 0.18972 0.78001 0.0
H524 H 0.74691 0.20948 0.72529 0.0
H525 H 0.7673 0.1835 0.71709 0.0
H526 H 0.74758 0.1636 0.77185 0.0
H527 H 0.77971 0.17763 0.78034 0.0
H528 H 0.80309 0.2336 0.964 0.0
H529 H 0.76883 0.2052 0.02431 0.0
H530 H 0.72868 0.16866 0.87141 0.0
C531 C 0.80014 0.23765 0.73843 0.0
C532 C 0.82262 0.25895 0.74283 0.0
C533 C 0.83414 0.26623 0.79693 0.0
C534 C 0.82307 0.25299 0.84639 0.0
C535 C 0.80076 0.23225 0.84079 0.0
C536 C 0.78958 0.22435 0.78816 0.0
C537 C 0.7653 0.20181 0.79438 0.0
C538 C 0.74504 0.20589 0.77217 0.0
C539 C 0.76497 0.18037 0.76412 0.0
C540 C 0.76426 0.19885 0.85888 0.0
C541 C 0.78489 0.21664 0.88485 0.0
C542 C 0.7871 0.21917 0.94429 0.0
C543 C 0.76762 0.2031 0.9781 0.0
C544 C 0.74655 0.18462 0.95218 0.0
C545 C 0.74499 0.18225 0.89201 0.0
H546 H 0.55845 0.78888 0.01834 0.0
H547 H 0.57637 0.85106 0.12515 0.0
H548 H 0.58862 0.83347 0.20283 0.0
H549 H 0.53086 0.74703 0.11954 0.0
H550 H 0.54141 0.72699 0.09759 0.0
H551 H 0.53943 0.74668 0.04605 0.0
H552 H 0.58451 0.76461 0.02107 0.0
H553 H 0.58662 0.74478 0.07259 0.0
H554 H 0.60673 0.77682 0.07736 0.0
H555 H 0.59032 0.8059 0.27444 0.0
H556 H 0.58278 0.77087 0.33333 0.0
H557 H 0.56531 0.72711 0.17969 0.0
C558 C 0.56567 0.79916 0.05737 0.0
C559 C 0.56638 0.82129 0.0657 0.0
C560 C 0.5757 0.83408 0.11768 0.0
C561 C 0.58283 0.8243 0.16202 0.0
C562 C 0.58096 0.80196 0.15328 0.0
C563 C 0.57298 0.78971 0.10188 0.0
C564 C 0.56986 0.76478 0.10569 0.0
C565 C 0.54385 0.74524 0.09142 0.0
C566 C 0.58802 0.76263 0.06688 0.0
C567 C 0.57569 0.7643 0.16835 0.0
C568 C 0.58254 0.78609 0.1948 0.0
C569 C 0.58572 0.78899 0.25399 0.0
C570 C 0.58126 0.76898 0.28713 0.0
C571 C 0.57372 0.74641 0.26088 0.0
C572 C 0.57168 0.74432 0.20066 0.0
H573 H 0.72922 0.51266 0.39398 0.0
H574 H 0.76 0.58921 0.36368 0.0
H575 H 0.78874 0.59788 0.44343 0.0
H576 H 0.73125 0.51673 0.5458 0.0
H577 H 0.73809 0.49294 0.55569 0.0
H578 H 0.72126 0.49282 0.49377 0.0
H579 H 0.75247 0.49097 0.42663 0.0
H580 H 0.76921 0.49072 0.48836 0.0
H581 H 0.78384 0.51331 0.43366 0.0
H582 H 0.81433 0.59776 0.52611 0.0
H583 H 0.83397 0.58889 0.60645 0.0
H584 H 0.78359 0.51257 0.58581 0.0
C585 C 0.74229 0.53125 0.40341 0.0
C586 C 0.7427 0.55029 0.37236 0.0
C587 C 0.75959 0.57439 0.3869 0.0
C588 C 0.7759 0.57947 0.43206 0.0
C589 C 0.77471 0.56021 0.46254 0.0
C590 C 0.75825 0.53661 0.44891 0.0
C591 C 0.7598 0.51916 0.4897 0.0
C592 C 0.7362 0.50456 0.52322 0.0
C593 C 0.76675 0.50257 0.45767 0.0
C594 C 0.77986 0.53661 0.52829 0.0
C595 C 0.7884 0.56021 0.5118 0.0
C596 C 0.80765 0.57937 0.53974 0.0
C597 C 0.81864 0.57419 0.58525 0.0
C598 C 0.81003 0.5501 0.60264 0.0
C599 C 0.79021 0.53119 0.5742 0.0
H600 H 0.20331 0.78229 0.71133 0.0
H601 H 0.13917 0.74322 0.81544 0.0
H602 H 0.15863 0.77256 0.89329 0.0
H603 H 0.24219 0.79003 0.81022 0.0
H604 H 0.26567 0.81998 0.79191 0.0
H605 H 0.24473 0.80123 0.73809 0.0
H606 H 0.23311 0.83374 0.71744 0.0
H607 H 0.25438 0.85291 0.771 0.0
H608 H 0.22339 0.84544 0.77542 0.0
H609 H 0.1878 0.79747 0.967 0.0
H610 H 0.22374 0.81816 0.0286 0.0
H611 H 0.26907 0.84266 0.8776 0.0
C612 C 0.19297 0.78052 0.74951 0.0
C613 C 0.1698 0.7604 0.75741 0.0
C614 C 0.15695 0.75849 0.80833 0.0
C615 C 0.16784 0.77517 0.85278 0.0
C616 C 0.19136 0.79391 0.84521 0.0
C617 C 0.20362 0.79703 0.79426 0.0
C618 C 0.22985 0.81616 0.80002 0.0
C619 C 0.24656 0.80623 0.78418 0.0
C620 C 0.23551 0.83838 0.76383 0.0
C621 C 0.2309 0.82162 0.86341 0.0
C622 C 0.20838 0.80908 0.88841 0.0
C623 C 0.20537 0.80811 0.94776 0.0
C624 C 0.22587 0.81974 0.98242 0.0
C625 C 0.24904 0.83219 0.95757 0.0
C626 C 0.25147 0.83387 0.89742 0.0
H627 H 0.44674 0.17932 0.12088 0.0
H628 H 0.43911 0.2116 0.96457 0.0
H629 H 0.43295 0.24041 0.0221 0.0
H630 H 0.40381 0.18699 0.20927 0.0
H631 H 0.42232 0.19451 0.27258 0.0
H632 H 0.42336 0.17469 0.21935 0.0
H633 H 0.46949 0.20262 0.21039 0.0
H634 H 0.46859 0.22251 0.26345 0.0
H635 H 0.48144 0.23402 0.19388 0.0
H636 H 0.42908 0.26637 0.09593 0.0
H637 H 0.43111 0.29016 0.18102 0.0
H638 H 0.44386 0.2425 0.28891 0.0
C639 C 0.44332 0.19218 0.0989 0.0
C640 C 0.44312 0.19318 0.0385 0.0
C641 C 0.43925 0.2106 0.01095 0.0
C642 C 0.43561 0.2269 0.04318 0.0
C643 C 0.43617 0.22563 0.10274 0.0
C644 C 0.44013 0.20887 0.13038 0.0
C645 C 0.44202 0.21271 0.19462 0.0
C646 C 0.42166 0.19093 0.22578 0.0
C647 C 0.46686 0.21831 0.21686 0.0
C648 C 0.43886 0.23447 0.19867 0.0
C649 C 0.43505 0.24134 0.14531 0.0
C650 C 0.43196 0.26114 0.13801 0.0
C651 C 0.43311 0.2745 0.18657 0.0
C652 C 0.43771 0.26818 0.24143 0.0
C653 C 0.44039 0.24778 0.24746 0.0
H654 H 0.38675 0.53384 0.23744 0.0
H655 H 0.35978 0.51786 0.41189 0.0
H656 H 0.39541 0.55511 0.44562 0.0
H657 H 0.44855 0.55603 0.27593 0.0
H658 H 0.4604 0.57892 0.22117 0.0
H659 H 0.43208 0.55172 0.21017 0.0
H660 H 0.41153 0.57702 0.19139 0.0
H661 H 0.43978 0.6043 0.20255 0.0
H662 H 0.41386 0.59854 0.24441 0.0
H663 H 0.43331 0.59459 0.46008 0.0
H664 H 0.47333 0.63139 0.45593 0.0
H665 H 0.47722 0.62002 0.27366 0.0
C666 C 0.38835 0.53831 0.28264 0.0
C667 C 0.37051 0.52312 0.32207 0.0
C668 C 0.37332 0.52927 0.38104 0.0
C669 C 0.3934 0.55043 0.40056 0.0
C670 C 0.41069 0.56505 0.36068 0.0
C671 C 0.40859 0.55911 0.3031 0.0
C672 C 0.43044 0.57725 0.26985 0.0
C673 C 0.44365 0.56526 0.2427 0.0
C674 C 0.42348 0.59004 0.22437 0.0
C675 C 0.44509 0.59429 0.31771 0.0
C676 C 0.4332 0.58714 0.36959 0.0
C677 C 0.4429 0.60031 0.41979 0.0
C678 C 0.46556 0.6212 0.417 0.0
C679 C 0.47838 0.6284 0.36463 0.0
C680 C 0.4679 0.61478 0.31441 0.0
H681 H 0.85353 0.45825 0.73932 0.0
H682 H 0.85048 0.48223 0.56726 0.0
H683 H 0.85025 0.44643 0.52701 0.0
H684 H 0.89457 0.43684 0.70299 0.0
H685 H 0.88099 0.41192 0.75237 0.0
H686 H 0.88019 0.43905 0.76725 0.0
H687 H 0.83375 0.41417 0.77557 0.0
H688 H 0.8344 0.38699 0.76042 0.0
H689 H 0.81637 0.39511 0.71679 0.0
H690 H 0.84736 0.40633 0.50636 0.0
H691 H 0.84776 0.36785 0.50635 0.0
H692 H 0.85707 0.37273 0.69099 0.0
C693 C 0.85284 0.45591 0.69321 0.0
C694 C 0.85185 0.47277 0.65626 0.0
C695 C 0.85131 0.46944 0.59613 0.0
C696 C 0.85105 0.44915 0.57295 0.0
C697 C 0.85189 0.43271 0.61054 0.0
C698 C 0.85328 0.43614 0.66932 0.0
C699 C 0.85514 0.41641 0.70017 0.0
C700 C 0.87915 0.42667 0.73259 0.0
C701 C 0.83363 0.40234 0.74061 0.0
C702 C 0.85422 0.40116 0.64967 0.0
C703 C 0.85196 0.41063 0.59836 0.0
C704 C 0.84949 0.39893 0.54619 0.0
C705 C 0.84963 0.37711 0.54653 0.0
C706 C 0.85277 0.36767 0.59851 0.0
C707 C 0.85508 0.37987 0.65055 0.0
H708 H 0.47464 0.86865 0.97225 0.0
H709 H 0.4475 0.79169 0.97479 0.0
H710 H 0.40671 0.78457 0.99658 0.0
H711 H 0.43922 0.87103 0.08597 0.0
H712 H 0.43426 0.89347 0.05237 0.0
H713 H 0.46111 0.89236 0.0366 0.0
H714 H 0.45113 0.88869 0.92802 0.0
H715 H 0.42432 0.88996 0.94341 0.0
H716 H 0.42232 0.86502 0.90324 0.0
H717 H 0.36933 0.78634 0.02395 0.0
H718 H 0.33765 0.79651 0.04458 0.0
H719 H 0.38936 0.87215 0.01837 0.0
C720 C 0.4601 0.85028 0.97721 0.0
C721 C 0.4642 0.83071 0.97218 0.0
C722 C 0.44469 0.80693 0.97831 0.0
C723 C 0.42152 0.80274 0.99094 0.0
C724 C 0.41817 0.8225 0.99636 0.0
C725 C 0.43688 0.84578 0.98878 0.0
C726 C 0.42853 0.86389 0.99547 0.0
C727 C 0.44155 0.8812 0.04559 0.0
C728 C 0.43176 0.8777 0.93918 0.0
C729 C 0.40224 0.84723 0.00883 0.0
C730 C 0.3966 0.82343 0.00966 0.0
C731 C 0.3735 0.80489 0.02286 0.0
C732 C 0.35567 0.81085 0.03479 0.0
C733 C 0.36101 0.83509 0.03271 0.0
C734 C 0.38465 0.85342 0.0197 0.0
H735 H 0.6053 0.4621 0.24204 0.0
H736 H 0.63453 0.48582 0.41271 0.0
H737 H 0.5979 0.45183 0.45482 0.0
H738 H 0.54404 0.44508 0.28088 0.0
H739 H 0.53079 0.41979 0.23245 0.0
H740 H 0.55956 0.44561 0.216 0.0
H741 H 0.57825 0.4181 0.20751 0.0
H742 H 0.54956 0.39221 0.22403 0.0
H743 H 0.57557 0.39883 0.26669 0.0
H744 H 0.5593 0.41336 0.47746 0.0
H745 H 0.51937 0.3761 0.4794 0.0
H746 H 0.51383 0.38039 0.29493 0.0
C747 C 0.60391 0.46008 0.28824 0.0
C748 C 0.62268 0.47634 0.32426 0.0
C749 C 0.62023 0.47347 0.38453 0.0
C750 C 0.59958 0.45422 0.40877 0.0
C751 C 0.58137 0.43838 0.3721 0.0
C752 C 0.58315 0.44137 0.31319 0.0
C753 C 0.56065 0.42241 0.28347 0.0
C754 C 0.54801 0.43392 0.25132 0.0
C755 C 0.56636 0.40698 0.24305 0.0
C756 C 0.54613 0.40806 0.33475 0.0
C757 C 0.55849 0.41732 0.38547 0.0
C758 C 0.54926 0.40617 0.43813 0.0
C759 C 0.52668 0.38505 0.43888 0.0
C760 C 0.51352 0.37576 0.38749 0.0
C761 C 0.52337 0.38749 0.33497 0.0
H762 H 0.12626 0.62019 0.70114 0.0
H763 H 0.20267 0.67136 0.68866 0.0
H764 H 0.21153 0.63902 0.71262 0.0
H765 H 0.12904 0.58375 0.8177 0.0
H766 H 0.10596 0.55594 0.78691 0.0
H767 H 0.10575 0.58352 0.77405 0.0
H768 H 0.10562 0.57689 0.6643 0.0
H769 H 0.10566 0.54926 0.67684 0.0
H770 H 0.12876 0.57243 0.63304 0.0
H771 H 0.21185 0.60075 0.73565 0.0
H772 H 0.20371 0.55899 0.74503 0.0
H773 H 0.12702 0.53287 0.73761 0.0
C774 C 0.14488 0.62467 0.70418 0.0
C775 C 0.16381 0.6483 0.69358 0.0
C776 C 0.18791 0.65335 0.6967 0.0
C777 C 0.19311 0.63516 0.71066 0.0
C778 C 0.17399 0.61203 0.72087 0.0
C779 C 0.15035 0.60671 0.71714 0.0
C780 C 0.13305 0.58011 0.7254 0.0
C781 C 0.11754 0.57557 0.77923 0.0
C782 C 0.11736 0.56903 0.67169 0.0
C783 C 0.15064 0.57119 0.73352 0.0
C784 C 0.17415 0.58991 0.7319 0.0
C785 C 0.19351 0.58596 0.73719 0.0
C786 C 0.1887 0.56218 0.74275 0.0
C787 C 0.16473 0.54268 0.74198 0.0
C788 C 0.14553 0.54739 0.73841 0.0
H789 H 0.61245 0.14928 0.08024 0.0
H790 H 0.63635 0.14855 0.9066 0.0
H791 H 0.60248 0.1521 0.86827 0.0
H792 H 0.54992 0.11223 0.04931 0.0
H793 H 0.54033 0.12769 0.0977 0.0
H794 H 0.5676 0.12714 0.11199 0.0
H795 H 0.59146 0.17376 0.11571 0.0
H796 H 0.56424 0.17445 0.10142 0.0
H797 H 0.59006 0.19071 0.05564 0.0
H798 H 0.56626 0.15566 0.84844 0.0
H799 H 0.5277 0.15547 0.84827 0.0
H800 H 0.52552 0.15094 0.03419 0.0
C801 C 0.61063 0.15016 0.03424 0.0
C802 C 0.62702 0.14882 0.9963 0.0
C803 C 0.62391 0.14952 0.93632 0.0
C804 C 0.60482 0.15166 0.91414 0.0
C805 C 0.58883 0.15274 0.95251 0.0
C806 C 0.59132 0.15176 0.01125 0.0
C807 C 0.57063 0.15161 0.04272 0.0
C808 C 0.55627 0.12828 0.07746 0.0
C809 C 0.57964 0.17397 0.08114 0.0
C810 C 0.55616 0.15256 0.99247 0.0
C811 C 0.56719 0.15359 0.9409 0.0
C812 C 0.55738 0.15481 0.88853 0.0
C813 C 0.53554 0.15474 0.88885 0.0
C814 C 0.52361 0.15305 0.94113 0.0
C815 C 0.53416 0.15206 0.99352 0.0
loop_
_geom_bond_atom_site_label_1
_geom_bond_atom_site_label_2
_geom_bond_distance
_geom_bond_site_symmetry_2
_ccdc_geom_bond_type
O0 Cd1 2.223 . S
O0 C8 1.315 . S
Cd1 O0 2.223 . S
Cd1 O4 2.297 . S
Cd1 O5 2.439 . S
Cd1 O11 2.240 . S
Cd2 O3 2.240 . S
Cd2 O10 2.223 . S
Cd2 O12 2.297 . S
Cd2 O13 2.439 . S
O3 Cd2 2.240 . S
O3 C8 1.279 . S
O4 Cd1 2.297 . S
O4 C6 1.247 . S
O5 Cd1 2.439 . S
O5 C6 1.208 . S
C6 O4 1.247 . S
C6 O5 1.208 . S
C7 O12 1.247 . S
C7 O13 1.208 . S
C8 O0 1.315 . S
C8 O3 1.279 . S
C9 O10 1.315 . S
C9 O11 1.279 . S
O10 Cd2 2.223 . S
O10 C9 1.315 . S
O11 Cd1 2.240 . S
O11 C9 1.279 . S
O12 Cd2 2.297 . S
O12 C7 1.247 . S
O13 Cd2 2.439 . S
O13 C7 1.208 . S
O14 Cd15 2.223 . S
O14 C22 1.315 . S
Cd15 O14 2.223 . S
Cd15 O18 2.297 . S
Cd15 O19 2.439 . S
Cd15 O25 2.240 . S
Cd16 O17 2.240 . S
Cd16 O24 2.223 . S
Cd16 O26 2.297 . S
Cd16 O27 2.439 . S
O17 Cd16 2.240 . S
O17 C22 1.279 . S
O18 Cd15 2.297 . S
O18 C20 1.247 . S
O19 Cd15 2.439 . S
O19 C20 1.208 . S
C20 O18 1.247 . S
C20 O19 1.208 . S
C21 O26 1.247 . S
C21 O27 1.208 . S
C22 O14 1.315 . S
C22 O17 1.279 . S
C23 O24 1.315 . S
C23 O25 1.279 . S
O24 Cd16 2.223 . S
O24 C23 1.315 . S
O25 Cd15 2.240 . S
O25 C23 1.279 . S
O26 Cd16 2.297 . S
O26 C21 1.247 . S
O27 Cd16 2.439 . S
O27 C21 1.208 . S
O28 Cd29 2.223 . S
O28 C36 1.315 1_556 S
Cd29 O28 2.223 . S
Cd29 O32 2.297 . S
Cd29 O33 2.439 . S
Cd29 O39 2.240 . S
Cd30 O31 2.240 1_554 S
Cd30 O38 2.223 . S
Cd30 O40 2.297 . S
Cd30 O41 2.439 1_554 S
O31 Cd30 2.240 1_556 S
O31 C36 1.279 1_556 S
O32 Cd29 2.297 . S
O32 C34 1.247 . S
O33 Cd29 2.439 . S
O33 C34 1.208 . S
C34 O32 1.247 . S
C34 O33 1.208 . S
C35 O40 1.247 1_556 S
C35 O41 1.208 . S
C36 O28 1.315 1_554 S
C36 O31 1.279 1_554 S
C37 O38 1.315 1_556 S
C37 O39 1.279 . S
O38 Cd30 2.223 . S
O38 C37 1.315 1_554 S
O39 Cd29 2.240 . S
O39 C37 1.279 . S
O40 Cd30 2.297 . S
O40 C35 1.247 1_554 S
O41 Cd30 2.439 1_556 S
O41 C35 1.208 . S
O42 Cd43 2.223 . S
O42 C50 1.315 . S
Cd43 O42 2.223 . S
Cd43 O46 2.297 . S
Cd43 O47 2.439 . S
Cd43 O53 2.240 . S
Cd44 O45 2.240 . S
Cd44 O52 2.223 . S
Cd44 O54 2.297 . S
Cd44 O55 2.439 . S
O45 Cd44 2.240 . S
O45 C50 1.279 . S
O46 Cd43 2.297 . S
O46 C48 1.247 . S
O47 Cd43 2.439 . S
O47 C48 1.208 . S
C48 O46 1.247 . S
C48 O47 1.208 . S
C49 O54 1.247 . S
C49 O55 1.208 . S
C50 O42 1.315 . S
C50 O45 1.279 . S
C51 O52 1.315 . S
C51 O53 1.279 . S
O52 Cd44 2.223 . S
O52 C51 1.315 . S
O53 Cd43 2.240 . S
O53 C51 1.279 . S
O54 Cd44 2.297 . S
O54 C49 1.247 . S
O55 Cd44 2.439 . S
O55 C49 1.208 . S
O56 Cd57 2.223 . S
O56 C64 1.315 . S
Cd57 O56 2.223 . S
Cd57 O60 2.297 . S
Cd57 O61 2.439 . S
Cd57 O67 2.240 . S
Cd58 O59 2.240 . S
Cd58 O66 2.223 . S
Cd58 O68 2.297 . S
Cd58 O69 2.439 . S
O59 Cd58 2.240 . S
O59 C64 1.279 . S
O60 Cd57 2.297 . S
O60 C62 1.247 . S
O61 Cd57 2.439 . S
O61 C62 1.208 . S
C62 O60 1.247 . S
C62 O61 1.208 . S
C63 O68 1.247 . S
C63 O69 1.208 . S
C64 O56 1.315 . S
C64 O59 1.279 . S
C65 O66 1.315 . S
C65 O67 1.279 . S
O66 Cd58 2.223 . S
O66 C65 1.315 . S
O67 Cd57 2.240 . S
O67 C65 1.279 . S
O68 Cd58 2.297 . S
O68 C63 1.247 . S
O69 Cd58 2.439 . S
O69 C63 1.208 . S
O70 Cd71 2.223 . S
O70 C78 1.315 1_556 S
Cd71 O70 2.223 . S
Cd71 O74 2.297 . S
Cd71 O75 2.439 . S
Cd71 O81 2.240 . S
Cd72 O73 2.240 1_554 S
Cd72 O80 2.223 . S
Cd72 O82 2.297 . S
Cd72 O83 2.439 1_554 S
O73 Cd72 2.240 1_556 S
O73 C78 1.279 1_556 S
O74 Cd71 2.297 . S
O74 C76 1.247 . S
O75 Cd71 2.439 . S
O75 C76 1.208 . S
C76 O74 1.247 . S
C76 O75 1.208 . S
C77 O82 1.247 1_556 S
C77 O83 1.208 . S
C78 O70 1.315 1_554 S
C78 O73 1.279 1_554 S
C79 O80 1.315 1_556 S
C79 O81 1.279 . S
O80 Cd72 2.223 . S
O80 C79 1.315 1_554 S
O81 Cd71 2.240 . S
O81 C79 1.279 . S
O82 Cd72 2.297 . S
O82 C77 1.247 1_554 S
O83 Cd72 2.439 1_556 S
O83 C77 1.208 . S
O84 Cd85 2.223 . S
O84 C92 1.315 . S
Cd85 O84 2.223 . S
Cd85 O88 2.297 . S
Cd85 O89 2.439 . S
Cd85 O95 2.240 . S
Cd86 O87 2.240 . S
Cd86 O94 2.223 . S
Cd86 O96 2.297 . S
Cd86 O97 2.439 . S
O87 Cd86 2.240 . S
O87 C92 1.279 . S
O88 Cd85 2.297 . S
O88 C90 1.247 . S
O89 Cd85 2.439 . S
O89 C90 1.208 . S
C90 O88 1.247 . S
C90 O89 1.208 . S
C91 O96 1.247 . S
C91 O97 1.208 . S
C92 O84 1.315 . S
C92 O87 1.279 . S
C93 O94 1.315 . S
C93 O95 1.279 . S
O94 Cd86 2.223 . S
O94 C93 1.315 . S
O95 Cd85 2.240 . S
O95 C93 1.279 . S
O96 Cd86 2.297 . S
O96 C91 1.247 . S
O97 Cd86 2.439 . S
O97 C91 1.208 . S
O98 Cd99 2.223 . S
O98 C106 1.315 . S
Cd99 O98 2.223 . S
Cd99 O102 2.297 . S
Cd99 O103 2.439 . S
Cd99 O109 2.240 . S
Cd100 O101 2.240 . S
Cd100 O108 2.223 . S
Cd100 O110 2.297 . S
Cd100 O111 2.439 . S
O101 Cd100 2.240 . S
O101 C106 1.279 . S
O102 Cd99 2.297 . S
O102 C104 1.247 . S
O103 Cd99 2.439 . S
O103 C104 1.208 . S
C104 O102 1.247 . S
C104 O103 1.208 . S
C105 O110 1.247 . S
C105 O111 1.208 . S
C106 O98 1.315 . S
C106 O101 1.279 . S
C107 O108 1.315 . S
C107 O109 1.279 . S
O108 Cd100 2.223 . S
O108 C107 1.315 . S
O109 Cd99 2.240 . S
O109 C107 1.279 . S
O110 Cd100 2.297 . S
O110 C105 1.247 . S
O111 Cd100 2.439 . S
O111 C105 1.208 . S
O112 Cd113 2.223 . S
O112 C120 1.315 1_554 S
Cd113 O112 2.223 . S
Cd113 O116 2.297 . S
Cd113 O117 2.439 . S
Cd113 O123 2.240 . S
Cd114 O115 2.240 1_556 S
Cd114 O122 2.223 . S
Cd114 O124 2.297 . S
Cd114 O125 2.439 1_556 S
O115 Cd114 2.240 1_554 S
O115 C120 1.279 1_554 S
O116 Cd113 2.297 . S
O116 C118 1.247 . S
O117 Cd113 2.439 . S
O117 C118 1.208 . S
C118 O116 1.247 . S
C118 O117 1.208 . S
C119 O124 1.247 1_554 S
C119 O125 1.208 . S
C120 O112 1.315 1_556 S
C120 O115 1.279 1_556 S
C121 O122 1.315 1_554 S
C121 O123 1.279 . S
O122 Cd114 2.223 . S
O122 C121 1.315 1_556 S
O123 Cd113 2.240 . S
O123 C121 1.279 . S
O124 Cd114 2.297 . S
O124 C119 1.247 1_556 S
O125 Cd114 2.439 1_554 S
O125 C119 1.208 . S
O126 Cd127 2.223 . S
O126 C134 1.315 . S
Cd127 O126 2.223 . S
Cd127 O130 2.297 . S
Cd127 O131 2.439 . S
Cd127 O137 2.240 . S
Cd128 O129 2.240 . S
Cd128 O136 2.223 . S
Cd128 O138 2.297 . S
Cd128 O139 2.439 . S
O129 Cd128 2.240 . S
O129 C134 1.279 . S
O130 Cd127 2.297 . S
O130 C132 1.247 . S
O131 Cd127 2.439 . S
O131 C132 1.208 . S
C132 O130 1.247 . S
C132 O131 1.208 . S
C133 O138 1.247 . S
C133 O139 1.208 . S
C134 O126 1.315 . S
C134 O129 1.279 . S
C135 O136 1.315 . S
C135 O137 1.279 . S
O136 Cd128 2.223 . S
O136 C135 1.315 . S
O137 Cd127 2.240 . S
O137 C135 1.279 . S
O138 Cd128 2.297 . S
O138 C133 1.247 . S
O139 Cd128 2.439 . S
O139 C133 1.208 . S
O140 Cd141 2.223 . S
O140 C148 1.315 . S
Cd141 O140 2.223 . S
Cd141 O144 2.297 . S
Cd141 O145 2.439 . S
Cd141 O151 2.240 . S
Cd142 O143 2.240 . S
Cd142 O150 2.223 . S
Cd142 O152 2.297 . S
Cd142 O153 2.439 . S
O143 Cd142 2.240 . S
O143 C148 1.279 . S
O144 Cd141 2.297 . S
O144 C146 1.247 . S
O145 Cd141 2.439 . S
O145 C146 1.208 . S
C146 O144 1.247 . S
C146 O145 1.208 . S
C147 O152 1.247 . S
C147 O153 1.208 . S
C148 O140 1.315 . S
C148 O143 1.279 . S
C149 O150 1.315 . S
C149 O151 1.279 . S
O150 Cd142 2.223 . S
O150 C149 1.315 . S
O151 Cd141 2.240 . S
O151 C149 1.279 . S
O152 Cd142 2.297 . S
O152 C147 1.247 . S
O153 Cd142 2.439 . S
O153 C147 1.208 . S
O154 Cd155 2.223 . S
O154 C162 1.315 1_554 S
Cd155 O154 2.223 . S
Cd155 O158 2.297 . S
Cd155 O159 2.439 . S
Cd155 O165 2.240 . S
Cd156 O157 2.240 1_556 S
Cd156 O164 2.223 . S
Cd156 O166 2.297 . S
Cd156 O167 2.439 1_556 S
O157 Cd156 2.240 1_554 S
O157 C162 1.279 1_554 S
O158 Cd155 2.297 . S
O158 C160 1.247 . S
O159 Cd155 2.439 . S
O159 C160 1.208 . S
C160 O158 1.247 . S
C160 O159 1.208 . S
C161 O166 1.247 1_554 S
C161 O167 1.208 . S
C162 O154 1.315 1_556 S
C162 O157 1.279 1_556 S
C163 O164 1.315 1_554 S
C163 O165 1.279 . S
O164 Cd156 2.223 . S
O164 C163 1.315 1_556 S
O165 Cd155 2.240 . S
O165 C163 1.279 . S
O166 Cd156 2.297 . S
O166 C161 1.247 1_556 S
O167 Cd156 2.439 1_554 S
O167 C161 1.208 . S
H168 C180 0.930 . S
H169 C182 0.930 . S
H170 C183 0.930 . S
H171 C187 0.959 . S
H172 C187 0.959 . S
H173 C187 0.961 . S
H174 C188 0.960 . S
H175 C188 0.961 . S
H176 C188 0.959 . S
H177 C191 0.929 . S
H178 C192 0.931 . S
H179 C194 0.930 . S
C180 H168 0.930 . S
C180 C181 1.399 . S
C180 C185 1.399 . S
C181 C180 1.399 . S
C181 C182 1.376 . S
C182 H169 0.930 . S
C182 C181 1.376 . S
C182 C183 1.388 . S
C183 H170 0.930 . S
C183 C182 1.388 . S
C183 C184 1.390 . S
C184 C183 1.390 . S
C184 C185 1.394 . S
C184 C190 1.465 . S
C185 C180 1.399 . S
C185 C184 1.394 . S
C185 C186 1.516 . S
C186 C185 1.516 . S
C186 C187 1.502 . S
C186 C188 1.561 . S
C186 C189 1.526 . S
C187 H171 0.959 . S
C187 H172 0.959 . S
C187 H173 0.961 . S
C187 C186 1.502 . S
C188 H174 0.960 . S
C188 H175 0.961 . S
C188 H176 0.959 . S
C188 C186 1.561 . S
C189 C186 1.526 . S
C189 C190 1.396 . S
C189 C194 1.390 . S
C190 C184 1.465 . S
C190 C189 1.396 . S
C190 C191 1.399 . S
C191 H177 0.929 . S
C191 C190 1.399 . S
C191 C192 1.385 . S
C192 H178 0.931 . S
C192 C191 1.385 . S
C192 C193 1.389 . S
C193 C192 1.389 . S
C193 C194 1.387 . S
C194 H179 0.930 . S
C194 C189 1.390 . S
C194 C193 1.387 . S
H195 C207 0.930 . S
H196 C209 0.930 . S
H197 C210 0.930 . S
H198 C214 0.959 . S
H199 C214 0.959 . S
H200 C214 0.963 . S
H201 C215 0.960 . S
H202 C215 0.961 . S
H203 C215 0.959 . S
H204 C218 0.929 . S
H205 C219 0.931 . S
H206 C221 0.930 . S
C207 H195 0.930 . S
C207 C208 1.399 . S
C207 C212 1.399 . S
C208 C207 1.399 . S
C208 C209 1.376 . S
C209 H196 0.930 . S
C209 C208 1.376 . S
C209 C210 1.388 . S
C210 H197 0.930 . S
C210 C209 1.388 . S
C210 C211 1.390 . S
C211 C210 1.390 . S
C211 C212 1.394 . S
C211 C217 1.465 1_655 S
C212 C207 1.399 . S
C212 C211 1.394 . S
C212 C213 1.516 1_655 S
C213 C212 1.516 1_455 S
C213 C214 1.502 . S
C213 C215 1.561 . S
C213 C216 1.526 . S
C214 H198 0.959 . S
C214 H199 0.959 . S
C214 H200 0.963 . S
C214 C213 1.502 . S
C215 H201 0.960 . S
C215 H202 0.961 . S
C215 H203 0.959 . S
C215 C213 1.561 . S
C216 C213 1.526 . S
C216 C217 1.396 . S
C216 C221 1.390 . S
C217 C211 1.465 1_455 S
C217 C216 1.396 . S
C217 C218 1.399 . S
C218 H204 0.929 . S
C218 C217 1.399 . S
C218 C219 1.385 . S
C219 H205 0.931 . S
C219 C218 1.385 . S
C219 C220 1.389 . S
C220 C219 1.389 . S
C220 C221 1.387 . S
C221 H206 0.930 . S
C221 C216 1.390 . S
C221 C220 1.387 . S
H222 C234 0.930 . S
H223 C236 0.930 . S
H224 C237 0.930 . S
H225 C241 0.959 . S
H226 C241 0.959 . S
H227 C241 0.948 1_565 S
H228 C242 0.960 . S
H229 C242 0.961 . S
H230 C242 0.959 . S
H231 C245 0.929 . S
H232 C246 0.931 . S
H233 C248 0.930 1_556 S
C234 H222 0.930 . S
C234 C235 1.399 . S
C234 C239 1.399 . S
C235 C234 1.399 . S
C235 C236 1.376 1_556 S
C236 H223 0.930 . S
C236 C235 1.376 1_554 S
C236 C237 1.388 . S
C237 H224 0.930 . S
C237 C236 1.388 . S
C237 C238 1.390 . S
C238 C237 1.390 . S
C238 C239 1.394 1_554 S
C238 C244 1.465 1_565 S
C239 C234 1.399 . S
C239 C238 1.394 1_556 S
C239 C240 1.516 1_565 S
C240 C239 1.516 1_545 S
C240 C241 1.502 . S
C240 C242 1.561 . S
C240 C243 1.526 . S
C241 H225 0.959 . S
C241 H226 0.959 . S
C241 H227 0.948 1_545 S
C241 C240 1.502 . S
C242 H228 0.960 . S
C242 H229 0.961 . S
C242 H230 0.959 . S
C242 C240 1.561 . S
C243 C240 1.526 . S
C243 C244 1.396 1_556 S
C243 C248 1.390 1_556 S
C244 C238 1.465 1_545 S
C244 C243 1.396 1_554 S
C244 C245 1.399 . S
C245 H231 0.929 . S
C245 C244 1.399 . S
C245 C246 1.385 . S
C246 H232 0.931 . S
C246 C245 1.385 . S
C246 C247 1.389 . S
C247 C246 1.389 . S
C247 C248 1.387 . S
C248 H233 0.930 1_554 S
C248 C243 1.390 1_554 S
C248 C247 1.387 . S
H249 C261 0.930 . S
H250 C263 0.930 . S
H251 C264 0.930 . S
H252 C268 0.959 . S
H253 C268 0.959 . S
H254 C268 0.961 . S
H255 C269 0.960 . S
H256 C269 0.961 . S
H257 C269 0.959 . S
H258 C272 0.929 . S
H259 C273 0.931 . S
H260 C275 0.930 . S
C261 H249 0.930 . S
C261 C262 1.399 . S
C261 C266 1.399 . S
C262 C261 1.399 . S
C262 C263 1.376 . S
C263 H250 0.930 . S
C263 C262 1.376 . S
C263 C264 1.388 . S
C264 H251 0.930 . S
C264 C263 1.388 . S
C264 C265 1.390 . S
C265 C264 1.390 . S
C265 C266 1.394 . S
C265 C271 1.465 . S
C266 C261 1.399 . S
C266 C265 1.394 . S
C266 C267 1.516 . S
C267 C266 1.516 . S
C267 C268 1.502 . S
C267 C269 1.561 . S
C267 C270 1.526 . S
C268 H252 0.959 . S
C268 H253 0.959 . S
C268 H254 0.961 . S
C268 C267 1.502 . S
C269 H255 0.960 . S
C269 H256 0.961 . S
C269 H257 0.959 . S
C269 C267 1.561 . S
C270 C267 1.526 . S
C270 C271 1.396 . S
C270 C275 1.390 . S
C271 C265 1.465 . S
C271 C270 1.396 . S
C271 C272 1.399 . S
C272 H258 0.929 . S
C272 C271 1.399 . S
C272 C273 1.385 . S
C273 H259 0.931 . S
C273 C272 1.385 . S
C273 C274 1.389 . S
C274 C273 1.389 . S
C274 C275 1.387 . S
C275 H260 0.930 . S
C275 C270 1.390 . S
C275 C274 1.387 . S
H276 C288 0.930 . S
H277 C290 0.930 . S
H278 C291 0.930 . S
H279 C295 0.959 . S
H280 C295 0.959 . S
H281 C295 0.961 . S
H282 C296 0.960 . S
H283 C296 0.961 . S
H284 C296 0.959 . S
H285 C299 0.929 . S
H286 C300 0.931 . S
H287 C302 0.930 . S
C288 H276 0.930 . S
C288 C289 1.399 . S
C288 C293 1.399 . S
C289 C288 1.399 . S
C289 C290 1.376 . S
C290 H277 0.930 . S
C290 C289 1.376 . S
C290 C291 1.388 . S
C291 H278 0.930 . S
C291 C290 1.388 . S
C291 C292 1.390 . S
C292 C291 1.390 . S
C292 C293 1.394 . S
C292 C298 1.465 1_655 S
C293 C288 1.399 . S
C293 C292 1.394 . S
C293 C294 1.516 . S
C294 C293 1.516 . S
C294 C295 1.502 . S
C294 C296 1.561 . S
C294 C297 1.526 1_655 S
C295 H279 0.959 . S
C295 H280 0.959 . S
C295 H281 0.961 . S
C295 C294 1.502 . S
C296 H282 0.960 . S
C296 H283 0.961 . S
C296 H284 0.959 . S
C296 C294 1.561 . S
C297 C294 1.526 1_455 S
C297 C298 1.396 . S
C297 C302 1.390 . S
C298 C292 1.465 1_455 S
C298 C297 1.396 . S
C298 C299 1.399 . S
C299 H285 0.929 . S
C299 C298 1.399 . S
C299 C300 1.385 . S
C300 H286 0.931 . S
C300 C299 1.385 . S
C300 C301 1.389 . S
C301 C300 1.389 . S
C301 C302 1.387 . S
C302 H287 0.930 . S
C302 C297 1.390 . S
C302 C301 1.387 . S
H303 C315 0.930 . S
H304 C317 0.930 . S
H305 C318 0.930 . S
H306 C322 0.959 . S
H307 C322 0.959 . S
H308 C322 0.968 . S
H309 C323 0.960 . S
H310 C323 0.961 . S
H311 C323 0.959 . S
H312 C326 0.929 . S
H313 C327 0.931 . S
H314 C329 0.930 1_554 S
C315 H303 0.930 . S
C315 C316 1.399 . S
C315 C320 1.399 . S
C316 C315 1.399 . S
C316 C317 1.376 1_554 S
C317 H304 0.930 . S
C317 C316 1.376 1_556 S
C317 C318 1.388 . S
C318 H305 0.930 . S
C318 C317 1.388 . S
C318 C319 1.390 . S
C319 C318 1.390 . S
C319 C320 1.394 1_556 S
C319 C325 1.465 1_565 S
C320 C315 1.399 . S
C320 C319 1.394 1_554 S
C320 C321 1.516 1_565 S
C321 C320 1.516 1_545 S
C321 C322 1.502 . S
C321 C323 1.561 . S
C321 C324 1.526 . S
C322 H306 0.959 . S
C322 H307 0.959 . S
C322 H308 0.968 . S
C322 C321 1.502 . S
C323 H309 0.960 . S
C323 H310 0.961 . S
C323 H311 0.959 . S
C323 C321 1.561 . S
C324 C321 1.526 . S
C324 C325 1.396 1_554 S
C324 C329 1.390 1_554 S
C325 C319 1.465 1_545 S
C325 C324 1.396 1_556 S
C325 C326 1.399 . S
C326 H312 0.929 . S
C326 C325 1.399 . S
C326 C327 1.385 . S
C327 H313 0.931 . S
C327 C326 1.385 . S
C327 C328 1.389 . S
C328 C327 1.389 . S
C328 C329 1.387 . S
C329 H314 0.930 1_556 S
C329 C324 1.390 1_556 S
C329 C328 1.387 . S
H330 C342 0.930 . S
H331 C344 0.930 . S
H332 C345 0.930 . S
H333 C349 0.959 . S
H334 C349 0.959 1_554 S
H335 C349 0.961 . S
H336 C350 0.960 . S
H337 C350 0.961 . S
H338 C350 0.959 . S
H339 C353 0.929 . S
H340 C354 0.931 . S
H341 C356 0.930 . S
C342 H330 0.930 . S
C342 C343 1.399 . S
C342 C347 1.399 . S
C343 C342 1.399 . S
C343 C344 1.376 . S
C344 H331 0.930 . S
C344 C343 1.376 . S
C344 C345 1.388 . S
C345 H332 0.930 . S
C345 C344 1.388 . S
C345 C346 1.390 . S
C346 C345 1.390 . S
C346 C347 1.394 . S
C346 C352 1.465 1_556 S
C347 C342 1.399 . S
C347 C346 1.394 . S
C347 C348 1.516 1_556 S
C348 C347 1.516 1_554 S
C348 C349 1.502 1_554 S
C348 C350 1.561 . S
C348 C351 1.526 . S
C349 H333 0.959 . S
C349 H334 0.959 1_556 S
C349 H335 0.961 . S
C349 C348 1.502 1_556 S
C350 H336 0.960 . S
C350 H337 0.961 . S
C350 H338 0.959 . S
C350 C348 1.561 . S
C351 C348 1.526 . S
C351 C352 1.396 . S
C351 C356 1.390 . S
C352 C346 1.465 1_554 S
C352 C351 1.396 . S
C352 C353 1.399 . S
C353 H339 0.929 . S
C353 C352 1.399 . S
C353 C354 1.385 . S
C354 H340 0.931 . S
C354 C353 1.385 . S
C354 C355 1.389 . S
C355 C354 1.389 . S
C355 C356 1.387 . S
C356 H341 0.930 . S
C356 C351 1.390 . S
C356 C355 1.387 . S
H357 C369 0.930 . S
H358 C371 0.930 . S
H359 C372 0.930 . S
H360 C376 0.959 . S
H361 C376 0.959 . S
H362 C376 0.961 . S
H363 C377 0.960 . S
H364 C377 0.961 . S
H365 C377 0.959 . S
H366 C380 0.929 . S
H367 C381 0.931 . S
H368 C383 0.930 . S
C369 H357 0.930 . S
C369 C370 1.399 . S
C369 C374 1.399 . S
C370 C369 1.399 . S
C370 C371 1.376 . S
C371 H358 0.930 . S
C371 C370 1.376 . S
C371 C372 1.388 . S
C372 H359 0.930 . S
C372 C371 1.388 . S
C372 C373 1.390 . S
C373 C372 1.390 . S
C373 C374 1.394 . S
C373 C379 1.465 . S
C374 C369 1.399 . S
C374 C373 1.394 . S
C374 C375 1.516 . S
C375 C374 1.516 . S
C375 C376 1.502 . S
C375 C377 1.561 . S
C375 C378 1.526 . S
C376 H360 0.959 . S
C376 H361 0.959 . S
C376 H362 0.961 . S
C376 C375 1.502 . S
C377 H363 0.960 . S
C377 H364 0.961 . S
C377 H365 0.959 . S
C377 C375 1.561 . S
C378 C375 1.526 . S
C378 C379 1.396 . S
C378 C383 1.390 . S
C379 C373 1.465 . S
C379 C378 1.396 . S
C379 C380 1.399 . S
C380 H366 0.929 . S
C380 C379 1.399 . S
C380 C381 1.385 . S
C381 H367 0.931 . S
C381 C380 1.385 . S
C381 C382 1.389 . S
C382 C381 1.389 . S
C382 C383 1.387 . S
C383 H368 0.930 . S
C383 C378 1.390 . S
C383 C382 1.387 . S
H384 C396 0.930 . S
H385 C398 0.930 . S
H386 C399 0.930 . S
H387 C403 0.959 . S
H388 C403 0.959 . S
H389 C403 0.961 . S
H390 C404 0.960 . S
H391 C404 0.961 . S
H392 C404 0.959 . S
H393 C407 0.929 . S
H394 C408 0.931 . S
H395 C410 0.930 . S
C396 H384 0.930 . S
C396 C397 1.399 . S
C396 C401 1.399 . S
C397 C396 1.399 . S
C397 C398 1.376 . S
C398 H385 0.930 . S
C398 C397 1.376 . S
C398 C399 1.388 . S
C399 H386 0.930 . S
C399 C398 1.388 . S
C399 C400 1.390 . S
C400 C399 1.390 . S
C400 C401 1.394 . S
C400 C406 1.465 . S
C401 C396 1.399 . S
C401 C400 1.394 . S
C401 C402 1.516 . S
C402 C401 1.516 . S
C402 C403 1.502 . S
C402 C404 1.561 . S
C402 C405 1.526 . S
C403 H387 0.959 . S
C403 H388 0.959 . S
C403 H389 0.961 . S
C403 C402 1.502 . S
C404 H390 0.960 . S
C404 H391 0.961 . S
C404 H392 0.959 . S
C404 C402 1.561 . S
C405 C402 1.526 . S
C405 C406 1.396 . S
C405 C410 1.390 . S
C406 C400 1.465 . S
C406 C405 1.396 . S
C406 C407 1.399 . S
C407 H393 0.929 . S
C407 C406 1.399 . S
C407 C408 1.385 . S
C408 H394 0.931 . S
C408 C407 1.385 . S
C408 C409 1.389 . S
C409 C408 1.389 . S
C409 C410 1.387 . S
C410 H395 0.930 . S
C410 C405 1.390 . S
C410 C409 1.387 . S
H411 C423 0.930 . S
H412 C425 0.930 . S
H413 C426 0.930 . S
H414 C430 0.959 . S
H415 C430 0.959 . S
H416 C430 0.961 . S
H417 C431 0.960 . S
H418 C431 0.961 1_556 S
H419 C431 0.959 . S
H420 C434 0.929 . S
H421 C435 0.931 . S
H422 C437 0.930 . S
C423 H411 0.930 . S
C423 C424 1.399 . S
C423 C428 1.399 . S
C424 C423 1.399 . S
C424 C425 1.376 . S
C425 H412 0.930 . S
C425 C424 1.376 . S
C425 C426 1.388 . S
C426 H413 0.930 . S
C426 C425 1.388 . S
C426 C427 1.390 . S
C427 C426 1.390 . S
C427 C428 1.394 . S
C427 C433 1.465 1_554 S
C428 C423 1.399 . S
C428 C427 1.394 . S
C428 C429 1.516 1_554 S
C429 C428 1.516 1_556 S
C429 C430 1.502 . S
C429 C431 1.561 1_556 S
C429 C432 1.526 . S
C430 H414 0.959 . S
C430 H415 0.959 . S
C430 H416 0.961 . S
C430 C429 1.502 . S
C431 H417 0.960 . S
C431 H418 0.961 1_554 S
C431 H419 0.959 . S
C431 C429 1.561 1_554 S
C432 C429 1.526 . S
C432 C433 1.396 . S
C432 C437 1.390 . S
C433 C427 1.465 1_556 S
C433 C432 1.396 . S
C433 C434 1.399 . S
C434 H420 0.929 . S
C434 C433 1.399 . S
C434 C435 1.385 . S
C435 H421 0.931 . S
C435 C434 1.385 . S
C435 C436 1.389 . S
C436 C435 1.389 . S
C436 C437 1.387 . S
C437 H422 0.930 . S
C437 C432 1.390 . S
C437 C436 1.387 . S
H438 C450 0.930 . S
H439 C452 0.930 . S
H440 C453 0.930 . S
H441 C457 0.959 . S
H442 C457 0.959 . S
H443 C457 0.961 . S
H444 C458 0.960 . S
H445 C458 0.961 . S
H446 C458 0.959 . S
H447 C461 0.929 . S
H448 C462 0.931 . S
H449 C464 0.930 . S
C450 H438 0.930 . S
C450 C451 1.399 . S
C450 C455 1.399 . S
C451 C450 1.399 . S
C451 C452 1.376 . S
C452 H439 0.930 . S
C452 C451 1.376 . S
C452 C453 1.388 . S
C453 H440 0.930 . S
C453 C452 1.388 . S
C453 C454 1.390 . S
C454 C453 1.390 . S
C454 C455 1.394 . S
C454 C460 1.465 . S
C455 C450 1.399 . S
C455 C454 1.394 . S
C455 C456 1.516 . S
C456 C455 1.516 . S
C456 C457 1.502 . S
C456 C458 1.561 . S
C456 C459 1.526 . S
C457 H441 0.959 . S
C457 H442 0.959 . S
C457 H443 0.961 . S
C457 C456 1.502 . S
C458 H444 0.960 . S
C458 H445 0.961 . S
C458 H446 0.959 . S
C458 C456 1.561 . S
C459 C456 1.526 . S
C459 C460 1.396 . S
C459 C464 1.390 . S
C460 C454 1.465 . S
C460 C459 1.396 . S
C460 C461 1.399 . S
C461 H447 0.929 . S
C461 C460 1.399 . S
C461 C462 1.385 . S
C462 H448 0.931 . S
C462 C461 1.385 . S
C462 C463 1.389 . S
C463 C462 1.389 . S
C463 C464 1.387 . S
C464 H449 0.930 . S
C464 C459 1.390 . S
C464 C463 1.387 . S
H465 C477 0.930 . S
H466 C479 0.930 . S
H467 C480 0.930 . S
H468 C484 0.959 . S
H469 C484 0.959 . S
H470 C484 0.961 . S
H471 C485 0.960 . S
H472 C485 0.961 . S
H473 C485 0.959 . S
H474 C488 0.929 . S
H475 C489 0.931 . S
H476 C491 0.930 . S
C477 H465 0.930 . S
C477 C478 1.399 . S
C477 C482 1.399 . S
C478 C477 1.399 . S
C478 C479 1.376 . S
C479 H466 0.930 . S
C479 C478 1.376 . S
C479 C480 1.388 . S
C480 H467 0.930 . S
C480 C479 1.388 . S
C480 C481 1.390 . S
C481 C480 1.390 . S
C481 C482 1.394 . S
C481 C487 1.465 . S
C482 C477 1.399 . S
C482 C481 1.394 . S
C482 C483 1.516 . S
C483 C482 1.516 . S
C483 C484 1.502 . S
C483 C485 1.561 . S
C483 C486 1.526 . S
C484 H468 0.959 . S
C484 H469 0.959 . S
C484 H470 0.961 . S
C484 C483 1.502 . S
C485 H471 0.960 . S
C485 H472 0.961 . S
C485 H473 0.959 . S
C485 C483 1.561 . S
C486 C483 1.526 . S
C486 C487 1.396 . S
C486 C491 1.390 . S
C487 C481 1.465 . S
C487 C486 1.396 . S
C487 C488 1.399 . S
C488 H474 0.929 . S
C488 C487 1.399 . S
C488 C489 1.385 . S
C489 H475 0.931 . S
C489 C488 1.385 . S
C489 C490 1.389 . S
C490 C489 1.389 . S
C490 C491 1.387 . S
C491 H476 0.930 . S
C491 C486 1.390 . S
C491 C490 1.387 . S
H492 C504 0.930 . S
H493 C506 0.930 . S
H494 C507 0.930 . S
H495 C511 0.959 . S
H496 C511 0.959 . S
H497 C511 0.961 . S
H498 C512 0.960 . S
H499 C512 0.961 . S
H500 C512 0.959 . S
H501 C515 0.929 . S
H502 C516 0.931 . S
H503 C518 0.930 . S
C504 H492 0.930 . S
C504 C505 1.399 . S
C504 C509 1.399 . S
C505 C504 1.399 . S
C505 C506 1.376 . S
C506 H493 0.930 . S
C506 C505 1.376 . S
C506 C507 1.388 . S
C507 H494 0.930 . S
C507 C506 1.388 . S
C507 C508 1.390 . S
C508 C507 1.390 . S
C508 C509 1.394 . S
C508 C514 1.465 . S
C509 C504 1.399 . S
C509 C508 1.394 . S
C509 C510 1.516 . S
C510 C509 1.516 . S
C510 C511 1.502 . S
C510 C512 1.561 . S
C510 C513 1.526 . S
C511 H495 0.959 . S
C511 H496 0.959 . S
C511 H497 0.961 . S
C511 C510 1.502 . S
C512 H498 0.960 . S
C512 H499 0.961 . S
C512 H500 0.959 . S
C512 C510 1.561 . S
C513 C510 1.526 . S
C513 C514 1.396 . S
C513 C518 1.390 . S
C514 C508 1.465 . S
C514 C513 1.396 . S
C514 C515 1.399 . S
C515 H501 0.929 . S
C515 C514 1.399 . S
C515 C516 1.385 . S
C516 H502 0.931 . S
C516 C515 1.385 . S
C516 C517 1.389 . S
C517 C516 1.389 . S
C517 C518 1.387 . S
C518 H503 0.930 . S
C518 C513 1.390 . S
C518 C517 1.387 . S
H519 C531 0.930 . S
H520 C533 0.930 . S
H521 C534 0.930 . S
H522 C538 0.959 . S
H523 C538 0.959 . S
H524 C538 0.961 . S
H525 C539 0.960 . S
H526 C539 0.961 . S
H527 C539 0.959 . S
H528 C542 0.929 . S
H529 C543 0.931 1_554 S
H530 C545 0.930 . S
C531 H519 0.930 . S
C531 C532 1.399 . S
C531 C536 1.399 . S
C532 C531 1.399 . S
C532 C533 1.376 . S
C533 H520 0.930 . S
C533 C532 1.376 . S
C533 C534 1.388 . S
C534 H521 0.930 . S
C534 C533 1.388 . S
C534 C535 1.390 . S
C535 C534 1.390 . S
C535 C536 1.394 . S
C535 C541 1.465 . S
C536 C531 1.399 . S
C536 C535 1.394 . S
C536 C537 1.516 . S
C537 C536 1.516 . S
C537 C538 1.502 . S
C537 C539 1.561 . S
C537 C540 1.526 . S
C538 H522 0.959 . S
C538 H523 0.959 . S
C538 H524 0.961 . S
C538 C537 1.502 . S
C539 H525 0.960 . S
C539 H526 0.961 . S
C539 H527 0.959 . S
C539 C537 1.561 . S
C540 C537 1.526 . S
C540 C541 1.396 . S
C540 C545 1.390 . S
C541 C535 1.465 . S
C541 C540 1.396 . S
C541 C542 1.399 . S
C542 H528 0.929 . S
C542 C541 1.399 . S
C542 C543 1.385 . S
C543 H529 0.931 1_556 S
C543 C542 1.385 . S
C543 C544 1.389 . S
C544 C543 1.389 . S
C544 C545 1.387 . S
C545 H530 0.930 . S
C545 C540 1.390 . S
C545 C544 1.387 . S
H546 C558 0.930 . S
H547 C560 0.930 . S
H548 C561 0.930 . S
H549 C565 0.959 . S
H550 C565 0.959 . S
H551 C565 0.961 . S
H552 C566 0.960 . S
H553 C566 0.961 . S
H554 C566 0.959 . S
H555 C569 0.929 . S
H556 C570 0.931 . S
H557 C572 0.930 . S
C558 H546 0.930 . S
C558 C559 1.399 . S
C558 C563 1.399 . S
C559 C558 1.399 . S
C559 C560 1.376 . S
C560 H547 0.930 . S
C560 C559 1.376 . S
C560 C561 1.388 . S
C561 H548 0.930 . S
C561 C560 1.388 . S
C561 C562 1.390 . S
C562 C561 1.390 . S
C562 C563 1.394 . S
C562 C568 1.465 . S
C563 C558 1.399 . S
C563 C562 1.394 . S
C563 C564 1.516 . S
C564 C563 1.516 . S
C564 C565 1.502 . S
C564 C566 1.561 . S
C564 C567 1.526 . S
C565 H549 0.959 . S
C565 H550 0.959 . S
C565 H551 0.961 . S
C565 C564 1.502 . S
C566 H552 0.960 . S
C566 H553 0.961 . S
C566 H554 0.959 . S
C566 C564 1.561 . S
C567 C564 1.526 . S
C567 C568 1.396 . S
C567 C572 1.390 . S
C568 C562 1.465 . S
C568 C567 1.396 . S
C568 C569 1.399 . S
C569 H555 0.929 . S
C569 C568 1.399 . S
C569 C570 1.385 . S
C570 H556 0.931 . S
C570 C569 1.385 . S
C570 C571 1.389 . S
C571 C570 1.389 . S
C571 C572 1.387 . S
C572 H557 0.930 . S
C572 C567 1.390 . S
C572 C571 1.387 . S
H573 C585 0.930 . S
H574 C587 0.930 . S
H575 C588 0.930 . S
H576 C592 0.959 . S
H577 C592 0.959 . S
H578 C592 0.961 . S
H579 C593 0.960 . S
H580 C593 0.961 . S
H581 C593 0.959 . S
H582 C596 0.929 . S
H583 C597 0.931 . S
H584 C599 0.930 . S
C585 H573 0.930 . S
C585 C586 1.399 . S
C585 C590 1.399 . S
C586 C585 1.399 . S
C586 C587 1.376 . S
C587 H574 0.930 . S
C587 C586 1.376 . S
C587 C588 1.388 . S
C588 H575 0.930 . S
C588 C587 1.388 . S
C588 C589 1.390 . S
C589 C588 1.390 . S
C589 C590 1.394 . S
C589 C595 1.465 . S
C590 C585 1.399 . S
C590 C589 1.394 . S
C590 C591 1.516 . S
C591 C590 1.516 . S
C591 C592 1.502 . S
C591 C593 1.561 . S
C591 C594 1.526 . S
C592 H576 0.959 . S
C592 H577 0.959 . S
C592 H578 0.961 . S
C592 C591 1.502 . S
C593 H579 0.960 . S
C593 H580 0.961 . S
C593 H581 0.959 . S
C593 C591 1.561 . S
C594 C591 1.526 . S
C594 C595 1.396 . S
C594 C599 1.390 . S
C595 C589 1.465 . S
C595 C594 1.396 . S
C595 C596 1.399 . S
C596 H582 0.929 . S
C596 C595 1.399 . S
C596 C597 1.385 . S
C597 H583 0.931 . S
C597 C596 1.385 . S
C597 C598 1.389 . S
C598 C597 1.389 . S
C598 C599 1.387 . S
C599 H584 0.930 . S
C599 C594 1.390 . S
C599 C598 1.387 . S
H600 C612 0.930 . S
H601 C614 0.930 . S
H602 C615 0.930 . S
H603 C619 0.959 . S
H604 C619 0.959 . S
H605 C619 0.961 . S
H606 C620 0.960 . S
H607 C620 0.961 . S
H608 C620 0.959 . S
H609 C623 0.929 . S
H610 C624 0.931 1_554 S
H611 C626 0.930 . S
C612 H600 0.930 . S
C612 C613 1.399 . S
C612 C617 1.399 . S
C613 C612 1.399 . S
C613 C614 1.376 . S
C614 H601 0.930 . S
C614 C613 1.376 . S
C614 C615 1.388 . S
C615 H602 0.930 . S
C615 C614 1.388 . S
C615 C616 1.390 . S
C616 C615 1.390 . S
C616 C617 1.394 . S
C616 C622 1.465 . S
C617 C612 1.399 . S
C617 C616 1.394 . S
C617 C618 1.516 . S
C618 C617 1.516 . S
C618 C619 1.502 . S
C618 C620 1.561 . S
C618 C621 1.526 . S
C619 H603 0.959 . S
C619 H604 0.959 . S
C619 H605 0.961 . S
C619 C618 1.502 . S
C620 H606 0.960 . S
C620 H607 0.961 . S
C620 H608 0.959 . S
C620 C618 1.561 . S
C621 C618 1.526 . S
C621 C622 1.396 . S
C621 C626 1.390 . S
C622 C616 1.465 . S
C622 C621 1.396 . S
C622 C623 1.399 . S
C623 H609 0.929 . S
C623 C622 1.399 . S
C623 C624 1.385 . S
C624 H610 0.931 1_556 S
C624 C623 1.385 . S
C624 C625 1.389 . S
C625 C624 1.389 . S
C625 C626 1.387 . S
C626 H611 0.930 . S
C626 C621 1.390 . S
C626 C625 1.387 . S
H627 C639 0.930 . S
H628 C641 0.930 . S
H629 C642 0.930 . S
H630 C646 0.959 . S
H631 C646 0.959 . S
H632 C646 0.961 . S
H633 C647 0.960 . S
H634 C647 0.961 . S
H635 C647 0.959 . S
H636 C650 0.929 . S
H637 C651 0.931 . S
H638 C653 0.930 . S
C639 H627 0.930 . S
C639 C640 1.399 . S
C639 C644 1.399 . S
C640 C639 1.399 . S
C640 C641 1.376 . S
C641 H628 0.930 . S
C641 C640 1.376 . S
C641 C642 1.388 . S
C642 H629 0.930 . S
C642 C641 1.388 . S
C642 C643 1.390 . S
C643 C642 1.390 . S
C643 C644 1.394 . S
C643 C649 1.465 . S
C644 C639 1.399 . S
C644 C643 1.394 . S
C644 C645 1.516 . S
C645 C644 1.516 . S
C645 C646 1.502 . S
C645 C647 1.561 . S
C645 C648 1.526 . S
C646 H630 0.959 . S
C646 H631 0.959 . S
C646 H632 0.961 . S
C646 C645 1.502 . S
C647 H633 0.960 . S
C647 H634 0.961 . S
C647 H635 0.959 . S
C647 C645 1.561 . S
C648 C645 1.526 . S
C648 C649 1.396 . S
C648 C653 1.390 . S
C649 C643 1.465 . S
C649 C648 1.396 . S
C649 C650 1.399 . S
C650 H636 0.929 . S
C650 C649 1.399 . S
C650 C651 1.385 . S
C651 H637 0.931 . S
C651 C650 1.385 . S
C651 C652 1.389 . S
C652 C651 1.389 . S
C652 C653 1.387 . S
C653 H638 0.930 . S
C653 C648 1.390 . S
C653 C652 1.387 . S
H654 C666 0.930 . S
H655 C668 0.930 . S
H656 C669 0.930 . S
H657 C673 0.959 . S
H658 C673 0.959 . S
H659 C673 0.961 . S
H660 C674 0.960 . S
H661 C674 0.961 . S
H662 C674 0.959 . S
H663 C677 0.929 . S
H664 C678 0.931 . S
H665 C680 0.930 . S
C666 H654 0.930 . S
C666 C667 1.399 . S
C666 C671 1.399 . S
C667 C666 1.399 . S
C667 C668 1.376 . S
C668 H655 0.930 . S
C668 C667 1.376 . S
C668 C669 1.388 . S
C669 H656 0.930 . S
C669 C668 1.388 . S
C669 C670 1.390 . S
C670 C669 1.390 . S
C670 C671 1.394 . S
C670 C676 1.465 . S
C671 C666 1.399 . S
C671 C670 1.394 . S
C671 C672 1.516 . S
C672 C671 1.516 . S
C672 C673 1.502 . S
C672 C674 1.561 . S
C672 C675 1.526 . S
C673 H657 0.959 . S
C673 H658 0.959 . S
C673 H659 0.961 . S
C673 C672 1.502 . S
C674 H660 0.960 . S
C674 H661 0.961 . S
C674 H662 0.959 . S
C674 C672 1.561 . S
C675 C672 1.526 . S
C675 C676 1.396 . S
C675 C680 1.390 . S
C676 C670 1.465 . S
C676 C675 1.396 . S
C676 C677 1.399 . S
C677 H663 0.929 . S
C677 C676 1.399 . S
C677 C678 1.385 . S
C678 H664 0.931 . S
C678 C677 1.385 . S
C678 C679 1.389 . S
C679 C678 1.389 . S
C679 C680 1.387 . S
C680 H665 0.930 . S
C680 C675 1.390 . S
C680 C679 1.387 . S
H681 C693 0.930 . S
H682 C695 0.930 . S
H683 C696 0.930 . S
H684 C700 0.959 . S
H685 C700 0.959 . S
H686 C700 0.961 . S
H687 C701 0.960 . S
H688 C701 0.961 . S
H689 C701 0.959 . S
H690 C704 0.929 . S
H691 C705 0.931 . S
H692 C707 0.930 . S
C693 H681 0.930 . S
C693 C694 1.399 . S
C693 C698 1.399 . S
C694 C693 1.399 . S
C694 C695 1.376 . S
C695 H682 0.930 . S
C695 C694 1.376 . S
C695 C696 1.388 . S
C696 H683 0.930 . S
C696 C695 1.388 . S
C696 C697 1.390 . S
C697 C696 1.390 . S
C697 C698 1.394 . S
C697 C703 1.465 . S
C698 C693 1.399 . S
C698 C697 1.394 . S
C698 C699 1.516 . S
C699 C698 1.516 . S
C699 C700 1.502 . S
C699 C701 1.561 . S
C699 C702 1.526 . S
C700 H684 0.959 . S
C700 H685 0.959 . S
C700 H686 0.961 . S
C700 C699 1.502 . S
C701 H687 0.960 . S
C701 H688 0.961 . S
C701 H689 0.959 . S
C701 C699 1.561 . S
C702 C699 1.526 . S
C702 C703 1.396 . S
C702 C707 1.390 . S
C703 C697 1.465 . S
C703 C702 1.396 . S
C703 C704 1.399 . S
C704 H690 0.929 . S
C704 C703 1.399 . S
C704 C705 1.385 . S
C705 H691 0.931 . S
C705 C704 1.385 . S
C705 C706 1.389 . S
C706 C705 1.389 . S
C706 C707 1.387 . S
C707 H692 0.930 . S
C707 C702 1.390 . S
C707 C706 1.387 . S
H708 C720 0.930 . S
H709 C722 0.930 . S
H710 C723 0.930 . S
H711 C727 0.959 . S
H712 C727 0.959 . S
H713 C727 0.961 . S
H714 C728 0.960 . S
H715 C728 0.961 . S
H716 C728 0.959 1_554 S
H717 C731 0.929 . S
H718 C732 0.931 . S
H719 C734 0.930 . S
C720 H708 0.930 . S
C720 C721 1.399 1_556 S
C720 C725 1.399 . S
C721 C720 1.399 1_554 S
C721 C722 1.376 . S
C722 H709 0.930 . S
C722 C721 1.376 . S
C722 C723 1.388 . S
C723 H710 0.930 . S
C723 C722 1.388 . S
C723 C724 1.390 . S
C724 C723 1.390 . S
C724 C725 1.394 1_554 S
C724 C730 1.465 . S
C725 C720 1.399 . S
C725 C724 1.394 1_556 S
C725 C726 1.516 . S
C726 C725 1.516 . S
C726 C727 1.502 . S
C726 C728 1.561 . S
C726 C729 1.526 . S
C727 H711 0.959 . S
C727 H712 0.959 . S
C727 H713 0.961 . S
C727 C726 1.502 . S
C728 H714 0.960 . S
C728 H715 0.961 . S
C728 H716 0.959 1_556 S
C728 C726 1.561 . S
C729 C726 1.526 . S
C729 C730 1.396 1_556 S
C729 C734 1.390 . S
C730 C724 1.465 . S
C730 C729 1.396 1_554 S
C730 C731 1.399 . S
C731 H717 0.929 . S
C731 C730 1.399 . S
C731 C732 1.385 . S
C732 H718 0.931 . S
C732 C731 1.385 . S
C732 C733 1.389 . S
C733 C732 1.389 . S
C733 C734 1.387 1_554 S
C734 H719 0.930 . S
C734 C729 1.390 . S
C734 C733 1.387 1_556 S
H735 C747 0.930 . S
H736 C749 0.930 . S
H737 C750 0.930 . S
H738 C754 0.959 . S
H739 C754 0.959 . S
H740 C754 0.961 . S
H741 C755 0.960 . S
H742 C755 0.961 . S
H743 C755 0.959 . S
H744 C758 0.929 . S
H745 C759 0.931 . S
H746 C761 0.930 . S
C747 H735 0.930 . S
C747 C748 1.399 . S
C747 C752 1.399 . S
C748 C747 1.399 . S
C748 C749 1.376 . S
C749 H736 0.930 . S
C749 C748 1.376 . S
C749 C750 1.388 . S
C750 H737 0.930 . S
C750 C749 1.388 . S
C750 C751 1.390 . S
C751 C750 1.390 . S
C751 C752 1.394 . S
C751 C757 1.465 . S
C752 C747 1.399 . S
C752 C751 1.394 . S
C752 C753 1.516 . S
C753 C752 1.516 . S
C753 C754 1.502 . S
C753 C755 1.561 . S
C753 C756 1.526 . S
C754 H738 0.959 . S
C754 H739 0.959 . S
C754 H740 0.961 . S
C754 C753 1.502 . S
C755 H741 0.960 . S
C755 H742 0.961 . S
C755 H743 0.959 . S
C755 C753 1.561 . S
C756 C753 1.526 . S
C756 C757 1.396 . S
C756 C761 1.390 . S
C757 C751 1.465 . S
C757 C756 1.396 . S
C757 C758 1.399 . S
C758 H744 0.929 . S
C758 C757 1.399 . S
C758 C759 1.385 . S
C759 H745 0.931 . S
C759 C758 1.385 . S
C759 C760 1.389 . S
C760 C759 1.389 . S
C760 C761 1.387 . S
C761 H746 0.930 . S
C761 C756 1.390 . S
C761 C760 1.387 . S
H762 C774 0.930 . S
H763 C776 0.930 . S
H764 C777 0.930 . S
H765 C781 0.959 . S
H766 C781 0.959 . S
H767 C781 0.961 . S
H768 C782 0.960 . S
H769 C782 0.961 . S
H770 C782 0.959 . S
H771 C785 0.929 . S
H772 C786 0.931 . S
H773 C788 0.930 . S
C774 H762 0.930 . S
C774 C775 1.399 . S
C774 C779 1.399 . S
C775 C774 1.399 . S
C775 C776 1.376 . S
C776 H763 0.930 . S
C776 C775 1.376 . S
C776 C777 1.388 . S
C777 H764 0.930 . S
C777 C776 1.388 . S
C777 C778 1.390 . S
C778 C777 1.390 . S
C778 C779 1.394 . S
C778 C784 1.465 . S
C779 C774 1.399 . S
C779 C778 1.394 . S
C779 C780 1.516 . S
C780 C779 1.516 . S
C780 C781 1.502 . S
C780 C782 1.561 . S
C780 C783 1.526 . S
C781 H765 0.959 . S
C781 H766 0.959 . S
C781 H767 0.961 . S
C781 C780 1.502 . S
C782 H768 0.960 . S
C782 H769 0.961 . S
C782 H770 0.959 . S
C782 C780 1.561 . S
C783 C780 1.526 . S
C783 C784 1.396 . S
C783 C788 1.390 . S
C784 C778 1.465 . S
C784 C783 1.396 . S
C784 C785 1.399 . S
C785 H771 0.929 . S
C785 C784 1.399 . S
C785 C786 1.385 . S
C786 H772 0.931 . S
C786 C785 1.385 . S
C786 C787 1.389 . S
C787 C786 1.389 . S
C787 C788 1.387 . S
C788 H773 0.930 . S
C788 C783 1.390 . S
C788 C787 1.387 . S
H789 C801 0.930 . S
H790 C803 0.930 . S
H791 C804 0.930 . S
H792 C808 0.959 . S
H793 C808 0.959 . S
H794 C808 0.961 . S
H795 C809 0.960 . S
H796 C809 0.961 . S
H797 C809 0.959 . S
H798 C812 0.929 . S
H799 C813 0.931 . S
H800 C815 0.930 . S
C801 H789 0.930 . S
C801 C802 1.399 1_554 S
C801 C806 1.399 . S
C802 C801 1.399 1_556 S
C802 C803 1.376 . S
C803 H790 0.930 . S
C803 C802 1.376 . S
C803 C804 1.388 . S
C804 H791 0.930 . S
C804 C803 1.388 . S
C804 C805 1.390 . S
C805 C804 1.390 . S
C805 C806 1.394 1_556 S
C805 C811 1.465 . S
C806 C801 1.399 . S
C806 C805 1.394 1_554 S
C806 C807 1.516 . S
C807 C806 1.516 . S
C807 C808 1.502 . S
C807 C809 1.561 1_554 S
C807 C810 1.526 . S
C808 H792 0.959 . S
C808 H793 0.959 . S
C808 H794 0.961 . S
C808 C807 1.502 . S
C809 H795 0.960 . S
C809 H796 0.961 . S
C809 H797 0.959 . S
C809 C807 1.561 1_556 S
C810 C807 1.526 . S
C810 C811 1.396 1_554 S
C810 C815 1.390 . S
C811 C805 1.465 . S
C811 C810 1.396 1_556 S
C811 C812 1.399 . S
C812 H798 0.929 . S
C812 C811 1.399 . S
C812 C813 1.385 . S
C813 H799 0.931 . S
C813 C812 1.385 . S
C813 C814 1.389 . S
C814 C813 1.389 . S
C814 C815 1.387 1_556 S
C815 H800 0.930 . S
C815 C810 1.390 . S
C815 C814 1.387 1_554 S
C181 C7 1.442 . S
C193 C133 1.460 . S
C208 C21 1.427 . S
C220 C147 1.498 . S
C235 C35 1.429 . S
C247 C161 1.497 . S
C262 C49 1.502 . S
C274 C91 1.423 . S
C289 C105 1.490 . S
C301 C63 1.417 . S
C316 C119 1.427 . S
C328 C77 1.498 . S
C343 C146 1.547 . S
C355 C6 1.548 . S
C370 C20 1.547 . S
C382 C160 1.545 . S
C397 C34 1.489 . S
C409 C90 1.495 . S
C424 C48 1.476 . S
C436 C104 1.474 . S
C451 C62 1.466 . S
C463 C118 1.468 . S
C478 C76 1.518 . S
C490 C132 1.513 . S
C505 C148 1.475 . S
C517 C8 1.458 . S
C532 C22 1.484 . S
C544 C162 1.450 . S
C559 C36 1.475 . S
C571 C92 1.459 . S
C586 C50 1.463 . S
C598 C106 1.471 . S
C613 C64 1.484 . S
C625 C120 1.450 . S
C640 C78 1.457 . S
C652 C134 1.475 . S
C667 C9 1.649 . S
C679 C93 1.633 . S
C694 C107 1.649 . S
C706 C23 1.635 . S
C721 C37 1.632 1_554 S
C733 C121 1.613 . S
C748 C51 1.648 . S
C760 C135 1.632 . S
C775 C65 1.650 . S
C787 C149 1.637 . S
C802 C163 1.622 1_556 S
C814 C79 1.610 . S
