# Generated by pormake.
# Topology fnu, (5)-cn, num edge types: 1
# Building blocks:
#     Node 0, Type 0, BuildingBlock: BEQFEK_clean_sbu_0, # of connection points: 5
#     Node 1, Type 0, BuildingBlock: BEQFEK_clean_sbu_0, # of connection points: 5
#     Node 2, Type 0, BuildingBlock: BEQFEK_clean_sbu_0, # of connection points: 5
#     Node 3, Type 0, BuildingBlock: BEQFEK_clean_sbu_0, # of connection points: 5
#     Node 4, Type 0, BuildingBlock: BEQFEK_clean_sbu_0, # of connection points: 5
#     Node 5, Type 0, BuildingBlock: BEQFEK_clean_sbu_0, # of connection points: 5
#     Edge 6, Type (0, 0), BuildingBlock: UVAHIK_clean_linker_0, # of connection points: 2
#     Edge 7, Type (0, 0), BuildingBlock: UVAHIK_clean_linker_0, # of connection points: 2
#     Edge 8, Type (0, 0), BuildingBlock: UVAHIK_clean_linker_0, # of connection points: 2
#     Edge 9, Type (0, 0), BuildingBlock: UVAHIK_clean_linker_0, # of connection points: 2
#     Edge 10, Type (0, 0), BuildingBlock: UVAHIK_clean_linker_0, # of connection points: 2
#     Edge 11, Type (0, 0), BuildingBlock: UVAHIK_clean_linker_0, # of connection points: 2
#     Edge 12, Type (0, 0), BuildingBlock: UVAHIK_clean_linker_0, # of connection points: 2
#     Edge 13, Type (0, 0), BuildingBlock: UVAHIK_clean_linker_0, # of connection points: 2
#     Edge 14, Type (0, 0), BuildingBlock: UVAHIK_clean_linker_0, # of connection points: 2
#     Edge 15, Type (0, 0), BuildingBlock: UVAHIK_clean_linker_0, # of connection points: 2
#     Edge 16, Type (0, 0), BuildingBlock: UVAHIK_clean_linker_0, # of connection points: 2
#     Edge 17, Type (0, 0), BuildingBlock: UVAHIK_clean_linker_0, # of connection points: 2
#     Edge 18, Type (0, 0), BuildingBlock: UVAHIK_clean_linker_0, # of connection points: 2
#     Edge 19, Type (0, 0), BuildingBlock: UVAHIK_clean_linker_0, # of connection points: 2
#     Edge 20, Type (0, 0), BuildingBlock: UVAHIK_clean_linker_0, # of connection points: 2
# Relax obj value: 0.175
# Max RMSD: 0.163
# Mean RMSD: 0.163
data_MOF--net-fnu--node1-BEQFEK_clean_sbu_0--edge1-UVAHIK_clean_linker_0
_symmetry_space_group_name_H-M    P1
_symmetry_Int_Tables_number       1
_symmetry_cell_setting            triclinic
loop_
_symmetry_equiv_pos_as_xyz
'x, y, z'
_cell_length_a     31.478656
_cell_length_b     37.230417
_cell_length_c     45.30352
_cell_angle_alpha  89.987752
_cell_angle_beta   97.392145
_cell_angle_gamma 126.23743
loop_
_atom_site_label
_atom_site_type_symbol
_atom_site_fract_x
_atom_site_fract_y
_atom_site_fract_z
_atom_type_partial_charge
Co0 Co 0.99162 0.99248 0.18876 0.0
Co1 Co 0.03288 0.02278 0.25709 0.0
C2 C 0.97262 0.92636 0.23176 0.0
O3 O 0.96613 0.93687 0.2059 0.0
O4 O 0.99918 0.95577 0.25423 0.0
C5 C 0.95263 0.94317 0.132 0.0
O6 O 0.94411 0.91037 0.1476 0.0
C7 C 0.02772 0.02785 0.32231 0.0
C8 C 0.10514 0.09275 0.33789 0.0
C9 C 0.06026 0.05687 0.34796 0.0
N10 N 0.05257 0.04597 0.29851 0.0
N11 N 0.09862 0.08489 0.30809 0.0
C12 C 0.97512 0.98289 0.32041 0.0
H13 H 0.9648 0.96339 0.29889 0.0
H14 H 0.94355 0.98737 0.32177 0.0
H15 H 0.97587 0.9641 0.33925 0.0
C16 C 0.94267 0.03754 0.1951 0.0
N17 N 0.96971 0.02227 0.20719 0.0
N18 N 0.98692 0.03637 0.23579 0.0
C19 C 0.97158 0.06211 0.24268 0.0
C20 C 0.94253 0.06328 0.21711 0.0
C21 C 0.92381 0.03214 0.1622 0.0
H22 H 0.95806 0.04544 0.15007 0.0
H23 H 0.89411 0.99601 0.15466 0.0
H24 H 0.90585 0.04983 0.15624 0.0
O25 O 0.06995 0.03117 0.19193 0.0
O26 O 0.10154 0.05483 0.23994 0.0
H27 H 0.03086 0.11077 0.278 0.0
H28 H 0.96901 0.10512 0.27336 0.0
C29 C 0.98675 0.08681 0.27267 0.0
H30 H 0.97303 0.06275 0.28994 0.0
H31 H 0.12612 0.10585 0.2943 0.0
O32 O 0.96616 0.97917 0.14558 0.0
C33 C 0.10917 0.0543 0.21299 0.0
Co34 Co 0.08174 0.03723 0.82044 0.0
Co35 Co 0.03725 0.02354 0.75242 0.0
C36 C 0.09393 0.9846 0.77747 0.0
O37 O 0.10114 1.00227 0.8032 0.0
O38 O 0.06891 0.98871 0.75483 0.0
C39 C 0.15576 0.05295 0.87211 0.0
O40 O 0.17568 0.04118 0.8539 0.0
C41 C 0.03994 0.03233 0.68715 0.0
C42 C 0.96137 0.01784 0.67176 0.0
C43 C 1.00665 0.02788 0.66156 0.0
N44 N 1.01521 0.02522 0.71104 0.0
N45 N 0.96843 0.01684 0.70159 0.0
C46 C 0.09322 0.04122 0.68896 0.0
H47 H 0.1041 0.03233 0.71047 0.0
H48 H 0.12403 0.07742 0.68764 0.0
H49 H 0.09315 0.02215 0.6701 0.0
C50 C 0.13213 0.13085 0.81193 0.0
N51 N 0.10432 0.08808 0.80058 0.0
N52 N 0.08566 0.0839 0.77211 0.0
C53 C 0.10086 0.12471 0.76455 0.0
C54 C 0.13139 0.15591 0.78954 0.0
C55 C 0.15181 0.14562 0.84468 0.0
H56 H 0.1842 0.14222 0.85197 0.0
H57 H 0.16686 0.18064 0.85022 0.0
H58 H 0.11881 0.12361 0.8574 0.0
O59 O 1.00382 1.00043 0.82002 0.0
O60 O 0.97087 0.98955 0.7718 0.0
H61 H 0.03937 0.1122 0.73004 0.0
H62 H 0.10039 0.1688 0.73359 0.0
C63 C 0.08358 0.133 0.73466 0.0
H64 H 0.09685 0.12266 0.71712 0.0
H65 H 0.94085 1.0098 0.71552 0.0
O66 O 0.11686 0.05395 0.86216 0.0
C67 C 0.96413 0.98361 0.79909 0.0
Co68 Co 0.65483 0.3283 0.52155 0.0
Co69 Co 0.69823 0.35589 0.58989 0.0
C70 C 0.64047 0.26106 0.56298 0.0
O71 O 0.63423 0.27291 0.5376 0.0
O72 O 0.66528 0.28913 0.58618 0.0
C73 C 0.58069 0.27272 0.46915 0.0
O74 O 0.55927 0.24034 0.48679 0.0
C75 C 0.69712 0.36076 0.65559 0.0
C76 C 0.77552 0.42516 0.67054 0.0
C77 C 0.73099 0.3896 0.68107 0.0
N78 N 0.72085 0.37872 0.63145 0.0
N79 N 0.76755 0.41731 0.64065 0.0
C80 C 0.64427 0.3161 0.6541 0.0
H81 H 0.63315 0.29636 0.63255 0.0
H82 H 0.6132 0.32106 0.65583 0.0
H83 H 0.64521 0.29732 0.67289 0.0
C84 C 0.60494 0.37156 0.53159 0.0
N85 N 0.63259 0.35615 0.54225 0.0
N86 N 0.65075 0.36924 0.57091 0.0
C87 C 0.63542 0.3944 0.57929 0.0
C88 C 0.60528 0.39618 0.55463 0.0
C89 C 0.58535 0.36791 0.49898 0.0
H90 H 0.61836 0.37948 0.48613 0.0
H91 H 0.55291 0.33233 0.49116 0.0
H92 H 0.57033 0.38807 0.49417 0.0
O93 O 0.73284 0.36883 0.52232 0.0
O94 O 0.76479 0.38847 0.57076 0.0
H95 H 0.69625 0.44192 0.6146 0.0
H96 H 0.63505 0.43717 0.61144 0.0
C97 C 0.65207 0.41844 0.6097 0.0
H98 H 0.63858 0.39387 0.62663 0.0
H99 H 0.79439 0.43812 0.62652 0.0
O100 O 0.62042 0.31199 0.47973 0.0
C101 C 0.77217 0.39048 0.54355 0.0
Co102 Co 0.75597 0.37496 0.15484 0.0
Co103 Co 0.7141 0.36346 0.08658 0.0
C104 C 0.77489 0.32772 0.11196 0.0
O105 O 0.78172 0.34498 0.13778 0.0
O106 O 0.74792 0.33023 0.08954 0.0
C107 C 0.79283 0.36363 0.2117 0.0
O108 O 0.7987 0.33745 0.19619 0.0
C109 C 0.71846 0.37288 0.02125 0.0
C110 C 0.64089 0.36022 0.00582 0.0
C111 C 0.68559 0.369 0.99564 0.0
N112 N 0.69396 0.36653 0.04514 0.0
N113 N 0.64782 0.35933 0.03566 0.0
C114 C 0.77102 0.38045 0.02303 0.0
H115 H 0.78164 0.37159 0.04462 0.0
H116 H 0.80252 0.41641 0.0214 0.0
H117 H 0.77 0.36061 1.00429 0.0
C118 C 0.80449 0.46882 0.14817 0.0
N119 N 0.77748 0.42646 0.13623 0.0
N120 N 0.76003 0.42313 0.10764 0.0
C121 C 0.77515 0.4641 0.10061 0.0
C122 C 0.80433 0.4945 0.12608 0.0
C123 C 0.82365 0.48255 0.18103 0.0
H124 H 0.78952 0.46175 0.19328 0.0
H125 H 0.85336 0.47611 0.18857 0.0
H126 H 0.84167 0.51822 0.18687 0.0
O127 O 0.67762 0.33512 0.15188 0.0
O128 O 0.64569 0.32701 0.10391 0.0
H129 H 0.7155 0.45317 0.06541 0.0
H130 H 0.77728 0.50937 0.06979 0.0
C131 C 0.75963 0.47336 0.0706 0.0
H132 H 0.77318 0.46289 0.05331 0.0
H133 H 0.62052 0.353 0.04954 0.0
O134 O 0.78173 0.38755 0.19797 0.0
C135 C 0.63827 0.31894 0.13089 0.0
Co136 Co 0.3162 0.65299 0.854 0.0
Co137 Co 0.35631 0.68233 0.92245 0.0
C138 C 0.29604 0.58601 0.8964 0.0
O139 O 0.28956 0.5968 0.87064 0.0
O140 O 0.32271 0.61525 0.91898 0.0
C141 C 0.28775 0.60862 0.79719 0.0
O142 O 0.28507 0.57788 0.8129 0.0
C143 C 0.35248 0.68687 0.98807 0.0
C144 C 0.42873 0.753 1.00292 0.0
C145 C 0.38524 0.71643 0.01349 0.0
N146 N 0.37595 0.70534 0.96393 0.0
N147 N 0.42128 0.74499 0.97309 0.0
C148 C 0.30116 0.64112 0.98677 0.0
H149 H 0.29096 0.62155 0.9653 0.0
H150 H 0.26859 0.64421 0.98851 0.0
H151 H 0.30372 0.62314 0.00565 0.0
C152 C 0.26681 0.69775 0.86037 0.0
N153 N 0.294 0.68259 0.87241 0.0
N154 N 0.31075 0.6963 0.90109 0.0
C155 C 0.29511 0.7218 0.90804 0.0
C156 C 0.26624 0.72312 0.88245 0.0
C157 C 0.24773 0.69228 0.8275 0.0
H158 H 0.21924 0.65611 0.81981 0.0
H159 H 0.22832 0.70886 0.82174 0.0
H160 H 0.28219 0.70677 0.81536 0.0
O161 O 0.39467 0.69148 0.85775 0.0
O162 O 0.42532 0.71484 0.9058 0.0
H163 H 0.35387 0.77064 0.9434 0.0
H164 H 0.29134 0.76383 0.93891 0.0
C165 C 0.30982 0.74614 0.93811 0.0
H166 H 0.29667 0.72198 0.95532 0.0
H167 H 0.44772 0.76637 0.95897 0.0
O168 O 0.29268 0.64112 0.81065 0.0
C169 C 0.43353 0.71453 0.87899 0.0
Co170 Co 0.4223 0.71315 0.48848 0.0
Co171 Co 0.37845 0.69623 0.42013 0.0
C172 C 0.43673 0.6598 0.44757 0.0
O173 O 0.44309 0.67825 0.47282 0.0
O174 O 0.41166 0.66264 0.42428 0.0
C175 C 0.49853 0.73461 0.54043 0.0
O176 O 0.52082 0.72491 0.52256 0.0
C177 C 0.37938 0.70131 0.35438 0.0
C178 C 0.30049 0.68628 0.33915 0.0
C179 C 0.34528 0.69554 0.32877 0.0
N180 N 0.35556 0.69566 0.37846 0.0
N181 N 0.30856 0.68693 0.36908 0.0
C182 C 0.43256 0.71002 0.35607 0.0
H183 H 0.44392 0.70188 0.37778 0.0
H184 H 0.46327 0.74605 0.35412 0.0
H185 H 0.43197 0.69022 0.33749 0.0
C186 C 0.47171 0.80597 0.47769 0.0
N187 N 0.44415 0.7628 0.46734 0.0
N188 N 0.42579 0.75728 0.43867 0.0
C189 C 0.44086 0.79757 0.42996 0.0
C190 C 0.47109 0.82983 0.45442 0.0
C191 C 0.49154 0.82249 0.51021 0.0
H192 H 0.45877 0.80116 0.52323 0.0
H193 H 0.52433 0.8198 0.51808 0.0
H194 H 0.50622 0.85763 0.51471 0.0
O195 O 0.34429 0.67556 0.48788 0.0
O196 O 0.3121 0.66252 0.43943 0.0
H197 H 0.37961 0.78327 0.39458 0.0
H198 H 0.44023 0.84002 0.39756 0.0
C199 C 0.42382 0.80444 0.39946 0.0
H200 H 0.43769 0.79357 0.38264 0.0
H201 H 0.28157 0.68083 0.38314 0.0
O202 O 0.45726 0.73214 0.5302 0.0
C203 C 0.30486 0.65752 0.46668 0.0
C204 C 0.17132 0.08357 0.17515 0.0
C205 C 0.16412 0.08139 0.20532 0.0
C206 C 0.22239 0.10906 0.16734 0.0
C207 C 0.36402 0.20177 0.19646 0.0
H208 H 0.39085 0.15794 0.12887 0.0
C209 C 0.57629 0.28601 0.16885 0.0
C210 C 0.58339 0.29115 0.13866 0.0
C211 C 0.52524 0.26066 0.17672 0.0
C212 C 0.3839 0.17091 0.14759 0.0
H213 H 0.20568 0.10456 0.25094 0.0
H214 H 0.29512 0.14851 0.23733 0.0
H215 H 0.3028 0.11297 0.14382 0.0
H216 H 0.54169 0.27319 0.09307 0.0
H217 H 0.45224 0.22863 0.10687 0.0
H218 H 0.44546 0.2595 0.20037 0.0
C219 C 0.26098 0.13094 0.21965 0.0
C220 C 0.33331 0.14512 0.1562 0.0
C221 C 0.20964 0.10549 0.2275 0.0
C222 C 0.53781 0.26994 0.11651 0.0
C223 C 0.48652 0.24423 0.12443 0.0
C224 C 0.4147 0.22745 0.18793 0.0
C225 C 0.26805 0.13304 0.18941 0.0
C226 C 0.32253 0.1602 0.18072 0.0
C227 C 0.47964 0.23945 0.15466 0.0
C228 C 0.42532 0.21238 0.16337 0.0
H229 H 0.13737 0.06581 0.15734 0.0
H230 H 0.22594 0.11044 0.14383 0.0
H231 H 0.35718 0.21495 0.2151 0.0
H232 H 0.61028 0.30173 0.18661 0.0
H233 H 0.52153 0.25723 0.20017 0.0
C234 C 0.95971 0.13792 0.21449 0.0
C235 C 0.92338 0.09112 0.21189 0.0
C236 C 0.9436 0.1638 0.20297 0.0
C237 C 0.84225 0.15443 0.14511 0.0
H238 H 0.89314 0.26927 0.18304 0.0
C239 C 0.76092 0.25487 0.10473 0.0
C240 C 0.79605 0.30165 0.11004 0.0
C241 C 0.77803 0.22875 0.11399 0.0
C242 C 0.87924 0.23761 0.17181 0.0
H243 H 0.84142 0.03465 0.19688 0.0
H244 H 0.81282 0.07966 0.17732 0.0
H245 H 0.91809 0.22508 0.20822 0.0
H246 H 0.87718 0.35799 0.12704 0.0
H247 H 0.90783 0.31291 0.1417 0.0
H248 H 0.80337 0.16701 0.10867 0.0
C249 C 0.85395 0.09652 0.18766 0.0
C250 C 0.8934 0.21215 0.1864 0.0
C251 C 0.87006 0.07077 0.19922 0.0
C252 C 0.84952 0.32195 0.12234 0.0
C253 C 0.86674 0.29604 0.13129 0.0
C254 C 0.82817 0.17998 0.13045 0.0
C255 C 0.89087 0.14328 0.18857 0.0
C256 C 0.87506 0.17018 0.17329 0.0
C257 C 0.83061 0.24908 0.12866 0.0
C258 C 0.84658 0.22201 0.14357 0.0
H259 H 1.00123 0.15429 0.22378 0.0
H260 H 0.97318 0.19969 0.20397 0.0
H261 H 0.82811 0.12258 0.13408 0.0
H262 H 0.71915 0.23841 0.09602 0.0
H263 H 0.749 0.19271 0.11165 0.0
C264 C 0.78697 0.55183 0.1288 0.0
C265 C 0.8234 0.54146 0.13117 0.0
C266 C 0.80309 0.59381 0.14033 0.0
C267 C 0.90493 0.68581 0.19799 0.0
H268 H 0.85338 0.74965 0.16062 0.0
C269 C 0.98655 0.86745 0.23872 0.0
C270 C 0.95143 0.87915 0.23369 0.0
C271 C 0.96932 0.82423 0.22936 0.0
C272 C 0.86747 0.73192 0.1717 0.0
H273 H 0.90554 0.56714 0.14575 0.0
H274 H 0.93416 0.64072 0.16534 0.0
H275 H 0.82825 0.68056 0.13527 0.0
H276 H 0.87022 0.85446 0.217 0.0
H277 H 0.83936 0.77873 0.20216 0.0
H278 H 0.94415 0.73723 0.23445 0.0
C279 C 0.89295 0.61638 0.15516 0.0
C280 C 0.8532 0.69233 0.15701 0.0
C281 C 0.87683 0.57454 0.14359 0.0
C282 C 0.89786 0.84603 0.22152 0.0
C283 C 0.88053 0.8029 0.21247 0.0
C284 C 0.9191 0.7254 0.21275 0.0
C285 C 0.85594 0.6261 0.15453 0.0
C286 C 0.8718 0.66876 0.16991 0.0
C287 C 0.91662 0.79203 0.21484 0.0
C288 C 0.90047 0.74899 0.19984 0.0
H289 H 0.74537 0.5266 0.11971 0.0
H290 H 0.77345 0.60004 0.13954 0.0
H291 H 0.91926 0.66814 0.20886 0.0
H292 H 0.02838 0.89272 0.2473 0.0
H293 H 0.99834 0.8172 0.2315 0.0
C294 C 0.2039 0.23606 0.80669 0.0
C295 C 0.15044 0.20294 0.79432 0.0
C296 C 0.21995 0.27773 0.81862 0.0
C297 C 0.16314 0.32975 0.85042 0.0
H298 H 0.30392 0.43998 0.84954 0.0
C299 C 0.22281 0.50542 0.88428 0.0
C300 C 0.27535 0.53881 0.89803 0.0
C301 C 0.20686 0.46254 0.87576 0.0
C302 C 0.26477 0.40933 0.85045 0.0
H303 H 0.07238 0.18807 0.78309 0.0
H304 H 0.10058 0.26156 0.80282 0.0
H305 H 0.278 0.37159 0.82248 0.0
H306 H 0.35182 0.55308 0.91488 0.0
H307 H 0.3239 0.47767 0.90021 0.0
H308 H 0.14967 0.36789 0.87792 0.0
C309 C 0.13002 0.25507 0.80407 0.0
C310 C 0.24975 0.37005 0.83478 0.0
C311 C 0.11397 0.21324 0.79223 0.0
C312 C 0.31074 0.52765 0.90496 0.0
C313 C 0.29498 0.48474 0.89605 0.0
C314 C 0.17807 0.36909 0.86594 0.0
C315 C 0.18287 0.28736 0.81835 0.0
C316 C 0.19861 0.32968 0.83441 0.0
C317 C 0.24339 0.45221 0.88033 0.0
C318 C 0.22901 0.40944 0.86609 0.0
H319 H 0.23259 0.22863 0.80886 0.0
H320 H 0.2608 0.30136 0.82956 0.0
H321 H 0.12391 0.29922 0.85132 0.0
H322 H 0.19511 0.51349 0.87813 0.0
H323 H 0.16703 0.43858 0.86355 0.0
C324 C 0.53374 0.76764 0.8941 0.0
C325 C 0.48873 0.74209 0.8717 0.0
C326 C 0.58533 0.79405 0.88662 0.0
C327 C 0.65775 0.84882 0.82323 0.0
H328 H 0.77216 0.85174 0.86977 0.0
C329 C 0.86376 0.93356 0.78486 0.0
C330 C 0.90937 0.95662 0.80702 0.0
C331 C 0.8125 0.90769 0.79275 0.0
C332 C 0.74092 0.85184 0.85671 0.0
H333 H 0.46319 0.72435 0.82375 0.0
H334 H 0.55246 0.76997 0.81094 0.0
H335 H 0.68361 0.80702 0.88411 0.0
H336 H 0.93637 0.97092 0.85497 0.0
H337 H 0.84767 0.92684 0.86857 0.0
H338 H 0.71497 0.89384 0.79594 0.0
C339 C 0.54806 0.77005 0.83425 0.0
C340 C 0.69004 0.82611 0.86498 0.0
C341 C 0.49672 0.74357 0.8417 0.0
C342 C 0.90232 0.95343 0.83722 0.0
C343 C 0.85123 0.9278 0.84508 0.0
C344 C 0.70867 0.87471 0.81505 0.0
C345 C 0.59308 0.79577 0.85655 0.0
C346 C 0.64771 0.82412 0.84829 0.0
C347 C 0.80552 0.90434 0.823 0.0
C348 C 0.75102 0.87656 0.83163 0.0
H349 H 0.52917 0.76742 0.9174 0.0
H350 H 0.61912 0.81371 0.90436 0.0
H351 H 0.6263 0.84861 0.8101 0.0
H352 H 0.86758 0.93512 0.76139 0.0
H353 H 0.77834 0.88973 0.77509 0.0
C354 C 0.07736 0.91058 0.77061 0.0
C355 C 0.11357 0.95734 0.77571 0.0
C356 C 0.0936 0.88371 0.7794 0.0
C357 C 0.21239 0.88563 0.80577 0.0
H358 H 0.11776 0.79096 0.85272 0.0
C359 C 0.28249 0.7973 0.87891 0.0
C360 C 0.2465 0.75054 0.87733 0.0
C361 C 0.26548 0.8225 0.86725 0.0
C362 C 0.1445 0.81695 0.83946 0.0
H363 H 0.19535 1.01275 0.79244 0.0
H364 H 0.22414 0.96633 0.80686 0.0
H365 H 0.08963 0.83253 0.82641 0.0
H366 H 0.16437 0.69349 0.86378 0.0
H367 H 0.13435 0.73713 0.84362 0.0
H368 H 0.26733 0.87019 0.81884 0.0
C369 C 0.18336 0.95008 0.79608 0.0
C370 C 0.12821 0.84066 0.82421 0.0
C371 C 0.16699 0.97677 0.78764 0.0
C372 C 0.19268 0.72962 0.86554 0.0
C373 C 0.1756 0.7547 0.85394 0.0
C374 C 0.22863 0.86186 0.82095 0.0
C375 C 0.14641 0.90321 0.79324 0.0
C376 C 0.16204 0.87549 0.80728 0.0
C377 C 0.21208 0.80138 0.85379 0.0
C378 C 0.19506 0.82734 0.83817 0.0
H379 H 0.03566 0.8948 0.76217 0.0
H380 H 0.06428 0.8477 0.77658 0.0
H381 H 0.23929 0.91197 0.79275 0.0
H382 H 0.32433 0.8141 0.88762 0.0
H383 H 0.29449 0.85844 0.86805 0.0
C384 C 0.83524 0.42166 0.50607 0.0
C385 C 0.82727 0.41831 0.53612 0.0
C386 C 0.88669 0.44751 0.49873 0.0
C387 C 0.02756 0.5397 0.52921 0.0
H388 H 0.05749 0.49667 0.46273 0.0
C389 C 0.2419 0.62599 0.50423 0.0
C390 C 0.24981 0.63028 0.47416 0.0
C391 C 0.19047 0.60044 0.51161 0.0
C392 C 0.0497 0.50946 0.48113 0.0
H393 H 0.8678 0.43984 0.58202 0.0
H394 H 0.9577 0.48458 0.5692 0.0
H395 H 0.96843 0.45144 0.47637 0.0
H396 H 0.20917 0.61078 0.42827 0.0
H397 H 0.11929 0.56627 0.44118 0.0
H398 H 0.10896 0.59763 0.53403 0.0
C399 C 0.92394 0.46757 0.55128 0.0
C400 C 0.99854 0.48348 0.489 0.0
C401 C 0.87233 0.44168 0.55865 0.0
C402 C 0.2047 0.60821 0.45165 0.0
C403 C 0.15311 0.58247 0.45906 0.0
C404 C 0.07875 0.56563 0.52138 0.0
C405 C 0.93182 0.47077 0.52119 0.0
C406 C 0.98669 0.49825 0.51312 0.0
C407 C 0.14533 0.5783 0.48916 0.0
C408 C 0.09053 0.55087 0.49723 0.0
H409 H 0.80164 0.40438 0.48805 0.0
H410 H 0.89101 0.44971 0.47533 0.0
H411 H 1.01981 0.55256 0.54759 0.0
H412 H 0.27554 0.64234 0.52224 0.0
H413 H 0.1861 0.59751 0.53499 0.0
C414 C 0.62226 0.47081 0.55305 0.0
C415 C 0.58592 0.42402 0.55081 0.0
C416 C 0.60578 0.49658 0.54183 0.0
C417 C 0.50318 0.48627 0.48462 0.0
H418 H 0.55488 0.60187 0.52158 0.0
C419 C 0.42229 0.58641 0.44233 0.0
C420 C 0.45752 0.63324 0.44714 0.0
C421 C 0.43917 0.56037 0.45232 0.0
C422 C 0.54072 0.56998 0.51061 0.0
H423 H 0.50361 0.36751 0.53678 0.0
H424 H 0.47441 0.41233 0.51778 0.0
H425 H 0.58027 0.55812 0.54708 0.0
H426 H 0.53855 0.68967 0.46424 0.0
H427 H 0.56883 0.64474 0.48017 0.0
H428 H 0.46381 0.49821 0.44807 0.0
C429 C 0.51577 0.42925 0.52766 0.0
C430 C 0.55513 0.54477 0.5254 0.0
C431 C 0.53223 0.40362 0.53894 0.0
C432 C 0.51081 0.65359 0.45991 0.0
C433 C 0.52781 0.62776 0.46958 0.0
C434 C 0.48891 0.51158 0.46975 0.0
C435 C 0.55268 0.47594 0.52804 0.0
C436 C 0.53651 0.50255 0.51264 0.0
C437 C 0.49164 0.58081 0.46726 0.0
C438 C 0.50759 0.55388 0.4825 0.0
H439 H 0.66405 0.4872 0.56164 0.0
H440 H 0.63533 0.53242 0.54241 0.0
H441 H 0.48883 0.4542 0.47386 0.0
H442 H 0.38065 0.56994 0.43327 0.0
H443 H 0.41007 0.52435 0.4502 0.0
C444 C 0.45379 0.88723 0.4563 0.0
C445 C 0.4903 0.87699 0.45795 0.0
C446 C 0.47032 0.92941 0.46768 0.0
C447 C 0.57407 0.02167 0.52453 0.0
H448 H 0.52049 0.08511 0.48923 0.0
C449 C 0.65526 0.20235 0.5677 0.0
C450 C 0.61983 0.21379 0.56364 0.0
C451 C 0.63821 0.15946 0.55752 0.0
C452 C 0.53519 0.0675 0.49974 0.0
H453 H 0.57292 0.9031 0.47106 0.0
H454 H 0.60221 0.97704 0.49027 0.0
H455 H 0.49485 0.01626 0.46315 0.0
H456 H 0.53836 0.18899 0.54766 0.0
H457 H 0.50784 0.11381 0.53142 0.0
H458 H 0.61424 0.07282 0.56119 0.0
C459 C 0.56069 0.95249 0.48075 0.0
C460 C 0.52064 0.02805 0.48462 0.0
C461 C 0.54417 0.91045 0.46932 0.0
C462 C 0.56625 0.18074 0.55146 0.0
C463 C 0.5491 0.13793 0.5416 0.0
C464 C 0.58848 0.06107 0.53973 0.0
C465 C 0.52365 0.96202 0.48104 0.0
C466 C 0.53994 1.00463 0.49677 0.0
C467 C 0.58539 0.12731 0.54313 0.0
C468 C 0.56916 0.08453 0.52758 0.0
H469 H 0.41186 0.86167 0.44814 0.0
H470 H 0.44066 0.9355 0.46762 0.0
H471 H 0.58895 1.00408 0.53485 0.0
H472 H 0.6971 0.22761 0.57625 0.0
H473 H 0.66741 0.15266 0.55903 0.0
C474 C 0.96848 1.00515 0.60716 0.0
C475 C 1.01368 0.03017 0.62951 0.0
C476 C 0.97355 1.00733 0.57687 0.0
C477 C 0.06781 0.07801 0.52486 0.0
H478 H 0.973 0.9717 0.46915 0.0
C479 C 0.09862 0.07259 0.40232 0.0
C480 C 0.05327 0.05168 0.38 0.0
C481 C 0.09365 0.06943 0.43261 0.0
C482 C 0.99946 1.00177 0.48438 0.0
H483 H 0.09982 0.07901 0.63692 0.0
H484 H 0.10893 0.08121 0.5844 0.0
H485 H 0.96562 0.967 0.52217 0.0
H486 H 0.9669 1.01274 0.37264 0.0
H487 H 0.95821 1.00616 0.42539 0.0
H488 H 0.10204 0.11256 0.48703 0.0
C489 C 0.06931 0.05991 0.5903 0.0
C490 C 0.99521 0.99914 0.51483 0.0
C491 C 0.06417 0.05792 0.62065 0.0
C492 C 1.00269 0.02778 0.38889 0.0
C493 C 0.99768 0.02434 0.41927 0.0
C494 C 0.0723 0.08053 0.49446 0.0
C495 C 0.02405 0.03466 0.56795 0.0
C496 C 0.02923 0.03726 0.53552 0.0
C497 C 0.04314 0.04527 0.44149 0.0
C498 C 0.03813 0.04247 0.47383 0.0
H499 H 0.92885 0.98368 0.61306 0.0
H500 H 0.93763 0.98806 0.56043 0.0
H501 H 0.09405 0.10829 0.53991 0.0
H502 H 0.13827 0.09133 0.39639 0.0
H503 H 0.12947 0.0856 0.4491 0.0
C504 C 0.74248 0.39678 0.95442 0.0
C505 C 0.69212 0.37023 0.96355 0.0
C506 C 0.74709 0.39778 0.92401 0.0
C507 C 0.67096 0.33583 0.84908 0.0
H508 H 0.77847 0.44768 0.81994 0.0
C509 C 0.67506 0.36179 0.72273 0.0
C510 C 0.72511 0.38478 0.71325 0.0
C511 C 0.6711 0.35897 0.75324 0.0
C512 C 0.74854 0.41607 0.82776 0.0
H513 H 0.60703 0.32474 0.94753 0.0
H514 H 0.61493 0.32742 0.89482 0.0
H515 H 0.77192 0.44493 0.87302 0.0
H516 H 0.81031 0.42341 0.72873 0.0
H517 H 0.80335 0.41877 0.78171 0.0
H518 H 0.64708 0.30729 0.8036 0.0
C519 C 0.65111 0.34651 0.91108 0.0
C520 C 0.74487 0.41442 0.85826 0.0
C521 C 0.64656 0.34534 0.94142 0.0
C522 C 0.77104 0.40536 0.73512 0.0
C523 C 0.76712 0.40283 0.76556 0.0
C524 C 0.67439 0.33758 0.81854 0.0
C525 C 0.70144 0.37268 0.90189 0.0
C526 C 0.70601 0.37428 0.86939 0.0
C527 C 0.71713 0.37965 0.77502 0.0
C528 C 0.71325 0.37771 0.8075 0.0
H529 H 0.77844 0.4177 0.97052 0.0
H530 H 0.78659 0.41821 0.91787 0.0
H531 H 0.64112 0.3041 0.8568 0.0
H532 H 0.63891 0.34706 0.70683 0.0
H533 H 0.63203 0.34155 0.75981 0.0
C534 C 0.30539 0.67014 0.27476 0.0
C535 C 0.3512 0.69621 0.29661 0.0
C536 C 0.30933 0.67113 0.24433 0.0
C537 C 0.40057 0.74049 0.19083 0.0
H538 H 0.30511 0.63261 0.13655 0.0
C539 C 0.42601 0.73319 0.06745 0.0
C540 C 0.37978 0.71128 0.04571 0.0
C541 C 0.42249 0.7304 0.09791 0.0
C542 C 0.33173 0.6631 0.15138 0.0
H543 H 0.43724 0.74542 0.30299 0.0
H544 H 0.44441 0.74568 0.2502 0.0
H545 H 0.30017 0.62931 0.18989 0.0
H546 H 0.29333 0.67066 0.03954 0.0
H547 H 0.28718 0.66485 0.09264 0.0
H548 H 0.43243 0.77412 0.15229 0.0
C549 C 0.40519 0.72447 0.25662 0.0
C550 C 0.3289 0.66127 0.18201 0.0
C551 C 0.40118 0.72364 0.28711 0.0
C552 C 0.32979 0.68659 0.05536 0.0
C553 C 0.32624 0.68356 0.08592 0.0
C554 C 0.40363 0.74224 0.16026 0.0
C555 C 0.35928 0.69831 0.23477 0.0
C556 C 0.36317 0.69999 0.20218 0.0
C557 C 0.37259 0.70565 0.10758 0.0
C558 C 0.36918 0.7036 0.14013 0.0
H559 H 0.26614 0.64884 0.28116 0.0
H560 H 0.27295 0.65115 0.22828 0.0
H561 H 0.42694 0.77119 0.20548 0.0
H562 H 0.46523 0.75251 0.06092 0.0
H563 H 0.45898 0.74742 0.11394 0.0
C564 C 0.97934 0.98237 0.08607 0.0
C565 C 0.96595 0.94537 0.10176 0.0
C566 C 1.00853 0.99308 0.06276 0.0
C567 C 0.05492 0.95389 0.0102 0.0
H568 H 0.17446 0.07987 0.01754 0.0
C569 C 0.17585 0.02343 0.91655 0.0
C570 C 0.16861 0.05452 0.90451 0.0
C571 C 0.16913 0.01385 0.94612 0.0
C572 C 0.14176 0.04452 0.0155 0.0
H573 H 0.9665 0.88731 0.10292 0.0
H574 H 1.01717 0.90597 0.06184 0.0
H575 H 0.11621 0.05046 0.0555 0.0
H576 H 0.15672 0.1046 0.91438 0.0
H577 H 0.14588 0.0886 0.96594 0.0
H578 H 0.07888 0.94834 0.96947 0.0
C579 C 1.00592 0.92705 0.06801 0.0
C580 C 0.10811 0.02781 0.03694 0.0
C581 C 0.97665 0.91629 0.09141 0.0
C582 C 0.16199 0.08021 0.92327 0.0
C583 C 0.15607 0.07115 0.95283 0.0
C584 C 0.08857 0.97063 0.9887 0.0
C585 C 0.0245 0.96683 0.05467 0.0
C586 C 0.06321 0.98278 0.03379 0.0
C587 C 0.156 0.03584 0.96387 0.0
C588 C 0.13101 0.01647 0.99056 0.0
H589 H 0.97082 1.00498 0.09324 0.0
H590 H 1.02088 0.02314 0.05203 0.0
H591 H 1.02074 0.919 0.00742 0.0
H592 H 0.18106 1.00326 0.90241 0.0
H593 H 0.16982 0.98683 0.9543 0.0
C594 C 0.76796 0.37882 0.25743 0.0
C595 C 0.77926 0.35345 0.24196 0.0
C596 C 0.73832 0.36155 0.28067 0.0
C597 C 0.68591 0.27516 0.33292 0.0
H598 H 0.57098 0.28764 0.32444 0.0
C599 C 0.56005 0.22396 0.42408 0.0
C600 C 0.56867 0.26263 0.43664 0.0
C601 C 0.56807 0.22192 0.39471 0.0
C602 C 0.60241 0.28337 0.32681 0.0
H603 H 0.77465 0.29288 0.24122 0.0
H604 H 0.72314 0.26296 0.28209 0.0
H605 H 0.63107 0.3156 0.28746 0.0
H606 H 0.58418 0.32619 0.42774 0.0
H607 H 0.59736 0.3225 0.37651 0.0
H608 H 0.65875 0.24471 0.37296 0.0
C609 C 0.73638 0.29575 0.27584 0.0
C610 C 0.63713 0.29981 0.30594 0.0
C611 C 0.76612 0.31305 0.25254 0.0
C612 C 0.57784 0.29625 0.41846 0.0
C613 C 0.58512 0.29396 0.38908 0.0
C614 C 0.65117 0.25874 0.35384 0.0
C615 C 0.71981 0.31881 0.28891 0.0
C616 C 0.68033 0.29734 0.30946 0.0
C617 C 0.58394 0.25825 0.37767 0.0
C618 C 0.61032 0.26418 0.35154 0.0
H619 H 0.7784 0.41044 0.25011 0.0
H620 H 0.72754 0.38064 0.29119 0.0
H621 H 0.71874 0.27265 0.336 0.0
H622 H 0.55284 0.19756 0.43776 0.0
H623 H 0.5663 0.19379 0.3862 0.0
C624 C 0.50211 0.76168 0.59107 0.0
C625 C 0.51238 0.738 0.57292 0.0
C626 C 0.49703 0.75317 0.62078 0.0
C627 C 0.43746 0.65344 0.65729 0.0
H628 H 0.45475 0.72969 0.72315 0.0
C629 C 0.32037 0.58902 0.75736 0.0
C630 C 0.30502 0.61475 0.76774 0.0
C631 C 0.35187 0.60321 0.73483 0.0
C632 C 0.44949 0.70803 0.70484 0.0
H633 H 0.53246 0.69151 0.57209 0.0
H634 H 0.52273 0.67602 0.62423 0.0
H635 H 0.51378 0.76281 0.68566 0.0
H636 H 0.30474 0.6722 0.76015 0.0
H637 H 0.35857 0.69622 0.72032 0.0
H638 H 0.37148 0.59897 0.67559 0.0
C639 C 0.5185 0.70101 0.61546 0.0
C640 C 0.48366 0.7269 0.68368 0.0
C641 C 0.52432 0.71003 0.58574 0.0
C642 C 0.3167 0.65207 0.75296 0.0
C643 C 0.3481 0.66617 0.73046 0.0
C644 C 0.40325 0.63457 0.67844 0.0
C645 C 0.50147 0.72042 0.63256 0.0
C646 C 0.47664 0.69999 0.65911 0.0
C647 C 0.3681 0.6431 0.72227 0.0
C648 C 0.4077 0.66197 0.70172 0.0
H649 H 0.49328 0.78373 0.58159 0.0
H650 H 0.48383 0.76863 0.63339 0.0
H651 H 0.43054 0.63194 0.63831 0.0
H652 H 0.31165 0.55988 0.76814 0.0
H653 H 0.36626 0.58452 0.72864 0.0
loop_
_geom_bond_atom_site_label_1
_geom_bond_atom_site_label_2
_geom_bond_distance
_geom_bond_site_symmetry_2
_ccdc_geom_bond_type
Co0 O3 1.991 1_455 S
Co0 N17 1.970 1_465 S
Co0 O25 1.970 1_565 S
Co0 O32 1.918 1_565 S
Co1 O4 1.966 1_445 S
Co1 N10 2.022 . S
Co1 N18 1.993 1_455 S
Co1 O26 1.941 . S
C2 O3 1.258 . S
C2 O4 1.263 . S
O3 Co0 1.991 1_655 S
O3 C2 1.258 . S
O4 Co1 1.966 1_665 S
O4 C2 1.263 . S
C5 O6 1.235 . S
C5 O32 1.289 1_665 S
O6 C5 1.235 . S
C7 C9 1.400 1_565 S
C7 N10 1.351 1_665 S
C7 C12 1.501 . S
C8 C9 1.387 1_455 S
C8 N11 1.341 . S
C9 C7 1.400 1_545 S
C9 C8 1.387 1_655 S
N10 Co1 2.022 . S
N10 C7 1.351 1_445 S
N10 N11 1.365 . S
N11 C8 1.341 . S
N11 N10 1.365 . S
N11 H31 0.862 . S
C12 C7 1.501 . S
C12 H13 0.961 . S
C12 H14 0.961 . S
C12 H15 0.960 . S
H13 C12 0.961 . S
H14 C12 0.961 . S
H15 C12 0.960 . S
C16 N17 1.342 . S
C16 C20 1.401 . S
C16 C21 1.499 . S
N17 Co0 1.970 1_645 S
N17 C16 1.342 . S
N17 N18 1.388 . S
N18 Co1 1.993 1_655 S
N18 N17 1.388 . S
N18 C19 1.346 . S
C19 N18 1.346 . S
C19 C20 1.396 . S
C19 C29 1.510 . S
C20 C16 1.401 . S
C20 C19 1.396 . S
C21 C16 1.499 . S
C21 H22 0.959 . S
C21 H23 0.960 . S
C21 H24 0.961 . S
H22 C21 0.959 . S
H23 C21 0.960 . S
H24 C21 0.961 . S
O25 Co0 1.970 1_545 S
O25 C33 1.258 . S
O26 Co1 1.941 . S
O26 C33 1.266 . S
H27 C29 0.959 . S
H28 C29 0.961 . S
C29 C19 1.510 . S
C29 H27 0.959 . S
C29 H28 0.961 . S
C29 H30 0.960 . S
H30 C29 0.960 . S
H31 N11 0.862 . S
O32 Co0 1.918 1_545 S
O32 C5 1.289 1_445 S
C33 O25 1.258 . S
C33 O26 1.266 . S
Co34 O37 1.970 1_545 S
Co34 N51 1.989 . S
Co34 O59 1.967 1_445 S
Co34 O66 1.920 . S
Co35 O38 1.941 1_545 S
Co35 N44 2.024 . S
Co35 N52 2.014 . S
Co35 O60 1.940 1_445 S
C36 O37 1.258 . S
C36 O38 1.263 . S
O37 Co34 1.970 1_565 S
O37 C36 1.258 . S
O38 Co35 1.941 1_565 S
O38 C36 1.263 . S
C39 O40 1.235 . S
C39 O66 1.289 . S
O40 C39 1.235 . S
C41 C43 1.400 . S
C41 N44 1.351 . S
C41 C46 1.501 1_545 S
C42 C43 1.362 1_655 S
C42 N45 1.349 . S
C43 C41 1.400 . S
C43 C42 1.362 1_455 S
N44 Co35 2.024 . S
N44 C41 1.351 . S
N44 N45 1.365 1_455 S
N45 C42 1.349 . S
N45 N44 1.365 1_655 S
N45 H65 0.862 . S
C46 C41 1.501 1_565 S
C46 H47 0.961 . S
C46 H48 0.961 1_565 S
C46 H49 0.960 . S
H47 C46 0.961 . S
H48 C46 0.961 1_545 S
H49 C46 0.960 . S
C50 N51 1.342 . S
C50 C54 1.401 . S
C50 C55 1.499 . S
N51 Co34 1.989 . S
N51 C50 1.342 . S
N51 N52 1.388 . S
N52 Co35 2.014 . S
N52 N51 1.388 . S
N52 C53 1.346 . S
C53 N52 1.346 . S
C53 C54 1.396 . S
C53 C63 1.510 . S
C54 C50 1.401 . S
C54 C53 1.396 . S
C55 C50 1.499 . S
C55 H56 0.959 . S
C55 H57 0.960 . S
C55 H58 0.961 . S
H56 C55 0.959 . S
H57 C55 0.960 . S
H58 C55 0.961 . S
O59 Co34 1.967 1_665 S
O59 C67 1.258 . S
O60 Co35 1.940 1_665 S
O60 C67 1.266 . S
H61 C63 0.959 . S
H62 C63 0.961 . S
C63 C53 1.510 . S
C63 H61 0.959 . S
C63 H62 0.961 . S
C63 H64 0.960 . S
H64 C63 0.960 . S
H65 N45 0.862 . S
O66 Co34 1.920 . S
O66 C39 1.289 . S
C67 O59 1.258 . S
C67 O60 1.266 . S
Co68 O71 1.970 . S
Co68 N85 1.989 . S
Co68 O93 1.967 . S
Co68 O100 1.920 . S
Co69 O72 1.966 . S
Co69 N78 2.022 . S
Co69 N86 1.993 . S
Co69 O94 1.941 . S
C70 O71 1.258 . S
C70 O72 1.263 . S
O71 Co68 1.970 . S
O71 C70 1.258 . S
O72 Co69 1.966 . S
O72 C70 1.263 . S
C73 O74 1.235 . S
C73 O100 1.289 . S
O74 C73 1.235 . S
C75 C77 1.400 . S
C75 N78 1.351 . S
C75 C80 1.501 . S
C76 C77 1.387 . S
C76 N79 1.341 . S
C77 C75 1.400 . S
C77 C76 1.387 . S
N78 Co69 2.022 . S
N78 C75 1.351 . S
N78 N79 1.365 . S
N79 C76 1.341 . S
N79 N78 1.365 . S
N79 H99 0.862 . S
C80 C75 1.501 . S
C80 H81 0.961 . S
C80 H82 0.961 . S
C80 H83 0.960 . S
H81 C80 0.961 . S
H82 C80 0.961 . S
H83 C80 0.960 . S
C84 N85 1.342 . S
C84 C88 1.401 . S
C84 C89 1.499 . S
N85 Co68 1.989 . S
N85 C84 1.342 . S
N85 N86 1.388 . S
N86 Co69 1.993 . S
N86 N85 1.388 . S
N86 C87 1.346 . S
C87 N86 1.346 . S
C87 C88 1.396 . S
C87 C97 1.510 . S
C88 C84 1.401 . S
C88 C87 1.396 . S
C89 C84 1.499 . S
C89 H90 0.959 . S
C89 H91 0.960 . S
C89 H92 0.961 . S
H90 C89 0.959 . S
H91 C89 0.960 . S
H92 C89 0.961 . S
O93 Co68 1.967 . S
O93 C101 1.258 . S
O94 Co69 1.941 . S
O94 C101 1.266 . S
H95 C97 0.959 . S
H96 C97 0.961 . S
C97 C87 1.510 . S
C97 H95 0.959 . S
C97 H96 0.961 . S
C97 H98 0.960 . S
H98 C97 0.960 . S
H99 N79 0.862 . S
O100 Co68 1.920 . S
O100 C73 1.289 . S
C101 O93 1.258 . S
C101 O94 1.266 . S
Co102 O105 1.970 . S
Co102 N119 1.989 . S
Co102 O127 1.967 . S
Co102 O134 1.920 . S
Co103 O106 1.966 . S
Co103 N112 2.022 . S
Co103 N120 1.993 . S
Co103 O128 1.941 . S
C104 O105 1.258 . S
C104 O106 1.263 . S
O105 Co102 1.970 . S
O105 C104 1.258 . S
O106 Co103 1.966 . S
O106 C104 1.263 . S
C107 O108 1.235 . S
C107 O134 1.289 . S
O108 C107 1.235 . S
C109 C111 1.400 . S
C109 N112 1.351 . S
C109 C114 1.501 . S
C110 C111 1.387 . S
C110 N113 1.341 . S
C111 C109 1.400 . S
C111 C110 1.387 . S
N112 Co103 2.022 . S
N112 C109 1.351 . S
N112 N113 1.365 . S
N113 C110 1.341 . S
N113 N112 1.365 . S
N113 H133 0.862 . S
C114 C109 1.501 . S
C114 H115 0.961 . S
C114 H116 0.961 . S
C114 H117 0.960 . S
H115 C114 0.961 . S
H116 C114 0.961 . S
H117 C114 0.960 . S
C118 N119 1.342 . S
C118 C122 1.401 . S
C118 C123 1.499 . S
N119 Co102 1.989 . S
N119 C118 1.342 . S
N119 N120 1.388 . S
N120 Co103 1.993 . S
N120 N119 1.388 . S
N120 C121 1.346 . S
C121 N120 1.346 . S
C121 C122 1.396 . S
C121 C131 1.510 . S
C122 C118 1.401 . S
C122 C121 1.396 . S
C123 C118 1.499 . S
C123 H124 0.959 . S
C123 H125 0.960 . S
C123 H126 0.961 . S
H124 C123 0.959 . S
H125 C123 0.960 . S
H126 C123 0.961 . S
O127 Co102 1.967 . S
O127 C135 1.258 . S
O128 Co103 1.941 . S
O128 C135 1.266 . S
H129 C131 0.959 . S
H130 C131 0.961 . S
C131 C121 1.510 . S
C131 H129 0.959 . S
C131 H130 0.961 . S
C131 H132 0.960 . S
H132 C131 0.960 . S
H133 N113 0.862 . S
O134 Co102 1.920 . S
O134 C107 1.289 . S
C135 O127 1.258 . S
C135 O128 1.266 . S
Co136 O139 1.970 . S
Co136 N153 1.989 . S
Co136 O161 1.967 . S
Co136 O168 1.920 . S
Co137 O140 1.966 . S
Co137 N146 2.022 . S
Co137 N154 1.993 . S
Co137 O162 1.941 . S
C138 O139 1.258 . S
C138 O140 1.263 . S
O139 Co136 1.970 . S
O139 C138 1.258 . S
O140 Co137 1.966 . S
O140 C138 1.263 . S
C141 O142 1.235 . S
C141 O168 1.289 . S
O142 C141 1.235 . S
C143 C145 1.400 . S
C143 N146 1.351 . S
C143 C148 1.501 . S
C144 C145 1.387 . S
C144 N147 1.341 . S
C145 C143 1.400 . S
C145 C144 1.387 . S
N146 Co137 2.022 . S
N146 C143 1.351 . S
N146 N147 1.365 . S
N147 C144 1.341 . S
N147 N146 1.365 . S
N147 H167 0.862 . S
C148 C143 1.501 . S
C148 H149 0.961 . S
C148 H150 0.961 . S
C148 H151 0.960 . S
H149 C148 0.961 . S
H150 C148 0.961 . S
H151 C148 0.960 . S
C152 N153 1.342 . S
C152 C156 1.401 . S
C152 C157 1.499 . S
N153 Co136 1.989 . S
N153 C152 1.342 . S
N153 N154 1.388 . S
N154 Co137 1.993 . S
N154 N153 1.388 . S
N154 C155 1.346 . S
C155 N154 1.346 . S
C155 C156 1.396 . S
C155 C165 1.510 . S
C156 C152 1.401 . S
C156 C155 1.396 . S
C157 C152 1.499 . S
C157 H158 0.959 . S
C157 H159 0.960 . S
C157 H160 0.961 . S
H158 C157 0.959 . S
H159 C157 0.960 . S
H160 C157 0.961 . S
O161 Co136 1.967 . S
O161 C169 1.258 . S
O162 Co137 1.941 . S
O162 C169 1.266 . S
H163 C165 0.959 . S
H164 C165 0.961 . S
C165 C155 1.510 . S
C165 H163 0.959 . S
C165 H164 0.961 . S
C165 H166 0.960 . S
H166 C165 0.960 . S
H167 N147 0.862 . S
O168 Co136 1.920 . S
O168 C141 1.289 . S
C169 O161 1.258 . S
C169 O162 1.266 . S
Co170 O173 1.970 . S
Co170 N187 1.989 . S
Co170 O195 1.967 . S
Co170 O202 1.920 . S
Co171 O174 1.966 . S
Co171 N180 2.022 . S
Co171 N188 1.993 . S
Co171 O196 1.941 . S
C172 O173 1.258 . S
C172 O174 1.263 . S
O173 Co170 1.970 . S
O173 C172 1.258 . S
O174 Co171 1.966 . S
O174 C172 1.263 . S
C175 O176 1.235 . S
C175 O202 1.289 . S
O176 C175 1.235 . S
C177 C179 1.400 . S
C177 N180 1.351 . S
C177 C182 1.501 . S
C178 C179 1.387 . S
C178 N181 1.341 . S
C179 C177 1.400 . S
C179 C178 1.387 . S
N180 Co171 2.022 . S
N180 C177 1.351 . S
N180 N181 1.365 . S
N181 C178 1.341 . S
N181 N180 1.365 . S
N181 H201 0.862 . S
C182 C177 1.501 . S
C182 H183 0.961 . S
C182 H184 0.961 . S
C182 H185 0.960 . S
H183 C182 0.961 . S
H184 C182 0.961 . S
H185 C182 0.960 . S
C186 N187 1.342 . S
C186 C190 1.401 . S
C186 C191 1.499 . S
N187 Co170 1.989 . S
N187 C186 1.342 . S
N187 N188 1.388 . S
N188 Co171 1.993 . S
N188 N187 1.388 . S
N188 C189 1.346 . S
C189 N188 1.346 . S
C189 C190 1.396 . S
C189 C199 1.510 . S
C190 C186 1.401 . S
C190 C189 1.396 . S
C191 C186 1.499 . S
C191 H192 0.959 . S
C191 H193 0.960 . S
C191 H194 0.961 . S
H192 C191 0.959 . S
H193 C191 0.960 . S
H194 C191 0.961 . S
O195 Co170 1.967 . S
O195 C203 1.258 . S
O196 Co171 1.941 . S
O196 C203 1.266 . S
H197 C199 0.959 . S
H198 C199 0.961 . S
C199 C189 1.510 . S
C199 H197 0.959 . S
C199 H198 0.961 . S
C199 H200 0.960 . S
H200 C199 0.960 . S
H201 N181 0.862 . S
O202 Co170 1.920 . S
O202 C175 1.289 . S
C203 O195 1.258 . S
C203 O196 1.266 . S
C204 C205 1.349 . S
C204 C206 1.327 . S
C204 H229 0.950 . S
C205 C204 1.349 . S
C205 C221 1.349 . S
C206 C204 1.327 . S
C206 C225 1.429 . S
C206 H230 0.950 . S
C207 C224 1.574 . S
C207 C226 1.368 . S
C207 H231 0.949 . S
H208 C212 0.949 . S
C209 C210 1.349 . S
C209 C211 1.327 . S
C209 H232 0.950 . S
C210 C209 1.349 . S
C210 C222 1.349 . S
C211 C209 1.327 . S
C211 C227 1.429 . S
C211 H233 0.950 . S
C212 H208 0.949 . S
C212 C220 1.574 . S
C212 C228 1.368 . S
H213 C221 0.950 . S
H214 C219 0.950 . S
H215 C220 0.949 . S
H216 C222 0.950 . S
H217 C223 0.950 . S
H218 C224 0.949 . S
C219 H214 0.950 . S
C219 C221 1.327 . S
C219 C225 1.429 . S
C220 C212 1.574 . S
C220 H215 0.949 . S
C220 C226 1.368 . S
C221 C205 1.349 . S
C221 H213 0.950 . S
C221 C219 1.327 . S
C222 C210 1.349 . S
C222 H216 0.950 . S
C222 C223 1.327 . S
C223 H217 0.950 . S
C223 C222 1.327 . S
C223 C227 1.429 . S
C224 C207 1.574 . S
C224 H218 0.949 . S
C224 C228 1.368 . S
C225 C206 1.429 . S
C225 C219 1.429 . S
C225 C226 1.523 . S
C226 C207 1.368 . S
C226 C220 1.368 . S
C226 C225 1.523 . S
C227 C211 1.429 . S
C227 C223 1.429 . S
C227 C228 1.523 . S
C228 C212 1.368 . S
C228 C224 1.368 . S
C228 C227 1.523 . S
H229 C204 0.950 . S
H230 C206 0.950 . S
H231 C207 0.949 . S
H232 C209 0.950 . S
H233 C211 0.950 . S
C234 C235 1.349 . S
C234 C236 1.327 . S
C234 H259 0.950 . S
C235 C234 1.349 . S
C235 C251 1.349 . S
C236 C234 1.327 . S
C236 C255 1.429 . S
C236 H260 0.950 . S
C237 C254 1.574 . S
C237 C256 1.368 . S
C237 H261 0.949 . S
H238 C242 0.949 . S
C239 C240 1.349 . S
C239 C241 1.327 . S
C239 H262 0.950 . S
C240 C239 1.349 . S
C240 C252 1.349 . S
C241 C239 1.327 . S
C241 C257 1.429 . S
C241 H263 0.950 . S
C242 H238 0.949 . S
C242 C250 1.574 . S
C242 C258 1.368 . S
H243 C251 0.950 . S
H244 C249 0.950 . S
H245 C250 0.949 . S
H246 C252 0.950 . S
H247 C253 0.950 . S
H248 C254 0.949 . S
C249 H244 0.950 . S
C249 C251 1.327 . S
C249 C255 1.429 . S
C250 C242 1.574 . S
C250 H245 0.949 . S
C250 C256 1.368 . S
C251 C235 1.349 . S
C251 H243 0.950 . S
C251 C249 1.327 . S
C252 C240 1.349 . S
C252 H246 0.950 . S
C252 C253 1.327 . S
C253 H247 0.950 . S
C253 C252 1.327 . S
C253 C257 1.429 . S
C254 C237 1.574 . S
C254 H248 0.949 . S
C254 C258 1.368 . S
C255 C236 1.429 . S
C255 C249 1.429 . S
C255 C256 1.523 . S
C256 C237 1.368 . S
C256 C250 1.368 . S
C256 C255 1.523 . S
C257 C241 1.429 . S
C257 C253 1.429 . S
C257 C258 1.523 . S
C258 C242 1.368 . S
C258 C254 1.368 . S
C258 C257 1.523 . S
H259 C234 0.950 . S
H260 C236 0.950 . S
H261 C237 0.949 . S
H262 C239 0.950 . S
H263 C241 0.950 . S
C264 C265 1.349 . S
C264 C266 1.327 . S
C264 H289 0.950 . S
C265 C264 1.349 . S
C265 C281 1.349 . S
C266 C264 1.327 . S
C266 C285 1.429 . S
C266 H290 0.950 . S
C267 C284 1.574 . S
C267 C286 1.368 . S
C267 H291 0.949 . S
H268 C272 0.949 . S
C269 C270 1.349 . S
C269 C271 1.327 . S
C269 H292 0.950 . S
C270 C269 1.349 . S
C270 C282 1.349 . S
C271 C269 1.327 . S
C271 C287 1.429 . S
C271 H293 0.950 . S
C272 H268 0.949 . S
C272 C280 1.574 . S
C272 C288 1.368 . S
H273 C281 0.950 . S
H274 C279 0.950 . S
H275 C280 0.949 . S
H276 C282 0.950 . S
H277 C283 0.950 . S
H278 C284 0.949 . S
C279 H274 0.950 . S
C279 C281 1.327 . S
C279 C285 1.429 . S
C280 C272 1.574 . S
C280 H275 0.949 . S
C280 C286 1.368 . S
C281 C265 1.349 . S
C281 H273 0.950 . S
C281 C279 1.327 . S
C282 C270 1.349 . S
C282 H276 0.950 . S
C282 C283 1.327 . S
C283 H277 0.950 . S
C283 C282 1.327 . S
C283 C287 1.429 . S
C284 C267 1.574 . S
C284 H278 0.949 . S
C284 C288 1.368 . S
C285 C266 1.429 . S
C285 C279 1.429 . S
C285 C286 1.523 . S
C286 C267 1.368 . S
C286 C280 1.368 . S
C286 C285 1.523 . S
C287 C271 1.429 . S
C287 C283 1.429 . S
C287 C288 1.523 . S
C288 C272 1.368 . S
C288 C284 1.368 . S
C288 C287 1.523 . S
H289 C264 0.950 . S
H290 C266 0.950 . S
H291 C267 0.949 . S
H292 C269 0.950 . S
H293 C271 0.950 . S
C294 C295 1.349 . S
C294 C296 1.327 . S
C294 H319 0.950 . S
C295 C294 1.349 . S
C295 C311 1.349 . S
C296 C294 1.327 . S
C296 C315 1.429 . S
C296 H320 0.950 . S
C297 C314 1.574 . S
C297 C316 1.368 . S
C297 H321 0.949 . S
H298 C302 0.949 . S
C299 C300 1.349 . S
C299 C301 1.327 . S
C299 H322 0.950 . S
C300 C299 1.349 . S
C300 C312 1.349 . S
C301 C299 1.327 . S
C301 C317 1.429 . S
C301 H323 0.950 . S
C302 H298 0.949 . S
C302 C310 1.574 . S
C302 C318 1.368 . S
H303 C311 0.950 . S
H304 C309 0.950 . S
H305 C310 0.949 . S
H306 C312 0.950 . S
H307 C313 0.950 . S
H308 C314 0.949 . S
C309 H304 0.950 . S
C309 C311 1.327 . S
C309 C315 1.429 . S
C310 C302 1.574 . S
C310 H305 0.949 . S
C310 C316 1.368 . S
C311 C295 1.349 . S
C311 H303 0.950 . S
C311 C309 1.327 . S
C312 C300 1.349 . S
C312 H306 0.950 . S
C312 C313 1.327 . S
C313 H307 0.950 . S
C313 C312 1.327 . S
C313 C317 1.429 . S
C314 C297 1.574 . S
C314 H308 0.949 . S
C314 C318 1.368 . S
C315 C296 1.429 . S
C315 C309 1.429 . S
C315 C316 1.523 . S
C316 C297 1.368 . S
C316 C310 1.368 . S
C316 C315 1.523 . S
C317 C301 1.429 . S
C317 C313 1.429 . S
C317 C318 1.523 . S
C318 C302 1.368 . S
C318 C314 1.368 . S
C318 C317 1.523 . S
H319 C294 0.950 . S
H320 C296 0.950 . S
H321 C297 0.949 . S
H322 C299 0.950 . S
H323 C301 0.950 . S
C324 C325 1.349 . S
C324 C326 1.327 . S
C324 H349 0.950 . S
C325 C324 1.349 . S
C325 C341 1.349 . S
C326 C324 1.327 . S
C326 C345 1.429 . S
C326 H350 0.950 . S
C327 C344 1.574 . S
C327 C346 1.368 . S
C327 H351 0.949 . S
H328 C332 0.949 . S
C329 C330 1.349 . S
C329 C331 1.327 . S
C329 H352 0.950 . S
C330 C329 1.349 . S
C330 C342 1.349 . S
C331 C329 1.327 . S
C331 C347 1.429 . S
C331 H353 0.950 . S
C332 H328 0.949 . S
C332 C340 1.574 . S
C332 C348 1.368 . S
H333 C341 0.950 . S
H334 C339 0.950 . S
H335 C340 0.949 . S
H336 C342 0.950 . S
H337 C343 0.950 . S
H338 C344 0.949 . S
C339 H334 0.950 . S
C339 C341 1.327 . S
C339 C345 1.429 . S
C340 C332 1.574 . S
C340 H335 0.949 . S
C340 C346 1.368 . S
C341 C325 1.349 . S
C341 H333 0.950 . S
C341 C339 1.327 . S
C342 C330 1.349 . S
C342 H336 0.950 . S
C342 C343 1.327 . S
C343 H337 0.950 . S
C343 C342 1.327 . S
C343 C347 1.429 . S
C344 C327 1.574 . S
C344 H338 0.949 . S
C344 C348 1.368 . S
C345 C326 1.429 . S
C345 C339 1.429 . S
C345 C346 1.523 . S
C346 C327 1.368 . S
C346 C340 1.368 . S
C346 C345 1.523 . S
C347 C331 1.429 . S
C347 C343 1.429 . S
C347 C348 1.523 . S
C348 C332 1.368 . S
C348 C344 1.368 . S
C348 C347 1.523 . S
H349 C324 0.950 . S
H350 C326 0.950 . S
H351 C327 0.949 . S
H352 C329 0.950 . S
H353 C331 0.950 . S
C354 C355 1.349 . S
C354 C356 1.327 . S
C354 H379 0.950 . S
C355 C354 1.349 . S
C355 C371 1.349 . S
C356 C354 1.327 . S
C356 C375 1.429 . S
C356 H380 0.950 . S
C357 C374 1.574 . S
C357 C376 1.368 . S
C357 H381 0.949 . S
H358 C362 0.949 . S
C359 C360 1.349 . S
C359 C361 1.327 . S
C359 H382 0.950 . S
C360 C359 1.349 . S
C360 C372 1.349 . S
C361 C359 1.327 . S
C361 C377 1.429 . S
C361 H383 0.950 . S
C362 H358 0.949 . S
C362 C370 1.574 . S
C362 C378 1.368 . S
H363 C371 0.950 . S
H364 C369 0.950 . S
H365 C370 0.949 . S
H366 C372 0.950 . S
H367 C373 0.950 . S
H368 C374 0.949 . S
C369 H364 0.950 . S
C369 C371 1.327 . S
C369 C375 1.429 . S
C370 C362 1.574 . S
C370 H365 0.949 . S
C370 C376 1.368 . S
C371 C355 1.349 . S
C371 H363 0.950 . S
C371 C369 1.327 . S
C372 C360 1.349 . S
C372 H366 0.950 . S
C372 C373 1.327 . S
C373 H367 0.950 . S
C373 C372 1.327 . S
C373 C377 1.429 . S
C374 C357 1.574 . S
C374 H368 0.949 . S
C374 C378 1.368 . S
C375 C356 1.429 . S
C375 C369 1.429 . S
C375 C376 1.523 . S
C376 C357 1.368 . S
C376 C370 1.368 . S
C376 C375 1.523 . S
C377 C361 1.429 . S
C377 C373 1.429 . S
C377 C378 1.523 . S
C378 C362 1.368 . S
C378 C374 1.368 . S
C378 C377 1.523 . S
H379 C354 0.950 . S
H380 C356 0.950 . S
H381 C357 0.949 . S
H382 C359 0.950 . S
H383 C361 0.950 . S
C384 C385 1.349 . S
C384 C386 1.327 . S
C384 H409 0.950 . S
C385 C384 1.349 . S
C385 C401 1.349 . S
C386 C384 1.327 . S
C386 C405 1.429 . S
C386 H410 0.950 . S
C387 C404 1.574 . S
C387 C406 1.368 1_455 S
C387 H411 0.949 . S
H388 C392 0.949 . S
C389 C390 1.349 . S
C389 C391 1.327 . S
C389 H412 0.950 . S
C390 C389 1.349 . S
C390 C402 1.349 . S
C391 C389 1.327 . S
C391 C407 1.429 . S
C391 H413 0.950 . S
C392 H388 0.949 . S
C392 C400 1.574 1_455 S
C392 C408 1.368 . S
H393 C401 0.950 . S
H394 C399 0.950 . S
H395 C400 0.949 . S
H396 C402 0.950 . S
H397 C403 0.950 . S
H398 C404 0.949 . S
C399 H394 0.950 . S
C399 C401 1.327 . S
C399 C405 1.429 . S
C400 C392 1.574 1_655 S
C400 H395 0.949 . S
C400 C406 1.368 . S
C401 C385 1.349 . S
C401 H393 0.950 . S
C401 C399 1.327 . S
C402 C390 1.349 . S
C402 H396 0.950 . S
C402 C403 1.327 . S
C403 H397 0.950 . S
C403 C402 1.327 . S
C403 C407 1.429 . S
C404 C387 1.574 . S
C404 H398 0.949 . S
C404 C408 1.368 . S
C405 C386 1.429 . S
C405 C399 1.429 . S
C405 C406 1.523 . S
C406 C387 1.368 1_655 S
C406 C400 1.368 . S
C406 C405 1.523 . S
C407 C391 1.429 . S
C407 C403 1.429 . S
C407 C408 1.523 . S
C408 C392 1.368 . S
C408 C404 1.368 . S
C408 C407 1.523 . S
H409 C384 0.950 . S
H410 C386 0.950 . S
H411 C387 0.949 . S
H412 C389 0.950 . S
H413 C391 0.950 . S
C414 C415 1.349 . S
C414 C416 1.327 . S
C414 H439 0.950 . S
C415 C414 1.349 . S
C415 C431 1.349 . S
C416 C414 1.327 . S
C416 C435 1.429 . S
C416 H440 0.950 . S
C417 C434 1.574 . S
C417 C436 1.368 . S
C417 H441 0.949 . S
H418 C422 0.949 . S
C419 C420 1.349 . S
C419 C421 1.327 . S
C419 H442 0.950 . S
C420 C419 1.349 . S
C420 C432 1.349 . S
C421 C419 1.327 . S
C421 C437 1.429 . S
C421 H443 0.950 . S
C422 H418 0.949 . S
C422 C430 1.574 . S
C422 C438 1.368 . S
H423 C431 0.950 . S
H424 C429 0.950 . S
H425 C430 0.949 . S
H426 C432 0.950 . S
H427 C433 0.950 . S
H428 C434 0.949 . S
C429 H424 0.950 . S
C429 C431 1.327 . S
C429 C435 1.429 . S
C430 C422 1.574 . S
C430 H425 0.949 . S
C430 C436 1.368 . S
C431 C415 1.349 . S
C431 H423 0.950 . S
C431 C429 1.327 . S
C432 C420 1.349 . S
C432 H426 0.950 . S
C432 C433 1.327 . S
C433 H427 0.950 . S
C433 C432 1.327 . S
C433 C437 1.429 . S
C434 C417 1.574 . S
C434 H428 0.949 . S
C434 C438 1.368 . S
C435 C416 1.429 . S
C435 C429 1.429 . S
C435 C436 1.523 . S
C436 C417 1.368 . S
C436 C430 1.368 . S
C436 C435 1.523 . S
C437 C421 1.429 . S
C437 C433 1.429 . S
C437 C438 1.523 . S
C438 C422 1.368 . S
C438 C434 1.368 . S
C438 C437 1.523 . S
H439 C414 0.950 . S
H440 C416 0.950 . S
H441 C417 0.949 . S
H442 C419 0.950 . S
H443 C421 0.950 . S
C444 C445 1.349 . S
C444 C446 1.327 . S
C444 H469 0.950 . S
C445 C444 1.349 . S
C445 C461 1.349 . S
C446 C444 1.327 . S
C446 C465 1.429 . S
C446 H470 0.950 . S
C447 C464 1.574 . S
C447 C466 1.368 1_545 S
C447 H471 0.949 1_545 S
H448 C452 0.949 . S
C449 C450 1.349 . S
C449 C451 1.327 . S
C449 H472 0.950 . S
C450 C449 1.349 . S
C450 C462 1.349 . S
C451 C449 1.327 . S
C451 C467 1.429 . S
C451 H473 0.950 . S
C452 H448 0.949 . S
C452 C460 1.574 . S
C452 C468 1.368 . S
H453 C461 0.950 . S
H454 C459 0.950 . S
H455 C460 0.949 1_565 S
H456 C462 0.950 . S
H457 C463 0.950 . S
H458 C464 0.949 . S
C459 H454 0.950 . S
C459 C461 1.327 . S
C459 C465 1.429 . S
C460 C452 1.574 . S
C460 H455 0.949 1_545 S
C460 C466 1.368 1_545 S
C461 C445 1.349 . S
C461 H453 0.950 . S
C461 C459 1.327 . S
C462 C450 1.349 . S
C462 H456 0.950 . S
C462 C463 1.327 . S
C463 H457 0.950 . S
C463 C462 1.327 . S
C463 C467 1.429 . S
C464 C447 1.574 . S
C464 H458 0.949 . S
C464 C468 1.368 . S
C465 C446 1.429 . S
C465 C459 1.429 . S
C465 C466 1.523 . S
C466 C447 1.368 1_565 S
C466 C460 1.368 1_565 S
C466 C465 1.523 . S
C467 C451 1.429 . S
C467 C463 1.429 . S
C467 C468 1.523 . S
C468 C452 1.368 . S
C468 C464 1.368 . S
C468 C467 1.523 . S
H469 C444 0.950 . S
H470 C446 0.950 . S
H471 C447 0.949 1_565 S
H472 C449 0.950 . S
H473 C451 0.950 . S
C474 C475 1.349 1_565 S
C474 C476 1.327 1_455 S
C474 H499 0.950 1_455 S
C475 C474 1.349 1_545 S
C475 C491 1.349 . S
C476 C474 1.327 1_655 S
C476 C495 1.429 1_665 S
C476 H500 0.950 . S
C477 C494 1.574 . S
C477 C496 1.368 . S
C477 H501 0.949 . S
H478 C482 0.949 . S
C479 C480 1.349 1_445 S
C479 C481 1.327 . S
C479 H502 0.950 . S
C480 C479 1.349 1_665 S
C480 C492 1.349 . S
C481 C479 1.327 . S
C481 C497 1.429 . S
C481 H503 0.950 . S
C482 H478 0.949 . S
C482 C490 1.574 . S
C482 C498 1.368 1_665 S
H483 C491 0.950 . S
H484 C489 0.950 . S
H485 C490 0.949 . S
H486 C492 0.950 . S
H487 C493 0.950 . S
H488 C494 0.949 . S
C489 H484 0.950 . S
C489 C491 1.327 . S
C489 C495 1.429 . S
C490 C482 1.574 . S
C490 H485 0.949 . S
C490 C496 1.368 1_665 S
C491 C475 1.349 . S
C491 H483 0.950 . S
C491 C489 1.327 . S
C492 C480 1.349 . S
C492 H486 0.950 . S
C492 C493 1.327 . S
C493 H487 0.950 . S
C493 C492 1.327 . S
C493 C497 1.429 1_665 S
C494 C477 1.574 . S
C494 H488 0.949 . S
C494 C498 1.368 . S
C495 C476 1.429 1_445 S
C495 C489 1.429 . S
C495 C496 1.523 . S
C496 C477 1.368 . S
C496 C490 1.368 1_445 S
C496 C495 1.523 . S
C497 C481 1.429 . S
C497 C493 1.429 1_445 S
C497 C498 1.523 . S
C498 C482 1.368 1_445 S
C498 C494 1.368 . S
C498 C497 1.523 . S
H499 C474 0.950 1_655 S
H500 C476 0.950 . S
H501 C477 0.949 . S
H502 C479 0.950 . S
H503 C481 0.950 . S
C504 C505 1.349 . S
C504 C506 1.327 . S
C504 H529 0.950 . S
C505 C504 1.349 . S
C505 C521 1.349 . S
C506 C504 1.327 . S
C506 C525 1.429 . S
C506 H530 0.950 . S
C507 C524 1.574 . S
C507 C526 1.368 . S
C507 H531 0.949 . S
H508 C512 0.949 . S
C509 C510 1.349 . S
C509 C511 1.327 . S
C509 H532 0.950 . S
C510 C509 1.349 . S
C510 C522 1.349 . S
C511 C509 1.327 . S
C511 C527 1.429 . S
C511 H533 0.950 . S
C512 H508 0.949 . S
C512 C520 1.574 . S
C512 C528 1.368 . S
H513 C521 0.950 . S
H514 C519 0.950 . S
H515 C520 0.949 . S
H516 C522 0.950 . S
H517 C523 0.950 . S
H518 C524 0.949 . S
C519 H514 0.950 . S
C519 C521 1.327 . S
C519 C525 1.429 . S
C520 C512 1.574 . S
C520 H515 0.949 . S
C520 C526 1.368 . S
C521 C505 1.349 . S
C521 H513 0.950 . S
C521 C519 1.327 . S
C522 C510 1.349 . S
C522 H516 0.950 . S
C522 C523 1.327 . S
C523 H517 0.950 . S
C523 C522 1.327 . S
C523 C527 1.429 . S
C524 C507 1.574 . S
C524 H518 0.949 . S
C524 C528 1.368 . S
C525 C506 1.429 . S
C525 C519 1.429 . S
C525 C526 1.523 . S
C526 C507 1.368 . S
C526 C520 1.368 . S
C526 C525 1.523 . S
C527 C511 1.429 . S
C527 C523 1.429 . S
C527 C528 1.523 . S
C528 C512 1.368 . S
C528 C524 1.368 . S
C528 C527 1.523 . S
H529 C504 0.950 . S
H530 C506 0.950 . S
H531 C507 0.949 . S
H532 C509 0.950 . S
H533 C511 0.950 . S
C534 C535 1.349 . S
C534 C536 1.327 . S
C534 H559 0.950 . S
C535 C534 1.349 . S
C535 C551 1.349 . S
C536 C534 1.327 . S
C536 C555 1.429 . S
C536 H560 0.950 . S
C537 C554 1.574 . S
C537 C556 1.368 . S
C537 H561 0.949 . S
H538 C542 0.949 . S
C539 C540 1.349 . S
C539 C541 1.327 . S
C539 H562 0.950 . S
C540 C539 1.349 . S
C540 C552 1.349 . S
C541 C539 1.327 . S
C541 C557 1.429 . S
C541 H563 0.950 . S
C542 H538 0.949 . S
C542 C550 1.574 . S
C542 C558 1.368 . S
H543 C551 0.950 . S
H544 C549 0.950 . S
H545 C550 0.949 . S
H546 C552 0.950 . S
H547 C553 0.950 . S
H548 C554 0.949 . S
C549 H544 0.950 . S
C549 C551 1.327 . S
C549 C555 1.429 . S
C550 C542 1.574 . S
C550 H545 0.949 . S
C550 C556 1.368 . S
C551 C535 1.349 . S
C551 H543 0.950 . S
C551 C549 1.327 . S
C552 C540 1.349 . S
C552 H546 0.950 . S
C552 C553 1.327 . S
C553 H547 0.950 . S
C553 C552 1.327 . S
C553 C557 1.429 . S
C554 C537 1.574 . S
C554 H548 0.949 . S
C554 C558 1.368 . S
C555 C536 1.429 . S
C555 C549 1.429 . S
C555 C556 1.523 . S
C556 C537 1.368 . S
C556 C550 1.368 . S
C556 C555 1.523 . S
C557 C541 1.429 . S
C557 C553 1.429 . S
C557 C558 1.523 . S
C558 C542 1.368 . S
C558 C554 1.368 . S
C558 C557 1.523 . S
H559 C534 0.950 . S
H560 C536 0.950 . S
H561 C537 0.949 . S
H562 C539 0.950 . S
H563 C541 0.950 . S
C564 C565 1.349 1_445 S
C564 C566 1.327 . S
C564 H589 0.950 . S
C565 C564 1.349 1_665 S
C565 C581 1.349 . S
C566 C564 1.327 . S
C566 C585 1.429 1_445 S
C566 H590 0.950 . S
C567 C584 1.574 1_554 S
C567 C586 1.368 1_665 S
C567 H591 0.949 . S
H568 C572 0.949 . S
C569 C570 1.349 . S
C569 C571 1.327 1_545 S
C569 H592 0.950 1_545 S
C570 C569 1.349 . S
C570 C582 1.349 . S
C571 C569 1.327 1_565 S
C571 C587 1.429 1_565 S
C571 H593 0.950 1_455 S
C572 H568 0.949 . S
C572 C580 1.574 1_556 S
C572 C588 1.368 . S
H573 C581 0.950 . S
H574 C579 0.950 . S
H575 C580 0.949 . S
H576 C582 0.950 . S
H577 C583 0.950 . S
H578 C584 0.949 . S
C579 H574 0.950 . S
C579 C581 1.327 . S
C579 C585 1.429 . S
C580 C572 1.574 1_554 S
C580 H575 0.949 . S
C580 C586 1.368 . S
C581 C565 1.349 . S
C581 H573 0.950 . S
C581 C579 1.327 . S
C582 C570 1.349 . S
C582 H576 0.950 . S
C582 C583 1.327 . S
C583 H577 0.950 . S
C583 C582 1.327 . S
C583 C587 1.429 . S
C584 C567 1.574 1_556 S
C584 H578 0.949 . S
C584 C588 1.368 1_665 S
C585 C566 1.429 1_665 S
C585 C579 1.429 . S
C585 C586 1.523 1_665 S
C586 C567 1.368 1_445 S
C586 C580 1.368 . S
C586 C585 1.523 1_445 S
C587 C571 1.429 1_545 S
C587 C583 1.429 . S
C587 C588 1.523 . S
C588 C572 1.368 . S
C588 C584 1.368 1_445 S
C588 C587 1.523 . S
H589 C564 0.950 . S
H590 C566 0.950 . S
H591 C567 0.949 . S
H592 C569 0.950 1_565 S
H593 C571 0.950 1_655 S
C594 C595 1.349 . S
C594 C596 1.327 . S
C594 H619 0.950 . S
C595 C594 1.349 . S
C595 C611 1.349 . S
C596 C594 1.327 . S
C596 C615 1.429 . S
C596 H620 0.950 . S
C597 C614 1.574 . S
C597 C616 1.368 . S
C597 H621 0.949 . S
H598 C602 0.949 . S
C599 C600 1.349 . S
C599 C601 1.327 . S
C599 H622 0.950 . S
C600 C599 1.349 . S
C600 C612 1.349 . S
C601 C599 1.327 . S
C601 C617 1.429 . S
C601 H623 0.950 . S
C602 H598 0.949 . S
C602 C610 1.574 . S
C602 C618 1.368 . S
H603 C611 0.950 . S
H604 C609 0.950 . S
H605 C610 0.949 . S
H606 C612 0.950 . S
H607 C613 0.950 . S
H608 C614 0.949 . S
C609 H604 0.950 . S
C609 C611 1.327 . S
C609 C615 1.429 . S
C610 C602 1.574 . S
C610 H605 0.949 . S
C610 C616 1.368 . S
C611 C595 1.349 . S
C611 H603 0.950 . S
C611 C609 1.327 . S
C612 C600 1.349 . S
C612 H606 0.950 . S
C612 C613 1.327 . S
C613 H607 0.950 . S
C613 C612 1.327 . S
C613 C617 1.429 . S
C614 C597 1.574 . S
C614 H608 0.949 . S
C614 C618 1.368 . S
C615 C596 1.429 . S
C615 C609 1.429 . S
C615 C616 1.523 . S
C616 C597 1.368 . S
C616 C610 1.368 . S
C616 C615 1.523 . S
C617 C601 1.429 . S
C617 C613 1.429 . S
C617 C618 1.523 . S
C618 C602 1.368 . S
C618 C614 1.368 . S
C618 C617 1.523 . S
H619 C594 0.950 . S
H620 C596 0.950 . S
H621 C597 0.949 . S
H622 C599 0.950 . S
H623 C601 0.950 . S
C624 C625 1.349 . S
C624 C626 1.327 . S
C624 H649 0.950 . S
C625 C624 1.349 . S
C625 C641 1.349 . S
C626 C624 1.327 . S
C626 C645 1.429 . S
C626 H650 0.950 . S
C627 C644 1.574 . S
C627 C646 1.368 . S
C627 H651 0.949 . S
H628 C632 0.949 . S
C629 C630 1.349 . S
C629 C631 1.327 . S
C629 H652 0.950 . S
C630 C629 1.349 . S
C630 C642 1.349 . S
C631 C629 1.327 . S
C631 C647 1.429 . S
C631 H653 0.950 . S
C632 H628 0.949 . S
C632 C640 1.574 . S
C632 C648 1.368 . S
H633 C641 0.950 . S
H634 C639 0.950 . S
H635 C640 0.949 . S
H636 C642 0.950 . S
H637 C643 0.950 . S
H638 C644 0.949 . S
C639 H634 0.950 . S
C639 C641 1.327 . S
C639 C645 1.429 . S
C640 C632 1.574 . S
C640 H635 0.949 . S
C640 C646 1.368 . S
C641 C625 1.349 . S
C641 H633 0.950 . S
C641 C639 1.327 . S
C642 C630 1.349 . S
C642 H636 0.950 . S
C642 C643 1.327 . S
C643 H637 0.950 . S
C643 C642 1.327 . S
C643 C647 1.429 . S
C644 C627 1.574 . S
C644 H638 0.949 . S
C644 C648 1.368 . S
C645 C626 1.429 . S
C645 C639 1.429 . S
C645 C646 1.523 . S
C646 C627 1.368 . S
C646 C640 1.368 . S
C646 C645 1.523 . S
C647 C631 1.429 . S
C647 C643 1.429 . S
C647 C648 1.523 . S
C648 C632 1.368 . S
C648 C644 1.368 . S
C648 C647 1.523 . S
H649 C624 0.950 . S
H650 C626 0.950 . S
H651 C627 0.949 . S
H652 C629 0.950 . S
H653 C631 0.950 . S
C205 C33 1.193 . S
C210 C135 1.191 . S
C235 C20 1.864 . S
C240 C104 1.865 . S
C265 C122 1.864 . S
C270 C2 1.861 . S
C295 C54 1.864 . S
C300 C138 1.862 . S
C325 C169 1.194 . S
C330 C67 1.194 . S
C355 C36 1.862 . S
C360 C156 1.864 . S
C385 C101 1.193 . S
C390 C203 1.193 . S
C415 C88 1.864 . S
C420 C172 1.862 . S
C445 C190 1.864 . S
C450 C70 1.862 . S
C475 C43 2.044 . S
C480 C9 2.045 1_565 S
C505 C111 2.044 1_556 S
C510 C77 2.044 . S
C535 C179 2.044 . S
C540 C145 2.044 1_554 S
C565 C5 0.159 . S
C570 C39 0.160 . S
C595 C107 0.159 . S
C600 C73 0.159 . S
C625 C175 0.159 . S
C630 C141 0.159 . S
