# Generated by pormake.
# Topology zft, (5)-cn, num edge types: 1
# Building blocks:
#     Node 0, Type 0, BuildingBlock: BEQFEK_clean_sbu_0, # of connection points: 5
#     Node 1, Type 0, BuildingBlock: BEQFEK_clean_sbu_0, # of connection points: 5
#     Node 2, Type 0, BuildingBlock: BEQFEK_clean_sbu_0, # of connection points: 5
#     Node 3, Type 0, BuildingBlock: BEQFEK_clean_sbu_0, # of connection points: 5
#     Node 4, Type 0, BuildingBlock: BEQFEK_clean_sbu_0, # of connection points: 5
#     Node 5, Type 0, BuildingBlock: BEQFEK_clean_sbu_0, # of connection points: 5
#     Node 6, Type 0, BuildingBlock: BEQFEK_clean_sbu_0, # of connection points: 5
#     Node 7, Type 0, BuildingBlock: BEQFEK_clean_sbu_0, # of connection points: 5
#     Edge 8, Type (0, 0), BuildingBlock: OJICUG_clean_linker_0, # of connection points: 2
#     Edge 9, Type (0, 0), BuildingBlock: OJICUG_clean_linker_0, # of connection points: 2
#     Edge 10, Type (0, 0), BuildingBlock: OJICUG_clean_linker_0, # of connection points: 2
#     Edge 11, Type (0, 0), BuildingBlock: OJICUG_clean_linker_0, # of connection points: 2
#     Edge 12, Type (0, 0), BuildingBlock: OJICUG_clean_linker_0, # of connection points: 2
#     Edge 13, Type (0, 0), BuildingBlock: OJICUG_clean_linker_0, # of connection points: 2
#     Edge 14, Type (0, 0), BuildingBlock: OJICUG_clean_linker_0, # of connection points: 2
#     Edge 15, Type (0, 0), BuildingBlock: OJICUG_clean_linker_0, # of connection points: 2
#     Edge 16, Type (0, 0), BuildingBlock: OJICUG_clean_linker_0, # of connection points: 2
#     Edge 17, Type (0, 0), BuildingBlock: OJICUG_clean_linker_0, # of connection points: 2
#     Edge 18, Type (0, 0), BuildingBlock: OJICUG_clean_linker_0, # of connection points: 2
#     Edge 19, Type (0, 0), BuildingBlock: OJICUG_clean_linker_0, # of connection points: 2
#     Edge 20, Type (0, 0), BuildingBlock: OJICUG_clean_linker_0, # of connection points: 2
#     Edge 21, Type (0, 0), BuildingBlock: OJICUG_clean_linker_0, # of connection points: 2
#     Edge 22, Type (0, 0), BuildingBlock: OJICUG_clean_linker_0, # of connection points: 2
#     Edge 23, Type (0, 0), BuildingBlock: OJICUG_clean_linker_0, # of connection points: 2
#     Edge 24, Type (0, 0), BuildingBlock: OJICUG_clean_linker_0, # of connection points: 2
#     Edge 25, Type (0, 0), BuildingBlock: OJICUG_clean_linker_0, # of connection points: 2
#     Edge 26, Type (0, 0), BuildingBlock: OJICUG_clean_linker_0, # of connection points: 2
#     Edge 27, Type (0, 0), BuildingBlock: OJICUG_clean_linker_0, # of connection points: 2
# Relax obj value: 0.044
# Max RMSD: 0.117
# Mean RMSD: 0.117
data_MOF--net-zft--node1-BEQFEK_clean_sbu_0--edge1-OJICUG_clean_linker_0
_symmetry_space_group_name_H-M    P1
_symmetry_Int_Tables_number       1
_symmetry_cell_setting            triclinic
loop_
_symmetry_equiv_pos_as_xyz
'x, y, z'
_cell_length_a     21.972122
_cell_length_b     21.959229
_cell_length_c     40.892959
_cell_angle_alpha  90.004414
_cell_angle_beta   90.020618
_cell_angle_gamma 89.996256
loop_
_atom_site_label
_atom_site_type_symbol
_atom_site_fract_x
_atom_site_fract_y
_atom_site_fract_z
_atom_type_partial_charge
Co0 Co 0.02047 0.27401 0.18291 0.0
Co1 Co 0.13057 0.34697 0.15342 0.0
C2 C 0.00713 0.34325 0.1208 0.0
O3 O 0.9837 0.31 0.14301 0.0
O4 O 0.06253 0.36008 0.12225 0.0
C5 C 0.90227 0.24549 0.21222 0.0
O6 O 0.882 0.2961 0.19899 0.0
C7 C 0.19553 0.45899 0.13349 0.0
C8 C 0.28995 0.42532 0.12953 0.0
C9 C 0.25466 0.47732 0.12622 0.0
N10 N 0.19636 0.39926 0.14104 0.0
N11 N 0.25296 0.37951 0.13855 0.0
C12 C 0.1387 0.49653 0.13191 0.0
H13 H 0.14034 0.52791 0.11065 0.0
H14 H 0.09787 0.46724 0.13023 0.0
H15 H 0.13459 0.52418 0.15449 0.0
C16 C 0.05207 0.34867 0.24102 0.0
N17 N 0.05963 0.33301 0.2094 0.0
N18 N 0.10634 0.36311 0.1973 0.0
C19 C 0.12993 0.39886 0.22094 0.0
C20 C 0.09615 0.39109 0.24927 0.0
C21 C 0.00355 0.32341 0.26279 0.0
H22 H 0.00749 0.27307 0.26365 0.0
H23 H 0.95834 0.33494 0.25246 0.0
H24 H 0.00656 0.34203 0.28795 0.0
O25 O 0.07979 0.21099 0.16986 0.0
O26 O 0.1587 0.261 0.14919 0.0
H27 H 0.22187 0.40901 0.20423 0.0
H28 H 0.20538 0.44925 0.24169 0.0
C29 C 0.18691 0.43567 0.2175 0.0
H30 H 0.17684 0.47744 0.20332 0.0
H31 H 0.26634 0.33469 0.14303 0.0
O32 O 0.95756 0.2302 0.20822 0.0
C33 C 0.13248 0.21126 0.15692 0.0
Co34 Co 0.2206 0.51884 0.43256 0.0
Co35 Co 0.15328 0.63464 0.40568 0.0
C36 C 0.15127 0.51248 0.37077 0.0
O37 O 0.1814 0.48462 0.3928 0.0
O38 O 0.13922 0.56898 0.37331 0.0
C39 C 0.24702 0.39917 0.46162 0.0
O40 O 0.19507 0.38008 0.44945 0.0
C41 C 0.04173 0.70043 0.38728 0.0
C42 C 0.07525 0.79481 0.38252 0.0
C43 C 0.02317 0.75944 0.37988 0.0
N44 N 0.10163 0.70137 0.39423 0.0
N45 N 0.12134 0.75793 0.39132 0.0
C46 C 0.00421 0.64351 0.38641 0.0
H47 H 0.97727 0.63998 0.40925 0.0
H48 H 0.97226 0.64456 0.36538 0.0
H49 H 0.0334 0.60259 0.38485 0.0
C50 C 0.14702 0.54965 0.49139 0.0
N51 N 0.16361 0.55885 0.46003 0.0
N52 N 0.13728 0.60882 0.44919 0.0
C53 C 0.1043 0.63367 0.47359 0.0
C54 C 0.10904 0.59673 0.50092 0.0
C55 C 0.16978 0.49874 0.51238 0.0
H56 H 0.22026 0.49908 0.5126 0.0
H57 H 0.15453 0.45475 0.50189 0.0
H58 H 0.15275 0.50259 0.53785 0.0
O59 O 0.28568 0.57696 0.41923 0.0
O60 O 0.23905 0.66043 0.40149 0.0
H61 H 0.09932 0.72715 0.45872 0.0
H62 H 0.05743 0.7101 0.4957 0.0
C63 C 0.07065 0.69276 0.47123 0.0
H64 H 0.02871 0.68596 0.45665 0.0
H65 H 0.16634 0.7713 0.3952 0.0
O66 O 0.26357 0.45396 0.45701 0.0
C67 C 0.28758 0.63085 0.40766 0.0
Co68 Co 0.97301 0.71841 0.68364 0.0
Co69 Co 0.86151 0.64689 0.65456 0.0
C70 C 0.98475 0.649 0.62157 0.0
O71 O 0.0091 0.68189 0.64367 0.0
O72 O 0.92907 0.63321 0.62322 0.0
C73 C 0.09171 0.74663 0.7129 0.0
O74 O 0.11209 0.69613 0.6996 0.0
C75 C 0.79566 0.53551 0.63462 0.0
C76 C 0.70126 0.56947 0.63114 0.0
C77 C 0.73633 0.51738 0.62759 0.0
N78 N 0.79513 0.59518 0.64227 0.0
N79 N 0.73856 0.61513 0.64005 0.0
C80 C 0.85238 0.49784 0.63272 0.0
H81 H 0.89323 0.52698 0.63074 0.0
H82 H 0.85703 0.47034 0.65531 0.0
H83 H 0.85021 0.46637 0.6115 0.0
C84 C 0.94227 0.64274 0.74158 0.0
N85 N 0.93371 0.65949 0.71018 0.0
N86 N 0.88637 0.63011 0.69828 0.0
C87 C 0.86331 0.59381 0.72182 0.0
C88 C 0.8982 0.60033 0.74987 0.0
C89 C 0.99191 0.66675 0.76304 0.0
H90 H 0.03656 0.65516 0.75208 0.0
H91 H 0.98977 0.64723 0.78803 0.0
H92 H 0.9885 0.71708 0.76449 0.0
O93 O 0.91411 0.78214 0.67067 0.0
O94 O 0.83421 0.73307 0.65044 0.0
H95 H 0.78767 0.54427 0.74288 0.0
H96 H 0.81535 0.51565 0.70445 0.0
C97 C 0.80591 0.55758 0.71861 0.0
H98 H 0.77101 0.58454 0.70546 0.0
H99 H 0.72539 0.65996 0.64468 0.0
O100 O 0.03638 0.76183 0.70891 0.0
C101 C 0.86121 0.78251 0.65796 0.0
Co102 Co 0.77122 0.47214 0.9315 0.0
Co103 Co 0.83468 0.35443 0.90515 0.0
C104 C 0.84244 0.47739 0.87076 0.0
O105 O 0.81295 0.50602 0.89272 0.0
O106 O 0.85209 0.42033 0.87307 0.0
C107 C 0.7461 0.59194 0.96085 0.0
O108 O 0.79839 0.61077 0.94901 0.0
C109 C 0.94478 0.28837 0.88735 0.0
C110 C 0.9106 0.1953 0.87849 0.0
C111 C 0.96342 0.23013 0.87801 0.0
N112 N 0.88451 0.28727 0.89289 0.0
N113 N 0.86423 0.23163 0.88746 0.0
C114 C 0.98265 0.34414 0.89271 0.0
H115 H 0.95726 0.37818 0.90741 0.0
H116 H 0.02565 0.3323 0.90546 0.0
H117 H 0.99358 0.36511 0.86874 0.0
C118 C 0.84319 0.43927 0.99069 0.0
N119 N 0.82608 0.42994 0.95941 0.0
N120 N 0.85093 0.37906 0.9488 0.0
C121 C 0.88319 0.3536 0.97331 0.0
C122 C 0.87977 0.39122 1.00045 0.0
C123 C 0.8227 0.49167 0.01129 0.0
H124 H 0.77225 0.49321 0.01171 0.0
H125 H 0.8394 0.53471 1.00032 0.0
H126 H 0.83996 0.488 0.03672 0.0
O127 O 0.70474 0.41692 0.91657 0.0
O128 O 0.74853 0.33034 0.90117 0.0
H129 H 0.88844 0.26107 0.95663 0.0
H130 H 0.92498 0.2746 0.99563 0.0
C131 C 0.91579 0.2939 0.97105 0.0
H132 H 0.96 0.3008 0.95856 0.0
H133 H 0.81881 0.21849 0.88987 0.0
O134 O 0.7291 0.53739 0.95593 0.0
C135 C 0.70116 0.36247 0.90596 0.0
Co136 Co 0.51991 0.21678 0.57027 0.0
Co137 Co 0.63349 0.14777 0.59865 0.0
C138 C 0.51055 0.14904 0.63259 0.0
O139 O 0.48424 0.17925 0.61005 0.0
O140 O 0.56682 0.13553 0.63078 0.0
C141 C 0.40123 0.24388 0.54048 0.0
O142 O 0.38154 0.19236 0.55292 0.0
C143 C 0.69872 0.03607 0.61817 0.0
C144 C 0.79327 0.0694 0.62205 0.0
C145 C 0.75782 0.01749 0.62533 0.0
N146 N 0.6997 0.09581 0.61071 0.0
N147 N 0.75636 0.11538 0.61314 0.0
C148 C 0.64177 0.99873 0.61966 0.0
H149 H 0.63725 0.97182 0.59685 0.0
H150 H 0.64354 0.96672 0.64065 0.0
H151 H 0.60109 0.02815 0.62174 0.0
C152 C 0.55089 0.14151 0.51218 0.0
N153 N 0.5594 0.1583 0.54357 0.0
N154 N 0.60836 0.131 0.55502 0.0
C155 C 0.63321 0.09706 0.53098 0.0
C156 C 0.5973 0.10224 0.50327 0.0
C157 C 0.50159 0.16559 0.49052 0.0
H158 H 0.50323 0.21608 0.49034 0.0
H159 H 0.45679 0.15146 0.5004 0.0
H160 H 0.50615 0.14845 0.4651 0.0
O161 O 0.57883 0.28125 0.58337 0.0
O162 O 0.66065 0.23343 0.60229 0.0
H163 H 0.7264 0.09118 0.54614 0.0
H164 H 0.7089 0.04773 0.50973 0.0
C165 C 0.69163 0.06247 0.53395 0.0
H166 H 0.68401 0.0214 0.54912 0.0
H167 H 0.76984 0.1602 0.60872 0.0
O168 O 0.45609 0.26003 0.54518 0.0
C169 C 0.63238 0.28241 0.59537 0.0
Co170 Co 0.27059 0.02199 0.82106 0.0
Co171 Co 0.33512 0.13883 0.84785 0.0
C172 C 0.34252 0.01585 0.88183 0.0
O173 O 0.31279 0.9876 0.85979 0.0
O174 O 0.35235 0.07287 0.87972 0.0
C175 C 0.24532 0.90221 0.79183 0.0
O176 O 0.29741 0.88339 0.80395 0.0
C177 C 0.44486 0.20495 0.86633 0.0
C178 C 0.41051 0.29816 0.87458 0.0
C179 C 0.46331 0.26334 0.87553 0.0
N180 N 0.3847 0.20598 0.8604 0.0
N181 N 0.36432 0.2617 0.8655 0.0
C182 C 0.48284 0.1491 0.86143 0.0
H183 H 0.45773 0.11483 0.84674 0.0
H184 H 0.52607 0.16074 0.84888 0.0
H185 H 0.49334 0.12851 0.88556 0.0
C186 C 0.34183 0.05572 0.76174 0.0
N187 N 0.32508 0.06467 0.79311 0.0
N188 N 0.35201 0.11408 0.80426 0.0
C189 C 0.38652 0.13816 0.78026 0.0
C190 C 0.38153 0.10179 0.7527 0.0
C191 C 0.32126 0.00332 0.74115 0.0
H192 H 0.27081 0.00272 0.74009 0.0
H193 H 0.3366 0.96021 0.75261 0.0
H194 H 0.33983 0.00589 0.71597 0.0
O195 O 0.20434 0.07682 0.83631 0.0
O196 O 0.24876 0.16302 0.85179 0.0
H197 H 0.39452 0.23019 0.79754 0.0
H198 H 0.42932 0.21661 0.75816 0.0
C199 C 0.42063 0.19698 0.78273 0.0
H200 H 0.4651 0.1887 0.79472 0.0
H201 H 0.31897 0.27483 0.86272 0.0
O202 O 0.2284 0.95687 0.7965 0.0
C203 C 0.20115 0.13118 0.84706 0.0
Co204 Co 0.47327 0.77448 0.06909 0.0
Co205 Co 0.36245 0.84706 0.09792 0.0
C206 C 0.48499 0.84328 0.13148 0.0
O207 O 0.50909 0.81011 0.10943 0.0
O208 O 0.42964 0.86009 0.12958 0.0
C209 C 0.59196 0.74656 0.03996 0.0
O210 O 0.61195 0.79739 0.05307 0.0
C211 C 0.29719 0.95891 0.11754 0.0
C212 C 0.20267 0.9253 0.12103 0.0
C213 C 0.23796 0.97726 0.12453 0.0
N214 N 0.29643 0.8992 0.10998 0.0
N215 N 0.23979 0.87948 0.11217 0.0
C216 C 0.354 0.99643 0.11944 0.0
H217 H 0.39482 0.96714 0.12115 0.0
H218 H 0.35837 0.02436 0.09699 0.0
H219 H 0.35208 0.02757 0.1408 0.0
C220 C 0.44325 0.85014 0.01095 0.0
N221 N 0.4348 0.83386 0.04243 0.0
N222 N 0.38773 0.86372 0.05428 0.0
C223 C 0.36478 0.8999 0.03064 0.0
C224 C 0.39942 0.89277 0.00257 0.0
C225 C 0.4923 0.82523 0.98941 0.0
H226 H 0.48874 0.77486 0.9885 0.0
H227 H 0.53724 0.8371 0.99995 0.0
H228 H 0.48957 0.84386 0.96424 0.0
O229 O 0.41358 0.71118 0.08156 0.0
O230 O 0.33423 0.76109 0.1018 0.0
H231 H 0.27244 0.9096 0.04682 0.0
H232 H 0.28948 0.94985 0.00945 0.0
C233 C 0.30753 0.93641 0.03375 0.0
H234 H 0.3171 0.97828 0.04795 0.0
H235 H 0.22646 0.83467 0.10761 0.0
O236 O 0.53678 0.73095 0.04404 0.0
C237 C 0.3606 0.71138 0.09416 0.0
Co238 Co 0.72217 0.97104 0.32029 0.0
Co239 Co 0.65243 0.85776 0.34848 0.0
C240 C 0.65215 0.98092 0.38201 0.0
O241 O 0.68484 0.00622 0.36017 0.0
O242 O 0.63727 0.92501 0.37998 0.0
C243 C 0.74821 0.08985 0.29073 0.0
O244 O 0.69592 0.10861 0.3026 0.0
C245 C 0.54128 0.79133 0.36756 0.0
C246 C 0.57527 0.69692 0.37118 0.0
C247 C 0.52312 0.73197 0.37449 0.0
N248 N 0.60102 0.79088 0.3602 0.0
N249 N 0.621 0.7343 0.36247 0.0
C250 C 0.50348 0.84803 0.36914 0.0
H251 H 0.53241 0.88901 0.37116 0.0
H252 H 0.47646 0.85242 0.34636 0.0
H253 H 0.47165 0.846 0.39019 0.0
C254 C 0.64774 0.93986 0.26185 0.0
N255 N 0.66421 0.93127 0.29329 0.0
N256 N 0.63686 0.88222 0.30459 0.0
C257 C 0.60316 0.85743 0.28043 0.0
C258 C 0.60863 0.89342 0.25275 0.0
C259 C 0.6718 0.98941 0.24035 0.0
H260 H 0.72226 0.98853 0.24066 0.0
H261 H 0.65663 0.03408 0.25001 0.0
H262 H 0.65559 0.98444 0.21478 0.0
O263 O 0.78649 0.91274 0.33347 0.0
O264 O 0.73858 0.83173 0.35327 0.0
H265 H 0.59605 0.76429 0.29558 0.0
H266 H 0.55283 0.78235 0.25917 0.0
C267 C 0.56782 0.79945 0.2834 0.0
H268 H 0.5269 0.80764 0.29857 0.0
H269 H 0.66591 0.7212 0.35808 0.0
O270 O 0.76522 0.03529 0.2956 0.0
C271 C 0.78758 0.85975 0.34611 0.0
C272 C 0.10265 0.48456 0.28328 0.0
C273 C 0.10617 0.42105 0.28107 0.0
H274 H 0.11302 0.56313 0.3135 0.0
C275 C 0.12207 0.38697 0.30881 0.0
H276 H 0.09054 0.51153 0.26206 0.0
C277 C 0.13586 0.41636 0.33828 0.0
C278 C 0.13311 0.48024 0.34049 0.0
H279 H 0.12533 0.33781 0.30741 0.0
H280 H 0.14924 0.38918 0.35919 0.0
C281 C 0.11542 0.51388 0.31276 0.0
C282 C 0.99927 0.58522 0.57139 0.0
C283 C 0.02028 0.63168 0.59226 0.0
H284 H 0.01198 0.53735 0.52611 0.0
C285 C 0.07322 0.66395 0.58365 0.0
H286 H 0.95882 0.55933 0.57738 0.0
C287 C 0.10295 0.65168 0.55414 0.0
C288 C 0.08078 0.60643 0.53311 0.0
H289 H 0.09042 0.70011 0.59911 0.0
H290 H 0.14256 0.67826 0.54741 0.0
C291 C 0.02956 0.57248 0.54214 0.0
C292 C 0.87805 0.47625 0.81266 0.0
C293 C 0.8619 0.50965 0.84072 0.0
H294 H 0.90154 0.47929 0.76177 0.0
C295 C 0.86102 0.57365 0.83902 0.0
H296 H 0.87897 0.42694 0.81304 0.0
C297 C 0.87478 0.60343 0.80967 0.0
C298 C 0.88884 0.56968 0.78155 0.0
H299 H 0.84882 0.60067 0.86018 0.0
H300 H 0.87271 0.65268 0.80867 0.0
C301 C 0.89082 0.50602 0.78329 0.0
C302 C 0.95963 0.41751 0.04118 0.0
C303 C 0.90913 0.38218 0.03244 0.0
H304 H 0.03046 0.43289 0.07616 0.0
C305 C 0.88832 0.33673 0.05373 0.0
H306 H 0.97609 0.4529 0.02498 0.0
C307 C 0.91868 0.32566 0.08319 0.0
C308 C 0.97091 0.35935 0.09152 0.0
H309 H 0.8492 0.3092 0.04728 0.0
H310 H 0.90251 0.28934 0.09886 0.0
C311 C 0.99058 0.40595 0.07039 0.0
C312 C 0.57393 0.02373 0.46128 0.0
C313 C 0.60804 0.07441 0.47105 0.0
H314 H 0.56116 0.9542 0.42524 0.0
C315 C 0.65403 0.09684 0.45061 0.0
H316 H 0.53816 0.00603 0.47683 0.0
C317 C 0.6668 0.06795 0.42092 0.0
C318 C 0.6343 0.01559 0.41153 0.0
H319 H 0.68072 0.13605 0.45791 0.0
H320 H 0.70352 0.08533 0.40592 0.0
C321 C 0.5872 0.99424 0.43184 0.0
C322 C 0.38131 0.12221 0.69253 0.0
C323 C 0.41361 0.10978 0.72135 0.0
H324 H 0.38674 0.1449 0.64158 0.0
C325 C 0.47728 0.10776 0.72061 0.0
H326 H 0.33204 0.12423 0.69278 0.0
C327 C 0.50851 0.11849 0.69146 0.0
C328 C 0.4766 0.13276 0.66262 0.0
H329 H 0.50289 0.09833 0.74269 0.0
H330 H 0.55779 0.11735 0.6918 0.0
C331 C 0.41258 0.13413 0.66339 0.0
C332 C 0.37454 0.8895 0.94289 0.0
C333 C 0.39002 0.9232 0.97083 0.0
H334 H 0.34707 0.89239 0.89258 0.0
C335 C 0.39301 0.98679 0.96894 0.0
H336 H 0.37165 0.84029 0.94403 0.0
C337 C 0.37982 0.01656 0.93963 0.0
C338 C 0.36223 0.98329 0.91176 0.0
H339 H 0.40477 0.01349 0.99032 0.0
H340 H 0.38158 0.06585 0.93917 0.0
C341 C 0.36037 0.91932 0.91359 0.0
C342 C 0.60067 0.83657 0.20014 0.0
C343 C 0.58017 0.8835 0.22059 0.0
H344 H 0.58717 0.7876 0.1554 0.0
C345 C 0.53091 0.91962 0.21081 0.0
H346 H 0.6388 0.80836 0.20741 0.0
C347 C 0.50089 0.90752 0.18138 0.0
C348 C 0.52032 0.8596 0.16104 0.0
H349 H 0.5147 0.95614 0.22636 0.0
H350 H 0.46194 0.93517 0.17478 0.0
C351 C 0.57129 0.82498 0.17043 0.0
C352 C 0.1631 0.04162 0.15454 0.0
C353 C 0.21437 0.03799 0.13415 0.0
H354 H 0.09764 0.09869 0.17799 0.0
C355 C 0.2397 0.09221 0.1219 0.0
H356 H 0.14238 0.00075 0.16435 0.0
C357 C 0.21426 0.14875 0.12993 0.0
C358 C 0.16241 0.15214 0.14998 0.0
H359 H 0.27767 0.09129 0.10515 0.0
H360 H 0.23418 0.18961 0.11967 0.0
C361 C 0.13748 0.09789 0.16239 0.0
C362 C 0.40836 0.73474 0.37196 0.0
C363 C 0.46228 0.7083 0.38386 0.0
H364 H 0.31102 0.73167 0.37045 0.0
C365 C 0.45804 0.65646 0.40389 0.0
H366 H 0.40955 0.77284 0.3553 0.0
C367 C 0.40137 0.63184 0.41198 0.0
C368 C 0.34748 0.65856 0.40026 0.0
H369 H 0.49867 0.63473 0.41334 0.0
H370 H 0.39989 0.5917 0.42735 0.0
C371 C 0.35161 0.71055 0.38034 0.0
C372 C 0.83234 0.95252 0.65535 0.0
C373 C 0.78109 0.95657 0.63492 0.0
H374 H 0.89723 0.89488 0.67891 0.0
C375 C 0.75534 0.90252 0.62268 0.0
H376 H 0.85341 0.99323 0.66514 0.0
C377 C 0.78021 0.84579 0.63082 0.0
C378 C 0.83196 0.84195 0.65094 0.0
H379 H 0.71743 0.90372 0.60588 0.0
H380 H 0.7599 0.80508 0.62057 0.0
C381 C 0.85743 0.89602 0.66328 0.0
C382 C 0.53563 0.35057 0.88155 0.0
C383 C 0.52489 0.28746 0.88362 0.0
H384 H 0.59932 0.42361 0.88714 0.0
C385 C 0.57276 0.24955 0.89411 0.0
H386 H 0.50003 0.38149 0.87382 0.0
C387 C 0.63027 0.27374 0.90093 0.0
C388 C 0.64066 0.33663 0.89859 0.0
H389 H 0.56626 0.20144 0.8979 0.0
H390 H 0.66629 0.24334 0.90875 0.0
C391 C 0.59261 0.37488 0.88918 0.0
C392 C 0.71353 0.34585 0.62203 0.0
C393 C 0.66121 0.34206 0.60234 0.0
H394 H 0.77688 0.40351 0.6466 0.0
C395 C 0.63517 0.39615 0.5904 0.0
H396 H 0.73426 0.30513 0.63202 0.0
C397 C 0.66051 0.45265 0.59821 0.0
C398 C 0.7125 0.45659 0.61814 0.0
H399 H 0.59487 0.39497 0.57515 0.0
H400 H 0.63912 0.49342 0.5887 0.0
C401 C 0.73855 0.40249 0.63008 0.0
C402 C 0.09267 0.11878 0.86389 0.0
C403 C 0.14081 0.15712 0.85473 0.0
H404 H 6e-05 0.11197 0.87912 0.0
C405 C 0.13058 0.22009 0.85287 0.0
H406 H 0.09925 0.06998 0.86558 0.0
C407 C 0.07309 0.24425 0.85984 0.0
C408 C 0.0251 0.20617 0.86998 0.0
H409 H 0.16666 0.25059 0.84527 0.0
H410 H 0.06671 0.29246 0.8564 0.0
C411 C 0.03574 0.14301 0.87165 0.0
C412 C 0.27852 0.64886 0.12087 0.0
C413 C 0.33049 0.65225 0.1009 0.0
H414 H 0.21494 0.59145 0.14555 0.0
C415 C 0.35537 0.598 0.08847 0.0
H416 H 0.25861 0.68972 0.13116 0.0
C417 C 0.32962 0.54174 0.09623 0.0
C418 C 0.27826 0.53809 0.11659 0.0
H419 H 0.39528 0.59881 0.07293 0.0
H420 H 0.35034 0.50087 0.08641 0.0
C421 C 0.25295 0.59234 0.12883 0.0
C422 C 0.85151 0.78068 0.37427 0.0
C423 C 0.84729 0.83159 0.35356 0.0
H424 H 0.90979 0.71948 0.4 0.0
C425 C 0.90112 0.85724 0.34109 0.0
H426 H 0.81099 0.76037 0.38468 0.0
C427 C 0.95779 0.83295 0.34936 0.0
C428 C 0.96219 0.78241 0.37028 0.0
H429 H 0.89961 0.89646 0.32505 0.0
H430 H 0.99833 0.85398 0.33937 0.0
C431 C 0.90837 0.7567 0.38277 0.0
C432 C 0.84586 0.11201 0.26202 0.0
C433 C 0.78701 0.13073 0.27092 0.0
H434 H 0.92804 0.13335 0.23676 0.0
C435 C 0.76601 0.18795 0.26037 0.0
H436 H 0.86359 0.06828 0.26975 0.0
C437 C 0.80315 0.22543 0.24111 0.0
C438 C 0.86206 0.2065 0.23231 0.0
H439 H 0.7208 0.20357 0.26677 0.0
H440 H 0.78582 0.26922 0.23325 0.0
C441 C 0.88294 0.14945 0.24308 0.0
C442 C 0.3027 0.26313 0.51075 0.0
C443 C 0.36094 0.28284 0.52035 0.0
H444 H 0.2209 0.28425 0.48438 0.0
C445 C 0.38112 0.34058 0.51029 0.0
H446 H 0.28591 0.2188 0.51804 0.0
C447 C 0.34405 0.37791 0.49124 0.0
C448 C 0.28588 0.35841 0.48153 0.0
H449 H 0.42568 0.3573 0.51723 0.0
H450 H 0.36124 0.42217 0.48408 0.0
C451 C 0.26557 0.30052 0.4914 0.0
C452 C 0.11096 0.84271 0.74377 0.0
C453 C 0.13183 0.78559 0.73309 0.0
H454 H 0.13019 0.9239 0.77045 0.0
C455 C 0.1906 0.76656 0.74212 0.0
H456 H 0.06597 0.85889 0.73728 0.0
C457 C 0.22761 0.804 0.76151 0.0
C458 C 0.20663 0.8613 0.77194 0.0
H459 H 0.20791 0.7227 0.73435 0.0
H460 H 0.27272 0.78829 0.76807 0.0
C461 C 0.14792 0.88012 0.76282 0.0
C462 C 0.64866 0.61355 0.98988 0.0
C463 C 0.70729 0.63264 0.98078 0.0
H464 H 0.56669 0.6343 0.01546 0.0
C465 C 0.72808 0.68995 0.99131 0.0
H466 H 0.63109 0.56974 0.98218 0.0
C467 C 0.69094 0.72715 0.01075 0.0
C468 C 0.63226 0.70783 0.01976 0.0
H469 H 0.77311 0.70586 0.98477 0.0
H470 H 0.70808 0.77103 0.01858 0.0
C471 C 0.6116 0.65069 0.009 0.0
loop_
_geom_bond_atom_site_label_1
_geom_bond_atom_site_label_2
_geom_bond_distance
_geom_bond_site_symmetry_2
_ccdc_geom_bond_type
Co0 O3 1.970 1_455 S
Co0 N17 1.989 . S
Co0 O25 1.967 . S
Co0 O32 1.920 1_455 S
Co1 O4 1.966 . S
Co1 N10 2.022 . S
Co1 N18 1.993 . S
Co1 O26 1.941 . S
C2 O3 1.258 1_455 S
C2 O4 1.263 . S
O3 Co0 1.970 1_655 S
O3 C2 1.258 1_655 S
O4 Co1 1.966 . S
O4 C2 1.263 . S
C5 O6 1.235 . S
C5 O32 1.289 . S
O6 C5 1.235 . S
C7 C9 1.400 . S
C7 N10 1.351 . S
C7 C12 1.501 . S
C8 C9 1.387 . S
C8 N11 1.341 . S
C9 C7 1.400 . S
C9 C8 1.387 . S
N10 Co1 2.022 . S
N10 C7 1.351 . S
N10 N11 1.365 . S
N11 C8 1.341 . S
N11 N10 1.365 . S
N11 H31 0.862 . S
C12 C7 1.501 . S
C12 H13 0.961 . S
C12 H14 0.961 . S
C12 H15 0.960 . S
H13 C12 0.961 . S
H14 C12 0.961 . S
H15 C12 0.960 . S
C16 N17 1.342 . S
C16 C20 1.401 . S
C16 C21 1.499 . S
N17 Co0 1.989 . S
N17 C16 1.342 . S
N17 N18 1.388 . S
N18 Co1 1.993 . S
N18 N17 1.388 . S
N18 C19 1.346 . S
C19 N18 1.346 . S
C19 C20 1.396 . S
C19 C29 1.510 . S
C20 C16 1.401 . S
C20 C19 1.396 . S
C21 C16 1.499 . S
C21 H22 0.959 . S
C21 H23 0.960 1_455 S
C21 H24 0.961 . S
H22 C21 0.959 . S
H23 C21 0.960 1_655 S
H24 C21 0.961 . S
O25 Co0 1.967 . S
O25 C33 1.258 . S
O26 Co1 1.941 . S
O26 C33 1.266 . S
H27 C29 0.959 . S
H28 C29 0.961 . S
C29 C19 1.510 . S
C29 H27 0.959 . S
C29 H28 0.961 . S
C29 H30 0.960 . S
H30 C29 0.960 . S
H31 N11 0.862 . S
O32 Co0 1.920 1_655 S
O32 C5 1.289 . S
C33 O25 1.258 . S
C33 O26 1.266 . S
Co34 O37 1.970 . S
Co34 N51 1.989 . S
Co34 O59 1.967 . S
Co34 O66 1.920 . S
Co35 O38 1.966 . S
Co35 N44 2.022 . S
Co35 N52 1.993 . S
Co35 O60 1.941 . S
C36 O37 1.258 . S
C36 O38 1.263 . S
O37 Co34 1.970 . S
O37 C36 1.258 . S
O38 Co35 1.966 . S
O38 C36 1.263 . S
C39 O40 1.235 . S
C39 O66 1.289 . S
O40 C39 1.235 . S
C41 C43 1.400 . S
C41 N44 1.351 1_655 S
C41 C46 1.501 . S
C42 C43 1.387 . S
C42 N45 1.341 1_655 S
C43 C41 1.400 . S
C43 C42 1.387 . S
N44 Co35 2.022 . S
N44 C41 1.351 1_455 S
N44 N45 1.365 . S
N45 C42 1.341 1_455 S
N45 N44 1.365 . S
N45 H65 0.862 . S
C46 C41 1.501 . S
C46 H47 0.961 1_655 S
C46 H48 0.961 . S
C46 H49 0.960 . S
H47 C46 0.961 1_455 S
H48 C46 0.961 . S
H49 C46 0.960 . S
C50 N51 1.342 . S
C50 C54 1.401 . S
C50 C55 1.499 . S
N51 Co34 1.989 . S
N51 C50 1.342 . S
N51 N52 1.388 . S
N52 Co35 1.993 . S
N52 N51 1.388 . S
N52 C53 1.346 . S
C53 N52 1.346 . S
C53 C54 1.396 . S
C53 C63 1.510 . S
C54 C50 1.401 . S
C54 C53 1.396 . S
C55 C50 1.499 . S
C55 H56 0.959 . S
C55 H57 0.960 . S
C55 H58 0.961 . S
H56 C55 0.959 . S
H57 C55 0.960 . S
H58 C55 0.961 . S
O59 Co34 1.967 . S
O59 C67 1.258 . S
O60 Co35 1.941 . S
O60 C67 1.266 . S
H61 C63 0.959 . S
H62 C63 0.961 1_655 S
C63 C53 1.510 . S
C63 H61 0.959 . S
C63 H62 0.961 1_455 S
C63 H64 0.960 . S
H64 C63 0.960 . S
H65 N45 0.862 . S
O66 Co34 1.920 . S
O66 C39 1.289 . S
C67 O59 1.258 . S
C67 O60 1.266 . S
Co68 O71 1.970 . S
Co68 N85 1.989 . S
Co68 O93 1.967 . S
Co68 O100 1.920 1_655 S
Co69 O72 1.966 . S
Co69 N78 2.022 . S
Co69 N86 1.993 . S
Co69 O94 1.941 . S
C70 O71 1.258 . S
C70 O72 1.263 . S
O71 Co68 1.970 . S
O71 C70 1.258 . S
O72 Co69 1.966 . S
O72 C70 1.263 . S
C73 O74 1.235 . S
C73 O100 1.289 . S
O74 C73 1.235 . S
C75 C77 1.400 . S
C75 N78 1.351 . S
C75 C80 1.501 . S
C76 C77 1.387 . S
C76 N79 1.341 . S
C77 C75 1.400 . S
C77 C76 1.387 . S
N78 Co69 2.022 . S
N78 C75 1.351 . S
N78 N79 1.365 . S
N79 C76 1.341 . S
N79 N78 1.365 . S
N79 H99 0.862 . S
C80 C75 1.501 . S
C80 H81 0.961 . S
C80 H82 0.961 . S
C80 H83 0.960 . S
H81 C80 0.961 . S
H82 C80 0.961 . S
H83 C80 0.960 . S
C84 N85 1.342 . S
C84 C88 1.401 . S
C84 C89 1.499 . S
N85 Co68 1.989 . S
N85 C84 1.342 . S
N85 N86 1.388 . S
N86 Co69 1.993 . S
N86 N85 1.388 . S
N86 C87 1.346 . S
C87 N86 1.346 . S
C87 C88 1.396 . S
C87 C97 1.510 . S
C88 C84 1.401 . S
C88 C87 1.396 . S
C89 C84 1.499 . S
C89 H90 0.959 . S
C89 H91 0.960 . S
C89 H92 0.961 . S
H90 C89 0.959 . S
H91 C89 0.960 . S
H92 C89 0.961 . S
O93 Co68 1.967 . S
O93 C101 1.258 . S
O94 Co69 1.941 . S
O94 C101 1.266 . S
H95 C97 0.959 . S
H96 C97 0.961 . S
C97 C87 1.510 . S
C97 H95 0.959 . S
C97 H96 0.961 . S
C97 H98 0.960 . S
H98 C97 0.960 . S
H99 N79 0.862 . S
O100 Co68 1.920 1_455 S
O100 C73 1.289 . S
C101 O93 1.258 . S
C101 O94 1.266 . S
Co102 O105 1.970 . S
Co102 N119 1.989 . S
Co102 O127 1.967 . S
Co102 O134 1.920 . S
Co103 O106 1.966 . S
Co103 N112 2.022 . S
Co103 N120 1.993 . S
Co103 O128 1.941 . S
C104 O105 1.258 . S
C104 O106 1.263 . S
O105 Co102 1.970 . S
O105 C104 1.258 . S
O106 Co103 1.966 . S
O106 C104 1.263 . S
C107 O108 1.235 . S
C107 O134 1.289 . S
O108 C107 1.235 . S
C109 C111 1.400 1_655 S
C109 N112 1.351 . S
C109 C114 1.501 1_655 S
C110 C111 1.387 . S
C110 N113 1.341 1_455 S
C111 C109 1.400 1_455 S
C111 C110 1.387 . S
N112 Co103 2.022 . S
N112 C109 1.351 . S
N112 N113 1.365 . S
N113 C110 1.341 1_655 S
N113 N112 1.365 . S
N113 H133 0.862 . S
C114 C109 1.501 1_455 S
C114 H115 0.961 1_455 S
C114 H116 0.961 . S
C114 H117 0.960 . S
H115 C114 0.961 1_655 S
H116 C114 0.961 . S
H117 C114 0.960 . S
C118 N119 1.342 1_554 S
C118 C122 1.401 . S
C118 C123 1.499 . S
N119 Co102 1.989 . S
N119 C118 1.342 1_556 S
N119 N120 1.388 . S
N120 Co103 1.993 . S
N120 N119 1.388 . S
N120 C121 1.346 . S
C121 N120 1.346 . S
C121 C122 1.396 1_556 S
C121 C131 1.510 . S
C122 C118 1.401 . S
C122 C121 1.396 1_554 S
C123 C118 1.499 . S
C123 H124 0.959 . S
C123 H125 0.960 . S
C123 H126 0.961 . S
H124 C123 0.959 . S
H125 C123 0.960 . S
H126 C123 0.961 . S
O127 Co102 1.967 . S
O127 C135 1.258 . S
O128 Co103 1.941 . S
O128 C135 1.266 . S
H129 C131 0.959 . S
H130 C131 0.961 1_455 S
C131 C121 1.510 . S
C131 H129 0.959 . S
C131 H130 0.961 1_655 S
C131 H132 0.960 . S
H132 C131 0.960 . S
H133 N113 0.862 . S
O134 Co102 1.920 . S
O134 C107 1.289 . S
C135 O127 1.258 . S
C135 O128 1.266 . S
Co136 O139 1.970 . S
Co136 N153 1.989 . S
Co136 O161 1.967 . S
Co136 O168 1.920 . S
Co137 O140 1.966 . S
Co137 N146 2.022 . S
Co137 N154 1.993 . S
Co137 O162 1.941 . S
C138 O139 1.258 . S
C138 O140 1.263 . S
O139 Co136 1.970 . S
O139 C138 1.258 . S
O140 Co137 1.966 . S
O140 C138 1.263 . S
C141 O142 1.235 . S
C141 O168 1.289 . S
O142 C141 1.235 . S
C143 C145 1.400 . S
C143 N146 1.351 1_565 S
C143 C148 1.501 . S
C144 C145 1.387 . S
C144 N147 1.341 1_565 S
C145 C143 1.400 . S
C145 C144 1.387 . S
N146 Co137 2.022 . S
N146 C143 1.351 1_545 S
N146 N147 1.365 . S
N147 C144 1.341 1_545 S
N147 N146 1.365 . S
N147 H167 0.862 . S
C148 C143 1.501 . S
C148 H149 0.961 1_565 S
C148 H150 0.961 . S
C148 H151 0.960 . S
H149 C148 0.961 1_545 S
H150 C148 0.961 . S
H151 C148 0.960 . S
C152 N153 1.342 . S
C152 C156 1.401 . S
C152 C157 1.499 . S
N153 Co136 1.989 . S
N153 C152 1.342 . S
N153 N154 1.388 . S
N154 Co137 1.993 . S
N154 N153 1.388 . S
N154 C155 1.346 . S
C155 N154 1.346 . S
C155 C156 1.396 . S
C155 C165 1.510 . S
C156 C152 1.401 . S
C156 C155 1.396 . S
C157 C152 1.499 . S
C157 H158 0.959 . S
C157 H159 0.960 . S
C157 H160 0.961 . S
H158 C157 0.959 . S
H159 C157 0.960 . S
H160 C157 0.961 . S
O161 Co136 1.967 . S
O161 C169 1.258 . S
O162 Co137 1.941 . S
O162 C169 1.266 . S
H163 C165 0.959 . S
H164 C165 0.961 1_565 S
C165 C155 1.510 . S
C165 H163 0.959 . S
C165 H164 0.961 1_545 S
C165 H166 0.960 . S
H166 C165 0.960 . S
H167 N147 0.862 . S
O168 Co136 1.920 . S
O168 C141 1.289 . S
C169 O161 1.258 . S
C169 O162 1.266 . S
Co170 O173 1.970 1_545 S
Co170 N187 1.989 . S
Co170 O195 1.967 . S
Co170 O202 1.920 1_545 S
Co171 O174 1.966 . S
Co171 N180 2.022 . S
Co171 N188 1.993 . S
Co171 O196 1.941 . S
C172 O173 1.258 1_545 S
C172 O174 1.263 . S
O173 Co170 1.970 1_565 S
O173 C172 1.258 1_565 S
O174 Co171 1.966 . S
O174 C172 1.263 . S
C175 O176 1.235 . S
C175 O202 1.289 . S
O176 C175 1.235 . S
C177 C179 1.400 . S
C177 N180 1.351 . S
C177 C182 1.501 . S
C178 C179 1.387 . S
C178 N181 1.341 . S
C179 C177 1.400 . S
C179 C178 1.387 . S
N180 Co171 2.022 . S
N180 C177 1.351 . S
N180 N181 1.365 . S
N181 C178 1.341 . S
N181 N180 1.365 . S
N181 H201 0.862 . S
C182 C177 1.501 . S
C182 H183 0.961 . S
C182 H184 0.961 . S
C182 H185 0.960 . S
H183 C182 0.961 . S
H184 C182 0.961 . S
H185 C182 0.960 . S
C186 N187 1.342 . S
C186 C190 1.401 . S
C186 C191 1.499 . S
N187 Co170 1.989 . S
N187 C186 1.342 . S
N187 N188 1.388 . S
N188 Co171 1.993 . S
N188 N187 1.388 . S
N188 C189 1.346 . S
C189 N188 1.346 . S
C189 C190 1.396 . S
C189 C199 1.510 . S
C190 C186 1.401 . S
C190 C189 1.396 . S
C191 C186 1.499 . S
C191 H192 0.959 . S
C191 H193 0.960 1_545 S
C191 H194 0.961 . S
H192 C191 0.959 . S
H193 C191 0.960 1_565 S
H194 C191 0.961 . S
O195 Co170 1.967 . S
O195 C203 1.258 . S
O196 Co171 1.941 . S
O196 C203 1.266 . S
H197 C199 0.959 . S
H198 C199 0.961 . S
C199 C189 1.510 . S
C199 H197 0.959 . S
C199 H198 0.961 . S
C199 H200 0.960 . S
H200 C199 0.960 . S
H201 N181 0.862 . S
O202 Co170 1.920 1_565 S
O202 C175 1.289 . S
C203 O195 1.258 . S
C203 O196 1.266 . S
Co204 O207 1.970 . S
Co204 N221 1.989 . S
Co204 O229 1.967 . S
Co204 O236 1.920 . S
Co205 O208 1.966 . S
Co205 N214 2.022 . S
Co205 N222 1.993 . S
Co205 O230 1.941 . S
C206 O207 1.258 . S
C206 O208 1.263 . S
O207 Co204 1.970 . S
O207 C206 1.258 . S
O208 Co205 1.966 . S
O208 C206 1.263 . S
C209 O210 1.235 . S
C209 O236 1.289 . S
O210 C209 1.235 . S
C211 C213 1.400 1_565 S
C211 N214 1.351 . S
C211 C216 1.501 1_565 S
C212 C213 1.387 . S
C212 N215 1.341 1_545 S
C213 C211 1.400 1_545 S
C213 C212 1.387 . S
N214 Co205 2.022 . S
N214 C211 1.351 . S
N214 N215 1.365 . S
N215 C212 1.341 1_565 S
N215 N214 1.365 . S
N215 H235 0.862 . S
C216 C211 1.501 1_545 S
C216 H217 0.961 1_545 S
C216 H218 0.961 . S
C216 H219 0.960 . S
H217 C216 0.961 1_565 S
H218 C216 0.961 . S
H219 C216 0.960 . S
C220 N221 1.342 1_556 S
C220 C224 1.401 . S
C220 C225 1.499 . S
N221 Co204 1.989 . S
N221 C220 1.342 1_554 S
N221 N222 1.388 . S
N222 Co205 1.993 . S
N222 N221 1.388 . S
N222 C223 1.346 . S
C223 N222 1.346 . S
C223 C224 1.396 1_554 S
C223 C233 1.510 . S
C224 C220 1.401 . S
C224 C223 1.396 1_556 S
C225 C220 1.499 . S
C225 H226 0.959 . S
C225 H227 0.960 . S
C225 H228 0.961 . S
H226 C225 0.959 . S
H227 C225 0.960 . S
H228 C225 0.961 . S
O229 Co204 1.967 . S
O229 C237 1.258 . S
O230 Co205 1.941 . S
O230 C237 1.266 . S
H231 C233 0.959 . S
H232 C233 0.961 1_545 S
C233 C223 1.510 . S
C233 H231 0.959 . S
C233 H232 0.961 1_565 S
C233 H234 0.960 . S
H234 C233 0.960 . S
H235 N215 0.862 . S
O236 Co204 1.920 . S
O236 C209 1.289 . S
C237 O229 1.258 . S
C237 O230 1.266 . S
Co238 O241 1.970 . S
Co238 N255 1.989 . S
Co238 O263 1.967 . S
Co238 O270 1.920 1_565 S
Co239 O242 1.966 . S
Co239 N248 2.022 . S
Co239 N256 1.993 . S
Co239 O264 1.941 . S
C240 O241 1.258 . S
C240 O242 1.263 . S
O241 Co238 1.970 . S
O241 C240 1.258 . S
O242 Co239 1.966 . S
O242 C240 1.263 . S
C243 O244 1.235 . S
C243 O270 1.289 . S
O244 C243 1.235 . S
C245 C247 1.400 . S
C245 N248 1.351 . S
C245 C250 1.501 . S
C246 C247 1.387 . S
C246 N249 1.341 . S
C247 C245 1.400 . S
C247 C246 1.387 . S
N248 Co239 2.022 . S
N248 C245 1.351 . S
N248 N249 1.365 . S
N249 C246 1.341 . S
N249 N248 1.365 . S
N249 H269 0.862 . S
C250 C245 1.501 . S
C250 H251 0.961 . S
C250 H252 0.961 . S
C250 H253 0.960 . S
H251 C250 0.961 . S
H252 C250 0.961 . S
H253 C250 0.960 . S
C254 N255 1.342 . S
C254 C258 1.401 . S
C254 C259 1.499 . S
N255 Co238 1.989 . S
N255 C254 1.342 . S
N255 N256 1.388 . S
N256 Co239 1.993 . S
N256 N255 1.388 . S
N256 C257 1.346 . S
C257 N256 1.346 . S
C257 C258 1.396 . S
C257 C267 1.510 . S
C258 C254 1.401 . S
C258 C257 1.396 . S
C259 C254 1.499 . S
C259 H260 0.959 . S
C259 H261 0.960 . S
C259 H262 0.961 . S
H260 C259 0.959 . S
H261 C259 0.960 . S
H262 C259 0.961 . S
O263 Co238 1.967 . S
O263 C271 1.258 . S
O264 Co239 1.941 . S
O264 C271 1.266 . S
H265 C267 0.959 . S
H266 C267 0.961 . S
C267 C257 1.510 . S
C267 H265 0.959 . S
C267 H266 0.961 . S
C267 H268 0.960 . S
H268 C267 0.960 . S
H269 N249 0.862 . S
O270 Co238 1.920 1_545 S
O270 C243 1.289 . S
C271 O263 1.258 . S
C271 O264 1.266 . S
C272 C273 1.387 . S
C272 H276 0.950 . S
C272 C281 1.390 . S
C273 C272 1.387 . S
C273 C275 1.387 . S
H274 C281 0.950 . S
C275 C273 1.387 . S
C275 C277 1.390 . S
C275 H279 0.950 . S
H276 C272 0.950 . S
C277 C275 1.390 . S
C277 C278 1.387 . S
C277 H280 0.950 . S
C278 C277 1.387 . S
C278 C281 1.387 . S
H279 C275 0.950 . S
H280 C277 0.950 . S
C281 C272 1.390 . S
C281 H274 0.950 . S
C281 C278 1.387 . S
C282 C283 1.389 . S
C282 H286 0.950 1_455 S
C282 C291 1.390 . S
C283 C282 1.389 . S
C283 C285 1.395 . S
H284 C291 0.950 . S
C285 C283 1.395 . S
C285 C287 1.390 . S
C285 H289 0.950 . S
H286 C282 0.950 1_655 S
C287 C285 1.390 . S
C287 C288 1.387 . S
C287 H290 0.950 . S
C288 C287 1.387 . S
C288 C291 1.387 . S
H289 C285 0.950 . S
H290 C287 0.950 . S
C291 C282 1.390 . S
C291 H284 0.950 . S
C291 C288 1.387 . S
C292 C293 1.387 . S
C292 H296 0.950 . S
C292 C301 1.390 . S
C293 C292 1.387 . S
C293 C295 1.387 . S
H294 C301 0.950 . S
C295 C293 1.387 . S
C295 C297 1.390 . S
C295 H299 0.950 . S
H296 C292 0.950 . S
C297 C295 1.390 . S
C297 C298 1.387 . S
C297 H300 0.950 . S
C298 C297 1.387 . S
C298 C301 1.387 . S
H299 C295 0.950 . S
H300 C297 0.950 . S
C301 C292 1.390 . S
C301 H294 0.950 . S
C301 C298 1.387 . S
C302 C303 1.387 . S
C302 H306 0.950 . S
C302 C311 1.390 . S
C303 C302 1.387 . S
C303 C305 1.387 . S
H304 C311 0.950 . S
C305 C303 1.387 . S
C305 C307 1.390 . S
C305 H309 0.950 . S
H306 C302 0.950 . S
C307 C305 1.390 . S
C307 C308 1.387 . S
C307 H310 0.950 . S
C308 C307 1.387 . S
C308 C311 1.387 . S
H309 C305 0.950 . S
H310 C307 0.950 . S
C311 C302 1.390 . S
C311 H304 0.950 . S
C311 C308 1.387 . S
C312 C313 1.387 . S
C312 H316 0.950 . S
C312 C321 1.390 . S
C313 C312 1.387 . S
C313 C315 1.387 . S
H314 C321 0.950 . S
C315 C313 1.387 . S
C315 C317 1.390 . S
C315 H319 0.950 . S
H316 C312 0.950 . S
C317 C315 1.390 . S
C317 C318 1.388 . S
C317 H320 0.950 1_545 S
C318 C317 1.388 . S
C318 C321 1.396 . S
H319 C315 0.950 . S
H320 C317 0.950 1_565 S
C321 C312 1.390 . S
C321 H314 0.950 . S
C321 C318 1.396 . S
C322 C323 1.387 . S
C322 H326 0.950 . S
C322 C331 1.390 . S
C323 C322 1.387 . S
C323 C325 1.387 . S
H324 C331 0.950 . S
C325 C323 1.387 . S
C325 C327 1.390 . S
C325 H329 0.950 . S
H326 C322 0.950 . S
C327 C325 1.390 . S
C327 C328 1.387 . S
C327 H330 0.950 . S
C328 C327 1.387 . S
C328 C331 1.387 . S
H329 C325 0.950 . S
H330 C327 0.950 . S
C331 C322 1.390 . S
C331 H324 0.950 . S
C331 C328 1.387 . S
C332 C333 1.387 . S
C332 H336 0.950 . S
C332 C341 1.390 . S
C333 C332 1.387 . S
C333 C335 1.387 . S
H334 C341 0.950 . S
C335 C333 1.387 . S
C335 C337 1.390 1_565 S
C335 H339 0.950 1_565 S
H336 C332 0.950 . S
C337 C335 1.390 1_545 S
C337 C338 1.387 1_545 S
C337 H340 0.950 . S
C338 C337 1.387 1_565 S
C338 C341 1.387 . S
H339 C335 0.950 1_545 S
H340 C337 0.950 . S
C341 C332 1.390 . S
C341 H334 0.950 . S
C341 C338 1.387 . S
C342 C343 1.387 . S
C342 H346 0.950 . S
C342 C351 1.390 . S
C343 C342 1.387 . S
C343 C345 1.387 . S
H344 C351 0.950 . S
C345 C343 1.387 . S
C345 C347 1.390 . S
C345 H349 0.950 . S
H346 C342 0.950 . S
C347 C345 1.390 . S
C347 C348 1.387 . S
C347 H350 0.950 . S
C348 C347 1.387 . S
C348 C351 1.387 . S
H349 C345 0.950 . S
H350 C347 0.950 . S
C351 C342 1.390 . S
C351 H344 0.950 . S
C351 C348 1.387 . S
C352 C353 1.387 . S
C352 H356 0.950 . S
C352 C361 1.390 . S
C353 C352 1.387 . S
C353 C355 1.387 . S
H354 C361 0.950 . S
C355 C353 1.387 . S
C355 C357 1.390 . S
C355 H359 0.950 . S
H356 C352 0.950 . S
C357 C355 1.390 . S
C357 C358 1.387 . S
C357 H360 0.950 . S
C358 C357 1.387 . S
C358 C361 1.387 . S
H359 C355 0.950 . S
H360 C357 0.950 . S
C361 C352 1.390 . S
C361 H354 0.950 . S
C361 C358 1.387 . S
C362 C363 1.387 . S
C362 H366 0.950 . S
C362 C371 1.390 . S
C363 C362 1.387 . S
C363 C365 1.387 . S
H364 C371 0.950 . S
C365 C363 1.387 . S
C365 C367 1.390 . S
C365 H369 0.950 . S
H366 C362 0.950 . S
C367 C365 1.390 . S
C367 C368 1.387 . S
C367 H370 0.950 . S
C368 C367 1.387 . S
C368 C371 1.387 . S
H369 C365 0.950 . S
H370 C367 0.950 . S
C371 C362 1.390 . S
C371 H364 0.950 . S
C371 C368 1.387 . S
C372 C373 1.387 . S
C372 H376 0.950 . S
C372 C381 1.390 . S
C373 C372 1.387 . S
C373 C375 1.387 . S
H374 C381 0.950 . S
C375 C373 1.387 . S
C375 C377 1.390 . S
C375 H379 0.950 . S
H376 C372 0.950 . S
C377 C375 1.390 . S
C377 C378 1.387 . S
C377 H380 0.950 . S
C378 C377 1.387 . S
C378 C381 1.387 . S
H379 C375 0.950 . S
H380 C377 0.950 . S
C381 C372 1.390 . S
C381 H374 0.950 . S
C381 C378 1.387 . S
C382 C383 1.387 . S
C382 H386 0.950 . S
C382 C391 1.390 . S
C383 C382 1.387 . S
C383 C385 1.387 . S
H384 C391 0.950 . S
C385 C383 1.387 . S
C385 C387 1.390 . S
C385 H389 0.950 . S
H386 C382 0.950 . S
C387 C385 1.390 . S
C387 C388 1.387 . S
C387 H390 0.950 . S
C388 C387 1.387 . S
C388 C391 1.387 . S
H389 C385 0.950 . S
H390 C387 0.950 . S
C391 C382 1.390 . S
C391 H384 0.950 . S
C391 C388 1.387 . S
C392 C393 1.387 . S
C392 H396 0.950 . S
C392 C401 1.390 . S
C393 C392 1.387 . S
C393 C395 1.387 . S
H394 C401 0.950 . S
C395 C393 1.387 . S
C395 C397 1.390 . S
C395 H399 0.950 . S
H396 C392 0.950 . S
C397 C395 1.390 . S
C397 C398 1.387 . S
C397 H400 0.950 . S
C398 C397 1.387 . S
C398 C401 1.387 . S
H399 C395 0.950 . S
H400 C397 0.950 . S
C401 C392 1.390 . S
C401 H394 0.950 . S
C401 C398 1.387 . S
C402 C403 1.387 . S
C402 H406 0.950 . S
C402 C411 1.390 . S
C403 C402 1.387 . S
C403 C405 1.387 . S
H404 C411 0.950 . S
C405 C403 1.387 . S
C405 C407 1.390 . S
C405 H409 0.950 . S
H406 C402 0.950 . S
C407 C405 1.390 . S
C407 C408 1.387 . S
C407 H410 0.950 . S
C408 C407 1.387 . S
C408 C411 1.387 . S
H409 C405 0.950 . S
H410 C407 0.950 . S
C411 C402 1.390 . S
C411 H404 0.950 . S
C411 C408 1.387 . S
C412 C413 1.387 . S
C412 H416 0.950 . S
C412 C421 1.390 . S
C413 C412 1.387 . S
C413 C415 1.387 . S
H414 C421 0.950 . S
C415 C413 1.387 . S
C415 C417 1.390 . S
C415 H419 0.950 . S
H416 C412 0.950 . S
C417 C415 1.390 . S
C417 C418 1.387 . S
C417 H420 0.950 . S
C418 C417 1.387 . S
C418 C421 1.387 . S
H419 C415 0.950 . S
H420 C417 0.950 . S
C421 C412 1.390 . S
C421 H414 0.950 . S
C421 C418 1.387 . S
C422 C423 1.387 . S
C422 H426 0.950 . S
C422 C431 1.390 . S
C423 C422 1.387 . S
C423 C425 1.387 . S
H424 C431 0.950 . S
C425 C423 1.387 . S
C425 C427 1.390 . S
C425 H429 0.950 . S
H426 C422 0.950 . S
C427 C425 1.390 . S
C427 C428 1.387 . S
C427 H430 0.950 . S
C428 C427 1.387 . S
C428 C431 1.387 . S
H429 C425 0.950 . S
H430 C427 0.950 . S
C431 C422 1.390 . S
C431 H424 0.950 . S
C431 C428 1.387 . S
C432 C433 1.387 . S
C432 H436 0.950 . S
C432 C441 1.390 . S
C433 C432 1.387 . S
C433 C435 1.387 . S
H434 C441 0.950 . S
C435 C433 1.387 . S
C435 C437 1.390 . S
C435 H439 0.950 . S
H436 C432 0.950 . S
C437 C435 1.390 . S
C437 C438 1.387 . S
C437 H440 0.950 . S
C438 C437 1.387 . S
C438 C441 1.387 . S
H439 C435 0.950 . S
H440 C437 0.950 . S
C441 C432 1.390 . S
C441 H434 0.950 . S
C441 C438 1.387 . S
C442 C443 1.387 . S
C442 H446 0.950 . S
C442 C451 1.390 . S
C443 C442 1.387 . S
C443 C445 1.387 . S
H444 C451 0.950 . S
C445 C443 1.387 . S
C445 C447 1.390 . S
C445 H449 0.950 . S
H446 C442 0.950 . S
C447 C445 1.390 . S
C447 C448 1.387 . S
C447 H450 0.950 . S
C448 C447 1.387 . S
C448 C451 1.387 . S
H449 C445 0.950 . S
H450 C447 0.950 . S
C451 C442 1.390 . S
C451 H444 0.950 . S
C451 C448 1.387 . S
C452 C453 1.387 . S
C452 H456 0.950 . S
C452 C461 1.390 . S
C453 C452 1.387 . S
C453 C455 1.387 . S
H454 C461 0.950 . S
C455 C453 1.387 . S
C455 C457 1.390 . S
C455 H459 0.950 . S
H456 C452 0.950 . S
C457 C455 1.390 . S
C457 C458 1.387 . S
C457 H460 0.950 . S
C458 C457 1.387 . S
C458 C461 1.387 . S
H459 C455 0.950 . S
H460 C457 0.950 . S
C461 C452 1.390 . S
C461 H454 0.950 . S
C461 C458 1.387 . S
C462 C463 1.387 . S
C462 H466 0.950 . S
C462 C471 1.390 1_556 S
C463 C462 1.387 . S
C463 C465 1.387 . S
H464 C471 0.950 . S
C465 C463 1.387 . S
C465 C467 1.390 1_556 S
C465 H469 0.950 . S
H466 C462 0.950 . S
C467 C465 1.390 1_554 S
C467 C468 1.387 . S
C467 H470 0.950 . S
C468 C467 1.387 . S
C468 C471 1.387 . S
H469 C465 0.950 . S
H470 C467 0.950 . S
C471 C462 1.390 1_554 S
C471 H464 0.950 . S
C471 C468 1.387 . S
C273 C20 1.366 . S
C278 C36 1.367 . S
C283 C70 1.359 1_455 S
C288 C54 1.365 . S
C293 C104 1.367 . S
C298 C88 1.366 . S
C303 C122 1.365 . S
C308 C2 1.368 1_655 S
C313 C156 1.365 . S
C318 C240 1.359 1_545 S
C323 C190 1.366 . S
C328 C138 1.368 . S
C333 C224 1.366 . S
C338 C172 1.368 1_565 S
C343 C258 1.366 . S
C348 C206 1.368 . S
C353 C213 1.387 . S
C358 C33 1.424 . S
C363 C247 1.388 . S
C368 C67 1.423 . S
C373 C145 1.387 . S
C378 C101 1.424 . S
C383 C179 1.390 . S
C388 C135 1.424 . S
C393 C169 1.423 . S
C398 C77 1.389 . S
C403 C203 1.424 . S
C408 C111 1.390 . S
C413 C237 1.423 . S
C418 C9 1.390 . S
C423 C271 1.423 . S
C428 C43 1.389 . S
C433 C243 1.627 . S
C438 C5 1.627 . S
C443 C141 1.627 . S
C448 C39 1.626 . S
C453 C73 1.626 . S
C458 C175 1.627 . S
C463 C107 1.627 . S
C468 C209 1.627 . S
