# Generated by pormake.
# Topology uoa, (4)-cn, num edge types: 1
# Building blocks:
#     Node 0, Type 0, BuildingBlock: NAWXER_clean_sbu_0, # of connection points: 4
#     Node 1, Type 0, BuildingBlock: NAWXER_clean_sbu_0, # of connection points: 4
#     Node 2, Type 0, BuildingBlock: NAWXER_clean_sbu_0, # of connection points: 4
#     Node 3, Type 0, BuildingBlock: NAWXER_clean_sbu_0, # of connection points: 4
#     Node 4, Type 0, BuildingBlock: NAWXER_clean_sbu_0, # of connection points: 4
#     Node 5, Type 0, BuildingBlock: NAWXER_clean_sbu_0, # of connection points: 4
#     Node 6, Type 0, BuildingBlock: NAWXER_clean_sbu_0, # of connection points: 4
#     Node 7, Type 0, BuildingBlock: NAWXER_clean_sbu_0, # of connection points: 4
#     Node 8, Type 0, BuildingBlock: NAWXER_clean_sbu_0, # of connection points: 4
#     Node 9, Type 0, BuildingBlock: NAWXER_clean_sbu_0, # of connection points: 4
#     Node 10, Type 0, BuildingBlock: NAWXER_clean_sbu_0, # of connection points: 4
#     Node 11, Type 0, BuildingBlock: NAWXER_clean_sbu_0, # of connection points: 4
#     Node 12, Type 0, BuildingBlock: NAWXER_clean_sbu_0, # of connection points: 4
#     Node 13, Type 0, BuildingBlock: NAWXER_clean_sbu_0, # of connection points: 4
#     Node 14, Type 0, BuildingBlock: NAWXER_clean_sbu_0, # of connection points: 4
#     Node 15, Type 0, BuildingBlock: NAWXER_clean_sbu_0, # of connection points: 4
#     Node 16, Type 0, BuildingBlock: NAWXER_clean_sbu_0, # of connection points: 4
#     Node 17, Type 0, BuildingBlock: NAWXER_clean_sbu_0, # of connection points: 4
#     Node 18, Type 0, BuildingBlock: NAWXER_clean_sbu_0, # of connection points: 4
#     Node 19, Type 0, BuildingBlock: NAWXER_clean_sbu_0, # of connection points: 4
#     Node 20, Type 0, BuildingBlock: NAWXER_clean_sbu_0, # of connection points: 4
#     Node 21, Type 0, BuildingBlock: NAWXER_clean_sbu_0, # of connection points: 4
#     Node 22, Type 0, BuildingBlock: NAWXER_clean_sbu_0, # of connection points: 4
#     Node 23, Type 0, BuildingBlock: NAWXER_clean_sbu_0, # of connection points: 4
#     Node 24, Type 0, BuildingBlock: NAWXER_clean_sbu_0, # of connection points: 4
#     Node 25, Type 0, BuildingBlock: NAWXER_clean_sbu_0, # of connection points: 4
#     Node 26, Type 0, BuildingBlock: NAWXER_clean_sbu_0, # of connection points: 4
#     Node 27, Type 0, BuildingBlock: NAWXER_clean_sbu_0, # of connection points: 4
#     Node 28, Type 0, BuildingBlock: NAWXER_clean_sbu_0, # of connection points: 4
#     Node 29, Type 0, BuildingBlock: NAWXER_clean_sbu_0, # of connection points: 4
#     Node 30, Type 0, BuildingBlock: NAWXER_clean_sbu_0, # of connection points: 4
#     Node 31, Type 0, BuildingBlock: NAWXER_clean_sbu_0, # of connection points: 4
#     Edge 32, Type (0, 0), BuildingBlock: TEMPAE_clean_linker_10, # of connection points: 2
#     Edge 33, Type (0, 0), BuildingBlock: TEMPAE_clean_linker_10, # of connection points: 2
#     Edge 34, Type (0, 0), BuildingBlock: TEMPAE_clean_linker_10, # of connection points: 2
#     Edge 35, Type (0, 0), BuildingBlock: TEMPAE_clean_linker_10, # of connection points: 2
#     Edge 36, Type (0, 0), BuildingBlock: TEMPAE_clean_linker_10, # of connection points: 2
#     Edge 37, Type (0, 0), BuildingBlock: TEMPAE_clean_linker_10, # of connection points: 2
#     Edge 38, Type (0, 0), BuildingBlock: TEMPAE_clean_linker_10, # of connection points: 2
#     Edge 39, Type (0, 0), BuildingBlock: TEMPAE_clean_linker_10, # of connection points: 2
#     Edge 40, Type (0, 0), BuildingBlock: TEMPAE_clean_linker_10, # of connection points: 2
#     Edge 41, Type (0, 0), BuildingBlock: TEMPAE_clean_linker_10, # of connection points: 2
#     Edge 42, Type (0, 0), BuildingBlock: TEMPAE_clean_linker_10, # of connection points: 2
#     Edge 43, Type (0, 0), BuildingBlock: TEMPAE_clean_linker_10, # of connection points: 2
#     Edge 44, Type (0, 0), BuildingBlock: TEMPAE_clean_linker_10, # of connection points: 2
#     Edge 45, Type (0, 0), BuildingBlock: TEMPAE_clean_linker_10, # of connection points: 2
#     Edge 46, Type (0, 0), BuildingBlock: TEMPAE_clean_linker_10, # of connection points: 2
#     Edge 47, Type (0, 0), BuildingBlock: TEMPAE_clean_linker_10, # of connection points: 2
#     Edge 48, Type (0, 0), BuildingBlock: TEMPAE_clean_linker_10, # of connection points: 2
#     Edge 49, Type (0, 0), BuildingBlock: TEMPAE_clean_linker_10, # of connection points: 2
#     Edge 50, Type (0, 0), BuildingBlock: TEMPAE_clean_linker_10, # of connection points: 2
#     Edge 51, Type (0, 0), BuildingBlock: TEMPAE_clean_linker_10, # of connection points: 2
#     Edge 52, Type (0, 0), BuildingBlock: TEMPAE_clean_linker_10, # of connection points: 2
#     Edge 53, Type (0, 0), BuildingBlock: TEMPAE_clean_linker_10, # of connection points: 2
#     Edge 54, Type (0, 0), BuildingBlock: TEMPAE_clean_linker_10, # of connection points: 2
#     Edge 55, Type (0, 0), BuildingBlock: TEMPAE_clean_linker_10, # of connection points: 2
#     Edge 56, Type (0, 0), BuildingBlock: TEMPAE_clean_linker_10, # of connection points: 2
#     Edge 57, Type (0, 0), BuildingBlock: TEMPAE_clean_linker_10, # of connection points: 2
#     Edge 58, Type (0, 0), BuildingBlock: TEMPAE_clean_linker_10, # of connection points: 2
#     Edge 59, Type (0, 0), BuildingBlock: TEMPAE_clean_linker_10, # of connection points: 2
#     Edge 60, Type (0, 0), BuildingBlock: TEMPAE_clean_linker_10, # of connection points: 2
#     Edge 61, Type (0, 0), BuildingBlock: TEMPAE_clean_linker_10, # of connection points: 2
#     Edge 62, Type (0, 0), BuildingBlock: TEMPAE_clean_linker_10, # of connection points: 2
#     Edge 63, Type (0, 0), BuildingBlock: TEMPAE_clean_linker_10, # of connection points: 2
#     Edge 64, Type (0, 0), BuildingBlock: TEMPAE_clean_linker_10, # of connection points: 2
#     Edge 65, Type (0, 0), BuildingBlock: TEMPAE_clean_linker_10, # of connection points: 2
#     Edge 66, Type (0, 0), BuildingBlock: TEMPAE_clean_linker_10, # of connection points: 2
#     Edge 67, Type (0, 0), BuildingBlock: TEMPAE_clean_linker_10, # of connection points: 2
#     Edge 68, Type (0, 0), BuildingBlock: TEMPAE_clean_linker_10, # of connection points: 2
#     Edge 69, Type (0, 0), BuildingBlock: TEMPAE_clean_linker_10, # of connection points: 2
#     Edge 70, Type (0, 0), BuildingBlock: TEMPAE_clean_linker_10, # of connection points: 2
#     Edge 71, Type (0, 0), BuildingBlock: TEMPAE_clean_linker_10, # of connection points: 2
#     Edge 72, Type (0, 0), BuildingBlock: TEMPAE_clean_linker_10, # of connection points: 2
#     Edge 73, Type (0, 0), BuildingBlock: TEMPAE_clean_linker_10, # of connection points: 2
#     Edge 74, Type (0, 0), BuildingBlock: TEMPAE_clean_linker_10, # of connection points: 2
#     Edge 75, Type (0, 0), BuildingBlock: TEMPAE_clean_linker_10, # of connection points: 2
#     Edge 76, Type (0, 0), BuildingBlock: TEMPAE_clean_linker_10, # of connection points: 2
#     Edge 77, Type (0, 0), BuildingBlock: TEMPAE_clean_linker_10, # of connection points: 2
#     Edge 78, Type (0, 0), BuildingBlock: TEMPAE_clean_linker_10, # of connection points: 2
#     Edge 79, Type (0, 0), BuildingBlock: TEMPAE_clean_linker_10, # of connection points: 2
#     Edge 80, Type (0, 0), BuildingBlock: TEMPAE_clean_linker_10, # of connection points: 2
#     Edge 81, Type (0, 0), BuildingBlock: TEMPAE_clean_linker_10, # of connection points: 2
#     Edge 82, Type (0, 0), BuildingBlock: TEMPAE_clean_linker_10, # of connection points: 2
#     Edge 83, Type (0, 0), BuildingBlock: TEMPAE_clean_linker_10, # of connection points: 2
#     Edge 84, Type (0, 0), BuildingBlock: TEMPAE_clean_linker_10, # of connection points: 2
#     Edge 85, Type (0, 0), BuildingBlock: TEMPAE_clean_linker_10, # of connection points: 2
#     Edge 86, Type (0, 0), BuildingBlock: TEMPAE_clean_linker_10, # of connection points: 2
#     Edge 87, Type (0, 0), BuildingBlock: TEMPAE_clean_linker_10, # of connection points: 2
#     Edge 88, Type (0, 0), BuildingBlock: TEMPAE_clean_linker_10, # of connection points: 2
#     Edge 89, Type (0, 0), BuildingBlock: TEMPAE_clean_linker_10, # of connection points: 2
#     Edge 90, Type (0, 0), BuildingBlock: TEMPAE_clean_linker_10, # of connection points: 2
#     Edge 91, Type (0, 0), BuildingBlock: TEMPAE_clean_linker_10, # of connection points: 2
#     Edge 92, Type (0, 0), BuildingBlock: TEMPAE_clean_linker_10, # of connection points: 2
#     Edge 93, Type (0, 0), BuildingBlock: TEMPAE_clean_linker_10, # of connection points: 2
#     Edge 94, Type (0, 0), BuildingBlock: TEMPAE_clean_linker_10, # of connection points: 2
#     Edge 95, Type (0, 0), BuildingBlock: TEMPAE_clean_linker_10, # of connection points: 2
# Relax obj value: 0.037
# Max RMSD: 0.224
# Mean RMSD: 0.224
data_MOF--net-uoa--node1-NAWXER_clean_sbu_0--edge1-TEMPAE_clean_linker_10
_symmetry_space_group_name_H-M    P1
_symmetry_Int_Tables_number       1
_symmetry_cell_setting            triclinic
loop_
_symmetry_equiv_pos_as_xyz
'x, y, z'
_cell_length_a     76.236103
_cell_length_b     76.257733
_cell_length_c     29.59447
_cell_angle_alpha  89.99514
_cell_angle_beta   89.991385
_cell_angle_gamma 90.005931
loop_
_atom_site_label
_atom_site_type_symbol
_atom_site_fract_x
_atom_site_fract_y
_atom_site_fract_z
_atom_type_partial_charge
C0 C 0.01197 0.10176 0.94813 0.0
C1 C 0.00505 0.09618 0.11118 0.0
O2 O 0.02543 0.09475 0.96668 0.0
Zn3 Zn 0.03393 0.0884 0.03354 0.0
O4 O -0.00062 0.10694 0.9728 0.0
Zn5 Zn 0.00871 0.09929 0.03036 0.0
O6 O 0.02932 0.11768 0.0458 0.0
O7 O 0.05411 0.10283 0.04211 0.0
O8 O 0.99415 0.10218 0.0826 0.0
O9 O 0.02004 0.09052 0.09762 0.0
O10 O 0.03823 0.0639 0.028 0.0
O11 O 0.01012 0.07094 0.02394 0.0
C12 C 0.04608 0.11713 0.04903 0.0
C13 C 0.02233 0.05932 0.0233 0.0
C14 C 0.1869 0.76885 0.27865 0.0
C15 C 0.12917 0.79416 0.2953 0.0
O16 O 0.17503 0.75689 0.27968 0.0
Zn17 Zn 0.14655 0.75618 0.28324 0.0
O18 O 0.18259 0.7849 0.28072 0.0
Zn19 Zn 0.15793 0.78121 0.2845 0.0
O20 O 0.15471 0.76848 0.34979 0.0
O21 O 0.14256 0.74265 0.33657 0.0
O22 O 0.14375 0.8018 0.28918 0.0
O23 O 0.12835 0.77738 0.29406 0.0
O24 O 0.1396 0.74588 0.22637 0.0
O25 O 0.1524 0.77156 0.21827 0.0
C26 C 0.14852 0.75386 0.36441 0.0
C27 C 0.1454 0.75789 0.20075 0.0
C28 C 0.4971 0.89954 0.63436 0.0
C29 C 0.48837 0.89516 0.47123 0.0
O30 O 0.48258 0.9065 0.62163 0.0
Zn31 Zn 0.46859 0.9104 0.55884 0.0
O32 O 0.5072 0.89275 0.60505 0.0
Zn33 Zn 0.49248 0.89696 0.55311 0.0
O34 O 0.49378 0.92524 0.54418 0.0
O35 O 0.46695 0.93529 0.5561 0.0
O36 O 0.50043 0.88842 0.49521 0.0
O37 O 0.47589 0.90356 0.49065 0.0
O38 O 0.44702 0.89817 0.56779 0.0
O39 O 0.47011 0.8807 0.56871 0.0
C40 C 0.48293 0.93809 0.54659 0.0
C41 C 0.45353 0.88301 0.57296 0.0
C42 C 0.30746 0.23995 0.8089 0.0
C43 C 0.35857 0.2052 0.84193 0.0
O44 O 0.32141 0.24932 0.80581 0.0
Zn45 Zn 0.3493 0.24514 0.81714 0.0
O46 O 0.30849 0.22403 0.8209 0.0
Zn47 Zn 0.33326 0.22302 0.82556 0.0
O48 O 0.33806 0.2375 0.88617 0.0
O49 O 0.35486 0.25997 0.86883 0.0
O50 O 0.34258 0.2007 0.84065 0.0
O51 O 0.36299 0.22108 0.83322 0.0
O52 O 0.35891 0.25126 0.75908 0.0
O53 O 0.34196 0.22782 0.75684 0.0
C54 C 0.34653 0.2512 0.89837 0.0
C55 C 0.35164 0.23911 0.73638 0.0
C56 C 0.0421 0.87834 0.42189 0.0
C57 C 0.01563 0.93462 0.4516 0.0
O58 O 0.02538 0.87688 0.42507 0.0
Zn59 Zn 0.00384 0.8942 0.4414 0.0
O60 O 0.04938 0.89302 0.4291 0.0
Zn61 Zn 0.02852 0.90624 0.43871 0.0
O62 O 0.02056 0.89856 0.50509 0.0
O63 O 0.99493 0.88557 0.49858 0.0
O64 O 0.03169 0.93079 0.44645 0.0
O65 O 0.00392 0.92252 0.45001 0.0
O66 O 0.98934 0.89127 0.38899 0.0
O67 O 0.01465 0.90422 0.3746 0.0
C68 C 0.00745 0.89082 0.5234 0.0
C69 C -0.00012 0.8981 0.36074 0.0
C70 C 0.35502 0.76172 0.79709 0.0
C71 C 0.35104 0.75298 0.63407 0.0
O72 O 0.34648 0.77407 0.77756 0.0
Zn73 Zn 0.33964 0.78128 0.70956 0.0
O74 O 0.36189 0.74969 0.77327 0.0
Zn75 Zn 0.35343 0.75751 0.71521 0.0
O76 O 0.36938 0.78006 0.69985 0.0
O77 O 0.3517 0.80299 0.70057 0.0
O78 O 0.35804 0.74295 0.66324 0.0
O79 O 0.34383 0.76735 0.64692 0.0
O80 O 0.31469 0.78246 0.7118 0.0
O81 O 0.32515 0.75573 0.7227 0.0
C82 C 0.36693 0.79661 0.69551 0.0
C83 C 0.31211 0.76634 0.72018 0.0
C84 C 0.48058 0.1023 0.03671 0.0
C85 C 0.48915 0.09988 0.87349 0.0
O86 O 0.4685 0.09336 0.01703 0.0
Zn87 Zn 0.46169 0.08644 0.94801 0.0
O88 O 0.49223 0.10986 0.013 0.0
Zn89 Zn 0.48451 0.1015 0.95518 0.0
O90 O 0.46089 0.11638 0.94348 0.0
O91 O 0.43948 0.09704 0.93756 0.0
O92 O 0.49864 0.10741 0.90294 0.0
O93 O 0.47533 0.09166 0.88607 0.0
O94 O 0.46167 0.06155 0.94954 0.0
O95 O 0.48772 0.07329 0.96276 0.0
C96 C 0.44465 0.11283 0.93679 0.0
C97 C 0.47775 0.05975 0.95944 0.0
C98 C 0.14964 0.24051 0.12948 0.0
C99 C 0.14453 0.23611 0.29279 0.0
O100 O 0.15522 0.22565 0.14416 0.0
Zn101 Zn 0.15729 0.21264 0.20944 0.0
O102 O 0.14377 0.2518 0.15718 0.0
Zn103 Zn 0.1466 0.23794 0.21044 0.0
O104 O 0.17499 0.23633 0.21699 0.0
O105 O 0.18173 0.20813 0.21485 0.0
O106 O 0.13912 0.24821 0.2669 0.0
O107 O 0.15142 0.22232 0.2756 0.0
O108 O 0.14262 0.1925 0.20324 0.0
O109 O 0.12799 0.21733 0.19707 0.0
C110 C 0.18648 0.22401 0.21851 0.0
C111 C 0.12838 0.20054 0.19554 0.0
C112 C 0.98118 0.89548 0.0234 0.0
C113 C 0.99017 0.89679 0.86026 0.0
O114 O 0.99234 0.8871 0.99996 0.0
Zn115 Zn 0.98541 0.89589 0.94195 0.0
O116 O 0.96987 0.90529 0.00344 0.0
Zn117 Zn 0.96383 0.91265 0.93426 0.0
O118 O 0.94082 0.90384 0.92347 0.0
O119 O 0.96064 0.8829 0.93045 0.0
O120 O 0.97705 0.90612 0.87263 0.0
O121 O -0.00096 0.88864 0.8899 0.0
O122 O 0.99094 0.92377 0.94878 0.0
O123 O 0.96591 0.93745 0.93523 0.0
C124 C 0.94474 0.88769 0.92336 0.0
C125 C 0.9821 0.93803 0.94494 0.0
C126 C 0.855 0.23302 0.79481 0.0
C127 C 0.84911 0.24038 0.63193 0.0
O128 O 0.86086 0.24525 0.76998 0.0
Zn129 Zn 0.85236 0.23649 0.71259 0.0
O130 O 0.84702 0.22007 0.77645 0.0
Zn131 Zn 0.83973 0.21208 0.70992 0.0
O132 O 0.85266 0.1909 0.70078 0.0
O133 O 0.86916 0.21463 0.69639 0.0
O134 O 0.84249 0.22581 0.64572 0.0
O135 O 0.85602 0.25082 0.66028 0.0
O136 O 0.824 0.23714 0.71944 0.0
O137 O 0.81501 0.20958 0.7164 0.0
C138 C 0.86744 0.19795 0.69319 0.0
C139 C 0.81157 0.22578 0.72066 0.0
C140 C 0.50014 0.09793 0.37374 0.0
C141 C 0.50744 0.10475 0.53655 0.0
O142 O 0.48947 0.10442 0.4022 0.0
Zn143 Zn 0.50403 0.10159 0.4545 0.0
O144 O 0.51501 0.09201 0.38741 0.0
Zn145 Zn 0.52887 0.09001 0.45161 0.0
O146 O 0.53256 0.06555 0.45875 0.0
O147 O 0.50464 0.07324 0.46302 0.0
O148 O 0.52069 0.09724 0.51826 0.0
O149 O 0.49493 0.10998 0.51168 0.0
O150 O 0.52527 0.11935 0.43844 0.0
O151 O 0.54951 0.1036 0.44254 0.0
C152 C 0.5166 0.06138 0.46432 0.0
C153 C 0.54201 0.11817 0.43543 0.0
C154 C 0.63827 0.79633 0.17972 0.0
C155 C 0.68913 0.76032 0.20673 0.0
O156 O 0.65433 0.8006 0.18063 0.0
Zn157 Zn 0.66354 0.77794 0.19331 0.0
O158 O 0.63372 0.78043 0.18762 0.0
Zn159 Zn 0.64708 0.7561 0.20154 0.0
O160 O 0.63799 0.74961 0.25971 0.0
O161 O 0.65585 0.77237 0.26238 0.0
O162 O 0.675 0.75124 0.21035 0.0
O163 O 0.68836 0.77636 0.19568 0.0
O164 O 0.65775 0.76407 0.13232 0.0
O165 O 0.64052 0.7419 0.14979 0.0
C166 C 0.64612 0.7611 0.28271 0.0
C167 C 0.64876 0.7507 0.12015 0.0
C168 C 0.95133 0.11388 0.55021 0.0
C169 C 0.97994 0.05832 0.52369 0.0
O170 O 0.9445 0.09891 0.54406 0.0
Zn171 Zn 0.96587 0.08622 0.535 0.0
O172 O 0.96795 0.11586 0.54604 0.0
Zn173 Zn 0.99 0.09935 0.52999 0.0
O174 O 0.99818 0.10787 0.4724 0.0
O175 O 0.97356 0.09288 0.46714 0.0
O176 O 0.99096 0.07105 0.52155 0.0
O177 O 0.96392 0.06133 0.53234 0.0
O178 O 0.97979 0.08982 0.59795 0.0
O179 O 0.00462 0.10338 0.58203 0.0
C180 C 0.9862 0.10117 0.44812 0.0
C181 C 0.99433 0.09663 0.611 0.0
C182 C 0.64901 0.24194 0.36694 0.0
C183 C 0.644 0.23589 0.20377 0.0
O184 O 0.64286 0.25289 0.33869 0.0
Zn185 Zn 0.64618 0.23872 0.28603 0.0
O186 O 0.65493 0.22712 0.35296 0.0
Zn187 Zn 0.65741 0.21362 0.28851 0.0
O188 O 0.68202 0.20976 0.28319 0.0
O189 O 0.67458 0.23778 0.28057 0.0
O190 O 0.65109 0.22241 0.22198 0.0
O191 O 0.63868 0.24833 0.22874 0.0
O192 O 0.62798 0.21776 0.2997 0.0
O193 O 0.6432 0.19319 0.29595 0.0
C194 C 0.68638 0.22576 0.27963 0.0
C195 C 0.62872 0.201 0.3023 0.0
C196 C 0.50684 0.901 0.13402 0.0
C197 C 0.51613 0.89551 0.9714 0.0
O198 O 0.49738 0.89314 0.10507 0.0
Zn199 Zn 0.51179 0.898 0.05301 0.0
O200 O 0.52086 0.90883 0.121 0.0
Zn201 Zn 0.53495 0.91248 0.05829 0.0
O202 O 0.53593 0.9371 0.05139 0.0
O203 O 0.50915 0.92629 0.04421 0.0
O204 O 0.52841 0.90431 0.9905 0.0
O205 O 0.50402 0.88896 0.99554 0.0
O206 O 0.53506 0.88274 0.06775 0.0
O207 O 0.55683 0.9018 0.0711 0.0
C208 C 0.51972 0.93942 0.04396 0.0
C209 C 0.55133 0.88618 0.0744 0.0
C210 C 0.84689 0.75157 0.89308 0.0
C211 C 0.84882 0.76086 0.73003 0.0
O212 O 0.85525 0.74286 0.86355 0.0
Zn213 Zn 0.8482 0.75657 0.81143 0.0
O214 O 0.83752 0.76466 0.88065 0.0
Zn215 Zn 0.83121 0.77795 0.81903 0.0
O216 O 0.80644 0.77572 0.81725 0.0
O217 O 0.82038 0.75087 0.80317 0.0
O218 O 0.83883 0.77205 0.74988 0.0
O219 O 0.85732 0.74982 0.75358 0.0
O220 O 0.86093 0.78143 0.82362 0.0
O221 O 0.83975 0.801 0.83029 0.0
C222 C 0.80603 0.7596 0.80676 0.0
C223 C 0.85594 0.79726 0.83079 0.0
C224 C 0.50741 0.60007 0.45449 0.0
C225 C 0.50457 0.59728 0.61828 0.0
O226 O 0.52169 0.59422 0.47156 0.0
Zn227 Zn 0.53216 0.58984 0.53765 0.0
O228 O 0.49516 0.60509 0.48047 0.0
Zn229 Zn 0.50633 0.59914 0.53694 0.0
O230 O 0.526 0.61908 0.54643 0.0
O231 O 0.5515 0.60559 0.54081 0.0
O232 O 0.49278 0.60215 0.59066 0.0
O233 O 0.51959 0.59227 0.60336 0.0
O234 O 0.53801 0.56565 0.53457 0.0
O235 O 0.50946 0.57079 0.53336 0.0
C236 C 0.54281 0.61956 0.5468 0.0
C237 C 0.52239 0.55998 0.5324 0.0
C238 C 0.63339 0.29664 0.80313 0.0
C239 C 0.68834 0.26631 0.78044 0.0
O240 O 0.63102 0.28005 0.79968 0.0
Zn241 Zn 0.64703 0.25745 0.78568 0.0
O242 O 0.64859 0.30305 0.79768 0.0
Zn243 Zn 0.66076 0.28128 0.79007 0.0
O244 O 0.65407 0.27336 0.72245 0.0
O245 O 0.63857 0.24907 0.72839 0.0
O246 O 0.68573 0.28247 0.78806 0.0
O247 O 0.67531 0.25565 0.77838 0.0
O248 O 0.64231 0.24334 0.83814 0.0
O249 O 0.65646 0.26789 0.85345 0.0
C250 C 0.64553 0.2608 0.7038 0.0
C251 C 0.6492 0.25363 0.86687 0.0
C252 C 0.98379 0.39591 0.96268 0.0
C253 C 0.98879 0.4001 0.12589 0.0
O254 O 0.97056 0.40371 0.98018 0.0
Zn255 Zn 0.96152 0.41026 0.04633 0.0
O256 O 0.99562 0.38974 0.98827 0.0
Zn257 Zn 0.98602 0.39769 0.04504 0.0
O258 O 0.96407 0.38072 0.05815 0.0
O259 O 0.94027 0.39707 0.0528 0.0
O260 O -0.00039 0.39345 0.09807 0.0
O261 O 0.97442 0.4069 0.11138 0.0
O262 O 0.9591 0.43506 0.04141 0.0
O263 O 0.9867 0.42609 0.04027 0.0
C264 C 0.94735 0.38229 0.06009 0.0
C265 C 0.97536 0.43854 0.03895 0.0
C266 C 0.84569 0.74115 0.39296 0.0
C267 C 0.8527 0.73403 0.23007 0.0
O268 O 0.84029 0.72608 0.37932 0.0
Zn269 Zn 0.83867 0.71217 0.31519 0.0
O270 O 0.85177 0.75203 0.36444 0.0
Zn271 Zn 0.84943 0.7374 0.31208 0.0
O272 O 0.82115 0.73579 0.30347 0.0
O273 O 0.81431 0.70767 0.30822 0.0
O274 O 0.85744 0.74677 0.25484 0.0
O275 O 0.84566 0.72055 0.24848 0.0
O276 O 0.85295 0.69201 0.32405 0.0
O277 O 0.8679 0.71677 0.3276 0.0
C278 C 0.80965 0.72347 0.30237 0.0
C279 C 0.86729 0.70001 0.33061 0.0
C280 C 0.51088 0.39098 0.03096 0.0
C281 C 0.50123 0.39734 0.86854 0.0
O282 O 0.52297 0.40003 0.01186 0.0
Zn283 Zn 0.52962 0.40817 0.94438 0.0
O284 O 0.49879 0.38435 0.00687 0.0
Zn285 Zn 0.50618 0.39385 0.94941 0.0
O286 O 0.52906 0.37861 0.93192 0.0
O287 O 0.55156 0.39685 0.93361 0.0
O288 O 0.49143 0.3898 0.89736 0.0
O289 O 0.51554 0.40458 0.8817 0.0
O290 O 0.53031 0.43307 0.94923 0.0
O291 O 0.50386 0.42191 0.9601 0.0
C292 C 0.54553 0.38155 0.92737 0.0
C293 C 0.51421 0.43519 0.95857 0.0
C294 C 0.84966 0.25089 0.13176 0.0
C295 C 0.85329 0.25894 0.29481 0.0
O296 O 0.84216 0.26509 0.1448 0.0
Zn297 Zn 0.83766 0.27868 0.20787 0.0
O298 O 0.85671 0.24084 0.16081 0.0
Zn299 Zn 0.8518 0.25517 0.21287 0.0
O300 O 0.82353 0.25288 0.2204 0.0
O301 O 0.81272 0.2795 0.20989 0.0
O302 O 0.86047 0.24725 0.27052 0.0
O303 O 0.84451 0.27124 0.27577 0.0
O304 O 0.84932 0.30063 0.1994 0.0
O305 O 0.86737 0.27801 0.19754 0.0
C306 C 0.81035 0.26334 0.21802 0.0
C307 C 0.86462 0.29453 0.19357 0.0
C308 C 0.95554 0.61669 0.45503 0.0
C309 C 0.98494 0.56139 0.47855 0.0
O310 O 0.97211 0.61891 0.4597 0.0
Zn311 Zn 0.99444 0.60255 0.47442 0.0
O312 O 0.94897 0.6015 0.45908 0.0
Zn313 Zn 0.97045 0.58916 0.468 0.0
O314 O 0.97748 0.59586 0.53612 0.0
O315 O 0.00224 0.61072 0.53281 0.0
O316 O 0.9689 0.56427 0.46981 0.0
O317 O 0.99577 0.57424 0.48154 0.0
O318 O 0.00909 0.6072 0.42249 0.0
O319 O 0.98447 0.59345 0.40573 0.0
C320 C 0.9899 0.60413 0.55613 0.0
C321 C -0.00106 0.60051 0.3931 0.0
C322 C 0.64995 0.74335 0.62008 0.0
C323 C 0.64281 0.73557 0.78277 0.0
O324 O 0.65486 0.72807 0.63336 0.0
Zn325 Zn 0.65608 0.71381 0.69682 0.0
O326 O 0.64427 0.75435 0.64884 0.0
Zn327 Zn 0.6462 0.73943 0.70092 0.0
O328 O 0.6744 0.73678 0.70914 0.0
O329 O 0.68031 0.70847 0.70351 0.0
O330 O 0.63858 0.74868 0.75869 0.0
O331 O 0.64935 0.72199 0.76369 0.0
O332 O 0.64103 0.69429 0.68706 0.0
O333 O 0.627 0.7196 0.68478 0.0
C334 C 0.68549 0.72409 0.70974 0.0
C335 C 0.62698 0.70285 0.68094 0.0
C336 C 0.484 0.39494 0.53097 0.0
C337 C 0.49395 0.39691 0.36801 0.0
O338 O 0.49534 0.38668 0.50778 0.0
Zn339 Zn 0.48884 0.39581 0.44972 0.0
O340 O 0.47293 0.40495 0.51081 0.0
Zn341 Zn 0.46751 0.41282 0.44166 0.0
O342 O 0.44445 0.40451 0.43005 0.0
O343 O 0.46388 0.38321 0.43743 0.0
O344 O 0.48086 0.40631 0.38025 0.0
O345 O 0.50262 0.3886 0.39775 0.0
O346 O 0.49468 0.42358 0.45759 0.0
O347 O 0.46985 0.43752 0.44343 0.0
C348 C 0.44809 0.3883 0.43001 0.0
C349 C 0.48598 0.43793 0.45374 0.0
C350 C 0.31111 0.73081 0.22196 0.0
C351 C 0.36572 0.70075 0.19329 0.0
O352 O 0.31371 0.71474 0.21321 0.0
Zn353 Zn 0.33862 0.71599 0.20987 0.0
O354 O 0.32413 0.74148 0.22411 0.0
Zn355 Zn 0.35238 0.73973 0.21523 0.0
O356 O 0.35661 0.7545 0.16348 0.0
O357 O 0.34239 0.7301 0.14721 0.0
O358 O 0.36821 0.71728 0.19798 0.0
O359 O 0.35058 0.69433 0.19957 0.0
O360 O 0.34599 0.72296 0.2777 0.0
O361 O 0.36137 0.74734 0.27288 0.0
C362 C 0.34952 0.74451 0.13436 0.0
C363 C 0.35471 0.73526 0.29691 0.0
C364 C 0.04889 0.6152 0.94978 0.0
C365 C 0.01842 0.56108 0.98208 0.0
O366 O 0.05531 0.60008 0.95656 0.0
Zn367 Zn 0.03361 0.58831 0.96857 0.0
O368 O 0.03242 0.61782 0.95531 0.0
Zn369 Zn 0.00996 0.60239 0.97434 0.0
O370 O 0.00288 0.61174 0.03214 0.0
O371 O 0.02716 0.59616 0.03624 0.0
O372 O 0.00796 0.57427 0.98409 0.0
O373 O 0.03451 0.56338 0.97284 0.0
O374 O 0.01914 0.59186 0.90652 0.0
O375 O 0.99497 0.60649 0.92287 0.0
C376 C 0.01509 0.60509 0.05578 0.0
C377 C 0.00476 0.59908 0.8938 0.0
C378 C 0.12664 0.295 0.69694 0.0
C379 C 0.18575 0.2739 0.71711 0.0
O380 O 0.14064 0.30354 0.70398 0.0
Zn381 Zn 0.15607 0.28399 0.70921 0.0
O382 O 0.12688 0.2782 0.69816 0.0
Zn383 Zn 0.14643 0.25832 0.71038 0.0
O384 O 0.13968 0.24764 0.76696 0.0
O385 O 0.15097 0.274 0.77553 0.0
O386 O 0.17479 0.26108 0.71598 0.0
O387 O 0.18028 0.28955 0.71363 0.0
O388 O 0.15413 0.27102 0.64386 0.0
O389 O 0.14382 0.24442 0.65712 0.0
C390 C 0.14472 0.25992 0.79279 0.0
C391 C 0.14906 0.25597 0.62928 0.0
C392 C 0.48853 0.59492 0.11779 0.0
C393 C 0.48436 0.60034 0.95465 0.0
O394 O 0.49964 0.60139 0.09044 0.0
Zn395 Zn 0.48607 0.59803 0.03698 0.0
O396 O 0.47398 0.58871 0.10272 0.0
Zn397 Zn 0.46122 0.58627 0.03713 0.0
O398 O 0.4579 0.56164 0.03111 0.0
O399 O 0.4858 0.56964 0.0306 0.0
O400 O 0.47082 0.59281 0.97139 0.0
O401 O 0.49618 0.6061 0.98089 0.0
O402 O 0.46464 0.61564 0.0505 0.0
O403 O 0.4404 0.60008 0.0435 0.0
C404 C 0.47402 0.55761 0.0285 0.0
C405 C 0.44787 0.61457 0.05182 0.0
C406 C 0.15081 0.73923 0.86398 0.0
C407 C 0.14555 0.73419 0.70091 0.0
O408 O 0.1441 0.75007 0.83632 0.0
Zn409 Zn 0.14791 0.73639 0.78323 0.0
O410 O 0.15744 0.72481 0.84927 0.0
Zn411 Zn 0.16034 0.71188 0.78397 0.0
O412 O 0.18507 0.70928 0.77805 0.0
O413 O 0.1763 0.73693 0.77724 0.0
O414 O 0.15342 0.72093 0.71804 0.0
O415 O 0.13959 0.74602 0.72683 0.0
O416 O 0.13093 0.71451 0.79749 0.0
O417 O 0.14717 0.69069 0.79105 0.0
C418 C 0.18865 0.7255 0.7754 0.0
C419 C 0.13248 0.69779 0.79935 0.0
C420 C 0.04238 0.37804 0.55882 0.0
C421 C 0.01906 0.43637 0.53855 0.0
O422 O 0.0505 0.39231 0.55198 0.0
Zn423 Zn 0.03043 0.40708 0.54611 0.0
O424 O 0.02558 0.37774 0.55722 0.0
Zn425 Zn 0.00503 0.39653 0.5449 0.0
O426 O 0.9947 0.38947 0.48817 0.0
O427 O 0.02083 0.40133 0.48005 0.0
O428 O 0.00671 0.42492 0.53993 0.0
O429 O 0.03496 0.43155 0.5412 0.0
O430 O 0.01745 0.40473 0.61126 0.0
O431 O 0.99123 0.39339 0.59817 0.0
C432 C 0.00699 0.39467 0.46257 0.0
C433 C 0.00259 0.39913 0.62591 0.0
C434 C 0.35035 0.26569 0.23624 0.0
C435 C 0.34653 0.25392 0.39864 0.0
O436 O 0.35803 0.25375 0.2588 0.0
Zn437 Zn 0.34856 0.25973 0.31708 0.0
O438 O 0.34046 0.27673 0.25689 0.0
Zn439 Zn 0.33192 0.28144 0.32582 0.0
O440 O 0.34076 0.30414 0.33983 0.0
O441 O 0.36158 0.28423 0.33159 0.0
O442 O 0.33756 0.26733 0.38654 0.0
O443 O 0.35491 0.24531 0.36891 0.0
O444 O 0.32083 0.25468 0.3068 0.0
O445 O 0.30711 0.27954 0.32193 0.0
C446 C 0.35688 0.30005 0.34003 0.0
C447 C 0.30658 0.26357 0.31016 0.0
C448 C 0.9896 0.08635 0.69011 0.0
C449 C -0.00158 0.0974 0.65982 0.0
C450 C 0.99249 0.08753 0.7368 0.0
C451 C 0.00427 0.1003 0.75372 0.0
C452 C 0.0133 0.11145 0.72332 0.0
C453 C 0.01038 0.10976 0.67664 0.0
C454 C 0.98286 0.07518 0.76806 0.0
C455 C 0.02578 0.12536 0.74017 0.0
C456 C 0.99771 0.1126 0.87703 0.0
C457 C 0.01076 0.10259 0.89822 0.0
C458 C 0.99584 0.11247 0.82979 0.0
C459 C 0.00711 0.10186 0.80329 0.0
C460 C 0.02051 0.092 0.82444 0.0
C461 C 0.02226 0.09259 0.87159 0.0
C462 C 0.98156 0.12338 0.80833 0.0
C463 C 0.03261 0.08033 0.79744 0.0
H464 H 0.9804 0.07672 0.6773 0.0
H465 H 0.01711 0.11845 0.6534 0.0
H466 H 0.99238 0.06779 0.78907 0.0
H467 H 0.97437 0.08276 0.79141 0.0
H468 H 0.97455 0.06565 0.74939 0.0
H469 H 0.0318 0.13295 0.71214 0.0
H470 H 0.01871 0.13458 0.76274 0.0
H471 H 0.0364 0.11926 0.76039 0.0
H472 H 0.98885 0.12042 0.89738 0.0
H473 H 0.03233 0.08474 0.88768 0.0
H474 H 0.97171 0.11465 0.79234 0.0
H475 H 0.98714 0.13176 0.78127 0.0
H476 H 0.97477 0.13189 0.83326 0.0
H477 H 0.02488 0.06987 0.78063 0.0
H478 H 0.04282 0.07407 0.81882 0.0
H479 H 0.03919 0.088 0.77048 0.0
C480 C 0.16074 0.73307 0.94284 0.0
C481 C 0.15013 0.74267 0.91309 0.0
C482 C 0.15973 0.73572 0.98967 0.0
C483 C 0.14761 0.74804 0.00714 0.0
C484 C 0.13683 0.75774 0.97729 0.0
C485 C 0.13833 0.75505 0.93056 0.0
C486 C 0.17165 0.72534 0.02045 0.0
C487 C 0.1236 0.77083 0.99475 0.0
C488 C 0.13477 0.74294 0.1305 0.0
C489 C 0.14518 0.75582 0.15108 0.0
C490 C 0.13515 0.74049 0.08347 0.0
C491 C 0.14643 0.75097 0.05666 0.0
C492 C 0.15687 0.76405 0.07725 0.0
C493 C 0.15602 0.76641 0.12415 0.0
C494 C 0.12362 0.7266 0.06252 0.0
C495 C 0.16924 0.77531 0.04986 0.0
H496 H 0.16991 0.72352 0.9295 0.0
H497 H 0.12998 0.76239 0.90774 0.0
H498 H 0.17974 0.7344 0.04109 0.0
H499 H 0.16371 0.71735 0.04418 0.0
H500 H 0.18053 0.71647 1.00142 0.0
H501 H 0.116 0.77709 0.96709 0.0
H502 H 0.11431 0.76424 0.01808 0.0
H503 H 0.13035 0.78125 0.0143 0.0
H504 H 0.12633 0.73477 0.15114 0.0
H505 H 0.1642 0.77631 0.13985 0.0
H506 H 0.13186 0.71646 0.04604 0.0
H507 H 0.11524 0.7325 0.03589 0.0
H508 H 0.11504 0.72009 0.08781 0.0
H509 H 0.17899 0.76689 0.03244 0.0
H510 H 0.17637 0.78499 0.07104 0.0
H511 H 0.16187 0.78249 0.02336 0.0
C512 C 0.5113 0.91117 0.21354 0.0
C513 C 0.5024 0.90037 0.18279 0.0
C514 C 0.50811 0.91001 0.26015 0.0
C515 C 0.49586 0.89758 0.27657 0.0
C516 C 0.48665 0.88679 0.24571 0.0
C517 C 0.48995 0.88838 0.19915 0.0
C518 C 0.51804 0.92193 0.2919 0.0
C519 C 0.47358 0.87331 0.26195 0.0
C520 C 0.50188 0.88412 0.39933 0.0
C521 C 0.48931 0.89453 0.42118 0.0
C522 C 0.50376 0.88455 0.3521 0.0
C523 C 0.49294 0.8958 0.32614 0.0
C524 C 0.47994 0.90602 0.34788 0.0
C525 C 0.47823 0.90519 0.39507 0.0
C526 C 0.51765 0.87331 0.3301 0.0
C527 C 0.46825 0.91828 0.32148 0.0
H528 H 0.52088 0.92052 0.20121 0.0
H529 H 0.48308 0.87991 0.17565 0.0
H530 H 0.50871 0.92949 0.31306 0.0
H531 H 0.52626 0.91398 0.31508 0.0
H532 H 0.52666 0.93129 0.27362 0.0
H533 H 0.46723 0.8662 0.23358 0.0
H534 H 0.48026 0.86363 0.28401 0.0
H535 H 0.46325 0.87971 0.28254 0.0
H536 H 0.51045 0.8758 0.41919 0.0
H537 H 0.46851 0.91334 0.41161 0.0
H538 H 0.52777 0.88179 0.31437 0.0
H539 H 0.51177 0.86527 0.30275 0.0
H540 H 0.52418 0.86442 0.35461 0.0
H541 H 0.47633 0.92866 0.30541 0.0
H542 H 0.45819 0.92465 0.34313 0.0
H543 H 0.46151 0.91107 0.29396 0.0
C544 C 0.36022 0.23751 0.46348 0.0
C545 C 0.34757 0.24932 0.44731 0.0
C546 C 0.36203 0.23427 0.51009 0.0
C547 C 0.35084 0.24294 0.54112 0.0
C548 C 0.33776 0.25449 0.52483 0.0
C549 C 0.33633 0.25756 0.47827 0.0
C550 C 0.37615 0.22189 0.52621 0.0
C551 C 0.32544 0.26389 0.55667 0.0
C552 C 0.3433 0.22667 0.66095 0.0
C553 C 0.35314 0.23873 0.68633 0.0
C554 C 0.34305 0.22737 0.61351 0.0
C555 C 0.35291 0.2404 0.5908 0.0
C556 C 0.36352 0.25207 0.6161 0.0
C557 C 0.36348 0.25112 0.66352 0.0
C558 C 0.33155 0.21469 0.58783 0.0
C559 C 0.37431 0.26609 0.59317 0.0
H560 H 0.36901 0.23113 0.43983 0.0
H561 H 0.32644 0.26663 0.46615 0.0
H562 H 0.38575 0.22915 0.54729 0.0
H563 H 0.37036 0.21149 0.54776 0.0
H564 H 0.38327 0.2156 0.49776 0.0
H565 H 0.3156 0.27199 0.53847 0.0
H566 H 0.31839 0.25426 0.57813 0.0
H567 H 0.33304 0.27256 0.57955 0.0
H568 H 0.3353 0.217 0.67816 0.0
H569 H 0.3712 0.26044 0.68275 0.0
H570 H 0.33907 0.20839 0.56016 0.0
H571 H 0.3205 0.22193 0.57209 0.0
H572 H 0.32606 0.2043 0.61001 0.0
H573 H 0.38241 0.26029 0.56586 0.0
H574 H 0.38309 0.27304 0.61719 0.0
H575 H 0.36546 0.27587 0.57729 0.0
C576 C 0.98681 0.90691 0.78058 0.0
C577 C 0.9943 0.89516 0.81154 0.0
C578 C 0.98974 0.90519 0.73404 0.0
C579 C 0.00027 0.89126 0.71786 0.0
C580 C 0.00798 0.87939 0.74888 0.0
C581 C 0.00499 0.88155 0.79545 0.0
C582 C 0.9815 0.91829 0.70216 0.0
C583 C 0.01915 0.86429 0.7328 0.0
C584 C 0.99282 0.88007 0.59421 0.0
C585 C 0.00654 0.88925 0.57329 0.0
C586 C 0.99107 0.87992 0.64149 0.0
C587 C 0.00323 0.88933 0.66839 0.0
C588 C 0.01744 0.89811 0.64756 0.0
C589 C 0.01897 0.89789 0.60033 0.0
C590 C 0.97586 0.87023 0.66255 0.0
C591 C 0.03058 0.90842 0.67498 0.0
H592 H 0.9786 0.91751 0.79274 0.0
H593 H 0.01072 0.87236 0.81916 0.0
H594 H 0.99181 0.92477 0.68161 0.0
H595 H 0.97255 0.91145 0.67842 0.0
H596 H 0.97393 0.92856 0.72027 0.0
H597 H 0.02425 0.85625 0.76123 0.0
H598 H 0.01137 0.85571 0.7101 0.0
H599 H 0.03043 0.86928 0.71291 0.0
H600 H 0.98322 0.87328 0.57362 0.0
H601 H 0.02963 0.90503 0.58455 0.0
H602 H 0.96664 0.87977 0.67794 0.0
H603 H 0.98057 0.86151 0.68999 0.0
H604 H 0.96856 0.86223 0.63746 0.0
H605 H 0.02395 0.91974 0.69118 0.0
H606 H 0.04158 0.91344 0.654 0.0
H607 H 0.03607 0.90017 0.70241 0.0
C608 C 0.36644 0.74868 0.86912 0.0
C609 C 0.35576 0.76098 0.84711 0.0
C610 C 0.36619 0.74703 0.9164 0.0
C611 C 0.35483 0.7578 0.94219 0.0
C612 C 0.34435 0.77053 0.92027 0.0
C613 C 0.34501 0.77203 0.87305 0.0
C614 C 0.37771 0.73344 0.93864 0.0
C615 C 0.33194 0.78213 0.94653 0.0
C616 C 0.33964 0.73958 0.05494 0.0
C617 C 0.35022 0.7488 0.08558 0.0
C618 C 0.34084 0.7426 0.0083 0.0
C619 C 0.35309 0.75499 0.99176 0.0
C620 C 0.36368 0.7645 0.0225 0.0
C621 C 0.36204 0.76137 0.06912 0.0
C622 C 0.32913 0.73237 0.97668 0.0
C623 C 0.37699 0.7777 0.00606 0.0
H624 H 0.37485 0.74016 0.84937 0.0
H625 H 0.33666 0.78154 0.85636 0.0
H626 H 0.38562 0.73954 0.96591 0.0
H627 H 0.36942 0.72318 0.9545 0.0
H628 H 0.38674 0.72703 0.91423 0.0
H629 H 0.32541 0.79203 0.92472 0.0
H630 H 0.32168 0.77396 0.96281 0.0
H631 H 0.33908 0.78906 0.97386 0.0
H632 H 0.33041 0.7299 0.0674 0.0
H633 H 0.37035 0.76846 0.09257 0.0
H634 H 0.33724 0.72423 0.95369 0.0
H635 H 0.3214 0.7415 0.95532 0.0
H636 H 0.3199 0.72363 0.99507 0.0
H637 H 0.38679 0.7711 0.98416 0.0
H638 H 0.384 0.78424 0.03434 0.0
H639 H 0.37045 0.78789 0.98525 0.0
C640 C 0.49306 0.11434 0.10862 0.0
C641 C 0.48169 0.10264 0.08671 0.0
C642 C 0.49523 0.11386 0.15573 0.0
C643 C 0.48599 0.10122 0.18151 0.0
C644 C 0.47425 0.08959 0.1597 0.0
C645 C 0.47216 0.09051 0.11261 0.0
C646 C 0.50769 0.12664 0.17782 0.0
C647 C 0.46431 0.07582 0.18593 0.0
C648 C 0.50615 0.08842 0.29425 0.0
C649 C 0.49588 0.09801 0.32485 0.0
C650 C 0.50284 0.08909 0.24761 0.0
C651 C 0.48909 0.09979 0.23106 0.0
C652 C 0.47856 0.10937 0.26179 0.0
C653 C 0.48201 0.10827 0.30833 0.0
C654 C 0.51422 0.0785 0.21597 0.0
C655 C 0.46389 0.12106 0.24542 0.0
H656 H 0.50042 0.12379 0.08889 0.0
H657 H 0.46343 0.08134 0.09595 0.0
H658 H 0.50089 0.1339 0.20519 0.0
H659 H 0.51874 0.1194 0.19355 0.0
H660 H 0.51314 0.13626 0.15338 0.0
H661 H 0.45523 0.06817 0.16417 0.0
H662 H 0.47369 0.06661 0.20203 0.0
H663 H 0.45661 0.08203 0.21341 0.0
H664 H 0.51684 0.08041 0.30673 0.0
H665 H 0.47407 0.11581 0.33171 0.0
H666 H 0.52142 0.08741 0.19285 0.0
H667 H 0.50593 0.06983 0.19472 0.0
H668 H 0.52391 0.07028 0.23434 0.0
H669 H 0.46929 0.13147 0.22322 0.0
H670 H 0.45669 0.12737 0.27371 0.0
H671 H 0.45444 0.11336 0.22496 0.0
C672 C 0.13737 0.23943 0.56296 0.0
C673 C 0.14848 0.25247 0.58019 0.0
C674 C 0.13599 0.23656 0.51626 0.0
C675 C 0.14623 0.24674 0.48621 0.0
C676 C 0.15766 0.25976 0.50346 0.0
C677 C 0.15851 0.26259 0.55026 0.0
C678 C 0.12344 0.22277 0.49907 0.0
C679 C 0.16905 0.27063 0.4725 0.0
C680 C 0.15545 0.22832 0.36958 0.0
C681 C 0.14415 0.2383 0.34241 0.0
C682 C 0.15624 0.23093 0.41641 0.0
C683 C 0.14521 0.2436 0.43671 0.0
C684 C 0.13345 0.25343 0.40965 0.0
C685 C 0.13319 0.25079 0.36268 0.0
C686 C 0.16917 0.22042 0.44401 0.0
C687 C 0.12125 0.26681 0.43029 0.0
H688 H 0.12945 0.23169 0.58594 0.0
H689 H 0.16715 0.27266 0.56346 0.0
H690 H 0.11387 0.2288 0.47548 0.0
H691 H 0.13072 0.21261 0.47987 0.0
H692 H 0.11611 0.21626 0.52685 0.0
H693 H 0.17747 0.27999 0.49137 0.0
H694 H 0.1776 0.26193 0.45203 0.0
H695 H 0.16073 0.27814 0.44861 0.0
H696 H 0.16408 0.21876 0.35407 0.0
H697 H 0.1244 0.25849 0.34182 0.0
H698 H 0.16218 0.21293 0.47063 0.0
H699 H 0.17847 0.22939 0.46128 0.0
H700 H 0.17681 0.21106 0.42302 0.0
H701 H 0.11319 0.26061 0.45711 0.0
H702 H 0.11235 0.27278 0.40486 0.0
H703 H 0.12899 0.27741 0.44646 0.0
C704 C 0.00608 0.90779 0.28153 0.0
C705 C 0.99561 0.89829 0.31186 0.0
C706 C 0.0028 0.90736 0.23487 0.0
C707 C 0.98881 0.89705 0.21803 0.0
C708 C 0.97803 0.88761 0.24848 0.0
C709 C 0.98151 0.88842 0.29506 0.0
C710 C 0.01448 0.91776 0.20353 0.0
C711 C 0.96308 0.87637 0.23177 0.0
C712 C 0.97267 0.90722 0.09934 0.0
C713 C 0.98199 0.89493 0.07344 0.0
C714 C 0.97451 0.90786 0.14653 0.0
C715 C 0.9858 0.89582 0.16841 0.0
C716 C 0.9948 0.88302 0.14263 0.0
C717 C 0.99285 0.88279 0.09545 0.0
C718 C 0.9648 0.92178 0.17281 0.0
C719 C 0.00681 0.86982 0.16478 0.0
H720 H 0.01696 0.91551 0.29421 0.0
H721 H 0.97338 0.88098 0.31822 0.0
H722 H 0.02149 0.90875 0.18032 0.0
H723 H 0.00644 0.92669 0.18237 0.0
H724 H 0.02434 0.92569 0.22214 0.0
H725 H 0.95562 0.87024 0.25989 0.0
H726 H 0.95391 0.88435 0.21118 0.0
H727 H 0.96823 0.86583 0.2096 0.0
H728 H 0.96431 0.91671 0.08263 0.0
H729 H 4e-05 0.8732 0.07574 0.0
H730 H 0.97434 0.93076 0.18913 0.0
H731 H 0.95693 0.91568 0.20014 0.0
H732 H 0.95592 0.92965 0.15103 0.0
H733 H 0.01801 0.8767 0.18086 0.0
H734 H 0.01206 0.86011 0.14029 0.0
H735 H -0.00029 0.86269 0.19187 0.0
C736 C 0.83986 0.25571 0.05226 0.0
C737 C 0.85076 0.24688 0.08291 0.0
C738 C 0.84124 0.25279 0.00563 0.0
C739 C 0.85401 0.24093 0.98912 0.0
C740 C 0.86502 0.23191 0.01985 0.0
C741 C 0.86317 0.23489 0.06647 0.0
C742 C 0.82906 0.26245 0.974 0.0
C743 C 0.8789 0.21931 0.00344 0.0
C744 C 0.84605 0.22278 0.87158 0.0
C745 C 0.8561 0.23415 0.84471 0.0
C746 C 0.84559 0.22457 0.91872 0.0
C747 C 0.85561 0.2379 0.93964 0.0
C748 C 0.86633 0.24899 0.91292 0.0
C749 C 0.86635 0.24707 0.8657 0.0
C750 C 0.83385 0.21262 0.94596 0.0
C751 C 0.87738 0.26321 0.93413 0.0
H752 H 0.8302 0.26495 0.06474 0.0
H753 H 0.87173 0.22813 0.08996 0.0
H754 H 0.83678 0.27073 0.95044 0.0
H755 H 0.82156 0.25294 0.95323 0.0
H756 H 0.81962 0.27097 0.99234 0.0
H757 H 0.88645 0.21339 0.03168 0.0
H758 H 0.87276 0.20863 0.98352 0.0
H759 H 0.88817 0.22623 0.98068 0.0
H760 H 0.83803 0.21279 0.85569 0.0
H761 H 0.87422 0.25584 0.84519 0.0
H762 H 0.82338 0.22045 0.96245 0.0
H763 H 0.84145 0.20613 0.97318 0.0
H764 H 0.82757 0.20234 0.92481 0.0
H765 H 0.86875 0.27324 0.94974 0.0
H766 H 0.88603 0.26979 0.90911 0.0
H767 H 0.88565 0.25764 0.96144 0.0
C768 C 0.50494 0.1139 0.80838 0.0
C769 C 0.4934 0.10105 0.82473 0.0
C770 C 0.50806 0.11573 0.76178 0.0
C771 C 0.49965 0.10426 0.73099 0.0
C772 C 0.48828 0.09104 0.74744 0.0
C773 C 0.48521 0.08968 0.79402 0.0
C774 C 0.52014 0.13008 0.74543 0.0
C775 C 0.47928 0.07837 0.7158 0.0
C776 C 0.49305 0.11588 0.60724 0.0
C777 C 0.50635 0.10607 0.58646 0.0
C778 C 0.49117 0.11602 0.65448 0.0
C779 C 0.50271 0.10591 0.68148 0.0
C780 C 0.51645 0.09637 0.66077 0.0
C781 C 0.51817 0.09666 0.61358 0.0
C782 C 0.47649 0.12654 0.67541 0.0
C783 C 0.5289 0.08527 0.68828 0.0
H784 H 0.51121 0.12281 0.83191 0.0
H785 H 0.47634 0.07966 0.80639 0.0
H786 H 0.53109 0.12436 0.72565 0.0
H787 H 0.51288 0.13905 0.72256 0.0
H788 H 0.52571 0.13788 0.77371 0.0
H789 H 0.47115 0.06858 0.73412 0.0
H790 H 0.47071 0.08565 0.69201 0.0
H791 H 0.48918 0.07128 0.69528 0.0
H792 H 0.48393 0.12326 0.58656 0.0
H793 H 0.52847 0.089 0.59786 0.0
H794 H 0.48168 0.13507 0.70268 0.0
H795 H 0.46678 0.11755 0.69102 0.0
H796 H 0.46961 0.13486 0.65022 0.0
H797 H 0.53495 0.0932 0.71555 0.0
H798 H 0.53952 0.07948 0.66733 0.0
H799 H 0.52155 0.07445 0.7047 0.0
C800 C 0.65898 0.73687 0.54057 0.0
C801 C 0.65 0.74764 0.57123 0.0
C802 C 0.65829 0.74008 0.49391 0.0
C803 C 0.64818 0.75427 0.4774 0.0
C804 C 0.63926 0.76535 0.50817 0.0
C805 C 0.64037 0.76197 0.55476 0.0
C806 C 0.66819 0.72811 0.46222 0.0
C807 C 0.62822 0.78051 0.49181 0.0
C808 C 0.65809 0.76985 0.35812 0.0
C809 C 0.64555 0.76064 0.33277 0.0
C810 C 0.65887 0.7682 0.40533 0.0
C811 C 0.64669 0.75724 0.42781 0.0
C812 C 0.6336 0.74841 0.40259 0.0
C813 C 0.63326 0.75013 0.35535 0.0
C814 C 0.67314 0.77768 0.43095 0.0
C815 C 0.62023 0.73679 0.42541 0.0
H816 H 0.66651 0.72582 0.55302 0.0
H817 H 0.6333 0.77029 0.57821 0.0
H818 H 0.65884 0.72125 0.43958 0.0
H819 H 0.67713 0.7359 0.4405 0.0
H820 H 0.67603 0.71811 0.48058 0.0
H821 H 0.62247 0.78815 0.52013 0.0
H822 H 0.63625 0.78946 0.47069 0.0
H823 H 0.6174 0.77554 0.47025 0.0
H824 H 0.66771 0.77793 0.34096 0.0
H825 H 0.62348 0.74303 0.33603 0.0
H826 H 0.68205 0.76798 0.44691 0.0
H827 H 0.66737 0.78567 0.4585 0.0
H828 H 0.68103 0.78639 0.40877 0.0
H829 H 0.62691 0.72541 0.44118 0.0
H830 H 0.6102 0.7318 0.4014 0.0
H831 H 0.61349 0.74408 0.45282 0.0
C832 C 0.97743 0.09004 0.37203 0.0
C833 C 0.98744 0.10168 0.3982 0.0
C834 C 0.97948 0.0892 0.32497 0.0
C835 C 0.99166 0.10044 0.30345 0.0
C836 C 0.0014 0.11262 0.32947 0.0
C837 C -0.00073 0.11299 0.37662 0.0
C838 C 0.96903 0.07588 0.29847 0.0
C839 C 0.01431 0.12501 0.30761 0.0
C840 C 0.01108 0.0868 0.19062 0.0
C841 C 0.00099 0.0966 0.16009 0.0
C842 C 0.008 0.08775 0.2373 0.0
C843 C 0.9947 0.09899 0.25392 0.0
C844 C 0.98441 0.10886 0.22328 0.0
C845 C 0.98759 0.10744 0.17668 0.0
C846 C 0.01906 0.0768 0.26887 0.0
C847 C 0.97026 0.12115 0.23978 0.0
H848 H 0.96834 0.08116 0.38846 0.0
H849 H 0.007 0.12206 0.39661 0.0
H850 H 0.96154 0.08247 0.27119 0.0
H851 H 0.97807 0.06641 0.28209 0.0
H852 H 0.9597 0.06848 0.3201 0.0
H853 H 0.02005 0.1344 0.33222 0.0
H854 H 0.02512 0.11743 0.29188 0.0
H855 H 0.00779 0.13254 0.28029 0.0
H856 H 0.02142 0.07835 0.17802 0.0
H857 H 0.97984 0.11517 0.15331 0.0
H858 H 0.01051 0.06838 0.2901 0.0
H859 H 0.02654 0.08546 0.29201 0.0
H860 H 0.02848 0.06829 0.25044 0.0
H861 H 0.96047 0.11383 0.26009 0.0
H862 H 0.96336 0.12784 0.21156 0.0
H863 H 0.97609 0.13126 0.26217 0.0
C864 C 0.65313 0.22583 0.12707 0.0
C865 C 0.64315 0.23726 0.15394 0.0
C866 C 0.65365 0.22768 0.07997 0.0
C867 C 0.64375 0.24112 0.05913 0.0
C868 C 0.63318 0.25233 0.08586 0.0
C869 C 0.63311 0.25035 0.13306 0.0
C870 C 0.66527 0.21563 0.05268 0.0
C871 C 0.62224 0.26665 0.0647 0.0
C872 C 0.65927 0.2586 0.94601 0.0
C873 C 0.64822 0.24976 0.91576 0.0
C874 C 0.65803 0.25578 0.99271 0.0
C875 C 0.64524 0.24403 0.00962 0.0
C876 C 0.63406 0.23503 0.97928 0.0
C877 C 0.63578 0.23789 0.93261 0.0
C878 C 0.6704 0.26539 0.02394 0.0
C879 C 0.62012 0.22258 0.99617 0.0
H880 H 0.661 0.21572 0.14295 0.0
H881 H 0.62531 0.25916 0.1536 0.0
H882 H 0.65755 0.20908 0.02578 0.0
H883 H 0.6757 0.22339 0.03578 0.0
H884 H 0.6716 0.20539 0.07387 0.0
H885 H 0.61378 0.27341 0.08981 0.0
H886 H 0.63095 0.27651 0.04869 0.0
H887 H 0.6138 0.26112 0.03769 0.0
H888 H 0.66896 0.26774 0.93317 0.0
H889 H 0.6271 0.23114 0.90938 0.0
H890 H 0.67788 0.25585 0.0447 0.0
H891 H 0.66284 0.27379 0.04753 0.0
H892 H 0.67987 0.27378 0.00528 0.0
H893 H 0.62624 0.21187 0.01603 0.0
H894 H 0.61242 0.21668 0.96818 0.0
H895 H 0.611 0.22961 0.01909 0.0
C896 C 0.51445 0.88735 0.69925 0.0
C897 C 0.5015 0.89884 0.68314 0.0
C898 C 0.5179 0.88586 0.74577 0.0
C899 C 0.50835 0.89628 0.77682 0.0
C900 C 0.49553 0.90815 0.76064 0.0
C901 C 0.49218 0.9092 0.71409 0.0
C902 C 0.53154 0.87292 0.76177 0.0
C903 C 0.48522 0.91968 0.79256 0.0
C904 C 0.5032 0.88323 0.90013 0.0
C905 C 0.51536 0.89431 0.92139 0.0
C906 C 0.50127 0.88323 0.85291 0.0
C907 C 0.51158 0.89476 0.82634 0.0
C908 C 0.52421 0.9056 0.84748 0.0
C909 C 0.52602 0.90517 0.89469 0.0
C910 C 0.48782 0.8713 0.83156 0.0
C911 C 0.53533 0.9182 0.82044 0.0
H912 H 0.52162 0.87921 0.67558 0.0
H913 H 0.48221 0.91817 0.70194 0.0
H914 H 0.54176 0.87977 0.78178 0.0
H915 H 0.52535 0.86308 0.78432 0.0
H916 H 0.53798 0.86594 0.7333 0.0
H917 H 0.4761 0.9286 0.77445 0.0
H918 H 0.47748 0.91143 0.81614 0.0
H919 H 0.49431 0.92771 0.81328 0.0
H920 H 0.49497 0.87474 0.92046 0.0
H921 H 0.5354 0.91384 0.91078 0.0
H922 H 0.4939 0.86352 0.80402 0.0
H923 H 0.4772 0.87927 0.81624 0.0
H924 H 0.48187 0.86214 0.85643 0.0
H925 H 0.54219 0.91115 0.79283 0.0
H926 H 0.54525 0.92499 0.84162 0.0
H927 H 0.5268 0.92823 0.80447 0.0
C928 C 0.86179 0.74944 0.658 0.0
C929 C 0.84931 0.75993 0.67999 0.0
C930 C 0.86147 0.7473 0.61087 0.0
C931 C 0.84824 0.75567 0.58514 0.0
C932 C 0.83584 0.76657 0.60701 0.0
C933 C 0.83658 0.76865 0.65413 0.0
C934 C 0.87506 0.73573 0.58873 0.0
C935 C 0.82144 0.7756 0.58082 0.0
C936 C 0.85495 0.75996 0.45822 0.0
C937 C 0.84558 0.74544 0.44184 0.0
C938 C 0.85584 0.76353 0.50473 0.0
C939 C 0.84698 0.75245 0.53559 0.0
C940 C 0.83717 0.73801 0.5192 0.0
C941 C 0.83668 0.73463 0.47258 0.0
C942 C 0.86655 0.77896 0.52093 0.0
C943 C 0.82737 0.726 0.55098 0.0
H944 H 0.8717 0.74271 0.67769 0.0
H945 H 0.82682 0.7767 0.67083 0.0
H946 H 0.86858 0.72421 0.5731 0.0
H947 H 0.88182 0.743 0.56129 0.0
H948 H 0.88506 0.73097 0.61312 0.0
H949 H 0.81326 0.78421 0.60257 0.0
H950 H 0.82712 0.78362 0.55319 0.0
H951 H 0.81281 0.76564 0.56491 0.0
H952 H 0.86194 0.76834 0.43475 0.0
H953 H 0.82935 0.72343 0.46024 0.0
H954 H 0.87732 0.77429 0.54308 0.0
H955 H 0.85826 0.78789 0.54141 0.0
H956 H 0.87234 0.78654 0.49255 0.0
H957 H 0.83675 0.71944 0.57412 0.0
H958 H 0.81981 0.71576 0.53273 0.0
H959 H 0.81818 0.73372 0.57218 0.0
C960 C 0.48231 0.58455 0.19624 0.0
C961 C 0.49187 0.59538 0.16694 0.0
C962 C 0.4849 0.58534 0.24313 0.0
C963 C 0.49709 0.59749 0.26109 0.0
C964 C 0.50673 0.6085 0.23168 0.0
C965 C 0.50413 0.6072 0.18488 0.0
C966 C 0.47462 0.57315 0.27343 0.0
C967 C 0.51965 0.62179 0.24967 0.0
C968 C 0.49186 0.61008 0.38456 0.0
C969 C 0.50502 0.59998 0.40495 0.0
C970 C 0.48929 0.60962 0.33759 0.0
C971 C 0.49991 0.59852 0.31067 0.0
C972 C 0.51318 0.58827 0.33113 0.0
C973 C 0.51568 0.58925 0.37796 0.0
C974 C 0.47521 0.62096 0.31678 0.0
C975 C 0.52456 0.57606 0.30364 0.0
H976 H 0.47286 0.57537 0.18249 0.0
H977 H 0.51142 0.61573 0.1624 0.0
H978 H 0.48375 0.5651 0.29399 0.0
H979 H 0.46647 0.58087 0.29726 0.0
H980 H 0.46591 0.56423 0.25403 0.0
H981 H 0.52586 0.6296 0.2223 0.0
H982 H 0.51292 0.6309 0.27323 0.0
H983 H 0.53012 0.61507 0.26909 0.0
H984 H 0.48363 0.61843 0.40529 0.0
H985 H 0.52577 0.58127 0.39359 0.0
H986 H 0.46528 0.6126 0.29984 0.0
H987 H 0.48102 0.62958 0.29053 0.0
H988 H 0.46847 0.62928 0.34222 0.0
H989 H 0.51624 0.56635 0.28574 0.0
H990 H 0.53421 0.56887 0.32482 0.0
H991 H 0.53181 0.58357 0.27752 0.0
C992 C 0.65864 0.23575 0.44604 0.0
C993 C 0.64868 0.24585 0.41589 0.0
C994 C 0.65792 0.23879 0.49274 0.0
C995 C 0.64676 0.25209 0.50974 0.0
C996 C 0.63672 0.26238 0.4795 0.0
C997 C 0.6379 0.25923 0.43287 0.0
C998 C 0.66903 0.22772 0.52391 0.0
C999 C 0.62454 0.27654 0.49646 0.0
C1000 C 0.63342 0.24762 0.63285 0.0
C1001 C 0.64488 0.25944 0.65395 0.0
C1002 C 0.63355 0.24545 0.58574 0.0
C1003 C 0.64561 0.25514 0.55926 0.0
C1004 C 0.65701 0.26729 0.5803 0.0
C1005 C 0.65643 0.26938 0.62735 0.0
C1006 C 0.62102 0.23255 0.56439 0.0
C1007 C 0.6702 0.27771 0.55325 0.0
H1008 H 0.66705 0.22544 0.43312 0.0
H1009 H 0.63007 0.267 0.40977 0.0
H1010 H 0.67762 0.23626 0.5447 0.0
H1011 H 0.66049 0.2203 0.54748 0.0
H1012 H 0.67738 0.21825 0.50518 0.0
H1013 H 0.61766 0.28341 0.46851 0.0
H1014 H 0.61458 0.27073 0.51935 0.0
H1015 H 0.632 0.28635 0.51637 0.0
H1016 H 0.62442 0.23995 0.65319 0.0
H1017 H 0.66541 0.27847 0.64342 0.0
H1018 H 0.6285 0.22174 0.54832 0.0
H1019 H 0.61331 0.23908 0.5374 0.0
H1020 H 0.61178 0.2268 0.58938 0.0
H1021 H 0.67954 0.26866 0.53647 0.0
H1022 H 0.67776 0.28702 0.57458 0.0
H1023 H 0.66346 0.28523 0.52626 0.0
C1024 C 0.00933 0.40867 0.70471 0.0
C1025 C -0.00088 0.39863 0.675 0.0
C1026 C 0.00659 0.40789 0.75152 0.0
C1027 C 0.99353 0.39658 0.76902 0.0
C1028 C 0.98322 0.38635 0.73923 0.0
C1029 C 0.98604 0.38762 0.69249 0.0
C1030 C 0.01762 0.41923 0.78223 0.0
C1031 C 0.96935 0.37396 0.75675 0.0
C1032 C 0.99787 0.38395 0.89267 0.0
C1033 C 0.98567 0.39522 0.913 0.0
C1034 C 0.00027 0.38394 0.84563 0.0
C1035 C 0.99047 0.3957 0.81853 0.0
C1036 C 0.97804 0.40698 0.83885 0.0
C1037 C 0.97568 0.4065 0.88579 0.0
C1038 C 0.01344 0.37151 0.82497 0.0
C1039 C 0.96753 0.41989 0.81115 0.0
H1040 H 0.01943 0.41724 0.69134 0.0
H1041 H 0.97823 0.3797 0.66969 0.0
H1042 H 0.00903 0.42791 0.80266 0.0
H1043 H 0.02508 0.41089 0.80617 0.0
H1044 H 0.02705 0.42752 0.76317 0.0
H1045 H 0.9627 0.36667 0.72913 0.0
H1046 H 0.97534 0.36436 0.78032 0.0
H1047 H 0.95931 0.38136 0.77605 0.0
H1048 H 0.00557 0.37516 0.91354 0.0
H1049 H 0.96632 0.41535 0.9013 0.0
H1050 H 0.02412 0.37907 0.80856 0.0
H1051 H 0.00708 0.36348 0.79834 0.0
H1052 H 0.01935 0.36258 0.85044 0.0
H1053 H 0.97652 0.42911 0.7937 0.0
H1054 H 0.95822 0.4276 0.83211 0.0
H1055 H 0.95999 0.41288 0.78466 0.0
C1056 C 0.86296 0.74897 0.15924 0.0
C1057 C 0.85407 0.73506 0.18016 0.0
C1058 C 0.86304 0.75075 0.11197 0.0
C1059 C 0.85385 0.73843 0.08506 0.0
C1060 C 0.84532 0.72408 0.10589 0.0
C1061 C 0.84561 0.72251 0.15312 0.0
C1062 C 0.87247 0.76613 0.09092 0.0
C1063 C 0.83522 0.71077 0.07846 0.0
C1064 C 0.83635 0.7546 0.97252 0.0
C1065 C 0.84834 0.74734 0.9418 0.0
C1066 C 0.83793 0.75163 0.01908 0.0
C1067 C 0.85198 0.74131 0.03553 0.0
C1068 C 0.86407 0.73381 0.00474 0.0
C1069 C 0.86204 0.73682 0.95814 0.0
C1070 C 0.82459 0.75964 0.05071 0.0
C1071 C 0.87929 0.72287 0.0211 0.0
H1072 H 0.86961 0.75867 0.17984 0.0
H1073 H 0.83869 0.71172 0.16891 0.0
H1074 H 0.88136 0.76155 0.06369 0.0
H1075 H 0.86279 0.77513 0.07527 0.0
H1076 H 0.88027 0.77363 0.11606 0.0
H1077 H 0.83031 0.69974 0.09947 0.0
H1078 H 0.82384 0.71723 0.06208 0.0
H1079 H 0.8436 0.70536 0.05117 0.0
H1080 H 0.82568 0.76268 0.96016 0.0
H1081 H 0.87141 0.73127 0.93462 0.0
H1082 H 0.83121 0.76875 0.07447 0.0
H1083 H 0.81827 0.74924 0.07125 0.0
H1084 H 0.81421 0.76699 0.03239 0.0
H1085 H 0.88772 0.7308 0.04382 0.0
H1086 H 0.88745 0.71784 0.99282 0.0
H1087 H 0.87441 0.71156 0.04105 0.0
C1088 C 0.52245 0.39891 0.10741 0.0
C1089 C 0.51043 0.38947 0.08094 0.0
C1090 C 0.52115 0.39916 0.15471 0.0
C1091 C 0.50755 0.38966 0.17619 0.0
C1092 C 0.49586 0.37946 0.14985 0.0
C1093 C 0.4974 0.37953 0.10252 0.0
C1094 C 0.53382 0.41026 0.18153 0.0
C1095 C 0.48128 0.36904 0.17153 0.0
C1096 C 0.50967 0.38232 0.30346 0.0
C1097 C 0.49826 0.39539 0.3193 0.0
C1098 C 0.51287 0.38027 0.25693 0.0
C1099 C 0.50461 0.39165 0.22568 0.0
C1100 C 0.49336 0.40506 0.2416 0.0
C1101 C 0.49028 0.40671 0.2881 0.0
C1102 C 0.52488 0.36576 0.24116 0.0
C1103 C 0.48443 0.41761 0.20945 0.0
H1104 H 0.5326 0.40661 0.09113 0.0
H1105 H 0.48811 0.37213 0.08241 0.0
H1106 H 0.52667 0.42136 0.19731 0.0
H1107 H 0.53974 0.40247 0.20925 0.0
H1108 H 0.54452 0.41567 0.16018 0.0
H1109 H 0.47435 0.36052 0.14685 0.0
H1110 H 0.48655 0.36071 0.19912 0.0
H1111 H 0.47159 0.37812 0.18685 0.0
H1112 H 0.51582 0.37347 0.32733 0.0
H1113 H 0.48151 0.41691 0.29999 0.0
H1114 H 0.53578 0.3713 0.22083 0.0
H1115 H 0.51754 0.35662 0.21897 0.0
H1116 H 0.53052 0.3582 0.26977 0.0
H1117 H 0.49437 0.42452 0.18866 0.0
H1118 H 0.47636 0.42755 0.22737 0.0
H1119 H 0.47582 0.41023 0.18596 0.0
C1120 C 0.84254 0.26801 0.37111 0.0
C1121 C 0.85392 0.25777 0.34475 0.0
C1122 C 0.84186 0.26606 0.41822 0.0
C1123 C 0.85298 0.25374 0.43959 0.0
C1124 C 0.8649 0.24376 0.41336 0.0
C1125 C 0.86515 0.24582 0.36621 0.0
C1126 C 0.82886 0.27681 0.44497 0.0
C1127 C 0.87713 0.23065 0.43503 0.0
C1128 C 0.86055 0.2576 0.56617 0.0
C1129 C 0.84947 0.24444 0.58301 0.0
C1130 C 0.86184 0.26079 0.51955 0.0
C1131 C 0.85163 0.25074 0.48914 0.0
C1132 C 0.84015 0.23769 0.50601 0.0
C1133 C 0.83929 0.23463 0.5527 0.0
C1134 C 0.87435 0.2747 0.50277 0.0
C1135 C 0.82886 0.22687 0.47469 0.0
H1136 H 0.83375 0.27722 0.35482 0.0
H1137 H 0.87403 0.23792 0.3461 0.0
H1138 H 0.81923 0.26799 0.46154 0.0
H1139 H 0.83569 0.28415 0.47212 0.0
H1140 H 0.8216 0.28629 0.42347 0.0
H1141 H 0.88632 0.2247 0.41026 0.0
H1142 H 0.88488 0.23705 0.46213 0.0
H1143 H 0.86939 0.22 0.45103 0.0
H1144 H 0.86855 0.26516 0.58935 0.0
H1145 H 0.83065 0.22448 0.56547 0.0
H1146 H 0.86715 0.28461 0.48254 0.0
H1147 H 0.8843 0.26867 0.48024 0.0
H1148 H 0.88124 0.28149 0.53084 0.0
H1149 H 0.82053 0.23558 0.4537 0.0
H1150 H 0.82023 0.21761 0.4933 0.0
H1151 H 0.83729 0.21923 0.45132 0.0
C1152 C 0.00925 0.58851 0.8149 0.0
C1153 C 0.00042 0.59961 0.84507 0.0
C1154 C 0.00649 0.5897 0.76819 0.0
C1155 C 0.99475 0.60245 0.75108 0.0
C1156 C 0.98554 0.61351 0.78134 0.0
C1157 C 0.9884 0.61188 0.82808 0.0
C1158 C 0.01637 0.57748 0.73708 0.0
C1159 C 0.97302 0.62733 0.76427 0.0
C1160 C 0.00274 0.61522 0.62874 0.0
C1161 C 0.99023 0.60498 0.60615 0.0
C1162 C 0.0039 0.61506 0.67611 0.0
C1163 C 0.9924 0.60426 0.7014 0.0
C1164 C 0.97944 0.59427 0.67887 0.0
C1165 C 0.97846 0.59482 0.63157 0.0
C1166 C 0.01778 0.62604 0.69901 0.0
C1167 C 0.96704 0.58248 0.7046 0.0
H1168 H 0.01849 0.57893 0.8278 0.0
H1169 H 0.98163 0.62058 0.8512 0.0
H1170 H 0.00703 0.5702 0.71528 0.0
H1171 H 0.02507 0.58517 0.7145 0.0
H1172 H 0.0245 0.56785 0.7559 0.0
H1173 H 0.96648 0.63453 0.79223 0.0
H1174 H 0.98022 0.63691 0.74299 0.0
H1175 H 0.9628 0.62125 0.74269 0.0
H1176 H 0.01182 0.62318 0.60938 0.0
H1177 H 0.96875 0.58683 0.61445 0.0
H1178 H 0.02755 0.61736 0.71546 0.0
H1179 H 0.01179 0.63423 0.7259 0.0
H1180 H 0.02476 0.63476 0.67489 0.0
H1181 H 0.97458 0.57184 0.72127 0.0
H1182 H 0.95699 0.57643 0.68233 0.0
H1183 H 0.96028 0.58996 0.7316 0.0
C1184 C 0.65971 0.75336 0.04112 0.0
C1185 C 0.64742 0.7464 0.0715 0.0
C1186 C 0.65808 0.75068 0.99447 0.0
C1187 C 0.64367 0.74098 0.97761 0.0
C1188 C 0.63133 0.73369 0.00809 0.0
C1189 C 0.63343 0.73638 0.0548 0.0
C1190 C 0.6717 0.75842 0.96318 0.0
C1191 C 0.61572 0.72341 0.99128 0.0
C1192 C 0.63302 0.75021 0.85445 0.0
C1193 C 0.64142 0.73619 0.83272 0.0
C1194 C 0.63294 0.75151 0.90183 0.0
C1195 C 0.64165 0.73861 0.92797 0.0
C1196 C 0.64966 0.72415 0.90627 0.0
C1197 C 0.64936 0.72307 0.85898 0.0
C1198 C 0.62407 0.76702 0.92382 0.0
C1199 C 0.65924 0.71022 0.93288 0.0
H1200 H 0.67061 0.76104 0.05381 0.0
H1201 H 0.62382 0.73109 0.07811 0.0
H1202 H 0.67754 0.74796 0.94192 0.0
H1203 H 0.66544 0.76802 0.94008 0.0
H1204 H 0.6824 0.76515 0.98183 0.0
H1205 H 0.60751 0.71831 0.01937 0.0
H1206 H 0.60746 0.73187 0.96942 0.0
H1207 H 0.62016 0.7122 0.97032 0.0
H1208 H 0.62676 0.76034 0.83445 0.0
H1209 H 0.6559 0.71218 0.84254 0.0
H1210 H 0.63407 0.77554 0.93993 0.0
H1211 H 0.61504 0.76252 0.95084 0.0
H1212 H 0.61652 0.775 0.89917 0.0
H1213 H 0.67089 0.71609 0.94949 0.0
H1214 H 0.66368 0.69918 0.91121 0.0
H1215 H 0.65069 0.70493 0.95996 0.0
C1216 C 0.48325 0.3865 0.8031 0.0
C1217 C 0.49674 0.39722 0.81977 0.0
C1218 C 0.47977 0.3855 0.7565 0.0
C1219 C 0.48993 0.39557 0.72596 0.0
C1220 C 0.50327 0.40673 0.74271 0.0
C1221 C 0.50655 0.40737 0.78931 0.0
C1222 C 0.46549 0.37341 0.73987 0.0
C1223 C 0.51429 0.4178 0.71131 0.0
C1224 C 0.49546 0.38213 0.60318 0.0
C1225 C 0.48425 0.39393 0.58104 0.0
C1226 C 0.49692 0.38207 0.65048 0.0
C1227 C 0.48703 0.39419 0.6763 0.0
C1228 C 0.47529 0.40575 0.65429 0.0
C1229 C 0.47399 0.40544 0.60695 0.0
C1230 C 0.50949 0.36944 0.67273 0.0
C1231 C 0.46459 0.41892 0.68059 0.0
H1232 H 0.47565 0.37857 0.82637 0.0
H1233 H 0.51694 0.41576 0.80184 0.0
H1234 H 0.45592 0.38081 0.71905 0.0
H1235 H 0.47126 0.36311 0.71793 0.0
H1236 H 0.45836 0.36694 0.76805 0.0
H1237 H 0.5237 0.42628 0.72987 0.0
H1238 H 0.5218 0.40921 0.68804 0.0
H1239 H 0.50574 0.42626 0.69024 0.0
H1240 H 0.50337 0.37312 0.5835 0.0
H1241 H 0.4653 0.41462 0.59019 0.0
H1242 H 0.50271 0.36197 0.69975 0.0
H1243 H 0.52034 0.37684 0.68888 0.0
H1244 H 0.51522 0.35999 0.64826 0.0
H1245 H 0.45719 0.41227 0.70796 0.0
H1246 H 0.45516 0.42613 0.6588 0.0
H1247 H 0.47346 0.42857 0.69684 0.0
C1248 C 0.34531 0.72493 0.37338 0.0
C1249 C 0.3559 0.73594 0.34688 0.0
C1250 C 0.345 0.72647 0.42063 0.0
C1251 C 0.35567 0.73919 0.44198 0.0
C1252 C 0.36691 0.74986 0.41558 0.0
C1253 C 0.36682 0.74818 0.36832 0.0
C1254 C 0.33271 0.71496 0.44754 0.0
C1255 C 0.37864 0.76344 0.43718 0.0
C1256 C 0.34105 0.75785 0.55472 0.0
C1257 C 0.35171 0.74868 0.58529 0.0
C1258 C 0.34206 0.75468 0.50812 0.0
C1259 C 0.35418 0.74218 0.49153 0.0
C1260 C 0.36487 0.73274 0.52219 0.0
C1261 C 0.36343 0.73602 0.56879 0.0
C1262 C 0.33025 0.76484 0.4766 0.0
C1263 C 0.37805 0.71943 0.50569 0.0
H1264 H 0.33679 0.71546 0.35714 0.0
H1265 H 0.37511 0.75666 0.34812 0.0
H1266 H 0.33997 0.70814 0.47486 0.0
H1267 H 0.32252 0.72319 0.46388 0.0
H1268 H 0.32609 0.70498 0.42616 0.0
H1269 H 0.38761 0.76969 0.41235 0.0
H1270 H 0.3705 0.77382 0.453 0.0
H1271 H 0.38662 0.75738 0.46437 0.0
H1272 H 0.3319 0.76758 0.5672 0.0
H1273 H 0.37178 0.72897 0.5922 0.0
H1274 H 0.32237 0.75567 0.45576 0.0
H1275 H 0.33829 0.77284 0.45311 0.0
H1276 H 0.32116 0.7737 0.49503 0.0
H1277 H 0.37138 0.70918 0.48541 0.0
H1278 H 0.38519 0.71299 0.53392 0.0
H1279 H 0.38776 0.7259 0.48327 0.0
C1280 C 0.02613 0.59602 0.13183 0.0
C1281 C 0.01479 0.60641 0.10575 0.0
C1282 C 0.02488 0.5957 0.17912 0.0
C1283 C 0.01211 0.60617 0.20096 0.0
C1284 C 0.00114 0.61727 0.175 0.0
C1285 C 0.00254 0.61719 0.12767 0.0
C1286 C 0.03671 0.58357 0.20554 0.0
C1287 C 0.9875 0.62877 0.19713 0.0
C1288 C 0.99405 0.59078 0.31362 0.0
C1289 C 0.00317 0.60141 0.34432 0.0
C1290 C 0.99704 0.59206 0.26701 0.0
C1291 C 0.0093 0.60445 0.25053 0.0
C1292 C 0.01869 0.61513 0.28131 0.0
C1293 C 0.0156 0.6134 0.32794 0.0
C1294 C 0.98694 0.58023 0.23535 0.0
C1295 C 0.03173 0.62859 0.26492 0.0
H1296 H 0.03562 0.58763 0.11524 0.0
H1297 H 0.9938 0.62533 0.10781 0.0
H1298 H 0.04345 0.59086 0.23293 0.0
H1299 H 0.02873 0.57315 0.22174 0.0
H1300 H 0.04678 0.57724 0.18384 0.0
H1301 H 0.98111 0.63778 0.17265 0.0
H1302 H 0.97723 0.62045 0.21284 0.0
H1303 H 0.99353 0.63668 0.22448 0.0
H1304 H 0.98449 0.58142 0.32604 0.0
H1305 H 0.0226 0.62174 0.35147 0.0
H1306 H 0.99617 0.57258 0.21409 0.0
H1307 H 0.97875 0.58825 0.21226 0.0
H1308 H 0.97827 0.57094 0.2537 0.0
H1309 H 0.04201 0.62219 0.24414 0.0
H1310 H 0.03816 0.63569 0.29322 0.0
H1311 H 0.02502 0.6383 0.24298 0.0
C1312 C 0.15558 0.26805 0.86942 0.0
C1313 C 0.14457 0.25768 0.84241 0.0
C1314 C 0.1565 0.26551 0.91627 0.0
C1315 C 0.14589 0.25253 0.93674 0.0
C1316 C 0.13445 0.24227 0.90982 0.0
C1317 C 0.13407 0.24485 0.86283 0.0
C1318 C 0.16909 0.27648 0.94372 0.0
C1319 C 0.1227 0.22852 0.93063 0.0
C1320 C 0.15959 0.23419 0.05069 0.0
C1321 C 0.14915 0.244 0.08037 0.0
C1322 C 0.15877 0.23694 0.00385 0.0
C1323 C 0.14696 0.24954 0.9863 0.0
C1324 C 0.13634 0.25944 0.0161 0.0
C1325 C 0.13769 0.25667 0.06284 0.0
C1326 C 0.17056 0.22638 0.97317 0.0
C1327 C 0.12339 0.2728 0.99857 0.0
H1328 H 0.16387 0.27788 0.85378 0.0
H1329 H 0.1255 0.23685 0.84209 0.0
H1330 H 0.16185 0.28383 0.97016 0.0
H1331 H 0.17863 0.26785 0.96123 0.0
H1332 H 0.17646 0.286 0.92258 0.0
H1333 H 0.11405 0.22216 0.90526 0.0
H1334 H 0.13078 0.21825 0.94711 0.0
H1335 H 0.11439 0.23452 0.95724 0.0
H1336 H 0.16851 0.22441 0.06411 0.0
H1337 H 0.12945 0.26417 0.08561 0.0
H1338 H 0.17882 0.23531 0.95256 0.0
H1339 H 0.16253 0.21851 0.9494 0.0
H1340 H 0.17929 0.21737 0.99227 0.0
H1341 H 0.13037 0.2831 0.97917 0.0
H1342 H 0.11585 0.27917 0.02619 0.0
H1343 H 0.11401 0.2664 0.97509 0.0
C1344 C 0.48797 0.60876 0.68476 0.0
C1345 C 0.50128 0.59799 0.66745 0.0
C1346 C 0.48508 0.61004 0.73147 0.0
C1347 C 0.49552 0.60004 0.76143 0.0
C1348 C 0.50888 0.58903 0.74412 0.0
C1349 C 0.51172 0.58827 0.69732 0.0
C1350 C 0.47091 0.62215 0.74875 0.0
C1351 C 0.52006 0.57791 0.775 0.0
C1352 C 0.49882 0.61254 0.88544 0.0
C1353 C 0.48664 0.60108 0.90509 0.0
C1354 C 0.50159 0.61264 0.83851 0.0
C1355 C 0.4922 0.60073 0.81087 0.0
C1356 C 0.47983 0.5892 0.83054 0.0
C1357 C 0.47708 0.58963 0.87734 0.0
C1358 C 0.51464 0.62535 0.81856 0.0
C1359 C 0.46978 0.57611 0.80229 0.0
H1360 H 0.47998 0.61645 0.66182 0.0
H1361 H 0.52199 0.57989 0.68406 0.0
H1362 H 0.46085 0.6145 0.76733 0.0
H1363 H 0.47659 0.63172 0.77292 0.0
H1364 H 0.46435 0.62948 0.72107 0.0
H1365 H 0.52982 0.56994 0.75611 0.0
H1366 H 0.52716 0.58637 0.79938 0.0
H1367 H 0.5116 0.56894 0.79493 0.0
H1368 H 0.5062 0.62145 0.90675 0.0
H1369 H 0.46775 0.58062 0.89237 0.0
H1370 H 0.50827 0.63334 0.79184 0.0
H1371 H 0.52554 0.61804 0.80239 0.0
H1372 H 0.52024 0.63432 0.84439 0.0
H1373 H 0.46217 0.583 0.77575 0.0
H1374 H 0.46059 0.56808 0.82282 0.0
H1375 H 0.47908 0.56718 0.78489 0.0
C1376 C 0.13642 0.73757 0.43076 0.0
C1377 C 0.14777 0.75041 0.41351 0.0
C1378 C 0.1351 0.73463 0.47745 0.0
C1379 C 0.14561 0.74455 0.50744 0.0
C1380 C 0.15722 0.75741 0.49018 0.0
C1381 C 0.15804 0.76029 0.44342 0.0
C1382 C 0.12239 0.72099 0.4947 0.0
C1383 C 0.16886 0.76804 0.52109 0.0
C1384 C 0.13349 0.74864 0.63151 0.0
C1385 C 0.1446 0.73615 0.65126 0.0
C1386 C 0.13334 0.75121 0.58452 0.0
C1387 C 0.14478 0.74126 0.55687 0.0
C1388 C 0.15586 0.7285 0.57659 0.0
C1389 C 0.15553 0.726 0.62349 0.0
C1390 C 0.12114 0.76474 0.56453 0.0
C1391 C 0.16842 0.71781 0.54829 0.0
H1392 H 0.12832 0.73001 0.40782 0.0
H1393 H 0.16688 0.77019 0.43024 0.0
H1394 H 0.12959 0.71065 0.51341 0.0
H1395 H 0.11303 0.72708 0.51874 0.0
H1396 H 0.11483 0.71471 0.46698 0.0
H1397 H 0.17727 0.77742 0.50223 0.0
H1398 H 0.16073 0.77552 0.54548 0.0
H1399 H 0.17742 0.75917 0.54099 0.0
H1400 H 0.12497 0.75647 0.65279 0.0
H1401 H 0.16424 0.7164 0.63854 0.0
H1402 H 0.11293 0.75869 0.53776 0.0
H1403 H 0.12888 0.77535 0.54842 0.0
H1404 H 0.11237 0.77067 0.59034 0.0
H1405 H 0.16115 0.71061 0.52165 0.0
H1406 H 0.17594 0.7082 0.56878 0.0
H1407 H 0.17784 0.72665 0.53101 0.0
C1408 C 0.9831 0.41025 0.20471 0.0
C1409 C 0.99221 0.39924 0.17494 0.0
C1410 C 0.98573 0.40913 0.25151 0.0
C1411 C 0.99751 0.39648 0.26892 0.0
C1412 C 0.0067 0.38527 0.23906 0.0
C1413 C 0.00406 0.3869 0.19234 0.0
C1414 C 0.97594 0.42154 0.2823 0.0
C1415 C 0.01917 0.37146 0.2565 0.0
C1416 C 0.01621 0.40438 0.38575 0.0
C1417 C 0.00507 0.39419 0.41288 0.0
C1418 C 0.01397 0.40513 0.33882 0.0
C1419 C 0.00043 0.39522 0.31841 0.0
C1420 C 0.98943 0.38453 0.34541 0.0
C1421 C 0.99179 0.38426 0.39247 0.0
C1422 C 0.0258 0.41687 0.31121 0.0
C1423 C 0.97503 0.37358 0.32464 0.0
H1424 H 0.97397 0.41984 0.19138 0.0
H1425 H 0.011 0.37823 0.16947 0.0
H1426 H 0.96763 0.41399 0.30615 0.0
H1427 H 0.98539 0.42923 0.30281 0.0
H1428 H 0.96745 0.4308 0.2633 0.0
H1429 H 0.02503 0.36355 0.22882 0.0
H1430 H 0.02992 0.37772 0.27591 0.0
H1431 H 0.01218 0.36251 0.27994 0.0
H1432 H 0.02644 0.41219 0.40131 0.0
H1433 H 0.98319 0.37631 0.41326 0.0
H1434 H 0.01785 0.42702 0.29381 0.0
H1435 H 0.03256 0.40912 0.28469 0.0
H1436 H 0.03587 0.42353 0.33222 0.0
H1437 H 0.96521 0.38223 0.30829 0.0
H1438 H 0.96822 0.36528 0.35003 0.0
H1439 H 0.98053 0.36496 0.29795 0.0
C1440 C 0.36258 0.25423 0.16324 0.0
C1441 C 0.35179 0.26619 0.1862 0.0
C1442 C 0.36271 0.25344 0.1158 0.0
C1443 C 0.35174 0.26482 0.09065 0.0
C1444 C 0.34139 0.27741 0.11353 0.0
C1445 C 0.34155 0.27796 0.16098 0.0
C1446 C 0.37403 0.23989 0.09269 0.0
C1447 C 0.32949 0.28975 0.088 0.0
C1448 C 0.3593 0.26818 0.96351 0.0
C1449 C 0.34715 0.25593 0.94701 0.0
C1450 C 0.3608 0.27147 0.01017 0.0
C1451 C 0.34984 0.26236 0.04091 0.0
C1452 C 0.33722 0.25038 0.02426 0.0
C1453 C 0.33606 0.24729 0.97766 0.0
C1454 C 0.37442 0.28433 0.02667 0.0
C1455 C 0.32515 0.2405 0.05577 0.0
H1456 H 0.37061 0.24515 0.18234 0.0
H1457 H 0.3332 0.28729 0.17832 0.0
H1458 H 0.36555 0.22989 0.07639 0.0
H1459 H 0.38199 0.24608 0.06568 0.0
H1460 H 0.38298 0.23314 0.11666 0.0
H1461 H 0.3236 0.29988 0.11033 0.0
H1462 H 0.33682 0.29641 0.06053 0.0
H1463 H 0.31872 0.28218 0.07199 0.0
H1464 H 0.36795 0.27487 0.94009 0.0
H1465 H 0.32655 0.23788 0.96529 0.0
H1466 H 0.38429 0.27738 0.04759 0.0
H1467 H 0.36821 0.29441 0.04848 0.0
H1468 H 0.38129 0.29102 0.99841 0.0
H1469 H 0.33299 0.23201 0.07858 0.0
H1470 H 0.31561 0.23213 0.0373 0.0
H1471 H 0.31776 0.24983 0.07732 0.0
C1472 C 0.0021 0.03383 0.03007 0.0
C1473 C 0.01797 0.04084 0.01462 0.0
C1474 C 0.99746 0.01646 0.02015 0.0
C1475 C 0.00869 0.00615 0.9928 0.0
C1476 C 0.02479 0.01316 0.97736 0.0
C1477 C 0.02938 0.03038 0.9891 0.0
C1478 C 0.98041 0.00925 0.03832 0.0
C1479 C 0.03684 0.00275 0.947 0.0
C1480 C 0.00181 0.95685 0.99105 0.0
C1481 C 0.99031 0.95506 0.95447 0.0
C1482 C 0.00805 0.97344 0.00386 0.0
C1483 C 0.00309 0.98837 0.97843 0.0
C1484 C 0.99213 0.98643 0.94013 0.0
C1485 C 0.98559 0.96981 0.92911 0.0
C1486 C 0.01929 0.97507 0.04564 0.0
C1487 C 0.987 0.00197 0.91135 0.0
H1488 H 0.99336 0.04192 0.05009 0.0
H1489 H 0.04159 0.0359 0.97679 0.0
H1490 H 0.97123 0.00666 0.01 0.0
H1491 H 0.98274 0.99658 0.05578 0.0
H1492 H 0.97397 0.01841 0.06233 0.0
H1493 H 0.04914 0.00993 0.93907 0.0
H1494 H 0.04029 0.99008 0.96307 0.0
H1495 H 0.03 -0.00031 0.91485 0.0
H1496 H 0.00524 0.94541 0.01093 0.0
H1497 H 0.97674 0.96832 0.9007 0.0
H1498 H 0.01235 0.98313 0.07126 0.0
H1499 H 0.03175 0.9819 0.03754 0.0
H1500 H 0.02242 0.96212 0.0608 0.0
H1501 H 0.97862 0.01102 0.93121 0.0
H1502 H 0.9797 0.99799 0.88053 0.0
H1503 H -0.00114 0.00939 0.90097 0.0
C1504 C 0.21205 0.74877 0.29308 0.0
C1505 C 0.20543 0.76398 0.27285 0.0
C1506 C 0.2296 0.74381 0.28675 0.0
C1507 C 0.24049 0.75397 0.25815 0.0
C1508 C 0.2338 0.76932 0.23751 0.0
C1509 C 0.21639 0.77431 0.24578 0.0
C1510 C 0.23645 0.72767 0.31046 0.0
C1511 C 0.24483 0.78016 0.20563 0.0
C1512 C 0.29002 0.74945 0.26448 0.0
C1513 C 0.29319 0.7371 0.23048 0.0
C1514 C 0.27286 0.75487 0.27444 0.0
C1515 C 0.25872 0.74823 0.24857 0.0
C1516 C 0.26196 0.73606 0.21341 0.0
C1517 C 0.27917 0.73038 0.20535 0.0
C1518 C 0.26983 0.76743 0.31311 0.0
C1519 C 0.24729 0.72912 0.18414 0.0
H1520 H 0.20354 0.74087 0.31425 0.0
H1521 H 0.21116 0.78599 0.22978 0.0
H1522 H 0.24001 0.71753 0.28521 0.0
H1523 H 0.24853 0.73091 0.32963 0.0
H1524 H 0.22668 0.72199 0.33415 0.0
H1525 H 0.23761 0.7917 0.19224 0.0
H1526 H 0.25682 0.78486 0.22306 0.0
H1527 H 0.24915 0.77195 0.17674 0.0
H1528 H 0.30091 0.75447 0.28418 0.0
H1529 H 0.28171 0.72089 0.17886 0.0
H1530 H 0.2607 0.76148 0.33797 0.0
H1531 H 0.26359 0.77962 0.30055 0.0
H1532 H 0.28221 0.77096 0.33074 0.0
H1533 H 0.23782 0.72166 0.20508 0.0
H1534 H 0.25217 0.7204 0.15681 0.0
H1535 H 0.24003 0.74019 0.16858 0.0
C1536 C 0.49642 0.03574 0.45882 0.0
C1537 C 0.51201 0.04311 0.47498 0.0
C1538 C 0.49196 0.01836 0.46936 0.0
C1539 C 0.50305 0.00847 0.49811 0.0
C1540 C 0.51871 0.01599 0.51494 0.0
C1541 C 0.52315 0.03315 0.50249 0.0
C1542 C 0.47544 0.01057 0.44964 0.0
C1543 C 0.53056 0.00607 0.54686 0.0
C1544 C 0.48211 0.97027 0.55993 0.0
C1545 C 0.48872 0.95597 0.53569 0.0
C1546 C 0.48699 0.98745 0.54866 0.0
C1547 C 0.49817 0.99033 0.51116 0.0
C1548 C 0.50473 0.97588 0.4863 0.0
C1549 C 0.50016 0.95881 0.49943 0.0
C1550 C 0.48022 0.0025 0.5769 0.0
C1551 C 0.51623 0.97847 0.44529 0.0
H1552 H 0.48788 0.04348 0.43735 0.0
H1553 H 0.53512 0.03898 0.51539 0.0
H1554 H 0.47858 -0.00177 0.43146 0.0
H1555 H 0.46614 0.00719 0.47712 0.0
H1556 H 0.4688 0.01967 0.42586 0.0
H1557 H 0.54205 0.01398 0.55771 0.0
H1558 H 0.52308 0.00206 0.57735 0.0
H1559 H 0.53539 0.99392 0.53047 0.0
H1560 H 0.47328 0.96798 0.58806 0.0
H1561 H 0.50504 0.94769 0.48036 0.0
H1562 H 0.47191 0.01123 0.55593 0.0
H1563 H 0.49137 0.01047 0.58953 0.0
H1564 H 0.47237 0.99794 0.60627 0.0
H1565 H 0.50938 0.98685 0.42022 0.0
H1566 H 0.51977 0.96586 0.42885 0.0
H1567 H 0.52848 0.98536 0.45495 0.0
C1568 C 0.28876 0.25803 0.75817 0.0
C1569 C 0.29032 0.24721 0.79618 0.0
C1570 C 0.2722 0.26333 0.74265 0.0
C1571 C 0.25701 0.25813 0.76674 0.0
C1572 C 0.25865 0.24782 0.80631 0.0
C1573 C 0.2753 0.24222 0.82009 0.0
C1574 C 0.2709 0.2739 0.69964 0.0
C1575 C 0.2428 0.24247 0.83368 0.0
C1576 C 0.21425 0.28266 0.75105 0.0
C1577 C 0.20443 0.27054 0.726 0.0
C1578 C 0.23154 0.27896 0.76389 0.0
C1579 C 0.23931 0.26298 0.75012 0.0
C1580 C 0.22971 0.25107 0.72296 0.0
C1581 C 0.21224 0.25487 0.71185 0.0
C1582 C 0.24119 0.29173 0.79394 0.0
C1583 C 0.23775 0.23412 0.7066 0.0
H1584 H 0.30043 0.26166 0.73942 0.0
H1585 H 0.27659 0.23389 0.84961 0.0
H1586 H 0.26346 0.26636 0.67392 0.0
H1587 H 0.26359 0.28624 0.70581 0.0
H1588 H 0.284 0.27721 0.68552 0.0
H1589 H 0.24647 0.2356 0.8654 0.0
H1590 H 0.23485 0.25418 0.84242 0.0
H1591 H 0.23435 0.23362 0.8134 0.0
H1592 H 0.20813 0.29473 0.76238 0.0
H1593 H 0.20466 0.24556 0.6922 0.0
H1594 H 0.25402 0.29527 0.77883 0.0
H1595 H 0.2439 0.28548 0.82708 0.0
H1596 H 0.23358 0.30395 0.79986 0.0
H1597 H 0.25062 0.2367 0.69038 0.0
H1598 H 0.22918 0.2272 0.68203 0.0
H1599 H 0.24014 0.22528 0.73572 0.0
C1600 C 0.02121 0.96318 0.48923 0.0
C1601 C 0.01056 0.95283 0.4614 0.0
C1602 C 0.01635 0.98036 0.50036 0.0
C1603 C 0.0008 0.98751 0.48181 0.0
C1604 C 0.99019 0.97719 0.45286 0.0
C1605 C 0.99504 0.95981 0.44368 0.0
C1606 C 0.02768 0.99075 0.53255 0.0
C1607 C 0.97382 0.98457 0.43133 0.0
C1608 C 0.97884 0.02626 0.53883 0.0
C1609 C 0.98569 0.04032 0.51407 0.0
C1610 C 0.98394 0.00899 0.52927 0.0
C1611 C 0.9956 0.00575 0.49297 0.0
C1612 C 0.00236 0.01995 0.46749 0.0
C1613 C 0.99756 0.03713 0.47893 0.0
C1614 C 0.97694 0.99424 0.55816 0.0
C1615 C 0.01438 0.01697 0.42766 0.0
H1616 H 0.03312 0.95765 0.50331 0.0
H1617 H 0.9869 0.95177 0.42193 0.0
H1618 H 0.03269 0.00271 0.51559 0.0
H1619 H 0.01975 0.99511 0.56194 0.0
H1620 H 0.03904 0.98305 0.54515 0.0
H1621 H 0.9675 0.97509 0.40793 0.0
H1622 H 0.96421 0.98824 0.45781 0.0
H1623 H 0.97706 0.99667 0.41225 0.0
H1624 H 0.96971 0.02882 0.56613 0.0
H1625 H 0.00265 0.04806 0.45948 0.0
H1626 H 0.98799 0.98657 0.57251 0.0
H1627 H 0.96904 0.98513 0.53722 0.0
H1628 H 0.96864 -0.00093 0.58638 0.0
H1629 H 0.0266 0.0104 0.43894 0.0
H1630 H 0.01795 0.02939 0.41035 0.0
H1631 H 0.00795 0.00814 0.40285 0.0
C1632 C 0.21307 0.74652 0.78896 0.0
C1633 C 0.2069 0.73114 0.76866 0.0
C1634 C 0.23045 0.75204 0.78249 0.0
C1635 C 0.2416 0.74226 0.75368 0.0
C1636 C 0.23532 0.72682 0.73269 0.0
C1637 C 0.2181 0.72126 0.74111 0.0
C1638 C 0.23688 0.76827 0.80656 0.0
C1639 C 0.24664 0.71637 0.70061 0.0
C1640 C 0.28021 0.7666 0.70274 0.0
C1641 C 0.29419 0.75994 0.7281 0.0
C1642 C 0.26303 0.7607 0.71013 0.0
C1643 C 0.25977 0.74835 0.74487 0.0
C1644 C 0.27387 0.74178 0.77105 0.0
C1645 C 0.291 0.74744 0.76175 0.0
C1646 C 0.24841 0.76755 0.68056 0.0
C1647 C 0.27082 0.72903 0.8093 0.0
H1648 H 0.20439 0.75406 0.81051 0.0
H1649 H 0.2132 0.70945 0.72507 0.0
H1650 H 0.24885 0.76518 0.82634 0.0
H1651 H 0.24049 0.77848 0.78155 0.0
H1652 H 0.22685 0.7738 0.82979 0.0
H1653 H 0.23961 0.70487 0.68631 0.0
H1654 H 0.25105 0.72486 0.67236 0.0
H1655 H 0.25856 0.71164 0.71827 0.0
H1656 H 0.28277 0.77621 0.67653 0.0
H1657 H 0.30186 0.74246 0.78164 0.0
H1658 H 0.23868 0.77472 0.7014 0.0
H1659 H 0.24144 0.75644 0.66431 0.0
H1660 H 0.25329 0.7765 0.65375 0.0
H1661 H 0.26139 0.73471 0.83386 0.0
H1662 H 0.28313 0.72569 0.82742 0.0
H1663 H 0.26492 0.71676 0.79616 0.0
C1664 C 0.52382 0.96771 0.00433 0.0
C1665 C 0.51343 0.957 0.03191 0.0
C1666 C 0.51805 0.98438 0.99127 0.0
C1667 C 0.50179 0.99067 0.00758 0.0
C1668 C 0.49135 0.97997 0.03605 0.0
C1669 C 0.49717 0.96306 0.0472 0.0
C1670 C 0.52926 0.99516 0.95961 0.0
C1671 C 0.47418 0.98649 0.05514 0.0
C1672 C 0.49591 0.04002 0.0069 0.0
C1673 C 0.48458 0.04225 0.97015 0.0
C1674 C 0.50133 0.02322 0.02008 0.0
C1675 C 0.49577 0.00847 0.99479 0.0
C1676 C 0.48469 0.01076 0.95685 0.0
C1677 C 0.47894 0.02765 0.9455 0.0
C1678 C 0.51272 0.02123 0.06152 0.0
C1679 C 0.479 0.9954 0.92816 0.0
H1680 H 0.53632 0.96286 0.99206 0.0
H1681 H 0.48921 0.95472 0.06869 0.0
H1682 H 0.52155 -0.00113 0.92927 0.0
H1683 H 0.53336 0.00749 0.97643 0.0
H1684 H 0.5412 0.98801 0.94849 0.0
H1685 H 0.46796 0.97677 0.07809 0.0
H1686 H 0.47635 -0.00115 0.07412 0.0
H1687 H 0.4649 0.98948 0.02732 0.0
H1688 H 0.5 0.05136 0.02632 0.0
H1689 H 0.47018 0.02948 0.91702 0.0
H1690 H 0.52548 0.01527 0.05213 0.0
H1691 H 0.50633 0.01225 0.08602 0.0
H1692 H 0.51527 0.03397 0.0785 0.0
H1693 H 0.49069 0.98822 0.91557 0.0
H1694 H 0.47095 -0.00047 0.89874 0.0
H1695 H 0.47124 0.98606 0.94877 0.0
C1696 C 0.21514 0.21676 0.25394 0.0
C1697 C 0.20495 0.22823 0.22787 0.0
C1698 C 0.2322 0.22133 0.26709 0.0
C1699 C 0.23935 0.2375 0.25259 0.0
C1700 C 0.22938 0.24876 0.22449 0.0
C1701 C 0.21214 0.24411 0.2131 0.0
C1702 C 0.24224 0.20923 0.29813 0.0
C1703 C 0.23677 0.26588 0.20731 0.0
C1704 C 0.27446 0.26031 0.32133 0.0
C1705 C 0.28968 0.25567 0.29776 0.0
C1706 C 0.25805 0.25392 0.30789 0.0
C1707 C 0.25683 0.24317 0.26901 0.0
C1708 C 0.27222 0.23834 0.24527 0.0
C1709 C 0.28855 0.24444 0.26045 0.0
C1710 C 0.24199 0.25891 0.33489 0.0
C1711 C 0.27136 0.22732 0.20295 0.0
H1712 H 0.20948 0.20455 0.26575 0.0
H1713 H 0.20427 0.25291 0.19268 0.0
H1714 H 0.25522 0.20602 0.28339 0.0
H1715 H 0.24467 0.21592 0.33084 0.0
H1716 H 0.23508 0.19681 0.30481 0.0
H1717 H 0.22798 0.27227 0.18232 0.0
H1718 H 0.23878 0.27503 0.23597 0.0
H1719 H 0.24975 0.26367 0.19131 0.0
H1720 H 0.27543 0.26895 0.35032 0.0
H1721 H 0.30036 0.24106 0.24196 0.0
H1722 H 0.23449 0.24698 0.34434 0.0
H1723 H 0.23321 0.26723 0.31406 0.0
H1724 H 0.24537 0.26621 0.36619 0.0
H1725 H 0.26456 0.21475 0.20993 0.0
H1726 H 0.28457 0.22441 0.18903 0.0
H1727 H 0.26361 0.23429 0.17677 0.0
C1728 C 0.78714 0.24697 0.70919 0.0
C1729 C 0.7934 0.23145 0.72858 0.0
C1730 C 0.76981 0.25247 0.71659 0.0
C1731 C 0.75882 0.24252 0.74546 0.0
C1732 C 0.76523 0.22697 0.76567 0.0
C1733 C 0.78238 0.22144 0.75628 0.0
C1734 C 0.76324 0.26882 0.69331 0.0
C1735 C 0.7541 0.21635 0.79783 0.0
C1736 C 0.72025 0.26652 0.79774 0.0
C1737 C 0.70624 0.25991 0.7724 0.0
C1738 C 0.73743 0.26067 0.78997 0.0
C1739 C 0.74065 0.24847 0.75486 0.0
C1740 C 0.72651 0.24195 0.72876 0.0
C1741 C 0.70939 0.24752 0.73845 0.0
C1742 C 0.7521 0.26745 0.8195 0.0
C1743 C 0.7295 0.22937 0.69012 0.0
H1744 H 0.79569 0.25462 0.68754 0.0
H1745 H 0.78736 0.20952 0.77163 0.0
H1746 H 0.75122 0.26578 0.67364 0.0
H1747 H 0.75964 0.27885 0.71879 0.0
H1748 H 0.77318 0.27453 0.67012 0.0
H1749 H 0.76126 0.20487 0.81174 0.0
H1750 H 0.74972 0.22473 0.82634 0.0
H1751 H 0.74215 0.21158 0.78035 0.0
H1752 H 0.71772 0.27604 0.82416 0.0
H1753 H 0.6985 0.2426 0.71857 0.0
H1754 H 0.76172 0.2748 0.79872 0.0
H1755 H 0.75919 0.2563 0.8352 0.0
H1756 H 0.74724 0.27623 0.84673 0.0
H1757 H 0.73882 0.2352 0.66551 0.0
H1758 H 0.71715 0.22603 0.67216 0.0
H1759 H 0.73551 0.21708 0.70281 0.0
C1760 C 0.72121 0.75733 0.19455 0.0
C1761 C 0.70616 0.75264 0.21875 0.0
C1762 C 0.73779 0.7514 0.20809 0.0
C1763 C 0.73932 0.74111 0.24773 0.0
C1764 C 0.72409 0.7362 0.27204 0.0
C1765 C 0.7076 0.7418 0.25675 0.0
C1766 C 0.75368 0.75642 0.18047 0.0
C1767 C 0.72527 0.72568 0.31515 0.0
C1768 C 0.78142 0.71563 0.26562 0.0
C1769 C 0.79129 0.72752 0.29122 0.0
C1770 C 0.76439 0.71982 0.25142 0.0
C1771 C 0.75694 0.73604 0.26443 0.0
C1772 C 0.76664 0.7478 0.29178 0.0
C1773 C 0.78387 0.74352 0.30421 0.0
C1774 C 0.75465 0.7072 0.22114 0.0
C1775 C 0.75892 0.76501 0.30737 0.0
H1776 H 0.72 0.76569 0.16507 0.0
H1777 H 0.69592 0.73843 0.27575 0.0
H1778 H 0.76226 0.76524 0.20044 0.0
H1779 H 0.76147 0.74457 0.17202 0.0
H1780 H 0.75006 0.7632 0.14859 0.0
H1781 H 0.71215 0.72262 0.32946 0.0
H1782 H 0.73235 0.71319 0.30903 0.0
H1783 H 0.7329 0.73312 0.3407 0.0
H1784 H 0.78727 0.70332 0.25517 0.0
H1785 H 0.79151 0.75265 0.32424 0.0
H1786 H 0.75194 0.71355 0.18813 0.0
H1787 H 0.7418 0.70372 0.23628 0.0
H1788 H 0.76215 0.69494 0.21499 0.0
H1789 H 0.75664 0.77368 0.27786 0.0
H1790 H 0.76763 0.77196 0.33157 0.0
H1791 H 0.74603 0.76275 0.32378 0.0
C1792 C 0.71557 0.21986 0.24547 0.0
C1793 C 0.70487 0.23047 0.27251 0.0
C1794 C 0.73295 0.22466 0.23613 0.0
C1795 C 0.73989 0.24012 0.25567 0.0
C1796 C 0.72927 0.25058 0.28421 0.0
C1797 C 0.71174 0.2458 0.2916 0.0
C1798 C 0.74369 0.21349 0.20436 0.0
C1799 C 0.7364 0.26685 0.30677 0.0
C1800 C 0.78944 0.24456 0.26069 0.0
C1801 C 0.79251 0.25678 0.22629 0.0
C1802 C 0.77232 0.23913 0.27102 0.0
C1803 C 0.75811 0.24563 0.24516 0.0
C1804 C 0.76126 0.25758 0.20944 0.0
C1805 C 0.77843 0.26329 0.20101 0.0
C1806 C 0.7694 0.22682 0.31027 0.0
C1807 C 0.74651 0.26436 0.18018 0.0
H1808 H 0.71015 0.20809 0.23037 0.0
H1809 H 0.70344 0.25392 0.31277 0.0
H1810 H 0.74791 0.22146 0.1749 0.0
H1811 H 0.75575 0.20882 0.22153 0.0
H1812 H 0.73629 0.20192 0.19184 0.0
H1813 H 0.7268 0.27281 0.3305 0.0
H1814 H 0.74855 0.26365 0.32568 0.0
H1815 H 0.73991 0.27675 0.28085 0.0
H1816 H 0.80038 0.23973 0.28053 0.0
H1817 H 0.7809 0.27269 0.17425 0.0
H1818 H 0.76288 0.21465 0.29847 0.0
H1819 H 0.76054 0.23304 0.33534 0.0
H1820 H 0.78185 0.22321 0.32742 0.0
H1821 H 0.73904 0.25321 0.16565 0.0
H1822 H 0.75133 0.27274 0.1521 0.0
H1823 H 0.73723 0.27214 0.20093 0.0
C1824 C 0.71361 0.71523 0.74566 0.0
C1825 C 0.70399 0.72753 0.72071 0.0
C1826 C 0.73074 0.71893 0.76005 0.0
C1827 C 0.73853 0.7351 0.74794 0.0
C1828 C 0.72911 0.74725 0.72105 0.0
C1829 C 0.71181 0.74344 0.7084 0.0
C1830 C 0.74018 0.7059 0.78978 0.0
C1831 C 0.73719 0.76442 0.70641 0.0
C1832 C 0.77406 0.75591 0.81932 0.0
C1833 C 0.78917 0.75151 0.795 0.0
C1834 C 0.75755 0.7499 0.8055 0.0
C1835 C 0.75613 0.73983 0.76549 0.0
C1836 C 0.77143 0.73507 0.74127 0.0
C1837 C 0.78786 0.74076 0.75681 0.0
C1838 C 0.74159 0.75477 0.83302 0.0
C1839 C 0.77037 0.72476 0.69779 0.0
H1840 H 0.70748 0.70299 0.75556 0.0
H1841 H 0.70437 0.75289 0.68883 0.0
H1842 H 0.75313 0.70253 0.77506 0.0
H1843 H 0.74265 0.71184 0.82341 0.0
H1844 H 0.73256 0.69362 0.79456 0.0
H1845 H 0.72873 0.77164 0.68215 0.0
H1846 H 0.73942 0.77288 0.73634 0.0
H1847 H 0.75014 0.76207 0.6904 0.0
H1848 H 0.77517 0.76421 0.84894 0.0
H1849 H 0.79959 0.7376 0.73772 0.0
H1850 H 0.73364 0.74292 0.84042 0.0
H1851 H 0.73319 0.76389 0.81344 0.0
H1852 H 0.74513 0.76118 0.86547 0.0
H1853 H 0.76291 0.71245 0.70303 0.0
H1854 H 0.78355 0.72143 0.68421 0.0
H1855 H 0.76321 0.73254 0.67202 0.0
C1856 C 0.53121 0.53103 0.50109 0.0
C1857 C 0.51914 0.54115 0.52551 0.0
C1858 C 0.52749 0.51355 0.48996 0.0
C1859 C 0.51156 0.50597 0.50477 0.0
C1860 C 0.49976 0.51589 0.53148 0.0
C1861 C 0.50357 0.53349 0.54092 0.0
C1862 C 0.54016 0.50353 0.46042 0.0
C1863 C 0.48286 0.50808 0.5489 0.0
C1864 C 0.48964 0.46968 0.43854 0.0
C1865 C 0.49424 0.45487 0.4638 0.0
C1866 C 0.49591 0.4863 0.45039 0.0
C1867 C 0.50651 0.48817 0.48937 0.0
C1868 C 0.51148 0.47317 0.51452 0.0
C1869 C 0.50547 0.45659 0.50095 0.0
C1870 C 0.49078 0.50192 0.4219 0.0
C1871 C 0.52238 0.47473 0.55691 0.0
H1872 H 0.5432 0.53702 0.48885 0.0
H1873 H 0.49432 0.54131 0.56013 0.0
H1874 H 0.54348 0.49074 0.47602 0.0
H1875 H 0.5339 0.50074 0.42734 0.0
H1876 H 0.5525 0.51092 0.45432 0.0
H1877 H 0.4761 0.5169 0.57316 0.0
H1878 H 0.47387 0.50547 0.52022 0.0
H1879 H 0.48546 0.49535 0.56582 0.0
H1880 H 0.48099 0.46824 0.40967 0.0
H1881 H 0.50881 0.44509 0.52073 0.0
H1882 H 0.50258 0.50963 0.41259 0.0
H1883 H 0.48203 0.51068 0.44158 0.0
H1884 H 0.48385 0.498 0.39046 0.0
H1885 H 0.5346 0.48215 0.54998 0.0
H1886 H 0.52592 0.46173 0.57116 0.0
H1887 H 0.51495 0.48218 0.58282 0.0
C1888 C 0.97147 0.46816 0.00545 0.0
C1889 C 0.98118 0.45676 0.0328 0.0
C1890 C 0.97733 0.48529 0.99713 0.0
C1891 C 0.99293 0.49126 0.01802 0.0
C1892 C 0.0025 0.47992 0.04681 0.0
C1893 C 0.99667 0.46265 0.05317 0.0
C1894 C 0.96709 0.49681 0.96508 0.0
C1895 C 0.01888 0.48602 0.0708 0.0
C1896 C 0.01812 0.52909 0.966 0.0
C1897 C 0.0118 0.54332 0.99102 0.0
C1898 C 0.01184 0.51208 0.97392 0.0
C1899 C -0.00053 0.50924 0.00885 0.0
C1900 C 0.99329 0.52358 0.03477 0.0
C1901 C -0.0007 0.54054 0.02494 0.0
C1902 C 0.0183 0.49721 0.94462 0.0
C1903 C 0.98052 0.52097 0.07322 0.0
H1904 H 0.95958 0.46349 0.98935 0.0
H1905 H 0.00408 0.4538 0.07457 0.0
H1906 H 0.96277 0.50891 0.9826 0.0
H1907 H 0.97562 0.5009 0.93656 0.0
H1908 H 0.95536 0.49008 0.95116 0.0
H1909 H 0.02412 0.47594 0.09432 0.0
H1910 H 0.0292 0.48925 0.04573 0.0
H1911 H 0.01609 0.49815 0.09023 0.0
H1912 H 0.02771 0.53133 0.93955 0.0
H1913 H 0.99458 0.55158 0.04454 0.0
H1914 H 0.007 0.49049 0.92852 0.0
H1915 H 0.02522 0.48735 0.96562 0.0
H1916 H 0.02738 0.50177 0.9177 0.0
H1917 H 0.96807 0.51539 0.0603 0.0
H1918 H 0.97756 0.53341 0.0912 0.0
H1919 H 0.98598 0.51144 0.09785 0.0
C1920 C 0.49526 0.45523 0.00342 0.0
C1921 C 0.50756 0.45283 0.96885 0.0
C1922 C 0.48953 0.4721 0.01519 0.0
C1923 C 0.49581 0.48675 0.99062 0.0
C1924 C 0.50791 0.48429 0.95488 0.0
C1925 C 0.51391 0.46735 0.94498 0.0
C1926 C 0.47705 0.47429 0.05443 0.0
C1927 C 0.51447 0.49953 0.92697 0.0
C1928 C 0.46894 0.52857 0.99282 0.0
C1929 C 0.47917 0.53928 0.02078 0.0
C1930 C 0.47422 0.51141 0.98264 0.0
C1931 C 0.48976 0.50469 0.00221 0.0
C1932 C 0.49983 0.5153 0.03171 0.0
C1933 C 0.49457 0.53263 0.03998 0.0
C1934 C 0.46346 0.50068 0.94989 0.0
C1935 C 0.51619 0.50838 0.05431 0.0
H1936 H 0.49054 0.44396 0.02215 0.0
H1937 H 0.52336 0.4654 0.91806 0.0
H1938 H 0.48294 0.48312 0.0801 0.0
H1939 H 0.4647 0.48051 0.0428 0.0
H1940 H 0.47381 0.46159 0.07081 0.0
H1941 H 0.52316 0.49525 0.89893 0.0
H1942 H 0.5032 0.50683 0.91246 0.0
H1943 H 0.52184 0.5088 0.94869 0.0
H1944 H 0.45712 0.53383 0.97762 0.0
H1945 H 0.5024 0.54094 0.06184 0.0
H1946 H 0.45906 0.48834 0.96615 0.0
H1947 H 0.47164 0.49699 0.92037 0.0
H1948 H 0.45173 0.50789 0.93756 0.0
H1949 H 0.51323 0.49595 0.07227 0.0
H1950 H 0.52177 0.51788 0.07887 0.0
H1951 H 0.5263 0.50542 0.02847 0.0
C1952 C -0.00022 0.46225 0.55125 0.0
C1953 C 0.01485 0.45499 0.53176 0.0
C1954 C 0.99546 0.47991 0.54409 0.0
C1955 C 0.00613 0.49027 0.51539 0.0
C1956 C 0.02132 0.48293 0.49545 0.0
C1957 C 0.02567 0.46542 0.50454 0.0
C1958 C 0.97946 0.48746 0.56705 0.0
C1959 C 0.03269 0.49339 0.46351 0.0
C1960 C 0.98394 0.5295 0.46145 0.0
C1961 C 0.99092 0.54336 0.48671 0.0
C1962 C 0.98915 0.51217 0.46969 0.0
C1963 C 0.0011 0.50864 0.50516 0.0
C1964 C 0.00809 0.52262 0.531 0.0
C1965 C 0.00313 0.53989 0.52089 0.0
C1966 C 0.98187 0.49766 0.44045 0.0
C1967 C 0.02043 0.51929 0.56996 0.0
H1968 H 0.9915 0.45415 0.57254 0.0
H1969 H 0.03723 0.45969 0.48911 0.0
H1970 H 0.98306 0.49949 0.586 0.0
H1971 H 0.96959 0.49128 0.54136 0.0
H1972 H 0.9733 0.478 0.59081 0.0
H1973 H 0.04402 0.48569 0.45071 0.0
H1974 H 0.02476 0.49785 0.43424 0.0
H1975 H 0.03774 0.50529 0.48067 0.0
H1976 H 0.97456 0.53227 0.43484 0.0
H1977 H 0.00835 0.55066 0.5407 0.0
H1978 H 0.97391 0.48856 0.46129 0.0
H1979 H 0.99276 0.48992 0.42556 0.0
H1980 H 0.97352 0.50275 0.41262 0.0
H1981 H 0.01404 0.51057 0.59508 0.0
H1982 H 0.02444 0.53161 0.58717 0.0
H1983 H 0.03238 0.51247 0.55785 0.0
C1984 C 0.07331 0.13499 0.05356 0.0
C1985 C 0.05581 0.1324 0.0661 0.0
C1986 C 0.08347 0.14799 0.07434 0.0
C1987 C 0.07606 0.15821 0.10946 0.0
C1988 C 0.05818 0.15607 0.1211 0.0
C1989 C 0.04818 0.1433 0.09877 0.0
C1990 C 0.10236 0.15025 0.06008 0.0
C1991 C 0.04994 0.16645 0.15902 0.0
C1992 C 0.1104 0.17336 0.19285 0.0
C1993 C 0.11307 0.19071 0.1791 0.0
C1994 C 0.09751 0.16297 0.17232 0.0
C1995 C 0.08751 0.16999 0.13627 0.0
C1996 C 0.08967 0.18774 0.12353 0.0
C1997 C 0.10231 0.19799 0.1456 0.0
C1998 C 0.09521 0.14423 0.18775 0.0
C1999 C 0.07952 0.19556 0.08464 0.0
H2000 H 0.07915 0.12659 0.0281 0.0
H2001 H 0.03467 0.14115 0.10882 0.0
H2002 H 0.10528 0.1643 0.05387 0.0
H2003 H 0.11115 0.14574 0.08758 0.0
H2004 H 0.1055 0.1427 0.02901 0.0
H2005 H 0.03551 0.16451 0.16078 0.0
H2006 H 0.05576 0.16228 0.19168 0.0
H2007 H 0.0527 0.18064 0.15499 0.0
H2008 H 0.11868 0.16779 0.21895 0.0
H2009 H 0.10453 0.21138 0.13463 0.0
H2010 H 0.10006 0.13519 0.16119 0.0
H2011 H 0.08111 0.14128 0.19321 0.0
H2012 H 0.10246 0.14147 0.21951 0.0
H2013 H 0.084 0.18952 0.05253 0.0
H2014 H 0.08134 0.20999 0.08219 0.0
H2015 H 0.06532 0.19271 0.08806 0.0
C2016 C 0.11163 0.82166 0.29327 0.0
C2017 C 0.11373 0.80446 0.30879 0.0
C2018 C 0.09821 0.83235 0.31027 0.0
C2019 C 0.08707 0.82581 0.34467 0.0
C2020 C 0.08878 0.80824 0.35938 0.0
C2021 C 0.10197 0.79766 0.34072 0.0
C2022 C 0.09644 0.85087 0.29278 0.0
C2023 C 0.07744 0.80094 0.39677 0.0
C2024 C 0.06995 0.86144 0.42189 0.0
C2025 C 0.05277 0.86349 0.40618 0.0
C2026 C 0.08095 0.84854 0.40368 0.0
C2027 C 0.07476 0.83789 0.36787 0.0
C2028 C 0.05724 0.83963 0.35262 0.0
C2029 C 0.04634 0.85229 0.37251 0.0
C2030 C 0.09938 0.84671 0.42178 0.0
C2031 C 0.05033 0.82882 0.31377 0.0
H2032 H 0.12068 0.82685 0.26836 0.0
H2033 H 0.10373 0.78439 0.35306 0.0
H2034 H 0.08257 0.85372 0.2841 0.0
H2035 H 0.10044 0.86027 0.31946 0.0
H2036 H 0.1047 0.85322 0.26244 0.0
H2037 H 0.07936 0.78661 0.40142 0.0
H2038 H 0.0807 0.80765 0.42898 0.0
H2039 H 0.06338 0.80347 0.38977 0.0
H2040 H 0.07484 0.87008 0.44812 0.0
H2041 H 0.03308 0.85405 0.36006 0.0
H2042 H 0.10894 0.85091 0.39566 0.0
H2043 H 0.10222 0.83279 0.4299 0.0
H2044 H 0.10154 0.85473 0.45262 0.0
H2045 H 0.05742 0.83245 0.28236 0.0
H2046 H 0.03606 0.83085 0.30823 0.0
H2047 H 0.05275 0.81468 0.3198 0.0
C2048 C 0.38269 0.82518 0.69634 0.0
C2049 C 0.38139 0.80794 0.68052 0.0
C2050 C 0.39561 0.83651 0.67953 0.0
C2051 C 0.40699 0.8306 0.64486 0.0
C2052 C 0.40581 0.81312 0.62911 0.0
C2053 C 0.39318 0.80188 0.64776 0.0
C2054 C 0.39686 0.8549 0.6982 0.0
C2055 C 0.41732 0.80653 0.59121 0.0
C2056 C 0.42512 0.86702 0.57143 0.0
C2057 C 0.44226 0.8685 0.58786 0.0
C2058 C 0.41374 0.85416 0.58831 0.0
C2059 C 0.41949 0.84303 0.62366 0.0
C2060 C 0.43689 0.84436 0.63998 0.0
C2061 C 0.44819 0.85693 0.62126 0.0
C2062 C 0.39546 0.85273 0.569 0.0
C2063 C 0.44331 0.83311 0.67857 0.0
H2064 H 0.37357 0.82978 0.72184 0.0
H2065 H 0.39197 0.78858 0.63516 0.0
H2066 H 0.41057 0.85784 0.70824 0.0
H2067 H 0.39311 0.86449 0.67176 0.0
H2068 H 0.38819 0.85687 0.72795 0.0
H2069 H 0.41514 0.79241 0.58394 0.0
H2070 H 0.41459 0.81415 0.56003 0.0
H2071 H 0.43135 0.80852 0.59962 0.0
H2072 H 0.42061 0.87598 0.54545 0.0
H2073 H 0.46142 0.85828 0.63431 0.0
H2074 H 0.3857 0.85661 0.59493 0.0
H2075 H 0.39262 0.83894 0.55943 0.0
H2076 H 0.39363 0.8612 0.53883 0.0
H2077 H 0.43552 0.836 0.70936 0.0
H2078 H 0.4574 0.83537 0.68624 0.0
H2079 H 0.4414 0.81902 0.67066 0.0
C2080 C 0.41851 0.12331 0.89484 0.0
C2081 C 0.4323 0.12687 0.9247 0.0
C2082 C 0.40713 0.13663 0.88075 0.0
C2083 C 0.40929 0.15377 0.89815 0.0
C2084 C 0.42305 0.1574 0.92889 0.0
C2085 C 0.43462 0.14392 0.94125 0.0
C2086 C 0.39289 0.13237 0.84699 0.0
C2087 C 0.42538 0.17542 0.94915 0.0
C2088 C 0.38798 0.19132 0.8344 0.0
C2089 C 0.37182 0.19248 0.85655 0.0
C2090 C 0.40042 0.17878 0.84767 0.0
C2091 C 0.39676 0.16772 0.88498 0.0
C2092 C 0.38067 0.16937 0.90845 0.0
C2093 C 0.36823 0.18153 0.89334 0.0
C2094 C 0.41721 0.17698 0.82098 0.0
C2095 C 0.37654 0.15822 0.94928 0.0
H2096 H 0.41689 0.11016 0.88152 0.0
H2097 H 0.4453 0.14663 0.9644 0.0
H2098 H 0.37981 0.13447 0.8625 0.0
H2099 H 0.39385 0.14128 0.81744 0.0
H2100 H 0.39363 0.11861 0.83483 0.0
H2101 H 0.43659 0.17599 0.97308 0.0
H2102 H 0.42757 0.18522 0.92205 0.0
H2103 H 0.41326 0.17932 0.96736 0.0
H2104 H 0.39064 0.19985 0.80589 0.0
H2105 H 0.35577 0.18269 0.91079 0.0
H2106 H 0.41801 0.16363 0.80619 0.0
H2107 H 0.42871 0.1786 0.8435 0.0
H2108 H 0.41813 0.18674 0.79321 0.0
H2109 H 0.37544 0.14426 0.93913 0.0
H2110 H 0.3641 0.16219 0.96592 0.0
H2111 H 0.38734 0.15914 0.97432 0.0
C2112 C 0.88558 0.81078 0.82378 0.0
C2113 C 0.86884 0.81075 0.84318 0.0
C2114 C 0.89804 0.82341 0.83638 0.0
C2115 C 0.89378 0.83579 0.87037 0.0
C2116 C 0.87696 0.83557 0.89055 0.0
C2117 C 0.86456 0.82323 0.87609 0.0
C2118 C 0.91566 0.82363 0.81309 0.0
C2119 C 0.87213 0.8482 0.92788 0.0
C2120 C 0.93166 0.85789 0.93102 0.0
C2121 C 0.93139 0.87458 0.91139 0.0
C2122 C 0.91926 0.84518 0.91856 0.0
C2123 C 0.90683 0.84913 0.88449 0.0
C2124 C 0.90671 0.86592 0.86415 0.0
C2125 C 0.91882 0.87857 0.87847 0.0
C2126 C 0.91938 0.82759 0.94203 0.0
C2127 C 0.89401 0.87044 0.82674 0.0
H2128 H 0.88881 0.80111 0.79825 0.0
H2129 H 0.85167 0.823 0.89154 0.0
H2130 H 0.91802 0.83671 0.79778 0.0
H2131 H 0.92625 0.82133 0.83806 0.0
H2132 H 0.91664 0.81352 0.78619 0.0
H2133 H 0.85874 0.84578 0.94132 0.0
H2134 H 0.88167 0.84705 0.95606 0.0
H2135 H 0.8728 0.86187 0.91528 0.0
H2136 H 0.9414 0.85488 0.95655 0.0
H2137 H 0.91883 0.89143 0.86283 0.0
H2138 H 0.92198 0.81702 0.9172 0.0
H2139 H 0.90633 0.82497 0.95718 0.0
H2140 H 0.92946 0.82688 0.96908 0.0
H2141 H 0.8954 0.86092 0.79859 0.0
H2142 H 0.89612 0.88387 0.81327 0.0
H2143 H 0.88033 0.86946 0.83926 0.0
C2144 C 0.94736 0.13971 0.60023 0.0
C2145 C 0.94051 0.12838 0.56738 0.0
C2146 C 0.93661 0.15207 0.62175 0.0
C2147 C 0.91878 0.15344 0.60896 0.0
C2148 C 0.91206 0.14263 0.57408 0.0
C2149 C 0.92296 0.12997 0.55426 0.0
C2150 C 0.9441 0.163 0.65968 0.0
C2151 C 0.89325 0.1441 0.55856 0.0
C2152 C 0.88405 0.16989 0.69008 0.0
C2153 C 0.88193 0.18723 0.67564 0.0
C2154 C 0.89665 0.15899 0.67004 0.0
C2155 C 0.90684 0.16545 0.63363 0.0
C2156 C 0.90494 0.18308 0.61948 0.0
C2157 C 0.89267 0.19386 0.64123 0.0
C2158 C 0.89871 0.14043 0.68702 0.0
C2159 C 0.91521 0.19027 0.57997 0.0
H2160 H 0.9609 0.13828 0.6108 0.0
H2161 H 0.91772 0.12121 0.52874 0.0
H2162 H 0.94167 0.17713 0.65344 0.0
H2163 H 0.93743 0.15956 0.69183 0.0
H2164 H 0.95843 0.16094 0.664 0.0
H2165 H 0.8906 0.13598 0.52816 0.0
H2166 H 0.88433 0.1398 0.58601 0.0
H2167 H 0.89002 0.15796 0.5507 0.0
H2168 H 0.87575 0.16482 0.71682 0.0
H2169 H 0.89082 0.20723 0.62967 0.0
H2170 H 0.91273 0.13757 0.69391 0.0
H2171 H 0.89424 0.13107 0.66074 0.0
H2172 H 0.89104 0.13801 0.71833 0.0
H2173 H 0.92946 0.18822 0.58515 0.0
H2174 H 0.91279 0.20449 0.5746 0.0
H2175 H 0.91149 0.18311 0.54875 0.0
C2176 C 0.61106 0.17357 0.30331 0.0
C2177 C 0.61331 0.19095 0.31725 0.0
C2178 C 0.59765 0.16319 0.32153 0.0
C2179 C 0.58664 0.17025 0.35554 0.0
C2180 C 0.5885 0.18799 0.36867 0.0
C2181 C 0.60171 0.19824 0.34883 0.0
C2182 C 0.59573 0.14446 0.30573 0.0
C2183 C 0.57731 0.19584 0.40557 0.0
C2184 C 0.54595 0.14407 0.38539 0.0
C2185 C 0.55246 0.13315 0.41957 0.0
C2186 C 0.55679 0.15663 0.36484 0.0
C2187 C 0.5743 0.15855 0.37991 0.0
C2188 C 0.58054 0.14827 0.41639 0.0
C2189 C 0.56961 0.13546 0.43528 0.0
C2190 C 0.54983 0.16705 0.32534 0.0
C2191 C 0.59898 0.15031 0.4343 0.0
H2192 H 0.61999 0.168 0.27865 0.0
H2193 H 0.60358 0.21166 0.35994 0.0
H2194 H 0.59968 0.13539 0.33322 0.0
H2195 H 0.58183 0.14159 0.2974 0.0
H2196 H 0.60393 0.14164 0.27556 0.0
H2197 H 0.5793 0.21022 0.40888 0.0
H2198 H 0.56321 0.19328 0.39906 0.0
H2199 H 0.58062 0.18957 0.43831 0.0
H2200 H 0.53272 0.1421 0.37294 0.0
H2201 H 0.57456 0.12704 0.46191 0.0
H2202 H 0.55672 0.16294 0.29404 0.0
H2203 H 0.55244 0.18123 0.33011 0.0
H2204 H 0.53551 0.16512 0.3204 0.0
H2205 H 0.60851 0.14571 0.40858 0.0
H2206 H 0.60111 0.14271 0.46586 0.0
H2207 H 0.60186 0.16433 0.44111 0.0
C2208 C 0.56259 0.85549 0.07169 0.0
C2209 C 0.56336 0.87241 0.08985 0.0
C2210 C 0.57435 0.84248 0.08618 0.0
C2211 C 0.58658 0.84643 0.12076 0.0
C2212 C 0.58693 0.86338 0.1402 0.0
C2213 C 0.57551 0.87626 0.12388 0.0
C2214 C 0.57401 0.82471 0.06373 0.0
C2215 C 0.5994 0.86792 0.17812 0.0
C2216 C 0.60819 0.80901 0.18434 0.0
C2217 C 0.62505 0.80922 0.16562 0.0
C2218 C 0.59547 0.82112 0.1702 0.0
C2219 C 0.59961 0.83318 0.13539 0.0
C2220 C 0.61652 0.8331 0.11566 0.0
C2221 C 0.62915 0.82131 0.13163 0.0
C2222 C 0.57775 0.82125 0.19303 0.0
C2223 C 0.62126 0.84541 0.07757 0.0
H2224 H 0.55314 0.8526 0.04534 0.0
H2225 H 0.57585 0.88932 0.13837 0.0
H2226 H 0.58689 0.82207 0.04763 0.0
H2227 H 0.57183 0.8143 0.08927 0.0
H2228 H 0.56361 0.82373 0.03755 0.0
H2229 H 0.59702 0.88127 0.19186 0.0
H2230 H 0.59808 0.85828 0.20601 0.0
H2231 H 0.61313 0.86724 0.16585 0.0
H2232 H 0.60509 0.7996 0.21065 0.0
H2233 H 0.64213 0.82123 0.11667 0.0
H2234 H 0.56723 0.81905 0.16779 0.0
H2235 H 0.57537 0.83428 0.20856 0.0
H2236 H 0.57667 0.81105 0.2197 0.0
H2237 H 0.61159 0.84418 0.04972 0.0
H2238 H 0.63457 0.84281 0.06386 0.0
H2239 H 0.62078 0.85918 0.08963 0.0
C2240 C 0.54472 0.64691 0.59219 0.0
C2241 C 0.55205 0.6357 0.55978 0.0
C2242 C 0.55479 0.66024 0.612 0.0
C2243 C 0.57241 0.66255 0.59812 0.0
C2244 C 0.57932 0.65222 0.56256 0.0
C2245 C 0.56912 0.63871 0.54425 0.0
C2246 C 0.54706 0.67081 0.65023 0.0
C2247 C 0.5979 0.65463 0.54593 0.0
C2248 C 0.60017 0.70145 0.63315 0.0
C2249 C 0.6112 0.69362 0.66522 0.0
C2250 C 0.58687 0.69172 0.61209 0.0
C2251 C 0.58439 0.67396 0.62437 0.0
C2252 C 0.59471 0.66644 0.65914 0.0
C2253 C 0.60819 0.67631 0.67868 0.0
C2254 C 0.57632 0.70007 0.57467 0.0
C2255 C 0.59214 0.64766 0.67405 0.0
H2256 H 0.53153 0.64447 0.60441 0.0
H2257 H 0.5747 0.63011 0.51887 0.0
H2258 H 0.55278 0.66629 0.68269 0.0
H2259 H 0.5503 0.68491 0.64653 0.0
H2260 H 0.53257 0.66936 0.65218 0.0
H2261 H 0.6004 0.64729 0.51415 0.0
H2262 H 0.60071 0.66872 0.54002 0.0
H2263 H 0.60721 0.6499 0.57203 0.0
H2264 H 0.60264 0.71483 0.62252 0.0
H2265 H 0.61667 0.67035 0.70378 0.0
H2266 H 0.56216 0.69714 0.57865 0.0
H2267 H 0.58054 0.69454 0.54173 0.0
H2268 H 0.57812 0.71453 0.57356 0.0
H2269 H 0.57807 0.64505 0.68091 0.0
H2270 H 0.59982 0.6445 0.70489 0.0
H2271 H 0.59633 0.63867 0.64662 0.0
C2272 C 0.57442 0.36643 0.92747 0.0
C2273 C 0.55722 0.36757 0.91129 0.0
C2274 C 0.58607 0.35392 0.91006 0.0
C2275 C 0.58051 0.34282 0.87444 0.0
C2276 C 0.56309 0.3439 0.85815 0.0
C2277 C 0.55153 0.3561 0.8774 0.0
C2278 C 0.60437 0.35275 0.92933 0.0
C2279 C 0.55688 0.33267 0.8193 0.0
C2280 C 0.61754 0.32518 0.8021 0.0
C2281 C 0.6189 0.30796 0.81798 0.0
C2282 C 0.60454 0.33646 0.81881 0.0
C2283 C 0.59316 0.3305 0.85341 0.0
C2284 C 0.59441 0.31304 0.86924 0.0
C2285 C 0.60711 0.30186 0.85071 0.0
C2286 C 0.6032 0.35483 0.80006 0.0
C2287 C 0.5829 0.3064 0.90708 0.0
H2288 H 0.57874 0.37532 0.95383 0.0
H2289 H 0.53825 0.3572 0.86455 0.0
H2290 H 0.60735 0.33902 0.93915 0.0
H2291 H 0.61409 0.35665 0.90332 0.0
H2292 H 0.60613 0.36131 0.95936 0.0
H2293 H 0.54284 0.33494 0.81112 0.0
H2294 H 0.56484 0.33555 0.78879 0.0
H2295 H 0.55872 0.31859 0.8273 0.0
H2296 H 0.62666 0.32982 0.77664 0.0
H2297 H 0.60836 0.28857 0.86338 0.0
H2298 H 0.60682 0.36446 0.82653 0.0
H2299 H 0.58949 0.35766 0.78983 0.0
H2300 H 0.61192 0.35685 0.77043 0.0
H2301 H 0.58543 0.31413 0.93817 0.0
H2302 H 0.58524 0.29232 0.91464 0.0
H2303 H 0.56886 0.30817 0.89838 0.0
C2304 C 0.89028 0.30007 0.14396 0.0
C2305 C 0.87867 0.30609 0.17721 0.0
C2306 C 0.9023 0.3115 0.12352 0.0
C2307 C 0.90304 0.32919 0.13786 0.0
C2308 C 0.89189 0.3351 0.17301 0.0
C2309 C 0.87958 0.32353 0.1917 0.0
C2310 C 0.9136 0.30488 0.08525 0.0
C2311 C 0.89272 0.35372 0.19021 0.0
C2312 C 0.94316 0.35649 0.11002 0.0
C2313 C 0.93661 0.36754 0.07617 0.0
C2314 C 0.93243 0.34378 0.13018 0.0
C2315 C 0.91495 0.34175 0.11498 0.0
C2316 C 0.90856 0.35233 0.07922 0.0
C2317 C 0.9194 0.36536 0.06079 0.0
C2318 C 0.93953 0.33312 0.16912 0.0
C2319 C 0.89017 0.35015 0.06116 0.0
H2320 H 0.88937 0.28661 0.13234 0.0
H2321 H 0.87059 0.32812 0.21751 0.0
H2322 H 0.9103 0.31207 0.05377 0.0
H2323 H 0.92764 0.30739 0.09249 0.0
H2324 H 0.9118 0.29061 0.07912 0.0
H2325 H 0.88428 0.35577 0.22035 0.0
H2326 H 0.90642 0.35721 0.19915 0.0
H2327 H 0.88842 0.36289 0.1633 0.0
H2328 H 0.95643 0.35837 0.12233 0.0
H2329 H 0.91439 0.37391 0.03451 0.0
H2330 H 0.93797 0.31891 0.1623 0.0
H2331 H 0.93194 0.33611 0.20019 0.0
H2332 H 0.95361 0.33587 0.17575 0.0
H2333 H 0.88766 0.33619 0.05271 0.0
H2334 H 0.88781 0.35824 0.03054 0.0
H2335 H 0.88053 0.35401 0.08741 0.0
C2336 C 0.95082 0.64383 0.41022 0.0
C2337 C 0.94438 0.6314 0.44088 0.0
C2338 C 0.93968 0.65654 0.39156 0.0
C2339 C 0.92188 0.65706 0.40507 0.0
C2340 C 0.91561 0.64515 0.43806 0.0
C2341 C 0.92689 0.63223 0.455 0.0
C2342 C 0.94669 0.6687 0.35557 0.0
C2343 C 0.89683 0.64565 0.45428 0.0
C2344 C 0.8934 0.69664 0.38003 0.0
C2345 C 0.88274 0.69007 0.34542 0.0
C2346 C 0.90658 0.68619 0.39925 0.0
C2347 C 0.9094 0.66906 0.38232 0.0
C2348 C 0.89933 0.66283 0.34544 0.0
C2349 C 0.88587 0.67332 0.32796 0.0
C2350 C 0.91674 0.69308 0.43928 0.0
C2351 C 0.90232 0.64484 0.32555 0.0
H2352 H 0.96433 0.64302 0.39898 0.0
H2353 H 0.92199 0.62264 0.47895 0.0
H2354 H 0.94037 0.66559 0.32276 0.0
H2355 H 0.94345 0.68252 0.36371 0.0
H2356 H 0.96113 0.66752 0.35147 0.0
H2357 H 0.8946 0.63681 0.48355 0.0
H2358 H 0.89315 0.6592 0.46416 0.0
H2359 H 0.88794 0.64161 0.4265 0.0
H2360 H 0.89078 0.70956 0.39378 0.0
H2361 H 0.87763 0.66835 0.30099 0.0
H2362 H 0.93104 0.69148 0.43381 0.0
H2363 H 0.91324 0.68538 0.46982 0.0
H2364 H 0.91394 0.70713 0.44602 0.0
H2365 H 0.91646 0.64285 0.31819 0.0
H2366 H 0.89474 0.64279 0.29392 0.0
H2367 H 0.89834 0.63466 0.35029 0.0
C2368 C 0.36627 0.32563 0.38584 0.0
C2369 C 0.3701 0.31318 0.35252 0.0
C2370 C 0.379 0.33768 0.40001 0.0
C2371 C 0.39569 0.3376 0.37912 0.0
C2372 C 0.3995 0.32525 0.34475 0.0
C2373 C 0.38671 0.31294 0.33242 0.0
C2374 C 0.37466 0.35032 0.43769 0.0
C2375 C 0.41698 0.32518 0.32074 0.0
C2376 C 0.42175 0.37976 0.38607 0.0
C2377 C 0.43447 0.37546 0.41833 0.0
C2378 C 0.40921 0.36744 0.37243 0.0
C2379 C 0.40908 0.35065 0.39277 0.0
C2380 C 0.42169 0.34637 0.42616 0.0
C2381 C 0.43448 0.35876 0.43797 0.0
C2382 C 0.39632 0.37228 0.33573 0.0
C2383 C 0.42157 0.32877 0.44955 0.0
H2384 H 0.35345 0.32562 0.40176 0.0
H2385 H 0.38959 0.3033 0.30652 0.0
H2386 H 0.38435 0.34894 0.46545 0.0
H2387 H 0.37551 0.36401 0.42524 0.0
H2388 H 0.36131 0.34814 0.45167 0.0
H2389 H 0.41761 0.31508 0.29374 0.0
H2390 H 0.41947 0.33822 0.3054 0.0
H2391 H 0.42769 0.32266 0.34525 0.0
H2392 H 0.42193 0.39263 0.37048 0.0
H2393 H 0.44433 0.35552 0.46305 0.0
H2394 H 0.38272 0.37155 0.34893 0.0
H2395 H 0.3973 0.36279 0.3074 0.0
H2396 H 0.3986 0.38569 0.32231 0.0
H2397 H 0.40857 0.32643 0.46531 0.0
H2398 H 0.43182 0.3278 0.47611 0.0
H2399 H 0.42375 0.31816 0.42456 0.0
C2400 C 0.38096 0.67194 0.18863 0.0
C2401 C 0.37987 0.68956 0.17573 0.0
C2402 C 0.39331 0.66074 0.16869 0.0
C2403 C 0.40432 0.66722 0.13391 0.0
C2404 C 0.40342 0.68509 0.12125 0.0
C2405 C 0.39136 0.69614 0.14289 0.0
C2406 C 0.39428 0.64188 0.18407 0.0
C2407 C 0.41459 0.69233 0.08345 0.0
C2408 C 0.44422 0.64011 0.10298 0.0
C2409 C 0.43747 0.62946 0.06854 0.0
C2410 C 0.43367 0.65271 0.12418 0.0
C2411 C 0.41616 0.65503 0.1095 0.0
C2412 C 0.4096 0.64495 0.07301 0.0
C2413 C 0.42027 0.63202 0.05348 0.0
C2414 C 0.44095 0.66286 0.16379 0.0
C2415 C 0.39117 0.64744 0.0555 0.0
H2416 H 0.37207 0.66691 0.21414 0.0
H2417 H 0.39031 0.70973 0.1325 0.0
H2418 H 0.38991 0.6331 0.15641 0.0
H2419 H 0.40803 0.63833 0.19231 0.0
H2420 H 0.38597 0.63937 0.21421 0.0
H2421 H 0.41281 0.70669 0.07901 0.0
H2422 H 0.42865 0.68965 0.08997 0.0
H2423 H 0.41112 0.6857 0.05129 0.0
H2424 H 0.45748 0.63793 0.11504 0.0
H2425 H 0.4151 0.62379 0.02674 0.0
H2426 H 0.43363 0.6593 0.19488 0.0
H2427 H 0.4392 0.67714 0.15851 0.0
H2428 H 0.4551 0.66016 0.16944 0.0
H2429 H 0.3816 0.64316 0.08149 0.0
H2430 H 0.38872 0.63985 0.02408 0.0
H2431 H 0.38865 0.66152 0.0486 0.0
C2432 C 0.07761 0.63048 0.94204 0.0
C2433 C 0.05989 0.62911 0.93032 0.0
C2434 C 0.08851 0.64275 0.92065 0.0
C2435 C 0.0816 0.65336 0.88561 0.0
C2436 C 0.06365 0.6521 0.87392 0.0
C2437 C 0.05292 0.64016 0.89701 0.0
C2438 C 0.10747 0.64413 0.93498 0.0
C2439 C 0.05596 0.6628 0.83583 0.0
C2440 C 0.10743 0.69374 0.85183 0.0
C2441 C 0.11799 0.68709 0.81708 0.0
C2442 C 0.09531 0.68297 0.87413 0.0
C2443 C 0.09336 0.66533 0.86023 0.0
C2444 C 0.10333 0.65884 0.82346 0.0
C2445 C 0.1158 0.66973 0.80283 0.0
C2446 C 0.08528 0.69021 0.91399 0.0
C2447 C 0.10118 0.64025 0.80676 0.0
H2448 H 0.08294 0.62192 0.96789 0.0
H2449 H 0.03924 0.63887 0.8875 0.0
H2450 H 0.11612 0.63982 0.90697 0.0
H2451 H 0.11082 0.65798 0.94266 0.0
H2452 H 0.11038 0.63599 0.96519 0.0
H2453 H 0.04164 0.66056 0.83174 0.0
H2454 H 0.05821 0.67698 0.84182 0.0
H2455 H 0.06261 0.65938 0.80366 0.0
H2456 H 0.10933 0.70712 0.86327 0.0
H2457 H 0.12398 0.66464 0.77587 0.0
H2458 H 0.08913 0.68306 0.9451 0.0
H2459 H 0.07099 0.6882 0.9093 0.0
H2460 H 0.08776 0.70442 0.91924 0.0
H2461 H 0.10588 0.63094 0.83289 0.0
H2462 H 0.10862 0.63782 0.77509 0.0
H2463 H 0.08712 0.63734 0.8006 0.0
C2464 C 0.04472 0.35119 0.60608 0.0
C2465 C 0.05215 0.3625 0.57401 0.0
C2466 C 0.05488 0.33819 0.62704 0.0
C2467 C 0.0727 0.33627 0.61467 0.0
C2468 C 0.07987 0.34685 0.5799 0.0
C2469 C 0.06956 0.36004 0.56045 0.0
C2470 C 0.04688 0.32739 0.66452 0.0
C2471 C 0.0987 0.34485 0.56489 0.0
C2472 C 0.10774 0.32152 0.69643 0.0
C2473 C 0.11085 0.30436 0.68181 0.0
C2474 C 0.09445 0.33165 0.67684 0.0
C2475 C 0.08444 0.32458 0.64087 0.0
C2476 C 0.08698 0.30695 0.62744 0.0
C2477 C 0.10006 0.29694 0.64855 0.0
C2478 C 0.09177 0.35025 0.69299 0.0
C2479 C 0.0768 0.29906 0.5887 0.0
H2480 H 0.03128 0.35321 0.61687 0.0
H2481 H 0.07524 0.36873 0.5354 0.0
H2482 H 0.05001 0.3133 0.66007 0.0
H2483 H 0.05254 0.33156 0.69736 0.0
H2484 H 0.0324 0.32894 0.66621 0.0
H2485 H 0.10159 0.35259 0.53397 0.0
H2486 H 0.10759 0.34934 0.59222 0.0
H2487 H 0.10174 0.33086 0.55813 0.0
H2488 H 0.11604 0.32718 0.72236 0.0
H2489 H 0.10261 0.2837 0.63694 0.0
H2490 H 0.07763 0.35285 0.69891 0.0
H2491 H 0.09632 0.35954 0.66663 0.0
H2492 H 0.09908 0.353 0.72467 0.0
H2493 H 0.06258 0.30181 0.59229 0.0
H2494 H 0.07873 0.28465 0.58623 0.0
H2495 H 0.08118 0.30513 0.55654 0.0
loop_
_geom_bond_atom_site_label_1
_geom_bond_atom_site_label_2
_geom_bond_distance
_geom_bond_site_symmetry_2
_ccdc_geom_bond_type
C0 O2 1.247 . S
C0 O4 1.258 1_455 S
C1 O8 1.247 1_455 S
C1 O9 1.258 . S
O2 C0 1.247 . S
O2 Zn3 2.028 1_556 S
Zn3 O2 2.028 1_554 S
Zn3 O7 2.035 . S
Zn3 O9 2.035 . S
Zn3 O10 2.028 . S
O4 C0 1.258 1_655 S
O4 Zn5 2.035 1_556 S
Zn5 O4 2.035 1_554 S
Zn5 O6 2.028 1_655 S
Zn5 O8 2.028 . S
Zn5 O11 2.035 . S
O6 Zn5 2.028 1_455 S
O6 C12 1.247 . S
O7 Zn3 2.035 . S
O7 C12 1.258 . S
O8 C1 1.247 1_655 S
O8 Zn5 2.028 . S
O9 C1 1.258 . S
O9 Zn3 2.035 . S
O10 Zn3 2.028 . S
O10 C13 1.247 1_455 S
O11 Zn5 2.035 . S
O11 C13 1.258 . S
C12 O6 1.247 . S
C12 O7 1.258 . S
C13 O10 1.247 1_655 S
C13 O11 1.258 . S
C14 O16 1.247 . S
C14 O18 1.258 . S
C15 O22 1.247 . S
C15 O23 1.258 . S
O16 C14 1.247 . S
O16 Zn17 2.028 . S
Zn17 O16 2.028 . S
Zn17 O21 2.035 . S
Zn17 O23 2.035 . S
Zn17 O24 2.028 . S
O18 C14 1.258 . S
O18 Zn19 2.035 . S
Zn19 O18 2.035 . S
Zn19 O20 2.028 . S
Zn19 O22 2.028 . S
Zn19 O25 2.035 . S
O20 Zn19 2.028 . S
O20 C26 1.247 . S
O21 Zn17 2.035 . S
O21 C26 1.258 . S
O22 C15 1.247 . S
O22 Zn19 2.028 . S
O23 C15 1.258 . S
O23 Zn17 2.035 . S
O24 Zn17 2.028 . S
O24 C27 1.247 . S
O25 Zn19 2.035 . S
O25 C27 1.258 . S
C26 O20 1.247 . S
C26 O21 1.258 . S
C27 O24 1.247 . S
C27 O25 1.258 . S
C28 O30 1.247 . S
C28 O32 1.258 . S
C29 O36 1.247 . S
C29 O37 1.258 . S
O30 C28 1.247 . S
O30 Zn31 2.028 . S
Zn31 O30 2.028 . S
Zn31 O35 2.035 . S
Zn31 O37 2.035 . S
Zn31 O38 2.028 . S
O32 C28 1.258 . S
O32 Zn33 2.035 . S
Zn33 O32 2.035 . S
Zn33 O34 2.028 . S
Zn33 O36 2.028 . S
Zn33 O39 2.035 . S
O34 Zn33 2.028 . S
O34 C40 1.247 . S
O35 Zn31 2.035 . S
O35 C40 1.258 . S
O36 C29 1.247 . S
O36 Zn33 2.028 . S
O37 C29 1.258 . S
O37 Zn31 2.035 . S
O38 Zn31 2.028 . S
O38 C41 1.247 . S
O39 Zn33 2.035 . S
O39 C41 1.258 . S
C40 O34 1.247 . S
C40 O35 1.258 . S
C41 O38 1.247 . S
C41 O39 1.258 . S
C42 O44 1.247 . S
C42 O46 1.258 . S
C43 O50 1.247 . S
C43 O51 1.258 . S
O44 C42 1.247 . S
O44 Zn45 2.028 . S
Zn45 O44 2.028 . S
Zn45 O49 2.035 . S
Zn45 O51 2.035 . S
Zn45 O52 2.028 . S
O46 C42 1.258 . S
O46 Zn47 2.035 . S
Zn47 O46 2.035 . S
Zn47 O48 2.028 . S
Zn47 O50 2.028 . S
Zn47 O53 2.035 . S
O48 Zn47 2.028 . S
O48 C54 1.247 . S
O49 Zn45 2.035 . S
O49 C54 1.258 . S
O50 C43 1.247 . S
O50 Zn47 2.028 . S
O51 C43 1.258 . S
O51 Zn45 2.035 . S
O52 Zn45 2.028 . S
O52 C55 1.247 . S
O53 Zn47 2.035 . S
O53 C55 1.258 . S
C54 O48 1.247 . S
C54 O49 1.258 . S
C55 O52 1.247 . S
C55 O53 1.258 . S
C56 O58 1.247 . S
C56 O60 1.258 . S
C57 O64 1.247 1_655 S
C57 O65 1.258 . S
O58 C56 1.247 . S
O58 Zn59 2.028 1_455 S
Zn59 O58 2.028 1_655 S
Zn59 O63 2.035 . S
Zn59 O65 2.035 . S
Zn59 O66 2.028 . S
O60 C56 1.258 . S
O60 Zn61 2.035 . S
Zn61 O60 2.035 . S
Zn61 O62 2.028 . S
Zn61 O64 2.028 . S
Zn61 O67 2.035 . S
O62 Zn61 2.028 . S
O62 C68 1.247 . S
O63 Zn59 2.035 . S
O63 C68 1.258 1_655 S
O64 C57 1.247 1_455 S
O64 Zn61 2.028 . S
O65 C57 1.258 . S
O65 Zn59 2.035 . S
O66 Zn59 2.028 . S
O66 C69 1.247 1_655 S
O67 Zn61 2.035 . S
O67 C69 1.258 . S
C68 O62 1.247 . S
C68 O63 1.258 1_455 S
C69 O66 1.247 1_455 S
C69 O67 1.258 . S
C70 O72 1.247 . S
C70 O74 1.258 . S
C71 O78 1.247 . S
C71 O79 1.258 . S
O72 C70 1.247 . S
O72 Zn73 2.028 . S
Zn73 O72 2.028 . S
Zn73 O77 2.035 . S
Zn73 O79 2.035 . S
Zn73 O80 2.028 . S
O74 C70 1.258 . S
O74 Zn75 2.035 . S
Zn75 O74 2.035 . S
Zn75 O76 2.028 . S
Zn75 O78 2.028 . S
Zn75 O81 2.035 . S
O76 Zn75 2.028 . S
O76 C82 1.247 . S
O77 Zn73 2.035 . S
O77 C82 1.258 . S
O78 C71 1.247 . S
O78 Zn75 2.028 . S
O79 C71 1.258 . S
O79 Zn73 2.035 . S
O80 Zn73 2.028 . S
O80 C83 1.247 . S
O81 Zn75 2.035 . S
O81 C83 1.258 . S
C82 O76 1.247 . S
C82 O77 1.258 . S
C83 O80 1.247 . S
C83 O81 1.258 . S
C84 O86 1.247 . S
C84 O88 1.258 . S
C85 O92 1.247 . S
C85 O93 1.258 . S
O86 C84 1.247 . S
O86 Zn87 2.028 1_554 S
Zn87 O86 2.028 1_556 S
Zn87 O91 2.035 . S
Zn87 O93 2.035 . S
Zn87 O94 2.028 . S
O88 C84 1.258 . S
O88 Zn89 2.035 1_554 S
Zn89 O88 2.035 1_556 S
Zn89 O90 2.028 . S
Zn89 O92 2.028 . S
Zn89 O95 2.035 . S
O90 Zn89 2.028 . S
O90 C96 1.247 . S
O91 Zn87 2.035 . S
O91 C96 1.258 . S
O92 C85 1.247 . S
O92 Zn89 2.028 . S
O93 C85 1.258 . S
O93 Zn87 2.035 . S
O94 Zn87 2.028 . S
O94 C97 1.247 . S
O95 Zn89 2.035 . S
O95 C97 1.258 . S
C96 O90 1.247 . S
C96 O91 1.258 . S
C97 O94 1.247 . S
C97 O95 1.258 . S
C98 O100 1.247 . S
C98 O102 1.258 . S
C99 O106 1.247 . S
C99 O107 1.258 . S
O100 C98 1.247 . S
O100 Zn101 2.028 . S
Zn101 O100 2.028 . S
Zn101 O105 2.035 . S
Zn101 O107 2.035 . S
Zn101 O108 2.028 . S
O102 C98 1.258 . S
O102 Zn103 2.035 . S
Zn103 O102 2.035 . S
Zn103 O104 2.028 . S
Zn103 O106 2.028 . S
Zn103 O109 2.035 . S
O104 Zn103 2.028 . S
O104 C110 1.247 . S
O105 Zn101 2.035 . S
O105 C110 1.258 . S
O106 C99 1.247 . S
O106 Zn103 2.028 . S
O107 C99 1.258 . S
O107 Zn101 2.035 . S
O108 Zn101 2.028 . S
O108 C111 1.247 . S
O109 Zn103 2.035 . S
O109 C111 1.258 . S
C110 O104 1.247 . S
C110 O105 1.258 . S
C111 O108 1.247 . S
C111 O109 1.258 . S
C112 O114 1.247 1_655 S
C112 O116 1.258 . S
C113 O120 1.247 . S
C113 O121 1.258 1_655 S
O114 C112 1.247 1_455 S
O114 Zn115 2.028 1_554 S
Zn115 O114 2.028 1_556 S
Zn115 O119 2.035 1_455 S
Zn115 O121 2.035 . S
Zn115 O122 2.028 . S
O116 C112 1.258 . S
O116 Zn117 2.035 1_554 S
Zn117 O116 2.035 1_556 S
Zn117 O118 2.028 . S
Zn117 O120 2.028 . S
Zn117 O123 2.035 . S
O118 Zn117 2.028 . S
O118 C124 1.247 . S
O119 Zn115 2.035 1_655 S
O119 C124 1.258 . S
O120 C113 1.247 . S
O120 Zn117 2.028 . S
O121 C113 1.258 1_455 S
O121 Zn115 2.035 . S
O122 Zn115 2.028 . S
O122 C125 1.247 . S
O123 Zn117 2.035 . S
O123 C125 1.258 1_655 S
C124 O118 1.247 . S
C124 O119 1.258 . S
C125 O122 1.247 . S
C125 O123 1.258 1_455 S
C126 O128 1.247 . S
C126 O130 1.258 . S
C127 O134 1.247 . S
C127 O135 1.258 . S
O128 C126 1.247 . S
O128 Zn129 2.028 . S
Zn129 O128 2.028 . S
Zn129 O133 2.035 . S
Zn129 O135 2.035 . S
Zn129 O136 2.028 . S
O130 C126 1.258 . S
O130 Zn131 2.035 . S
Zn131 O130 2.035 . S
Zn131 O132 2.028 . S
Zn131 O134 2.028 . S
Zn131 O137 2.035 . S
O132 Zn131 2.028 . S
O132 C138 1.247 . S
O133 Zn129 2.035 . S
O133 C138 1.258 . S
O134 C127 1.247 . S
O134 Zn131 2.028 . S
O135 C127 1.258 . S
O135 Zn129 2.035 . S
O136 Zn129 2.028 . S
O136 C139 1.247 . S
O137 Zn131 2.035 . S
O137 C139 1.258 . S
C138 O132 1.247 . S
C138 O133 1.258 . S
C139 O136 1.247 . S
C139 O137 1.258 . S
C140 O142 1.247 . S
C140 O144 1.258 . S
C141 O148 1.247 . S
C141 O149 1.258 . S
O142 C140 1.247 . S
O142 Zn143 2.028 . S
Zn143 O142 2.028 . S
Zn143 O147 2.035 . S
Zn143 O149 2.035 . S
Zn143 O150 2.028 . S
O144 C140 1.258 . S
O144 Zn145 2.035 . S
Zn145 O144 2.035 . S
Zn145 O146 2.028 . S
Zn145 O148 2.028 . S
Zn145 O151 2.035 . S
O146 Zn145 2.028 . S
O146 C152 1.247 . S
O147 Zn143 2.035 . S
O147 C152 1.258 . S
O148 C141 1.247 . S
O148 Zn145 2.028 . S
O149 C141 1.258 . S
O149 Zn143 2.035 . S
O150 Zn143 2.028 . S
O150 C153 1.247 . S
O151 Zn145 2.035 . S
O151 C153 1.258 . S
C152 O146 1.247 . S
C152 O147 1.258 . S
C153 O150 1.247 . S
C153 O151 1.258 . S
C154 O156 1.247 . S
C154 O158 1.258 . S
C155 O162 1.247 . S
C155 O163 1.258 . S
O156 C154 1.247 . S
O156 Zn157 2.028 . S
Zn157 O156 2.028 . S
Zn157 O161 2.035 . S
Zn157 O163 2.035 . S
Zn157 O164 2.028 . S
O158 C154 1.258 . S
O158 Zn159 2.035 . S
Zn159 O158 2.035 . S
Zn159 O160 2.028 . S
Zn159 O162 2.028 . S
Zn159 O165 2.035 . S
O160 Zn159 2.028 . S
O160 C166 1.247 . S
O161 Zn157 2.035 . S
O161 C166 1.258 . S
O162 C155 1.247 . S
O162 Zn159 2.028 . S
O163 C155 1.258 . S
O163 Zn157 2.035 . S
O164 Zn157 2.028 . S
O164 C167 1.247 . S
O165 Zn159 2.035 . S
O165 C167 1.258 . S
C166 O160 1.247 . S
C166 O161 1.258 . S
C167 O164 1.247 . S
C167 O165 1.258 . S
C168 O170 1.247 . S
C168 O172 1.258 . S
C169 O176 1.247 . S
C169 O177 1.258 1_455 S
O170 C168 1.247 . S
O170 Zn171 2.028 . S
Zn171 O170 2.028 . S
Zn171 O175 2.035 . S
Zn171 O177 2.035 . S
Zn171 O178 2.028 . S
O172 C168 1.258 . S
O172 Zn173 2.035 1_655 S
Zn173 O172 2.035 1_455 S
Zn173 O174 2.028 . S
Zn173 O176 2.028 . S
Zn173 O179 2.035 . S
O174 Zn173 2.028 . S
O174 C180 1.247 1_455 S
O175 Zn171 2.035 . S
O175 C180 1.258 . S
O176 C169 1.247 . S
O176 Zn173 2.028 . S
O177 C169 1.258 1_655 S
O177 Zn171 2.035 . S
O178 Zn171 2.028 . S
O178 C181 1.247 . S
O179 Zn173 2.035 . S
O179 C181 1.258 1_455 S
C180 O174 1.247 1_655 S
C180 O175 1.258 . S
C181 O178 1.247 . S
C181 O179 1.258 1_655 S
C182 O184 1.247 . S
C182 O186 1.258 . S
C183 O190 1.247 . S
C183 O191 1.258 . S
O184 C182 1.247 . S
O184 Zn185 2.028 . S
Zn185 O184 2.028 . S
Zn185 O189 2.035 . S
Zn185 O191 2.035 . S
Zn185 O192 2.028 . S
O186 C182 1.258 . S
O186 Zn187 2.035 . S
Zn187 O186 2.035 . S
Zn187 O188 2.028 . S
Zn187 O190 2.028 . S
Zn187 O193 2.035 . S
O188 Zn187 2.028 . S
O188 C194 1.247 . S
O189 Zn185 2.035 . S
O189 C194 1.258 . S
O190 C183 1.247 . S
O190 Zn187 2.028 . S
O191 C183 1.258 . S
O191 Zn185 2.035 . S
O192 Zn185 2.028 . S
O192 C195 1.247 . S
O193 Zn187 2.035 . S
O193 C195 1.258 . S
C194 O188 1.247 . S
C194 O189 1.258 . S
C195 O192 1.247 . S
C195 O193 1.258 . S
C196 O198 1.247 . S
C196 O200 1.258 . S
C197 O204 1.247 . S
C197 O205 1.258 . S
O198 C196 1.247 . S
O198 Zn199 2.028 . S
Zn199 O198 2.028 . S
Zn199 O203 2.035 . S
Zn199 O205 2.035 1_554 S
Zn199 O206 2.028 . S
O200 C196 1.258 . S
O200 Zn201 2.035 . S
Zn201 O200 2.035 . S
Zn201 O202 2.028 . S
Zn201 O204 2.028 1_554 S
Zn201 O207 2.035 . S
O202 Zn201 2.028 . S
O202 C208 1.247 . S
O203 Zn199 2.035 . S
O203 C208 1.258 . S
O204 C197 1.247 . S
O204 Zn201 2.028 1_556 S
O205 C197 1.258 . S
O205 Zn199 2.035 1_556 S
O206 Zn199 2.028 . S
O206 C209 1.247 . S
O207 Zn201 2.035 . S
O207 C209 1.258 . S
C208 O202 1.247 . S
C208 O203 1.258 . S
C209 O206 1.247 . S
C209 O207 1.258 . S
C210 O212 1.247 . S
C210 O214 1.258 . S
C211 O218 1.247 . S
C211 O219 1.258 . S
O212 C210 1.247 . S
O212 Zn213 2.028 . S
Zn213 O212 2.028 . S
Zn213 O217 2.035 . S
Zn213 O219 2.035 . S
Zn213 O220 2.028 . S
O214 C210 1.258 . S
O214 Zn215 2.035 . S
Zn215 O214 2.035 . S
Zn215 O216 2.028 . S
Zn215 O218 2.028 . S
Zn215 O221 2.035 . S
O216 Zn215 2.028 . S
O216 C222 1.247 . S
O217 Zn213 2.035 . S
O217 C222 1.258 . S
O218 C211 1.247 . S
O218 Zn215 2.028 . S
O219 C211 1.258 . S
O219 Zn213 2.035 . S
O220 Zn213 2.028 . S
O220 C223 1.247 . S
O221 Zn215 2.035 . S
O221 C223 1.258 . S
C222 O216 1.247 . S
C222 O217 1.258 . S
C223 O220 1.247 . S
C223 O221 1.258 . S
C224 O226 1.247 . S
C224 O228 1.258 . S
C225 O232 1.247 . S
C225 O233 1.258 . S
O226 C224 1.247 . S
O226 Zn227 2.028 . S
Zn227 O226 2.028 . S
Zn227 O231 2.035 . S
Zn227 O233 2.035 . S
Zn227 O234 2.028 . S
O228 C224 1.258 . S
O228 Zn229 2.035 . S
Zn229 O228 2.035 . S
Zn229 O230 2.028 . S
Zn229 O232 2.028 . S
Zn229 O235 2.035 . S
O230 Zn229 2.028 . S
O230 C236 1.247 . S
O231 Zn227 2.035 . S
O231 C236 1.258 . S
O232 C225 1.247 . S
O232 Zn229 2.028 . S
O233 C225 1.258 . S
O233 Zn227 2.035 . S
O234 Zn227 2.028 . S
O234 C237 1.247 . S
O235 Zn229 2.035 . S
O235 C237 1.258 . S
C236 O230 1.247 . S
C236 O231 1.258 . S
C237 O234 1.247 . S
C237 O235 1.258 . S
C238 O240 1.247 . S
C238 O242 1.258 . S
C239 O246 1.247 . S
C239 O247 1.258 . S
O240 C238 1.247 . S
O240 Zn241 2.028 . S
Zn241 O240 2.028 . S
Zn241 O245 2.035 . S
Zn241 O247 2.035 . S
Zn241 O248 2.028 . S
O242 C238 1.258 . S
O242 Zn243 2.035 . S
Zn243 O242 2.035 . S
Zn243 O244 2.028 . S
Zn243 O246 2.028 . S
Zn243 O249 2.035 . S
O244 Zn243 2.028 . S
O244 C250 1.247 . S
O245 Zn241 2.035 . S
O245 C250 1.258 . S
O246 C239 1.247 . S
O246 Zn243 2.028 . S
O247 C239 1.258 . S
O247 Zn241 2.035 . S
O248 Zn241 2.028 . S
O248 C251 1.247 . S
O249 Zn243 2.035 . S
O249 C251 1.258 . S
C250 O244 1.247 . S
C250 O245 1.258 . S
C251 O248 1.247 . S
C251 O249 1.258 . S
C252 O254 1.247 . S
C252 O256 1.258 1_655 S
C253 O260 1.247 1_655 S
C253 O261 1.258 . S
O254 C252 1.247 . S
O254 Zn255 2.028 1_556 S
Zn255 O254 2.028 1_554 S
Zn255 O259 2.035 . S
Zn255 O261 2.035 . S
Zn255 O262 2.028 . S
O256 C252 1.258 1_455 S
O256 Zn257 2.035 1_556 S
Zn257 O256 2.035 1_554 S
Zn257 O258 2.028 1_455 S
Zn257 O260 2.028 . S
Zn257 O263 2.035 . S
O258 Zn257 2.028 1_655 S
O258 C264 1.247 . S
O259 Zn255 2.035 . S
O259 C264 1.258 . S
O260 C253 1.247 1_455 S
O260 Zn257 2.028 . S
O261 C253 1.258 . S
O261 Zn255 2.035 . S
O262 Zn255 2.028 . S
O262 C265 1.247 1_655 S
O263 Zn257 2.035 . S
O263 C265 1.258 . S
C264 O258 1.247 . S
C264 O259 1.258 . S
C265 O262 1.247 1_455 S
C265 O263 1.258 . S
C266 O268 1.247 . S
C266 O270 1.258 . S
C267 O274 1.247 . S
C267 O275 1.258 . S
O268 C266 1.247 . S
O268 Zn269 2.028 . S
Zn269 O268 2.028 . S
Zn269 O273 2.035 . S
Zn269 O275 2.035 . S
Zn269 O276 2.028 . S
O270 C266 1.258 . S
O270 Zn271 2.035 . S
Zn271 O270 2.035 . S
Zn271 O272 2.028 . S
Zn271 O274 2.028 . S
Zn271 O277 2.035 . S
O272 Zn271 2.028 . S
O272 C278 1.247 . S
O273 Zn269 2.035 . S
O273 C278 1.258 . S
O274 C267 1.247 . S
O274 Zn271 2.028 . S
O275 C267 1.258 . S
O275 Zn269 2.035 . S
O276 Zn269 2.028 . S
O276 C279 1.247 . S
O277 Zn271 2.035 . S
O277 C279 1.258 . S
C278 O272 1.247 . S
C278 O273 1.258 . S
C279 O276 1.247 . S
C279 O277 1.258 . S
C280 O282 1.247 . S
C280 O284 1.258 . S
C281 O288 1.247 . S
C281 O289 1.258 . S
O282 C280 1.247 . S
O282 Zn283 2.028 1_554 S
Zn283 O282 2.028 1_556 S
Zn283 O287 2.035 . S
Zn283 O289 2.035 . S
Zn283 O290 2.028 . S
O284 C280 1.258 . S
O284 Zn285 2.035 1_554 S
Zn285 O284 2.035 1_556 S
Zn285 O286 2.028 . S
Zn285 O288 2.028 . S
Zn285 O291 2.035 . S
O286 Zn285 2.028 . S
O286 C292 1.247 . S
O287 Zn283 2.035 . S
O287 C292 1.258 . S
O288 C281 1.247 . S
O288 Zn285 2.028 . S
O289 C281 1.258 . S
O289 Zn283 2.035 . S
O290 Zn283 2.028 . S
O290 C293 1.247 . S
O291 Zn285 2.035 . S
O291 C293 1.258 . S
C292 O286 1.247 . S
C292 O287 1.258 . S
C293 O290 1.247 . S
C293 O291 1.258 . S
C294 O296 1.247 . S
C294 O298 1.258 . S
C295 O302 1.247 . S
C295 O303 1.258 . S
O296 C294 1.247 . S
O296 Zn297 2.028 . S
Zn297 O296 2.028 . S
Zn297 O301 2.035 . S
Zn297 O303 2.035 . S
Zn297 O304 2.028 . S
O298 C294 1.258 . S
O298 Zn299 2.035 . S
Zn299 O298 2.035 . S
Zn299 O300 2.028 . S
Zn299 O302 2.028 . S
Zn299 O305 2.035 . S
O300 Zn299 2.028 . S
O300 C306 1.247 . S
O301 Zn297 2.035 . S
O301 C306 1.258 . S
O302 C295 1.247 . S
O302 Zn299 2.028 . S
O303 C295 1.258 . S
O303 Zn297 2.035 . S
O304 Zn297 2.028 . S
O304 C307 1.247 . S
O305 Zn299 2.035 . S
O305 C307 1.258 . S
C306 O300 1.247 . S
C306 O301 1.258 . S
C307 O304 1.247 . S
C307 O305 1.258 . S
C308 O310 1.247 . S
C308 O312 1.258 . S
C309 O316 1.247 1_455 S
C309 O317 1.258 . S
O310 C308 1.247 . S
O310 Zn311 2.028 1_655 S
Zn311 O310 2.028 1_455 S
Zn311 O315 2.035 . S
Zn311 O317 2.035 . S
Zn311 O318 2.028 . S
O312 C308 1.258 . S
O312 Zn313 2.035 . S
Zn313 O312 2.035 . S
Zn313 O314 2.028 . S
Zn313 O316 2.028 . S
Zn313 O319 2.035 . S
O314 Zn313 2.028 . S
O314 C320 1.247 . S
O315 Zn311 2.035 . S
O315 C320 1.258 1_455 S
O316 C309 1.247 1_655 S
O316 Zn313 2.028 . S
O317 C309 1.258 . S
O317 Zn311 2.035 . S
O318 Zn311 2.028 . S
O318 C321 1.247 1_455 S
O319 Zn313 2.035 . S
O319 C321 1.258 . S
C320 O314 1.247 . S
C320 O315 1.258 1_655 S
C321 O318 1.247 1_655 S
C321 O319 1.258 . S
C322 O324 1.247 . S
C322 O326 1.258 . S
C323 O330 1.247 . S
C323 O331 1.258 . S
O324 C322 1.247 . S
O324 Zn325 2.028 . S
Zn325 O324 2.028 . S
Zn325 O329 2.035 . S
Zn325 O331 2.035 . S
Zn325 O332 2.028 . S
O326 C322 1.258 . S
O326 Zn327 2.035 . S
Zn327 O326 2.035 . S
Zn327 O328 2.028 . S
Zn327 O330 2.028 . S
Zn327 O333 2.035 . S
O328 Zn327 2.028 . S
O328 C334 1.247 . S
O329 Zn325 2.035 . S
O329 C334 1.258 . S
O330 C323 1.247 . S
O330 Zn327 2.028 . S
O331 C323 1.258 . S
O331 Zn325 2.035 . S
O332 Zn325 2.028 . S
O332 C335 1.247 . S
O333 Zn327 2.035 . S
O333 C335 1.258 . S
C334 O328 1.247 . S
C334 O329 1.258 . S
C335 O332 1.247 . S
C335 O333 1.258 . S
C336 O338 1.247 . S
C336 O340 1.258 . S
C337 O344 1.247 . S
C337 O345 1.258 . S
O338 C336 1.247 . S
O338 Zn339 2.028 . S
Zn339 O338 2.028 . S
Zn339 O343 2.035 . S
Zn339 O345 2.035 . S
Zn339 O346 2.028 . S
O340 C336 1.258 . S
O340 Zn341 2.035 . S
Zn341 O340 2.035 . S
Zn341 O342 2.028 . S
Zn341 O344 2.028 . S
Zn341 O347 2.035 . S
O342 Zn341 2.028 . S
O342 C348 1.247 . S
O343 Zn339 2.035 . S
O343 C348 1.258 . S
O344 C337 1.247 . S
O344 Zn341 2.028 . S
O345 C337 1.258 . S
O345 Zn339 2.035 . S
O346 Zn339 2.028 . S
O346 C349 1.247 . S
O347 Zn341 2.035 . S
O347 C349 1.258 . S
C348 O342 1.247 . S
C348 O343 1.258 . S
C349 O346 1.247 . S
C349 O347 1.258 . S
C350 O352 1.247 . S
C350 O354 1.258 . S
C351 O358 1.247 . S
C351 O359 1.258 . S
O352 C350 1.247 . S
O352 Zn353 2.028 . S
Zn353 O352 2.028 . S
Zn353 O357 2.035 . S
Zn353 O359 2.035 . S
Zn353 O360 2.028 . S
O354 C350 1.258 . S
O354 Zn355 2.035 . S
Zn355 O354 2.035 . S
Zn355 O356 2.028 . S
Zn355 O358 2.028 . S
Zn355 O361 2.035 . S
O356 Zn355 2.028 . S
O356 C362 1.247 . S
O357 Zn353 2.035 . S
O357 C362 1.258 . S
O358 C351 1.247 . S
O358 Zn355 2.028 . S
O359 C351 1.258 . S
O359 Zn353 2.035 . S
O360 Zn353 2.028 . S
O360 C363 1.247 . S
O361 Zn355 2.035 . S
O361 C363 1.258 . S
C362 O356 1.247 . S
C362 O357 1.258 . S
C363 O360 1.247 . S
C363 O361 1.258 . S
C364 O366 1.247 . S
C364 O368 1.258 . S
C365 O372 1.247 . S
C365 O373 1.258 1_655 S
O366 C364 1.247 . S
O366 Zn367 2.028 . S
Zn367 O366 2.028 . S
Zn367 O371 2.035 1_556 S
Zn367 O373 2.035 . S
Zn367 O374 2.028 . S
O368 C364 1.258 . S
O368 Zn369 2.035 1_455 S
Zn369 O368 2.035 1_655 S
Zn369 O370 2.028 1_556 S
Zn369 O372 2.028 . S
Zn369 O375 2.035 . S
O370 Zn369 2.028 1_554 S
O370 C376 1.247 1_655 S
O371 Zn367 2.035 1_554 S
O371 C376 1.258 . S
O372 C365 1.247 . S
O372 Zn369 2.028 . S
O373 C365 1.258 1_455 S
O373 Zn367 2.035 . S
O374 Zn367 2.028 . S
O374 C377 1.247 . S
O375 Zn369 2.035 . S
O375 C377 1.258 1_655 S
C376 O370 1.247 1_455 S
C376 O371 1.258 . S
C377 O374 1.247 . S
C377 O375 1.258 1_455 S
C378 O380 1.247 . S
C378 O382 1.258 . S
C379 O386 1.247 . S
C379 O387 1.258 . S
O380 C378 1.247 . S
O380 Zn381 2.028 . S
Zn381 O380 2.028 . S
Zn381 O385 2.035 . S
Zn381 O387 2.035 . S
Zn381 O388 2.028 . S
O382 C378 1.258 . S
O382 Zn383 2.035 . S
Zn383 O382 2.035 . S
Zn383 O384 2.028 . S
Zn383 O386 2.028 . S
Zn383 O389 2.035 . S
O384 Zn383 2.028 . S
O384 C390 1.247 . S
O385 Zn381 2.035 . S
O385 C390 1.258 . S
O386 C379 1.247 . S
O386 Zn383 2.028 . S
O387 C379 1.258 . S
O387 Zn381 2.035 . S
O388 Zn381 2.028 . S
O388 C391 1.247 . S
O389 Zn383 2.035 . S
O389 C391 1.258 . S
C390 O384 1.247 . S
C390 O385 1.258 . S
C391 O388 1.247 . S
C391 O389 1.258 . S
C392 O394 1.247 . S
C392 O396 1.258 . S
C393 O400 1.247 . S
C393 O401 1.258 . S
O394 C392 1.247 . S
O394 Zn395 2.028 . S
Zn395 O394 2.028 . S
Zn395 O399 2.035 . S
Zn395 O401 2.035 1_554 S
Zn395 O402 2.028 . S
O396 C392 1.258 . S
O396 Zn397 2.035 . S
Zn397 O396 2.035 . S
Zn397 O398 2.028 . S
Zn397 O400 2.028 1_554 S
Zn397 O403 2.035 . S
O398 Zn397 2.028 . S
O398 C404 1.247 . S
O399 Zn395 2.035 . S
O399 C404 1.258 . S
O400 C393 1.247 . S
O400 Zn397 2.028 1_556 S
O401 C393 1.258 . S
O401 Zn395 2.035 1_556 S
O402 Zn395 2.028 . S
O402 C405 1.247 . S
O403 Zn397 2.035 . S
O403 C405 1.258 . S
C404 O398 1.247 . S
C404 O399 1.258 . S
C405 O402 1.247 . S
C405 O403 1.258 . S
C406 O408 1.247 . S
C406 O410 1.258 . S
C407 O414 1.247 . S
C407 O415 1.258 . S
O408 C406 1.247 . S
O408 Zn409 2.028 . S
Zn409 O408 2.028 . S
Zn409 O413 2.035 . S
Zn409 O415 2.035 . S
Zn409 O416 2.028 . S
O410 C406 1.258 . S
O410 Zn411 2.035 . S
Zn411 O410 2.035 . S
Zn411 O412 2.028 . S
Zn411 O414 2.028 . S
Zn411 O417 2.035 . S
O412 Zn411 2.028 . S
O412 C418 1.247 . S
O413 Zn409 2.035 . S
O413 C418 1.258 . S
O414 C407 1.247 . S
O414 Zn411 2.028 . S
O415 C407 1.258 . S
O415 Zn409 2.035 . S
O416 Zn409 2.028 . S
O416 C419 1.247 . S
O417 Zn411 2.035 . S
O417 C419 1.258 . S
C418 O412 1.247 . S
C418 O413 1.258 . S
C419 O416 1.247 . S
C419 O417 1.258 . S
C420 O422 1.247 . S
C420 O424 1.258 . S
C421 O428 1.247 . S
C421 O429 1.258 1_655 S
O422 C420 1.247 . S
O422 Zn423 2.028 . S
Zn423 O422 2.028 . S
Zn423 O427 2.035 . S
Zn423 O429 2.035 . S
Zn423 O430 2.028 . S
O424 C420 1.258 . S
O424 Zn425 2.035 1_455 S
Zn425 O424 2.035 1_655 S
Zn425 O426 2.028 . S
Zn425 O428 2.028 . S
Zn425 O431 2.035 . S
O426 Zn425 2.028 . S
O426 C432 1.247 1_655 S
O427 Zn423 2.035 . S
O427 C432 1.258 . S
O428 C421 1.247 . S
O428 Zn425 2.028 . S
O429 C421 1.258 1_455 S
O429 Zn423 2.035 . S
O430 Zn423 2.028 . S
O430 C433 1.247 . S
O431 Zn425 2.035 . S
O431 C433 1.258 1_655 S
C432 O426 1.247 1_455 S
C432 O427 1.258 . S
C433 O430 1.247 . S
C433 O431 1.258 1_455 S
C434 O436 1.247 . S
C434 O438 1.258 . S
C435 O442 1.247 . S
C435 O443 1.258 . S
O436 C434 1.247 . S
O436 Zn437 2.028 . S
Zn437 O436 2.028 . S
Zn437 O441 2.035 . S
Zn437 O443 2.035 . S
Zn437 O444 2.028 . S
O438 C434 1.258 . S
O438 Zn439 2.035 . S
Zn439 O438 2.035 . S
Zn439 O440 2.028 . S
Zn439 O442 2.028 . S
Zn439 O445 2.035 . S
O440 Zn439 2.028 . S
O440 C446 1.247 . S
O441 Zn437 2.035 . S
O441 C446 1.258 . S
O442 C435 1.247 . S
O442 Zn439 2.028 . S
O443 C435 1.258 . S
O443 Zn437 2.035 . S
O444 Zn437 2.028 . S
O444 C447 1.247 . S
O445 Zn439 2.035 . S
O445 C447 1.258 . S
C446 O440 1.247 . S
C446 O441 1.258 . S
C447 O444 1.247 . S
C447 O445 1.258 . S
C448 C449 1.391 . S
C448 C450 1.394 . S
C448 H464 0.931 . S
C449 C448 1.391 . S
C449 C453 1.376 1_655 S
C450 C448 1.394 . S
C450 C451 1.369 1_655 S
C450 C454 1.531 . S
C451 C450 1.369 1_455 S
C451 C452 1.410 . S
C451 C459 1.503 . S
C452 C451 1.410 . S
C452 C453 1.392 . S
C452 C455 1.511 . S
C453 C449 1.376 1_455 S
C453 C452 1.392 . S
C453 H465 0.929 . S
C454 C450 1.531 . S
C454 H466 0.960 . S
C454 H467 0.962 . S
C454 H468 0.960 . S
C455 C452 1.511 . S
C455 H469 0.961 . S
C455 H470 0.961 . S
C455 H471 0.961 . S
C456 C457 1.370 1_655 S
C456 C458 1.363 . S
C456 H472 0.931 . S
C457 C456 1.370 1_455 S
C457 C461 1.408 . S
C458 C456 1.363 . S
C458 C459 1.370 1_655 S
C458 C462 1.524 . S
C459 C451 1.503 . S
C459 C458 1.370 1_455 S
C459 C460 1.403 . S
C460 C459 1.403 . S
C460 C461 1.404 . S
C460 C463 1.539 . S
C461 C457 1.408 . S
C461 C460 1.404 . S
C461 H473 0.930 . S
C462 C458 1.524 . S
C462 H474 0.956 . S
C462 H475 0.961 . S
C462 H476 0.961 . S
C463 C460 1.539 . S
C463 H477 0.958 . S
C463 H478 0.961 . S
C463 H479 0.960 . S
H464 C448 0.931 . S
H465 C453 0.929 . S
H466 C454 0.960 . S
H467 C454 0.962 . S
H468 C454 0.960 . S
H469 C455 0.961 . S
H470 C455 0.961 . S
H471 C455 0.961 . S
H472 C456 0.931 . S
H473 C461 0.930 . S
H474 C462 0.956 . S
H475 C462 0.961 . S
H476 C462 0.961 . S
H477 C463 0.958 . S
H478 C463 0.961 . S
H479 C463 0.960 . S
C480 C481 1.391 . S
C480 C482 1.394 1_556 S
C480 H496 0.931 . S
C481 C480 1.391 . S
C481 C485 1.376 . S
C482 C480 1.394 1_554 S
C482 C483 1.369 . S
C482 C486 1.531 . S
C483 C482 1.369 . S
C483 C484 1.410 . S
C483 C491 1.503 . S
C484 C483 1.410 . S
C484 C485 1.392 1_554 S
C484 C487 1.511 . S
C485 C481 1.376 . S
C485 C484 1.392 1_556 S
C485 H497 0.929 . S
C486 C482 1.531 . S
C486 H498 0.960 . S
C486 H499 0.962 . S
C486 H500 0.960 . S
C487 C484 1.511 . S
C487 H501 0.961 . S
C487 H502 0.961 . S
C487 H503 0.961 . S
C488 C489 1.370 . S
C488 C490 1.363 . S
C488 H504 0.931 . S
C489 C488 1.370 . S
C489 C493 1.408 . S
C490 C488 1.363 . S
C490 C491 1.370 . S
C490 C494 1.524 . S
C491 C483 1.503 . S
C491 C490 1.370 . S
C491 C492 1.403 . S
C492 C491 1.403 . S
C492 C493 1.404 . S
C492 C495 1.539 . S
C493 C489 1.408 . S
C493 C492 1.404 . S
C493 H505 0.930 . S
C494 C490 1.524 . S
C494 H506 0.956 . S
C494 H507 0.961 . S
C494 H508 0.961 . S
C495 C492 1.539 . S
C495 H509 0.958 . S
C495 H510 0.961 . S
C495 H511 0.960 . S
H496 C480 0.931 . S
H497 C485 0.929 . S
H498 C486 0.960 . S
H499 C486 0.962 . S
H500 C486 0.960 . S
H501 C487 0.961 . S
H502 C487 0.961 . S
H503 C487 0.961 . S
H504 C488 0.931 . S
H505 C493 0.930 . S
H506 C494 0.956 . S
H507 C494 0.961 . S
H508 C494 0.961 . S
H509 C495 0.958 . S
H510 C495 0.961 . S
H511 C495 0.960 . S
C512 C513 1.391 . S
C512 C514 1.394 . S
C512 H528 0.931 . S
C513 C512 1.391 . S
C513 C517 1.376 . S
C514 C512 1.394 . S
C514 C515 1.369 . S
C514 C518 1.531 . S
C515 C514 1.369 . S
C515 C516 1.410 . S
C515 C523 1.503 . S
C516 C515 1.410 . S
C516 C517 1.392 . S
C516 C519 1.511 . S
C517 C513 1.376 . S
C517 C516 1.392 . S
C517 H529 0.929 . S
C518 C514 1.531 . S
C518 H530 0.960 . S
C518 H531 0.962 . S
C518 H532 0.960 . S
C519 C516 1.511 . S
C519 H533 0.961 . S
C519 H534 0.961 . S
C519 H535 0.961 . S
C520 C521 1.370 . S
C520 C522 1.363 . S
C520 H536 0.931 . S
C521 C520 1.370 . S
C521 C525 1.408 . S
C522 C520 1.363 . S
C522 C523 1.370 . S
C522 C526 1.524 . S
C523 C515 1.503 . S
C523 C522 1.370 . S
C523 C524 1.403 . S
C524 C523 1.403 . S
C524 C525 1.404 . S
C524 C527 1.539 . S
C525 C521 1.408 . S
C525 C524 1.404 . S
C525 H537 0.930 . S
C526 C522 1.524 . S
C526 H538 0.956 . S
C526 H539 0.961 . S
C526 H540 0.961 . S
C527 C524 1.539 . S
C527 H541 0.958 . S
C527 H542 0.961 . S
C527 H543 0.960 . S
H528 C512 0.931 . S
H529 C517 0.929 . S
H530 C518 0.960 . S
H531 C518 0.962 . S
H532 C518 0.960 . S
H533 C519 0.961 . S
H534 C519 0.961 . S
H535 C519 0.961 . S
H536 C520 0.931 . S
H537 C525 0.930 . S
H538 C526 0.956 . S
H539 C526 0.961 . S
H540 C526 0.961 . S
H541 C527 0.958 . S
H542 C527 0.961 . S
H543 C527 0.960 . S
C544 C545 1.391 . S
C544 C546 1.394 . S
C544 H560 0.931 . S
C545 C544 1.391 . S
C545 C549 1.376 . S
C546 C544 1.394 . S
C546 C547 1.369 . S
C546 C550 1.531 . S
C547 C546 1.369 . S
C547 C548 1.410 . S
C547 C555 1.503 . S
C548 C547 1.410 . S
C548 C549 1.392 . S
C548 C551 1.511 . S
C549 C545 1.376 . S
C549 C548 1.392 . S
C549 H561 0.929 . S
C550 C546 1.531 . S
C550 H562 0.960 . S
C550 H563 0.962 . S
C550 H564 0.960 . S
C551 C548 1.511 . S
C551 H565 0.961 . S
C551 H566 0.961 . S
C551 H567 0.961 . S
C552 C553 1.370 . S
C552 C554 1.363 . S
C552 H568 0.931 . S
C553 C552 1.370 . S
C553 C557 1.408 . S
C554 C552 1.363 . S
C554 C555 1.370 . S
C554 C558 1.524 . S
C555 C547 1.503 . S
C555 C554 1.370 . S
C555 C556 1.403 . S
C556 C555 1.403 . S
C556 C557 1.404 . S
C556 C559 1.539 . S
C557 C553 1.408 . S
C557 C556 1.404 . S
C557 H569 0.930 . S
C558 C554 1.524 . S
C558 H570 0.956 . S
C558 H571 0.961 . S
C558 H572 0.961 . S
C559 C556 1.539 . S
C559 H573 0.958 . S
C559 H574 0.961 . S
C559 H575 0.960 . S
H560 C544 0.931 . S
H561 C549 0.929 . S
H562 C550 0.960 . S
H563 C550 0.962 . S
H564 C550 0.960 . S
H565 C551 0.961 . S
H566 C551 0.961 . S
H567 C551 0.961 . S
H568 C552 0.931 . S
H569 C557 0.930 . S
H570 C558 0.956 . S
H571 C558 0.961 . S
H572 C558 0.961 . S
H573 C559 0.958 . S
H574 C559 0.961 . S
H575 C559 0.960 . S
C576 C577 1.391 . S
C576 C578 1.394 . S
C576 H592 0.931 . S
C577 C576 1.391 . S
C577 C581 1.376 1_655 S
C578 C576 1.394 . S
C578 C579 1.369 1_655 S
C578 C582 1.531 . S
C579 C578 1.369 1_455 S
C579 C580 1.410 . S
C579 C587 1.503 . S
C580 C579 1.410 . S
C580 C581 1.392 . S
C580 C583 1.511 . S
C581 C577 1.376 1_455 S
C581 C580 1.392 . S
C581 H593 0.929 . S
C582 C578 1.531 . S
C582 H594 0.960 . S
C582 H595 0.962 . S
C582 H596 0.960 . S
C583 C580 1.511 . S
C583 H597 0.961 . S
C583 H598 0.961 . S
C583 H599 0.961 . S
C584 C585 1.370 1_655 S
C584 C586 1.363 . S
C584 H600 0.931 . S
C585 C584 1.370 1_455 S
C585 C589 1.408 . S
C586 C584 1.363 . S
C586 C587 1.370 1_655 S
C586 C590 1.524 . S
C587 C579 1.503 . S
C587 C586 1.370 1_455 S
C587 C588 1.403 . S
C588 C587 1.403 . S
C588 C589 1.404 . S
C588 C591 1.539 . S
C589 C585 1.408 . S
C589 C588 1.404 . S
C589 H601 0.930 . S
C590 C586 1.524 . S
C590 H602 0.956 . S
C590 H603 0.961 . S
C590 H604 0.961 . S
C591 C588 1.539 . S
C591 H605 0.958 . S
C591 H606 0.961 . S
C591 H607 0.960 . S
H592 C576 0.931 . S
H593 C581 0.929 . S
H594 C582 0.960 . S
H595 C582 0.962 . S
H596 C582 0.960 . S
H597 C583 0.961 . S
H598 C583 0.961 . S
H599 C583 0.961 . S
H600 C584 0.931 . S
H601 C589 0.930 . S
H602 C590 0.956 . S
H603 C590 0.961 . S
H604 C590 0.961 . S
H605 C591 0.958 . S
H606 C591 0.961 . S
H607 C591 0.960 . S
C608 C609 1.391 . S
C608 C610 1.394 . S
C608 H624 0.931 . S
C609 C608 1.391 . S
C609 C613 1.376 . S
C610 C608 1.394 . S
C610 C611 1.369 . S
C610 C614 1.531 . S
C611 C610 1.369 . S
C611 C612 1.410 . S
C611 C619 1.503 . S
C612 C611 1.410 . S
C612 C613 1.392 . S
C612 C615 1.511 . S
C613 C609 1.376 . S
C613 C612 1.392 . S
C613 H625 0.929 . S
C614 C610 1.531 . S
C614 H626 0.960 . S
C614 H627 0.962 . S
C614 H628 0.960 . S
C615 C612 1.511 . S
C615 H629 0.961 . S
C615 H630 0.961 . S
C615 H631 0.961 . S
C616 C617 1.370 . S
C616 C618 1.363 1_554 S
C616 H632 0.931 . S
C617 C616 1.370 . S
C617 C621 1.408 . S
C618 C616 1.363 1_556 S
C618 C619 1.370 . S
C618 C622 1.524 . S
C619 C611 1.503 . S
C619 C618 1.370 . S
C619 C620 1.403 . S
C620 C619 1.403 . S
C620 C621 1.404 1_556 S
C620 C623 1.539 . S
C621 C617 1.408 . S
C621 C620 1.404 1_554 S
C621 H633 0.930 . S
C622 C618 1.524 . S
C622 H634 0.956 . S
C622 H635 0.961 . S
C622 H636 0.961 . S
C623 C620 1.539 . S
C623 H637 0.958 . S
C623 H638 0.961 1_556 S
C623 H639 0.960 . S
H624 C608 0.931 . S
H625 C613 0.929 . S
H626 C614 0.960 . S
H627 C614 0.962 . S
H628 C614 0.960 . S
H629 C615 0.961 . S
H630 C615 0.961 . S
H631 C615 0.961 . S
H632 C616 0.931 . S
H633 C621 0.930 . S
H634 C622 0.956 . S
H635 C622 0.961 . S
H636 C622 0.961 . S
H637 C623 0.958 . S
H638 C623 0.961 1_554 S
H639 C623 0.960 . S
C640 C641 1.391 . S
C640 C642 1.394 . S
C640 H656 0.931 . S
C641 C640 1.391 . S
C641 C645 1.376 . S
C642 C640 1.394 . S
C642 C643 1.369 . S
C642 C646 1.531 . S
C643 C642 1.369 . S
C643 C644 1.410 . S
C643 C651 1.503 . S
C644 C643 1.410 . S
C644 C645 1.392 . S
C644 C647 1.511 . S
C645 C641 1.376 . S
C645 C644 1.392 . S
C645 H657 0.929 . S
C646 C642 1.531 . S
C646 H658 0.960 . S
C646 H659 0.962 . S
C646 H660 0.960 . S
C647 C644 1.511 . S
C647 H661 0.961 . S
C647 H662 0.961 . S
C647 H663 0.961 . S
C648 C649 1.370 . S
C648 C650 1.363 . S
C648 H664 0.931 . S
C649 C648 1.370 . S
C649 C653 1.408 . S
C650 C648 1.363 . S
C650 C651 1.370 . S
C650 C654 1.524 . S
C651 C643 1.503 . S
C651 C650 1.370 . S
C651 C652 1.403 . S
C652 C651 1.403 . S
C652 C653 1.404 . S
C652 C655 1.539 . S
C653 C649 1.408 . S
C653 C652 1.404 . S
C653 H665 0.930 . S
C654 C650 1.524 . S
C654 H666 0.956 . S
C654 H667 0.961 . S
C654 H668 0.961 . S
C655 C652 1.539 . S
C655 H669 0.958 . S
C655 H670 0.961 . S
C655 H671 0.960 . S
H656 C640 0.931 . S
H657 C645 0.929 . S
H658 C646 0.960 . S
H659 C646 0.962 . S
H660 C646 0.960 . S
H661 C647 0.961 . S
H662 C647 0.961 . S
H663 C647 0.961 . S
H664 C648 0.931 . S
H665 C653 0.930 . S
H666 C654 0.956 . S
H667 C654 0.961 . S
H668 C654 0.961 . S
H669 C655 0.958 . S
H670 C655 0.961 . S
H671 C655 0.960 . S
C672 C673 1.391 . S
C672 C674 1.394 . S
C672 H688 0.931 . S
C673 C672 1.391 . S
C673 C677 1.376 . S
C674 C672 1.394 . S
C674 C675 1.369 . S
C674 C678 1.531 . S
C675 C674 1.369 . S
C675 C676 1.410 . S
C675 C683 1.503 . S
C676 C675 1.410 . S
C676 C677 1.392 . S
C676 C679 1.511 . S
C677 C673 1.376 . S
C677 C676 1.392 . S
C677 H689 0.929 . S
C678 C674 1.531 . S
C678 H690 0.960 . S
C678 H691 0.962 . S
C678 H692 0.960 . S
C679 C676 1.511 . S
C679 H693 0.961 . S
C679 H694 0.961 . S
C679 H695 0.961 . S
C680 C681 1.370 . S
C680 C682 1.363 . S
C680 H696 0.931 . S
C681 C680 1.370 . S
C681 C685 1.408 . S
C682 C680 1.363 . S
C682 C683 1.370 . S
C682 C686 1.524 . S
C683 C675 1.503 . S
C683 C682 1.370 . S
C683 C684 1.403 . S
C684 C683 1.403 . S
C684 C685 1.404 . S
C684 C687 1.539 . S
C685 C681 1.408 . S
C685 C684 1.404 . S
C685 H697 0.930 . S
C686 C682 1.524 . S
C686 H698 0.956 . S
C686 H699 0.961 . S
C686 H700 0.961 . S
C687 C684 1.539 . S
C687 H701 0.958 . S
C687 H702 0.961 . S
C687 H703 0.960 . S
H688 C672 0.931 . S
H689 C677 0.929 . S
H690 C678 0.960 . S
H691 C678 0.962 . S
H692 C678 0.960 . S
H693 C679 0.961 . S
H694 C679 0.961 . S
H695 C679 0.961 . S
H696 C680 0.931 . S
H697 C685 0.930 . S
H698 C686 0.956 . S
H699 C686 0.961 . S
H700 C686 0.961 . S
H701 C687 0.958 . S
H702 C687 0.961 . S
H703 C687 0.960 . S
C704 C705 1.400 . S
C704 C706 1.391 1_455 S
C704 H720 0.924 1_455 S
C705 C704 1.400 . S
C705 C709 1.376 . S
C706 C704 1.391 1_655 S
C706 C707 1.369 1_655 S
C706 C710 1.531 . S
C707 C706 1.369 1_455 S
C707 C708 1.410 . S
C707 C715 1.498 1_455 S
C708 C707 1.410 . S
C708 C709 1.392 . S
C708 C711 1.511 . S
C709 C705 1.376 . S
C709 C708 1.392 . S
C709 H721 0.929 . S
C710 C706 1.531 . S
C710 H722 0.960 . S
C710 H723 0.962 . S
C710 H724 0.960 . S
C711 C708 1.511 . S
C711 H725 0.961 . S
C711 H726 0.961 . S
C711 H727 0.961 . S
C712 C713 1.370 . S
C712 C714 1.363 . S
C712 H728 0.931 . S
C713 C712 1.370 . S
C713 C717 1.408 1_655 S
C714 C712 1.363 . S
C714 C715 1.391 . S
C714 C718 1.524 . S
C715 C707 1.498 1_655 S
C715 C714 1.391 . S
C715 C716 1.388 1_655 S
C716 C715 1.388 1_455 S
C716 C717 1.404 . S
C716 C719 1.539 . S
C717 C713 1.408 1_455 S
C717 C716 1.404 . S
C717 H729 0.930 . S
C718 C714 1.524 . S
C718 H730 0.956 . S
C718 H731 0.961 . S
C718 H732 0.961 . S
C719 C716 1.539 . S
C719 H733 0.958 . S
C719 H734 0.961 . S
C719 H735 0.960 . S
H720 C704 0.924 1_655 S
H721 C709 0.929 . S
H722 C710 0.960 . S
H723 C710 0.962 . S
H724 C710 0.960 . S
H725 C711 0.961 . S
H726 C711 0.961 . S
H727 C711 0.961 . S
H728 C712 0.931 . S
H729 C717 0.930 . S
H730 C718 0.956 . S
H731 C718 0.961 . S
H732 C718 0.961 . S
H733 C719 0.958 . S
H734 C719 0.961 . S
H735 C719 0.960 . S
C736 C737 1.391 . S
C736 C738 1.394 1_554 S
C736 H752 0.931 . S
C737 C736 1.391 . S
C737 C741 1.376 . S
C738 C736 1.394 1_556 S
C738 C739 1.369 . S
C738 C742 1.531 . S
C739 C738 1.369 . S
C739 C740 1.410 . S
C739 C747 1.503 . S
C740 C739 1.410 . S
C740 C741 1.392 1_556 S
C740 C743 1.511 . S
C741 C737 1.376 . S
C741 C740 1.392 1_554 S
C741 H753 0.929 . S
C742 C738 1.531 . S
C742 H754 0.960 . S
C742 H755 0.962 . S
C742 H756 0.960 . S
C743 C740 1.511 . S
C743 H757 0.961 . S
C743 H758 0.961 . S
C743 H759 0.961 . S
C744 C745 1.370 . S
C744 C746 1.363 . S
C744 H760 0.931 . S
C745 C744 1.370 . S
C745 C749 1.408 . S
C746 C744 1.363 . S
C746 C747 1.370 . S
C746 C750 1.524 . S
C747 C739 1.503 . S
C747 C746 1.370 . S
C747 C748 1.403 . S
C748 C747 1.403 . S
C748 C749 1.404 . S
C748 C751 1.539 . S
C749 C745 1.408 . S
C749 C748 1.404 . S
C749 H761 0.930 . S
C750 C746 1.524 . S
C750 H762 0.956 . S
C750 H763 0.961 . S
C750 H764 0.961 . S
C751 C748 1.539 . S
C751 H765 0.958 . S
C751 H766 0.961 . S
C751 H767 0.960 . S
H752 C736 0.931 . S
H753 C741 0.929 . S
H754 C742 0.960 . S
H755 C742 0.962 . S
H756 C742 0.960 . S
H757 C743 0.961 . S
H758 C743 0.961 . S
H759 C743 0.961 . S
H760 C744 0.931 . S
H761 C749 0.930 . S
H762 C750 0.956 . S
H763 C750 0.961 . S
H764 C750 0.961 . S
H765 C751 0.958 . S
H766 C751 0.961 . S
H767 C751 0.960 . S
C768 C769 1.391 . S
C768 C770 1.394 . S
C768 H784 0.931 . S
C769 C768 1.391 . S
C769 C773 1.376 . S
C770 C768 1.394 . S
C770 C771 1.369 . S
C770 C774 1.531 . S
C771 C770 1.369 . S
C771 C772 1.410 . S
C771 C779 1.503 . S
C772 C771 1.410 . S
C772 C773 1.392 . S
C772 C775 1.511 . S
C773 C769 1.376 . S
C773 C772 1.392 . S
C773 H785 0.929 . S
C774 C770 1.531 . S
C774 H786 0.960 . S
C774 H787 0.962 . S
C774 H788 0.960 . S
C775 C772 1.511 . S
C775 H789 0.961 . S
C775 H790 0.961 . S
C775 H791 0.961 . S
C776 C777 1.370 . S
C776 C778 1.363 . S
C776 H792 0.931 . S
C777 C776 1.370 . S
C777 C781 1.408 . S
C778 C776 1.363 . S
C778 C779 1.370 . S
C778 C782 1.524 . S
C779 C771 1.503 . S
C779 C778 1.370 . S
C779 C780 1.403 . S
C780 C779 1.403 . S
C780 C781 1.404 . S
C780 C783 1.539 . S
C781 C777 1.408 . S
C781 C780 1.404 . S
C781 H793 0.930 . S
C782 C778 1.524 . S
C782 H794 0.956 . S
C782 H795 0.961 . S
C782 H796 0.961 . S
C783 C780 1.539 . S
C783 H797 0.958 . S
C783 H798 0.961 . S
C783 H799 0.960 . S
H784 C768 0.931 . S
H785 C773 0.929 . S
H786 C774 0.960 . S
H787 C774 0.962 . S
H788 C774 0.960 . S
H789 C775 0.961 . S
H790 C775 0.961 . S
H791 C775 0.961 . S
H792 C776 0.931 . S
H793 C781 0.930 . S
H794 C782 0.956 . S
H795 C782 0.961 . S
H796 C782 0.961 . S
H797 C783 0.958 . S
H798 C783 0.961 . S
H799 C783 0.960 . S
C800 C801 1.391 . S
C800 C802 1.394 . S
C800 H816 0.931 . S
C801 C800 1.391 . S
C801 C805 1.376 . S
C802 C800 1.394 . S
C802 C803 1.369 . S
C802 C806 1.531 . S
C803 C802 1.369 . S
C803 C804 1.410 . S
C803 C811 1.503 . S
C804 C803 1.410 . S
C804 C805 1.392 . S
C804 C807 1.511 . S
C805 C801 1.376 . S
C805 C804 1.392 . S
C805 H817 0.929 . S
C806 C802 1.531 . S
C806 H818 0.960 . S
C806 H819 0.962 . S
C806 H820 0.960 . S
C807 C804 1.511 . S
C807 H821 0.961 . S
C807 H822 0.961 . S
C807 H823 0.961 . S
C808 C809 1.370 . S
C808 C810 1.363 . S
C808 H824 0.931 . S
C809 C808 1.370 . S
C809 C813 1.408 . S
C810 C808 1.363 . S
C810 C811 1.370 . S
C810 C814 1.524 . S
C811 C803 1.503 . S
C811 C810 1.370 . S
C811 C812 1.403 . S
C812 C811 1.403 . S
C812 C813 1.404 . S
C812 C815 1.539 . S
C813 C809 1.408 . S
C813 C812 1.404 . S
C813 H825 0.930 . S
C814 C810 1.524 . S
C814 H826 0.956 . S
C814 H827 0.961 . S
C814 H828 0.961 . S
C815 C812 1.539 . S
C815 H829 0.958 . S
C815 H830 0.961 . S
C815 H831 0.960 . S
H816 C800 0.931 . S
H817 C805 0.929 . S
H818 C806 0.960 . S
H819 C806 0.962 . S
H820 C806 0.960 . S
H821 C807 0.961 . S
H822 C807 0.961 . S
H823 C807 0.961 . S
H824 C808 0.931 . S
H825 C813 0.930 . S
H826 C814 0.956 . S
H827 C814 0.961 . S
H828 C814 0.961 . S
H829 C815 0.958 . S
H830 C815 0.961 . S
H831 C815 0.960 . S
C832 C833 1.391 . S
C832 C834 1.394 . S
C832 H848 0.931 . S
C833 C832 1.391 . S
C833 C837 1.376 1_655 S
C834 C832 1.394 . S
C834 C835 1.369 . S
C834 C838 1.531 . S
C835 C834 1.369 . S
C835 C836 1.410 1_655 S
C835 C843 1.503 . S
C836 C835 1.410 1_455 S
C836 C837 1.392 . S
C836 C839 1.511 . S
C837 C833 1.376 1_455 S
C837 C836 1.392 . S
C837 H849 0.929 . S
C838 C834 1.531 . S
C838 H850 0.960 . S
C838 H851 0.962 . S
C838 H852 0.960 . S
C839 C836 1.511 . S
C839 H853 0.961 . S
C839 H854 0.961 . S
C839 H855 0.961 . S
C840 C841 1.370 . S
C840 C842 1.363 . S
C840 H856 0.931 . S
C841 C840 1.370 . S
C841 C845 1.408 1_455 S
C842 C840 1.363 . S
C842 C843 1.370 1_455 S
C842 C846 1.524 . S
C843 C835 1.503 . S
C843 C842 1.370 1_655 S
C843 C844 1.403 . S
C844 C843 1.403 . S
C844 C845 1.404 . S
C844 C847 1.539 . S
C845 C841 1.408 1_655 S
C845 C844 1.404 . S
C845 H857 0.930 . S
C846 C842 1.524 . S
C846 H858 0.956 . S
C846 H859 0.961 . S
C846 H860 0.961 . S
C847 C844 1.539 . S
C847 H861 0.958 . S
C847 H862 0.961 . S
C847 H863 0.960 . S
H848 C832 0.931 . S
H849 C837 0.929 . S
H850 C838 0.960 . S
H851 C838 0.962 . S
H852 C838 0.960 . S
H853 C839 0.961 . S
H854 C839 0.961 . S
H855 C839 0.961 . S
H856 C840 0.931 . S
H857 C845 0.930 . S
H858 C846 0.956 . S
H859 C846 0.961 . S
H860 C846 0.961 . S
H861 C847 0.958 . S
H862 C847 0.961 . S
H863 C847 0.960 . S
C864 C865 1.391 . S
C864 C866 1.394 . S
C864 H880 0.931 . S
C865 C864 1.391 . S
C865 C869 1.376 . S
C866 C864 1.394 . S
C866 C867 1.369 . S
C866 C870 1.531 . S
C867 C866 1.369 . S
C867 C868 1.410 . S
C867 C875 1.503 . S
C868 C867 1.410 . S
C868 C869 1.392 . S
C868 C871 1.511 . S
C869 C865 1.376 . S
C869 C868 1.392 . S
C869 H881 0.929 . S
C870 C866 1.531 . S
C870 H882 0.960 . S
C870 H883 0.962 . S
C870 H884 0.960 . S
C871 C868 1.511 . S
C871 H885 0.961 . S
C871 H886 0.961 . S
C871 H887 0.961 . S
C872 C873 1.370 . S
C872 C874 1.363 1_556 S
C872 H888 0.931 . S
C873 C872 1.370 . S
C873 C877 1.408 . S
C874 C872 1.363 1_554 S
C874 C875 1.370 . S
C874 C878 1.524 . S
C875 C867 1.503 . S
C875 C874 1.370 . S
C875 C876 1.403 . S
C876 C875 1.403 . S
C876 C877 1.404 1_554 S
C876 C879 1.539 . S
C877 C873 1.408 . S
C877 C876 1.404 1_556 S
C877 H889 0.930 . S
C878 C874 1.524 . S
C878 H890 0.956 . S
C878 H891 0.961 . S
C878 H892 0.961 . S
C879 C876 1.539 . S
C879 H893 0.958 . S
C879 H894 0.961 1_554 S
C879 H895 0.960 . S
H880 C864 0.931 . S
H881 C869 0.929 . S
H882 C870 0.960 . S
H883 C870 0.962 . S
H884 C870 0.960 . S
H885 C871 0.961 . S
H886 C871 0.961 . S
H887 C871 0.961 . S
H888 C872 0.931 . S
H889 C877 0.930 . S
H890 C878 0.956 . S
H891 C878 0.961 . S
H892 C878 0.961 . S
H893 C879 0.958 . S
H894 C879 0.961 1_556 S
H895 C879 0.960 . S
C896 C897 1.391 . S
C896 C898 1.394 . S
C896 H912 0.931 . S
C897 C896 1.391 . S
C897 C901 1.376 . S
C898 C896 1.394 . S
C898 C899 1.369 . S
C898 C902 1.531 . S
C899 C898 1.369 . S
C899 C900 1.410 . S
C899 C907 1.503 . S
C900 C899 1.410 . S
C900 C901 1.392 . S
C900 C903 1.511 . S
C901 C897 1.376 . S
C901 C900 1.392 . S
C901 H913 0.929 . S
C902 C898 1.531 . S
C902 H914 0.960 . S
C902 H915 0.962 . S
C902 H916 0.960 . S
C903 C900 1.511 . S
C903 H917 0.961 . S
C903 H918 0.961 . S
C903 H919 0.961 . S
C904 C905 1.370 . S
C904 C906 1.363 . S
C904 H920 0.931 . S
C905 C904 1.370 . S
C905 C909 1.408 . S
C906 C904 1.363 . S
C906 C907 1.370 . S
C906 C910 1.524 . S
C907 C899 1.503 . S
C907 C906 1.370 . S
C907 C908 1.403 . S
C908 C907 1.403 . S
C908 C909 1.404 . S
C908 C911 1.539 . S
C909 C905 1.408 . S
C909 C908 1.404 . S
C909 H921 0.930 . S
C910 C906 1.524 . S
C910 H922 0.956 . S
C910 H923 0.961 . S
C910 H924 0.961 . S
C911 C908 1.539 . S
C911 H925 0.958 . S
C911 H926 0.961 . S
C911 H927 0.960 . S
H912 C896 0.931 . S
H913 C901 0.929 . S
H914 C902 0.960 . S
H915 C902 0.962 . S
H916 C902 0.960 . S
H917 C903 0.961 . S
H918 C903 0.961 . S
H919 C903 0.961 . S
H920 C904 0.931 . S
H921 C909 0.930 . S
H922 C910 0.956 . S
H923 C910 0.961 . S
H924 C910 0.961 . S
H925 C911 0.958 . S
H926 C911 0.961 . S
H927 C911 0.960 . S
C928 C929 1.391 . S
C928 C930 1.394 . S
C928 H944 0.931 . S
C929 C928 1.391 . S
C929 C933 1.376 . S
C930 C928 1.394 . S
C930 C931 1.369 . S
C930 C934 1.531 . S
C931 C930 1.369 . S
C931 C932 1.410 . S
C931 C939 1.503 . S
C932 C931 1.410 . S
C932 C933 1.392 . S
C932 C935 1.511 . S
C933 C929 1.376 . S
C933 C932 1.392 . S
C933 H945 0.929 . S
C934 C930 1.531 . S
C934 H946 0.960 . S
C934 H947 0.962 . S
C934 H948 0.960 . S
C935 C932 1.511 . S
C935 H949 0.961 . S
C935 H950 0.961 . S
C935 H951 0.961 . S
C936 C937 1.370 . S
C936 C938 1.363 . S
C936 H952 0.931 . S
C937 C936 1.370 . S
C937 C941 1.408 . S
C938 C936 1.363 . S
C938 C939 1.370 . S
C938 C942 1.524 . S
C939 C931 1.503 . S
C939 C938 1.370 . S
C939 C940 1.403 . S
C940 C939 1.403 . S
C940 C941 1.404 . S
C940 C943 1.539 . S
C941 C937 1.408 . S
C941 C940 1.404 . S
C941 H953 0.930 . S
C942 C938 1.524 . S
C942 H954 0.956 . S
C942 H955 0.961 . S
C942 H956 0.961 . S
C943 C940 1.539 . S
C943 H957 0.958 . S
C943 H958 0.961 . S
C943 H959 0.960 . S
H944 C928 0.931 . S
H945 C933 0.929 . S
H946 C934 0.960 . S
H947 C934 0.962 . S
H948 C934 0.960 . S
H949 C935 0.961 . S
H950 C935 0.961 . S
H951 C935 0.961 . S
H952 C936 0.931 . S
H953 C941 0.930 . S
H954 C942 0.956 . S
H955 C942 0.961 . S
H956 C942 0.961 . S
H957 C943 0.958 . S
H958 C943 0.961 . S
H959 C943 0.960 . S
C960 C961 1.391 . S
C960 C962 1.394 . S
C960 H976 0.931 . S
C961 C960 1.391 . S
C961 C965 1.376 . S
C962 C960 1.394 . S
C962 C963 1.369 . S
C962 C966 1.531 . S
C963 C962 1.369 . S
C963 C964 1.410 . S
C963 C971 1.503 . S
C964 C963 1.410 . S
C964 C965 1.392 . S
C964 C967 1.511 . S
C965 C961 1.376 . S
C965 C964 1.392 . S
C965 H977 0.929 . S
C966 C962 1.531 . S
C966 H978 0.960 . S
C966 H979 0.962 . S
C966 H980 0.960 . S
C967 C964 1.511 . S
C967 H981 0.961 . S
C967 H982 0.961 . S
C967 H983 0.961 . S
C968 C969 1.370 . S
C968 C970 1.363 . S
C968 H984 0.931 . S
C969 C968 1.370 . S
C969 C973 1.408 . S
C970 C968 1.363 . S
C970 C971 1.370 . S
C970 C974 1.524 . S
C971 C963 1.503 . S
C971 C970 1.370 . S
C971 C972 1.403 . S
C972 C971 1.403 . S
C972 C973 1.404 . S
C972 C975 1.539 . S
C973 C969 1.408 . S
C973 C972 1.404 . S
C973 H985 0.930 . S
C974 C970 1.524 . S
C974 H986 0.956 . S
C974 H987 0.961 . S
C974 H988 0.961 . S
C975 C972 1.539 . S
C975 H989 0.958 . S
C975 H990 0.961 . S
C975 H991 0.960 . S
H976 C960 0.931 . S
H977 C965 0.929 . S
H978 C966 0.960 . S
H979 C966 0.962 . S
H980 C966 0.960 . S
H981 C967 0.961 . S
H982 C967 0.961 . S
H983 C967 0.961 . S
H984 C968 0.931 . S
H985 C973 0.930 . S
H986 C974 0.956 . S
H987 C974 0.961 . S
H988 C974 0.961 . S
H989 C975 0.958 . S
H990 C975 0.961 . S
H991 C975 0.960 . S
C992 C993 1.391 . S
C992 C994 1.394 . S
C992 H1008 0.931 . S
C993 C992 1.391 . S
C993 C997 1.376 . S
C994 C992 1.394 . S
C994 C995 1.369 . S
C994 C998 1.531 . S
C995 C994 1.369 . S
C995 C996 1.410 . S
C995 C1003 1.503 . S
C996 C995 1.410 . S
C996 C997 1.392 . S
C996 C999 1.511 . S
C997 C993 1.376 . S
C997 C996 1.392 . S
C997 H1009 0.929 . S
C998 C994 1.531 . S
C998 H1010 0.960 . S
C998 H1011 0.962 . S
C998 H1012 0.960 . S
C999 C996 1.511 . S
C999 H1013 0.961 . S
C999 H1014 0.961 . S
C999 H1015 0.961 . S
C1000 C1001 1.370 . S
C1000 C1002 1.363 . S
C1000 H1016 0.931 . S
C1001 C1000 1.370 . S
C1001 C1005 1.408 . S
C1002 C1000 1.363 . S
C1002 C1003 1.370 . S
C1002 C1006 1.524 . S
C1003 C995 1.503 . S
C1003 C1002 1.370 . S
C1003 C1004 1.403 . S
C1004 C1003 1.403 . S
C1004 C1005 1.404 . S
C1004 C1007 1.539 . S
C1005 C1001 1.408 . S
C1005 C1004 1.404 . S
C1005 H1017 0.930 . S
C1006 C1002 1.524 . S
C1006 H1018 0.956 . S
C1006 H1019 0.961 . S
C1006 H1020 0.961 . S
C1007 C1004 1.539 . S
C1007 H1021 0.958 . S
C1007 H1022 0.961 . S
C1007 H1023 0.960 . S
H1008 C992 0.931 . S
H1009 C997 0.929 . S
H1010 C998 0.960 . S
H1011 C998 0.962 . S
H1012 C998 0.960 . S
H1013 C999 0.961 . S
H1014 C999 0.961 . S
H1015 C999 0.961 . S
H1016 C1000 0.931 . S
H1017 C1005 0.930 . S
H1018 C1006 0.956 . S
H1019 C1006 0.961 . S
H1020 C1006 0.961 . S
H1021 C1007 0.958 . S
H1022 C1007 0.961 . S
H1023 C1007 0.960 . S
C1024 C1025 1.391 . S
C1024 C1026 1.394 . S
C1024 H1040 0.931 . S
C1025 C1024 1.391 . S
C1025 C1029 1.376 1_455 S
C1026 C1024 1.394 . S
C1026 C1027 1.369 1_455 S
C1026 C1030 1.531 . S
C1027 C1026 1.369 1_655 S
C1027 C1028 1.410 . S
C1027 C1035 1.503 . S
C1028 C1027 1.410 . S
C1028 C1029 1.392 . S
C1028 C1031 1.511 . S
C1029 C1025 1.376 1_655 S
C1029 C1028 1.392 . S
C1029 H1041 0.929 . S
C1030 C1026 1.531 . S
C1030 H1042 0.960 . S
C1030 H1043 0.962 . S
C1030 H1044 0.960 . S
C1031 C1028 1.511 . S
C1031 H1045 0.961 . S
C1031 H1046 0.961 . S
C1031 H1047 0.961 . S
C1032 C1033 1.370 1_455 S
C1032 C1034 1.363 . S
C1032 H1048 0.931 . S
C1033 C1032 1.370 1_655 S
C1033 C1037 1.408 . S
C1034 C1032 1.363 . S
C1034 C1035 1.370 1_455 S
C1034 C1038 1.524 . S
C1035 C1027 1.503 . S
C1035 C1034 1.370 1_655 S
C1035 C1036 1.403 . S
C1036 C1035 1.403 . S
C1036 C1037 1.404 . S
C1036 C1039 1.539 . S
C1037 C1033 1.408 . S
C1037 C1036 1.404 . S
C1037 H1049 0.930 . S
C1038 C1034 1.524 . S
C1038 H1050 0.956 . S
C1038 H1051 0.961 . S
C1038 H1052 0.961 . S
C1039 C1036 1.539 . S
C1039 H1053 0.958 . S
C1039 H1054 0.961 . S
C1039 H1055 0.960 . S
H1040 C1024 0.931 . S
H1041 C1029 0.929 . S
H1042 C1030 0.960 . S
H1043 C1030 0.962 . S
H1044 C1030 0.960 . S
H1045 C1031 0.961 . S
H1046 C1031 0.961 . S
H1047 C1031 0.961 . S
H1048 C1032 0.931 . S
H1049 C1037 0.930 . S
H1050 C1038 0.956 . S
H1051 C1038 0.961 . S
H1052 C1038 0.961 . S
H1053 C1039 0.958 . S
H1054 C1039 0.961 . S
H1055 C1039 0.960 . S
C1056 C1057 1.391 . S
C1056 C1058 1.394 . S
C1056 H1072 0.931 . S
C1057 C1056 1.391 . S
C1057 C1061 1.376 . S
C1058 C1056 1.394 . S
C1058 C1059 1.369 . S
C1058 C1062 1.531 . S
C1059 C1058 1.369 . S
C1059 C1060 1.410 . S
C1059 C1067 1.503 . S
C1060 C1059 1.410 . S
C1060 C1061 1.392 . S
C1060 C1063 1.511 . S
C1061 C1057 1.376 . S
C1061 C1060 1.392 . S
C1061 H1073 0.929 . S
C1062 C1058 1.531 . S
C1062 H1074 0.960 . S
C1062 H1075 0.962 . S
C1062 H1076 0.960 . S
C1063 C1060 1.511 . S
C1063 H1077 0.961 . S
C1063 H1078 0.961 . S
C1063 H1079 0.961 . S
C1064 C1065 1.370 . S
C1064 C1066 1.363 1_556 S
C1064 H1080 0.931 . S
C1065 C1064 1.370 . S
C1065 C1069 1.408 . S
C1066 C1064 1.363 1_554 S
C1066 C1067 1.370 . S
C1066 C1070 1.524 . S
C1067 C1059 1.503 . S
C1067 C1066 1.370 . S
C1067 C1068 1.403 . S
C1068 C1067 1.403 . S
C1068 C1069 1.404 1_554 S
C1068 C1071 1.539 . S
C1069 C1065 1.408 . S
C1069 C1068 1.404 1_556 S
C1069 H1081 0.930 . S
C1070 C1066 1.524 . S
C1070 H1082 0.956 . S
C1070 H1083 0.961 . S
C1070 H1084 0.961 . S
C1071 C1068 1.539 . S
C1071 H1085 0.958 . S
C1071 H1086 0.961 1_554 S
C1071 H1087 0.960 . S
H1072 C1056 0.931 . S
H1073 C1061 0.929 . S
H1074 C1062 0.960 . S
H1075 C1062 0.962 . S
H1076 C1062 0.960 . S
H1077 C1063 0.961 . S
H1078 C1063 0.961 . S
H1079 C1063 0.961 . S
H1080 C1064 0.931 . S
H1081 C1069 0.930 . S
H1082 C1070 0.956 . S
H1083 C1070 0.961 . S
H1084 C1070 0.961 . S
H1085 C1071 0.958 . S
H1086 C1071 0.961 1_556 S
H1087 C1071 0.960 . S
C1088 C1089 1.391 . S
C1088 C1090 1.394 . S
C1088 H1104 0.931 . S
C1089 C1088 1.391 . S
C1089 C1093 1.376 . S
C1090 C1088 1.394 . S
C1090 C1091 1.369 . S
C1090 C1094 1.531 . S
C1091 C1090 1.369 . S
C1091 C1092 1.410 . S
C1091 C1099 1.503 . S
C1092 C1091 1.410 . S
C1092 C1093 1.392 . S
C1092 C1095 1.511 . S
C1093 C1089 1.376 . S
C1093 C1092 1.392 . S
C1093 H1105 0.929 . S
C1094 C1090 1.531 . S
C1094 H1106 0.960 . S
C1094 H1107 0.962 . S
C1094 H1108 0.960 . S
C1095 C1092 1.511 . S
C1095 H1109 0.961 . S
C1095 H1110 0.961 . S
C1095 H1111 0.961 . S
C1096 C1097 1.370 . S
C1096 C1098 1.363 . S
C1096 H1112 0.931 . S
C1097 C1096 1.370 . S
C1097 C1101 1.408 . S
C1098 C1096 1.363 . S
C1098 C1099 1.370 . S
C1098 C1102 1.524 . S
C1099 C1091 1.503 . S
C1099 C1098 1.370 . S
C1099 C1100 1.403 . S
C1100 C1099 1.403 . S
C1100 C1101 1.404 . S
C1100 C1103 1.539 . S
C1101 C1097 1.408 . S
C1101 C1100 1.404 . S
C1101 H1113 0.930 . S
C1102 C1098 1.524 . S
C1102 H1114 0.956 . S
C1102 H1115 0.961 . S
C1102 H1116 0.961 . S
C1103 C1100 1.539 . S
C1103 H1117 0.958 . S
C1103 H1118 0.961 . S
C1103 H1119 0.960 . S
H1104 C1088 0.931 . S
H1105 C1093 0.929 . S
H1106 C1094 0.960 . S
H1107 C1094 0.962 . S
H1108 C1094 0.960 . S
H1109 C1095 0.961 . S
H1110 C1095 0.961 . S
H1111 C1095 0.961 . S
H1112 C1096 0.931 . S
H1113 C1101 0.930 . S
H1114 C1102 0.956 . S
H1115 C1102 0.961 . S
H1116 C1102 0.961 . S
H1117 C1103 0.958 . S
H1118 C1103 0.961 . S
H1119 C1103 0.960 . S
C1120 C1121 1.391 . S
C1120 C1122 1.394 . S
C1120 H1136 0.931 . S
C1121 C1120 1.391 . S
C1121 C1125 1.376 . S
C1122 C1120 1.394 . S
C1122 C1123 1.369 . S
C1122 C1126 1.531 . S
C1123 C1122 1.369 . S
C1123 C1124 1.410 . S
C1123 C1131 1.503 . S
C1124 C1123 1.410 . S
C1124 C1125 1.392 . S
C1124 C1127 1.511 . S
C1125 C1121 1.376 . S
C1125 C1124 1.392 . S
C1125 H1137 0.929 . S
C1126 C1122 1.531 . S
C1126 H1138 0.960 . S
C1126 H1139 0.962 . S
C1126 H1140 0.960 . S
C1127 C1124 1.511 . S
C1127 H1141 0.961 . S
C1127 H1142 0.961 . S
C1127 H1143 0.961 . S
C1128 C1129 1.370 . S
C1128 C1130 1.363 . S
C1128 H1144 0.931 . S
C1129 C1128 1.370 . S
C1129 C1133 1.408 . S
C1130 C1128 1.363 . S
C1130 C1131 1.370 . S
C1130 C1134 1.524 . S
C1131 C1123 1.503 . S
C1131 C1130 1.370 . S
C1131 C1132 1.403 . S
C1132 C1131 1.403 . S
C1132 C1133 1.404 . S
C1132 C1135 1.539 . S
C1133 C1129 1.408 . S
C1133 C1132 1.404 . S
C1133 H1145 0.930 . S
C1134 C1130 1.524 . S
C1134 H1146 0.956 . S
C1134 H1147 0.961 . S
C1134 H1148 0.961 . S
C1135 C1132 1.539 . S
C1135 H1149 0.958 . S
C1135 H1150 0.961 . S
C1135 H1151 0.960 . S
H1136 C1120 0.931 . S
H1137 C1125 0.929 . S
H1138 C1126 0.960 . S
H1139 C1126 0.962 . S
H1140 C1126 0.960 . S
H1141 C1127 0.961 . S
H1142 C1127 0.961 . S
H1143 C1127 0.961 . S
H1144 C1128 0.931 . S
H1145 C1133 0.930 . S
H1146 C1134 0.956 . S
H1147 C1134 0.961 . S
H1148 C1134 0.961 . S
H1149 C1135 0.958 . S
H1150 C1135 0.961 . S
H1151 C1135 0.960 . S
C1152 C1153 1.391 . S
C1152 C1154 1.394 . S
C1152 H1168 0.931 . S
C1153 C1152 1.391 . S
C1153 C1157 1.376 1_455 S
C1154 C1152 1.394 . S
C1154 C1155 1.369 1_455 S
C1154 C1158 1.531 . S
C1155 C1154 1.369 1_655 S
C1155 C1156 1.410 . S
C1155 C1163 1.503 . S
C1156 C1155 1.410 . S
C1156 C1157 1.392 . S
C1156 C1159 1.511 . S
C1157 C1153 1.376 1_655 S
C1157 C1156 1.392 . S
C1157 H1169 0.929 . S
C1158 C1154 1.531 . S
C1158 H1170 0.960 . S
C1158 H1171 0.962 . S
C1158 H1172 0.960 . S
C1159 C1156 1.511 . S
C1159 H1173 0.961 . S
C1159 H1174 0.961 . S
C1159 H1175 0.961 . S
C1160 C1161 1.370 1_455 S
C1160 C1162 1.363 . S
C1160 H1176 0.931 . S
C1161 C1160 1.370 1_655 S
C1161 C1165 1.408 . S
C1162 C1160 1.363 . S
C1162 C1163 1.370 1_455 S
C1162 C1166 1.524 . S
C1163 C1155 1.503 . S
C1163 C1162 1.370 1_655 S
C1163 C1164 1.403 . S
C1164 C1163 1.403 . S
C1164 C1165 1.404 . S
C1164 C1167 1.539 . S
C1165 C1161 1.408 . S
C1165 C1164 1.404 . S
C1165 H1177 0.930 . S
C1166 C1162 1.524 . S
C1166 H1178 0.956 . S
C1166 H1179 0.961 . S
C1166 H1180 0.961 . S
C1167 C1164 1.539 . S
C1167 H1181 0.958 . S
C1167 H1182 0.961 . S
C1167 H1183 0.960 . S
H1168 C1152 0.931 . S
H1169 C1157 0.929 . S
H1170 C1158 0.960 . S
H1171 C1158 0.962 . S
H1172 C1158 0.960 . S
H1173 C1159 0.961 . S
H1174 C1159 0.961 . S
H1175 C1159 0.961 . S
H1176 C1160 0.931 . S
H1177 C1165 0.930 . S
H1178 C1166 0.956 . S
H1179 C1166 0.961 . S
H1180 C1166 0.961 . S
H1181 C1167 0.958 . S
H1182 C1167 0.961 . S
H1183 C1167 0.960 . S
C1184 C1185 1.391 . S
C1184 C1186 1.394 1_554 S
C1184 H1200 0.931 . S
C1185 C1184 1.391 . S
C1185 C1189 1.376 . S
C1186 C1184 1.394 1_556 S
C1186 C1187 1.369 . S
C1186 C1190 1.531 . S
C1187 C1186 1.369 . S
C1187 C1188 1.410 . S
C1187 C1195 1.503 . S
C1188 C1187 1.410 . S
C1188 C1189 1.392 1_556 S
C1188 C1191 1.511 . S
C1189 C1185 1.376 . S
C1189 C1188 1.392 1_554 S
C1189 H1201 0.929 . S
C1190 C1186 1.531 . S
C1190 H1202 0.960 . S
C1190 H1203 0.962 . S
C1190 H1204 0.960 . S
C1191 C1188 1.511 . S
C1191 H1205 0.961 . S
C1191 H1206 0.961 . S
C1191 H1207 0.961 . S
C1192 C1193 1.370 . S
C1192 C1194 1.363 . S
C1192 H1208 0.931 . S
C1193 C1192 1.370 . S
C1193 C1197 1.408 . S
C1194 C1192 1.363 . S
C1194 C1195 1.370 . S
C1194 C1198 1.524 . S
C1195 C1187 1.503 . S
C1195 C1194 1.370 . S
C1195 C1196 1.403 . S
C1196 C1195 1.403 . S
C1196 C1197 1.404 . S
C1196 C1199 1.539 . S
C1197 C1193 1.408 . S
C1197 C1196 1.404 . S
C1197 H1209 0.930 . S
C1198 C1194 1.524 . S
C1198 H1210 0.956 . S
C1198 H1211 0.961 . S
C1198 H1212 0.961 . S
C1199 C1196 1.539 . S
C1199 H1213 0.958 . S
C1199 H1214 0.961 . S
C1199 H1215 0.960 . S
H1200 C1184 0.931 . S
H1201 C1189 0.929 . S
H1202 C1190 0.960 . S
H1203 C1190 0.962 . S
H1204 C1190 0.960 . S
H1205 C1191 0.961 . S
H1206 C1191 0.961 . S
H1207 C1191 0.961 . S
H1208 C1192 0.931 . S
H1209 C1197 0.930 . S
H1210 C1198 0.956 . S
H1211 C1198 0.961 . S
H1212 C1198 0.961 . S
H1213 C1199 0.958 . S
H1214 C1199 0.961 . S
H1215 C1199 0.960 . S
C1216 C1217 1.391 . S
C1216 C1218 1.394 . S
C1216 H1232 0.931 . S
C1217 C1216 1.391 . S
C1217 C1221 1.376 . S
C1218 C1216 1.394 . S
C1218 C1219 1.369 . S
C1218 C1222 1.531 . S
C1219 C1218 1.369 . S
C1219 C1220 1.410 . S
C1219 C1227 1.503 . S
C1220 C1219 1.410 . S
C1220 C1221 1.392 . S
C1220 C1223 1.511 . S
C1221 C1217 1.376 . S
C1221 C1220 1.392 . S
C1221 H1233 0.929 . S
C1222 C1218 1.531 . S
C1222 H1234 0.960 . S
C1222 H1235 0.962 . S
C1222 H1236 0.960 . S
C1223 C1220 1.511 . S
C1223 H1237 0.961 . S
C1223 H1238 0.961 . S
C1223 H1239 0.961 . S
C1224 C1225 1.370 . S
C1224 C1226 1.363 . S
C1224 H1240 0.931 . S
C1225 C1224 1.370 . S
C1225 C1229 1.408 . S
C1226 C1224 1.363 . S
C1226 C1227 1.370 . S
C1226 C1230 1.524 . S
C1227 C1219 1.503 . S
C1227 C1226 1.370 . S
C1227 C1228 1.403 . S
C1228 C1227 1.403 . S
C1228 C1229 1.404 . S
C1228 C1231 1.539 . S
C1229 C1225 1.408 . S
C1229 C1228 1.404 . S
C1229 H1241 0.930 . S
C1230 C1226 1.524 . S
C1230 H1242 0.956 . S
C1230 H1243 0.961 . S
C1230 H1244 0.961 . S
C1231 C1228 1.539 . S
C1231 H1245 0.958 . S
C1231 H1246 0.961 . S
C1231 H1247 0.960 . S
H1232 C1216 0.931 . S
H1233 C1221 0.929 . S
H1234 C1222 0.960 . S
H1235 C1222 0.962 . S
H1236 C1222 0.960 . S
H1237 C1223 0.961 . S
H1238 C1223 0.961 . S
H1239 C1223 0.961 . S
H1240 C1224 0.931 . S
H1241 C1229 0.930 . S
H1242 C1230 0.956 . S
H1243 C1230 0.961 . S
H1244 C1230 0.961 . S
H1245 C1231 0.958 . S
H1246 C1231 0.961 . S
H1247 C1231 0.960 . S
C1248 C1249 1.391 . S
C1248 C1250 1.394 . S
C1248 H1264 0.931 . S
C1249 C1248 1.391 . S
C1249 C1253 1.376 . S
C1250 C1248 1.394 . S
C1250 C1251 1.369 . S
C1250 C1254 1.531 . S
C1251 C1250 1.369 . S
C1251 C1252 1.410 . S
C1251 C1259 1.503 . S
C1252 C1251 1.410 . S
C1252 C1253 1.392 . S
C1252 C1255 1.511 . S
C1253 C1249 1.376 . S
C1253 C1252 1.392 . S
C1253 H1265 0.929 . S
C1254 C1250 1.531 . S
C1254 H1266 0.960 . S
C1254 H1267 0.962 . S
C1254 H1268 0.960 . S
C1255 C1252 1.511 . S
C1255 H1269 0.961 . S
C1255 H1270 0.961 . S
C1255 H1271 0.961 . S
C1256 C1257 1.370 . S
C1256 C1258 1.363 . S
C1256 H1272 0.931 . S
C1257 C1256 1.370 . S
C1257 C1261 1.408 . S
C1258 C1256 1.363 . S
C1258 C1259 1.370 . S
C1258 C1262 1.524 . S
C1259 C1251 1.503 . S
C1259 C1258 1.370 . S
C1259 C1260 1.403 . S
C1260 C1259 1.403 . S
C1260 C1261 1.404 . S
C1260 C1263 1.539 . S
C1261 C1257 1.408 . S
C1261 C1260 1.404 . S
C1261 H1273 0.930 . S
C1262 C1258 1.524 . S
C1262 H1274 0.956 . S
C1262 H1275 0.961 . S
C1262 H1276 0.961 . S
C1263 C1260 1.539 . S
C1263 H1277 0.958 . S
C1263 H1278 0.961 . S
C1263 H1279 0.960 . S
H1264 C1248 0.931 . S
H1265 C1253 0.929 . S
H1266 C1254 0.960 . S
H1267 C1254 0.962 . S
H1268 C1254 0.960 . S
H1269 C1255 0.961 . S
H1270 C1255 0.961 . S
H1271 C1255 0.961 . S
H1272 C1256 0.931 . S
H1273 C1261 0.930 . S
H1274 C1262 0.956 . S
H1275 C1262 0.961 . S
H1276 C1262 0.961 . S
H1277 C1263 0.958 . S
H1278 C1263 0.961 . S
H1279 C1263 0.960 . S
C1280 C1281 1.391 . S
C1280 C1282 1.394 . S
C1280 H1296 0.931 . S
C1281 C1280 1.391 . S
C1281 C1285 1.376 1_455 S
C1282 C1280 1.394 . S
C1282 C1283 1.395 . S
C1282 C1286 1.531 . S
C1283 C1282 1.395 . S
C1283 C1284 1.391 1_455 S
C1283 C1291 1.498 1_455 S
C1284 C1283 1.391 1_655 S
C1284 C1285 1.392 . S
C1284 C1287 1.511 . S
C1285 C1281 1.376 1_655 S
C1285 C1284 1.392 . S
C1285 H1297 0.929 . S
C1286 C1282 1.531 . S
C1286 H1298 0.960 . S
C1286 H1299 0.962 . S
C1286 H1300 0.960 . S
C1287 C1284 1.511 . S
C1287 H1301 0.961 . S
C1287 H1302 0.961 . S
C1287 H1303 0.961 . S
C1288 C1289 1.370 1_455 S
C1288 C1290 1.363 . S
C1288 H1304 0.931 . S
C1289 C1288 1.370 1_655 S
C1289 C1293 1.408 . S
C1290 C1288 1.363 . S
C1290 C1291 1.370 1_455 S
C1290 C1294 1.524 . S
C1291 C1283 1.498 1_655 S
C1291 C1290 1.370 1_655 S
C1291 C1292 1.403 . S
C1292 C1291 1.403 . S
C1292 C1293 1.404 . S
C1292 C1295 1.539 . S
C1293 C1289 1.408 . S
C1293 C1292 1.404 . S
C1293 H1305 0.930 . S
C1294 C1290 1.524 . S
C1294 H1306 0.956 . S
C1294 H1307 0.961 . S
C1294 H1308 0.961 . S
C1295 C1292 1.539 . S
C1295 H1309 0.958 . S
C1295 H1310 0.961 . S
C1295 H1311 0.960 . S
H1296 C1280 0.931 . S
H1297 C1285 0.929 . S
H1298 C1286 0.960 . S
H1299 C1286 0.962 . S
H1300 C1286 0.960 . S
H1301 C1287 0.961 . S
H1302 C1287 0.961 . S
H1303 C1287 0.961 . S
H1304 C1288 0.931 . S
H1305 C1293 0.930 . S
H1306 C1294 0.956 . S
H1307 C1294 0.961 . S
H1308 C1294 0.961 . S
H1309 C1295 0.958 . S
H1310 C1295 0.961 . S
H1311 C1295 0.960 . S
C1312 C1313 1.391 . S
C1312 C1314 1.394 . S
C1312 H1328 0.931 . S
C1313 C1312 1.391 . S
C1313 C1317 1.376 . S
C1314 C1312 1.394 . S
C1314 C1315 1.369 . S
C1314 C1318 1.531 . S
C1315 C1314 1.369 . S
C1315 C1316 1.410 . S
C1315 C1323 1.503 . S
C1316 C1315 1.410 . S
C1316 C1317 1.392 . S
C1316 C1319 1.511 . S
C1317 C1313 1.376 . S
C1317 C1316 1.392 . S
C1317 H1329 0.929 . S
C1318 C1314 1.531 . S
C1318 H1330 0.960 . S
C1318 H1331 0.962 . S
C1318 H1332 0.960 . S
C1319 C1316 1.511 . S
C1319 H1333 0.961 . S
C1319 H1334 0.961 . S
C1319 H1335 0.961 . S
C1320 C1321 1.370 . S
C1320 C1322 1.363 1_554 S
C1320 H1336 0.931 . S
C1321 C1320 1.370 . S
C1321 C1325 1.408 . S
C1322 C1320 1.363 1_556 S
C1322 C1323 1.370 . S
C1322 C1326 1.524 . S
C1323 C1315 1.503 . S
C1323 C1322 1.370 . S
C1323 C1324 1.403 . S
C1324 C1323 1.403 . S
C1324 C1325 1.404 1_556 S
C1324 C1327 1.539 . S
C1325 C1321 1.408 . S
C1325 C1324 1.404 1_554 S
C1325 H1337 0.930 . S
C1326 C1322 1.524 . S
C1326 H1338 0.956 . S
C1326 H1339 0.961 . S
C1326 H1340 0.961 . S
C1327 C1324 1.539 . S
C1327 H1341 0.958 . S
C1327 H1342 0.961 1_556 S
C1327 H1343 0.960 . S
H1328 C1312 0.931 . S
H1329 C1317 0.929 . S
H1330 C1318 0.960 . S
H1331 C1318 0.962 . S
H1332 C1318 0.960 . S
H1333 C1319 0.961 . S
H1334 C1319 0.961 . S
H1335 C1319 0.961 . S
H1336 C1320 0.931 . S
H1337 C1325 0.930 . S
H1338 C1326 0.956 . S
H1339 C1326 0.961 . S
H1340 C1326 0.961 . S
H1341 C1327 0.958 . S
H1342 C1327 0.961 1_554 S
H1343 C1327 0.960 . S
C1344 C1345 1.391 . S
C1344 C1346 1.394 . S
C1344 H1360 0.931 . S
C1345 C1344 1.391 . S
C1345 C1349 1.376 . S
C1346 C1344 1.394 . S
C1346 C1347 1.369 . S
C1346 C1350 1.531 . S
C1347 C1346 1.369 . S
C1347 C1348 1.410 . S
C1347 C1355 1.503 . S
C1348 C1347 1.410 . S
C1348 C1349 1.392 . S
C1348 C1351 1.511 . S
C1349 C1345 1.376 . S
C1349 C1348 1.392 . S
C1349 H1361 0.929 . S
C1350 C1346 1.531 . S
C1350 H1362 0.960 . S
C1350 H1363 0.962 . S
C1350 H1364 0.960 . S
C1351 C1348 1.511 . S
C1351 H1365 0.961 . S
C1351 H1366 0.961 . S
C1351 H1367 0.961 . S
C1352 C1353 1.370 . S
C1352 C1354 1.363 . S
C1352 H1368 0.931 . S
C1353 C1352 1.370 . S
C1353 C1357 1.408 . S
C1354 C1352 1.363 . S
C1354 C1355 1.370 . S
C1354 C1358 1.524 . S
C1355 C1347 1.503 . S
C1355 C1354 1.370 . S
C1355 C1356 1.403 . S
C1356 C1355 1.403 . S
C1356 C1357 1.404 . S
C1356 C1359 1.539 . S
C1357 C1353 1.408 . S
C1357 C1356 1.404 . S
C1357 H1369 0.930 . S
C1358 C1354 1.524 . S
C1358 H1370 0.956 . S
C1358 H1371 0.961 . S
C1358 H1372 0.961 . S
C1359 C1356 1.539 . S
C1359 H1373 0.958 . S
C1359 H1374 0.961 . S
C1359 H1375 0.960 . S
H1360 C1344 0.931 . S
H1361 C1349 0.929 . S
H1362 C1350 0.960 . S
H1363 C1350 0.962 . S
H1364 C1350 0.960 . S
H1365 C1351 0.961 . S
H1366 C1351 0.961 . S
H1367 C1351 0.961 . S
H1368 C1352 0.931 . S
H1369 C1357 0.930 . S
H1370 C1358 0.956 . S
H1371 C1358 0.961 . S
H1372 C1358 0.961 . S
H1373 C1359 0.958 . S
H1374 C1359 0.961 . S
H1375 C1359 0.960 . S
C1376 C1377 1.391 . S
C1376 C1378 1.394 . S
C1376 H1392 0.931 . S
C1377 C1376 1.391 . S
C1377 C1381 1.376 . S
C1378 C1376 1.394 . S
C1378 C1379 1.369 . S
C1378 C1382 1.531 . S
C1379 C1378 1.369 . S
C1379 C1380 1.410 . S
C1379 C1387 1.503 . S
C1380 C1379 1.410 . S
C1380 C1381 1.392 . S
C1380 C1383 1.511 . S
C1381 C1377 1.376 . S
C1381 C1380 1.392 . S
C1381 H1393 0.929 . S
C1382 C1378 1.531 . S
C1382 H1394 0.960 . S
C1382 H1395 0.962 . S
C1382 H1396 0.960 . S
C1383 C1380 1.511 . S
C1383 H1397 0.961 . S
C1383 H1398 0.961 . S
C1383 H1399 0.961 . S
C1384 C1385 1.370 . S
C1384 C1386 1.363 . S
C1384 H1400 0.931 . S
C1385 C1384 1.370 . S
C1385 C1389 1.408 . S
C1386 C1384 1.363 . S
C1386 C1387 1.370 . S
C1386 C1390 1.524 . S
C1387 C1379 1.503 . S
C1387 C1386 1.370 . S
C1387 C1388 1.403 . S
C1388 C1387 1.403 . S
C1388 C1389 1.404 . S
C1388 C1391 1.539 . S
C1389 C1385 1.408 . S
C1389 C1388 1.404 . S
C1389 H1401 0.930 . S
C1390 C1386 1.524 . S
C1390 H1402 0.956 . S
C1390 H1403 0.961 . S
C1390 H1404 0.961 . S
C1391 C1388 1.539 . S
C1391 H1405 0.958 . S
C1391 H1406 0.961 . S
C1391 H1407 0.960 . S
H1392 C1376 0.931 . S
H1393 C1381 0.929 . S
H1394 C1382 0.960 . S
H1395 C1382 0.962 . S
H1396 C1382 0.960 . S
H1397 C1383 0.961 . S
H1398 C1383 0.961 . S
H1399 C1383 0.961 . S
H1400 C1384 0.931 . S
H1401 C1389 0.930 . S
H1402 C1390 0.956 . S
H1403 C1390 0.961 . S
H1404 C1390 0.961 . S
H1405 C1391 0.958 . S
H1406 C1391 0.961 . S
H1407 C1391 0.960 . S
C1408 C1409 1.391 1_455 S
C1408 C1410 1.394 . S
C1408 H1424 0.931 . S
C1409 C1408 1.391 1_655 S
C1409 C1413 1.376 . S
C1410 C1408 1.394 . S
C1410 C1411 1.369 1_455 S
C1410 C1414 1.531 . S
C1411 C1410 1.369 1_655 S
C1411 C1412 1.410 . S
C1411 C1419 1.491 1_655 S
C1412 C1411 1.410 . S
C1412 C1413 1.392 . S
C1412 C1415 1.511 . S
C1413 C1409 1.376 . S
C1413 C1412 1.392 . S
C1413 H1425 0.929 . S
C1414 C1410 1.531 . S
C1414 H1426 0.960 . S
C1414 H1427 0.962 . S
C1414 H1428 0.960 . S
C1415 C1412 1.511 . S
C1415 H1429 0.961 . S
C1415 H1430 0.961 . S
C1415 H1431 0.961 . S
C1416 C1417 1.370 . S
C1416 C1418 1.363 . S
C1416 H1432 0.931 . S
C1417 C1416 1.370 . S
C1417 C1421 1.408 1_455 S
C1418 C1416 1.363 . S
C1418 C1419 1.415 . S
C1418 C1422 1.524 . S
C1419 C1411 1.491 1_455 S
C1419 C1418 1.415 . S
C1419 C1420 1.374 1_455 S
C1420 C1419 1.374 1_655 S
C1420 C1421 1.404 . S
C1420 C1423 1.539 . S
C1421 C1417 1.408 1_655 S
C1421 C1420 1.404 . S
C1421 H1433 0.930 . S
C1422 C1418 1.524 . S
C1422 H1434 0.956 . S
C1422 H1435 0.961 . S
C1422 H1436 0.961 . S
C1423 C1420 1.539 . S
C1423 H1437 0.958 . S
C1423 H1438 0.961 . S
C1423 H1439 0.960 . S
H1424 C1408 0.931 . S
H1425 C1413 0.929 . S
H1426 C1414 0.960 . S
H1427 C1414 0.962 . S
H1428 C1414 0.960 . S
H1429 C1415 0.961 . S
H1430 C1415 0.961 . S
H1431 C1415 0.961 . S
H1432 C1416 0.931 . S
H1433 C1421 0.930 . S
H1434 C1422 0.956 . S
H1435 C1422 0.961 . S
H1436 C1422 0.961 . S
H1437 C1423 0.958 . S
H1438 C1423 0.961 . S
H1439 C1423 0.960 . S
C1440 C1441 1.391 . S
C1440 C1442 1.394 . S
C1440 H1456 0.931 . S
C1441 C1440 1.391 . S
C1441 C1445 1.376 . S
C1442 C1440 1.394 . S
C1442 C1443 1.369 . S
C1442 C1446 1.531 . S
C1443 C1442 1.369 . S
C1443 C1444 1.410 . S
C1443 C1451 1.503 . S
C1444 C1443 1.410 . S
C1444 C1445 1.392 . S
C1444 C1447 1.511 . S
C1445 C1441 1.376 . S
C1445 C1444 1.392 . S
C1445 H1457 0.929 . S
C1446 C1442 1.531 . S
C1446 H1458 0.960 . S
C1446 H1459 0.962 . S
C1446 H1460 0.960 . S
C1447 C1444 1.511 . S
C1447 H1461 0.961 . S
C1447 H1462 0.961 . S
C1447 H1463 0.961 . S
C1448 C1449 1.370 . S
C1448 C1450 1.363 1_556 S
C1448 H1464 0.931 . S
C1449 C1448 1.370 . S
C1449 C1453 1.408 . S
C1450 C1448 1.363 1_554 S
C1450 C1451 1.370 . S
C1450 C1454 1.524 . S
C1451 C1443 1.503 . S
C1451 C1450 1.370 . S
C1451 C1452 1.403 . S
C1452 C1451 1.403 . S
C1452 C1453 1.404 1_554 S
C1452 C1455 1.539 . S
C1453 C1449 1.408 . S
C1453 C1452 1.404 1_556 S
C1453 H1465 0.930 . S
C1454 C1450 1.524 . S
C1454 H1466 0.956 . S
C1454 H1467 0.961 . S
C1454 H1468 0.961 . S
C1455 C1452 1.539 . S
C1455 H1469 0.958 . S
C1455 H1470 0.961 . S
C1455 H1471 0.960 . S
H1456 C1440 0.931 . S
H1457 C1445 0.929 . S
H1458 C1446 0.960 . S
H1459 C1446 0.962 . S
H1460 C1446 0.960 . S
H1461 C1447 0.961 . S
H1462 C1447 0.961 . S
H1463 C1447 0.961 . S
H1464 C1448 0.931 . S
H1465 C1453 0.930 . S
H1466 C1454 0.956 . S
H1467 C1454 0.961 . S
H1468 C1454 0.961 . S
H1469 C1455 0.958 . S
H1470 C1455 0.961 . S
H1471 C1455 0.960 . S
C1472 C1473 1.391 . S
C1472 C1474 1.394 . S
C1472 H1488 0.931 . S
C1473 C1472 1.391 . S
C1473 C1477 1.384 1_655 S
C1474 C1472 1.394 . S
C1474 C1475 1.369 1_554 S
C1474 C1478 1.531 . S
C1475 C1474 1.369 1_556 S
C1475 C1476 1.410 1_655 S
C1475 C1483 1.506 1_545 S
C1476 C1475 1.410 1_455 S
C1476 C1477 1.388 1_556 S
C1476 C1479 1.511 . S
C1477 C1473 1.384 1_455 S
C1477 C1476 1.388 1_554 S
C1477 H1489 0.926 1_554 S
C1478 C1474 1.531 . S
C1478 H1490 0.960 1_545 S
C1478 H1491 0.962 1_545 S
C1478 H1492 0.960 . S
C1479 C1476 1.511 . S
C1479 H1493 0.961 . S
C1479 H1494 0.961 . S
C1479 H1495 0.961 . S
C1480 C1481 1.370 1_554 S
C1480 C1482 1.363 . S
C1480 H1496 0.931 . S
C1481 C1480 1.370 1_556 S
C1481 C1485 1.408 1_455 S
C1482 C1480 1.363 . S
C1482 C1483 1.362 1_454 S
C1482 C1486 1.524 . S
C1483 C1475 1.506 1_565 S
C1483 C1482 1.362 1_656 S
C1483 C1484 1.409 . S
C1484 C1483 1.409 . S
C1484 C1485 1.404 . S
C1484 C1487 1.539 . S
C1485 C1481 1.408 1_655 S
C1485 C1484 1.404 . S
C1485 H1497 0.930 . S
C1486 C1482 1.524 . S
C1486 H1498 0.956 . S
C1486 H1499 0.961 . S
C1486 H1500 0.961 . S
C1487 C1484 1.539 . S
C1487 H1501 0.958 . S
C1487 H1502 0.961 . S
C1487 H1503 0.960 1_565 S
H1488 C1472 0.931 . S
H1489 C1477 0.926 1_556 S
H1490 C1478 0.960 1_565 S
H1491 C1478 0.962 1_565 S
H1492 C1478 0.960 . S
H1493 C1479 0.961 . S
H1494 C1479 0.961 . S
H1495 C1479 0.961 . S
H1496 C1480 0.931 . S
H1497 C1485 0.930 . S
H1498 C1486 0.956 . S
H1499 C1486 0.961 . S
H1500 C1486 0.961 . S
H1501 C1487 0.958 . S
H1502 C1487 0.961 . S
H1503 C1487 0.960 1_545 S
C1504 C1505 1.391 . S
C1504 C1506 1.394 . S
C1504 H1520 0.931 . S
C1505 C1504 1.391 . S
C1505 C1509 1.376 . S
C1506 C1504 1.394 . S
C1506 C1507 1.369 . S
C1506 C1510 1.531 . S
C1507 C1506 1.369 . S
C1507 C1508 1.410 . S
C1507 C1515 1.503 . S
C1508 C1507 1.410 . S
C1508 C1509 1.392 . S
C1508 C1511 1.511 . S
C1509 C1505 1.376 . S
C1509 C1508 1.392 . S
C1509 H1521 0.929 . S
C1510 C1506 1.531 . S
C1510 H1522 0.960 . S
C1510 H1523 0.962 . S
C1510 H1524 0.960 . S
C1511 C1508 1.511 . S
C1511 H1525 0.961 . S
C1511 H1526 0.961 . S
C1511 H1527 0.961 . S
C1512 C1513 1.370 . S
C1512 C1514 1.363 . S
C1512 H1528 0.931 . S
C1513 C1512 1.370 . S
C1513 C1517 1.408 . S
C1514 C1512 1.363 . S
C1514 C1515 1.370 . S
C1514 C1518 1.524 . S
C1515 C1507 1.503 . S
C1515 C1514 1.370 . S
C1515 C1516 1.403 . S
C1516 C1515 1.403 . S
C1516 C1517 1.404 . S
C1516 C1519 1.539 . S
C1517 C1513 1.408 . S
C1517 C1516 1.404 . S
C1517 H1529 0.930 . S
C1518 C1514 1.524 . S
C1518 H1530 0.956 . S
C1518 H1531 0.961 . S
C1518 H1532 0.961 . S
C1519 C1516 1.539 . S
C1519 H1533 0.958 . S
C1519 H1534 0.961 . S
C1519 H1535 0.960 . S
H1520 C1504 0.931 . S
H1521 C1509 0.929 . S
H1522 C1510 0.960 . S
H1523 C1510 0.962 . S
H1524 C1510 0.960 . S
H1525 C1511 0.961 . S
H1526 C1511 0.961 . S
H1527 C1511 0.961 . S
H1528 C1512 0.931 . S
H1529 C1517 0.930 . S
H1530 C1518 0.956 . S
H1531 C1518 0.961 . S
H1532 C1518 0.961 . S
H1533 C1519 0.958 . S
H1534 C1519 0.961 . S
H1535 C1519 0.960 . S
C1536 C1537 1.391 . S
C1536 C1538 1.394 . S
C1536 H1552 0.931 . S
C1537 C1536 1.391 . S
C1537 C1541 1.376 . S
C1538 C1536 1.394 . S
C1538 C1539 1.369 . S
C1538 C1542 1.512 1_545 S
C1539 C1538 1.369 . S
C1539 C1540 1.410 . S
C1539 C1547 1.503 1_545 S
C1540 C1539 1.410 . S
C1540 C1541 1.392 . S
C1540 C1543 1.511 . S
C1541 C1537 1.376 . S
C1541 C1540 1.392 . S
C1541 H1553 0.929 . S
C1542 C1538 1.512 1_565 S
C1542 H1554 0.983 . S
C1542 H1555 0.967 . S
C1542 H1556 0.952 1_565 S
C1543 C1540 1.511 . S
C1543 H1557 0.961 . S
C1543 H1558 0.961 . S
C1543 H1559 0.961 . S
C1544 C1545 1.370 . S
C1544 C1546 1.363 . S
C1544 H1560 0.931 . S
C1545 C1544 1.370 . S
C1545 C1549 1.408 . S
C1546 C1544 1.363 . S
C1546 C1547 1.370 . S
C1546 C1550 1.524 . S
C1547 C1539 1.503 1_565 S
C1547 C1546 1.370 . S
C1547 C1548 1.403 . S
C1548 C1547 1.403 . S
C1548 C1549 1.404 . S
C1548 C1551 1.539 . S
C1549 C1545 1.408 . S
C1549 C1548 1.404 . S
C1549 H1561 0.930 . S
C1550 C1546 1.524 . S
C1550 H1562 0.956 . S
C1550 H1563 0.961 1_565 S
C1550 H1564 0.961 . S
C1551 C1548 1.539 . S
C1551 H1565 0.958 . S
C1551 H1566 0.961 . S
C1551 H1567 0.960 . S
H1552 C1536 0.931 . S
H1553 C1541 0.929 . S
H1554 C1542 0.983 . S
H1555 C1542 0.967 . S
H1556 C1542 0.952 1_545 S
H1557 C1543 0.961 . S
H1558 C1543 0.961 . S
H1559 C1543 0.961 . S
H1560 C1544 0.931 . S
H1561 C1549 0.930 . S
H1562 C1550 0.956 . S
H1563 C1550 0.961 1_545 S
H1564 C1550 0.961 . S
H1565 C1551 0.958 . S
H1566 C1551 0.961 . S
H1567 C1551 0.960 . S
C1568 C1569 1.391 . S
C1568 C1570 1.394 . S
C1568 H1584 0.931 . S
C1569 C1568 1.391 . S
C1569 C1573 1.376 . S
C1570 C1568 1.394 . S
C1570 C1571 1.369 . S
C1570 C1574 1.531 . S
C1571 C1570 1.369 . S
C1571 C1572 1.410 . S
C1571 C1579 1.503 . S
C1572 C1571 1.410 . S
C1572 C1573 1.392 . S
C1572 C1575 1.511 . S
C1573 C1569 1.376 . S
C1573 C1572 1.392 . S
C1573 H1585 0.929 . S
C1574 C1570 1.531 . S
C1574 H1586 0.960 . S
C1574 H1587 0.962 . S
C1574 H1588 0.960 . S
C1575 C1572 1.511 . S
C1575 H1589 0.961 . S
C1575 H1590 0.961 . S
C1575 H1591 0.961 . S
C1576 C1577 1.370 . S
C1576 C1578 1.363 . S
C1576 H1592 0.931 . S
C1577 C1576 1.370 . S
C1577 C1581 1.408 . S
C1578 C1576 1.363 . S
C1578 C1579 1.370 . S
C1578 C1582 1.524 . S
C1579 C1571 1.503 . S
C1579 C1578 1.370 . S
C1579 C1580 1.403 . S
C1580 C1579 1.403 . S
C1580 C1581 1.404 . S
C1580 C1583 1.539 . S
C1581 C1577 1.408 . S
C1581 C1580 1.404 . S
C1581 H1593 0.930 . S
C1582 C1578 1.524 . S
C1582 H1594 0.956 . S
C1582 H1595 0.961 . S
C1582 H1596 0.961 . S
C1583 C1580 1.539 . S
C1583 H1597 0.958 . S
C1583 H1598 0.961 . S
C1583 H1599 0.960 . S
H1584 C1568 0.931 . S
H1585 C1573 0.929 . S
H1586 C1574 0.960 . S
H1587 C1574 0.962 . S
H1588 C1574 0.960 . S
H1589 C1575 0.961 . S
H1590 C1575 0.961 . S
H1591 C1575 0.961 . S
H1592 C1576 0.931 . S
H1593 C1581 0.930 . S
H1594 C1582 0.956 . S
H1595 C1582 0.961 . S
H1596 C1582 0.961 . S
H1597 C1583 0.958 . S
H1598 C1583 0.961 . S
H1599 C1583 0.960 . S
C1600 C1601 1.391 1_455 S
C1600 C1602 1.394 . S
C1600 H1616 0.931 . S
C1601 C1600 1.391 1_655 S
C1601 C1605 1.376 . S
C1602 C1600 1.394 . S
C1602 C1603 1.329 1_455 S
C1602 C1606 1.531 . S
C1603 C1602 1.329 1_655 S
C1603 C1604 1.457 . S
C1603 C1611 1.498 1_665 S
C1604 C1603 1.457 . S
C1604 C1605 1.392 . S
C1604 C1607 1.511 . S
C1605 C1601 1.376 . S
C1605 C1604 1.392 . S
C1605 H1617 0.929 . S
C1606 C1602 1.531 . S
C1606 H1618 0.962 . S
C1606 H1619 0.962 . S
C1606 H1620 0.960 . S
C1607 C1604 1.511 . S
C1607 H1621 0.961 . S
C1607 H1622 0.961 1_565 S
C1607 H1623 0.961 1_565 S
C1608 C1609 1.370 . S
C1608 C1610 1.363 . S
C1608 H1624 0.931 . S
C1609 C1608 1.370 . S
C1609 C1613 1.408 . S
C1610 C1608 1.363 . S
C1610 C1611 1.370 . S
C1610 C1614 1.489 1_445 S
C1611 C1603 1.498 1_445 S
C1611 C1610 1.370 . S
C1611 C1612 1.403 . S
C1612 C1611 1.403 . S
C1612 C1613 1.404 . S
C1612 C1615 1.539 . S
C1613 C1609 1.408 . S
C1613 C1612 1.404 . S
C1613 H1625 0.930 . S
C1614 C1610 1.489 1_665 S
C1614 H1626 0.938 1_655 S
C1614 H1627 1.029 . S
C1614 H1628 0.951 1_565 S
C1615 C1612 1.539 . S
C1615 H1629 0.958 . S
C1615 H1630 0.961 1_455 S
C1615 H1631 0.960 1_455 S
H1616 C1600 0.931 . S
H1617 C1605 0.929 . S
H1618 C1606 0.962 . S
H1619 C1606 0.962 . S
H1620 C1606 0.960 . S
H1621 C1607 0.961 . S
H1622 C1607 0.961 1_545 S
H1623 C1607 0.961 1_545 S
H1624 C1608 0.931 . S
H1625 C1613 0.930 . S
H1626 C1614 0.938 1_455 S
H1627 C1614 1.029 . S
H1628 C1614 0.951 1_545 S
H1629 C1615 0.958 . S
H1630 C1615 0.961 1_655 S
H1631 C1615 0.960 1_655 S
C1632 C1633 1.391 . S
C1632 C1634 1.394 . S
C1632 H1648 0.931 . S
C1633 C1632 1.391 . S
C1633 C1637 1.376 . S
C1634 C1632 1.394 . S
C1634 C1635 1.369 . S
C1634 C1638 1.531 . S
C1635 C1634 1.369 . S
C1635 C1636 1.410 . S
C1635 C1643 1.503 . S
C1636 C1635 1.410 . S
C1636 C1637 1.392 . S
C1636 C1639 1.511 . S
C1637 C1633 1.376 . S
C1637 C1636 1.392 . S
C1637 H1649 0.929 . S
C1638 C1634 1.531 . S
C1638 H1650 0.960 . S
C1638 H1651 0.962 . S
C1638 H1652 0.960 . S
C1639 C1636 1.511 . S
C1639 H1653 0.961 . S
C1639 H1654 0.961 . S
C1639 H1655 0.961 . S
C1640 C1641 1.370 . S
C1640 C1642 1.363 . S
C1640 H1656 0.931 . S
C1641 C1640 1.370 . S
C1641 C1645 1.408 . S
C1642 C1640 1.363 . S
C1642 C1643 1.370 . S
C1642 C1646 1.524 . S
C1643 C1635 1.503 . S
C1643 C1642 1.370 . S
C1643 C1644 1.403 . S
C1644 C1643 1.403 . S
C1644 C1645 1.404 . S
C1644 C1647 1.539 . S
C1645 C1641 1.408 . S
C1645 C1644 1.404 . S
C1645 H1657 0.930 . S
C1646 C1642 1.524 . S
C1646 H1658 0.956 . S
C1646 H1659 0.961 . S
C1646 H1660 0.961 . S
C1647 C1644 1.539 . S
C1647 H1661 0.958 . S
C1647 H1662 0.961 . S
C1647 H1663 0.960 . S
H1648 C1632 0.931 . S
H1649 C1637 0.929 . S
H1650 C1638 0.960 . S
H1651 C1638 0.962 . S
H1652 C1638 0.960 . S
H1653 C1639 0.961 . S
H1654 C1639 0.961 . S
H1655 C1639 0.961 . S
H1656 C1640 0.931 . S
H1657 C1645 0.930 . S
H1658 C1646 0.956 . S
H1659 C1646 0.961 . S
H1660 C1646 0.961 . S
H1661 C1647 0.958 . S
H1662 C1647 0.961 . S
H1663 C1647 0.960 . S
C1664 C1665 1.391 1_556 S
C1664 C1666 1.394 . S
C1664 H1680 0.931 . S
C1665 C1664 1.391 1_554 S
C1665 C1669 1.376 . S
C1666 C1664 1.394 . S
C1666 C1667 1.368 . S
C1666 C1670 1.531 . S
C1667 C1666 1.368 . S
C1667 C1668 1.411 1_556 S
C1667 C1675 1.503 1_565 S
C1668 C1667 1.411 1_554 S
C1668 C1669 1.392 . S
C1668 C1671 1.505 1_565 S
C1669 C1665 1.376 . S
C1669 C1668 1.392 . S
C1669 H1681 0.929 . S
C1670 C1666 1.531 . S
C1670 H1682 0.960 . S
C1670 H1683 0.962 . S
C1670 H1684 0.960 . S
C1671 C1668 1.505 1_545 S
C1671 H1685 0.958 1_545 S
C1671 H1686 0.969 . S
C1671 H1687 0.962 . S
C1672 C1673 1.370 . S
C1672 C1674 1.363 1_556 S
C1672 H1688 0.931 1_556 S
C1673 C1672 1.370 . S
C1673 C1677 1.408 . S
C1674 C1672 1.363 1_554 S
C1674 C1675 1.370 1_554 S
C1674 C1678 1.524 . S
C1675 C1667 1.503 1_545 S
C1675 C1674 1.370 1_556 S
C1675 C1676 1.403 . S
C1676 C1675 1.403 . S
C1676 C1677 1.404 . S
C1676 C1679 1.539 . S
C1677 C1673 1.408 . S
C1677 C1676 1.404 . S
C1677 H1689 0.930 . S
C1678 C1674 1.524 . S
C1678 H1690 0.956 1_545 S
C1678 H1691 0.961 . S
C1678 H1692 0.961 . S
C1679 C1676 1.539 . S
C1679 H1693 0.958 . S
C1679 H1694 0.961 . S
C1679 H1695 0.992 . S
H1680 C1664 0.931 . S
H1681 C1669 0.929 . S
H1682 C1670 0.960 . S
H1683 C1670 0.962 . S
H1684 C1670 0.960 . S
H1685 C1671 0.958 1_565 S
H1686 C1671 0.969 . S
H1687 C1671 0.962 . S
H1688 C1672 0.931 1_554 S
H1689 C1677 0.930 . S
H1690 C1678 0.956 1_565 S
H1691 C1678 0.961 . S
H1692 C1678 0.961 . S
H1693 C1679 0.958 . S
H1694 C1679 0.961 . S
H1695 C1679 0.992 . S
C1696 C1697 1.391 . S
C1696 C1698 1.394 . S
C1696 H1712 0.931 . S
C1697 C1696 1.391 . S
C1697 C1701 1.376 . S
C1698 C1696 1.394 . S
C1698 C1699 1.369 . S
C1698 C1702 1.531 . S
C1699 C1698 1.369 . S
C1699 C1700 1.410 . S
C1699 C1707 1.503 . S
C1700 C1699 1.410 . S
C1700 C1701 1.392 . S
C1700 C1703 1.511 . S
C1701 C1697 1.376 . S
C1701 C1700 1.392 . S
C1701 H1713 0.929 . S
C1702 C1698 1.531 . S
C1702 H1714 0.960 . S
C1702 H1715 0.962 . S
C1702 H1716 0.960 . S
C1703 C1700 1.511 . S
C1703 H1717 0.961 . S
C1703 H1718 0.961 . S
C1703 H1719 0.961 . S
C1704 C1705 1.370 . S
C1704 C1706 1.363 . S
C1704 H1720 0.931 . S
C1705 C1704 1.370 . S
C1705 C1709 1.408 . S
C1706 C1704 1.363 . S
C1706 C1707 1.370 . S
C1706 C1710 1.524 . S
C1707 C1699 1.503 . S
C1707 C1706 1.370 . S
C1707 C1708 1.403 . S
C1708 C1707 1.403 . S
C1708 C1709 1.404 . S
C1708 C1711 1.539 . S
C1709 C1705 1.408 . S
C1709 C1708 1.404 . S
C1709 H1721 0.930 . S
C1710 C1706 1.524 . S
C1710 H1722 0.956 . S
C1710 H1723 0.961 . S
C1710 H1724 0.961 . S
C1711 C1708 1.539 . S
C1711 H1725 0.958 . S
C1711 H1726 0.961 . S
C1711 H1727 0.960 . S
H1712 C1696 0.931 . S
H1713 C1701 0.929 . S
H1714 C1702 0.960 . S
H1715 C1702 0.962 . S
H1716 C1702 0.960 . S
H1717 C1703 0.961 . S
H1718 C1703 0.961 . S
H1719 C1703 0.961 . S
H1720 C1704 0.931 . S
H1721 C1709 0.930 . S
H1722 C1710 0.956 . S
H1723 C1710 0.961 . S
H1724 C1710 0.961 . S
H1725 C1711 0.958 . S
H1726 C1711 0.961 . S
H1727 C1711 0.960 . S
C1728 C1729 1.391 . S
C1728 C1730 1.394 . S
C1728 H1744 0.931 . S
C1729 C1728 1.391 . S
C1729 C1733 1.376 . S
C1730 C1728 1.394 . S
C1730 C1731 1.369 . S
C1730 C1734 1.531 . S
C1731 C1730 1.369 . S
C1731 C1732 1.410 . S
C1731 C1739 1.503 . S
C1732 C1731 1.410 . S
C1732 C1733 1.392 . S
C1732 C1735 1.511 . S
C1733 C1729 1.376 . S
C1733 C1732 1.392 . S
C1733 H1745 0.929 . S
C1734 C1730 1.531 . S
C1734 H1746 0.960 . S
C1734 H1747 0.962 . S
C1734 H1748 0.960 . S
C1735 C1732 1.511 . S
C1735 H1749 0.961 . S
C1735 H1750 0.961 . S
C1735 H1751 0.961 . S
C1736 C1737 1.370 . S
C1736 C1738 1.363 . S
C1736 H1752 0.931 . S
C1737 C1736 1.370 . S
C1737 C1741 1.408 . S
C1738 C1736 1.363 . S
C1738 C1739 1.370 . S
C1738 C1742 1.524 . S
C1739 C1731 1.503 . S
C1739 C1738 1.370 . S
C1739 C1740 1.403 . S
C1740 C1739 1.403 . S
C1740 C1741 1.404 . S
C1740 C1743 1.539 . S
C1741 C1737 1.408 . S
C1741 C1740 1.404 . S
C1741 H1753 0.930 . S
C1742 C1738 1.524 . S
C1742 H1754 0.956 . S
C1742 H1755 0.961 . S
C1742 H1756 0.961 . S
C1743 C1740 1.539 . S
C1743 H1757 0.958 . S
C1743 H1758 0.961 . S
C1743 H1759 0.960 . S
H1744 C1728 0.931 . S
H1745 C1733 0.929 . S
H1746 C1734 0.960 . S
H1747 C1734 0.962 . S
H1748 C1734 0.960 . S
H1749 C1735 0.961 . S
H1750 C1735 0.961 . S
H1751 C1735 0.961 . S
H1752 C1736 0.931 . S
H1753 C1741 0.930 . S
H1754 C1742 0.956 . S
H1755 C1742 0.961 . S
H1756 C1742 0.961 . S
H1757 C1743 0.958 . S
H1758 C1743 0.961 . S
H1759 C1743 0.960 . S
C1760 C1761 1.391 . S
C1760 C1762 1.394 . S
C1760 H1776 0.931 . S
C1761 C1760 1.391 . S
C1761 C1765 1.376 . S
C1762 C1760 1.394 . S
C1762 C1763 1.369 . S
C1762 C1766 1.531 . S
C1763 C1762 1.369 . S
C1763 C1764 1.410 . S
C1763 C1771 1.503 . S
C1764 C1763 1.410 . S
C1764 C1765 1.392 . S
C1764 C1767 1.511 . S
C1765 C1761 1.376 . S
C1765 C1764 1.392 . S
C1765 H1777 0.929 . S
C1766 C1762 1.531 . S
C1766 H1778 0.960 . S
C1766 H1779 0.962 . S
C1766 H1780 0.960 . S
C1767 C1764 1.511 . S
C1767 H1781 0.961 . S
C1767 H1782 0.961 . S
C1767 H1783 0.961 . S
C1768 C1769 1.370 . S
C1768 C1770 1.363 . S
C1768 H1784 0.931 . S
C1769 C1768 1.370 . S
C1769 C1773 1.408 . S
C1770 C1768 1.363 . S
C1770 C1771 1.370 . S
C1770 C1774 1.524 . S
C1771 C1763 1.503 . S
C1771 C1770 1.370 . S
C1771 C1772 1.403 . S
C1772 C1771 1.403 . S
C1772 C1773 1.404 . S
C1772 C1775 1.539 . S
C1773 C1769 1.408 . S
C1773 C1772 1.404 . S
C1773 H1785 0.930 . S
C1774 C1770 1.524 . S
C1774 H1786 0.956 . S
C1774 H1787 0.961 . S
C1774 H1788 0.961 . S
C1775 C1772 1.539 . S
C1775 H1789 0.958 . S
C1775 H1790 0.961 . S
C1775 H1791 0.960 . S
H1776 C1760 0.931 . S
H1777 C1765 0.929 . S
H1778 C1766 0.960 . S
H1779 C1766 0.962 . S
H1780 C1766 0.960 . S
H1781 C1767 0.961 . S
H1782 C1767 0.961 . S
H1783 C1767 0.961 . S
H1784 C1768 0.931 . S
H1785 C1773 0.930 . S
H1786 C1774 0.956 . S
H1787 C1774 0.961 . S
H1788 C1774 0.961 . S
H1789 C1775 0.958 . S
H1790 C1775 0.961 . S
H1791 C1775 0.960 . S
C1792 C1793 1.391 . S
C1792 C1794 1.394 . S
C1792 H1808 0.931 . S
C1793 C1792 1.391 . S
C1793 C1797 1.376 . S
C1794 C1792 1.394 . S
C1794 C1795 1.369 . S
C1794 C1798 1.531 . S
C1795 C1794 1.369 . S
C1795 C1796 1.410 . S
C1795 C1803 1.503 . S
C1796 C1795 1.410 . S
C1796 C1797 1.392 . S
C1796 C1799 1.511 . S
C1797 C1793 1.376 . S
C1797 C1796 1.392 . S
C1797 H1809 0.929 . S
C1798 C1794 1.531 . S
C1798 H1810 0.960 . S
C1798 H1811 0.962 . S
C1798 H1812 0.960 . S
C1799 C1796 1.511 . S
C1799 H1813 0.961 . S
C1799 H1814 0.961 . S
C1799 H1815 0.961 . S
C1800 C1801 1.370 . S
C1800 C1802 1.363 . S
C1800 H1816 0.931 . S
C1801 C1800 1.370 . S
C1801 C1805 1.408 . S
C1802 C1800 1.363 . S
C1802 C1803 1.370 . S
C1802 C1806 1.524 . S
C1803 C1795 1.503 . S
C1803 C1802 1.370 . S
C1803 C1804 1.403 . S
C1804 C1803 1.403 . S
C1804 C1805 1.404 . S
C1804 C1807 1.539 . S
C1805 C1801 1.408 . S
C1805 C1804 1.404 . S
C1805 H1817 0.930 . S
C1806 C1802 1.524 . S
C1806 H1818 0.956 . S
C1806 H1819 0.961 . S
C1806 H1820 0.961 . S
C1807 C1804 1.539 . S
C1807 H1821 0.958 . S
C1807 H1822 0.961 . S
C1807 H1823 0.960 . S
H1808 C1792 0.931 . S
H1809 C1797 0.929 . S
H1810 C1798 0.960 . S
H1811 C1798 0.962 . S
H1812 C1798 0.960 . S
H1813 C1799 0.961 . S
H1814 C1799 0.961 . S
H1815 C1799 0.961 . S
H1816 C1800 0.931 . S
H1817 C1805 0.930 . S
H1818 C1806 0.956 . S
H1819 C1806 0.961 . S
H1820 C1806 0.961 . S
H1821 C1807 0.958 . S
H1822 C1807 0.961 . S
H1823 C1807 0.960 . S
C1824 C1825 1.391 . S
C1824 C1826 1.394 . S
C1824 H1840 0.931 . S
C1825 C1824 1.391 . S
C1825 C1829 1.376 . S
C1826 C1824 1.394 . S
C1826 C1827 1.369 . S
C1826 C1830 1.531 . S
C1827 C1826 1.369 . S
C1827 C1828 1.410 . S
C1827 C1835 1.503 . S
C1828 C1827 1.410 . S
C1828 C1829 1.392 . S
C1828 C1831 1.511 . S
C1829 C1825 1.376 . S
C1829 C1828 1.392 . S
C1829 H1841 0.929 . S
C1830 C1826 1.531 . S
C1830 H1842 0.960 . S
C1830 H1843 0.962 . S
C1830 H1844 0.960 . S
C1831 C1828 1.511 . S
C1831 H1845 0.961 . S
C1831 H1846 0.961 . S
C1831 H1847 0.961 . S
C1832 C1833 1.370 . S
C1832 C1834 1.363 . S
C1832 H1848 0.931 . S
C1833 C1832 1.370 . S
C1833 C1837 1.408 . S
C1834 C1832 1.363 . S
C1834 C1835 1.370 . S
C1834 C1838 1.524 . S
C1835 C1827 1.503 . S
C1835 C1834 1.370 . S
C1835 C1836 1.403 . S
C1836 C1835 1.403 . S
C1836 C1837 1.404 . S
C1836 C1839 1.539 . S
C1837 C1833 1.408 . S
C1837 C1836 1.404 . S
C1837 H1849 0.930 . S
C1838 C1834 1.524 . S
C1838 H1850 0.956 . S
C1838 H1851 0.961 . S
C1838 H1852 0.961 . S
C1839 C1836 1.539 . S
C1839 H1853 0.958 . S
C1839 H1854 0.961 . S
C1839 H1855 0.960 . S
H1840 C1824 0.931 . S
H1841 C1829 0.929 . S
H1842 C1830 0.960 . S
H1843 C1830 0.962 . S
H1844 C1830 0.960 . S
H1845 C1831 0.961 . S
H1846 C1831 0.961 . S
H1847 C1831 0.961 . S
H1848 C1832 0.931 . S
H1849 C1837 0.930 . S
H1850 C1838 0.956 . S
H1851 C1838 0.961 . S
H1852 C1838 0.961 . S
H1853 C1839 0.958 . S
H1854 C1839 0.961 . S
H1855 C1839 0.960 . S
C1856 C1857 1.391 . S
C1856 C1858 1.394 . S
C1856 H1872 0.931 . S
C1857 C1856 1.391 . S
C1857 C1861 1.376 . S
C1858 C1856 1.394 . S
C1858 C1859 1.369 . S
C1858 C1862 1.531 . S
C1859 C1858 1.369 . S
C1859 C1860 1.410 . S
C1859 C1867 1.503 . S
C1860 C1859 1.410 . S
C1860 C1861 1.392 . S
C1860 C1863 1.511 . S
C1861 C1857 1.376 . S
C1861 C1860 1.392 . S
C1861 H1873 0.929 . S
C1862 C1858 1.531 . S
C1862 H1874 0.960 . S
C1862 H1875 0.962 . S
C1862 H1876 0.960 . S
C1863 C1860 1.511 . S
C1863 H1877 0.961 . S
C1863 H1878 0.961 . S
C1863 H1879 0.961 . S
C1864 C1865 1.370 . S
C1864 C1866 1.363 . S
C1864 H1880 0.931 . S
C1865 C1864 1.370 . S
C1865 C1869 1.408 . S
C1866 C1864 1.363 . S
C1866 C1867 1.370 . S
C1866 C1870 1.524 . S
C1867 C1859 1.503 . S
C1867 C1866 1.370 . S
C1867 C1868 1.403 . S
C1868 C1867 1.403 . S
C1868 C1869 1.404 . S
C1868 C1871 1.539 . S
C1869 C1865 1.408 . S
C1869 C1868 1.404 . S
C1869 H1881 0.930 . S
C1870 C1866 1.524 . S
C1870 H1882 0.956 . S
C1870 H1883 0.961 . S
C1870 H1884 0.961 . S
C1871 C1868 1.539 . S
C1871 H1885 0.958 . S
C1871 H1886 0.961 . S
C1871 H1887 0.960 . S
H1872 C1856 0.931 . S
H1873 C1861 0.929 . S
H1874 C1862 0.960 . S
H1875 C1862 0.962 . S
H1876 C1862 0.960 . S
H1877 C1863 0.961 . S
H1878 C1863 0.961 . S
H1879 C1863 0.961 . S
H1880 C1864 0.931 . S
H1881 C1869 0.930 . S
H1882 C1870 0.956 . S
H1883 C1870 0.961 . S
H1884 C1870 0.961 . S
H1885 C1871 0.958 . S
H1886 C1871 0.961 . S
H1887 C1871 0.960 . S
C1888 C1889 1.391 1_655 S
C1888 C1890 1.394 1_554 S
C1888 H1904 0.931 1_554 S
C1889 C1888 1.391 1_455 S
C1889 C1893 1.376 . S
C1890 C1888 1.394 1_556 S
C1890 C1891 1.369 1_556 S
C1890 C1894 1.531 . S
C1891 C1890 1.369 1_554 S
C1891 C1892 1.410 1_655 S
C1891 C1899 1.496 1_554 S
C1892 C1891 1.410 1_455 S
C1892 C1893 1.392 . S
C1892 C1895 1.511 . S
C1893 C1889 1.376 . S
C1893 C1892 1.392 . S
C1893 H1905 0.929 . S
C1894 C1890 1.531 . S
C1894 H1906 0.960 . S
C1894 H1907 0.962 . S
C1894 H1908 0.960 . S
C1895 C1892 1.511 . S
C1895 H1909 0.961 . S
C1895 H1910 0.961 . S
C1895 H1911 0.961 . S
C1896 C1897 1.370 1_455 S
C1896 C1898 1.363 . S
C1896 H1912 0.931 . S
C1897 C1896 1.370 1_655 S
C1897 C1901 1.408 1_556 S
C1898 C1896 1.363 . S
C1898 C1899 1.389 1_455 S
C1898 C1902 1.524 . S
C1899 C1891 1.496 1_556 S
C1899 C1898 1.389 1_655 S
C1899 C1900 1.391 1_556 S
C1900 C1899 1.391 1_554 S
C1900 C1901 1.404 . S
C1900 C1903 1.539 . S
C1901 C1897 1.408 1_554 S
C1901 C1900 1.404 . S
C1901 H1913 0.930 . S
C1902 C1898 1.524 . S
C1902 H1914 0.956 . S
C1902 H1915 0.961 . S
C1902 H1916 0.961 . S
C1903 C1900 1.539 . S
C1903 H1917 0.958 . S
C1903 H1918 0.961 . S
C1903 H1919 0.960 . S
H1904 C1888 0.931 1_556 S
H1905 C1893 0.929 . S
H1906 C1894 0.960 . S
H1907 C1894 0.962 . S
H1908 C1894 0.960 . S
H1909 C1895 0.961 . S
H1910 C1895 0.961 . S
H1911 C1895 0.961 . S
H1912 C1896 0.931 . S
H1913 C1901 0.930 . S
H1914 C1902 0.956 . S
H1915 C1902 0.961 . S
H1916 C1902 0.961 . S
H1917 C1903 0.958 . S
H1918 C1903 0.961 . S
H1919 C1903 0.960 . S
C1920 C1921 1.391 . S
C1920 C1922 1.394 1_556 S
C1920 H1936 0.931 . S
C1921 C1920 1.391 . S
C1921 C1925 1.376 . S
C1922 C1920 1.394 1_554 S
C1922 C1923 1.369 . S
C1922 C1926 1.531 . S
C1923 C1922 1.369 . S
C1923 C1924 1.410 1_554 S
C1923 C1931 1.503 . S
C1924 C1923 1.410 1_556 S
C1924 C1925 1.392 . S
C1924 C1927 1.511 . S
C1925 C1921 1.376 . S
C1925 C1924 1.392 . S
C1925 H1937 0.929 . S
C1926 C1922 1.531 . S
C1926 H1938 0.960 . S
C1926 H1939 0.962 1_554 S
C1926 H1940 0.960 . S
C1927 C1924 1.511 . S
C1927 H1941 0.961 . S
C1927 H1942 0.961 . S
C1927 H1943 0.961 1_556 S
C1928 C1929 1.370 1_556 S
C1928 C1930 1.363 . S
C1928 H1944 0.931 . S
C1929 C1928 1.370 1_554 S
C1929 C1933 1.408 . S
C1930 C1928 1.363 . S
C1930 C1931 1.370 1_556 S
C1930 C1934 1.524 . S
C1931 C1923 1.503 . S
C1931 C1930 1.370 1_554 S
C1931 C1932 1.403 . S
C1932 C1931 1.403 . S
C1932 C1933 1.404 . S
C1932 C1935 1.539 . S
C1933 C1929 1.408 . S
C1933 C1932 1.404 . S
C1933 H1945 0.930 . S
C1934 C1930 1.524 . S
C1934 H1946 0.956 . S
C1934 H1947 0.961 . S
C1934 H1948 0.961 . S
C1935 C1932 1.539 . S
C1935 H1949 0.958 . S
C1935 H1950 0.961 . S
C1935 H1951 0.960 . S
H1936 C1920 0.931 . S
H1937 C1925 0.929 . S
H1938 C1926 0.960 . S
H1939 C1926 0.962 1_556 S
H1940 C1926 0.960 . S
H1941 C1927 0.961 . S
H1942 C1927 0.961 . S
H1943 C1927 0.961 1_554 S
H1944 C1928 0.931 . S
H1945 C1933 0.930 . S
H1946 C1934 0.956 . S
H1947 C1934 0.961 . S
H1948 C1934 0.961 . S
H1949 C1935 0.958 . S
H1950 C1935 0.961 . S
H1951 C1935 0.960 . S
C1952 C1953 1.391 . S
C1952 C1954 1.394 . S
C1952 H1968 0.931 . S
C1953 C1952 1.391 . S
C1953 C1957 1.376 1_655 S
C1954 C1952 1.394 . S
C1954 C1955 1.369 . S
C1954 C1958 1.531 . S
C1955 C1954 1.369 . S
C1955 C1956 1.410 1_655 S
C1955 C1963 1.503 1_655 S
C1956 C1955 1.410 1_455 S
C1956 C1957 1.392 . S
C1956 C1959 1.511 . S
C1957 C1953 1.376 1_455 S
C1957 C1956 1.392 . S
C1957 H1969 0.929 . S
C1958 C1954 1.531 . S
C1958 H1970 0.960 . S
C1958 H1971 0.962 . S
C1958 H1972 0.960 . S
C1959 C1956 1.511 . S
C1959 H1973 0.961 . S
C1959 H1974 0.961 . S
C1959 H1975 0.961 . S
C1960 C1961 1.370 . S
C1960 C1962 1.363 . S
C1960 H1976 0.931 . S
C1961 C1960 1.370 . S
C1961 C1965 1.408 . S
C1962 C1960 1.363 . S
C1962 C1963 1.370 . S
C1962 C1966 1.527 . S
C1963 C1955 1.503 1_455 S
C1963 C1962 1.370 . S
C1963 C1964 1.403 . S
C1964 C1963 1.403 . S
C1964 C1965 1.404 . S
C1964 C1967 1.539 . S
C1965 C1961 1.408 . S
C1965 C1964 1.404 . S
C1965 H1977 0.930 . S
C1966 C1962 1.527 . S
C1966 H1978 0.926 1_455 S
C1966 H1979 0.983 . S
C1966 H1980 0.967 . S
C1967 C1964 1.539 . S
C1967 H1981 0.958 1_455 S
C1967 H1982 0.961 . S
C1967 H1983 0.960 . S
H1968 C1952 0.931 . S
H1969 C1957 0.929 . S
H1970 C1958 0.960 . S
H1971 C1958 0.962 . S
H1972 C1958 0.960 . S
H1973 C1959 0.961 . S
H1974 C1959 0.961 . S
H1975 C1959 0.961 . S
H1976 C1960 0.931 . S
H1977 C1965 0.930 . S
H1978 C1966 0.926 1_655 S
H1979 C1966 0.983 . S
H1980 C1966 0.967 . S
H1981 C1967 0.958 1_655 S
H1982 C1967 0.961 . S
H1983 C1967 0.960 . S
C1984 C1985 1.391 . S
C1984 C1986 1.394 . S
C1984 H2000 0.931 . S
C1985 C1984 1.391 . S
C1985 C1989 1.376 . S
C1986 C1984 1.394 . S
C1986 C1987 1.369 . S
C1986 C1990 1.531 . S
C1987 C1986 1.369 . S
C1987 C1988 1.410 . S
C1987 C1995 1.503 . S
C1988 C1987 1.410 . S
C1988 C1989 1.392 . S
C1988 C1991 1.511 . S
C1989 C1985 1.376 . S
C1989 C1988 1.392 . S
C1989 H2001 0.929 . S
C1990 C1986 1.531 . S
C1990 H2002 0.960 . S
C1990 H2003 0.962 . S
C1990 H2004 0.960 . S
C1991 C1988 1.511 . S
C1991 H2005 0.961 . S
C1991 H2006 0.961 . S
C1991 H2007 0.961 . S
C1992 C1993 1.370 . S
C1992 C1994 1.363 . S
C1992 H2008 0.931 . S
C1993 C1992 1.370 . S
C1993 C1997 1.408 . S
C1994 C1992 1.363 . S
C1994 C1995 1.370 . S
C1994 C1998 1.524 . S
C1995 C1987 1.503 . S
C1995 C1994 1.370 . S
C1995 C1996 1.403 . S
C1996 C1995 1.403 . S
C1996 C1997 1.404 . S
C1996 C1999 1.539 . S
C1997 C1993 1.408 . S
C1997 C1996 1.404 . S
C1997 H2009 0.930 . S
C1998 C1994 1.524 . S
C1998 H2010 0.956 . S
C1998 H2011 0.961 . S
C1998 H2012 0.961 . S
C1999 C1996 1.539 . S
C1999 H2013 0.958 . S
C1999 H2014 0.961 . S
C1999 H2015 0.960 . S
H2000 C1984 0.931 . S
H2001 C1989 0.929 . S
H2002 C1990 0.960 . S
H2003 C1990 0.962 . S
H2004 C1990 0.960 . S
H2005 C1991 0.961 . S
H2006 C1991 0.961 . S
H2007 C1991 0.961 . S
H2008 C1992 0.931 . S
H2009 C1997 0.930 . S
H2010 C1998 0.956 . S
H2011 C1998 0.961 . S
H2012 C1998 0.961 . S
H2013 C1999 0.958 . S
H2014 C1999 0.961 . S
H2015 C1999 0.960 . S
C2016 C2017 1.391 . S
C2016 C2018 1.394 . S
C2016 H2032 0.931 . S
C2017 C2016 1.391 . S
C2017 C2021 1.376 . S
C2018 C2016 1.394 . S
C2018 C2019 1.369 . S
C2018 C2022 1.531 . S
C2019 C2018 1.369 . S
C2019 C2020 1.410 . S
C2019 C2027 1.503 . S
C2020 C2019 1.410 . S
C2020 C2021 1.392 . S
C2020 C2023 1.511 . S
C2021 C2017 1.376 . S
C2021 C2020 1.392 . S
C2021 H2033 0.929 . S
C2022 C2018 1.531 . S
C2022 H2034 0.960 . S
C2022 H2035 0.962 . S
C2022 H2036 0.960 . S
C2023 C2020 1.511 . S
C2023 H2037 0.961 . S
C2023 H2038 0.961 . S
C2023 H2039 0.961 . S
C2024 C2025 1.370 . S
C2024 C2026 1.363 . S
C2024 H2040 0.931 . S
C2025 C2024 1.370 . S
C2025 C2029 1.408 . S
C2026 C2024 1.363 . S
C2026 C2027 1.370 . S
C2026 C2030 1.524 . S
C2027 C2019 1.503 . S
C2027 C2026 1.370 . S
C2027 C2028 1.403 . S
C2028 C2027 1.403 . S
C2028 C2029 1.404 . S
C2028 C2031 1.539 . S
C2029 C2025 1.408 . S
C2029 C2028 1.404 . S
C2029 H2041 0.930 . S
C2030 C2026 1.524 . S
C2030 H2042 0.956 . S
C2030 H2043 0.961 . S
C2030 H2044 0.961 . S
C2031 C2028 1.539 . S
C2031 H2045 0.958 . S
C2031 H2046 0.961 . S
C2031 H2047 0.960 . S
H2032 C2016 0.931 . S
H2033 C2021 0.929 . S
H2034 C2022 0.960 . S
H2035 C2022 0.962 . S
H2036 C2022 0.960 . S
H2037 C2023 0.961 . S
H2038 C2023 0.961 . S
H2039 C2023 0.961 . S
H2040 C2024 0.931 . S
H2041 C2029 0.930 . S
H2042 C2030 0.956 . S
H2043 C2030 0.961 . S
H2044 C2030 0.961 . S
H2045 C2031 0.958 . S
H2046 C2031 0.961 . S
H2047 C2031 0.960 . S
C2048 C2049 1.391 . S
C2048 C2050 1.394 . S
C2048 H2064 0.931 . S
C2049 C2048 1.391 . S
C2049 C2053 1.376 . S
C2050 C2048 1.394 . S
C2050 C2051 1.369 . S
C2050 C2054 1.531 . S
C2051 C2050 1.369 . S
C2051 C2052 1.410 . S
C2051 C2059 1.503 . S
C2052 C2051 1.410 . S
C2052 C2053 1.392 . S
C2052 C2055 1.511 . S
C2053 C2049 1.376 . S
C2053 C2052 1.392 . S
C2053 H2065 0.929 . S
C2054 C2050 1.531 . S
C2054 H2066 0.960 . S
C2054 H2067 0.962 . S
C2054 H2068 0.960 . S
C2055 C2052 1.511 . S
C2055 H2069 0.961 . S
C2055 H2070 0.961 . S
C2055 H2071 0.961 . S
C2056 C2057 1.370 . S
C2056 C2058 1.363 . S
C2056 H2072 0.931 . S
C2057 C2056 1.370 . S
C2057 C2061 1.408 . S
C2058 C2056 1.363 . S
C2058 C2059 1.370 . S
C2058 C2062 1.524 . S
C2059 C2051 1.503 . S
C2059 C2058 1.370 . S
C2059 C2060 1.403 . S
C2060 C2059 1.403 . S
C2060 C2061 1.404 . S
C2060 C2063 1.539 . S
C2061 C2057 1.408 . S
C2061 C2060 1.404 . S
C2061 H2073 0.930 . S
C2062 C2058 1.524 . S
C2062 H2074 0.956 . S
C2062 H2075 0.961 . S
C2062 H2076 0.961 . S
C2063 C2060 1.539 . S
C2063 H2077 0.958 . S
C2063 H2078 0.961 . S
C2063 H2079 0.960 . S
H2064 C2048 0.931 . S
H2065 C2053 0.929 . S
H2066 C2054 0.960 . S
H2067 C2054 0.962 . S
H2068 C2054 0.960 . S
H2069 C2055 0.961 . S
H2070 C2055 0.961 . S
H2071 C2055 0.961 . S
H2072 C2056 0.931 . S
H2073 C2061 0.930 . S
H2074 C2062 0.956 . S
H2075 C2062 0.961 . S
H2076 C2062 0.961 . S
H2077 C2063 0.958 . S
H2078 C2063 0.961 . S
H2079 C2063 0.960 . S
C2080 C2081 1.391 . S
C2080 C2082 1.394 . S
C2080 H2096 0.931 . S
C2081 C2080 1.391 . S
C2081 C2085 1.376 . S
C2082 C2080 1.394 . S
C2082 C2083 1.369 . S
C2082 C2086 1.531 . S
C2083 C2082 1.369 . S
C2083 C2084 1.410 . S
C2083 C2091 1.503 . S
C2084 C2083 1.410 . S
C2084 C2085 1.392 . S
C2084 C2087 1.511 . S
C2085 C2081 1.376 . S
C2085 C2084 1.392 . S
C2085 H2097 0.929 . S
C2086 C2082 1.531 . S
C2086 H2098 0.960 . S
C2086 H2099 0.962 . S
C2086 H2100 0.960 . S
C2087 C2084 1.511 . S
C2087 H2101 0.961 . S
C2087 H2102 0.961 . S
C2087 H2103 0.961 . S
C2088 C2089 1.370 . S
C2088 C2090 1.363 . S
C2088 H2104 0.931 . S
C2089 C2088 1.370 . S
C2089 C2093 1.408 . S
C2090 C2088 1.363 . S
C2090 C2091 1.370 . S
C2090 C2094 1.524 . S
C2091 C2083 1.503 . S
C2091 C2090 1.370 . S
C2091 C2092 1.403 . S
C2092 C2091 1.403 . S
C2092 C2093 1.404 . S
C2092 C2095 1.539 . S
C2093 C2089 1.408 . S
C2093 C2092 1.404 . S
C2093 H2105 0.930 . S
C2094 C2090 1.524 . S
C2094 H2106 0.956 . S
C2094 H2107 0.961 . S
C2094 H2108 0.961 . S
C2095 C2092 1.539 . S
C2095 H2109 0.958 . S
C2095 H2110 0.961 . S
C2095 H2111 0.960 . S
H2096 C2080 0.931 . S
H2097 C2085 0.929 . S
H2098 C2086 0.960 . S
H2099 C2086 0.962 . S
H2100 C2086 0.960 . S
H2101 C2087 0.961 . S
H2102 C2087 0.961 . S
H2103 C2087 0.961 . S
H2104 C2088 0.931 . S
H2105 C2093 0.930 . S
H2106 C2094 0.956 . S
H2107 C2094 0.961 . S
H2108 C2094 0.961 . S
H2109 C2095 0.958 . S
H2110 C2095 0.961 . S
H2111 C2095 0.960 . S
C2112 C2113 1.391 . S
C2112 C2114 1.394 . S
C2112 H2128 0.931 . S
C2113 C2112 1.391 . S
C2113 C2117 1.376 . S
C2114 C2112 1.394 . S
C2114 C2115 1.369 . S
C2114 C2118 1.531 . S
C2115 C2114 1.369 . S
C2115 C2116 1.410 . S
C2115 C2123 1.503 . S
C2116 C2115 1.410 . S
C2116 C2117 1.392 . S
C2116 C2119 1.511 . S
C2117 C2113 1.376 . S
C2117 C2116 1.392 . S
C2117 H2129 0.929 . S
C2118 C2114 1.531 . S
C2118 H2130 0.960 . S
C2118 H2131 0.962 . S
C2118 H2132 0.960 . S
C2119 C2116 1.511 . S
C2119 H2133 0.961 . S
C2119 H2134 0.961 . S
C2119 H2135 0.961 . S
C2120 C2121 1.370 . S
C2120 C2122 1.363 . S
C2120 H2136 0.931 . S
C2121 C2120 1.370 . S
C2121 C2125 1.408 . S
C2122 C2120 1.363 . S
C2122 C2123 1.370 . S
C2122 C2126 1.524 . S
C2123 C2115 1.503 . S
C2123 C2122 1.370 . S
C2123 C2124 1.403 . S
C2124 C2123 1.403 . S
C2124 C2125 1.404 . S
C2124 C2127 1.539 . S
C2125 C2121 1.408 . S
C2125 C2124 1.404 . S
C2125 H2137 0.930 . S
C2126 C2122 1.524 . S
C2126 H2138 0.956 . S
C2126 H2139 0.961 . S
C2126 H2140 0.961 . S
C2127 C2124 1.539 . S
C2127 H2141 0.958 . S
C2127 H2142 0.961 . S
C2127 H2143 0.960 . S
H2128 C2112 0.931 . S
H2129 C2117 0.929 . S
H2130 C2118 0.960 . S
H2131 C2118 0.962 . S
H2132 C2118 0.960 . S
H2133 C2119 0.961 . S
H2134 C2119 0.961 . S
H2135 C2119 0.961 . S
H2136 C2120 0.931 . S
H2137 C2125 0.930 . S
H2138 C2126 0.956 . S
H2139 C2126 0.961 . S
H2140 C2126 0.961 . S
H2141 C2127 0.958 . S
H2142 C2127 0.961 . S
H2143 C2127 0.960 . S
C2144 C2145 1.391 . S
C2144 C2146 1.394 . S
C2144 H2160 0.931 . S
C2145 C2144 1.391 . S
C2145 C2149 1.376 . S
C2146 C2144 1.394 . S
C2146 C2147 1.369 . S
C2146 C2150 1.531 . S
C2147 C2146 1.369 . S
C2147 C2148 1.410 . S
C2147 C2155 1.503 . S
C2148 C2147 1.410 . S
C2148 C2149 1.392 . S
C2148 C2151 1.511 . S
C2149 C2145 1.376 . S
C2149 C2148 1.392 . S
C2149 H2161 0.929 . S
C2150 C2146 1.531 . S
C2150 H2162 0.960 . S
C2150 H2163 0.962 . S
C2150 H2164 0.960 . S
C2151 C2148 1.511 . S
C2151 H2165 0.961 . S
C2151 H2166 0.961 . S
C2151 H2167 0.961 . S
C2152 C2153 1.370 . S
C2152 C2154 1.363 . S
C2152 H2168 0.931 . S
C2153 C2152 1.370 . S
C2153 C2157 1.408 . S
C2154 C2152 1.363 . S
C2154 C2155 1.370 . S
C2154 C2158 1.524 . S
C2155 C2147 1.503 . S
C2155 C2154 1.370 . S
C2155 C2156 1.403 . S
C2156 C2155 1.403 . S
C2156 C2157 1.404 . S
C2156 C2159 1.539 . S
C2157 C2153 1.408 . S
C2157 C2156 1.404 . S
C2157 H2169 0.930 . S
C2158 C2154 1.524 . S
C2158 H2170 0.956 . S
C2158 H2171 0.961 . S
C2158 H2172 0.961 . S
C2159 C2156 1.539 . S
C2159 H2173 0.958 . S
C2159 H2174 0.961 . S
C2159 H2175 0.960 . S
H2160 C2144 0.931 . S
H2161 C2149 0.929 . S
H2162 C2150 0.960 . S
H2163 C2150 0.962 . S
H2164 C2150 0.960 . S
H2165 C2151 0.961 . S
H2166 C2151 0.961 . S
H2167 C2151 0.961 . S
H2168 C2152 0.931 . S
H2169 C2157 0.930 . S
H2170 C2158 0.956 . S
H2171 C2158 0.961 . S
H2172 C2158 0.961 . S
H2173 C2159 0.958 . S
H2174 C2159 0.961 . S
H2175 C2159 0.960 . S
C2176 C2177 1.391 . S
C2176 C2178 1.394 . S
C2176 H2192 0.931 . S
C2177 C2176 1.391 . S
C2177 C2181 1.376 . S
C2178 C2176 1.394 . S
C2178 C2179 1.369 . S
C2178 C2182 1.531 . S
C2179 C2178 1.369 . S
C2179 C2180 1.410 . S
C2179 C2187 1.503 . S
C2180 C2179 1.410 . S
C2180 C2181 1.392 . S
C2180 C2183 1.511 . S
C2181 C2177 1.376 . S
C2181 C2180 1.392 . S
C2181 H2193 0.929 . S
C2182 C2178 1.531 . S
C2182 H2194 0.960 . S
C2182 H2195 0.962 . S
C2182 H2196 0.960 . S
C2183 C2180 1.511 . S
C2183 H2197 0.961 . S
C2183 H2198 0.961 . S
C2183 H2199 0.961 . S
C2184 C2185 1.370 . S
C2184 C2186 1.363 . S
C2184 H2200 0.931 . S
C2185 C2184 1.370 . S
C2185 C2189 1.408 . S
C2186 C2184 1.363 . S
C2186 C2187 1.370 . S
C2186 C2190 1.524 . S
C2187 C2179 1.503 . S
C2187 C2186 1.370 . S
C2187 C2188 1.403 . S
C2188 C2187 1.403 . S
C2188 C2189 1.404 . S
C2188 C2191 1.539 . S
C2189 C2185 1.408 . S
C2189 C2188 1.404 . S
C2189 H2201 0.930 . S
C2190 C2186 1.524 . S
C2190 H2202 0.956 . S
C2190 H2203 0.961 . S
C2190 H2204 0.961 . S
C2191 C2188 1.539 . S
C2191 H2205 0.958 . S
C2191 H2206 0.961 . S
C2191 H2207 0.960 . S
H2192 C2176 0.931 . S
H2193 C2181 0.929 . S
H2194 C2182 0.960 . S
H2195 C2182 0.962 . S
H2196 C2182 0.960 . S
H2197 C2183 0.961 . S
H2198 C2183 0.961 . S
H2199 C2183 0.961 . S
H2200 C2184 0.931 . S
H2201 C2189 0.930 . S
H2202 C2190 0.956 . S
H2203 C2190 0.961 . S
H2204 C2190 0.961 . S
H2205 C2191 0.958 . S
H2206 C2191 0.961 . S
H2207 C2191 0.960 . S
C2208 C2209 1.391 . S
C2208 C2210 1.394 . S
C2208 H2224 0.931 . S
C2209 C2208 1.391 . S
C2209 C2213 1.376 . S
C2210 C2208 1.394 . S
C2210 C2211 1.369 . S
C2210 C2214 1.531 . S
C2211 C2210 1.369 . S
C2211 C2212 1.410 . S
C2211 C2219 1.503 . S
C2212 C2211 1.410 . S
C2212 C2213 1.392 . S
C2212 C2215 1.511 . S
C2213 C2209 1.376 . S
C2213 C2212 1.392 . S
C2213 H2225 0.929 . S
C2214 C2210 1.531 . S
C2214 H2226 0.960 . S
C2214 H2227 0.962 . S
C2214 H2228 0.960 . S
C2215 C2212 1.511 . S
C2215 H2229 0.961 . S
C2215 H2230 0.961 . S
C2215 H2231 0.961 . S
C2216 C2217 1.370 . S
C2216 C2218 1.363 . S
C2216 H2232 0.931 . S
C2217 C2216 1.370 . S
C2217 C2221 1.408 . S
C2218 C2216 1.363 . S
C2218 C2219 1.370 . S
C2218 C2222 1.524 . S
C2219 C2211 1.503 . S
C2219 C2218 1.370 . S
C2219 C2220 1.403 . S
C2220 C2219 1.403 . S
C2220 C2221 1.404 . S
C2220 C2223 1.539 . S
C2221 C2217 1.408 . S
C2221 C2220 1.404 . S
C2221 H2233 0.930 . S
C2222 C2218 1.524 . S
C2222 H2234 0.956 . S
C2222 H2235 0.961 . S
C2222 H2236 0.961 . S
C2223 C2220 1.539 . S
C2223 H2237 0.958 . S
C2223 H2238 0.961 . S
C2223 H2239 0.960 . S
H2224 C2208 0.931 . S
H2225 C2213 0.929 . S
H2226 C2214 0.960 . S
H2227 C2214 0.962 . S
H2228 C2214 0.960 . S
H2229 C2215 0.961 . S
H2230 C2215 0.961 . S
H2231 C2215 0.961 . S
H2232 C2216 0.931 . S
H2233 C2221 0.930 . S
H2234 C2222 0.956 . S
H2235 C2222 0.961 . S
H2236 C2222 0.961 . S
H2237 C2223 0.958 . S
H2238 C2223 0.961 . S
H2239 C2223 0.960 . S
C2240 C2241 1.391 . S
C2240 C2242 1.394 . S
C2240 H2256 0.931 . S
C2241 C2240 1.391 . S
C2241 C2245 1.376 . S
C2242 C2240 1.394 . S
C2242 C2243 1.369 . S
C2242 C2246 1.531 . S
C2243 C2242 1.369 . S
C2243 C2244 1.410 . S
C2243 C2251 1.503 . S
C2244 C2243 1.410 . S
C2244 C2245 1.392 . S
C2244 C2247 1.511 . S
C2245 C2241 1.376 . S
C2245 C2244 1.392 . S
C2245 H2257 0.929 . S
C2246 C2242 1.531 . S
C2246 H2258 0.960 . S
C2246 H2259 0.962 . S
C2246 H2260 0.960 . S
C2247 C2244 1.511 . S
C2247 H2261 0.961 . S
C2247 H2262 0.961 . S
C2247 H2263 0.961 . S
C2248 C2249 1.370 . S
C2248 C2250 1.363 . S
C2248 H2264 0.931 . S
C2249 C2248 1.370 . S
C2249 C2253 1.408 . S
C2250 C2248 1.363 . S
C2250 C2251 1.370 . S
C2250 C2254 1.524 . S
C2251 C2243 1.503 . S
C2251 C2250 1.370 . S
C2251 C2252 1.403 . S
C2252 C2251 1.403 . S
C2252 C2253 1.404 . S
C2252 C2255 1.539 . S
C2253 C2249 1.408 . S
C2253 C2252 1.404 . S
C2253 H2265 0.930 . S
C2254 C2250 1.524 . S
C2254 H2266 0.956 . S
C2254 H2267 0.961 . S
C2254 H2268 0.961 . S
C2255 C2252 1.539 . S
C2255 H2269 0.958 . S
C2255 H2270 0.961 . S
C2255 H2271 0.960 . S
H2256 C2240 0.931 . S
H2257 C2245 0.929 . S
H2258 C2246 0.960 . S
H2259 C2246 0.962 . S
H2260 C2246 0.960 . S
H2261 C2247 0.961 . S
H2262 C2247 0.961 . S
H2263 C2247 0.961 . S
H2264 C2248 0.931 . S
H2265 C2253 0.930 . S
H2266 C2254 0.956 . S
H2267 C2254 0.961 . S
H2268 C2254 0.961 . S
H2269 C2255 0.958 . S
H2270 C2255 0.961 . S
H2271 C2255 0.960 . S
C2272 C2273 1.391 . S
C2272 C2274 1.394 . S
C2272 H2288 0.931 . S
C2273 C2272 1.391 . S
C2273 C2277 1.376 . S
C2274 C2272 1.394 . S
C2274 C2275 1.369 . S
C2274 C2278 1.531 . S
C2275 C2274 1.369 . S
C2275 C2276 1.410 . S
C2275 C2283 1.503 . S
C2276 C2275 1.410 . S
C2276 C2277 1.392 . S
C2276 C2279 1.511 . S
C2277 C2273 1.376 . S
C2277 C2276 1.392 . S
C2277 H2289 0.929 . S
C2278 C2274 1.531 . S
C2278 H2290 0.960 . S
C2278 H2291 0.962 . S
C2278 H2292 0.960 . S
C2279 C2276 1.511 . S
C2279 H2293 0.961 . S
C2279 H2294 0.961 . S
C2279 H2295 0.961 . S
C2280 C2281 1.370 . S
C2280 C2282 1.363 . S
C2280 H2296 0.931 . S
C2281 C2280 1.370 . S
C2281 C2285 1.408 . S
C2282 C2280 1.363 . S
C2282 C2283 1.370 . S
C2282 C2286 1.524 . S
C2283 C2275 1.503 . S
C2283 C2282 1.370 . S
C2283 C2284 1.403 . S
C2284 C2283 1.403 . S
C2284 C2285 1.404 . S
C2284 C2287 1.539 . S
C2285 C2281 1.408 . S
C2285 C2284 1.404 . S
C2285 H2297 0.930 . S
C2286 C2282 1.524 . S
C2286 H2298 0.956 . S
C2286 H2299 0.961 . S
C2286 H2300 0.961 . S
C2287 C2284 1.539 . S
C2287 H2301 0.958 . S
C2287 H2302 0.961 . S
C2287 H2303 0.960 . S
H2288 C2272 0.931 . S
H2289 C2277 0.929 . S
H2290 C2278 0.960 . S
H2291 C2278 0.962 . S
H2292 C2278 0.960 . S
H2293 C2279 0.961 . S
H2294 C2279 0.961 . S
H2295 C2279 0.961 . S
H2296 C2280 0.931 . S
H2297 C2285 0.930 . S
H2298 C2286 0.956 . S
H2299 C2286 0.961 . S
H2300 C2286 0.961 . S
H2301 C2287 0.958 . S
H2302 C2287 0.961 . S
H2303 C2287 0.960 . S
C2304 C2305 1.391 . S
C2304 C2306 1.394 . S
C2304 H2320 0.931 . S
C2305 C2304 1.391 . S
C2305 C2309 1.376 . S
C2306 C2304 1.394 . S
C2306 C2307 1.369 . S
C2306 C2310 1.531 . S
C2307 C2306 1.369 . S
C2307 C2308 1.410 . S
C2307 C2315 1.503 . S
C2308 C2307 1.410 . S
C2308 C2309 1.392 . S
C2308 C2311 1.511 . S
C2309 C2305 1.376 . S
C2309 C2308 1.392 . S
C2309 H2321 0.929 . S
C2310 C2306 1.531 . S
C2310 H2322 0.960 . S
C2310 H2323 0.962 . S
C2310 H2324 0.960 . S
C2311 C2308 1.511 . S
C2311 H2325 0.961 . S
C2311 H2326 0.961 . S
C2311 H2327 0.961 . S
C2312 C2313 1.370 . S
C2312 C2314 1.363 . S
C2312 H2328 0.931 . S
C2313 C2312 1.370 . S
C2313 C2317 1.408 . S
C2314 C2312 1.363 . S
C2314 C2315 1.370 . S
C2314 C2318 1.524 . S
C2315 C2307 1.503 . S
C2315 C2314 1.370 . S
C2315 C2316 1.403 . S
C2316 C2315 1.403 . S
C2316 C2317 1.404 . S
C2316 C2319 1.539 . S
C2317 C2313 1.408 . S
C2317 C2316 1.404 . S
C2317 H2329 0.930 . S
C2318 C2314 1.524 . S
C2318 H2330 0.956 . S
C2318 H2331 0.961 . S
C2318 H2332 0.961 . S
C2319 C2316 1.539 . S
C2319 H2333 0.958 . S
C2319 H2334 0.961 . S
C2319 H2335 0.960 . S
H2320 C2304 0.931 . S
H2321 C2309 0.929 . S
H2322 C2310 0.960 . S
H2323 C2310 0.962 . S
H2324 C2310 0.960 . S
H2325 C2311 0.961 . S
H2326 C2311 0.961 . S
H2327 C2311 0.961 . S
H2328 C2312 0.931 . S
H2329 C2317 0.930 . S
H2330 C2318 0.956 . S
H2331 C2318 0.961 . S
H2332 C2318 0.961 . S
H2333 C2319 0.958 . S
H2334 C2319 0.961 . S
H2335 C2319 0.960 . S
C2336 C2337 1.391 . S
C2336 C2338 1.394 . S
C2336 H2352 0.931 . S
C2337 C2336 1.391 . S
C2337 C2341 1.376 . S
C2338 C2336 1.394 . S
C2338 C2339 1.369 . S
C2338 C2342 1.531 . S
C2339 C2338 1.369 . S
C2339 C2340 1.410 . S
C2339 C2347 1.503 . S
C2340 C2339 1.410 . S
C2340 C2341 1.392 . S
C2340 C2343 1.511 . S
C2341 C2337 1.376 . S
C2341 C2340 1.392 . S
C2341 H2353 0.929 . S
C2342 C2338 1.531 . S
C2342 H2354 0.960 . S
C2342 H2355 0.962 . S
C2342 H2356 0.960 . S
C2343 C2340 1.511 . S
C2343 H2357 0.961 . S
C2343 H2358 0.961 . S
C2343 H2359 0.961 . S
C2344 C2345 1.370 . S
C2344 C2346 1.363 . S
C2344 H2360 0.931 . S
C2345 C2344 1.370 . S
C2345 C2349 1.408 . S
C2346 C2344 1.363 . S
C2346 C2347 1.370 . S
C2346 C2350 1.524 . S
C2347 C2339 1.503 . S
C2347 C2346 1.370 . S
C2347 C2348 1.403 . S
C2348 C2347 1.403 . S
C2348 C2349 1.404 . S
C2348 C2351 1.539 . S
C2349 C2345 1.408 . S
C2349 C2348 1.404 . S
C2349 H2361 0.930 . S
C2350 C2346 1.524 . S
C2350 H2362 0.956 . S
C2350 H2363 0.961 . S
C2350 H2364 0.961 . S
C2351 C2348 1.539 . S
C2351 H2365 0.958 . S
C2351 H2366 0.961 . S
C2351 H2367 0.960 . S
H2352 C2336 0.931 . S
H2353 C2341 0.929 . S
H2354 C2342 0.960 . S
H2355 C2342 0.962 . S
H2356 C2342 0.960 . S
H2357 C2343 0.961 . S
H2358 C2343 0.961 . S
H2359 C2343 0.961 . S
H2360 C2344 0.931 . S
H2361 C2349 0.930 . S
H2362 C2350 0.956 . S
H2363 C2350 0.961 . S
H2364 C2350 0.961 . S
H2365 C2351 0.958 . S
H2366 C2351 0.961 . S
H2367 C2351 0.960 . S
C2368 C2369 1.391 . S
C2368 C2370 1.394 . S
C2368 H2384 0.931 . S
C2369 C2368 1.391 . S
C2369 C2373 1.376 . S
C2370 C2368 1.394 . S
C2370 C2371 1.369 . S
C2370 C2374 1.531 . S
C2371 C2370 1.369 . S
C2371 C2372 1.410 . S
C2371 C2379 1.503 . S
C2372 C2371 1.410 . S
C2372 C2373 1.392 . S
C2372 C2375 1.511 . S
C2373 C2369 1.376 . S
C2373 C2372 1.392 . S
C2373 H2385 0.929 . S
C2374 C2370 1.531 . S
C2374 H2386 0.960 . S
C2374 H2387 0.962 . S
C2374 H2388 0.960 . S
C2375 C2372 1.511 . S
C2375 H2389 0.961 . S
C2375 H2390 0.961 . S
C2375 H2391 0.961 . S
C2376 C2377 1.370 . S
C2376 C2378 1.363 . S
C2376 H2392 0.931 . S
C2377 C2376 1.370 . S
C2377 C2381 1.408 . S
C2378 C2376 1.363 . S
C2378 C2379 1.370 . S
C2378 C2382 1.524 . S
C2379 C2371 1.503 . S
C2379 C2378 1.370 . S
C2379 C2380 1.403 . S
C2380 C2379 1.403 . S
C2380 C2381 1.404 . S
C2380 C2383 1.539 . S
C2381 C2377 1.408 . S
C2381 C2380 1.404 . S
C2381 H2393 0.930 . S
C2382 C2378 1.524 . S
C2382 H2394 0.956 . S
C2382 H2395 0.961 . S
C2382 H2396 0.961 . S
C2383 C2380 1.539 . S
C2383 H2397 0.958 . S
C2383 H2398 0.961 . S
C2383 H2399 0.960 . S
H2384 C2368 0.931 . S
H2385 C2373 0.929 . S
H2386 C2374 0.960 . S
H2387 C2374 0.962 . S
H2388 C2374 0.960 . S
H2389 C2375 0.961 . S
H2390 C2375 0.961 . S
H2391 C2375 0.961 . S
H2392 C2376 0.931 . S
H2393 C2381 0.930 . S
H2394 C2382 0.956 . S
H2395 C2382 0.961 . S
H2396 C2382 0.961 . S
H2397 C2383 0.958 . S
H2398 C2383 0.961 . S
H2399 C2383 0.960 . S
C2400 C2401 1.391 . S
C2400 C2402 1.394 . S
C2400 H2416 0.931 . S
C2401 C2400 1.391 . S
C2401 C2405 1.376 . S
C2402 C2400 1.394 . S
C2402 C2403 1.369 . S
C2402 C2406 1.531 . S
C2403 C2402 1.369 . S
C2403 C2404 1.410 . S
C2403 C2411 1.503 . S
C2404 C2403 1.410 . S
C2404 C2405 1.392 . S
C2404 C2407 1.511 . S
C2405 C2401 1.376 . S
C2405 C2404 1.392 . S
C2405 H2417 0.929 . S
C2406 C2402 1.531 . S
C2406 H2418 0.960 . S
C2406 H2419 0.962 . S
C2406 H2420 0.960 . S
C2407 C2404 1.511 . S
C2407 H2421 0.961 . S
C2407 H2422 0.961 . S
C2407 H2423 0.961 . S
C2408 C2409 1.370 . S
C2408 C2410 1.363 . S
C2408 H2424 0.931 . S
C2409 C2408 1.370 . S
C2409 C2413 1.408 . S
C2410 C2408 1.363 . S
C2410 C2411 1.370 . S
C2410 C2414 1.524 . S
C2411 C2403 1.503 . S
C2411 C2410 1.370 . S
C2411 C2412 1.403 . S
C2412 C2411 1.403 . S
C2412 C2413 1.404 . S
C2412 C2415 1.539 . S
C2413 C2409 1.408 . S
C2413 C2412 1.404 . S
C2413 H2425 0.930 . S
C2414 C2410 1.524 . S
C2414 H2426 0.956 . S
C2414 H2427 0.961 . S
C2414 H2428 0.961 . S
C2415 C2412 1.539 . S
C2415 H2429 0.958 . S
C2415 H2430 0.961 . S
C2415 H2431 0.960 . S
H2416 C2400 0.931 . S
H2417 C2405 0.929 . S
H2418 C2406 0.960 . S
H2419 C2406 0.962 . S
H2420 C2406 0.960 . S
H2421 C2407 0.961 . S
H2422 C2407 0.961 . S
H2423 C2407 0.961 . S
H2424 C2408 0.931 . S
H2425 C2413 0.930 . S
H2426 C2414 0.956 . S
H2427 C2414 0.961 . S
H2428 C2414 0.961 . S
H2429 C2415 0.958 . S
H2430 C2415 0.961 . S
H2431 C2415 0.960 . S
C2432 C2433 1.391 . S
C2432 C2434 1.394 . S
C2432 H2448 0.931 . S
C2433 C2432 1.391 . S
C2433 C2437 1.376 . S
C2434 C2432 1.394 . S
C2434 C2435 1.369 . S
C2434 C2438 1.531 . S
C2435 C2434 1.369 . S
C2435 C2436 1.410 . S
C2435 C2443 1.503 . S
C2436 C2435 1.410 . S
C2436 C2437 1.392 . S
C2436 C2439 1.511 . S
C2437 C2433 1.376 . S
C2437 C2436 1.392 . S
C2437 H2449 0.929 . S
C2438 C2434 1.531 . S
C2438 H2450 0.960 . S
C2438 H2451 0.962 . S
C2438 H2452 0.960 . S
C2439 C2436 1.511 . S
C2439 H2453 0.961 . S
C2439 H2454 0.961 . S
C2439 H2455 0.961 . S
C2440 C2441 1.370 . S
C2440 C2442 1.363 . S
C2440 H2456 0.931 . S
C2441 C2440 1.370 . S
C2441 C2445 1.408 . S
C2442 C2440 1.363 . S
C2442 C2443 1.370 . S
C2442 C2446 1.524 . S
C2443 C2435 1.503 . S
C2443 C2442 1.370 . S
C2443 C2444 1.403 . S
C2444 C2443 1.403 . S
C2444 C2445 1.404 . S
C2444 C2447 1.539 . S
C2445 C2441 1.408 . S
C2445 C2444 1.404 . S
C2445 H2457 0.930 . S
C2446 C2442 1.524 . S
C2446 H2458 0.956 . S
C2446 H2459 0.961 . S
C2446 H2460 0.961 . S
C2447 C2444 1.539 . S
C2447 H2461 0.958 . S
C2447 H2462 0.961 . S
C2447 H2463 0.960 . S
H2448 C2432 0.931 . S
H2449 C2437 0.929 . S
H2450 C2438 0.960 . S
H2451 C2438 0.962 . S
H2452 C2438 0.960 . S
H2453 C2439 0.961 . S
H2454 C2439 0.961 . S
H2455 C2439 0.961 . S
H2456 C2440 0.931 . S
H2457 C2445 0.930 . S
H2458 C2446 0.956 . S
H2459 C2446 0.961 . S
H2460 C2446 0.961 . S
H2461 C2447 0.958 . S
H2462 C2447 0.961 . S
H2463 C2447 0.960 . S
C2464 C2465 1.391 . S
C2464 C2466 1.394 . S
C2464 H2480 0.931 . S
C2465 C2464 1.391 . S
C2465 C2469 1.376 . S
C2466 C2464 1.394 . S
C2466 C2467 1.369 . S
C2466 C2470 1.531 . S
C2467 C2466 1.369 . S
C2467 C2468 1.410 . S
C2467 C2475 1.503 . S
C2468 C2467 1.410 . S
C2468 C2469 1.392 . S
C2468 C2471 1.511 . S
C2469 C2465 1.376 . S
C2469 C2468 1.392 . S
C2469 H2481 0.929 . S
C2470 C2466 1.531 . S
C2470 H2482 0.960 . S
C2470 H2483 0.962 . S
C2470 H2484 0.960 . S
C2471 C2468 1.511 . S
C2471 H2485 0.961 . S
C2471 H2486 0.961 . S
C2471 H2487 0.961 . S
C2472 C2473 1.370 . S
C2472 C2474 1.363 . S
C2472 H2488 0.931 . S
C2473 C2472 1.370 . S
C2473 C2477 1.408 . S
C2474 C2472 1.363 . S
C2474 C2475 1.370 . S
C2474 C2478 1.524 . S
C2475 C2467 1.503 . S
C2475 C2474 1.370 . S
C2475 C2476 1.403 . S
C2476 C2475 1.403 . S
C2476 C2477 1.404 . S
C2476 C2479 1.539 . S
C2477 C2473 1.408 . S
C2477 C2476 1.404 . S
C2477 H2489 0.930 . S
C2478 C2474 1.524 . S
C2478 H2490 0.956 . S
C2478 H2491 0.961 . S
C2478 H2492 0.961 . S
C2479 C2476 1.539 . S
C2479 H2493 0.958 . S
C2479 H2494 0.961 . S
C2479 H2495 0.960 . S
H2480 C2464 0.931 . S
H2481 C2469 0.929 . S
H2482 C2470 0.960 . S
H2483 C2470 0.962 . S
H2484 C2470 0.960 . S
H2485 C2471 0.961 . S
H2486 C2471 0.961 . S
H2487 C2471 0.961 . S
H2488 C2472 0.931 . S
H2489 C2477 0.930 . S
H2490 C2478 0.956 . S
H2491 C2478 0.961 . S
H2492 C2478 0.961 . S
H2493 C2479 0.958 . S
H2494 C2479 0.961 . S
H2495 C2479 0.960 . S
C449 C181 1.417 . S
C457 C0 1.433 . S
C481 C406 1.413 . S
C489 C27 1.433 . S
C513 C196 1.425 . S
C521 C29 1.430 . S
C545 C435 1.435 . S
C553 C55 1.426 . S
C577 C113 1.416 . S
C585 C68 1.433 . S
C609 C70 1.437 . S
C617 C362 1.423 . S
C641 C84 1.428 . S
C649 C140 1.426 . S
C673 C391 1.434 . S
C681 C99 1.426 . S
C705 C69 1.436 . S
C713 C112 1.425 . S
C737 C294 1.434 . S
C745 C126 1.426 . S
C769 C85 1.430 . S
C777 C141 1.427 . S
C801 C322 1.427 . S
C809 C166 1.429 . S
C833 C180 1.433 . S
C841 C1 1.424 . S
C865 C183 1.435 . S
C873 C251 1.424 . S
C897 C28 1.429 . S
C905 C197 1.428 . S
C929 C211 1.417 . S
C937 C266 1.433 . S
C961 C392 1.414 . S
C969 C224 1.434 . S
C993 C182 1.426 . S
C1001 C250 1.430 . S
C1025 C433 1.416 . S
C1033 C252 1.434 . S
C1057 C267 1.437 . S
C1065 C210 1.422 . S
C1089 C280 1.419 . S
C1097 C337 1.432 . S
C1121 C295 1.415 . S
C1129 C127 1.433 . S
C1153 C377 1.417 . S
C1161 C320 1.433 . S
C1185 C167 1.414 . S
C1193 C323 1.433 . S
C1217 C281 1.429 . S
C1225 C336 1.427 . S
C1249 C363 1.437 . S
C1257 C71 1.423 . S
C1281 C376 1.419 . S
C1289 C321 1.431 . S
C1313 C390 1.435 . S
C1321 C98 1.425 . S
C1345 C225 1.426 . S
C1353 C393 1.428 . S
C1377 C26 1.413 . S
C1385 C407 1.434 . S
C1409 C253 1.434 . S
C1417 C432 1.425 . S
C1441 C434 1.420 . S
C1449 C54 1.431 . S
C1473 C13 1.959 . S
C1481 C125 1.949 . S
C1505 C14 1.970 . S
C1513 C350 1.942 . S
C1537 C152 1.928 . S
C1545 C40 1.961 . S
C1569 C42 1.925 . S
C1577 C379 1.963 . S
C1601 C57 1.942 . S
C1609 C169 1.953 . S
C1633 C418 1.940 . S
C1641 C83 1.954 . S
C1665 C208 1.967 . S
C1673 C97 1.940 . S
C1697 C110 1.945 . S
C1705 C447 1.953 . S
C1729 C139 1.926 . S
C1737 C239 1.960 . S
C1761 C155 1.925 . S
C1769 C278 1.963 . S
C1793 C194 1.969 . S
C1801 C306 1.944 . S
C1825 C334 1.930 . S
C1833 C222 1.957 . S
C1857 C237 1.940 . S
C1865 C349 1.954 . S
C1889 C265 1.928 . S
C1897 C365 1.959 . S
C1921 C293 1.944 . S
C1929 C404 1.952 . S
C1953 C421 1.946 . S
C1961 C309 1.953 . S
C1985 C12 1.884 . S
C1993 C111 1.888 . S
C2017 C15 1.883 . S
C2025 C56 1.890 . S
C2049 C82 1.880 . S
C2057 C41 1.886 . S
C2081 C96 1.876 . S
C2089 C43 1.884 . S
C2113 C223 1.867 . S
C2121 C124 1.878 . S
C2145 C168 1.894 . S
C2153 C138 1.891 . S
C2177 C195 1.888 . S
C2185 C153 1.889 . S
C2209 C209 1.870 . S
C2217 C154 1.880 . S
C2241 C236 1.870 . S
C2249 C335 1.878 . S
C2273 C292 1.879 . S
C2281 C238 1.888 . S
C2305 C307 1.876 . S
C2313 C264 1.883 . S
C2337 C308 1.885 . S
C2345 C279 1.884 . S
C2369 C446 1.892 . S
C2377 C348 1.889 . S
C2401 C351 1.873 . S
C2409 C405 1.883 . S
C2433 C364 1.865 . S
C2441 C419 1.880 . S
C2465 C420 1.894 . S
C2473 C378 1.891 . S
