# Generated by pormake.
# Topology unj, (4)-cn, num edge types: 1
# Building blocks:
#     Node 0, Type 0, BuildingBlock: QUQFOY_clean_sbu_1, # of connection points: 4
#     Node 1, Type 0, BuildingBlock: QUQFOY_clean_sbu_1, # of connection points: 4
#     Node 2, Type 0, BuildingBlock: QUQFOY_clean_sbu_1, # of connection points: 4
#     Node 3, Type 0, BuildingBlock: QUQFOY_clean_sbu_1, # of connection points: 4
#     Node 4, Type 0, BuildingBlock: QUQFOY_clean_sbu_1, # of connection points: 4
#     Node 5, Type 0, BuildingBlock: QUQFOY_clean_sbu_1, # of connection points: 4
#     Edge 6, Type (0, 0), BuildingBlock: FUNLAD_clean_linker_1, # of connection points: 2
#     Edge 7, Type (0, 0), BuildingBlock: FUNLAD_clean_linker_1, # of connection points: 2
#     Edge 8, Type (0, 0), BuildingBlock: FUNLAD_clean_linker_1, # of connection points: 2
#     Edge 9, Type (0, 0), BuildingBlock: FUNLAD_clean_linker_1, # of connection points: 2
#     Edge 10, Type (0, 0), BuildingBlock: FUNLAD_clean_linker_1, # of connection points: 2
#     Edge 11, Type (0, 0), BuildingBlock: FUNLAD_clean_linker_1, # of connection points: 2
#     Edge 12, Type (0, 0), BuildingBlock: FUNLAD_clean_linker_1, # of connection points: 2
#     Edge 13, Type (0, 0), BuildingBlock: FUNLAD_clean_linker_1, # of connection points: 2
#     Edge 14, Type (0, 0), BuildingBlock: FUNLAD_clean_linker_1, # of connection points: 2
#     Edge 15, Type (0, 0), BuildingBlock: FUNLAD_clean_linker_1, # of connection points: 2
#     Edge 16, Type (0, 0), BuildingBlock: FUNLAD_clean_linker_1, # of connection points: 2
#     Edge 17, Type (0, 0), BuildingBlock: FUNLAD_clean_linker_1, # of connection points: 2
# Relax obj value: 0.136
# Max RMSD: 0.187
# Mean RMSD: 0.187
data_MOF--net-unj--node1-QUQFOY_clean_sbu_1--edge1-FUNLAD_clean_linker_1
_symmetry_space_group_name_H-M    P1
_symmetry_Int_Tables_number       1
_symmetry_cell_setting            triclinic
loop_
_symmetry_equiv_pos_as_xyz
'x, y, z'
_cell_length_a     34.980567
_cell_length_b     35.446047
_cell_length_c     39.162831
_cell_angle_alpha  90.082718
_cell_angle_beta   90.193402
_cell_angle_gamma 119.97327
loop_
_atom_site_label
_atom_site_type_symbol
_atom_site_fract_x
_atom_site_fract_y
_atom_site_fract_z
_atom_type_partial_charge
O0 O 0.51438 0.22542 0.65491 0.0
Cd1 Cd 0.46863 0.22309 0.61984 0.0
Cd2 Cd 0.53847 0.30078 0.59954 0.0
O3 O 0.57211 0.28298 0.63313 0.0
O4 O 0.41944 0.1615 0.61937 0.0
O5 O 0.46147 0.19343 0.57438 0.0
C6 C 0.42936 0.15911 0.5881 0.0
C7 C 0.572 0.32855 0.54698 0.0
C8 C 0.55566 0.25225 0.65467 0.0
C9 C 0.46023 0.30255 0.62953 0.0
O10 O 0.50022 0.32461 0.62014 0.0
O11 O 0.44028 0.26115 0.62939 0.0
O12 O 0.58713 0.35053 0.5748 0.0
O13 O 0.53727 0.29038 0.54867 0.0
O14 O 0.29087 0.51013 0.80502 0.0
Cd15 Cd 0.24774 0.46247 0.77154 0.0
Cd16 Cd 0.23199 0.52657 0.75168 0.0
O17 O 0.27247 0.55979 0.79269 0.0
O18 O 0.26852 0.41926 0.76786 0.0
O19 O 0.26585 0.45721 0.72395 0.0
C20 C 0.27536 0.42897 0.73588 0.0
C21 C 0.24835 0.55773 0.69741 0.0
C22 C 0.29432 0.54708 0.8105 0.0
C23 C 0.15434 0.44411 0.77727 0.0
O24 O 0.16769 0.48076 0.76303 0.0
O25 O 0.18108 0.4305 0.78379 0.0
O26 O 0.2303 0.57012 0.72018 0.0
O27 O 0.2574 0.52778 0.70551 0.0
O28 O 0.7104 0.15991 0.95247 0.0
Cd29 Cd 0.72 0.21855 0.93394 0.0
Cd30 Cd 0.80637 0.2454 0.95346 0.0
O31 O 0.77919 0.18087 0.96727 0.0
O32 O 0.66345 0.2025 0.9101 0.0
O33 O 0.72767 0.23195 0.88348 0.0
C34 C 0.68551 0.21648 0.88225 0.0
C35 C 0.8717 0.27666 0.92207 0.0
C36 C 0.73887 0.1515 0.96504 0.0
C37 C 0.76093 0.28825 0.98815 0.0
O38 O 0.79559 0.28527 0.98584 0.0
O39 O 0.72761 0.26528 0.96925 0.0
O40 O 0.87144 0.26923 0.95426 0.0
O41 O 0.83463 0.26638 0.90731 0.0
O42 O 0.5069 0.77505 0.14527 0.0
Cd43 Cd 0.55546 0.78352 0.11118 0.0
Cd44 Cd 0.49532 0.70142 0.09138 0.0
O45 O 0.45613 0.71036 0.12639 0.0
O46 O 0.59659 0.84754 0.10642 0.0
O47 O 0.55501 0.80531 0.06407 0.0
C48 C 0.58368 0.84353 0.07503 0.0
C49 C 0.47089 0.68224 0.03515 0.0
C50 C 0.46802 0.74248 0.14656 0.0
C51 C 0.58031 0.71436 0.12112 0.0
O52 O 0.54204 0.68691 0.11002 0.0
O53 O 0.59264 0.75467 0.12265 0.0
O54 O 0.45437 0.6541 0.05945 0.0
O55 O 0.50131 0.72133 0.04271 0.0
O56 O 0.73141 0.50528 0.30909 0.0
Cd57 Cd 0.77661 0.54509 0.27268 0.0
Cd58 Cd 0.79195 0.47734 0.27022 0.0
O59 O 0.74254 0.44928 0.30598 0.0
O60 O 0.75823 0.58866 0.26141 0.0
O61 O 0.7551 0.54012 0.22422 0.0
C62 C 0.74768 0.57144 0.23137 0.0
C63 C 0.78687 0.4414 0.21918 0.0
C64 C 0.72251 0.46754 0.31873 0.0
C65 C 0.86808 0.56357 0.29142 0.0
O66 O 0.85339 0.523 0.28789 0.0
O67 O 0.84352 0.57984 0.28533 0.0
O68 O 0.79781 0.43026 0.24729 0.0
O69 O 0.77831 0.47289 0.22002 0.0
O70 O 0.33589 0.8569 0.43942 0.0
Cd71 Cd 0.31444 0.79324 0.42503 0.0
Cd72 Cd 0.23437 0.78557 0.43741 0.0
O73 O 0.27109 0.85111 0.44984 0.0
O74 O 0.36593 0.79448 0.40216 0.0
O75 O 0.30311 0.77581 0.37533 0.0
C76 C 0.34289 0.78235 0.37446 0.0
C77 C 0.17712 0.76068 0.39753 0.0
C78 C 0.31301 0.87376 0.44892 0.0
C79 C 0.26014 0.73116 0.48031 0.0
O80 O 0.23117 0.74169 0.47355 0.0
O81 O 0.29601 0.74754 0.46362 0.0
O82 O 0.17181 0.76962 0.4285 0.0
O83 O 0.21542 0.76692 0.38882 0.0
H84 H 0.37853 0.09006 0.58313 0.0
C85 C 0.40497 0.11734 0.56959 0.0
H86 H 0.44088 0.13799 0.52352 0.0
H87 H 0.35133 0.92117 0.52816 0.0
H88 H 0.40151 0.93471 0.57536 0.0
H89 H 0.44928 0.0092 0.59739 0.0
H90 H 0.44634 0.0704 0.57282 0.0
C91 C 0.41529 0.11104 0.53788 0.0
C92 C 0.39124 0.06713 0.52147 0.0
C93 C 0.39509 0.032 0.53495 0.0
C94 C 0.36936 0.98941 0.52099 0.0
C95 C 0.3716 0.95451 0.53659 0.0
C96 C 0.40006 0.96176 0.56393 0.0
C97 C 0.4268 1.00365 0.57642 0.0
C98 C 0.42451 0.03847 0.56222 0.0
H99 H 0.37222 0.93735 0.45902 0.0
C100 C 0.33643 0.91941 0.46093 0.0
H101 H 0.28024 0.92115 0.47852 0.0
H102 H 0.37704 0.12729 0.48893 0.0
H103 H 0.32914 0.11431 0.44003 0.0
H104 H 0.28686 0.04108 0.41431 0.0
H105 H 0.29197 0.98024 0.43745 0.0
C106 C 0.31599 0.93814 0.47664 0.0
C107 C 0.34171 0.98241 0.49223 0.0
C108 C 0.33862 0.01769 0.47829 0.0
C109 C 0.36338 0.06006 0.49292 0.0
C110 C 0.35923 0.09454 0.47868 0.0
C111 C 0.33185 0.08754 0.45062 0.0
C112 C 0.30802 0.0463 0.43615 0.0
C113 C 0.31123 0.01166 0.4497 0.0
H114 H 0.45901 0.35899 0.6519 0.0
C115 C 0.43822 0.32564 0.64315 0.0
H116 H 0.37345 0.27317 0.63736 0.0
H117 H 0.28234 0.31893 0.75481 0.0
H118 H 0.26826 0.24706 0.7703 0.0
H119 H 0.30276 0.2118 0.73854 0.0
H120 H 0.35081 0.2478 0.69077 0.0
C121 C 0.3941 0.30652 0.64611 0.0
C122 C 0.37272 0.32802 0.66467 0.0
C123 C 0.3455 0.30688 0.69323 0.0
C124 C 0.32687 0.3279 0.71237 0.0
C125 C 0.29847 0.30521 0.73995 0.0
C126 C 0.2899 0.26376 0.74908 0.0
C127 C 0.30922 0.24387 0.73115 0.0
C128 C 0.33671 0.26498 0.7036 0.0
H129 H 0.28731 0.40738 0.68611 0.0
C130 C 0.29363 0.40851 0.71338 0.0
H131 H 0.32534 0.39462 0.75306 0.0
H132 H 0.41402 0.37357 0.60686 0.0
H133 H 0.43278 0.44764 0.5936 0.0
H134 H 0.41132 0.48886 0.63224 0.0
H135 H 0.36942 0.45567 0.68343 0.0
C136 C 0.31907 0.39309 0.72574 0.0
C137 C 0.33682 0.37078 0.70387 0.0
C138 C 0.3645 0.39215 0.67551 0.0
C139 C 0.38044 0.36983 0.65489 0.0
C140 C 0.40385 0.39013 0.62471 0.0
C141 C 0.41446 0.43249 0.6166 0.0
C142 C 0.40212 0.45558 0.63823 0.0
C143 C 0.37755 0.43588 0.66739 0.0
H144 H 0.94367 0.30572 0.9182 0.0
C145 C 0.91394 0.29702 0.90351 0.0
H146 H 0.88807 0.29619 0.85447 0.0
H147 H 0.10343 0.44639 0.85124 0.0
H148 H 0.08384 0.4874 0.88981 0.0
H149 H 1.00758 0.45659 0.9107 0.0
H150 H 0.95074 0.38415 0.89369 0.0
C151 C 0.91739 0.30583 0.86994 0.0
C152 C 0.96142 0.32714 0.85301 0.0
C153 C 0.99373 0.37047 0.86174 0.0
C154 C 0.03711 0.38914 0.84821 0.0
C155 C 0.06945 0.43129 0.85937 0.0
C156 C 0.05874 0.45513 0.88176 0.0
C157 C 0.01587 0.43772 0.89363 0.0
C158 C 0.98363 0.39594 0.88385 0.0
H159 H 0.08635 0.43209 0.78139 0.0
C160 C 0.1079 0.41943 0.78842 0.0
H161 H 0.11339 0.37162 0.81678 0.0
H162 H 0.90698 0.24414 0.82991 0.0
H163 H 0.92565 0.20418 0.78927 0.0
H164 H 1.0 0.23761 0.76403 0.0
H165 H 0.05628 0.31116 0.77941 0.0
C166 C 0.09267 0.38513 0.80956 0.0
C167 C 0.04749 0.36535 0.82439 0.0
C168 C 0.01485 0.32253 0.81493 0.0
C169 C 0.97179 0.3034 0.82925 0.0
C170 C 0.94007 0.26035 0.81966 0.0
C171 C 0.95035 0.23704 0.79636 0.0
C172 C 0.99223 0.25585 0.78216 0.0
C173 C 0.02423 0.29807 0.79123 0.0
H174 H 0.5866 0.87668 0.02659 0.0
C175 C 0.60017 0.88158 0.05229 0.0
H176 H 0.64281 0.92728 0.08877 0.0
H177 H 0.71247 0.03696 0.94264 0.0
H178 H 0.73493 0.98463 0.92706 0.0
H179 H 0.717 0.92162 0.96396 0.0
H180 H 0.67588 0.91015 0.01634 0.0
C181 C 0.63016 0.92184 0.06277 0.0
C182 C 0.64305 0.9607 0.04094 0.0
C183 C 0.66835 0.9676 0.01095 0.0
C184 C 0.68027 0.00491 0.99037 0.0
C185 C 0.70386 0.01002 0.9598 0.0
C186 C 0.71675 0.9801 0.95046 0.0
C187 C 0.70652 0.94454 0.97117 0.0
C188 C 0.68267 0.93822 1.0011 0.0
H189 H 0.74992 0.10285 0.99158 0.0
C190 C 0.72496 0.1081 0.97946 0.0
H191 H 0.65695 0.08183 0.96948 0.0
H192 H 0.59366 0.95678 0.09641 0.0
H193 H 0.57318 0.01024 0.11284 0.0
H194 H 0.59628 0.07631 0.07839 0.0
H195 H 0.63972 0.08917 0.02719 0.0
C196 C 0.68243 0.0764 0.98031 0.0
C197 C 0.66827 0.03602 1.00051 0.0
C198 C 0.64304 0.02912 0.03051 0.0
C199 C 0.63035 0.9914 0.05069 0.0
C200 C 0.60476 0.98515 0.08035 0.0
C201 C 0.59266 0.01554 0.09007 0.0
C202 C 0.60561 0.0527 0.07065 0.0
C203 C 0.63051 0.05961 0.04124 0.0
H204 H 0.71511 0.56841 0.18207 0.0
C205 C 0.72509 0.58511 0.20655 0.0
H206 H 0.72198 0.6305 0.23966 0.0
H207 H 0.66539 0.6843 0.09349 0.0
H208 H 0.73958 0.70655 0.07429 0.0
H209 H 0.7895 0.69203 0.10937 0.0
H210 H 0.76538 0.65463 0.16361 0.0
C211 C 0.71373 0.61509 0.21463 0.0
C212 C 0.68393 0.62337 0.19258 0.0
C213 C 0.69895 0.64609 0.16128 0.0
C214 C 0.67069 0.65587 0.14161 0.0
C215 C 0.68598 0.67732 0.10994 0.0
C216 C 0.72839 0.69004 0.09852 0.0
C217 C 0.75645 0.68176 0.11823 0.0
C218 C 0.74212 0.6601 0.14928 0.0
H219 H 0.64185 0.72438 0.14503 0.0
C220 C 0.61046 0.69983 0.13423 0.0
H221 H 0.56772 0.63262 0.12571 0.0
H222 H 0.64383 0.57694 0.25027 0.0
H223 H 0.57013 0.55571 0.26981 0.0
H224 H 0.52212 0.57482 0.23672 0.0
H225 H 0.54739 0.61502 0.1838 0.0
C226 C 0.59963 0.65774 0.13523 0.0
C227 C 0.62799 0.64409 0.15379 0.0
C228 C 0.61264 0.62047 0.18468 0.0
C229 C 0.64059 0.61006 0.20404 0.0
C230 C 0.62429 0.58631 0.23476 0.0
C231 C 0.58198 0.57379 0.24626 0.0
C232 C 0.55493 0.58449 0.22761 0.0
C233 C 0.56988 0.60756 0.1972 0.0
H234 H 0.14754 0.74649 0.34574 0.0
C235 C 0.14012 0.74285 0.37286 0.0
H236 H 0.09108 0.71684 0.41065 0.0
H237 H 0.92173 0.6874 0.33784 0.0
H238 H 0.93361 0.74238 0.37981 0.0
H239 H 1.00351 0.78066 0.41212 0.0
H240 H 0.06165 0.76359 0.40304 0.0
C241 C 0.09796 0.72033 0.38343 0.0
C242 C 0.05914 0.70161 0.35969 0.0
C243 C 0.02607 0.71326 0.36418 0.0
C244 C 0.98627 0.69217 0.34471 0.0
C245 C 0.953 0.70292 0.35122 0.0
C246 C 0.95933 0.73445 0.37535 0.0
C247 C 0.99863 0.75594 0.39358 0.0
C248 C 0.03168 0.74562 0.3882 0.0
H249 H 0.92823 0.57399 0.3176 0.0
C250 C 0.91327 0.59074 0.30494 0.0
H251 H 0.9213 0.65137 0.29012 0.0
H252 H 0.11241 0.66649 0.34662 0.0
H253 H 0.10426 0.61801 0.30017 0.0
H254 H 0.04131 0.59135 0.2602 0.0
H255 H 0.98512 0.61171 0.26758 0.0
C256 C 0.93612 0.63443 0.30265 0.0
C257 C 0.98013 0.66047 0.31981 0.0
C258 C 0.0149 0.65178 0.31316 0.0
C259 C 0.05331 0.67045 0.33428 0.0
C260 C 0.0844 0.65633 0.32982 0.0
C261 C 0.07985 0.62796 0.30342 0.0
C262 C 0.04427 0.61273 0.28106 0.0
C263 C 1.01205 0.62433 0.28579 0.0
H264 H 0.62926 0.37341 0.51651 0.0
C265 C 0.5952 0.34713 0.5147 0.0
H266 H 0.54179 0.30871 0.48178 0.0
H267 H 0.70755 0.48533 0.40381 0.0
H268 H 0.69404 0.52846 0.44469 0.0
H269 H 0.63481 0.4933 0.48736 0.0
H270 H 0.59035 0.41458 0.49029 0.0
C271 C 0.57583 0.33488 0.48384 0.0
C272 C 0.60113 0.35576 0.45201 0.0
C273 C 0.62348 0.40176 0.44827 0.0
C274 C 0.65439 0.42203 0.42142 0.0
C275 C 0.68086 0.46806 0.42159 0.0
C276 C 0.67388 0.49331 0.44528 0.0
C277 C 0.64078 0.47354 0.46945 0.0
C278 C 0.61583 0.42832 0.47107 0.0
H279 H 0.66493 0.45575 0.34958 0.0
C280 C 0.68923 0.44561 0.34563 0.0
H281 H 0.71506 0.40663 0.36302 0.0
H282 H 0.56096 0.26668 0.44977 0.0
H283 H 0.56774 0.22319 0.40503 0.0
H284 H 0.61486 0.25799 0.35496 0.0
H285 H 0.65613 0.33654 0.34962 0.0
C286 C 0.69059 0.41656 0.36693 0.0
C287 C 0.6588 0.3961 0.3957 0.0
C288 C 0.63358 0.34998 0.3979 0.0
C289 C 0.60533 0.32983 0.42632 0.0
C290 C 0.58224 0.28378 0.42852 0.0
C291 C 0.58584 0.25834 0.403 0.0
C292 C 0.61243 0.27793 0.37484 0.0
C293 C 0.63609 0.32314 0.37218 0.0
H294 H 0.2212 0.68864 0.52272 0.0
C295 C 0.25245 0.70168 0.50935 0.0
H296 H 0.31564 0.70769 0.50935 0.0
H297 H 0.31419 0.6814 0.66937 0.0
H298 H 0.37109 0.7571 0.66335 0.0
H299 H 0.38544 0.79379 0.60753 0.0
H300 H 0.34321 0.75502 0.55738 0.0
C301 C 0.28347 0.69331 0.52142 0.0
C302 C 0.2769 0.66981 0.55436 0.0
C303 C 0.30209 0.69293 0.58341 0.0
C304 C 0.29344 0.67195 0.6157 0.0
C305 C 0.31903 0.69588 0.64431 0.0
C306 C 0.35187 0.73933 0.64121 0.0
C307 C 0.35999 0.75997 0.60978 0.0
C308 C 0.33548 0.73726 0.58116 0.0
H309 H 0.27367 0.56545 0.6447 0.0
C310 C 0.25825 0.57688 0.66287 0.0
H311 H 0.23434 0.62019 0.6717 0.0
H312 H 0.22715 0.61442 0.50299 0.0
H313 H 0.16974 0.53887 0.50904 0.0
H314 H 0.15199 0.50355 0.56552 0.0
H315 H 0.19189 0.54328 0.61618 0.0
C316 C 0.24852 0.60757 0.65342 0.0
C317 C 0.25965 0.62789 0.61895 0.0
C318 C 0.23526 0.60436 0.58971 0.0
C319 C 0.2444 0.62518 0.55729 0.0
C320 C 0.22057 0.60059 0.52835 0.0
C321 C 0.18771 0.55714 0.53144 0.0
C322 C 0.17781 0.53722 0.56322 0.0
C323 C 0.20113 0.56039 0.59211 0.0
H324 H 0.62643 0.19987 0.85152 0.0
C325 C 0.66212 0.21459 0.85036 0.0
H326 H 0.7184 0.24721 0.81888 0.0
H327 H 0.55878 0.1486 0.70397 0.0
H328 H 0.56571 0.08545 0.71741 0.0
H329 H 0.61453 0.08812 0.76411 0.0
H330 H 0.65687 0.15406 0.79763 0.0
C331 C 0.68268 0.23105 0.82065 0.0
C332 C 0.65673 0.23062 0.79029 0.0
C333 C 0.63235 0.19198 0.77087 0.0
C334 C 0.60419 0.19048 0.74394 0.0
C335 C 0.58041 0.15147 0.72486 0.0
C336 C 0.58415 0.115 0.73226 0.0
C337 C 0.61163 0.1165 0.75856 0.0
C338 C 0.6356 0.15447 0.77768 0.0
H339 H 0.62048 0.27188 0.67786 0.0
C340 C 0.58516 0.25006 0.68062 0.0
H341 H 0.53486 0.20309 0.71191 0.0
H342 H 0.70125 0.31043 0.82117 0.0
H343 H 0.69322 0.37324 0.80898 0.0
H344 H 0.64138 0.36968 0.76453 0.0
H345 H 0.59779 0.30373 0.73176 0.0
C346 C 0.57 0.22541 0.70879 0.0
C347 C 0.60049 0.22766 0.73646 0.0
C348 C 0.62502 0.26643 0.75596 0.0
C349 C 0.65385 0.2681 0.78239 0.0
C350 C 0.67848 0.30729 0.80111 0.0
C351 C 0.67419 0.34357 0.79439 0.0
C352 C 0.6451 0.3416 0.7693 0.0
C353 C 0.62055 0.30355 0.7504 0.0
H354 H 0.31056 0.5956 0.85138 0.0
C355 C 0.32002 0.57342 0.84014 0.0
H356 H 0.36129 0.54625 0.84324 0.0
H357 H 0.42397 0.70748 0.96104 0.0
H358 H 0.43319 0.75571 0.91416 0.0
H359 H 0.41785 0.72843 0.85485 0.0
H360 H 0.39131 0.65225 0.84237 0.0
C361 C 0.35206 0.56842 0.8548 0.0
C362 C 0.371 0.58743 0.88908 0.0
C363 C 0.39036 0.6328 0.89554 0.0
C364 C 0.40318 0.64934 0.92937 0.0
C365 C 0.41707 0.69374 0.93561 0.0
C366 C 0.42201 0.72176 0.90893 0.0
C367 C 0.41309 0.70634 0.87558 0.0
C368 C 0.39743 0.66243 0.86881 0.0
H369 H 0.47976 0.68762 0.97923 0.0
C370 C 0.45645 0.6699 0.99945 0.0
H371 H 0.39253 0.62058 0.01227 0.0
H372 H 0.33506 0.49847 0.88626 0.0
H373 H 0.33329 0.4518 0.9318 0.0
H374 H 0.36419 0.48197 0.98857 0.0
H375 H 0.39616 0.5589 1.00027 0.0
C376 C 0.4155 0.63775 0.9917 0.0
C377 C 0.4012 0.62129 0.95608 0.0
C378 C 0.38436 0.57637 0.94912 0.0
C379 C 0.36829 0.55927 0.91591 0.0
C380 C 0.34922 0.51377 0.9105 0.0
C381 C 0.34775 0.48639 0.93654 0.0
C382 C 0.36501 0.50333 0.96851 0.0
C383 C 0.38311 0.54768 0.97488 0.0
H384 H 0.72787 0.31877 0.01516 0.0
C385 C 0.75764 0.31634 0.01451 0.0
H386 H 0.81842 0.33405 0.03874 0.0
H387 H 0.83625 0.49249 0.12402 0.0
H388 H 0.89134 0.53042 0.08037 0.0
H389 H 0.89674 0.49092 0.03039 0.0
H390 H 0.84723 0.41314 0.02385 0.0
C391 C 0.7882 0.33563 0.03922 0.0
C392 C 0.78217 0.35976 0.06798 0.0
C393 C 0.81088 0.40531 0.0712 0.0
C394 C 0.80738 0.4282 0.09981 0.0
C395 C 0.83714 0.47354 0.10268 0.0
C396 C 0.86896 0.49573 0.07781 0.0
C397 C 0.87203 0.47348 0.04968 0.0
C398 C 0.84345 0.42882 0.04628 0.0
H399 H 0.79242 0.39222 0.18866 0.0
C400 C 0.78482 0.41841 0.18723 0.0
H401 H 0.76838 0.45572 0.15465 0.0
H402 H 0.72355 0.27178 0.07133 0.0
H403 H 0.66575 0.23487 0.11306 0.0
H404 H 0.65572 0.27576 0.15984 0.0
H405 H 0.70424 0.35377 0.16552 0.0
C406 C 0.7746 0.42869 0.15683 0.0
C407 C 0.77507 0.4055 0.12515 0.0
C408 C 0.7449 0.36031 0.12105 0.0
C409 C 0.7492 0.33717 0.09299 0.0
C410 C 0.72066 0.29148 0.09111 0.0
C411 C 0.68745 0.26974 0.11508 0.0
C412 C 0.68191 0.29272 0.1415 0.0
C413 C 0.71021 0.33745 0.14459 0.0
H414 H 0.39596 0.78211 0.34471 0.0
C415 C 0.36262 0.77689 0.34295 0.0
H416 H 0.30936 0.7633 0.30987 0.0
H417 H 0.43602 0.83292 0.1808 0.0
H418 H 0.413 0.88689 0.18599 0.0
H419 H 0.36801 0.88571 0.23479 0.0
H420 H 0.34554 0.83043 0.27862 0.0
C421 C 0.34198 0.76697 0.3125 0.0
C422 C 0.3652 0.76481 0.28129 0.0
C423 C 0.3778 0.79716 0.25577 0.0
C424 C 0.40422 0.79816 0.22783 0.0
C425 C 0.41641 0.83094 0.20276 0.0
C426 C 0.40334 0.86206 0.20538 0.0
C427 C 0.37798 0.86137 0.23284 0.0
C428 C 0.3653 0.82943 0.25783 0.0
H429 H 0.40347 0.71256 0.17261 0.0
C430 C 0.43669 0.74051 0.17272 0.0
H431 H 0.48162 0.79908 0.19772 0.0
H432 H 0.34026 0.69401 0.32238 0.0
H433 H 0.36438 0.64081 0.31804 0.0
H434 H 0.41485 0.64571 0.27221 0.0
H435 H 0.44073 0.70312 0.23012 0.0
C436 C 0.4488 0.77054 0.19765 0.0
C437 C 0.41807 0.76687 0.22543 0.0
C438 C 0.40452 0.73379 0.25055 0.0
C439 C 0.37717 0.73218 0.27801 0.0
C440 C 0.36245 0.69773 0.30183 0.0
C441 C 0.37582 0.66682 0.29952 0.0
C442 C 0.40409 0.66948 0.27364 0.0
C443 C 0.41847 0.70253 0.24945 0.0
loop_
_geom_bond_atom_site_label_1
_geom_bond_atom_site_label_2
_geom_bond_distance
_geom_bond_site_symmetry_2
_ccdc_geom_bond_type
O0 Cd1 2.223 . S
O0 C8 1.315 . S
Cd1 O0 2.223 . S
Cd1 O4 2.297 . S
Cd1 O5 2.439 . S
Cd1 O11 2.240 . S
Cd2 O3 2.240 . S
Cd2 O10 2.223 . S
Cd2 O12 2.297 . S
Cd2 O13 2.439 . S
O3 Cd2 2.240 . S
O3 C8 1.279 . S
O4 Cd1 2.297 . S
O4 C6 1.247 . S
O5 Cd1 2.439 . S
O5 C6 1.208 . S
C6 O4 1.247 . S
C6 O5 1.208 . S
C7 O12 1.247 . S
C7 O13 1.208 . S
C8 O0 1.315 . S
C8 O3 1.279 . S
C9 O10 1.315 . S
C9 O11 1.279 . S
O10 Cd2 2.223 . S
O10 C9 1.315 . S
O11 Cd1 2.240 . S
O11 C9 1.279 . S
O12 Cd2 2.297 . S
O12 C7 1.247 . S
O13 Cd2 2.439 . S
O13 C7 1.208 . S
O14 Cd15 2.223 . S
O14 C22 1.315 . S
Cd15 O14 2.223 . S
Cd15 O18 2.297 . S
Cd15 O19 2.439 . S
Cd15 O25 2.240 . S
Cd16 O17 2.240 . S
Cd16 O24 2.223 . S
Cd16 O26 2.297 . S
Cd16 O27 2.439 . S
O17 Cd16 2.240 . S
O17 C22 1.279 . S
O18 Cd15 2.297 . S
O18 C20 1.247 . S
O19 Cd15 2.439 . S
O19 C20 1.208 . S
C20 O18 1.247 . S
C20 O19 1.208 . S
C21 O26 1.247 . S
C21 O27 1.208 . S
C22 O14 1.315 . S
C22 O17 1.279 . S
C23 O24 1.315 . S
C23 O25 1.279 . S
O24 Cd16 2.223 . S
O24 C23 1.315 . S
O25 Cd15 2.240 . S
O25 C23 1.279 . S
O26 Cd16 2.297 . S
O26 C21 1.247 . S
O27 Cd16 2.439 . S
O27 C21 1.208 . S
O28 Cd29 2.223 . S
O28 C36 1.315 . S
Cd29 O28 2.223 . S
Cd29 O32 2.297 . S
Cd29 O33 2.439 . S
Cd29 O39 2.240 . S
Cd30 O31 2.240 . S
Cd30 O38 2.223 . S
Cd30 O40 2.297 . S
Cd30 O41 2.439 . S
O31 Cd30 2.240 . S
O31 C36 1.279 . S
O32 Cd29 2.297 . S
O32 C34 1.247 . S
O33 Cd29 2.439 . S
O33 C34 1.208 . S
C34 O32 1.247 . S
C34 O33 1.208 . S
C35 O40 1.247 . S
C35 O41 1.208 . S
C36 O28 1.315 . S
C36 O31 1.279 . S
C37 O38 1.315 . S
C37 O39 1.279 . S
O38 Cd30 2.223 . S
O38 C37 1.315 . S
O39 Cd29 2.240 . S
O39 C37 1.279 . S
O40 Cd30 2.297 . S
O40 C35 1.247 . S
O41 Cd30 2.439 . S
O41 C35 1.208 . S
O42 Cd43 2.223 . S
O42 C50 1.315 . S
Cd43 O42 2.223 . S
Cd43 O46 2.297 . S
Cd43 O47 2.439 . S
Cd43 O53 2.240 . S
Cd44 O45 2.240 . S
Cd44 O52 2.223 . S
Cd44 O54 2.297 . S
Cd44 O55 2.439 . S
O45 Cd44 2.240 . S
O45 C50 1.279 . S
O46 Cd43 2.297 . S
O46 C48 1.247 . S
O47 Cd43 2.439 . S
O47 C48 1.208 . S
C48 O46 1.247 . S
C48 O47 1.208 . S
C49 O54 1.247 . S
C49 O55 1.208 . S
C50 O42 1.315 . S
C50 O45 1.279 . S
C51 O52 1.315 . S
C51 O53 1.279 . S
O52 Cd44 2.223 . S
O52 C51 1.315 . S
O53 Cd43 2.240 . S
O53 C51 1.279 . S
O54 Cd44 2.297 . S
O54 C49 1.247 . S
O55 Cd44 2.439 . S
O55 C49 1.208 . S
O56 Cd57 2.223 . S
O56 C64 1.315 . S
Cd57 O56 2.223 . S
Cd57 O60 2.297 . S
Cd57 O61 2.439 . S
Cd57 O67 2.240 . S
Cd58 O59 2.240 . S
Cd58 O66 2.223 . S
Cd58 O68 2.297 . S
Cd58 O69 2.439 . S
O59 Cd58 2.240 . S
O59 C64 1.279 . S
O60 Cd57 2.297 . S
O60 C62 1.247 . S
O61 Cd57 2.439 . S
O61 C62 1.208 . S
C62 O60 1.247 . S
C62 O61 1.208 . S
C63 O68 1.247 . S
C63 O69 1.208 . S
C64 O56 1.315 . S
C64 O59 1.279 . S
C65 O66 1.315 . S
C65 O67 1.279 . S
O66 Cd58 2.223 . S
O66 C65 1.315 . S
O67 Cd57 2.240 . S
O67 C65 1.279 . S
O68 Cd58 2.297 . S
O68 C63 1.247 . S
O69 Cd58 2.439 . S
O69 C63 1.208 . S
O70 Cd71 2.223 . S
O70 C78 1.315 . S
Cd71 O70 2.223 . S
Cd71 O74 2.297 . S
Cd71 O75 2.439 . S
Cd71 O81 2.240 . S
Cd72 O73 2.240 . S
Cd72 O80 2.223 . S
Cd72 O82 2.297 . S
Cd72 O83 2.439 . S
O73 Cd72 2.240 . S
O73 C78 1.279 . S
O74 Cd71 2.297 . S
O74 C76 1.247 . S
O75 Cd71 2.439 . S
O75 C76 1.208 . S
C76 O74 1.247 . S
C76 O75 1.208 . S
C77 O82 1.247 . S
C77 O83 1.208 . S
C78 O70 1.315 . S
C78 O73 1.279 . S
C79 O80 1.315 . S
C79 O81 1.279 . S
O80 Cd72 2.223 . S
O80 C79 1.315 . S
O81 Cd71 2.240 . S
O81 C79 1.279 . S
O82 Cd72 2.297 . S
O82 C77 1.247 . S
O83 Cd72 2.439 . S
O83 C77 1.208 . S
H84 C85 0.951 . S
C85 H84 0.951 . S
C85 C91 1.265 . S
H86 C91 0.950 . S
H87 C95 0.949 . S
H88 C96 0.950 . S
H89 C97 0.951 . S
H90 C98 0.951 . S
C91 C85 1.265 . S
C91 H86 0.950 . S
C91 C92 1.478 . S
C92 C91 1.478 . S
C92 C93 1.397 1_545 S
C92 C109 1.397 1_545 S
C93 C92 1.397 1_565 S
C93 C94 1.438 . S
C93 C98 1.429 . S
C94 C93 1.438 . S
C94 C95 1.428 . S
C94 C107 1.394 . S
C95 H87 0.949 . S
C95 C94 1.428 . S
C95 C96 1.345 . S
C96 H88 0.950 . S
C96 C95 1.345 . S
C96 C97 1.424 . S
C97 H89 0.951 . S
C97 C96 1.424 . S
C97 C98 1.347 . S
C98 H90 0.951 . S
C98 C93 1.429 . S
C98 C97 1.347 . S
H99 C100 0.951 . S
C100 H99 0.951 . S
C100 C106 1.265 . S
H101 C106 0.950 . S
H102 C110 0.949 . S
H103 C111 0.950 . S
H104 C112 0.951 . S
H105 C113 0.951 . S
C106 C100 1.265 . S
C106 H101 0.950 . S
C106 C107 1.478 . S
C107 C94 1.394 . S
C107 C106 1.478 . S
C107 C108 1.397 . S
C108 C107 1.397 . S
C108 C109 1.445 . S
C108 C113 1.429 . S
C109 C92 1.397 1_565 S
C109 C108 1.445 . S
C109 C110 1.418 1_565 S
C110 H102 0.949 . S
C110 C109 1.418 1_545 S
C110 C111 1.345 . S
C111 H103 0.950 . S
C111 C110 1.345 . S
C111 C112 1.424 1_545 S
C112 H104 0.951 . S
C112 C111 1.424 1_565 S
C112 C113 1.347 . S
C113 H105 0.951 . S
C113 C108 1.429 . S
C113 C112 1.347 . S
H114 C115 0.951 . S
C115 H114 0.951 . S
C115 C121 1.265 . S
H116 C121 0.950 . S
H117 C125 0.949 . S
H118 C126 0.950 . S
H119 C127 0.951 . S
H120 C128 0.951 . S
C121 C115 1.265 . S
C121 H116 0.950 . S
C121 C122 1.478 . S
C122 C121 1.478 . S
C122 C123 1.397 . S
C122 C139 1.394 . S
C123 C122 1.397 . S
C123 C124 1.438 . S
C123 C128 1.429 . S
C124 C123 1.438 . S
C124 C125 1.428 . S
C124 C137 1.394 . S
C125 H117 0.949 . S
C125 C124 1.428 . S
C125 C126 1.345 . S
C126 H118 0.950 . S
C126 C125 1.345 . S
C126 C127 1.424 . S
C127 H119 0.951 . S
C127 C126 1.424 . S
C127 C128 1.347 . S
C128 H120 0.951 . S
C128 C123 1.429 . S
C128 C127 1.347 . S
H129 C130 0.951 . S
C130 H129 0.951 . S
C130 C136 1.265 . S
H131 C136 0.950 . S
H132 C140 0.949 . S
H133 C141 0.950 . S
H134 C142 0.951 . S
H135 C143 0.951 . S
C136 C130 1.265 . S
C136 H131 0.950 . S
C136 C137 1.478 . S
C137 C124 1.394 . S
C137 C136 1.478 . S
C137 C138 1.397 . S
C138 C137 1.397 . S
C138 C139 1.438 . S
C138 C143 1.429 . S
C139 C122 1.394 . S
C139 C138 1.438 . S
C139 C140 1.428 . S
C140 H132 0.949 . S
C140 C139 1.428 . S
C140 C141 1.345 . S
C141 H133 0.950 . S
C141 C140 1.345 . S
C141 C142 1.424 . S
C142 H134 0.951 . S
C142 C141 1.424 . S
C142 C143 1.347 . S
C143 H135 0.951 . S
C143 C138 1.429 . S
C143 C142 1.347 . S
H144 C145 0.951 . S
C145 H144 0.951 . S
C145 C151 1.265 . S
H146 C151 0.950 . S
H147 C155 0.949 . S
H148 C156 0.950 . S
H149 C157 0.951 . S
H150 C158 0.951 1_655 S
C151 C145 1.265 . S
C151 H146 0.950 . S
C151 C152 1.478 . S
C152 C151 1.478 . S
C152 C153 1.397 1_655 S
C152 C169 1.394 1_655 S
C153 C152 1.397 1_455 S
C153 C154 1.438 . S
C153 C158 1.429 . S
C154 C153 1.438 . S
C154 C155 1.428 . S
C154 C167 1.394 . S
C155 H147 0.949 . S
C155 C154 1.428 . S
C155 C156 1.345 . S
C156 H148 0.950 . S
C156 C155 1.345 . S
C156 C157 1.424 . S
C157 H149 0.951 . S
C157 C156 1.424 . S
C157 C158 1.347 . S
C158 H150 0.951 1_455 S
C158 C153 1.429 . S
C158 C157 1.347 . S
H159 C160 0.951 . S
C160 H159 0.951 . S
C160 C166 1.265 . S
H161 C166 0.950 . S
H162 C170 0.949 . S
H163 C171 0.950 . S
H164 C172 0.951 . S
H165 C173 0.951 . S
C166 C160 1.265 . S
C166 H161 0.950 . S
C166 C167 1.478 . S
C167 C154 1.394 . S
C167 C166 1.478 . S
C167 C168 1.397 . S
C168 C167 1.397 . S
C168 C169 1.438 . S
C168 C173 1.429 . S
C169 C152 1.394 1_455 S
C169 C168 1.438 . S
C169 C170 1.428 1_455 S
C170 H162 0.949 . S
C170 C169 1.428 1_655 S
C170 C171 1.345 . S
C171 H163 0.950 . S
C171 C170 1.345 . S
C171 C172 1.424 1_655 S
C172 H164 0.951 . S
C172 C171 1.424 1_455 S
C172 C173 1.347 . S
C173 H165 0.951 . S
C173 C168 1.429 . S
C173 C172 1.347 . S
H174 C175 0.951 . S
C175 H174 0.951 . S
C175 C181 1.265 . S
H176 C181 0.950 . S
H177 C185 0.949 . S
H178 C186 0.950 . S
H179 C187 0.951 . S
H180 C188 0.951 1_554 S
C181 C175 1.265 . S
C181 H176 0.950 . S
C181 C182 1.483 . S
C182 C181 1.483 . S
C182 C183 1.382 1_564 S
C182 C199 1.389 1_565 S
C183 C182 1.382 1_546 S
C183 C184 1.448 . S
C183 C188 1.434 1_545 S
C184 C183 1.448 . S
C184 C185 1.428 . S
C184 C197 1.394 . S
C185 H177 0.949 . S
C185 C184 1.428 . S
C185 C186 1.345 . S
C186 H178 0.950 . S
C186 C185 1.345 . S
C186 C187 1.424 1_545 S
C187 H179 0.951 . S
C187 C186 1.424 1_565 S
C187 C188 1.347 . S
C188 H180 0.951 1_556 S
C188 C183 1.434 1_565 S
C188 C187 1.347 . S
H189 C190 0.951 . S
C190 H189 0.951 . S
C190 C196 1.265 . S
H191 C196 0.950 . S
H192 C200 0.949 1_565 S
H193 C201 0.950 . S
H194 C202 0.951 . S
H195 C203 0.951 . S
C196 C190 1.265 . S
C196 H191 0.950 . S
C196 C197 1.478 . S
C197 C184 1.394 . S
C197 C196 1.478 . S
C197 C198 1.397 1_556 S
C198 C197 1.397 1_554 S
C198 C199 1.438 . S
C198 C203 1.429 . S
C199 C182 1.389 1_545 S
C199 C198 1.438 . S
C199 C200 1.428 . S
C200 H192 0.949 1_545 S
C200 C199 1.428 . S
C200 C201 1.345 . S
C201 H193 0.950 . S
C201 C200 1.345 . S
C201 C202 1.424 . S
C202 H194 0.951 . S
C202 C201 1.424 . S
C202 C203 1.347 . S
C203 H195 0.951 . S
C203 C198 1.429 . S
C203 C202 1.347 . S
H204 C205 0.951 . S
C205 H204 0.951 . S
C205 C211 1.265 . S
H206 C211 0.950 . S
H207 C215 0.949 . S
H208 C216 0.950 . S
H209 C217 0.951 . S
H210 C218 0.951 . S
C211 C205 1.265 . S
C211 H206 0.950 . S
C211 C212 1.478 . S
C212 C211 1.478 . S
C212 C213 1.397 . S
C212 C229 1.394 . S
C213 C212 1.397 . S
C213 C214 1.438 . S
C213 C218 1.429 . S
C214 C213 1.438 . S
C214 C215 1.428 . S
C214 C227 1.394 . S
C215 H207 0.949 . S
C215 C214 1.428 . S
C215 C216 1.345 . S
C216 H208 0.950 . S
C216 C215 1.345 . S
C216 C217 1.424 . S
C217 H209 0.951 . S
C217 C216 1.424 . S
C217 C218 1.347 . S
C218 H210 0.951 . S
C218 C213 1.429 . S
C218 C217 1.347 . S
H219 C220 0.951 . S
C220 H219 0.951 . S
C220 C226 1.265 . S
H221 C226 0.950 . S
H222 C230 0.949 . S
H223 C231 0.950 . S
H224 C232 0.951 . S
H225 C233 0.951 . S
C226 C220 1.265 . S
C226 H221 0.950 . S
C226 C227 1.478 . S
C227 C214 1.394 . S
C227 C226 1.478 . S
C227 C228 1.397 . S
C228 C227 1.397 . S
C228 C229 1.438 . S
C228 C233 1.429 . S
C229 C212 1.394 . S
C229 C228 1.438 . S
C229 C230 1.428 . S
C230 H222 0.949 . S
C230 C229 1.428 . S
C230 C231 1.345 . S
C231 H223 0.950 . S
C231 C230 1.345 . S
C231 C232 1.424 . S
C232 H224 0.951 . S
C232 C231 1.424 . S
C232 C233 1.347 . S
C233 H225 0.951 . S
C233 C228 1.429 . S
C233 C232 1.347 . S
H234 C235 0.951 . S
C235 H234 0.951 . S
C235 C241 1.265 . S
H236 C241 0.950 . S
H237 C245 0.949 . S
H238 C246 0.950 . S
H239 C247 0.951 . S
H240 C248 0.951 . S
C241 C235 1.265 . S
C241 H236 0.950 . S
C241 C242 1.478 1_455 S
C242 C241 1.478 1_655 S
C242 C243 1.397 . S
C242 C259 1.394 . S
C243 C242 1.397 . S
C243 C244 1.438 . S
C243 C248 1.429 . S
C244 C243 1.438 . S
C244 C245 1.428 . S
C244 C257 1.394 . S
C245 H237 0.949 . S
C245 C244 1.428 . S
C245 C246 1.345 . S
C246 H238 0.950 . S
C246 C245 1.345 . S
C246 C247 1.424 . S
C247 H239 0.951 . S
C247 C246 1.424 . S
C247 C248 1.347 . S
C248 H240 0.951 . S
C248 C243 1.429 . S
C248 C247 1.347 . S
H249 C250 0.951 . S
C250 H249 0.951 . S
C250 C256 1.265 . S
H251 C256 0.950 . S
H252 C260 0.949 . S
H253 C261 0.950 . S
H254 C262 0.951 . S
H255 C263 0.951 . S
C256 C250 1.265 . S
C256 H251 0.950 . S
C256 C257 1.478 . S
C257 C244 1.394 . S
C257 C256 1.478 . S
C257 C258 1.397 . S
C258 C257 1.397 . S
C258 C259 1.438 . S
C258 C263 1.429 . S
C259 C242 1.394 . S
C259 C258 1.438 . S
C259 C260 1.428 1_655 S
C260 H252 0.949 . S
C260 C259 1.428 1_455 S
C260 C261 1.345 . S
C261 H253 0.950 . S
C261 C260 1.345 . S
C261 C262 1.424 1_455 S
C262 H254 0.951 . S
C262 C261 1.424 1_655 S
C262 C263 1.347 . S
C263 H255 0.951 . S
C263 C258 1.429 . S
C263 C262 1.347 . S
H264 C265 0.951 . S
C265 H264 0.951 . S
C265 C271 1.265 . S
H266 C271 0.950 . S
H267 C275 0.949 . S
H268 C276 0.950 . S
H269 C277 0.951 . S
H270 C278 0.951 . S
C271 C265 1.265 . S
C271 H266 0.950 . S
C271 C272 1.478 . S
C272 C271 1.478 . S
C272 C273 1.397 . S
C272 C289 1.394 . S
C273 C272 1.397 . S
C273 C274 1.438 . S
C273 C278 1.429 . S
C274 C273 1.438 . S
C274 C275 1.428 . S
C274 C287 1.394 . S
C275 H267 0.949 . S
C275 C274 1.428 . S
C275 C276 1.345 . S
C276 H268 0.950 . S
C276 C275 1.345 . S
C276 C277 1.424 . S
C277 H269 0.951 . S
C277 C276 1.424 . S
C277 C278 1.347 . S
C278 H270 0.951 . S
C278 C273 1.429 . S
C278 C277 1.347 . S
H279 C280 0.951 . S
C280 H279 0.951 . S
C280 C286 1.265 . S
H281 C286 0.950 . S
H282 C290 0.949 . S
H283 C291 0.950 . S
H284 C292 0.951 . S
H285 C293 0.951 . S
C286 C280 1.265 . S
C286 H281 0.950 . S
C286 C287 1.478 . S
C287 C274 1.394 . S
C287 C286 1.478 . S
C287 C288 1.397 . S
C288 C287 1.397 . S
C288 C289 1.438 . S
C288 C293 1.429 . S
C289 C272 1.394 . S
C289 C288 1.438 . S
C289 C290 1.428 . S
C290 H282 0.949 . S
C290 C289 1.428 . S
C290 C291 1.345 . S
C291 H283 0.950 . S
C291 C290 1.345 . S
C291 C292 1.424 . S
C292 H284 0.951 . S
C292 C291 1.424 . S
C292 C293 1.347 . S
C293 H285 0.951 . S
C293 C288 1.429 . S
C293 C292 1.347 . S
H294 C295 0.951 . S
C295 H294 0.951 . S
C295 C301 1.265 . S
H296 C301 0.950 . S
H297 C305 0.949 . S
H298 C306 0.950 . S
H299 C307 0.951 . S
H300 C308 0.951 . S
C301 C295 1.265 . S
C301 H296 0.950 . S
C301 C302 1.478 . S
C302 C301 1.478 . S
C302 C303 1.397 . S
C302 C319 1.394 . S
C303 C302 1.397 . S
C303 C304 1.438 . S
C303 C308 1.429 . S
C304 C303 1.438 . S
C304 C305 1.428 . S
C304 C317 1.394 . S
C305 H297 0.949 . S
C305 C304 1.428 . S
C305 C306 1.345 . S
C306 H298 0.950 . S
C306 C305 1.345 . S
C306 C307 1.424 . S
C307 H299 0.951 . S
C307 C306 1.424 . S
C307 C308 1.347 . S
C308 H300 0.951 . S
C308 C303 1.429 . S
C308 C307 1.347 . S
H309 C310 0.951 . S
C310 H309 0.951 . S
C310 C316 1.265 . S
H311 C316 0.950 . S
H312 C320 0.949 . S
H313 C321 0.950 . S
H314 C322 0.951 . S
H315 C323 0.951 . S
C316 C310 1.265 . S
C316 H311 0.950 . S
C316 C317 1.478 . S
C317 C304 1.394 . S
C317 C316 1.478 . S
C317 C318 1.397 . S
C318 C317 1.397 . S
C318 C319 1.438 . S
C318 C323 1.429 . S
C319 C302 1.394 . S
C319 C318 1.438 . S
C319 C320 1.428 . S
C320 H312 0.949 . S
C320 C319 1.428 . S
C320 C321 1.345 . S
C321 H313 0.950 . S
C321 C320 1.345 . S
C321 C322 1.424 . S
C322 H314 0.951 . S
C322 C321 1.424 . S
C322 C323 1.347 . S
C323 H315 0.951 . S
C323 C318 1.429 . S
C323 C322 1.347 . S
H324 C325 0.951 . S
C325 H324 0.951 . S
C325 C331 1.265 . S
H326 C331 0.950 . S
H327 C335 0.949 . S
H328 C336 0.950 . S
H329 C337 0.951 . S
H330 C338 0.951 . S
C331 C325 1.265 . S
C331 H326 0.950 . S
C331 C332 1.478 . S
C332 C331 1.478 . S
C332 C333 1.397 . S
C332 C349 1.394 . S
C333 C332 1.397 . S
C333 C334 1.438 . S
C333 C338 1.429 . S
C334 C333 1.438 . S
C334 C335 1.428 . S
C334 C347 1.394 . S
C335 H327 0.949 . S
C335 C334 1.428 . S
C335 C336 1.345 . S
C336 H328 0.950 . S
C336 C335 1.345 . S
C336 C337 1.424 . S
C337 H329 0.951 . S
C337 C336 1.424 . S
C337 C338 1.347 . S
C338 H330 0.951 . S
C338 C333 1.429 . S
C338 C337 1.347 . S
H339 C340 0.951 . S
C340 H339 0.951 . S
C340 C346 1.265 . S
H341 C346 0.950 . S
H342 C350 0.949 . S
H343 C351 0.950 . S
H344 C352 0.951 . S
H345 C353 0.951 . S
C346 C340 1.265 . S
C346 H341 0.950 . S
C346 C347 1.478 . S
C347 C334 1.394 . S
C347 C346 1.478 . S
C347 C348 1.397 . S
C348 C347 1.397 . S
C348 C349 1.438 . S
C348 C353 1.429 . S
C349 C332 1.394 . S
C349 C348 1.438 . S
C349 C350 1.428 . S
C350 H342 0.949 . S
C350 C349 1.428 . S
C350 C351 1.345 . S
C351 H343 0.950 . S
C351 C350 1.345 . S
C351 C352 1.424 . S
C352 H344 0.951 . S
C352 C351 1.424 . S
C352 C353 1.347 . S
C353 H345 0.951 . S
C353 C348 1.429 . S
C353 C352 1.347 . S
H354 C355 0.951 . S
C355 H354 0.951 . S
C355 C361 1.265 . S
H356 C361 0.950 . S
H357 C365 0.949 . S
H358 C366 0.950 . S
H359 C367 0.951 . S
H360 C368 0.951 . S
C361 C355 1.265 . S
C361 H356 0.950 . S
C361 C362 1.478 . S
C362 C361 1.478 . S
C362 C363 1.397 . S
C362 C379 1.394 . S
C363 C362 1.397 . S
C363 C364 1.438 . S
C363 C368 1.429 . S
C364 C363 1.438 . S
C364 C365 1.428 . S
C364 C377 1.394 . S
C365 H357 0.949 . S
C365 C364 1.428 . S
C365 C366 1.345 . S
C366 H358 0.950 . S
C366 C365 1.345 . S
C366 C367 1.424 . S
C367 H359 0.951 . S
C367 C366 1.424 . S
C367 C368 1.347 . S
C368 H360 0.951 . S
C368 C363 1.429 . S
C368 C367 1.347 . S
H369 C370 0.951 . S
C370 H369 0.951 . S
C370 C376 1.265 . S
H371 C376 0.950 . S
H372 C380 0.949 . S
H373 C381 0.950 . S
H374 C382 0.951 . S
H375 C383 0.951 . S
C376 C370 1.265 . S
C376 H371 0.950 . S
C376 C377 1.478 . S
C377 C364 1.394 . S
C377 C376 1.478 . S
C377 C378 1.397 . S
C378 C377 1.397 . S
C378 C379 1.438 . S
C378 C383 1.429 . S
C379 C362 1.394 . S
C379 C378 1.438 . S
C379 C380 1.428 . S
C380 H372 0.949 . S
C380 C379 1.428 . S
C380 C381 1.345 . S
C381 H373 0.950 . S
C381 C380 1.345 . S
C381 C382 1.424 . S
C382 H374 0.951 . S
C382 C381 1.424 . S
C382 C383 1.347 . S
C383 H375 0.951 . S
C383 C378 1.429 . S
C383 C382 1.347 . S
H384 C385 0.950 1_556 S
C385 H384 0.950 1_554 S
C385 C391 1.285 . S
H386 C391 0.950 . S
H387 C395 0.949 . S
H388 C396 0.950 . S
H389 C397 0.951 . S
H390 C398 0.951 . S
C391 C385 1.285 . S
C391 H386 0.950 . S
C391 C392 1.478 . S
C392 C391 1.478 . S
C392 C393 1.397 . S
C392 C409 1.394 . S
C393 C392 1.397 . S
C393 C394 1.438 . S
C393 C398 1.429 . S
C394 C393 1.438 . S
C394 C395 1.428 . S
C394 C407 1.394 . S
C395 H387 0.949 . S
C395 C394 1.428 . S
C395 C396 1.345 . S
C396 H388 0.950 . S
C396 C395 1.345 . S
C396 C397 1.424 . S
C397 H389 0.951 . S
C397 C396 1.424 . S
C397 C398 1.347 . S
C398 H390 0.951 . S
C398 C393 1.429 . S
C398 C397 1.347 . S
H399 C400 0.951 . S
C400 H399 0.951 . S
C400 C406 1.265 . S
H401 C406 0.950 . S
H402 C410 0.949 . S
H403 C411 0.950 . S
H404 C412 0.951 . S
H405 C413 0.951 . S
C406 C400 1.265 . S
C406 H401 0.950 . S
C406 C407 1.478 . S
C407 C394 1.394 . S
C407 C406 1.478 . S
C407 C408 1.397 . S
C408 C407 1.397 . S
C408 C409 1.438 . S
C408 C413 1.429 . S
C409 C392 1.394 . S
C409 C408 1.438 . S
C409 C410 1.428 . S
C410 H402 0.949 . S
C410 C409 1.428 . S
C410 C411 1.345 . S
C411 H403 0.950 . S
C411 C410 1.345 . S
C411 C412 1.424 . S
C412 H404 0.951 . S
C412 C411 1.424 . S
C412 C413 1.347 . S
C413 H405 0.951 . S
C413 C408 1.429 . S
C413 C412 1.347 . S
H414 C415 0.951 . S
C415 H414 0.951 . S
C415 C421 1.265 . S
H416 C421 0.950 . S
H417 C425 0.949 . S
H418 C426 0.950 . S
H419 C427 0.951 . S
H420 C428 0.951 . S
C421 C415 1.265 . S
C421 H416 0.950 . S
C421 C422 1.478 . S
C422 C421 1.478 . S
C422 C423 1.397 . S
C422 C439 1.394 . S
C423 C422 1.397 . S
C423 C424 1.438 . S
C423 C428 1.429 . S
C424 C423 1.438 . S
C424 C425 1.428 . S
C424 C437 1.394 . S
C425 H417 0.949 . S
C425 C424 1.428 . S
C425 C426 1.345 . S
C426 H418 0.950 . S
C426 C425 1.345 . S
C426 C427 1.424 . S
C427 H419 0.951 . S
C427 C426 1.424 . S
C427 C428 1.347 . S
C428 H420 0.951 . S
C428 C423 1.429 . S
C428 C427 1.347 . S
H429 C430 0.951 . S
C430 H429 0.951 . S
C430 C436 1.265 . S
H431 C436 0.950 . S
H432 C440 0.949 . S
H433 C441 0.950 . S
H434 C442 0.951 . S
H435 C443 0.951 . S
C436 C430 1.265 . S
C436 H431 0.950 . S
C436 C437 1.478 . S
C437 C424 1.394 . S
C437 C436 1.478 . S
C437 C438 1.397 . S
C438 C437 1.397 . S
C438 C439 1.438 . S
C438 C443 1.429 . S
C439 C422 1.394 . S
C439 C438 1.438 . S
C439 C440 1.428 . S
C440 H432 0.949 . S
C440 C439 1.428 . S
C440 C441 1.345 . S
C441 H433 0.950 . S
C441 C440 1.345 . S
C441 C442 1.424 . S
C442 H434 0.951 . S
C442 C441 1.424 . S
C442 C443 1.347 . S
C443 H435 0.951 . S
C443 C438 1.429 . S
C443 C442 1.347 . S
C85 C6 1.673 . S
C100 C78 1.706 . S
C115 C9 1.713 . S
C130 C20 1.679 . S
C145 C35 1.677 . S
C160 C23 1.707 . S
C175 C48 1.731 . S
C190 C36 1.744 . S
C205 C62 1.733 . S
C220 C51 1.742 . S
C235 C77 1.688 . S
C250 C65 1.719 . S
C265 C7 1.374 . S
C280 C64 1.428 . S
C295 C79 1.428 . S
C310 C21 1.414 . S
C325 C34 1.364 . S
C340 C8 1.440 . S
C355 C22 1.455 . S
C370 C49 1.437 1_556 S
C385 C37 1.435 1_554 S
C400 C63 1.408 . S
C415 C76 1.364 . S
C430 C50 1.432 . S
