# Generated by pormake.
# Topology atn, (4)-cn, num edge types: 1
# Building blocks:
#     Node 0, Type 0, BuildingBlock: QUQFOY_clean_sbu_1, # of connection points: 4
#     Node 1, Type 0, BuildingBlock: QUQFOY_clean_sbu_1, # of connection points: 4
#     Node 2, Type 0, BuildingBlock: QUQFOY_clean_sbu_1, # of connection points: 4
#     Node 3, Type 0, BuildingBlock: QUQFOY_clean_sbu_1, # of connection points: 4
#     Node 4, Type 0, BuildingBlock: QUQFOY_clean_sbu_1, # of connection points: 4
#     Node 5, Type 0, BuildingBlock: QUQFOY_clean_sbu_1, # of connection points: 4
#     Node 6, Type 0, BuildingBlock: QUQFOY_clean_sbu_1, # of connection points: 4
#     Node 7, Type 0, BuildingBlock: QUQFOY_clean_sbu_1, # of connection points: 4
#     Node 8, Type 0, BuildingBlock: QUQFOY_clean_sbu_1, # of connection points: 4
#     Node 9, Type 0, BuildingBlock: QUQFOY_clean_sbu_1, # of connection points: 4
#     Node 10, Type 0, BuildingBlock: QUQFOY_clean_sbu_1, # of connection points: 4
#     Node 11, Type 0, BuildingBlock: QUQFOY_clean_sbu_1, # of connection points: 4
#     Node 12, Type 0, BuildingBlock: QUQFOY_clean_sbu_1, # of connection points: 4
#     Node 13, Type 0, BuildingBlock: QUQFOY_clean_sbu_1, # of connection points: 4
#     Node 14, Type 0, BuildingBlock: QUQFOY_clean_sbu_1, # of connection points: 4
#     Node 15, Type 0, BuildingBlock: QUQFOY_clean_sbu_1, # of connection points: 4
#     Edge 16, Type (0, 0), BuildingBlock: OJICUG_clean_linker_0, # of connection points: 2
#     Edge 17, Type (0, 0), BuildingBlock: OJICUG_clean_linker_0, # of connection points: 2
#     Edge 18, Type (0, 0), BuildingBlock: OJICUG_clean_linker_0, # of connection points: 2
#     Edge 19, Type (0, 0), BuildingBlock: OJICUG_clean_linker_0, # of connection points: 2
#     Edge 20, Type (0, 0), BuildingBlock: OJICUG_clean_linker_0, # of connection points: 2
#     Edge 21, Type (0, 0), BuildingBlock: OJICUG_clean_linker_0, # of connection points: 2
#     Edge 22, Type (0, 0), BuildingBlock: OJICUG_clean_linker_0, # of connection points: 2
#     Edge 23, Type (0, 0), BuildingBlock: OJICUG_clean_linker_0, # of connection points: 2
#     Edge 24, Type (0, 0), BuildingBlock: OJICUG_clean_linker_0, # of connection points: 2
#     Edge 25, Type (0, 0), BuildingBlock: OJICUG_clean_linker_0, # of connection points: 2
#     Edge 26, Type (0, 0), BuildingBlock: OJICUG_clean_linker_0, # of connection points: 2
#     Edge 27, Type (0, 0), BuildingBlock: OJICUG_clean_linker_0, # of connection points: 2
#     Edge 28, Type (0, 0), BuildingBlock: OJICUG_clean_linker_0, # of connection points: 2
#     Edge 29, Type (0, 0), BuildingBlock: OJICUG_clean_linker_0, # of connection points: 2
#     Edge 30, Type (0, 0), BuildingBlock: OJICUG_clean_linker_0, # of connection points: 2
#     Edge 31, Type (0, 0), BuildingBlock: OJICUG_clean_linker_0, # of connection points: 2
#     Edge 32, Type (0, 0), BuildingBlock: OJICUG_clean_linker_0, # of connection points: 2
#     Edge 33, Type (0, 0), BuildingBlock: OJICUG_clean_linker_0, # of connection points: 2
#     Edge 34, Type (0, 0), BuildingBlock: OJICUG_clean_linker_0, # of connection points: 2
#     Edge 35, Type (0, 0), BuildingBlock: OJICUG_clean_linker_0, # of connection points: 2
#     Edge 36, Type (0, 0), BuildingBlock: OJICUG_clean_linker_0, # of connection points: 2
#     Edge 37, Type (0, 0), BuildingBlock: OJICUG_clean_linker_0, # of connection points: 2
#     Edge 38, Type (0, 0), BuildingBlock: OJICUG_clean_linker_0, # of connection points: 2
#     Edge 39, Type (0, 0), BuildingBlock: OJICUG_clean_linker_0, # of connection points: 2
#     Edge 40, Type (0, 0), BuildingBlock: OJICUG_clean_linker_0, # of connection points: 2
#     Edge 41, Type (0, 0), BuildingBlock: OJICUG_clean_linker_0, # of connection points: 2
#     Edge 42, Type (0, 0), BuildingBlock: OJICUG_clean_linker_0, # of connection points: 2
#     Edge 43, Type (0, 0), BuildingBlock: OJICUG_clean_linker_0, # of connection points: 2
#     Edge 44, Type (0, 0), BuildingBlock: OJICUG_clean_linker_0, # of connection points: 2
#     Edge 45, Type (0, 0), BuildingBlock: OJICUG_clean_linker_0, # of connection points: 2
#     Edge 46, Type (0, 0), BuildingBlock: OJICUG_clean_linker_0, # of connection points: 2
#     Edge 47, Type (0, 0), BuildingBlock: OJICUG_clean_linker_0, # of connection points: 2
# Relax obj value: 0.063
# Max RMSD: 0.084
# Mean RMSD: 0.084
data_MOF--net-atn--node1-QUQFOY_clean_sbu_1--edge1-OJICUG_clean_linker_0
_symmetry_space_group_name_H-M    P1
_symmetry_Int_Tables_number       1
_symmetry_cell_setting            triclinic
loop_
_symmetry_equiv_pos_as_xyz
'x, y, z'
_cell_length_a     46.123322
_cell_length_b     46.077275
_cell_length_c     20.688141
_cell_angle_alpha  90.005925
_cell_angle_beta   90.007468
_cell_angle_gamma 90.02337
loop_
_atom_site_label
_atom_site_type_symbol
_atom_site_fract_x
_atom_site_fract_y
_atom_site_fract_z
_atom_type_partial_charge
O0 O 0.19823 0.38402 0.16135 0.0
Cd1 Cd 0.22249 0.39341 0.08052 0.0
Cd2 Cd 0.1856 0.35658 1.02573 0.0
O3 O 0.16247 0.36187 0.11054 0.0
O4 O 0.2429 0.43082 0.09713 0.0
O5 O 0.20763 0.42568 1.02498 0.0
C6 C 0.22586 0.44226 0.05477 0.0
C7 C 0.16537 0.36017 0.92235 0.0
C8 C 0.17338 0.37207 0.1623 0.0
C9 C 0.24733 0.33704 0.04019 0.0
O10 O 0.2211 0.32951 0.03151 0.0
O11 O 0.25346 0.36324 0.05377 0.0
O12 O 0.1594 0.33862 0.95986 0.0
O13 O 0.18161 0.38064 0.94502 0.0
O14 O 0.62347 0.19997 0.1621 0.0
Cd15 Cd 0.61426 0.22426 0.08118 0.0
Cd16 Cd 0.65068 0.18699 0.02645 0.0
O17 O 0.64517 0.16392 0.11132 0.0
O18 O 0.57696 0.24485 0.09745 0.0
O19 O 0.58202 0.20942 1.0256 0.0
C20 C 0.56549 0.22775 0.05519 0.0
C21 C 0.64692 0.16673 0.9231 0.0
C22 C 0.63513 0.17498 0.16308 0.0
C23 C 0.67077 0.24863 0.04072 0.0
O24 O 0.67804 0.2223 0.03215 0.0
O25 O 0.64465 0.255 0.05426 0.0
O26 O 0.66839 0.16059 0.96066 0.0
O27 O 0.62662 0.18316 0.94572 0.0
O28 O 0.80932 0.6245 0.16173 0.0
Cd29 Cd 0.78509 0.61504 0.08087 0.0
Cd30 Cd 0.82196 0.6519 0.02607 0.0
O31 O 0.84506 0.64669 0.11096 0.0
O32 O 0.76469 0.57763 0.09756 0.0
O33 O 0.79996 0.58273 1.02544 0.0
C34 C 0.78173 0.56616 0.05524 0.0
C35 C 0.84225 0.64831 0.92276 0.0
C36 C 0.83415 0.63649 0.16271 0.0
C37 C 0.7602 0.67136 0.04033 0.0
O38 O 0.78642 0.67891 0.03168 0.0
O39 O 0.7541 0.64516 0.05399 0.0
O40 O 0.84816 0.66988 0.96028 0.0
O41 O 0.82603 0.62781 0.94539 0.0
O42 O 0.38399 0.80838 0.16263 0.0
Cd43 Cd 0.39317 0.7841 0.08168 0.0
Cd44 Cd 0.35677 0.82141 0.02699 0.0
O45 O 0.36231 0.84445 0.1119 0.0
O46 O 0.43046 0.76348 0.0979 0.0
O47 O 0.42541 0.79893 0.02611 0.0
C48 C 0.44193 0.78057 0.05565 0.0
C49 C 0.36053 0.84168 0.92367 0.0
C50 C 0.37235 0.83338 0.16364 0.0
C51 C 0.33665 0.75978 0.04112 0.0
O52 O 0.32939 0.78612 0.03262 0.0
O53 O 0.36276 0.75339 0.05467 0.0
O54 O 0.33907 0.84783 0.96123 0.0
O55 O 0.38083 0.82523 0.94627 0.0
O56 O 0.19855 0.62435 0.91258 0.0
Cd57 Cd 0.22272 0.61494 0.99354 0.0
Cd58 Cd 0.18577 0.65171 0.04818 0.0
O59 O 0.16269 0.64637 0.96329 0.0
O60 O 0.2431 0.57753 0.97707 0.0
O61 O 0.20774 0.58268 0.04895 0.0
C62 C 0.22599 0.56609 1.01929 0.0
C63 C 0.16551 0.6481 0.15152 0.0
C64 C 0.17367 0.63623 0.91155 0.0
C65 C 0.24749 0.67133 0.03409 0.0
O66 O 0.22125 0.67882 0.04255 0.0
O67 O 0.25365 0.64513 1.02058 0.0
O68 O 0.15953 0.66963 0.11397 0.0
O69 O 0.18177 0.62765 0.12889 0.0
O70 O 0.38379 0.20013 0.91254 0.0
Cd71 Cd 0.39302 0.22437 0.99353 0.0
Cd72 Cd 0.35661 0.18706 0.04815 0.0
O73 O 0.36214 0.16402 0.96324 0.0
O74 O 0.43036 0.24496 0.97738 0.0
O75 O 0.42523 0.20948 0.04908 0.0
C76 C 0.44179 0.22782 1.01957 0.0
C77 C 0.36035 0.1668 0.15149 0.0
C78 C 0.37215 0.17512 0.9115 0.0
C79 C 0.33651 0.24868 0.03398 0.0
O80 O 0.32925 0.22234 0.04244 0.0
O81 O 0.36264 0.25509 1.02054 0.0
O82 O 0.33889 0.16064 0.11391 0.0
O83 O 0.38066 0.18326 0.12891 0.0
O84 O 0.80891 0.38407 0.91298 0.0
Cd85 Cd 0.78473 0.39348 0.99391 0.0
Cd86 Cd 0.82164 0.3567 0.04856 0.0
O87 O 0.84474 0.36203 0.96371 0.0
O88 O 0.76438 0.43092 0.97748 0.0
O89 O 0.79972 0.42572 0.04941 0.0
C90 C 0.7815 0.44233 1.01974 0.0
C91 C 0.84189 0.3603 0.15193 0.0
C92 C 0.83378 0.37218 0.91197 0.0
C93 C 0.75992 0.3371 0.03429 0.0
O94 O 0.78616 0.32959 0.04281 0.0
O95 O 0.75377 0.3633 1.02082 0.0
O96 O 0.84786 0.33876 0.11438 0.0
O97 O 0.82563 0.38076 0.12929 0.0
O98 O 0.6235 0.80809 0.91253 0.0
Cd99 Cd 0.61435 0.78383 0.99352 0.0
Cd100 Cd 0.65072 0.82118 0.04811 0.0
O101 O 0.6451 0.84424 0.96325 0.0
O102 O 0.577 0.76324 0.97753 0.0
O103 O 0.5822 0.79874 0.04919 0.0
C104 C 0.56561 0.78039 1.01975 0.0
C105 C 0.64697 0.8414 0.1515 0.0
C106 C 0.63509 0.83313 0.91151 0.0
C107 C 0.6709 0.7596 0.03386 0.0
O108 O 0.67814 0.78595 0.0423 0.0
O109 O 0.64478 0.75316 1.02048 0.0
O110 O 0.66841 0.84763 0.11391 0.0
O111 O 0.62669 0.82491 0.12889 0.0
O112 O 0.69824 0.88395 0.66194 0.0
Cd113 Cd 0.72247 0.89338 0.58108 0.0
Cd114 Cd 0.68563 0.85648 0.52637 0.0
O115 O 0.66249 0.86175 0.61118 0.0
O116 O 0.74282 0.93082 0.59764 0.0
O117 O 0.70755 0.92562 0.52555 0.0
C118 C 0.72576 0.94223 0.5553 0.0
C119 C 0.66539 0.86003 0.42299 0.0
C120 C 0.67341 0.87197 0.66292 0.0
C121 C 0.74738 0.83704 0.54073 0.0
O122 O 0.72116 0.82947 0.53213 0.0
O123 O 0.75347 0.86326 0.55426 0.0
O124 O 0.65945 0.83847 0.46051 0.0
O125 O 0.6816 0.88053 0.44565 0.0
O126 O 0.12365 0.7 0.66196 0.0
Cd127 Cd 0.11447 0.7243 0.58105 0.0
Cd128 Cd 0.15089 0.68702 0.52633 0.0
O129 O 0.14536 0.66395 0.61119 0.0
O130 O 0.0772 0.74493 0.59734 0.0
O131 O 0.08222 0.70952 0.52545 0.0
C132 C 0.06571 0.72786 0.55506 0.0
C133 C 0.14712 0.66676 0.42297 0.0
C134 C 0.13532 0.67501 0.66294 0.0
C135 C 0.171 0.74864 0.54064 0.0
O136 O 0.17826 0.72231 0.53206 0.0
O137 O 0.14489 0.75503 0.55417 0.0
O138 O 0.16858 0.66061 0.46053 0.0
O139 O 0.12682 0.68321 0.44559 0.0
O140 O 0.3088 0.12449 0.6619 0.0
Cd141 Cd 0.2846 0.11505 0.58098 0.0
Cd142 Cd 0.32154 0.15182 0.52623 0.0
O143 O 0.34462 0.14655 0.61113 0.0
O144 O 0.26424 0.07761 0.59748 0.0
O145 O 0.29958 0.0828 0.52555 0.0
C146 C 0.28135 0.06619 0.55525 0.0
C147 C 0.34184 0.14821 0.42292 0.0
C148 C 0.33366 0.13641 0.66289 0.0
C149 C 0.25981 0.17138 0.54033 0.0
O150 O 0.28605 0.1789 0.53178 0.0
O151 O 0.25366 0.14519 0.55397 0.0
O152 O 0.34779 0.16976 0.46045 0.0
O153 O 0.32558 0.12774 0.44555 0.0
O154 O 0.88378 0.30839 0.66234 0.0
Cd155 Cd 0.89297 0.28412 0.58138 0.0
Cd156 Cd 0.85654 0.3214 0.52672 0.0
O157 O 0.86207 0.34445 0.61162 0.0
O158 O 0.93029 0.26355 0.5975 0.0
O159 O 0.92516 0.299 0.52574 0.0
C160 C 0.94171 0.28066 0.55524 0.0
C161 C 0.8603 0.34167 0.42339 0.0
C162 C 0.87212 0.33338 0.66336 0.0
C163 C 0.83645 0.25976 0.54089 0.0
O164 O 0.82918 0.28609 0.53237 0.0
O165 O 0.86257 0.25339 0.55442 0.0
O166 O 0.83883 0.34781 0.46094 0.0
O167 O 0.8806 0.32522 0.446 0.0
O168 O 0.69835 0.12429 0.41272 0.0
Cd169 Cd 0.72253 0.11489 0.49367 0.0
Cd170 Cd 0.68559 0.15166 0.54831 0.0
O171 O 0.66251 0.14632 0.46342 0.0
O172 O 0.74291 0.07747 0.47726 0.0
O173 O 0.70756 0.08265 0.54915 0.0
C174 C 0.72581 0.06605 0.51951 0.0
C175 C 0.66533 0.14806 0.65165 0.0
C176 C 0.67348 0.13618 0.41168 0.0
C177 C 0.74731 0.17129 0.53414 0.0
O178 O 0.72107 0.17878 0.54264 0.0
O179 O 0.75346 0.14508 0.52064 0.0
O180 O 0.65935 0.16959 0.6141 0.0
O181 O 0.68159 0.12761 0.62903 0.0
O182 O 0.88405 0.70043 0.41235 0.0
Cd183 Cd 0.89325 0.72466 0.49337 0.0
Cd184 Cd 0.85694 0.68726 0.54802 0.0
O185 O 0.8625 0.66426 0.46307 0.0
O186 O 0.93059 0.74525 0.47733 0.0
O187 O 0.92544 0.70973 0.54891 0.0
C188 C 0.94201 0.72808 0.51947 0.0
C189 C 0.86072 0.66697 0.65134 0.0
C190 C 0.87247 0.67539 0.41132 0.0
C191 C 0.83673 0.74885 0.53401 0.0
O192 O 0.82951 0.72249 0.54243 0.0
O193 O 0.86283 0.75531 0.52051 0.0
O194 O 0.83927 0.66078 0.61375 0.0
O195 O 0.881 0.68347 0.62877 0.0
O196 O 0.30919 0.88412 0.41325 0.0
Cd197 Cd 0.28496 0.8935 0.49414 0.0
Cd198 Cd 0.32188 0.85671 0.54882 0.0
O199 O 0.345 0.86204 0.46399 0.0
O200 O 0.26452 0.93087 0.47755 0.0
O201 O 0.29982 0.9258 0.54962 0.0
C202 C 0.28157 0.94235 0.51986 0.0
C203 C 0.34212 0.86031 0.6522 0.0
C204 C 0.33405 0.87221 0.41225 0.0
C205 C 0.26017 0.83709 0.53445 0.0
O206 O 0.28641 0.82959 0.54304 0.0
O207 O 0.25402 0.8633 0.52096 0.0
O208 O 0.3481 0.83878 0.61465 0.0
O209 O 0.32586 0.88077 0.62956 0.0
O210 O 0.12333 0.3083 0.41192 0.0
Cd211 Cd 0.11413 0.28406 0.49293 0.0
Cd212 Cd 0.15056 0.32138 0.5475 0.0
O213 O 0.14498 0.34442 0.46261 0.0
O214 O 0.07679 0.26348 0.47689 0.0
O215 O 0.08196 0.29898 0.54855 0.0
C216 C 0.06539 0.28063 0.51911 0.0
C217 C 0.14684 0.34163 0.65087 0.0
C218 C 0.13496 0.33331 0.41088 0.0
C219 C 0.17065 0.25977 0.53337 0.0
O220 O 0.17793 0.28611 0.54177 0.0
O221 O 0.14452 0.25336 0.51996 0.0
O222 O 0.16829 0.34781 0.61327 0.0
O223 O 0.12654 0.32516 0.62828 0.0
C224 C 0.19985 0.5193 0.03403 0.0
C225 C 0.22614 0.53455 0.03011 0.0
H226 H 0.17929 0.47769 0.0424 0.0
C227 C 0.2524 0.51923 0.033 0.0
H228 H 0.17935 0.53069 0.03116 0.0
C229 C 0.25237 0.4891 0.04126 0.0
C230 C 0.22608 0.4738 0.04391 0.0
H231 H 0.27291 0.53061 0.02975 0.0
H232 H 0.27286 0.4777 0.04472 0.0
C233 C 0.19982 0.48907 0.03972 0.0
C234 C 0.48852 0.2017 0.03445 0.0
C235 C 0.4733 0.228 0.03046 0.0
H236 H 0.53007 0.18114 0.0429 0.0
C237 C 0.48861 0.25431 0.03331 0.0
H238 H 0.47714 0.18117 0.03161 0.0
C239 C 0.51871 0.25429 0.0416 0.0
C240 C 0.53399 0.22797 0.04431 0.0
H241 H 0.47725 0.27483 0.03 0.0
H242 H 0.53011 0.2748 0.04502 0.0
C243 C 0.51872 0.20169 0.04017 0.0
C244 C 0.80767 0.4891 0.03459 0.0
C245 C 0.78138 0.47387 0.03061 0.0
H246 H 0.82827 0.53069 0.043 0.0
C247 C 0.75512 0.48921 0.03347 0.0
H248 H 0.82817 0.47769 0.03174 0.0
C249 C 0.75518 0.51935 0.04174 0.0
C250 C 0.78149 0.53462 0.04442 0.0
H251 H 0.73461 0.47785 0.03018 0.0
H252 H 0.73471 0.53076 0.04515 0.0
C253 C 0.80773 0.51933 0.04028 0.0
C254 C 0.51877 0.75395 0.0336 0.0
C255 C 0.53411 0.78023 0.03073 0.0
H256 H 0.47726 0.73349 0.04538 0.0
C257 C 0.51891 0.80655 0.03479 0.0
H258 H 0.53011 0.73341 0.03024 0.0
C259 C 0.48872 0.80659 0.04058 0.0
C260 C 0.47343 0.78032 0.04473 0.0
H261 H 0.53031 0.82707 0.03193 0.0
H262 H 0.47739 0.82715 0.04336 0.0
C263 C 0.48867 0.75399 0.04196 0.0
C264 C 0.6997 0.01925 0.53441 0.0
C265 C 0.72597 0.03451 0.53042 0.0
H266 H 0.67917 0.97763 0.54291 0.0
C267 C 0.75225 0.01921 0.53334 0.0
H268 H 0.67919 0.03063 0.53152 0.0
C269 C 0.75224 0.98908 0.54168 0.0
C270 C 0.72595 0.97377 0.54438 0.0
H271 H 0.77275 0.0306 0.53004 0.0
H272 H 0.77273 0.9777 0.54514 0.0
C273 C 0.69969 0.98902 0.54018 0.0
C274 C 0.98886 0.75452 0.53325 0.0
C275 C 0.97352 0.72823 0.53034 0.0
H276 H 0.03038 0.77496 0.54499 0.0
C277 C 0.98871 0.70191 0.53427 0.0
H278 H 0.97752 0.77505 0.52999 0.0
C279 C 0.01891 0.70186 0.53998 0.0
C280 C 0.03421 0.72813 0.54418 0.0
H281 H 0.97731 0.68139 0.53138 0.0
H282 H 0.03024 0.6813 0.54267 0.0
C283 C 0.01897 0.75446 0.54153 0.0
C284 C 0.30752 0.01944 0.54044 0.0
C285 C 0.28123 0.03464 0.54444 0.0
H286 H 0.32811 0.97787 0.53203 0.0
C287 C 0.25497 0.01928 0.54165 0.0
H288 H 0.32802 0.03087 0.54323 0.0
C289 C 0.25503 0.98914 0.53342 0.0
C290 C 0.28133 0.97389 0.53069 0.0
H291 H 0.23446 0.03062 0.54497 0.0
H292 H 0.23455 0.97771 0.53005 0.0
C293 C 0.30757 0.98921 0.53477 0.0
C294 C 0.01858 0.25413 0.53301 0.0
C295 C 0.03389 0.28043 0.53011 0.0
H296 H 0.9771 0.23362 0.54489 0.0
C297 C 0.01866 0.30673 0.5342 0.0
H298 H 0.02994 0.23361 0.52964 0.0
C299 C 0.98847 0.30674 0.54005 0.0
C300 C 0.97321 0.28045 0.54424 0.0
H301 H 0.03004 0.32727 0.53132 0.0
H302 H 0.97712 0.32728 0.54286 0.0
C303 C 0.98849 0.25414 0.54144 0.0
C304 C 0.29994 0.32257 0.03767 0.0
C305 C 0.27045 0.31476 0.03764 0.0
H306 H 0.34405 0.30784 0.03633 0.0
C307 C 0.26305 0.28517 0.0371 0.0
H308 H 0.30635 0.34519 0.03818 0.0
C309 C 0.28454 0.26388 0.03696 0.0
C310 C 0.31402 0.2716 0.03658 0.0
H311 H 0.24057 0.27835 0.03747 0.0
H312 H 0.27795 0.24132 0.03646 0.0
C313 C 0.32152 0.30119 0.03672 0.0
C314 C 0.70732 0.32257 0.03708 0.0
C315 C 0.73681 0.31479 0.0369 0.0
H316 H 0.66321 0.30778 0.03864 0.0
C317 C 0.74422 0.28521 0.03729 0.0
H318 H 0.7009 0.34518 0.03668 0.0
C319 C 0.72274 0.2639 0.0375 0.0
C320 C 0.69325 0.27157 0.03808 0.0
H321 H 0.76669 0.27842 0.03677 0.0
H322 H 0.72933 0.24134 0.03788 0.0
C323 C 0.68574 0.30116 0.03809 0.0
C324 C 0.74441 0.7232 0.03693 0.0
C325 C 0.73705 0.69361 0.03766 0.0
H326 H 0.72946 0.76704 0.03608 0.0
C327 C 0.70758 0.68576 0.03779 0.0
H328 H 0.76688 0.73005 0.0372 0.0
C329 C 0.68596 0.70712 0.03677 0.0
C330 C 0.69343 0.73672 0.03646 0.0
H331 H 0.70119 0.66314 0.03845 0.0
H332 H 0.66345 0.70044 0.03649 0.0
C333 C 0.7229 0.74446 0.03671 0.0
C334 C 0.30009 0.68585 0.03708 0.0
C335 C 0.2706 0.69363 0.03686 0.0
H336 H 0.34419 0.70063 0.03883 0.0
C337 C 0.2632 0.72321 0.03736 0.0
H338 H 0.30651 0.66324 0.03661 0.0
C339 C 0.28468 0.74452 0.03773 0.0
C340 C 0.31416 0.73684 0.03835 0.0
H341 H 0.24072 0.73001 0.0368 0.0
H342 H 0.27809 0.76708 0.03818 0.0
C343 C 0.32167 0.70726 0.03825 0.0
C344 C 0.82164 0.80133 0.53682 0.0
C345 C 0.81419 0.77172 0.53676 0.0
H346 H 0.80638 0.8453 0.53833 0.0
C347 C 0.78473 0.76396 0.53737 0.0
H348 H 0.84415 0.80803 0.53625 0.0
C349 C 0.7632 0.78521 0.53765 0.0
C350 C 0.77054 0.81481 0.53809 0.0
H351 H 0.77818 0.74138 0.53695 0.0
H352 H 0.74074 0.77834 0.53819 0.0
C353 C 0.80001 0.82268 0.5379 0.0
C354 C 0.20757 0.82257 0.53715 0.0
C355 C 0.23706 0.81479 0.53701 0.0
H356 H 0.16346 0.80779 0.53861 0.0
C357 C 0.24446 0.78521 0.53737 0.0
H358 H 0.20115 0.84518 0.53677 0.0
C359 C 0.22298 0.7639 0.53751 0.0
C360 C 0.19349 0.77158 0.53806 0.0
H361 H 0.26694 0.77841 0.53688 0.0
H362 H 0.22957 0.74133 0.53787 0.0
C363 C 0.18599 0.80116 0.53809 0.0
C364 C 0.2441 0.22325 0.53674 0.0
C365 C 0.23669 0.19367 0.53754 0.0
H366 H 0.22922 0.26711 0.5357 0.0
C367 C 0.2072 0.18587 0.53761 0.0
H368 H 0.26658 0.23007 0.53705 0.0
C369 C 0.18563 0.20726 0.53646 0.0
C370 C 0.19314 0.23685 0.53608 0.0
H371 H 0.20078 0.16326 0.53833 0.0
H372 H 0.1631 0.20062 0.53614 0.0
C373 C 0.22262 0.24455 0.53639 0.0
C374 C 0.78448 0.24449 0.5376 0.0
C375 C 0.81397 0.23682 0.53819 0.0
H376 H 0.74052 0.22997 0.53677 0.0
C377 C 0.82148 0.20724 0.53812 0.0
H378 H 0.77788 0.26705 0.53803 0.0
C379 C 0.79991 0.18582 0.53702 0.0
C380 C 0.77042 0.19359 0.53684 0.0
H381 H 0.84401 0.20061 0.53867 0.0
H382 H 0.80633 0.16322 0.53657 0.0
C383 C 0.763 0.22317 0.53731 0.0
C384 C 0.12759 0.33645 0.29117 0.0
C385 C 0.14018 0.34763 0.34787 0.0
H386 H 0.12783 0.33578 0.18777 0.0
C387 C 0.16056 0.37018 0.34265 0.0
H388 H 0.11159 0.31926 0.29354 0.0
C389 C 0.17001 0.37953 0.28194 0.0
C390 C 0.15908 0.36671 0.22525 0.0
H391 H 0.17057 0.3794 0.38534 0.0
H392 H 0.18695 0.39579 0.27958 0.0
C393 C 0.13685 0.34599 0.23046 0.0
C394 C 0.67024 0.1288 0.29199 0.0
C395 C 0.65922 0.14154 0.34868 0.0
H396 H 0.67088 0.12902 0.18859 0.0
C397 C 0.63693 0.16218 0.34345 0.0
H398 H 0.68723 0.11261 0.29436 0.0
C399 C 0.62768 0.17173 0.28274 0.0
C400 C 0.64035 0.16064 0.22605 0.0
H401 H 0.62784 0.1723 0.38614 0.0
H402 H 0.61163 0.18885 0.28037 0.0
C403 C 0.6608 0.13816 0.23127 0.0
C404 C 0.84691 0.63847 0.34309 0.0
C405 C 0.86726 0.66106 0.34832 0.0
H406 H 0.82057 0.6128 0.28002 0.0
C407 C 0.87985 0.67224 0.29162 0.0
H408 H 0.83691 0.62926 0.38578 0.0
C409 C 0.87061 0.66267 0.23091 0.0
C410 C 0.84841 0.64191 0.22569 0.0
H411 H 0.89582 0.68945 0.29399 0.0
H412 H 0.87962 0.67287 0.18822 0.0
C413 C 0.83749 0.62909 0.28238 0.0
C414 C 0.33732 0.87961 0.29257 0.0
C415 C 0.34831 0.86684 0.34927 0.0
H416 H 0.33669 0.8794 0.18918 0.0
C417 C 0.37057 0.84616 0.34403 0.0
H418 H 0.32037 0.89583 0.29495 0.0
C419 C 0.3798 0.8366 0.28332 0.0
C420 C 0.36715 0.84773 0.22663 0.0
H421 H 0.37963 0.83601 0.38672 0.0
H422 H 0.39582 0.81945 0.28094 0.0
C423 C 0.34675 0.87024 0.23186 0.0
C424 C 0.12787 0.67176 0.7826 0.0
C425 C 0.14054 0.66067 0.72591 0.0
H426 H 0.12803 0.67235 0.886 0.0
C427 C 0.16099 0.6382 0.73114 0.0
H428 H 0.11181 0.68888 0.78022 0.0
C429 C 0.17043 0.62885 0.79186 0.0
C430 C 0.15941 0.64158 0.84855 0.0
H431 H 0.17107 0.62906 0.68846 0.0
H432 H 0.18742 0.61266 0.79424 0.0
C433 C 0.13711 0.66222 0.84332 0.0
C434 C 0.37023 0.16244 0.73108 0.0
C435 C 0.34795 0.14177 0.72586 0.0
H436 H 0.39554 0.18912 0.79417 0.0
C437 C 0.33698 0.12898 0.78255 0.0
H438 H 0.37927 0.17261 0.6884 0.0
C439 C 0.34646 0.13831 0.84326 0.0
C440 C 0.36689 0.16081 0.84849 0.0
H441 H 0.32001 0.11275 0.78018 0.0
H442 H 0.33642 0.12912 0.88595 0.0
C443 C 0.37951 0.17197 0.7918 0.0
C444 C 0.83704 0.37957 0.79229 0.0
C445 C 0.84804 0.36682 0.84898 0.0
H446 H 0.83641 0.37937 0.68889 0.0
C447 C 0.87032 0.34615 0.84375 0.0
H448 H 0.82007 0.39578 0.79467 0.0
C449 C 0.87956 0.33661 0.78303 0.0
C450 C 0.8669 0.34772 0.72634 0.0
H451 H 0.87938 0.33601 0.88643 0.0
H452 H 0.89559 0.31947 0.78066 0.0
C453 C 0.84648 0.37022 0.73157 0.0
C454 C 0.62768 0.83628 0.79182 0.0
C455 C 0.64028 0.84747 0.84852 0.0
H456 H 0.62789 0.83565 0.68843 0.0
C457 C 0.66064 0.87003 0.84329 0.0
H458 H 0.61169 0.81908 0.79419 0.0
C459 C 0.67007 0.8794 0.78258 0.0
C460 C 0.65913 0.86659 0.72589 0.0
H461 H 0.67066 0.87925 0.88598 0.0
H462 H 0.68699 0.89568 0.78021 0.0
C463 C 0.63691 0.84584 0.73111 0.0
C464 C 0.84048 0.6369 0.74172 0.0
C465 C 0.86019 0.65811 0.72022 0.0
H466 H 0.81985 0.61665 0.82282 0.0
C467 C 0.87675 0.67325 0.76623 0.0
H468 H 0.82749 0.62478 0.70744 0.0
C469 C 0.87207 0.66888 0.83238 0.0
C470 C 0.8511 0.64893 0.85388 0.0
H471 H 0.89208 0.68975 0.75128 0.0
H472 H 0.88404 0.68203 0.86665 0.0
C473 C 0.83616 0.63218 0.80787 0.0
C474 C 0.33595 0.8764 0.76708 0.0
C475 C 0.35094 0.8597 0.72111 0.0
H476 H 0.32724 0.88378 0.86749 0.0
C477 C 0.37193 0.8398 0.74264 0.0
H478 H 0.31962 0.89189 0.7521 0.0
C479 C 0.37659 0.83544 0.8088 0.0
C480 C 0.35999 0.85054 0.85478 0.0
H481 H 0.38393 0.8267 0.70839 0.0
H482 H 0.39195 0.81898 0.82378 0.0
C483 C 0.34026 0.87169 0.83325 0.0
C484 C 0.13084 0.33532 0.76576 0.0
C485 C 0.14742 0.35045 0.71978 0.0
H486 H 0.12354 0.32653 0.86616 0.0
C487 C 0.16716 0.37161 0.74132 0.0
H488 H 0.11547 0.31886 0.75077 0.0
C489 C 0.1715 0.3763 0.80749 0.0
C490 C 0.15653 0.35957 0.85346 0.0
H491 H 0.18017 0.38373 0.70708 0.0
H492 H 0.18784 0.3918 0.82247 0.0
C493 C 0.13553 0.33966 0.83192 0.0
C494 C 0.66719 0.13671 0.8327 0.0
C495 C 0.64746 0.15787 0.85422 0.0
H496 H 0.68783 0.11649 0.75157 0.0
C497 C 0.63086 0.17296 0.80823 0.0
H498 H 0.68021 0.12462 0.86695 0.0
C499 C 0.63552 0.16859 0.74207 0.0
C500 C 0.65651 0.14868 0.72055 0.0
H501 H 0.6155 0.18942 0.8232 0.0
H502 H 0.62352 0.18169 0.70781 0.0
C503 C 0.67149 0.13198 0.76654 0.0
C504 C 0.84002 0.37168 0.33297 0.0
C505 C 0.85976 0.35052 0.3545 0.0
H506 H 0.81939 0.39188 0.25183 0.0
C507 C 0.87636 0.33542 0.30853 0.0
H508 H 0.827 0.38377 0.36722 0.0
C509 C 0.8717 0.33979 0.24236 0.0
C510 C 0.8507 0.35969 0.22083 0.0
H511 H 0.89172 0.31897 0.3235 0.0
H512 H 0.8837 0.32668 0.20812 0.0
C513 C 0.83572 0.37639 0.26681 0.0
C514 C 0.63095 0.83508 0.26637 0.0
C515 C 0.64751 0.85023 0.2204 0.0
H516 H 0.62364 0.82629 0.36677 0.0
C517 C 0.66721 0.87144 0.24195 0.0
H518 H 0.61562 0.81859 0.25138 0.0
C519 C 0.67152 0.87615 0.30812 0.0
C520 C 0.65657 0.8594 0.35408 0.0
H521 H 0.68021 0.88357 0.20771 0.0
H522 H 0.68782 0.89168 0.32311 0.0
C523 C 0.63561 0.83944 0.33253 0.0
C524 C 0.13105 0.673 0.30811 0.0
C525 C 0.14765 0.65791 0.35408 0.0
H526 H 0.1237 0.68174 0.20769 0.0
C527 C 0.16737 0.63674 0.33256 0.0
H528 H 0.1157 0.68947 0.32308 0.0
C529 C 0.17167 0.63201 0.2664 0.0
C530 C 0.15669 0.64872 0.22041 0.0
H531 H 0.18039 0.62464 0.36681 0.0
H532 H 0.18799 0.61651 0.25142 0.0
C533 C 0.1357 0.66863 0.24194 0.0
C534 C 0.37169 0.16873 0.33254 0.0
C535 C 0.35069 0.14881 0.35404 0.0
H536 H 0.39173 0.18956 0.25143 0.0
C537 C 0.33573 0.13207 0.30804 0.0
H538 H 0.38367 0.18186 0.36681 0.0
C539 C 0.34006 0.13678 0.24189 0.0
C540 C 0.3598 0.15796 0.22038 0.0
H541 H 0.3194 0.11657 0.323 0.0
H542 H 0.32706 0.12467 0.20762 0.0
C543 C 0.37637 0.17308 0.26638 0.0
loop_
_geom_bond_atom_site_label_1
_geom_bond_atom_site_label_2
_geom_bond_distance
_geom_bond_site_symmetry_2
_ccdc_geom_bond_type
O0 Cd1 2.223 . S
O0 C8 1.315 . S
Cd1 O0 2.223 . S
Cd1 O4 2.297 . S
Cd1 O5 2.439 . S
Cd1 O11 2.246 . S
Cd2 O3 2.240 1_556 S
Cd2 O10 2.223 1_556 S
Cd2 O12 2.297 . S
Cd2 O13 2.439 . S
O3 Cd2 2.240 1_554 S
O3 C8 1.279 . S
O4 Cd1 2.297 . S
O4 C6 1.247 . S
O5 Cd1 2.439 . S
O5 C6 1.208 . S
C6 O4 1.247 . S
C6 O5 1.208 . S
C7 O12 1.247 . S
C7 O13 1.208 . S
C8 O0 1.315 . S
C8 O3 1.279 . S
C9 O10 1.315 . S
C9 O11 1.283 . S
O10 Cd2 2.223 1_554 S
O10 C9 1.315 . S
O11 Cd1 2.246 . S
O11 C9 1.283 . S
O12 Cd2 2.297 . S
O12 C7 1.247 . S
O13 Cd2 2.439 . S
O13 C7 1.208 . S
O14 Cd15 2.223 . S
O14 C22 1.315 . S
Cd15 O14 2.223 . S
Cd15 O18 2.297 . S
Cd15 O19 2.439 . S
Cd15 O25 2.246 . S
Cd16 O17 2.240 1_556 S
Cd16 O24 2.223 1_556 S
Cd16 O26 2.297 . S
Cd16 O27 2.439 . S
O17 Cd16 2.240 1_554 S
O17 C22 1.279 . S
O18 Cd15 2.297 . S
O18 C20 1.247 . S
O19 Cd15 2.439 . S
O19 C20 1.208 . S
C20 O18 1.247 . S
C20 O19 1.208 . S
C21 O26 1.247 . S
C21 O27 1.208 . S
C22 O14 1.315 . S
C22 O17 1.279 . S
C23 O24 1.315 . S
C23 O25 1.283 . S
O24 Cd16 2.223 1_554 S
O24 C23 1.315 . S
O25 Cd15 2.246 . S
O25 C23 1.283 . S
O26 Cd16 2.297 . S
O26 C21 1.247 . S
O27 Cd16 2.439 . S
O27 C21 1.208 . S
O28 Cd29 2.223 . S
O28 C36 1.315 . S
Cd29 O28 2.223 . S
Cd29 O32 2.297 . S
Cd29 O33 2.439 . S
Cd29 O39 2.246 . S
Cd30 O31 2.240 1_556 S
Cd30 O38 2.223 1_556 S
Cd30 O40 2.297 . S
Cd30 O41 2.439 . S
O31 Cd30 2.240 1_554 S
O31 C36 1.279 . S
O32 Cd29 2.297 . S
O32 C34 1.247 . S
O33 Cd29 2.439 . S
O33 C34 1.208 . S
C34 O32 1.247 . S
C34 O33 1.208 . S
C35 O40 1.247 . S
C35 O41 1.208 . S
C36 O28 1.315 . S
C36 O31 1.279 . S
C37 O38 1.315 . S
C37 O39 1.283 . S
O38 Cd30 2.223 1_554 S
O38 C37 1.315 . S
O39 Cd29 2.246 . S
O39 C37 1.283 . S
O40 Cd30 2.297 . S
O40 C35 1.247 . S
O41 Cd30 2.439 . S
O41 C35 1.208 . S
O42 Cd43 2.223 . S
O42 C50 1.315 . S
Cd43 O42 2.223 . S
Cd43 O46 2.297 . S
Cd43 O47 2.439 . S
Cd43 O53 2.246 . S
Cd44 O45 2.240 1_556 S
Cd44 O52 2.223 1_556 S
Cd44 O54 2.297 . S
Cd44 O55 2.439 . S
O45 Cd44 2.240 1_554 S
O45 C50 1.279 . S
O46 Cd43 2.297 . S
O46 C48 1.247 . S
O47 Cd43 2.439 . S
O47 C48 1.208 . S
C48 O46 1.247 . S
C48 O47 1.208 . S
C49 O54 1.247 . S
C49 O55 1.208 . S
C50 O42 1.315 . S
C50 O45 1.279 . S
C51 O52 1.315 . S
C51 O53 1.283 . S
O52 Cd44 2.223 1_554 S
O52 C51 1.315 . S
O53 Cd43 2.246 . S
O53 C51 1.283 . S
O54 Cd44 2.297 . S
O54 C49 1.247 . S
O55 Cd44 2.439 . S
O55 C49 1.208 . S
O56 Cd57 2.223 . S
O56 C64 1.315 . S
Cd57 O56 2.223 . S
Cd57 O60 2.297 . S
Cd57 O61 2.439 1_556 S
Cd57 O67 2.240 1_556 S
Cd58 O59 2.240 1_554 S
Cd58 O66 2.223 1_554 S
Cd58 O68 2.297 . S
Cd58 O69 2.439 . S
O59 Cd58 2.240 1_556 S
O59 C64 1.279 . S
O60 Cd57 2.297 . S
O60 C62 1.247 . S
O61 Cd57 2.439 1_554 S
O61 C62 1.208 1_554 S
C62 O60 1.247 . S
C62 O61 1.208 1_556 S
C63 O68 1.247 . S
C63 O69 1.208 . S
C64 O56 1.315 . S
C64 O59 1.279 . S
C65 O66 1.315 1_554 S
C65 O67 1.279 . S
O66 Cd58 2.223 1_556 S
O66 C65 1.315 1_556 S
O67 Cd57 2.240 1_554 S
O67 C65 1.279 . S
O68 Cd58 2.297 . S
O68 C63 1.247 . S
O69 Cd58 2.439 . S
O69 C63 1.208 . S
O70 Cd71 2.223 . S
O70 C78 1.315 . S
Cd71 O70 2.223 . S
Cd71 O74 2.297 . S
Cd71 O75 2.439 1_556 S
Cd71 O81 2.240 1_556 S
Cd72 O73 2.240 1_554 S
Cd72 O80 2.223 1_554 S
Cd72 O82 2.297 . S
Cd72 O83 2.439 . S
O73 Cd72 2.240 1_556 S
O73 C78 1.279 . S
O74 Cd71 2.297 . S
O74 C76 1.247 . S
O75 Cd71 2.439 1_554 S
O75 C76 1.208 1_554 S
C76 O74 1.247 . S
C76 O75 1.208 1_556 S
C77 O82 1.247 . S
C77 O83 1.208 . S
C78 O70 1.315 . S
C78 O73 1.279 . S
C79 O80 1.315 1_554 S
C79 O81 1.279 . S
O80 Cd72 2.223 1_556 S
O80 C79 1.315 1_556 S
O81 Cd71 2.240 1_554 S
O81 C79 1.279 . S
O82 Cd72 2.297 . S
O82 C77 1.247 . S
O83 Cd72 2.439 . S
O83 C77 1.208 . S
O84 Cd85 2.223 . S
O84 C92 1.315 . S
Cd85 O84 2.223 . S
Cd85 O88 2.297 . S
Cd85 O89 2.439 1_556 S
Cd85 O95 2.240 1_556 S
Cd86 O87 2.240 1_554 S
Cd86 O94 2.223 1_554 S
Cd86 O96 2.297 . S
Cd86 O97 2.439 . S
O87 Cd86 2.240 1_556 S
O87 C92 1.279 . S
O88 Cd85 2.297 . S
O88 C90 1.247 . S
O89 Cd85 2.439 1_554 S
O89 C90 1.208 1_554 S
C90 O88 1.247 . S
C90 O89 1.208 1_556 S
C91 O96 1.247 . S
C91 O97 1.208 . S
C92 O84 1.315 . S
C92 O87 1.279 . S
C93 O94 1.315 1_554 S
C93 O95 1.279 . S
O94 Cd86 2.223 1_556 S
O94 C93 1.315 1_556 S
O95 Cd85 2.240 1_554 S
O95 C93 1.279 . S
O96 Cd86 2.297 . S
O96 C91 1.247 . S
O97 Cd86 2.439 . S
O97 C91 1.208 . S
O98 Cd99 2.223 . S
O98 C106 1.315 . S
Cd99 O98 2.223 . S
Cd99 O102 2.297 . S
Cd99 O103 2.439 1_556 S
Cd99 O109 2.240 1_556 S
Cd100 O101 2.240 1_554 S
Cd100 O108 2.223 1_554 S
Cd100 O110 2.297 . S
Cd100 O111 2.439 . S
O101 Cd100 2.240 1_556 S
O101 C106 1.279 . S
O102 Cd99 2.297 . S
O102 C104 1.247 . S
O103 Cd99 2.439 1_554 S
O103 C104 1.208 1_554 S
C104 O102 1.247 . S
C104 O103 1.208 1_556 S
C105 O110 1.247 . S
C105 O111 1.208 . S
C106 O98 1.315 . S
C106 O101 1.279 . S
C107 O108 1.315 1_554 S
C107 O109 1.279 . S
O108 Cd100 2.223 1_556 S
O108 C107 1.315 1_556 S
O109 Cd99 2.240 1_554 S
O109 C107 1.279 . S
O110 Cd100 2.297 . S
O110 C105 1.247 . S
O111 Cd100 2.439 . S
O111 C105 1.208 . S
O112 Cd113 2.223 . S
O112 C120 1.315 . S
Cd113 O112 2.223 . S
Cd113 O116 2.297 . S
Cd113 O117 2.439 . S
Cd113 O123 2.240 . S
Cd114 O115 2.240 . S
Cd114 O122 2.223 . S
Cd114 O124 2.297 . S
Cd114 O125 2.439 . S
O115 Cd114 2.240 . S
O115 C120 1.279 . S
O116 Cd113 2.297 . S
O116 C118 1.247 . S
O117 Cd113 2.439 . S
O117 C118 1.208 . S
C118 O116 1.247 . S
C118 O117 1.208 . S
C119 O124 1.247 . S
C119 O125 1.208 . S
C120 O112 1.315 . S
C120 O115 1.279 . S
C121 O122 1.315 . S
C121 O123 1.279 . S
O122 Cd114 2.223 . S
O122 C121 1.315 . S
O123 Cd113 2.240 . S
O123 C121 1.279 . S
O124 Cd114 2.297 . S
O124 C119 1.247 . S
O125 Cd114 2.439 . S
O125 C119 1.208 . S
O126 Cd127 2.223 . S
O126 C134 1.315 . S
Cd127 O126 2.223 . S
Cd127 O130 2.297 . S
Cd127 O131 2.439 . S
Cd127 O137 2.240 . S
Cd128 O129 2.240 . S
Cd128 O136 2.223 . S
Cd128 O138 2.297 . S
Cd128 O139 2.439 . S
O129 Cd128 2.240 . S
O129 C134 1.279 . S
O130 Cd127 2.297 . S
O130 C132 1.247 . S
O131 Cd127 2.439 . S
O131 C132 1.208 . S
C132 O130 1.247 . S
C132 O131 1.208 . S
C133 O138 1.247 . S
C133 O139 1.208 . S
C134 O126 1.315 . S
C134 O129 1.279 . S
C135 O136 1.315 . S
C135 O137 1.279 . S
O136 Cd128 2.223 . S
O136 C135 1.315 . S
O137 Cd127 2.240 . S
O137 C135 1.279 . S
O138 Cd128 2.297 . S
O138 C133 1.247 . S
O139 Cd128 2.439 . S
O139 C133 1.208 . S
O140 Cd141 2.223 . S
O140 C148 1.315 . S
Cd141 O140 2.223 . S
Cd141 O144 2.297 . S
Cd141 O145 2.439 . S
Cd141 O151 2.240 . S
Cd142 O143 2.240 . S
Cd142 O150 2.223 . S
Cd142 O152 2.297 . S
Cd142 O153 2.439 . S
O143 Cd142 2.240 . S
O143 C148 1.279 . S
O144 Cd141 2.297 . S
O144 C146 1.247 . S
O145 Cd141 2.439 . S
O145 C146 1.208 . S
C146 O144 1.247 . S
C146 O145 1.208 . S
C147 O152 1.247 . S
C147 O153 1.208 . S
C148 O140 1.315 . S
C148 O143 1.279 . S
C149 O150 1.315 . S
C149 O151 1.279 . S
O150 Cd142 2.223 . S
O150 C149 1.315 . S
O151 Cd141 2.240 . S
O151 C149 1.279 . S
O152 Cd142 2.297 . S
O152 C147 1.247 . S
O153 Cd142 2.439 . S
O153 C147 1.208 . S
O154 Cd155 2.223 . S
O154 C162 1.315 . S
Cd155 O154 2.223 . S
Cd155 O158 2.297 . S
Cd155 O159 2.439 . S
Cd155 O165 2.240 . S
Cd156 O157 2.240 . S
Cd156 O164 2.223 . S
Cd156 O166 2.297 . S
Cd156 O167 2.439 . S
O157 Cd156 2.240 . S
O157 C162 1.279 . S
O158 Cd155 2.297 . S
O158 C160 1.247 . S
O159 Cd155 2.439 . S
O159 C160 1.208 . S
C160 O158 1.247 . S
C160 O159 1.208 . S
C161 O166 1.247 . S
C161 O167 1.208 . S
C162 O154 1.315 . S
C162 O157 1.279 . S
C163 O164 1.315 . S
C163 O165 1.279 . S
O164 Cd156 2.223 . S
O164 C163 1.315 . S
O165 Cd155 2.240 . S
O165 C163 1.279 . S
O166 Cd156 2.297 . S
O166 C161 1.247 . S
O167 Cd156 2.439 . S
O167 C161 1.208 . S
O168 Cd169 2.223 . S
O168 C176 1.315 . S
Cd169 O168 2.223 . S
Cd169 O172 2.297 . S
Cd169 O173 2.439 . S
Cd169 O179 2.240 . S
Cd170 O171 2.240 . S
Cd170 O178 2.223 . S
Cd170 O180 2.297 . S
Cd170 O181 2.439 . S
O171 Cd170 2.240 . S
O171 C176 1.279 . S
O172 Cd169 2.297 . S
O172 C174 1.247 . S
O173 Cd169 2.439 . S
O173 C174 1.208 . S
C174 O172 1.247 . S
C174 O173 1.208 . S
C175 O180 1.247 . S
C175 O181 1.208 . S
C176 O168 1.315 . S
C176 O171 1.279 . S
C177 O178 1.315 . S
C177 O179 1.279 . S
O178 Cd170 2.223 . S
O178 C177 1.315 . S
O179 Cd169 2.240 . S
O179 C177 1.279 . S
O180 Cd170 2.297 . S
O180 C175 1.247 . S
O181 Cd170 2.439 . S
O181 C175 1.208 . S
O182 Cd183 2.223 . S
O182 C190 1.315 . S
Cd183 O182 2.223 . S
Cd183 O186 2.297 . S
Cd183 O187 2.439 . S
Cd183 O193 2.240 . S
Cd184 O185 2.240 . S
Cd184 O192 2.223 . S
Cd184 O194 2.297 . S
Cd184 O195 2.439 . S
O185 Cd184 2.240 . S
O185 C190 1.279 . S
O186 Cd183 2.297 . S
O186 C188 1.247 . S
O187 Cd183 2.439 . S
O187 C188 1.208 . S
C188 O186 1.247 . S
C188 O187 1.208 . S
C189 O194 1.247 . S
C189 O195 1.208 . S
C190 O182 1.315 . S
C190 O185 1.279 . S
C191 O192 1.315 . S
C191 O193 1.279 . S
O192 Cd184 2.223 . S
O192 C191 1.315 . S
O193 Cd183 2.240 . S
O193 C191 1.279 . S
O194 Cd184 2.297 . S
O194 C189 1.247 . S
O195 Cd184 2.439 . S
O195 C189 1.208 . S
O196 Cd197 2.223 . S
O196 C204 1.315 . S
Cd197 O196 2.223 . S
Cd197 O200 2.297 . S
Cd197 O201 2.439 . S
Cd197 O207 2.240 . S
Cd198 O199 2.240 . S
Cd198 O206 2.223 . S
Cd198 O208 2.297 . S
Cd198 O209 2.439 . S
O199 Cd198 2.240 . S
O199 C204 1.279 . S
O200 Cd197 2.297 . S
O200 C202 1.247 . S
O201 Cd197 2.439 . S
O201 C202 1.208 . S
C202 O200 1.247 . S
C202 O201 1.208 . S
C203 O208 1.247 . S
C203 O209 1.208 . S
C204 O196 1.315 . S
C204 O199 1.279 . S
C205 O206 1.315 . S
C205 O207 1.279 . S
O206 Cd198 2.223 . S
O206 C205 1.315 . S
O207 Cd197 2.240 . S
O207 C205 1.279 . S
O208 Cd198 2.297 . S
O208 C203 1.247 . S
O209 Cd198 2.439 . S
O209 C203 1.208 . S
O210 Cd211 2.223 . S
O210 C218 1.315 . S
Cd211 O210 2.223 . S
Cd211 O214 2.297 . S
Cd211 O215 2.439 . S
Cd211 O221 2.240 . S
Cd212 O213 2.240 . S
Cd212 O220 2.223 . S
Cd212 O222 2.297 . S
Cd212 O223 2.439 . S
O213 Cd212 2.240 . S
O213 C218 1.279 . S
O214 Cd211 2.297 . S
O214 C216 1.247 . S
O215 Cd211 2.439 . S
O215 C216 1.208 . S
C216 O214 1.247 . S
C216 O215 1.208 . S
C217 O222 1.247 . S
C217 O223 1.208 . S
C218 O210 1.315 . S
C218 O213 1.279 . S
C219 O220 1.315 . S
C219 O221 1.279 . S
O220 Cd212 2.223 . S
O220 C219 1.315 . S
O221 Cd211 2.240 . S
O221 C219 1.279 . S
O222 Cd212 2.297 . S
O222 C217 1.247 . S
O223 Cd212 2.439 . S
O223 C217 1.208 . S
C224 C225 1.387 1_554 S
C224 H228 0.950 1_554 S
C224 C233 1.390 . S
C225 C224 1.387 1_556 S
C225 C227 1.387 1_556 S
H226 C233 0.950 . S
C227 C225 1.387 1_554 S
C227 C229 1.390 . S
C227 H231 0.950 1_554 S
H228 C224 0.950 1_556 S
C229 C227 1.390 . S
C229 C230 1.387 . S
C229 H232 0.950 . S
C230 C229 1.387 . S
C230 C233 1.387 . S
H231 C227 0.950 1_556 S
H232 C229 0.950 . S
C233 C224 1.390 . S
C233 H226 0.950 . S
C233 C230 1.387 . S
C234 C235 1.387 1_554 S
C234 H238 0.950 1_554 S
C234 C243 1.390 . S
C235 C234 1.387 1_556 S
C235 C237 1.387 1_556 S
H236 C243 0.950 . S
C237 C235 1.387 1_554 S
C237 C239 1.390 . S
C237 H241 0.950 1_554 S
H238 C234 0.950 1_556 S
C239 C237 1.390 . S
C239 C240 1.387 . S
C239 H242 0.950 . S
C240 C239 1.387 . S
C240 C243 1.387 . S
H241 C237 0.950 1_556 S
H242 C239 0.950 . S
C243 C234 1.390 . S
C243 H236 0.950 . S
C243 C240 1.387 . S
C244 C245 1.387 1_554 S
C244 H248 0.950 1_554 S
C244 C253 1.390 . S
C245 C244 1.387 1_556 S
C245 C247 1.387 1_556 S
H246 C253 0.950 . S
C247 C245 1.387 1_554 S
C247 C249 1.390 . S
C247 H251 0.950 1_554 S
H248 C244 0.950 1_556 S
C249 C247 1.390 . S
C249 C250 1.387 . S
C249 H252 0.950 . S
C250 C249 1.387 . S
C250 C253 1.387 . S
H251 C247 0.950 1_556 S
H252 C249 0.950 . S
C253 C244 1.390 . S
C253 H246 0.950 . S
C253 C250 1.387 . S
C254 C255 1.387 1_554 S
C254 H258 0.950 1_554 S
C254 C263 1.390 . S
C255 C254 1.387 1_556 S
C255 C257 1.387 1_556 S
H256 C263 0.950 . S
C257 C255 1.387 1_554 S
C257 C259 1.390 . S
C257 H261 0.950 1_554 S
H258 C254 0.950 1_556 S
C259 C257 1.390 . S
C259 C260 1.387 . S
C259 H262 0.950 . S
C260 C259 1.387 . S
C260 C263 1.387 . S
H261 C257 0.950 1_556 S
H262 C259 0.950 . S
C263 C254 1.390 . S
C263 H256 0.950 . S
C263 C260 1.387 . S
C264 C265 1.387 . S
C264 H268 0.950 . S
C264 C273 1.390 1_545 S
C265 C264 1.387 . S
C265 C267 1.387 . S
H266 C273 0.950 . S
C267 C265 1.387 . S
C267 C269 1.390 1_545 S
C267 H271 0.950 . S
H268 C264 0.950 . S
C269 C267 1.390 1_565 S
C269 C270 1.387 . S
C269 H272 0.950 . S
C270 C269 1.387 . S
C270 C273 1.387 . S
H271 C267 0.950 . S
H272 C269 0.950 . S
C273 C264 1.390 1_565 S
C273 H266 0.950 . S
C273 C270 1.387 . S
C274 C275 1.387 . S
C274 H278 0.950 . S
C274 C283 1.390 1_655 S
C275 C274 1.387 . S
C275 C277 1.387 . S
H276 C283 0.950 . S
C277 C275 1.387 . S
C277 C279 1.390 1_655 S
C277 H281 0.950 . S
H278 C274 0.950 . S
C279 C277 1.390 1_455 S
C279 C280 1.387 . S
C279 H282 0.950 . S
C280 C279 1.387 . S
C280 C283 1.387 . S
H281 C277 0.950 . S
H282 C279 0.950 . S
C283 C274 1.390 1_455 S
C283 H276 0.950 . S
C283 C280 1.387 . S
C284 C285 1.387 . S
C284 H288 0.950 . S
C284 C293 1.390 1_545 S
C285 C284 1.387 . S
C285 C287 1.387 . S
H286 C293 0.950 . S
C287 C285 1.387 . S
C287 C289 1.390 1_545 S
C287 H291 0.950 . S
H288 C284 0.950 . S
C289 C287 1.390 1_565 S
C289 C290 1.387 . S
C289 H292 0.950 . S
C290 C289 1.387 . S
C290 C293 1.387 . S
H291 C287 0.950 . S
H292 C289 0.950 . S
C293 C284 1.390 1_565 S
C293 H286 0.950 . S
C293 C290 1.387 . S
C294 C295 1.387 . S
C294 H298 0.950 . S
C294 C303 1.390 1_455 S
C295 C294 1.387 . S
C295 C297 1.387 . S
H296 C303 0.950 . S
C297 C295 1.387 . S
C297 C299 1.390 1_455 S
C297 H301 0.950 . S
H298 C294 0.950 . S
C299 C297 1.390 1_655 S
C299 C300 1.387 . S
C299 H302 0.950 . S
C300 C299 1.387 . S
C300 C303 1.387 . S
H301 C297 0.950 . S
H302 C299 0.950 . S
C303 C294 1.390 1_655 S
C303 H296 0.950 . S
C303 C300 1.387 . S
C304 C305 1.387 . S
C304 H308 0.950 . S
C304 C313 1.390 . S
C305 C304 1.387 . S
C305 C307 1.387 1_554 S
H306 C313 0.950 . S
C307 C305 1.387 1_556 S
C307 C309 1.390 . S
C307 H311 0.950 . S
H308 C304 0.950 . S
C309 C307 1.390 . S
C309 C310 1.387 1_556 S
C309 H312 0.950 . S
C310 C309 1.387 1_554 S
C310 C313 1.387 . S
H311 C307 0.950 . S
H312 C309 0.950 . S
C313 C304 1.390 . S
C313 H306 0.950 . S
C313 C310 1.387 . S
C314 C315 1.405 . S
C314 H318 0.950 . S
C314 C323 1.390 . S
C315 C314 1.405 . S
C315 C317 1.373 1_554 S
H316 C323 0.950 . S
C317 C315 1.373 1_556 S
C317 C319 1.390 . S
C317 H321 0.950 . S
H318 C314 0.950 . S
C319 C317 1.390 . S
C319 C320 1.387 1_556 S
C319 H322 0.950 . S
C320 C319 1.387 1_554 S
C320 C323 1.387 . S
H321 C317 0.950 . S
H322 C319 0.950 . S
C323 C314 1.390 . S
C323 H316 0.950 . S
C323 C320 1.387 . S
C324 C325 1.387 1_556 S
C324 H328 0.950 . S
C324 C333 1.390 . S
C325 C324 1.387 1_554 S
C325 C327 1.387 . S
H326 C333 0.950 . S
C327 C325 1.387 . S
C327 C329 1.390 . S
C327 H331 0.950 . S
H328 C324 0.950 . S
C329 C327 1.390 . S
C329 C330 1.403 . S
C329 H332 0.950 . S
C330 C329 1.403 . S
C330 C333 1.374 1_554 S
H331 C327 0.950 . S
H332 C329 0.950 . S
C333 C324 1.390 . S
C333 H326 0.950 . S
C333 C330 1.374 1_556 S
C334 C335 1.405 . S
C334 H338 0.950 . S
C334 C343 1.390 . S
C335 C334 1.405 . S
C335 C337 1.373 1_554 S
H336 C343 0.950 . S
C337 C335 1.373 1_556 S
C337 C339 1.390 . S
C337 H341 0.950 . S
H338 C334 0.950 . S
C339 C337 1.390 . S
C339 C340 1.387 1_556 S
C339 H342 0.950 . S
C340 C339 1.387 1_554 S
C340 C343 1.387 . S
H341 C337 0.950 . S
H342 C339 0.950 . S
C343 C334 1.390 . S
C343 H336 0.950 . S
C343 C340 1.387 . S
C344 C345 1.387 . S
C344 H348 0.950 . S
C344 C353 1.390 . S
C345 C344 1.387 . S
C345 C347 1.387 . S
H346 C353 0.950 . S
C347 C345 1.387 . S
C347 C349 1.390 . S
C347 H351 0.950 . S
H348 C344 0.950 . S
C349 C347 1.390 . S
C349 C350 1.387 . S
C349 H352 0.950 . S
C350 C349 1.387 . S
C350 C353 1.387 . S
H351 C347 0.950 . S
H352 C349 0.950 . S
C353 C344 1.390 . S
C353 H346 0.950 . S
C353 C350 1.387 . S
C354 C355 1.387 . S
C354 H358 0.950 . S
C354 C363 1.390 . S
C355 C354 1.387 . S
C355 C357 1.387 . S
H356 C363 0.950 . S
C357 C355 1.387 . S
C357 C359 1.390 . S
C357 H361 0.950 . S
H358 C354 0.950 . S
C359 C357 1.390 . S
C359 C360 1.387 . S
C359 H362 0.950 . S
C360 C359 1.387 . S
C360 C363 1.387 . S
H361 C357 0.950 . S
H362 C359 0.950 . S
C363 C354 1.390 . S
C363 H356 0.950 . S
C363 C360 1.387 . S
C364 C365 1.387 . S
C364 H368 0.950 . S
C364 C373 1.390 . S
C365 C364 1.387 . S
C365 C367 1.387 . S
H366 C373 0.950 . S
C367 C365 1.387 . S
C367 C369 1.390 . S
C367 H371 0.950 . S
H368 C364 0.950 . S
C369 C367 1.390 . S
C369 C370 1.387 . S
C369 H372 0.950 . S
C370 C369 1.387 . S
C370 C373 1.387 . S
H371 C367 0.950 . S
H372 C369 0.950 . S
C373 C364 1.390 . S
C373 H366 0.950 . S
C373 C370 1.387 . S
C374 C375 1.387 . S
C374 H378 0.950 . S
C374 C383 1.390 . S
C375 C374 1.387 . S
C375 C377 1.387 . S
H376 C383 0.950 . S
C377 C375 1.387 . S
C377 C379 1.390 . S
C377 H381 0.950 . S
H378 C374 0.950 . S
C379 C377 1.390 . S
C379 C380 1.387 . S
C379 H382 0.950 . S
C380 C379 1.387 . S
C380 C383 1.387 . S
H381 C377 0.950 . S
H382 C379 0.950 . S
C383 C374 1.390 . S
C383 H376 0.950 . S
C383 C380 1.387 . S
C384 C385 1.387 . S
C384 H388 0.950 . S
C384 C393 1.390 . S
C385 C384 1.387 . S
C385 C387 1.387 . S
H386 C393 0.950 . S
C387 C385 1.387 . S
C387 C389 1.390 . S
C387 H391 0.950 . S
H388 C384 0.950 . S
C389 C387 1.390 . S
C389 C390 1.387 . S
C389 H392 0.950 . S
C390 C389 1.387 . S
C390 C393 1.387 . S
H391 C387 0.950 . S
H392 C389 0.950 . S
C393 C384 1.390 . S
C393 H386 0.950 . S
C393 C390 1.387 . S
C394 C395 1.387 . S
C394 H398 0.950 . S
C394 C403 1.390 . S
C395 C394 1.387 . S
C395 C397 1.387 . S
H396 C403 0.950 . S
C397 C395 1.387 . S
C397 C399 1.390 . S
C397 H401 0.950 . S
H398 C394 0.950 . S
C399 C397 1.390 . S
C399 C400 1.387 . S
C399 H402 0.950 . S
C400 C399 1.387 . S
C400 C403 1.387 . S
H401 C397 0.950 . S
H402 C399 0.950 . S
C403 C394 1.390 . S
C403 H396 0.950 . S
C403 C400 1.387 . S
C404 C405 1.387 . S
C404 H408 0.950 . S
C404 C413 1.390 . S
C405 C404 1.387 . S
C405 C407 1.387 . S
H406 C413 0.950 . S
C407 C405 1.387 . S
C407 C409 1.390 . S
C407 H411 0.950 . S
H408 C404 0.950 . S
C409 C407 1.390 . S
C409 C410 1.387 . S
C409 H412 0.950 . S
C410 C409 1.387 . S
C410 C413 1.387 . S
H411 C407 0.950 . S
H412 C409 0.950 . S
C413 C404 1.390 . S
C413 H406 0.950 . S
C413 C410 1.387 . S
C414 C415 1.387 . S
C414 H418 0.950 . S
C414 C423 1.390 . S
C415 C414 1.387 . S
C415 C417 1.387 . S
H416 C423 0.950 . S
C417 C415 1.387 . S
C417 C419 1.390 . S
C417 H421 0.950 . S
H418 C414 0.950 . S
C419 C417 1.390 . S
C419 C420 1.387 . S
C419 H422 0.950 . S
C420 C419 1.387 . S
C420 C423 1.387 . S
H421 C417 0.950 . S
H422 C419 0.950 . S
C423 C414 1.390 . S
C423 H416 0.950 . S
C423 C420 1.387 . S
C424 C425 1.387 . S
C424 H428 0.950 . S
C424 C433 1.390 . S
C425 C424 1.387 . S
C425 C427 1.387 . S
H426 C433 0.950 . S
C427 C425 1.387 . S
C427 C429 1.390 . S
C427 H431 0.950 . S
H428 C424 0.950 . S
C429 C427 1.390 . S
C429 C430 1.387 . S
C429 H432 0.950 . S
C430 C429 1.387 . S
C430 C433 1.387 . S
H431 C427 0.950 . S
H432 C429 0.950 . S
C433 C424 1.390 . S
C433 H426 0.950 . S
C433 C430 1.387 . S
C434 C435 1.387 . S
C434 H438 0.950 . S
C434 C443 1.390 . S
C435 C434 1.387 . S
C435 C437 1.387 . S
H436 C443 0.950 . S
C437 C435 1.387 . S
C437 C439 1.390 . S
C437 H441 0.950 . S
H438 C434 0.950 . S
C439 C437 1.390 . S
C439 C440 1.387 . S
C439 H442 0.950 . S
C440 C439 1.387 . S
C440 C443 1.387 . S
H441 C437 0.950 . S
H442 C439 0.950 . S
C443 C434 1.390 . S
C443 H436 0.950 . S
C443 C440 1.387 . S
C444 C445 1.387 . S
C444 H448 0.950 . S
C444 C453 1.390 . S
C445 C444 1.387 . S
C445 C447 1.387 . S
H446 C453 0.950 . S
C447 C445 1.387 . S
C447 C449 1.390 . S
C447 H451 0.950 . S
H448 C444 0.950 . S
C449 C447 1.390 . S
C449 C450 1.387 . S
C449 H452 0.950 . S
C450 C449 1.387 . S
C450 C453 1.387 . S
H451 C447 0.950 . S
H452 C449 0.950 . S
C453 C444 1.390 . S
C453 H446 0.950 . S
C453 C450 1.387 . S
C454 C455 1.387 . S
C454 H458 0.950 . S
C454 C463 1.390 . S
C455 C454 1.387 . S
C455 C457 1.387 . S
H456 C463 0.950 . S
C457 C455 1.387 . S
C457 C459 1.390 . S
C457 H461 0.950 . S
H458 C454 0.950 . S
C459 C457 1.390 . S
C459 C460 1.387 . S
C459 H462 0.950 . S
C460 C459 1.387 . S
C460 C463 1.387 . S
H461 C457 0.950 . S
H462 C459 0.950 . S
C463 C454 1.390 . S
C463 H456 0.950 . S
C463 C460 1.387 . S
C464 C465 1.387 . S
C464 H468 0.950 . S
C464 C473 1.390 . S
C465 C464 1.387 . S
C465 C467 1.387 . S
H466 C473 0.950 . S
C467 C465 1.387 . S
C467 C469 1.390 . S
C467 H471 0.950 . S
H468 C464 0.950 . S
C469 C467 1.390 . S
C469 C470 1.387 . S
C469 H472 0.950 . S
C470 C469 1.387 . S
C470 C473 1.387 . S
H471 C467 0.950 . S
H472 C469 0.950 . S
C473 C464 1.390 . S
C473 H466 0.950 . S
C473 C470 1.387 . S
C474 C475 1.387 . S
C474 H478 0.950 . S
C474 C483 1.390 . S
C475 C474 1.387 . S
C475 C477 1.387 . S
H476 C483 0.950 . S
C477 C475 1.387 . S
C477 C479 1.390 . S
C477 H481 0.950 . S
H478 C474 0.950 . S
C479 C477 1.390 . S
C479 C480 1.387 . S
C479 H482 0.950 . S
C480 C479 1.387 . S
C480 C483 1.387 . S
H481 C477 0.950 . S
H482 C479 0.950 . S
C483 C474 1.390 . S
C483 H476 0.950 . S
C483 C480 1.387 . S
C484 C485 1.387 . S
C484 H488 0.950 . S
C484 C493 1.390 . S
C485 C484 1.387 . S
C485 C487 1.387 . S
H486 C493 0.950 . S
C487 C485 1.387 . S
C487 C489 1.390 . S
C487 H491 0.950 . S
H488 C484 0.950 . S
C489 C487 1.390 . S
C489 C490 1.387 . S
C489 H492 0.950 . S
C490 C489 1.387 . S
C490 C493 1.387 . S
H491 C487 0.950 . S
H492 C489 0.950 . S
C493 C484 1.390 . S
C493 H486 0.950 . S
C493 C490 1.387 . S
C494 C495 1.387 . S
C494 H498 0.950 . S
C494 C503 1.390 . S
C495 C494 1.387 . S
C495 C497 1.387 . S
H496 C503 0.950 . S
C497 C495 1.387 . S
C497 C499 1.390 . S
C497 H501 0.950 . S
H498 C494 0.950 . S
C499 C497 1.390 . S
C499 C500 1.387 . S
C499 H502 0.950 . S
C500 C499 1.387 . S
C500 C503 1.387 . S
H501 C497 0.950 . S
H502 C499 0.950 . S
C503 C494 1.390 . S
C503 H496 0.950 . S
C503 C500 1.387 . S
C504 C505 1.387 . S
C504 H508 0.950 . S
C504 C513 1.390 . S
C505 C504 1.387 . S
C505 C507 1.387 . S
H506 C513 0.950 . S
C507 C505 1.387 . S
C507 C509 1.390 . S
C507 H511 0.950 . S
H508 C504 0.950 . S
C509 C507 1.390 . S
C509 C510 1.387 . S
C509 H512 0.950 . S
C510 C509 1.387 . S
C510 C513 1.387 . S
H511 C507 0.950 . S
H512 C509 0.950 . S
C513 C504 1.390 . S
C513 H506 0.950 . S
C513 C510 1.387 . S
C514 C515 1.387 . S
C514 H518 0.950 . S
C514 C523 1.390 . S
C515 C514 1.387 . S
C515 C517 1.387 . S
H516 C523 0.950 . S
C517 C515 1.387 . S
C517 C519 1.390 . S
C517 H521 0.950 . S
H518 C514 0.950 . S
C519 C517 1.390 . S
C519 C520 1.387 . S
C519 H522 0.950 . S
C520 C519 1.387 . S
C520 C523 1.387 . S
H521 C517 0.950 . S
H522 C519 0.950 . S
C523 C514 1.390 . S
C523 H516 0.950 . S
C523 C520 1.387 . S
C524 C525 1.387 . S
C524 H528 0.950 . S
C524 C533 1.390 . S
C525 C524 1.387 . S
C525 C527 1.387 . S
H526 C533 0.950 . S
C527 C525 1.387 . S
C527 C529 1.390 . S
C527 H531 0.950 . S
H528 C524 0.950 . S
C529 C527 1.390 . S
C529 C530 1.387 . S
C529 H532 0.950 . S
C530 C529 1.387 . S
C530 C533 1.387 . S
H531 C527 0.950 . S
H532 C529 0.950 . S
C533 C524 1.390 . S
C533 H526 0.950 . S
C533 C530 1.387 . S
C534 C535 1.387 . S
C534 H538 0.950 . S
C534 C543 1.390 . S
C535 C534 1.387 . S
C535 C537 1.387 . S
H536 C543 0.950 . S
C537 C535 1.387 . S
C537 C539 1.390 . S
C537 H541 0.950 . S
H538 C534 0.950 . S
C539 C537 1.390 . S
C539 C540 1.387 . S
C539 H542 0.950 . S
C540 C539 1.387 . S
C540 C543 1.387 . S
H541 C537 0.950 . S
H542 C539 0.950 . S
C543 C534 1.390 . S
C543 H536 0.950 . S
C543 C540 1.387 . S
C225 C62 1.601 . S
C230 C6 1.601 . S
C235 C76 1.601 . S
C240 C20 1.601 . S
C245 C90 1.601 . S
C250 C34 1.601 . S
C255 C104 1.602 . S
C260 C48 1.602 . S
C265 C174 1.601 . S
C270 C118 1.601 . S
C275 C188 1.602 . S
C280 C132 1.602 . S
C285 C146 1.601 . S
C290 C202 1.601 . S
C295 C216 1.602 . S
C300 C160 1.602 . S
C305 C9 1.521 . S
C310 C79 1.519 . S
C315 C93 1.520 . S
C320 C23 1.522 . S
C325 C37 1.520 . S
C330 C107 1.522 . S
C335 C65 1.520 . S
C340 C51 1.521 . S
C345 C191 1.522 . S
C350 C121 1.520 . S
C355 C205 1.520 . S
C360 C135 1.522 . S
C365 C149 1.520 . S
C370 C219 1.522 . S
C375 C163 1.520 . S
C380 C177 1.522 . S
C385 C218 1.901 . S
C390 C8 1.901 . S
C395 C176 1.900 . S
C400 C22 1.900 . S
C405 C190 1.899 . S
C410 C36 1.899 . S
C415 C204 1.899 . S
C420 C50 1.899 . S
C425 C134 1.900 . S
C430 C64 1.900 . S
C435 C148 1.899 . S
C440 C78 1.899 . S
C445 C92 1.899 . S
C450 C162 1.899 . S
C455 C106 1.900 . S
C460 C120 1.900 . S
C465 C189 1.107 . S
C470 C35 1.108 . S
C475 C203 1.108 . S
C480 C49 1.107 . S
C485 C217 1.109 . S
C490 C7 1.108 . S
C495 C21 1.107 . S
C500 C175 1.108 . S
C505 C161 1.107 . S
C510 C91 1.108 . S
C515 C105 1.109 . S
C520 C119 1.108 . S
C525 C133 1.109 . S
C530 C63 1.108 . S
C535 C147 1.108 . S
C540 C77 1.109 . S
