# Generated by pormake.
# Topology why, (6)-cn, num edge types: 1
# Building blocks:
#     Node 0, Type 0, BuildingBlock: KUMJIN_clean_sbu_0, # of connection points: 6
#     Node 1, Type 0, BuildingBlock: KUMJIN_clean_sbu_0, # of connection points: 6
#     Node 2, Type 0, BuildingBlock: KUMJIN_clean_sbu_0, # of connection points: 6
#     Node 3, Type 0, BuildingBlock: KUMJIN_clean_sbu_0, # of connection points: 6
#     Node 4, Type 0, BuildingBlock: KUMJIN_clean_sbu_0, # of connection points: 6
#     Node 5, Type 0, BuildingBlock: KUMJIN_clean_sbu_0, # of connection points: 6
#     Node 6, Type 0, BuildingBlock: KUMJIN_clean_sbu_0, # of connection points: 6
#     Node 7, Type 0, BuildingBlock: KUMJIN_clean_sbu_0, # of connection points: 6
#     Node 8, Type 0, BuildingBlock: KUMJIN_clean_sbu_0, # of connection points: 6
#     Node 9, Type 0, BuildingBlock: KUMJIN_clean_sbu_0, # of connection points: 6
#     Node 10, Type 0, BuildingBlock: KUMJIN_clean_sbu_0, # of connection points: 6
#     Node 11, Type 0, BuildingBlock: KUMJIN_clean_sbu_0, # of connection points: 6
#     Node 12, Type 0, BuildingBlock: KUMJIN_clean_sbu_0, # of connection points: 6
#     Node 13, Type 0, BuildingBlock: KUMJIN_clean_sbu_0, # of connection points: 6
#     Node 14, Type 0, BuildingBlock: KUMJIN_clean_sbu_0, # of connection points: 6
#     Node 15, Type 0, BuildingBlock: KUMJIN_clean_sbu_0, # of connection points: 6
#     Edge 16, Type (0, 0), BuildingBlock: TEMPAE_clean_linker_10, # of connection points: 2
#     Edge 17, Type (0, 0), BuildingBlock: TEMPAE_clean_linker_10, # of connection points: 2
#     Edge 18, Type (0, 0), BuildingBlock: TEMPAE_clean_linker_10, # of connection points: 2
#     Edge 19, Type (0, 0), BuildingBlock: TEMPAE_clean_linker_10, # of connection points: 2
#     Edge 20, Type (0, 0), BuildingBlock: TEMPAE_clean_linker_10, # of connection points: 2
#     Edge 21, Type (0, 0), BuildingBlock: TEMPAE_clean_linker_10, # of connection points: 2
#     Edge 22, Type (0, 0), BuildingBlock: TEMPAE_clean_linker_10, # of connection points: 2
#     Edge 23, Type (0, 0), BuildingBlock: TEMPAE_clean_linker_10, # of connection points: 2
#     Edge 24, Type (0, 0), BuildingBlock: TEMPAE_clean_linker_10, # of connection points: 2
#     Edge 25, Type (0, 0), BuildingBlock: TEMPAE_clean_linker_10, # of connection points: 2
#     Edge 26, Type (0, 0), BuildingBlock: TEMPAE_clean_linker_10, # of connection points: 2
#     Edge 27, Type (0, 0), BuildingBlock: TEMPAE_clean_linker_10, # of connection points: 2
#     Edge 28, Type (0, 0), BuildingBlock: TEMPAE_clean_linker_10, # of connection points: 2
#     Edge 29, Type (0, 0), BuildingBlock: TEMPAE_clean_linker_10, # of connection points: 2
#     Edge 30, Type (0, 0), BuildingBlock: TEMPAE_clean_linker_10, # of connection points: 2
#     Edge 31, Type (0, 0), BuildingBlock: TEMPAE_clean_linker_10, # of connection points: 2
#     Edge 32, Type (0, 0), BuildingBlock: TEMPAE_clean_linker_10, # of connection points: 2
#     Edge 33, Type (0, 0), BuildingBlock: TEMPAE_clean_linker_10, # of connection points: 2
#     Edge 34, Type (0, 0), BuildingBlock: TEMPAE_clean_linker_10, # of connection points: 2
#     Edge 35, Type (0, 0), BuildingBlock: TEMPAE_clean_linker_10, # of connection points: 2
#     Edge 36, Type (0, 0), BuildingBlock: TEMPAE_clean_linker_10, # of connection points: 2
#     Edge 37, Type (0, 0), BuildingBlock: TEMPAE_clean_linker_10, # of connection points: 2
#     Edge 38, Type (0, 0), BuildingBlock: TEMPAE_clean_linker_10, # of connection points: 2
#     Edge 39, Type (0, 0), BuildingBlock: TEMPAE_clean_linker_10, # of connection points: 2
#     Edge 40, Type (0, 0), BuildingBlock: TEMPAE_clean_linker_10, # of connection points: 2
#     Edge 41, Type (0, 0), BuildingBlock: TEMPAE_clean_linker_10, # of connection points: 2
#     Edge 42, Type (0, 0), BuildingBlock: TEMPAE_clean_linker_10, # of connection points: 2
#     Edge 43, Type (0, 0), BuildingBlock: TEMPAE_clean_linker_10, # of connection points: 2
#     Edge 44, Type (0, 0), BuildingBlock: TEMPAE_clean_linker_10, # of connection points: 2
#     Edge 45, Type (0, 0), BuildingBlock: TEMPAE_clean_linker_10, # of connection points: 2
#     Edge 46, Type (0, 0), BuildingBlock: TEMPAE_clean_linker_10, # of connection points: 2
#     Edge 47, Type (0, 0), BuildingBlock: TEMPAE_clean_linker_10, # of connection points: 2
#     Edge 48, Type (0, 0), BuildingBlock: TEMPAE_clean_linker_10, # of connection points: 2
#     Edge 49, Type (0, 0), BuildingBlock: TEMPAE_clean_linker_10, # of connection points: 2
#     Edge 50, Type (0, 0), BuildingBlock: TEMPAE_clean_linker_10, # of connection points: 2
#     Edge 51, Type (0, 0), BuildingBlock: TEMPAE_clean_linker_10, # of connection points: 2
#     Edge 52, Type (0, 0), BuildingBlock: TEMPAE_clean_linker_10, # of connection points: 2
#     Edge 53, Type (0, 0), BuildingBlock: TEMPAE_clean_linker_10, # of connection points: 2
#     Edge 54, Type (0, 0), BuildingBlock: TEMPAE_clean_linker_10, # of connection points: 2
#     Edge 55, Type (0, 0), BuildingBlock: TEMPAE_clean_linker_10, # of connection points: 2
#     Edge 56, Type (0, 0), BuildingBlock: TEMPAE_clean_linker_10, # of connection points: 2
#     Edge 57, Type (0, 0), BuildingBlock: TEMPAE_clean_linker_10, # of connection points: 2
#     Edge 58, Type (0, 0), BuildingBlock: TEMPAE_clean_linker_10, # of connection points: 2
#     Edge 59, Type (0, 0), BuildingBlock: TEMPAE_clean_linker_10, # of connection points: 2
#     Edge 60, Type (0, 0), BuildingBlock: TEMPAE_clean_linker_10, # of connection points: 2
#     Edge 61, Type (0, 0), BuildingBlock: TEMPAE_clean_linker_10, # of connection points: 2
#     Edge 62, Type (0, 0), BuildingBlock: TEMPAE_clean_linker_10, # of connection points: 2
#     Edge 63, Type (0, 0), BuildingBlock: TEMPAE_clean_linker_10, # of connection points: 2
# Relax obj value: 0.275
# Max RMSD: 0.228
# Mean RMSD: 0.228
data_MOF--net-why--node1-KUMJIN_clean_sbu_0--edge1-TEMPAE_clean_linker_10
_symmetry_space_group_name_H-M    P1
_symmetry_Int_Tables_number       1
_symmetry_cell_setting            triclinic
loop_
_symmetry_equiv_pos_as_xyz
'x, y, z'
_cell_length_a     49.533367
_cell_length_b     49.46544
_cell_length_c     40.963412
_cell_angle_alpha  90.076184
_cell_angle_beta   90.086187
_cell_angle_gamma 89.998571
loop_
_atom_site_label
_atom_site_type_symbol
_atom_site_fract_x
_atom_site_fract_y
_atom_site_fract_z
_atom_type_partial_charge
Eu0 Eu 0.44984 0.17563 0.03315 0.0
C1 C 0.44318 0.26489 0.11699 0.0
C2 C 0.48182 0.25246 0.15026 0.0
C3 C 0.47069 0.29982 0.14266 0.0
C4 C 0.45993 0.24503 0.12995 0.0
C5 C 0.44838 0.29248 0.12347 0.0
C6 C 0.48725 0.27988 0.15619 0.0
C7 C 0.40812 0.30386 0.09317 0.0
N8 N 0.42151 0.25736 0.09872 0.0
C9 C 0.40358 0.27637 0.08767 0.0
C10 C 0.43076 0.31198 0.11088 0.0
Eu11 Eu 0.41619 0.21018 0.08932 0.0
N12 N 0.45502 0.21857 0.12265 0.0
C13 C 0.47064 0.19872 0.13636 0.0
C14 C 0.49788 0.23215 0.16387 0.0
C15 C 0.49218 0.20519 0.15697 0.0
H16 H 0.38555 0.27015 0.0748 0.0
H17 H 0.50453 0.18931 0.16734 0.0
H18 H 0.50422 0.28588 0.17127 0.0
H19 H 0.39402 0.31874 0.08398 0.0
H20 H 0.46711 0.17781 0.13103 0.0
H21 H 0.48116 0.20027 0.90852 0.0
H22 H 0.51481 0.23709 0.17957 0.0
H23 H 0.40402 0.12876 0.05788 0.0
H24 H 0.48074 0.20395 0.96839 0.0
H25 H 0.37876 0.09067 0.03509 0.0
H26 H 0.47509 0.3209 0.14761 0.0
H27 H 0.45214 0.16663 0.88086 0.0
H28 H 0.41974 0.12795 0.88528 0.0
H29 H 0.43416 0.33332 0.11529 0.0
H30 H 0.393 0.09735 0.91975 0.0
N31 N 0.45094 0.17335 0.975 0.0
C32 C 0.46775 0.18929 0.95677 0.0
C33 C 0.45176 0.16827 0.90722 0.0
C34 C 0.43559 0.15113 0.92597 0.0
C35 C 0.46812 0.18727 0.92274 0.0
C36 C 0.43548 0.15434 0.96023 0.0
H37 H 0.37852 0.08264 0.97552 0.0
N38 N 0.41982 0.14195 1.01223 0.0
C39 C 0.39032 0.10368 0.01912 0.0
C40 C 0.41992 0.13771 0.97949 0.0
C41 C 0.40504 0.12532 0.03204 0.0
C42 C 0.39021 0.09922 0.98552 0.0
C43 C 0.40479 0.11655 0.96518 0.0
O44 O 0.47261 0.13899 0.04551 0.0
O45 O 0.46049 0.20824 0.07235 0.0
O46 O 0.41615 0.23755 0.04391 0.0
O47 O 0.43187 0.20922 1.00282 0.0
O48 O 0.47567 0.21449 0.02686 0.0
O49 O 0.49144 0.17024 0.01717 0.0
O50 O 0.38968 0.23186 0.12325 0.0
O51 O 0.40462 0.18185 0.0465 0.0
O52 O 0.44735 0.14475 0.07856 0.0
O53 O 0.41995 0.16685 0.11423 0.0
O54 O 0.37987 0.21438 0.05429 0.0
O55 O 0.39162 0.18847 0.12498 0.0
C56 C 0.47546 0.22545 0.05537 0.0
C57 C 0.50422 0.12512 1.00526 0.0
C58 C 0.52614 0.11346 0.95384 0.0
C59 C 0.51413 0.13263 0.97442 0.0
C60 C 0.52812 0.08648 0.96402 0.0
C61 C 0.50612 0.09797 0.01502 0.0
C62 C 0.5179 0.07876 0.9944 0.0
C63 C 0.42191 0.23259 0.01281 0.0
C64 C 0.49338 0.14567 0.02794 0.0
C65 C 0.40471 0.11329 0.93114 0.0
C66 C 0.41991 0.13071 0.91153 0.0
C67 C 0.3827 0.19397 0.03464 0.0
C68 C 0.39083 0.21205 0.17519 0.0
C69 C 0.37616 0.2294 0.19564 0.0
C70 C 0.38463 0.23418 0.22808 0.0
C71 C 0.40781 0.22072 0.2397 0.0
C72 C 0.41354 0.19853 0.1877 0.0
C73 C 0.42186 0.20279 0.21975 0.0
C74 C 0.4336 0.14438 0.10682 0.0
C75 C 0.38417 0.2104 0.14012 0.0
H76 H 0.51337 0.15354 0.96664 0.0
H77 H 0.53752 0.07146 0.94849 0.0
H78 H 0.49881 0.09167 0.03874 0.0
H79 H 0.51941 0.05791 1.00216 0.0
H80 H 0.35843 0.2394 0.18594 0.0
H81 H 0.41559 0.22441 0.264 0.0
H82 H 0.42533 0.18511 0.17262 0.0
H83 H 0.43967 0.19262 0.22893 0.0
Eu84 Eu 0.68555 0.7012 0.28728 0.0
C85 C 0.59336 0.69645 0.37036 0.0
C86 C 0.60619 0.73844 0.39705 0.0
C87 C 0.55886 0.72603 0.39314 0.0
C88 C 0.61343 0.71439 0.38053 0.0
C89 C 0.56592 0.70209 0.37686 0.0
C90 C 0.5789 0.74413 0.40318 0.0
C91 C 0.55407 0.65988 0.35071 0.0
N92 N 0.60049 0.67358 0.35406 0.0
C93 C 0.5814 0.65509 0.34471 0.0
C94 C 0.54628 0.68357 0.36665 0.0
Eu95 Eu 0.64709 0.6683 0.34337 0.0
N96 N 0.63979 0.70894 0.3734 0.0
C97 C 0.65965 0.7267 0.38247 0.0
C98 C 0.62653 0.75644 0.40642 0.0
C99 C 0.65334 0.75054 0.39907 0.0
H100 H 0.58745 0.63668 0.33243 0.0
H101 H 0.66916 0.76462 0.40568 0.0
H102 H 0.57306 0.7626 0.41556 0.0
H103 H 0.53903 0.64534 0.34299 0.0
H104 H 0.68028 0.72353 0.37555 0.0
H105 H 0.77392 0.63607 0.27547 0.0
H106 H 0.62172 0.77514 0.41895 0.0
H107 H 0.68412 0.76337 0.32558 0.0
H108 H 0.72538 0.64627 0.28302 0.0
H109 H 0.71506 0.80153 0.33342 0.0
H110 H 0.53789 0.73079 0.39802 0.0
H111 H 0.8073 0.67331 0.27494 0.0
H112 H 0.81709 0.72285 0.28212 0.0
H113 H 0.52504 0.68728 0.37113 0.0
H114 H 0.80091 0.76807 0.29766 0.0
N115 N 0.73151 0.68861 0.28672 0.0
C116 C 0.7399 0.66252 0.28302 0.0
C117 C 0.78606 0.67788 0.27807 0.0
C118 C 0.77735 0.70454 0.28282 0.0
C119 C 0.7673 0.65676 0.27864 0.0
C120 C 0.74952 0.7094 0.28686 0.0
H121 H 0.76301 0.79744 0.31755 0.0
N122 N 0.71357 0.73811 0.30284 0.0
C123 C 0.72231 0.78304 0.32234 0.0
C124 C 0.74027 0.73497 0.29558 0.0
C125 C 0.70467 0.76133 0.31737 0.0
C126 C 0.74937 0.78067 0.31329 0.0
C127 C 0.75884 0.75619 0.30055 0.0
O128 O 0.69058 0.72497 0.24312 0.0
O129 O 0.6485 0.70954 0.31871 0.0
O130 O 0.61876 0.6689 0.29933 0.0
O131 O 0.64879 0.68552 0.26077 0.0
O132 O 0.65716 0.73946 0.28768 0.0
O133 O 0.69366 0.68122 0.24074 0.0
O134 O 0.66832 0.63752 0.37166 0.0
O135 O 0.6759 0.65695 0.30098 0.0
O136 O 0.71506 0.69471 0.33306 0.0
O137 O 0.68874 0.67512 0.37209 0.0
O138 O 0.6429 0.63264 0.30723 0.0
O139 O 0.62664 0.64678 0.3827 0.0
C140 C 0.63855 0.7329 0.30852 0.0
C141 C 0.71811 0.70704 0.2017 0.0
C142 C 0.73558 0.73141 0.15494 0.0
C143 C 0.71552 0.72728 0.17834 0.0
C144 C 0.75907 0.71561 0.15558 0.0
C145 C 0.74115 0.69047 0.20154 0.0
C146 C 0.76174 0.69506 0.17883 0.0
C147 C 0.62487 0.67618 0.26917 0.0
C148 C 0.69588 0.70396 0.22498 0.0
C149 C 0.78641 0.75189 0.29433 0.0
C150 C 0.79564 0.72612 0.28547 0.0
C151 C 0.66377 0.6354 0.28827 0.0
C152 C 0.64095 0.60239 0.39293 0.0
C153 C 0.62824 0.59448 0.42179 0.0
C154 C 0.62082 0.56746 0.42686 0.0
C155 C 0.62636 0.54823 0.40248 0.0
C156 C 0.64655 0.58306 0.36875 0.0
C157 C 0.6393 0.55604 0.37364 0.0
C158 C 0.71304 0.6845 0.36317 0.0
C159 C 0.64709 0.63115 0.38873 0.0
H160 H 0.69755 0.73986 0.17819 0.0
H161 H 0.77485 0.71866 0.13768 0.0
H162 H 0.74321 0.67399 0.21857 0.0
H163 H 0.77958 0.68244 0.17896 0.0
H164 H 0.62345 0.60965 0.44004 0.0
H165 H 0.62076 0.52724 0.40579 0.0
H166 H 0.6563 0.58883 0.34616 0.0
H167 H 0.64355 0.54115 0.35495 0.0
Eu168 Eu 0.15294 0.93646 0.53653 0.0
C169 C 0.17264 0.84576 0.61959 0.0
C170 C 0.13615 0.85375 0.65799 0.0
C171 C 0.15315 0.80819 0.64981 0.0
C172 C 0.15447 0.86353 0.63435 0.0
C173 C 0.17246 0.81805 0.62781 0.0
C174 C 0.13514 0.82599 0.66495 0.0
C175 C 0.21265 0.81217 0.59517 0.0
N176 N 0.19186 0.85585 0.59927 0.0
C177 C 0.21234 0.83978 0.58809 0.0
C178 C 0.19243 0.80118 0.61477 0.0
Eu179 Eu 0.18971 0.90278 0.589 0.0
N180 N 0.15565 0.89042 0.62708 0.0
C181 C 0.13974 0.90848 0.64351 0.0
C182 C 0.11968 0.8722 0.67449 0.0
C183 C 0.12153 0.89966 0.66724 0.0
H184 H 0.22835 0.84829 0.57344 0.0
H185 H 0.10884 0.91409 0.67987 0.0
H186 H 0.12088 0.81816 0.68261 0.0
H187 H 0.22864 0.79944 0.58579 0.0
H188 H 0.14051 0.92968 0.6381 0.0
H189 H 0.12566 0.90849 0.41097 0.0
H190 H 0.10548 0.86546 0.69286 0.0
H191 H 0.19779 0.98381 0.56199 0.0
H192 H 0.12388 0.90629 0.47092 0.0
H193 H 0.22328 1.02184 0.53935 0.0
H194 H 0.15257 0.78693 0.65613 0.0
H195 H 0.15414 0.94282 0.38392 0.0
H196 H 0.18459 0.983 0.389 0.0
H197 H 0.19294 0.77982 0.62057 0.0
H198 H 0.20959 1.01483 0.4239 0.0
N199 N 0.15288 0.93761 0.47821 0.0
C200 C 0.13691 0.92101 0.45951 0.0
C201 C 0.15384 0.9416 0.41033 0.0
C202 C 0.16872 0.95971 0.42944 0.0
C203 C 0.13775 0.92223 0.42548 0.0
C204 C 0.16809 0.95695 0.46375 0.0
H205 H 0.22362 1.0298 0.47981 0.0
N206 N 0.18289 0.97013 0.5161 0.0
C207 C 0.21194 1.00867 0.52328 0.0
C208 C 0.18282 0.97427 0.48332 0.0
C209 C 0.19724 0.98703 0.53609 0.0
C210 C 0.21202 1.01315 0.48969 0.0
C211 C 0.19761 0.99571 0.4692 0.0
O212 O 0.13033 0.97353 0.54742 0.0
O213 O 0.1439 0.90428 0.57664 0.0
O214 O 0.18521 0.8727 0.54663 0.0
O215 O 0.16754 0.90097 0.50698 0.0
O216 O 0.1255 0.89896 0.53243 0.0
O217 O 0.11241 0.94288 0.5172 0.0
O218 O 0.22585 0.92336 0.60757 0.0
O219 O 0.19941 0.93079 0.54498 0.0
O220 O 0.15376 0.96576 0.58339 0.0
O221 O 0.18478 0.94526 0.6159 0.0
O222 O 0.22138 0.89543 0.54938 0.0
O223 O 0.21121 0.88758 0.63156 0.0
C224 C 0.12739 0.88761 0.56059 0.0
C225 C 0.10226 0.98834 0.50372 0.0
C226 C 0.08238 1.0003 0.45096 0.0
C227 C 0.09131 0.98073 0.47333 0.0
C228 C 0.0845 1.02779 0.45918 0.0
C229 C 0.10427 1.01596 0.51143 0.0
C230 C 0.09551 1.03552 0.4892 0.0
C231 C 0.17675 0.8773 0.51647 0.0
C232 C 0.11061 0.96756 0.52769 0.0
C233 C 0.19809 0.99871 0.43513 0.0
C234 C 0.18392 0.98056 0.41528 0.0
C235 C 0.2193 0.91671 0.53109 0.0
C236 C 0.25809 0.89289 0.63041 0.0
C237 C 0.26358 0.87379 0.65472 0.0
C238 C 0.28855 0.86052 0.65609 0.0
C239 C 0.3086 0.86721 0.63327 0.0
C240 C 0.27816 0.89918 0.60743 0.0
C241 C 0.30335 0.88645 0.60906 0.0
C242 C 0.16913 0.96676 0.61036 0.0
C243 C 0.23085 0.90475 0.62918 0.0
H244 H 0.08906 0.95952 0.46727 0.0
H245 H 0.07774 1.04326 0.44235 0.0
H246 H 0.11242 1.02243 0.53471 0.0
H247 H 0.09711 0.05674 0.49538 0.0
H248 H 0.24818 0.86911 0.67267 0.0
H249 H 0.32808 0.85727 0.63386 0.0
H250 H 0.27437 0.91369 0.58817 0.0
H251 H 0.31877 0.89133 0.59131 0.0
Eu252 Eu 0.92233 0.40913 0.78798 0.0
C253 C 1.01243 0.41383 0.86927 0.0
C254 C 0.99872 0.3757 0.90266 0.0
C255 C 1.04637 0.38512 0.89487 0.0
C256 C 0.99203 0.39786 0.88242 0.0
C257 C 1.0398 0.40758 0.87556 0.0
C258 C 1.02591 0.36934 0.90855 0.0
C259 C 1.05258 0.4469 0.84433 0.0
N260 N 1.00567 0.4356 0.85073 0.0
C261 C 1.02531 0.45248 0.83893 0.0
C262 C 0.05987 0.42424 0.8625 0.0
Eu263 Eu 0.95874 0.4428 0.8421 0.0
N264 N 0.96577 0.4036 0.87512 0.0
C265 C 0.94544 0.38853 0.88861 0.0
C266 C 0.97792 0.36022 0.91609 0.0
C267 C 0.95119 0.36672 0.90908 0.0
H268 H 1.01982 0.47043 0.82538 0.0
H269 H 0.93494 0.35478 0.91924 0.0
H270 H 1.03133 0.35217 0.9236 0.0
H271 H 0.06796 0.46018 0.83463 0.0
H272 H 0.92469 0.3926 0.88305 0.0
H273 H 0.94353 0.36968 0.66582 0.0
H274 H 0.98229 0.34309 0.93168 0.0
H275 H 0.87757 0.45921 0.81032 0.0
H276 H 0.94476 0.3702 0.72578 0.0
H277 H 0.84839 0.49246 0.78397 0.0
H278 H 0.06725 0.37994 0.89969 0.0
H279 H 0.91761 0.40447 0.63595 0.0
H280 H 0.88682 0.44449 0.63766 0.0
H281 H 0.08106 0.42002 0.86674 0.0
H282 H 0.86083 0.47743 0.66967 0.0
N283 N 0.92058 0.40568 0.73027 0.0
C284 C 0.93367 0.3858 0.71321 0.0
C285 C 0.91822 0.40494 0.66239 0.0
C286 C 0.90397 0.42457 0.67995 0.0
C287 C 0.9329 0.3853 0.67913 0.0
C288 C 0.90545 0.42441 0.7144 0.0
H289 H 0.8463 0.49526 0.72386 0.0
N290 N 0.8922 0.44217 0.76579 0.0
C291 C 0.86013 0.47863 0.76921 0.0
C292 C 0.89072 0.44298 0.73259 0.0
C293 C 0.87661 0.45932 0.7841 0.0
C294 C 0.85906 0.4802 0.73531 0.0
C295 C 0.87422 0.46215 0.71654 0.0
O296 O 0.90784 0.37336 0.81392 0.0
O297 O 0.95643 0.39857 0.82489 0.0
O298 O 0.98514 0.44332 0.79586 0.0
O299 O 0.95824 0.4209 0.75774 0.0
O300 O 0.96034 0.38225 0.77942 0.0
O301 O 0.89243 0.38259 0.76581 0.0
O302 O 0.98171 0.46847 0.87587 0.0
O303 O 0.92957 0.45416 0.80061 0.0
O304 O 0.89055 0.41538 0.83118 0.0
O305 O 0.91539 0.43966 0.86781 0.0
O306 O 0.96285 0.4785 0.80601 0.0
O307 O 0.93833 0.46877 0.87748 0.0
C308 C 0.9726 0.38299 0.80729 0.0
C309 C 0.90065 0.33659 0.77784 0.0
C310 C 0.90944 0.30479 0.73352 0.0
C311 C 0.90043 0.33007 0.74443 0.0
C312 C 0.91764 0.28539 0.75652 0.0
C313 C 0.9086 0.31684 0.80053 0.0
C314 C 0.91693 0.29135 0.78985 0.0
C315 C 0.98057 0.43362 0.76615 0.0
C316 C 0.89445 0.3644 0.78866 0.0
C317 C 0.87321 0.4627 0.6823 0.0
C318 C 0.88803 0.44397 0.66406 0.0
C319 C 0.94203 0.47513 0.78717 0.0
C320 C 0.96169 0.4683 0.92778 0.0
C321 C 0.98018 0.48157 0.94822 0.0
C322 C 0.98413 0.47292 0.98071 0.0
C323 C 0.96886 0.45095 0.99239 0.0
C324 C 0.94633 0.4468 0.94037 0.0
C325 C 0.9499 0.43828 0.97245 0.0
C326 C 0.89182 0.42786 0.86019 0.0
C327 C 0.96054 0.47506 0.89272 0.0
H328 H 0.89426 0.34503 0.72663 0.0
H329 H 0.92444 0.26559 0.74873 0.0
H330 H 0.90883 0.32126 0.82644 0.0
H331 H 0.92322 0.27629 0.80744 0.0
H332 H 0.99162 0.4984 0.93851 0.0
H333 H 0.97183 0.4431 0.01678 0.0
H334 H 0.93193 0.43608 0.92541 0.0
H335 H 0.93829 0.42141 0.9817 0.0
Eu336 Eu 0.68841 0.90411 0.92665 0.0
C337 C 0.68405 0.97435 0.03654 0.0
C338 C 0.66555 0.96217 0.08945 0.0
C339 C 0.69894 0.99791 0.08572 0.0
C340 C 0.66696 0.95841 0.0553 0.0
C341 C 0.70034 0.99419 0.05179 0.0
C342 C 0.68166 0.98191 0.10449 0.0
C343 C 0.71915 1.00484 0.99914 0.0
N344 N 0.68541 0.97002 1.00373 0.0
C345 C 0.70269 0.98509 0.98502 0.0
C346 C 0.71793 1.00948 0.03262 0.0
Eu347 Eu 0.65491 0.93682 0.9826 0.0
N348 N 0.65136 0.93956 0.0402 0.0
C349 C 0.63346 0.92435 0.05776 0.0
C350 C 0.64771 0.94621 0.10754 0.0
C351 C 0.63151 0.92731 0.09159 0.0
H352 H 0.70467 0.98155 0.9592 0.0
H353 H 0.61729 0.9152 0.10528 0.0
H354 H 0.68085 0.98504 0.13066 0.0
H355 H 0.73291 1.0164 0.98413 0.0
H356 H 0.6202 0.91016 0.04582 0.0
H357 H 0.59641 0.92152 0.85353 0.0
H358 H 0.64603 0.94856 0.13377 0.0
H359 H 0.72575 0.84773 0.93267 0.0
H360 H 0.63505 0.93496 0.88711 0.0
H361 H 0.72125 0.79891 0.92028 0.0
H362 H 0.71133 1.01301 0.09773 0.0
H363 H 0.58812 0.87329 0.8416 0.0
H364 H 0.60227 0.8251 0.84759 0.0
H365 H 0.73081 1.02476 0.04348 0.0
H366 H 0.63554 0.7918 0.86648 0.0
N367 N 0.64967 0.89477 0.8939 0.0
C368 C 0.63247 0.9139 0.8815 0.0
C369 C 0.60555 0.87906 0.85602 0.0
C370 C 0.62346 0.85957 0.86795 0.0
C371 C 0.61019 0.90631 0.86266 0.0
C372 C 0.64588 0.86807 0.88671 0.0
H373 H 0.68002 0.78188 0.89302 0.0
N374 N 0.68696 0.85765 0.91401 0.0
C375 C 0.70513 0.81273 0.91401 0.0
C376 C 0.66472 0.84906 0.89749 0.0
C377 C 0.70756 0.84024 0.92114 0.0
C378 C 0.6818 0.80322 0.89865 0.0
C379 C 0.66148 0.82145 0.88965 0.0
O380 O 0.72214 0.92524 0.90334 0.0
O381 O 0.70014 0.93115 0.97058 0.0
O382 O 0.65992 0.97008 0.94017 0.0
O383 O 0.68172 0.9463 0.90053 0.0
O384 O 0.72341 0.89723 0.96305 0.0
O385 O 0.70748 0.88777 0.88306 0.0
O386 O 0.61851 0.94931 0.95623 0.0
O387 O 0.64407 0.90375 0.94482 0.0
O388 O 0.68797 0.87437 0.96879 0.0
O389 O 0.67002 0.90022 1.01108 0.0
O390 O 0.63008 0.89755 0.99114 0.0
O391 O 0.62617 0.96435 1.00498 0.0
C392 C 0.72101 0.9176 0.98291 0.0
C393 C 0.75403 0.89495 0.87964 0.0
C394 C 0.78401 0.86244 0.85349 0.0
C395 C 0.75886 0.87527 0.85581 0.0
C396 C 0.80491 0.87031 0.8747 0.0
C397 C 0.77497 0.90252 0.90094 0.0
C398 C 0.80035 0.8903 0.89827 0.0
C399 C 0.67064 0.96958 0.91006 0.0
C400 C 0.72648 0.90579 0.88252 0.0
C401 C 0.63853 0.81296 0.87232 0.0
C402 C 0.61962 0.83195 0.86147 0.0
C403 C 0.62962 0.88648 0.96251 0.0
C404 C 0.58111 0.95297 0.99218 0.0
C405 C 0.57431 0.95315 0.02547 0.0
C406 C 0.54944 0.94302 0.03623 0.0
C407 C 0.53087 0.93323 0.01305 0.0
C408 C 0.56224 0.94329 0.96936 0.0
C409 C 0.53724 0.93353 0.97982 0.0
C410 C 0.68132 0.87771 0.99987 0.0
C411 C 0.60839 0.96142 0.98179 0.0
H412 H 0.74275 0.8697 0.83912 0.0
H413 H 0.82454 0.86072 0.87343 0.0
H414 H 0.77172 0.91757 0.91974 0.0
H415 H 0.81643 0.89611 0.91478 0.0
H416 H 0.58874 0.9604 0.04333 0.0
H417 H 0.51137 0.92558 0.02057 0.0
H418 H 0.56693 0.94293 0.94354 0.0
H419 H 0.52283 0.92598 0.96214 0.0
Eu420 Eu 0.4528 0.44196 0.68491 0.0
C421 C 0.38181 0.44079 0.78991 0.0
C422 C 0.39685 0.42739 0.84387 0.0
C423 C 0.36111 0.46064 0.83823 0.0
C424 C 0.3983 0.42515 0.80954 0.0
C425 C 0.36236 0.45804 0.80414 0.0
C426 C 0.37851 0.44555 0.85805 0.0
C427 C 0.3465 0.46874 0.74996 0.0
N428 N 0.38406 0.43847 0.75697 0.0
C429 C 0.36657 0.45203 0.73698 0.0
C430 C 0.34445 0.47187 0.7837 0.0
Eu431 Eu 0.41611 0.40673 0.7369 0.0
N432 N 0.41525 0.4072 0.79516 0.0
C433 C 0.43033 0.38988 0.81394 0.0
C434 C 0.41355 0.41098 0.863 0.0
C435 C 0.43023 0.39201 0.84794 0.0
H436 H 0.36803 0.45027 0.71092 0.0
H437 H 0.44282 0.37881 0.86252 0.0
H438 H 0.37719 0.44761 0.88434 0.0
H439 H 0.33281 0.47942 0.7339 0.0
H440 H 0.44329 0.37506 0.80259 0.0
H441 H 0.44074 0.35799 0.59767 0.0
H442 H 0.41322 0.41233 0.8894 0.0
H443 H 0.50932 0.47674 0.70372 0.0
H444 H 0.42515 0.39427 0.63372 0.0
H445 H 0.55873 0.47135 0.69806 0.0
H446 H 0.34658 0.47408 0.84952 0.0
H447 H 0.48949 0.3486 0.59216 0.0
H448 H 0.53702 0.3601 0.60724 0.0
H449 H 0.32907 0.48507 0.79369 0.0
H450 H 0.56897 0.39019 0.63528 0.0
N451 N 0.4646 0.40603 0.6489 0.0
C452 C 0.44646 0.39096 0.63142 0.0
C453 C 0.48279 0.36491 0.60787 0.0
C454 C 0.50138 0.38088 0.6249 0.0
C455 C 0.45526 0.37014 0.61094 0.0
C456 C 0.49166 0.40187 0.64515 0.0
H457 H 0.57726 0.43186 0.66857 0.0
N458 N 0.50021 0.44007 0.67882 0.0
C459 C 0.54523 0.45638 0.68776 0.0
C460 C 0.50986 0.41897 0.66099 0.0
C461 C 0.51732 0.45935 0.69096 0.0
C462 C 0.5556 0.43404 0.67113 0.0
C463 C 0.53792 0.41529 0.65696 0.0
O464 O 0.47275 0.46265 0.64473 0.0
O465 O 0.42325 0.45283 0.72675 0.0
O466 O 0.38831 0.40783 0.68923 0.0
O467 O 0.41043 0.43802 0.65704 0.0
O468 O 0.45872 0.47503 0.72337 0.0
O469 O 0.43384 0.47669 0.66093 0.0
O470 O 0.37743 0.38683 0.72718 0.0
O471 O 0.44895 0.39696 0.69822 0.0
O472 O 0.48006 0.43754 0.73062 0.0
O473 O 0.4487 0.42318 0.76859 0.0
O474 O 0.45329 0.37843 0.74226 0.0
O475 O 0.40796 0.36598 0.75473 0.0
C476 C 0.43679 0.47321 0.7405 0.0
C477 C 0.46548 0.50928 0.64176 0.0
C478 C 0.49766 0.54069 0.61774 0.0
C479 C 0.48554 0.51512 0.61886 0.0
C480 C 0.48889 0.56091 0.63936 0.0
C481 C 0.45707 0.5295 0.66362 0.0
C482 C 0.46869 0.55526 0.66222 0.0
C483 C 0.38833 0.42301 0.66222 0.0
C484 C 0.45475 0.48158 0.64267 0.0
C485 C 0.54749 0.39355 0.63821 0.0
C486 C 0.52929 0.37646 0.62216 0.0
C487 C 0.46523 0.38045 0.71447 0.0
C488 C 0.36235 0.35833 0.76999 0.0
C489 C 0.37007 0.34746 0.80031 0.0
C490 C 0.35058 0.33924 0.82311 0.0
C491 C 0.32309 0.34199 0.8154 0.0
C492 C 0.33473 0.361 0.76277 0.0
C493 C 0.31527 0.35296 0.78543 0.0
C494 C 0.47307 0.43137 0.76098 0.0
C495 C 0.38287 0.36609 0.74552 0.0
H496 H 0.49181 0.49955 0.60179 0.0
H497 H 0.4979 0.58086 0.63889 0.0
H498 H 0.44175 0.52542 0.68179 0.0
H499 H 0.46218 0.57082 0.67906 0.0
H500 H 0.39126 0.34469 0.806 0.0
H501 H 0.30771 0.33572 0.83257 0.0
H502 H 0.32819 0.36914 0.73953 0.0
H503 H 0.29407 0.35511 0.77962 0.0
Eu504 Eu 0.9155 0.20903 0.43467 0.0
C505 C 0.91357 0.13739 0.54031 0.0
C506 C 0.9292 0.15098 0.59422 0.0
C507 C 0.89403 0.11711 0.58911 0.0
C508 C 0.93054 0.15301 0.55984 0.0
C509 C 0.89585 0.11858 0.55498 0.0
C510 C 0.91047 0.13345 0.60866 0.0
C511 C 0.88286 0.10355 0.50119 0.0
N512 N 0.91511 0.13966 0.50719 0.0
C513 C 0.89977 0.12316 0.48767 0.0
C514 C 0.88078 0.10132 0.53498 0.0
Eu515 Eu 0.94823 0.17059 0.48737 0.0
N516 N 0.94924 0.16914 0.54536 0.0
C517 C 0.96781 0.18285 0.5639 0.0
C518 C 0.94727 0.16607 0.61318 0.0
C519 C 0.9668 0.18187 0.59794 0.0
H520 H 0.89979 0.12516 0.46157 0.0
H521 H 0.98124 0.19317 0.61239 0.0
H522 H 0.90908 0.13179 0.63498 0.0
H523 H 0.87093 0.09058 0.4855 0.0
H524 H 0.98321 0.19501 0.55252 0.0
H525 H 1.00351 0.19484 0.35413 0.0
H526 H 0.94675 0.16512 0.6396 0.0
H527 H 0.88154 0.26631 0.45159 0.0
H528 H 0.96632 0.18004 0.38899 0.0
H529 H 0.88774 0.31564 0.44534 0.0
H530 H 0.88022 0.10309 0.60066 0.0
H531 H 1.01277 0.2435 0.34687 0.0
H532 H 1.00093 0.29139 0.35972 0.0
H533 H 0.8673 0.08638 0.54535 0.0
H534 H 0.97032 0.32409 0.38547 0.0
N535 N 0.95319 0.21996 0.40095 0.0
C536 C 0.96922 0.20137 0.38547 0.0
C537 C 0.99588 0.23717 0.36182 0.0
C538 C 0.97934 0.25618 0.37724 0.0
C539 C 0.99071 0.20969 0.36585 0.0
C540 C 0.95759 0.24694 0.39655 0.0
H541 H 0.92802 0.33332 0.41691 0.0
N542 N 0.91851 0.25639 0.42807 0.0
C543 C 0.90271 0.3018 0.43579 0.0
C544 C 0.94017 0.26557 0.41101 0.0
C545 C 0.8993 0.27394 0.43936 0.0
C546 C 0.9255 0.31169 0.41975 0.0
C547 C 0.94431 0.29357 0.40663 0.0
O548 O 0.88132 0.19008 0.40953 0.0
O549 O 0.90291 0.17928 0.47571 0.0
O550 O 0.94155 0.14051 0.44259 0.0
O551 O 0.92155 0.16773 0.40473 0.0
O552 O 0.88218 0.21554 0.47274 0.0
O553 O 0.89543 0.22932 0.39422 0.0
O554 O 0.98473 0.15449 0.46372 0.0
O555 O 0.95948 0.20457 0.45104 0.0
O556 O 0.9183 0.23596 0.48072 0.0
O557 O 0.93608 0.20571 0.51836 0.0
O558 O 0.977 0.20743 0.49589 0.0
O559 O 0.97224 0.13943 0.51089 0.0
C560 C 0.88307 0.1934 0.48967 0.0
C561 C 0.849 0.22161 0.38927 0.0
C562 C 0.81781 0.25324 0.36367 0.0
C563 C 0.84351 0.24157 0.36604 0.0
C564 C 0.79717 0.24419 0.38444 0.0
C565 C 0.82835 0.21293 0.41026 0.0
C566 C 0.8025 0.22415 0.40766 0.0
C567 C 0.93138 0.14327 0.41251 0.0
C568 C 0.87672 0.21113 0.39129 0.0
C569 C 0.96664 0.30266 0.38869 0.0
C570 C 0.98403 0.28403 0.37394 0.0
C571 C 0.97586 0.22018 0.46833 0.0
C572 C 1.01876 0.13618 0.49873 0.0
C573 C 1.02692 0.14501 0.52982 0.0
C574 C 1.05261 0.13844 0.54233 0.0
C575 C 0.07051 0.1238 0.52223 0.0
C576 C 1.03705 0.12197 0.47911 0.0
C577 C 0.06287 0.11604 0.49074 0.0
C578 C 0.92591 0.22943 0.51078 0.0
C579 C 0.99043 0.13852 0.48808 0.0
H580 H 0.85942 0.24805 0.34963 0.0
H581 H 0.77713 0.25287 0.38303 0.0
H582 H 0.83215 0.19769 0.42866 0.0
H583 H 0.78661 0.21742 0.42384 0.0
H584 H 1.01295 0.15646 0.54447 0.0
H585 H 0.0902 0.11767 0.53097 0.0
H586 H 1.03108 0.11478 0.45516 0.0
H587 H 0.07675 0.10467 0.47563 0.0
Eu588 Eu 0.14834 0.66935 0.18489 0.0
C589 C 0.21985 0.67199 0.29203 0.0
C590 C 0.20811 0.69004 0.34543 0.0
C591 C 0.24274 0.65556 0.3409 0.0
C592 C 0.20452 0.68944 0.3112 0.0
C593 C 0.23909 0.65483 0.30693 0.0
C594 C 0.2272 0.67298 0.3601 0.0
C595 C 0.24934 0.63647 0.25386 0.0
N596 N 0.21553 0.67119 0.25917 0.0
C597 C 0.23021 0.65377 0.24008 0.0
C598 C 0.25387 0.63703 0.28739 0.0
Eu599 Eu 0.18386 0.70353 0.23873 0.0
N600 N 0.18644 0.70616 0.29648 0.0
C601 C 0.17188 0.72433 0.31452 0.0
C602 C 0.19261 0.708 0.36399 0.0
C603 C 0.1745 0.72529 0.34845 0.0
H604 H 0.22673 0.6523 0.21418 0.0
H605 H 0.16275 0.73957 0.36254 0.0
H606 H 0.23019 0.67319 0.38631 0.0
H607 H 0.26053 0.62259 0.23855 0.0
H608 H 0.15821 0.73826 0.30283 0.0
H609 H 0.16315 0.75762 0.10473 0.0
H610 H 0.19474 0.70892 0.3903 0.0
H611 H 0.09133 0.63432 0.19942 0.0
H612 H 0.17742 0.72134 0.14129 0.0
H613 H 1.04228 0.63892 0.18982 0.0
H614 H 0.25737 0.64249 0.35264 0.0
H615 H 0.11474 0.76492 0.09338 0.0
H616 H 0.06683 0.75134 0.10257 0.0
H617 H 0.26867 0.62349 0.29798 0.0
H618 H 1.03406 0.7198 0.1264 0.0
N619 N 0.13758 0.70647 0.14992 0.0
C620 C 0.15628 0.72324 0.13586 0.0
C621 C 0.12089 0.74836 0.109 0.0
C622 C 0.10179 0.73119 0.12311 0.0
C623 C 0.14823 0.74429 0.11532 0.0
C624 C 0.1108 0.70987 0.14333 0.0
H625 H 1.02475 0.67785 0.15849 0.0
N626 N 0.10129 0.67079 0.1747 0.0
C627 C 0.05606 0.65401 0.18048 0.0
C628 C 0.0922 0.69188 0.15655 0.0
C629 C 0.08378 0.65154 0.18597 0.0
C630 C 1.04626 0.67602 0.1628 0.0
C631 C 0.06434 0.69509 0.15023 0.0
O632 O 0.12969 0.64364 0.1477 0.0
O633 O 0.17641 0.65797 0.22808 0.0
O634 O 0.21562 0.69673 0.19528 0.0
O635 O 0.1898 0.67643 0.15627 0.0
O636 O 0.14182 0.63554 0.22275 0.0
O637 O 0.17229 0.63981 0.15794 0.0
O638 O 0.19821 0.74045 0.21412 0.0
O639 O 0.15046 0.71397 0.20105 0.0
O640 O 0.12036 0.67145 0.22932 0.0
O641 O 0.14748 0.69155 0.26891 0.0
O642 O 0.14604 0.73093 0.24621 0.0
O643 O 0.21432 0.72898 0.2612 0.0
C644 C 0.16271 0.63774 0.24167 0.0
C645 C 0.14794 0.59987 0.14557 0.0
C646 C 0.12351 0.55951 0.12797 0.0
C647 C 0.13 0.58704 0.12417 0.0
C648 C 0.13623 0.54478 0.15308 0.0
C649 C 0.16076 0.58473 0.17008 0.0
C650 C 0.15497 0.55729 0.17365 0.0
C651 C 0.21385 0.68656 0.16498 0.0
C652 C 0.1514 0.62935 0.14326 0.0
C653 C 0.05538 0.71689 0.1312 0.0
C654 C 0.07405 0.73482 0.11758 0.0
C655 C 0.13409 0.72989 0.21807 0.0
C656 C 0.21558 0.77555 0.24873 0.0
C657 C 0.20872 0.78307 0.28075 0.0
C658 C 0.2155 0.80874 0.29329 0.0
C659 C 0.22799 0.82741 0.27213 0.0
C660 C 0.22759 0.79461 0.22813 0.0
C661 C 0.23347 0.8205 0.23971 0.0
C662 C 0.12464 0.68006 0.25956 0.0
C663 C 0.21415 0.74705 0.23822 0.0
H664 H 0.12087 0.59881 0.10478 0.0
H665 H 0.1314 0.52374 0.15732 0.0
H666 H 0.17482 0.59416 0.18686 0.0
H667 H 0.16458 0.5458 0.19291 0.0
H668 H 0.19875 0.76853 0.29609 0.0
H669 H 0.23425 0.84716 0.28061 0.0
H670 H 0.23327 0.78918 0.20343 0.0
H671 H 0.24318 0.835 0.22382 0.0
Eu672 Eu 0.95133 0.67301 0.5391 0.0
C673 C 0.9359 0.76679 0.61625 0.0
C674 C 0.97549 0.75941 0.65012 0.0
C675 C 0.96067 0.8052 0.63835 0.0
C676 C 0.95408 0.74909 0.63099 0.0
C677 C 0.93873 0.79498 0.62048 0.0
C678 C 0.979 0.78747 0.65311 0.0
C679 C 0.89695 0.80106 0.59078 0.0
N680 N 0.91486 0.7565 0.5989 0.0
C681 C 0.89494 0.77305 0.58719 0.0
C682 C 0.91913 0.81211 0.60708 0.0
Eu683 Eu 0.91505 0.70914 0.59105 0.0
N684 N 0.95066 0.72191 0.62712 0.0
C685 C 0.96663 0.70417 0.64401 0.0
C686 C 0.99269 0.74124 0.66596 0.0
C687 C 0.988 0.71354 0.66325 0.0
H688 H 0.87778 0.76454 0.57447 0.0
H689 H 1.00098 0.69934 0.67581 0.0
H690 H 0.99559 0.79569 0.66726 0.0
H691 H 0.88143 0.81412 0.5809 0.0
H692 H 0.9638 0.68274 0.64177 0.0
H693 H 0.98063 0.69666 0.41343 0.0
H694 H 1.00938 0.74839 0.68076 0.0
H695 H 0.90758 0.62539 0.56567 0.0
H696 H 0.98392 0.69792 0.47348 0.0
H697 H 0.87853 0.58979 0.54321 0.0
H698 H 0.96338 0.82679 0.64141 0.0
H699 H 0.94647 0.6676 0.38675 0.0
H700 H 0.91052 0.63225 0.39218 0.0
H701 H 0.92064 0.83385 0.60981 0.0
H702 H 0.88377 0.60225 0.42738 0.0
N703 N 0.95064 0.6714 0.48096 0.0
C704 C 0.96861 0.6855 0.46213 0.0
C705 C 0.94754 0.66843 0.41315 0.0
C706 C 0.93059 0.65247 0.43242 0.0
C707 C 0.96685 0.68482 0.4281 0.0
C708 C 0.93252 0.65456 0.46674 0.0
H709 H 0.87285 0.58532 0.48348 0.0
N710 N 0.9192 0.64102 0.51942 0.0
C711 C 0.88911 0.60336 0.52695 0.0
C712 C 0.91682 0.63839 0.48653 0.0
C713 C 0.90576 0.62366 0.53964 0.0
C714 C 0.88596 0.6009 0.49325 0.0
C715 C 0.89968 0.61867 0.47257 0.0
O716 O 0.97079 0.63372 0.54713 0.0
O717 O 0.96018 0.7057 0.57828 0.0
O718 O 0.91956 0.73743 0.54698 0.0
O719 O 0.93839 0.70847 0.50864 0.0
O720 O 0.98057 0.70949 0.53521 0.0
O721 O 0.99274 0.66561 0.52349 0.0
O722 O 0.89169 0.72769 0.63027 0.0
O723 O 0.90519 0.68026 0.54803 0.0
O724 O 0.95053 0.64543 0.58707 0.0
O725 O 0.91981 0.66707 0.61901 0.0
O726 O 0.88322 0.71569 0.55107 0.0
O727 O 0.88218 0.6871 0.61451 0.0
C728 C 0.97729 0.72184 0.56265 0.0
C729 C 1.00227 0.6208 0.50628 0.0
C730 C 1.02378 0.61165 0.45385 0.0
C731 C 1.01305 0.62996 0.47653 0.0
C732 C 1.02376 0.58392 0.46093 0.0
C733 C 1.00218 0.59294 0.5129 0.0
C734 C 1.01281 0.57463 0.49027 0.0
C735 C 0.92878 0.73226 0.51728 0.0
C736 C 0.99248 0.64017 0.5311 0.0
C737 C 0.89716 0.61696 0.43849 0.0
C738 C 0.91238 0.63402 0.41845 0.0
C739 C 0.88547 0.69402 0.53344 0.0
C740 C 0.84643 0.71438 0.63449 0.0
C741 C 0.83719 0.72741 0.66258 0.0
C742 C 0.81023 0.73573 0.66527 0.0
C743 C 0.79236 0.73069 0.63927 0.0
C744 C 0.82847 0.70933 0.60863 0.0
C745 C 0.80148 0.71741 0.61117 0.0
C746 C 0.93521 0.64525 0.61398 0.0
C747 C 0.87516 0.70745 0.63279 0.0
H748 H 1.01394 0.65138 0.47124 0.0
H749 H 1.03215 0.56951 0.44378 0.0
H750 H 0.99421 0.58536 0.53574 0.0
H751 H 1.01279 0.55321 0.49565 0.0
H752 H 0.85137 0.73184 0.68209 0.0
H753 H 0.77145 0.73699 0.64071 0.0
H754 H 0.83529 0.69943 0.58654 0.0
H755 H 0.78766 0.71358 0.5912 0.0
Eu756 Eu 0.18551 0.20356 0.78416 0.0
C757 C 0.09156 0.19485 0.8625 0.0
C758 C 0.10109 0.23442 0.89574 0.0
C759 C 0.05463 0.22137 0.88513 0.0
C760 C 0.11021 0.2125 0.87654 0.0
C761 C 0.06363 0.19888 0.86729 0.0
C762 C 0.07329 0.23903 0.89938 0.0
C763 C 0.05533 0.15691 0.83866 0.0
N764 N 0.10066 0.17308 0.84547 0.0
C765 C 0.08314 0.15365 0.83462 0.0
C766 C 1.0455 0.17981 0.85467 0.0
Eu767 Eu 0.14788 0.17031 0.83808 0.0
N768 N 0.13713 0.20813 0.87184 0.0
C769 C 0.15579 0.22427 0.88709 0.0
C770 C 0.12016 0.25117 0.91078 0.0
C771 C 0.14759 0.24596 0.90658 0.0
H772 H 0.09074 0.13583 0.82237 0.0
H773 H 0.16248 0.25887 0.91806 0.0
H774 H 0.06601 0.25605 0.91354 0.0
H775 H 1.0415 0.14175 0.82949 0.0
H776 H 0.17707 0.2213 0.88344 0.0
H777 H 0.16236 0.24022 0.66109 0.0
H778 H 0.11393 0.2682 0.92564 0.0
H779 H 0.22863 0.15231 0.80714 0.0
H780 H 0.16168 0.24091 0.72105 0.0
H781 H 0.25666 0.11786 0.78114 0.0
H782 H 1.03325 0.22497 0.88864 0.0
H783 H 0.18782 0.20474 0.63188 0.0
H784 H 0.21813 0.16444 0.63424 0.0
H785 H 1.02392 0.18223 0.85785 0.0
H786 H 0.24367 0.13149 0.6667 0.0
N787 N 0.18604 0.20563 0.72626 0.0
C788 C 0.17282 0.22516 0.70878 0.0
C789 C 0.18753 0.20484 0.65833 0.0
C790 C 0.20176 0.18542 0.67623 0.0
C791 C 0.17314 0.22489 0.6747 0.0
C792 C 0.20067 0.18629 0.71069 0.0
H793 H 0.25813 0.1141 0.72109 0.0
N794 N 0.21399 0.16898 0.76236 0.0
C795 C 0.24514 0.13176 0.76623 0.0
C796 C 0.21514 0.16765 0.72916 0.0
C797 C 0.22932 0.15173 0.78089 0.0
C798 C 0.24587 0.12966 0.73235 0.0
C799 C 0.23102 0.14782 0.71336 0.0
O800 O 0.20256 0.2393 0.80868 0.0
O801 O 0.15227 0.21447 0.82168 0.0
O802 O 0.12063 0.17253 0.79269 0.0
O803 O 0.14843 0.19363 0.75454 0.0
O804 O 0.14918 0.23306 0.77736 0.0
O805 O 0.21731 0.22701 0.76124 0.0
O806 O 0.16792 0.13686 0.86335 0.0
O807 O 0.1766 0.15884 0.79619 0.0
O808 O 0.21647 0.19563 0.8279 0.0
O809 O 0.18955 0.17676 0.8669 0.0
O810 O 0.14184 0.13635 0.79986 0.0
O811 O 0.12829 0.14978 0.87862 0.0
C812 C 0.13674 0.23142 0.80506 0.0
C813 C 0.22124 0.2734 0.77428 0.0
C814 C 0.21969 0.30748 0.731 0.0
C815 C 0.21303 0.2817 0.74308 0.0
C816 C 0.23367 0.32546 0.75173 0.0
C817 C 0.23486 0.2917 0.79456 0.0
C818 C 0.24077 0.3177 0.78342 0.0
C819 C 0.12546 0.18219 0.76306 0.0
C820 C 0.2186 0.24496 0.78443 0.0
C821 C 0.23176 0.14671 0.67913 0.0
C822 C 0.2172 0.16546 0.66064 0.0
C823 C 0.16314 0.13891 0.78172 0.0
C824 C 0.13781 0.10364 0.88463 0.0
C825 C 0.11745 0.09791 0.90723 0.0
C826 C 0.10709 0.07168 0.91047 0.0
C827 C 0.11777 1.05084 0.89103 0.0
C828 C 0.14835 0.08266 0.86536 0.0
C829 C 0.13831 0.05638 0.86859 0.0
C830 C 0.214 0.186 0.8583 0.0
C831 C 0.14715 0.13177 0.88182 0.0
H832 H 0.20196 0.26775 0.72798 0.0
H833 H 0.23974 0.34529 0.7434 0.0
H834 H 0.24153 0.28565 0.81868 0.0
H835 H 0.25154 0.33164 0.7991 0.0
H836 H 0.1098 0.11404 0.92262 0.0
H837 H 0.11012 1.03039 0.89301 0.0
H838 H 0.16428 0.08654 0.84795 0.0
H839 H 0.14643 1.04027 0.85363 0.0
Eu840 Eu 0.65554 0.43816 0.03621 0.0
C841 C 0.66406 0.34694 0.11539 0.0
C842 C 0.62462 0.35766 0.14813 0.0
C843 C 0.63685 0.31077 0.13865 0.0
C844 C 0.64672 0.36613 0.12888 0.0
C845 C 0.65941 0.3191 0.12059 0.0
C846 C 0.61959 0.32997 0.15249 0.0
C847 C 0.70067 0.30948 0.09138 0.0
N848 N 0.68589 0.35539 0.09808 0.0
C849 C 0.70459 0.33719 0.08697 0.0
C850 C 0.67783 0.30037 0.10794 0.0
Eu851 Eu 0.68955 0.40263 0.08977 0.0
N852 N 0.65132 0.39292 0.12324 0.0
C853 C 0.6353 0.41209 0.1377 0.0
C854 C 0.60801 0.37725 0.16234 0.0
C855 C 0.61347 0.40454 0.15722 0.0
H856 H 0.72246 0.34419 0.0744 0.0
H857 H 0.60065 0.41984 0.16802 0.0
H858 H 0.60245 0.32319 0.1667 0.0
H859 H 0.71529 0.29516 0.08208 0.0
H860 H 0.63843 0.43325 0.13336 0.0
H861 H 0.61499 0.41954 0.91394 0.0
H862 H 0.59086 0.37151 0.17719 0.0
H863 H 0.70652 0.48168 0.05964 0.0
H864 H 0.61859 0.41384 0.97329 0.0
H865 H 0.73557 0.51573 0.03476 0.0
H866 H 0.63283 0.28948 0.14253 0.0
H867 H 0.6447 0.45193 0.88546 0.0
H868 H 0.68093 0.487 0.88852 0.0
H869 H 0.67489 0.27886 0.11141 0.0
H870 H 0.71278 0.51362 0.92139 0.0
N871 N 0.65106 0.44182 0.97875 0.0
C872 C 0.63223 0.42758 0.96129 0.0
C873 C 0.64666 0.44926 0.9116 0.0
C874 C 0.6654 0.46432 0.92962 0.0
C875 C 0.62991 0.43092 0.92755 0.0
C876 C 0.66719 0.46016 0.96368 0.0
H877 H 0.73325 0.52436 0.9755 0.0
N878 N 0.68662 0.47077 0.01516 0.0
C879 C 0.72137 0.50462 0.01976 0.0
C880 C 0.68511 0.4753 0.9824 0.0
C881 C 0.70444 0.48533 0.03385 0.0
C882 C 0.72003 0.50941 0.98633 0.0
C883 C 0.7018 0.49475 0.9672 0.0
O884 O 0.6196 0.45074 0.06334 0.0
O885 O 0.64512 0.40426 0.07321 0.0
O886 O 0.68933 0.37557 0.04422 0.0
O887 O 0.66857 0.40267 1.00515 0.0
O888 O 0.62976 0.39939 0.02731 0.0
O889 O 0.62724 0.46702 0.01532 0.0
O890 O 0.71222 0.3818 0.12794 0.0
O891 O 0.70096 0.43141 0.04761 0.0
O892 O 0.6622 0.47033 0.07931 0.0
O893 O 0.68369 0.44475 0.11763 0.0
O894 O 0.72446 0.39753 0.05301 0.0
O895 O 0.71928 0.42428 0.11934 0.0
C896 C 0.62998 0.38767 0.05551 0.0
C897 C 0.58211 0.45565 0.0277 0.0
C898 C 0.55067 0.44543 0.98331 0.0
C899 C 0.57527 0.45611 0.99435 0.0
C900 C 0.53221 0.43527 1.00628 0.0
C901 C 0.56332 0.44559 0.05027 0.0
C902 C 0.53846 0.43559 0.03955 0.0
C903 C 0.68078 0.38008 0.014 0.0
C904 C 0.6095 0.46367 0.03837 0.0
C905 C 0.70008 0.49882 0.93336 0.0
C906 C 0.68201 0.48359 0.91462 0.0
C907 C 0.72177 0.41849 0.03424 0.0
C908 C 0.75548 0.39811 0.14037 0.0
C909 C 0.7635 0.38479 0.16881 0.0
C910 C 0.79075 0.37872 0.17448 0.0
C911 C 0.81009 0.38614 0.15108 0.0
C912 C 0.7749 0.40577 0.11728 0.0
C913 C 0.80215 0.39975 0.12269 0.0
C914 C 0.67308 0.46869 0.10926 0.0
C915 C 0.72656 0.40284 0.13551 0.0
H916 H 0.58955 0.46381 0.97667 0.0
H917 H 0.51289 0.42723 0.99854 0.0
H918 H 0.56801 0.44503 0.0761 0.0
H919 H 0.52414 0.42771 0.05706 0.0
H920 H 0.7483 0.37854 0.1863 0.0
H921 H 0.83125 0.38157 0.15485 0.0
H922 H 0.76902 0.4162 0.09519 0.0
H923 H 0.81712 0.40554 0.10479 0.0
Eu924 Eu 0.41888 0.90766 0.28583 0.0
C925 C 0.51172 0.91829 0.36377 0.0
C926 C 0.50148 0.88118 0.40052 0.0
C927 C 0.54814 0.89377 0.3906 0.0
C928 C 0.49276 0.90149 0.37866 0.0
C929 C 0.53954 0.91472 0.37 0.0
C930 C 0.52918 0.87718 0.40596 0.0
C931 C 0.54853 0.95438 0.33737 0.0
N932 N 0.50299 0.93893 0.34453 0.0
C933 C 0.52082 0.95742 0.33222 0.0
C934 C 0.55796 0.93278 0.35605 0.0
Eu935 Eu 0.4558 0.94193 0.33666 0.0
N936 N 0.46595 0.90518 0.3723 0.0
C937 C 0.44704 0.88951 0.38767 0.0
C938 C 0.48212 0.8653 0.41626 0.0
C939 C 0.45483 0.86945 0.40973 0.0
H940 H 0.51355 0.97446 0.31823 0.0
H941 H 0.43973 0.85703 0.4215 0.0
H942 H 0.53615 0.86139 0.42224 0.0
H943 H 0.56258 0.96881 0.32714 0.0
H944 H 0.4259 0.89164 0.38239 0.0
H945 H 0.43689 0.86652 0.16351 0.0
H946 H 0.48806 0.84957 0.43321 0.0
H947 H 0.37403 0.95752 0.30929 0.0
H948 H 0.44188 0.86935 0.223 0.0
H949 H 0.33759 0.9838 0.28488 0.0
H950 H 0.56943 0.89061 0.39539 0.0
H951 H 0.40574 0.8974 0.13478 0.0
H952 H 0.371 0.9339 0.13772 0.0
H953 H 0.57946 0.93063 0.36024 0.0
H954 H 0.34322 0.96456 0.17075 0.0
N955 N 0.41497 0.90276 0.22835 0.0
C956 C 0.4287 0.88351 0.21094 0.0
C957 C 0.40817 0.8991 0.161 0.0
C958 C 0.39328 0.91797 0.17898 0.0
C959 C 0.42578 0.88165 0.1771 0.0
C960 C 0.39719 0.91948 0.21313 0.0
H961 H 0.32968 0.9821 0.2254 0.0
N962 N 0.38594 0.93839 0.26472 0.0
C963 C 0.34976 0.97067 0.2697 0.0
C964 C 0.38187 0.93725 0.23183 0.0
C965 C 0.37039 0.95519 0.28356 0.0
C966 C 0.34542 0.96973 0.23612 0.0
C967 C 0.36177 0.95325 0.21668 0.0
O968 O 0.40621 0.87212 0.31367 0.0
O969 O 0.4536 0.89711 0.32197 0.0
O970 O 0.48258 0.93899 0.29042 0.0
O971 O 0.45246 0.92049 0.25307 0.0
O972 O 0.45692 0.88095 0.2764 0.0
O973 O 0.38903 0.87988 0.26605 0.0
O974 O 0.43639 0.97607 0.36142 0.0
O975 O 0.42619 0.95373 0.29523 0.0
O976 O 0.38773 0.91481 0.32907 0.0
O977 O 0.41416 0.93665 0.36617 0.0
O978 O 0.46216 0.97479 0.29804 0.0
O979 O 0.47634 0.96351 0.37582 0.0
C980 C 0.46948 0.88139 0.3041 0.0
C981 C 0.39912 0.83449 0.27885 0.0
C982 C 0.40821 0.80266 0.23465 0.0
C983 C 0.39855 0.82768 0.24555 0.0
C984 C 0.41743 0.78371 0.25764 0.0
C985 C 0.40812 0.81522 0.30156 0.0
C986 C 0.41709 0.78991 0.29094 0.0
C987 C 0.47603 0.93115 0.26038 0.0
C988 C 0.39233 0.86224 0.28929 0.0
C989 C 0.35831 0.95216 0.1827 0.0
C990 C 0.37415 0.93473 0.16389 0.0
C991 C 0.44013 0.97355 0.28093 0.0
C992 C 0.46723 1.00973 0.38022 0.0
C993 C 0.48721 1.01614 0.40311 0.0
C994 C 0.49812 1.04223 0.40485 0.0
C995 C 0.48826 0.06235 0.38381 0.0
C996 C 0.45775 1.02985 0.35891 0.0
C997 C 0.46819 0.0561 0.3609 0.0
C998 C 0.38997 0.92603 0.35861 0.0
C999 C 0.45764 0.98164 0.37894 0.0
H1000 H 0.39161 0.84229 0.22776 0.0
H1001 H 0.42476 0.7641 0.24989 0.0
H1002 H 0.40869 0.81991 0.32739 0.0
H1003 H 0.42419 0.77522 0.30853 0.0
H1004 H 0.49432 1.00063 0.41975 0.0
H1005 H 0.49632 0.08269 0.38477 0.0
H1006 H 0.44248 1.02532 0.34076 0.0
H1007 H 0.46084 0.07159 0.3445 0.0
Eu1008 Eu 0.18566 0.39955 0.43423 0.0
C1009 C 0.18675 0.46767 0.54242 0.0
C1010 C 0.16909 0.45449 0.59542 0.0
C1011 C 0.20725 0.48513 0.59234 0.0
C1012 C 0.16834 0.45303 0.56097 0.0
C1013 C 0.20621 0.48409 0.55812 0.0
C1014 C 0.18874 0.4704 0.61092 0.0
C1015 C 0.2219 0.49827 0.50516 0.0
N1016 N 0.18548 0.46625 0.50922 0.0
C1017 C 0.20227 0.48194 0.4906 0.0
C1018 C 0.22403 0.49921 0.53904 0.0
Eu1019 Eu 0.15152 0.43695 0.4876 0.0
N1020 N 0.14926 0.43797 0.54549 0.0
C1021 C 0.12979 0.42477 0.56302 0.0
C1022 C 0.1498 0.44021 0.6134 0.0
C1023 C 0.12994 0.42546 0.59711 0.0
H1024 H 0.20157 0.48116 0.46438 0.0
H1025 H 0.11465 0.41472 0.61078 0.0
H1026 H 0.18967 0.47161 0.63731 0.0
H1027 H 0.23549 0.51004 0.49017 0.0
H1028 H 0.11415 0.41344 0.55079 0.0
H1029 H 0.09824 0.41922 0.35428 0.0
H1030 H 0.1498 0.44079 0.63984 0.0
H1031 H 0.2155 0.33987 0.45194 0.0
H1032 H 0.13598 0.43141 0.38977 0.0
H1033 H 0.20664 0.29111 0.44447 0.0
H1034 H 0.2222 0.49746 0.6047 0.0
H1035 H 0.08709 0.37123 0.34464 0.0
H1036 H 0.09698 0.32258 0.35531 0.0
H1037 H 0.23931 0.51189 0.55022 0.0
H1038 H 0.12567 0.28796 0.3806 0.0
N1039 N 0.14761 0.39073 0.39987 0.0
C1040 C 0.13228 0.41037 0.38526 0.0
C1041 C 0.10424 0.37643 0.35986 0.0
C1042 C 0.12005 0.35634 0.37435 0.0
C1043 C 0.11046 0.40353 0.36525 0.0
C1044 C 0.14217 0.36413 0.3941 0.0
H1045 H 0.16651 0.27606 0.41347 0.0
N1046 N 0.18021 0.3523 0.42624 0.0
C1047 C 0.19288 0.30588 0.43429 0.0
C1048 C 0.15854 0.34447 0.40816 0.0
C1049 C 0.19775 0.33346 0.43857 0.0
C1050 C 0.17022 0.29748 0.41677 0.0
C1051 C 0.15292 0.31677 0.40313 0.0
O1052 O 0.21117 0.37725 0.39993 0.0
O1053 O 0.19661 0.4289 0.47602 0.0
O1054 O 0.15807 0.46757 0.44322 0.0
O1055 O 0.18158 0.44207 0.40649 0.0
O1056 O 0.22002 0.39477 0.47203 0.0
O1057 O 0.21356 0.42071 0.40194 0.0
O1058 O 0.11487 0.45276 0.46383 0.0
O1059 O 0.14137 0.4029 0.45056 0.0
O1060 O 0.18454 0.3733 0.48048 0.0
O1061 O 0.16201 0.4006 0.51796 0.0
O1062 O 0.12296 0.39994 0.49492 0.0
O1063 O 0.12824 0.46913 0.51009 0.0
C1064 C 0.21699 0.41599 0.49028 0.0
C1065 C 0.25382 0.39653 0.39114 0.0
C1066 C 0.29452 0.37286 0.37331 0.0
C1067 C 0.26652 0.3775 0.37103 0.0
C1068 C 0.30966 0.38827 0.39581 0.0
C1069 C 0.26938 0.4122 0.41264 0.0
C1070 C 0.29717 0.40803 0.41493 0.0
C1071 C 0.17016 0.46589 0.41406 0.0
C1072 C 0.22421 0.3986 0.39048 0.0
C1073 C 0.13043 0.30911 0.3844 0.0
C1074 C 0.11413 0.32883 0.36993 0.0
C1075 C 0.12486 0.3871 0.46744 0.0
C1076 C 0.08162 0.47279 0.49857 0.0
C1077 C 0.0741 0.46604 0.53055 0.0
C1078 C 1.04875 0.47348 0.5432 0.0
C1079 C 1.03043 0.48688 0.52241 0.0
C1080 C 0.06296 0.48584 0.47827 0.0
C1081 C 1.03741 0.49262 0.49009 0.0
C1082 C 0.17441 0.37801 0.50988 0.0
C1083 C 0.10975 0.46959 0.48754 0.0
H1084 H 0.25432 0.36633 0.35368 0.0
H1085 H 0.33109 0.38495 0.39902 0.0
H1086 H 0.26001 0.42741 0.42787 0.0
H1087 H 0.30903 0.4199 0.43191 0.0
H1088 H 0.08834 0.45553 0.5458 0.0
H1089 H 1.01094 0.49356 0.53116 0.0
H1090 H 0.06843 0.49148 0.4536 0.0
H1091 H 1.02322 0.50305 0.47442 0.0
Eu1092 Eu 0.95483 0.94166 0.18126 0.0
C1093 C 0.88253 0.94097 0.28674 0.0
C1094 C 0.89585 0.92654 0.34114 0.0
C1095 C 0.8593 0.95875 0.33466 0.0
C1096 C 0.89886 0.92533 0.30687 0.0
C1097 C 0.86201 0.95721 0.30061 0.0
C1098 C 0.87636 0.94369 0.35487 0.0
C1099 C 0.84865 0.97026 0.24627 0.0
N1100 N 0.88612 0.93983 0.25377 0.0
C1101 C 0.86972 0.95467 0.23363 0.0
C1102 C 0.84468 0.97146 0.27988 0.0
Eu1103 Eu 0.91932 0.90822 0.23523 0.0
N1104 N 0.91675 0.90794 0.29302 0.0
C1105 C 0.93126 0.89042 0.31201 0.0
C1106 C 0.91209 0.91 0.36068 0.0
C1107 C 0.92985 0.89185 0.346 0.0
H1108 H 0.87296 0.95532 0.20774 0.0
H1109 H 0.94229 0.87873 0.36083 0.0
H1110 H 0.87388 0.94494 0.38111 0.0
H1111 H 0.83579 0.98178 0.23004 0.0
H1112 H 0.94448 0.87567 0.301 0.0
H1113 H 0.939 0.85131 0.10445 0.0
H1114 H 0.91063 0.91063 0.38706 0.0
H1115 H 1.01238 0.97656 0.19414 0.0
H1116 H 0.92498 0.88979 0.13784 0.0
H1117 H 0.0615 0.97011 0.18666 0.0
H1118 H 0.84394 0.97144 0.34561 0.0
H1119 H 0.98742 0.8417 0.09624 0.0
H1120 H 1.03549 0.85412 0.10675 0.0
H1121 H 0.82857 0.9839 0.2896 0.0
H1122 H 0.06866 0.8857 0.12987 0.0
N1123 N 0.96504 0.9032 0.14819 0.0
C1124 C 0.94617 0.88673 0.13387 0.0
C1125 C 0.98141 0.85914 0.11052 0.0
C1126 C 1.00071 0.8763 0.12441 0.0
C1127 C 0.95407 0.8645 0.11509 0.0
C1128 C 0.99188 0.89876 0.14292 0.0
H1129 H 0.07853 0.92898 0.1592 0.0
N1130 N 1.00196 0.93891 0.17236 0.0
C1131 C 1.04749 0.95488 0.1781 0.0
C1132 C 1.01076 0.91673 0.15589 0.0
C1133 C 1.01975 0.9584 0.18242 0.0
C1134 C 0.057 0.93163 0.1626 0.0
C1135 C 1.03863 0.91244 0.1508 0.0
O1136 O 0.97465 0.96343 0.14165 0.0
O1137 O 0.92587 0.9537 0.22338 0.0
O1138 O 0.88826 0.91222 0.19025 0.0
O1139 O 0.913 0.93576 0.15304 0.0
O1140 O 0.96089 0.97592 0.21857 0.0
O1141 O 0.93324 0.97266 0.15366 0.0
O1142 O 0.90511 0.87086 0.21202 0.0
O1143 O 0.95296 0.89731 0.19832 0.0
O1144 O 0.98271 0.94137 0.22604 0.0
O1145 O 0.95548 0.92157 0.26539 0.0
O1146 O 0.95765 0.88178 0.24412 0.0
O1147 O 0.89067 0.8819 0.25987 0.0
C1148 C 0.93945 0.97421 0.23663 0.0
C1149 C 0.96039 1.00792 0.1322 0.0
C1150 C 0.98113 1.04293 0.09886 0.0
C1151 C 0.97376 1.01586 0.10378 0.0
C1152 C 0.97485 0.06216 0.12298 0.0
C1153 C 0.95416 1.02723 0.15616 0.0
C1154 C 0.96134 0.0543 0.15142 0.0
C1155 C 0.88956 0.92388 0.16069 0.0
C1156 C 0.95419 0.97914 0.13619 0.0
C1157 C 1.04733 0.88948 0.13361 0.0
C1158 C 1.02844 0.87154 0.12037 0.0
C1159 C 0.96952 0.8821 0.21598 0.0
C1160 C 0.89664 0.83522 0.24974 0.0
C1161 C 0.89439 0.82922 0.28321 0.0
C1162 C 0.89999 0.80315 0.29507 0.0
C1163 C 0.90703 0.78274 0.27269 0.0
C1164 C 0.90351 0.81447 0.22786 0.0
C1165 C 0.90859 0.78838 0.23933 0.0
C1166 C 0.9783 0.93325 0.25641 0.0
C1167 C 0.89183 0.86303 0.23782 0.0
H1168 H 0.97908 1.00066 0.08578 0.0
H1169 H 0.9803 0.08319 0.11981 0.0
H1170 H 0.944 1.02143 0.17846 0.0
H1171 H 0.95657 0.06919 0.16992 0.0
H1172 H 0.88837 0.8449 0.30019 0.0
H1173 H 0.91193 0.76254 0.28096 0.0
H1174 H 0.90511 0.81843 0.20193 0.0
H1175 H 0.91411 0.77255 0.22235 0.0
Eu1176 Eu 0.41515 0.71019 0.93413 0.0
C1177 C 0.41707 0.63897 0.04102 0.0
C1178 C 0.43381 0.65327 0.09416 0.0
C1179 C 0.39941 0.61848 0.09074 0.0
C1180 C 0.43406 0.6552 0.05973 0.0
C1181 C 0.40027 0.61978 0.05654 0.0
C1182 C 0.41595 0.63533 0.10949 0.0
C1183 C 0.3863 0.60404 1.00343 0.0
N1184 N 0.41773 0.64104 1.00784 0.0
C1185 C 0.40226 0.62405 0.98909 0.0
C1186 C 0.38516 0.60199 0.03729 0.0
Eu1187 Eu 0.44907 0.67322 0.9865 0.0
N1188 N 0.45184 0.67178 0.04438 0.0
C1189 C 0.47079 0.68581 0.06199 0.0
C1190 C 0.45212 0.66879 0.11225 0.0
C1191 C 0.4709 0.68487 0.09606 0.0
H1192 H 0.40135 0.62597 0.96301 0.0
H1193 H 0.48566 0.69636 0.1098 0.0
H1194 H 0.41538 0.63376 0.13587 0.0
H1195 H 0.37428 0.59069 0.98831 0.0
H1196 H 0.48582 0.69793 0.04988 0.0
H1197 H 0.50218 0.69302 0.85279 0.0
H1198 H 0.45244 0.6679 0.13867 0.0
H1199 H 0.38331 0.7688 0.95161 0.0
H1200 H 0.46507 0.67954 0.88845 0.0
H1201 H 0.39105 0.81785 0.94491 0.0
H1202 H 0.38631 0.60416 0.10294 0.0
H1203 H 0.51237 0.74134 0.84433 0.0
H1204 H 0.50177 0.78962 0.85642 0.0
H1205 H 0.37236 0.58677 0.04831 0.0
H1206 H 0.47249 0.82336 0.88243 0.0
N1207 N 0.45289 0.71987 0.89984 0.0
C1208 C 0.46836 0.70073 0.88448 0.0
C1209 C 0.4955 0.7356 0.85964 0.0
C1210 C 0.47951 0.75517 0.87488 0.0
C1211 C 0.48982 0.7083 0.86437 0.0
C1212 C 0.45776 0.74669 0.8947 0.0
H1213 H 0.43122 0.83406 0.91504 0.0
N1214 N 0.41941 0.7575 0.92698 0.0
C1215 C 0.40533 0.80349 0.93496 0.0
C1216 C 0.44103 0.76591 0.90924 0.0
C1217 C 0.40108 0.77576 0.93881 0.0
C1218 C 0.42804 0.81254 0.91809 0.0
C1219 C 0.44596 0.79376 0.90452 0.0
O1220 O 0.39356 0.73183 0.89574 0.0
O1221 O 0.40337 0.68031 0.97536 0.0
O1222 O 0.44241 0.64209 0.94283 0.0
O1223 O 0.42027 0.66812 0.90549 0.0
O1224 O 0.38147 0.71579 0.97203 0.0
O1225 O 0.38312 0.6904 0.90606 0.0
O1226 O 0.4859 0.65958 0.96196 0.0
O1227 O 0.45961 0.70726 0.94969 0.0
O1228 O 0.41669 0.73694 0.98049 0.0
O1229 O 0.43594 0.70753 0.01796 0.0
O1230 O 0.47591 0.71151 0.99497 0.0
O1231 O 0.47531 0.64331 1.00909 0.0
C1232 C 0.38306 0.69381 0.98921 0.0
C1233 C 0.34885 0.7192 0.88517 0.0
C1234 C 0.31465 0.74074 0.85127 0.0
C1235 C 0.34127 0.73196 0.85614 0.0
C1236 C 0.29547 0.73644 0.87598 0.0
C1237 C 0.32958 0.71489 0.90968 0.0
C1238 C 0.30293 0.72342 0.90495 0.0
C1239 C 0.43096 0.64404 0.91333 0.0
C1240 C 0.37733 0.71198 0.88932 0.0
C1241 C 0.46823 0.80207 0.88594 0.0
C1242 C 0.48486 0.78285 0.87105 0.0
C1243 C 0.47527 0.72361 0.96702 0.0
C1244 C 0.52151 0.65223 0.99969 0.0
C1245 C 0.52668 0.65264 0.03348 0.0
C1246 C 0.55172 0.66124 0.04569 0.0
C1247 C 0.57217 0.66843 0.02355 0.0
C1248 C 0.54226 0.65931 0.978 0.0
C1249 C 0.56746 0.66726 0.98994 0.0
C1250 C 0.42477 0.73078 1.01048 0.0
C1251 C 0.49419 0.64591 0.98728 0.0
H1252 H 0.35644 0.73578 0.83762 0.0
H1253 H 0.27479 0.74306 0.87284 0.0
H1254 H 0.33514 0.70522 0.93243 0.0
H1255 H 0.28808 0.72016 0.9239 0.0
H1256 H 0.51093 0.6471 0.05049 0.0
H1257 H 0.59186 0.67475 0.0322 0.0
H1258 H 0.53887 0.65905 0.95187 0.0
H1259 H 0.58333 0.6728 0.97309 0.0
Eu1260 Eu 0.64584 0.17143 0.68058 0.0
C1261 C 0.71761 0.17426 0.78963 0.0
C1262 C 0.70538 0.19105 0.84316 0.0
C1263 C 0.74092 0.15755 0.83797 0.0
C1264 C 0.70214 0.19105 0.80891 0.0
C1265 C 0.73717 0.1572 0.804 0.0
C1266 C 0.72495 0.17433 0.85754 0.0
C1267 C 0.74765 0.14029 0.7503 0.0
N1268 N 0.71311 0.17409 0.75695 0.0
C1269 C 0.72813 0.15756 0.7372 0.0
C1270 C 0.75223 0.14011 0.78386 0.0
Eu1271 Eu 0.68109 0.20591 0.73619 0.0
N1272 N 0.68359 0.20709 0.79425 0.0
C1273 C 0.66798 0.22419 0.81257 0.0
C1274 C 0.68881 0.20779 0.86198 0.0
C1275 C 0.67012 0.22456 0.84658 0.0
H1276 H 0.72475 0.157 0.71125 0.0
H1277 H 0.65746 0.23789 0.86088 0.0
H1278 H 0.7278 0.17416 0.88377 0.0
H1279 H 0.75915 0.12709 0.73445 0.0
H1280 H 0.65359 0.23747 0.80096 0.0
H1281 H 0.65944 0.2594 0.59995 0.0
H1282 H 0.69047 0.20808 0.88834 0.0
H1283 H 0.58897 0.13615 0.69596 0.0
H1284 H 0.67436 0.22209 0.63478 0.0
H1285 H 0.53969 0.14151 0.68867 0.0
H1286 H 0.75585 0.14462 0.84939 0.0
H1287 H 0.61078 0.26815 0.59206 0.0
H1288 H 0.56298 0.25544 0.6038 0.0
H1289 H 0.76735 0.12666 0.79396 0.0
H1290 H 0.53055 0.2241 0.62866 0.0
N1291 N 0.63457 0.20878 0.64646 0.0
C1292 C 0.65307 0.22495 0.63114 0.0
C1293 C 0.61719 0.2513 0.60706 0.0
C1294 C 0.59829 0.23437 0.62199 0.0
C1295 C 0.64467 0.24643 0.61146 0.0
C1296 C 0.60763 0.21268 0.64139 0.0
H1297 H 0.52169 0.18153 0.65981 0.0
N1298 N 0.59854 0.17329 0.6725 0.0
C1299 C 0.55336 0.15672 0.67936 0.0
C1300 C 0.58919 0.19483 0.6553 0.0
C1301 C 0.5812 0.15378 0.6835 0.0
C1302 C 0.54329 0.17935 0.66308 0.0
C1303 C 0.56121 0.1985 0.65034 0.0
O1304 O 0.62628 0.14897 0.64124 0.0
O1305 O 0.67368 0.16075 0.72395 0.0
O1306 O 0.71185 0.20192 0.69106 0.0
O1307 O 0.68793 0.17772 0.65343 0.0
O1308 O 0.64091 0.13602 0.71676 0.0
O1309 O 0.66825 0.14132 0.65248 0.0
O1310 O 0.71825 0.22777 0.72379 0.0
O1311 O 0.64878 0.21587 0.69673 0.0
O1312 O 0.61822 0.17317 0.72546 0.0
O1313 O 0.64642 0.19008 0.7662 0.0
O1314 O 0.64304 0.23298 0.74144 0.0
O1315 O 0.68753 0.24745 0.75213 0.0
C1316 C 0.66114 0.13942 0.73651 0.0
C1317 C 0.64248 0.10547 0.62957 0.0
C1318 C 0.62292 0.07074 0.59468 0.0
C1319 C 0.62901 0.09791 0.601 0.0
C1320 C 0.63045 1.05097 0.61757 0.0
C1321 C 0.65026 0.08562 0.65212 0.0
C1322 C 0.64419 0.05844 0.64609 0.0
C1323 C 0.71114 0.18978 0.66171 0.0
C1324 C 0.6474 0.13434 0.63499 0.0
C1325 C 0.55197 0.22078 0.63232 0.0
C1326 C 0.57044 0.23859 0.61809 0.0
C1327 C 0.63183 0.23163 0.71312 0.0
C1328 C 0.73286 0.25915 0.76415 0.0
C1329 C 0.72554 0.26948 0.7949 0.0
C1330 C 0.74495 0.28107 0.81556 0.0
C1331 C 0.77198 0.28216 0.80551 0.0
C1332 C 0.76005 0.26019 0.75454 0.0
C1333 C 0.77949 0.27153 0.77522 0.0
C1334 C 0.62307 0.18016 0.75619 0.0
C1335 C 0.7121 0.24876 0.74139 0.0
H1336 H 0.62269 0.11343 0.58391 0.0
H1337 H 0.62589 1.02985 0.61329 0.0
H1338 H 0.66085 0.09112 0.67427 0.0
H1339 H 0.65009 1.04315 0.66358 0.0
H1340 H 0.70461 0.26939 0.80254 0.0
H1341 H 0.78721 0.2912 0.82108 0.0
H1342 H 0.76622 0.25255 0.7309 0.0
H1343 H 0.80038 0.27237 0.76758 0.0
C1344 C 0.49683 0.27421 0.04299 0.0
C1345 C 0.49627 0.25045 0.06311 0.0
C1346 C 0.51745 0.29561 0.04415 0.0
C1347 C 0.54056 0.29507 0.06568 0.0
C1348 C 0.5403 0.27114 0.08619 0.0
C1349 C 0.51934 0.24987 0.08439 0.0
C1350 C 0.51454 0.31913 0.02114 0.0
C1351 C 0.56305 0.26748 0.11013 0.0
C1352 C 0.60871 0.33868 0.04346 0.0
C1353 C 0.60894 0.36284 0.06291 0.0
C1354 C 0.58807 0.31731 0.04473 0.0
C1355 C 0.56461 0.31834 0.06563 0.0
C1356 C 0.5645 0.34276 0.08533 0.0
C1357 C 0.58552 0.36395 0.08349 0.0
C1358 C 0.59134 0.29326 0.02255 0.0
C1359 C 0.5413 0.34708 0.10839 0.0
H1360 H 0.48077 0.27605 0.02515 0.0
H1361 H 0.52175 0.23202 0.09935 0.0
H1362 H 0.51524 0.33841 0.03501 0.0
H1363 H 0.53173 0.3193 1.00379 0.0
H1364 H 0.49541 0.31833 1.007 0.0
H1365 H 0.55963 0.25004 0.12667 0.0
H1366 H 0.58219 0.26423 0.09663 0.0
H1367 H 0.56561 0.28605 0.12507 0.0
H1368 H 0.62508 0.33643 0.02615 0.0
H1369 H 0.58293 0.38213 0.09788 0.0
H1370 H 0.57439 0.29262 1.00483 0.0
H1371 H 0.59051 0.27433 0.03703 0.0
H1372 H 0.61066 0.29378 1.00884 0.0
H1373 H 0.52251 0.35037 0.09414 0.0
H1374 H 0.54459 0.36476 0.12466 0.0
H1375 H 0.53817 0.3288 0.12362 0.0
C1376 C 0.61525 0.78119 0.31819 0.0
C1377 C 0.61227 0.75246 0.31471 0.0
C1378 C 0.59318 0.80105 0.31918 0.0
C1379 C 0.56498 0.79415 0.31507 0.0
C1380 C 0.56165 0.76502 0.31131 0.0
C1381 C 0.58428 0.74544 0.31131 0.0
C1382 C 0.60092 0.83015 0.32464 0.0
C1383 C 0.53375 0.75368 0.30645 0.0
C1384 C 0.49791 0.84127 0.3363 0.0
C1385 C 0.49488 0.86065 0.31048 0.0
C1386 C 0.51974 0.82086 0.33847 0.0
C1387 C 0.54032 0.81694 0.31358 0.0
C1388 C 0.53672 0.83597 0.28705 0.0
C1389 C 0.51521 0.85646 0.28605 0.0
C1390 C 0.52015 0.80303 0.36818 0.0
C1391 C 0.55544 0.83488 0.25814 0.0
H1392 H 0.63574 0.78871 0.32015 0.0
H1393 H 0.57975 0.72427 0.30734 0.0
H1394 H 0.60623 0.8394 0.30085 0.0
H1395 H 0.58432 0.84204 0.33581 0.0
H1396 H 0.61898 0.83164 0.34065 0.0
H1397 H 0.53424 0.736 0.28971 0.0
H1398 H 0.52601 0.74649 0.33032 0.0
H1399 H 0.51948 0.7689 0.29656 0.0
H1400 H 0.48248 0.84123 0.3549 0.0
H1401 H 0.51417 0.86943 0.26478 0.0
H1402 H 0.54093 0.79636 0.37437 0.0
H1403 H 0.50768 0.78484 0.36332 0.0
H1404 H 0.51137 0.8136 0.38962 0.0
H1405 H 0.57109 0.85076 0.26097 0.0
H1406 H 0.54429 0.83928 0.2352 0.0
H1407 H 0.56556 0.81499 0.25555 0.0
C1408 C 0.10028 0.8435 0.54224 0.0
C1409 C 0.1073 0.86192 0.56809 0.0
C1410 C 0.07985 0.82204 0.54385 0.0
C1411 C 0.06381 0.81656 0.57243 0.0
C1412 C 0.07061 0.83493 0.59893 0.0
C1413 C 0.09093 0.85683 0.59631 0.0
C1414 C 0.075 0.80523 0.51374 0.0
C1415 C 0.05578 0.8318 0.63071 0.0
C1416 C 0.99241 0.7744 0.56396 0.0
C1417 C 0.99757 0.74669 0.57232 0.0
C1418 C 1.01244 0.79643 0.56512 0.0
C1419 C 1.04053 0.79257 0.57386 0.0
C1420 C 1.04592 0.76466 0.58228 0.0
C1421 C 1.02542 0.74305 0.58107 0.0
C1422 C 1.00332 0.82435 0.55571 0.0
C1423 C 0.07425 0.75714 0.59195 0.0
H1424 H 0.11082 0.8462 0.51936 0.0
H1425 H 0.09301 0.87077 0.6164 0.0
H1426 H 0.07839 0.78356 0.51933 0.0
H1427 H 0.05365 0.80738 0.50585 0.0
H1428 H 0.08834 0.81113 0.49317 0.0
H1429 H 0.06418 0.84503 0.65016 0.0
H1430 H 1.03415 0.83684 0.62711 0.0
H1431 H 0.05679 0.81046 0.63899 0.0
H1432 H 0.97224 0.77904 0.55537 0.0
H1433 H 1.03175 0.72254 0.58625 0.0
H1434 H 1.01313 0.83028 0.53246 0.0
H1435 H 1.00965 0.83919 0.57458 0.0
H1436 H 0.98107 0.82559 0.55261 0.0
H1437 H 0.08777 0.75917 0.57052 0.0
H1438 H 0.0756 0.73608 0.60118 0.0
H1439 H 0.0818 0.77116 0.61108 0.0
C1440 C 1.0214 0.36229 0.79406 0.0
C1441 C 0.99785 0.3625 0.8144 0.0
C1442 C 1.04292 0.34184 0.79484 0.0
C1443 C 1.0427 0.31868 0.81626 0.0
C1444 C 1.01896 0.31859 0.83697 0.0
C1445 C 0.99754 0.33936 0.83549 0.0
C1446 C 0.06619 0.34497 0.77158 0.0
C1447 C 1.01568 0.29573 0.8608 0.0
C1448 C 0.087 0.25103 0.79388 0.0
C1449 C 0.11129 0.25143 0.81301 0.0
C1450 C 0.06535 0.27135 0.79527 0.0
C1451 C 0.06621 0.29498 0.81603 0.0
C1452 C 0.09067 0.29564 0.83549 0.0
C1453 C 0.11218 0.27502 0.83342 0.0
C1454 C 1.04125 0.2676 0.77332 0.0
C1455 C 0.09465 0.31898 0.85857 0.0
H1456 H 1.02302 0.3785 0.77643 0.0
H1457 H 0.97981 0.33677 0.85057 0.0
H1458 H 0.0855 0.34512 0.78535 0.0
H1459 H 0.0668 0.32744 0.75467 0.0
H1460 H 0.06477 0.36383 0.75697 0.0
H1461 H 0.99817 0.29882 0.8773 0.0
H1462 H 1.01284 0.2765 0.84724 0.0
H1463 H 1.03424 0.29355 0.87579 0.0
H1464 H 0.0849 0.2345 0.77673 0.0
H1465 H 0.13041 0.27804 0.84755 0.0
H1466 H 1.04 0.28467 0.75584 0.0
H1467 H 1.02246 0.26783 0.78805 0.0
H1468 H 1.04216 0.24836 0.75935 0.0
H1469 H 0.1127 0.31628 0.87435 0.0
H1470 H 0.07659 0.32145 0.8743 0.0
H1471 H 0.09699 0.33793 0.84438 0.0
C1472 C 0.58495 0.8621 0.93519 0.0
C1473 C 0.6086 0.86147 0.95552 0.0
C1474 C 0.5639 0.84084 0.9342 0.0
C1475 C 0.56422 0.81681 0.95456 0.0
C1476 C 0.58792 0.81625 0.97516 0.0
C1477 C 0.60856 0.83767 0.97559 0.0
C1478 C 0.54042 0.84468 0.91137 0.0
C1479 C 0.59147 0.79269 0.99798 0.0
C1480 C 0.49678 0.77266 0.97898 0.0
C1481 C 0.49615 0.74859 0.95932 0.0
C1482 C 0.51729 0.79416 0.97713 0.0
C1483 C 0.54024 0.7934 0.95536 0.0
C1484 C 0.53993 0.76909 0.93546 0.0
C1485 C 0.51907 0.74776 0.9379 0.0
C1486 C 0.51444 0.81807 0.99962 0.0
C1487 C 0.56249 0.76508 0.91141 0.0
H1488 H 0.5821 0.88002 0.92046 0.0
H1489 H 0.62509 0.83579 0.99279 0.0
H1490 H 0.53723 0.82614 0.89655 0.0
H1491 H 0.52177 0.84807 0.92578 0.0
H1492 H 0.54342 0.86211 0.8947 0.0
H1493 H 0.57481 0.79253 0.01606 0.0
H1494 H 0.59033 0.77343 0.98411 0.0
H1495 H 0.61102 0.79344 1.01129 0.0
H1496 H 0.48085 0.77473 0.99688 0.0
H1497 H 0.52138 0.72971 0.92322 0.0
H1498 H 0.49541 0.81741 0.01393 0.0
H1499 H 0.51492 0.8371 0.98531 0.0
H1500 H 0.53175 0.81863 0.01683 0.0
H1501 H 0.56475 0.78333 0.89592 0.0
H1502 H 0.55907 0.74725 0.89542 0.0
H1503 H 0.58178 0.76228 0.92482 0.0
C1504 C 0.49112 0.33812 0.68454 0.0
C1505 C 0.491 0.36086 0.70636 0.0
C1506 C 0.51293 0.31778 0.68245 0.0
C1507 C 0.53672 0.3179 0.70316 0.0
C1508 C 0.53656 0.3407 0.72524 0.0
C1509 C 0.51461 0.36067 0.72672 0.0
C1510 C 0.51 0.29528 0.65797 0.0
C1511 C 0.55987 0.34392 0.74854 0.0
C1512 C 0.58198 0.2506 0.72418 0.0
C1513 C 0.6062 0.25139 0.70499 0.0
C1514 C 0.56008 0.27065 0.72316 0.0
C1515 C 0.56057 0.2945 0.70285 0.0
C1516 C 0.58496 0.2956 0.68333 0.0
C1517 C 0.60671 0.27517 0.68493 0.0
C1518 C 0.5361 0.26636 0.74505 0.0
C1519 C 0.58862 0.31928 0.66077 0.0
H1520 H 0.47344 0.33551 0.6693 0.0
H1521 H 0.51586 0.37644 0.74502 0.0
H1522 H 0.52856 0.29366 0.64294 0.0
H1523 H 0.50753 0.27578 0.671 0.0
H1524 H 0.4924 0.29833 0.64156 0.0
H1525 H 0.55852 0.36289 0.763 0.0
H1526 H 0.56038 0.32651 0.76559 0.0
H1527 H 0.57919 0.34388 0.73486 0.0
H1528 H 0.5802 0.23395 0.7412 0.0
H1529 H 0.62485 0.27853 0.6708 0.0
H1530 H 0.51721 0.26699 0.73046 0.0
H1531 H 0.535 0.28298 0.76323 0.0
H1532 H 0.53707 0.24678 0.75824 0.0
H1533 H 0.57051 0.3217 0.64503 0.0
H1534 H 0.60669 0.31701 0.64498 0.0
H1535 H 0.59071 0.33809 0.67537 0.0
C1536 C 1.01889 0.24577 0.43987 0.0
C1537 C 0.99587 0.24584 0.46113 0.0
C1538 C 1.03925 0.26756 0.43798 0.0
C1539 C 1.03886 0.29156 0.45837 0.0
C1540 C 1.01582 0.29156 0.48 0.0
C1541 C 0.99584 0.26958 0.4813 0.0
C1542 C 0.06203 0.26442 0.41405 0.0
C1543 C 1.01231 0.31509 0.50292 0.0
C1544 C 0.1058 0.33731 0.47976 0.0
C1545 C 0.10519 0.36123 0.45997 0.0
C1546 C 0.08579 0.31535 0.47889 0.0
C1547 C 0.06218 0.31549 0.4581 0.0
C1548 C 0.06127 0.33959 0.438 0.0
C1549 C 0.08165 0.36139 0.43947 0.0
C1550 C 0.08986 0.29168 0.50139 0.0
C1551 C 1.03787 0.34286 0.41489 0.0
H1552 H 1.02169 0.22796 0.4249 0.0
H1553 H 0.97986 0.27097 0.49922 0.0
H1554 H 0.06348 0.28266 0.3984 0.0
H1555 H 0.08141 0.26261 0.4275 0.0
H1556 H 0.05946 0.24637 0.39819 0.0
H1557 H 0.99319 0.31386 0.51698 0.0
H1558 H 1.02948 0.31576 0.52034 0.0
H1559 H 1.01253 0.33432 0.48899 0.0
H1560 H 0.1223 0.33577 0.49704 0.0
H1561 H 0.07847 0.37929 0.4248 0.0
H1562 H 0.08958 0.27256 0.48718 0.0
H1563 H 0.073 0.29071 0.51915 0.0
H1564 H 0.1092 0.29296 0.51508 0.0
H1565 H 1.03609 0.32475 0.39902 0.0
H1566 H 1.03999 0.36105 0.39924 0.0
H1567 H 1.01884 0.34449 0.42902 0.0
C1568 C 0.08562 0.75143 0.23176 0.0
C1569 C 0.10858 0.7501 0.21043 0.0
C1570 C 0.06393 0.77174 0.23031 0.0
C1571 C 0.06338 0.79382 0.20724 0.0
C1572 C 0.08655 0.79282 0.18558 0.0
C1573 C 0.10809 0.77213 0.18763 0.0
C1574 C 1.0413 0.76966 0.25464 0.0
C1575 C 0.08915 0.81454 0.16012 0.0
C1576 C 0.99349 0.83713 0.18943 0.0
C1577 C 0.99467 0.8614 0.20867 0.0
C1578 C 1.01492 0.81632 0.18804 0.0
C1579 C 1.03978 0.81758 0.2068 0.0
C1580 C 1.04096 0.84197 0.22625 0.0
C1581 C 1.01929 0.86234 0.2272 0.0
C1582 C 1.01039 0.79205 0.16655 0.0
C1583 C 0.06552 0.84659 0.24719 0.0
H1584 H 0.08464 0.73624 0.25075 0.0
H1585 H 0.12535 0.77404 0.17167 0.0
H1586 H 1.04161 0.78756 0.27099 0.0
H1587 H 1.02157 0.76967 0.24174 0.0
H1588 H 1.04275 0.75111 0.2698 0.0
H1589 H 0.10632 0.81079 0.1433 0.0
H1590 H 0.07026 0.81592 0.1456 0.0
H1591 H 0.09213 0.83439 0.17226 0.0
H1592 H 0.97507 0.83371 0.17579 0.0
H1593 H 1.02168 0.87944 0.2435 0.0
H1594 H 1.00826 0.77375 0.18198 0.0
H1595 H 1.02812 0.78882 0.15046 0.0
H1596 H 0.99204 0.79418 0.15116 0.0
H1597 H 0.06671 0.83066 0.26618 0.0
H1598 H 0.06522 0.86666 0.25936 0.0
H1599 H 0.08405 0.84502 0.23211 0.0
C1600 C 0.23745 0.1801 0.91764 0.0
C1601 C 0.23948 0.18573 0.88344 0.0
C1602 C 0.2603 0.18013 0.94054 0.0
C1603 C 0.28779 0.18567 0.93089 0.0
C1604 C 0.29001 0.19097 0.8963 0.0
C1605 C 0.26679 0.19106 0.87401 0.0
C1606 C 0.25477 0.17399 0.97587 0.0
C1607 C 0.31743 0.1959 0.8817 0.0
C1608 C 0.34321 0.2122 0.99691 0.0
C1609 C 0.36054 0.19003 1.0055 0.0
C1610 C 0.32079 0.21108 0.97373 0.0
C1611 C 0.31322 0.1869 0.95651 0.0
C1612 C 0.33061 0.16431 0.96458 0.0
C1613 C 0.35298 0.166 0.98829 0.0
C1614 C 0.30455 0.23642 0.96826 0.0
C1615 C 0.32537 0.13767 0.94802 0.0
H1616 H 0.21749 0.17575 0.92702 0.0
H1617 H 0.27039 0.1952 0.84842 0.0
H1618 H 0.26002 0.19182 0.99106 0.0
H1619 H 0.2333 0.16867 0.98027 0.0
H1620 H 0.26772 0.15699 0.98408 0.0
H1621 H 0.31613 0.21032 0.86099 0.0
H1622 H 0.33209 0.20371 0.89987 0.0
H1623 H 0.32535 0.17649 0.87204 0.0
H1624 H 0.34694 0.23128 1.00907 0.0
H1625 H 0.36394 0.14793 0.99396 0.0
H1626 H 0.28466 0.23431 0.9804 0.0
H1627 H 0.30072 0.23954 0.94183 0.0
H1628 H 0.31477 0.25461 0.97828 0.0
H1629 H 0.30419 0.1313 0.95235 0.0
H1630 H 0.33915 0.12152 0.95674 0.0
H1631 H 0.32796 0.14004 0.92126 0.0
C1632 C 0.66131 0.52001 0.12757 0.0
C1633 C 0.67326 0.49424 0.13436 0.0
C1634 C 0.66112 0.54304 0.15025 0.0
C1635 C 0.67334 0.54228 0.18229 0.0
C1636 C 0.68556 0.5164 0.1892 0.0
C1637 C 0.68534 0.49365 0.16615 0.0
C1638 C 0.64735 0.56868 0.13961 0.0
C1639 C 0.69912 0.51249 0.22175 0.0
C1640 C 0.6899 0.61069 0.2362 0.0
C1641 C 0.66849 0.61311 0.25951 0.0
C1642 C 0.69176 0.58874 0.21177 0.0
C1643 C 0.67196 0.56722 0.20863 0.0
C1644 C 0.6504 0.56996 0.23176 0.0
C1645 C 0.64909 0.59176 0.25568 0.0
C1646 C 0.71547 0.58865 0.18891 0.0
C1647 C 0.62799 0.54936 0.2314 0.0
H1648 H 0.65164 0.52236 0.10402 0.0
H1649 H 0.69492 0.47492 0.17344 0.0
H1650 H 0.63084 0.57371 0.15687 0.0
H1651 H 0.66196 0.58567 0.14023 0.0
H1652 H 0.63877 0.56709 0.11462 0.0
H1653 H 0.71457 0.52844 0.22558 0.0
H1654 H 0.68401 0.51457 0.24157 0.0
H1655 H 0.70894 0.49238 0.22386 0.0
H1656 H 0.70551 0.62595 0.23669 0.0
H1657 H 0.63198 0.59189 0.2721 0.0
H1658 H 0.7082 0.58997 0.16332 0.0
H1659 H 0.72667 0.56932 0.19131 0.0
H1660 H 0.72954 0.6057 0.19368 0.0
H1661 H 0.61815 0.54909 0.20705 0.0
H1662 H 0.61239 0.55351 0.25019 0.0
H1663 H 0.63642 0.52888 0.2357 0.0
C1664 C 0.33811 0.91685 0.3753 0.0
C1665 C 0.36454 0.92642 0.38365 0.0
C1666 C 0.31486 0.91685 0.39743 0.0
C1667 C 0.31617 0.92651 0.43065 0.0
C1668 C 0.34276 0.9362 0.43927 0.0
C1669 C 0.36567 0.93615 0.41656 0.0
C1670 C 0.28836 0.90611 0.38488 0.0
C1671 C 0.3473 0.94665 0.47336 0.0
C1672 C 0.24894 0.94488 0.48491 0.0
C1673 C 0.24316 0.92162 0.50433 0.0
C1674 C 0.27147 0.94679 0.46152 0.0
C1675 C 0.29079 0.92522 0.45612 0.0
C1676 C 0.28538 0.90205 0.47611 0.0
C1677 C 0.26278 0.9007 0.49884 0.0
C1678 C 0.27448 0.9724 0.44214 0.0
C1679 C 0.30394 0.87801 0.47373 0.0
H1680 H 0.33534 0.9091 0.35078 0.0
H1681 H 0.38494 0.94376 0.42506 0.0
H1682 H 0.28285 0.88755 0.39851 0.0
H1683 H 0.2721 0.92115 0.38914 0.0
H1684 H 0.2891 0.9012 0.35843 0.0
H1685 H 0.36826 0.95401 0.47714 0.0
H1686 H 0.33305 0.96343 0.47854 0.0
H1687 H 0.34309 0.93038 0.49127 0.0
H1688 H 0.23619 0.96214 0.48824 0.0
H1689 H 0.26081 0.88246 0.51316 0.0
H1690 H 0.27113 0.96795 0.41588 0.0
H1691 H 0.29531 0.9804 0.44465 0.0
H1692 H 0.25996 0.98825 0.44991 0.0
H1693 H 0.30295 0.8694 0.44874 0.0
H1694 H 0.29871 0.8619 0.49149 0.0
H1695 H 0.32512 0.88439 0.47809 0.0
C1696 C 0.95672 0.60084 0.64216 0.0
C1697 C 0.93512 0.61981 0.63903 0.0
C1698 C 0.95704 0.57804 0.66502 0.0
C1699 C 0.93452 0.57117 0.686 0.0
C1700 C 0.91236 0.59003 0.6823 0.0
C1701 C 0.91318 0.61342 0.66034 0.0
C1702 C 0.98267 0.56183 0.66673 0.0
C1703 C 0.88679 0.58584 0.70147 0.0
C1704 C 0.935 0.49501 0.72592 0.0
C1705 C 0.93478 0.49829 0.76064 0.0
C1706 C 0.9341 0.51742 0.70234 0.0
C1707 C 0.93442 0.54571 0.71174 0.0
C1708 C 0.93509 0.549 0.74677 0.0
C1709 C 0.93517 0.52627 0.76958 0.0
C1710 C 0.93335 0.51026 0.66665 0.0
C1711 C 0.93663 0.57696 0.76127 0.0
H1712 H 0.97433 0.60412 0.62701 0.0
H1713 H 0.89575 0.62665 0.6595 0.0
H1714 H 0.98421 0.54991 0.68953 0.0
H1715 H 0.98355 0.54798 0.64543 0.0
H1716 H 1.00053 0.57535 0.66515 0.0
H1717 H 0.86889 0.59149 0.6866 0.0
H1718 H 0.88433 0.56464 0.70976 0.0
H1719 H 0.88707 0.59931 0.72314 0.0
H1720 H 0.93686 0.47461 0.71663 0.0
H1721 H 0.93646 0.53075 0.79544 0.0
H1722 H 0.95415 0.51073 0.6568 0.0
H1723 H 0.9209 0.52488 0.65265 0.0
H1724 H 0.92529 0.48959 0.66268 0.0
H1725 H 0.94547 0.59188 0.74416 0.0
H1726 H 0.94886 0.57692 0.78403 0.0
H1727 H 0.91598 0.58366 0.76788 0.0
C1728 C 0.7712 0.91178 1.00476 0.0
C1729 C 0.74473 0.92276 1.0099 0.0
C1730 C 0.79336 0.91201 0.02841 0.0
C1731 C 0.79125 0.92393 0.06045 0.0
C1732 C 0.7645 0.93503 0.06616 0.0
C1733 C 0.74239 0.93385 0.04206 0.0
C1734 C 0.8194 0.89858 0.01853 0.0
C1735 C 0.75826 0.94855 0.09818 0.0
C1736 C 0.84043 0.90753 0.13861 0.0
C1737 C 0.86415 0.92389 0.13532 0.0
C1738 C 0.81772 0.90722 0.11543 0.0
C1739 C 0.81633 0.92433 0.08682 0.0
C1740 C 0.84007 0.94119 0.08372 0.0
C1741 C 0.86282 0.94047 0.10672 0.0
C1742 C 0.79493 0.88778 0.1217 0.0
C1743 C 0.84207 0.96083 0.05577 0.0
H1744 H 0.77482 0.90212 0.98142 0.0
H1745 H 0.7228 0.94083 0.04952 0.0
H1746 H 0.83333 0.91411 1.00871 0.0
H1747 H 0.82938 0.88865 0.03963 0.0
H1748 H 0.81608 0.88323 0.99912 0.0
H1749 H 0.74266 0.93665 0.11125 0.0
H1750 H 0.77618 0.95087 0.11418 0.0
H1751 H 0.74961 0.96888 0.09356 0.0
H1752 H 0.8396 0.89422 0.15955 0.0
H1753 H 0.87986 0.95365 0.10215 0.0
H1754 H 0.78858 0.87771 0.09869 0.0
H1755 H 0.77731 0.89907 0.13133 0.0
H1756 H 0.80058 0.87203 0.13977 0.0
H1757 H 0.85509 0.95197 0.03651 0.0
H1758 H 0.85179 0.97992 0.06392 0.0
H1759 H 0.8221 0.96572 0.045 0.0
C1760 C 0.43696 0.59134 0.89801 0.0
C1761 C 0.43023 0.61836 0.88857 0.0
C1762 C 0.43623 0.56781 0.87624 0.0
C1763 C 0.42925 0.56947 0.842 0.0
C1764 C 0.42271 0.59681 0.83224 0.0
C1765 C 0.42286 0.61986 0.85483 0.0
C1766 C 0.4431 0.54076 0.89093 0.0
C1767 C 0.41557 0.60227 0.79713 0.0
C1768 C 0.45527 0.50825 0.78366 0.0
C1769 C 0.43224 0.49555 0.76903 0.0
C1770 C 0.45459 0.53099 0.80632 0.0
C1771 C 0.4299 0.54364 0.8169 0.0
C1772 C 0.40628 0.53093 0.80241 0.0
C1773 C 0.40775 0.5083 0.77905 0.0
C1774 C 0.48137 0.54143 0.81844 0.0
C1775 C 0.37857 0.5411 0.81102 0.0
H1776 H 0.44272 0.58821 0.92325 0.0
H1777 H 0.41743 0.6396 0.84548 0.0
H1778 H 0.43417 0.5237 0.87701 0.0
H1779 H 0.46537 0.53832 0.89128 0.0
H1780 H 0.43601 0.53959 0.9166 0.0
H1781 H 0.41909 0.62376 0.79058 0.0
H1782 H 0.42742 0.58925 0.78032 0.0
H1783 H 0.39385 0.59784 0.7933 0.0
H1784 H 0.47491 0.50045 0.77682 0.0
H1785 H 0.38936 0.50143 0.76774 0.0
H1786 H 0.48798 0.52893 0.83946 0.0
H1787 H 0.4804 0.56288 0.8263 0.0
H1788 H 0.49709 0.53952 0.79925 0.0
H1789 H 0.3785 0.55387 0.83329 0.0
H1790 H 0.36463 0.52382 0.81483 0.0
H1791 H 0.37053 0.55305 0.79027 0.0
C1792 C 0.73589 0.18143 0.60375 0.0
C1793 C 0.73708 0.18948 0.63731 0.0
C1794 C 0.75896 0.18115 0.58129 0.0
C1795 C 0.78621 0.18814 0.591 0.0
C1796 C 0.7876 0.19584 0.62513 0.0
C1797 C 0.76397 0.19676 0.64673 0.0
C1798 C 0.75349 0.17331 0.54638 0.0
C1799 C 0.81446 0.20317 0.63999 0.0
C1800 C 0.84677 0.16529 0.52788 0.0
C1801 C 0.86038 0.18941 0.51803 0.0
C1802 C 0.82418 0.16435 0.55125 0.0
C1803 C 0.81218 0.18825 0.56601 0.0
C1804 C 0.82558 0.21263 0.55553 0.0
C1805 C 0.84834 0.21275 0.53288 0.0
C1806 C 0.8133 0.13684 0.55964 0.0
C1807 C 0.81592 0.23971 0.56767 0.0
H1808 H 0.7163 0.1755 0.59437 0.0
H1809 H 0.76694 0.203 0.67185 0.0
H1810 H 0.76753 0.18347 0.52924 0.0
H1811 H 0.75602 0.15114 0.54376 0.0
H1812 H 0.73244 0.17834 0.53921 0.0
H1813 H 0.81579 0.19566 0.66549 0.0
H1814 H 0.83173 0.19489 0.62595 0.0
H1815 H 0.81629 0.22551 0.64096 0.0
H1816 H 0.8529 0.14676 0.51636 0.0
H1817 H 0.8567 0.23221 0.52622 0.0
H1818 H 0.8015 0.12901 0.53861 0.0
H1819 H 0.80027 0.137 0.58163 0.0
H1820 H 0.8302 0.12253 0.56387 0.0
H1821 H 0.79455 0.2393 0.57567 0.0
H1822 H 0.8181 0.25537 0.54843 0.0
H1823 H 0.82873 0.24603 0.58857 0.0
C1824 C 0.18752 0.49339 0.36089 0.0
C1825 C 0.17051 0.49142 0.38902 0.0
C1826 C 0.1882 0.51653 0.33847 0.0
C1827 C 0.17087 0.53995 0.3418 0.0
C1828 C 0.15334 0.53777 0.36985 0.0
C1829 C 0.15368 0.51477 0.39244 0.0
C1830 C 0.20825 0.51534 0.31092 0.0
C1831 C 0.13346 0.56009 0.37615 0.0
C1832 C 0.17954 0.61504 0.29976 0.0
C1833 C 0.16861 0.61329 0.26746 0.0
C1834 C 0.18105 0.59236 0.32301 0.0
C1835 C 0.17037 0.56557 0.31627 0.0
C1836 C 0.1584 0.56407 0.28424 0.0
C1837 C 0.15776 0.58684 0.2615 0.0
C1838 C 0.19452 0.59805 0.35524 0.0
C1839 C 0.14529 0.53805 0.27352 0.0
H1840 H 0.20106 0.47661 0.35627 0.0
H1841 H 0.13998 0.51504 0.41302 0.0
H1842 H 0.19992 0.50248 0.29112 0.0
H1843 H 0.21291 0.5356 0.3008 0.0
H1844 H 0.22737 0.50582 0.31923 0.0
H1845 H 0.14462 0.57836 0.3841 0.0
H1846 H 0.12242 0.56518 0.35335 0.0
H1847 H 0.1186 0.55473 0.39536 0.0
H1848 H 0.18593 0.63461 0.30813 0.0
H1849 H 0.14766 0.58378 0.23837 0.0
H1850 H 0.19506 0.58033 0.37174 0.0
H1851 H 0.18395 0.61498 0.36766 0.0
H1852 H 0.21558 0.60471 0.35079 0.0
H1853 H 0.16111 0.52393 0.26483 0.0
H1854 H 0.13081 0.54131 0.25316 0.0
H1855 H 0.13445 0.52826 0.29406 0.0
C1856 C 0.76569 0.69117 0.37781 0.0
C1857 C 0.73884 0.68447 0.38773 0.0
C1858 C 0.7894 0.69095 0.39922 0.0
C1859 C 0.78813 0.68448 0.43363 0.0
C1860 C 0.76094 0.67802 0.44392 0.0
C1861 C 0.73769 0.67772 0.42166 0.0
C1862 C 0.81612 0.69772 0.38372 0.0
C1863 C 0.75592 0.67148 0.47926 0.0
C1864 C 0.85006 0.66421 0.49597 0.0
C1865 C 0.86271 0.68896 0.50546 0.0
C1866 C 0.82727 0.66223 0.47293 0.0
C1867 C 0.81415 0.68557 0.45838 0.0
C1868 C 0.82643 0.71053 0.4687 0.0
C1869 C 0.84952 0.71171 0.49081 0.0
C1870 C 0.81733 0.63428 0.46481 0.0
C1871 C 0.81478 0.73694 0.45701 0.0
H1872 H 0.76859 0.69653 0.35247 0.0
H1873 H 0.71809 0.67237 0.4314 0.0
H1874 H 0.81713 0.71984 0.37944 0.0
H1875 H 0.83364 0.69157 0.39889 0.0
H1876 H 0.81779 0.68776 0.35948 0.0
H1877 H 0.73436 0.67428 0.48591 0.0
H1878 H 0.7613 0.65004 0.48375 0.0
H1879 H 0.76853 0.68427 0.49555 0.0
H1880 H 0.85713 0.64602 0.50752 0.0
H1881 H 0.85696 0.73149 0.49749 0.0
H1882 H 0.80409 0.63386 0.44295 0.0
H1883 H 0.80598 0.62619 0.48598 0.0
H1884 H 0.8347 0.62055 0.46054 0.0
H1885 H 0.82308 0.74164 0.43256 0.0
H1886 H 0.82011 0.75389 0.47362 0.0
H1887 H 0.79245 0.73589 0.45493 0.0
C1888 C 0.17033 0.08749 0.76472 0.0
C1889 C 0.17013 0.11538 0.75548 0.0
C1890 C 0.17014 0.06452 0.74216 0.0
C1891 C 0.16997 0.06742 0.70705 0.0
C1892 C 0.16965 0.09563 0.69736 0.0
C1893 C 0.16895 0.11825 0.72072 0.0
C1894 C 0.16917 1.03674 0.75714 0.0
C1895 C 0.16948 0.10254 0.66161 0.0
C1896 C 0.1911 0.99929 0.6562 0.0
C1897 C 0.16913 0.99263 0.63493 0.0
C1898 C 0.19194 1.02287 0.67794 0.0
C1899 C 0.16975 1.04171 0.68154 0.0
C1900 C 0.1472 1.03464 0.66056 0.0
C1901 C 0.14749 1.01161 0.6379 0.0
C1902 C 0.21761 1.0273 0.69694 0.0
C1903 C 0.12155 1.0509 0.66202 0.0
H1904 H 0.16972 0.08325 0.7906 0.0
H1905 H 0.1666 0.13853 0.71126 0.0
H1906 H 0.16079 1.02133 0.74023 0.0
H1907 H 0.18992 1.03066 0.76422 0.0
H1908 H 0.15678 1.03687 0.77973 0.0
H1909 H 0.17801 0.12294 0.65721 0.0
H1910 H 0.18102 0.08752 0.64709 0.0
H1911 H 0.14837 0.10275 0.65268 0.0
H1912 H 0.20855 0.98609 0.6555 0.0
H1913 H 0.12985 1.00815 0.62279 0.0
H1914 H 0.21751 1.01401 0.71873 0.0
H1915 H 0.22007 1.04857 0.70503 0.0
H1916 H 0.23544 1.02158 0.68203 0.0
H1917 H 0.1201 0.06335 0.68446 0.0
H1918 H 0.10371 1.03732 0.66091 0.0
H1919 H 0.12049 0.0643 0.64035 0.0
C1920 C 0.7432 0.43494 0.97551 0.0
C1921 C 0.74571 0.42498 1.00816 0.0
C1922 C 0.76559 0.43664 0.95192 0.0
C1923 C 0.79282 0.42722 0.95872 0.0
C1924 C 0.79509 0.41634 0.99124 0.0
C1925 C 0.77262 0.41555 0.01432 0.0
C1926 C 0.75909 0.44868 0.91914 0.0
C1927 C 0.82161 0.40453 1.00229 0.0
C1928 C 0.84312 0.41108 0.88183 0.0
C1929 C 0.86633 0.42808 0.88519 0.0
C1930 C 0.82031 0.41048 0.90464 0.0
C1931 C 0.81817 0.42797 0.93285 0.0
C1932 C 0.84149 0.44546 0.9361 0.0
C1933 C 0.86445 0.44499 0.91348 0.0
C1934 C 0.79821 0.39036 0.89825 0.0
C1935 C 0.8428 0.4655 0.96375 0.0
H1936 H 0.72331 0.44049 0.96729 0.0
H1937 H 0.77635 0.40653 0.03795 0.0
H1938 H 0.77723 0.45242 0.90398 0.0
H1939 H 0.74524 0.4349 0.90578 0.0
H1940 H 0.74828 0.46812 0.92251 0.0
H1941 H 0.81862 0.38897 0.02149 0.0
H1942 H 0.83287 0.39523 0.98173 0.0
H1943 H 0.83421 0.42086 0.01291 0.0
H1944 H 0.84281 0.39742 0.86115 0.0
H1945 H 0.88117 0.45859 0.91811 0.0
H1946 H 0.78093 0.40106 0.88693 0.0
H1947 H 0.79117 0.38104 0.92137 0.0
H1948 H 0.80476 0.37407 0.88134 0.0
H1949 H 0.82274 0.46961 0.97468 0.0
H1950 H 0.85156 0.48491 0.95519 0.0
H1951 H 0.85644 0.45752 0.98296 0.0
C1952 C 0.45879 1.0119 0.242 0.0
C1953 C 0.43594 0.99642 0.25267 0.0
C1954 C 0.45813 1.03447 0.21907 0.0
C1955 C 0.43375 1.04386 0.20354 0.0
C1956 C 0.41041 1.02812 0.21363 0.0
C1957 C 0.41172 1.00581 0.23747 0.0
C1958 C 0.48458 1.04833 0.21202 0.0
C1959 C 0.38312 1.03438 0.19938 0.0
C1960 C 0.42181 0.11862 0.16319 0.0
C1961 C 0.43357 0.1184 0.13126 0.0
C1962 C 0.4218 0.09569 0.18589 0.0
C1963 C 0.43306 0.0695 0.17803 0.0
C1964 C 0.44455 0.06899 0.14551 0.0
C1965 C 0.44495 0.09254 0.12367 0.0
C1966 C 0.40956 0.10006 0.21909 0.0
C1967 C 0.45673 1.04317 0.13277 0.0
H1968 H 0.47825 1.00645 0.25217 0.0
H1969 H 0.39323 0.99619 0.2445 0.0
H1970 H 0.49527 1.03695 0.19258 0.0
H1971 H 0.48187 0.06953 0.20389 0.0
H1972 H 0.4978 1.04828 0.23394 0.0
H1973 H 0.37079 1.045 0.21802 0.0
H1974 H 0.3843 1.04713 0.17718 0.0
H1975 H 0.37239 1.01534 0.19315 0.0
H1976 H 0.41247 0.1373 0.17106 0.0
H1977 H 0.45423 0.09032 0.09988 0.0
H1978 H 0.42088 0.08891 0.23822 0.0
H1979 H 0.38848 0.09249 0.21889 0.0
H1980 H 0.40906 0.12184 0.22572 0.0
H1981 H 0.47887 1.04365 0.13685 0.0
H1982 H 0.45334 1.0412 0.10606 0.0
H1983 H 0.44835 1.02504 0.14504 0.0
C1984 C 0.26827 0.42295 0.50757 0.0
C1985 C 0.24038 0.42331 0.51663 0.0
C1986 C 0.29116 0.42302 0.53016 0.0
C1987 C 0.28818 0.42367 0.5652 0.0
C1988 C 0.25998 0.42381 0.57482 0.0
C1989 C 0.23742 0.42288 0.5514 0.0
C1990 C 0.31889 0.42133 0.51524 0.0
C1991 C 0.25308 0.42436 0.61055 0.0
C1992 C 0.34371 0.40159 0.63453 0.0
C1993 C 0.3628 0.42315 0.63727 0.0
C1994 C 0.32075 0.40119 0.61188 0.0
C1995 C 0.31382 0.42361 0.59073 0.0
C1996 C 0.33279 0.44575 0.59401 0.0
C1997 C 0.35636 0.44499 0.61576 0.0
C1998 C 0.30447 0.37555 0.61056 0.0
C1999 C 0.32853 0.47117 0.57451 0.0
H2000 H 0.27264 0.42158 0.48183 0.0
H2001 H 0.21714 0.42084 0.56086 0.0
H2002 H 0.32473 0.44163 0.50617 0.0
H2003 H 0.33445 0.41419 0.5327 0.0
H2004 H 0.31876 0.40748 0.49387 0.0
H2005 H 0.23262 0.43278 0.61473 0.0
H2006 H 0.25313 0.40342 0.62009 0.0
H2007 H 0.26798 0.43638 0.6247 0.0
H2008 H 0.34703 0.38405 0.64985 0.0
H2009 H 0.36966 0.46237 0.61629 0.0
H2010 H 0.29241 0.37387 0.58786 0.0
H2011 H 0.29077 0.37487 0.63195 0.0
H2012 H 0.31793 0.35765 0.61226 0.0
H2013 H 0.34084 0.47007 0.55195 0.0
H2014 H 0.33539 0.48919 0.58845 0.0
H2015 H 0.30706 0.4741 0.56757 0.0
C2016 C 0.93552 0.09051 0.39639 0.0
C2017 C 0.9311 0.11804 0.38701 0.0
C2018 C 0.93536 0.06741 0.37389 0.0
C2019 C 0.93101 0.07001 0.33916 0.0
C2020 C 0.92662 0.09775 0.3295 0.0
C2021 C 0.92646 0.12047 0.35263 0.0
C2022 C 0.93917 1.03966 0.3882 0.0
C2023 C 0.92221 0.10372 0.29388 0.0
C2024 C 0.95786 1.01266 0.27589 0.0
C2025 C 0.93517 0.99699 0.26495 0.0
C2026 C 0.95675 1.03532 0.29876 0.0
C2027 C 0.93212 1.0446 0.31351 0.0
C2028 C 0.90897 1.02898 0.30293 0.0
C2029 C 0.91066 1.00658 0.27924 0.0
C2030 C 0.98258 1.05005 0.30651 0.0
C2031 C 0.88179 1.03602 0.31685 0.0
H2032 H 0.93889 0.08665 0.4221 0.0
H2033 H 0.92296 0.14063 0.34328 0.0
H2034 H 0.94984 1.02597 0.37109 0.0
H2035 H 0.95052 1.04048 0.41158 0.0
H2036 H 0.91902 1.03076 0.39313 0.0
H2037 H 0.91898 0.1256 0.28922 0.0
H2038 H 0.93995 0.09683 0.2796 0.0
H2039 H 0.90442 0.09233 0.28479 0.0
H2040 H 0.97738 1.00743 0.26582 0.0
H2041 H 0.89231 0.99728 0.27114 0.0
H2042 H 0.98493 1.05253 0.33329 0.0
H2043 H 0.98177 0.07061 0.29573 0.0
H2044 H 1.00061 1.03944 0.29675 0.0
H2045 H 0.88209 1.03268 0.34364 0.0
H2046 H 0.86532 1.02372 0.306 0.0
H2047 H 0.87736 0.05773 0.31273 0.0
C2048 C 0.23767 0.67941 0.10616 0.0
C2049 C 0.23945 0.68646 0.14002 0.0
C2050 C 0.26044 0.67956 0.08322 0.0
C2051 C 0.28782 0.68621 0.09259 0.0
C2052 C 0.2898 0.69298 0.12692 0.0
C2053 C 0.26653 0.69333 0.14912 0.0
C2054 C 0.25471 0.67264 0.0481 0.0
C2055 C 0.31695 0.70005 0.14114 0.0
C2056 C 0.34851 0.66486 0.02893 0.0
C2057 C 0.36076 0.68938 0.01796 0.0
C2058 C 0.32625 0.66337 0.05273 0.0
C2059 C 0.31335 0.68698 0.067 0.0
C2060 C 0.32542 0.71172 0.05553 0.0
C2061 C 0.34778 0.71244 0.03231 0.0
C2062 C 0.31676 0.63556 0.06212 0.0
C2063 C 0.31476 0.73851 0.06738 0.0
H2064 H 0.2179 0.67392 0.09699 0.0
H2065 H 0.26992 0.69892 0.17437 0.0
H2066 H 0.2662 0.68606 0.03142 0.0
H2067 H 0.26114 0.65153 0.04333 0.0
H2068 H 0.23287 0.67429 0.04224 0.0
H2069 H 0.31824 0.6939 0.16716 0.0
H2070 H 0.33372 0.69034 0.12754 0.0
H2071 H 0.31972 0.72228 0.14016 0.0
H2072 H 0.35545 0.64638 0.018 0.0
H2073 H 0.35513 0.73213 0.02492 0.0
H2074 H 0.30592 0.62637 0.04113 0.0
H2075 H 0.30324 0.63563 0.08367 0.0
H2076 H 0.33439 0.62244 0.06753 0.0
H2077 H 0.29337 0.73733 0.0752 0.0
H2078 H 0.3165 0.75417 0.04808 0.0
H2079 H 0.32717 0.74533 0.0884 0.0
C2080 C 0.66067 0.08851 0.75599 0.0
C2081 C 0.66752 0.11601 0.76317 0.0
C2082 C 0.66115 0.06612 0.77915 0.0
C2083 C 0.66906 0.06918 0.81283 0.0
C2084 C 0.67575 0.09704 0.82068 0.0
C2085 C 0.6744 0.1193 0.79687 0.0
C2086 C 0.65212 1.03891 0.76667 0.0
C2087 C 0.68402 0.10425 0.85495 0.0
C2088 C 0.65208 1.01775 0.88837 0.0
C2089 C 0.67034 0.99549 0.88584 0.0
C2090 C 0.65119 1.04063 0.86564 0.0
C2091 C 0.66983 1.0439 0.83871 0.0
C2092 C 0.68872 1.02166 0.8366 0.0
C2093 C 0.68834 0.99849 0.85881 0.0
C2094 C 0.62947 0.06137 0.87099 0.0
C2095 C 0.71023 1.0218 0.81066 0.0
H2096 H 0.65393 0.08419 0.73139 0.0
H2097 H 0.67771 0.13962 0.80555 0.0
H2098 H 0.66948 1.0287 0.75482 0.0
H2099 H 0.64433 1.02571 0.7864 0.0
H2100 H 0.63609 1.04117 0.74787 0.0
H2101 H 0.66662 0.11367 0.86764 0.0
H2102 H 0.69088 0.08647 0.86917 0.0
H2103 H 0.70048 0.11941 0.85459 0.0
H2104 H 0.63756 1.01714 0.9081 0.0
H2105 H 0.703 0.98253 0.85502 0.0
H2106 H 0.62376 0.07178 0.84803 0.0
H2107 H 0.63707 0.07654 0.88867 0.0
H2108 H 0.61111 1.05204 0.8817 0.0
H2109 H 0.70376 1.00854 0.79023 0.0
H2110 H 0.7294 1.01338 0.82041 0.0
H2111 H 0.71426 1.04234 0.80099 0.0
C2112 C 0.52142 0.13455 0.89894 0.0
C2113 C 0.53779 0.12225 0.92251 0.0
C2114 C 0.53255 0.14481 0.87001 0.0
C2115 C 0.56078 0.14315 0.86506 0.0
C2116 C 0.57738 0.1308 0.88896 0.0
C2117 C 0.56561 0.12017 0.91729 0.0
C2118 C 0.5142 0.15812 0.84537 0.0
C2119 C 0.60765 0.12947 0.88498 0.0
C2120 C 0.59152 0.14695 0.78057 0.0
C2121 C 0.60347 0.17258 0.78138 0.0
C2122 C 0.57671 0.13741 0.80731 0.0
C2123 C 0.57325 0.15424 0.83499 0.0
C2124 C 0.58384 0.18083 0.83492 0.0
C2125 C 0.59923 0.18954 0.80824 0.0
C2126 C 0.56611 0.1088 0.80673 0.0
C2127 C 0.5799 0.19964 0.86357 0.0
H2128 H 0.49991 0.13615 0.90324 0.0
H2129 H 0.57823 0.11102 0.93589 0.0
H2130 H 0.51629 0.18039 0.84741 0.0
H2131 H 0.51974 0.15231 0.82009 0.0
H2132 H 0.4927 0.15278 0.84948 0.0
H2133 H 0.61758 0.11862 0.90544 0.0
H2134 H 0.61281 0.11935 0.86163 0.0
H2135 H 0.61613 0.15019 0.88384 0.0
H2136 H 0.59515 0.13373 0.75992 0.0
H2137 H 0.60842 0.20943 0.80863 0.0
H2138 H 0.54432 0.10854 0.81297 0.0
H2139 H 0.57684 0.0966 0.82541 0.0
H2140 H 0.56888 0.099 0.78255 0.0
H2141 H 0.55824 0.20057 0.87033 0.0
H2142 H 0.58712 0.22045 0.85829 0.0
H2143 H 0.5911 0.19187 0.88506 0.0
C2144 C 0.70639 0.75101 0.11223 0.0
C2145 C 0.73071 0.75186 0.12965 0.0
C2146 C 0.69888 0.77223 0.09177 0.0
C2147 C 0.71629 0.79469 0.08855 0.0
C2148 C 0.74135 0.7953 0.10524 0.0
C2149 C 0.74834 0.77369 0.12573 0.0
C2150 C 0.6721 0.77079 0.07406 0.0
C2151 C 0.7604 0.81898 0.10198 0.0
C2152 C 0.70547 0.83487 1.01183 0.0
C2153 C 0.68974 0.85655 0.02301 0.0
C2154 C 0.71501 0.81512 0.03315 0.0
C2155 C 0.70847 0.81694 0.06656 0.0
C2156 C 0.69277 0.83881 0.0783 0.0
C2157 C 0.68361 0.8585 0.05631 0.0
C2158 C 0.73174 0.79208 0.01975 0.0
C2159 C 0.68531 0.84114 0.11391 0.0
H2160 H 0.69289 0.73393 0.11535 0.0
H2161 H 0.76698 0.77432 0.1396 0.0
H2162 H 0.65937 0.78837 0.08088 0.0
H2163 H 0.67538 0.77179 0.04731 0.0
H2164 H 0.66081 0.75197 0.07968 0.0
H2165 H 0.77932 0.81607 0.11614 0.0
H2166 H 0.76567 0.82215 0.07595 0.0
H2167 H 0.75036 0.8377 0.11066 0.0
H2168 H 0.71065 0.83326 0.98635 0.0
H2169 H 0.67165 0.87531 0.06519 0.0
H2170 H 0.72084 0.77269 0.02316 0.0
H2171 H 0.7511 0.79053 0.03327 0.0
H2172 H 0.73624 0.79452 0.99335 0.0
H2173 H 0.67256 0.82369 0.12105 0.0
H2174 H 0.67412 0.86009 0.11933 0.0
H2175 H 0.70376 0.84051 0.12928 0.0
C2176 C 0.99644 0.92843 0.31302 0.0
C2177 C 0.99792 0.94065 0.28223 0.0
C2178 C 1.01199 0.93788 0.33928 0.0
C2179 C 1.02963 0.96002 0.33459 0.0
C2180 C 1.03215 0.97171 0.30321 0.0
C2181 C 1.01634 0.96179 0.27735 0.0
C2182 C 1.00869 0.92484 0.37235 0.0
C2183 C 1.0506 0.99549 0.29735 0.0
C2184 C 1.04485 1.00207 0.41009 0.0
C2185 C 0.06995 0.99173 0.41965 0.0
C2186 C 1.03179 0.99236 0.382 0.0
C2187 C 1.04421 0.9719 0.36298 0.0
C2188 C 0.06998 0.96204 0.37196 0.0
C2189 C 0.08248 0.97204 0.40027 0.0
C2190 C 1.00413 1.00316 0.37377 0.0
C2191 C 0.08395 0.94034 0.3523 0.0
H2192 H 0.98266 0.91179 0.31687 0.0
H2193 H 1.01753 0.97151 0.25374 0.0
H2194 H 1.02864 0.91871 0.3822 0.0
H2195 H 0.99988 0.93966 0.38968 0.0
H2196 H 0.99536 0.90679 0.37146 0.0
H2197 H 1.05076 1.00185 0.27135 0.0
H2198 H 1.04403 1.01287 0.31255 0.0
H2199 H 0.07151 0.99035 0.30484 0.0
H2200 H 1.03494 1.01706 0.42525 0.0
H2201 H 0.102 0.96434 0.40749 0.0
H2202 H 0.98864 0.98894 0.38311 0.0
H2203 H 1.0012 1.00495 0.34704 0.0
H2204 H 1.00058 1.02324 0.38517 0.0
H2205 H 0.07268 0.92106 0.35464 0.0
H2206 H 0.10505 0.93695 0.36052 0.0
H2207 H 0.08417 0.94577 0.32604 0.0
C2208 C 0.92518 0.2738 0.5406 0.0
C2209 C 0.91853 0.24638 0.53875 0.0
C2210 C 0.92242 0.28782 0.57037 0.0
C2211 C 0.9122 0.27404 0.59812 0.0
C2212 C 0.90346 0.24695 0.59525 0.0
C2213 C 0.90718 0.23341 0.56581 0.0
C2214 C 0.93203 0.31669 0.57268 0.0
C2215 C 0.89181 0.23155 0.62382 0.0
C2216 C 0.93419 0.28726 0.68485 0.0
C2217 C 0.91098 0.29913 0.69806 0.0
C2218 C 0.93561 0.28085 0.65158 0.0
C2219 C 0.91318 0.28633 0.63112 0.0
C2220 C 0.89019 0.2995 0.644 0.0
C2221 C 0.88937 0.30577 0.67739 0.0
C2222 C 0.96052 0.26682 0.63872 0.0
C2223 C 0.86581 0.30539 0.62304 0.0
H2224 H 0.93397 0.28373 0.51957 0.0
H2225 H 0.90193 0.21215 0.56425 0.0
H2226 H 0.91718 0.32929 0.58608 0.0
H2227 H 0.95126 0.31735 0.58659 0.0
H2228 H 0.93554 0.32568 0.54821 0.0
H2229 H 0.88348 0.2116 0.61641 0.0
H2230 H 0.9078 0.22809 0.64235 0.0
H2231 H 0.8755 0.24338 0.63563 0.0
H2232 H 0.95116 0.2827 0.70065 0.0
H2233 H 0.87138 0.31498 0.68755 0.0
H2234 H 0.97736 0.26707 0.65667 0.0
H2235 H 0.96747 0.27653 0.61583 0.0
H2236 H 0.95563 0.24544 0.63291 0.0
H2237 H 0.87196 0.31388 0.59913 0.0
H2238 H 0.85172 0.31973 0.6351 0.0
H2239 H 0.85478 0.28628 0.61815 0.0
C2240 C 0.55037 0.96419 0.09188 0.0
C2241 C 0.54336 0.94231 0.07169 0.0
C2242 C 0.54433 0.964 0.12531 0.0
C2243 C 0.53067 0.94154 0.13875 0.0
C2244 C 0.52438 0.91899 0.11877 0.0
C2245 C 0.53087 0.91963 0.08549 0.0
C2246 C 0.55132 0.98839 0.14584 0.0
C2247 C 0.50956 0.89473 0.13219 0.0
C2248 C 0.51966 0.93027 0.22961 0.0
C2249 C 0.49277 0.93848 0.23235 0.0
C2250 C 0.5331 0.9324 0.19944 0.0
C2251 C 0.51916 0.94317 0.17208 0.0
C2252 C 0.49266 0.95329 0.17576 0.0
C2253 C 0.47977 0.95058 0.20576 0.0
C2254 C 0.56143 0.92155 0.19634 0.0
C2255 C 0.47709 0.96525 0.14747 0.0
H2256 H 0.55988 0.98189 0.08138 0.0
H2257 H 0.52597 0.90242 0.07018 0.0
H2258 H 0.53263 0.99978 0.15164 0.0
H2259 H 0.56052 0.9821 0.16934 0.0
H2260 H 0.56547 1.00223 0.13309 0.0
H2261 H 0.50848 0.87787 0.11429 0.0
H2262 H 0.51961 0.88733 0.15468 0.0
H2263 H 0.48867 0.90063 0.13889 0.0
H2264 H 0.5295 0.92072 0.25025 0.0
H2265 H 0.45887 0.95683 0.20801 0.0
H2266 H 0.57428 0.93576 0.18231 0.0
H2267 H 0.56096 0.90214 0.18274 0.0
H2268 H 0.57086 0.91791 0.22056 0.0
H2269 H 0.45734 0.97378 0.15518 0.0
H2270 H 0.47327 0.94939 0.12883 0.0
H2271 H 0.48898 0.9815 0.13564 0.0
C2272 C 0.37924 0.33901 0.87338 0.0
C2273 C 0.35925 0.32672 0.85422 0.0
C2274 C 0.38965 0.32612 0.90117 0.0
C2275 C 0.37989 0.30021 0.9098 0.0
C2276 C 0.35896 0.28817 0.89118 0.0
C2277 C 0.34887 0.3016 0.86361 0.0
C2278 C 0.4118 0.33976 0.92046 0.0
C2279 C 0.34818 0.26043 0.89908 0.0
C2280 C 0.42443 0.25118 0.95627 0.0
C2281 C 0.41328 0.25225 0.98766 0.0
C2282 C 0.41431 0.2673 0.93095 0.0
C2283 C 0.39247 0.285 0.93717 0.0
C2284 C 0.38169 0.28689 0.96907 0.0
C2285 C 0.39229 0.27055 0.99397 0.0
C2286 C 0.42636 0.26465 0.89726 0.0
C2287 C 0.35817 0.30529 0.97651 0.0
H2288 H 0.38694 0.3586 0.86632 0.0
H2289 H 0.3336 0.29191 0.84862 0.0
H2290 H 0.40768 0.33854 0.94703 0.0
H2291 H 0.43121 0.32923 0.91588 0.0
H2292 H 0.41419 0.36135 0.91364 0.0
H2293 H 0.32765 0.25738 0.88875 0.0
H2294 H 0.3618 0.24502 0.88831 0.0
H2295 H 0.34741 0.25688 0.92576 0.0
H2296 H 0.44083 0.23739 0.95128 0.0
H2297 H 0.38325 0.27125 0.01796 0.0
H2298 H 0.43248 0.28479 0.88797 0.0
H2299 H 0.41098 0.25646 0.88018 0.0
H2300 H 0.44422 0.25106 0.89689 0.0
H2301 H 0.3631 0.32634 0.96935 0.0
H2302 H 0.35264 0.30504 1.00278 0.0
H2303 H 0.34034 0.29896 0.96195 0.0
C2304 C 0.1 0.15022 0.7284 0.0
C2305 C 0.10633 0.17693 0.73654 0.0
C2306 C 0.08859 0.14402 0.69793 0.0
C2307 C 0.08248 0.16521 0.67585 0.0
C2308 C 0.08675 0.19241 0.68533 0.0
C2309 C 0.09928 0.19791 0.71531 0.0
C2310 C 0.08528 0.11475 0.68829 0.0
C2311 C 0.07977 0.21566 0.66304 0.0
C2312 C 0.08719 0.15125 0.58491 0.0
C2313 C 0.06018 0.14584 0.57659 0.0
C2314 C 0.09471 0.15711 0.6172 0.0
C2315 C 0.07461 0.15878 0.64168 0.0
C2316 C 1.04728 0.15411 0.63348 0.0
C2317 C 1.04047 0.14716 0.60128 0.0
C2318 C 0.12422 0.1617 0.62495 0.0
C2319 C 1.02517 0.15684 0.65863 0.0
H2320 H 0.10611 0.13402 0.74462 0.0
H2321 H 0.10461 0.21854 0.72158 0.0
H2322 H 0.06427 0.11078 0.68025 0.0
H2323 H 0.09868 0.11018 0.66731 0.0
H2324 H 0.0903 0.10075 0.7086 0.0
H2325 H 0.07881 0.23513 0.67654 0.0
H2326 H 0.09543 0.21751 0.64385 0.0
H2327 H 0.0601 0.21216 0.65072 0.0
H2328 H 0.10261 0.15105 0.56621 0.0
H2329 H 1.01962 0.14249 0.59571 0.0
H2330 H 0.1301 0.15107 0.64772 0.0
H2331 H 0.12786 0.18358 0.62887 0.0
H2332 H 0.13759 0.15471 0.6049 0.0
H2333 H 1.02933 0.14364 0.67991 0.0
H2334 H 1.00498 0.15161 0.64861 0.0
H2335 H 1.02457 0.17797 0.66775 0.0
C2336 C 0.16109 0.85132 0.46855 0.0
C2337 C 0.18182 0.85753 0.49052 0.0
C2338 C 0.16678 0.83917 0.43843 0.0
C2339 C 0.194 0.83467 0.42943 0.0
C2340 C 0.21488 0.83948 0.45244 0.0
C2341 C 0.20836 0.85019 0.48318 0.0
C2342 C 0.14377 0.83298 0.41541 0.0
C2343 C 0.24425 0.83592 0.44364 0.0
C2344 C 0.21037 0.79502 0.35245 0.0
C2345 C 0.21053 0.81546 0.3285 0.0
C2346 C 0.20486 0.80085 0.38531 0.0
C2347 C 0.20063 0.82795 0.39498 0.0
C2348 C 0.20191 0.84885 0.37144 0.0
C2349 C 0.20612 0.8423 0.33849 0.0
C2350 C 0.20274 0.77785 0.40939 0.0
C2351 C 0.19868 0.8782 0.38103 0.0
H2352 H 0.14055 0.85718 0.47425 0.0
H2353 H 0.22428 0.85505 0.5003 0.0
H2354 H 0.14267 0.8488 0.3963 0.0
H2355 H 0.14699 0.81326 0.40305 0.0
H2356 H 0.12407 0.83243 0.42834 0.0
H2357 H 0.25736 0.83557 0.46566 0.0
H2358 H 0.24754 0.81704 0.42958 0.0
H2359 H 0.25064 0.85307 0.42802 0.0
H2360 H 0.21462 0.77428 0.34579 0.0
H2361 H 0.20564 0.85838 0.32061 0.0
H2362 H 0.18114 0.77432 0.41513 0.0
H2363 H 0.21314 0.78276 0.43265 0.0
H2364 H 0.21139 0.75881 0.39954 0.0
H2365 H 0.17771 0.88196 0.38929 0.0
H2366 H 0.20315 0.89214 0.3605 0.0
H2367 H 0.21232 0.88319 0.40171 0.0
C2368 C 1.0207 0.63745 0.40172 0.0
C2369 C 1.03604 0.62194 0.42349 0.0
C2370 C 1.03249 0.64874 0.37374 0.0
C2371 C 0.06031 0.64457 0.36776 0.0
C2372 C 0.07589 0.62905 0.3899 0.0
C2373 C 0.06346 0.61764 0.41737 0.0
C2374 C 1.01532 0.66537 0.35086 0.0
C2375 C 0.10575 0.62479 0.38477 0.0
C2376 C 0.09006 0.64922 0.28284 0.0
C2377 C 0.1047 0.67339 0.28493 0.0
C2378 C 0.07456 0.64011 0.30922 0.0
C2379 C 0.0733 0.65585 0.33808 0.0
C2380 C 0.08667 0.68114 0.33948 0.0
C2381 C 0.10249 0.68947 0.31296 0.0
C2382 C 0.06099 0.61284 0.30696 0.0
C2383 C 0.08541 0.69874 0.36957 0.0
H2384 H 0.99945 0.64057 0.40659 0.0
H2385 H 0.07531 0.60592 0.43455 0.0
H2386 H 1.02279 0.68651 0.35046 0.0
H2387 H 1.01686 0.6574 0.32561 0.0
H2388 H 0.99373 0.66553 0.35814 0.0
H2389 H 0.11504 0.61296 0.40486 0.0
H2390 H 0.10918 0.61419 0.36126 0.0
H2391 H 0.11626 0.64454 0.38324 0.0
H2392 H 0.092 0.63658 0.26135 0.0
H2393 H 0.11364 0.70828 0.31445 0.0
H2394 H 1.03959 0.61431 0.31471 0.0
H2395 H 0.07121 0.59848 0.32371 0.0
H2396 H 0.0617 0.60437 0.28184 0.0
H2397 H 0.06422 0.70111 0.37782 0.0
H2398 H 0.09417 0.71911 0.36528 0.0
H2399 H 0.09678 0.689 0.38973 0.0
C2400 C 0.20716 0.34191 0.68819 0.0
C2401 C 0.21283 0.31498 0.6966 0.0
C2402 C 0.20113 0.34918 0.65588 0.0
C2403 C 0.19954 0.32886 0.63155 0.0
C2404 C 0.20468 0.30163 0.6398 0.0
C2405 C 0.21187 0.29512 0.67195 0.0
C2406 C 0.19609 0.37862 0.64805 0.0
C2407 C 0.20197 0.27926 0.61486 0.0
C2408 C 0.15946 0.35234 0.55827 0.0
C2409 C 0.18013 0.35933 0.53664 0.0
C2410 C 0.16537 0.34027 0.58835 0.0
C2411 C 0.19267 0.33636 0.59744 0.0
C2412 C 0.21354 0.34232 0.57494 0.0
C2413 C 0.20693 0.3533 0.54442 0.0
C2414 C 0.14247 0.33333 0.61111 0.0
C2415 C 0.24288 0.33932 0.58415 0.0
H2416 H 0.20717 0.35745 0.70683 0.0
H2417 H 0.21687 0.27433 0.67755 0.0
H2418 H 0.20552 0.38435 0.6245 0.0
H2419 H 0.17406 0.38215 0.64576 0.0
H2420 H 0.20399 0.39222 0.66744 0.0
H2421 H 0.20831 0.25932 0.62468 0.0
H2422 H 0.18059 0.27779 0.6069 0.0
H2423 H 0.21417 0.28376 0.59287 0.0
H2424 H 0.13873 0.35737 0.5522 0.0
H2425 H 0.22288 0.35932 0.52784 0.0
H2426 H 0.14071 0.34922 0.63012 0.0
H2427 H 0.14629 0.31381 0.62362 0.0
H2428 H 0.12288 0.33205 0.59794 0.0
H2429 H 0.24747 0.35284 0.60506 0.0
H2430 H 0.2566 0.34439 0.56363 0.0
H2431 H 0.24714 0.31835 0.59216 0.0
C2432 C 0.47768 0.44975 0.81639 0.0
C2433 C 0.49031 0.43863 0.78887 0.0
C2434 C 0.49146 0.45297 0.84577 0.0
C2435 C 0.51855 0.4442 0.84807 0.0
C2436 C 0.53202 0.43434 0.81988 0.0
C2437 C 0.51769 0.43188 0.79026 0.0
C2438 C 0.47631 0.46407 0.87487 0.0
C2439 C 0.56092 0.42486 0.82151 0.0
C2440 C 0.55075 0.46634 0.9275 0.0
C2441 C 0.54474 0.44429 0.94778 0.0
C2442 C 0.5442 0.46588 0.89416 0.0
C2443 C 0.53121 0.44288 0.8809 0.0
C2444 C 0.52629 0.42007 0.9009 0.0
C2445 C 0.53315 0.42105 0.93409 0.0
C2446 C 0.54965 0.49061 0.87366 0.0
C2447 C 0.51235 0.39518 0.88769 0.0
H2448 H 0.45647 0.45511 0.81529 0.0
H2449 H 0.52738 0.42323 0.76895 0.0
H2450 H 0.47313 0.44774 0.893 0.0
H2451 H 0.48814 0.48028 0.88696 0.0
H2452 H 0.45627 0.47243 0.86798 0.0
H2453 H 0.56968 0.42184 0.79681 0.0
H2454 H 0.57355 0.43955 0.83518 0.0
H2455 H 0.56183 0.40535 0.83481 0.0
H2456 H 0.55968 0.48441 0.93792 0.0
H2457 H 0.52909 0.4037 0.94945 0.0
H2458 H 0.53039 0.50138 0.86892 0.0
H2459 H 0.55824 0.48481 0.84966 0.0
H2460 H 0.56374 0.50484 0.88596 0.0
H2461 H 0.49093 0.40001 0.88222 0.0
H2462 H 0.51285 0.37811 0.90528 0.0
H2463 H 0.52192 0.38857 0.86455 0.0
C2464 C 0.4235 0.7747 0.0411 0.0
C2465 C 0.41686 0.74732 0.03854 0.0
C2466 C 0.42065 0.78818 0.07122 0.0
C2467 C 0.41052 0.77383 0.0986 0.0
C2468 C 0.40187 0.74678 0.09504 0.0
C2469 C 0.40561 0.7338 0.06526 0.0
C2470 C 0.43012 0.81705 0.0743 0.0
C2471 C 0.39045 0.73076 0.12325 0.0
C2472 C 0.43273 0.7856 0.18554 0.0
C2473 C 0.40946 0.79703 0.19917 0.0
C2474 C 0.43406 0.77977 0.15211 0.0
C2475 C 0.41153 0.78548 0.13191 0.0
C2476 C 0.38846 0.79815 0.14524 0.0
C2477 C 0.38767 0.80372 0.17878 0.0
C2478 C 0.45903 0.76616 0.13876 0.0
C2479 C 0.36399 0.80431 0.12453 0.0
H2480 H 0.43243 0.78496 0.02039 0.0
H2481 H 0.40065 0.71251 0.06323 0.0
H2482 H 0.41533 0.82929 0.08826 0.0
H2483 H 0.44947 0.81753 0.08797 0.0
H2484 H 0.43338 0.82656 0.05006 0.0
H2485 H 0.38222 0.7109 0.11534 0.0
H2486 H 0.40653 0.72707 0.1416 0.0
H2487 H 0.3741 0.74225 0.13547 0.0
H2488 H 0.44985 0.78102 0.2011 0.0
H2489 H 0.36961 0.81256 0.18924 0.0
H2490 H 0.4659 0.77645 0.1162 0.0
H2491 H 0.45424 0.74491 0.13221 0.0
H2492 H 0.47589 0.76607 0.15668 0.0
H2493 H 0.37005 0.81344 0.10093 0.0
H2494 H 0.34979 0.81823 0.13709 0.0
H2495 H 0.35314 0.78523 0.11897 0.0
C2496 C 0.06234 0.46776 0.60222 0.0
C2497 C 1.04199 0.46797 0.57815 0.0
C2498 C 0.05648 0.46171 0.63489 0.0
C2499 C 1.02945 0.45692 0.64419 0.0
C2500 C 1.00867 0.45783 0.62041 0.0
C2501 C 1.01526 0.46277 0.58766 0.0
C2502 C 0.07933 0.45969 0.65923 0.0
C2503 C 0.97943 0.45307 0.62934 0.0
C2504 C 1.00679 0.41808 0.71855 0.0
C2505 C 0.99956 0.43913 0.73966 0.0
C2506 C 1.01889 0.42351 0.6884 0.0
C2507 C 1.02263 0.45069 0.67867 0.0
C2508 C 1.01666 0.47195 0.70076 0.0
C2509 C 1.00552 0.46585 0.73136 0.0
C2510 C 1.02583 0.4002 0.66613 0.0
C2511 C 1.01968 0.50115 0.69093 0.0
H2512 H 0.083 0.4724 0.59572 0.0
H2513 H 0.99935 0.46222 0.5695 0.0
H2514 H 0.0751 0.47217 0.68113 0.0
H2515 H 0.08127 0.43842 0.66751 0.0
H2516 H 0.09895 0.46615 0.6487 0.0
H2517 H 0.96545 0.46005 0.60987 0.0
H2518 H 0.97603 0.43114 0.63314 0.0
H2519 H 0.97415 0.46356 0.65241 0.0
H2520 H 1.00179 0.39742 0.72498 0.0
H2521 H 0.9993 0.48207 0.74752 0.0
H2522 H 1.04525 0.40387 0.65342 0.0
H2523 H 1.00989 0.39801 0.64726 0.0
H2524 H 1.02726 0.38084 0.67975 0.0
H2525 H 1.04038 0.50509 0.68184 0.0
H2526 H 1.01542 0.5152 0.71146 0.0
H2527 H 1.00554 0.50556 0.6706 0.0
C2528 C 0.89064 0.77292 0.34307 0.0
C2529 C 0.89989 0.7977 0.33082 0.0
C2530 C 0.89314 0.76663 0.37634 0.0
C2531 C 0.90497 0.78569 0.39791 0.0
C2532 C 0.91259 0.81143 0.38613 0.0
C2533 C 0.91027 0.81696 0.35271 0.0
C2534 C 0.88458 0.73898 0.38806 0.0
C2535 C 0.92482 0.83277 0.40799 0.0
C2536 C 0.90152 0.76704 0.48777 0.0
C2537 C 0.92536 0.75207 0.49089 0.0
C2538 C 0.89497 0.77942 0.4579 0.0
C2539 C 0.91298 0.77702 0.43121 0.0
C2540 C 0.93838 0.76451 0.43569 0.0
C2541 C 0.94428 0.75232 0.46558 0.0
C2542 C 0.86835 0.7939 0.45431 0.0
C2543 C 0.95866 0.76244 0.40829 0.0
H2544 H 0.88198 0.75815 0.32653 0.0
H2545 H 0.91776 0.83603 0.34358 0.0
H2546 H 0.90275 0.72697 0.39455 0.0
H2547 H 0.87203 0.74072 0.41037 0.0
H2548 H 0.873 0.72771 0.3692 0.0
H2549 H 0.91619 0.85288 0.40202 0.0
H2550 H 0.92148 0.82888 0.43432 0.0
H2551 H 0.94689 0.8338 0.40343 0.0
H2552 H 0.88726 0.76751 0.50778 0.0
H2553 H 0.96327 0.74181 0.46866 0.0
H2554 H 0.85579 0.78358 0.43563 0.0
H2555 H 0.87187 0.81486 0.44564 0.0
H2556 H 0.85693 0.79467 0.47762 0.0
H2557 H 0.97811 0.75354 0.41647 0.0
H2558 H 0.96267 0.78276 0.39791 0.0
H2559 H 0.95032 0.74961 0.38844 0.0
C2560 C 0.54705 0.64268 0.10246 0.0
C2561 C 0.55624 0.66313 0.08149 0.0
C2562 C 0.55255 0.64359 0.13607 0.0
C2563 C 0.56779 0.66534 0.1489 0.0
C2564 C 0.57582 0.68676 0.12815 0.0
C2565 C 0.56992 0.6854 0.09472 0.0
C2566 C 0.54353 0.62046 0.15741 0.0
C2567 C 0.59211 0.71036 0.14086 0.0
C2568 C 0.58081 0.67855 0.23915 0.0
C2569 C 0.60718 0.66868 0.24187 0.0
C2570 C 0.56672 0.67625 0.20936 0.0
C2571 C 0.57943 0.66364 0.18228 0.0
C2572 C 0.60523 0.65182 0.18607 0.0
C2573 C 0.6188 0.65471 0.2157 0.0
C2574 C 0.53914 0.68891 0.20623 0.0
C2575 C 0.61952 0.63791 0.15812 0.0
H2576 H 0.53646 0.62538 0.09244 0.0
H2577 H 0.57642 0.70163 0.07879 0.0
H2578 H 0.56111 0.60741 0.16317 0.0
H2579 H 0.53533 0.62807 0.18087 0.0
H2580 H 0.52791 0.60784 0.14524 0.0
H2581 H 0.59416 0.72671 0.12246 0.0
H2582 H 0.58263 0.71888 0.16312 0.0
H2583 H 0.61263 0.70333 0.1477 0.0
H2584 H 0.57198 0.68953 0.25942 0.0
H2585 H 0.63928 0.64722 0.21784 0.0
H2586 H 0.52523 0.6754 0.19259 0.0
H2587 H 0.54079 0.70804 0.19227 0.0
H2588 H 0.5302 0.69356 0.23046 0.0
H2589 H 0.63855 0.62797 0.16605 0.0
H2590 H 0.6245 0.65293 0.13896 0.0
H2591 H 0.60623 0.62243 0.14688 0.0
C2592 C 0.67132 0.3578 0.96074 0.0
C2593 C 0.68798 0.36074 0.98816 0.0
C2594 C 0.67967 0.34237 0.93384 0.0
C2595 C 0.70558 0.33029 0.93416 0.0
C2596 C 0.72209 0.33248 0.9623 0.0
C2597 C 0.71292 0.34745 0.98918 0.0
C2598 C 0.66121 0.33989 0.90463 0.0
C2599 C 0.74999 0.32024 0.96334 0.0
C2600 C 0.72281 0.27752 0.87001 0.0
C2601 C 0.73642 0.29318 0.84683 0.0
C2602 C 0.7129 0.28918 0.89885 0.0
C2603 C 0.71633 0.31726 0.90418 0.0
C2604 C 0.73009 0.33312 0.88074 0.0
C2605 C 0.74025 0.32081 0.85245 0.0
C2606 C 0.69813 0.27161 0.92305 0.0
C2607 C 0.73344 0.36324 0.88515 0.0
H2608 H 0.65194 0.36798 0.9601 0.0
H2609 H 0.72596 0.35001 1.01023 0.0
H2610 H 0.67016 0.3506 0.88349 0.0
H2611 H 0.65891 0.31834 0.8976 0.0
H2612 H 0.64088 0.34852 0.9094 0.0
H2613 H 0.7595 0.32213 0.98782 0.0
H2614 H 0.74913 0.29853 0.95658 0.0
H2615 H 0.7631 0.33052 0.94523 0.0
H2616 H 0.71993 0.25615 0.86547 0.0
H2617 H 0.75046 0.33292 0.83419 0.0
H2618 H 0.67613 0.27554 0.92109 0.0
H2619 H 0.70435 0.27637 0.94844 0.0
H2620 H 0.70171 0.24979 0.91849 0.0
H2621 H 0.71337 0.37315 0.88559 0.0
H2622 H 0.74549 0.37244 0.86522 0.0
H2623 H 0.74328 0.36759 0.90892 0.0
C2624 C 0.35779 0.27693 0.23611 0.0
C2625 C 0.3701 0.25383 0.24943 0.0
C2626 C 0.34466 0.29584 0.25607 0.0
C2627 C 0.34482 0.29224 0.29031 0.0
C2628 C 0.35731 0.2692 0.30403 0.0
C2629 C 0.36921 0.24999 0.28341 0.0
C2630 C 0.33073 0.31974 0.24049 0.0
C2631 C 0.35855 0.26507 0.34054 0.0
C2632 C 0.33437 0.35526 0.3416 0.0
C2633 C 0.30769 0.3519 0.35248 0.0
C2634 C 0.3469 0.33568 0.32201 0.0
C2635 C 0.33208 0.31272 0.31185 0.0
C2636 C 0.30511 0.30928 0.32226 0.0
C2637 C 0.29349 0.32853 0.34306 0.0
C2638 C 0.37604 0.33956 0.31224 0.0
C2639 C 0.28839 0.28542 0.31114 0.0
H2640 H 0.35873 0.2806 0.21009 0.0
H2641 H 0.37795 0.23199 0.2941 0.0
H2642 H 0.30954 0.32108 0.24914 0.0
H2643 H 0.34099 0.33873 0.24779 0.0
H2644 H 0.33065 0.31847 0.21341 0.0
H2645 H 0.37007 0.24664 0.34735 0.0
H2646 H 0.36821 0.28283 0.35234 0.0
H2647 H 0.33787 0.26336 0.35065 0.0
H2648 H 0.34551 0.37332 0.34807 0.0
H2649 H 0.2732 0.3251 0.35195 0.0
H2650 H 0.37753 0.34187 0.28538 0.0
H2651 H 0.38804 0.32147 0.31905 0.0
H2652 H 0.38525 0.35761 0.32396 0.0
H2653 H 0.28816 0.28439 0.28407 0.0
H2654 H 0.26723 0.28654 0.31997 0.0
H2655 H 0.29748 0.26634 0.32011 0.0
C2656 C 0.61468 0.57049 0.48722 0.0
C2657 C 0.60611 0.5602 0.457 0.0
C2658 C 0.59898 0.56714 0.51533 0.0
C2659 C 0.57417 0.55312 0.5131 0.0
C2660 C 0.566 0.54162 0.48298 0.0
C2661 C 0.58213 0.54529 0.45522 0.0
C2662 C 0.60845 0.57946 0.5471 0.0
C2663 C 0.5397 0.5264 0.47978 0.0
C2664 C 0.53965 0.52652 0.58891 0.0
C2665 C 0.51918 0.54575 0.59351 0.0
C2666 C 0.55819 0.52902 0.56333 0.0
C2667 C 0.55621 0.55134 0.54194 0.0
C2668 C 0.53633 0.57146 0.54733 0.0
C2669 C 0.51803 0.56843 0.57316 0.0
C2670 C 0.57924 0.5073 0.55851 0.0
C2671 C 0.53375 0.59562 0.52505 0.0
H2672 H 0.63341 0.58177 0.48867 0.0
H2673 H 0.57536 0.53753 0.43184 0.0
H2674 H 0.59432 0.5957 0.55465 0.0
H2675 H 0.60846 0.56402 0.56672 0.0
H2676 H 0.62904 0.5882 0.54516 0.0
H2677 H 0.53699 0.51748 0.45508 0.0
H2678 H 0.53873 0.50995 0.49811 0.0
H2679 H 0.52256 0.54027 0.48468 0.0
H2680 H 0.54078 0.50915 0.60498 0.0
H2681 H 0.5021 0.5832 0.57658 0.0
H2682 H 0.59966 0.51644 0.55702 0.0
H2683 H 0.57551 0.49663 0.53509 0.0
H2684 H 0.57914 0.49217 0.57854 0.0
H2685 H 0.55337 0.60633 0.52324 0.0
H2686 H 0.51819 0.61015 0.53363 0.0
H2687 H 0.52826 0.58877 0.5001 0.0
C2688 C 0.2732 0.82045 0.68799 0.0
C2689 C 0.29315 0.83986 0.68161 0.0
C2690 C 0.27566 0.8026 0.71435 0.0
C2691 C 0.29865 0.80422 0.73477 0.0
C2692 C 0.31935 0.82311 0.72772 0.0
C2693 C 0.31638 0.8407 0.70111 0.0
C2694 C 0.2533 0.78258 0.72088 0.0
C2695 C 0.34421 0.82534 0.74894 0.0
C2696 C 0.29398 0.78022 0.82251 0.0
C2697 C 0.30775 0.75552 0.82095 0.0
C2698 C 0.29036 0.79604 0.79444 0.0
C2699 C 0.30067 0.78682 0.76417 0.0
C2700 C 0.31364 0.7614 0.76224 0.0
C2701 C 0.31704 0.74605 0.79068 0.0
C2702 C 0.27637 0.82305 0.79738 0.0
C2703 C 0.32465 0.75079 0.73034 0.0
H2704 H 0.25539 0.81953 0.67259 0.0
H2705 H 0.33171 0.85581 0.69631 0.0
H2706 H 0.26163 0.76181 0.72251 0.0
H2707 H 0.2437 0.7872 0.7447 0.0
H2708 H 0.23748 0.78295 0.70163 0.0
H2709 H 0.35896 0.84023 0.7393 0.0
H2710 H 0.33832 0.83157 0.77397 0.0
H2711 H 0.35429 0.80538 0.75094 0.0
H2712 H 0.28702 0.7877 0.84592 0.0
H2713 H 0.32744 0.72679 0.78939 0.0
H2714 H 0.25935 0.82426 0.77981 0.0
H2715 H 0.2907 0.8395 0.79119 0.0
H2716 H 0.26846 0.82672 0.82236 0.0
H2717 H 0.30861 0.75077 0.71141 0.0
H2718 H 0.33283 0.72996 0.73266 0.0
H2719 H 0.34101 0.76425 0.72157 0.0
C2720 C 0.08098 0.56158 0.09456 0.0
C2721 C 0.10304 0.54657 0.1063 0.0
C2722 C 0.06199 0.55004 0.07336 0.0
C2723 C 0.06436 0.52246 0.06478 0.0
C2724 C 0.08608 0.50693 0.07709 0.0
C2725 C 0.10543 0.51928 0.09722 0.0
C2726 C 1.03944 0.56743 0.06005 0.0
C2727 C 0.08877 0.47722 0.0692 0.0
C2728 C 1.00025 0.48814 0.03595 0.0
C2729 C 1.00459 0.48614 1.00215 0.0
C2730 C 1.01982 0.49931 0.05668 0.0
C2731 C 1.04387 0.50982 0.04319 0.0
C2732 C 1.04819 0.50857 1.0091 0.0
C2733 C 1.02876 0.49628 0.98907 0.0
C2734 C 1.01481 0.49969 0.09306 0.0
C2735 C 0.07329 0.52032 0.99376 0.0
H2736 H 0.07832 0.58241 0.10205 0.0
H2737 H 0.12252 0.50752 0.10562 0.0
H2738 H 1.03918 0.56638 0.03299 0.0
H2739 H 1.01968 0.55979 0.06876 0.0
H2740 H 1.04145 0.58894 0.06752 0.0
H2741 H 0.10618 0.46773 0.08192 0.0
H2742 H 0.07007 0.46637 0.0763 0.0
H2743 H 0.09137 0.4744 0.04253 0.0
H2744 H 0.98148 0.48101 0.04639 0.0
H2745 H 1.03274 0.4944 0.96318 0.0
H2746 H 1.01374 0.52085 0.10193 0.0
H2747 H 1.03182 0.48979 0.10603 0.0
H2748 H 0.99577 0.48924 0.09978 0.0
H2749 H 0.07541 0.54191 1.00073 0.0
H2750 H 0.07298 0.51885 0.9667 0.0
H2751 H 0.09144 0.50961 1.00294 0.0
C2752 C 0.81067 0.84083 0.80868 0.0
C2753 C 0.78786 0.84091 0.8288 0.0
C2754 C 0.81305 0.82214 0.78306 0.0
C2755 C 0.79208 0.80318 0.77755 0.0
C2756 C 0.76942 0.80261 0.79847 0.0
C2757 C 0.76765 0.82141 0.82395 0.0
C2758 C 0.83764 0.82315 0.76134 0.0
C2759 C 0.74673 0.78262 0.79343 0.0
C2760 C 0.78781 0.77549 0.69139 0.0
C2761 C 0.80176 0.75101 0.69461 0.0
C2762 C 0.78363 0.79229 0.71852 0.0
C2763 C 0.79369 0.78435 0.74944 0.0
C2764 C 0.80653 0.759 0.75311 0.0
C2765 C 0.81033 0.74259 0.72563 0.0
C2766 C 0.76959 0.8191 0.71381 0.0
C2767 C 0.81738 0.74979 0.78572 0.0
H2768 H 0.82622 0.85598 0.81225 0.0
H2769 H 0.75018 0.82114 0.83988 0.0
H2770 H 0.84758 0.80306 0.76062 0.0
H2771 H 0.83148 0.82816 0.73601 0.0
H2772 H 0.85261 0.83839 0.76971 0.0
H2773 H 0.73101 0.7842 0.81266 0.0
H2774 H 0.73709 0.78614 0.76934 0.0
H2775 H 0.75475 0.76169 0.79327 0.0
H2776 H 0.78136 0.78214 0.66741 0.0
H2777 H 0.82081 0.72346 0.7282 0.0
H2778 H 0.7841 0.83581 0.71823 0.0
H2779 H 0.75296 0.8214 0.73172 0.0
H2780 H 0.76116 0.82134 0.68881 0.0
H2781 H 0.83413 0.76326 0.79343 0.0
H2782 H 0.82504 0.72869 0.7849 0.0
H2783 H 0.80146 0.75115 0.80467 0.0
C2784 C 0.78718 0.37107 0.23449 0.0
C2785 C 0.79821 0.3636 0.20429 0.0
C2786 C 0.79076 0.35486 0.26217 0.0
C2787 C 0.80571 0.33061 0.25949 0.0
C2788 C 0.81792 0.32357 0.2294 0.0
C2789 C 0.81406 0.34023 0.2021 0.0
C2790 C 0.77769 0.36316 0.29393 0.0
C2791 C 0.8341 0.29788 0.22572 0.0
C2792 C 0.83187 0.29557 0.33537 0.0
C2793 C 0.81303 0.27463 0.33911 0.0
C2794 C 0.82945 0.31432 0.30994 0.0
C2795 C 0.80766 0.31202 0.28778 0.0
C2796 C 0.78804 0.29149 0.29212 0.0
C2797 C 0.79093 0.27303 0.31786 0.0
C2798 C 0.85059 0.33609 0.30628 0.0
C2799 C 0.76447 0.28851 0.26896 0.0
H2800 H 0.77515 0.38933 0.23625 0.0
H2801 H 0.82239 0.33432 0.17869 0.0
H2802 H 0.76186 0.3483 0.30058 0.0
H2803 H 0.79281 0.36324 0.31393 0.0
H2804 H 0.76828 0.38351 0.29245 0.0
H2805 H 0.8435 0.2961 0.2012 0.0
H2806 H 0.85025 0.29702 0.24448 0.0
H2807 H 0.82078 0.28013 0.22962 0.0
H2808 H 0.84879 0.29702 0.35211 0.0
H2809 H 0.77649 0.25673 0.3206 0.0
H2810 H 0.84089 0.35629 0.30542 0.0
H2811 H 0.86154 0.33329 0.2829 0.0
H2812 H 0.86552 0.33589 0.32654 0.0
H2813 H 0.75301 0.30774 0.26757 0.0
H2814 H 0.75046 0.27213 0.27647 0.0
H2815 H 0.77199 0.28398 0.24405 0.0
C2816 C 0.08758 1.04443 0.95614 0.0
C2817 C 0.08563 0.06647 0.93482 0.0
C2818 C 0.06901 1.04113 0.98164 0.0
C2819 C 1.0481 0.06036 0.98586 0.0
C2820 C 1.04547 0.08208 0.9637 0.0
C2821 C 0.06421 0.08481 0.93835 0.0
C2822 C 0.07228 1.01756 1.00471 0.0
C2823 C 1.02337 0.1029 0.96734 0.0
C2824 C 0.98914 1.03931 0.0388 0.0
C2825 C 0.99647 1.0503 0.06915 0.0
C2826 C 1.00544 1.04296 1.01124 0.0
C2827 C 1.02951 0.05813 0.01408 0.0
C2828 C 1.03639 0.07033 0.04427 0.0
C2829 C 1.01976 0.06624 0.07151 0.0
C2830 C 0.99739 1.02975 0.97941 0.0
C2831 C 0.06184 0.08685 0.0481 0.0
H2832 H 0.10422 1.03035 0.95364 0.0
H2833 H 0.06239 0.10164 0.92155 0.0
H2834 H 0.07681 1.02513 0.02963 0.0
H2835 H 1.0532 1.00589 1.00614 0.0
H2836 H 0.08876 1.00369 0.99709 0.0
H2837 H 1.02339 0.11787 0.94714 0.0
H2838 H 1.00335 0.09287 0.96806 0.0
H2839 H 1.02592 0.11389 0.99077 0.0
H2840 H 0.97091 1.0273 0.0368 0.0
H2841 H 1.02561 0.07456 0.09497 0.0
H2842 H 1.01255 1.01421 0.97267 0.0
H2843 H 0.99702 1.04491 0.95949 0.0
H2844 H 0.97726 1.01993 0.98082 0.0
H2845 H 0.07974 0.07374 0.04426 0.0
H2846 H 0.06343 0.09631 0.07264 0.0
H2847 H 0.06254 0.10301 0.02937 0.0
C2848 C 0.61505 0.0754 0.53476 0.0
C2849 C 0.60777 0.06373 0.56468 0.0
C2850 C 0.59896 0.07198 0.50692 0.0
C2851 C 0.57504 0.05651 0.50911 0.0
C2852 C 0.56813 1.04377 0.53891 0.0
C2853 C 0.58466 1.0475 0.56639 0.0
C2854 C 0.6071 0.08563 0.47548 0.0
C2855 C 0.54278 1.02703 0.54207 0.0
C2856 C 0.51734 0.06997 0.45033 0.0
C2857 C 0.51955 1.0479 0.42909 0.0
C2858 C 0.5357 0.07338 0.47613 0.0
C2859 C 0.55674 0.05431 0.48053 0.0
C2860 C 0.55972 1.03265 0.45827 0.0
C2861 C 0.54107 1.02972 0.43279 0.0
C2862 C 0.532 0.0968 0.49938 0.0
C2863 C 0.58205 1.01208 0.46198 0.0
H2864 H 0.63312 0.08772 0.53335 0.0
H2865 H 0.57888 1.03868 0.58957 0.0
H2866 H 0.60782 0.07068 0.4553 0.0
H2867 H 0.59182 0.10106 0.46877 0.0
H2868 H 0.62711 0.09567 0.4774 0.0
H2869 H 0.54096 1.01749 0.5665 0.0
H2870 H 0.52482 1.03998 0.5379 0.0
H2871 H 0.54247 1.01091 0.52322 0.0
H2872 H 0.50059 0.08391 0.44761 0.0
H2873 H 0.54298 1.01282 0.41606 0.0
H2874 H 0.55095 0.10865 0.50125 0.0
H2875 H 0.52734 0.08904 0.52414 0.0
H2876 H 0.51545 0.11054 0.49164 0.0
H2877 H 0.60192 1.02235 0.46335 0.0
H2878 H 0.58246 0.99736 0.44148 0.0
H2879 H 0.57933 1.00078 0.48513 0.0
loop_
_geom_bond_atom_site_label_1
_geom_bond_atom_site_label_2
_geom_bond_distance
_geom_bond_site_symmetry_2
_ccdc_geom_bond_type
Eu0 N31 2.657 1_554 S
Eu0 N38 2.609 . S
Eu0 O44 2.558 1_554 S
Eu0 O45 2.612 . S
Eu0 O47 2.339 1_554 S
Eu0 O48 2.563 . S
Eu0 O49 2.419 1_554 S
Eu0 O51 2.380 . S
Eu0 O52 2.432 . S
Eu0 C64 2.848 1_554 S
C1 C4 1.429 . S
C1 C5 1.411 . S
C1 N8 1.377 . S
C2 C4 1.420 . S
C2 C6 1.423 . S
C2 C14 1.392 . S
C3 C5 1.420 . S
C3 C6 1.351 . S
C3 H26 0.931 . S
C4 C1 1.429 . S
C4 C2 1.420 . S
C4 N12 1.362 . S
C5 C1 1.411 . S
C5 C3 1.420 . S
C5 C10 1.395 . S
C6 C2 1.423 . S
C6 C3 1.351 . S
C6 H18 0.930 . S
C7 C9 1.400 . S
C7 C10 1.386 . S
C7 H19 0.930 . S
N8 C1 1.377 . S
N8 C9 1.321 . S
N8 Eu11 2.609 . S
C9 C7 1.400 . S
C9 N8 1.321 . S
C9 H16 0.930 . S
C10 C5 1.395 . S
C10 C7 1.386 . S
C10 H29 0.930 . S
Eu11 N8 2.609 . S
Eu11 N12 2.657 . S
Eu11 O45 2.380 . S
Eu11 O46 2.432 . S
Eu11 O50 2.558 . S
Eu11 O51 2.612 . S
Eu11 O53 2.339 . S
Eu11 O54 2.563 . S
Eu11 O55 2.419 . S
Eu11 C75 2.848 . S
N12 C4 1.362 . S
N12 Eu11 2.657 . S
N12 C13 1.334 . S
C13 N12 1.334 . S
C13 C15 1.413 . S
C13 H20 0.929 . S
C14 C2 1.392 . S
C14 C15 1.367 . S
C14 H22 0.930 . S
C15 C13 1.413 . S
C15 C14 1.367 . S
C15 H17 0.930 . S
H16 C9 0.930 . S
H17 C15 0.930 . S
H18 C6 0.930 . S
H19 C7 0.930 . S
H20 C13 0.929 . S
H21 C35 0.930 . S
H22 C14 0.930 . S
H23 C41 0.930 . S
H24 C32 0.929 . S
H25 C39 0.930 . S
H26 C3 0.931 . S
H27 C33 0.930 . S
H28 C66 0.930 . S
H29 C10 0.930 . S
H30 C65 0.931 . S
N31 Eu0 2.657 1_556 S
N31 C32 1.334 . S
N31 C36 1.362 . S
C32 H24 0.929 . S
C32 N31 1.334 . S
C32 C35 1.413 . S
C33 H27 0.930 . S
C33 C34 1.392 . S
C33 C35 1.367 . S
C34 C33 1.392 . S
C34 C36 1.420 . S
C34 C66 1.423 . S
C35 H21 0.930 . S
C35 C32 1.413 . S
C35 C33 1.367 . S
C36 N31 1.362 . S
C36 C34 1.420 . S
C36 C40 1.429 . S
H37 C42 0.930 . S
N38 Eu0 2.609 . S
N38 C40 1.377 1_554 S
N38 C41 1.321 . S
C39 H25 0.930 . S
C39 C41 1.400 . S
C39 C42 1.386 1_554 S
C40 C36 1.429 . S
C40 N38 1.377 1_556 S
C40 C43 1.411 . S
C41 H23 0.930 . S
C41 N38 1.321 . S
C41 C39 1.400 . S
C42 H37 0.930 . S
C42 C39 1.386 1_556 S
C42 C43 1.395 . S
C43 C40 1.411 . S
C43 C42 1.395 . S
C43 C65 1.420 . S
O44 Eu0 2.558 1_556 S
O44 C64 1.257 . S
O45 Eu0 2.612 . S
O45 Eu11 2.380 . S
O45 C56 1.276 . S
O46 Eu11 2.432 . S
O46 C63 1.264 1_554 S
O47 Eu0 2.339 1_556 S
O47 C63 1.254 . S
O48 Eu0 2.563 . S
O48 C56 1.235 . S
O49 Eu0 2.419 1_556 S
O49 C64 1.249 . S
O50 Eu11 2.558 . S
O50 C75 1.257 . S
O51 Eu0 2.380 . S
O51 Eu11 2.612 . S
O51 C67 1.276 . S
O52 Eu0 2.432 . S
O52 C74 1.264 . S
O53 Eu11 2.339 . S
O53 C74 1.254 . S
O54 Eu11 2.563 . S
O54 C67 1.235 . S
O55 Eu11 2.419 . S
O55 C75 1.249 . S
C56 O45 1.276 . S
C56 O48 1.235 . S
C57 C59 1.393 . S
C57 C61 1.395 . S
C57 C64 1.492 . S
C58 C59 1.392 . S
C58 C60 1.386 . S
C59 C57 1.393 . S
C59 C58 1.392 . S
C59 H76 0.930 . S
C60 C58 1.386 . S
C60 C62 1.395 . S
C60 H77 0.930 . S
C61 C57 1.395 . S
C61 C62 1.379 . S
C61 H78 0.930 . S
C62 C60 1.395 . S
C62 C61 1.379 . S
C62 H79 0.930 . S
C63 O46 1.264 1_556 S
C63 O47 1.254 . S
C64 Eu0 2.848 1_556 S
C64 O44 1.257 . S
C64 O49 1.249 . S
C64 C57 1.492 . S
C65 H30 0.931 . S
C65 C43 1.420 . S
C65 C66 1.351 . S
C66 H28 0.930 . S
C66 C34 1.423 . S
C66 C65 1.351 . S
C67 O51 1.276 . S
C67 O54 1.235 . S
C68 C69 1.393 . S
C68 C72 1.395 . S
C68 C75 1.492 . S
C69 C68 1.393 . S
C69 C70 1.392 . S
C69 H80 0.930 . S
C70 C69 1.392 . S
C70 C71 1.386 . S
C71 C70 1.386 . S
C71 C73 1.395 . S
C71 H81 0.930 . S
C72 C68 1.395 . S
C72 C73 1.379 . S
C72 H82 0.930 . S
C73 C71 1.395 . S
C73 C72 1.379 . S
C73 H83 0.930 . S
C74 O52 1.264 . S
C74 O53 1.254 . S
C75 Eu11 2.848 . S
C75 O50 1.257 . S
C75 O55 1.249 . S
C75 C68 1.492 . S
H76 C59 0.930 . S
H77 C60 0.930 . S
H78 C61 0.930 . S
H79 C62 0.930 . S
H80 C69 0.930 . S
H81 C71 0.930 . S
H82 C72 0.930 . S
H83 C73 0.930 . S
Eu84 N115 2.657 . S
Eu84 N122 2.609 . S
Eu84 O128 2.558 . S
Eu84 O129 2.612 . S
Eu84 O131 2.339 . S
Eu84 O132 2.563 . S
Eu84 O133 2.419 . S
Eu84 O135 2.380 . S
Eu84 O136 2.432 . S
Eu84 C148 2.848 . S
C85 C88 1.429 . S
C85 C89 1.411 . S
C85 N92 1.377 . S
C86 C88 1.420 . S
C86 C90 1.423 . S
C86 C98 1.392 . S
C87 C89 1.420 . S
C87 C90 1.351 . S
C87 H110 0.931 . S
C88 C85 1.429 . S
C88 C86 1.420 . S
C88 N96 1.362 . S
C89 C85 1.411 . S
C89 C87 1.420 . S
C89 C94 1.395 . S
C90 C86 1.423 . S
C90 C87 1.351 . S
C90 H102 0.930 . S
C91 C93 1.400 . S
C91 C94 1.386 . S
C91 H103 0.930 . S
N92 C85 1.377 . S
N92 C93 1.321 . S
N92 Eu95 2.609 . S
C93 C91 1.400 . S
C93 N92 1.321 . S
C93 H100 0.930 . S
C94 C89 1.395 . S
C94 C91 1.386 . S
C94 H113 0.930 . S
Eu95 N92 2.609 . S
Eu95 N96 2.657 . S
Eu95 O129 2.380 . S
Eu95 O130 2.432 . S
Eu95 O134 2.558 . S
Eu95 O135 2.612 . S
Eu95 O137 2.339 . S
Eu95 O138 2.563 . S
Eu95 O139 2.419 . S
Eu95 C159 2.848 . S
N96 C88 1.362 . S
N96 Eu95 2.657 . S
N96 C97 1.334 . S
C97 N96 1.334 . S
C97 C99 1.413 . S
C97 H104 0.929 . S
C98 C86 1.392 . S
C98 C99 1.367 . S
C98 H106 0.930 . S
C99 C97 1.413 . S
C99 C98 1.367 . S
C99 H101 0.930 . S
H100 C93 0.930 . S
H101 C99 0.930 . S
H102 C90 0.930 . S
H103 C91 0.930 . S
H104 C97 0.929 . S
H105 C119 0.930 . S
H106 C98 0.930 . S
H107 C125 0.930 . S
H108 C116 0.929 . S
H109 C123 0.930 . S
H110 C87 0.931 . S
H111 C117 0.930 . S
H112 C150 0.930 . S
H113 C94 0.930 . S
H114 C149 0.931 . S
N115 Eu84 2.657 . S
N115 C116 1.334 . S
N115 C120 1.362 . S
C116 H108 0.929 . S
C116 N115 1.334 . S
C116 C119 1.413 . S
C117 H111 0.930 . S
C117 C118 1.392 . S
C117 C119 1.367 . S
C118 C117 1.392 . S
C118 C120 1.420 . S
C118 C150 1.423 . S
C119 H105 0.930 . S
C119 C116 1.413 . S
C119 C117 1.367 . S
C120 N115 1.362 . S
C120 C118 1.420 . S
C120 C124 1.429 . S
H121 C126 0.930 . S
N122 Eu84 2.609 . S
N122 C124 1.377 . S
N122 C125 1.321 . S
C123 H109 0.930 . S
C123 C125 1.400 . S
C123 C126 1.386 . S
C124 C120 1.429 . S
C124 N122 1.377 . S
C124 C127 1.411 . S
C125 H107 0.930 . S
C125 N122 1.321 . S
C125 C123 1.400 . S
C126 H121 0.930 . S
C126 C123 1.386 . S
C126 C127 1.395 . S
C127 C124 1.411 . S
C127 C126 1.395 . S
C127 C149 1.420 . S
O128 Eu84 2.558 . S
O128 C148 1.257 . S
O129 Eu84 2.612 . S
O129 Eu95 2.380 . S
O129 C140 1.276 . S
O130 Eu95 2.432 . S
O130 C147 1.264 . S
O131 Eu84 2.339 . S
O131 C147 1.254 . S
O132 Eu84 2.563 . S
O132 C140 1.235 . S
O133 Eu84 2.419 . S
O133 C148 1.249 . S
O134 Eu95 2.558 . S
O134 C159 1.257 . S
O135 Eu84 2.380 . S
O135 Eu95 2.612 . S
O135 C151 1.276 . S
O136 Eu84 2.432 . S
O136 C158 1.264 . S
O137 Eu95 2.339 . S
O137 C158 1.254 . S
O138 Eu95 2.563 . S
O138 C151 1.235 . S
O139 Eu95 2.419 . S
O139 C159 1.249 . S
C140 O129 1.276 . S
C140 O132 1.235 . S
C141 C143 1.393 . S
C141 C145 1.395 . S
C141 C148 1.492 . S
C142 C143 1.392 . S
C142 C144 1.386 . S
C143 C141 1.393 . S
C143 C142 1.392 . S
C143 H160 0.930 . S
C144 C142 1.386 . S
C144 C146 1.395 . S
C144 H161 0.930 . S
C145 C141 1.395 . S
C145 C146 1.379 . S
C145 H162 0.930 . S
C146 C144 1.395 . S
C146 C145 1.379 . S
C146 H163 0.930 . S
C147 O130 1.264 . S
C147 O131 1.254 . S
C148 Eu84 2.848 . S
C148 O128 1.257 . S
C148 O133 1.249 . S
C148 C141 1.492 . S
C149 H114 0.931 . S
C149 C127 1.420 . S
C149 C150 1.351 . S
C150 H112 0.930 . S
C150 C118 1.423 . S
C150 C149 1.351 . S
C151 O135 1.276 . S
C151 O138 1.235 . S
C152 C153 1.393 . S
C152 C156 1.395 . S
C152 C159 1.492 . S
C153 C152 1.393 . S
C153 C154 1.392 . S
C153 H164 0.930 . S
C154 C153 1.392 . S
C154 C155 1.386 . S
C155 C154 1.386 . S
C155 C157 1.395 . S
C155 H165 0.930 . S
C156 C152 1.395 . S
C156 C157 1.379 . S
C156 H166 0.930 . S
C157 C155 1.395 . S
C157 C156 1.379 . S
C157 H167 0.930 . S
C158 O136 1.264 . S
C158 O137 1.254 . S
C159 Eu95 2.848 . S
C159 O134 1.257 . S
C159 O139 1.249 . S
C159 C152 1.492 . S
H160 C143 0.930 . S
H161 C144 0.930 . S
H162 C145 0.930 . S
H163 C146 0.930 . S
H164 C153 0.930 . S
H165 C155 0.930 . S
H166 C156 0.930 . S
H167 C157 0.930 . S
Eu168 N199 2.657 . S
Eu168 N206 2.609 . S
Eu168 O212 2.558 . S
Eu168 O213 2.612 . S
Eu168 O215 2.339 . S
Eu168 O216 2.563 . S
Eu168 O217 2.419 . S
Eu168 O219 2.380 . S
Eu168 O220 2.432 . S
Eu168 C232 2.848 . S
C169 C172 1.429 . S
C169 C173 1.411 . S
C169 N176 1.377 . S
C170 C172 1.420 . S
C170 C174 1.423 . S
C170 C182 1.392 . S
C171 C173 1.420 . S
C171 C174 1.351 . S
C171 H194 0.931 . S
C172 C169 1.429 . S
C172 C170 1.420 . S
C172 N180 1.362 . S
C173 C169 1.411 . S
C173 C171 1.420 . S
C173 C178 1.395 . S
C174 C170 1.423 . S
C174 C171 1.351 . S
C174 H186 0.930 . S
C175 C177 1.400 . S
C175 C178 1.386 . S
C175 H187 0.930 . S
N176 C169 1.377 . S
N176 C177 1.321 . S
N176 Eu179 2.609 . S
C177 C175 1.400 . S
C177 N176 1.321 . S
C177 H184 0.930 . S
C178 C173 1.395 . S
C178 C175 1.386 . S
C178 H197 0.930 . S
Eu179 N176 2.609 . S
Eu179 N180 2.657 . S
Eu179 O213 2.380 . S
Eu179 O214 2.432 . S
Eu179 O218 2.558 . S
Eu179 O219 2.612 . S
Eu179 O221 2.339 . S
Eu179 O222 2.563 . S
Eu179 O223 2.419 . S
Eu179 C243 2.848 . S
N180 C172 1.362 . S
N180 Eu179 2.657 . S
N180 C181 1.334 . S
C181 N180 1.334 . S
C181 C183 1.413 . S
C181 H188 0.929 . S
C182 C170 1.392 . S
C182 C183 1.367 . S
C182 H190 0.930 . S
C183 C181 1.413 . S
C183 C182 1.367 . S
C183 H185 0.930 . S
H184 C177 0.930 . S
H185 C183 0.930 . S
H186 C174 0.930 . S
H187 C175 0.930 . S
H188 C181 0.929 . S
H189 C203 0.930 . S
H190 C182 0.930 . S
H191 C209 0.930 . S
H192 C200 0.929 . S
H193 C207 0.930 . S
H194 C171 0.931 . S
H195 C201 0.930 . S
H196 C234 0.930 . S
H197 C178 0.930 . S
H198 C233 0.931 . S
N199 Eu168 2.657 . S
N199 C200 1.334 . S
N199 C204 1.362 . S
C200 H192 0.929 . S
C200 N199 1.334 . S
C200 C203 1.413 . S
C201 H195 0.930 . S
C201 C202 1.392 . S
C201 C203 1.367 . S
C202 C201 1.392 . S
C202 C204 1.420 . S
C202 C234 1.423 . S
C203 H189 0.930 . S
C203 C200 1.413 . S
C203 C201 1.367 . S
C204 N199 1.362 . S
C204 C202 1.420 . S
C204 C208 1.429 . S
H205 C210 0.930 . S
N206 Eu168 2.609 . S
N206 C208 1.377 . S
N206 C209 1.321 . S
C207 H193 0.930 . S
C207 C209 1.400 . S
C207 C210 1.386 . S
C208 C204 1.429 . S
C208 N206 1.377 . S
C208 C211 1.411 . S
C209 H191 0.930 . S
C209 N206 1.321 . S
C209 C207 1.400 . S
C210 H205 0.930 . S
C210 C207 1.386 . S
C210 C211 1.395 . S
C211 C208 1.411 . S
C211 C210 1.395 . S
C211 C233 1.420 . S
O212 Eu168 2.558 . S
O212 C232 1.257 . S
O213 Eu168 2.612 . S
O213 Eu179 2.380 . S
O213 C224 1.276 . S
O214 Eu179 2.432 . S
O214 C231 1.264 . S
O215 Eu168 2.339 . S
O215 C231 1.254 . S
O216 Eu168 2.563 . S
O216 C224 1.235 . S
O217 Eu168 2.419 . S
O217 C232 1.249 . S
O218 Eu179 2.558 . S
O218 C243 1.257 . S
O219 Eu168 2.380 . S
O219 Eu179 2.612 . S
O219 C235 1.276 . S
O220 Eu168 2.432 . S
O220 C242 1.264 . S
O221 Eu179 2.339 . S
O221 C242 1.254 . S
O222 Eu179 2.563 . S
O222 C235 1.235 . S
O223 Eu179 2.419 . S
O223 C243 1.249 . S
C224 O213 1.276 . S
C224 O216 1.235 . S
C225 C227 1.393 . S
C225 C229 1.395 . S
C225 C232 1.492 . S
C226 C227 1.392 . S
C226 C228 1.386 . S
C227 C225 1.393 . S
C227 C226 1.392 . S
C227 H244 0.930 . S
C228 C226 1.386 . S
C228 C230 1.395 . S
C228 H245 0.939 . S
C229 C225 1.395 . S
C229 C230 1.379 . S
C229 H246 0.930 . S
C230 C228 1.395 . S
C230 C229 1.379 . S
C230 H247 0.930 . S
C231 O214 1.264 . S
C231 O215 1.254 . S
C232 Eu168 2.848 . S
C232 O212 1.257 . S
C232 O217 1.249 . S
C232 C225 1.492 . S
C233 H198 0.931 . S
C233 C211 1.420 . S
C233 C234 1.351 . S
C234 H196 0.930 . S
C234 C202 1.423 . S
C234 C233 1.351 . S
C235 O219 1.276 . S
C235 O222 1.235 . S
C236 C237 1.393 . S
C236 C240 1.395 . S
C236 C243 1.492 . S
C237 C236 1.393 . S
C237 C238 1.392 . S
C237 H248 0.930 . S
C238 C237 1.392 . S
C238 C239 1.386 . S
C239 C238 1.386 . S
C239 C241 1.395 . S
C239 H249 0.930 . S
C240 C236 1.395 . S
C240 C241 1.379 . S
C240 H250 0.930 . S
C241 C239 1.395 . S
C241 C240 1.379 . S
C241 H251 0.930 . S
C242 O220 1.264 . S
C242 O221 1.254 . S
C243 Eu179 2.848 . S
C243 O218 1.257 . S
C243 O223 1.249 . S
C243 C236 1.492 . S
H244 C227 0.930 . S
H245 C228 0.939 . S
H246 C229 0.930 . S
H247 C230 0.930 . S
H248 C237 0.930 . S
H249 C239 0.930 . S
H250 C240 0.930 . S
H251 C241 0.930 . S
Eu252 N283 2.657 . S
Eu252 N290 2.609 . S
Eu252 O296 2.558 . S
Eu252 O297 2.612 . S
Eu252 O299 2.339 . S
Eu252 O300 2.563 . S
Eu252 O301 2.419 . S
Eu252 O303 2.380 . S
Eu252 O304 2.432 . S
Eu252 C316 2.848 . S
C253 C256 1.429 . S
C253 C257 1.411 1_655 S
C253 N260 1.377 . S
C254 C256 1.420 . S
C254 C258 1.424 . S
C254 C266 1.392 . S
C255 C257 1.420 . S
C255 C258 1.349 1_455 S
C255 H278 0.931 . S
C256 C253 1.429 . S
C256 C254 1.420 . S
C256 N264 1.362 . S
C257 C253 1.411 1_455 S
C257 C255 1.420 . S
C257 C262 1.395 . S
C258 C254 1.424 . S
C258 C255 1.349 1_655 S
C258 H270 0.929 1_655 S
C259 C261 1.422 . S
C259 C262 1.386 . S
C259 H271 0.930 . S
N260 C253 1.377 . S
N260 C261 1.304 1_655 S
N260 Eu263 2.609 . S
C261 C259 1.422 . S
C261 N260 1.304 1_455 S
C261 H268 0.925 1_455 S
C262 C257 1.395 . S
C262 C259 1.386 . S
C262 H281 0.930 . S
Eu263 N260 2.609 . S
Eu263 N264 2.657 . S
Eu263 O297 2.380 . S
Eu263 O298 2.432 . S
Eu263 O302 2.558 . S
Eu263 O303 2.612 . S
Eu263 O305 2.339 . S
Eu263 O306 2.563 . S
Eu263 O307 2.419 . S
Eu263 C327 2.848 . S
N264 C256 1.362 . S
N264 Eu263 2.657 . S
N264 C265 1.334 . S
C265 N264 1.334 . S
C265 C267 1.413 . S
C265 H272 0.929 . S
C266 C254 1.392 . S
C266 C267 1.367 . S
C266 H274 0.930 . S
C267 C265 1.413 . S
C267 C266 1.367 . S
C267 H269 0.930 . S
H268 C261 0.925 1_655 S
H269 C267 0.930 . S
H270 C258 0.929 1_455 S
H271 C259 0.930 . S
H272 C265 0.929 . S
H273 C287 0.930 . S
H274 C266 0.930 . S
H275 C293 0.930 . S
H276 C284 0.929 . S
H277 C291 0.930 . S
H278 C255 0.931 . S
H279 C285 0.930 . S
H280 C318 0.930 . S
H281 C262 0.930 . S
H282 C317 0.931 . S
N283 Eu252 2.657 . S
N283 C284 1.334 . S
N283 C288 1.362 . S
C284 H276 0.929 . S
C284 N283 1.334 . S
C284 C287 1.413 . S
C285 H279 0.930 . S
C285 C286 1.392 . S
C285 C287 1.367 . S
C286 C285 1.392 . S
C286 C288 1.420 . S
C286 C318 1.423 . S
C287 H273 0.930 . S
C287 C284 1.413 . S
C287 C285 1.367 . S
C288 N283 1.362 . S
C288 C286 1.420 . S
C288 C292 1.429 . S
H289 C294 0.930 . S
N290 Eu252 2.609 . S
N290 C292 1.377 . S
N290 C293 1.321 . S
C291 H277 0.930 . S
C291 C293 1.400 . S
C291 C294 1.386 . S
C292 C288 1.429 . S
C292 N290 1.377 . S
C292 C295 1.411 . S
C293 H275 0.930 . S
C293 N290 1.321 . S
C293 C291 1.400 . S
C294 H289 0.930 . S
C294 C291 1.386 . S
C294 C295 1.395 . S
C295 C292 1.411 . S
C295 C294 1.395 . S
C295 C317 1.420 . S
O296 Eu252 2.558 . S
O296 C316 1.257 . S
O297 Eu252 2.612 . S
O297 Eu263 2.380 . S
O297 C308 1.276 . S
O298 Eu263 2.432 . S
O298 C315 1.264 . S
O299 Eu252 2.339 . S
O299 C315 1.254 . S
O300 Eu252 2.563 . S
O300 C308 1.235 . S
O301 Eu252 2.419 . S
O301 C316 1.249 . S
O302 Eu263 2.558 . S
O302 C327 1.257 . S
O303 Eu252 2.380 . S
O303 Eu263 2.612 . S
O303 C319 1.276 . S
O304 Eu252 2.432 . S
O304 C326 1.264 . S
O305 Eu263 2.339 . S
O305 C326 1.254 . S
O306 Eu263 2.563 . S
O306 C319 1.235 . S
O307 Eu263 2.419 . S
O307 C327 1.249 . S
C308 O297 1.276 . S
C308 O300 1.235 . S
C309 C311 1.393 . S
C309 C313 1.395 . S
C309 C316 1.492 . S
C310 C311 1.392 . S
C310 C312 1.386 . S
C311 C309 1.393 . S
C311 C310 1.392 . S
C311 H328 0.930 . S
C312 C310 1.386 . S
C312 C314 1.395 . S
C312 H329 0.930 . S
C313 C309 1.395 . S
C313 C314 1.379 . S
C313 H330 0.930 . S
C314 C312 1.395 . S
C314 C313 1.379 . S
C314 H331 0.930 . S
C315 O298 1.264 . S
C315 O299 1.254 . S
C316 Eu252 2.848 . S
C316 O296 1.257 . S
C316 O301 1.249 . S
C316 C309 1.492 . S
C317 H282 0.931 . S
C317 C295 1.420 . S
C317 C318 1.351 . S
C318 H280 0.930 . S
C318 C286 1.423 . S
C318 C317 1.351 . S
C319 O303 1.276 . S
C319 O306 1.235 . S
C320 C321 1.393 . S
C320 C324 1.395 . S
C320 C327 1.492 . S
C321 C320 1.393 . S
C321 C322 1.392 . S
C321 H332 0.930 . S
C322 C321 1.392 . S
C322 C323 1.386 . S
C323 C322 1.386 . S
C323 C325 1.395 . S
C323 H333 0.930 . S
C324 C320 1.395 . S
C324 C325 1.379 . S
C324 H334 0.930 . S
C325 C323 1.395 . S
C325 C324 1.379 . S
C325 H335 0.930 1_655 S
C326 O304 1.264 . S
C326 O305 1.254 . S
C327 Eu263 2.848 . S
C327 O302 1.257 . S
C327 O307 1.249 . S
C327 C320 1.492 . S
H328 C311 0.930 . S
H329 C312 0.930 . S
H330 C313 0.930 . S
H331 C314 0.930 . S
H332 C321 0.930 . S
H333 C323 0.930 . S
H334 C324 0.930 . S
H335 C325 0.930 1_455 S
Eu336 N367 2.657 . S
Eu336 N374 2.609 . S
Eu336 O380 2.558 . S
Eu336 O381 2.612 . S
Eu336 O383 2.339 . S
Eu336 O384 2.563 . S
Eu336 O385 2.419 . S
Eu336 O387 2.380 . S
Eu336 O388 2.432 . S
Eu336 C400 2.848 . S
C337 C340 1.429 . S
C337 C341 1.411 . S
C337 N344 1.377 1_554 S
C338 C340 1.420 . S
C338 C342 1.423 . S
C338 C350 1.392 . S
C339 C341 1.420 . S
C339 C342 1.351 . S
C339 H362 0.931 . S
C340 C337 1.429 . S
C340 C338 1.420 . S
C340 N348 1.362 . S
C341 C337 1.411 . S
C341 C339 1.420 . S
C341 C346 1.395 . S
C342 C338 1.423 . S
C342 C339 1.351 . S
C342 H354 0.930 . S
C343 C345 1.400 . S
C343 C346 1.386 1_556 S
C343 H355 0.930 . S
N344 C337 1.377 1_556 S
N344 C345 1.321 . S
N344 Eu347 2.609 . S
C345 C343 1.400 . S
C345 N344 1.321 . S
C345 H352 0.930 . S
C346 C341 1.395 . S
C346 C343 1.386 1_554 S
C346 H365 0.930 . S
Eu347 N344 2.609 . S
Eu347 N348 2.657 1_556 S
Eu347 O381 2.380 . S
Eu347 O382 2.432 . S
Eu347 O386 2.558 1_556 S
Eu347 O387 2.612 . S
Eu347 O389 2.339 1_556 S
Eu347 O390 2.563 . S
Eu347 O391 2.419 1_556 S
Eu347 C411 2.848 1_556 S
N348 C340 1.362 . S
N348 Eu347 2.657 1_554 S
N348 C349 1.334 . S
C349 N348 1.334 . S
C349 C351 1.413 . S
C349 H356 0.929 . S
C350 C338 1.392 . S
C350 C351 1.367 . S
C350 H358 0.930 . S
C351 C349 1.413 . S
C351 C350 1.367 . S
C351 H353 0.930 . S
H352 C345 0.930 . S
H353 C351 0.930 . S
H354 C342 0.930 . S
H355 C343 0.930 . S
H356 C349 0.929 . S
H357 C371 0.930 . S
H358 C350 0.930 . S
H359 C377 0.930 . S
H360 C368 0.929 . S
H361 C375 0.930 . S
H362 C339 0.931 . S
H363 C369 0.930 . S
H364 C402 0.930 . S
H365 C346 0.930 . S
H366 C401 0.931 . S
N367 Eu336 2.657 . S
N367 C368 1.334 . S
N367 C372 1.362 . S
C368 H360 0.929 . S
C368 N367 1.334 . S
C368 C371 1.413 . S
C369 H363 0.930 . S
C369 C370 1.392 . S
C369 C371 1.367 . S
C370 C369 1.392 . S
C370 C372 1.420 . S
C370 C402 1.423 . S
C371 H357 0.930 . S
C371 C368 1.413 . S
C371 C369 1.367 . S
C372 N367 1.362 . S
C372 C370 1.420 . S
C372 C376 1.429 . S
H373 C378 0.930 . S
N374 Eu336 2.609 . S
N374 C376 1.377 . S
N374 C377 1.321 . S
C375 H361 0.930 . S
C375 C377 1.400 . S
C375 C378 1.386 . S
C376 C372 1.429 . S
C376 N374 1.377 . S
C376 C379 1.411 . S
C377 H359 0.930 . S
C377 N374 1.321 . S
C377 C375 1.400 . S
C378 H373 0.930 . S
C378 C375 1.386 . S
C378 C379 1.395 . S
C379 C376 1.411 . S
C379 C378 1.395 . S
C379 C401 1.420 . S
O380 Eu336 2.558 . S
O380 C400 1.257 . S
O381 Eu336 2.612 . S
O381 Eu347 2.380 . S
O381 C392 1.276 . S
O382 Eu347 2.432 . S
O382 C399 1.264 . S
O383 Eu336 2.339 . S
O383 C399 1.254 . S
O384 Eu336 2.563 . S
O384 C392 1.235 . S
O385 Eu336 2.419 . S
O385 C400 1.249 . S
O386 Eu347 2.558 1_554 S
O386 C411 1.257 . S
O387 Eu336 2.380 . S
O387 Eu347 2.612 . S
O387 C403 1.276 . S
O388 Eu336 2.432 . S
O388 C410 1.264 1_556 S
O389 Eu347 2.339 1_554 S
O389 C410 1.254 . S
O390 Eu347 2.563 . S
O390 C403 1.235 . S
O391 Eu347 2.419 1_554 S
O391 C411 1.249 . S
C392 O381 1.276 . S
C392 O384 1.235 . S
C393 C395 1.393 . S
C393 C397 1.395 . S
C393 C400 1.492 . S
C394 C395 1.392 . S
C394 C396 1.386 . S
C395 C393 1.393 . S
C395 C394 1.392 . S
C395 H412 0.930 . S
C396 C394 1.386 . S
C396 C398 1.395 . S
C396 H413 0.930 . S
C397 C393 1.395 . S
C397 C398 1.379 . S
C397 H414 0.930 . S
C398 C396 1.395 . S
C398 C397 1.379 . S
C398 H415 0.930 . S
C399 O382 1.264 . S
C399 O383 1.254 . S
C400 Eu336 2.848 . S
C400 O380 1.257 . S
C400 O385 1.249 . S
C400 C393 1.492 . S
C401 H366 0.931 . S
C401 C379 1.420 . S
C401 C402 1.351 . S
C402 H364 0.930 . S
C402 C370 1.423 . S
C402 C401 1.351 . S
C403 O387 1.276 . S
C403 O390 1.235 . S
C404 C405 1.393 . S
C404 C408 1.395 . S
C404 C411 1.492 . S
C405 C404 1.393 . S
C405 C406 1.392 . S
C405 H416 0.930 . S
C406 C405 1.392 . S
C406 C407 1.386 . S
C407 C406 1.386 . S
C407 C409 1.395 . S
C407 H417 0.930 . S
C408 C404 1.395 . S
C408 C409 1.379 . S
C408 H418 0.930 . S
C409 C407 1.395 . S
C409 C408 1.379 . S
C409 H419 0.930 . S
C410 O388 1.264 1_554 S
C410 O389 1.254 . S
C411 Eu347 2.848 1_554 S
C411 O386 1.257 . S
C411 O391 1.249 . S
C411 C404 1.492 . S
H412 C395 0.930 . S
H413 C396 0.930 . S
H414 C397 0.930 . S
H415 C398 0.930 . S
H416 C405 0.930 . S
H417 C407 0.930 . S
H418 C408 0.930 . S
H419 C409 0.930 . S
Eu420 N451 2.657 . S
Eu420 N458 2.609 . S
Eu420 O464 2.558 . S
Eu420 O465 2.612 . S
Eu420 O467 2.339 . S
Eu420 O468 2.563 . S
Eu420 O469 2.419 . S
Eu420 O471 2.380 . S
Eu420 O472 2.432 . S
Eu420 C484 2.848 . S
C421 C424 1.429 . S
C421 C425 1.411 . S
C421 N428 1.377 . S
C422 C424 1.420 . S
C422 C426 1.423 . S
C422 C434 1.392 . S
C423 C425 1.420 . S
C423 C426 1.351 . S
C423 H446 0.931 . S
C424 C421 1.429 . S
C424 C422 1.420 . S
C424 N432 1.362 . S
C425 C421 1.411 . S
C425 C423 1.420 . S
C425 C430 1.395 . S
C426 C422 1.423 . S
C426 C423 1.351 . S
C426 H438 0.930 . S
C427 C429 1.400 . S
C427 C430 1.386 . S
C427 H439 0.930 . S
N428 C421 1.377 . S
N428 C429 1.321 . S
N428 Eu431 2.609 . S
C429 C427 1.400 . S
C429 N428 1.321 . S
C429 H436 0.930 . S
C430 C425 1.395 . S
C430 C427 1.386 . S
C430 H449 0.930 . S
Eu431 N428 2.609 . S
Eu431 N432 2.657 . S
Eu431 O465 2.380 . S
Eu431 O466 2.432 . S
Eu431 O470 2.558 . S
Eu431 O471 2.612 . S
Eu431 O473 2.339 . S
Eu431 O474 2.563 . S
Eu431 O475 2.419 . S
Eu431 C495 2.848 . S
N432 C424 1.362 . S
N432 Eu431 2.657 . S
N432 C433 1.334 . S
C433 N432 1.334 . S
C433 C435 1.413 . S
C433 H440 0.929 . S
C434 C422 1.392 . S
C434 C435 1.367 . S
C434 H442 0.930 . S
C435 C433 1.413 . S
C435 C434 1.367 . S
C435 H437 0.930 . S
H436 C429 0.930 . S
H437 C435 0.930 . S
H438 C426 0.930 . S
H439 C427 0.930 . S
H440 C433 0.929 . S
H441 C455 0.930 . S
H442 C434 0.930 . S
H443 C461 0.930 . S
H444 C452 0.929 . S
H445 C459 0.930 . S
H446 C423 0.931 . S
H447 C453 0.930 . S
H448 C486 0.930 . S
H449 C430 0.930 . S
H450 C485 0.931 . S
N451 Eu420 2.657 . S
N451 C452 1.334 . S
N451 C456 1.362 . S
C452 H444 0.929 . S
C452 N451 1.334 . S
C452 C455 1.413 . S
C453 H447 0.930 . S
C453 C454 1.392 . S
C453 C455 1.367 . S
C454 C453 1.392 . S
C454 C456 1.420 . S
C454 C486 1.423 . S
C455 H441 0.930 . S
C455 C452 1.413 . S
C455 C453 1.367 . S
C456 N451 1.362 . S
C456 C454 1.420 . S
C456 C460 1.429 . S
H457 C462 0.930 . S
N458 Eu420 2.609 . S
N458 C460 1.377 . S
N458 C461 1.321 . S
C459 H445 0.930 . S
C459 C461 1.400 . S
C459 C462 1.386 . S
C460 C456 1.429 . S
C460 N458 1.377 . S
C460 C463 1.411 . S
C461 H443 0.930 . S
C461 N458 1.321 . S
C461 C459 1.400 . S
C462 H457 0.930 . S
C462 C459 1.386 . S
C462 C463 1.395 . S
C463 C460 1.411 . S
C463 C462 1.395 . S
C463 C485 1.420 . S
O464 Eu420 2.558 . S
O464 C484 1.257 . S
O465 Eu420 2.612 . S
O465 Eu431 2.380 . S
O465 C476 1.276 . S
O466 Eu431 2.432 . S
O466 C483 1.264 . S
O467 Eu420 2.339 . S
O467 C483 1.254 . S
O468 Eu420 2.563 . S
O468 C476 1.235 . S
O469 Eu420 2.419 . S
O469 C484 1.249 . S
O470 Eu431 2.558 . S
O470 C495 1.257 . S
O471 Eu420 2.380 . S
O471 Eu431 2.612 . S
O471 C487 1.276 . S
O472 Eu420 2.432 . S
O472 C494 1.264 . S
O473 Eu431 2.339 . S
O473 C494 1.254 . S
O474 Eu431 2.563 . S
O474 C487 1.235 . S
O475 Eu431 2.419 . S
O475 C495 1.249 . S
C476 O465 1.276 . S
C476 O468 1.235 . S
C477 C479 1.393 . S
C477 C481 1.395 . S
C477 C484 1.492 . S
C478 C479 1.392 . S
C478 C480 1.386 . S
C479 C477 1.393 . S
C479 C478 1.392 . S
C479 H496 0.930 . S
C480 C478 1.386 . S
C480 C482 1.395 . S
C480 H497 0.930 . S
C481 C477 1.395 . S
C481 C482 1.379 . S
C481 H498 0.930 . S
C482 C480 1.395 . S
C482 C481 1.379 . S
C482 H499 0.930 . S
C483 O466 1.264 . S
C483 O467 1.254 . S
C484 Eu420 2.848 . S
C484 O464 1.257 . S
C484 O469 1.249 . S
C484 C477 1.492 . S
C485 H450 0.931 . S
C485 C463 1.420 . S
C485 C486 1.351 . S
C486 H448 0.930 . S
C486 C454 1.423 . S
C486 C485 1.351 . S
C487 O471 1.276 . S
C487 O474 1.235 . S
C488 C489 1.393 . S
C488 C492 1.395 . S
C488 C495 1.492 . S
C489 C488 1.393 . S
C489 C490 1.392 . S
C489 H500 0.930 . S
C490 C489 1.392 . S
C490 C491 1.386 . S
C491 C490 1.386 . S
C491 C493 1.395 . S
C491 H501 0.930 . S
C492 C488 1.395 . S
C492 C493 1.379 . S
C492 H502 0.930 . S
C493 C491 1.395 . S
C493 C492 1.379 . S
C493 H503 0.930 . S
C494 O472 1.264 . S
C494 O473 1.254 . S
C495 Eu431 2.848 . S
C495 O470 1.257 . S
C495 O475 1.249 . S
C495 C488 1.492 . S
H496 C479 0.930 . S
H497 C480 0.930 . S
H498 C481 0.930 . S
H499 C482 0.930 . S
H500 C489 0.930 . S
H501 C491 0.930 . S
H502 C492 0.930 . S
H503 C493 0.930 . S
Eu504 N535 2.657 . S
Eu504 N542 2.609 . S
Eu504 O548 2.558 . S
Eu504 O549 2.612 . S
Eu504 O551 2.339 . S
Eu504 O552 2.563 . S
Eu504 O553 2.419 . S
Eu504 O555 2.380 . S
Eu504 O556 2.432 . S
Eu504 C568 2.848 . S
C505 C508 1.429 . S
C505 C509 1.411 . S
C505 N512 1.377 . S
C506 C508 1.420 . S
C506 C510 1.423 . S
C506 C518 1.392 . S
C507 C509 1.420 . S
C507 C510 1.351 . S
C507 H530 0.931 . S
C508 C505 1.429 . S
C508 C506 1.420 . S
C508 N516 1.362 . S
C509 C505 1.411 . S
C509 C507 1.420 . S
C509 C514 1.395 . S
C510 C506 1.423 . S
C510 C507 1.351 . S
C510 H522 0.930 . S
C511 C513 1.400 . S
C511 C514 1.386 . S
C511 H523 0.930 . S
N512 C505 1.377 . S
N512 C513 1.321 . S
N512 Eu515 2.609 . S
C513 C511 1.400 . S
C513 N512 1.321 . S
C513 H520 0.930 . S
C514 C509 1.395 . S
C514 C511 1.386 . S
C514 H533 0.930 . S
Eu515 N512 2.609 . S
Eu515 N516 2.657 . S
Eu515 O549 2.380 . S
Eu515 O550 2.432 . S
Eu515 O554 2.558 . S
Eu515 O555 2.612 . S
Eu515 O557 2.339 . S
Eu515 O558 2.563 . S
Eu515 O559 2.419 . S
Eu515 C579 2.848 . S
N516 C508 1.362 . S
N516 Eu515 2.657 . S
N516 C517 1.334 . S
C517 N516 1.334 . S
C517 C519 1.413 . S
C517 H524 0.929 . S
C518 C506 1.392 . S
C518 C519 1.367 . S
C518 H526 0.930 . S
C519 C517 1.413 . S
C519 C518 1.367 . S
C519 H521 0.930 . S
H520 C513 0.930 . S
H521 C519 0.930 . S
H522 C510 0.930 . S
H523 C511 0.930 . S
H524 C517 0.929 . S
H525 C539 0.930 . S
H526 C518 0.930 . S
H527 C545 0.930 . S
H528 C536 0.929 . S
H529 C543 0.930 . S
H530 C507 0.931 . S
H531 C537 0.930 . S
H532 C570 0.930 . S
H533 C514 0.930 . S
H534 C569 0.931 . S
N535 Eu504 2.657 . S
N535 C536 1.334 . S
N535 C540 1.362 . S
C536 H528 0.929 . S
C536 N535 1.334 . S
C536 C539 1.413 . S
C537 H531 0.930 . S
C537 C538 1.392 . S
C537 C539 1.367 . S
C538 C537 1.392 . S
C538 C540 1.420 . S
C538 C570 1.423 . S
C539 H525 0.930 . S
C539 C536 1.413 . S
C539 C537 1.367 . S
C540 N535 1.362 . S
C540 C538 1.420 . S
C540 C544 1.429 . S
H541 C546 0.930 . S
N542 Eu504 2.609 . S
N542 C544 1.377 . S
N542 C545 1.321 . S
C543 H529 0.930 . S
C543 C545 1.400 . S
C543 C546 1.386 . S
C544 C540 1.429 . S
C544 N542 1.377 . S
C544 C547 1.411 . S
C545 H527 0.930 . S
C545 N542 1.321 . S
C545 C543 1.400 . S
C546 H541 0.930 . S
C546 C543 1.386 . S
C546 C547 1.395 . S
C547 C544 1.411 . S
C547 C546 1.395 . S
C547 C569 1.420 . S
O548 Eu504 2.558 . S
O548 C568 1.257 . S
O549 Eu504 2.612 . S
O549 Eu515 2.380 . S
O549 C560 1.276 . S
O550 Eu515 2.432 . S
O550 C567 1.264 . S
O551 Eu504 2.339 . S
O551 C567 1.254 . S
O552 Eu504 2.563 . S
O552 C560 1.235 . S
O553 Eu504 2.419 . S
O553 C568 1.249 . S
O554 Eu515 2.558 . S
O554 C579 1.257 . S
O555 Eu504 2.380 . S
O555 Eu515 2.612 . S
O555 C571 1.276 . S
O556 Eu504 2.432 . S
O556 C578 1.264 . S
O557 Eu515 2.339 . S
O557 C578 1.254 . S
O558 Eu515 2.563 . S
O558 C571 1.235 . S
O559 Eu515 2.419 . S
O559 C579 1.249 . S
C560 O549 1.276 . S
C560 O552 1.235 . S
C561 C563 1.393 . S
C561 C565 1.395 . S
C561 C568 1.492 . S
C562 C563 1.392 . S
C562 C564 1.386 . S
C563 C561 1.393 . S
C563 C562 1.392 . S
C563 H580 0.930 . S
C564 C562 1.386 . S
C564 C566 1.395 . S
C564 H581 0.930 . S
C565 C561 1.395 . S
C565 C566 1.379 . S
C565 H582 0.930 . S
C566 C564 1.395 . S
C566 C565 1.379 . S
C566 H583 0.930 . S
C567 O550 1.264 . S
C567 O551 1.254 . S
C568 Eu504 2.848 . S
C568 O548 1.257 . S
C568 O553 1.249 . S
C568 C561 1.492 . S
C569 H534 0.931 . S
C569 C547 1.420 . S
C569 C570 1.351 . S
C570 H532 0.930 . S
C570 C538 1.423 . S
C570 C569 1.351 . S
C571 O555 1.276 . S
C571 O558 1.235 . S
C572 C573 1.393 . S
C572 C576 1.395 . S
C572 C579 1.492 . S
C573 C572 1.393 . S
C573 C574 1.392 . S
C573 H584 0.930 . S
C574 C573 1.392 . S
C574 C575 1.386 . S
C575 C574 1.386 . S
C575 C577 1.395 . S
C575 H585 0.939 . S
C576 C572 1.395 . S
C576 C577 1.379 . S
C576 H586 0.930 . S
C577 C575 1.395 . S
C577 C576 1.379 . S
C577 H587 0.930 . S
C578 O556 1.264 . S
C578 O557 1.254 . S
C579 Eu515 2.848 . S
C579 O554 1.257 . S
C579 O559 1.249 . S
C579 C572 1.492 . S
H580 C563 0.930 . S
H581 C564 0.930 . S
H582 C565 0.930 . S
H583 C566 0.930 . S
H584 C573 0.930 . S
H585 C575 0.939 . S
H586 C576 0.930 . S
H587 C577 0.930 . S
Eu588 N619 2.657 . S
Eu588 N626 2.609 . S
Eu588 O632 2.558 . S
Eu588 O633 2.612 . S
Eu588 O635 2.339 . S
Eu588 O636 2.563 . S
Eu588 O637 2.419 . S
Eu588 O639 2.380 . S
Eu588 O640 2.432 . S
Eu588 C652 2.848 . S
C589 C592 1.429 . S
C589 C593 1.411 . S
C589 N596 1.377 . S
C590 C592 1.420 . S
C590 C594 1.423 . S
C590 C602 1.392 . S
C591 C593 1.420 . S
C591 C594 1.351 . S
C591 H614 0.931 . S
C592 C589 1.429 . S
C592 C590 1.420 . S
C592 N600 1.362 . S
C593 C589 1.411 . S
C593 C591 1.420 . S
C593 C598 1.395 . S
C594 C590 1.423 . S
C594 C591 1.351 . S
C594 H606 0.930 . S
C595 C597 1.400 . S
C595 C598 1.386 . S
C595 H607 0.930 . S
N596 C589 1.377 . S
N596 C597 1.321 . S
N596 Eu599 2.609 . S
C597 C595 1.400 . S
C597 N596 1.321 . S
C597 H604 0.930 . S
C598 C593 1.395 . S
C598 C595 1.386 . S
C598 H617 0.930 . S
Eu599 N596 2.609 . S
Eu599 N600 2.657 . S
Eu599 O633 2.380 . S
Eu599 O634 2.432 . S
Eu599 O638 2.558 . S
Eu599 O639 2.612 . S
Eu599 O641 2.339 . S
Eu599 O642 2.563 . S
Eu599 O643 2.419 . S
Eu599 C663 2.848 . S
N600 C592 1.362 . S
N600 Eu599 2.657 . S
N600 C601 1.334 . S
C601 N600 1.334 . S
C601 C603 1.413 . S
C601 H608 0.929 . S
C602 C590 1.392 . S
C602 C603 1.367 . S
C602 H610 0.930 . S
C603 C601 1.413 . S
C603 C602 1.367 . S
C603 H605 0.930 . S
H604 C597 0.930 . S
H605 C603 0.930 . S
H606 C594 0.930 . S
H607 C595 0.930 . S
H608 C601 0.929 . S
H609 C623 0.930 . S
H610 C602 0.930 . S
H611 C629 0.925 1_455 S
H612 C620 0.929 . S
H613 C627 0.930 . S
H614 C591 0.931 . S
H615 C621 0.930 . S
H616 C654 0.929 1_655 S
H617 C598 0.930 . S
H618 C653 0.931 . S
N619 Eu588 2.657 . S
N619 C620 1.334 . S
N619 C624 1.362 . S
C620 H612 0.929 . S
C620 N619 1.334 . S
C620 C623 1.413 . S
C621 H615 0.930 . S
C621 C622 1.392 . S
C621 C623 1.367 . S
C622 C621 1.392 . S
C622 C624 1.420 . S
C622 C654 1.424 . S
C623 H609 0.930 . S
C623 C620 1.413 . S
C623 C621 1.367 . S
C624 N619 1.362 . S
C624 C622 1.420 . S
C624 C628 1.429 . S
H625 C630 0.930 . S
N626 Eu588 2.609 . S
N626 C628 1.377 . S
N626 C629 1.304 1_455 S
C627 H613 0.930 . S
C627 C629 1.422 . S
C627 C630 1.386 . S
C628 C624 1.429 . S
C628 N626 1.377 . S
C628 C631 1.411 1_455 S
C629 H611 0.925 1_655 S
C629 N626 1.304 1_655 S
C629 C627 1.422 . S
C630 H625 0.930 . S
C630 C627 1.386 . S
C630 C631 1.395 . S
C631 C628 1.411 1_655 S
C631 C630 1.395 . S
C631 C653 1.420 . S
O632 Eu588 2.558 . S
O632 C652 1.257 . S
O633 Eu588 2.612 . S
O633 Eu599 2.380 . S
O633 C644 1.276 . S
O634 Eu599 2.432 . S
O634 C651 1.264 . S
O635 Eu588 2.339 . S
O635 C651 1.254 . S
O636 Eu588 2.563 . S
O636 C644 1.235 . S
O637 Eu588 2.419 . S
O637 C652 1.249 . S
O638 Eu599 2.558 . S
O638 C663 1.257 . S
O639 Eu588 2.380 . S
O639 Eu599 2.612 . S
O639 C655 1.276 . S
O640 Eu588 2.432 . S
O640 C662 1.264 . S
O641 Eu599 2.339 . S
O641 C662 1.254 . S
O642 Eu599 2.563 . S
O642 C655 1.235 . S
O643 Eu599 2.419 . S
O643 C663 1.249 . S
C644 O633 1.276 . S
C644 O636 1.235 . S
C645 C647 1.393 . S
C645 C649 1.395 . S
C645 C652 1.492 . S
C646 C647 1.392 . S
C646 C648 1.386 . S
C647 C645 1.393 . S
C647 C646 1.392 . S
C647 H664 0.930 . S
C648 C646 1.386 . S
C648 C650 1.395 . S
C648 H665 0.930 . S
C649 C645 1.395 . S
C649 C650 1.379 . S
C649 H666 0.930 . S
C650 C648 1.395 . S
C650 C649 1.379 . S
C650 H667 0.930 1_455 S
C651 O634 1.264 . S
C651 O635 1.254 . S
C652 Eu588 2.848 . S
C652 O632 1.257 . S
C652 O637 1.249 . S
C652 C645 1.492 . S
C653 H618 0.931 . S
C653 C631 1.420 . S
C653 C654 1.349 1_655 S
C654 H616 0.929 1_455 S
C654 C622 1.424 . S
C654 C653 1.349 1_455 S
C655 O639 1.276 . S
C655 O642 1.235 . S
C656 C657 1.393 . S
C656 C660 1.395 . S
C656 C663 1.492 . S
C657 C656 1.393 . S
C657 C658 1.392 . S
C657 H668 0.930 . S
C658 C657 1.392 . S
C658 C659 1.386 . S
C659 C658 1.386 . S
C659 C661 1.395 . S
C659 H669 0.930 . S
C660 C656 1.395 . S
C660 C661 1.379 . S
C660 H670 0.930 . S
C661 C659 1.395 . S
C661 C660 1.379 . S
C661 H671 0.930 . S
C662 O640 1.264 . S
C662 O641 1.254 . S
C663 Eu599 2.848 . S
C663 O638 1.257 . S
C663 O643 1.249 . S
C663 C656 1.492 . S
H664 C647 0.930 . S
H665 C648 0.930 . S
H666 C649 0.930 . S
H667 C650 0.930 1_655 S
H668 C657 0.930 . S
H669 C659 0.930 . S
H670 C660 0.930 . S
H671 C661 0.930 . S
Eu672 N703 2.657 . S
Eu672 N710 2.609 . S
Eu672 O716 2.558 . S
Eu672 O717 2.612 . S
Eu672 O719 2.339 . S
Eu672 O720 2.563 . S
Eu672 O721 2.419 . S
Eu672 O723 2.380 . S
Eu672 O724 2.432 . S
Eu672 C736 2.848 . S
C673 C676 1.429 . S
C673 C677 1.411 . S
C673 N680 1.377 . S
C674 C676 1.420 . S
C674 C678 1.423 . S
C674 C686 1.392 . S
C675 C677 1.420 . S
C675 C678 1.351 . S
C675 H698 0.931 . S
C676 C673 1.429 . S
C676 C674 1.420 . S
C676 N684 1.362 . S
C677 C673 1.411 . S
C677 C675 1.420 . S
C677 C682 1.395 . S
C678 C674 1.423 . S
C678 C675 1.351 . S
C678 H690 0.930 . S
C679 C681 1.400 . S
C679 C682 1.386 . S
C679 H691 0.930 . S
N680 C673 1.377 . S
N680 C681 1.321 . S
N680 Eu683 2.609 . S
C681 C679 1.400 . S
C681 N680 1.321 . S
C681 H688 0.930 . S
C682 C677 1.395 . S
C682 C679 1.386 . S
C682 H701 0.930 . S
Eu683 N680 2.609 . S
Eu683 N684 2.657 . S
Eu683 O717 2.380 . S
Eu683 O718 2.432 . S
Eu683 O722 2.558 . S
Eu683 O723 2.612 . S
Eu683 O725 2.339 . S
Eu683 O726 2.563 . S
Eu683 O727 2.419 . S
Eu683 C747 2.848 . S
N684 C676 1.362 . S
N684 Eu683 2.657 . S
N684 C685 1.334 . S
C685 N684 1.334 . S
C685 C687 1.413 . S
C685 H692 0.929 . S
C686 C674 1.392 . S
C686 C687 1.367 . S
C686 H694 0.930 . S
C687 C685 1.413 . S
C687 C686 1.367 . S
C687 H689 0.930 . S
H688 C681 0.930 . S
H689 C687 0.930 . S
H690 C678 0.930 . S
H691 C679 0.930 . S
H692 C685 0.929 . S
H693 C707 0.930 . S
H694 C686 0.930 . S
H695 C713 0.930 . S
H696 C704 0.929 . S
H697 C711 0.930 . S
H698 C675 0.931 . S
H699 C705 0.930 . S
H700 C738 0.930 . S
H701 C682 0.930 . S
H702 C737 0.931 . S
N703 Eu672 2.657 . S
N703 C704 1.334 . S
N703 C708 1.362 . S
C704 H696 0.929 . S
C704 N703 1.334 . S
C704 C707 1.413 . S
C705 H699 0.930 . S
C705 C706 1.392 . S
C705 C707 1.367 . S
C706 C705 1.392 . S
C706 C708 1.420 . S
C706 C738 1.423 . S
C707 H693 0.930 . S
C707 C704 1.413 . S
C707 C705 1.367 . S
C708 N703 1.362 . S
C708 C706 1.420 . S
C708 C712 1.429 . S
H709 C714 0.930 . S
N710 Eu672 2.609 . S
N710 C712 1.377 . S
N710 C713 1.321 . S
C711 H697 0.930 . S
C711 C713 1.400 . S
C711 C714 1.386 . S
C712 C708 1.429 . S
C712 N710 1.377 . S
C712 C715 1.411 . S
C713 H695 0.930 . S
C713 N710 1.321 . S
C713 C711 1.400 . S
C714 H709 0.930 . S
C714 C711 1.386 . S
C714 C715 1.395 . S
C715 C712 1.411 . S
C715 C714 1.395 . S
C715 C737 1.420 . S
O716 Eu672 2.558 . S
O716 C736 1.257 . S
O717 Eu672 2.612 . S
O717 Eu683 2.380 . S
O717 C728 1.276 . S
O718 Eu683 2.432 . S
O718 C735 1.264 . S
O719 Eu672 2.339 . S
O719 C735 1.254 . S
O720 Eu672 2.563 . S
O720 C728 1.235 . S
O721 Eu672 2.419 . S
O721 C736 1.249 . S
O722 Eu683 2.558 . S
O722 C747 1.257 . S
O723 Eu672 2.380 . S
O723 Eu683 2.612 . S
O723 C739 1.276 . S
O724 Eu672 2.432 . S
O724 C746 1.264 . S
O725 Eu683 2.339 . S
O725 C746 1.254 . S
O726 Eu683 2.563 . S
O726 C739 1.235 . S
O727 Eu683 2.419 . S
O727 C747 1.249 . S
C728 O717 1.276 . S
C728 O720 1.235 . S
C729 C731 1.393 . S
C729 C733 1.395 . S
C729 C736 1.492 . S
C730 C731 1.392 . S
C730 C732 1.386 . S
C731 C729 1.393 . S
C731 C730 1.392 . S
C731 H748 0.930 . S
C732 C730 1.386 . S
C732 C734 1.395 . S
C732 H749 0.939 . S
C733 C729 1.395 . S
C733 C734 1.379 . S
C733 H750 0.930 . S
C734 C732 1.395 . S
C734 C733 1.379 . S
C734 H751 0.930 . S
C735 O718 1.264 . S
C735 O719 1.254 . S
C736 Eu672 2.848 . S
C736 O716 1.257 . S
C736 O721 1.249 . S
C736 C729 1.492 . S
C737 H702 0.931 . S
C737 C715 1.420 . S
C737 C738 1.351 . S
C738 H700 0.930 . S
C738 C706 1.423 . S
C738 C737 1.351 . S
C739 O723 1.276 . S
C739 O726 1.235 . S
C740 C741 1.393 . S
C740 C744 1.395 . S
C740 C747 1.492 . S
C741 C740 1.393 . S
C741 C742 1.392 . S
C741 H752 0.930 . S
C742 C741 1.392 . S
C742 C743 1.386 . S
C743 C742 1.386 . S
C743 C745 1.395 . S
C743 H753 0.930 . S
C744 C740 1.395 . S
C744 C745 1.379 . S
C744 H754 0.930 . S
C745 C743 1.395 . S
C745 C744 1.379 . S
C745 H755 0.930 . S
C746 O724 1.264 . S
C746 O725 1.254 . S
C747 Eu683 2.848 . S
C747 O722 1.257 . S
C747 O727 1.249 . S
C747 C740 1.492 . S
H748 C731 0.930 . S
H749 C732 0.939 . S
H750 C733 0.930 . S
H751 C734 0.930 . S
H752 C741 0.930 . S
H753 C743 0.930 . S
H754 C744 0.930 . S
H755 C745 0.930 . S
Eu756 N787 2.657 . S
Eu756 N794 2.609 . S
Eu756 O800 2.558 . S
Eu756 O801 2.612 . S
Eu756 O803 2.339 . S
Eu756 O804 2.563 . S
Eu756 O805 2.419 . S
Eu756 O807 2.380 . S
Eu756 O808 2.432 . S
Eu756 C820 2.848 . S
C757 C760 1.429 . S
C757 C761 1.411 1_455 S
C757 N764 1.377 . S
C758 C760 1.420 . S
C758 C762 1.424 . S
C758 C770 1.392 . S
C759 C761 1.420 . S
C759 C762 1.349 1_655 S
C759 H782 0.931 . S
C760 C757 1.429 . S
C760 C758 1.420 . S
C760 N768 1.362 . S
C761 C757 1.411 1_655 S
C761 C759 1.420 . S
C761 C766 1.395 . S
C762 C758 1.424 . S
C762 C759 1.349 1_455 S
C762 H774 0.929 1_455 S
C763 C765 1.422 . S
C763 C766 1.386 . S
C763 H775 0.930 . S
N764 C757 1.377 . S
N764 C765 1.304 1_455 S
N764 Eu767 2.609 . S
C765 C763 1.422 . S
C765 N764 1.304 1_655 S
C765 H772 0.925 1_655 S
C766 C761 1.395 . S
C766 C763 1.386 . S
C766 H785 0.930 . S
Eu767 N764 2.609 . S
Eu767 N768 2.657 . S
Eu767 O801 2.380 . S
Eu767 O802 2.432 . S
Eu767 O806 2.558 . S
Eu767 O807 2.612 . S
Eu767 O809 2.339 . S
Eu767 O810 2.563 . S
Eu767 O811 2.419 . S
Eu767 C831 2.848 . S
N768 C760 1.362 . S
N768 Eu767 2.657 . S
N768 C769 1.334 . S
C769 N768 1.334 . S
C769 C771 1.413 . S
C769 H776 0.929 . S
C770 C758 1.392 . S
C770 C771 1.367 . S
C770 H778 0.930 . S
C771 C769 1.413 . S
C771 C770 1.367 . S
C771 H773 0.930 . S
H772 C765 0.925 1_455 S
H773 C771 0.930 . S
H774 C762 0.929 1_655 S
H775 C763 0.930 . S
H776 C769 0.929 . S
H777 C791 0.930 . S
H778 C770 0.930 . S
H779 C797 0.930 . S
H780 C788 0.929 . S
H781 C795 0.930 . S
H782 C759 0.931 . S
H783 C789 0.930 . S
H784 C822 0.930 . S
H785 C766 0.930 . S
H786 C821 0.931 . S
N787 Eu756 2.657 . S
N787 C788 1.334 . S
N787 C792 1.362 . S
C788 H780 0.929 . S
C788 N787 1.334 . S
C788 C791 1.413 . S
C789 H783 0.930 . S
C789 C790 1.392 . S
C789 C791 1.367 . S
C790 C789 1.392 . S
C790 C792 1.420 . S
C790 C822 1.423 . S
C791 H777 0.930 . S
C791 C788 1.413 . S
C791 C789 1.367 . S
C792 N787 1.362 . S
C792 C790 1.420 . S
C792 C796 1.429 . S
H793 C798 0.930 . S
N794 Eu756 2.609 . S
N794 C796 1.377 . S
N794 C797 1.321 . S
C795 H781 0.930 . S
C795 C797 1.400 . S
C795 C798 1.386 . S
C796 C792 1.429 . S
C796 N794 1.377 . S
C796 C799 1.411 . S
C797 H779 0.930 . S
C797 N794 1.321 . S
C797 C795 1.400 . S
C798 H793 0.930 . S
C798 C795 1.386 . S
C798 C799 1.395 . S
C799 C796 1.411 . S
C799 C798 1.395 . S
C799 C821 1.420 . S
O800 Eu756 2.558 . S
O800 C820 1.257 . S
O801 Eu756 2.612 . S
O801 Eu767 2.380 . S
O801 C812 1.276 . S
O802 Eu767 2.432 . S
O802 C819 1.264 . S
O803 Eu756 2.339 . S
O803 C819 1.254 . S
O804 Eu756 2.563 . S
O804 C812 1.235 . S
O805 Eu756 2.419 . S
O805 C820 1.249 . S
O806 Eu767 2.558 . S
O806 C831 1.257 . S
O807 Eu756 2.380 . S
O807 Eu767 2.612 . S
O807 C823 1.276 . S
O808 Eu756 2.432 . S
O808 C830 1.264 . S
O809 Eu767 2.339 . S
O809 C830 1.254 . S
O810 Eu767 2.563 . S
O810 C823 1.235 . S
O811 Eu767 2.419 . S
O811 C831 1.249 . S
C812 O801 1.276 . S
C812 O804 1.235 . S
C813 C815 1.393 . S
C813 C817 1.395 . S
C813 C820 1.492 . S
C814 C815 1.392 . S
C814 C816 1.386 . S
C815 C813 1.393 . S
C815 C814 1.392 . S
C815 H832 0.930 . S
C816 C814 1.386 . S
C816 C818 1.395 . S
C816 H833 0.930 . S
C817 C813 1.395 . S
C817 C818 1.379 . S
C817 H834 0.930 . S
C818 C816 1.395 . S
C818 C817 1.379 . S
C818 H835 0.930 . S
C819 O802 1.264 . S
C819 O803 1.254 . S
C820 Eu756 2.848 . S
C820 O800 1.257 . S
C820 O805 1.249 . S
C820 C813 1.492 . S
C821 H786 0.931 . S
C821 C799 1.420 . S
C821 C822 1.351 . S
C822 H784 0.930 . S
C822 C790 1.423 . S
C822 C821 1.351 . S
C823 O807 1.276 . S
C823 O810 1.235 . S
C824 C825 1.393 . S
C824 C828 1.395 . S
C824 C831 1.492 . S
C825 C824 1.393 . S
C825 C826 1.392 . S
C825 H836 0.930 . S
C826 C825 1.392 . S
C826 C827 1.386 . S
C827 C826 1.386 . S
C827 C829 1.395 . S
C827 H837 0.930 . S
C828 C824 1.395 . S
C828 C829 1.379 . S
C828 H838 0.930 . S
C829 C827 1.395 . S
C829 C828 1.379 . S
C829 H839 0.930 1_455 S
C830 O808 1.264 . S
C830 O809 1.254 . S
C831 Eu767 2.848 . S
C831 O806 1.257 . S
C831 O811 1.249 . S
C831 C824 1.492 . S
H832 C815 0.930 . S
H833 C816 0.930 . S
H834 C817 0.930 . S
H835 C818 0.930 . S
H836 C825 0.930 . S
H837 C827 0.930 . S
H838 C828 0.930 . S
H839 C829 0.930 1_655 S
Eu840 N871 2.657 1_554 S
Eu840 N878 2.609 . S
Eu840 O884 2.558 1_554 S
Eu840 O885 2.612 . S
Eu840 O887 2.339 1_554 S
Eu840 O888 2.563 . S
Eu840 O889 2.419 1_554 S
Eu840 O891 2.380 . S
Eu840 O892 2.432 . S
Eu840 C904 2.848 1_554 S
C841 C844 1.429 . S
C841 C845 1.411 . S
C841 N848 1.377 . S
C842 C844 1.420 . S
C842 C846 1.423 . S
C842 C854 1.392 . S
C843 C845 1.420 . S
C843 C846 1.351 . S
C843 H866 0.931 . S
C844 C841 1.429 . S
C844 C842 1.420 . S
C844 N852 1.362 . S
C845 C841 1.411 . S
C845 C843 1.420 . S
C845 C850 1.395 . S
C846 C842 1.423 . S
C846 C843 1.351 . S
C846 H858 0.930 . S
C847 C849 1.400 . S
C847 C850 1.386 . S
C847 H859 0.930 . S
N848 C841 1.377 . S
N848 C849 1.321 . S
N848 Eu851 2.609 . S
C849 C847 1.400 . S
C849 N848 1.321 . S
C849 H856 0.930 . S
C850 C845 1.395 . S
C850 C847 1.386 . S
C850 H869 0.930 . S
Eu851 N848 2.609 . S
Eu851 N852 2.657 . S
Eu851 O885 2.380 . S
Eu851 O886 2.432 . S
Eu851 O890 2.558 . S
Eu851 O891 2.612 . S
Eu851 O893 2.339 . S
Eu851 O894 2.563 . S
Eu851 O895 2.419 . S
Eu851 C915 2.848 . S
N852 C844 1.362 . S
N852 Eu851 2.657 . S
N852 C853 1.334 . S
C853 N852 1.334 . S
C853 C855 1.413 . S
C853 H860 0.929 . S
C854 C842 1.392 . S
C854 C855 1.367 . S
C854 H862 0.930 . S
C855 C853 1.413 . S
C855 C854 1.367 . S
C855 H857 0.930 . S
H856 C849 0.930 . S
H857 C855 0.930 . S
H858 C846 0.930 . S
H859 C847 0.930 . S
H860 C853 0.929 . S
H861 C875 0.930 . S
H862 C854 0.930 . S
H863 C881 0.930 . S
H864 C872 0.929 . S
H865 C879 0.930 . S
H866 C843 0.931 . S
H867 C873 0.930 . S
H868 C906 0.930 . S
H869 C850 0.930 . S
H870 C905 0.931 . S
N871 Eu840 2.657 1_556 S
N871 C872 1.334 . S
N871 C876 1.362 . S
C872 H864 0.929 . S
C872 N871 1.334 . S
C872 C875 1.413 . S
C873 H867 0.930 . S
C873 C874 1.392 . S
C873 C875 1.367 . S
C874 C873 1.392 . S
C874 C876 1.420 . S
C874 C906 1.423 . S
C875 H861 0.930 . S
C875 C872 1.413 . S
C875 C873 1.367 . S
C876 N871 1.362 . S
C876 C874 1.420 . S
C876 C880 1.429 . S
H877 C882 0.930 . S
N878 Eu840 2.609 . S
N878 C880 1.377 1_554 S
N878 C881 1.321 . S
C879 H865 0.930 . S
C879 C881 1.400 . S
C879 C882 1.386 1_554 S
C880 C876 1.429 . S
C880 N878 1.377 1_556 S
C880 C883 1.411 . S
C881 H863 0.930 . S
C881 N878 1.321 . S
C881 C879 1.400 . S
C882 H877 0.930 . S
C882 C879 1.386 1_556 S
C882 C883 1.395 . S
C883 C880 1.411 . S
C883 C882 1.395 . S
C883 C905 1.420 . S
O884 Eu840 2.558 1_556 S
O884 C904 1.257 . S
O885 Eu840 2.612 . S
O885 Eu851 2.380 . S
O885 C896 1.276 . S
O886 Eu851 2.432 . S
O886 C903 1.264 1_554 S
O887 Eu840 2.339 1_556 S
O887 C903 1.254 . S
O888 Eu840 2.563 . S
O888 C896 1.235 . S
O889 Eu840 2.419 1_556 S
O889 C904 1.249 . S
O890 Eu851 2.558 . S
O890 C915 1.257 . S
O891 Eu840 2.380 . S
O891 Eu851 2.612 . S
O891 C907 1.276 . S
O892 Eu840 2.432 . S
O892 C914 1.264 . S
O893 Eu851 2.339 . S
O893 C914 1.254 . S
O894 Eu851 2.563 . S
O894 C907 1.235 . S
O895 Eu851 2.419 . S
O895 C915 1.249 . S
C896 O885 1.276 . S
C896 O888 1.235 . S
C897 C899 1.393 . S
C897 C901 1.395 . S
C897 C904 1.492 . S
C898 C899 1.392 . S
C898 C900 1.386 . S
C899 C897 1.393 . S
C899 C898 1.392 . S
C899 H916 0.930 . S
C900 C898 1.386 . S
C900 C902 1.395 . S
C900 H917 0.930 . S
C901 C897 1.395 . S
C901 C902 1.379 . S
C901 H918 0.930 . S
C902 C900 1.395 . S
C902 C901 1.379 . S
C902 H919 0.930 . S
C903 O886 1.264 1_556 S
C903 O887 1.254 . S
C904 Eu840 2.848 1_556 S
C904 O884 1.257 . S
C904 O889 1.249 . S
C904 C897 1.492 . S
C905 H870 0.931 . S
C905 C883 1.420 . S
C905 C906 1.351 . S
C906 H868 0.930 . S
C906 C874 1.423 . S
C906 C905 1.351 . S
C907 O891 1.276 . S
C907 O894 1.235 . S
C908 C909 1.393 . S
C908 C912 1.395 . S
C908 C915 1.492 . S
C909 C908 1.393 . S
C909 C910 1.392 . S
C909 H920 0.930 . S
C910 C909 1.392 . S
C910 C911 1.386 . S
C911 C910 1.386 . S
C911 C913 1.395 . S
C911 H921 0.930 . S
C912 C908 1.395 . S
C912 C913 1.379 . S
C912 H922 0.930 . S
C913 C911 1.395 . S
C913 C912 1.379 . S
C913 H923 0.930 . S
C914 O892 1.264 . S
C914 O893 1.254 . S
C915 Eu851 2.848 . S
C915 O890 1.257 . S
C915 O895 1.249 . S
C915 C908 1.492 . S
H916 C899 0.930 . S
H917 C900 0.930 . S
H918 C901 0.930 . S
H919 C902 0.930 . S
H920 C909 0.930 . S
H921 C911 0.930 . S
H922 C912 0.930 . S
H923 C913 0.930 . S
Eu924 N955 2.657 . S
Eu924 N962 2.609 . S
Eu924 O968 2.558 . S
Eu924 O969 2.612 . S
Eu924 O971 2.339 . S
Eu924 O972 2.563 . S
Eu924 O973 2.419 . S
Eu924 O975 2.380 . S
Eu924 O976 2.432 . S
Eu924 C988 2.848 . S
C925 C928 1.429 . S
C925 C929 1.411 . S
C925 N932 1.377 . S
C926 C928 1.420 . S
C926 C930 1.423 . S
C926 C938 1.392 . S
C927 C929 1.420 . S
C927 C930 1.351 . S
C927 H950 0.931 . S
C928 C925 1.429 . S
C928 C926 1.420 . S
C928 N936 1.362 . S
C929 C925 1.411 . S
C929 C927 1.420 . S
C929 C934 1.395 . S
C930 C926 1.423 . S
C930 C927 1.351 . S
C930 H942 0.930 . S
C931 C933 1.400 . S
C931 C934 1.386 . S
C931 H943 0.930 . S
N932 C925 1.377 . S
N932 C933 1.321 . S
N932 Eu935 2.609 . S
C933 C931 1.400 . S
C933 N932 1.321 . S
C933 H940 0.930 . S
C934 C929 1.395 . S
C934 C931 1.386 . S
C934 H953 0.930 . S
Eu935 N932 2.609 . S
Eu935 N936 2.657 . S
Eu935 O969 2.380 . S
Eu935 O970 2.432 . S
Eu935 O974 2.558 . S
Eu935 O975 2.612 . S
Eu935 O977 2.339 . S
Eu935 O978 2.563 . S
Eu935 O979 2.419 . S
Eu935 C999 2.848 . S
N936 C928 1.362 . S
N936 Eu935 2.657 . S
N936 C937 1.334 . S
C937 N936 1.334 . S
C937 C939 1.413 . S
C937 H944 0.929 . S
C938 C926 1.392 . S
C938 C939 1.367 . S
C938 H946 0.930 . S
C939 C937 1.413 . S
C939 C938 1.367 . S
C939 H941 0.930 . S
H940 C933 0.930 . S
H941 C939 0.930 . S
H942 C930 0.930 . S
H943 C931 0.930 . S
H944 C937 0.929 . S
H945 C959 0.930 . S
H946 C938 0.930 . S
H947 C965 0.930 . S
H948 C956 0.929 . S
H949 C963 0.930 . S
H950 C927 0.931 . S
H951 C957 0.930 . S
H952 C990 0.930 . S
H953 C934 0.930 . S
H954 C989 0.931 . S
N955 Eu924 2.657 . S
N955 C956 1.334 . S
N955 C960 1.362 . S
C956 H948 0.929 . S
C956 N955 1.334 . S
C956 C959 1.413 . S
C957 H951 0.930 . S
C957 C958 1.392 . S
C957 C959 1.367 . S
C958 C957 1.392 . S
C958 C960 1.420 . S
C958 C990 1.423 . S
C959 H945 0.930 . S
C959 C956 1.413 . S
C959 C957 1.367 . S
C960 N955 1.362 . S
C960 C958 1.420 . S
C960 C964 1.429 . S
H961 C966 0.930 . S
N962 Eu924 2.609 . S
N962 C964 1.377 . S
N962 C965 1.321 . S
C963 H949 0.930 . S
C963 C965 1.400 . S
C963 C966 1.386 . S
C964 C960 1.429 . S
C964 N962 1.377 . S
C964 C967 1.411 . S
C965 H947 0.930 . S
C965 N962 1.321 . S
C965 C963 1.400 . S
C966 H961 0.930 . S
C966 C963 1.386 . S
C966 C967 1.395 . S
C967 C964 1.411 . S
C967 C966 1.395 . S
C967 C989 1.420 . S
O968 Eu924 2.558 . S
O968 C988 1.257 . S
O969 Eu924 2.612 . S
O969 Eu935 2.380 . S
O969 C980 1.276 . S
O970 Eu935 2.432 . S
O970 C987 1.264 . S
O971 Eu924 2.339 . S
O971 C987 1.254 . S
O972 Eu924 2.563 . S
O972 C980 1.235 . S
O973 Eu924 2.419 . S
O973 C988 1.249 . S
O974 Eu935 2.558 . S
O974 C999 1.257 . S
O975 Eu924 2.380 . S
O975 Eu935 2.612 . S
O975 C991 1.276 . S
O976 Eu924 2.432 . S
O976 C998 1.264 . S
O977 Eu935 2.339 . S
O977 C998 1.254 . S
O978 Eu935 2.563 . S
O978 C991 1.235 . S
O979 Eu935 2.419 . S
O979 C999 1.249 . S
C980 O969 1.276 . S
C980 O972 1.235 . S
C981 C983 1.393 . S
C981 C985 1.395 . S
C981 C988 1.492 . S
C982 C983 1.392 . S
C982 C984 1.386 . S
C983 C981 1.393 . S
C983 C982 1.392 . S
C983 H1000 0.930 . S
C984 C982 1.386 . S
C984 C986 1.395 . S
C984 H1001 0.930 . S
C985 C981 1.395 . S
C985 C986 1.379 . S
C985 H1002 0.930 . S
C986 C984 1.395 . S
C986 C985 1.379 . S
C986 H1003 0.930 . S
C987 O970 1.264 . S
C987 O971 1.254 . S
C988 Eu924 2.848 . S
C988 O968 1.257 . S
C988 O973 1.249 . S
C988 C981 1.492 . S
C989 H954 0.931 . S
C989 C967 1.420 . S
C989 C990 1.351 . S
C990 H952 0.930 . S
C990 C958 1.423 . S
C990 C989 1.351 . S
C991 O975 1.276 . S
C991 O978 1.235 . S
C992 C993 1.393 . S
C992 C996 1.395 . S
C992 C999 1.492 . S
C993 C992 1.393 . S
C993 C994 1.392 . S
C993 H1004 0.930 . S
C994 C993 1.392 . S
C994 C995 1.386 . S
C995 C994 1.386 . S
C995 C997 1.395 . S
C995 H1005 0.930 . S
C996 C992 1.395 . S
C996 C997 1.379 . S
C996 H1006 0.930 . S
C997 C995 1.395 . S
C997 C996 1.379 . S
C997 H1007 0.930 . S
C998 O976 1.264 . S
C998 O977 1.254 . S
C999 Eu935 2.848 . S
C999 O974 1.257 . S
C999 O979 1.249 . S
C999 C992 1.492 . S
H1000 C983 0.930 . S
H1001 C984 0.930 . S
H1002 C985 0.930 . S
H1003 C986 0.930 . S
H1004 C993 0.930 . S
H1005 C995 0.930 . S
H1006 C996 0.930 . S
H1007 C997 0.930 . S
Eu1008 N1039 2.657 . S
Eu1008 N1046 2.609 . S
Eu1008 O1052 2.558 . S
Eu1008 O1053 2.612 . S
Eu1008 O1055 2.339 . S
Eu1008 O1056 2.563 . S
Eu1008 O1057 2.419 . S
Eu1008 O1059 2.380 . S
Eu1008 O1060 2.432 . S
Eu1008 C1072 2.848 . S
C1009 C1012 1.429 . S
C1009 C1013 1.411 . S
C1009 N1016 1.377 . S
C1010 C1012 1.420 . S
C1010 C1014 1.423 . S
C1010 C1022 1.392 . S
C1011 C1013 1.420 . S
C1011 C1014 1.351 . S
C1011 H1034 0.931 . S
C1012 C1009 1.429 . S
C1012 C1010 1.420 . S
C1012 N1020 1.362 . S
C1013 C1009 1.411 . S
C1013 C1011 1.420 . S
C1013 C1018 1.395 . S
C1014 C1010 1.423 . S
C1014 C1011 1.351 . S
C1014 H1026 0.930 . S
C1015 C1017 1.400 . S
C1015 C1018 1.386 . S
C1015 H1027 0.930 . S
N1016 C1009 1.377 . S
N1016 C1017 1.321 . S
N1016 Eu1019 2.609 . S
C1017 C1015 1.400 . S
C1017 N1016 1.321 . S
C1017 H1024 0.930 . S
C1018 C1013 1.395 . S
C1018 C1015 1.386 . S
C1018 H1037 0.930 . S
Eu1019 N1016 2.609 . S
Eu1019 N1020 2.657 . S
Eu1019 O1053 2.380 . S
Eu1019 O1054 2.432 . S
Eu1019 O1058 2.558 . S
Eu1019 O1059 2.612 . S
Eu1019 O1061 2.339 . S
Eu1019 O1062 2.563 . S
Eu1019 O1063 2.419 . S
Eu1019 C1083 2.848 . S
N1020 C1012 1.362 . S
N1020 Eu1019 2.657 . S
N1020 C1021 1.334 . S
C1021 N1020 1.334 . S
C1021 C1023 1.413 . S
C1021 H1028 0.929 . S
C1022 C1010 1.392 . S
C1022 C1023 1.367 . S
C1022 H1030 0.930 . S
C1023 C1021 1.413 . S
C1023 C1022 1.367 . S
C1023 H1025 0.930 . S
H1024 C1017 0.930 . S
H1025 C1023 0.930 . S
H1026 C1014 0.930 . S
H1027 C1015 0.930 . S
H1028 C1021 0.929 . S
H1029 C1043 0.930 . S
H1030 C1022 0.930 . S
H1031 C1049 0.930 . S
H1032 C1040 0.929 . S
H1033 C1047 0.930 . S
H1034 C1011 0.931 . S
H1035 C1041 0.930 . S
H1036 C1074 0.930 . S
H1037 C1018 0.930 . S
H1038 C1073 0.931 . S
N1039 Eu1008 2.657 . S
N1039 C1040 1.334 . S
N1039 C1044 1.362 . S
C1040 H1032 0.929 . S
C1040 N1039 1.334 . S
C1040 C1043 1.413 . S
C1041 H1035 0.930 . S
C1041 C1042 1.392 . S
C1041 C1043 1.367 . S
C1042 C1041 1.392 . S
C1042 C1044 1.420 . S
C1042 C1074 1.423 . S
C1043 H1029 0.930 . S
C1043 C1040 1.413 . S
C1043 C1041 1.367 . S
C1044 N1039 1.362 . S
C1044 C1042 1.420 . S
C1044 C1048 1.429 . S
H1045 C1050 0.930 . S
N1046 Eu1008 2.609 . S
N1046 C1048 1.377 . S
N1046 C1049 1.321 . S
C1047 H1033 0.930 . S
C1047 C1049 1.400 . S
C1047 C1050 1.386 . S
C1048 C1044 1.429 . S
C1048 N1046 1.377 . S
C1048 C1051 1.411 . S
C1049 H1031 0.930 . S
C1049 N1046 1.321 . S
C1049 C1047 1.400 . S
C1050 H1045 0.930 . S
C1050 C1047 1.386 . S
C1050 C1051 1.395 . S
C1051 C1048 1.411 . S
C1051 C1050 1.395 . S
C1051 C1073 1.420 . S
O1052 Eu1008 2.558 . S
O1052 C1072 1.257 . S
O1053 Eu1008 2.612 . S
O1053 Eu1019 2.380 . S
O1053 C1064 1.276 . S
O1054 Eu1019 2.432 . S
O1054 C1071 1.264 . S
O1055 Eu1008 2.339 . S
O1055 C1071 1.254 . S
O1056 Eu1008 2.563 . S
O1056 C1064 1.235 . S
O1057 Eu1008 2.419 . S
O1057 C1072 1.249 . S
O1058 Eu1019 2.558 . S
O1058 C1083 1.257 . S
O1059 Eu1008 2.380 . S
O1059 Eu1019 2.612 . S
O1059 C1075 1.276 . S
O1060 Eu1008 2.432 . S
O1060 C1082 1.264 . S
O1061 Eu1019 2.339 . S
O1061 C1082 1.254 . S
O1062 Eu1019 2.563 . S
O1062 C1075 1.235 . S
O1063 Eu1019 2.419 . S
O1063 C1083 1.249 . S
C1064 O1053 1.276 . S
C1064 O1056 1.235 . S
C1065 C1067 1.393 . S
C1065 C1069 1.395 . S
C1065 C1072 1.492 . S
C1066 C1067 1.392 . S
C1066 C1068 1.386 . S
C1067 C1065 1.393 . S
C1067 C1066 1.392 . S
C1067 H1084 0.930 . S
C1068 C1066 1.386 . S
C1068 C1070 1.395 . S
C1068 H1085 0.930 . S
C1069 C1065 1.395 . S
C1069 C1070 1.379 . S
C1069 H1086 0.930 . S
C1070 C1068 1.395 . S
C1070 C1069 1.379 . S
C1070 H1087 0.930 . S
C1071 O1054 1.264 . S
C1071 O1055 1.254 . S
C1072 Eu1008 2.848 . S
C1072 O1052 1.257 . S
C1072 O1057 1.249 . S
C1072 C1065 1.492 . S
C1073 H1038 0.931 . S
C1073 C1051 1.420 . S
C1073 C1074 1.351 . S
C1074 H1036 0.930 . S
C1074 C1042 1.423 . S
C1074 C1073 1.351 . S
C1075 O1059 1.276 . S
C1075 O1062 1.235 . S
C1076 C1077 1.393 . S
C1076 C1080 1.395 . S
C1076 C1083 1.492 . S
C1077 C1076 1.393 . S
C1077 C1078 1.392 . S
C1077 H1088 0.930 . S
C1078 C1077 1.392 . S
C1078 C1079 1.386 . S
C1079 C1078 1.386 . S
C1079 C1081 1.395 . S
C1079 H1089 0.939 . S
C1080 C1076 1.395 . S
C1080 C1081 1.379 . S
C1080 H1090 0.930 . S
C1081 C1079 1.395 . S
C1081 C1080 1.379 . S
C1081 H1091 0.930 . S
C1082 O1060 1.264 . S
C1082 O1061 1.254 . S
C1083 Eu1019 2.848 . S
C1083 O1058 1.257 . S
C1083 O1063 1.249 . S
C1083 C1076 1.492 . S
H1084 C1067 0.930 . S
H1085 C1068 0.930 . S
H1086 C1069 0.930 . S
H1087 C1070 0.930 . S
H1088 C1077 0.930 . S
H1089 C1079 0.939 . S
H1090 C1080 0.930 . S
H1091 C1081 0.930 . S
Eu1092 N1123 2.657 . S
Eu1092 N1130 2.609 . S
Eu1092 O1136 2.558 . S
Eu1092 O1137 2.612 . S
Eu1092 O1139 2.339 . S
Eu1092 O1140 2.563 . S
Eu1092 O1141 2.419 . S
Eu1092 O1143 2.380 . S
Eu1092 O1144 2.432 . S
Eu1092 C1156 2.848 . S
C1093 C1096 1.429 . S
C1093 C1097 1.411 . S
C1093 N1100 1.377 . S
C1094 C1096 1.420 . S
C1094 C1098 1.423 . S
C1094 C1106 1.392 . S
C1095 C1097 1.420 . S
C1095 C1098 1.351 . S
C1095 H1118 0.931 . S
C1096 C1093 1.429 . S
C1096 C1094 1.420 . S
C1096 N1104 1.362 . S
C1097 C1093 1.411 . S
C1097 C1095 1.420 . S
C1097 C1102 1.395 . S
C1098 C1094 1.423 . S
C1098 C1095 1.351 . S
C1098 H1110 0.930 . S
C1099 C1101 1.400 . S
C1099 C1102 1.386 . S
C1099 H1111 0.930 . S
N1100 C1093 1.377 . S
N1100 C1101 1.321 . S
N1100 Eu1103 2.609 . S
C1101 C1099 1.400 . S
C1101 N1100 1.321 . S
C1101 H1108 0.930 . S
C1102 C1097 1.395 . S
C1102 C1099 1.386 . S
C1102 H1121 0.930 . S
Eu1103 N1100 2.609 . S
Eu1103 N1104 2.657 . S
Eu1103 O1137 2.380 . S
Eu1103 O1138 2.432 . S
Eu1103 O1142 2.558 . S
Eu1103 O1143 2.612 . S
Eu1103 O1145 2.339 . S
Eu1103 O1146 2.563 . S
Eu1103 O1147 2.419 . S
Eu1103 C1167 2.848 . S
N1104 C1096 1.362 . S
N1104 Eu1103 2.657 . S
N1104 C1105 1.334 . S
C1105 N1104 1.334 . S
C1105 C1107 1.413 . S
C1105 H1112 0.929 . S
C1106 C1094 1.392 . S
C1106 C1107 1.367 . S
C1106 H1114 0.930 . S
C1107 C1105 1.413 . S
C1107 C1106 1.367 . S
C1107 H1109 0.930 . S
H1108 C1101 0.930 . S
H1109 C1107 0.930 . S
H1110 C1098 0.930 . S
H1111 C1099 0.930 . S
H1112 C1105 0.929 . S
H1113 C1127 0.930 . S
H1114 C1106 0.930 . S
H1115 C1133 0.925 1_655 S
H1116 C1124 0.929 . S
H1117 C1131 0.930 . S
H1118 C1095 0.931 . S
H1119 C1125 0.930 . S
H1120 C1158 0.929 1_455 S
H1121 C1102 0.930 . S
H1122 C1157 0.931 . S
N1123 Eu1092 2.657 . S
N1123 C1124 1.334 . S
N1123 C1128 1.362 . S
C1124 H1116 0.929 . S
C1124 N1123 1.334 . S
C1124 C1127 1.413 . S
C1125 H1119 0.930 . S
C1125 C1126 1.392 . S
C1125 C1127 1.367 . S
C1126 C1125 1.392 . S
C1126 C1128 1.420 . S
C1126 C1158 1.424 . S
C1127 H1113 0.930 . S
C1127 C1124 1.413 . S
C1127 C1125 1.367 . S
C1128 N1123 1.362 . S
C1128 C1126 1.420 . S
C1128 C1132 1.429 . S
H1129 C1134 0.930 . S
N1130 Eu1092 2.609 . S
N1130 C1132 1.377 . S
N1130 C1133 1.304 1_655 S
C1131 H1117 0.930 . S
C1131 C1133 1.422 . S
C1131 C1134 1.386 . S
C1132 C1128 1.429 . S
C1132 N1130 1.377 . S
C1132 C1135 1.411 1_655 S
C1133 H1115 0.925 1_455 S
C1133 N1130 1.304 1_455 S
C1133 C1131 1.422 . S
C1134 H1129 0.930 . S
C1134 C1131 1.386 . S
C1134 C1135 1.395 . S
C1135 C1132 1.411 1_455 S
C1135 C1134 1.395 . S
C1135 C1157 1.420 . S
O1136 Eu1092 2.558 . S
O1136 C1156 1.257 . S
O1137 Eu1092 2.612 . S
O1137 Eu1103 2.380 . S
O1137 C1148 1.276 . S
O1138 Eu1103 2.432 . S
O1138 C1155 1.264 . S
O1139 Eu1092 2.339 . S
O1139 C1155 1.254 . S
O1140 Eu1092 2.563 . S
O1140 C1148 1.235 . S
O1141 Eu1092 2.419 . S
O1141 C1156 1.249 . S
O1142 Eu1103 2.558 . S
O1142 C1167 1.257 . S
O1143 Eu1092 2.380 . S
O1143 Eu1103 2.612 . S
O1143 C1159 1.276 . S
O1144 Eu1092 2.432 . S
O1144 C1166 1.264 . S
O1145 Eu1103 2.339 . S
O1145 C1166 1.254 . S
O1146 Eu1103 2.563 . S
O1146 C1159 1.235 . S
O1147 Eu1103 2.419 . S
O1147 C1167 1.249 . S
C1148 O1137 1.276 . S
C1148 O1140 1.235 . S
C1149 C1151 1.393 . S
C1149 C1153 1.395 . S
C1149 C1156 1.492 . S
C1150 C1151 1.392 . S
C1150 C1152 1.386 . S
C1151 C1149 1.393 . S
C1151 C1150 1.392 . S
C1151 H1168 0.930 . S
C1152 C1150 1.386 . S
C1152 C1154 1.395 . S
C1152 H1169 0.930 . S
C1153 C1149 1.395 . S
C1153 C1154 1.379 . S
C1153 H1170 0.930 . S
C1154 C1152 1.395 . S
C1154 C1153 1.379 . S
C1154 H1171 0.930 1_655 S
C1155 O1138 1.264 . S
C1155 O1139 1.254 . S
C1156 Eu1092 2.848 . S
C1156 O1136 1.257 . S
C1156 O1141 1.249 . S
C1156 C1149 1.492 . S
C1157 H1122 0.931 . S
C1157 C1135 1.420 . S
C1157 C1158 1.349 1_455 S
C1158 H1120 0.929 1_655 S
C1158 C1126 1.424 . S
C1158 C1157 1.349 1_655 S
C1159 O1143 1.276 . S
C1159 O1146 1.235 . S
C1160 C1161 1.393 . S
C1160 C1164 1.395 . S
C1160 C1167 1.492 . S
C1161 C1160 1.393 . S
C1161 C1162 1.392 . S
C1161 H1172 0.930 . S
C1162 C1161 1.392 . S
C1162 C1163 1.386 . S
C1163 C1162 1.386 . S
C1163 C1165 1.395 . S
C1163 H1173 0.930 . S
C1164 C1160 1.395 . S
C1164 C1165 1.379 . S
C1164 H1174 0.930 . S
C1165 C1163 1.395 . S
C1165 C1164 1.379 . S
C1165 H1175 0.930 . S
C1166 O1144 1.264 . S
C1166 O1145 1.254 . S
C1167 Eu1103 2.848 . S
C1167 O1142 1.257 . S
C1167 O1147 1.249 . S
C1167 C1160 1.492 . S
H1168 C1151 0.930 . S
H1169 C1152 0.930 . S
H1170 C1153 0.930 . S
H1171 C1154 0.930 1_455 S
H1172 C1161 0.930 . S
H1173 C1163 0.930 . S
H1174 C1164 0.930 . S
H1175 C1165 0.930 . S
Eu1176 N1207 2.657 . S
Eu1176 N1214 2.609 . S
Eu1176 O1220 2.558 . S
Eu1176 O1221 2.612 . S
Eu1176 O1223 2.339 . S
Eu1176 O1224 2.563 . S
Eu1176 O1225 2.419 . S
Eu1176 O1227 2.380 . S
Eu1176 O1228 2.432 . S
Eu1176 C1240 2.848 . S
C1177 C1180 1.429 . S
C1177 C1181 1.411 . S
C1177 N1184 1.377 1_554 S
C1178 C1180 1.420 . S
C1178 C1182 1.423 . S
C1178 C1190 1.392 . S
C1179 C1181 1.420 . S
C1179 C1182 1.351 . S
C1179 H1202 0.931 . S
C1180 C1177 1.429 . S
C1180 C1178 1.420 . S
C1180 N1188 1.362 . S
C1181 C1177 1.411 . S
C1181 C1179 1.420 . S
C1181 C1186 1.395 . S
C1182 C1178 1.423 . S
C1182 C1179 1.351 . S
C1182 H1194 0.930 . S
C1183 C1185 1.400 . S
C1183 C1186 1.386 1_556 S
C1183 H1195 0.930 . S
N1184 C1177 1.377 1_556 S
N1184 C1185 1.321 . S
N1184 Eu1187 2.609 . S
C1185 C1183 1.400 . S
C1185 N1184 1.321 . S
C1185 H1192 0.930 . S
C1186 C1181 1.395 . S
C1186 C1183 1.386 1_554 S
C1186 H1205 0.930 . S
Eu1187 N1184 2.609 . S
Eu1187 N1188 2.657 1_556 S
Eu1187 O1221 2.380 . S
Eu1187 O1222 2.432 . S
Eu1187 O1226 2.558 1_556 S
Eu1187 O1227 2.612 . S
Eu1187 O1229 2.339 1_556 S
Eu1187 O1230 2.563 . S
Eu1187 O1231 2.419 1_556 S
Eu1187 C1251 2.848 1_556 S
N1188 C1180 1.362 . S
N1188 Eu1187 2.657 1_554 S
N1188 C1189 1.334 . S
C1189 N1188 1.334 . S
C1189 C1191 1.413 . S
C1189 H1196 0.929 . S
C1190 C1178 1.392 . S
C1190 C1191 1.367 . S
C1190 H1198 0.930 . S
C1191 C1189 1.413 . S
C1191 C1190 1.367 . S
C1191 H1193 0.930 . S
H1192 C1185 0.930 . S
H1193 C1191 0.930 . S
H1194 C1182 0.930 . S
H1195 C1183 0.930 . S
H1196 C1189 0.929 . S
H1197 C1211 0.930 . S
H1198 C1190 0.930 . S
H1199 C1217 0.930 . S
H1200 C1208 0.929 . S
H1201 C1215 0.930 . S
H1202 C1179 0.931 . S
H1203 C1209 0.930 . S
H1204 C1242 0.930 . S
H1205 C1186 0.930 . S
H1206 C1241 0.931 . S
N1207 Eu1176 2.657 . S
N1207 C1208 1.334 . S
N1207 C1212 1.362 . S
C1208 H1200 0.929 . S
C1208 N1207 1.334 . S
C1208 C1211 1.413 . S
C1209 H1203 0.930 . S
C1209 C1210 1.392 . S
C1209 C1211 1.367 . S
C1210 C1209 1.392 . S
C1210 C1212 1.420 . S
C1210 C1242 1.423 . S
C1211 H1197 0.930 . S
C1211 C1208 1.413 . S
C1211 C1209 1.367 . S
C1212 N1207 1.362 . S
C1212 C1210 1.420 . S
C1212 C1216 1.429 . S
H1213 C1218 0.930 . S
N1214 Eu1176 2.609 . S
N1214 C1216 1.377 . S
N1214 C1217 1.321 . S
C1215 H1201 0.930 . S
C1215 C1217 1.400 . S
C1215 C1218 1.386 . S
C1216 C1212 1.429 . S
C1216 N1214 1.377 . S
C1216 C1219 1.411 . S
C1217 H1199 0.930 . S
C1217 N1214 1.321 . S
C1217 C1215 1.400 . S
C1218 H1213 0.930 . S
C1218 C1215 1.386 . S
C1218 C1219 1.395 . S
C1219 C1216 1.411 . S
C1219 C1218 1.395 . S
C1219 C1241 1.420 . S
O1220 Eu1176 2.558 . S
O1220 C1240 1.257 . S
O1221 Eu1176 2.612 . S
O1221 Eu1187 2.380 . S
O1221 C1232 1.276 . S
O1222 Eu1187 2.432 . S
O1222 C1239 1.264 . S
O1223 Eu1176 2.339 . S
O1223 C1239 1.254 . S
O1224 Eu1176 2.563 . S
O1224 C1232 1.235 . S
O1225 Eu1176 2.419 . S
O1225 C1240 1.249 . S
O1226 Eu1187 2.558 1_554 S
O1226 C1251 1.257 . S
O1227 Eu1176 2.380 . S
O1227 Eu1187 2.612 . S
O1227 C1243 1.276 . S
O1228 Eu1176 2.432 . S
O1228 C1250 1.264 1_556 S
O1229 Eu1187 2.339 1_554 S
O1229 C1250 1.254 . S
O1230 Eu1187 2.563 . S
O1230 C1243 1.235 . S
O1231 Eu1187 2.419 1_554 S
O1231 C1251 1.249 . S
C1232 O1221 1.276 . S
C1232 O1224 1.235 . S
C1233 C1235 1.393 . S
C1233 C1237 1.395 . S
C1233 C1240 1.492 . S
C1234 C1235 1.392 . S
C1234 C1236 1.386 . S
C1235 C1233 1.393 . S
C1235 C1234 1.392 . S
C1235 H1252 0.930 . S
C1236 C1234 1.386 . S
C1236 C1238 1.395 . S
C1236 H1253 0.930 . S
C1237 C1233 1.395 . S
C1237 C1238 1.379 . S
C1237 H1254 0.930 . S
C1238 C1236 1.395 . S
C1238 C1237 1.379 . S
C1238 H1255 0.930 . S
C1239 O1222 1.264 . S
C1239 O1223 1.254 . S
C1240 Eu1176 2.848 . S
C1240 O1220 1.257 . S
C1240 O1225 1.249 . S
C1240 C1233 1.492 . S
C1241 H1206 0.931 . S
C1241 C1219 1.420 . S
C1241 C1242 1.351 . S
C1242 H1204 0.930 . S
C1242 C1210 1.423 . S
C1242 C1241 1.351 . S
C1243 O1227 1.276 . S
C1243 O1230 1.235 . S
C1244 C1245 1.393 . S
C1244 C1248 1.395 . S
C1244 C1251 1.492 . S
C1245 C1244 1.393 . S
C1245 C1246 1.392 . S
C1245 H1256 0.930 . S
C1246 C1245 1.392 . S
C1246 C1247 1.386 . S
C1247 C1246 1.386 . S
C1247 C1249 1.395 . S
C1247 H1257 0.930 . S
C1248 C1244 1.395 . S
C1248 C1249 1.379 . S
C1248 H1258 0.930 . S
C1249 C1247 1.395 . S
C1249 C1248 1.379 . S
C1249 H1259 0.930 . S
C1250 O1228 1.264 1_554 S
C1250 O1229 1.254 . S
C1251 Eu1187 2.848 1_554 S
C1251 O1226 1.257 . S
C1251 O1231 1.249 . S
C1251 C1244 1.492 . S
H1252 C1235 0.930 . S
H1253 C1236 0.930 . S
H1254 C1237 0.930 . S
H1255 C1238 0.930 . S
H1256 C1245 0.930 . S
H1257 C1247 0.930 . S
H1258 C1248 0.930 . S
H1259 C1249 0.930 . S
Eu1260 N1291 2.657 . S
Eu1260 N1298 2.609 . S
Eu1260 O1304 2.558 . S
Eu1260 O1305 2.612 . S
Eu1260 O1307 2.339 . S
Eu1260 O1308 2.563 . S
Eu1260 O1309 2.419 . S
Eu1260 O1311 2.380 . S
Eu1260 O1312 2.432 . S
Eu1260 C1324 2.848 . S
C1261 C1264 1.429 . S
C1261 C1265 1.411 . S
C1261 N1268 1.377 . S
C1262 C1264 1.420 . S
C1262 C1266 1.423 . S
C1262 C1274 1.392 . S
C1263 C1265 1.420 . S
C1263 C1266 1.351 . S
C1263 H1286 0.931 . S
C1264 C1261 1.429 . S
C1264 C1262 1.420 . S
C1264 N1272 1.362 . S
C1265 C1261 1.411 . S
C1265 C1263 1.420 . S
C1265 C1270 1.395 . S
C1266 C1262 1.423 . S
C1266 C1263 1.351 . S
C1266 H1278 0.930 . S
C1267 C1269 1.400 . S
C1267 C1270 1.386 . S
C1267 H1279 0.930 . S
N1268 C1261 1.377 . S
N1268 C1269 1.321 . S
N1268 Eu1271 2.609 . S
C1269 C1267 1.400 . S
C1269 N1268 1.321 . S
C1269 H1276 0.930 . S
C1270 C1265 1.395 . S
C1270 C1267 1.386 . S
C1270 H1289 0.930 . S
Eu1271 N1268 2.609 . S
Eu1271 N1272 2.657 . S
Eu1271 O1305 2.380 . S
Eu1271 O1306 2.432 . S
Eu1271 O1310 2.558 . S
Eu1271 O1311 2.612 . S
Eu1271 O1313 2.339 . S
Eu1271 O1314 2.563 . S
Eu1271 O1315 2.419 . S
Eu1271 C1335 2.848 . S
N1272 C1264 1.362 . S
N1272 Eu1271 2.657 . S
N1272 C1273 1.334 . S
C1273 N1272 1.334 . S
C1273 C1275 1.413 . S
C1273 H1280 0.929 . S
C1274 C1262 1.392 . S
C1274 C1275 1.367 . S
C1274 H1282 0.930 . S
C1275 C1273 1.413 . S
C1275 C1274 1.367 . S
C1275 H1277 0.930 . S
H1276 C1269 0.930 . S
H1277 C1275 0.930 . S
H1278 C1266 0.930 . S
H1279 C1267 0.930 . S
H1280 C1273 0.929 . S
H1281 C1295 0.930 . S
H1282 C1274 0.930 . S
H1283 C1301 0.930 . S
H1284 C1292 0.929 . S
H1285 C1299 0.930 . S
H1286 C1263 0.931 . S
H1287 C1293 0.930 . S
H1288 C1326 0.930 . S
H1289 C1270 0.930 . S
H1290 C1325 0.931 . S
N1291 Eu1260 2.657 . S
N1291 C1292 1.334 . S
N1291 C1296 1.362 . S
C1292 H1284 0.929 . S
C1292 N1291 1.334 . S
C1292 C1295 1.413 . S
C1293 H1287 0.930 . S
C1293 C1294 1.392 . S
C1293 C1295 1.367 . S
C1294 C1293 1.392 . S
C1294 C1296 1.420 . S
C1294 C1326 1.423 . S
C1295 H1281 0.930 . S
C1295 C1292 1.413 . S
C1295 C1293 1.367 . S
C1296 N1291 1.362 . S
C1296 C1294 1.420 . S
C1296 C1300 1.429 . S
H1297 C1302 0.930 . S
N1298 Eu1260 2.609 . S
N1298 C1300 1.377 . S
N1298 C1301 1.321 . S
C1299 H1285 0.930 . S
C1299 C1301 1.400 . S
C1299 C1302 1.386 . S
C1300 C1296 1.429 . S
C1300 N1298 1.377 . S
C1300 C1303 1.411 . S
C1301 H1283 0.930 . S
C1301 N1298 1.321 . S
C1301 C1299 1.400 . S
C1302 H1297 0.930 . S
C1302 C1299 1.386 . S
C1302 C1303 1.395 . S
C1303 C1300 1.411 . S
C1303 C1302 1.395 . S
C1303 C1325 1.420 . S
O1304 Eu1260 2.558 . S
O1304 C1324 1.257 . S
O1305 Eu1260 2.612 . S
O1305 Eu1271 2.380 . S
O1305 C1316 1.276 . S
O1306 Eu1271 2.432 . S
O1306 C1323 1.264 . S
O1307 Eu1260 2.339 . S
O1307 C1323 1.254 . S
O1308 Eu1260 2.563 . S
O1308 C1316 1.235 . S
O1309 Eu1260 2.419 . S
O1309 C1324 1.249 . S
O1310 Eu1271 2.558 . S
O1310 C1335 1.257 . S
O1311 Eu1260 2.380 . S
O1311 Eu1271 2.612 . S
O1311 C1327 1.276 . S
O1312 Eu1260 2.432 . S
O1312 C1334 1.264 . S
O1313 Eu1271 2.339 . S
O1313 C1334 1.254 . S
O1314 Eu1271 2.563 . S
O1314 C1327 1.235 . S
O1315 Eu1271 2.419 . S
O1315 C1335 1.249 . S
C1316 O1305 1.276 . S
C1316 O1308 1.235 . S
C1317 C1319 1.393 . S
C1317 C1321 1.395 . S
C1317 C1324 1.492 . S
C1318 C1319 1.392 . S
C1318 C1320 1.386 . S
C1319 C1317 1.393 . S
C1319 C1318 1.392 . S
C1319 H1336 0.930 . S
C1320 C1318 1.386 . S
C1320 C1322 1.395 . S
C1320 H1337 0.930 . S
C1321 C1317 1.395 . S
C1321 C1322 1.379 . S
C1321 H1338 0.930 . S
C1322 C1320 1.395 . S
C1322 C1321 1.379 . S
C1322 H1339 0.930 . S
C1323 O1306 1.264 . S
C1323 O1307 1.254 . S
C1324 Eu1260 2.848 . S
C1324 O1304 1.257 . S
C1324 O1309 1.249 . S
C1324 C1317 1.492 . S
C1325 H1290 0.931 . S
C1325 C1303 1.420 . S
C1325 C1326 1.351 . S
C1326 H1288 0.930 . S
C1326 C1294 1.423 . S
C1326 C1325 1.351 . S
C1327 O1311 1.276 . S
C1327 O1314 1.235 . S
C1328 C1329 1.393 . S
C1328 C1332 1.395 . S
C1328 C1335 1.492 . S
C1329 C1328 1.393 . S
C1329 C1330 1.392 . S
C1329 H1340 0.930 . S
C1330 C1329 1.392 . S
C1330 C1331 1.386 . S
C1331 C1330 1.386 . S
C1331 C1333 1.395 . S
C1331 H1341 0.930 . S
C1332 C1328 1.395 . S
C1332 C1333 1.379 . S
C1332 H1342 0.930 . S
C1333 C1331 1.395 . S
C1333 C1332 1.379 . S
C1333 H1343 0.930 . S
C1334 O1312 1.264 . S
C1334 O1313 1.254 . S
C1335 Eu1271 2.848 . S
C1335 O1310 1.257 . S
C1335 O1315 1.249 . S
C1335 C1328 1.492 . S
H1336 C1319 0.930 . S
H1337 C1320 0.930 . S
H1338 C1321 0.930 . S
H1339 C1322 0.930 . S
H1340 C1329 0.930 . S
H1341 C1331 0.930 . S
H1342 C1332 0.930 . S
H1343 C1333 0.930 . S
C1344 C1345 1.391 . S
C1344 C1346 1.394 . S
C1344 H1360 0.931 . S
C1345 C1344 1.391 . S
C1345 C1349 1.376 . S
C1346 C1344 1.394 . S
C1346 C1347 1.369 . S
C1346 C1350 1.531 . S
C1347 C1346 1.369 . S
C1347 C1348 1.410 . S
C1347 C1355 1.503 . S
C1348 C1347 1.410 . S
C1348 C1349 1.392 . S
C1348 C1351 1.511 . S
C1349 C1345 1.376 . S
C1349 C1348 1.392 . S
C1349 H1361 0.929 . S
C1350 C1346 1.531 . S
C1350 H1362 0.960 . S
C1350 H1363 0.962 1_554 S
C1350 H1364 0.960 1_554 S
C1351 C1348 1.511 . S
C1351 H1365 0.961 . S
C1351 H1366 0.961 . S
C1351 H1367 0.961 . S
C1352 C1353 1.370 . S
C1352 C1354 1.363 . S
C1352 H1368 0.931 . S
C1353 C1352 1.370 . S
C1353 C1357 1.408 . S
C1354 C1352 1.363 . S
C1354 C1355 1.370 . S
C1354 C1358 1.524 . S
C1355 C1347 1.503 . S
C1355 C1354 1.370 . S
C1355 C1356 1.403 . S
C1356 C1355 1.403 . S
C1356 C1357 1.404 . S
C1356 C1359 1.539 . S
C1357 C1353 1.408 . S
C1357 C1356 1.404 . S
C1357 H1369 0.930 . S
C1358 C1354 1.524 . S
C1358 H1370 0.956 . S
C1358 H1371 0.961 . S
C1358 H1372 0.961 . S
C1359 C1356 1.539 . S
C1359 H1373 0.958 . S
C1359 H1374 0.961 . S
C1359 H1375 0.960 . S
H1360 C1344 0.931 . S
H1361 C1349 0.929 . S
H1362 C1350 0.960 . S
H1363 C1350 0.962 1_556 S
H1364 C1350 0.960 1_556 S
H1365 C1351 0.961 . S
H1366 C1351 0.961 . S
H1367 C1351 0.961 . S
H1368 C1352 0.931 . S
H1369 C1357 0.930 . S
H1370 C1358 0.956 . S
H1371 C1358 0.961 . S
H1372 C1358 0.961 . S
H1373 C1359 0.958 . S
H1374 C1359 0.961 . S
H1375 C1359 0.960 . S
C1376 C1377 1.391 . S
C1376 C1378 1.394 . S
C1376 H1392 0.931 . S
C1377 C1376 1.391 . S
C1377 C1381 1.376 . S
C1378 C1376 1.394 . S
C1378 C1379 1.369 . S
C1378 C1382 1.531 . S
C1379 C1378 1.369 . S
C1379 C1380 1.410 . S
C1379 C1387 1.503 . S
C1380 C1379 1.410 . S
C1380 C1381 1.392 . S
C1380 C1383 1.511 . S
C1381 C1377 1.376 . S
C1381 C1380 1.392 . S
C1381 H1393 0.929 . S
C1382 C1378 1.531 . S
C1382 H1394 0.960 . S
C1382 H1395 0.962 . S
C1382 H1396 0.960 . S
C1383 C1380 1.511 . S
C1383 H1397 0.961 . S
C1383 H1398 0.961 . S
C1383 H1399 0.961 . S
C1384 C1385 1.370 . S
C1384 C1386 1.363 . S
C1384 H1400 0.931 . S
C1385 C1384 1.370 . S
C1385 C1389 1.408 . S
C1386 C1384 1.363 . S
C1386 C1387 1.370 . S
C1386 C1390 1.524 . S
C1387 C1379 1.503 . S
C1387 C1386 1.370 . S
C1387 C1388 1.403 . S
C1388 C1387 1.403 . S
C1388 C1389 1.404 . S
C1388 C1391 1.539 . S
C1389 C1385 1.408 . S
C1389 C1388 1.404 . S
C1389 H1401 0.930 . S
C1390 C1386 1.524 . S
C1390 H1402 0.956 . S
C1390 H1403 0.961 . S
C1390 H1404 0.961 . S
C1391 C1388 1.539 . S
C1391 H1405 0.958 . S
C1391 H1406 0.961 . S
C1391 H1407 0.960 . S
H1392 C1376 0.931 . S
H1393 C1381 0.929 . S
H1394 C1382 0.960 . S
H1395 C1382 0.962 . S
H1396 C1382 0.960 . S
H1397 C1383 0.961 . S
H1398 C1383 0.961 . S
H1399 C1383 0.961 . S
H1400 C1384 0.931 . S
H1401 C1389 0.930 . S
H1402 C1390 0.956 . S
H1403 C1390 0.961 . S
H1404 C1390 0.961 . S
H1405 C1391 0.958 . S
H1406 C1391 0.961 . S
H1407 C1391 0.960 . S
C1408 C1409 1.391 . S
C1408 C1410 1.394 . S
C1408 H1424 0.931 . S
C1409 C1408 1.391 . S
C1409 C1413 1.376 . S
C1410 C1408 1.394 . S
C1410 C1411 1.369 . S
C1410 C1414 1.531 1_455 S
C1411 C1410 1.369 . S
C1411 C1412 1.410 . S
C1411 C1419 1.503 1_455 S
C1412 C1411 1.410 . S
C1412 C1413 1.392 . S
C1412 C1415 1.511 . S
C1413 C1409 1.376 . S
C1413 C1412 1.392 . S
C1413 H1425 0.929 . S
C1414 C1410 1.531 1_655 S
C1414 H1426 0.960 . S
C1414 H1427 0.962 . S
C1414 H1428 0.960 . S
C1415 C1412 1.511 . S
C1415 H1429 0.961 . S
C1415 H1430 0.961 . S
C1415 H1431 0.961 . S
C1416 C1417 1.370 . S
C1416 C1418 1.363 . S
C1416 H1432 0.931 . S
C1417 C1416 1.370 . S
C1417 C1421 1.408 . S
C1418 C1416 1.363 . S
C1418 C1419 1.370 . S
C1418 C1422 1.524 . S
C1419 C1411 1.503 1_655 S
C1419 C1418 1.370 . S
C1419 C1420 1.403 . S
C1420 C1419 1.403 . S
C1420 C1421 1.404 . S
C1420 C1423 1.539 1_655 S
C1421 C1417 1.408 . S
C1421 C1420 1.404 . S
C1421 H1433 0.930 . S
C1422 C1418 1.524 . S
C1422 H1434 0.956 . S
C1422 H1435 0.961 . S
C1422 H1436 0.961 . S
C1423 C1420 1.539 1_455 S
C1423 H1437 0.958 1_455 S
C1423 H1438 0.961 . S
C1423 H1439 0.960 . S
H1424 C1408 0.931 . S
H1425 C1413 0.929 . S
H1426 C1414 0.960 . S
H1427 C1414 0.962 . S
H1428 C1414 0.960 . S
H1429 C1415 0.961 . S
H1430 C1415 0.961 . S
H1431 C1415 0.961 . S
H1432 C1416 0.931 . S
H1433 C1421 0.930 . S
H1434 C1422 0.956 . S
H1435 C1422 0.961 . S
H1436 C1422 0.961 . S
H1437 C1423 0.958 1_655 S
H1438 C1423 0.961 . S
H1439 C1423 0.960 . S
C1440 C1441 1.391 . S
C1440 C1442 1.394 . S
C1440 H1456 0.931 . S
C1441 C1440 1.391 . S
C1441 C1445 1.376 . S
C1442 C1440 1.394 . S
C1442 C1443 1.369 . S
C1442 C1446 1.531 1_655 S
C1443 C1442 1.369 . S
C1443 C1444 1.410 . S
C1443 C1451 1.503 1_655 S
C1444 C1443 1.410 . S
C1444 C1445 1.392 . S
C1444 C1447 1.511 . S
C1445 C1441 1.376 . S
C1445 C1444 1.392 . S
C1445 H1457 0.929 . S
C1446 C1442 1.531 1_455 S
C1446 H1458 0.960 . S
C1446 H1459 0.962 . S
C1446 H1460 0.960 . S
C1447 C1444 1.511 . S
C1447 H1461 0.961 . S
C1447 H1462 0.961 . S
C1447 H1463 0.961 . S
C1448 C1449 1.370 . S
C1448 C1450 1.363 . S
C1448 H1464 0.931 . S
C1449 C1448 1.370 . S
C1449 C1453 1.408 . S
C1450 C1448 1.363 . S
C1450 C1451 1.370 . S
C1450 C1454 1.524 . S
C1451 C1443 1.503 1_455 S
C1451 C1450 1.370 . S
C1451 C1452 1.403 . S
C1452 C1451 1.403 . S
C1452 C1453 1.404 . S
C1452 C1455 1.539 1_455 S
C1453 C1449 1.408 . S
C1453 C1452 1.404 . S
C1453 H1465 0.930 . S
C1454 C1450 1.524 . S
C1454 H1466 0.956 . S
C1454 H1467 0.961 . S
C1454 H1468 0.961 . S
C1455 C1452 1.539 1_655 S
C1455 H1469 0.958 1_655 S
C1455 H1470 0.961 . S
C1455 H1471 0.960 . S
H1456 C1440 0.931 . S
H1457 C1445 0.929 . S
H1458 C1446 0.960 . S
H1459 C1446 0.962 . S
H1460 C1446 0.960 . S
H1461 C1447 0.961 . S
H1462 C1447 0.961 . S
H1463 C1447 0.961 . S
H1464 C1448 0.931 . S
H1465 C1453 0.930 . S
H1466 C1454 0.956 . S
H1467 C1454 0.961 . S
H1468 C1454 0.961 . S
H1469 C1455 0.958 1_455 S
H1470 C1455 0.961 . S
H1471 C1455 0.960 . S
C1472 C1473 1.391 . S
C1472 C1474 1.394 . S
C1472 H1488 0.931 . S
C1473 C1472 1.391 . S
C1473 C1477 1.376 . S
C1474 C1472 1.394 . S
C1474 C1475 1.369 . S
C1474 C1478 1.531 . S
C1475 C1474 1.369 . S
C1475 C1476 1.410 . S
C1475 C1483 1.503 . S
C1476 C1475 1.410 . S
C1476 C1477 1.392 . S
C1476 C1479 1.511 . S
C1477 C1473 1.376 . S
C1477 C1476 1.392 . S
C1477 H1489 0.929 . S
C1478 C1474 1.531 . S
C1478 H1490 0.960 . S
C1478 H1491 0.962 . S
C1478 H1492 0.960 . S
C1479 C1476 1.511 . S
C1479 H1493 0.961 1_556 S
C1479 H1494 0.961 . S
C1479 H1495 0.961 . S
C1480 C1481 1.370 . S
C1480 C1482 1.363 . S
C1480 H1496 0.931 . S
C1481 C1480 1.370 . S
C1481 C1485 1.408 . S
C1482 C1480 1.363 . S
C1482 C1483 1.370 . S
C1482 C1486 1.524 . S
C1483 C1475 1.503 . S
C1483 C1482 1.370 . S
C1483 C1484 1.403 . S
C1484 C1483 1.403 . S
C1484 C1485 1.404 . S
C1484 C1487 1.539 . S
C1485 C1481 1.408 . S
C1485 C1484 1.404 . S
C1485 H1497 0.930 . S
C1486 C1482 1.524 . S
C1486 H1498 0.956 . S
C1486 H1499 0.961 . S
C1486 H1500 0.972 . S
C1487 C1484 1.539 . S
C1487 H1501 0.958 . S
C1487 H1502 0.961 . S
C1487 H1503 0.960 . S
H1488 C1472 0.931 . S
H1489 C1477 0.929 . S
H1490 C1478 0.960 . S
H1491 C1478 0.962 . S
H1492 C1478 0.960 . S
H1493 C1479 0.961 1_554 S
H1494 C1479 0.961 . S
H1495 C1479 0.961 . S
H1496 C1480 0.931 . S
H1497 C1485 0.930 . S
H1498 C1486 0.956 . S
H1499 C1486 0.961 . S
H1500 C1486 0.972 . S
H1501 C1487 0.958 . S
H1502 C1487 0.961 . S
H1503 C1487 0.960 . S
C1504 C1505 1.391 . S
C1504 C1506 1.394 . S
C1504 H1520 0.931 . S
C1505 C1504 1.391 . S
C1505 C1509 1.376 . S
C1506 C1504 1.394 . S
C1506 C1507 1.369 . S
C1506 C1510 1.531 . S
C1507 C1506 1.369 . S
C1507 C1508 1.410 . S
C1507 C1515 1.503 . S
C1508 C1507 1.410 . S
C1508 C1509 1.392 . S
C1508 C1511 1.511 . S
C1509 C1505 1.376 . S
C1509 C1508 1.392 . S
C1509 H1521 0.929 . S
C1510 C1506 1.531 . S
C1510 H1522 0.960 . S
C1510 H1523 0.962 . S
C1510 H1524 0.960 . S
C1511 C1508 1.511 . S
C1511 H1525 0.961 . S
C1511 H1526 0.961 . S
C1511 H1527 0.961 . S
C1512 C1513 1.370 . S
C1512 C1514 1.363 . S
C1512 H1528 0.931 . S
C1513 C1512 1.370 . S
C1513 C1517 1.408 . S
C1514 C1512 1.363 . S
C1514 C1515 1.370 . S
C1514 C1518 1.524 . S
C1515 C1507 1.503 . S
C1515 C1514 1.370 . S
C1515 C1516 1.403 . S
C1516 C1515 1.403 . S
C1516 C1517 1.404 . S
C1516 C1519 1.539 . S
C1517 C1513 1.408 . S
C1517 C1516 1.404 . S
C1517 H1529 0.930 . S
C1518 C1514 1.524 . S
C1518 H1530 0.956 . S
C1518 H1531 0.961 . S
C1518 H1532 0.961 . S
C1519 C1516 1.539 . S
C1519 H1533 0.958 . S
C1519 H1534 0.961 . S
C1519 H1535 0.960 . S
H1520 C1504 0.931 . S
H1521 C1509 0.929 . S
H1522 C1510 0.960 . S
H1523 C1510 0.962 . S
H1524 C1510 0.960 . S
H1525 C1511 0.961 . S
H1526 C1511 0.961 . S
H1527 C1511 0.961 . S
H1528 C1512 0.931 . S
H1529 C1517 0.930 . S
H1530 C1518 0.956 . S
H1531 C1518 0.961 . S
H1532 C1518 0.961 . S
H1533 C1519 0.958 . S
H1534 C1519 0.961 . S
H1535 C1519 0.960 . S
C1536 C1537 1.391 . S
C1536 C1538 1.394 . S
C1536 H1552 0.931 . S
C1537 C1536 1.391 . S
C1537 C1541 1.376 . S
C1538 C1536 1.394 . S
C1538 C1539 1.369 . S
C1538 C1542 1.531 . S
C1539 C1538 1.369 . S
C1539 C1540 1.410 . S
C1539 C1547 1.503 1_655 S
C1540 C1539 1.410 . S
C1540 C1541 1.392 . S
C1540 C1543 1.528 . S
C1541 C1537 1.376 . S
C1541 C1540 1.392 . S
C1541 H1553 0.929 . S
C1542 C1538 1.531 . S
C1542 H1554 0.960 . S
C1542 H1555 0.962 . S
C1542 H1556 0.960 . S
C1543 C1540 1.528 . S
C1543 H1557 0.957 1_655 S
C1543 H1558 0.935 1_655 S
C1543 H1559 0.973 . S
C1544 C1545 1.370 . S
C1544 C1546 1.363 . S
C1544 H1560 0.931 . S
C1545 C1544 1.370 . S
C1545 C1549 1.408 . S
C1546 C1544 1.363 . S
C1546 C1547 1.370 . S
C1546 C1550 1.524 . S
C1547 C1539 1.503 1_455 S
C1547 C1546 1.370 . S
C1547 C1548 1.403 . S
C1548 C1547 1.403 . S
C1548 C1549 1.404 . S
C1548 C1551 1.539 1_455 S
C1549 C1545 1.408 . S
C1549 C1548 1.404 . S
C1549 H1561 0.930 . S
C1550 C1546 1.524 . S
C1550 H1562 0.956 . S
C1550 H1563 0.961 . S
C1550 H1564 0.961 . S
C1551 C1548 1.539 1_655 S
C1551 H1565 0.958 . S
C1551 H1566 0.961 . S
C1551 H1567 0.960 . S
H1552 C1536 0.931 . S
H1553 C1541 0.929 . S
H1554 C1542 0.960 . S
H1555 C1542 0.962 . S
H1556 C1542 0.960 . S
H1557 C1543 0.957 1_455 S
H1558 C1543 0.935 1_455 S
H1559 C1543 0.973 . S
H1560 C1544 0.931 . S
H1561 C1549 0.930 . S
H1562 C1550 0.956 . S
H1563 C1550 0.961 . S
H1564 C1550 0.961 . S
H1565 C1551 0.958 . S
H1566 C1551 0.961 . S
H1567 C1551 0.960 . S
C1568 C1569 1.391 . S
C1568 C1570 1.394 . S
C1568 H1584 0.931 . S
C1569 C1568 1.391 . S
C1569 C1573 1.376 . S
C1570 C1568 1.394 . S
C1570 C1571 1.369 . S
C1570 C1574 1.531 . S
C1571 C1570 1.369 . S
C1571 C1572 1.410 . S
C1571 C1579 1.503 1_455 S
C1572 C1571 1.410 . S
C1572 C1573 1.392 . S
C1572 C1575 1.511 . S
C1573 C1569 1.376 . S
C1573 C1572 1.392 . S
C1573 H1585 0.929 . S
C1574 C1570 1.531 . S
C1574 H1586 0.960 . S
C1574 H1587 0.958 . S
C1574 H1588 0.960 . S
C1575 C1572 1.511 . S
C1575 H1589 0.961 . S
C1575 H1590 0.961 1_455 S
C1575 H1591 0.961 . S
C1576 C1577 1.370 . S
C1576 C1578 1.363 . S
C1576 H1592 0.931 . S
C1577 C1576 1.370 . S
C1577 C1581 1.408 . S
C1578 C1576 1.363 . S
C1578 C1579 1.370 . S
C1578 C1582 1.524 . S
C1579 C1571 1.503 1_655 S
C1579 C1578 1.370 . S
C1579 C1580 1.403 . S
C1580 C1579 1.403 . S
C1580 C1581 1.404 . S
C1580 C1583 1.539 1_655 S
C1581 C1577 1.408 . S
C1581 C1580 1.404 . S
C1581 H1593 0.930 . S
C1582 C1578 1.524 . S
C1582 H1594 0.956 . S
C1582 H1595 0.961 . S
C1582 H1596 0.961 . S
C1583 C1580 1.539 1_455 S
C1583 H1597 0.958 . S
C1583 H1598 0.961 . S
C1583 H1599 0.960 . S
H1584 C1568 0.931 . S
H1585 C1573 0.929 . S
H1586 C1574 0.960 . S
H1587 C1574 0.958 . S
H1588 C1574 0.960 . S
H1589 C1575 0.961 . S
H1590 C1575 0.961 1_655 S
H1591 C1575 0.961 . S
H1592 C1576 0.931 . S
H1593 C1581 0.930 . S
H1594 C1582 0.956 . S
H1595 C1582 0.961 . S
H1596 C1582 0.961 . S
H1597 C1583 0.958 . S
H1598 C1583 0.961 . S
H1599 C1583 0.960 . S
C1600 C1601 1.391 . S
C1600 C1602 1.394 . S
C1600 H1616 0.931 . S
C1601 C1600 1.391 . S
C1601 C1605 1.376 . S
C1602 C1600 1.394 . S
C1602 C1603 1.369 . S
C1602 C1606 1.531 . S
C1603 C1602 1.369 . S
C1603 C1604 1.410 . S
C1603 C1611 1.503 . S
C1604 C1603 1.410 . S
C1604 C1605 1.392 . S
C1604 C1607 1.511 . S
C1605 C1601 1.376 . S
C1605 C1604 1.392 . S
C1605 H1617 0.929 . S
C1606 C1602 1.531 . S
C1606 H1618 0.960 . S
C1606 H1619 0.962 . S
C1606 H1620 0.960 . S
C1607 C1604 1.511 . S
C1607 H1621 0.961 . S
C1607 H1622 0.961 . S
C1607 H1623 0.961 . S
C1608 C1609 1.370 . S
C1608 C1610 1.363 . S
C1608 H1624 0.931 . S
C1609 C1608 1.370 . S
C1609 C1613 1.408 . S
C1610 C1608 1.363 . S
C1610 C1611 1.370 . S
C1610 C1614 1.524 . S
C1611 C1603 1.503 . S
C1611 C1610 1.370 . S
C1611 C1612 1.403 . S
C1612 C1611 1.403 . S
C1612 C1613 1.404 . S
C1612 C1615 1.539 . S
C1613 C1609 1.408 . S
C1613 C1612 1.404 . S
C1613 H1625 0.930 . S
C1614 C1610 1.524 . S
C1614 H1626 0.956 . S
C1614 H1627 0.961 . S
C1614 H1628 0.961 . S
C1615 C1612 1.539 . S
C1615 H1629 0.958 . S
C1615 H1630 0.961 . S
C1615 H1631 0.960 . S
H1616 C1600 0.931 . S
H1617 C1605 0.929 . S
H1618 C1606 0.960 . S
H1619 C1606 0.962 . S
H1620 C1606 0.960 . S
H1621 C1607 0.961 . S
H1622 C1607 0.961 . S
H1623 C1607 0.961 . S
H1624 C1608 0.931 . S
H1625 C1613 0.930 . S
H1626 C1614 0.956 . S
H1627 C1614 0.961 . S
H1628 C1614 0.961 . S
H1629 C1615 0.958 . S
H1630 C1615 0.961 . S
H1631 C1615 0.960 . S
C1632 C1633 1.391 . S
C1632 C1634 1.394 . S
C1632 H1648 0.931 . S
C1633 C1632 1.391 . S
C1633 C1637 1.376 . S
C1634 C1632 1.394 . S
C1634 C1635 1.369 . S
C1634 C1638 1.531 . S
C1635 C1634 1.369 . S
C1635 C1636 1.410 . S
C1635 C1643 1.503 . S
C1636 C1635 1.410 . S
C1636 C1637 1.392 . S
C1636 C1639 1.511 . S
C1637 C1633 1.376 . S
C1637 C1636 1.392 . S
C1637 H1649 0.929 . S
C1638 C1634 1.531 . S
C1638 H1650 0.960 . S
C1638 H1651 0.962 . S
C1638 H1652 0.960 . S
C1639 C1636 1.511 . S
C1639 H1653 0.961 . S
C1639 H1654 0.961 . S
C1639 H1655 0.961 . S
C1640 C1641 1.370 . S
C1640 C1642 1.363 . S
C1640 H1656 0.931 . S
C1641 C1640 1.370 . S
C1641 C1645 1.408 . S
C1642 C1640 1.363 . S
C1642 C1643 1.370 . S
C1642 C1646 1.524 . S
C1643 C1635 1.503 . S
C1643 C1642 1.370 . S
C1643 C1644 1.403 . S
C1644 C1643 1.403 . S
C1644 C1645 1.404 . S
C1644 C1647 1.539 . S
C1645 C1641 1.408 . S
C1645 C1644 1.404 . S
C1645 H1657 0.930 . S
C1646 C1642 1.524 . S
C1646 H1658 0.956 . S
C1646 H1659 0.961 . S
C1646 H1660 0.961 . S
C1647 C1644 1.539 . S
C1647 H1661 0.958 . S
C1647 H1662 0.961 . S
C1647 H1663 0.960 . S
H1648 C1632 0.931 . S
H1649 C1637 0.929 . S
H1650 C1638 0.960 . S
H1651 C1638 0.962 . S
H1652 C1638 0.960 . S
H1653 C1639 0.961 . S
H1654 C1639 0.961 . S
H1655 C1639 0.961 . S
H1656 C1640 0.931 . S
H1657 C1645 0.930 . S
H1658 C1646 0.956 . S
H1659 C1646 0.961 . S
H1660 C1646 0.961 . S
H1661 C1647 0.958 . S
H1662 C1647 0.961 . S
H1663 C1647 0.960 . S
C1664 C1665 1.391 . S
C1664 C1666 1.394 . S
C1664 H1680 0.931 . S
C1665 C1664 1.391 . S
C1665 C1669 1.376 . S
C1666 C1664 1.394 . S
C1666 C1667 1.369 . S
C1666 C1670 1.531 . S
C1667 C1666 1.369 . S
C1667 C1668 1.410 . S
C1667 C1675 1.503 . S
C1668 C1667 1.410 . S
C1668 C1669 1.392 . S
C1668 C1671 1.511 . S
C1669 C1665 1.376 . S
C1669 C1668 1.392 . S
C1669 H1681 0.929 . S
C1670 C1666 1.531 . S
C1670 H1682 0.960 . S
C1670 H1683 0.962 . S
C1670 H1684 0.960 . S
C1671 C1668 1.511 . S
C1671 H1685 0.961 . S
C1671 H1686 0.961 . S
C1671 H1687 0.961 . S
C1672 C1673 1.370 . S
C1672 C1674 1.363 . S
C1672 H1688 0.931 . S
C1673 C1672 1.370 . S
C1673 C1677 1.408 . S
C1674 C1672 1.363 . S
C1674 C1675 1.370 . S
C1674 C1678 1.524 . S
C1675 C1667 1.503 . S
C1675 C1674 1.370 . S
C1675 C1676 1.403 . S
C1676 C1675 1.403 . S
C1676 C1677 1.404 . S
C1676 C1679 1.539 . S
C1677 C1673 1.408 . S
C1677 C1676 1.404 . S
C1677 H1689 0.930 . S
C1678 C1674 1.524 . S
C1678 H1690 0.956 . S
C1678 H1691 0.961 . S
C1678 H1692 0.961 . S
C1679 C1676 1.539 . S
C1679 H1693 0.958 . S
C1679 H1694 0.961 . S
C1679 H1695 0.960 . S
H1680 C1664 0.931 . S
H1681 C1669 0.929 . S
H1682 C1670 0.960 . S
H1683 C1670 0.962 . S
H1684 C1670 0.960 . S
H1685 C1671 0.961 . S
H1686 C1671 0.961 . S
H1687 C1671 0.961 . S
H1688 C1672 0.931 . S
H1689 C1677 0.930 . S
H1690 C1678 0.956 . S
H1691 C1678 0.961 . S
H1692 C1678 0.961 . S
H1693 C1679 0.958 . S
H1694 C1679 0.961 . S
H1695 C1679 0.960 . S
C1696 C1697 1.391 . S
C1696 C1698 1.394 . S
C1696 H1712 0.931 . S
C1697 C1696 1.391 . S
C1697 C1701 1.376 . S
C1698 C1696 1.394 . S
C1698 C1699 1.369 . S
C1698 C1702 1.531 . S
C1699 C1698 1.369 . S
C1699 C1700 1.410 . S
C1699 C1707 1.503 . S
C1700 C1699 1.410 . S
C1700 C1701 1.392 . S
C1700 C1703 1.511 . S
C1701 C1697 1.376 . S
C1701 C1700 1.392 . S
C1701 H1713 0.929 . S
C1702 C1698 1.531 . S
C1702 H1714 0.960 . S
C1702 H1715 0.962 . S
C1702 H1716 0.960 . S
C1703 C1700 1.511 . S
C1703 H1717 0.961 . S
C1703 H1718 0.961 . S
C1703 H1719 0.961 . S
C1704 C1705 1.370 . S
C1704 C1706 1.363 . S
C1704 H1720 0.931 . S
C1705 C1704 1.370 . S
C1705 C1709 1.408 . S
C1706 C1704 1.363 . S
C1706 C1707 1.370 . S
C1706 C1710 1.524 . S
C1707 C1699 1.503 . S
C1707 C1706 1.370 . S
C1707 C1708 1.403 . S
C1708 C1707 1.403 . S
C1708 C1709 1.404 . S
C1708 C1711 1.539 . S
C1709 C1705 1.408 . S
C1709 C1708 1.404 . S
C1709 H1721 0.930 . S
C1710 C1706 1.524 . S
C1710 H1722 0.956 . S
C1710 H1723 0.961 . S
C1710 H1724 0.961 . S
C1711 C1708 1.539 . S
C1711 H1725 0.958 . S
C1711 H1726 0.961 . S
C1711 H1727 0.960 . S
H1712 C1696 0.931 . S
H1713 C1701 0.929 . S
H1714 C1702 0.960 . S
H1715 C1702 0.962 . S
H1716 C1702 0.960 . S
H1717 C1703 0.961 . S
H1718 C1703 0.961 . S
H1719 C1703 0.961 . S
H1720 C1704 0.931 . S
H1721 C1709 0.930 . S
H1722 C1710 0.956 . S
H1723 C1710 0.961 . S
H1724 C1710 0.961 . S
H1725 C1711 0.958 . S
H1726 C1711 0.961 . S
H1727 C1711 0.960 . S
C1728 C1729 1.391 1_556 S
C1728 C1730 1.394 1_556 S
C1728 H1744 0.931 . S
C1729 C1728 1.391 1_554 S
C1729 C1733 1.376 . S
C1730 C1728 1.394 1_554 S
C1730 C1731 1.369 . S
C1730 C1734 1.531 . S
C1731 C1730 1.369 . S
C1731 C1732 1.410 . S
C1731 C1739 1.503 . S
C1732 C1731 1.410 . S
C1732 C1733 1.392 . S
C1732 C1735 1.511 . S
C1733 C1729 1.376 . S
C1733 C1732 1.392 . S
C1733 H1745 0.929 . S
C1734 C1730 1.531 . S
C1734 H1746 0.960 . S
C1734 H1747 0.962 . S
C1734 H1748 0.960 1_554 S
C1735 C1732 1.511 . S
C1735 H1749 0.961 . S
C1735 H1750 0.961 . S
C1735 H1751 0.961 . S
C1736 C1737 1.370 . S
C1736 C1738 1.363 . S
C1736 H1752 0.931 . S
C1737 C1736 1.370 . S
C1737 C1741 1.408 . S
C1738 C1736 1.363 . S
C1738 C1739 1.370 . S
C1738 C1742 1.524 . S
C1739 C1731 1.503 . S
C1739 C1738 1.370 . S
C1739 C1740 1.403 . S
C1740 C1739 1.403 . S
C1740 C1741 1.404 . S
C1740 C1743 1.539 . S
C1741 C1737 1.408 . S
C1741 C1740 1.404 . S
C1741 H1753 0.930 . S
C1742 C1738 1.524 . S
C1742 H1754 0.956 . S
C1742 H1755 0.961 . S
C1742 H1756 0.961 . S
C1743 C1740 1.539 . S
C1743 H1757 0.958 . S
C1743 H1758 0.961 . S
C1743 H1759 0.960 . S
H1744 C1728 0.931 . S
H1745 C1733 0.929 . S
H1746 C1734 0.960 . S
H1747 C1734 0.962 . S
H1748 C1734 0.960 1_556 S
H1749 C1735 0.961 . S
H1750 C1735 0.961 . S
H1751 C1735 0.961 . S
H1752 C1736 0.931 . S
H1753 C1741 0.930 . S
H1754 C1742 0.956 . S
H1755 C1742 0.961 . S
H1756 C1742 0.961 . S
H1757 C1743 0.958 . S
H1758 C1743 0.961 . S
H1759 C1743 0.960 . S
C1760 C1761 1.391 . S
C1760 C1762 1.394 . S
C1760 H1776 0.931 . S
C1761 C1760 1.391 . S
C1761 C1765 1.376 . S
C1762 C1760 1.394 . S
C1762 C1763 1.369 . S
C1762 C1766 1.531 . S
C1763 C1762 1.369 . S
C1763 C1764 1.410 . S
C1763 C1771 1.503 . S
C1764 C1763 1.410 . S
C1764 C1765 1.392 . S
C1764 C1767 1.511 . S
C1765 C1761 1.376 . S
C1765 C1764 1.392 . S
C1765 H1777 0.929 . S
C1766 C1762 1.531 . S
C1766 H1778 0.960 . S
C1766 H1779 0.962 . S
C1766 H1780 0.960 . S
C1767 C1764 1.511 . S
C1767 H1781 0.961 . S
C1767 H1782 0.961 . S
C1767 H1783 0.961 . S
C1768 C1769 1.370 . S
C1768 C1770 1.363 . S
C1768 H1784 0.931 . S
C1769 C1768 1.370 . S
C1769 C1773 1.408 . S
C1770 C1768 1.363 . S
C1770 C1771 1.370 . S
C1770 C1774 1.524 . S
C1771 C1763 1.503 . S
C1771 C1770 1.370 . S
C1771 C1772 1.403 . S
C1772 C1771 1.403 . S
C1772 C1773 1.404 . S
C1772 C1775 1.539 . S
C1773 C1769 1.408 . S
C1773 C1772 1.404 . S
C1773 H1785 0.930 . S
C1774 C1770 1.524 . S
C1774 H1786 0.956 . S
C1774 H1787 0.961 . S
C1774 H1788 0.961 . S
C1775 C1772 1.539 . S
C1775 H1789 0.958 . S
C1775 H1790 0.961 . S
C1775 H1791 0.960 . S
H1776 C1760 0.931 . S
H1777 C1765 0.929 . S
H1778 C1766 0.960 . S
H1779 C1766 0.962 . S
H1780 C1766 0.960 . S
H1781 C1767 0.961 . S
H1782 C1767 0.961 . S
H1783 C1767 0.961 . S
H1784 C1768 0.931 . S
H1785 C1773 0.930 . S
H1786 C1774 0.956 . S
H1787 C1774 0.961 . S
H1788 C1774 0.961 . S
H1789 C1775 0.958 . S
H1790 C1775 0.961 . S
H1791 C1775 0.960 . S
C1792 C1793 1.391 . S
C1792 C1794 1.394 . S
C1792 H1808 0.931 . S
C1793 C1792 1.391 . S
C1793 C1797 1.376 . S
C1794 C1792 1.394 . S
C1794 C1795 1.369 . S
C1794 C1798 1.531 . S
C1795 C1794 1.369 . S
C1795 C1796 1.410 . S
C1795 C1803 1.503 . S
C1796 C1795 1.410 . S
C1796 C1797 1.392 . S
C1796 C1799 1.511 . S
C1797 C1793 1.376 . S
C1797 C1796 1.392 . S
C1797 H1809 0.929 . S
C1798 C1794 1.531 . S
C1798 H1810 0.960 . S
C1798 H1811 0.962 . S
C1798 H1812 0.960 . S
C1799 C1796 1.511 . S
C1799 H1813 0.961 . S
C1799 H1814 0.961 . S
C1799 H1815 0.961 . S
C1800 C1801 1.370 . S
C1800 C1802 1.363 . S
C1800 H1816 0.931 . S
C1801 C1800 1.370 . S
C1801 C1805 1.408 . S
C1802 C1800 1.363 . S
C1802 C1803 1.370 . S
C1802 C1806 1.524 . S
C1803 C1795 1.503 . S
C1803 C1802 1.370 . S
C1803 C1804 1.403 . S
C1804 C1803 1.403 . S
C1804 C1805 1.404 . S
C1804 C1807 1.539 . S
C1805 C1801 1.408 . S
C1805 C1804 1.404 . S
C1805 H1817 0.930 . S
C1806 C1802 1.524 . S
C1806 H1818 0.956 . S
C1806 H1819 0.961 . S
C1806 H1820 0.961 . S
C1807 C1804 1.539 . S
C1807 H1821 0.958 . S
C1807 H1822 0.961 . S
C1807 H1823 0.960 . S
H1808 C1792 0.931 . S
H1809 C1797 0.929 . S
H1810 C1798 0.960 . S
H1811 C1798 0.962 . S
H1812 C1798 0.960 . S
H1813 C1799 0.961 . S
H1814 C1799 0.961 . S
H1815 C1799 0.961 . S
H1816 C1800 0.931 . S
H1817 C1805 0.930 . S
H1818 C1806 0.956 . S
H1819 C1806 0.961 . S
H1820 C1806 0.961 . S
H1821 C1807 0.958 . S
H1822 C1807 0.961 . S
H1823 C1807 0.960 . S
C1824 C1825 1.391 . S
C1824 C1826 1.394 . S
C1824 H1840 0.931 . S
C1825 C1824 1.391 . S
C1825 C1829 1.376 . S
C1826 C1824 1.394 . S
C1826 C1827 1.369 . S
C1826 C1830 1.531 . S
C1827 C1826 1.369 . S
C1827 C1828 1.410 . S
C1827 C1835 1.503 . S
C1828 C1827 1.410 . S
C1828 C1829 1.392 . S
C1828 C1831 1.511 . S
C1829 C1825 1.376 . S
C1829 C1828 1.392 . S
C1829 H1841 0.929 . S
C1830 C1826 1.531 . S
C1830 H1842 0.960 . S
C1830 H1843 0.962 . S
C1830 H1844 0.960 . S
C1831 C1828 1.511 . S
C1831 H1845 0.961 . S
C1831 H1846 0.961 . S
C1831 H1847 0.961 . S
C1832 C1833 1.370 . S
C1832 C1834 1.363 . S
C1832 H1848 0.931 . S
C1833 C1832 1.370 . S
C1833 C1837 1.408 . S
C1834 C1832 1.363 . S
C1834 C1835 1.370 . S
C1834 C1838 1.524 . S
C1835 C1827 1.503 . S
C1835 C1834 1.370 . S
C1835 C1836 1.403 . S
C1836 C1835 1.403 . S
C1836 C1837 1.404 . S
C1836 C1839 1.539 . S
C1837 C1833 1.408 . S
C1837 C1836 1.404 . S
C1837 H1849 0.930 . S
C1838 C1834 1.524 . S
C1838 H1850 0.956 . S
C1838 H1851 0.961 . S
C1838 H1852 0.961 . S
C1839 C1836 1.539 . S
C1839 H1853 0.958 . S
C1839 H1854 0.961 . S
C1839 H1855 0.960 . S
H1840 C1824 0.931 . S
H1841 C1829 0.929 . S
H1842 C1830 0.960 . S
H1843 C1830 0.962 . S
H1844 C1830 0.960 . S
H1845 C1831 0.961 . S
H1846 C1831 0.961 . S
H1847 C1831 0.961 . S
H1848 C1832 0.931 . S
H1849 C1837 0.930 . S
H1850 C1838 0.956 . S
H1851 C1838 0.961 . S
H1852 C1838 0.961 . S
H1853 C1839 0.958 . S
H1854 C1839 0.961 . S
H1855 C1839 0.960 . S
C1856 C1857 1.391 . S
C1856 C1858 1.394 . S
C1856 H1872 0.931 . S
C1857 C1856 1.391 . S
C1857 C1861 1.376 . S
C1858 C1856 1.394 . S
C1858 C1859 1.369 . S
C1858 C1862 1.531 . S
C1859 C1858 1.369 . S
C1859 C1860 1.410 . S
C1859 C1867 1.503 . S
C1860 C1859 1.410 . S
C1860 C1861 1.392 . S
C1860 C1863 1.511 . S
C1861 C1857 1.376 . S
C1861 C1860 1.392 . S
C1861 H1873 0.929 . S
C1862 C1858 1.531 . S
C1862 H1874 0.960 . S
C1862 H1875 0.962 . S
C1862 H1876 0.960 . S
C1863 C1860 1.511 . S
C1863 H1877 0.961 . S
C1863 H1878 0.961 . S
C1863 H1879 0.961 . S
C1864 C1865 1.370 . S
C1864 C1866 1.363 . S
C1864 H1880 0.931 . S
C1865 C1864 1.370 . S
C1865 C1869 1.408 . S
C1866 C1864 1.363 . S
C1866 C1867 1.370 . S
C1866 C1870 1.524 . S
C1867 C1859 1.503 . S
C1867 C1866 1.370 . S
C1867 C1868 1.403 . S
C1868 C1867 1.403 . S
C1868 C1869 1.404 . S
C1868 C1871 1.539 . S
C1869 C1865 1.408 . S
C1869 C1868 1.404 . S
C1869 H1881 0.930 . S
C1870 C1866 1.524 . S
C1870 H1882 0.956 . S
C1870 H1883 0.961 . S
C1870 H1884 0.961 . S
C1871 C1868 1.539 . S
C1871 H1885 0.958 . S
C1871 H1886 0.961 . S
C1871 H1887 0.960 . S
H1872 C1856 0.931 . S
H1873 C1861 0.929 . S
H1874 C1862 0.960 . S
H1875 C1862 0.962 . S
H1876 C1862 0.960 . S
H1877 C1863 0.961 . S
H1878 C1863 0.961 . S
H1879 C1863 0.961 . S
H1880 C1864 0.931 . S
H1881 C1869 0.930 . S
H1882 C1870 0.956 . S
H1883 C1870 0.961 . S
H1884 C1870 0.961 . S
H1885 C1871 0.958 . S
H1886 C1871 0.961 . S
H1887 C1871 0.960 . S
C1888 C1889 1.391 . S
C1888 C1890 1.394 1_545 S
C1888 H1904 0.931 . S
C1889 C1888 1.391 . S
C1889 C1893 1.376 . S
C1890 C1888 1.394 1_565 S
C1890 C1891 1.369 . S
C1890 C1894 1.531 . S
C1891 C1890 1.369 . S
C1891 C1892 1.389 1_565 S
C1891 C1899 1.503 . S
C1892 C1891 1.389 1_545 S
C1892 C1893 1.420 . S
C1892 C1895 1.506 1_545 S
C1893 C1889 1.376 . S
C1893 C1892 1.420 . S
C1893 H1905 0.929 . S
C1894 C1890 1.531 . S
C1894 H1906 0.960 . S
C1894 H1907 0.962 . S
C1894 H1908 0.960 . S
C1895 C1892 1.506 1_565 S
C1895 H1909 0.961 1_565 S
C1895 H1910 0.961 . S
C1895 H1911 0.961 . S
C1896 C1897 1.370 . S
C1896 C1898 1.363 . S
C1896 H1912 0.931 . S
C1897 C1896 1.370 . S
C1897 C1901 1.408 . S
C1898 C1896 1.363 . S
C1898 C1899 1.370 . S
C1898 C1902 1.524 . S
C1899 C1891 1.503 . S
C1899 C1898 1.370 . S
C1899 C1900 1.403 . S
C1900 C1899 1.403 . S
C1900 C1901 1.404 . S
C1900 C1903 1.539 . S
C1901 C1897 1.408 . S
C1901 C1900 1.404 . S
C1901 H1913 0.930 . S
C1902 C1898 1.524 . S
C1902 H1914 0.956 . S
C1902 H1915 0.961 1_565 S
C1902 H1916 0.961 . S
C1903 C1900 1.539 . S
C1903 H1917 0.958 . S
C1903 H1918 0.961 . S
C1903 H1919 0.960 . S
H1904 C1888 0.931 . S
H1905 C1893 0.929 . S
H1906 C1894 0.960 . S
H1907 C1894 0.962 . S
H1908 C1894 0.960 . S
H1909 C1895 0.961 1_545 S
H1910 C1895 0.961 . S
H1911 C1895 0.961 . S
H1912 C1896 0.931 . S
H1913 C1901 0.930 . S
H1914 C1902 0.956 . S
H1915 C1902 0.961 1_545 S
H1916 C1902 0.961 . S
H1917 C1903 0.958 . S
H1918 C1903 0.961 . S
H1919 C1903 0.960 . S
C1920 C1921 1.391 . S
C1920 C1922 1.394 . S
C1920 H1936 0.931 . S
C1921 C1920 1.391 . S
C1921 C1925 1.376 1_556 S
C1922 C1920 1.394 . S
C1922 C1923 1.369 . S
C1922 C1926 1.531 . S
C1923 C1922 1.369 . S
C1923 C1924 1.410 . S
C1923 C1931 1.503 . S
C1924 C1923 1.410 . S
C1924 C1925 1.392 1_556 S
C1924 C1927 1.511 . S
C1925 C1921 1.376 1_554 S
C1925 C1924 1.392 1_554 S
C1925 H1937 0.929 . S
C1926 C1922 1.531 . S
C1926 H1938 0.960 . S
C1926 H1939 0.962 . S
C1926 H1940 0.960 . S
C1927 C1924 1.511 . S
C1927 H1941 0.961 1_556 S
C1927 H1942 0.961 . S
C1927 H1943 0.961 1_556 S
C1928 C1929 1.370 . S
C1928 C1930 1.363 . S
C1928 H1944 0.931 . S
C1929 C1928 1.370 . S
C1929 C1933 1.408 . S
C1930 C1928 1.363 . S
C1930 C1931 1.370 . S
C1930 C1934 1.524 . S
C1931 C1923 1.503 . S
C1931 C1930 1.370 . S
C1931 C1932 1.403 . S
C1932 C1931 1.403 . S
C1932 C1933 1.404 . S
C1932 C1935 1.539 . S
C1933 C1929 1.408 . S
C1933 C1932 1.404 . S
C1933 H1945 0.930 . S
C1934 C1930 1.524 . S
C1934 H1946 0.956 . S
C1934 H1947 0.961 . S
C1934 H1948 0.961 . S
C1935 C1932 1.539 . S
C1935 H1949 0.958 . S
C1935 H1950 0.961 . S
C1935 H1951 0.960 . S
H1936 C1920 0.931 . S
H1937 C1925 0.929 . S
H1938 C1926 0.960 . S
H1939 C1926 0.962 . S
H1940 C1926 0.960 . S
H1941 C1927 0.961 1_554 S
H1942 C1927 0.961 . S
H1943 C1927 0.961 1_554 S
H1944 C1928 0.931 . S
H1945 C1933 0.930 . S
H1946 C1934 0.956 . S
H1947 C1934 0.961 . S
H1948 C1934 0.961 . S
H1949 C1935 0.958 . S
H1950 C1935 0.961 . S
H1951 C1935 0.960 . S
C1952 C1953 1.391 . S
C1952 C1954 1.394 1_565 S
C1952 H1968 0.931 . S
C1953 C1952 1.391 . S
C1953 C1957 1.376 . S
C1954 C1952 1.394 1_545 S
C1954 C1955 1.369 . S
C1954 C1958 1.531 . S
C1955 C1954 1.369 . S
C1955 C1956 1.410 1_545 S
C1955 C1963 1.503 . S
C1956 C1955 1.410 1_565 S
C1956 C1957 1.392 . S
C1956 C1959 1.511 . S
C1957 C1953 1.376 . S
C1957 C1956 1.392 . S
C1957 H1969 0.929 . S
C1958 C1954 1.531 . S
C1958 H1970 0.960 . S
C1958 H1971 0.962 . S
C1958 H1972 0.960 . S
C1959 C1956 1.511 . S
C1959 H1973 0.961 . S
C1959 H1974 0.961 1_565 S
C1959 H1975 0.961 . S
C1960 C1961 1.370 . S
C1960 C1962 1.363 . S
C1960 H1976 0.931 . S
C1961 C1960 1.370 . S
C1961 C1965 1.408 . S
C1962 C1960 1.363 . S
C1962 C1963 1.370 . S
C1962 C1966 1.524 . S
C1963 C1955 1.503 . S
C1963 C1962 1.370 . S
C1963 C1964 1.403 . S
C1964 C1963 1.403 . S
C1964 C1965 1.404 . S
C1964 C1967 1.539 . S
C1965 C1961 1.408 . S
C1965 C1964 1.404 . S
C1965 H1977 0.930 . S
C1966 C1962 1.524 . S
C1966 H1978 0.956 . S
C1966 H1979 0.961 . S
C1966 H1980 0.961 . S
C1967 C1964 1.539 . S
C1967 H1981 0.958 . S
C1967 H1982 0.961 . S
C1967 H1983 0.977 . S
H1968 C1952 0.931 . S
H1969 C1957 0.929 . S
H1970 C1958 0.960 . S
H1971 C1958 0.962 . S
H1972 C1958 0.960 . S
H1973 C1959 0.961 . S
H1974 C1959 0.961 1_545 S
H1975 C1959 0.961 . S
H1976 C1960 0.931 . S
H1977 C1965 0.930 . S
H1978 C1966 0.956 . S
H1979 C1966 0.961 . S
H1980 C1966 0.961 . S
H1981 C1967 0.958 . S
H1982 C1967 0.961 . S
H1983 C1967 0.977 . S
C1984 C1985 1.391 . S
C1984 C1986 1.394 . S
C1984 H2000 0.931 . S
C1985 C1984 1.391 . S
C1985 C1989 1.376 . S
C1986 C1984 1.394 . S
C1986 C1987 1.369 . S
C1986 C1990 1.531 . S
C1987 C1986 1.369 . S
C1987 C1988 1.410 . S
C1987 C1995 1.503 . S
C1988 C1987 1.410 . S
C1988 C1989 1.392 . S
C1988 C1991 1.511 . S
C1989 C1985 1.376 . S
C1989 C1988 1.392 . S
C1989 H2001 0.929 . S
C1990 C1986 1.531 . S
C1990 H2002 0.960 . S
C1990 H2003 0.962 . S
C1990 H2004 0.960 . S
C1991 C1988 1.511 . S
C1991 H2005 0.961 . S
C1991 H2006 0.961 . S
C1991 H2007 0.961 . S
C1992 C1993 1.370 . S
C1992 C1994 1.363 . S
C1992 H2008 0.931 . S
C1993 C1992 1.370 . S
C1993 C1997 1.408 . S
C1994 C1992 1.363 . S
C1994 C1995 1.370 . S
C1994 C1998 1.524 . S
C1995 C1987 1.503 . S
C1995 C1994 1.370 . S
C1995 C1996 1.403 . S
C1996 C1995 1.403 . S
C1996 C1997 1.404 . S
C1996 C1999 1.539 . S
C1997 C1993 1.408 . S
C1997 C1996 1.404 . S
C1997 H2009 0.930 . S
C1998 C1994 1.524 . S
C1998 H2010 0.956 . S
C1998 H2011 0.961 . S
C1998 H2012 0.961 . S
C1999 C1996 1.539 . S
C1999 H2013 0.958 . S
C1999 H2014 0.961 . S
C1999 H2015 0.960 . S
H2000 C1984 0.931 . S
H2001 C1989 0.929 . S
H2002 C1990 0.960 . S
H2003 C1990 0.962 . S
H2004 C1990 0.960 . S
H2005 C1991 0.961 . S
H2006 C1991 0.961 . S
H2007 C1991 0.961 . S
H2008 C1992 0.931 . S
H2009 C1997 0.930 . S
H2010 C1998 0.956 . S
H2011 C1998 0.961 . S
H2012 C1998 0.961 . S
H2013 C1999 0.958 . S
H2014 C1999 0.961 . S
H2015 C1999 0.960 . S
C2016 C2017 1.391 . S
C2016 C2018 1.394 . S
C2016 H2032 0.931 . S
C2017 C2016 1.391 . S
C2017 C2021 1.376 . S
C2018 C2016 1.394 . S
C2018 C2019 1.369 . S
C2018 C2022 1.531 . S
C2019 C2018 1.369 . S
C2019 C2020 1.410 . S
C2019 C2027 1.503 . S
C2020 C2019 1.410 . S
C2020 C2021 1.392 . S
C2020 C2023 1.511 . S
C2021 C2017 1.376 . S
C2021 C2020 1.392 . S
C2021 H2033 0.929 . S
C2022 C2018 1.531 . S
C2022 H2034 0.960 . S
C2022 H2035 0.962 . S
C2022 H2036 0.960 . S
C2023 C2020 1.511 . S
C2023 H2037 0.961 . S
C2023 H2038 0.961 . S
C2023 H2039 0.961 . S
C2024 C2025 1.370 . S
C2024 C2026 1.363 1_565 S
C2024 H2040 0.931 . S
C2025 C2024 1.370 . S
C2025 C2029 1.408 . S
C2026 C2024 1.363 1_545 S
C2026 C2027 1.370 . S
C2026 C2030 1.524 . S
C2027 C2019 1.503 . S
C2027 C2026 1.370 . S
C2027 C2028 1.403 1_545 S
C2028 C2027 1.403 1_565 S
C2028 C2029 1.404 . S
C2028 C2031 1.539 . S
C2029 C2025 1.408 . S
C2029 C2028 1.404 . S
C2029 H2041 0.930 . S
C2030 C2026 1.524 . S
C2030 H2042 0.956 . S
C2030 H2043 0.961 . S
C2030 H2044 0.961 . S
C2031 C2028 1.539 . S
C2031 H2045 0.958 . S
C2031 H2046 0.961 . S
C2031 H2047 0.960 . S
H2032 C2016 0.931 . S
H2033 C2021 0.929 . S
H2034 C2022 0.960 . S
H2035 C2022 0.962 . S
H2036 C2022 0.960 . S
H2037 C2023 0.961 . S
H2038 C2023 0.961 . S
H2039 C2023 0.961 . S
H2040 C2024 0.931 . S
H2041 C2029 0.930 . S
H2042 C2030 0.956 . S
H2043 C2030 0.961 . S
H2044 C2030 0.961 . S
H2045 C2031 0.958 . S
H2046 C2031 0.961 . S
H2047 C2031 0.960 . S
C2048 C2049 1.391 . S
C2048 C2050 1.394 . S
C2048 H2064 0.931 . S
C2049 C2048 1.391 . S
C2049 C2053 1.376 . S
C2050 C2048 1.394 . S
C2050 C2051 1.369 . S
C2050 C2054 1.531 . S
C2051 C2050 1.369 . S
C2051 C2052 1.410 . S
C2051 C2059 1.503 . S
C2052 C2051 1.410 . S
C2052 C2053 1.392 . S
C2052 C2055 1.511 . S
C2053 C2049 1.376 . S
C2053 C2052 1.392 . S
C2053 H2065 0.929 . S
C2054 C2050 1.531 . S
C2054 H2066 0.960 . S
C2054 H2067 0.962 . S
C2054 H2068 0.960 . S
C2055 C2052 1.511 . S
C2055 H2069 0.961 . S
C2055 H2070 0.961 . S
C2055 H2071 0.961 . S
C2056 C2057 1.370 . S
C2056 C2058 1.363 . S
C2056 H2072 0.931 . S
C2057 C2056 1.370 . S
C2057 C2061 1.408 . S
C2058 C2056 1.363 . S
C2058 C2059 1.370 . S
C2058 C2062 1.524 . S
C2059 C2051 1.503 . S
C2059 C2058 1.370 . S
C2059 C2060 1.403 . S
C2060 C2059 1.403 . S
C2060 C2061 1.404 . S
C2060 C2063 1.539 . S
C2061 C2057 1.408 . S
C2061 C2060 1.404 . S
C2061 H2073 0.930 . S
C2062 C2058 1.524 . S
C2062 H2074 0.956 . S
C2062 H2075 0.961 . S
C2062 H2076 0.961 . S
C2063 C2060 1.539 . S
C2063 H2077 0.958 . S
C2063 H2078 0.961 . S
C2063 H2079 0.960 . S
H2064 C2048 0.931 . S
H2065 C2053 0.929 . S
H2066 C2054 0.960 . S
H2067 C2054 0.962 . S
H2068 C2054 0.960 . S
H2069 C2055 0.961 . S
H2070 C2055 0.961 . S
H2071 C2055 0.961 . S
H2072 C2056 0.931 . S
H2073 C2061 0.930 . S
H2074 C2062 0.956 . S
H2075 C2062 0.961 . S
H2076 C2062 0.961 . S
H2077 C2063 0.958 . S
H2078 C2063 0.961 . S
H2079 C2063 0.960 . S
C2080 C2081 1.391 . S
C2080 C2082 1.394 1_545 S
C2080 H2096 0.931 . S
C2081 C2080 1.391 . S
C2081 C2085 1.376 . S
C2082 C2080 1.394 1_565 S
C2082 C2083 1.369 . S
C2082 C2086 1.531 . S
C2083 C2082 1.369 . S
C2083 C2084 1.410 1_565 S
C2083 C2091 1.503 . S
C2084 C2083 1.410 1_545 S
C2084 C2085 1.392 . S
C2084 C2087 1.511 . S
C2085 C2081 1.376 . S
C2085 C2084 1.392 . S
C2085 H2097 0.929 . S
C2086 C2082 1.531 . S
C2086 H2098 0.960 . S
C2086 H2099 0.962 . S
C2086 H2100 0.960 . S
C2087 C2084 1.511 . S
C2087 H2101 0.961 . S
C2087 H2102 0.961 . S
C2087 H2103 0.961 . S
C2088 C2089 1.370 . S
C2088 C2090 1.363 . S
C2088 H2104 0.931 . S
C2089 C2088 1.370 . S
C2089 C2093 1.408 . S
C2090 C2088 1.363 . S
C2090 C2091 1.370 . S
C2090 C2094 1.524 . S
C2091 C2083 1.503 . S
C2091 C2090 1.370 . S
C2091 C2092 1.403 . S
C2092 C2091 1.403 . S
C2092 C2093 1.404 . S
C2092 C2095 1.539 . S
C2093 C2089 1.408 . S
C2093 C2092 1.404 . S
C2093 H2105 0.930 . S
C2094 C2090 1.524 . S
C2094 H2106 0.956 . S
C2094 H2107 0.961 . S
C2094 H2108 0.961 . S
C2095 C2092 1.539 . S
C2095 H2109 0.958 . S
C2095 H2110 0.961 . S
C2095 H2111 0.960 . S
H2096 C2080 0.931 . S
H2097 C2085 0.929 . S
H2098 C2086 0.960 . S
H2099 C2086 0.962 . S
H2100 C2086 0.960 . S
H2101 C2087 0.961 . S
H2102 C2087 0.961 . S
H2103 C2087 0.961 . S
H2104 C2088 0.931 . S
H2105 C2093 0.930 . S
H2106 C2094 0.956 . S
H2107 C2094 0.961 . S
H2108 C2094 0.961 . S
H2109 C2095 0.958 . S
H2110 C2095 0.961 . S
H2111 C2095 0.960 . S
C2112 C2113 1.391 . S
C2112 C2114 1.394 . S
C2112 H2128 0.931 . S
C2113 C2112 1.391 . S
C2113 C2117 1.376 . S
C2114 C2112 1.394 . S
C2114 C2115 1.369 . S
C2114 C2118 1.531 . S
C2115 C2114 1.369 . S
C2115 C2116 1.410 . S
C2115 C2123 1.503 . S
C2116 C2115 1.410 . S
C2116 C2117 1.392 . S
C2116 C2119 1.511 . S
C2117 C2113 1.376 . S
C2117 C2116 1.392 . S
C2117 H2129 0.929 . S
C2118 C2114 1.531 . S
C2118 H2130 0.960 . S
C2118 H2131 0.962 . S
C2118 H2132 0.960 . S
C2119 C2116 1.511 . S
C2119 H2133 0.961 . S
C2119 H2134 0.961 . S
C2119 H2135 0.961 . S
C2120 C2121 1.370 . S
C2120 C2122 1.363 . S
C2120 H2136 0.931 . S
C2121 C2120 1.370 . S
C2121 C2125 1.408 . S
C2122 C2120 1.363 . S
C2122 C2123 1.370 . S
C2122 C2126 1.524 . S
C2123 C2115 1.503 . S
C2123 C2122 1.370 . S
C2123 C2124 1.403 . S
C2124 C2123 1.403 . S
C2124 C2125 1.404 . S
C2124 C2127 1.539 . S
C2125 C2121 1.408 . S
C2125 C2124 1.404 . S
C2125 H2137 0.930 . S
C2126 C2122 1.524 . S
C2126 H2138 0.956 . S
C2126 H2139 0.961 . S
C2126 H2140 0.961 . S
C2127 C2124 1.539 . S
C2127 H2141 0.958 . S
C2127 H2142 0.961 . S
C2127 H2143 0.960 . S
H2128 C2112 0.931 . S
H2129 C2117 0.929 . S
H2130 C2118 0.960 . S
H2131 C2118 0.962 . S
H2132 C2118 0.960 . S
H2133 C2119 0.961 . S
H2134 C2119 0.961 . S
H2135 C2119 0.961 . S
H2136 C2120 0.931 . S
H2137 C2125 0.930 . S
H2138 C2126 0.956 . S
H2139 C2126 0.961 . S
H2140 C2126 0.961 . S
H2141 C2127 0.958 . S
H2142 C2127 0.961 . S
H2143 C2127 0.960 . S
C2144 C2145 1.391 . S
C2144 C2146 1.394 . S
C2144 H2160 0.931 . S
C2145 C2144 1.391 . S
C2145 C2149 1.376 . S
C2146 C2144 1.394 . S
C2146 C2147 1.369 . S
C2146 C2150 1.531 . S
C2147 C2146 1.369 . S
C2147 C2148 1.410 . S
C2147 C2155 1.503 . S
C2148 C2147 1.410 . S
C2148 C2149 1.392 . S
C2148 C2151 1.511 . S
C2149 C2145 1.376 . S
C2149 C2148 1.392 . S
C2149 H2161 0.929 . S
C2150 C2146 1.531 . S
C2150 H2162 0.960 . S
C2150 H2163 0.962 . S
C2150 H2164 0.960 . S
C2151 C2148 1.511 . S
C2151 H2165 0.961 . S
C2151 H2166 0.961 . S
C2151 H2167 0.961 . S
C2152 C2153 1.370 . S
C2152 C2154 1.363 . S
C2152 H2168 0.931 1_554 S
C2153 C2152 1.370 . S
C2153 C2157 1.408 . S
C2154 C2152 1.363 . S
C2154 C2155 1.370 . S
C2154 C2158 1.524 . S
C2155 C2147 1.503 . S
C2155 C2154 1.370 . S
C2155 C2156 1.403 . S
C2156 C2155 1.403 . S
C2156 C2157 1.404 . S
C2156 C2159 1.539 . S
C2157 C2153 1.408 . S
C2157 C2156 1.404 . S
C2157 H2169 0.930 . S
C2158 C2154 1.524 . S
C2158 H2170 0.956 . S
C2158 H2171 0.961 . S
C2158 H2172 0.961 . S
C2159 C2156 1.539 . S
C2159 H2173 0.958 . S
C2159 H2174 0.961 . S
C2159 H2175 0.960 . S
H2160 C2144 0.931 . S
H2161 C2149 0.929 . S
H2162 C2150 0.960 . S
H2163 C2150 0.962 . S
H2164 C2150 0.960 . S
H2165 C2151 0.961 . S
H2166 C2151 0.961 . S
H2167 C2151 0.961 . S
H2168 C2152 0.931 1_556 S
H2169 C2157 0.930 . S
H2170 C2158 0.956 . S
H2171 C2158 0.961 . S
H2172 C2158 0.961 . S
H2173 C2159 0.958 . S
H2174 C2159 0.961 . S
H2175 C2159 0.960 . S
C2176 C2177 1.391 . S
C2176 C2178 1.394 . S
C2176 H2192 0.931 . S
C2177 C2176 1.391 . S
C2177 C2181 1.376 . S
C2178 C2176 1.394 . S
C2178 C2179 1.369 . S
C2178 C2182 1.531 . S
C2179 C2178 1.369 . S
C2179 C2180 1.410 . S
C2179 C2187 1.503 . S
C2180 C2179 1.410 . S
C2180 C2181 1.392 . S
C2180 C2183 1.511 1_655 S
C2181 C2177 1.376 . S
C2181 C2180 1.392 . S
C2181 H2193 0.929 . S
C2182 C2178 1.531 . S
C2182 H2194 0.960 . S
C2182 H2195 0.962 . S
C2182 H2196 0.960 . S
C2183 C2180 1.511 1_455 S
C2183 H2197 0.961 . S
C2183 H2198 0.961 . S
C2183 H2199 0.961 . S
C2184 C2185 1.370 1_655 S
C2184 C2186 1.363 . S
C2184 H2200 0.931 . S
C2185 C2184 1.370 1_455 S
C2185 C2189 1.408 . S
C2186 C2184 1.363 . S
C2186 C2187 1.370 . S
C2186 C2190 1.524 . S
C2187 C2179 1.503 . S
C2187 C2186 1.370 . S
C2187 C2188 1.403 1_655 S
C2188 C2187 1.403 1_455 S
C2188 C2189 1.404 . S
C2188 C2191 1.539 . S
C2189 C2185 1.408 . S
C2189 C2188 1.404 . S
C2189 H2201 0.930 . S
C2190 C2186 1.524 . S
C2190 H2202 0.956 . S
C2190 H2203 0.961 . S
C2190 H2204 0.961 . S
C2191 C2188 1.539 . S
C2191 H2205 0.958 . S
C2191 H2206 0.961 . S
C2191 H2207 0.960 . S
H2192 C2176 0.931 . S
H2193 C2181 0.929 . S
H2194 C2182 0.960 . S
H2195 C2182 0.962 . S
H2196 C2182 0.960 . S
H2197 C2183 0.961 . S
H2198 C2183 0.961 . S
H2199 C2183 0.961 . S
H2200 C2184 0.931 . S
H2201 C2189 0.930 . S
H2202 C2190 0.956 . S
H2203 C2190 0.961 . S
H2204 C2190 0.961 . S
H2205 C2191 0.958 . S
H2206 C2191 0.961 . S
H2207 C2191 0.960 . S
C2208 C2209 1.391 . S
C2208 C2210 1.394 . S
C2208 H2224 0.931 . S
C2209 C2208 1.391 . S
C2209 C2213 1.376 . S
C2210 C2208 1.394 . S
C2210 C2211 1.369 . S
C2210 C2214 1.531 . S
C2211 C2210 1.369 . S
C2211 C2212 1.410 . S
C2211 C2219 1.503 . S
C2212 C2211 1.410 . S
C2212 C2213 1.392 . S
C2212 C2215 1.511 . S
C2213 C2209 1.376 . S
C2213 C2212 1.392 . S
C2213 H2225 0.929 . S
C2214 C2210 1.531 . S
C2214 H2226 0.960 . S
C2214 H2227 0.962 . S
C2214 H2228 0.960 . S
C2215 C2212 1.511 . S
C2215 H2229 0.961 . S
C2215 H2230 0.961 . S
C2215 H2231 0.961 . S
C2216 C2217 1.370 . S
C2216 C2218 1.363 . S
C2216 H2232 0.931 . S
C2217 C2216 1.370 . S
C2217 C2221 1.408 . S
C2218 C2216 1.363 . S
C2218 C2219 1.370 . S
C2218 C2222 1.524 . S
C2219 C2211 1.503 . S
C2219 C2218 1.370 . S
C2219 C2220 1.403 . S
C2220 C2219 1.403 . S
C2220 C2221 1.404 . S
C2220 C2223 1.539 . S
C2221 C2217 1.408 . S
C2221 C2220 1.404 . S
C2221 H2233 0.930 . S
C2222 C2218 1.524 . S
C2222 H2234 0.956 . S
C2222 H2235 0.961 . S
C2222 H2236 0.961 . S
C2223 C2220 1.539 . S
C2223 H2237 0.958 . S
C2223 H2238 0.961 . S
C2223 H2239 0.960 . S
H2224 C2208 0.931 . S
H2225 C2213 0.929 . S
H2226 C2214 0.960 . S
H2227 C2214 0.962 . S
H2228 C2214 0.960 . S
H2229 C2215 0.961 . S
H2230 C2215 0.961 . S
H2231 C2215 0.961 . S
H2232 C2216 0.931 . S
H2233 C2221 0.930 . S
H2234 C2222 0.956 . S
H2235 C2222 0.961 . S
H2236 C2222 0.961 . S
H2237 C2223 0.958 . S
H2238 C2223 0.961 . S
H2239 C2223 0.960 . S
C2240 C2241 1.391 . S
C2240 C2242 1.394 . S
C2240 H2256 0.931 . S
C2241 C2240 1.391 . S
C2241 C2245 1.376 . S
C2242 C2240 1.394 . S
C2242 C2243 1.369 . S
C2242 C2246 1.531 . S
C2243 C2242 1.369 . S
C2243 C2244 1.410 . S
C2243 C2251 1.503 . S
C2244 C2243 1.410 . S
C2244 C2245 1.392 . S
C2244 C2247 1.511 . S
C2245 C2241 1.376 . S
C2245 C2244 1.392 . S
C2245 H2257 0.929 . S
C2246 C2242 1.531 . S
C2246 H2258 0.960 . S
C2246 H2259 0.962 . S
C2246 H2260 0.960 . S
C2247 C2244 1.511 . S
C2247 H2261 0.961 . S
C2247 H2262 0.961 . S
C2247 H2263 0.961 . S
C2248 C2249 1.370 . S
C2248 C2250 1.363 . S
C2248 H2264 0.931 . S
C2249 C2248 1.370 . S
C2249 C2253 1.408 . S
C2250 C2248 1.363 . S
C2250 C2251 1.370 . S
C2250 C2254 1.524 . S
C2251 C2243 1.503 . S
C2251 C2250 1.370 . S
C2251 C2252 1.403 . S
C2252 C2251 1.403 . S
C2252 C2253 1.404 . S
C2252 C2255 1.539 . S
C2253 C2249 1.408 . S
C2253 C2252 1.404 . S
C2253 H2265 0.930 . S
C2254 C2250 1.524 . S
C2254 H2266 0.956 . S
C2254 H2267 0.961 . S
C2254 H2268 0.961 . S
C2255 C2252 1.539 . S
C2255 H2269 0.958 . S
C2255 H2270 0.961 . S
C2255 H2271 0.960 . S
H2256 C2240 0.931 . S
H2257 C2245 0.929 . S
H2258 C2246 0.960 . S
H2259 C2246 0.962 . S
H2260 C2246 0.960 . S
H2261 C2247 0.961 . S
H2262 C2247 0.961 . S
H2263 C2247 0.961 . S
H2264 C2248 0.931 . S
H2265 C2253 0.930 . S
H2266 C2254 0.956 . S
H2267 C2254 0.961 . S
H2268 C2254 0.961 . S
H2269 C2255 0.958 . S
H2270 C2255 0.961 . S
H2271 C2255 0.960 . S
C2272 C2273 1.391 . S
C2272 C2274 1.394 . S
C2272 H2288 0.931 . S
C2273 C2272 1.391 . S
C2273 C2277 1.376 . S
C2274 C2272 1.394 . S
C2274 C2275 1.369 . S
C2274 C2278 1.531 . S
C2275 C2274 1.369 . S
C2275 C2276 1.410 . S
C2275 C2283 1.503 . S
C2276 C2275 1.410 . S
C2276 C2277 1.392 . S
C2276 C2279 1.511 . S
C2277 C2273 1.376 . S
C2277 C2276 1.392 . S
C2277 H2289 0.929 . S
C2278 C2274 1.531 . S
C2278 H2290 0.960 . S
C2278 H2291 0.962 . S
C2278 H2292 0.960 . S
C2279 C2276 1.511 . S
C2279 H2293 0.961 . S
C2279 H2294 0.961 . S
C2279 H2295 0.961 . S
C2280 C2281 1.370 . S
C2280 C2282 1.363 . S
C2280 H2296 0.931 . S
C2281 C2280 1.370 . S
C2281 C2285 1.408 . S
C2282 C2280 1.363 . S
C2282 C2283 1.370 . S
C2282 C2286 1.524 . S
C2283 C2275 1.503 . S
C2283 C2282 1.370 . S
C2283 C2284 1.403 . S
C2284 C2283 1.403 . S
C2284 C2285 1.404 . S
C2284 C2287 1.539 . S
C2285 C2281 1.408 . S
C2285 C2284 1.404 . S
C2285 H2297 0.948 . S
C2286 C2282 1.524 . S
C2286 H2298 0.956 . S
C2286 H2299 0.961 . S
C2286 H2300 0.961 . S
C2287 C2284 1.539 . S
C2287 H2301 0.958 . S
C2287 H2302 0.961 . S
C2287 H2303 0.960 . S
H2288 C2272 0.931 . S
H2289 C2277 0.929 . S
H2290 C2278 0.960 . S
H2291 C2278 0.962 . S
H2292 C2278 0.960 . S
H2293 C2279 0.961 . S
H2294 C2279 0.961 . S
H2295 C2279 0.961 . S
H2296 C2280 0.931 . S
H2297 C2285 0.948 . S
H2298 C2286 0.956 . S
H2299 C2286 0.961 . S
H2300 C2286 0.961 . S
H2301 C2287 0.958 . S
H2302 C2287 0.961 . S
H2303 C2287 0.960 . S
C2304 C2305 1.391 . S
C2304 C2306 1.394 . S
C2304 H2320 0.931 . S
C2305 C2304 1.391 . S
C2305 C2309 1.376 . S
C2306 C2304 1.394 . S
C2306 C2307 1.369 . S
C2306 C2310 1.531 . S
C2307 C2306 1.369 . S
C2307 C2308 1.410 . S
C2307 C2315 1.503 . S
C2308 C2307 1.410 . S
C2308 C2309 1.392 . S
C2308 C2311 1.511 1_455 S
C2309 C2305 1.376 . S
C2309 C2308 1.392 . S
C2309 H2321 0.929 . S
C2310 C2306 1.531 . S
C2310 H2322 0.960 . S
C2310 H2323 0.962 . S
C2310 H2324 0.960 . S
C2311 C2308 1.511 1_655 S
C2311 H2325 0.961 . S
C2311 H2326 0.961 . S
C2311 H2327 0.961 . S
C2312 C2313 1.370 1_455 S
C2312 C2314 1.363 . S
C2312 H2328 0.931 . S
C2313 C2312 1.370 1_655 S
C2313 C2317 1.408 . S
C2314 C2312 1.363 . S
C2314 C2315 1.370 . S
C2314 C2318 1.524 . S
C2315 C2307 1.503 . S
C2315 C2314 1.370 . S
C2315 C2316 1.403 1_455 S
C2316 C2315 1.403 1_655 S
C2316 C2317 1.404 . S
C2316 C2319 1.539 . S
C2317 C2313 1.408 . S
C2317 C2316 1.404 . S
C2317 H2329 0.930 . S
C2318 C2314 1.524 . S
C2318 H2330 0.956 . S
C2318 H2331 0.961 . S
C2318 H2332 0.961 . S
C2319 C2316 1.539 . S
C2319 H2333 0.958 . S
C2319 H2334 0.961 . S
C2319 H2335 0.960 . S
H2320 C2304 0.931 . S
H2321 C2309 0.929 . S
H2322 C2310 0.960 . S
H2323 C2310 0.962 . S
H2324 C2310 0.960 . S
H2325 C2311 0.961 . S
H2326 C2311 0.961 . S
H2327 C2311 0.961 . S
H2328 C2312 0.931 . S
H2329 C2317 0.930 . S
H2330 C2318 0.956 . S
H2331 C2318 0.961 . S
H2332 C2318 0.961 . S
H2333 C2319 0.958 . S
H2334 C2319 0.961 . S
H2335 C2319 0.960 . S
C2336 C2337 1.391 . S
C2336 C2338 1.394 . S
C2336 H2352 0.931 . S
C2337 C2336 1.391 . S
C2337 C2341 1.376 . S
C2338 C2336 1.394 . S
C2338 C2339 1.369 . S
C2338 C2342 1.531 . S
C2339 C2338 1.369 . S
C2339 C2340 1.410 . S
C2339 C2347 1.503 . S
C2340 C2339 1.410 . S
C2340 C2341 1.392 . S
C2340 C2343 1.511 . S
C2341 C2337 1.376 . S
C2341 C2340 1.392 . S
C2341 H2353 0.929 . S
C2342 C2338 1.531 . S
C2342 H2354 0.960 . S
C2342 H2355 0.962 . S
C2342 H2356 0.960 . S
C2343 C2340 1.511 . S
C2343 H2357 0.961 . S
C2343 H2358 0.961 . S
C2343 H2359 0.961 . S
C2344 C2345 1.370 . S
C2344 C2346 1.363 . S
C2344 H2360 0.931 . S
C2345 C2344 1.370 . S
C2345 C2349 1.408 . S
C2346 C2344 1.363 . S
C2346 C2347 1.370 . S
C2346 C2350 1.524 . S
C2347 C2339 1.503 . S
C2347 C2346 1.370 . S
C2347 C2348 1.403 . S
C2348 C2347 1.403 . S
C2348 C2349 1.404 . S
C2348 C2351 1.539 . S
C2349 C2345 1.408 . S
C2349 C2348 1.404 . S
C2349 H2361 0.930 . S
C2350 C2346 1.524 . S
C2350 H2362 0.956 . S
C2350 H2363 0.961 . S
C2350 H2364 0.961 . S
C2351 C2348 1.539 . S
C2351 H2365 0.958 . S
C2351 H2366 0.961 . S
C2351 H2367 0.960 . S
H2352 C2336 0.931 . S
H2353 C2341 0.929 . S
H2354 C2342 0.960 . S
H2355 C2342 0.962 . S
H2356 C2342 0.960 . S
H2357 C2343 0.961 . S
H2358 C2343 0.961 . S
H2359 C2343 0.961 . S
H2360 C2344 0.931 . S
H2361 C2349 0.930 . S
H2362 C2350 0.956 . S
H2363 C2350 0.961 . S
H2364 C2350 0.961 . S
H2365 C2351 0.958 . S
H2366 C2351 0.961 . S
H2367 C2351 0.960 . S
C2368 C2369 1.391 . S
C2368 C2370 1.394 . S
C2368 H2384 0.931 . S
C2369 C2368 1.391 . S
C2369 C2373 1.376 1_655 S
C2370 C2368 1.394 . S
C2370 C2371 1.369 1_655 S
C2370 C2374 1.531 . S
C2371 C2370 1.369 1_455 S
C2371 C2372 1.410 . S
C2371 C2379 1.503 . S
C2372 C2371 1.410 . S
C2372 C2373 1.392 . S
C2372 C2375 1.511 . S
C2373 C2369 1.376 1_455 S
C2373 C2372 1.392 . S
C2373 H2385 0.929 . S
C2374 C2370 1.531 . S
C2374 H2386 0.960 . S
C2374 H2387 0.962 . S
C2374 H2388 0.960 . S
C2375 C2372 1.511 . S
C2375 H2389 0.961 . S
C2375 H2390 0.961 . S
C2375 H2391 0.961 . S
C2376 C2377 1.370 . S
C2376 C2378 1.363 . S
C2376 H2392 0.931 . S
C2377 C2376 1.370 . S
C2377 C2381 1.408 . S
C2378 C2376 1.363 . S
C2378 C2379 1.370 . S
C2378 C2382 1.537 . S
C2379 C2371 1.503 . S
C2379 C2378 1.370 . S
C2379 C2380 1.403 . S
C2380 C2379 1.403 . S
C2380 C2381 1.404 . S
C2380 C2383 1.539 . S
C2381 C2377 1.408 . S
C2381 C2380 1.404 . S
C2381 H2393 0.930 . S
C2382 C2378 1.537 . S
C2382 H2394 0.936 1_455 S
C2382 H2395 0.967 . S
C2382 H2396 0.962 . S
C2383 C2380 1.539 . S
C2383 H2397 0.958 . S
C2383 H2398 0.961 . S
C2383 H2399 0.960 . S
H2384 C2368 0.931 . S
H2385 C2373 0.929 . S
H2386 C2374 0.960 . S
H2387 C2374 0.962 . S
H2388 C2374 0.960 . S
H2389 C2375 0.961 . S
H2390 C2375 0.961 . S
H2391 C2375 0.961 . S
H2392 C2376 0.931 . S
H2393 C2381 0.930 . S
H2394 C2382 0.936 1_655 S
H2395 C2382 0.967 . S
H2396 C2382 0.962 . S
H2397 C2383 0.958 . S
H2398 C2383 0.961 . S
H2399 C2383 0.960 . S
C2400 C2401 1.391 . S
C2400 C2402 1.394 . S
C2400 H2416 0.931 . S
C2401 C2400 1.391 . S
C2401 C2405 1.376 . S
C2402 C2400 1.394 . S
C2402 C2403 1.369 . S
C2402 C2406 1.531 . S
C2403 C2402 1.369 . S
C2403 C2404 1.410 . S
C2403 C2411 1.503 . S
C2404 C2403 1.410 . S
C2404 C2405 1.392 . S
C2404 C2407 1.511 . S
C2405 C2401 1.376 . S
C2405 C2404 1.392 . S
C2405 H2417 0.929 . S
C2406 C2402 1.531 . S
C2406 H2418 0.960 . S
C2406 H2419 0.962 . S
C2406 H2420 0.960 . S
C2407 C2404 1.511 . S
C2407 H2421 0.961 . S
C2407 H2422 0.961 . S
C2407 H2423 0.961 . S
C2408 C2409 1.370 . S
C2408 C2410 1.363 . S
C2408 H2424 0.931 . S
C2409 C2408 1.370 . S
C2409 C2413 1.408 . S
C2410 C2408 1.363 . S
C2410 C2411 1.370 . S
C2410 C2414 1.524 . S
C2411 C2403 1.503 . S
C2411 C2410 1.370 . S
C2411 C2412 1.403 . S
C2412 C2411 1.403 . S
C2412 C2413 1.404 . S
C2412 C2415 1.539 . S
C2413 C2409 1.408 . S
C2413 C2412 1.404 . S
C2413 H2425 0.930 . S
C2414 C2410 1.524 . S
C2414 H2426 0.956 . S
C2414 H2427 0.961 . S
C2414 H2428 0.961 . S
C2415 C2412 1.539 . S
C2415 H2429 0.958 . S
C2415 H2430 0.961 . S
C2415 H2431 0.960 . S
H2416 C2400 0.931 . S
H2417 C2405 0.929 . S
H2418 C2406 0.960 . S
H2419 C2406 0.962 . S
H2420 C2406 0.960 . S
H2421 C2407 0.961 . S
H2422 C2407 0.961 . S
H2423 C2407 0.961 . S
H2424 C2408 0.931 . S
H2425 C2413 0.930 . S
H2426 C2414 0.956 . S
H2427 C2414 0.961 . S
H2428 C2414 0.961 . S
H2429 C2415 0.958 . S
H2430 C2415 0.961 . S
H2431 C2415 0.960 . S
C2432 C2433 1.391 . S
C2432 C2434 1.394 . S
C2432 H2448 0.931 . S
C2433 C2432 1.391 . S
C2433 C2437 1.376 . S
C2434 C2432 1.394 . S
C2434 C2435 1.369 . S
C2434 C2438 1.531 . S
C2435 C2434 1.369 . S
C2435 C2436 1.410 . S
C2435 C2443 1.503 . S
C2436 C2435 1.410 . S
C2436 C2437 1.392 . S
C2436 C2439 1.511 . S
C2437 C2433 1.376 . S
C2437 C2436 1.392 . S
C2437 H2449 0.929 . S
C2438 C2434 1.531 . S
C2438 H2450 0.960 . S
C2438 H2451 0.962 . S
C2438 H2452 0.960 . S
C2439 C2436 1.511 . S
C2439 H2453 0.961 . S
C2439 H2454 0.961 . S
C2439 H2455 0.961 . S
C2440 C2441 1.370 . S
C2440 C2442 1.363 . S
C2440 H2456 0.931 . S
C2441 C2440 1.370 . S
C2441 C2445 1.408 . S
C2442 C2440 1.363 . S
C2442 C2443 1.370 . S
C2442 C2446 1.524 . S
C2443 C2435 1.503 . S
C2443 C2442 1.370 . S
C2443 C2444 1.403 . S
C2444 C2443 1.403 . S
C2444 C2445 1.404 . S
C2444 C2447 1.539 . S
C2445 C2441 1.408 . S
C2445 C2444 1.404 . S
C2445 H2457 0.930 . S
C2446 C2442 1.524 . S
C2446 H2458 0.956 . S
C2446 H2459 0.961 . S
C2446 H2460 0.961 . S
C2447 C2444 1.539 . S
C2447 H2461 0.958 . S
C2447 H2462 0.961 . S
C2447 H2463 0.960 . S
H2448 C2432 0.931 . S
H2449 C2437 0.929 . S
H2450 C2438 0.960 . S
H2451 C2438 0.962 . S
H2452 C2438 0.960 . S
H2453 C2439 0.961 . S
H2454 C2439 0.961 . S
H2455 C2439 0.961 . S
H2456 C2440 0.931 . S
H2457 C2445 0.930 . S
H2458 C2446 0.956 . S
H2459 C2446 0.961 . S
H2460 C2446 0.961 . S
H2461 C2447 0.958 . S
H2462 C2447 0.961 . S
H2463 C2447 0.960 . S
C2464 C2465 1.391 . S
C2464 C2466 1.394 . S
C2464 H2480 0.931 1_554 S
C2465 C2464 1.391 . S
C2465 C2469 1.376 . S
C2466 C2464 1.394 . S
C2466 C2467 1.369 . S
C2466 C2470 1.531 . S
C2467 C2466 1.369 . S
C2467 C2468 1.410 . S
C2467 C2475 1.503 . S
C2468 C2467 1.410 . S
C2468 C2469 1.392 . S
C2468 C2471 1.511 . S
C2469 C2465 1.376 . S
C2469 C2468 1.392 . S
C2469 H2481 0.929 . S
C2470 C2466 1.531 . S
C2470 H2482 0.960 . S
C2470 H2483 0.962 . S
C2470 H2484 0.960 . S
C2471 C2468 1.511 . S
C2471 H2485 0.961 . S
C2471 H2486 0.961 . S
C2471 H2487 0.961 . S
C2472 C2473 1.370 . S
C2472 C2474 1.363 . S
C2472 H2488 0.931 . S
C2473 C2472 1.370 . S
C2473 C2477 1.408 . S
C2474 C2472 1.363 . S
C2474 C2475 1.370 . S
C2474 C2478 1.524 . S
C2475 C2467 1.503 . S
C2475 C2474 1.370 . S
C2475 C2476 1.403 . S
C2476 C2475 1.403 . S
C2476 C2477 1.404 . S
C2476 C2479 1.539 . S
C2477 C2473 1.408 . S
C2477 C2476 1.404 . S
C2477 H2489 0.930 . S
C2478 C2474 1.524 . S
C2478 H2490 0.956 . S
C2478 H2491 0.961 . S
C2478 H2492 0.961 . S
C2479 C2476 1.539 . S
C2479 H2493 0.958 . S
C2479 H2494 0.961 . S
C2479 H2495 0.960 . S
H2480 C2464 0.931 1_556 S
H2481 C2469 0.929 . S
H2482 C2470 0.960 . S
H2483 C2470 0.962 . S
H2484 C2470 0.960 . S
H2485 C2471 0.961 . S
H2486 C2471 0.961 . S
H2487 C2471 0.961 . S
H2488 C2472 0.931 . S
H2489 C2477 0.930 . S
H2490 C2478 0.956 . S
H2491 C2478 0.961 . S
H2492 C2478 0.961 . S
H2493 C2479 0.958 . S
H2494 C2479 0.961 . S
H2495 C2479 0.960 . S
C2496 C2497 1.391 . S
C2496 C2498 1.394 . S
C2496 H2512 0.931 . S
C2497 C2496 1.391 . S
C2497 C2501 1.376 1_455 S
C2498 C2496 1.394 . S
C2498 C2499 1.369 1_455 S
C2498 C2502 1.531 . S
C2499 C2498 1.369 1_655 S
C2499 C2500 1.410 . S
C2499 C2507 1.503 . S
C2500 C2499 1.410 . S
C2500 C2501 1.392 . S
C2500 C2503 1.511 . S
C2501 C2497 1.376 1_655 S
C2501 C2500 1.392 . S
C2501 H2513 0.929 . S
C2502 C2498 1.531 . S
C2502 H2514 0.960 . S
C2502 H2515 0.962 . S
C2502 H2516 0.960 . S
C2503 C2500 1.511 . S
C2503 H2517 0.961 . S
C2503 H2518 0.961 . S
C2503 H2519 0.961 . S
C2504 C2505 1.370 . S
C2504 C2506 1.363 . S
C2504 H2520 0.931 . S
C2505 C2504 1.370 . S
C2505 C2509 1.408 . S
C2506 C2504 1.363 . S
C2506 C2507 1.370 . S
C2506 C2510 1.524 1_655 S
C2507 C2499 1.503 . S
C2507 C2506 1.370 . S
C2507 C2508 1.403 . S
C2508 C2507 1.403 . S
C2508 C2509 1.404 . S
C2508 C2511 1.539 . S
C2509 C2505 1.408 . S
C2509 C2508 1.404 . S
C2509 H2521 0.930 . S
C2510 C2506 1.524 1_455 S
C2510 H2522 0.956 . S
C2510 H2523 0.961 1_455 S
C2510 H2524 0.961 . S
C2511 C2508 1.539 . S
C2511 H2525 0.958 . S
C2511 H2526 0.961 . S
C2511 H2527 0.960 . S
H2512 C2496 0.931 . S
H2513 C2501 0.929 . S
H2514 C2502 0.960 . S
H2515 C2502 0.962 . S
H2516 C2502 0.960 . S
H2517 C2503 0.961 . S
H2518 C2503 0.961 . S
H2519 C2503 0.961 . S
H2520 C2504 0.931 . S
H2521 C2509 0.930 . S
H2522 C2510 0.956 . S
H2523 C2510 0.961 1_655 S
H2524 C2510 0.961 . S
H2525 C2511 0.958 . S
H2526 C2511 0.961 . S
H2527 C2511 0.960 . S
C2528 C2529 1.391 . S
C2528 C2530 1.394 . S
C2528 H2544 0.931 . S
C2529 C2528 1.391 . S
C2529 C2533 1.376 . S
C2530 C2528 1.394 . S
C2530 C2531 1.369 . S
C2530 C2534 1.531 . S
C2531 C2530 1.369 . S
C2531 C2532 1.410 . S
C2531 C2539 1.503 . S
C2532 C2531 1.410 . S
C2532 C2533 1.392 . S
C2532 C2535 1.511 . S
C2533 C2529 1.376 . S
C2533 C2532 1.392 . S
C2533 H2545 0.929 . S
C2534 C2530 1.531 . S
C2534 H2546 0.960 . S
C2534 H2547 0.962 . S
C2534 H2548 0.960 . S
C2535 C2532 1.511 . S
C2535 H2549 0.961 . S
C2535 H2550 0.961 . S
C2535 H2551 0.961 . S
C2536 C2537 1.370 . S
C2536 C2538 1.363 . S
C2536 H2552 0.931 . S
C2537 C2536 1.370 . S
C2537 C2541 1.408 . S
C2538 C2536 1.363 . S
C2538 C2539 1.370 . S
C2538 C2542 1.524 . S
C2539 C2531 1.503 . S
C2539 C2538 1.370 . S
C2539 C2540 1.403 . S
C2540 C2539 1.403 . S
C2540 C2541 1.404 . S
C2540 C2543 1.539 . S
C2541 C2537 1.408 . S
C2541 C2540 1.404 . S
C2541 H2553 0.930 . S
C2542 C2538 1.524 . S
C2542 H2554 0.956 . S
C2542 H2555 0.961 . S
C2542 H2556 0.961 . S
C2543 C2540 1.539 . S
C2543 H2557 0.958 . S
C2543 H2558 0.961 . S
C2543 H2559 0.960 . S
H2544 C2528 0.931 . S
H2545 C2533 0.929 . S
H2546 C2534 0.960 . S
H2547 C2534 0.962 . S
H2548 C2534 0.960 . S
H2549 C2535 0.961 . S
H2550 C2535 0.961 . S
H2551 C2535 0.961 . S
H2552 C2536 0.931 . S
H2553 C2541 0.930 . S
H2554 C2542 0.956 . S
H2555 C2542 0.961 . S
H2556 C2542 0.961 . S
H2557 C2543 0.958 . S
H2558 C2543 0.961 . S
H2559 C2543 0.960 . S
C2560 C2561 1.391 . S
C2560 C2562 1.394 . S
C2560 H2576 0.931 . S
C2561 C2560 1.391 . S
C2561 C2565 1.376 . S
C2562 C2560 1.394 . S
C2562 C2563 1.369 . S
C2562 C2566 1.531 . S
C2563 C2562 1.369 . S
C2563 C2564 1.410 . S
C2563 C2571 1.503 . S
C2564 C2563 1.410 . S
C2564 C2565 1.392 . S
C2564 C2567 1.511 . S
C2565 C2561 1.376 . S
C2565 C2564 1.392 . S
C2565 H2577 0.929 . S
C2566 C2562 1.531 . S
C2566 H2578 0.960 . S
C2566 H2579 0.962 . S
C2566 H2580 0.960 . S
C2567 C2564 1.511 . S
C2567 H2581 0.961 . S
C2567 H2582 0.961 . S
C2567 H2583 0.961 . S
C2568 C2569 1.370 . S
C2568 C2570 1.363 . S
C2568 H2584 0.931 . S
C2569 C2568 1.370 . S
C2569 C2573 1.408 . S
C2570 C2568 1.363 . S
C2570 C2571 1.370 . S
C2570 C2574 1.524 . S
C2571 C2563 1.503 . S
C2571 C2570 1.370 . S
C2571 C2572 1.403 . S
C2572 C2571 1.403 . S
C2572 C2573 1.404 . S
C2572 C2575 1.539 . S
C2573 C2569 1.408 . S
C2573 C2572 1.404 . S
C2573 H2585 0.930 . S
C2574 C2570 1.524 . S
C2574 H2586 0.956 . S
C2574 H2587 0.961 . S
C2574 H2588 0.961 . S
C2575 C2572 1.539 . S
C2575 H2589 0.958 . S
C2575 H2590 0.961 . S
C2575 H2591 0.960 . S
H2576 C2560 0.931 . S
H2577 C2565 0.929 . S
H2578 C2566 0.960 . S
H2579 C2566 0.962 . S
H2580 C2566 0.960 . S
H2581 C2567 0.961 . S
H2582 C2567 0.961 . S
H2583 C2567 0.961 . S
H2584 C2568 0.931 . S
H2585 C2573 0.930 . S
H2586 C2574 0.956 . S
H2587 C2574 0.961 . S
H2588 C2574 0.961 . S
H2589 C2575 0.958 . S
H2590 C2575 0.961 . S
H2591 C2575 0.960 . S
C2592 C2593 1.391 . S
C2592 C2594 1.394 . S
C2592 H2608 0.931 . S
C2593 C2592 1.391 . S
C2593 C2597 1.376 . S
C2594 C2592 1.394 . S
C2594 C2595 1.369 . S
C2594 C2598 1.531 . S
C2595 C2594 1.369 . S
C2595 C2596 1.410 . S
C2595 C2603 1.503 . S
C2596 C2595 1.410 . S
C2596 C2597 1.392 . S
C2596 C2599 1.511 . S
C2597 C2593 1.376 . S
C2597 C2596 1.392 . S
C2597 H2609 0.937 . S
C2598 C2594 1.531 . S
C2598 H2610 0.960 . S
C2598 H2611 0.962 . S
C2598 H2612 0.960 . S
C2599 C2596 1.511 . S
C2599 H2613 0.961 . S
C2599 H2614 0.961 . S
C2599 H2615 0.961 . S
C2600 C2601 1.370 . S
C2600 C2602 1.363 . S
C2600 H2616 0.931 . S
C2601 C2600 1.370 . S
C2601 C2605 1.408 . S
C2602 C2600 1.363 . S
C2602 C2603 1.370 . S
C2602 C2606 1.524 . S
C2603 C2595 1.503 . S
C2603 C2602 1.370 . S
C2603 C2604 1.403 . S
C2604 C2603 1.403 . S
C2604 C2605 1.404 . S
C2604 C2607 1.539 . S
C2605 C2601 1.408 . S
C2605 C2604 1.404 . S
C2605 H2617 0.930 . S
C2606 C2602 1.524 . S
C2606 H2618 0.956 . S
C2606 H2619 0.961 . S
C2606 H2620 0.961 . S
C2607 C2604 1.539 . S
C2607 H2621 0.958 . S
C2607 H2622 0.961 . S
C2607 H2623 0.960 . S
H2608 C2592 0.931 . S
H2609 C2597 0.937 . S
H2610 C2598 0.960 . S
H2611 C2598 0.962 . S
H2612 C2598 0.960 . S
H2613 C2599 0.961 . S
H2614 C2599 0.961 . S
H2615 C2599 0.961 . S
H2616 C2600 0.931 . S
H2617 C2605 0.930 . S
H2618 C2606 0.956 . S
H2619 C2606 0.961 . S
H2620 C2606 0.961 . S
H2621 C2607 0.958 . S
H2622 C2607 0.961 . S
H2623 C2607 0.960 . S
C2624 C2625 1.391 . S
C2624 C2626 1.394 . S
C2624 H2640 0.931 . S
C2625 C2624 1.391 . S
C2625 C2629 1.376 . S
C2626 C2624 1.394 . S
C2626 C2627 1.369 . S
C2626 C2630 1.531 . S
C2627 C2626 1.369 . S
C2627 C2628 1.410 . S
C2627 C2635 1.503 . S
C2628 C2627 1.410 . S
C2628 C2629 1.392 . S
C2628 C2631 1.511 . S
C2629 C2625 1.376 . S
C2629 C2628 1.392 . S
C2629 H2641 0.929 . S
C2630 C2626 1.531 . S
C2630 H2642 0.960 . S
C2630 H2643 0.962 . S
C2630 H2644 0.960 . S
C2631 C2628 1.511 . S
C2631 H2645 0.961 . S
C2631 H2646 0.961 . S
C2631 H2647 0.961 . S
C2632 C2633 1.370 . S
C2632 C2634 1.363 . S
C2632 H2648 0.931 . S
C2633 C2632 1.370 . S
C2633 C2637 1.408 . S
C2634 C2632 1.363 . S
C2634 C2635 1.370 . S
C2634 C2638 1.524 . S
C2635 C2627 1.503 . S
C2635 C2634 1.370 . S
C2635 C2636 1.403 . S
C2636 C2635 1.403 . S
C2636 C2637 1.404 . S
C2636 C2639 1.539 . S
C2637 C2633 1.408 . S
C2637 C2636 1.404 . S
C2637 H2649 0.930 . S
C2638 C2634 1.524 . S
C2638 H2650 0.956 . S
C2638 H2651 0.961 . S
C2638 H2652 0.961 . S
C2639 C2636 1.539 . S
C2639 H2653 0.958 . S
C2639 H2654 0.961 . S
C2639 H2655 0.960 . S
H2640 C2624 0.931 . S
H2641 C2629 0.929 . S
H2642 C2630 0.960 . S
H2643 C2630 0.962 . S
H2644 C2630 0.960 . S
H2645 C2631 0.961 . S
H2646 C2631 0.961 . S
H2647 C2631 0.961 . S
H2648 C2632 0.931 . S
H2649 C2637 0.930 . S
H2650 C2638 0.956 . S
H2651 C2638 0.961 . S
H2652 C2638 0.961 . S
H2653 C2639 0.958 . S
H2654 C2639 0.961 . S
H2655 C2639 0.960 . S
C2656 C2657 1.391 . S
C2656 C2658 1.394 . S
C2656 H2672 0.931 . S
C2657 C2656 1.391 . S
C2657 C2661 1.376 . S
C2658 C2656 1.394 . S
C2658 C2659 1.369 . S
C2658 C2662 1.531 . S
C2659 C2658 1.369 . S
C2659 C2660 1.410 . S
C2659 C2667 1.503 . S
C2660 C2659 1.410 . S
C2660 C2661 1.392 . S
C2660 C2663 1.511 . S
C2661 C2657 1.376 . S
C2661 C2660 1.392 . S
C2661 H2673 0.929 . S
C2662 C2658 1.531 . S
C2662 H2674 0.960 . S
C2662 H2675 0.962 . S
C2662 H2676 0.960 . S
C2663 C2660 1.511 . S
C2663 H2677 0.961 . S
C2663 H2678 0.961 . S
C2663 H2679 0.961 . S
C2664 C2665 1.370 . S
C2664 C2666 1.363 . S
C2664 H2680 0.931 . S
C2665 C2664 1.370 . S
C2665 C2669 1.408 . S
C2666 C2664 1.363 . S
C2666 C2667 1.370 . S
C2666 C2670 1.524 . S
C2667 C2659 1.503 . S
C2667 C2666 1.370 . S
C2667 C2668 1.403 . S
C2668 C2667 1.403 . S
C2668 C2669 1.404 . S
C2668 C2671 1.539 . S
C2669 C2665 1.408 . S
C2669 C2668 1.404 . S
C2669 H2681 0.930 . S
C2670 C2666 1.524 . S
C2670 H2682 0.956 . S
C2670 H2683 0.961 . S
C2670 H2684 0.961 . S
C2671 C2668 1.539 . S
C2671 H2685 0.958 . S
C2671 H2686 0.961 . S
C2671 H2687 0.960 . S
H2672 C2656 0.931 . S
H2673 C2661 0.929 . S
H2674 C2662 0.960 . S
H2675 C2662 0.962 . S
H2676 C2662 0.960 . S
H2677 C2663 0.961 . S
H2678 C2663 0.961 . S
H2679 C2663 0.961 . S
H2680 C2664 0.931 . S
H2681 C2669 0.930 . S
H2682 C2670 0.956 . S
H2683 C2670 0.961 . S
H2684 C2670 0.961 . S
H2685 C2671 0.958 . S
H2686 C2671 0.961 . S
H2687 C2671 0.960 . S
C2688 C2689 1.391 . S
C2688 C2690 1.394 . S
C2688 H2704 0.931 . S
C2689 C2688 1.391 . S
C2689 C2693 1.376 . S
C2690 C2688 1.394 . S
C2690 C2691 1.369 . S
C2690 C2694 1.531 . S
C2691 C2690 1.369 . S
C2691 C2692 1.410 . S
C2691 C2699 1.503 . S
C2692 C2691 1.410 . S
C2692 C2693 1.392 . S
C2692 C2695 1.511 . S
C2693 C2689 1.376 . S
C2693 C2692 1.392 . S
C2693 H2705 0.929 . S
C2694 C2690 1.531 . S
C2694 H2706 0.960 . S
C2694 H2707 0.962 . S
C2694 H2708 0.960 . S
C2695 C2692 1.511 . S
C2695 H2709 0.961 . S
C2695 H2710 0.961 . S
C2695 H2711 0.961 . S
C2696 C2697 1.370 . S
C2696 C2698 1.363 . S
C2696 H2712 0.931 . S
C2697 C2696 1.370 . S
C2697 C2701 1.408 . S
C2698 C2696 1.363 . S
C2698 C2699 1.370 . S
C2698 C2702 1.524 . S
C2699 C2691 1.503 . S
C2699 C2698 1.370 . S
C2699 C2700 1.403 . S
C2700 C2699 1.403 . S
C2700 C2701 1.404 . S
C2700 C2703 1.539 . S
C2701 C2697 1.408 . S
C2701 C2700 1.404 . S
C2701 H2713 0.930 . S
C2702 C2698 1.524 . S
C2702 H2714 0.956 . S
C2702 H2715 0.961 . S
C2702 H2716 0.961 . S
C2703 C2700 1.539 . S
C2703 H2717 0.958 . S
C2703 H2718 0.961 . S
C2703 H2719 0.960 . S
H2704 C2688 0.931 . S
H2705 C2693 0.929 . S
H2706 C2694 0.960 . S
H2707 C2694 0.962 . S
H2708 C2694 0.960 . S
H2709 C2695 0.961 . S
H2710 C2695 0.961 . S
H2711 C2695 0.961 . S
H2712 C2696 0.931 . S
H2713 C2701 0.930 . S
H2714 C2702 0.956 . S
H2715 C2702 0.961 . S
H2716 C2702 0.961 . S
H2717 C2703 0.958 . S
H2718 C2703 0.961 . S
H2719 C2703 0.960 . S
C2720 C2721 1.391 . S
C2720 C2722 1.394 . S
C2720 H2736 0.931 . S
C2721 C2720 1.391 . S
C2721 C2725 1.376 . S
C2722 C2720 1.394 . S
C2722 C2723 1.369 . S
C2722 C2726 1.531 1_455 S
C2723 C2722 1.369 . S
C2723 C2724 1.410 . S
C2723 C2731 1.503 1_454 S
C2724 C2723 1.410 . S
C2724 C2725 1.393 . S
C2724 C2727 1.511 1_554 S
C2725 C2721 1.376 . S
C2725 C2724 1.393 . S
C2725 H2737 0.929 . S
C2726 C2722 1.531 1_655 S
C2726 H2738 0.960 . S
C2726 H2739 0.962 . S
C2726 H2740 0.960 . S
C2727 C2724 1.511 1_556 S
C2727 H2741 0.961 . S
C2727 H2742 0.961 . S
C2727 H2743 0.961 . S
C2728 C2729 1.370 . S
C2728 C2730 1.363 . S
C2728 H2744 0.931 . S
C2729 C2728 1.370 . S
C2729 C2733 1.408 . S
C2730 C2728 1.363 . S
C2730 C2731 1.370 . S
C2730 C2734 1.524 1_556 S
C2731 C2723 1.503 1_656 S
C2731 C2730 1.370 . S
C2731 C2732 1.403 . S
C2732 C2731 1.403 . S
C2732 C2733 1.404 . S
C2732 C2735 1.539 . S
C2733 C2729 1.408 . S
C2733 C2732 1.404 . S
C2733 H2745 0.930 . S
C2734 C2730 1.524 1_554 S
C2734 H2746 0.956 . S
C2734 H2747 0.961 1_655 S
C2734 H2748 0.961 . S
C2735 C2732 1.539 . S
C2735 H2749 0.958 . S
C2735 H2750 0.961 . S
C2735 H2751 0.960 1_655 S
H2736 C2720 0.931 . S
H2737 C2725 0.929 . S
H2738 C2726 0.960 . S
H2739 C2726 0.962 . S
H2740 C2726 0.960 . S
H2741 C2727 0.961 . S
H2742 C2727 0.961 . S
H2743 C2727 0.961 . S
H2744 C2728 0.931 . S
H2745 C2733 0.930 . S
H2746 C2734 0.956 . S
H2747 C2734 0.961 1_455 S
H2748 C2734 0.961 . S
H2749 C2735 0.958 . S
H2750 C2735 0.961 . S
H2751 C2735 0.960 1_455 S
C2752 C2753 1.391 . S
C2752 C2754 1.394 . S
C2752 H2768 0.931 . S
C2753 C2752 1.391 . S
C2753 C2757 1.376 . S
C2754 C2752 1.394 . S
C2754 C2755 1.369 . S
C2754 C2758 1.531 . S
C2755 C2754 1.369 . S
C2755 C2756 1.410 . S
C2755 C2763 1.503 . S
C2756 C2755 1.410 . S
C2756 C2757 1.392 . S
C2756 C2759 1.511 . S
C2757 C2753 1.376 . S
C2757 C2756 1.392 . S
C2757 H2769 0.929 . S
C2758 C2754 1.531 . S
C2758 H2770 0.960 . S
C2758 H2771 0.962 . S
C2758 H2772 0.960 . S
C2759 C2756 1.511 . S
C2759 H2773 0.961 . S
C2759 H2774 0.961 . S
C2759 H2775 0.961 . S
C2760 C2761 1.370 . S
C2760 C2762 1.363 . S
C2760 H2776 0.931 . S
C2761 C2760 1.370 . S
C2761 C2765 1.408 . S
C2762 C2760 1.363 . S
C2762 C2763 1.370 . S
C2762 C2766 1.524 . S
C2763 C2755 1.503 . S
C2763 C2762 1.370 . S
C2763 C2764 1.403 . S
C2764 C2763 1.403 . S
C2764 C2765 1.404 . S
C2764 C2767 1.539 . S
C2765 C2761 1.408 . S
C2765 C2764 1.404 . S
C2765 H2777 0.930 . S
C2766 C2762 1.524 . S
C2766 H2778 0.956 . S
C2766 H2779 0.961 . S
C2766 H2780 0.961 . S
C2767 C2764 1.539 . S
C2767 H2781 0.958 . S
C2767 H2782 0.961 . S
C2767 H2783 0.960 . S
H2768 C2752 0.931 . S
H2769 C2757 0.929 . S
H2770 C2758 0.960 . S
H2771 C2758 0.962 . S
H2772 C2758 0.960 . S
H2773 C2759 0.961 . S
H2774 C2759 0.961 . S
H2775 C2759 0.961 . S
H2776 C2760 0.931 . S
H2777 C2765 0.930 . S
H2778 C2766 0.956 . S
H2779 C2766 0.961 . S
H2780 C2766 0.961 . S
H2781 C2767 0.958 . S
H2782 C2767 0.961 . S
H2783 C2767 0.960 . S
C2784 C2785 1.391 . S
C2784 C2786 1.394 . S
C2784 H2800 0.931 . S
C2785 C2784 1.391 . S
C2785 C2789 1.376 . S
C2786 C2784 1.394 . S
C2786 C2787 1.369 . S
C2786 C2790 1.531 . S
C2787 C2786 1.369 . S
C2787 C2788 1.410 . S
C2787 C2795 1.503 . S
C2788 C2787 1.410 . S
C2788 C2789 1.392 . S
C2788 C2791 1.511 . S
C2789 C2785 1.376 . S
C2789 C2788 1.392 . S
C2789 H2801 0.929 . S
C2790 C2786 1.531 . S
C2790 H2802 0.960 . S
C2790 H2803 0.962 . S
C2790 H2804 0.960 . S
C2791 C2788 1.511 . S
C2791 H2805 0.961 . S
C2791 H2806 0.961 . S
C2791 H2807 0.961 . S
C2792 C2793 1.370 . S
C2792 C2794 1.363 . S
C2792 H2808 0.931 . S
C2793 C2792 1.370 . S
C2793 C2797 1.408 . S
C2794 C2792 1.363 . S
C2794 C2795 1.370 . S
C2794 C2798 1.524 . S
C2795 C2787 1.503 . S
C2795 C2794 1.370 . S
C2795 C2796 1.403 . S
C2796 C2795 1.403 . S
C2796 C2797 1.404 . S
C2796 C2799 1.539 . S
C2797 C2793 1.408 . S
C2797 C2796 1.404 . S
C2797 H2809 0.930 . S
C2798 C2794 1.524 . S
C2798 H2810 0.956 . S
C2798 H2811 0.961 . S
C2798 H2812 0.961 . S
C2799 C2796 1.539 . S
C2799 H2813 0.958 . S
C2799 H2814 0.961 . S
C2799 H2815 0.960 . S
H2800 C2784 0.931 . S
H2801 C2789 0.929 . S
H2802 C2790 0.960 . S
H2803 C2790 0.962 . S
H2804 C2790 0.960 . S
H2805 C2791 0.961 . S
H2806 C2791 0.961 . S
H2807 C2791 0.961 . S
H2808 C2792 0.931 . S
H2809 C2797 0.930 . S
H2810 C2798 0.956 . S
H2811 C2798 0.961 . S
H2812 C2798 0.961 . S
H2813 C2799 0.958 . S
H2814 C2799 0.961 . S
H2815 C2799 0.960 . S
C2816 C2817 1.391 1_565 S
C2816 C2818 1.394 . S
C2816 H2832 0.931 . S
C2817 C2816 1.391 1_545 S
C2817 C2821 1.376 . S
C2818 C2816 1.394 . S
C2818 C2819 1.365 1_565 S
C2818 C2822 1.531 . S
C2819 C2818 1.365 1_545 S
C2819 C2820 1.415 . S
C2819 C2827 1.502 1_446 S
C2820 C2819 1.415 . S
C2820 C2821 1.392 . S
C2820 C2823 1.511 1_556 S
C2821 C2817 1.376 . S
C2821 C2820 1.392 . S
C2821 H2833 0.929 . S
C2822 C2818 1.531 . S
C2822 H2834 0.960 . S
C2822 H2835 0.962 1_455 S
C2822 H2836 0.960 . S
C2823 C2820 1.511 1_554 S
C2823 H2837 0.961 . S
C2823 H2838 0.961 . S
C2823 H2839 0.961 . S
C2824 C2825 1.370 . S
C2824 C2826 1.363 1_565 S
C2824 H2840 0.931 1_565 S
C2825 C2824 1.370 . S
C2825 C2829 1.408 . S
C2826 C2824 1.363 1_545 S
C2826 C2827 1.370 1_545 S
C2826 C2830 1.524 1_554 S
C2827 C2819 1.502 1_664 S
C2827 C2826 1.370 1_565 S
C2827 C2828 1.403 . S
C2828 C2827 1.403 . S
C2828 C2829 1.404 . S
C2828 C2831 1.539 1_655 S
C2829 C2825 1.408 . S
C2829 C2828 1.404 . S
C2829 H2841 0.930 . S
C2830 C2826 1.524 1_556 S
C2830 H2842 0.956 . S
C2830 H2843 0.961 . S
C2830 H2844 0.961 . S
C2831 C2828 1.539 1_455 S
C2831 H2845 0.958 . S
C2831 H2846 0.961 . S
C2831 H2847 0.960 . S
H2832 C2816 0.931 . S
H2833 C2821 0.929 . S
H2834 C2822 0.960 . S
H2835 C2822 0.962 1_655 S
H2836 C2822 0.960 . S
H2837 C2823 0.961 . S
H2838 C2823 0.961 . S
H2839 C2823 0.961 . S
H2840 C2824 0.931 1_545 S
H2841 C2829 0.930 . S
H2842 C2830 0.956 . S
H2843 C2830 0.961 . S
H2844 C2830 0.961 . S
H2845 C2831 0.958 . S
H2846 C2831 0.961 . S
H2847 C2831 0.960 . S
C2848 C2849 1.391 . S
C2848 C2850 1.394 1_545 S
C2848 H2864 0.931 1_545 S
C2849 C2848 1.391 . S
C2849 C2853 1.376 . S
C2850 C2848 1.394 1_565 S
C2850 C2851 1.369 . S
C2850 C2854 1.531 . S
C2851 C2850 1.369 . S
C2851 C2852 1.410 1_565 S
C2851 C2859 1.503 . S
C2852 C2851 1.410 1_545 S
C2852 C2853 1.392 . S
C2852 C2855 1.511 . S
C2853 C2849 1.376 . S
C2853 C2852 1.392 . S
C2853 H2865 0.929 . S
C2854 C2850 1.531 . S
C2854 H2866 0.960 . S
C2854 H2867 0.962 . S
C2854 H2868 0.960 . S
C2855 C2852 1.511 . S
C2855 H2869 0.961 . S
C2855 H2870 0.961 . S
C2855 H2871 0.961 1_545 S
C2856 C2857 1.370 1_545 S
C2856 C2858 1.363 . S
C2856 H2872 0.931 . S
C2857 C2856 1.370 1_565 S
C2857 C2861 1.408 . S
C2858 C2856 1.363 . S
C2858 C2859 1.370 1_545 S
C2858 C2862 1.524 . S
C2859 C2851 1.503 . S
C2859 C2858 1.370 1_565 S
C2859 C2860 1.403 . S
C2860 C2859 1.403 . S
C2860 C2861 1.404 . S
C2860 C2863 1.539 . S
C2861 C2857 1.408 . S
C2861 C2860 1.404 . S
C2861 H2873 0.930 . S
C2862 C2858 1.524 . S
C2862 H2874 0.956 . S
C2862 H2875 0.961 . S
C2862 H2876 0.961 . S
C2863 C2860 1.539 . S
C2863 H2877 0.958 . S
C2863 H2878 0.961 . S
C2863 H2879 0.960 . S
H2864 C2848 0.931 1_565 S
H2865 C2853 0.929 . S
H2866 C2854 0.960 . S
H2867 C2854 0.962 . S
H2868 C2854 0.960 . S
H2869 C2855 0.961 . S
H2870 C2855 0.961 . S
H2871 C2855 0.961 1_565 S
H2872 C2856 0.931 . S
H2873 C2861 0.930 . S
H2874 C2862 0.956 . S
H2875 C2862 0.961 . S
H2876 C2862 0.961 . S
H2877 C2863 0.958 . S
H2878 C2863 0.961 . S
H2879 C2863 0.960 . S
C1345 C56 2.450 . S
C1353 C896 2.446 . S
C1377 C140 2.428 . S
C1385 C980 2.438 . S
C1409 C224 2.429 . S
C1417 C728 2.438 . S
C1441 C308 2.449 . S
C1449 C812 2.450 . S
C1473 C403 2.452 . S
C1481 C1243 2.445 . S
C1505 C487 2.445 . S
C1513 C1327 2.441 . S
C1537 C571 2.438 . S
C1545 C1075 2.439 . S
C1569 C655 2.434 . S
C1577 C1159 2.448 . S
C1601 C830 3.676 . S
C1609 C67 3.627 1_556 S
C1633 C914 3.651 . S
C1641 C151 3.617 . S
C1665 C998 3.650 . S
C1673 C235 3.615 . S
C1697 C746 3.667 . S
C1705 C319 3.625 . S
C1729 C392 3.632 1_554 S
C1737 C1155 3.676 . S
C1761 C1239 3.670 . S
C1769 C476 3.626 . S
C1793 C1323 3.650 . S
C1801 C560 3.615 . S
C1825 C1071 3.670 . S
C1833 C644 3.624 . S
C1857 C158 3.650 . S
C1865 C739 3.615 . S
C1889 C823 3.608 . S
C1897 C242 3.666 . S
C1921 C907 3.632 1_556 S
C1929 C326 3.676 . S
C1953 C991 3.604 . S
C1961 C74 3.667 . S
C1985 C1064 3.631 . S
C1993 C483 3.675 . S
C2017 C567 3.671 . S
C2025 C1148 3.626 . S
C2049 C651 3.650 . S
C2057 C1232 3.615 1_554 S
C2081 C1316 3.632 . S
C2089 C399 3.676 . S
C2113 C58 0.707 . S
C2121 C1334 0.552 . S
C2145 C142 0.666 . S
C2153 C410 0.531 . S
C2177 C1166 0.643 . S
C2185 C226 0.633 . S
C2209 C578 0.566 . S
C2217 C310 0.575 . S
C2241 C406 0.551 . S
C2249 C987 0.515 . S
C2273 C490 0.503 . S
C2281 C63 0.530 . S
C2305 C819 0.566 . S
C2313 C574 0.586 . S
C2337 C231 0.468 . S
C2345 C658 0.593 . S
C2369 C730 0.718 . S
C2377 C662 0.563 . S
C2401 C814 0.573 . S
C2409 C1082 0.514 . S
C2433 C494 0.594 . S
C2441 C898 0.658 . S
C2465 C1250 0.547 . S
C2473 C982 0.570 . S
C2497 C1078 0.541 . S
C2505 C315 0.514 . S
C2529 C1162 0.615 . S
C2537 C735 0.526 . S
C2561 C1246 0.623 . S
C2569 C147 0.528 . S
C2593 C903 0.461 . S
C2601 C1330 0.584 . S
C2625 C70 1.193 . S
C2633 C1066 1.102 . S
C2657 C154 1.082 . S
C2665 C478 1.156 . S
C2689 C238 1.050 . S
C2697 C1234 1.164 . S
C2721 C646 1.121 . S
C2729 C322 1.131 . S
C2753 C394 1.058 . S
C2761 C742 1.163 . S
C2785 C910 1.135 . S
C2793 C562 1.136 . S
C2817 C826 1.206 . S
C2825 C1150 1.100 . S
C2849 C1318 1.148 . S
C2857 C994 1.130 . S
