# Generated by pormake.
# Topology wjg, (4)-cn, num edge types: 1
# Building blocks:
#     Node 0, Type 0, BuildingBlock: NAHDIM_clean_sbu_0, # of connection points: 4
#     Node 1, Type 0, BuildingBlock: NAHDIM_clean_sbu_0, # of connection points: 4
#     Node 2, Type 0, BuildingBlock: NAHDIM_clean_sbu_0, # of connection points: 4
#     Node 3, Type 0, BuildingBlock: NAHDIM_clean_sbu_0, # of connection points: 4
#     Node 4, Type 0, BuildingBlock: NAHDIM_clean_sbu_0, # of connection points: 4
#     Node 5, Type 0, BuildingBlock: NAHDIM_clean_sbu_0, # of connection points: 4
#     Node 6, Type 0, BuildingBlock: NAHDIM_clean_sbu_0, # of connection points: 4
#     Node 7, Type 0, BuildingBlock: NAHDIM_clean_sbu_0, # of connection points: 4
#     Node 8, Type 0, BuildingBlock: NAHDIM_clean_sbu_0, # of connection points: 4
#     Node 9, Type 0, BuildingBlock: NAHDIM_clean_sbu_0, # of connection points: 4
#     Node 10, Type 0, BuildingBlock: NAHDIM_clean_sbu_0, # of connection points: 4
#     Node 11, Type 0, BuildingBlock: NAHDIM_clean_sbu_0, # of connection points: 4
#     Edge 12, Type (0, 0), BuildingBlock: XIVTED_clean_linker_0, # of connection points: 2
#     Edge 13, Type (0, 0), BuildingBlock: XIVTED_clean_linker_0, # of connection points: 2
#     Edge 14, Type (0, 0), BuildingBlock: XIVTED_clean_linker_0, # of connection points: 2
#     Edge 15, Type (0, 0), BuildingBlock: XIVTED_clean_linker_0, # of connection points: 2
#     Edge 16, Type (0, 0), BuildingBlock: XIVTED_clean_linker_0, # of connection points: 2
#     Edge 17, Type (0, 0), BuildingBlock: XIVTED_clean_linker_0, # of connection points: 2
#     Edge 18, Type (0, 0), BuildingBlock: XIVTED_clean_linker_0, # of connection points: 2
#     Edge 19, Type (0, 0), BuildingBlock: XIVTED_clean_linker_0, # of connection points: 2
#     Edge 20, Type (0, 0), BuildingBlock: XIVTED_clean_linker_0, # of connection points: 2
#     Edge 21, Type (0, 0), BuildingBlock: XIVTED_clean_linker_0, # of connection points: 2
#     Edge 22, Type (0, 0), BuildingBlock: XIVTED_clean_linker_0, # of connection points: 2
#     Edge 23, Type (0, 0), BuildingBlock: XIVTED_clean_linker_0, # of connection points: 2
#     Edge 24, Type (0, 0), BuildingBlock: XIVTED_clean_linker_0, # of connection points: 2
#     Edge 25, Type (0, 0), BuildingBlock: XIVTED_clean_linker_0, # of connection points: 2
#     Edge 26, Type (0, 0), BuildingBlock: XIVTED_clean_linker_0, # of connection points: 2
#     Edge 27, Type (0, 0), BuildingBlock: XIVTED_clean_linker_0, # of connection points: 2
#     Edge 28, Type (0, 0), BuildingBlock: XIVTED_clean_linker_0, # of connection points: 2
#     Edge 29, Type (0, 0), BuildingBlock: XIVTED_clean_linker_0, # of connection points: 2
#     Edge 30, Type (0, 0), BuildingBlock: XIVTED_clean_linker_0, # of connection points: 2
#     Edge 31, Type (0, 0), BuildingBlock: XIVTED_clean_linker_0, # of connection points: 2
#     Edge 32, Type (0, 0), BuildingBlock: XIVTED_clean_linker_0, # of connection points: 2
#     Edge 33, Type (0, 0), BuildingBlock: XIVTED_clean_linker_0, # of connection points: 2
#     Edge 34, Type (0, 0), BuildingBlock: XIVTED_clean_linker_0, # of connection points: 2
#     Edge 35, Type (0, 0), BuildingBlock: XIVTED_clean_linker_0, # of connection points: 2
# Relax obj value: 0.294
# Max RMSD: 0.131
# Mean RMSD: 0.129
data_MOF--net-wjg--node1-NAHDIM_clean_sbu_0--edge1-XIVTED_clean_linker_0
_symmetry_space_group_name_H-M    P1
_symmetry_Int_Tables_number       1
_symmetry_cell_setting            triclinic
loop_
_symmetry_equiv_pos_as_xyz
'x, y, z'
_cell_length_a     34.265881
_cell_length_b     34.19018
_cell_length_c     38.661969
_cell_angle_alpha  90.223555
_cell_angle_beta   89.86616
_cell_angle_gamma 119.92963
loop_
_atom_site_label
_atom_site_type_symbol
_atom_site_fract_x
_atom_site_fract_y
_atom_site_fract_z
_atom_type_partial_charge
C0 C 0.14414 0.37125 0.25197 0.0
O1 O 0.18573 0.38131 0.24521 0.0
O2 O 0.23222 0.43298 0.31576 0.0
Zn3 Zn 0.17797 0.37084 0.31729 0.0
O4 O 0.1987 0.32687 0.30505 0.0
C5 C 0.16645 0.39333 0.38645 0.0
O6 O 0.17431 0.43116 0.37181 0.0
O7 O 0.13088 0.36485 0.28325 0.0
C8 C 0.21769 0.31635 0.32855 0.0
O9 O 0.22311 0.33454 0.35941 0.0
C10 C 0.23149 0.46865 0.30789 0.0
O11 O 0.19364 0.46562 0.29736 0.0
O12 O 0.15867 0.35992 0.3673 0.0
C13 C 0.71391 0.14147 0.58944 0.0
O14 O 0.74383 0.18159 0.57803 0.0
O15 O 0.75988 0.24352 0.63976 0.0
Zn16 Zn 0.75992 0.18584 0.64904 0.0
O17 O 0.82016 0.1958 0.6343 0.0
C18 C 0.73864 0.1951 0.71969 0.0
O19 O 0.71252 0.20803 0.70491 0.0
O20 O 0.71222 0.13373 0.62172 0.0
C21 C 0.83672 0.17397 0.64864 0.0
O22 O 0.81271 0.14304 0.67171 0.0
C23 C 0.72546 0.24716 0.63348 0.0
O24 O 0.68594 0.21055 0.63007 0.0
O25 O 0.75778 0.17891 0.70099 0.0
C26 C 0.58806 0.72245 0.92745 0.0
O27 O 0.57477 0.75207 0.92281 0.0
O28 O 0.52919 0.74913 0.99334 0.0
Zn29 Zn 0.58909 0.75161 -0.00446 0.0
O30 O 0.63648 0.81696 0.98937 0.0
C31 C 0.55734 0.7104 0.06087 0.0
O32 O 0.5201 0.68506 0.04349 0.0
O33 O 0.59562 0.71447 0.95805 0.0
C34 C 0.66378 0.83968 0.01344 0.0
O35 O 0.66325 0.81952 0.04241 0.0
C36 C 0.52457 0.77401 0.01561 0.0
O37 O 0.55885 0.80009 0.03562 0.0
O38 O 0.59372 0.7333 0.04407 0.0
C39 C 0.84529 0.59717 0.23085 0.0
O40 O 0.80686 0.59402 0.22188 0.0
O41 O 0.74825 0.51258 0.28813 0.0
Zn42 Zn 0.80043 0.57512 0.29541 0.0
O43 O 0.77747 0.61865 0.28962 0.0
C44 C 0.802 0.54805 0.36568 0.0
O45 O 0.78286 0.50737 0.35216 0.0
O46 O 0.85105 0.58988 0.26213 0.0
C47 C 0.75317 0.6192 0.31433 0.0
O48 O 0.7431 0.59059 0.33993 0.0
C49 C 0.75061 0.47847 0.27786 0.0
O50 O 0.78978 0.48344 0.26874 0.0
O51 O 0.8189 0.58195 0.34561 0.0
C52 C 0.27092 0.83895 0.56148 0.0
O53 O 0.23932 0.79711 0.55537 0.0
O54 O 0.23625 0.75288 0.62795 0.0
Zn55 Zn 0.23377 0.81046 0.62768 0.0
O56 O 0.17032 0.79449 0.61618 0.0
C57 C 0.26717 0.82296 0.69734 0.0
O58 O 0.29017 0.80492 0.68458 0.0
O59 O 0.27649 0.85394 0.59231 0.0
C60 C 0.15262 0.81537 0.63061 0.0
O61 O 0.17723 0.84952 0.65127 0.0
C62 C 0.20765 0.72172 0.64731 0.0
O63 O 0.17771 0.7282 0.66374 0.0
O64 O 0.24497 0.83348 0.67684 0.0
C65 C 0.36124 0.30154 0.9808 0.0
O66 O 0.33084 0.27693 0.00404 0.0
O67 O 0.48543 0.32089 0.03364 0.0
Zn68 Zn 0.41887 0.29945 0.03274 0.0
O69 O 0.38384 0.23119 0.03617 0.0
C70 C 0.3887 0.30837 0.10149 0.0
O71 O 0.37219 0.32514 0.124 0.0
O72 O 0.40254 0.31633 0.98749 0.0
C73 C 0.40348 0.20796 0.03607 0.0
O74 O 0.44754 0.22855 0.03384 0.0
C75 C 0.50498 0.3217 0.00545 0.0
O76 O 0.48231 0.31297 0.97638 0.0
O77 O 0.40035 0.32617 0.0717 0.0
C78 C 0.57333 0.89721 0.41193 0.0
O79 O 0.55536 0.85493 0.42166 0.0
O80 O 0.50358 0.80314 0.35323 0.0
Zn81 Zn 0.56554 0.85652 0.3458 0.0
O82 O 0.60969 0.83382 0.3492 0.0
C83 C 0.53418 0.85737 0.2774 0.0
O84 O 0.49472 0.83925 0.2927 0.0
O85 O 0.58053 0.90662 0.37994 0.0
C86 C 0.60794 0.80886 0.32405 0.0
O87 O 0.57838 0.79978 0.29934 0.0
C88 C 0.49781 0.7677 0.36831 0.0
O89 O 0.53227 0.76793 0.38333 0.0
O90 O 0.56948 0.8755 0.29601 0.0
C91 C 0.69837 0.62002 0.72604 0.0
O92 O 0.72027 0.59818 0.73144 0.0
O93 O 0.71894 0.5554 0.66428 0.0
Zn94 Zn 0.72889 0.61832 0.65837 0.0
O95 O 0.79577 0.66174 0.65886 0.0
C96 C 0.68595 0.58437 0.59363 0.0
O97 O 0.66227 0.5473 0.61161 0.0
O98 O 0.69681 0.63295 0.69553 0.0
C99 C 0.81675 0.65661 0.63364 0.0
O100 O 0.79389 0.62454 0.61092 0.0
C101 C 0.74874 0.54709 0.67575 0.0
O102 O 0.78677 0.58035 0.68772 0.0
O103 O 0.70971 0.62127 0.60976 0.0
C104 C 0.10361 0.72058 0.06431 0.0
O105 O 0.13996 0.71908 0.07264 0.0
O106 O 0.20896 0.76251 0.02289 0.0
Zn107 Zn 0.16335 0.7818 0.01269 0.0
O108 O 0.1915 0.84733 0.02583 0.0
C109 C 0.16555 0.75321 0.94353 0.0
O110 O 0.17205 0.72349 0.96012 0.0
O111 O 0.10495 0.74442 0.03866 0.0
C112 C 0.23026 0.87226 0.01279 0.0
O113 O 0.24753 0.85381 0.99255 0.0
C114 C 0.23773 0.77891 0.04713 0.0
O115 O 0.23577 0.80713 0.06927 0.0
O116 O 0.15641 0.77936 0.96078 0.0
C117 C 0.41494 0.04711 0.36175 0.0
O118 O 0.44038 0.09026 0.3687 0.0
O119 O 0.47468 0.13829 0.29969 0.0
Zn120 Zn 0.41147 0.08444 0.29685 0.0
O121 O 0.36899 0.10763 0.3074 0.0
C122 C 0.42915 0.08325 0.22465 0.0
O123 O 0.47104 0.10029 0.235 0.0
O124 O 0.39971 0.03522 0.33121 0.0
C125 C 0.36772 0.13461 0.28547 0.0
O126 O 0.39371 0.14568 0.25804 0.0
C127 C 0.48206 0.17276 0.31737 0.0
O128 O 0.44957 0.17098 0.33662 0.0
O129 O 0.39792 0.0643 0.24697 0.0
C130 C 0.25777 0.35567 0.75251 0.0
O131 O 0.21702 0.34998 0.75014 0.0
O132 O 0.25703 0.43958 0.68717 0.0
Zn133 Zn 0.25518 0.37975 0.68384 0.0
O134 O 0.19014 0.33173 0.67997 0.0
C135 C 0.29995 0.4128 0.61959 0.0
O136 O 0.31627 0.45205 0.63523 0.0
O137 O 0.28311 0.36888 0.72598 0.0
C138 C 0.16964 0.33336 0.65314 0.0
O139 O 0.19171 0.36549 0.63042 0.0
C140 C 0.22467 0.44352 0.69931 0.0
O141 O 0.18989 0.40819 0.713 0.0
O142 O 0.28151 0.3772 0.63784 0.0
C143 C 0.93243 0.3054 0.0538 0.0
O144 O 0.9427 0.2956 0.02344 0.0
O145 O 0.79322 0.27859 0.03058 0.0
Zn146 Zn 0.84452 0.26635 0.02308 0.0
O147 O 0.82052 0.19901 0.02615 0.0
C148 C 0.85822 0.31031 0.95652 0.0
O149 O 0.84424 0.33504 0.97251 0.0
O150 O 0.89251 0.29732 0.05921 0.0
C151 C 0.81207 0.17549 -0.00133 0.0
O152 O 0.81872 0.19525 0.96848 0.0
C153 C 0.76128 0.26112 0.00873 0.0
O154 O 0.7625 0.23493 0.98431 0.0
O155 O 0.86735 0.28471 0.97427 0.0
H156 H 0.3107 0.48568 0.33756 0.0
H157 H 0.42114 0.75384 0.33531 0.0
H158 H 0.24222 0.55279 0.29696 0.0
H159 H 0.478 0.68348 0.38916 0.0
H160 H 0.3554 0.6812 0.32063 0.0
H161 H 0.3734 0.55859 0.35475 0.0
C162 C 0.30894 0.5158 0.33201 0.0
C163 C 0.27109 0.51309 0.31575 0.0
C164 C 0.3821 0.68172 0.33591 0.0
C165 C 0.34286 0.59689 0.33571 0.0
C166 C 0.41958 0.72317 0.34443 0.0
C167 C 0.45526 0.72475 0.36338 0.0
C168 C 0.38047 0.6416 0.34622 0.0
C169 C 0.45139 0.68394 0.37446 0.0
C170 C 0.34471 0.55746 0.34206 0.0
C171 C 0.27074 0.55331 0.30939 0.0
N172 N 0.41486 0.64405 0.36547 0.0
N173 N 0.30613 0.59361 0.31939 0.0
H174 H 0.80126 0.32808 0.64574 0.0
H175 H 0.67434 0.47051 0.65225 0.0
H176 H 0.65833 0.26854 0.628 0.0
H177 H 0.81039 0.5203 0.68816 0.0
H178 H 0.66823 0.39744 0.64 0.0
H179 H 0.80607 0.40051 0.65651 0.0
C180 C 0.77087 0.33027 0.6438 0.0
C181 C 0.72923 0.29204 0.63611 0.0
C182 C 0.6993 0.42431 0.65073 0.0
C183 C 0.73455 0.3751 0.64875 0.0
C184 C 0.7028 0.46599 0.65784 0.0
C185 C 0.74298 0.5016 0.67127 0.0
C186 C 0.73634 0.41833 0.65685 0.0
C187 C 0.77876 0.49383 0.67789 0.0
C188 C 0.77364 0.37167 0.65017 0.0
C189 C 0.6911 0.29709 0.63391 0.0
N190 N 0.77467 0.45312 0.67044 0.0
N191 N 0.69464 0.33789 0.64032 0.0
H192 H 0.44641 0.72516 0.97871 0.0
H193 H 0.31034 0.81516 0.09081 0.0
H194 H 0.50252 0.81603 0.06569 0.0
H195 H 0.25457 0.72695 0.00232 0.0
H196 H 0.37887 0.81048 0.08501 0.0
H197 H 0.37404 0.72108 0.98927 0.0
C198 C 0.44353 0.74429 -3e-05 0.0
C199 C 0.48066 0.77132 0.02112 0.0
C200 C 0.3515 0.79187 0.06702 0.0
C201 C 0.39799 0.76657 0.03352 0.0
C202 C 0.31227 0.79438 0.07042 0.0
C203 C 0.2768 0.77172 0.04686 0.0
C204 C 0.35535 0.76662 0.0398 0.0
C205 C 0.28118 0.74522 0.02096 0.0
C206 C 0.4022 0.74185 0.00606 0.0
C207 C 0.47494 0.79512 0.04848 0.0
N208 N 0.31988 0.74369 0.01797 0.0
N209 N 0.43445 0.79227 0.05383 0.0
H210 H 0.55627 0.19065 0.27816 0.0
H211 H 0.66858 0.45688 0.30457 0.0
H212 H 0.50363 0.25412 0.34585 0.0
H213 H 0.74148 0.39641 0.2595 0.0
H214 H 0.6048 0.382 0.31468 0.0
H215 H 0.62243 0.26489 0.26725 0.0
C216 C 0.55879 0.22006 0.29097 0.0
C217 C 0.5243 0.21617 0.31292 0.0
C218 C 0.63469 0.385 0.30254 0.0
C219 C 0.59932 0.30094 0.30012 0.0
C220 C 0.67112 0.42784 0.29653 0.0
C221 C 0.71058 0.433 0.28122 0.0
C222 C 0.63739 0.34677 0.29302 0.0
C223 C 0.71174 0.39398 0.27143 0.0
C224 C 0.59647 0.26236 0.28465 0.0
C225 C 0.52928 0.2554 0.32872 0.0
N226 N 0.67562 0.3524 0.27751 0.0
N227 N 0.56586 0.29609 0.32183 0.0
H228 H 0.27035 0.70074 0.62308 0.0
H229 H 0.16133 0.46402 0.72221 0.0
H230 H 0.15149 0.64929 0.68709 0.0
H231 H 0.2855 0.51929 0.66434 0.0
H232 H 0.15727 0.5318 0.70956 0.0
H233 H 0.27592 0.63398 0.63702 0.0
C234 C 0.24529 0.67532 0.63991 0.0
C235 C 0.21037 0.68059 0.65391 0.0
C236 C 0.18553 0.52922 0.69976 0.0
C237 C 0.21671 0.60429 0.67015 0.0
C238 C 0.18793 0.49054 0.70705 0.0
C239 C 0.22378 0.48592 0.6943 0.0
C240 C 0.21912 0.56349 0.67941 0.0
C241 C 0.25726 0.52141 0.67476 0.0
C242 C 0.2486 0.6373 0.64798 0.0
C243 C 0.17897 0.64665 0.67569 0.0
N244 N 0.254 0.5586 0.66778 0.0
N245 N 0.1829 0.60999 0.68313 0.0
H246 H 0.70246 0.24743 0.95666 0.0
H247 H 0.55824 0.33159 0.06159 0.0
H248 H 0.73937 0.30331 0.05959 0.0
H249 H 0.55035 0.31243 0.95082 0.0
H250 H 0.62383 0.32097 0.06255 0.0
H251 H 0.64444 0.26869 0.9554 0.0
C252 C 0.69824 0.26404 0.9791 0.0
C253 C 0.72562 0.27338 0.00837 0.0
C254 C 0.60803 0.31969 0.03803 0.0
C255 C 0.65918 0.29802 0.00703 0.0
C256 C 0.57068 0.32586 0.03742 0.0
C257 C 0.54854 0.32256 0.00608 0.0
C258 C 0.62294 0.30967 0.00715 0.0
C259 C 0.56612 0.31501 0.9756 0.0
C260 C 0.66529 0.2765 0.97825 0.0
C261 C 0.71889 0.29542 0.03653 0.0
N262 N 0.60192 0.30831 0.97696 0.0
N263 N 0.68607 0.30674 0.03528 0.0
H264 H 0.22815 0.28568 0.26553 0.0
H265 H 0.3265 0.13702 0.3456 0.0
H266 H 0.24567 0.27572 0.37509 0.0
H267 H 0.34585 0.18054 0.23915 0.0
H268 H 0.28506 0.17718 0.35573 0.0
H269 H 0.25993 0.23664 0.2544 0.0
C270 C 0.23841 0.27296 0.28723 0.0
C271 C 0.23461 0.28505 0.32127 0.0
C272 C 0.29823 0.17772 0.33013 0.0
C273 C 0.27065 0.2289 0.30874 0.0
C274 C 0.32169 0.15468 0.32431 0.0
C275 C 0.33991 0.15579 0.29157 0.0
C276 C 0.29261 0.20159 0.30293 0.0
C277 C 0.33272 0.1792 0.26489 0.0
C278 C 0.25662 0.2451 0.28086 0.0
C279 C 0.24837 0.26757 0.34842 0.0
N280 N 0.30967 0.20125 0.27117 0.0
N281 N 0.26582 0.24039 0.34157 0.0
H282 H 0.89348 0.23064 0.59905 0.0
H283 H 0.11273 0.264 0.69558 0.0
H284 H 0.88917 0.15018 0.68632 0.0
H285 H 0.11573 0.33127 0.60047 0.0
H286 H 0.03104 0.21709 0.68995 0.0
H287 H 0.97486 0.26254 0.59598 0.0
C288 C 0.90961 0.21928 0.61732 0.0
C289 C 0.88462 0.18818 0.64328 0.0
C290 C 0.04965 0.2418 0.67013 0.0
C291 C 0.97786 0.22494 0.64019 0.0
C292 C 0.09627 0.26865 0.67337 0.0
C293 C 0.12098 0.30199 0.64869 0.0
C294 C 0.02763 0.24861 0.64216 0.0
C295 C 0.09797 0.30631 0.62032 0.0
C296 C 0.9561 0.2375 0.61556 0.0
C297 C 0.90719 0.17432 0.66604 0.0
N298 N 0.05255 0.28026 0.61802 0.0
N299 N 0.95267 0.1933 0.66428 0.0
H300 H 0.7843 0.11577 0.94487 0.0
H301 H 0.71433 0.90004 0.06392 0.0
H302 H 0.79908 0.12312 0.05599 0.0
H303 H 0.67643 0.89219 0.95658 0.0
H304 H 0.75434 0.98233 0.06015 0.0
H305 H 0.75302 0.03434 0.94765 0.0
C306 C 0.7811 0.10029 0.96989 0.0
C307 C 0.7941 0.12629 0.00029 0.0
C308 C 0.73747 0.96257 0.03739 0.0
C309 C 0.75836 0.03293 0.00359 0.0
C310 C 0.7148 0.91559 0.03945 0.0
C311 C 0.69176 0.8892 0.01056 0.0
C312 C 0.73731 0.98328 0.00617 0.0
C313 C 0.6935 0.9112 0.97955 0.0
C314 C 0.76318 0.05374 0.97143 0.0
C315 C 0.78925 0.10434 0.03193 0.0
N316 N 0.71574 0.95698 0.97822 0.0
N317 N 0.77168 0.05885 0.03277 0.0
H318 H 0.65106 0.79429 0.3779 0.0
H319 H 0.74831 0.6689 0.26071 0.0
H320 H 0.62931 0.7755 0.26772 0.0
H321 H 0.7223 0.64458 0.37009 0.0
H322 H 0.71888 0.72119 0.2631 0.0
H323 H 0.69218 0.75263 0.37554 0.0
C324 C 0.65543 0.78189 0.3532 0.0
C325 C 0.63647 0.7879 0.32302 0.0
C326 C 0.71985 0.70447 0.28655 0.0
C327 C 0.68336 0.74068 0.32011 0.0
C328 C 0.73665 0.67476 0.28521 0.0
C329 C 0.73723 0.65206 0.31516 0.0
C330 C 0.70424 0.71195 0.31814 0.0
C331 C 0.72189 0.66095 0.34629 0.0
C332 C 0.67864 0.75799 0.35189 0.0
C333 C 0.64299 0.77112 0.29166 0.0
N334 N 0.70602 0.69023 0.34698 0.0
N335 N 0.66586 0.7482 0.29102 0.0
H336 H 0.10095 0.84182 0.66695 0.0
H337 H 0.87015 0.65055 0.58404 0.0
H338 H 0.09277 0.74888 0.58752 0.0
H339 H 0.87604 0.72563 0.67586 0.0
H340 H 0.95195 0.69359 0.58024 0.0
H341 H 0.01895 0.80712 0.66551 0.0
C342 C 0.08199 0.81446 0.64893 0.0
C343 C 0.10373 0.79799 0.62748 0.0
C344 C 0.9354 0.7008 0.60117 0.0
C345 C 0.00997 0.75812 0.62584 0.0
C346 C 0.88863 0.67623 0.60338 0.0
C347 C 0.8662 0.68426 0.6305 0.0
C348 C 0.9601 0.73378 0.62622 0.0
C349 C 0.89198 0.71817 0.65464 0.0
C350 C 0.03517 0.79456 0.64826 0.0
C351 C 0.07743 0.76246 0.60468 0.0
N352 N 0.93765 0.74162 0.65201 0.0
N353 N 0.03193 0.74361 0.60457 0.0
H354 H 0.31242 0.1534 0.04597 0.0
H355 H 0.31938 0.92946 0.00121 0.0
H356 H 0.43504 0.14921 0.02998 0.0
H357 H 0.20006 0.9262 0.04118 0.0
H358 H 0.36164 0.01057 0.0111 0.0
H359 H 0.26984 0.07068 0.04435 0.0
C360 C 0.33038 0.13511 0.04225 0.0
C361 C 0.37727 0.15822 0.0376 0.0
C362 C 0.32628 0.99219 0.01793 0.0
C363 C 0.3289 0.06395 0.03567 0.0
C364 C 0.30205 0.94584 0.01213 0.0
C365 C 0.25607 0.92111 0.02018 0.0
C366 C 0.30432 0.01424 0.03149 0.0
C367 C 0.23549 0.94408 0.03457 0.0
C368 C 0.3061 0.08796 0.04145 0.0
C369 C 0.3989 0.13287 0.03332 0.0
N370 N 0.2597 0.98954 0.0395 0.0
N371 N 0.37451 0.08718 0.03214 0.0
H372 H 0.02152 0.32983 0.05066 0.0
H373 H 0.05613 0.35188 0.25582 0.0
H374 H 0.91876 0.31693 0.12211 0.0
H375 H 0.16213 0.37909 0.18275 0.0
H376 H 0.00555 0.34069 0.20742 0.0
H377 H 0.07405 0.35011 0.09888 0.0
C378 C 0.01007 0.33155 0.07646 0.0
C379 C 0.96559 0.32141 0.08235 0.0
C380 C 0.03996 0.34935 0.20203 0.0
C381 C 0.02551 0.34429 0.13782 0.0
C382 C 0.06882 0.35567 0.22964 0.0
C383 C 0.11336 0.36618 0.22334 0.0
C384 C 0.05573 0.35335 0.16789 0.0
C385 C 0.12803 0.37084 0.18888 0.0
C386 C 0.0401 0.34314 0.10402 0.0
C387 C 0.95271 0.32438 0.11636 0.0
N388 N 0.09925 0.36416 0.16251 0.0
N389 N 0.98243 0.33521 0.14284 0.0
H390 H 0.65677 0.05135 0.60225 0.0
H391 H 0.61302 0.98829 0.40103 0.0
H392 H 0.70753 0.14923 0.51978 0.0
H393 H 0.56653 0.88894 0.48244 0.0
H394 H 0.64126 0.04789 0.44473 0.0
H395 H 0.61673 0.99159 0.55933 0.0
C396 C 0.65914 0.06034 0.57519 0.0
C397 C 0.68587 0.10531 0.56457 0.0
C398 C 0.62465 0.01305 0.45307 0.0
C399 C 0.64038 0.03719 0.51537 0.0
C400 C 0.6085 0.97897 0.42809 0.0
C401 C 0.58772 0.93354 0.43806 0.0
C402 C 0.62014 0.00169 0.48831 0.0
C403 C 0.58258 0.92352 0.47355 0.0
C404 C 0.63637 0.02621 0.55069 0.0
C405 C 0.68766 0.115 0.52916 0.0
N406 N 0.59895 0.95733 0.49739 0.0
N407 N 0.66549 0.08123 0.50585 0.0
H408 H 0.57743 0.73437 0.85891 0.0
H409 H 0.69492 0.5957 0.79369 0.0
H410 H 0.62149 0.66438 0.92716 0.0
H411 H 0.65383 0.66814 0.72536 0.0
H412 H 0.66314 0.61595 0.84239 0.0
H413 H 0.59975 0.70557 0.80935 0.0
C414 C 0.59151 0.71268 0.8635 0.0
C415 C 0.59791 0.70205 0.89729 0.0
C416 C 0.66088 0.62729 0.81675 0.0
C417 C 0.62375 0.66911 0.84057 0.0
C418 C 0.67907 0.61576 0.78887 0.0
C419 C 0.67733 0.63051 0.75538 0.0
C420 C 0.64083 0.65388 0.81118 0.0
C421 C 0.65613 0.6562 0.75075 0.0
C422 C 0.6043 0.69628 0.83515 0.0
C423 C 0.61613 0.67363 0.9016 0.0
N424 N 0.6389 0.66726 0.77837 0.0
N425 N 0.62866 0.65838 0.87357 0.0
H426 H 0.02183 0.71569 0.0551 0.0
H427 H 0.92656 0.60099 0.23901 0.0
H428 H 0.0929 0.67357 0.12393 0.0
H429 H 0.84746 0.62489 0.16422 0.0
H430 H 0.98773 0.62705 0.1969 0.0
H431 H 0.95718 0.68194 0.09431 0.0
C432 C 0.02376 0.69912 0.07832 0.0
C433 C 0.06295 0.69768 0.08632 0.0
C434 C 0.9569 0.62638 0.18963 0.0
C435 C 0.98923 0.65926 0.1314 0.0
C436 C 0.92199 0.61158 0.2137 0.0
C437 C 0.8819 0.61095 0.20519 0.0
C438 C 0.95186 0.641 0.15688 0.0
C439 C 0.8778 0.62488 0.17194 0.0
C440 C 0.98683 0.67985 0.1007 0.0
C441 C 0.06348 0.67565 0.11675 0.0
N442 N 0.91245 0.63959 0.14907 0.0
N443 N 0.02732 0.6576 0.13826 0.0
H444 H 0.35702 0.95554 0.35843 0.0
H445 H 0.33878 0.92737 0.5642 0.0
H446 H 0.43778 0.06293 0.43013 0.0
H447 H 0.26362 0.81787 0.49261 0.0
H448 H 0.37888 0.97641 0.51536 0.0
H449 H 0.32625 0.90323 0.40708 0.0
C450 C 0.36865 0.96804 0.38433 0.0
C451 C 0.39976 0.0138 0.39019 0.0
C452 C 0.35382 0.94157 0.51035 0.0
C453 C 0.36437 0.9542 0.44605 0.0
C454 C 0.33088 0.91355 0.53825 0.0
C455 C 0.29755 0.86851 0.53251 0.0
C456 C 0.34323 0.92451 0.47643 0.0
C457 C 0.28887 0.85243 0.49829 0.0
C458 C 0.35099 0.93817 0.41213 0.0
C459 C 0.41365 0.02803 0.42435 0.0
N460 N 0.31133 0.88046 0.47157 0.0
N461 N 0.3956 -0.00155 0.45097 0.0
H462 H 0.41441 0.34469 0.92463 0.0
H463 H 0.20854 0.32063 0.81121 0.0
H464 H 0.27644 0.27895 0.95979 0.0
H465 H 0.3424 0.37161 0.76986 0.0
H466 H 0.23412 0.30796 0.86647 0.0
H467 H 0.39001 0.35788 0.86856 0.0
C468 C 0.37902 0.33313 0.92061 0.0
C469 C 0.34739 0.31068 0.94697 0.0
C470 C 0.25797 0.32184 0.84536 0.0
C471 C 0.31933 0.32564 0.88291 0.0
C472 C 0.24339 0.32916 0.81372 0.0
C473 C 0.27338 0.34725 0.78582 0.0
C474 C 0.30302 0.33285 0.84935 0.0
C475 C 0.31812 0.35753 0.79068 0.0
C476 C 0.36513 0.34057 0.88857 0.0
C477 C 0.302 0.29636 0.94027 0.0
N478 N 0.33164 0.35029 0.8219 0.0
N479 N 0.28938 0.30413 0.90895 0.0
H480 H 0.20196 0.46468 0.43147 0.0
H481 H 0.25593 0.33629 0.57962 0.0
H482 H 0.16456 0.32419 0.4238 0.0
H483 H 0.31353 0.48098 0.5756 0.0
H484 H 0.22082 0.33007 0.52336 0.0
H485 H 0.23803 0.46938 0.48679 0.0
C486 C 0.20065 0.43458 0.44164 0.0
C487 C 0.18034 0.39402 0.42279 0.0
C488 C 0.24157 0.36319 0.53464 0.0
C489 C 0.22241 0.39945 0.486 0.0
C490 C 0.26199 0.36684 0.56664 0.0
C491 C 0.28752 0.40923 0.58257 0.0
C492 C 0.24649 0.40215 0.51855 0.0
C493 C 0.29404 0.44757 0.56448 0.0
C494 C 0.22174 0.43745 0.47311 0.0
C495 C 0.17988 0.35619 0.43737 0.0
N496 N 0.27322 0.44306 0.53367 0.0
N497 N 0.20084 0.35989 0.46803 0.0
H498 H 0.88243 0.26105 0.91464 0.0
H499 H 0.7139 0.24131 0.76414 0.0
H500 H 0.81095 0.33526 0.91371 0.0
H501 H 0.79912 0.18186 0.7571 0.0
H502 H 0.74716 0.27334 0.82021 0.0
H503 H 0.85299 0.23188 0.85697 0.0
C504 C 0.86123 0.2719 0.90207 0.0
C505 C 0.849 0.30052 0.91917 0.0
C506 C 0.75851 0.25317 0.80647 0.0
C507 C 0.81441 0.26645 0.85344 0.0
C508 C 0.73921 0.23448 0.77455 0.0
C509 C 0.75374 0.20885 0.75579 0.0
C510 C 0.79254 0.24612 0.81991 0.0
C511 C 0.78682 0.20135 0.77063 0.0
C512 C 0.84418 0.25496 0.86923 0.0
C513 C 0.82138 0.31337 0.90158 0.0
N514 N 0.80519 0.22001 0.80177 0.0
N515 N 0.80463 0.29584 0.86987 0.0
H516 H 0.46513 0.80281 0.23381 0.0
H517 H 0.62647 0.76617 0.10396 0.0
H518 H 0.61027 0.8759 0.24094 0.0
H519 H 0.48138 0.69353 0.09657 0.0
H520 H 0.62112 0.80567 0.15489 0.0
H521 H 0.47055 0.76465 0.1821 0.0
C522 C 0.4982 0.81154 0.22417 0.0
C523 C 0.53729 0.84239 0.24202 0.0
C524 C 0.59043 0.78083 0.14229 0.0
C525 C 0.54366 0.79794 0.18319 0.0
C526 C 0.59344 0.75792 0.11338 0.0
C527 C 0.55434 0.72657 0.0958 0.0
C528 C 0.54801 0.77242 0.15374 0.0
C529 C 0.51247 0.71729 0.10927 0.0
C530 C 0.50123 0.78933 0.19481 0.0
C531 C 0.57918 0.85224 0.22819 0.0
N532 N 0.51044 0.7404 0.13723 0.0
N533 N 0.58122 0.82973 0.19983 0.0
H534 H 0.75306 0.48238 0.41319 0.0
H535 H 0.74242 0.65274 0.55016 0.0
H536 H 0.82416 0.62703 0.39977 0.0
H537 H 0.65822 0.50779 0.55493 0.0
H538 H 0.7738 0.64461 0.49559 0.0
H539 H 0.72229 0.49176 0.46751 0.0
C540 C 0.76286 0.5162 0.42191 0.0
C541 C 0.79106 0.55395 0.4017 0.0
C542 C 0.74814 0.61463 0.50842 0.0
C543 C 0.75516 0.56484 0.46366 0.0
C544 C 0.72987 0.61925 0.53944 0.0
C545 C 0.69775 0.58087 0.55733 0.0
C546 C 0.73437 0.57133 0.49526 0.0
C547 C 0.68295 0.53836 0.54217 0.0
C548 C 0.74485 0.52148 0.45279 0.0
C549 C 0.80249 0.59692 0.41442 0.0
N550 N 0.7017 0.53473 0.51222 0.0
N551 N 0.78423 0.60117 0.44447 0.0
H552 H 0.2005 0.71347 0.90202 0.0
H553 H 0.21957 0.85512 0.73306 0.0
H554 H 0.15867 0.81351 0.90067 0.0
H555 H 0.29158 0.78261 0.747 0.0
H556 H 0.19372 0.83843 0.79311 0.0
H557 H 0.22824 0.73418 0.84304 0.0
C558 C 0.19667 0.73948 0.88921 0.0
C559 C 0.17725 0.76182 0.9064 0.0
C560 C 0.21557 0.82662 0.78307 0.0
C561 C 0.2095 0.78606 0.83879 0.0
C562 C 0.23053 0.83631 0.74886 0.0
C563 C 0.2577 0.82013 0.73489 0.0
C564 C 0.22743 0.80012 0.80329 0.0
C565 C 0.27071 0.79581 0.75658 0.0
C566 C 0.21292 0.75157 0.85559 0.0
C567 C 0.17341 0.79539 0.88842 0.0
N568 N 0.25507 0.78616 0.78954 0.0
N569 N 0.18943 0.80652 0.85557 0.0
H570 H 0.34725 0.06655 0.19956 0.0
H571 H 0.46354 0.30023 0.09809 0.0
H572 H 0.48996 0.14507 0.17913 0.0
H573 H 0.32366 0.22812 0.12736 0.0
H574 H 0.4712 0.23615 0.11722 0.0
H575 H 0.33509 0.11586 0.16106 0.0
C576 C 0.37595 0.09336 0.18627 0.0
C577 C 0.41988 0.1024 0.19344 0.0
C578 C 0.43863 0.23397 0.11902 0.0
C579 C 0.40618 0.15946 0.14974 0.0
C580 C 0.43427 0.27041 0.10791 0.0
C581 C 0.39285 0.26896 0.11083 0.0
C582 C 0.40125 0.19593 0.1333 0.0
C583 C 0.35614 0.23027 0.12468 0.0
C584 C 0.36898 0.12179 0.16448 0.0
C585 C 0.45558 0.1373 0.17501 0.0
N586 N 0.36121 0.19527 0.1355 0.0
N587 N 0.44806 0.16513 0.15459 0.0
loop_
_geom_bond_atom_site_label_1
_geom_bond_atom_site_label_2
_geom_bond_distance
_geom_bond_site_symmetry_2
_ccdc_geom_bond_type
C0 O1 1.160 . S
C0 O7 1.185 . S
O1 C0 1.160 . S
O2 Zn3 1.899 . S
O2 C10 1.284 . S
Zn3 O2 1.899 . S
Zn3 O4 2.032 . S
Zn3 O7 2.086 . S
Zn3 O12 1.977 . S
O4 Zn3 2.032 . S
O4 C8 1.278 . S
C5 O6 1.203 . S
C5 O12 1.267 . S
O6 C5 1.203 . S
O7 C0 1.185 . S
O7 Zn3 2.086 . S
C8 O4 1.278 . S
C8 O9 1.211 . S
O9 C8 1.211 . S
C10 O2 1.284 . S
C10 O11 1.273 . S
O11 C10 1.273 . S
O12 Zn3 1.977 . S
O12 C5 1.267 . S
C13 O14 1.160 . S
C13 O20 1.185 . S
O14 C13 1.160 . S
O15 Zn16 1.899 . S
O15 C23 1.284 . S
Zn16 O15 1.899 . S
Zn16 O17 2.032 . S
Zn16 O20 2.086 . S
Zn16 O25 1.977 . S
O17 Zn16 2.032 . S
O17 C21 1.278 . S
C18 O19 1.203 . S
C18 O25 1.267 . S
O19 C18 1.203 . S
O20 C13 1.185 . S
O20 Zn16 2.086 . S
C21 O17 1.278 . S
C21 O22 1.211 . S
O22 C21 1.211 . S
C23 O15 1.284 . S
C23 O24 1.273 . S
O24 C23 1.273 . S
O25 Zn16 1.977 . S
O25 C18 1.267 . S
C26 O27 1.160 . S
C26 O33 1.185 . S
O27 C26 1.160 . S
O28 Zn29 1.904 . S
O28 C36 1.284 . S
Zn29 O28 1.904 . S
Zn29 O30 2.045 . S
Zn29 O33 2.103 . S
Zn29 O38 1.946 1_556 S
O30 Zn29 2.045 . S
O30 C34 1.278 . S
C31 O32 1.203 . S
C31 O38 1.267 . S
O32 C31 1.203 . S
O33 C26 1.185 . S
O33 Zn29 2.103 . S
C34 O30 1.278 . S
C34 O35 1.211 1_556 S
O35 C34 1.211 1_554 S
C36 O28 1.284 . S
C36 O37 1.273 . S
O37 C36 1.273 . S
O38 Zn29 1.946 1_554 S
O38 C31 1.267 . S
C39 O40 1.160 . S
C39 O46 1.185 . S
O40 C39 1.160 . S
O41 Zn42 1.899 . S
O41 C49 1.284 . S
Zn42 O41 1.899 . S
Zn42 O43 2.032 . S
Zn42 O46 2.086 . S
Zn42 O51 1.977 . S
O43 Zn42 2.032 . S
O43 C47 1.278 . S
C44 O45 1.203 . S
C44 O51 1.267 . S
O45 C44 1.203 . S
O46 C39 1.185 . S
O46 Zn42 2.086 . S
C47 O43 1.278 . S
C47 O48 1.211 . S
O48 C47 1.211 . S
C49 O41 1.284 . S
C49 O50 1.273 . S
O50 C49 1.273 . S
O51 Zn42 1.977 . S
O51 C44 1.267 . S
C52 O53 1.160 . S
C52 O59 1.185 . S
O53 C52 1.160 . S
O54 Zn55 1.899 . S
O54 C62 1.284 . S
Zn55 O54 1.899 . S
Zn55 O56 2.032 . S
Zn55 O59 2.086 . S
Zn55 O64 1.977 . S
O56 Zn55 2.032 . S
O56 C60 1.278 . S
C57 O58 1.203 . S
C57 O64 1.267 . S
O58 C57 1.203 . S
O59 C52 1.185 . S
O59 Zn55 2.086 . S
C60 O56 1.278 . S
C60 O61 1.211 . S
O61 C60 1.211 . S
C62 O54 1.284 . S
C62 O63 1.273 . S
O63 C62 1.273 . S
O64 Zn55 1.977 . S
O64 C57 1.267 . S
C65 O66 1.160 . S
C65 O72 1.185 . S
O66 C65 1.160 . S
O67 Zn68 1.904 . S
O67 C75 1.284 . S
Zn68 O67 1.904 . S
Zn68 O69 2.045 . S
Zn68 O72 2.103 . S
Zn68 O77 1.946 1_556 S
O69 Zn68 2.045 . S
O69 C73 1.278 . S
C70 O71 1.203 . S
C70 O77 1.267 . S
O71 C70 1.203 . S
O72 C65 1.185 . S
O72 Zn68 2.103 . S
C73 O69 1.278 . S
C73 O74 1.211 1_556 S
O74 C73 1.211 1_554 S
C75 O67 1.284 . S
C75 O76 1.273 . S
O76 C75 1.273 . S
O77 Zn68 1.946 1_554 S
O77 C70 1.267 . S
C78 O79 1.160 . S
C78 O85 1.185 . S
O79 C78 1.160 . S
O80 Zn81 1.899 . S
O80 C88 1.284 . S
Zn81 O80 1.899 . S
Zn81 O82 2.032 . S
Zn81 O85 2.086 . S
Zn81 O90 1.977 . S
O82 Zn81 2.032 . S
O82 C86 1.278 . S
C83 O84 1.203 . S
C83 O90 1.267 . S
O84 C83 1.203 . S
O85 C78 1.185 . S
O85 Zn81 2.086 . S
C86 O82 1.278 . S
C86 O87 1.211 . S
O87 C86 1.211 . S
C88 O80 1.284 . S
C88 O89 1.273 . S
O89 C88 1.273 . S
O90 Zn81 1.977 . S
O90 C83 1.267 . S
C91 O92 1.160 . S
C91 O98 1.185 . S
O92 C91 1.160 . S
O93 Zn94 1.899 . S
O93 C101 1.284 . S
Zn94 O93 1.899 . S
Zn94 O95 2.032 . S
Zn94 O98 2.086 . S
Zn94 O103 1.977 . S
O95 Zn94 2.032 . S
O95 C99 1.278 . S
C96 O97 1.203 . S
C96 O103 1.267 . S
O97 C96 1.203 . S
O98 C91 1.185 . S
O98 Zn94 2.086 . S
C99 O95 1.278 . S
C99 O100 1.211 . S
O100 C99 1.211 . S
C101 O93 1.284 . S
C101 O102 1.273 . S
O102 C101 1.273 . S
O103 Zn94 1.977 . S
O103 C96 1.267 . S
C104 O105 1.160 . S
C104 O111 1.185 . S
O105 C104 1.160 . S
O106 Zn107 1.904 . S
O106 C114 1.284 . S
Zn107 O106 1.904 . S
Zn107 O108 2.045 . S
Zn107 O111 2.103 . S
Zn107 O116 1.946 1_554 S
O108 Zn107 2.045 . S
O108 C112 1.278 . S
C109 O110 1.203 . S
C109 O116 1.267 . S
O110 C109 1.203 . S
O111 C104 1.185 . S
O111 Zn107 2.103 . S
C112 O108 1.278 . S
C112 O113 1.211 1_554 S
O113 C112 1.211 1_556 S
C114 O106 1.284 . S
C114 O115 1.273 . S
O115 C114 1.273 . S
O116 Zn107 1.946 1_556 S
O116 C109 1.267 . S
C117 O118 1.160 . S
C117 O124 1.185 . S
O118 C117 1.160 . S
O119 Zn120 1.899 . S
O119 C127 1.284 . S
Zn120 O119 1.899 . S
Zn120 O121 2.032 . S
Zn120 O124 2.086 . S
Zn120 O129 1.977 . S
O121 Zn120 2.032 . S
O121 C125 1.278 . S
C122 O123 1.203 . S
C122 O129 1.267 . S
O123 C122 1.203 . S
O124 C117 1.185 . S
O124 Zn120 2.086 . S
C125 O121 1.278 . S
C125 O126 1.211 . S
O126 C125 1.211 . S
C127 O119 1.284 . S
C127 O128 1.273 . S
O128 C127 1.273 . S
O129 Zn120 1.977 . S
O129 C122 1.267 . S
C130 O131 1.160 . S
C130 O137 1.185 . S
O131 C130 1.160 . S
O132 Zn133 1.899 . S
O132 C140 1.284 . S
Zn133 O132 1.899 . S
Zn133 O134 2.032 . S
Zn133 O137 2.086 . S
Zn133 O142 1.977 . S
O134 Zn133 2.032 . S
O134 C138 1.278 . S
C135 O136 1.203 . S
C135 O142 1.267 . S
O136 C135 1.203 . S
O137 C130 1.185 . S
O137 Zn133 2.086 . S
C138 O134 1.278 . S
C138 O139 1.211 . S
O139 C138 1.211 . S
C140 O132 1.284 . S
C140 O141 1.273 . S
O141 C140 1.273 . S
O142 Zn133 1.977 . S
O142 C135 1.267 . S
C143 O144 1.160 . S
C143 O150 1.185 . S
O144 C143 1.160 . S
O145 Zn146 1.904 . S
O145 C153 1.284 . S
Zn146 O145 1.904 . S
Zn146 O147 2.045 . S
Zn146 O150 2.103 . S
Zn146 O155 1.946 1_554 S
O147 Zn146 2.045 . S
O147 C151 1.278 . S
C148 O149 1.203 . S
C148 O155 1.267 . S
O149 C148 1.203 . S
O150 C143 1.185 . S
O150 Zn146 2.103 . S
C151 O147 1.278 . S
C151 O152 1.211 1_554 S
O152 C151 1.211 1_556 S
C153 O145 1.284 . S
C153 O154 1.273 . S
O154 C153 1.273 . S
O155 Zn146 1.946 1_556 S
O155 C148 1.267 . S
H156 C162 0.930 . S
H157 C166 0.930 . S
H158 C171 0.929 . S
H159 C169 0.929 . S
H160 C164 0.929 . S
H161 C170 0.929 . S
C162 H156 0.930 . S
C162 C163 1.367 . S
C162 C170 1.378 . S
C163 C162 1.367 . S
C163 C171 1.433 . S
C164 H160 0.929 . S
C164 C166 1.378 . S
C164 C168 1.350 . S
C165 C168 1.463 . S
C165 C170 1.350 . S
C165 N173 1.427 . S
C166 H157 0.930 . S
C166 C164 1.378 . S
C166 C167 1.367 . S
C167 C166 1.367 . S
C167 C169 1.433 . S
C168 C164 1.350 . S
C168 C165 1.463 . S
C168 N172 1.427 . S
C169 H159 0.929 . S
C169 C167 1.433 . S
C169 N172 1.384 . S
C170 H161 0.929 . S
C170 C162 1.378 . S
C170 C165 1.350 . S
C171 H158 0.929 . S
C171 C163 1.433 . S
C171 N173 1.384 . S
N172 C168 1.427 . S
N172 C169 1.384 . S
N173 C165 1.427 . S
N173 C171 1.384 . S
H174 C180 0.930 . S
H175 C184 0.930 . S
H176 C189 0.929 . S
H177 C187 0.929 . S
H178 C182 0.929 . S
H179 C188 0.929 . S
C180 H174 0.930 . S
C180 C181 1.367 . S
C180 C188 1.378 . S
C181 C180 1.367 . S
C181 C189 1.433 . S
C182 H178 0.929 . S
C182 C184 1.378 . S
C182 C186 1.350 . S
C183 C186 1.463 . S
C183 C188 1.350 . S
C183 N191 1.427 . S
C184 H175 0.930 . S
C184 C182 1.378 . S
C184 C185 1.367 . S
C185 C184 1.367 . S
C185 C187 1.433 . S
C186 C182 1.350 . S
C186 C183 1.463 . S
C186 N190 1.427 . S
C187 H177 0.929 . S
C187 C185 1.433 . S
C187 N190 1.384 . S
C188 H179 0.929 . S
C188 C180 1.378 . S
C188 C183 1.350 . S
C189 H176 0.929 . S
C189 C181 1.433 . S
C189 N191 1.384 . S
N190 C186 1.427 . S
N190 C187 1.384 . S
N191 C183 1.427 . S
N191 C189 1.384 . S
H192 C198 0.930 . S
H193 C202 0.930 . S
H194 C207 0.929 . S
H195 C205 0.929 . S
H196 C200 0.929 . S
H197 C206 0.929 . S
C198 H192 0.930 . S
C198 C199 1.367 . S
C198 C206 1.378 . S
C199 C198 1.367 . S
C199 C207 1.433 1_556 S
C200 H196 0.929 . S
C200 C202 1.378 . S
C200 C204 1.350 . S
C201 C204 1.463 1_556 S
C201 C206 1.350 . S
C201 N209 1.427 1_556 S
C202 H193 0.930 . S
C202 C200 1.378 . S
C202 C203 1.367 . S
C203 C202 1.367 . S
C203 C205 1.433 1_554 S
C204 C200 1.350 . S
C204 C201 1.463 1_554 S
C204 N208 1.427 1_554 S
C205 H195 0.929 . S
C205 C203 1.433 1_556 S
C205 N208 1.384 . S
C206 H197 0.929 . S
C206 C198 1.378 . S
C206 C201 1.350 . S
C207 H194 0.929 . S
C207 C199 1.433 1_554 S
C207 N209 1.384 . S
N208 C204 1.427 1_556 S
N208 C205 1.384 . S
N209 C201 1.427 1_554 S
N209 C207 1.384 . S
H210 C216 0.930 . S
H211 C220 0.930 . S
H212 C225 0.929 . S
H213 C223 0.929 . S
H214 C218 0.929 . S
H215 C224 0.929 . S
C216 H210 0.930 . S
C216 C217 1.367 . S
C216 C224 1.378 . S
C217 C216 1.367 . S
C217 C225 1.433 . S
C218 H214 0.929 . S
C218 C220 1.378 . S
C218 C222 1.350 . S
C219 C222 1.463 . S
C219 C224 1.350 . S
C219 N227 1.427 . S
C220 H211 0.930 . S
C220 C218 1.378 . S
C220 C221 1.367 . S
C221 C220 1.367 . S
C221 C223 1.433 . S
C222 C218 1.350 . S
C222 C219 1.463 . S
C222 N226 1.427 . S
C223 H213 0.929 . S
C223 C221 1.433 . S
C223 N226 1.384 . S
C224 H215 0.929 . S
C224 C216 1.378 . S
C224 C219 1.350 . S
C225 H212 0.929 . S
C225 C217 1.433 . S
C225 N227 1.384 . S
N226 C222 1.427 . S
N226 C223 1.384 . S
N227 C219 1.427 . S
N227 C225 1.384 . S
H228 C234 0.930 . S
H229 C238 0.930 . S
H230 C243 0.929 . S
H231 C241 0.929 . S
H232 C236 0.929 . S
H233 C242 0.929 . S
C234 H228 0.930 . S
C234 C235 1.367 . S
C234 C242 1.378 . S
C235 C234 1.367 . S
C235 C243 1.433 . S
C236 H232 0.929 . S
C236 C238 1.378 . S
C236 C240 1.350 . S
C237 C240 1.463 . S
C237 C242 1.350 . S
C237 N245 1.427 . S
C238 H229 0.930 . S
C238 C236 1.378 . S
C238 C239 1.367 . S
C239 C238 1.367 . S
C239 C241 1.433 . S
C240 C236 1.350 . S
C240 C237 1.463 . S
C240 N244 1.427 . S
C241 H231 0.929 . S
C241 C239 1.433 . S
C241 N244 1.384 . S
C242 H233 0.929 . S
C242 C234 1.378 . S
C242 C237 1.350 . S
C243 H230 0.929 . S
C243 C235 1.433 . S
C243 N245 1.384 . S
N244 C240 1.427 . S
N244 C241 1.384 . S
N245 C237 1.427 . S
N245 C243 1.384 . S
H246 C252 0.930 . S
H247 C256 0.930 . S
H248 C261 0.929 . S
H249 C259 0.929 . S
H250 C254 0.929 . S
H251 C260 0.929 . S
C252 H246 0.930 . S
C252 C253 1.367 . S
C252 C260 1.378 . S
C253 C252 1.367 . S
C253 C261 1.433 1_554 S
C254 H250 0.929 . S
C254 C256 1.378 . S
C254 C258 1.350 . S
C255 C258 1.463 1_554 S
C255 C260 1.350 . S
C255 N263 1.427 1_554 S
C256 H247 0.930 . S
C256 C254 1.378 . S
C256 C257 1.367 . S
C257 C256 1.367 . S
C257 C259 1.433 1_556 S
C258 C254 1.350 . S
C258 C255 1.463 1_556 S
C258 N262 1.427 1_556 S
C259 H249 0.929 . S
C259 C257 1.433 1_554 S
C259 N262 1.384 . S
C260 H251 0.929 . S
C260 C252 1.378 . S
C260 C255 1.350 . S
C261 H248 0.929 . S
C261 C253 1.433 1_556 S
C261 N263 1.384 . S
N262 C258 1.427 1_554 S
N262 C259 1.384 . S
N263 C255 1.427 1_556 S
N263 C261 1.384 . S
H264 C270 0.930 . S
H265 C274 0.930 . S
H266 C279 0.929 . S
H267 C277 0.929 . S
H268 C272 0.929 . S
H269 C278 0.929 . S
C270 H264 0.930 . S
C270 C271 1.367 . S
C270 C278 1.378 . S
C271 C270 1.367 . S
C271 C279 1.433 . S
C272 H268 0.929 . S
C272 C274 1.378 . S
C272 C276 1.350 . S
C273 C276 1.463 . S
C273 C278 1.350 . S
C273 N281 1.427 . S
C274 H265 0.930 . S
C274 C272 1.378 . S
C274 C275 1.367 . S
C275 C274 1.367 . S
C275 C277 1.433 . S
C276 C272 1.350 . S
C276 C273 1.463 . S
C276 N280 1.427 . S
C277 H267 0.929 . S
C277 C275 1.433 . S
C277 N280 1.384 . S
C278 H269 0.929 . S
C278 C270 1.378 . S
C278 C273 1.350 . S
C279 H266 0.929 . S
C279 C271 1.433 . S
C279 N281 1.384 . S
N280 C276 1.427 . S
N280 C277 1.384 . S
N281 C273 1.427 . S
N281 C279 1.384 . S
H282 C288 0.930 . S
H283 C292 0.930 . S
H284 C297 0.929 . S
H285 C295 0.929 . S
H286 C290 0.929 . S
H287 C296 0.929 . S
C288 H282 0.930 . S
C288 C289 1.367 . S
C288 C296 1.378 . S
C289 C288 1.367 . S
C289 C297 1.433 . S
C290 H286 0.929 . S
C290 C292 1.378 . S
C290 C294 1.350 . S
C291 C294 1.463 1_655 S
C291 C296 1.350 . S
C291 N299 1.427 . S
C292 H283 0.930 . S
C292 C290 1.378 . S
C292 C293 1.367 . S
C293 C292 1.367 . S
C293 C295 1.433 . S
C294 C290 1.350 . S
C294 C291 1.463 1_455 S
C294 N298 1.427 . S
C295 H285 0.929 . S
C295 C293 1.433 . S
C295 N298 1.384 . S
C296 H287 0.929 . S
C296 C288 1.378 . S
C296 C291 1.350 . S
C297 H284 0.929 . S
C297 C289 1.433 . S
C297 N299 1.384 . S
N298 C294 1.427 . S
N298 C295 1.384 . S
N299 C291 1.427 . S
N299 C297 1.384 . S
H300 C306 0.930 . S
H301 C310 0.930 . S
H302 C315 0.929 . S
H303 C313 0.929 . S
H304 C308 0.929 . S
H305 C314 0.929 . S
C306 H300 0.930 . S
C306 C307 1.367 1_556 S
C306 C314 1.378 . S
C307 C306 1.367 1_554 S
C307 C315 1.433 . S
C308 H304 0.929 . S
C308 C310 1.378 . S
C308 C312 1.350 1_554 S
C309 C312 1.463 1_544 S
C309 C314 1.350 1_554 S
C309 N317 1.427 . S
C310 H301 0.930 . S
C310 C308 1.378 . S
C310 C311 1.367 1_554 S
C311 C310 1.367 1_556 S
C311 C313 1.433 . S
C312 C308 1.350 1_556 S
C312 C309 1.463 1_566 S
C312 N316 1.427 . S
C313 H303 0.929 . S
C313 C311 1.433 . S
C313 N316 1.384 . S
C314 H305 0.929 . S
C314 C306 1.378 . S
C314 C309 1.350 1_556 S
C315 H302 0.929 . S
C315 C307 1.433 . S
C315 N317 1.384 . S
N316 C312 1.427 . S
N316 C313 1.384 . S
N317 C309 1.427 . S
N317 C315 1.384 . S
H318 C324 0.930 . S
H319 C328 0.930 . S
H320 C333 0.929 . S
H321 C331 0.929 . S
H322 C326 0.929 . S
H323 C332 0.929 . S
C324 H318 0.930 . S
C324 C325 1.367 . S
C324 C332 1.378 . S
C325 C324 1.367 . S
C325 C333 1.433 . S
C326 H322 0.929 . S
C326 C328 1.378 . S
C326 C330 1.350 . S
C327 C330 1.463 . S
C327 C332 1.350 . S
C327 N335 1.427 . S
C328 H319 0.930 . S
C328 C326 1.378 . S
C328 C329 1.367 . S
C329 C328 1.367 . S
C329 C331 1.433 . S
C330 C326 1.350 . S
C330 C327 1.463 . S
C330 N334 1.427 . S
C331 H321 0.929 . S
C331 C329 1.433 . S
C331 N334 1.384 . S
C332 H323 0.929 . S
C332 C324 1.378 . S
C332 C327 1.350 . S
C333 H320 0.929 . S
C333 C325 1.433 . S
C333 N335 1.384 . S
N334 C330 1.427 . S
N334 C331 1.384 . S
N335 C327 1.427 . S
N335 C333 1.384 . S
H336 C342 0.930 . S
H337 C346 0.930 . S
H338 C351 0.929 . S
H339 C349 0.929 . S
H340 C344 0.929 . S
H341 C350 0.929 . S
C342 H336 0.930 . S
C342 C343 1.367 . S
C342 C350 1.378 . S
C343 C342 1.367 . S
C343 C351 1.433 . S
C344 H340 0.929 . S
C344 C346 1.378 . S
C344 C348 1.350 . S
C345 C348 1.463 1_455 S
C345 C350 1.350 . S
C345 N353 1.427 . S
C346 H337 0.930 . S
C346 C344 1.378 . S
C346 C347 1.367 . S
C347 C346 1.367 . S
C347 C349 1.433 . S
C348 C344 1.350 . S
C348 C345 1.463 1_655 S
C348 N352 1.427 . S
C349 H339 0.929 . S
C349 C347 1.433 . S
C349 N352 1.384 . S
C350 H341 0.929 . S
C350 C342 1.378 . S
C350 C345 1.350 . S
C351 H338 0.929 . S
C351 C343 1.433 . S
C351 N353 1.384 . S
N352 C348 1.427 . S
N352 C349 1.384 . S
N353 C345 1.427 . S
N353 C351 1.384 . S
H354 C360 0.930 . S
H355 C364 0.930 . S
H356 C369 0.929 . S
H357 C367 0.929 . S
H358 C362 0.929 . S
H359 C368 0.929 . S
C360 H354 0.930 . S
C360 C361 1.367 . S
C360 C368 1.378 . S
C361 C360 1.367 . S
C361 C369 1.433 . S
C362 H358 0.929 . S
C362 C364 1.378 . S
C362 C366 1.350 . S
C363 C366 1.463 1_546 S
C363 C368 1.350 . S
C363 N371 1.427 . S
C364 H355 0.930 . S
C364 C362 1.378 . S
C364 C365 1.367 . S
C365 C364 1.367 . S
C365 C367 1.433 . S
C366 C362 1.350 . S
C366 C363 1.463 1_564 S
C366 N370 1.427 . S
C367 H357 0.929 . S
C367 C365 1.433 . S
C367 N370 1.384 . S
C368 H359 0.929 . S
C368 C360 1.378 . S
C368 C363 1.350 . S
C369 H356 0.929 . S
C369 C361 1.433 . S
C369 N371 1.384 . S
N370 C366 1.427 . S
N370 C367 1.384 . S
N371 C363 1.427 . S
N371 C369 1.384 . S
H372 C378 0.930 . S
H373 C382 0.930 . S
H374 C387 0.929 . S
H375 C385 0.929 . S
H376 C380 0.929 . S
H377 C386 0.929 . S
C378 H372 0.930 . S
C378 C379 1.367 . S
C378 C386 1.378 . S
C379 C378 1.367 . S
C379 C387 1.433 . S
C380 H376 0.929 . S
C380 C382 1.378 . S
C380 C384 1.350 . S
C381 C384 1.463 1_655 S
C381 C386 1.350 . S
C381 N389 1.427 . S
C382 H373 0.930 . S
C382 C380 1.378 . S
C382 C383 1.367 . S
C383 C382 1.367 . S
C383 C385 1.433 . S
C384 C380 1.350 . S
C384 C381 1.463 1_455 S
C384 N388 1.427 . S
C385 H375 0.929 . S
C385 C383 1.433 . S
C385 N388 1.384 . S
C386 H377 0.929 . S
C386 C378 1.378 . S
C386 C381 1.350 . S
C387 H374 0.929 . S
C387 C379 1.433 . S
C387 N389 1.384 . S
N388 C384 1.427 . S
N388 C385 1.384 . S
N389 C381 1.427 . S
N389 C387 1.384 . S
H390 C396 0.930 . S
H391 C400 0.930 . S
H392 C405 0.929 . S
H393 C403 0.929 . S
H394 C398 0.929 . S
H395 C404 0.929 . S
C396 H390 0.930 . S
C396 C397 1.367 . S
C396 C404 1.378 1_545 S
C397 C396 1.367 . S
C397 C405 1.433 . S
C398 H394 0.929 . S
C398 C400 1.378 1_545 S
C398 C402 1.350 1_545 S
C399 C402 1.463 1_545 S
C399 C404 1.350 1_545 S
C399 N407 1.427 . S
C400 H391 0.930 . S
C400 C398 1.378 1_565 S
C400 C401 1.367 . S
C401 C400 1.367 . S
C401 C403 1.433 . S
C402 C398 1.350 1_565 S
C402 C399 1.463 1_565 S
C402 N406 1.427 . S
C403 H393 0.929 . S
C403 C401 1.433 . S
C403 N406 1.384 . S
C404 H395 0.929 . S
C404 C396 1.378 1_565 S
C404 C399 1.350 1_565 S
C405 H392 0.929 . S
C405 C397 1.433 . S
C405 N407 1.384 . S
N406 C402 1.427 . S
N406 C403 1.384 . S
N407 C399 1.427 . S
N407 C405 1.384 . S
H408 C414 0.930 . S
H409 C418 0.930 . S
H410 C423 0.929 . S
H411 C421 0.929 . S
H412 C416 0.929 . S
H413 C422 0.929 . S
C414 H408 0.930 . S
C414 C415 1.367 . S
C414 C422 1.378 . S
C415 C414 1.367 . S
C415 C423 1.433 . S
C416 H412 0.929 . S
C416 C418 1.378 . S
C416 C420 1.350 . S
C417 C420 1.463 . S
C417 C422 1.350 . S
C417 N425 1.427 . S
C418 H409 0.930 . S
C418 C416 1.378 . S
C418 C419 1.367 . S
C419 C418 1.367 . S
C419 C421 1.433 . S
C420 C416 1.350 . S
C420 C417 1.463 . S
C420 N424 1.427 . S
C421 H411 0.929 . S
C421 C419 1.433 . S
C421 N424 1.384 . S
C422 H413 0.929 . S
C422 C414 1.378 . S
C422 C417 1.350 . S
C423 H410 0.929 . S
C423 C415 1.433 . S
C423 N425 1.384 . S
N424 C420 1.427 . S
N424 C421 1.384 . S
N425 C417 1.427 . S
N425 C423 1.384 . S
H426 C432 0.930 . S
H427 C436 0.930 . S
H428 C441 0.929 . S
H429 C439 0.929 . S
H430 C434 0.929 . S
H431 C440 0.958 . S
C432 H426 0.930 . S
C432 C433 1.367 . S
C432 C440 1.364 1_455 S
C433 C432 1.367 . S
C433 C441 1.433 . S
C434 H430 0.929 . S
C434 C436 1.378 1_455 S
C434 C438 1.350 1_455 S
C435 C438 1.463 1_455 S
C435 C440 1.334 1_455 S
C435 N443 1.427 . S
C436 H427 0.930 . S
C436 C434 1.378 1_655 S
C436 C437 1.367 . S
C437 C436 1.367 . S
C437 C439 1.433 . S
C438 C434 1.350 1_655 S
C438 C435 1.463 1_655 S
C438 N442 1.427 . S
C439 H429 0.929 . S
C439 C437 1.433 . S
C439 N442 1.384 . S
C440 H431 0.958 . S
C440 C432 1.364 1_655 S
C440 C435 1.334 1_655 S
C441 H428 0.929 . S
C441 C433 1.433 . S
C441 N443 1.384 . S
N442 C438 1.427 . S
N442 C439 1.384 . S
N443 C435 1.427 . S
N443 C441 1.384 . S
H444 C450 0.930 . S
H445 C454 0.930 . S
H446 C459 0.929 . S
H447 C457 0.929 . S
H448 C452 0.929 1_545 S
H449 C458 0.929 1_565 S
C450 H444 0.930 . S
C450 C451 1.367 . S
C450 C458 1.378 . S
C451 C450 1.367 . S
C451 C459 1.433 . S
C452 H448 0.929 1_565 S
C452 C454 1.378 . S
C452 C456 1.350 . S
C453 C456 1.463 1_545 S
C453 C458 1.350 . S
C453 N461 1.427 . S
C454 H445 0.930 . S
C454 C452 1.378 . S
C454 C455 1.367 . S
C455 C454 1.367 . S
C455 C457 1.433 . S
C456 C452 1.350 . S
C456 C453 1.463 1_565 S
C456 N460 1.427 . S
C457 H447 0.929 . S
C457 C455 1.433 . S
C457 N460 1.384 . S
C458 H449 0.929 1_545 S
C458 C450 1.378 . S
C458 C453 1.350 . S
C459 H446 0.929 . S
C459 C451 1.433 . S
C459 N461 1.384 . S
N460 C456 1.427 . S
N460 C457 1.384 . S
N461 C453 1.427 . S
N461 C459 1.384 . S
H462 C468 0.930 . S
H463 C472 0.930 . S
H464 C477 0.929 . S
H465 C475 0.929 . S
H466 C470 0.929 . S
H467 C476 0.929 . S
C468 H462 0.930 . S
C468 C469 1.367 . S
C468 C476 1.378 . S
C469 C468 1.367 . S
C469 C477 1.433 . S
C470 H466 0.929 . S
C470 C472 1.378 . S
C470 C474 1.350 . S
C471 C474 1.463 . S
C471 C476 1.350 . S
C471 N479 1.427 . S
C472 H463 0.930 . S
C472 C470 1.378 . S
C472 C473 1.367 . S
C473 C472 1.367 . S
C473 C475 1.433 . S
C474 C470 1.350 . S
C474 C471 1.463 . S
C474 N478 1.427 . S
C475 H465 0.929 . S
C475 C473 1.433 . S
C475 N478 1.384 . S
C476 H467 0.929 . S
C476 C468 1.378 . S
C476 C471 1.350 . S
C477 H464 0.929 . S
C477 C469 1.433 . S
C477 N479 1.384 . S
N478 C474 1.427 . S
N478 C475 1.384 . S
N479 C471 1.427 . S
N479 C477 1.384 . S
H480 C486 0.930 . S
H481 C490 0.930 . S
H482 C495 0.929 . S
H483 C493 0.929 . S
H484 C488 0.929 . S
H485 C494 0.929 . S
C486 H480 0.930 . S
C486 C487 1.367 . S
C486 C494 1.378 . S
C487 C486 1.367 . S
C487 C495 1.433 . S
C488 H484 0.929 . S
C488 C490 1.378 . S
C488 C492 1.350 . S
C489 C492 1.463 . S
C489 C494 1.350 . S
C489 N497 1.427 . S
C490 H481 0.930 . S
C490 C488 1.378 . S
C490 C491 1.367 . S
C491 C490 1.367 . S
C491 C493 1.433 . S
C492 C488 1.350 . S
C492 C489 1.463 . S
C492 N496 1.427 . S
C493 H483 0.929 . S
C493 C491 1.433 . S
C493 N496 1.384 . S
C494 H485 0.929 . S
C494 C486 1.378 . S
C494 C489 1.350 . S
C495 H482 0.929 . S
C495 C487 1.433 . S
C495 N497 1.384 . S
N496 C492 1.427 . S
N496 C493 1.384 . S
N497 C489 1.427 . S
N497 C495 1.384 . S
H498 C504 0.930 . S
H499 C508 0.930 . S
H500 C513 0.929 . S
H501 C511 0.929 . S
H502 C506 0.929 . S
H503 C512 0.929 . S
C504 H498 0.930 . S
C504 C505 1.367 . S
C504 C512 1.378 . S
C505 C504 1.367 . S
C505 C513 1.433 . S
C506 H502 0.929 . S
C506 C508 1.378 . S
C506 C510 1.350 . S
C507 C510 1.463 . S
C507 C512 1.350 . S
C507 N515 1.427 . S
C508 H499 0.930 . S
C508 C506 1.378 . S
C508 C509 1.367 . S
C509 C508 1.367 . S
C509 C511 1.433 . S
C510 C506 1.350 . S
C510 C507 1.463 . S
C510 N514 1.427 . S
C511 H501 0.929 . S
C511 C509 1.433 . S
C511 N514 1.384 . S
C512 H503 0.929 . S
C512 C504 1.378 . S
C512 C507 1.350 . S
C513 H500 0.929 . S
C513 C505 1.433 . S
C513 N515 1.384 . S
N514 C510 1.427 . S
N514 C511 1.384 . S
N515 C507 1.427 . S
N515 C513 1.384 . S
H516 C522 0.930 . S
H517 C526 0.930 . S
H518 C531 0.929 . S
H519 C529 0.929 . S
H520 C524 0.929 . S
H521 C530 0.929 . S
C522 H516 0.930 . S
C522 C523 1.367 . S
C522 C530 1.378 . S
C523 C522 1.367 . S
C523 C531 1.433 . S
C524 H520 0.929 . S
C524 C526 1.378 . S
C524 C528 1.350 . S
C525 C528 1.463 . S
C525 C530 1.350 . S
C525 N533 1.427 . S
C526 H517 0.930 . S
C526 C524 1.378 . S
C526 C527 1.367 . S
C527 C526 1.367 . S
C527 C529 1.433 . S
C528 C524 1.350 . S
C528 C525 1.463 . S
C528 N532 1.427 . S
C529 H519 0.929 . S
C529 C527 1.433 . S
C529 N532 1.384 . S
C530 H521 0.929 . S
C530 C522 1.378 . S
C530 C525 1.350 . S
C531 H518 0.929 . S
C531 C523 1.433 . S
C531 N533 1.384 . S
N532 C528 1.427 . S
N532 C529 1.384 . S
N533 C525 1.427 . S
N533 C531 1.384 . S
H534 C540 0.930 . S
H535 C544 0.930 . S
H536 C549 0.929 . S
H537 C547 0.929 . S
H538 C542 0.929 . S
H539 C548 0.929 . S
C540 H534 0.930 . S
C540 C541 1.367 . S
C540 C548 1.378 . S
C541 C540 1.367 . S
C541 C549 1.433 . S
C542 H538 0.929 . S
C542 C544 1.378 . S
C542 C546 1.350 . S
C543 C546 1.463 . S
C543 C548 1.350 . S
C543 N551 1.427 . S
C544 H535 0.930 . S
C544 C542 1.378 . S
C544 C545 1.367 . S
C545 C544 1.367 . S
C545 C547 1.433 . S
C546 C542 1.350 . S
C546 C543 1.463 . S
C546 N550 1.427 . S
C547 H537 0.929 . S
C547 C545 1.433 . S
C547 N550 1.384 . S
C548 H539 0.929 . S
C548 C540 1.378 . S
C548 C543 1.350 . S
C549 H536 0.929 . S
C549 C541 1.433 . S
C549 N551 1.384 . S
N550 C546 1.427 . S
N550 C547 1.384 . S
N551 C543 1.427 . S
N551 C549 1.384 . S
H552 C558 0.930 . S
H553 C562 0.930 . S
H554 C567 0.929 . S
H555 C565 0.929 . S
H556 C560 0.929 . S
H557 C566 0.929 . S
C558 H552 0.930 . S
C558 C559 1.367 . S
C558 C566 1.378 . S
C559 C558 1.367 . S
C559 C567 1.433 . S
C560 H556 0.929 . S
C560 C562 1.378 . S
C560 C564 1.350 . S
C561 C564 1.463 . S
C561 C566 1.350 . S
C561 N569 1.427 . S
C562 H553 0.930 . S
C562 C560 1.378 . S
C562 C563 1.367 . S
C563 C562 1.367 . S
C563 C565 1.433 . S
C564 C560 1.350 . S
C564 C561 1.463 . S
C564 N568 1.427 . S
C565 H555 0.929 . S
C565 C563 1.433 . S
C565 N568 1.384 . S
C566 H557 0.929 . S
C566 C558 1.378 . S
C566 C561 1.350 . S
C567 H554 0.929 . S
C567 C559 1.433 . S
C567 N569 1.384 . S
N568 C564 1.427 . S
N568 C565 1.384 . S
N569 C561 1.427 . S
N569 C567 1.384 . S
H570 C576 0.930 . S
H571 C580 0.930 . S
H572 C585 0.929 . S
H573 C583 0.929 . S
H574 C578 0.929 . S
H575 C584 0.929 . S
C576 H570 0.930 . S
C576 C577 1.367 . S
C576 C584 1.378 . S
C577 C576 1.367 . S
C577 C585 1.433 . S
C578 H574 0.929 . S
C578 C580 1.378 . S
C578 C582 1.350 . S
C579 C582 1.463 . S
C579 C584 1.350 . S
C579 N587 1.427 . S
C580 H571 0.930 . S
C580 C578 1.378 . S
C580 C581 1.367 . S
C581 C580 1.367 . S
C581 C583 1.433 . S
C582 C578 1.350 . S
C582 C579 1.463 . S
C582 N586 1.427 . S
C583 H573 0.929 . S
C583 C581 1.433 . S
C583 N586 1.384 . S
C584 H575 0.929 . S
C584 C576 1.378 . S
C584 C579 1.350 . S
C585 H572 0.929 . S
C585 C577 1.433 . S
C585 N587 1.384 . S
N586 C582 1.427 . S
N586 C583 1.384 . S
N587 C579 1.427 . S
N587 C585 1.384 . S
C163 C10 1.336 . S
C167 C88 1.344 . S
C181 C23 1.340 . S
C185 C101 1.339 . S
C199 C36 1.332 . S
C203 C114 1.319 . S
C217 C127 1.344 . S
C221 C49 1.335 . S
C235 C62 1.349 . S
C239 C140 1.333 . S
C253 C153 1.321 . S
C257 C75 1.331 . S
C271 C8 0.817 . S
C275 C125 0.820 . S
C289 C21 0.811 . S
C293 C138 0.816 . S
C307 C151 0.780 . S
C311 C34 0.776 . S
C325 C86 0.816 . S
C329 C47 0.819 . S
C343 C60 0.794 . S
C347 C99 0.790 . S
C361 C73 0.800 . S
C365 C112 0.790 . S
C379 C143 1.795 . S
C383 C0 1.787 . S
C397 C13 1.831 . S
C401 C78 1.833 . S
C415 C26 1.789 . S
C419 C91 1.789 . S
C433 C104 1.799 . S
C437 C39 1.792 . S
C451 C117 1.828 . S
C455 C52 1.832 . S
C469 C65 1.790 . S
C473 C130 1.791 . S
C487 C5 0.715 . S
C491 C135 0.732 . S
C505 C148 0.747 . S
C509 C18 0.734 . S
C523 C83 0.729 . S
C527 C31 0.749 . S
C541 C44 0.731 . S
C545 C96 0.744 . S
C559 C109 0.754 . S
C563 C57 0.765 . S
C577 C122 0.755 . S
C581 C70 0.743 . S
