# Generated by pormake.
# Topology vbm, (6)-cn, num edge types: 1
# Building blocks:
#     Node 0, Type 0, BuildingBlock: INOVEN_clean_sbu_0, # of connection points: 6
#     Node 1, Type 0, BuildingBlock: INOVEN_clean_sbu_0, # of connection points: 6
#     Node 2, Type 0, BuildingBlock: INOVEN_clean_sbu_0, # of connection points: 6
#     Node 3, Type 0, BuildingBlock: INOVEN_clean_sbu_0, # of connection points: 6
#     Node 4, Type 0, BuildingBlock: INOVEN_clean_sbu_0, # of connection points: 6
#     Node 5, Type 0, BuildingBlock: INOVEN_clean_sbu_0, # of connection points: 6
#     Node 6, Type 0, BuildingBlock: INOVEN_clean_sbu_0, # of connection points: 6
#     Node 7, Type 0, BuildingBlock: INOVEN_clean_sbu_0, # of connection points: 6
#     Node 8, Type 0, BuildingBlock: INOVEN_clean_sbu_0, # of connection points: 6
#     Node 9, Type 0, BuildingBlock: INOVEN_clean_sbu_0, # of connection points: 6
#     Node 10, Type 0, BuildingBlock: INOVEN_clean_sbu_0, # of connection points: 6
#     Node 11, Type 0, BuildingBlock: INOVEN_clean_sbu_0, # of connection points: 6
#     Node 12, Type 0, BuildingBlock: INOVEN_clean_sbu_0, # of connection points: 6
#     Node 13, Type 0, BuildingBlock: INOVEN_clean_sbu_0, # of connection points: 6
#     Node 14, Type 0, BuildingBlock: INOVEN_clean_sbu_0, # of connection points: 6
#     Node 15, Type 0, BuildingBlock: INOVEN_clean_sbu_0, # of connection points: 6
#     Edge 16, Type (0, 0), BuildingBlock: AJUNOK_clean_linker_0, # of connection points: 2
#     Edge 17, Type (0, 0), BuildingBlock: AJUNOK_clean_linker_0, # of connection points: 2
#     Edge 18, Type (0, 0), BuildingBlock: AJUNOK_clean_linker_0, # of connection points: 2
#     Edge 19, Type (0, 0), BuildingBlock: AJUNOK_clean_linker_0, # of connection points: 2
#     Edge 20, Type (0, 0), BuildingBlock: AJUNOK_clean_linker_0, # of connection points: 2
#     Edge 21, Type (0, 0), BuildingBlock: AJUNOK_clean_linker_0, # of connection points: 2
#     Edge 22, Type (0, 0), BuildingBlock: AJUNOK_clean_linker_0, # of connection points: 2
#     Edge 23, Type (0, 0), BuildingBlock: AJUNOK_clean_linker_0, # of connection points: 2
#     Edge 24, Type (0, 0), BuildingBlock: AJUNOK_clean_linker_0, # of connection points: 2
#     Edge 25, Type (0, 0), BuildingBlock: AJUNOK_clean_linker_0, # of connection points: 2
#     Edge 26, Type (0, 0), BuildingBlock: AJUNOK_clean_linker_0, # of connection points: 2
#     Edge 27, Type (0, 0), BuildingBlock: AJUNOK_clean_linker_0, # of connection points: 2
#     Edge 28, Type (0, 0), BuildingBlock: AJUNOK_clean_linker_0, # of connection points: 2
#     Edge 29, Type (0, 0), BuildingBlock: AJUNOK_clean_linker_0, # of connection points: 2
#     Edge 30, Type (0, 0), BuildingBlock: AJUNOK_clean_linker_0, # of connection points: 2
#     Edge 31, Type (0, 0), BuildingBlock: AJUNOK_clean_linker_0, # of connection points: 2
#     Edge 32, Type (0, 0), BuildingBlock: AJUNOK_clean_linker_0, # of connection points: 2
#     Edge 33, Type (0, 0), BuildingBlock: AJUNOK_clean_linker_0, # of connection points: 2
#     Edge 34, Type (0, 0), BuildingBlock: AJUNOK_clean_linker_0, # of connection points: 2
#     Edge 35, Type (0, 0), BuildingBlock: AJUNOK_clean_linker_0, # of connection points: 2
#     Edge 36, Type (0, 0), BuildingBlock: AJUNOK_clean_linker_0, # of connection points: 2
#     Edge 37, Type (0, 0), BuildingBlock: AJUNOK_clean_linker_0, # of connection points: 2
#     Edge 38, Type (0, 0), BuildingBlock: AJUNOK_clean_linker_0, # of connection points: 2
#     Edge 39, Type (0, 0), BuildingBlock: AJUNOK_clean_linker_0, # of connection points: 2
#     Edge 40, Type (0, 0), BuildingBlock: AJUNOK_clean_linker_0, # of connection points: 2
#     Edge 41, Type (0, 0), BuildingBlock: AJUNOK_clean_linker_0, # of connection points: 2
#     Edge 42, Type (0, 0), BuildingBlock: AJUNOK_clean_linker_0, # of connection points: 2
#     Edge 43, Type (0, 0), BuildingBlock: AJUNOK_clean_linker_0, # of connection points: 2
#     Edge 44, Type (0, 0), BuildingBlock: AJUNOK_clean_linker_0, # of connection points: 2
#     Edge 45, Type (0, 0), BuildingBlock: AJUNOK_clean_linker_0, # of connection points: 2
#     Edge 46, Type (0, 0), BuildingBlock: AJUNOK_clean_linker_0, # of connection points: 2
#     Edge 47, Type (0, 0), BuildingBlock: AJUNOK_clean_linker_0, # of connection points: 2
#     Edge 48, Type (0, 0), BuildingBlock: AJUNOK_clean_linker_0, # of connection points: 2
#     Edge 49, Type (0, 0), BuildingBlock: AJUNOK_clean_linker_0, # of connection points: 2
#     Edge 50, Type (0, 0), BuildingBlock: AJUNOK_clean_linker_0, # of connection points: 2
#     Edge 51, Type (0, 0), BuildingBlock: AJUNOK_clean_linker_0, # of connection points: 2
#     Edge 52, Type (0, 0), BuildingBlock: AJUNOK_clean_linker_0, # of connection points: 2
#     Edge 53, Type (0, 0), BuildingBlock: AJUNOK_clean_linker_0, # of connection points: 2
#     Edge 54, Type (0, 0), BuildingBlock: AJUNOK_clean_linker_0, # of connection points: 2
#     Edge 55, Type (0, 0), BuildingBlock: AJUNOK_clean_linker_0, # of connection points: 2
#     Edge 56, Type (0, 0), BuildingBlock: AJUNOK_clean_linker_0, # of connection points: 2
#     Edge 57, Type (0, 0), BuildingBlock: AJUNOK_clean_linker_0, # of connection points: 2
#     Edge 58, Type (0, 0), BuildingBlock: AJUNOK_clean_linker_0, # of connection points: 2
#     Edge 59, Type (0, 0), BuildingBlock: AJUNOK_clean_linker_0, # of connection points: 2
#     Edge 60, Type (0, 0), BuildingBlock: AJUNOK_clean_linker_0, # of connection points: 2
#     Edge 61, Type (0, 0), BuildingBlock: AJUNOK_clean_linker_0, # of connection points: 2
#     Edge 62, Type (0, 0), BuildingBlock: AJUNOK_clean_linker_0, # of connection points: 2
#     Edge 63, Type (0, 0), BuildingBlock: AJUNOK_clean_linker_0, # of connection points: 2
# Relax obj value: 0.060
# Max RMSD: 0.146
# Mean RMSD: 0.146
data_MOF--net-vbm--node1-INOVEN_clean_sbu_0--edge1-AJUNOK_clean_linker_0
_symmetry_space_group_name_H-M    P1
_symmetry_Int_Tables_number       1
_symmetry_cell_setting            triclinic
loop_
_symmetry_equiv_pos_as_xyz
'x, y, z'
_cell_length_a     39.83594
_cell_length_b     21.439843
_cell_length_c     39.658579
_cell_angle_alpha  90.145079
_cell_angle_beta   89.869025
_cell_angle_gamma 89.995948
loop_
_atom_site_label
_atom_site_type_symbol
_atom_site_fract_x
_atom_site_fract_y
_atom_site_fract_z
_atom_type_partial_charge
Gd0 Gd 0.13597 0.08199 0.16544 0.0
Gd1 Gd 0.09853 0.20795 0.17502 0.0
C2 C 0.0548 0.09443 0.15281 0.0
C3 C 0.15807 0.97231 0.18115 0.0
C4 C 0.15071 0.90535 0.17518 0.0
C5 C 0.16946 0.87021 0.15177 0.0
C6 C 0.12649 0.87472 0.19501 0.0
C7 C 0.14028 0.7754 0.16872 0.0
C8 C 0.12133 0.81067 0.19176 0.0
C9 C 0.16418 0.80579 0.14846 0.0
C10 C 0.12584 0.13105 0.10334 0.0
C11 C 0.17909 0.20791 0.1683 0.0
C12 C 0.07648 0.32094 0.18098 0.0
C13 C 0.08701 0.38589 0.17559 0.0
C14 C 0.07338 0.43228 0.19641 0.0
C15 C 0.11111 0.40218 0.15126 0.0
C16 C 0.10826 0.51081 0.16936 0.0
C17 C 0.12167 0.46432 0.14815 0.0
C18 C 0.08385 0.49408 0.19334 0.0
C19 C 0.10005 0.12847 0.22878 0.0
O20 O 0.08031 0.05781 0.16159 0.0
O21 O 0.05785 0.15531 0.15067 0.0
O22 O 0.17083 1.00526 0.15642 0.0
O23 O 0.13587 1.00328 0.19887 0.0
O24 O 0.14068 0.07822 0.10881 0.0
O25 O 0.11695 0.15514 0.13117 0.0
O26 O 0.15081 0.23874 0.16435 0.0
O27 O 0.17986 0.14699 0.17399 0.0
O28 O 0.09202 0.29126 0.20514 0.0
O29 O 0.07111 0.28628 0.15425 0.0
O30 O 0.07394 0.16018 0.21966 0.0
O31 O 0.12409 0.14103 0.20908 0.0
H32 H 0.18868 0.89222 0.13654 0.0
H33 H 0.11183 0.89992 0.21362 0.0
H34 H 0.10263 0.78849 0.20757 0.0
H35 H 0.17944 0.77949 0.13081 0.0
H36 H 0.05478 0.42055 0.21535 0.0
H37 H 0.12193 0.36685 0.13499 0.0
H38 H 0.14076 0.47579 0.1297 0.0
H39 H 0.07283 0.52893 0.20981 0.0
Gd40 Gd 0.84108 0.99154 0.16738 0.0
Gd41 Gd 0.88085 0.86581 0.17232 0.0
C42 C 0.92216 0.98383 0.15206 0.0
C43 C 0.81979 0.10003 0.18654 0.0
C44 C 0.82524 0.16732 0.18055 0.0
C45 C 0.82019 0.19532 0.14892 0.0
C46 C 0.83615 0.20434 0.20764 0.0
C47 C 0.83786 0.29589 0.17165 0.0
C48 C 0.84257 0.26774 0.2032 0.0
C49 C 0.82636 0.25928 0.14455 0.0
C50 C 0.84924 0.94602 0.1039 0.0
C51 C 0.7996 0.86395 0.1761 0.0
C52 C 0.903 0.75232 0.17186 0.0
C53 C 0.89041 0.68737 0.16995 0.0
C54 C 0.89532 0.64778 0.19763 0.0
C55 C 0.87495 0.66328 0.14081 0.0
C56 C 0.8704 0.56078 0.16704 0.0
C57 C 0.86508 0.60051 0.13937 0.0
C58 C 0.88536 0.5854 0.19625 0.0
C59 C 0.879 0.94073 0.22811 0.0
O60 O 0.8961 1.01783 0.1622 0.0
O61 O 0.92066 0.92275 0.14902 0.0
O62 O 0.80449 0.06661 0.16341 0.0
O63 O 0.84492 0.07076 0.2006 0.0
O64 O 0.83313 0.99693 0.11116 0.0
O65 O 0.85967 0.92135 0.13092 0.0
O66 O 0.82764 0.83332 0.16983 0.0
O67 O 0.7988 0.92546 0.17964 0.0
O68 O 0.89592 0.78312 0.1995 0.0
O69 O 0.90135 0.78696 0.1447 0.0
O70 O 0.90559 0.91094 0.21804 0.0
O71 O 0.8551 0.92863 0.20831 0.0
H72 H 0.81182 0.16787 0.12758 0.0
H73 H 0.84001 0.18397 0.23232 0.0
H74 H 0.85119 0.29496 0.22455 0.0
H75 H 0.82282 0.27984 0.1199 0.0
H76 H 0.90728 0.66497 0.22034 0.0
H77 H 0.87094 0.69253 0.11896 0.0
H78 H 0.8541 0.58272 0.11631 0.0
H79 H 0.88956 0.55618 0.21809 0.0
Gd80 Gd 0.1364 0.98842 0.39959 0.0
Gd81 Gd 0.09736 0.86263 0.3916 0.0
C82 C 0.05504 0.97861 0.41327 0.0
C83 C 0.15851 0.09726 0.38225 0.0
C84 C 0.15302 0.16462 0.38836 0.0
C85 C 0.15802 0.19269 0.42005 0.0
C86 C 0.14302 0.20197 0.36116 0.0
C87 C 0.14286 0.29435 0.39695 0.0
C88 C 0.13792 0.26588 0.3654 0.0
C89 C 0.15301 0.25708 0.42429 0.0
C90 C 0.12586 0.9412 0.46209 0.0
C91 C 0.17835 0.86094 0.39559 0.0
C92 C 0.07626 0.74866 0.38807 0.0
C93 C 0.08864 0.6841 0.3925 0.0
C94 C 0.0863 0.64249 0.36524 0.0
C95 C 0.1022 0.66281 0.42312 0.0
C96 C 0.11063 0.55926 0.39889 0.0
C97 C 0.11302 0.60079 0.4263 0.0
C98 C 0.09729 0.58095 0.36833 0.0
C99 C 0.09946 0.94029 0.33712 0.0
O100 O 0.08108 1.01402 0.40456 0.0
O101 O 0.05669 0.91738 0.41483 0.0
O102 O 0.17265 0.06348 0.40586 0.0
O103 O 0.13415 0.06817 0.3667 0.0
O104 O 0.1414 0.99325 0.45621 0.0
O105 O 0.11677 0.91696 0.43441 0.0
O106 O 0.14982 0.83118 0.40004 0.0
O107 O 0.17964 0.92203 0.39041 0.0
O108 O 0.08853 0.77911 0.36227 0.0
O109 O 0.07242 0.78371 0.41497 0.0
O110 O 0.07321 0.90883 0.34636 0.0
O111 O 0.1234 0.92794 0.35691 0.0
H112 H 0.16591 0.16512 0.44146 0.0
H113 H 0.13912 0.18157 0.33643 0.0
H114 H 0.12982 0.29308 0.34392 0.0
H115 H 0.15752 0.2778 0.44879 0.0
H116 H 0.07579 0.6576 0.34144 0.0
H117 H 0.1045 0.69392 0.44455 0.0
H118 H 0.12357 0.5855 0.45003 0.0
H119 H 0.09487 0.54989 0.34688 0.0
Gd120 Gd 0.84217 0.08095 0.39923 0.0
Gd121 Gd 0.88148 0.20693 0.39109 0.0
C122 C 0.9232 0.0907 0.41391 0.0
C123 C 0.82069 0.97143 0.38211 0.0
C124 C 0.82688 0.9041 0.38798 0.0
C125 C 0.81234 0.8719 0.41522 0.0
C126 C 0.84618 0.87043 0.36444 0.0
C127 C 0.83654 0.77397 0.39513 0.0
C128 C 0.85107 0.80641 0.36807 0.0
C129 C 0.81718 0.80738 0.41879 0.0
C130 C 0.85106 0.13144 0.46142 0.0
C131 C 0.80021 0.20788 0.39032 0.0
C132 C 0.90368 0.3202 0.38885 0.0
C133 C 0.89129 0.38473 0.39232 0.0
C134 C 0.90313 0.42989 0.36975 0.0
C135 C 0.86782 0.40205 0.41719 0.0
C136 C 0.86862 0.50922 0.39681 0.0
C137 C 0.85668 0.46401 0.41951 0.0
C138 C 0.89185 0.49141 0.37188 0.0
C139 C 0.87946 0.12821 0.33691 0.0
O140 O 0.89732 0.0554 0.40465 0.0
O141 O 0.92139 0.15191 0.41533 0.0
O142 O 0.80641 1.00491 0.40594 0.0
O143 O 0.84459 1.00141 0.3663 0.0
O144 O 0.83539 0.07935 0.45584 0.0
O145 O 0.86082 0.15398 0.43362 0.0
O146 O 0.82831 0.23892 0.39556 0.0
O147 O 0.79948 0.14625 0.38732 0.0
O148 O 0.89337 0.28962 0.36223 0.0
O149 O 0.90477 0.28575 0.4161 0.0
O150 O 0.90599 0.15913 0.34595 0.0
O151 O 0.85568 0.14122 0.35679 0.0
H152 H 0.79688 0.89627 0.43348 0.0
H153 H 0.85731 0.8935 0.34285 0.0
H154 H 0.86627 0.78215 0.34953 0.0
H155 H 0.80517 0.78347 0.43959 0.0
H156 H 0.92117 0.4175 0.35036 0.0
H157 H 0.85804 0.36781 0.43468 0.0
H158 H 0.83844 0.4764 0.43868 0.0
H159 H 0.90157 0.52537 0.35418 0.0
Gd160 Gd 0.88013 0.86698 0.8909 0.0
Gd161 Gd 0.8422 0.99255 0.89828 0.0
C162 C 0.79962 0.86586 0.89416 0.0
C163 C 0.90161 0.75332 0.88659 0.0
C164 C 0.8904 0.68832 0.89137 0.0
C165 C 0.89815 0.64454 0.86624 0.0
C166 C 0.87257 0.66888 0.92013 0.0
C167 C 0.87107 0.56226 0.89853 0.0
C168 C 0.86298 0.60622 0.92369 0.0
C169 C 0.8886 0.58229 0.86975 0.0
C170 C 0.87948 0.94421 0.83618 0.0
C171 C 0.92327 0.98072 0.9122 0.0
C172 C 0.82046 0.10175 0.88099 0.0
C173 C 0.82645 0.169 0.88731 0.0
C174 C 0.81639 0.19888 0.91733 0.0
C175 C 0.84196 0.20452 0.86196 0.0
C176 C 0.83848 0.29785 0.89674 0.0
C177 C 0.84808 0.26797 0.86669 0.0
C178 C 0.82233 0.2629 0.92198 0.0
C179 C 0.85053 0.94623 0.96127 0.0
O180 O 0.82783 0.83602 0.89977 0.0
O181 O 0.79883 0.92672 0.88819 0.0
O182 O 0.88802 0.78327 0.86138 0.0
O183 O 0.9059 0.78829 0.91341 0.0
O184 O 0.90553 0.91328 0.84623 0.0
O185 O 0.85506 0.93228 0.85554 0.0
O186 O 0.89786 1.017 0.90277 0.0
O187 O 0.9201 0.92014 0.91566 0.0
O188 O 0.80608 0.06806 0.90452 0.0
O189 O 0.84468 0.07214 0.86539 0.0
O190 O 0.83536 0.99818 0.95449 0.0
O191 O 0.86051 0.92086 0.93409 0.0
H192 H 0.9118 0.65851 0.84383 0.0
H193 H 0.86624 0.70187 0.93987 0.0
H194 H 0.84983 0.59194 0.94631 0.0
H195 H 0.89494 0.54965 0.84982 0.0
H196 H 0.80411 0.1729 0.93723 0.0
H197 H 0.84948 0.18311 0.83833 0.0
H198 H 0.86024 0.29392 0.84669 0.0
H199 H 0.81485 0.28483 0.94545 0.0
Gd200 Gd 0.09753 0.20823 0.89204 0.0
Gd201 Gd 0.13774 0.08259 0.89915 0.0
C202 C 0.17886 0.21033 0.89169 0.0
C203 C 0.07516 0.32146 0.89062 0.0
C204 C 0.08717 0.38646 0.8937 0.0
C205 C 0.07789 0.42943 0.86883 0.0
C206 C 0.10708 0.40676 0.92085 0.0
C207 C 0.10731 0.51268 0.8984 0.0
C208 C 0.11699 0.46945 0.92321 0.0
C209 C 0.08787 0.4917 0.87108 0.0
C210 C 0.10049 0.13163 0.83708 0.0
C211 C 0.05624 0.08996 0.91211 0.0
C212 C 0.15969 0.9735 0.88168 0.0
C213 C 0.15307 0.90631 0.88751 0.0
C214 C 0.16352 0.87542 0.91695 0.0
C215 C 0.13663 0.87183 0.86228 0.0
C216 C 0.14025 0.7775 0.89598 0.0
C217 C 0.13011 0.80842 0.86655 0.0
C218 C 0.15717 0.81147 0.92112 0.0
C219 C 0.12744 0.13091 0.96175 0.0
O220 O 0.15055 0.24066 0.8971 0.0
O221 O 0.18007 0.1489 0.88797 0.0
O222 O 0.08495 0.29106 0.86369 0.0
O223 O 0.07462 0.28682 0.91784 0.0
O224 O 0.07383 0.16212 0.84625 0.0
O225 O 0.12412 0.14398 0.85723 0.0
O226 O 0.08272 0.05618 0.90297 0.0
O227 O 0.05738 0.15116 0.91482 0.0
O228 O 0.1736 1.00678 0.90574 0.0
O229 O 0.13607 1.00365 0.86567 0.0
O230 O 0.14346 0.07929 0.9559 0.0
O231 O 0.118 0.15392 0.93401 0.0
H232 H 0.06265 0.41484 0.84762 0.0
H233 H 0.1147 0.37449 0.94035 0.0
H234 H 0.13158 0.48431 0.94479 0.0
H235 H 0.08031 0.52361 0.85137 0.0
H236 H 0.17648 0.90053 0.93675 0.0
H237 H 0.12877 0.89397 0.83906 0.0
H238 H 0.11734 0.78328 0.84662 0.0
H239 H 0.16504 0.78878 0.94416 0.0
Gd240 Gd 0.88219 0.21027 0.67342 0.0
Gd241 Gd 0.8429 0.08494 0.66536 0.0
C242 C 0.80117 0.21227 0.67083 0.0
C243 C 0.90437 0.32355 0.67708 0.0
C244 C 0.89289 0.38849 0.67267 0.0
C245 C 0.90196 0.43283 0.69702 0.0
C246 C 0.87298 0.40704 0.64524 0.0
C247 C 0.87114 0.51351 0.66706 0.0
C248 C 0.86224 0.46917 0.64243 0.0
C249 C 0.89118 0.49456 0.69431 0.0
C250 C 0.88063 0.13189 0.7276 0.0
C251 C 0.92406 0.09465 0.65049 0.0
C252 C 0.82116 0.97546 0.68218 0.0
C253 C 0.82779 0.90819 0.67619 0.0
C254 C 0.81438 0.87604 0.64831 0.0
C255 C 0.84636 0.87453 0.70014 0.0
C256 C 0.83816 0.7782 0.66864 0.0
C257 C 0.85158 0.81057 0.69634 0.0
C258 C 0.81959 0.81161 0.64454 0.0
C259 C 0.85225 0.13357 0.60298 0.0
O260 O 0.82961 0.2422 0.66597 0.0
O261 O 0.79993 0.15113 0.67577 0.0
O262 O 0.89158 0.29361 0.70279 0.0
O263 O 0.90762 0.28859 0.65008 0.0
O264 O 0.9069 0.16297 0.71806 0.0
O265 O 0.85647 0.14461 0.70819 0.0
O266 O 0.89818 0.05942 0.65992 0.0
O267 O 0.9221 0.15575 0.64877 0.0
O268 O 0.80738 1.0087 0.65814 0.0
O269 O 0.84449 1.00586 0.69856 0.0
O270 O 0.83661 0.08165 0.60886 0.0
O271 O 0.86198 0.1571 0.63061 0.0
H272 H 0.91738 0.4196 0.71832 0.0
H273 H 0.86553 0.37358 0.62617 0.0
H274 H 0.84654 0.48227 0.62135 0.0
H275 H 0.89873 0.52772 0.7135 0.0
H276 H 0.79951 0.90038 0.62968 0.0
H277 H 0.85665 0.89756 0.72217 0.0
H278 H 0.86616 0.78627 0.71523 0.0
H279 H 0.80848 0.78774 0.62322 0.0
Gd280 Gd 0.09708 0.8657 0.67426 0.0
Gd281 Gd 0.13721 0.99102 0.6662 0.0
C282 C 0.17819 0.8628 0.67441 0.0
C283 C 0.07524 0.75209 0.67659 0.0
C284 C 0.08782 0.68705 0.67429 0.0
C285 C 0.0895 0.65078 0.70369 0.0
C286 C 0.09625 0.65925 0.6432 0.0
C287 C 0.10583 0.55947 0.67095 0.0
C288 C 0.10531 0.59608 0.64159 0.0
C289 C 0.09861 0.58795 0.70207 0.0
C290 C 0.10004 0.94336 0.72874 0.0
C291 C 0.05589 0.98253 0.65238 0.0
C292 C 0.1597 0.09948 0.68391 0.0
C293 C 0.15405 0.16682 0.67877 0.0
C294 C 0.15117 0.19375 0.64661 0.0
C295 C 0.15013 0.20465 0.70742 0.0
C296 C 0.13891 0.29481 0.6722 0.0
C297 C 0.14258 0.26787 0.7042 0.0
C298 C 0.14387 0.25756 0.64337 0.0
C299 C 0.12693 0.9422 0.6039 0.0
O300 O 0.14979 0.83293 0.66933 0.0
O301 O 0.17985 0.92446 0.67694 0.0
O302 O 0.08419 0.78395 0.7033 0.0
O303 O 0.07472 0.78588 0.64906 0.0
O304 O 0.0733 0.913 0.71978 0.0
O305 O 0.12366 0.93052 0.70858 0.0
O306 O 0.08202 1.01752 0.66131 0.0
O307 O 0.05725 0.9213 0.65067 0.0
O308 O 0.17326 0.06639 0.65952 0.0
O309 O 0.13545 0.0703 0.69958 0.0
O310 O 0.14293 0.99391 0.60953 0.0
O311 O 0.11751 0.91917 0.63173 0.0
H312 H 0.08316 0.67073 0.72801 0.0
H313 H 0.09518 0.68582 0.62004 0.0
H314 H 0.11089 0.57536 0.61727 0.0
H315 H 0.09961 0.56135 0.72524 0.0
H316 H 0.15399 0.16548 0.62411 0.0
H317 H 0.15234 0.1849 0.73247 0.0
H318 H 0.13932 0.29575 0.7268 0.0
H319 H 0.14116 0.27742 0.61844 0.0
Gd320 Gd 0.63577 0.5915 0.16232 0.0
Gd321 Gd 0.59811 0.7076 0.17422 0.0
C322 C 0.55407 0.59578 0.15278 0.0
C323 C 0.65889 0.47792 0.16241 0.0
C324 C 0.64822 0.41155 0.16336 0.0
C325 C 0.65829 0.37134 0.13721 0.0
C326 C 0.63016 0.38659 0.19073 0.0
C327 C 0.63268 0.28245 0.16563 0.0
C328 C 0.62257 0.32268 0.19187 0.0
C329 C 0.65061 0.30764 0.13828 0.0
C330 C 0.63422 0.66512 0.10655 0.0
C331 C 0.6782 0.71303 0.17693 0.0
C332 C 0.57567 0.82094 0.18026 0.0
C333 C 0.58726 0.88656 0.17809 0.0
C334 C 0.57845 0.92847 0.2039 0.0
C335 C 0.60575 0.9088 0.15036 0.0
C336 C 0.60477 1.01447 0.17361 0.0
C337 C 0.61441 0.97212 0.14816 0.0
C338 C 0.5872 0.9916 0.20177 0.0
C339 C 0.59842 0.62627 0.22739 0.0
O340 O 0.58074 0.56165 0.1606 0.0
O341 O 0.55588 0.65676 0.15155 0.0
O342 O 0.65254 0.50916 0.13492 0.0
O343 O 0.65499 0.51159 0.18967 0.0
O344 O 0.66038 0.63513 0.1173 0.0
O345 O 0.60977 0.65579 0.1265 0.0
O346 O 0.6505 0.74224 0.16873 0.0
O347 O 0.67878 0.65166 0.17995 0.0
O348 O 0.58673 0.78816 0.20563 0.0
O349 O 0.57401 0.78861 0.15228 0.0
O350 O 0.57243 0.65769 0.21761 0.0
O351 O 0.62325 0.64061 0.20913 0.0
H352 H 0.67269 0.38907 0.11609 0.0
H353 H 0.62219 0.41619 0.21143 0.0
H354 H 0.6087 0.30469 0.21326 0.0
H355 H 0.65938 0.27781 0.11802 0.0
H356 H 0.56424 0.91251 0.22555 0.0
H357 H 0.61324 0.87747 0.13024 0.0
H358 H 0.62863 0.98798 0.12651 0.0
H359 H 0.57939 1.02292 0.22178 0.0
Gd360 Gd 0.34136 0.48847 0.16442 0.0
Gd361 Gd 0.38074 0.36258 0.17354 0.0
C362 C 0.42283 0.48031 0.1532 0.0
C363 C 0.31846 0.59743 0.1811 0.0
C364 C 0.32615 0.66479 0.17707 0.0
C365 C 0.30659 0.7026 0.15585 0.0
C366 C 0.35135 0.69305 0.19672 0.0
C367 C 0.33646 0.79537 0.17502 0.0
C368 C 0.35648 0.75742 0.1956 0.0
C369 C 0.31188 0.76726 0.15463 0.0
C370 C 0.35327 0.4397 0.10237 0.0
C371 C 0.29938 0.36063 0.17128 0.0
C372 C 0.40366 0.24971 0.17534 0.0
C373 C 0.3911 0.18501 0.17451 0.0
C374 C 0.40657 0.14046 0.19508 0.0
C375 C 0.36396 0.16702 0.15408 0.0
C376 C 0.36813 0.06044 0.17498 0.0
C377 C 0.35271 0.10502 0.15415 0.0
C378 C 0.39524 0.07883 0.19532 0.0
C379 C 0.37698 0.44066 0.22775 0.0
O380 O 0.39643 0.51517 0.16139 0.0
O381 O 0.42151 0.41901 0.15136 0.0
O382 O 0.30713 0.56611 0.15504 0.0
O383 O 0.33959 0.56522 0.19926 0.0
O384 O 0.3376 0.49186 0.10771 0.0
O385 O 0.36194 0.4163 0.13036 0.0
O386 O 0.3278 0.32922 0.17061 0.0
O387 O 0.29786 0.42246 0.17151 0.0
O388 O 0.39617 0.28194 0.20238 0.0
O389 O 0.4016 0.28239 0.14751 0.0
O390 O 0.4037 0.40953 0.21938 0.0
O391 O 0.35369 0.42802 0.20722 0.0
H392 H 0.28676 0.68238 0.14072 0.0
H393 H 0.36683 0.66571 0.21356 0.0
H394 H 0.37606 0.77765 0.21107 0.0
H395 H 0.29615 0.79552 0.13849 0.0
H396 H 0.42755 0.15337 0.21099 0.0
H397 H 0.35145 0.20077 0.13817 0.0
H398 H 0.33176 0.09202 0.13825 0.0
H399 H 0.408 0.04526 0.21115 0.0
Gd400 Gd 0.63633 0.4807 0.40399 0.0
Gd401 Gd 0.59838 0.36488 0.39276 0.0
C402 C 0.55469 0.47717 0.41386 0.0
C403 C 0.65916 0.59443 0.40343 0.0
C404 C 0.64807 0.66045 0.40091 0.0
C405 C 0.65439 0.70142 0.42786 0.0
C406 C 0.63339 0.68442 0.3714 0.0
C407 C 0.63188 0.78908 0.39598 0.0
C408 C 0.62544 0.74803 0.36896 0.0
C409 C 0.64638 0.76485 0.42547 0.0
C410 C 0.63472 0.4079 0.46007 0.0
C411 C 0.67863 0.35869 0.38959 0.0
C412 C 0.57555 0.25174 0.38724 0.0
C413 C 0.58716 0.18588 0.38767 0.0
C414 C 0.58149 0.14801 0.35929 0.0
C415 C 0.60208 0.15911 0.41633 0.0
C416 C 0.60356 0.05711 0.38872 0.0
C417 C 0.61025 0.09544 0.41679 0.0
C418 C 0.58973 0.08453 0.35973 0.0
C419 C 0.59869 0.44574 0.3394 0.0
O420 O 0.58133 0.51077 0.40525 0.0
O421 O 0.55648 0.41628 0.41591 0.0
O422 O 0.65146 0.56443 0.43101 0.0
O423 O 0.65704 0.55928 0.37652 0.0
O424 O 0.66092 0.43752 0.44902 0.0
O425 O 0.61023 0.41717 0.44023 0.0
O426 O 0.65071 0.32959 0.39729 0.0
O427 O 0.67945 0.42012 0.38688 0.0
O428 O 0.5847 0.28559 0.36147 0.0
O429 O 0.5758 0.28304 0.41561 0.0
O430 O 0.57263 0.41477 0.34953 0.0
O431 O 0.62358 0.43126 0.35744 0.0
H432 H 0.66599 0.68447 0.45077 0.0
H433 H 0.6285 0.65435 0.34997 0.0
H434 H 0.61494 0.7653 0.34562 0.0
H435 H 0.65153 0.79503 0.44678 0.0
H436 H 0.57013 0.16737 0.33683 0.0
H437 H 0.60692 0.18698 0.4386 0.0
H438 H 0.62099 0.0758 0.43948 0.0
H439 H 0.58505 0.05676 0.33738 0.0
Gd440 Gd 0.34198 0.58201 0.39848 0.0
Gd441 Gd 0.38078 0.70794 0.38984 0.0
C442 C 0.4233 0.59137 0.41057 0.0
C443 C 0.31988 0.47331 0.38052 0.0
C444 C 0.32625 0.40559 0.38462 0.0
C445 C 0.31231 0.37122 0.41138 0.0
C446 C 0.34491 0.37381 0.3598 0.0
C447 C 0.33518 0.27479 0.38792 0.0
C448 C 0.34954 0.30945 0.36159 0.0
C449 C 0.31692 0.30639 0.41311 0.0
C450 C 0.35271 0.62979 0.46085 0.0
C451 C 0.29955 0.70925 0.39217 0.0
C452 C 0.40315 0.82111 0.38734 0.0
C453 C 0.39036 0.88568 0.38873 0.0
C454 C 0.40138 0.92828 0.36433 0.0
C455 C 0.36745 0.9056 0.41356 0.0
C456 C 0.36697 1.00996 0.38936 0.0
C457 C 0.35604 0.96747 0.414 0.0
C458 C 0.3898 0.98974 0.36459 0.0
C459 C 0.37725 0.63052 0.33528 0.0
O460 O 0.39713 0.55601 0.4024 0.0
O461 O 0.42175 0.65262 0.41206 0.0
O462 O 0.30676 0.50513 0.40563 0.0
O463 O 0.34303 0.50437 0.36425 0.0
O464 O 0.33708 0.57777 0.45501 0.0
O465 O 0.36183 0.65401 0.43312 0.0
O466 O 0.32783 0.74084 0.39422 0.0
O467 O 0.29845 0.64747 0.39049 0.0
O468 O 0.39487 0.78891 0.36057 0.0
O469 O 0.40236 0.78818 0.41516 0.0
O470 O 0.40402 0.66108 0.34392 0.0
O471 O 0.35395 0.64302 0.35589 0.0
H472 H 0.2975 0.39416 0.4307 0.0
H473 H 0.35571 0.39864 0.33862 0.0
H474 H 0.36443 0.28672 0.34225 0.0
H475 H 0.30563 0.28079 0.43374 0.0
H476 H 0.41908 0.91397 0.34501 0.0
H477 H 0.35838 0.8735 0.43256 0.0
H478 H 0.33843 0.98198 0.43333 0.0
H479 H 0.39907 1.02177 0.34565 0.0
Gd480 Gd 0.38093 0.36618 0.89013 0.0
Gd481 Gd 0.34008 0.4915 0.89917 0.0
C482 C 0.2994 0.36324 0.88946 0.0
C483 C 0.40434 0.25347 0.88877 0.0
C484 C 0.39252 0.18832 0.89034 0.0
C485 C 0.41116 0.14211 0.8737 0.0
C486 C 0.36294 0.17152 0.90743 0.0
C487 C 0.37061 0.0629 0.89045 0.0
C488 C 0.35215 0.10918 0.90762 0.0
C489 C 0.40042 0.08008 0.87383 0.0
C490 C 0.37737 0.44409 0.83606 0.0
C491 C 0.42163 0.48516 0.91088 0.0
C492 C 0.31743 0.60111 0.8839 0.0
C493 C 0.32568 0.66793 0.88922 0.0
C494 C 0.30182 0.70849 0.90353 0.0
C495 C 0.35616 0.69296 0.87733 0.0
C496 C 0.3378 0.79788 0.89193 0.0
C497 C 0.36208 0.75716 0.87862 0.0
C498 C 0.30793 0.7729 0.90512 0.0
C499 C 0.35141 0.44113 0.96102 0.0
O500 O 0.32798 0.33287 0.89276 0.0
O501 O 0.29745 0.42502 0.88886 0.0
O502 O 0.39615 0.28455 0.86167 0.0
O503 O 0.40227 0.28698 0.9164 0.0
O504 O 0.4041 0.41314 0.84441 0.0
O505 O 0.3539 0.4313 0.85643 0.0
O506 O 0.39503 0.51895 0.90224 0.0
O507 O 0.42075 0.4239 0.913 0.0
O508 O 0.30583 0.56895 0.90949 0.0
O509 O 0.33839 0.56928 0.86515 0.0
O510 O 0.33511 0.49267 0.95607 0.0
O511 O 0.36056 0.41932 0.93278 0.0
H512 H 0.43411 0.15406 0.8605 0.0
H513 H 0.34809 0.20655 0.92036 0.0
H514 H 0.32911 0.09732 0.92066 0.0
H515 H 0.41565 0.04537 0.86111 0.0
H516 H 0.27806 0.69057 0.91267 0.0
H517 H 0.37522 0.66325 0.86622 0.0
H518 H 0.38554 0.77517 0.86877 0.0
H519 H 0.28886 0.8034 0.91557 0.0
Gd520 Gd 0.59819 0.71117 0.89237 0.0
Gd521 Gd 0.63478 0.59435 0.90422 0.0
C522 C 0.67853 0.71506 0.89051 0.0
C523 C 0.57522 0.82418 0.88751 0.0
C524 C 0.58717 0.88986 0.88784 0.0
C525 C 0.59446 0.92093 0.85747 0.0
C526 C 0.58904 0.92359 0.91826 0.0
C527 C 0.60415 1.01823 0.88784 0.0
C528 C 0.59759 0.98692 0.91825 0.0
C529 C 0.603 0.98429 0.85749 0.0
C530 C 0.59876 0.63015 0.83889 0.0
C531 C 0.55322 0.60025 0.91253 0.0
C532 C 0.65742 0.48064 0.904 0.0
C533 C 0.64639 0.41478 0.90026 0.0
C534 C 0.64014 0.37825 0.929 0.0
C535 C 0.64487 0.38615 0.86832 0.0
C536 C 0.63125 0.28604 0.89406 0.0
C537 C 0.63738 0.32253 0.86526 0.0
C538 C 0.63258 0.31477 0.92593 0.0
C539 C 0.63361 0.66795 0.96008 0.0
O540 O 0.65071 0.74636 0.89576 0.0
O541 O 0.67876 0.65353 0.88878 0.0
O542 O 0.58336 0.78979 0.86149 0.0
O543 O 0.57629 0.79317 0.91585 0.0
O544 O 0.57277 0.66188 0.84859 0.0
O545 O 0.6234 0.64371 0.8575 0.0
O546 O 0.57958 0.5655 0.90429 0.0
O547 O 0.5559 0.66087 0.91524 0.0
O548 O 0.64826 0.51035 0.93133 0.0
O549 O 0.65686 0.5162 0.87725 0.0
O550 O 0.65953 0.6374 0.94914 0.0
O551 O 0.60904 0.65921 0.94018 0.0
H552 H 0.59303 0.89656 0.83356 0.0
H553 H 0.58323 0.90145 0.94208 0.0
H554 H 0.59814 1.01188 0.94203 0.0
H555 H 0.60854 1.00681 0.8337 0.0
H556 H 0.64163 0.39846 0.95401 0.0
H557 H 0.65016 0.41254 0.84566 0.0
H558 H 0.63727 0.30157 0.84039 0.0
H559 H 0.62791 0.28799 0.94859 0.0
Gd560 Gd 0.3804 0.70719 0.67277 0.0
Gd561 Gd 0.34013 0.5818 0.66548 0.0
C562 C 0.29899 0.70975 0.67304 0.0
C563 C 0.40262 0.82057 0.6741 0.0
C564 C 0.39014 0.88548 0.67175 0.0
C565 C 0.39562 0.92616 0.69896 0.0
C566 C 0.37388 0.90824 0.64281 0.0
C567 C 0.36984 1.01179 0.66821 0.0
C568 C 0.36387 0.9709 0.64106 0.0
C569 C 0.38555 0.98845 0.69726 0.0
C570 C 0.37681 0.63172 0.72791 0.0
C571 C 0.42186 0.588 0.65425 0.0
C572 C 0.31777 0.47324 0.68308 0.0
C573 C 0.3241 0.40585 0.67778 0.0
C574 C 0.31758 0.37557 0.64696 0.0
C575 C 0.33673 0.37081 0.70481 0.0
C576 C 0.33715 0.2769 0.67034 0.0
C577 C 0.34337 0.30729 0.70109 0.0
C578 C 0.32401 0.3115 0.64331 0.0
C579 C 0.35118 0.62875 0.60277 0.0
O580 O 0.32738 0.74004 0.66809 0.0
O581 O 0.29774 0.64828 0.67631 0.0
O582 O 0.39383 0.78973 0.70115 0.0
O583 O 0.40259 0.78605 0.64673 0.0
O584 O 0.40354 0.66212 0.71896 0.0
O585 O 0.35337 0.64369 0.70748 0.0
O586 O 0.39503 0.55475 0.66275 0.0
O587 O 0.42099 0.64916 0.65117 0.0
O588 O 0.30422 0.50608 0.65873 0.0
O589 O 0.34145 0.50331 0.6991 0.0
O590 O 0.33484 0.57758 0.60872 0.0
O591 O 0.36046 0.65231 0.63053 0.0
H592 H 0.40807 0.90984 0.72156 0.0
H593 H 0.36929 0.87801 0.6214 0.0
H594 H 0.35225 0.98769 0.61815 0.0
H595 H 0.39021 1.01857 0.71872 0.0
H596 H 0.30773 0.40128 0.6257 0.0
H597 H 0.34162 0.39273 0.72898 0.0
H598 H 0.35322 0.28169 0.72241 0.0
H599 H 0.31927 0.28924 0.61924 0.0
Gd600 Gd 0.59971 0.36541 0.67459 0.0
Gd601 Gd 0.6357 0.48305 0.66214 0.0
C602 C 0.6801 0.36286 0.6756 0.0
C603 C 0.57653 0.25256 0.67999 0.0
C604 C 0.58795 0.18688 0.68031 0.0
C605 C 0.57355 0.14541 0.70353 0.0
C606 C 0.61185 0.16422 0.65719 0.0
C607 C 0.60582 0.05904 0.67994 0.0
C608 C 0.62057 0.10084 0.65693 0.0
C609 C 0.58236 0.0822 0.70338 0.0
C610 C 0.59985 0.44696 0.72779 0.0
C611 C 0.55425 0.47605 0.65515 0.0
C612 C 0.65872 0.59652 0.66151 0.0
C613 C 0.64887 0.6628 0.66478 0.0
C614 C 0.66339 0.70646 0.64287 0.0
C615 C 0.62655 0.68379 0.68988 0.0
C616 C 0.63414 0.79153 0.67132 0.0
C617 C 0.61924 0.74761 0.69309 0.0
C618 C 0.65608 0.77001 0.64602 0.0
C619 C 0.63443 0.40852 0.60648 0.0
O620 O 0.65237 0.33101 0.67102 0.0
O621 O 0.68011 0.42444 0.677 0.0
O622 O 0.5848 0.287 0.70587 0.0
O623 O 0.57841 0.28276 0.65143 0.0
O624 O 0.57411 0.41438 0.7184 0.0
O625 O 0.62459 0.43386 0.70909 0.0
O626 O 0.58047 0.5115 0.66268 0.0
O627 O 0.55719 0.41546 0.65214 0.0
O628 O 0.64886 0.56696 0.63445 0.0
O629 O 0.65763 0.56176 0.68856 0.0
O630 O 0.66028 0.43963 0.61701 0.0
O631 O 0.61001 0.4174 0.62661 0.0
H632 H 0.55498 0.16176 0.7215 0.0
H633 H 0.62347 0.19526 0.63909 0.0
H634 H 0.63882 0.0844 0.63867 0.0
H635 H 0.5701 0.05112 0.72102 0.0
H636 H 0.68079 0.69141 0.62344 0.0
H637 H 0.61491 0.65102 0.70706 0.0
H638 H 0.60173 0.76253 0.71242 0.0
H639 H 0.66807 0.80255 0.62896 0.0
C640 C 0.23859 0.2272 0.18604 0.0
C641 C 0.21041 0.24508 0.16718 0.0
C642 C 0.2671 0.26554 0.18765 0.0
C643 C 0.26828 0.3233 0.17075 0.0
H644 H 0.23837 0.18408 0.20021 0.0
H645 H 0.2883 0.25011 0.20254 0.0
S646 S 0.20319 0.38707 0.114 0.0
N647 N 0.187 0.32133 0.12827 0.0
N648 N 0.24028 0.39358 0.13213 0.0
C649 C 0.24073 0.34084 0.15107 0.0
C650 C 0.21191 0.3016 0.14904 0.0
C651 C 0.76972 0.7611 0.17392 0.0
C652 C 0.76832 0.82642 0.17884 0.0
C653 C 0.7407 0.72417 0.17468 0.0
C654 C 0.70908 0.75099 0.18022 0.0
H655 H 0.79336 0.738 0.16881 0.0
H656 H 0.74302 0.67459 0.16975 0.0
S657 S 0.69162 0.9184 0.19803 0.0
N658 N 0.73258 0.91533 0.1919 0.0
N659 N 0.67813 0.84611 0.19347 0.0
C660 C 0.70734 0.81579 0.18652 0.0
C661 C 0.73691 0.85341 0.18578 0.0
C662 C 0.26818 0.80772 0.38016 0.0
C663 C 0.26816 0.74607 0.39251 0.0
C664 C 0.23931 0.84514 0.38169 0.0
C665 C 0.20937 0.82245 0.39585 0.0
H666 H 0.29069 0.82724 0.36899 0.0
H667 H 0.24041 0.89179 0.37132 0.0
S668 S 0.19738 0.66612 0.43495 0.0
N669 N 0.23647 0.66537 0.42116 0.0
N670 N 0.18234 0.73521 0.42469 0.0
C671 C 0.20934 0.76117 0.40906 0.0
C672 C 0.23866 0.72307 0.40716 0.0
C673 C 0.77018 0.31057 0.39245 0.0
C674 C 0.76881 0.24514 0.38801 0.0
C675 C 0.74114 0.34743 0.39168 0.0
C676 C 0.7095 0.32048 0.38657 0.0
H677 H 0.79383 0.33387 0.39713 0.0
H678 H 0.74348 0.39714 0.39614 0.0
S679 S 0.69205 0.15242 0.37056 0.0
N680 N 0.73304 0.15578 0.3762 0.0
N681 N 0.67854 0.22482 0.37457 0.0
C682 C 0.70777 0.25544 0.38092 0.0
C683 C 0.73736 0.21789 0.3817 0.0
C684 C 0.71036 0.81194 0.87664 0.0
C685 C 0.71008 0.75093 0.8898 0.0
C686 C 0.73917 0.84949 0.87848 0.0
C687 C 0.76857 0.82755 0.89393 0.0
H688 H 0.68809 0.83087 0.86481 0.0
H689 H 0.73843 0.89567 0.8675 0.0
S690 S 0.77918 0.67316 0.93559 0.0
N691 N 0.74068 0.67158 0.92042 0.0
N692 N 0.79457 0.74177 0.92487 0.0
C693 C 0.7682 0.76683 0.90789 0.0
C694 C 0.73905 0.72855 0.90552 0.0
C695 C 0.23786 0.34894 0.89898 0.0
C696 C 0.26858 0.32495 0.88748 0.0
C697 C 0.20915 0.31135 0.9002 0.0
C698 C 0.20995 0.24826 0.88983 0.0
H699 H 0.23614 0.39659 0.90799 0.0
H700 H 0.18623 0.33202 0.90984 0.0
S701 S 0.28364 0.1649 0.8543 0.0
N702 N 0.29771 0.23547 0.86314 0.0
N703 N 0.24375 0.16493 0.8656 0.0
C704 C 0.24034 0.22421 0.87737 0.0
C705 C 0.26961 0.26252 0.87611 0.0
C706 C 0.71246 0.26712 0.6902 0.0
C707 C 0.71176 0.32732 0.67602 0.0
C708 C 0.74122 0.22952 0.68806 0.0
C709 C 0.77018 0.25059 0.67134 0.0
H710 H 0.69052 0.24886 0.70302 0.0
H711 H 0.74082 0.18401 0.69986 0.0
S712 S 0.77942 0.40183 0.62633 0.0
N713 N 0.74139 0.40455 0.64281 0.0
N714 N 0.79522 0.33405 0.63791 0.0
C715 C 0.76939 0.3103 0.6563 0.0
C716 C 0.74027 0.34869 0.65892 0.0
C717 C 0.24047 0.84983 0.66921 0.0
C718 C 0.20893 0.82408 0.6765 0.0
C719 C 0.2693 0.81242 0.66835 0.0
C720 C 0.26782 0.74768 0.6749 0.0
H721 H 0.24285 0.89894 0.66326 0.0
H722 H 0.29288 0.83468 0.66203 0.0
S723 S 0.19144 0.65834 0.69827 0.0
N724 N 0.17808 0.73039 0.69262 0.0
N725 N 0.23218 0.66039 0.6908 0.0
C726 C 0.23651 0.72168 0.68318 0.0
C727 C 0.20714 0.75975 0.68407 0.0
C728 C 0.12992 1.0122 0.29625 0.0
C729 C 0.09965 0.98806 0.30942 0.0
C730 C 0.13007 0.05726 0.27019 0.0
C731 C 0.09996 0.08015 0.25619 0.0
H732 H 0.15372 0.99616 0.30614 0.0
H733 H 0.15397 0.07448 0.26105 0.0
S734 S 0.01389 1.03185 0.28134 0.0
N735 N 0.03875 0.99071 0.306 0.0
N736 N 0.03904 0.07432 0.25753 0.0
C737 C 0.06961 0.05622 0.26913 0.0
C738 C 0.06946 1.01042 0.29546 0.0
C739 C 0.90853 0.05686 0.29538 0.0
C740 C 0.87844 0.08056 0.30915 0.0
C741 C 0.90842 1.01137 0.2696 0.0
C742 C 0.87823 0.98785 0.25614 0.0
H743 H 0.93248 0.07325 0.30477 0.0
H744 H 0.93229 0.99496 0.25991 0.0
S745 S 0.79246 1.03448 0.28306 0.0
N746 N 0.81751 0.07723 0.30689 0.0
N747 N 0.81731 0.99152 0.25902 0.0
C748 C 0.84795 1.01102 0.26973 0.0
C749 C 0.84806 0.05745 0.29593 0.0
C750 C 0.85012 0.06123 0.76895 0.0
C751 C 0.88045 0.08396 0.75521 0.0
C752 C 0.84984 1.01615 0.79496 0.0
C753 C 0.87987 0.99186 0.80843 0.0
H754 H 0.82636 0.0785 0.75956 0.0
H755 H 0.82589 1.00021 0.80459 0.0
S756 S 0.96609 1.03548 0.78132 0.0
N757 N 0.94134 0.07802 0.75722 0.0
N758 N 0.94082 0.99437 0.80571 0.0
C759 C 0.91031 1.01415 0.79482 0.0
C760 C 0.91059 0.05998 0.76848 0.0
C761 C 0.07125 0.05996 0.79612 0.0
C762 C 0.10144 0.08387 0.8094 0.0
C763 C 0.07115 1.01438 0.77043 0.0
C764 C 0.10122 0.99092 0.75653 0.0
H765 H 0.04737 0.07623 0.80586 0.0
H766 H 0.04719 0.99778 0.76117 0.0
S767 S 0.18719 0.03795 0.78216 0.0
N768 N 0.16234 0.08078 0.80627 0.0
N769 N 0.16216 0.99476 0.75854 0.0
C770 C 0.13162 1.01427 0.76962 0.0
C771 C 0.13172 0.06085 0.79577 0.0
C772 C 0.62874 0.51387 0.29648 0.0
C773 C 0.5986 0.4921 0.31105 0.0
C774 C 0.62866 0.5567 0.26936 0.0
C775 C 0.59844 0.58032 0.25595 0.0
H776 H 0.65262 0.49726 0.3059 0.0
H777 H 0.65249 0.57171 0.25897 0.0
S778 S 0.51262 0.53937 0.28543 0.0
N779 N 0.53769 0.49834 0.30994 0.0
N780 N 0.53754 0.57852 0.25977 0.0
C781 C 0.56821 0.55925 0.27053 0.0
C782 C 0.56828 0.51533 0.29779 0.0
C783 C 0.40607 0.55931 0.29373 0.0
C784 C 0.37599 0.58267 0.30764 0.0
C785 C 0.406 0.51336 0.26824 0.0
C786 C 0.37584 0.48892 0.25518 0.0
H787 H 0.43002 0.57623 0.30282 0.0
H788 H 0.42991 0.4972 0.2585 0.0
S789 S 0.29007 0.53414 0.28268 0.0
N790 N 0.31506 0.57814 0.30592 0.0
N791 N 0.31495 0.49115 0.25867 0.0
C792 C 0.34555 0.51174 0.26887 0.0
C793 C 0.34561 0.55882 0.29477 0.0
C794 C 0.40612 0.51593 0.79497 0.0
C795 C 0.37607 0.49169 0.80844 0.0
C796 C 0.40598 0.56129 0.7693 0.0
C797 C 0.37578 0.58421 0.7556 0.0
H798 H 0.4301 0.5001 0.80454 0.0
H799 H 0.42986 0.57813 0.75991 0.0
S800 S 0.29008 0.53566 0.7815 0.0
N801 N 0.31515 0.49347 0.80549 0.0
N802 N 0.31488 0.57925 0.75784 0.0
C803 C 0.34552 0.56042 0.76881 0.0
C804 C 0.34566 0.51401 0.79493 0.0
C805 C 0.62925 0.5604 0.79698 0.0
C806 C 0.59891 0.58355 0.81055 0.0
C807 C 0.62953 0.51696 0.77003 0.0
C808 C 0.59949 0.49398 0.75591 0.0
H809 H 0.65299 0.5763 0.80705 0.0
H810 H 0.6535 0.50078 0.76044 0.0
S811 S 0.51327 0.53925 0.78229 0.0
N812 N 0.53801 0.57988 0.80745 0.0
N813 N 0.53853 0.49833 0.75769 0.0
C814 C 0.56905 0.51661 0.76939 0.0
C815 C 0.56876 0.56126 0.79642 0.0
C816 C 0.0932 0.13482 1.01448 0.0
C817 C 0.12164 0.15498 0.99639 0.0
C818 C 0.09276 0.13498 0.05008 0.0
C819 C 0.1207 0.15546 0.06878 0.0
H820 H 0.07248 0.11329 1.00116 0.0
H821 H 0.07173 0.11348 0.06296 0.0
S822 S 0.19993 0.21817 0.03344 0.0
N823 N 0.17728 0.20038 0.9999 0.0
N824 N 0.17637 0.20092 0.06647 0.0
C825 C 0.1481 0.18024 0.05094 0.0
C826 C 0.14859 0.17992 1.01481 0.0
C827 C 0.82249 0.91678 1.01459 0.0
C828 C 0.85263 0.92205 0.99629 0.0
C829 C 0.82215 0.91696 0.05 0.0
C830 C 0.85194 0.92229 0.06875 0.0
H831 H 0.79868 0.9178 1.00143 0.0
H832 H 0.79809 0.91804 0.06281 0.0
S833 S 0.93783 0.93335 0.03314 0.0
N834 N 0.91335 0.92897 0.99961 0.0
N835 N 0.91272 0.92907 0.06632 0.0
C836 C 0.88251 0.92279 0.05089 0.0
C837 C 0.88285 0.92273 1.01459 0.0
C838 C 0.14692 0.89351 0.51503 0.0
C839 C 0.11976 0.91834 0.49684 0.0
C840 C 0.14722 0.89386 0.55057 0.0
C841 C 0.12034 0.91897 0.56927 0.0
H842 H 0.1694 0.8789 0.50175 0.0
H843 H 0.16991 0.8795 0.5634 0.0
S844 S 0.04257 0.98699 0.53378 0.0
N845 N 0.0646 0.96586 0.50027 0.0
N846 N 0.06512 0.96639 0.56687 0.0
C847 C 0.09207 0.93992 0.55141 0.0
C848 C 0.09179 0.93963 0.51523 0.0
C849 C 0.88551 0.14121 0.54965 0.0
C850 C 0.85676 0.15806 0.56831 0.0
C851 C 0.88517 0.14055 0.51402 0.0
C852 C 0.85604 0.15662 0.49593 0.0
H853 H 0.90726 0.1227 0.56258 0.0
H854 H 0.90669 0.12163 0.50073 0.0
S855 S 0.77549 0.21003 0.53289 0.0
N856 N 0.79954 0.19623 0.56594 0.0
N857 N 0.79886 0.1948 0.49938 0.0
C858 C 0.82819 0.17822 0.51432 0.0
C859 C 0.82856 0.179 0.55042 0.0
C860 C 0.6606 0.68997 0.05098 0.0
C861 C 0.63111 0.67951 0.06975 0.0
C862 C 0.66041 0.69088 1.01557 0.0
C863 C 0.6307 0.68127 0.99705 0.0
H864 H 0.6845 0.69454 0.06376 0.0
H865 H 0.68417 0.69603 1.00252 0.0
S866 S 0.54582 0.65838 0.03386 0.0
N867 N 0.57064 0.66469 0.06704 0.0
N868 N 0.57028 0.6662 1.00042 0.0
C869 C 0.60055 0.67511 1.01542 0.0
C870 C 0.60071 0.67425 0.05174 0.0
C871 C 0.38597 0.43769 1.01339 0.0
C872 C 0.35782 0.41625 0.99532 0.0
C873 C 0.38649 0.43719 0.049 0.0
C874 C 0.35892 0.4151 0.0678 0.0
H875 H 0.40629 0.46057 1.00008 0.0
H876 H 0.40718 0.45981 0.06185 0.0
S877 S 0.28044 0.34926 0.03256 0.0
N878 N 0.30282 0.36827 0.99898 0.0
N879 N 0.30386 0.36715 0.06554 0.0
C880 C 0.33186 0.38912 0.04995 0.0
C881 C 0.33129 0.38976 1.01381 0.0
C882 C 0.66112 0.38382 0.51559 0.0
C883 C 0.63162 0.39426 0.49695 0.0
C884 C 0.66101 0.38381 0.55101 0.0
C885 C 0.63139 0.39427 0.56965 0.0
H886 H 0.68496 0.37862 0.50268 0.0
H887 H 0.68479 0.37866 0.56394 0.0
S888 S 0.54651 0.4175 0.53328 0.0
N889 N 0.57122 0.41001 0.49998 0.0
N890 N 0.57103 0.41012 0.5666 0.0
C891 C 0.6012 0.4004 0.55146 0.0
C892 C 0.60131 0.40036 0.51513 0.0
C893 C 0.38533 0.63815 0.5499 0.0
C894 C 0.356 0.65333 0.56809 0.0
C895 C 0.38577 0.63865 0.51424 0.0
C896 C 0.35693 0.65449 0.4956 0.0
H897 H 0.407 0.62012 0.56315 0.0
H898 H 0.40775 0.62083 0.50126 0.0
S899 S 0.27491 0.703 0.53125 0.0
N900 N 0.29837 0.68903 0.5647 0.0
N901 N 0.29924 0.69012 0.49816 0.0
C902 C 0.32844 0.67428 0.51361 0.0
C903 C 0.32796 0.67365 0.54972 0.0
C904 C 0.98447 0.97627 0.14658 0.0
C905 C 0.95535 1.01364 0.14767 0.0
C906 C 0.01655 1.00274 0.14707 0.0
C907 C 0.02082 0.06769 0.1483 0.0
H908 H 0.98267 0.92584 0.1467 0.0
H909 H 0.03808 0.97192 0.14735 0.0
S910 S 0.95257 0.18657 0.148 0.0
N911 N 0.93282 0.11899 0.14745 0.0
N912 N -0.00708 0.16923 0.14815 0.0
C913 C -0.00814 0.10581 0.14759 0.0
C914 C 0.95919 0.0787 0.14734 0.0
C915 C 0.96092 0.99809 0.41137 0.0
C916 C 0.95648 0.06154 0.41906 0.0
C917 C -0.00713 0.97136 0.41092 0.0
C918 C 0.0217 1.00706 0.41794 0.0
H919 H 0.93977 0.96915 0.4043 0.0
H920 H -0.005 0.92284 0.40353 0.0
S921 S 0.02367 0.1727 0.44454 0.0
N922 N 0.98358 0.15779 0.4378 0.0
N923 N 0.04372 0.10704 0.43627 0.0
C924 C 0.01763 0.06954 0.4275 0.0
C925 C 0.985 0.09685 0.42832 0.0
C926 C -0.00558 0.09601 0.92284 0.0
C927 C 0.02311 0.05947 0.9159 0.0
C928 C 0.96216 0.07013 0.92231 0.0
C929 C 0.95742 1.00666 0.9153 0.0
H930 H -0.00336 0.14551 0.92777 0.0
H931 H 0.94079 0.10027 0.92701 0.0
S932 S 0.02413 0.88999 0.89636 0.0
N933 N 0.04452 0.95587 0.90269 0.0
N934 N 0.98413 0.90722 0.90174 0.0
C935 C 0.98594 0.96904 0.90936 0.0
C936 C 0.01872 0.99544 0.90971 0.0
C937 C 0.96173 1.00203 0.65239 0.0
C938 C 0.95749 0.06579 0.64568 0.0
C939 C -0.00634 0.97532 0.65317 0.0
C940 C 0.02269 1.01135 0.64749 0.0
H941 H 0.94039 0.97273 0.65839 0.0
H942 H -0.00445 0.92643 0.65974 0.0
S943 S 0.0254 0.17837 0.62409 0.0
N944 N 0.98513 0.16306 0.62948 0.0
N945 N 0.04521 0.11227 0.6316 0.0
C946 C 0.01888 0.07428 0.63895 0.0
C947 C 0.98627 0.1016 0.63779 0.0
C948 C 0.48522 0.47447 0.15495 0.0
C949 C 0.45601 0.50984 0.14911 0.0
C950 C 0.51699 0.50213 0.15475 0.0
C951 C 0.5208 0.56617 0.14849 0.0
H952 H 0.48356 0.42532 0.16105 0.0
H953 H 0.53851 0.47334 0.16066 0.0
S954 S 0.45239 0.6777 0.12739 0.0
N955 N 0.433 0.61084 0.13403 0.0
N956 N 0.49267 0.66321 0.13305 0.0
C957 C 0.49187 0.60146 0.14076 0.0
C958 C 0.45948 0.57324 0.14129 0.0
C959 C 0.48558 0.59736 0.40804 0.0
C960 C 0.4565 0.56245 0.4152 0.0
C961 C 0.51742 0.5701 0.40907 0.0
C962 C 0.52141 0.50698 0.41754 0.0
H963 H 0.48376 0.64565 0.40026 0.0
H964 H 0.53887 0.59831 0.40203 0.0
S965 S 0.45332 0.39767 0.44288 0.0
N966 N 0.43372 0.46335 0.4339 0.0
N967 N 0.49358 0.41179 0.43655 0.0
C968 C 0.49259 0.47241 0.42661 0.0
C969 C 0.46012 0.50018 0.42518 0.0
C970 C 0.48405 0.47943 0.91527 0.0
C971 C 0.45457 0.51593 0.91511 0.0
C972 C 0.51585 0.50703 0.91543 0.0
C973 C 0.51948 0.57208 0.91574 0.0
H974 H 0.48274 0.4291 0.91412 0.0
H975 H 0.53773 0.47691 0.91458 0.0
S976 S 0.45016 0.68867 0.91824 0.0
N977 N 0.43104 0.62048 0.91735 0.0
N978 N 0.49066 0.67263 0.91783 0.0
C979 C 0.49017 0.60926 0.91705 0.0
C980 C 0.45779 0.581 0.91667 0.0
C981 C 0.48364 0.59182 0.64292 0.0
C982 C 0.4549 0.5568 0.65161 0.0
C983 C 0.51578 0.56545 0.64384 0.0
C984 C 0.5203 0.50296 0.65307 0.0
H985 H 0.4815 0.64048 0.63599 0.0
H986 H 0.53719 0.59426 0.6374 0.0
S987 S 0.45368 0.39094 0.67853 0.0
N988 N 0.4334 0.45597 0.66986 0.0
N989 N 0.49362 0.40654 0.67148 0.0
C990 C 0.49184 0.46701 0.6613 0.0
C991 C 0.45918 0.49386 0.66054 0.0
C992 C 0.13572 0.67216 0.19732 0.0
C993 C 0.13554 0.70673 0.16723 0.0
C994 C 0.12806 0.60847 0.19747 0.0
C995 C 0.11981 0.57667 0.16754 0.0
H996 H 0.14133 0.69484 0.2211 0.0
H997 H 0.12806 0.58409 0.22137 0.0
S998 S 0.11651 0.64547 0.08187 0.0
N999 N 0.12733 0.70429 0.10654 0.0
N1000 N 0.1127 0.58425 0.1068 0.0
C1001 C 0.12064 0.61012 0.13706 0.0
C1002 C 0.12854 0.67521 0.13691 0.0
C1003 C 0.87761 0.38522 0.17779 0.0
C1004 C 0.84607 0.36302 0.16739 0.0
C1005 C 0.88538 0.44888 0.17675 0.0
C1006 C 0.86186 0.49316 0.16547 0.0
H1007 H 0.89638 0.35304 0.1871 0.0
H1008 H 0.91001 0.46362 0.18514 0.0
S1009 S 0.7754 0.45909 0.13598 0.0
N1010 N 0.79111 0.38997 0.14537 0.0
N1011 N 0.80552 0.51007 0.14378 0.0
C1012 C 0.83036 0.47148 0.15442 0.0
C1013 C 0.82252 0.40635 0.15532 0.0
C1014 C 0.15038 0.40375 0.37614 0.0
C1015 C 0.13737 0.36282 0.40062 0.0
C1016 C 0.14261 0.4675 0.37658 0.0
C1017 C 0.12164 0.49314 0.4016 0.0
H1018 H 0.16622 0.38612 0.35603 0.0
H1019 H 0.15263 0.49685 0.35675 0.0
S1020 S 0.08162 0.40674 0.47192 0.0
N1021 N 0.10293 0.35296 0.45103 0.0
N1022 N 0.0886 0.47306 0.45199 0.0
C1023 C 0.10944 0.45335 0.42698 0.0
C1024 C 0.11725 0.38818 0.42647 0.0
C1025 C 0.84521 0.60416 0.36904 0.0
C1026 C 0.85701 0.57503 0.39844 0.0
C1027 C 0.83744 0.66786 0.36868 0.0
C1028 C 0.84136 0.70524 0.39766 0.0
H1029 H 0.84249 0.57763 0.34592 0.0
H1030 H 0.82885 0.68829 0.34528 0.0
S1031 S 0.87104 0.65123 0.48126 0.0
N1032 N 0.87155 0.58781 0.45752 0.0
N1033 N 0.8573 0.70798 0.4568 0.0
C1034 C 0.85215 0.6763 0.42755 0.0
C1035 C 0.85992 0.61114 0.42794 0.0
C1036 C 0.87929 0.38608 0.89534 0.0
C1037 C 0.84639 0.36506 0.90137 0.0
C1038 C 0.88713 0.44972 0.89575 0.0
C1039 C 0.86237 0.4951 0.90209 0.0
H1040 H 0.89908 0.353 0.88963 0.0
H1041 H 0.91274 0.46361 0.89043 0.0
S1042 S 0.77238 0.46452 0.91983 0.0
N1043 N 0.78891 0.39445 0.91459 0.0
N1044 N 0.80361 0.51449 0.91515 0.0
C1045 C 0.82953 0.47473 0.90924 0.0
C1046 C 0.82155 0.40962 0.90892 0.0
C1047 C 0.09151 0.62551 0.89505 0.0
C1048 C 0.1163 0.58002 0.90096 0.0
C1049 C 0.0994 0.68915 0.89452 0.0
C1050 C 0.13237 0.71015 0.90005 0.0
H1051 H 0.06576 0.61175 0.8904 0.0
H1052 H 0.07953 0.72228 0.88932 0.0
S1053 S 0.20664 0.61062 0.91671 0.0
N1054 N 0.17531 0.56068 0.91261 0.0
N1055 N 0.19004 0.68066 0.91194 0.0
C1056 C 0.15731 0.66552 0.90691 0.0
C1057 C 0.1493 0.60042 0.90731 0.0
C1058 C 0.83794 0.67179 0.69443 0.0
C1059 C 0.84328 0.70953 0.66593 0.0
C1060 C 0.84589 0.60816 0.69406 0.0
C1061 C 0.85951 0.57943 0.66517 0.0
H1062 H 0.82805 0.69189 0.71749 0.0
H1063 H 0.84186 0.58139 0.71685 0.0
S1064 S 0.87744 0.65687 0.58353 0.0
N1065 N 0.86215 0.7131 0.60763 0.0
N1066 N 0.8771 0.59324 0.60693 0.0
C1067 C 0.86382 0.61598 0.63605 0.0
C1068 C 0.85571 0.68104 0.63643 0.0
C1069 C 0.14916 0.40442 0.65213 0.0
C1070 C 0.1289 0.36132 0.66948 0.0
C1071 C 0.14129 0.46843 0.65206 0.0
C1072 C 0.11285 0.49132 0.6693 0.0
H1073 H 0.17177 0.38882 0.63943 0.0
H1074 H 0.15806 0.50039 0.63927 0.0
S1075 S 0.04941 0.39607 0.71457 0.0
N1076 N 0.07775 0.34506 0.70168 0.0
N1077 N 0.06271 0.46469 0.70126 0.0
C1078 C 0.09169 0.4481 0.68544 0.0
C1079 C 0.09976 0.3833 0.6856 0.0
C1080 C 0.62612 0.11539 0.19823 0.0
C1081 C 0.61231 0.08255 0.17074 0.0
C1082 C 0.63245 0.17984 0.19645 0.0
C1083 C 0.62526 0.21417 0.1671 0.0
H1084 H 0.63231 0.09096 0.22127 0.0
H1085 H 0.64346 0.20285 0.21811 0.0
S1086 S 0.58641 0.1515 0.08908 0.0
N1087 N 0.59003 0.09015 0.1139 0.0
N1088 N 0.60196 0.21089 0.11054 0.0
C1089 C 0.61113 0.18204 0.13957 0.0
C1090 C 0.60468 0.11645 0.14138 0.0
C1091 C 0.3466 0.89657 0.1448 0.0
C1092 C 0.34137 0.86414 0.17518 0.0
C1093 C 0.35415 0.96062 0.1448 0.0
C1094 C 0.35672 0.99441 0.17518 0.0
H1095 H 0.34598 0.87183 0.12096 0.0
H1096 H 0.35919 0.98334 0.12096 0.0
S1097 S 0.34045 0.93321 0.26109 0.0
N1098 N 0.33591 0.87203 0.23612 0.0
N1099 N 0.35006 0.99209 0.23609 0.0
C1100 C 0.34996 0.96313 0.20556 0.0
C1101 C 0.3423 0.89811 0.20557 0.0
C1102 C 0.64129 0.96615 0.40205 0.0
C1103 C 0.61038 0.98858 0.38993 0.0
C1104 C 0.64805 0.90186 0.40373 0.0
C1105 C 0.62418 0.8572 0.39341 0.0
H1106 H 0.66057 0.9986 0.41002 0.0
H1107 H 0.67235 0.88701 0.41294 0.0
S1108 S 0.53839 0.89131 0.36214 0.0
N1109 N 0.55505 0.96071 0.36897 0.0
N1110 N 0.56773 0.84026 0.37215 0.0
C1111 C 0.59307 0.87901 0.38151 0.0
C1112 C 0.58619 0.94446 0.37979 0.0
C1113 C 0.35896 0.1127 0.41881 0.0
C1114 C 0.35537 0.0758 0.38963 0.0
C1115 C 0.35132 0.17669 0.41845 0.0
C1116 C 0.33976 0.20593 0.38893 0.0
H1117 H 0.36894 0.09247 0.44169 0.0
H1118 H 0.35568 0.20389 0.44108 0.0
S1119 S 0.32144 0.12778 0.30736 0.0
N1120 N 0.33637 0.07167 0.33151 0.0
N1121 N 0.3217 0.19149 0.33086 0.0
C1122 C 0.33444 0.16872 0.36013 0.0
C1123 C 0.34232 0.10382 0.36047 0.0
C1124 C 0.34277 0.90216 0.92071 0.0
C1125 C 0.34351 0.86638 0.89093 0.0
C1126 C 0.35062 0.96615 0.9203 0.0
C1127 C 0.35934 0.99659 0.89007 0.0
H1128 H 0.33711 0.88012 0.94461 0.0
H1129 H 0.35092 0.99149 0.94397 0.0
S1130 S 0.35999 0.9254 0.80463 0.0
N1131 N 0.35045 0.86713 0.83007 0.0
N1132 N 0.36466 0.98714 0.82916 0.0
C1133 C 0.35853 0.96177 0.85994 0.0
C1134 C 0.35076 0.89678 0.86041 0.0
C1135 C 0.64149 0.17551 0.91224 0.0
C1136 C 0.62447 0.2178 0.8912 0.0
C1137 C 0.63509 0.11118 0.9107 0.0
C1138 C 0.61147 0.08642 0.88798 0.0
H1139 H 0.66007 0.19223 0.93 0.0
H1140 H 0.64885 0.08053 0.92737 0.0
S1141 S 0.55886 0.17723 0.82857 0.0
N1142 N 0.58214 0.23029 0.84767 0.0
N1143 N 0.57021 0.10951 0.84469 0.0
C1144 C 0.5943 0.1281 0.86674 0.0
C1145 C 0.60078 0.19366 0.86835 0.0
C1146 C 0.38495 0.1242 0.67614 0.0
C1147 C 0.36114 0.07928 0.6662 0.0
C1148 C 0.37716 0.18791 0.67652 0.0
C1149 C 0.34527 0.2095 0.66686 0.0
H1150 H 0.40985 0.10996 0.6839 0.0
H1151 H 0.39622 0.22062 0.68473 0.0
S1152 S 0.27366 0.11144 0.6393 0.0
N1153 N 0.30412 0.06101 0.64671 0.0
N1154 N 0.28959 0.1811 0.64719 0.0
C1155 C 0.32136 0.1654 0.65624 0.0
C1156 C 0.32926 0.10026 0.65596 0.0
C1157 C 0.61891 0.89469 0.64554 0.0
C1158 C 0.62682 0.85962 0.67445 0.0
C1159 C 0.61253 0.95901 0.64753 0.0
C1160 C 0.61373 0.99104 0.67853 0.0
H1161 H 0.61729 0.87207 0.62114 0.0
H1162 H 0.60606 0.98368 0.62464 0.0
S1163 S 0.63586 0.92218 0.76133 0.0
N1164 N 0.63724 0.86267 0.73482 0.0
N1165 N 0.62511 0.98339 0.73858 0.0
C1166 C 0.62199 0.95679 0.7076 0.0
C1167 C 0.62853 0.89123 0.70557 0.0
loop_
_geom_bond_atom_site_label_1
_geom_bond_atom_site_label_2
_geom_bond_distance
_geom_bond_site_symmetry_2
_ccdc_geom_bond_type
Gd0 C3 2.818 1_545 S
Gd0 O20 2.377 . S
Gd0 O22 2.448 1_545 S
Gd0 O23 2.506 1_545 S
Gd0 O24 2.435 . S
Gd0 O25 2.717 . S
Gd0 O27 2.395 . S
Gd0 O31 2.327 . S
Gd1 C12 2.818 . S
Gd1 O21 2.395 . S
Gd1 O25 2.327 . S
Gd1 O26 2.377 . S
Gd1 O28 2.448 . S
Gd1 O29 2.506 . S
Gd1 O30 2.435 . S
Gd1 O31 2.717 . S
C2 O20 1.240 . S
C2 O21 1.240 . S
C3 Gd0 2.818 1_565 S
C3 C4 1.510 . S
C3 O22 1.249 . S
C3 O23 1.252 . S
C4 C3 1.510 . S
C4 C5 1.404 . S
C4 C6 1.352 . S
C5 C4 1.404 . S
C5 C9 1.389 . S
C5 H32 0.930 . S
C6 C4 1.352 . S
C6 C8 1.374 . S
C6 H33 0.931 . S
C7 C8 1.359 . S
C7 C9 1.364 . S
C8 C6 1.374 . S
C8 C7 1.359 . S
C8 H34 0.931 . S
C9 C5 1.389 . S
C9 C7 1.364 . S
C9 H35 0.931 . S
C10 O24 1.256 . S
C10 O25 1.257 . S
C11 O26 1.240 . S
C11 O27 1.240 . S
C12 Gd1 2.818 . S
C12 C13 1.510 . S
C12 O28 1.249 . S
C12 O29 1.252 . S
C13 C12 1.510 . S
C13 C14 1.404 . S
C13 C15 1.352 . S
C14 C13 1.404 . S
C14 C18 1.389 . S
C14 H36 0.930 . S
C15 C13 1.352 . S
C15 C17 1.374 . S
C15 H37 0.931 . S
C16 C17 1.359 . S
C16 C18 1.364 . S
C17 C15 1.374 . S
C17 C16 1.359 . S
C17 H38 0.931 . S
C18 C14 1.389 . S
C18 C16 1.364 . S
C18 H39 0.931 . S
C19 O30 1.256 . S
C19 O31 1.257 . S
O20 Gd0 2.377 . S
O20 C2 1.240 . S
O21 Gd1 2.395 . S
O21 C2 1.240 . S
O22 Gd0 2.448 1_565 S
O22 C3 1.249 . S
O23 Gd0 2.506 1_565 S
O23 C3 1.252 . S
O24 Gd0 2.435 . S
O24 C10 1.256 . S
O25 Gd0 2.717 . S
O25 Gd1 2.327 . S
O25 C10 1.257 . S
O26 Gd1 2.377 . S
O26 C11 1.240 . S
O27 Gd0 2.395 . S
O27 C11 1.240 . S
O28 Gd1 2.448 . S
O28 C12 1.249 . S
O29 Gd1 2.506 . S
O29 C12 1.252 . S
O30 Gd1 2.435 . S
O30 C19 1.256 . S
O31 Gd0 2.327 . S
O31 Gd1 2.717 . S
O31 C19 1.257 . S
H32 C5 0.930 . S
H33 C6 0.931 . S
H34 C8 0.931 . S
H35 C9 0.931 . S
H36 C14 0.930 . S
H37 C15 0.931 . S
H38 C17 0.931 . S
H39 C18 0.931 . S
Gd40 C43 2.818 1_565 S
Gd40 O60 2.377 . S
Gd40 O62 2.448 1_565 S
Gd40 O63 2.506 1_565 S
Gd40 O64 2.435 . S
Gd40 O65 2.717 . S
Gd40 O67 2.395 . S
Gd40 O71 2.327 . S
Gd41 C52 2.818 . S
Gd41 O61 2.395 . S
Gd41 O65 2.327 . S
Gd41 O66 2.377 . S
Gd41 O68 2.448 . S
Gd41 O69 2.506 . S
Gd41 O70 2.435 . S
Gd41 O71 2.717 . S
C42 O60 1.240 . S
C42 O61 1.240 . S
C43 Gd40 2.818 1_545 S
C43 C44 1.510 . S
C43 O62 1.249 . S
C43 O63 1.252 . S
C44 C43 1.510 . S
C44 C45 1.404 . S
C44 C46 1.352 . S
C45 C44 1.404 . S
C45 C49 1.389 . S
C45 H72 0.930 . S
C46 C44 1.352 . S
C46 C48 1.374 . S
C46 H73 0.931 . S
C47 C48 1.359 . S
C47 C49 1.364 . S
C48 C46 1.374 . S
C48 C47 1.359 . S
C48 H74 0.931 . S
C49 C45 1.389 . S
C49 C47 1.364 . S
C49 H75 0.931 . S
C50 O64 1.256 . S
C50 O65 1.257 . S
C51 O66 1.240 . S
C51 O67 1.240 . S
C52 Gd41 2.818 . S
C52 C53 1.510 . S
C52 O68 1.249 . S
C52 O69 1.252 . S
C53 C52 1.510 . S
C53 C54 1.404 . S
C53 C55 1.352 . S
C54 C53 1.404 . S
C54 C58 1.389 . S
C54 H76 0.930 . S
C55 C53 1.352 . S
C55 C57 1.374 . S
C55 H77 0.931 . S
C56 C57 1.359 . S
C56 C58 1.364 . S
C57 C55 1.374 . S
C57 C56 1.359 . S
C57 H78 0.931 . S
C58 C54 1.389 . S
C58 C56 1.364 . S
C58 H79 0.931 . S
C59 O70 1.256 . S
C59 O71 1.257 . S
O60 Gd40 2.377 . S
O60 C42 1.240 . S
O61 Gd41 2.395 . S
O61 C42 1.240 . S
O62 Gd40 2.448 1_545 S
O62 C43 1.249 . S
O63 Gd40 2.506 1_545 S
O63 C43 1.252 . S
O64 Gd40 2.435 . S
O64 C50 1.256 . S
O65 Gd40 2.717 . S
O65 Gd41 2.327 . S
O65 C50 1.257 . S
O66 Gd41 2.377 . S
O66 C51 1.240 . S
O67 Gd40 2.395 . S
O67 C51 1.240 . S
O68 Gd41 2.448 . S
O68 C52 1.249 . S
O69 Gd41 2.506 . S
O69 C52 1.252 . S
O70 Gd41 2.435 . S
O70 C59 1.256 . S
O71 Gd40 2.327 . S
O71 Gd41 2.717 . S
O71 C59 1.257 . S
H72 C45 0.930 . S
H73 C46 0.931 . S
H74 C48 0.931 . S
H75 C49 0.931 . S
H76 C54 0.930 . S
H77 C55 0.931 . S
H78 C57 0.931 . S
H79 C58 0.931 . S
Gd80 C83 2.818 1_565 S
Gd80 O100 2.377 . S
Gd80 O102 2.448 1_565 S
Gd80 O103 2.506 1_565 S
Gd80 O104 2.435 . S
Gd80 O105 2.717 . S
Gd80 O107 2.395 . S
Gd80 O111 2.327 . S
Gd81 C92 2.818 . S
Gd81 O101 2.395 . S
Gd81 O105 2.327 . S
Gd81 O106 2.377 . S
Gd81 O108 2.448 . S
Gd81 O109 2.506 . S
Gd81 O110 2.435 . S
Gd81 O111 2.717 . S
C82 O100 1.240 . S
C82 O101 1.240 . S
C83 Gd80 2.818 1_545 S
C83 C84 1.510 . S
C83 O102 1.249 . S
C83 O103 1.252 . S
C84 C83 1.510 . S
C84 C85 1.404 . S
C84 C86 1.352 . S
C85 C84 1.404 . S
C85 C89 1.389 . S
C85 H112 0.930 . S
C86 C84 1.352 . S
C86 C88 1.374 . S
C86 H113 0.931 . S
C87 C88 1.359 . S
C87 C89 1.364 . S
C88 C86 1.374 . S
C88 C87 1.359 . S
C88 H114 0.931 . S
C89 C85 1.389 . S
C89 C87 1.364 . S
C89 H115 0.931 . S
C90 O104 1.256 . S
C90 O105 1.257 . S
C91 O106 1.240 . S
C91 O107 1.240 . S
C92 Gd81 2.818 . S
C92 C93 1.510 . S
C92 O108 1.249 . S
C92 O109 1.252 . S
C93 C92 1.510 . S
C93 C94 1.404 . S
C93 C95 1.352 . S
C94 C93 1.404 . S
C94 C98 1.389 . S
C94 H116 0.930 . S
C95 C93 1.352 . S
C95 C97 1.374 . S
C95 H117 0.931 . S
C96 C97 1.359 . S
C96 C98 1.364 . S
C97 C95 1.374 . S
C97 C96 1.359 . S
C97 H118 0.931 . S
C98 C94 1.389 . S
C98 C96 1.364 . S
C98 H119 0.931 . S
C99 O110 1.256 . S
C99 O111 1.257 . S
O100 Gd80 2.377 . S
O100 C82 1.240 . S
O101 Gd81 2.395 . S
O101 C82 1.240 . S
O102 Gd80 2.448 1_545 S
O102 C83 1.249 . S
O103 Gd80 2.506 1_545 S
O103 C83 1.252 . S
O104 Gd80 2.435 . S
O104 C90 1.256 . S
O105 Gd80 2.717 . S
O105 Gd81 2.327 . S
O105 C90 1.257 . S
O106 Gd81 2.377 . S
O106 C91 1.240 . S
O107 Gd80 2.395 . S
O107 C91 1.240 . S
O108 Gd81 2.448 . S
O108 C92 1.249 . S
O109 Gd81 2.506 . S
O109 C92 1.252 . S
O110 Gd81 2.435 . S
O110 C99 1.256 . S
O111 Gd80 2.327 . S
O111 Gd81 2.717 . S
O111 C99 1.257 . S
H112 C85 0.930 . S
H113 C86 0.931 . S
H114 C88 0.931 . S
H115 C89 0.931 . S
H116 C94 0.930 . S
H117 C95 0.931 . S
H118 C97 0.931 . S
H119 C98 0.931 . S
Gd120 C123 2.818 1_545 S
Gd120 O140 2.377 . S
Gd120 O142 2.448 1_545 S
Gd120 O143 2.506 1_545 S
Gd120 O144 2.435 . S
Gd120 O145 2.717 . S
Gd120 O147 2.395 . S
Gd120 O151 2.327 . S
Gd121 C132 2.818 . S
Gd121 O141 2.395 . S
Gd121 O145 2.327 . S
Gd121 O146 2.377 . S
Gd121 O148 2.448 . S
Gd121 O149 2.506 . S
Gd121 O150 2.435 . S
Gd121 O151 2.717 . S
C122 O140 1.240 . S
C122 O141 1.240 . S
C123 Gd120 2.818 1_565 S
C123 C124 1.510 . S
C123 O142 1.249 . S
C123 O143 1.252 . S
C124 C123 1.510 . S
C124 C125 1.404 . S
C124 C126 1.352 . S
C125 C124 1.404 . S
C125 C129 1.389 . S
C125 H152 0.930 . S
C126 C124 1.352 . S
C126 C128 1.374 . S
C126 H153 0.931 . S
C127 C128 1.359 . S
C127 C129 1.364 . S
C128 C126 1.374 . S
C128 C127 1.359 . S
C128 H154 0.931 . S
C129 C125 1.389 . S
C129 C127 1.364 . S
C129 H155 0.931 . S
C130 O144 1.256 . S
C130 O145 1.257 . S
C131 O146 1.240 . S
C131 O147 1.240 . S
C132 Gd121 2.818 . S
C132 C133 1.510 . S
C132 O148 1.249 . S
C132 O149 1.252 . S
C133 C132 1.510 . S
C133 C134 1.404 . S
C133 C135 1.352 . S
C134 C133 1.404 . S
C134 C138 1.389 . S
C134 H156 0.930 . S
C135 C133 1.352 . S
C135 C137 1.374 . S
C135 H157 0.931 . S
C136 C137 1.359 . S
C136 C138 1.364 . S
C137 C135 1.374 . S
C137 C136 1.359 . S
C137 H158 0.931 . S
C138 C134 1.389 . S
C138 C136 1.364 . S
C138 H159 0.931 . S
C139 O150 1.256 . S
C139 O151 1.257 . S
O140 Gd120 2.377 . S
O140 C122 1.240 . S
O141 Gd121 2.395 . S
O141 C122 1.240 . S
O142 Gd120 2.448 1_565 S
O142 C123 1.249 . S
O143 Gd120 2.506 1_565 S
O143 C123 1.252 . S
O144 Gd120 2.435 . S
O144 C130 1.256 . S
O145 Gd120 2.717 . S
O145 Gd121 2.327 . S
O145 C130 1.257 . S
O146 Gd121 2.377 . S
O146 C131 1.240 . S
O147 Gd120 2.395 . S
O147 C131 1.240 . S
O148 Gd121 2.448 . S
O148 C132 1.249 . S
O149 Gd121 2.506 . S
O149 C132 1.252 . S
O150 Gd121 2.435 . S
O150 C139 1.256 . S
O151 Gd120 2.327 . S
O151 Gd121 2.717 . S
O151 C139 1.257 . S
H152 C125 0.930 . S
H153 C126 0.931 . S
H154 C128 0.931 . S
H155 C129 0.931 . S
H156 C134 0.930 . S
H157 C135 0.931 . S
H158 C137 0.931 . S
H159 C138 0.931 . S
Gd160 C163 2.818 . S
Gd160 O180 2.377 . S
Gd160 O182 2.448 . S
Gd160 O183 2.506 . S
Gd160 O184 2.435 . S
Gd160 O185 2.717 . S
Gd160 O187 2.395 . S
Gd160 O191 2.327 . S
Gd161 C172 2.818 1_565 S
Gd161 O181 2.395 . S
Gd161 O185 2.327 . S
Gd161 O186 2.377 . S
Gd161 O188 2.448 1_565 S
Gd161 O189 2.506 1_565 S
Gd161 O190 2.435 . S
Gd161 O191 2.717 . S
C162 O180 1.240 . S
C162 O181 1.240 . S
C163 Gd160 2.818 . S
C163 C164 1.510 . S
C163 O182 1.249 . S
C163 O183 1.252 . S
C164 C163 1.510 . S
C164 C165 1.404 . S
C164 C166 1.352 . S
C165 C164 1.404 . S
C165 C169 1.389 . S
C165 H192 0.930 . S
C166 C164 1.352 . S
C166 C168 1.374 . S
C166 H193 0.931 . S
C167 C168 1.359 . S
C167 C169 1.364 . S
C168 C166 1.374 . S
C168 C167 1.359 . S
C168 H194 0.931 . S
C169 C165 1.389 . S
C169 C167 1.364 . S
C169 H195 0.931 . S
C170 O184 1.256 . S
C170 O185 1.257 . S
C171 O186 1.240 . S
C171 O187 1.240 . S
C172 Gd161 2.818 1_545 S
C172 C173 1.510 . S
C172 O188 1.249 . S
C172 O189 1.252 . S
C173 C172 1.510 . S
C173 C174 1.404 . S
C173 C175 1.352 . S
C174 C173 1.404 . S
C174 C178 1.389 . S
C174 H196 0.930 . S
C175 C173 1.352 . S
C175 C177 1.374 . S
C175 H197 0.931 . S
C176 C177 1.359 . S
C176 C178 1.364 . S
C177 C175 1.374 . S
C177 C176 1.359 . S
C177 H198 0.931 . S
C178 C174 1.389 . S
C178 C176 1.364 . S
C178 H199 0.931 . S
C179 O190 1.256 . S
C179 O191 1.257 . S
O180 Gd160 2.377 . S
O180 C162 1.240 . S
O181 Gd161 2.395 . S
O181 C162 1.240 . S
O182 Gd160 2.448 . S
O182 C163 1.249 . S
O183 Gd160 2.506 . S
O183 C163 1.252 . S
O184 Gd160 2.435 . S
O184 C170 1.256 . S
O185 Gd160 2.717 . S
O185 Gd161 2.327 . S
O185 C170 1.257 . S
O186 Gd161 2.377 . S
O186 C171 1.240 . S
O187 Gd160 2.395 . S
O187 C171 1.240 . S
O188 Gd161 2.448 1_545 S
O188 C172 1.249 . S
O189 Gd161 2.506 1_545 S
O189 C172 1.252 . S
O190 Gd161 2.435 . S
O190 C179 1.256 . S
O191 Gd160 2.327 . S
O191 Gd161 2.717 . S
O191 C179 1.257 . S
H192 C165 0.930 . S
H193 C166 0.931 . S
H194 C168 0.931 . S
H195 C169 0.931 . S
H196 C174 0.930 . S
H197 C175 0.931 . S
H198 C177 0.931 . S
H199 C178 0.931 . S
Gd200 C203 2.818 . S
Gd200 O220 2.377 . S
Gd200 O222 2.448 . S
Gd200 O223 2.506 . S
Gd200 O224 2.435 . S
Gd200 O225 2.717 . S
Gd200 O227 2.395 . S
Gd200 O231 2.327 . S
Gd201 C212 2.818 1_545 S
Gd201 O221 2.395 . S
Gd201 O225 2.327 . S
Gd201 O226 2.377 . S
Gd201 O228 2.448 1_545 S
Gd201 O229 2.506 1_545 S
Gd201 O230 2.435 . S
Gd201 O231 2.717 . S
C202 O220 1.240 . S
C202 O221 1.240 . S
C203 Gd200 2.818 . S
C203 C204 1.510 . S
C203 O222 1.249 . S
C203 O223 1.252 . S
C204 C203 1.510 . S
C204 C205 1.404 . S
C204 C206 1.352 . S
C205 C204 1.404 . S
C205 C209 1.389 . S
C205 H232 0.930 . S
C206 C204 1.352 . S
C206 C208 1.374 . S
C206 H233 0.931 . S
C207 C208 1.359 . S
C207 C209 1.364 . S
C208 C206 1.374 . S
C208 C207 1.359 . S
C208 H234 0.931 . S
C209 C205 1.389 . S
C209 C207 1.364 . S
C209 H235 0.931 . S
C210 O224 1.256 . S
C210 O225 1.257 . S
C211 O226 1.240 . S
C211 O227 1.240 . S
C212 Gd201 2.818 1_565 S
C212 C213 1.510 . S
C212 O228 1.249 . S
C212 O229 1.252 . S
C213 C212 1.510 . S
C213 C214 1.404 . S
C213 C215 1.352 . S
C214 C213 1.404 . S
C214 C218 1.389 . S
C214 H236 0.930 . S
C215 C213 1.352 . S
C215 C217 1.374 . S
C215 H237 0.931 . S
C216 C217 1.359 . S
C216 C218 1.364 . S
C217 C215 1.374 . S
C217 C216 1.359 . S
C217 H238 0.931 . S
C218 C214 1.389 . S
C218 C216 1.364 . S
C218 H239 0.931 . S
C219 O230 1.256 . S
C219 O231 1.257 . S
O220 Gd200 2.377 . S
O220 C202 1.240 . S
O221 Gd201 2.395 . S
O221 C202 1.240 . S
O222 Gd200 2.448 . S
O222 C203 1.249 . S
O223 Gd200 2.506 . S
O223 C203 1.252 . S
O224 Gd200 2.435 . S
O224 C210 1.256 . S
O225 Gd200 2.717 . S
O225 Gd201 2.327 . S
O225 C210 1.257 . S
O226 Gd201 2.377 . S
O226 C211 1.240 . S
O227 Gd200 2.395 . S
O227 C211 1.240 . S
O228 Gd201 2.448 1_565 S
O228 C212 1.249 . S
O229 Gd201 2.506 1_565 S
O229 C212 1.252 . S
O230 Gd201 2.435 . S
O230 C219 1.256 . S
O231 Gd200 2.327 . S
O231 Gd201 2.717 . S
O231 C219 1.257 . S
H232 C205 0.930 . S
H233 C206 0.931 . S
H234 C208 0.931 . S
H235 C209 0.931 . S
H236 C214 0.930 . S
H237 C215 0.931 . S
H238 C217 0.931 . S
H239 C218 0.931 . S
Gd240 C243 2.818 . S
Gd240 O260 2.377 . S
Gd240 O262 2.448 . S
Gd240 O263 2.506 . S
Gd240 O264 2.435 . S
Gd240 O265 2.717 . S
Gd240 O267 2.395 . S
Gd240 O271 2.327 . S
Gd241 C252 2.818 1_545 S
Gd241 O261 2.395 . S
Gd241 O265 2.327 . S
Gd241 O266 2.377 . S
Gd241 O268 2.448 1_545 S
Gd241 O269 2.506 1_545 S
Gd241 O270 2.435 . S
Gd241 O271 2.717 . S
C242 O260 1.240 . S
C242 O261 1.240 . S
C243 Gd240 2.818 . S
C243 C244 1.510 . S
C243 O262 1.249 . S
C243 O263 1.252 . S
C244 C243 1.510 . S
C244 C245 1.404 . S
C244 C246 1.352 . S
C245 C244 1.404 . S
C245 C249 1.389 . S
C245 H272 0.930 . S
C246 C244 1.352 . S
C246 C248 1.374 . S
C246 H273 0.931 . S
C247 C248 1.359 . S
C247 C249 1.364 . S
C248 C246 1.374 . S
C248 C247 1.359 . S
C248 H274 0.931 . S
C249 C245 1.389 . S
C249 C247 1.364 . S
C249 H275 0.931 . S
C250 O264 1.256 . S
C250 O265 1.257 . S
C251 O266 1.240 . S
C251 O267 1.240 . S
C252 Gd241 2.818 1_565 S
C252 C253 1.510 . S
C252 O268 1.249 . S
C252 O269 1.252 . S
C253 C252 1.510 . S
C253 C254 1.404 . S
C253 C255 1.352 . S
C254 C253 1.404 . S
C254 C258 1.389 . S
C254 H276 0.930 . S
C255 C253 1.352 . S
C255 C257 1.374 . S
C255 H277 0.931 . S
C256 C257 1.359 . S
C256 C258 1.364 . S
C257 C255 1.374 . S
C257 C256 1.359 . S
C257 H278 0.931 . S
C258 C254 1.389 . S
C258 C256 1.364 . S
C258 H279 0.931 . S
C259 O270 1.256 . S
C259 O271 1.257 . S
O260 Gd240 2.377 . S
O260 C242 1.240 . S
O261 Gd241 2.395 . S
O261 C242 1.240 . S
O262 Gd240 2.448 . S
O262 C243 1.249 . S
O263 Gd240 2.506 . S
O263 C243 1.252 . S
O264 Gd240 2.435 . S
O264 C250 1.256 . S
O265 Gd240 2.717 . S
O265 Gd241 2.327 . S
O265 C250 1.257 . S
O266 Gd241 2.377 . S
O266 C251 1.240 . S
O267 Gd240 2.395 . S
O267 C251 1.240 . S
O268 Gd241 2.448 1_565 S
O268 C252 1.249 . S
O269 Gd241 2.506 1_565 S
O269 C252 1.252 . S
O270 Gd241 2.435 . S
O270 C259 1.256 . S
O271 Gd240 2.327 . S
O271 Gd241 2.717 . S
O271 C259 1.257 . S
H272 C245 0.930 . S
H273 C246 0.931 . S
H274 C248 0.931 . S
H275 C249 0.931 . S
H276 C254 0.930 . S
H277 C255 0.931 . S
H278 C257 0.931 . S
H279 C258 0.931 . S
Gd280 C283 2.818 . S
Gd280 O300 2.377 . S
Gd280 O302 2.448 . S
Gd280 O303 2.506 . S
Gd280 O304 2.435 . S
Gd280 O305 2.717 . S
Gd280 O307 2.395 . S
Gd280 O311 2.327 . S
Gd281 C292 2.818 1_565 S
Gd281 O301 2.395 . S
Gd281 O305 2.327 . S
Gd281 O306 2.377 . S
Gd281 O308 2.448 1_565 S
Gd281 O309 2.506 1_565 S
Gd281 O310 2.435 . S
Gd281 O311 2.717 . S
C282 O300 1.240 . S
C282 O301 1.240 . S
C283 Gd280 2.818 . S
C283 C284 1.510 . S
C283 O302 1.249 . S
C283 O303 1.252 . S
C284 C283 1.510 . S
C284 C285 1.404 . S
C284 C286 1.352 . S
C285 C284 1.404 . S
C285 C289 1.389 . S
C285 H312 0.930 . S
C286 C284 1.352 . S
C286 C288 1.374 . S
C286 H313 0.931 . S
C287 C288 1.359 . S
C287 C289 1.364 . S
C288 C286 1.374 . S
C288 C287 1.359 . S
C288 H314 0.931 . S
C289 C285 1.389 . S
C289 C287 1.364 . S
C289 H315 0.931 . S
C290 O304 1.256 . S
C290 O305 1.257 . S
C291 O306 1.240 . S
C291 O307 1.240 . S
C292 Gd281 2.818 1_545 S
C292 C293 1.510 . S
C292 O308 1.249 . S
C292 O309 1.252 . S
C293 C292 1.510 . S
C293 C294 1.404 . S
C293 C295 1.352 . S
C294 C293 1.404 . S
C294 C298 1.389 . S
C294 H316 0.930 . S
C295 C293 1.352 . S
C295 C297 1.374 . S
C295 H317 0.931 . S
C296 C297 1.359 . S
C296 C298 1.364 . S
C297 C295 1.374 . S
C297 C296 1.359 . S
C297 H318 0.931 . S
C298 C294 1.389 . S
C298 C296 1.364 . S
C298 H319 0.931 . S
C299 O310 1.256 . S
C299 O311 1.257 . S
O300 Gd280 2.377 . S
O300 C282 1.240 . S
O301 Gd281 2.395 . S
O301 C282 1.240 . S
O302 Gd280 2.448 . S
O302 C283 1.249 . S
O303 Gd280 2.506 . S
O303 C283 1.252 . S
O304 Gd280 2.435 . S
O304 C290 1.256 . S
O305 Gd280 2.717 . S
O305 Gd281 2.327 . S
O305 C290 1.257 . S
O306 Gd281 2.377 . S
O306 C291 1.240 . S
O307 Gd280 2.395 . S
O307 C291 1.240 . S
O308 Gd281 2.448 1_545 S
O308 C292 1.249 . S
O309 Gd281 2.506 1_545 S
O309 C292 1.252 . S
O310 Gd281 2.435 . S
O310 C299 1.256 . S
O311 Gd280 2.327 . S
O311 Gd281 2.717 . S
O311 C299 1.257 . S
H312 C285 0.930 . S
H313 C286 0.931 . S
H314 C288 0.931 . S
H315 C289 0.931 . S
H316 C294 0.930 . S
H317 C295 0.931 . S
H318 C297 0.931 . S
H319 C298 0.931 . S
Gd320 C323 2.818 . S
Gd320 O340 2.377 . S
Gd320 O342 2.448 . S
Gd320 O343 2.506 . S
Gd320 O344 2.435 . S
Gd320 O345 2.717 . S
Gd320 O347 2.395 . S
Gd320 O351 2.327 . S
Gd321 C332 2.818 . S
Gd321 O341 2.395 . S
Gd321 O345 2.327 . S
Gd321 O346 2.377 . S
Gd321 O348 2.448 . S
Gd321 O349 2.506 . S
Gd321 O350 2.435 . S
Gd321 O351 2.717 . S
C322 O340 1.240 . S
C322 O341 1.240 . S
C323 Gd320 2.818 . S
C323 C324 1.510 . S
C323 O342 1.249 . S
C323 O343 1.252 . S
C324 C323 1.510 . S
C324 C325 1.404 . S
C324 C326 1.352 . S
C325 C324 1.404 . S
C325 C329 1.389 . S
C325 H352 0.930 . S
C326 C324 1.352 . S
C326 C328 1.374 . S
C326 H353 0.931 . S
C327 C328 1.359 . S
C327 C329 1.364 . S
C328 C326 1.374 . S
C328 C327 1.359 . S
C328 H354 0.931 . S
C329 C325 1.389 . S
C329 C327 1.364 . S
C329 H355 0.931 . S
C330 O344 1.256 . S
C330 O345 1.257 . S
C331 O346 1.240 . S
C331 O347 1.240 . S
C332 Gd321 2.818 . S
C332 C333 1.510 . S
C332 O348 1.249 . S
C332 O349 1.252 . S
C333 C332 1.510 . S
C333 C334 1.404 . S
C333 C335 1.352 . S
C334 C333 1.404 . S
C334 C338 1.389 . S
C334 H356 0.930 . S
C335 C333 1.352 . S
C335 C337 1.374 . S
C335 H357 0.931 . S
C336 C337 1.359 . S
C336 C338 1.364 . S
C337 C335 1.374 . S
C337 C336 1.359 . S
C337 H358 0.931 . S
C338 C334 1.389 . S
C338 C336 1.364 . S
C338 H359 0.931 . S
C339 O350 1.256 . S
C339 O351 1.257 . S
O340 Gd320 2.377 . S
O340 C322 1.240 . S
O341 Gd321 2.395 . S
O341 C322 1.240 . S
O342 Gd320 2.448 . S
O342 C323 1.249 . S
O343 Gd320 2.506 . S
O343 C323 1.252 . S
O344 Gd320 2.435 . S
O344 C330 1.256 . S
O345 Gd320 2.717 . S
O345 Gd321 2.327 . S
O345 C330 1.257 . S
O346 Gd321 2.377 . S
O346 C331 1.240 . S
O347 Gd320 2.395 . S
O347 C331 1.240 . S
O348 Gd321 2.448 . S
O348 C332 1.249 . S
O349 Gd321 2.506 . S
O349 C332 1.252 . S
O350 Gd321 2.435 . S
O350 C339 1.256 . S
O351 Gd320 2.327 . S
O351 Gd321 2.717 . S
O351 C339 1.257 . S
H352 C325 0.930 . S
H353 C326 0.931 . S
H354 C328 0.931 . S
H355 C329 0.931 . S
H356 C334 0.930 . S
H357 C335 0.931 . S
H358 C337 0.931 . S
H359 C338 0.931 . S
Gd360 C363 2.818 . S
Gd360 O380 2.377 . S
Gd360 O382 2.448 . S
Gd360 O383 2.506 . S
Gd360 O384 2.435 . S
Gd360 O385 2.717 . S
Gd360 O387 2.395 . S
Gd360 O391 2.327 . S
Gd361 C372 2.818 . S
Gd361 O381 2.395 . S
Gd361 O385 2.327 . S
Gd361 O386 2.377 . S
Gd361 O388 2.448 . S
Gd361 O389 2.506 . S
Gd361 O390 2.435 . S
Gd361 O391 2.717 . S
C362 O380 1.240 . S
C362 O381 1.240 . S
C363 Gd360 2.818 . S
C363 C364 1.510 . S
C363 O382 1.249 . S
C363 O383 1.252 . S
C364 C363 1.510 . S
C364 C365 1.404 . S
C364 C366 1.352 . S
C365 C364 1.404 . S
C365 C369 1.389 . S
C365 H392 0.930 . S
C366 C364 1.352 . S
C366 C368 1.374 . S
C366 H393 0.931 . S
C367 C368 1.359 . S
C367 C369 1.364 . S
C368 C366 1.374 . S
C368 C367 1.359 . S
C368 H394 0.931 . S
C369 C365 1.389 . S
C369 C367 1.364 . S
C369 H395 0.931 . S
C370 O384 1.256 . S
C370 O385 1.257 . S
C371 O386 1.240 . S
C371 O387 1.240 . S
C372 Gd361 2.818 . S
C372 C373 1.510 . S
C372 O388 1.249 . S
C372 O389 1.252 . S
C373 C372 1.510 . S
C373 C374 1.404 . S
C373 C375 1.352 . S
C374 C373 1.404 . S
C374 C378 1.389 . S
C374 H396 0.930 . S
C375 C373 1.352 . S
C375 C377 1.374 . S
C375 H397 0.931 . S
C376 C377 1.359 . S
C376 C378 1.364 . S
C377 C375 1.374 . S
C377 C376 1.359 . S
C377 H398 0.931 . S
C378 C374 1.389 . S
C378 C376 1.364 . S
C378 H399 0.931 . S
C379 O390 1.256 . S
C379 O391 1.257 . S
O380 Gd360 2.377 . S
O380 C362 1.240 . S
O381 Gd361 2.395 . S
O381 C362 1.240 . S
O382 Gd360 2.448 . S
O382 C363 1.249 . S
O383 Gd360 2.506 . S
O383 C363 1.252 . S
O384 Gd360 2.435 . S
O384 C370 1.256 . S
O385 Gd360 2.717 . S
O385 Gd361 2.327 . S
O385 C370 1.257 . S
O386 Gd361 2.377 . S
O386 C371 1.240 . S
O387 Gd360 2.395 . S
O387 C371 1.240 . S
O388 Gd361 2.448 . S
O388 C372 1.249 . S
O389 Gd361 2.506 . S
O389 C372 1.252 . S
O390 Gd361 2.435 . S
O390 C379 1.256 . S
O391 Gd360 2.327 . S
O391 Gd361 2.717 . S
O391 C379 1.257 . S
H392 C365 0.930 . S
H393 C366 0.931 . S
H394 C368 0.931 . S
H395 C369 0.931 . S
H396 C374 0.930 . S
H397 C375 0.931 . S
H398 C377 0.931 . S
H399 C378 0.931 . S
Gd400 C403 2.818 . S
Gd400 O420 2.377 . S
Gd400 O422 2.448 . S
Gd400 O423 2.506 . S
Gd400 O424 2.435 . S
Gd400 O425 2.717 . S
Gd400 O427 2.395 . S
Gd400 O431 2.327 . S
Gd401 C412 2.818 . S
Gd401 O421 2.395 . S
Gd401 O425 2.327 . S
Gd401 O426 2.377 . S
Gd401 O428 2.448 . S
Gd401 O429 2.506 . S
Gd401 O430 2.435 . S
Gd401 O431 2.717 . S
C402 O420 1.240 . S
C402 O421 1.240 . S
C403 Gd400 2.818 . S
C403 C404 1.510 . S
C403 O422 1.249 . S
C403 O423 1.252 . S
C404 C403 1.510 . S
C404 C405 1.404 . S
C404 C406 1.352 . S
C405 C404 1.404 . S
C405 C409 1.389 . S
C405 H432 0.930 . S
C406 C404 1.352 . S
C406 C408 1.374 . S
C406 H433 0.931 . S
C407 C408 1.359 . S
C407 C409 1.364 . S
C408 C406 1.374 . S
C408 C407 1.359 . S
C408 H434 0.931 . S
C409 C405 1.389 . S
C409 C407 1.364 . S
C409 H435 0.931 . S
C410 O424 1.256 . S
C410 O425 1.257 . S
C411 O426 1.240 . S
C411 O427 1.240 . S
C412 Gd401 2.818 . S
C412 C413 1.510 . S
C412 O428 1.249 . S
C412 O429 1.252 . S
C413 C412 1.510 . S
C413 C414 1.404 . S
C413 C415 1.352 . S
C414 C413 1.404 . S
C414 C418 1.389 . S
C414 H436 0.930 . S
C415 C413 1.352 . S
C415 C417 1.374 . S
C415 H437 0.931 . S
C416 C417 1.359 . S
C416 C418 1.364 . S
C417 C415 1.374 . S
C417 C416 1.359 . S
C417 H438 0.931 . S
C418 C414 1.389 . S
C418 C416 1.364 . S
C418 H439 0.931 . S
C419 O430 1.256 . S
C419 O431 1.257 . S
O420 Gd400 2.377 . S
O420 C402 1.240 . S
O421 Gd401 2.395 . S
O421 C402 1.240 . S
O422 Gd400 2.448 . S
O422 C403 1.249 . S
O423 Gd400 2.506 . S
O423 C403 1.252 . S
O424 Gd400 2.435 . S
O424 C410 1.256 . S
O425 Gd400 2.717 . S
O425 Gd401 2.327 . S
O425 C410 1.257 . S
O426 Gd401 2.377 . S
O426 C411 1.240 . S
O427 Gd400 2.395 . S
O427 C411 1.240 . S
O428 Gd401 2.448 . S
O428 C412 1.249 . S
O429 Gd401 2.506 . S
O429 C412 1.252 . S
O430 Gd401 2.435 . S
O430 C419 1.256 . S
O431 Gd400 2.327 . S
O431 Gd401 2.717 . S
O431 C419 1.257 . S
H432 C405 0.930 . S
H433 C406 0.931 . S
H434 C408 0.931 . S
H435 C409 0.931 . S
H436 C414 0.930 . S
H437 C415 0.931 . S
H438 C417 0.931 . S
H439 C418 0.931 . S
Gd440 C443 2.818 . S
Gd440 O460 2.377 . S
Gd440 O462 2.448 . S
Gd440 O463 2.506 . S
Gd440 O464 2.435 . S
Gd440 O465 2.717 . S
Gd440 O467 2.395 . S
Gd440 O471 2.327 . S
Gd441 C452 2.818 . S
Gd441 O461 2.395 . S
Gd441 O465 2.327 . S
Gd441 O466 2.377 . S
Gd441 O468 2.448 . S
Gd441 O469 2.506 . S
Gd441 O470 2.435 . S
Gd441 O471 2.717 . S
C442 O460 1.240 . S
C442 O461 1.240 . S
C443 Gd440 2.818 . S
C443 C444 1.510 . S
C443 O462 1.249 . S
C443 O463 1.252 . S
C444 C443 1.510 . S
C444 C445 1.404 . S
C444 C446 1.352 . S
C445 C444 1.404 . S
C445 C449 1.389 . S
C445 H472 0.930 . S
C446 C444 1.352 . S
C446 C448 1.374 . S
C446 H473 0.931 . S
C447 C448 1.359 . S
C447 C449 1.364 . S
C448 C446 1.374 . S
C448 C447 1.359 . S
C448 H474 0.931 . S
C449 C445 1.389 . S
C449 C447 1.364 . S
C449 H475 0.931 . S
C450 O464 1.256 . S
C450 O465 1.257 . S
C451 O466 1.240 . S
C451 O467 1.240 . S
C452 Gd441 2.818 . S
C452 C453 1.510 . S
C452 O468 1.249 . S
C452 O469 1.252 . S
C453 C452 1.510 . S
C453 C454 1.404 . S
C453 C455 1.352 . S
C454 C453 1.404 . S
C454 C458 1.389 . S
C454 H476 0.930 . S
C455 C453 1.352 . S
C455 C457 1.374 . S
C455 H477 0.931 . S
C456 C457 1.359 . S
C456 C458 1.364 . S
C457 C455 1.374 . S
C457 C456 1.359 . S
C457 H478 0.931 . S
C458 C454 1.389 . S
C458 C456 1.364 . S
C458 H479 0.931 . S
C459 O470 1.256 . S
C459 O471 1.257 . S
O460 Gd440 2.377 . S
O460 C442 1.240 . S
O461 Gd441 2.395 . S
O461 C442 1.240 . S
O462 Gd440 2.448 . S
O462 C443 1.249 . S
O463 Gd440 2.506 . S
O463 C443 1.252 . S
O464 Gd440 2.435 . S
O464 C450 1.256 . S
O465 Gd440 2.717 . S
O465 Gd441 2.327 . S
O465 C450 1.257 . S
O466 Gd441 2.377 . S
O466 C451 1.240 . S
O467 Gd440 2.395 . S
O467 C451 1.240 . S
O468 Gd441 2.448 . S
O468 C452 1.249 . S
O469 Gd441 2.506 . S
O469 C452 1.252 . S
O470 Gd441 2.435 . S
O470 C459 1.256 . S
O471 Gd440 2.327 . S
O471 Gd441 2.717 . S
O471 C459 1.257 . S
H472 C445 0.930 . S
H473 C446 0.931 . S
H474 C448 0.931 . S
H475 C449 0.931 . S
H476 C454 0.930 . S
H477 C455 0.931 . S
H478 C457 0.931 . S
H479 C458 0.931 . S
Gd480 C483 2.818 . S
Gd480 O500 2.377 . S
Gd480 O502 2.448 . S
Gd480 O503 2.506 . S
Gd480 O504 2.435 . S
Gd480 O505 2.717 . S
Gd480 O507 2.395 . S
Gd480 O511 2.327 . S
Gd481 C492 2.818 . S
Gd481 O501 2.395 . S
Gd481 O505 2.327 . S
Gd481 O506 2.377 . S
Gd481 O508 2.448 . S
Gd481 O509 2.506 . S
Gd481 O510 2.435 . S
Gd481 O511 2.717 . S
C482 O500 1.240 . S
C482 O501 1.240 . S
C483 Gd480 2.818 . S
C483 C484 1.510 . S
C483 O502 1.249 . S
C483 O503 1.252 . S
C484 C483 1.510 . S
C484 C485 1.404 . S
C484 C486 1.352 . S
C485 C484 1.404 . S
C485 C489 1.389 . S
C485 H512 0.930 . S
C486 C484 1.352 . S
C486 C488 1.374 . S
C486 H513 0.931 . S
C487 C488 1.359 . S
C487 C489 1.364 . S
C488 C486 1.374 . S
C488 C487 1.359 . S
C488 H514 0.931 . S
C489 C485 1.389 . S
C489 C487 1.364 . S
C489 H515 0.931 . S
C490 O504 1.256 . S
C490 O505 1.257 . S
C491 O506 1.240 . S
C491 O507 1.240 . S
C492 Gd481 2.818 . S
C492 C493 1.510 . S
C492 O508 1.249 . S
C492 O509 1.252 . S
C493 C492 1.510 . S
C493 C494 1.404 . S
C493 C495 1.352 . S
C494 C493 1.404 . S
C494 C498 1.389 . S
C494 H516 0.930 . S
C495 C493 1.352 . S
C495 C497 1.374 . S
C495 H517 0.931 . S
C496 C497 1.359 . S
C496 C498 1.364 . S
C497 C495 1.374 . S
C497 C496 1.359 . S
C497 H518 0.931 . S
C498 C494 1.389 . S
C498 C496 1.364 . S
C498 H519 0.931 . S
C499 O510 1.256 . S
C499 O511 1.257 . S
O500 Gd480 2.377 . S
O500 C482 1.240 . S
O501 Gd481 2.395 . S
O501 C482 1.240 . S
O502 Gd480 2.448 . S
O502 C483 1.249 . S
O503 Gd480 2.506 . S
O503 C483 1.252 . S
O504 Gd480 2.435 . S
O504 C490 1.256 . S
O505 Gd480 2.717 . S
O505 Gd481 2.327 . S
O505 C490 1.257 . S
O506 Gd481 2.377 . S
O506 C491 1.240 . S
O507 Gd480 2.395 . S
O507 C491 1.240 . S
O508 Gd481 2.448 . S
O508 C492 1.249 . S
O509 Gd481 2.506 . S
O509 C492 1.252 . S
O510 Gd481 2.435 . S
O510 C499 1.256 . S
O511 Gd480 2.327 . S
O511 Gd481 2.717 . S
O511 C499 1.257 . S
H512 C485 0.930 . S
H513 C486 0.931 . S
H514 C488 0.931 . S
H515 C489 0.931 . S
H516 C494 0.930 . S
H517 C495 0.931 . S
H518 C497 0.931 . S
H519 C498 0.931 . S
Gd520 C523 2.818 . S
Gd520 O540 2.377 . S
Gd520 O542 2.448 . S
Gd520 O543 2.506 . S
Gd520 O544 2.435 . S
Gd520 O545 2.717 . S
Gd520 O547 2.395 . S
Gd520 O551 2.327 . S
Gd521 C532 2.818 . S
Gd521 O541 2.395 . S
Gd521 O545 2.327 . S
Gd521 O546 2.377 . S
Gd521 O548 2.448 . S
Gd521 O549 2.506 . S
Gd521 O550 2.435 . S
Gd521 O551 2.717 . S
C522 O540 1.240 . S
C522 O541 1.240 . S
C523 Gd520 2.818 . S
C523 C524 1.510 . S
C523 O542 1.249 . S
C523 O543 1.252 . S
C524 C523 1.510 . S
C524 C525 1.404 . S
C524 C526 1.352 . S
C525 C524 1.404 . S
C525 C529 1.389 . S
C525 H552 0.930 . S
C526 C524 1.352 . S
C526 C528 1.374 . S
C526 H553 0.931 . S
C527 C528 1.359 . S
C527 C529 1.364 . S
C528 C526 1.374 . S
C528 C527 1.359 . S
C528 H554 0.931 . S
C529 C525 1.389 . S
C529 C527 1.364 . S
C529 H555 0.931 . S
C530 O544 1.256 . S
C530 O545 1.257 . S
C531 O546 1.240 . S
C531 O547 1.240 . S
C532 Gd521 2.818 . S
C532 C533 1.510 . S
C532 O548 1.249 . S
C532 O549 1.252 . S
C533 C532 1.510 . S
C533 C534 1.404 . S
C533 C535 1.352 . S
C534 C533 1.404 . S
C534 C538 1.389 . S
C534 H556 0.930 . S
C535 C533 1.352 . S
C535 C537 1.374 . S
C535 H557 0.931 . S
C536 C537 1.359 . S
C536 C538 1.364 . S
C537 C535 1.374 . S
C537 C536 1.359 . S
C537 H558 0.931 . S
C538 C534 1.389 . S
C538 C536 1.364 . S
C538 H559 0.931 . S
C539 O550 1.256 . S
C539 O551 1.257 . S
O540 Gd520 2.377 . S
O540 C522 1.240 . S
O541 Gd521 2.395 . S
O541 C522 1.240 . S
O542 Gd520 2.448 . S
O542 C523 1.249 . S
O543 Gd520 2.506 . S
O543 C523 1.252 . S
O544 Gd520 2.435 . S
O544 C530 1.256 . S
O545 Gd520 2.717 . S
O545 Gd521 2.327 . S
O545 C530 1.257 . S
O546 Gd521 2.377 . S
O546 C531 1.240 . S
O547 Gd520 2.395 . S
O547 C531 1.240 . S
O548 Gd521 2.448 . S
O548 C532 1.249 . S
O549 Gd521 2.506 . S
O549 C532 1.252 . S
O550 Gd521 2.435 . S
O550 C539 1.256 . S
O551 Gd520 2.327 . S
O551 Gd521 2.717 . S
O551 C539 1.257 . S
H552 C525 0.930 . S
H553 C526 0.931 . S
H554 C528 0.931 . S
H555 C529 0.931 . S
H556 C534 0.930 . S
H557 C535 0.931 . S
H558 C537 0.931 . S
H559 C538 0.931 . S
Gd560 C563 2.818 . S
Gd560 O580 2.377 . S
Gd560 O582 2.448 . S
Gd560 O583 2.506 . S
Gd560 O584 2.435 . S
Gd560 O585 2.717 . S
Gd560 O587 2.395 . S
Gd560 O591 2.327 . S
Gd561 C572 2.818 . S
Gd561 O581 2.395 . S
Gd561 O585 2.327 . S
Gd561 O586 2.377 . S
Gd561 O588 2.448 . S
Gd561 O589 2.506 . S
Gd561 O590 2.435 . S
Gd561 O591 2.717 . S
C562 O580 1.240 . S
C562 O581 1.240 . S
C563 Gd560 2.818 . S
C563 C564 1.510 . S
C563 O582 1.249 . S
C563 O583 1.252 . S
C564 C563 1.510 . S
C564 C565 1.404 . S
C564 C566 1.352 . S
C565 C564 1.404 . S
C565 C569 1.389 . S
C565 H592 0.930 . S
C566 C564 1.352 . S
C566 C568 1.374 . S
C566 H593 0.931 . S
C567 C568 1.359 . S
C567 C569 1.364 . S
C568 C566 1.374 . S
C568 C567 1.359 . S
C568 H594 0.931 . S
C569 C565 1.389 . S
C569 C567 1.364 . S
C569 H595 0.931 . S
C570 O584 1.256 . S
C570 O585 1.257 . S
C571 O586 1.240 . S
C571 O587 1.240 . S
C572 Gd561 2.818 . S
C572 C573 1.510 . S
C572 O588 1.249 . S
C572 O589 1.252 . S
C573 C572 1.510 . S
C573 C574 1.404 . S
C573 C575 1.352 . S
C574 C573 1.404 . S
C574 C578 1.389 . S
C574 H596 0.930 . S
C575 C573 1.352 . S
C575 C577 1.374 . S
C575 H597 0.931 . S
C576 C577 1.359 . S
C576 C578 1.364 . S
C577 C575 1.374 . S
C577 C576 1.359 . S
C577 H598 0.931 . S
C578 C574 1.389 . S
C578 C576 1.364 . S
C578 H599 0.931 . S
C579 O590 1.256 . S
C579 O591 1.257 . S
O580 Gd560 2.377 . S
O580 C562 1.240 . S
O581 Gd561 2.395 . S
O581 C562 1.240 . S
O582 Gd560 2.448 . S
O582 C563 1.249 . S
O583 Gd560 2.506 . S
O583 C563 1.252 . S
O584 Gd560 2.435 . S
O584 C570 1.256 . S
O585 Gd560 2.717 . S
O585 Gd561 2.327 . S
O585 C570 1.257 . S
O586 Gd561 2.377 . S
O586 C571 1.240 . S
O587 Gd560 2.395 . S
O587 C571 1.240 . S
O588 Gd561 2.448 . S
O588 C572 1.249 . S
O589 Gd561 2.506 . S
O589 C572 1.252 . S
O590 Gd561 2.435 . S
O590 C579 1.256 . S
O591 Gd560 2.327 . S
O591 Gd561 2.717 . S
O591 C579 1.257 . S
H592 C565 0.930 . S
H593 C566 0.931 . S
H594 C568 0.931 . S
H595 C569 0.931 . S
H596 C574 0.930 . S
H597 C575 0.931 . S
H598 C577 0.931 . S
H599 C578 0.931 . S
Gd600 C603 2.818 . S
Gd600 O620 2.377 . S
Gd600 O622 2.448 . S
Gd600 O623 2.506 . S
Gd600 O624 2.435 . S
Gd600 O625 2.717 . S
Gd600 O627 2.395 . S
Gd600 O631 2.327 . S
Gd601 C612 2.818 . S
Gd601 O621 2.395 . S
Gd601 O625 2.327 . S
Gd601 O626 2.377 . S
Gd601 O628 2.448 . S
Gd601 O629 2.506 . S
Gd601 O630 2.435 . S
Gd601 O631 2.717 . S
C602 O620 1.240 . S
C602 O621 1.240 . S
C603 Gd600 2.818 . S
C603 C604 1.510 . S
C603 O622 1.249 . S
C603 O623 1.252 . S
C604 C603 1.510 . S
C604 C605 1.404 . S
C604 C606 1.352 . S
C605 C604 1.404 . S
C605 C609 1.389 . S
C605 H632 0.930 . S
C606 C604 1.352 . S
C606 C608 1.374 . S
C606 H633 0.931 . S
C607 C608 1.359 . S
C607 C609 1.364 . S
C608 C606 1.374 . S
C608 C607 1.359 . S
C608 H634 0.931 . S
C609 C605 1.389 . S
C609 C607 1.364 . S
C609 H635 0.931 . S
C610 O624 1.256 . S
C610 O625 1.257 . S
C611 O626 1.240 . S
C611 O627 1.240 . S
C612 Gd601 2.818 . S
C612 C613 1.510 . S
C612 O628 1.249 . S
C612 O629 1.252 . S
C613 C612 1.510 . S
C613 C614 1.404 . S
C613 C615 1.352 . S
C614 C613 1.404 . S
C614 C618 1.389 . S
C614 H636 0.930 . S
C615 C613 1.352 . S
C615 C617 1.374 . S
C615 H637 0.931 . S
C616 C617 1.359 . S
C616 C618 1.364 . S
C617 C615 1.374 . S
C617 C616 1.359 . S
C617 H638 0.931 . S
C618 C614 1.389 . S
C618 C616 1.364 . S
C618 H639 0.931 . S
C619 O630 1.256 . S
C619 O631 1.257 . S
O620 Gd600 2.377 . S
O620 C602 1.240 . S
O621 Gd601 2.395 . S
O621 C602 1.240 . S
O622 Gd600 2.448 . S
O622 C603 1.249 . S
O623 Gd600 2.506 . S
O623 C603 1.252 . S
O624 Gd600 2.435 . S
O624 C610 1.256 . S
O625 Gd600 2.717 . S
O625 Gd601 2.327 . S
O625 C610 1.257 . S
O626 Gd601 2.377 . S
O626 C611 1.240 . S
O627 Gd600 2.395 . S
O627 C611 1.240 . S
O628 Gd601 2.448 . S
O628 C612 1.249 . S
O629 Gd601 2.506 . S
O629 C612 1.252 . S
O630 Gd601 2.435 . S
O630 C619 1.256 . S
O631 Gd600 2.327 . S
O631 Gd601 2.717 . S
O631 C619 1.257 . S
H632 C605 0.930 . S
H633 C606 0.931 . S
H634 C608 0.931 . S
H635 C609 0.931 . S
H636 C614 0.930 . S
H637 C615 0.931 . S
H638 C617 0.931 . S
H639 C618 0.931 . S
C640 C641 1.369 . S
C640 C642 1.419 . S
C640 H644 0.930 . S
C641 C640 1.369 . S
C641 C650 1.429 . S
C642 C640 1.419 . S
C642 C643 1.363 . S
C642 H645 0.929 . S
C643 C642 1.363 . S
C643 C649 1.428 . S
H644 C640 0.930 . S
H645 C642 0.929 . S
S646 N647 1.613 . S
S646 N648 1.610 . S
N647 S646 1.613 . S
N647 C650 1.350 . S
N648 S646 1.610 . S
N648 C649 1.351 . S
C649 C643 1.428 . S
C649 N648 1.351 . S
C649 C650 1.434 . S
C650 C641 1.429 . S
C650 N647 1.350 . S
C650 C649 1.434 . S
C651 C652 1.369 . S
C651 C653 1.419 . S
C651 H655 0.930 . S
C652 C651 1.369 . S
C652 C661 1.429 . S
C653 C651 1.419 . S
C653 C654 1.363 . S
C653 H656 0.929 . S
C654 C653 1.363 . S
C654 C660 1.428 . S
H655 C651 0.930 . S
H656 C653 0.929 . S
S657 N658 1.613 . S
S657 N659 1.610 . S
N658 S657 1.613 . S
N658 C661 1.350 . S
N659 S657 1.610 . S
N659 C660 1.351 . S
C660 C654 1.428 . S
C660 N659 1.351 . S
C660 C661 1.434 . S
C661 C652 1.429 . S
C661 N658 1.350 . S
C661 C660 1.434 . S
C662 C663 1.369 . S
C662 C664 1.419 . S
C662 H666 0.930 . S
C663 C662 1.369 . S
C663 C672 1.429 . S
C664 C662 1.419 . S
C664 C665 1.363 . S
C664 H667 0.929 . S
C665 C664 1.363 . S
C665 C671 1.428 . S
H666 C662 0.930 . S
H667 C664 0.929 . S
S668 N669 1.613 . S
S668 N670 1.610 . S
N669 S668 1.613 . S
N669 C672 1.350 . S
N670 S668 1.610 . S
N670 C671 1.351 . S
C671 C665 1.428 . S
C671 N670 1.351 . S
C671 C672 1.434 . S
C672 C663 1.429 . S
C672 N669 1.350 . S
C672 C671 1.434 . S
C673 C674 1.369 . S
C673 C675 1.419 . S
C673 H677 0.930 . S
C674 C673 1.369 . S
C674 C683 1.429 . S
C675 C673 1.419 . S
C675 C676 1.363 . S
C675 H678 0.929 . S
C676 C675 1.363 . S
C676 C682 1.428 . S
H677 C673 0.930 . S
H678 C675 0.929 . S
S679 N680 1.613 . S
S679 N681 1.610 . S
N680 S679 1.613 . S
N680 C683 1.350 . S
N681 S679 1.610 . S
N681 C682 1.351 . S
C682 C676 1.428 . S
C682 N681 1.351 . S
C682 C683 1.434 . S
C683 C674 1.429 . S
C683 N680 1.350 . S
C683 C682 1.434 . S
C684 C685 1.369 . S
C684 C686 1.419 . S
C684 H688 0.930 . S
C685 C684 1.369 . S
C685 C694 1.429 . S
C686 C684 1.419 . S
C686 C687 1.363 . S
C686 H689 0.929 . S
C687 C686 1.363 . S
C687 C693 1.428 . S
H688 C684 0.930 . S
H689 C686 0.929 . S
S690 N691 1.613 . S
S690 N692 1.610 . S
N691 S690 1.613 . S
N691 C694 1.350 . S
N692 S690 1.610 . S
N692 C693 1.351 . S
C693 C687 1.428 . S
C693 N692 1.351 . S
C693 C694 1.434 . S
C694 C685 1.429 . S
C694 N691 1.350 . S
C694 C693 1.434 . S
C695 C696 1.369 . S
C695 C697 1.419 . S
C695 H699 0.930 . S
C696 C695 1.369 . S
C696 C705 1.429 . S
C697 C695 1.419 . S
C697 C698 1.363 . S
C697 H700 0.929 . S
C698 C697 1.363 . S
C698 C704 1.428 . S
H699 C695 0.930 . S
H700 C697 0.929 . S
S701 N702 1.613 . S
S701 N703 1.610 . S
N702 S701 1.613 . S
N702 C705 1.350 . S
N703 S701 1.610 . S
N703 C704 1.351 . S
C704 C698 1.428 . S
C704 N703 1.351 . S
C704 C705 1.434 . S
C705 C696 1.429 . S
C705 N702 1.350 . S
C705 C704 1.434 . S
C706 C707 1.369 . S
C706 C708 1.419 . S
C706 H710 0.930 . S
C707 C706 1.369 . S
C707 C716 1.429 . S
C708 C706 1.419 . S
C708 C709 1.363 . S
C708 H711 0.929 . S
C709 C708 1.363 . S
C709 C715 1.428 . S
H710 C706 0.930 . S
H711 C708 0.929 . S
S712 N713 1.613 . S
S712 N714 1.610 . S
N713 S712 1.613 . S
N713 C716 1.350 . S
N714 S712 1.610 . S
N714 C715 1.351 . S
C715 C709 1.428 . S
C715 N714 1.351 . S
C715 C716 1.434 . S
C716 C707 1.429 . S
C716 N713 1.350 . S
C716 C715 1.434 . S
C717 C718 1.369 . S
C717 C719 1.419 . S
C717 H721 0.930 . S
C718 C717 1.369 . S
C718 C727 1.429 . S
C719 C717 1.419 . S
C719 C720 1.363 . S
C719 H722 0.929 . S
C720 C719 1.363 . S
C720 C726 1.428 . S
H721 C717 0.930 . S
H722 C719 0.929 . S
S723 N724 1.613 . S
S723 N725 1.610 . S
N724 S723 1.613 . S
N724 C727 1.350 . S
N725 S723 1.610 . S
N725 C726 1.351 . S
C726 C720 1.428 . S
C726 N725 1.351 . S
C726 C727 1.434 . S
C727 C718 1.429 . S
C727 N724 1.350 . S
C727 C726 1.434 . S
C728 C729 1.369 1_545 S
C728 C730 1.419 . S
C728 H732 0.930 . S
C729 C728 1.369 1_565 S
C729 C738 1.429 . S
C730 C728 1.419 . S
C730 C731 1.363 . S
C730 H733 0.929 . S
C731 C730 1.363 . S
C731 C737 1.428 1_545 S
H732 C728 0.930 . S
H733 C730 0.929 . S
S734 N735 1.613 . S
S734 N736 1.610 . S
N735 S734 1.613 . S
N735 C738 1.350 . S
N736 S734 1.610 . S
N736 C737 1.351 . S
C737 C731 1.428 1_565 S
C737 N736 1.351 . S
C737 C738 1.434 . S
C738 C729 1.429 . S
C738 N735 1.350 . S
C738 C737 1.434 . S
C739 C740 1.369 . S
C739 C741 1.419 . S
C739 H743 0.930 . S
C740 C739 1.369 . S
C740 C749 1.429 1_545 S
C741 C739 1.419 . S
C741 C742 1.363 1_545 S
C741 H744 0.929 . S
C742 C741 1.363 1_565 S
C742 C748 1.428 . S
H743 C739 0.930 . S
H744 C741 0.929 . S
S745 N746 1.613 . S
S745 N747 1.610 . S
N746 S745 1.613 . S
N746 C749 1.350 . S
N747 S745 1.610 . S
N747 C748 1.351 . S
C748 C742 1.428 . S
C748 N747 1.351 . S
C748 C749 1.434 . S
C749 C740 1.429 1_565 S
C749 N746 1.350 . S
C749 C748 1.434 . S
C750 C751 1.369 . S
C750 C752 1.419 1_545 S
C750 H754 0.930 . S
C751 C750 1.369 . S
C751 C760 1.429 . S
C752 C750 1.419 1_565 S
C752 C753 1.363 . S
C752 H755 0.929 . S
C753 C752 1.363 . S
C753 C759 1.428 . S
H754 C750 0.930 . S
H755 C752 0.929 . S
S756 N757 1.613 . S
S756 N758 1.610 1_545 S
N757 S756 1.613 . S
N757 C760 1.350 . S
N758 S756 1.610 1_565 S
N758 C759 1.351 . S
C759 C753 1.428 . S
C759 N758 1.351 . S
C759 C760 1.434 1_565 S
C760 C751 1.429 . S
C760 N757 1.350 . S
C760 C759 1.434 1_545 S
C761 C762 1.369 1_565 S
C761 C763 1.419 . S
C761 H765 0.930 . S
C762 C761 1.369 1_545 S
C762 C771 1.429 . S
C763 C761 1.419 . S
C763 C764 1.363 . S
C763 H766 0.929 . S
C764 C763 1.363 . S
C764 C770 1.428 1_565 S
H765 C761 0.930 . S
H766 C763 0.929 . S
S767 N768 1.613 . S
S767 N769 1.610 . S
N768 S767 1.613 . S
N768 C771 1.350 . S
N769 S767 1.610 . S
N769 C770 1.351 . S
C770 C764 1.428 1_545 S
C770 N769 1.351 . S
C770 C771 1.434 . S
C771 C762 1.429 . S
C771 N768 1.350 . S
C771 C770 1.434 . S
C772 C773 1.369 . S
C772 C774 1.419 . S
C772 H776 0.930 . S
C773 C772 1.369 . S
C773 C782 1.429 . S
C774 C772 1.419 . S
C774 C775 1.363 . S
C774 H777 0.929 . S
C775 C774 1.363 . S
C775 C781 1.428 . S
H776 C772 0.930 . S
H777 C774 0.929 . S
S778 N779 1.613 . S
S778 N780 1.610 . S
N779 S778 1.613 . S
N779 C782 1.350 . S
N780 S778 1.610 . S
N780 C781 1.351 . S
C781 C775 1.428 . S
C781 N780 1.351 . S
C781 C782 1.434 . S
C782 C773 1.429 . S
C782 N779 1.350 . S
C782 C781 1.434 . S
C783 C784 1.369 . S
C783 C785 1.419 . S
C783 H787 0.930 . S
C784 C783 1.369 . S
C784 C793 1.429 . S
C785 C783 1.419 . S
C785 C786 1.363 . S
C785 H788 0.929 . S
C786 C785 1.363 . S
C786 C792 1.428 . S
H787 C783 0.930 . S
H788 C785 0.929 . S
S789 N790 1.613 . S
S789 N791 1.610 . S
N790 S789 1.613 . S
N790 C793 1.350 . S
N791 S789 1.610 . S
N791 C792 1.351 . S
C792 C786 1.428 . S
C792 N791 1.351 . S
C792 C793 1.434 . S
C793 C784 1.429 . S
C793 N790 1.350 . S
C793 C792 1.434 . S
C794 C795 1.369 . S
C794 C796 1.419 . S
C794 H798 0.930 . S
C795 C794 1.369 . S
C795 C804 1.429 . S
C796 C794 1.419 . S
C796 C797 1.363 . S
C796 H799 0.929 . S
C797 C796 1.363 . S
C797 C803 1.428 . S
H798 C794 0.930 . S
H799 C796 0.929 . S
S800 N801 1.613 . S
S800 N802 1.610 . S
N801 S800 1.613 . S
N801 C804 1.350 . S
N802 S800 1.610 . S
N802 C803 1.351 . S
C803 C797 1.428 . S
C803 N802 1.351 . S
C803 C804 1.434 . S
C804 C795 1.429 . S
C804 N801 1.350 . S
C804 C803 1.434 . S
C805 C806 1.369 . S
C805 C807 1.419 . S
C805 H809 0.930 . S
C806 C805 1.369 . S
C806 C815 1.429 . S
C807 C805 1.419 . S
C807 C808 1.363 . S
C807 H810 0.929 . S
C808 C807 1.363 . S
C808 C814 1.428 . S
H809 C805 0.930 . S
H810 C807 0.929 . S
S811 N812 1.613 . S
S811 N813 1.610 . S
N812 S811 1.613 . S
N812 C815 1.350 . S
N813 S811 1.610 . S
N813 C814 1.351 . S
C814 C808 1.428 . S
C814 N813 1.351 . S
C814 C815 1.434 . S
C815 C806 1.429 . S
C815 N812 1.350 . S
C815 C814 1.434 . S
C816 C817 1.369 . S
C816 C818 1.419 1_556 S
C816 H820 0.930 . S
C817 C816 1.369 . S
C817 C826 1.429 . S
C818 C816 1.419 1_554 S
C818 C819 1.363 . S
C818 H821 0.929 . S
C819 C818 1.363 . S
C819 C825 1.428 . S
H820 C816 0.930 . S
H821 C818 0.929 . S
S822 N823 1.616 1_564 S
S822 N824 1.608 1_565 S
N823 S822 1.616 1_546 S
N823 C826 1.350 . S
N824 S822 1.608 1_545 S
N824 C825 1.351 . S
C825 C819 1.428 . S
C825 N824 1.351 . S
C825 C826 1.434 1_554 S
C826 C817 1.429 . S
C826 N823 1.350 . S
C826 C825 1.434 1_556 S
C827 C828 1.369 . S
C827 C829 1.419 1_556 S
C827 H831 0.930 . S
C828 C827 1.369 . S
C828 C837 1.429 . S
C829 C827 1.419 1_554 S
C829 C830 1.363 . S
C829 H832 0.929 . S
C830 C829 1.363 . S
C830 C836 1.428 . S
H831 C827 0.930 . S
H832 C829 0.929 . S
S833 N834 1.616 1_554 S
S833 N835 1.608 . S
N834 S833 1.616 1_556 S
N834 C837 1.350 . S
N835 S833 1.608 . S
N835 C836 1.351 . S
C836 C830 1.428 . S
C836 N835 1.351 . S
C836 C837 1.434 1_554 S
C837 C828 1.429 . S
C837 N834 1.350 . S
C837 C836 1.434 1_556 S
C838 C839 1.369 . S
C838 C840 1.419 . S
C838 H842 0.930 . S
C839 C838 1.369 . S
C839 C848 1.429 . S
C840 C838 1.419 . S
C840 C841 1.363 . S
C840 H843 0.929 . S
C841 C840 1.363 . S
C841 C847 1.428 . S
H842 C838 0.930 . S
H843 C840 0.929 . S
S844 N845 1.613 . S
S844 N846 1.610 . S
N845 S844 1.613 . S
N845 C848 1.350 . S
N846 S844 1.610 . S
N846 C847 1.351 . S
C847 C841 1.428 . S
C847 N846 1.351 . S
C847 C848 1.434 . S
C848 C839 1.429 . S
C848 N845 1.350 . S
C848 C847 1.434 . S
C849 C850 1.369 . S
C849 C851 1.419 . S
C849 H853 0.930 . S
C850 C849 1.369 . S
C850 C859 1.429 . S
C851 C849 1.419 . S
C851 C852 1.363 . S
C851 H854 0.929 . S
C852 C851 1.363 . S
C852 C858 1.428 . S
H853 C849 0.930 . S
H854 C851 0.929 . S
S855 N856 1.613 . S
S855 N857 1.610 . S
N856 S855 1.613 . S
N856 C859 1.350 . S
N857 S855 1.610 . S
N857 C858 1.351 . S
C858 C852 1.428 . S
C858 N857 1.351 . S
C858 C859 1.434 . S
C859 C850 1.429 . S
C859 N856 1.350 . S
C859 C858 1.434 . S
C860 C861 1.369 . S
C860 C862 1.419 1_554 S
C860 H864 0.930 . S
C861 C860 1.369 . S
C861 C870 1.429 . S
C862 C860 1.419 1_556 S
C862 C863 1.363 . S
C862 H865 0.929 . S
C863 C862 1.363 . S
C863 C869 1.428 . S
H864 C860 0.930 . S
H865 C862 0.929 . S
S866 N867 1.616 1_556 S
S866 N868 1.608 . S
N867 S866 1.616 1_554 S
N867 C870 1.350 . S
N868 S866 1.608 . S
N868 C869 1.351 . S
C869 C863 1.428 . S
C869 N868 1.351 . S
C869 C870 1.434 1_556 S
C870 C861 1.429 . S
C870 N867 1.350 . S
C870 C869 1.434 1_554 S
C871 C872 1.369 . S
C871 C873 1.419 1_556 S
C871 H875 0.930 . S
C872 C871 1.369 . S
C872 C881 1.429 . S
C873 C871 1.419 1_554 S
C873 C874 1.363 . S
C873 H876 0.929 . S
C874 C873 1.363 . S
C874 C880 1.428 . S
H875 C871 0.930 . S
H876 C873 0.929 . S
S877 N878 1.616 1_554 S
S877 N879 1.608 . S
N878 S877 1.616 1_556 S
N878 C881 1.350 . S
N879 S877 1.608 . S
N879 C880 1.351 . S
C880 C874 1.428 . S
C880 N879 1.351 . S
C880 C881 1.434 1_554 S
C881 C872 1.429 . S
C881 N878 1.350 . S
C881 C880 1.434 1_556 S
C882 C883 1.369 . S
C882 C884 1.419 . S
C882 H886 0.930 . S
C883 C882 1.369 . S
C883 C892 1.429 . S
C884 C882 1.419 . S
C884 C885 1.363 . S
C884 H887 0.929 . S
C885 C884 1.363 . S
C885 C891 1.428 . S
H886 C882 0.930 . S
H887 C884 0.929 . S
S888 N889 1.613 . S
S888 N890 1.610 . S
N889 S888 1.613 . S
N889 C892 1.350 . S
N890 S888 1.610 . S
N890 C891 1.351 . S
C891 C885 1.428 . S
C891 N890 1.351 . S
C891 C892 1.434 . S
C892 C883 1.429 . S
C892 N889 1.350 . S
C892 C891 1.434 . S
C893 C894 1.369 . S
C893 C895 1.419 . S
C893 H897 0.930 . S
C894 C893 1.369 . S
C894 C903 1.429 . S
C895 C893 1.419 . S
C895 C896 1.363 . S
C895 H898 0.929 . S
C896 C895 1.363 . S
C896 C902 1.428 . S
H897 C893 0.930 . S
H898 C895 0.929 . S
S899 N900 1.613 . S
S899 N901 1.610 . S
N900 S899 1.613 . S
N900 C903 1.350 . S
N901 S899 1.610 . S
N901 C902 1.351 . S
C902 C896 1.428 . S
C902 N901 1.351 . S
C902 C903 1.434 . S
C903 C894 1.429 . S
C903 N900 1.350 . S
C903 C902 1.434 . S
C904 C905 1.369 . S
C904 C906 1.419 1_655 S
C904 H908 0.930 . S
C905 C904 1.369 . S
C905 C914 1.429 1_565 S
C906 C904 1.419 1_455 S
C906 C907 1.363 1_565 S
C906 H909 0.929 . S
C907 C906 1.363 1_545 S
C907 C913 1.428 . S
H908 C904 0.930 . S
H909 C906 0.929 . S
S910 N911 1.613 . S
S910 N912 1.610 1_655 S
N911 S910 1.613 . S
N911 C914 1.350 . S
N912 S910 1.610 1_455 S
N912 C913 1.351 . S
C913 C907 1.428 . S
C913 N912 1.351 . S
C913 C914 1.434 1_455 S
C914 C905 1.429 1_545 S
C914 N911 1.350 . S
C914 C913 1.434 1_655 S
C915 C916 1.369 1_565 S
C915 C917 1.419 1_655 S
C915 H919 0.930 . S
C916 C915 1.369 1_545 S
C916 C925 1.429 . S
C917 C915 1.419 1_455 S
C917 C918 1.363 . S
C917 H920 0.929 . S
C918 C917 1.363 . S
C918 C924 1.428 1_565 S
H919 C915 0.930 . S
H920 C917 0.929 . S
S921 N922 1.613 1_455 S
S921 N923 1.610 . S
N922 S921 1.613 1_655 S
N922 C925 1.350 . S
N923 S921 1.610 . S
N923 C924 1.351 . S
C924 C918 1.428 1_545 S
C924 N923 1.351 . S
C924 C925 1.434 1_455 S
C925 C916 1.429 . S
C925 N922 1.350 . S
C925 C924 1.434 1_655 S
C926 C927 1.369 . S
C926 C928 1.419 1_455 S
C926 H930 0.930 . S
C927 C926 1.369 . S
C927 C936 1.429 1_545 S
C928 C926 1.419 1_655 S
C928 C929 1.363 1_545 S
C928 H931 0.929 . S
C929 C928 1.363 1_565 S
C929 C935 1.428 . S
H930 C926 0.930 . S
H931 C928 0.929 . S
S932 N933 1.613 . S
S932 N934 1.610 1_455 S
N933 S932 1.613 . S
N933 C936 1.350 . S
N934 S932 1.610 1_655 S
N934 C935 1.351 . S
C935 C929 1.428 . S
C935 N934 1.351 . S
C935 C936 1.434 1_655 S
C936 C927 1.429 1_565 S
C936 N933 1.350 . S
C936 C935 1.434 1_455 S
C937 C938 1.369 1_565 S
C937 C939 1.419 1_655 S
C937 H941 0.930 . S
C938 C937 1.369 1_545 S
C938 C947 1.429 . S
C939 C937 1.419 1_455 S
C939 C940 1.363 . S
C939 H942 0.929 . S
C940 C939 1.363 . S
C940 C946 1.428 1_565 S
H941 C937 0.930 . S
H942 C939 0.929 . S
S943 N944 1.613 1_455 S
S943 N945 1.610 . S
N944 S943 1.613 1_655 S
N944 C947 1.350 . S
N945 S943 1.610 . S
N945 C946 1.351 . S
C946 C940 1.428 1_545 S
C946 N945 1.351 . S
C946 C947 1.434 1_455 S
C947 C938 1.429 . S
C947 N944 1.350 . S
C947 C946 1.434 1_655 S
C948 C949 1.369 . S
C948 C950 1.419 . S
C948 H952 0.930 . S
C949 C948 1.369 . S
C949 C958 1.429 . S
C950 C948 1.419 . S
C950 C951 1.363 . S
C950 H953 0.929 . S
C951 C950 1.363 . S
C951 C957 1.428 . S
H952 C948 0.930 . S
H953 C950 0.929 . S
S954 N955 1.613 . S
S954 N956 1.610 . S
N955 S954 1.613 . S
N955 C958 1.350 . S
N956 S954 1.610 . S
N956 C957 1.351 . S
C957 C951 1.428 . S
C957 N956 1.351 . S
C957 C958 1.434 . S
C958 C949 1.429 . S
C958 N955 1.350 . S
C958 C957 1.434 . S
C959 C960 1.369 . S
C959 C961 1.419 . S
C959 H963 0.930 . S
C960 C959 1.369 . S
C960 C969 1.429 . S
C961 C959 1.419 . S
C961 C962 1.363 . S
C961 H964 0.929 . S
C962 C961 1.363 . S
C962 C968 1.428 . S
H963 C959 0.930 . S
H964 C961 0.929 . S
S965 N966 1.613 . S
S965 N967 1.610 . S
N966 S965 1.613 . S
N966 C969 1.350 . S
N967 S965 1.610 . S
N967 C968 1.351 . S
C968 C962 1.428 . S
C968 N967 1.351 . S
C968 C969 1.434 . S
C969 C960 1.429 . S
C969 N966 1.350 . S
C969 C968 1.434 . S
C970 C971 1.369 . S
C970 C972 1.419 . S
C970 H974 0.930 . S
C971 C970 1.369 . S
C971 C980 1.429 . S
C972 C970 1.419 . S
C972 C973 1.363 . S
C972 H975 0.929 . S
C973 C972 1.363 . S
C973 C979 1.428 . S
H974 C970 0.930 . S
H975 C972 0.929 . S
S976 N977 1.613 . S
S976 N978 1.610 . S
N977 S976 1.613 . S
N977 C980 1.350 . S
N978 S976 1.610 . S
N978 C979 1.351 . S
C979 C973 1.428 . S
C979 N978 1.351 . S
C979 C980 1.434 . S
C980 C971 1.429 . S
C980 N977 1.350 . S
C980 C979 1.434 . S
C981 C982 1.369 . S
C981 C983 1.419 . S
C981 H985 0.930 . S
C982 C981 1.369 . S
C982 C991 1.429 . S
C983 C981 1.419 . S
C983 C984 1.363 . S
C983 H986 0.929 . S
C984 C983 1.363 . S
C984 C990 1.428 . S
H985 C981 0.930 . S
H986 C983 0.929 . S
S987 N988 1.613 . S
S987 N989 1.610 . S
N988 S987 1.613 . S
N988 C991 1.350 . S
N989 S987 1.610 . S
N989 C990 1.351 . S
C990 C984 1.428 . S
C990 N989 1.351 . S
C990 C991 1.434 . S
C991 C982 1.429 . S
C991 N988 1.350 . S
C991 C990 1.434 . S
C992 C993 1.369 . S
C992 C994 1.419 . S
C992 H996 0.930 . S
C993 C992 1.369 . S
C993 C1002 1.429 . S
C994 C992 1.419 . S
C994 C995 1.363 . S
C994 H997 0.929 . S
C995 C994 1.363 . S
C995 C1001 1.428 . S
H996 C992 0.930 . S
H997 C994 0.929 . S
S998 N999 1.613 . S
S998 N1000 1.610 . S
N999 S998 1.613 . S
N999 C1002 1.350 . S
N1000 S998 1.610 . S
N1000 C1001 1.351 . S
C1001 C995 1.428 . S
C1001 N1000 1.351 . S
C1001 C1002 1.434 . S
C1002 C993 1.429 . S
C1002 N999 1.350 . S
C1002 C1001 1.434 . S
C1003 C1004 1.369 . S
C1003 C1005 1.419 . S
C1003 H1007 0.930 . S
C1004 C1003 1.369 . S
C1004 C1013 1.429 . S
C1005 C1003 1.419 . S
C1005 C1006 1.363 . S
C1005 H1008 0.929 . S
C1006 C1005 1.363 . S
C1006 C1012 1.428 . S
H1007 C1003 0.930 . S
H1008 C1005 0.929 . S
S1009 N1010 1.613 . S
S1009 N1011 1.610 . S
N1010 S1009 1.613 . S
N1010 C1013 1.350 . S
N1011 S1009 1.610 . S
N1011 C1012 1.351 . S
C1012 C1006 1.428 . S
C1012 N1011 1.351 . S
C1012 C1013 1.434 . S
C1013 C1004 1.429 . S
C1013 N1010 1.350 . S
C1013 C1012 1.434 . S
C1014 C1015 1.369 . S
C1014 C1016 1.419 . S
C1014 H1018 0.930 . S
C1015 C1014 1.369 . S
C1015 C1024 1.429 . S
C1016 C1014 1.419 . S
C1016 C1017 1.363 . S
C1016 H1019 0.929 . S
C1017 C1016 1.363 . S
C1017 C1023 1.428 . S
H1018 C1014 0.930 . S
H1019 C1016 0.929 . S
S1020 N1021 1.613 . S
S1020 N1022 1.610 . S
N1021 S1020 1.613 . S
N1021 C1024 1.350 . S
N1022 S1020 1.610 . S
N1022 C1023 1.351 . S
C1023 C1017 1.428 . S
C1023 N1022 1.351 . S
C1023 C1024 1.434 . S
C1024 C1015 1.429 . S
C1024 N1021 1.350 . S
C1024 C1023 1.434 . S
C1025 C1026 1.369 . S
C1025 C1027 1.419 . S
C1025 H1029 0.930 . S
C1026 C1025 1.369 . S
C1026 C1035 1.429 . S
C1027 C1025 1.419 . S
C1027 C1028 1.363 . S
C1027 H1030 0.929 . S
C1028 C1027 1.363 . S
C1028 C1034 1.428 . S
H1029 C1025 0.930 . S
H1030 C1027 0.929 . S
S1031 N1032 1.613 . S
S1031 N1033 1.610 . S
N1032 S1031 1.613 . S
N1032 C1035 1.350 . S
N1033 S1031 1.610 . S
N1033 C1034 1.351 . S
C1034 C1028 1.428 . S
C1034 N1033 1.351 . S
C1034 C1035 1.434 . S
C1035 C1026 1.429 . S
C1035 N1032 1.350 . S
C1035 C1034 1.434 . S
C1036 C1037 1.369 . S
C1036 C1038 1.419 . S
C1036 H1040 0.930 . S
C1037 C1036 1.369 . S
C1037 C1046 1.429 . S
C1038 C1036 1.419 . S
C1038 C1039 1.363 . S
C1038 H1041 0.929 . S
C1039 C1038 1.363 . S
C1039 C1045 1.428 . S
H1040 C1036 0.930 . S
H1041 C1038 0.929 . S
S1042 N1043 1.613 . S
S1042 N1044 1.610 . S
N1043 S1042 1.613 . S
N1043 C1046 1.350 . S
N1044 S1042 1.610 . S
N1044 C1045 1.351 . S
C1045 C1039 1.428 . S
C1045 N1044 1.351 . S
C1045 C1046 1.434 . S
C1046 C1037 1.429 . S
C1046 N1043 1.350 . S
C1046 C1045 1.434 . S
C1047 C1048 1.369 . S
C1047 C1049 1.419 . S
C1047 H1051 0.930 . S
C1048 C1047 1.369 . S
C1048 C1057 1.429 . S
C1049 C1047 1.419 . S
C1049 C1050 1.363 . S
C1049 H1052 0.929 . S
C1050 C1049 1.363 . S
C1050 C1056 1.428 . S
H1051 C1047 0.930 . S
H1052 C1049 0.929 . S
S1053 N1054 1.613 . S
S1053 N1055 1.610 . S
N1054 S1053 1.613 . S
N1054 C1057 1.350 . S
N1055 S1053 1.610 . S
N1055 C1056 1.351 . S
C1056 C1050 1.428 . S
C1056 N1055 1.351 . S
C1056 C1057 1.434 . S
C1057 C1048 1.429 . S
C1057 N1054 1.350 . S
C1057 C1056 1.434 . S
C1058 C1059 1.369 . S
C1058 C1060 1.419 . S
C1058 H1062 0.930 . S
C1059 C1058 1.369 . S
C1059 C1068 1.429 . S
C1060 C1058 1.419 . S
C1060 C1061 1.363 . S
C1060 H1063 0.929 . S
C1061 C1060 1.363 . S
C1061 C1067 1.428 . S
H1062 C1058 0.930 . S
H1063 C1060 0.929 . S
S1064 N1065 1.613 . S
S1064 N1066 1.610 . S
N1065 S1064 1.613 . S
N1065 C1068 1.350 . S
N1066 S1064 1.610 . S
N1066 C1067 1.351 . S
C1067 C1061 1.428 . S
C1067 N1066 1.351 . S
C1067 C1068 1.434 . S
C1068 C1059 1.429 . S
C1068 N1065 1.350 . S
C1068 C1067 1.434 . S
C1069 C1070 1.369 . S
C1069 C1071 1.419 . S
C1069 H1073 0.930 . S
C1070 C1069 1.369 . S
C1070 C1079 1.429 . S
C1071 C1069 1.419 . S
C1071 C1072 1.363 . S
C1071 H1074 0.929 . S
C1072 C1071 1.363 . S
C1072 C1078 1.428 . S
H1073 C1069 0.930 . S
H1074 C1071 0.929 . S
S1075 N1076 1.613 . S
S1075 N1077 1.610 . S
N1076 S1075 1.613 . S
N1076 C1079 1.350 . S
N1077 S1075 1.610 . S
N1077 C1078 1.351 . S
C1078 C1072 1.428 . S
C1078 N1077 1.351 . S
C1078 C1079 1.434 . S
C1079 C1070 1.429 . S
C1079 N1076 1.350 . S
C1079 C1078 1.434 . S
C1080 C1081 1.369 . S
C1080 C1082 1.419 . S
C1080 H1084 0.930 . S
C1081 C1080 1.369 . S
C1081 C1090 1.429 . S
C1082 C1080 1.419 . S
C1082 C1083 1.363 . S
C1082 H1085 0.929 . S
C1083 C1082 1.363 . S
C1083 C1089 1.428 . S
H1084 C1080 0.930 . S
H1085 C1082 0.929 . S
S1086 N1087 1.613 . S
S1086 N1088 1.610 . S
N1087 S1086 1.613 . S
N1087 C1090 1.350 . S
N1088 S1086 1.610 . S
N1088 C1089 1.351 . S
C1089 C1083 1.428 . S
C1089 N1088 1.351 . S
C1089 C1090 1.434 . S
C1090 C1081 1.429 . S
C1090 N1087 1.350 . S
C1090 C1089 1.434 . S
C1091 C1092 1.369 . S
C1091 C1093 1.419 . S
C1091 H1095 0.930 . S
C1092 C1091 1.369 . S
C1092 C1101 1.429 . S
C1093 C1091 1.419 . S
C1093 C1094 1.363 . S
C1093 H1096 0.929 . S
C1094 C1093 1.363 . S
C1094 C1100 1.428 . S
H1095 C1091 0.930 . S
H1096 C1093 0.929 . S
S1097 N1098 1.613 . S
S1097 N1099 1.610 . S
N1098 S1097 1.613 . S
N1098 C1101 1.350 . S
N1099 S1097 1.610 . S
N1099 C1100 1.351 . S
C1100 C1094 1.428 . S
C1100 N1099 1.351 . S
C1100 C1101 1.434 . S
C1101 C1092 1.429 . S
C1101 N1098 1.350 . S
C1101 C1100 1.434 . S
C1102 C1103 1.369 . S
C1102 C1104 1.419 . S
C1102 H1106 0.930 . S
C1103 C1102 1.369 . S
C1103 C1112 1.429 . S
C1104 C1102 1.419 . S
C1104 C1105 1.363 . S
C1104 H1107 0.929 . S
C1105 C1104 1.363 . S
C1105 C1111 1.428 . S
H1106 C1102 0.930 . S
H1107 C1104 0.929 . S
S1108 N1109 1.613 . S
S1108 N1110 1.610 . S
N1109 S1108 1.613 . S
N1109 C1112 1.350 . S
N1110 S1108 1.610 . S
N1110 C1111 1.351 . S
C1111 C1105 1.428 . S
C1111 N1110 1.351 . S
C1111 C1112 1.434 . S
C1112 C1103 1.429 . S
C1112 N1109 1.350 . S
C1112 C1111 1.434 . S
C1113 C1114 1.369 . S
C1113 C1115 1.419 . S
C1113 H1117 0.930 . S
C1114 C1113 1.369 . S
C1114 C1123 1.429 . S
C1115 C1113 1.419 . S
C1115 C1116 1.363 . S
C1115 H1118 0.929 . S
C1116 C1115 1.363 . S
C1116 C1122 1.428 . S
H1117 C1113 0.930 . S
H1118 C1115 0.929 . S
S1119 N1120 1.613 . S
S1119 N1121 1.610 . S
N1120 S1119 1.613 . S
N1120 C1123 1.350 . S
N1121 S1119 1.610 . S
N1121 C1122 1.351 . S
C1122 C1116 1.428 . S
C1122 N1121 1.351 . S
C1122 C1123 1.434 . S
C1123 C1114 1.429 . S
C1123 N1120 1.350 . S
C1123 C1122 1.434 . S
C1124 C1125 1.369 . S
C1124 C1126 1.419 . S
C1124 H1128 0.930 . S
C1125 C1124 1.369 . S
C1125 C1134 1.429 . S
C1126 C1124 1.419 . S
C1126 C1127 1.363 . S
C1126 H1129 0.929 . S
C1127 C1126 1.363 . S
C1127 C1133 1.428 . S
H1128 C1124 0.930 . S
H1129 C1126 0.929 . S
S1130 N1131 1.613 . S
S1130 N1132 1.610 . S
N1131 S1130 1.613 . S
N1131 C1134 1.350 . S
N1132 S1130 1.610 . S
N1132 C1133 1.351 . S
C1133 C1127 1.428 . S
C1133 N1132 1.351 . S
C1133 C1134 1.434 . S
C1134 C1125 1.429 . S
C1134 N1131 1.350 . S
C1134 C1133 1.434 . S
C1135 C1136 1.369 . S
C1135 C1137 1.419 . S
C1135 H1139 0.930 . S
C1136 C1135 1.369 . S
C1136 C1145 1.429 . S
C1137 C1135 1.419 . S
C1137 C1138 1.363 . S
C1137 H1140 0.929 . S
C1138 C1137 1.363 . S
C1138 C1144 1.428 . S
H1139 C1135 0.930 . S
H1140 C1137 0.929 . S
S1141 N1142 1.613 . S
S1141 N1143 1.610 . S
N1142 S1141 1.613 . S
N1142 C1145 1.350 . S
N1143 S1141 1.610 . S
N1143 C1144 1.351 . S
C1144 C1138 1.428 . S
C1144 N1143 1.351 . S
C1144 C1145 1.434 . S
C1145 C1136 1.429 . S
C1145 N1142 1.350 . S
C1145 C1144 1.434 . S
C1146 C1147 1.369 . S
C1146 C1148 1.419 . S
C1146 H1150 0.930 . S
C1147 C1146 1.369 . S
C1147 C1156 1.429 . S
C1148 C1146 1.419 . S
C1148 C1149 1.363 . S
C1148 H1151 0.929 . S
C1149 C1148 1.363 . S
C1149 C1155 1.428 . S
H1150 C1146 0.930 . S
H1151 C1148 0.929 . S
S1152 N1153 1.613 . S
S1152 N1154 1.610 . S
N1153 S1152 1.613 . S
N1153 C1156 1.350 . S
N1154 S1152 1.610 . S
N1154 C1155 1.351 . S
C1155 C1149 1.428 . S
C1155 N1154 1.351 . S
C1155 C1156 1.434 . S
C1156 C1147 1.429 . S
C1156 N1153 1.350 . S
C1156 C1155 1.434 . S
C1157 C1158 1.369 . S
C1157 C1159 1.419 . S
C1157 H1161 0.930 . S
C1158 C1157 1.369 . S
C1158 C1167 1.429 . S
C1159 C1157 1.419 . S
C1159 C1160 1.363 . S
C1159 H1162 0.929 . S
C1160 C1159 1.363 . S
C1160 C1166 1.428 . S
H1161 C1157 0.930 . S
H1162 C1159 0.929 . S
S1163 N1164 1.613 . S
S1163 N1165 1.610 . S
N1164 S1163 1.613 . S
N1164 C1167 1.350 . S
N1165 S1163 1.610 . S
N1165 C1166 1.351 . S
C1166 C1160 1.428 . S
C1166 N1165 1.351 . S
C1166 C1167 1.434 . S
C1167 C1158 1.429 . S
C1167 N1164 1.350 . S
C1167 C1166 1.434 . S
C641 C11 1.588 . S
C643 C371 1.590 . S
C652 C51 1.589 . S
C654 C331 1.587 . S
C663 C451 1.590 . S
C665 C91 1.588 . S
C674 C131 1.589 . S
C676 C411 1.587 . S
C685 C522 1.589 . S
C687 C162 1.590 . S
C696 C482 1.587 . S
C698 C202 1.589 . S
C707 C602 1.590 . S
C709 C242 1.589 . S
C718 C282 1.588 . S
C720 C562 1.588 . S
C729 C99 1.771 . S
C731 C19 1.770 . S
C740 C139 1.771 . S
C742 C59 1.772 . S
C751 C250 1.769 . S
C753 C170 1.770 . S
C762 C210 1.772 . S
C764 C290 1.771 . S
C773 C419 1.769 . S
C775 C339 1.770 . S
C784 C459 1.772 . S
C786 C379 1.772 . S
C795 C490 1.773 . S
C797 C570 1.772 . S
C806 C530 1.770 . S
C808 C610 1.770 . S
C817 C219 1.528 . S
C819 C10 1.529 . S
C828 C179 1.538 . S
C830 C50 1.537 . S
C839 C90 1.530 . S
C841 C299 1.531 . S
C850 C259 1.528 . S
C852 C130 1.529 . S
C861 C330 1.528 . S
C863 C539 1.529 . S
C872 C499 1.532 . S
C874 C370 1.533 . S
C883 C410 1.528 . S
C885 C619 1.529 . S
C894 C579 1.528 . S
C896 C450 1.529 . S
C905 C42 1.636 . S
C907 C2 1.628 . S
C916 C122 1.628 . S
C918 C82 1.634 . S
C927 C211 1.632 . S
C929 C171 1.633 . S
C938 C251 1.630 . S
C940 C291 1.631 . S
C949 C362 1.634 . S
C951 C322 1.629 . S
C960 C442 1.634 . S
C962 C402 1.629 . S
C971 C491 1.636 . S
C973 C531 1.629 . S
C982 C571 1.635 . S
C984 C611 1.630 . S
C993 C7 1.521 . S
C995 C16 1.517 . S
C1004 C47 1.519 . S
C1006 C56 1.518 . S
C1015 C87 1.522 . S
C1017 C96 1.516 . S
C1026 C136 1.517 . S
C1028 C127 1.520 . S
C1037 C176 1.516 . S
C1039 C167 1.520 . S
C1048 C207 1.518 . S
C1050 C216 1.519 . S
C1059 C256 1.520 . S
C1061 C247 1.517 . S
C1070 C296 1.520 . S
C1072 C287 1.518 . S
C1081 C336 1.516 1_545 S
C1083 C327 1.521 . S
C1092 C367 1.516 . S
C1094 C376 1.521 1_565 S
C1103 C416 1.516 1_565 S
C1105 C407 1.520 . S
C1114 C456 1.520 1_545 S
C1116 C447 1.517 . S
C1125 C496 1.519 . S
C1127 C487 1.519 1_565 S
C1136 C536 1.519 . S
C1138 C527 1.518 1_545 S
C1147 C567 1.518 1_545 S
C1149 C576 1.519 . S
C1158 C616 1.517 . S
C1160 C607 1.520 1_565 S
