# Generated by pormake.
# Topology msp, (4)-cn, num edge types: 1
# Building blocks:
#     Node 0, Type 0, BuildingBlock: NAWXER_clean_sbu_0, # of connection points: 4
#     Node 1, Type 0, BuildingBlock: NAWXER_clean_sbu_0, # of connection points: 4
#     Node 2, Type 0, BuildingBlock: NAWXER_clean_sbu_0, # of connection points: 4
#     Node 3, Type 0, BuildingBlock: NAWXER_clean_sbu_0, # of connection points: 4
#     Node 4, Type 0, BuildingBlock: NAWXER_clean_sbu_0, # of connection points: 4
#     Node 5, Type 0, BuildingBlock: NAWXER_clean_sbu_0, # of connection points: 4
#     Node 6, Type 0, BuildingBlock: NAWXER_clean_sbu_0, # of connection points: 4
#     Node 7, Type 0, BuildingBlock: NAWXER_clean_sbu_0, # of connection points: 4
#     Edge 8, Type (0, 0), BuildingBlock: EZIPEK_clean_linker_0, # of connection points: 2
#     Edge 9, Type (0, 0), BuildingBlock: EZIPEK_clean_linker_0, # of connection points: 2
#     Edge 10, Type (0, 0), BuildingBlock: EZIPEK_clean_linker_0, # of connection points: 2
#     Edge 11, Type (0, 0), BuildingBlock: EZIPEK_clean_linker_0, # of connection points: 2
#     Edge 12, Type (0, 0), BuildingBlock: EZIPEK_clean_linker_0, # of connection points: 2
#     Edge 13, Type (0, 0), BuildingBlock: EZIPEK_clean_linker_0, # of connection points: 2
#     Edge 14, Type (0, 0), BuildingBlock: EZIPEK_clean_linker_0, # of connection points: 2
#     Edge 15, Type (0, 0), BuildingBlock: EZIPEK_clean_linker_0, # of connection points: 2
#     Edge 16, Type (0, 0), BuildingBlock: EZIPEK_clean_linker_0, # of connection points: 2
#     Edge 17, Type (0, 0), BuildingBlock: EZIPEK_clean_linker_0, # of connection points: 2
#     Edge 18, Type (0, 0), BuildingBlock: EZIPEK_clean_linker_0, # of connection points: 2
#     Edge 19, Type (0, 0), BuildingBlock: EZIPEK_clean_linker_0, # of connection points: 2
#     Edge 20, Type (0, 0), BuildingBlock: EZIPEK_clean_linker_0, # of connection points: 2
#     Edge 21, Type (0, 0), BuildingBlock: EZIPEK_clean_linker_0, # of connection points: 2
#     Edge 22, Type (0, 0), BuildingBlock: EZIPEK_clean_linker_0, # of connection points: 2
#     Edge 23, Type (0, 0), BuildingBlock: EZIPEK_clean_linker_0, # of connection points: 2
# Relax obj value: 0.113
# Max RMSD: 0.238
# Mean RMSD: 0.238
data_MOF--net-msp--node1-NAWXER_clean_sbu_0--edge1-EZIPEK_clean_linker_0
_symmetry_space_group_name_H-M    P1
_symmetry_Int_Tables_number       1
_symmetry_cell_setting            triclinic
loop_
_symmetry_equiv_pos_as_xyz
'x, y, z'
_cell_length_a     16.534767
_cell_length_b     13.870439
_cell_length_c     32.042702
_cell_angle_alpha  89.9681
_cell_angle_beta   101.391
_cell_angle_gamma 89.652802
loop_
_atom_site_label
_atom_site_type_symbol
_atom_site_fract_x
_atom_site_fract_y
_atom_site_fract_z
_atom_type_partial_charge
C0 C 0.13753 0.21887 0.43179 0.0
C1 C 0.90835 0.33705 0.32622 0.0
O2 O 0.14912 0.30607 0.42088 0.0
Zn3 Zn 0.08172 0.41346 0.37746 0.0
O4 O 0.07453 0.1726 0.41332 0.0
Zn5 Zn 0.0272 0.2789 0.37875 0.0
O6 O 0.11026 0.29055 0.33439 0.0
O7 O 0.15464 0.44048 0.33973 0.0
O8 O 0.92136 0.25559 0.34416 0.0
O9 O 0.96166 0.40422 0.33616 0.0
O10 O 0.07095 0.51401 0.41693 0.0
O11 O 1.00763 0.37944 0.42849 0.0
C12 C 0.15423 0.35782 0.32291 0.0
C13 C 0.03031 0.46582 0.4393 0.0
C14 C 0.36865 0.28419 0.7017 0.0
C15 C 0.49809 0.39922 0.58901 0.0
O16 O 0.40523 0.21437 0.68653 0.0
Zn17 Zn 0.48473 0.20083 0.64033 0.0
O18 O 0.37728 0.3699 0.68972 0.0
Zn19 Zn 0.44624 0.34133 0.64994 0.0
O20 O 0.36612 0.25569 0.60205 0.0
O21 O 0.42414 0.11156 0.60048 0.0
O22 O 0.46595 0.44789 0.61509 0.0
O23 O 0.51173 0.30856 0.59518 0.0
O24 O 0.58861 0.1542 0.6715 0.0
O25 O 0.56505 0.30424 0.68858 0.0
C26 C 0.36691 0.17121 0.58585 0.0
C27 C 0.61125 0.22872 0.69334 0.0
C28 C 0.84331 0.77744 0.70391 0.0
C29 C 0.97561 0.63815 0.59563 0.0
O30 O 0.8444 0.69089 0.69133 0.0
Zn31 Zn 0.9177 0.70795 0.65278 0.0
O32 O 0.88545 0.84143 0.68874 0.0
Zn33 Zn 0.96216 0.84451 0.64099 0.0
O34 O 0.90295 0.93146 0.59821 0.0
O35 O 0.84379 0.78996 0.60153 0.0
O36 O 0.98952 0.72898 0.59954 0.0
O37 O 0.94001 0.59493 0.62185 0.0
O38 O 0.03467 0.74358 0.69284 0.0
O39 O 0.06789 0.88677 0.67142 0.0
C40 C 0.84693 0.87153 0.58314 0.0
C41 C 0.08467 0.81481 0.69605 0.0
C42 C 0.43518 0.67454 0.30897 0.0
C43 C 0.64958 0.79625 0.42112 0.0
O44 O 0.44486 0.75635 0.32651 0.0
Zn45 Zn 0.548 0.73265 0.36476 0.0
O46 O 0.48914 0.60804 0.32078 0.0
Zn47 Zn 0.60331 0.598 0.36758 0.0
O48 O 0.58392 0.49832 0.40545 0.0
O49 O 0.52188 0.63587 0.41474 0.0
O50 O 0.66391 0.7077 0.4129 0.0
O51 O 0.58887 0.84108 0.39892 0.0
O52 O 0.64127 0.71549 0.3255 0.0
O53 O 0.6854 0.56506 0.33586 0.0
C54 C 0.54215 0.54897 0.42651 0.0
C55 C 0.68872 0.64625 0.31832 0.0
C56 C 0.62809 0.84091 0.82325 0.0
C57 C 0.49406 0.95553 0.93481 0.0
O58 O 0.58678 0.77159 0.83537 0.0
Zn59 Zn 0.50274 0.75955 0.88032 0.0
O60 O 0.62356 0.92456 0.83829 0.0
Zn61 Zn 0.55132 0.89486 0.87527 0.0
O62 O 0.62458 0.79581 0.921 0.0
O63 O 0.55514 0.65885 0.91702 0.0
O64 O 0.53393 0.99895 0.91065 0.0
O65 O 0.47812 0.86575 0.9275 0.0
O66 O 0.39746 0.72607 0.84651 0.0
O67 O 0.43394 0.87353 0.83299 0.0
C68 C 0.6178 0.70842 0.93311 0.0
C69 C 0.38244 0.8039 0.82576 0.0
C70 C 0.90468 0.71948 0.20088 0.0
C71 C 0.01985 0.87716 0.09048 0.0
O72 O 0.94039 0.65856 0.1803 0.0
Zn73 Zn 1.00668 0.66326 0.12839 0.0
O74 O 0.90905 0.80887 0.19313 0.0
Zn75 Zn 0.97325 0.79868 0.14948 0.0
O76 O 0.88543 0.73349 0.09885 0.0
O77 O 0.93313 0.58992 0.0856 0.0
O78 O 0.9951 0.91621 0.12158 0.0
O79 O 0.02948 0.78532 0.08965 0.0
O80 O 0.11363 0.60807 0.15233 0.0
O81 O 0.09133 0.74586 0.18272 0.0
C82 C 0.87798 0.65533 0.07719 0.0
C83 C 0.13727 0.672 0.1803 0.0
C84 C 0.50525 0.13555 0.09852 0.0
C85 C 0.36661 0.28453 0.20294 0.0
O86 O 0.46845 0.09581 0.12516 0.0
Zn87 Zn 0.44644 0.20998 0.15511 0.0
O88 O 0.51707 0.22698 0.10151 0.0
Zn89 Zn 0.48818 0.3455 0.14098 0.0
O90 O 0.5908 0.39178 0.17294 0.0
O91 O 0.56317 0.24729 0.19444 0.0
O92 O 0.40417 0.34803 0.18486 0.0
O93 O 0.37507 0.19587 0.19499 0.0
O94 O 0.37028 0.28961 0.10289 0.0
O95 O 0.43164 0.42954 0.09724 0.0
C96 C 0.61002 0.32138 0.19815 0.0
C97 C 0.37354 0.3708 0.084 0.0
C98 C 0.91044 0.22685 0.82235 0.0
C99 C 0.13775 0.32789 0.93182 0.0
O100 O 0.91982 0.30137 0.84545 0.0
Zn101 Zn 0.02671 0.27278 0.87839 0.0
O102 O 0.96588 0.16029 0.82842 0.0
Zn103 Zn 0.08329 0.14131 0.87211 0.0
O104 O 0.07226 0.0331 0.90774 0.0
O105 O 0.01157 0.16427 0.92592 0.0
O106 O 0.15048 0.24278 0.91857 0.0
O107 O 0.07316 0.37476 0.91532 0.0
O108 O 0.10959 0.2696 0.83284 0.0
O109 O 0.15906 0.12068 0.83538 0.0
C110 C 0.03476 0.07624 0.9332 0.0
C111 C 0.15609 0.20546 0.82042 0.0
C112 C 0.94576 0.5676 0.47908 0.0
C113 C 0.01496 0.50673 0.47968 0.0
C114 C 0.05961 0.53161 0.55683 0.0
C115 C 0.98798 0.58824 0.55649 0.0
N116 N 0.85451 0.64429 0.51971 0.0
N117 N 0.13376 0.42143 0.51887 0.0
C118 C 0.9287 0.60193 0.51823 0.0
C119 C 0.07063 0.48569 0.51856 0.0
N120 N 0.89675 0.59299 0.44105 0.0
N121 N 0.1181 0.52435 0.59342 0.0
H122 H 0.17069 0.39409 0.54649 0.0
H123 H 0.14655 0.39069 0.49126 0.0
H124 H 0.11063 0.55517 0.62214 0.0
H125 H 0.17595 0.49293 0.59502 0.0
H126 H 0.85095 0.64575 0.43797 0.0
H127 H 0.90549 0.56596 0.41187 0.0
H128 H 0.83716 0.66245 0.54818 0.0
H129 H 0.80677 0.65296 0.49349 0.0
C130 C 0.59882 0.50393 0.50248 0.0
C131 C 0.52946 0.51346 0.46838 0.0
C132 C 0.4392 0.44947 0.51384 0.0
C133 C 0.50821 0.44336 0.54828 0.0
N134 N 0.64946 0.48072 0.57829 0.0
N135 N 0.38282 0.50625 0.44213 0.0
C136 C 0.5869 0.47496 0.54339 0.0
C137 C 0.44926 0.48976 0.47429 0.0
N138 N 0.6765 0.5213 0.49566 0.0
N139 N 0.36448 0.41428 0.51865 0.0
H140 H 0.38863 0.53094 0.41214 0.0
H141 H 0.32175 0.50067 0.44557 0.0
H142 H 0.35309 0.3903 0.54772 0.0
H143 H 0.31465 0.40423 0.4936 0.0
H144 H 0.72992 0.50226 0.51724 0.0
H145 H 0.68828 0.54929 0.4673 0.0
H146 H 0.70595 0.51322 0.57803 0.0
H147 H 0.64234 0.46038 0.6087 0.0
C148 C 0.5359 0.13484 0.02428 0.0
C149 C 0.51666 0.08227 0.05901 0.0
C150 C 0.46305 0.95076 0.00976 0.0
C151 C 0.48164 1.00451 0.97513 0.0
N152 N 0.49829 0.16462 0.94881 0.0
N153 N 0.49475 0.92405 0.0859 0.0
C154 C 0.50703 0.10171 0.9822 0.0
C155 C 0.48936 0.98542 0.05212 0.0
N156 N 0.58732 0.21229 0.03138 0.0
N157 N 0.41404 0.87132 1.00223 0.0
H158 H 0.52452 0.94311 0.11655 0.0
H159 H 0.48139 0.85082 0.08261 0.0
H160 H 0.38358 0.85224 0.97174 0.0
H161 H 0.39327 0.83381 0.02622 0.0
H162 H 0.60745 0.24894 1.00694 0.0
H163 H 0.62012 0.22969 0.06165 0.0
H164 H 0.51136 0.23784 0.95255 0.0
H165 H 0.46678 0.14615 0.9184 0.0
C166 C 0.94917 0.95975 0.02328 0.0
C167 C 0.02381 0.93445 0.05181 0.0
C168 C 0.10391 1.01273 1.00478 0.0
C169 C 0.02988 0.02988 0.97441 0.0
N170 N 0.88312 1.01143 0.95211 0.0
N171 N 0.1722 0.9267 0.06816 0.0
C172 C 0.95264 1.00179 0.98307 0.0
C173 C 0.10122 0.958 0.04208 0.0
N174 N 0.87486 0.94368 0.03464 0.0
N175 N 0.17645 0.05198 0.99875 0.0
H176 H 0.17261 0.89028 0.09671 0.0
H177 H 0.23023 0.93117 0.06029 0.0
H178 H 0.18123 0.09276 0.97203 0.0
H179 H 0.23058 0.05132 0.02175 0.0
H180 H 0.81888 0.9698 0.01756 0.0
H181 H 0.86909 0.90971 0.0629 0.0
H182 H 0.82628 0.98207 0.95421 0.0
H183 H 0.88347 0.0431 0.92263 0.0
C184 C 0.68186 0.3205 0.27558 0.0
C185 C 0.68626 0.32642 0.23168 0.0
C186 C 0.83348 0.36583 0.25099 0.0
C187 C 0.83073 0.35207 0.29449 0.0
N188 N 0.75174 0.34003 0.34952 0.0
N189 N 0.7691 0.33403 0.17771 0.0
C190 C 0.7545 0.33588 0.30714 0.0
C191 C 0.76278 0.34415 0.21942 0.0
N192 N 0.60896 0.2974 0.28705 0.0
N193 N 0.90274 0.40234 0.23979 0.0
H194 H 0.71942 0.31493 0.15375 0.0
H195 H 0.82497 0.33545 0.16739 0.0
H196 H 0.95414 0.42368 0.26204 0.0
H197 H 0.906 0.42198 0.20881 0.0
H198 H 0.6023 0.28366 0.31807 0.0
H199 H 0.55453 0.28585 0.26521 0.0
H200 H 0.69804 0.33687 0.3617 0.0
H201 H 0.80364 0.35528 0.37287 0.0
C202 C 0.69536 0.16649 0.76191 0.0
C203 C 0.68926 0.22635 0.72548 0.0
C204 C 0.82994 0.28454 0.7519 0.0
C205 C 0.83735 0.22062 0.7872 0.0
N206 N 0.7836 0.08848 0.82199 0.0
N207 N 0.7541 0.33007 0.6817 0.0
C208 C 0.77216 0.15745 0.79089 0.0
C209 C 0.75751 0.2822 0.71934 0.0
N210 N 0.62646 0.12255 0.77019 0.0
N211 N 0.89198 0.34795 0.74968 0.0
H212 H 0.70216 0.3293 0.6572 0.0
H213 H 0.80444 0.36412 0.67324 0.0
H214 H 0.94829 0.34731 0.77118 0.0
H215 H 0.88638 0.4044 0.72785 0.0
H216 H 0.62437 0.0897 0.79915 0.0
H217 H 0.56916 0.12611 0.7496 0.0
H218 H 0.74193 0.03311 0.82306 0.0
H219 H 0.83791 0.08158 0.84472 0.0
C220 C 0.23841 0.79934 0.7173 0.0
C221 C 0.16105 0.81428 0.72918 0.0
C222 C 0.22888 0.82317 0.8045 0.0
C223 C 0.30659 0.81239 0.79246 0.0
N224 N 0.38784 0.80032 0.7379 0.0
N225 N 0.08186 0.85427 0.78245 0.0
C226 C 0.31207 0.80405 0.74892 0.0
C227 C 0.15601 0.82983 0.77238 0.0
N228 N 0.24096 0.77627 0.67605 0.0
N229 N 0.22486 0.82586 0.84673 0.0
H230 H 0.0271 0.85868 0.75986 0.0
H231 H 0.07504 0.87696 0.81251 0.0
H232 H 0.27713 0.82683 0.87105 0.0
H233 H 0.17006 0.82199 0.85796 0.0
H234 H 0.29416 0.75413 0.66594 0.0
H235 H 0.18829 0.77248 0.65206 0.0
H236 H 0.3968 0.80603 0.70675 0.0
H237 H 0.44292 0.79703 0.76026 0.0
C238 C 0.28284 0.6469 0.28764 0.0
C239 C 0.36052 0.65707 0.27561 0.0
C240 C 0.29244 0.66672 0.2002 0.0
C241 C 0.21471 0.65844 0.21233 0.0
N242 N 0.13511 0.6213 0.26556 0.0
N243 N 0.44192 0.66058 0.22109 0.0
C244 C 0.20977 0.64249 0.25555 0.0
C245 C 0.36606 0.66097 0.23198 0.0
N246 N 0.27921 0.64332 0.3299 0.0
N247 N 0.29553 0.68586 0.15865 0.0
H248 H 0.49667 0.6628 0.24365 0.0
H249 H 0.45113 0.65218 0.1901 0.0
H250 H 0.24302 0.68979 0.13454 0.0
H251 H 0.34924 0.70357 0.14817 0.0
H252 H 0.2248 0.64641 0.34151 0.0
H253 H 0.33178 0.6412 0.35401 0.0
H254 H 0.12672 0.60352 0.2959 0.0
H255 H 0.08101 0.61495 0.24267 0.0
C256 C 0.34182 0.35775 0.27106 0.0
C257 C 0.30994 0.31357 0.23136 0.0
C258 C 0.17301 0.30485 0.25009 0.0
C259 C 0.20758 0.33879 0.2916 0.0
N260 N 0.32829 0.37807 0.34444 0.0
N261 N 0.19572 0.24418 0.18228 0.0
C262 C 0.29294 0.36029 0.30284 0.0
C263 C 0.22559 0.28679 0.22069 0.0
N264 N 0.41848 0.39799 0.27845 0.0
N265 N 0.0896 0.29326 0.23821 0.0
H266 H 0.22958 0.23913 0.15812 0.0
H267 H 0.13853 0.2107 0.17474 0.0
H268 H 0.04937 0.30174 0.25913 0.0
H269 H 0.05921 0.28093 0.20703 0.0
H270 H 0.44308 0.43561 0.30603 0.0
H271 H 0.45466 0.40246 0.25542 0.0
H272 H 0.39165 0.38406 0.35544 0.0
H273 H 0.29541 0.37636 0.36905 0.0
C274 C 0.34895 0.24599 0.77536 0.0
C275 C 0.31399 0.26492 0.73206 0.0
C276 C 0.1746 0.2444 0.74645 0.0
C277 C 0.20956 0.23048 0.79016 0.0
N278 N 0.32764 0.23338 0.8479 0.0
N279 N 0.19468 0.29329 0.67642 0.0
C280 C 0.29616 0.23523 0.80508 0.0
C281 C 0.22702 0.26779 0.71763 0.0
N282 N 0.43267 0.23737 0.78798 0.0
N283 N 0.09179 0.23119 0.73229 0.0
H284 H 0.23091 0.30575 0.65377 0.0
H285 H 0.13237 0.30772 0.6651 0.0
H286 H 0.05156 0.21494 0.75257 0.0
H287 H 0.06341 0.22972 0.70028 0.0
H288 H 0.46159 0.21175 0.81778 0.0
H289 H 0.47351 0.25033 0.76766 0.0
H290 H 0.38885 0.24877 0.86112 0.0
H291 H 0.29106 0.2247 0.87068 0.0
C292 C 0.75791 0.77102 0.80606 0.0
C293 C 0.68374 0.82433 0.793 0.0
C294 C 0.72632 0.86754 0.72644 0.0
C295 C 0.79414 0.80254 0.73656 0.0
N296 N 0.87547 0.69137 0.78607 0.0
N297 N 0.59167 0.91401 0.73886 0.0
C298 C 0.80998 0.75362 0.77638 0.0
C299 C 0.66653 0.87033 0.75272 0.0
N300 N 0.78081 0.74167 0.84747 0.0
N301 N 0.71948 0.92811 0.6923 0.0
H302 H 0.54669 0.91901 0.75746 0.0
H303 H 0.5716 0.93873 0.70782 0.0
H304 H 0.76224 0.93003 0.67253 0.0
H305 H 0.67615 0.98368 0.68617 0.0
H306 H 0.83819 0.71155 0.86024 0.0
H307 H 0.74512 0.75527 0.87027 0.0
H308 H 0.88377 0.64389 0.81178 0.0
H309 H 0.92023 0.68445 0.76742 0.0
C310 C 0.78761 0.6264 0.2213 0.0
C311 C 0.85746 0.68699 0.23337 0.0
C312 C 0.82285 0.70816 0.30403 0.0
C313 C 0.7473 0.65975 0.28944 0.0
N314 N 0.65415 0.57722 0.23397 0.0
N315 N 0.945 0.78203 0.28685 0.0
C316 C 0.72887 0.61981 0.24807 0.0
C317 C 0.87608 0.72676 0.27503 0.0
N318 N 0.77817 0.5727 0.18497 0.0
N319 N 0.84478 0.73318 0.34599 0.0
H320 H 0.98996 0.78842 0.2683 0.0
H321 H 0.95682 0.82361 0.31438 0.0
H322 H 0.80692 0.72044 0.36782 0.0
H323 H 0.90242 0.75984 0.36003 0.0
H324 H 0.7299 0.52498 0.17526 0.0
H325 H 0.82242 0.56787 0.16613 0.0
H326 H 0.63059 0.56319 0.20201 0.0
H327 H 0.61259 0.56272 0.25373 0.0
C328 C 0.22335 0.1475 0.54628 0.0
C329 C 0.30852 0.15196 0.54579 0.0
C330 C 0.27844 0.1684 0.46835 0.0
C331 C 0.19349 0.17797 0.46924 0.0
N332 N 0.08374 0.18174 0.50928 0.0
N333 N 0.41881 0.15988 0.50615 0.0
C334 C 0.1651 0.16647 0.50813 0.0
C335 C 0.3364 0.1586 0.50679 0.0
N336 N 0.19877 0.12543 0.58344 0.0
N337 N 0.30645 0.172 0.43114 0.0
H338 H 0.46477 0.15362 0.53342 0.0
H339 H 0.44103 0.16734 0.478 0.0
H340 H 0.26818 0.17803 0.40114 0.0
H341 H 0.26818 0.17803 0.40114 0.0
H342 H 0.13782 0.11227 0.58558 0.0
H343 H 0.2409 0.11163 0.6117 0.0
H344 H 0.06123 0.18686 0.53732 0.0
H345 H 0.03867 0.19577 0.48229 0.0
C346 C 0.70758 0.8729 0.53628 0.0
C347 C 0.79388 0.885 0.5405 0.0
C348 C 0.77863 0.86851 0.46293 0.0
C349 C 0.6959 0.84025 0.46048 0.0
N350 N 0.57821 0.82238 0.49428 0.0
N351 N 0.91373 0.88735 0.50739 0.0
C352 C 0.65926 0.84564 0.4968 0.0
C353 C 0.82998 0.88335 0.50357 0.0
N354 N 0.66984 0.88381 0.57006 0.0
N355 N 0.80754 0.88227 0.42629 0.0
H356 H 0.9545 0.89904 0.53607 0.0
H357 H 0.9436 0.87262 0.48235 0.0
H358 H 0.7701 0.8738 0.39625 0.0
H359 H 0.86513 0.91144 0.42555 0.0
H360 H 0.70039 0.90619 0.60008 0.0
H361 H 0.70039 0.90619 0.60008 0.0
H362 H 0.55006 0.82392 0.52072 0.0
H363 H 0.53945 0.80099 0.46614 0.0
C364 C 0.8208 0.62827 0.99897 0.0
C365 C 0.8073 0.64714 0.04078 0.0
C366 C 0.66318 0.69057 0.01141 0.0
C367 C 0.67731 0.67164 0.97009 0.0
N368 N 0.75891 0.59531 0.92522 0.0
N369 N 0.71126 0.6762 0.08736 0.0
C370 C 0.75267 0.63102 0.96416 0.0
C371 C 0.72687 0.67159 0.04712 0.0
N372 N 0.899 0.61612 0.99171 0.0
N373 N 0.58986 0.73052 0.01637 0.0
H374 H 0.75692 0.66653 0.11434 0.0
H375 H 0.65232 0.68227 0.09405 0.0
H376 H 0.53975 0.73926 0.99119 0.0
H377 H 0.57977 0.75908 0.04495 0.0
H378 H 0.91238 0.61334 0.9613 0.0
H379 H 0.95177 0.61785 0.01556 0.0
H380 H 0.81005 0.5567 0.91975 0.0
H381 H 0.70923 0.59609 0.89941 0.0
C382 C 0.33804 0.38933 1.00466 0.0
C383 C 0.31277 0.38982 0.04457 0.0
C384 C 0.16896 0.36887 1.00932 0.0
C385 C 0.19439 0.36564 0.9695 0.0
N386 N 0.29669 0.39866 0.92763 0.0
N387 N 0.2049 0.40882 0.08443 0.0
C388 C 0.27702 0.385 0.96669 0.0
C389 C 0.22815 0.38959 0.04662 0.0
N390 N 0.42004 0.38629 1.00304 0.0
N391 N 0.08986 0.3456 0.01196 0.0
H392 H 0.24761 0.42474 0.11215 0.0
H393 H 0.14376 0.4183 0.0874 0.0
H394 H 0.0441 0.33044 0.98546 0.0
H395 H 0.07074 0.33499 0.04069 0.0
H396 H 0.44195 0.37571 0.9751 0.0
H397 H 0.46703 0.38904 0.02994 0.0
H398 H 0.35438 0.42132 0.92331 0.0
H399 H 0.25259 0.39592 0.89943 0.0
loop_
_geom_bond_atom_site_label_1
_geom_bond_atom_site_label_2
_geom_bond_distance
_geom_bond_site_symmetry_2
_ccdc_geom_bond_type
C0 O2 1.247 . S
C0 O4 1.258 . S
C1 O8 1.247 . S
C1 O9 1.258 . S
O2 C0 1.247 . S
O2 Zn3 2.028 . S
Zn3 O2 2.028 . S
Zn3 O7 2.035 . S
Zn3 O9 2.035 1_455 S
Zn3 O10 2.028 . S
O4 C0 1.258 . S
O4 Zn5 2.035 . S
Zn5 O4 2.035 . S
Zn5 O6 2.028 . S
Zn5 O8 2.028 1_455 S
Zn5 O11 2.035 1_455 S
O6 Zn5 2.028 . S
O6 C12 1.247 . S
O7 Zn3 2.035 . S
O7 C12 1.258 . S
O8 C1 1.247 . S
O8 Zn5 2.028 1_655 S
O9 C1 1.258 . S
O9 Zn3 2.035 1_655 S
O10 Zn3 2.028 . S
O10 C13 1.247 1_455 S
O11 Zn5 2.035 1_655 S
O11 C13 1.258 . S
C12 O6 1.247 . S
C12 O7 1.258 . S
C13 O10 1.247 1_655 S
C13 O11 1.258 . S
C14 O16 1.247 . S
C14 O18 1.258 . S
C15 O22 1.247 . S
C15 O23 1.258 . S
O16 C14 1.247 . S
O16 Zn17 2.028 . S
Zn17 O16 2.028 . S
Zn17 O21 2.035 . S
Zn17 O23 2.035 . S
Zn17 O24 2.028 . S
O18 C14 1.258 . S
O18 Zn19 2.035 . S
Zn19 O18 2.035 . S
Zn19 O20 2.028 . S
Zn19 O22 2.028 . S
Zn19 O25 2.035 . S
O20 Zn19 2.028 . S
O20 C26 1.247 . S
O21 Zn17 2.035 . S
O21 C26 1.258 . S
O22 C15 1.247 . S
O22 Zn19 2.028 . S
O23 C15 1.258 . S
O23 Zn17 2.035 . S
O24 Zn17 2.028 . S
O24 C27 1.247 . S
O25 Zn19 2.035 . S
O25 C27 1.258 . S
C26 O20 1.247 . S
C26 O21 1.258 . S
C27 O24 1.247 . S
C27 O25 1.258 . S
C28 O30 1.247 . S
C28 O32 1.258 . S
C29 O36 1.247 . S
C29 O37 1.258 1_455 S
O30 C28 1.247 . S
O30 Zn31 2.028 . S
Zn31 O30 2.028 . S
Zn31 O35 2.035 . S
Zn31 O37 2.035 . S
Zn31 O38 2.028 1_655 S
O32 C28 1.258 . S
O32 Zn33 2.035 . S
Zn33 O32 2.035 . S
Zn33 O34 2.028 . S
Zn33 O36 2.028 1_655 S
Zn33 O39 2.035 1_655 S
O34 Zn33 2.028 . S
O34 C40 1.247 . S
O35 Zn31 2.035 . S
O35 C40 1.258 . S
O36 C29 1.247 . S
O36 Zn33 2.028 1_455 S
O37 C29 1.258 1_655 S
O37 Zn31 2.035 . S
O38 Zn31 2.028 1_455 S
O38 C41 1.247 . S
O39 Zn33 2.035 1_455 S
O39 C41 1.258 . S
C40 O34 1.247 . S
C40 O35 1.258 . S
C41 O38 1.247 . S
C41 O39 1.258 . S
C42 O44 1.247 . S
C42 O46 1.258 . S
C43 O50 1.247 . S
C43 O51 1.258 . S
O44 C42 1.247 . S
O44 Zn45 2.028 . S
Zn45 O44 2.028 . S
Zn45 O49 2.035 . S
Zn45 O51 2.035 . S
Zn45 O52 2.028 . S
O46 C42 1.258 . S
O46 Zn47 2.035 . S
Zn47 O46 2.035 . S
Zn47 O48 2.028 . S
Zn47 O50 2.028 . S
Zn47 O53 2.035 . S
O48 Zn47 2.028 . S
O48 C54 1.247 . S
O49 Zn45 2.035 . S
O49 C54 1.258 . S
O50 C43 1.247 . S
O50 Zn47 2.028 . S
O51 C43 1.258 . S
O51 Zn45 2.035 . S
O52 Zn45 2.028 . S
O52 C55 1.247 . S
O53 Zn47 2.035 . S
O53 C55 1.258 . S
C54 O48 1.247 . S
C54 O49 1.258 . S
C55 O52 1.247 . S
C55 O53 1.258 . S
C56 O58 1.247 . S
C56 O60 1.258 . S
C57 O64 1.247 . S
C57 O65 1.258 . S
O58 C56 1.247 . S
O58 Zn59 2.028 . S
Zn59 O58 2.028 . S
Zn59 O63 2.035 . S
Zn59 O65 2.035 . S
Zn59 O66 2.028 . S
O60 C56 1.258 . S
O60 Zn61 2.035 . S
Zn61 O60 2.035 . S
Zn61 O62 2.028 . S
Zn61 O64 2.028 . S
Zn61 O67 2.035 . S
O62 Zn61 2.028 . S
O62 C68 1.247 . S
O63 Zn59 2.035 . S
O63 C68 1.258 . S
O64 C57 1.247 . S
O64 Zn61 2.028 . S
O65 C57 1.258 . S
O65 Zn59 2.035 . S
O66 Zn59 2.028 . S
O66 C69 1.247 . S
O67 Zn61 2.035 . S
O67 C69 1.258 . S
C68 O62 1.247 . S
C68 O63 1.258 . S
C69 O66 1.247 . S
C69 O67 1.258 . S
C70 O72 1.247 . S
C70 O74 1.258 . S
C71 O78 1.247 1_455 S
C71 O79 1.258 . S
O72 C70 1.247 . S
O72 Zn73 2.028 . S
Zn73 O72 2.028 . S
Zn73 O77 2.035 . S
Zn73 O79 2.035 1_655 S
Zn73 O80 2.028 1_655 S
O74 C70 1.258 . S
O74 Zn75 2.035 . S
Zn75 O74 2.035 . S
Zn75 O76 2.028 . S
Zn75 O78 2.028 . S
Zn75 O81 2.035 1_655 S
O76 Zn75 2.028 . S
O76 C82 1.247 . S
O77 Zn73 2.035 . S
O77 C82 1.258 . S
O78 C71 1.247 1_655 S
O78 Zn75 2.028 . S
O79 C71 1.258 . S
O79 Zn73 2.035 1_455 S
O80 Zn73 2.028 1_455 S
O80 C83 1.247 . S
O81 Zn75 2.035 1_455 S
O81 C83 1.258 . S
C82 O76 1.247 . S
C82 O77 1.258 . S
C83 O80 1.247 . S
C83 O81 1.258 . S
C84 O86 1.247 . S
C84 O88 1.258 . S
C85 O92 1.247 . S
C85 O93 1.258 . S
O86 C84 1.247 . S
O86 Zn87 2.028 . S
Zn87 O86 2.028 . S
Zn87 O91 2.035 . S
Zn87 O93 2.035 . S
Zn87 O94 2.028 . S
O88 C84 1.258 . S
O88 Zn89 2.035 . S
Zn89 O88 2.035 . S
Zn89 O90 2.028 . S
Zn89 O92 2.028 . S
Zn89 O95 2.035 . S
O90 Zn89 2.028 . S
O90 C96 1.247 . S
O91 Zn87 2.035 . S
O91 C96 1.258 . S
O92 C85 1.247 . S
O92 Zn89 2.028 . S
O93 C85 1.258 . S
O93 Zn87 2.035 . S
O94 Zn87 2.028 . S
O94 C97 1.247 . S
O95 Zn89 2.035 . S
O95 C97 1.258 . S
C96 O90 1.247 . S
C96 O91 1.258 . S
C97 O94 1.247 . S
C97 O95 1.258 . S
C98 O100 1.247 . S
C98 O102 1.258 . S
C99 O106 1.247 . S
C99 O107 1.258 . S
O100 C98 1.247 . S
O100 Zn101 2.028 1_655 S
Zn101 O100 2.028 1_455 S
Zn101 O105 2.035 1_455 S
Zn101 O107 2.035 . S
Zn101 O108 2.028 . S
O102 C98 1.258 . S
O102 Zn103 2.035 1_655 S
Zn103 O102 2.035 1_455 S
Zn103 O104 2.028 . S
Zn103 O106 2.028 . S
Zn103 O109 2.035 . S
O104 Zn103 2.028 . S
O104 C110 1.247 1_455 S
O105 Zn101 2.035 1_655 S
O105 C110 1.258 . S
O106 C99 1.247 . S
O106 Zn103 2.028 . S
O107 C99 1.258 . S
O107 Zn101 2.035 . S
O108 Zn101 2.028 . S
O108 C111 1.247 . S
O109 Zn103 2.035 . S
O109 C111 1.258 . S
C110 O104 1.247 1_655 S
C110 O105 1.258 . S
C111 O108 1.247 . S
C111 O109 1.258 . S
C112 C113 1.363 . S
C112 C118 1.379 . S
C112 N120 1.356 . S
C113 C112 1.363 . S
C113 C119 1.363 1_655 S
C114 C115 1.363 . S
C114 C119 1.379 . S
C114 N121 1.356 . S
C115 C114 1.363 . S
C115 C118 1.363 1_455 S
N116 C118 1.356 . S
N116 H128 0.984 . S
N116 H129 0.985 . S
N117 C119 1.356 . S
N117 H122 0.984 . S
N117 H123 0.985 . S
C118 C112 1.379 . S
C118 C115 1.363 1_655 S
C118 N116 1.356 . S
C119 C113 1.363 1_455 S
C119 C114 1.379 . S
C119 N117 1.356 . S
N120 C112 1.356 . S
N120 H126 0.984 . S
N120 H127 0.984 . S
N121 C114 1.356 . S
N121 H124 0.984 . S
N121 H125 0.985 . S
H122 N117 0.984 . S
H123 N117 0.985 . S
H124 N121 0.984 . S
H125 N121 0.985 . S
H126 N120 0.984 . S
H127 N120 0.984 . S
H128 N116 0.984 . S
H129 N116 0.985 . S
C130 C131 1.363 . S
C130 C136 1.379 . S
C130 N138 1.356 . S
C131 C130 1.363 . S
C131 C137 1.363 . S
C132 C133 1.363 . S
C132 C137 1.379 . S
C132 N139 1.356 . S
C133 C132 1.363 . S
C133 C136 1.363 . S
N134 C136 1.356 . S
N134 H146 0.984 . S
N134 H147 0.985 . S
N135 C137 1.356 . S
N135 H140 0.984 . S
N135 H141 0.985 . S
C136 C130 1.379 . S
C136 C133 1.363 . S
C136 N134 1.356 . S
C137 C131 1.363 . S
C137 C132 1.379 . S
C137 N135 1.356 . S
N138 C130 1.356 . S
N138 H144 0.984 . S
N138 H145 0.984 . S
N139 C132 1.356 . S
N139 H142 0.984 . S
N139 H143 0.985 . S
H140 N135 0.984 . S
H141 N135 0.985 . S
H142 N139 0.984 . S
H143 N139 0.985 . S
H144 N138 0.984 . S
H145 N138 0.984 . S
H146 N134 0.984 . S
H147 N134 0.985 . S
C148 C149 1.363 1_556 S
C148 C154 1.379 . S
C148 N156 1.356 . S
C149 C148 1.363 1_554 S
C149 C155 1.363 1_545 S
C150 C151 1.363 1_554 S
C150 C155 1.379 . S
C150 N157 1.356 . S
C151 C150 1.363 1_556 S
C151 C154 1.363 1_565 S
N152 C154 1.356 1_565 S
N152 H164 0.984 1_565 S
N152 H165 0.985 . S
N153 C155 1.356 1_545 S
N153 H158 0.984 . S
N153 H159 0.985 1_545 S
C154 C148 1.379 . S
C154 C151 1.363 1_545 S
C154 N152 1.356 1_545 S
C155 C149 1.363 1_565 S
C155 C150 1.379 . S
C155 N153 1.356 1_565 S
N156 C148 1.356 . S
N156 H162 0.984 . S
N156 H163 0.984 1_556 S
N157 C150 1.356 . S
N157 H160 0.984 1_554 S
N157 H161 0.985 . S
H158 N153 0.984 . S
H159 N153 0.985 1_565 S
H160 N157 0.984 1_556 S
H161 N157 0.985 . S
H162 N156 0.984 . S
H163 N156 0.984 1_554 S
H164 N152 0.984 1_545 S
H165 N152 0.985 . S
C166 C167 1.363 1_655 S
C166 C172 1.379 1_565 S
C166 N174 1.356 . S
C167 C166 1.363 1_455 S
C167 C173 1.363 1_554 S
C168 C169 1.363 1_455 S
C168 C173 1.379 1_545 S
C168 N175 1.356 . S
C169 C168 1.363 1_655 S
C169 C172 1.363 1_556 S
N170 C172 1.356 1_556 S
N170 H182 0.984 1_556 S
N170 H183 0.985 . S
N171 C173 1.356 1_554 S
N171 H176 0.984 . S
N171 H177 0.985 1_554 S
C172 C166 1.379 1_545 S
C172 C169 1.363 1_554 S
C172 N170 1.356 1_554 S
C173 C167 1.363 1_556 S
C173 C168 1.379 1_565 S
C173 N171 1.356 1_556 S
N174 C166 1.356 . S
N174 H180 0.984 . S
N174 H181 0.984 . S
N175 C168 1.356 . S
N175 H178 0.984 . S
N175 H179 0.985 . S
H176 N171 0.984 . S
H177 N171 0.985 1_556 S
H178 N175 0.984 . S
H179 N175 0.985 . S
H180 N174 0.984 . S
H181 N174 0.984 . S
H182 N170 0.984 1_554 S
H183 N170 0.985 . S
C184 C185 1.363 . S
C184 C190 1.379 . S
C184 N192 1.356 . S
C185 C184 1.363 . S
C185 C191 1.363 . S
C186 C187 1.363 . S
C186 C191 1.379 . S
C186 N193 1.356 . S
C187 C186 1.363 . S
C187 C190 1.363 . S
N188 C190 1.356 . S
N188 H200 0.984 . S
N188 H201 0.985 . S
N189 C191 1.356 . S
N189 H194 0.984 . S
N189 H195 0.985 . S
C190 C184 1.379 . S
C190 C187 1.363 . S
C190 N188 1.356 . S
C191 C185 1.363 . S
C191 C186 1.379 . S
C191 N189 1.356 . S
N192 C184 1.356 . S
N192 H198 0.984 . S
N192 H199 0.984 . S
N193 C186 1.356 . S
N193 H196 0.984 . S
N193 H197 0.985 . S
H194 N189 0.984 . S
H195 N189 0.985 . S
H196 N193 0.984 . S
H197 N193 0.985 . S
H198 N192 0.984 . S
H199 N192 0.984 . S
H200 N188 0.984 . S
H201 N188 0.985 . S
C202 C203 1.363 . S
C202 C208 1.379 . S
C202 N210 1.356 . S
C203 C202 1.363 . S
C203 C209 1.363 . S
C204 C205 1.363 . S
C204 C209 1.379 . S
C204 N211 1.356 . S
C205 C204 1.363 . S
C205 C208 1.363 . S
N206 C208 1.356 . S
N206 H218 0.984 . S
N206 H219 0.985 . S
N207 C209 1.356 . S
N207 H212 0.984 . S
N207 H213 0.985 . S
C208 C202 1.379 . S
C208 C205 1.363 . S
C208 N206 1.356 . S
C209 C203 1.363 . S
C209 C204 1.379 . S
C209 N207 1.356 . S
N210 C202 1.356 . S
N210 H216 0.984 . S
N210 H217 0.984 . S
N211 C204 1.356 . S
N211 H214 0.984 . S
N211 H215 0.985 . S
H212 N207 0.984 . S
H213 N207 0.985 . S
H214 N211 0.984 . S
H215 N211 0.985 . S
H216 N210 0.984 . S
H217 N210 0.984 . S
H218 N206 0.984 . S
H219 N206 0.985 . S
C220 C221 1.363 . S
C220 C226 1.379 . S
C220 N228 1.356 . S
C221 C220 1.363 . S
C221 C227 1.363 . S
C222 C223 1.363 . S
C222 C227 1.379 . S
C222 N229 1.356 . S
C223 C222 1.363 . S
C223 C226 1.363 . S
N224 C226 1.356 . S
N224 H236 0.984 . S
N224 H237 0.985 . S
N225 C227 1.356 . S
N225 H230 0.984 . S
N225 H231 0.985 . S
C226 C220 1.379 . S
C226 C223 1.363 . S
C226 N224 1.356 . S
C227 C221 1.363 . S
C227 C222 1.379 . S
C227 N225 1.356 . S
N228 C220 1.356 . S
N228 H234 0.984 . S
N228 H235 0.984 . S
N229 C222 1.356 . S
N229 H232 0.984 . S
N229 H233 0.985 . S
H230 N225 0.984 . S
H231 N225 0.985 . S
H232 N229 0.984 . S
H233 N229 0.985 . S
H234 N228 0.984 . S
H235 N228 0.984 . S
H236 N224 0.984 . S
H237 N224 0.985 . S
C238 C239 1.363 . S
C238 C244 1.379 . S
C238 N246 1.356 . S
C239 C238 1.363 . S
C239 C245 1.363 . S
C240 C241 1.363 . S
C240 C245 1.379 . S
C240 N247 1.356 . S
C241 C240 1.363 . S
C241 C244 1.363 . S
N242 C244 1.356 . S
N242 H254 0.984 . S
N242 H255 0.985 . S
N243 C245 1.356 . S
N243 H248 0.984 . S
N243 H249 0.985 . S
C244 C238 1.379 . S
C244 C241 1.363 . S
C244 N242 1.356 . S
C245 C239 1.363 . S
C245 C240 1.379 . S
C245 N243 1.356 . S
N246 C238 1.356 . S
N246 H252 0.984 . S
N246 H253 0.984 . S
N247 C240 1.356 . S
N247 H250 0.984 . S
N247 H251 0.985 . S
H248 N243 0.984 . S
H249 N243 0.985 . S
H250 N247 0.984 . S
H251 N247 0.985 . S
H252 N246 0.984 . S
H253 N246 0.984 . S
H254 N242 0.984 . S
H255 N242 0.985 . S
C256 C257 1.363 . S
C256 C262 1.379 . S
C256 N264 1.356 . S
C257 C256 1.363 . S
C257 C263 1.363 . S
C258 C259 1.363 . S
C258 C263 1.379 . S
C258 N265 1.356 . S
C259 C258 1.363 . S
C259 C262 1.363 . S
N260 C262 1.356 . S
N260 H272 0.984 . S
N260 H273 0.985 . S
N261 C263 1.356 . S
N261 H266 0.984 . S
N261 H267 0.985 . S
C262 C256 1.379 . S
C262 C259 1.363 . S
C262 N260 1.356 . S
C263 C257 1.363 . S
C263 C258 1.379 . S
C263 N261 1.356 . S
N264 C256 1.356 . S
N264 H270 0.984 . S
N264 H271 0.984 . S
N265 C258 1.356 . S
N265 H268 0.984 . S
N265 H269 0.985 . S
H266 N261 0.984 . S
H267 N261 0.985 . S
H268 N265 0.984 . S
H269 N265 0.985 . S
H270 N264 0.984 . S
H271 N264 0.984 . S
H272 N260 0.984 . S
H273 N260 0.985 . S
C274 C275 1.363 . S
C274 C280 1.379 . S
C274 N282 1.356 . S
C275 C274 1.363 . S
C275 C281 1.363 . S
C276 C277 1.363 . S
C276 C281 1.379 . S
C276 N283 1.356 . S
C277 C276 1.363 . S
C277 C280 1.363 . S
N278 C280 1.356 . S
N278 H290 0.984 . S
N278 H291 0.985 . S
N279 C281 1.356 . S
N279 H284 0.984 . S
N279 H285 0.985 . S
C280 C274 1.379 . S
C280 C277 1.363 . S
C280 N278 1.356 . S
C281 C275 1.363 . S
C281 C276 1.379 . S
C281 N279 1.356 . S
N282 C274 1.356 . S
N282 H288 0.984 . S
N282 H289 0.984 . S
N283 C276 1.356 . S
N283 H286 0.984 . S
N283 H287 0.985 . S
H284 N279 0.984 . S
H285 N279 0.985 . S
H286 N283 0.984 . S
H287 N283 0.985 . S
H288 N282 0.984 . S
H289 N282 0.984 . S
H290 N278 0.984 . S
H291 N278 0.985 . S
C292 C293 1.363 . S
C292 C298 1.379 . S
C292 N300 1.356 . S
C293 C292 1.363 . S
C293 C299 1.363 . S
C294 C295 1.363 . S
C294 C299 1.379 . S
C294 N301 1.356 . S
C295 C294 1.363 . S
C295 C298 1.363 . S
N296 C298 1.356 . S
N296 H308 0.984 . S
N296 H309 0.985 . S
N297 C299 1.356 . S
N297 H302 0.984 . S
N297 H303 0.985 . S
C298 C292 1.379 . S
C298 C295 1.363 . S
C298 N296 1.356 . S
C299 C293 1.363 . S
C299 C294 1.379 . S
C299 N297 1.356 . S
N300 C292 1.356 . S
N300 H306 0.984 . S
N300 H307 0.984 . S
N301 C294 1.356 . S
N301 H304 0.984 . S
N301 H305 0.985 . S
H302 N297 0.984 . S
H303 N297 0.985 . S
H304 N301 0.984 . S
H305 N301 0.985 . S
H306 N300 0.984 . S
H307 N300 0.984 . S
H308 N296 0.984 . S
H309 N296 0.985 . S
C310 C311 1.363 . S
C310 C316 1.379 . S
C310 N318 1.356 . S
C311 C310 1.363 . S
C311 C317 1.363 . S
C312 C313 1.363 . S
C312 C317 1.379 . S
C312 N319 1.356 . S
C313 C312 1.363 . S
C313 C316 1.363 . S
N314 C316 1.356 . S
N314 H326 0.984 . S
N314 H327 0.985 . S
N315 C317 1.356 . S
N315 H320 0.984 . S
N315 H321 0.985 . S
C316 C310 1.379 . S
C316 C313 1.363 . S
C316 N314 1.356 . S
C317 C311 1.363 . S
C317 C312 1.379 . S
C317 N315 1.356 . S
N318 C310 1.356 . S
N318 H324 0.984 . S
N318 H325 0.984 . S
N319 C312 1.356 . S
N319 H322 0.984 . S
N319 H323 0.985 . S
H320 N315 0.984 . S
H321 N315 0.985 . S
H322 N319 0.984 . S
H323 N319 0.985 . S
H324 N318 0.984 . S
H325 N318 0.984 . S
H326 N314 0.984 . S
H327 N314 0.985 . S
C328 C329 1.363 . S
C328 C334 1.379 . S
C328 N336 1.356 . S
C329 C328 1.363 . S
C329 C335 1.363 . S
C330 C331 1.363 . S
C330 C335 1.379 . S
C330 N337 1.356 . S
C331 C330 1.363 . S
C331 C334 1.363 . S
N332 C334 1.356 . S
N332 H344 0.984 . S
N332 H345 0.985 . S
N333 C335 1.356 . S
N333 H338 0.984 . S
N333 H339 0.985 . S
C334 C328 1.379 . S
C334 C331 1.363 . S
C334 N332 1.356 . S
C335 C329 1.363 . S
C335 C330 1.379 . S
C335 N333 1.356 . S
N336 C328 1.356 . S
N336 H342 0.984 . S
N336 H343 0.984 . S
N337 C330 1.356 . S
N337 H340 0.984 . S
N337 H341 0.985 . S
H338 N333 0.984 . S
H339 N333 0.985 . S
H340 N337 0.984 . S
H341 N337 0.985 . S
H342 N336 0.984 . S
H343 N336 0.984 . S
H344 N332 0.984 . S
H345 N332 0.985 . S
C346 C347 1.363 . S
C346 C352 1.379 . S
C346 N354 1.356 . S
C347 C346 1.363 . S
C347 C353 1.363 . S
C348 C349 1.363 . S
C348 C353 1.379 . S
C348 N355 1.356 . S
C349 C348 1.363 . S
C349 C352 1.363 . S
N350 C352 1.356 . S
N350 H362 0.984 . S
N350 H363 0.985 . S
N351 C353 1.356 . S
N351 H356 0.984 . S
N351 H357 0.985 . S
C352 C346 1.379 . S
C352 C349 1.363 . S
C352 N350 1.356 . S
C353 C347 1.363 . S
C353 C348 1.379 . S
C353 N351 1.356 . S
N354 C346 1.356 . S
N354 H360 0.984 . S
N354 H361 0.984 . S
N355 C348 1.356 . S
N355 H358 0.984 . S
N355 H359 0.985 . S
H356 N351 0.984 . S
H357 N351 0.985 . S
H358 N355 0.984 . S
H359 N355 0.985 . S
H360 N354 0.984 . S
H361 N354 0.984 . S
H362 N350 0.984 . S
H363 N350 0.985 . S
C364 C365 1.363 . S
C364 C370 1.379 1_554 S
C364 N372 1.356 . S
C365 C364 1.363 . S
C365 C371 1.363 . S
C366 C367 1.363 . S
C366 C371 1.379 1_556 S
C366 N373 1.356 . S
C367 C366 1.363 . S
C367 C370 1.363 . S
N368 C370 1.356 . S
N368 H380 0.984 . S
N368 H381 0.985 . S
N369 C371 1.356 . S
N369 H374 0.984 . S
N369 H375 0.985 . S
C370 C364 1.379 1_556 S
C370 C367 1.363 . S
C370 N368 1.356 . S
C371 C365 1.363 . S
C371 C366 1.379 1_554 S
C371 N369 1.356 . S
N372 C364 1.356 . S
N372 H378 0.984 . S
N372 H379 0.984 . S
N373 C366 1.356 . S
N373 H376 0.984 . S
N373 H377 0.985 . S
H374 N369 0.984 . S
H375 N369 0.985 . S
H376 N373 0.984 . S
H377 N373 0.985 . S
H378 N372 0.984 . S
H379 N372 0.984 . S
H380 N368 0.984 . S
H381 N368 0.985 . S
C382 C383 1.363 . S
C382 C388 1.379 1_554 S
C382 N390 1.356 . S
C383 C382 1.363 . S
C383 C389 1.363 . S
C384 C385 1.363 . S
C384 C389 1.379 1_556 S
C384 N391 1.356 . S
C385 C384 1.363 . S
C385 C388 1.363 . S
N386 C388 1.356 . S
N386 H398 0.984 . S
N386 H399 0.985 . S
N387 C389 1.356 . S
N387 H392 0.984 . S
N387 H393 0.985 . S
C388 C382 1.379 1_556 S
C388 C385 1.363 . S
C388 N386 1.356 . S
C389 C383 1.363 . S
C389 C384 1.379 1_554 S
C389 N387 1.356 . S
N390 C382 1.356 . S
N390 H396 0.984 . S
N390 H397 0.984 . S
N391 C384 1.356 . S
N391 H394 0.984 . S
N391 H395 0.985 . S
H392 N387 0.984 . S
H393 N387 0.985 . S
H394 N391 0.984 . S
H395 N391 0.985 . S
H396 N390 0.984 . S
H397 N390 0.984 . S
H398 N386 0.984 . S
H399 N386 0.985 . S
C113 C13 1.885 . S
C115 C29 1.889 . S
C131 C54 1.885 . S
C133 C15 1.885 . S
C149 C84 1.885 . S
C151 C57 1.885 . S
C167 C71 1.885 . S
C169 C110 1.885 . S
C185 C96 1.836 . S
C187 C1 1.836 . S
C203 C27 1.836 . S
C205 C98 1.836 . S
C221 C41 1.837 . S
C223 C69 1.836 . S
C239 C42 1.836 . S
C241 C83 1.836 . S
C257 C85 2.038 . S
C259 C12 2.038 . S
C275 C14 2.038 . S
C277 C111 2.038 . S
C293 C56 2.038 . S
C295 C28 2.034 . S
C311 C70 2.038 . S
C313 C55 2.038 . S
C329 C26 0.941 . S
C331 C0 0.941 . S
C347 C40 0.940 . S
C349 C43 0.941 . S
C365 C82 0.941 . S
C367 C68 0.941 . S
C383 C97 0.941 . S
C385 C99 0.941 . S
