# Generated by pormake.
# Topology bcg, (8)-cn, num edge types: 1
# Building blocks:
#     Node 0, Type 0, BuildingBlock: EYACOX_clean_sbu_0, # of connection points: 8
#     Node 1, Type 0, BuildingBlock: EYACOX_clean_sbu_0, # of connection points: 8
#     Node 2, Type 0, BuildingBlock: EYACOX_clean_sbu_0, # of connection points: 8
#     Node 3, Type 0, BuildingBlock: EYACOX_clean_sbu_0, # of connection points: 8
#     Edge 4, Type (0, 0), BuildingBlock: AJUNOK_clean_linker_0, # of connection points: 2
#     Edge 5, Type (0, 0), BuildingBlock: AJUNOK_clean_linker_0, # of connection points: 2
#     Edge 6, Type (0, 0), BuildingBlock: AJUNOK_clean_linker_0, # of connection points: 2
#     Edge 7, Type (0, 0), BuildingBlock: AJUNOK_clean_linker_0, # of connection points: 2
#     Edge 8, Type (0, 0), BuildingBlock: AJUNOK_clean_linker_0, # of connection points: 2
#     Edge 9, Type (0, 0), BuildingBlock: AJUNOK_clean_linker_0, # of connection points: 2
#     Edge 10, Type (0, 0), BuildingBlock: AJUNOK_clean_linker_0, # of connection points: 2
#     Edge 11, Type (0, 0), BuildingBlock: AJUNOK_clean_linker_0, # of connection points: 2
#     Edge 12, Type (0, 0), BuildingBlock: AJUNOK_clean_linker_0, # of connection points: 2
#     Edge 13, Type (0, 0), BuildingBlock: AJUNOK_clean_linker_0, # of connection points: 2
#     Edge 14, Type (0, 0), BuildingBlock: AJUNOK_clean_linker_0, # of connection points: 2
#     Edge 15, Type (0, 0), BuildingBlock: AJUNOK_clean_linker_0, # of connection points: 2
#     Edge 16, Type (0, 0), BuildingBlock: AJUNOK_clean_linker_0, # of connection points: 2
#     Edge 17, Type (0, 0), BuildingBlock: AJUNOK_clean_linker_0, # of connection points: 2
#     Edge 18, Type (0, 0), BuildingBlock: AJUNOK_clean_linker_0, # of connection points: 2
#     Edge 19, Type (0, 0), BuildingBlock: AJUNOK_clean_linker_0, # of connection points: 2
# Relax obj value: 0.145
# Max RMSD: 0.281
# Mean RMSD: 0.281
data_MOF--net-bcg--node1-EYACOX_clean_sbu_0--edge1-AJUNOK_clean_linker_0
_symmetry_space_group_name_H-M    P1
_symmetry_Int_Tables_number       1
_symmetry_cell_setting            triclinic
loop_
_symmetry_equiv_pos_as_xyz
'x, y, z'
_cell_length_a     17.910801
_cell_length_b     12.167851
_cell_length_c     26.481503
_cell_angle_alpha  89.849575
_cell_angle_beta   122.16072
_cell_angle_gamma 89.243384
loop_
_atom_site_label
_atom_site_type_symbol
_atom_site_fract_x
_atom_site_fract_y
_atom_site_fract_z
_atom_type_partial_charge
Eu0 Eu 0.34511 0.07975 -0.0254 0.0
Eu1 Eu 0.24627 0.25507 0.01316 0.0
O2 O 0.34497 0.00164 0.9002 0.0
O3 O 0.46067 -0.009 -0.01139 0.0
O4 O 0.17388 0.10072 -0.00835 0.0
O5 O 0.27002 -0.03503 -0.00034 0.0
O6 O 0.45022 0.13822 0.06989 0.0
O7 O 0.3513 0.16951 0.09591 0.0
C8 C 0.48024 0.03701 0.90926 0.0
C9 C 0.55861 0.19103 0.8778 0.0
C10 C 0.61215 0.13356 0.93109 0.0
C11 C 0.56785 0.06721 0.94993 0.0
C12 C 0.48653 0.13683 0.83146 0.0
C13 C 0.44251 0.06354 0.84805 0.0
C14 C 0.42947 -0.01696 0.93158 0.0
C15 C 0.19599 -0.00259 -0.0049 0.0
O16 O 0.24874 0.30539 0.09373 0.0
O17 O 0.1412 0.35791 0.00723 0.0
C18 C 0.43353 0.16134 0.11168 0.0
O19 O 0.35338 0.34886 0.00846 0.0
O20 O 0.33768 0.24369 0.93381 0.0
O21 O 0.15821 0.24789 0.91001 0.0
O22 O 0.20512 0.07884 0.89766 0.0
C23 C 0.10662 0.30459 0.07909 0.0
C24 C 0.04857 0.28781 0.14452 0.0
C25 C 0.11737 0.31966 0.13626 0.0
C26 C 0.97035 0.25443 0.09492 0.0
C27 C 0.96895 0.21304 0.04557 0.0
C28 C 1.03569 0.24136 0.03619 0.0
C29 C 0.16959 0.34776 0.06393 0.0
C30 C 0.3697 0.33057 0.96621 0.0
C31 C 0.14941 0.16202 0.87629 0.0
H32 H 0.58422 0.26346 0.86956 0.0
H33 H 0.5985 0.04088 -0.00452 0.0
H34 H 0.38091 0.02755 0.81433 0.0
H35 H 0.17702 0.35468 0.17276 0.0
H36 H 0.91316 0.24488 0.09861 0.0
H37 H 1.03121 0.21646 -0.0046 0.0
Eu38 Eu 0.82059 0.54018 0.93298 0.0
Eu39 Eu 0.73201 0.72729 -0.01852 0.0
O40 O 0.83016 0.45586 0.86318 0.0
O41 O 0.93468 0.43641 0.95605 0.0
O42 O 0.62862 0.61229 0.91703 0.0
O43 O 0.71143 0.4552 0.93989 0.0
O44 O 0.90626 0.56174 0.03012 0.0
O45 O 0.78763 0.57616 0.03808 0.0
C46 C 0.97924 0.46143 0.88634 0.0
C47 C 0.10738 0.51021 0.85974 0.0
C48 C 0.11552 0.55403 0.9107 0.0
C49 C 0.05131 0.53014 0.92456 0.0
C50 C 1.03533 0.44921 0.81994 0.0
C51 C 0.9706 0.42515 0.83303 0.0
C52 C 0.91259 0.42698 0.90072 0.0
C53 C 0.63702 0.50624 0.92685 0.0
O54 O 0.73543 0.77708 0.06238 0.0
O55 O 0.63208 0.83862 -0.0242 0.0
C56 C 0.87113 0.55574 0.06183 0.0
O57 O 0.86703 0.79293 0.00928 0.0
O58 O 0.88368 0.699 0.94009 0.0
O59 O 0.70697 0.81002 0.89717 0.0
O60 O 0.7322 0.65362 0.85871 0.0
C61 C 0.59485 0.81424 0.04897 0.0
C62 C 0.53673 0.85523 0.11306 0.0
C63 C 0.60457 0.86359 0.10082 0.0
C64 C 0.46231 0.79745 0.07349 0.0
C65 C 0.45275 0.7462 0.02388 0.0
C66 C 0.51864 0.75349 0.01101 0.0
C67 C 0.66104 0.832 0.03262 0.0
C68 C 0.90851 0.77303 -0.01876 0.0
C69 C 0.70494 0.75621 0.85336 0.0
H70 H 0.15713 0.52845 0.84951 0.0
H71 H 0.05834 0.56259 0.96488 0.0
H72 H 0.91322 0.37935 0.80166 0.0
H73 H 0.66377 -0.09159 0.13072 0.0
H74 H 0.41187 0.78335 0.08329 0.0
H75 H 0.51016 0.71377 -0.02826 0.0
Eu76 Eu 0.24778 0.5531 0.49104 0.0
Eu77 Eu 0.33941 0.74464 0.4499 0.0
O78 O 0.24042 0.49882 0.56714 0.0
O79 O 0.1583 0.42379 0.48056 0.0
O80 O 0.43202 0.60403 0.49914 0.0
O81 O 0.33806 0.46043 0.46903 0.0
O82 O 0.15401 0.5941 0.39671 0.0
O83 O 0.25607 0.63454 0.37295 0.0
C84 C 0.09577 0.45078 0.53987 0.0
C85 C 0.94527 0.42125 0.54175 0.0
C86 C 0.93854 0.4792 0.49436 0.0
C87 C 1.01444 0.49361 0.49227 0.0
C88 C 1.02493 0.41713 0.59626 0.0
C89 C 0.10227 0.42305 0.59412 0.0
C90 C 0.17333 0.43607 0.53428 0.0
C91 C 0.41425 0.50197 0.48307 0.0
O92 O 0.35054 0.83478 0.38238 0.0
O93 O 0.46189 0.82405 0.47365 0.0
C94 C 0.17638 0.60829 0.35782 0.0
O95 O 0.21546 0.8351 0.43147 0.0
O96 O 0.17336 0.70887 0.47752 0.0
O97 O 0.35546 0.80283 0.53583 0.0
O98 O 0.3648 0.6263 0.56707 0.0
C99 C 0.49245 0.80453 0.39675 0.0
C100 C 0.54268 0.8226 0.32755 0.0
C101 C 0.49233 0.86228 0.35047 0.0
C102 C 0.5893 0.72452 0.34956 0.0
C103 C 0.60214 0.67562 0.40083 0.0
C104 C 0.55188 0.71345 0.42431 0.0
C105 C 0.43562 0.84607 0.41828 0.0
C106 C 0.16254 0.80143 0.44882 0.0
C107 C 0.37265 0.73113 0.57787 0.0
H108 H 0.88481 0.39818 0.53795 0.0
H109 H 1.0098 0.53349 0.45405 0.0
H110 H 0.16686 0.40776 0.63343 0.0
H111 H 0.45428 -0.06196 0.33339 0.0
H112 H 0.62366 0.6907 0.32942 0.0
H113 H 0.56093 0.67498 0.46418 0.0
Eu114 Eu 0.74948 0.01168 0.50362 0.0
Eu115 Eu 0.86339 0.1783 0.48367 0.0
O116 O 0.74858 -0.08324 0.57393 0.0
O117 O 0.63396 -0.07767 0.48484 0.0
O118 O 0.92286 0.02103 0.52976 0.0
O119 O 0.82068 -0.08808 0.46762 0.0
O120 O 0.65774 0.08054 0.40797 0.0
O121 O 0.77208 0.09635 0.39559 0.0
C122 C 0.61869 -0.01805 0.56408 0.0
C123 C 0.57508 0.16841 0.60413 0.0
C124 C 0.52354 0.14367 0.54311 0.0
C125 C 0.55062 0.05295 0.52384 0.0
C126 C 0.62645 0.08537 0.64533 0.0
C127 C 0.65245 -0.00613 0.62542 0.0
C128 C 0.66304 -0.0877 0.54165 0.0
C129 C 0.90371 -0.06255 0.49601 0.0
O130 O 0.8908 0.27808 0.42763 0.0
O131 O 0.99937 0.19939 0.50676 0.0
C132 C 0.68673 0.09773 0.372 0.0
O133 O 0.74942 0.28943 0.46791 0.0
O134 O 0.71293 0.17717 0.52057 0.0
O135 O 0.90941 0.21423 0.58035 0.0
O136 O 0.86545 0.04925 0.5967 0.0
C137 C 1.01177 0.21316 0.42153 0.0
C138 C 1.00198 0.22752 0.32676 0.0
C139 C 0.96043 0.21522 0.35877 0.0
C140 C 0.09376 0.23019 0.35802 0.0
C141 C 0.14534 0.2026 0.41831 0.0
C142 C 0.10333 0.19571 0.45053 0.0
C143 C 0.974 0.24991 0.45663 0.0
C144 C 0.7039 0.2696 0.49281 0.0
C145 C 0.90942 0.14065 0.61702 0.0
H146 H 0.56141 0.24228 0.62045 0.0
H147 H 0.51901 0.03391 0.47762 0.0
H148 H 0.69668 -0.06821 0.65705 0.0
H149 H 0.88946 0.21732 0.33588 0.0
H150 H 0.12443 0.25622 0.33434 0.0
H151 H 0.14168 0.18532 0.49849 0.0
C152 C 0.74482 0.17231 0.92388 0.0
C153 C 0.71041 0.13005 0.9576 0.0
C154 C 0.83507 0.18179 0.9482 0.0
C155 C 0.89433 0.14304 0.00563 0.0
H156 H 0.70346 0.20423 0.8792 0.0
H157 H 0.85766 0.22923 0.92442 0.0
S158 S 0.8485 -0.01094 0.10548 0.0
N159 N 0.75138 0.03357 0.05043 0.0
N160 N 0.91844 0.0239 0.08617 0.0
C161 C 0.86301 0.07416 0.0326 0.0
C162 C 0.77186 0.07754 0.01235 0.0
C163 C 0.21422 0.70096 0.91689 0.0
C164 C 0.19563 0.62007 0.94693 0.0
C165 C 0.30088 0.73144 0.93755 0.0
C166 C 0.3718 0.68361 -0.01052 0.0
H167 H 0.16147 0.7356 0.87492 0.0
H168 H 0.31209 0.7958 0.91422 0.0
S169 S 0.35815 0.50057 0.0957 0.0
N170 N 0.2555 0.51525 0.03865 0.0
N171 N 0.41808 0.56699 0.07582 0.0
C172 C 0.35414 0.60648 0.02109 0.0
C173 C 0.26612 0.5784 0.00104 0.0
C174 C 0.69636 0.52535 0.40002 0.0
C175 C 0.6836 0.60694 0.43275 0.0
C176 C 0.78087 0.49526 0.41336 0.0
C177 C 0.85625 0.54416 0.46058 0.0
H178 H 0.63996 0.49087 0.36075 0.0
H179 H 0.78676 0.43137 0.38744 0.0
S180 S 0.86173 0.74703 0.56604 0.0
N181 N 0.75558 0.72533 0.51872 0.0
N182 N 0.91385 0.6727 0.542 0.0
C183 C 0.84452 0.62559 0.4933 0.0
C184 C 0.75896 0.65321 0.4811 0.0
C185 C 0.29765 0.23206 0.50581 0.0
C186 C 0.24293 0.19509 0.44736 0.0
C187 C 0.38877 0.23129 0.53344 0.0
C188 C 0.43112 0.18963 0.50511 0.0
H189 H 0.27106 0.26193 0.53148 0.0
H190 H 0.42461 0.26007 0.57857 0.0
S191 S 0.31699 0.11236 0.34517 0.0
N192 N 0.23786 0.12566 0.35893 0.0
N193 N 0.40793 0.14558 0.40779 0.0
C194 C 0.37666 0.16707 0.44366 0.0
C195 C 0.28342 0.16194 0.41613 0.0
C196 C 0.48056 0.49151 0.90129 0.0
C197 C 0.56949 0.45507 0.93607 0.0
C198 C 0.41675 0.45676 0.91346 0.0
C199 C 0.43966 0.38736 0.96234 0.0
H200 H 0.4599 0.54722 0.86397 0.0
H201 H 0.34866 0.48296 0.88381 0.0
S202 S 0.66262 0.27028 0.0683 0.0
N203 N 0.67651 0.3465 0.02231 0.0
N204 N 0.55717 0.28237 0.04525 0.0
C205 C 0.52823 0.35149 -0.00215 0.0
C206 C 0.59293 0.38518 -0.01512 0.0
C207 C 0.63748 0.37082 0.54051 0.0
C208 C 0.63537 0.34498 0.48806 0.0
C209 C 0.56446 0.41911 0.53847 0.0
C210 C 0.48466 0.43692 0.48393 0.0
H211 H 0.69523 0.34986 0.58363 0.0
H212 H 0.56987 0.44071 0.57996 0.0
S213 S 0.44282 0.38068 0.3337 0.0
N214 N 0.54621 0.33983 0.37986 0.0
N215 N 0.40763 0.428 0.37604 0.0
C216 C 0.48109 0.41138 0.43104 0.0
C217 C 0.55658 0.3653 0.43309 0.0
C218 C 1.03835 -0.03689 0.94916 0.0
C219 C 0.12598 -0.07639 -0.01324 0.0
C220 C 0.96898 -0.07956 0.95202 0.0
C221 C 0.98413 0.83557 -0.00796 0.0
H222 H 1.02363 0.03125 0.91864 0.0
H223 H 0.90265 -0.04793 0.92156 0.0
S224 S 0.19675 0.69172 0.094 0.0
N225 N 0.22153 0.78646 0.06067 0.0
N226 N 0.08953 0.70373 0.06479 0.0
C227 C 0.06968 0.79005 0.027 0.0
C228 C 0.14102 0.83407 0.0244 0.0
C229 C 0.94264 0.85971 0.4242 0.0
C230 C 0.96773 -0.09217 0.47904 0.0
C231 C 1.00556 0.8404 0.40857 0.0
C232 C 0.09421 0.87181 0.44637 0.0
H233 H 0.87522 0.83453 0.39416 0.0
H234 H 0.98645 0.79317 0.36894 0.0
S235 S 0.19231 0.00223 0.59374 0.0
N236 N 0.08821 -0.01529 0.57137 0.0
N237 N 0.2022 -0.04351 0.53896 0.0
C238 C 0.11799 -0.07399 0.49906 0.0
C239 C 0.05611 -0.05918 0.51645 0.0
C240 C 0.53578 0.14927 0.28168 0.0
C241 C 0.62549 0.12344 0.30589 0.0
C242 C 0.47693 0.16924 0.21993 0.0
C243 C 0.50331 0.16014 0.17815 0.0
H244 H 0.50986 0.1514 0.31043 0.0
H245 H 0.40854 0.18624 0.20462 0.0
S246 S 0.73349 0.10894 0.21839 0.0
N247 N 0.73988 0.10312 0.28291 0.0
N248 N 0.62882 0.13547 0.16751 0.0
C249 C 0.59397 0.14168 0.2021 0.0
C250 C 0.6547 0.12411 0.26544 0.0
C251 C 0.62315 0.87033 0.22427 0.0
C252 C 0.54359 0.8884 0.16977 0.0
C253 C 0.62478 0.86632 0.27766 0.0
C254 C 0.54614 0.87412 0.27816 0.0
H255 H 0.68338 0.85122 0.2256 0.0
H256 H 0.68712 0.84677 0.31835 0.0
S257 S 0.32639 -0.04309 0.15207 0.0
N258 N 0.38786 -0.05686 0.12309 0.0
N259 N 0.39192 -0.07452 0.22304 0.0
C260 C 0.46884 -0.09471 0.22583 0.0
C261 C 0.46718 -0.08634 0.17172 0.0
C262 C 0.51755 0.6675 0.67736 0.0
C263 C 0.43168 0.75814 0.63935 0.0
C264 C 0.61281 0.6831 0.74391 0.0
C265 C 0.64742 0.79271 0.79138 0.0
H266 H 0.51392 0.59084 0.65561 0.0
H267 H 0.65543 0.61104 0.75739 0.0
S268 S 0.45538 0.11547 0.66964 0.0
N269 N 0.39177 -0.01268 0.6334 0.0
N270 N 0.59361 0.02972 0.77225 0.0
C271 C 0.58223 -0.09398 0.77415 0.0
C272 C 0.43014 0.88181 0.66793 0.0
C273 C 0.55574 0.21113 0.76722 0.0
C274 C 0.48589 0.12541 0.77506 0.0
C275 C 0.61219 0.18696 0.73242 0.0
C276 C 0.61262 0.07319 0.69515 0.0
H277 H 0.56594 0.29243 0.78572 0.0
H278 H 0.6486 0.2561 0.73121 0.0
S279 S 0.48433 0.76389 0.7491 0.0
N280 N 0.44102 0.89592 0.7628 0.0
N281 N 0.56217 0.8456 0.69327 0.0
C282 C 0.54905 -0.03192 0.68668 0.0
C283 C 0.45899 0.00081 0.74065 0.0
C284 C 0.10508 0.6414 0.2361 0.0
C285 C 0.11143 0.5795 0.29798 0.0
C286 C 1.02363 0.62912 0.15965 0.0
C287 C 0.9273 0.55081 0.12483 0.0
H288 H 0.15748 0.6975 0.24613 0.0
H289 H 1.03304 0.68008 0.13041 0.0
S290 S 0.83857 0.3896 0.25895 0.0
N291 N 0.97631 0.44586 0.3218 0.0
N292 N 0.81492 0.41825 0.16925 0.0
C293 C 0.89694 0.47311 0.16402 0.0
C294 C 1.03324 0.49468 0.29159 0.0
C295 C 0.97572 0.15754 0.2364 0.0
C296 C 0.95544 0.2467 0.26119 0.0
C297 C 1.02677 0.1706 0.21114 0.0
C298 C 0.05065 0.27455 0.20152 0.0
H299 H 0.96704 0.07435 0.24701 0.0
H300 H 0.04296 0.09813 0.19494 0.0
S301 S 0.95197 0.63243 0.22067 0.0
N302 N 0.90008 0.52729 0.2386 0.0
N303 N 1.03835 0.4763 0.21285 0.0
C304 C 1.02508 0.36314 0.2222 0.0
C305 C 0.95395 0.35872 0.23896 0.0
C306 C 0.11686 0.14372 0.77253 0.0
C307 C 0.08474 0.16066 0.81047 0.0
C308 C 0.05987 0.14088 0.71004 0.0
C309 C 0.96811 0.15186 0.68284 0.0
H310 H 0.18724 0.13593 0.7913 0.0
H311 H 0.08792 0.12981 0.68282 0.0
S312 S 0.84879 0.16169 0.7621 0.0
N313 N 0.95403 0.16492 0.8163 0.0
N314 N 0.8468 0.15832 0.69898 0.0
C315 C 0.93452 0.15884 0.72027 0.0
C316 C 0.99276 0.16342 0.78404 0.0
C317 C 0.09973 0.38737 0.70761 0.0
C318 C 1.02367 0.41762 0.65287 0.0
C319 C 0.10148 0.39231 0.76099 0.0
C320 C 1.02668 0.42459 0.76237 0.0
H321 H 0.1589 0.35853 0.71009 0.0
H322 H 0.16268 0.37047 0.80198 0.0
S323 S 0.8154 0.53212 0.63615 0.0
N324 N 0.8738 0.49799 0.60706 0.0
N325 N 0.8783 0.49828 0.70704 0.0
C326 C 0.95068 0.45623 0.70911 0.0
C327 C 0.94893 0.4552 0.65467 0.0
loop_
_geom_bond_atom_site_label_1
_geom_bond_atom_site_label_2
_geom_bond_distance
_geom_bond_site_symmetry_2
_ccdc_geom_bond_type
Eu0 O2 2.452 1_554 S
Eu0 O3 2.496 . S
Eu0 O5 2.351 . S
Eu0 O6 2.405 . S
Eu0 C14 2.818 1_554 S
Eu0 O20 2.394 . S
Eu0 O22 2.320 1_554 S
Eu1 O4 2.396 1_554 S
Eu1 O7 2.323 . S
Eu1 O16 2.472 . S
Eu1 O17 2.507 1_554 S
Eu1 O19 2.336 1_554 S
Eu1 O21 2.389 1_554 S
Eu1 C29 2.835 . S
O2 Eu0 2.452 1_556 S
O2 C14 1.258 . S
O3 Eu0 2.496 . S
O3 C14 1.246 1_554 S
O4 Eu1 2.396 1_556 S
O4 C15 1.216 1_556 S
O5 Eu0 2.351 . S
O5 C15 1.279 . S
O6 Eu0 2.405 . S
O6 C18 1.239 . S
O7 Eu1 2.323 . S
O7 C18 1.249 . S
C8 C11 1.390 . S
C8 C13 1.370 . S
C8 C14 1.489 . S
C9 C10 1.344 . S
C9 C12 1.413 . S
C9 H32 0.931 . S
C10 C9 1.344 . S
C10 C11 1.423 . S
C11 C8 1.390 . S
C11 C10 1.423 . S
C11 H33 0.930 1_556 S
C12 C9 1.413 . S
C12 C13 1.397 . S
C13 C8 1.370 . S
C13 C12 1.397 . S
C13 H34 0.932 . S
C14 Eu0 2.818 1_556 S
C14 O2 1.258 . S
C14 O3 1.246 1_556 S
C14 C8 1.489 . S
C15 O4 1.216 1_554 S
C15 O5 1.279 . S
O16 Eu1 2.472 . S
O16 C29 1.258 . S
O17 Eu1 2.507 1_556 S
O17 C29 1.246 1_556 S
C18 O6 1.239 . S
C18 O7 1.249 . S
O19 Eu1 2.336 1_556 S
O19 C30 1.279 1_556 S
O20 Eu0 2.394 . S
O20 C30 1.216 . S
O21 Eu1 2.389 1_556 S
O21 C31 1.239 . S
O22 Eu0 2.320 1_556 S
O22 C31 1.249 . S
C23 C25 1.370 . S
C23 C28 1.390 1_455 S
C23 C29 1.489 . S
C24 C25 1.397 . S
C24 C26 1.413 1_455 S
C25 C23 1.370 . S
C25 C24 1.397 . S
C25 H35 0.932 . S
C26 C24 1.413 1_655 S
C26 C27 1.344 . S
C26 H36 0.931 . S
C27 C26 1.344 . S
C27 C28 1.423 . S
C28 C23 1.390 1_655 S
C28 C27 1.423 . S
C28 H37 0.930 1_554 S
C29 Eu1 2.835 . S
C29 O16 1.258 . S
C29 O17 1.246 1_554 S
C29 C23 1.489 . S
C30 O19 1.279 1_554 S
C30 O20 1.216 . S
C31 O21 1.239 . S
C31 O22 1.249 . S
H32 C9 0.931 . S
H33 C11 0.930 1_554 S
H34 C13 0.932 . S
H35 C25 0.932 . S
H36 C26 0.931 . S
H37 C28 0.930 1_556 S
Eu38 O40 2.452 1_554 S
Eu38 O41 2.496 . S
Eu38 O43 2.351 . S
Eu38 O44 2.405 . S
Eu38 C52 2.818 1_554 S
Eu38 O58 2.394 . S
Eu38 O60 2.320 1_554 S
Eu39 O42 2.396 1_554 S
Eu39 O45 2.323 . S
Eu39 O54 2.472 . S
Eu39 O55 2.507 1_554 S
Eu39 O57 2.336 1_554 S
Eu39 O59 2.389 1_554 S
Eu39 C67 2.835 . S
O40 Eu38 2.452 1_556 S
O40 C52 1.258 . S
O41 Eu38 2.496 . S
O41 C52 1.246 1_554 S
O42 Eu39 2.396 1_556 S
O42 C53 1.216 1_556 S
O43 Eu38 2.351 . S
O43 C53 1.279 . S
O44 Eu38 2.405 . S
O44 C56 1.239 . S
O45 Eu39 2.323 . S
O45 C56 1.249 . S
C46 C49 1.390 1_655 S
C46 C51 1.370 . S
C46 C52 1.489 . S
C47 C48 1.344 . S
C47 C50 1.413 1_455 S
C47 H70 0.931 . S
C48 C47 1.344 . S
C48 C49 1.423 . S
C49 C46 1.390 1_455 S
C49 C48 1.423 . S
C49 H71 0.930 1_556 S
C50 C47 1.413 1_655 S
C50 C51 1.397 . S
C51 C46 1.370 . S
C51 C50 1.397 . S
C51 H72 0.932 . S
C52 Eu38 2.818 1_556 S
C52 O40 1.258 . S
C52 O41 1.246 1_556 S
C52 C46 1.489 . S
C53 O42 1.216 1_554 S
C53 O43 1.279 . S
O54 Eu39 2.472 . S
O54 C67 1.258 . S
O55 Eu39 2.507 1_556 S
O55 C67 1.246 1_556 S
C56 O44 1.239 . S
C56 O45 1.249 . S
O57 Eu39 2.336 1_556 S
O57 C68 1.279 1_556 S
O58 Eu38 2.394 . S
O58 C68 1.216 . S
O59 Eu39 2.389 1_556 S
O59 C69 1.239 . S
O60 Eu38 2.320 1_556 S
O60 C69 1.249 . S
C61 C63 1.370 . S
C61 C66 1.390 . S
C61 C67 1.489 . S
C62 C63 1.397 . S
C62 C64 1.413 . S
C63 C61 1.370 . S
C63 C62 1.397 . S
C63 H73 0.932 . S
C64 C62 1.413 . S
C64 C65 1.344 . S
C64 H74 0.931 . S
C65 C64 1.344 . S
C65 C66 1.423 . S
C66 C61 1.390 . S
C66 C65 1.423 . S
C66 H75 0.930 1_554 S
C67 Eu39 2.835 . S
C67 O54 1.258 . S
C67 O55 1.246 1_554 S
C67 C61 1.489 . S
C68 O57 1.279 1_554 S
C68 O58 1.216 . S
C69 O59 1.239 . S
C69 O60 1.249 . S
H70 C47 0.931 . S
H71 C49 0.930 1_554 S
H72 C51 0.932 . S
H73 C63 0.932 . S
H74 C64 0.931 . S
H75 C66 0.930 1_556 S
Eu76 O78 2.472 . S
Eu76 O79 2.507 . S
Eu76 O81 2.336 . S
Eu76 O82 2.389 . S
Eu76 C90 2.835 . S
Eu76 O96 2.396 . S
Eu76 O98 2.323 . S
Eu77 O80 2.396 . S
Eu77 O83 2.323 . S
Eu77 O92 2.472 . S
Eu77 O93 2.507 . S
Eu77 O95 2.336 . S
Eu77 O97 2.389 . S
Eu77 C105 2.835 . S
O78 Eu76 2.472 . S
O78 C90 1.258 . S
O79 Eu76 2.507 . S
O79 C90 1.246 . S
O80 Eu77 2.396 . S
O80 C91 1.216 . S
O81 Eu76 2.336 . S
O81 C91 1.279 . S
O82 Eu76 2.389 . S
O82 C94 1.239 . S
O83 Eu77 2.323 . S
O83 C94 1.249 . S
C84 C87 1.390 1_455 S
C84 C89 1.370 . S
C84 C90 1.489 . S
C85 C86 1.344 . S
C85 C88 1.413 1_655 S
C85 H108 0.931 . S
C86 C85 1.344 . S
C86 C87 1.423 . S
C87 C84 1.390 1_655 S
C87 C86 1.423 . S
C87 H109 0.930 . S
C88 C85 1.413 1_455 S
C88 C89 1.397 . S
C89 C84 1.370 . S
C89 C88 1.397 . S
C89 H110 0.932 . S
C90 Eu76 2.835 . S
C90 O78 1.258 . S
C90 O79 1.246 . S
C90 C84 1.489 . S
C91 O80 1.216 . S
C91 O81 1.279 . S
O92 Eu77 2.472 . S
O92 C105 1.258 . S
O93 Eu77 2.507 . S
O93 C105 1.246 . S
C94 O82 1.239 . S
C94 O83 1.249 . S
O95 Eu77 2.336 . S
O95 C106 1.279 . S
O96 Eu76 2.396 . S
O96 C106 1.216 . S
O97 Eu77 2.389 . S
O97 C107 1.239 . S
O98 Eu76 2.323 . S
O98 C107 1.249 . S
C99 C101 1.370 . S
C99 C104 1.390 . S
C99 C105 1.489 . S
C100 C101 1.397 . S
C100 C102 1.413 . S
C101 C99 1.370 . S
C101 C100 1.397 . S
C101 H111 0.932 . S
C102 C100 1.413 . S
C102 C103 1.344 . S
C102 H112 0.931 . S
C103 C102 1.344 . S
C103 C104 1.423 . S
C104 C99 1.390 . S
C104 C103 1.423 . S
C104 H113 0.930 . S
C105 Eu77 2.835 . S
C105 O92 1.258 . S
C105 O93 1.246 . S
C105 C99 1.489 . S
C106 O95 1.279 . S
C106 O96 1.216 . S
C107 O97 1.239 . S
C107 O98 1.249 . S
H108 C85 0.931 . S
H109 C87 0.930 . S
H110 C89 0.932 . S
H111 C101 0.932 . S
H112 C102 0.931 . S
H113 C104 0.930 . S
Eu114 O116 2.472 . S
Eu114 O117 2.507 . S
Eu114 O119 2.336 . S
Eu114 O120 2.389 . S
Eu114 C128 2.835 . S
Eu114 O134 2.396 . S
Eu114 O136 2.323 . S
Eu115 O118 2.396 . S
Eu115 O121 2.323 . S
Eu115 O130 2.472 . S
Eu115 O131 2.507 . S
Eu115 O133 2.336 . S
Eu115 O135 2.389 . S
Eu115 C143 2.835 . S
O116 Eu114 2.472 . S
O116 C128 1.258 . S
O117 Eu114 2.507 . S
O117 C128 1.246 . S
O118 Eu115 2.396 . S
O118 C129 1.216 . S
O119 Eu114 2.336 . S
O119 C129 1.279 . S
O120 Eu114 2.389 . S
O120 C132 1.239 . S
O121 Eu115 2.323 . S
O121 C132 1.249 . S
C122 C125 1.390 . S
C122 C127 1.370 . S
C122 C128 1.489 . S
C123 C124 1.344 . S
C123 C126 1.413 . S
C123 H146 0.931 . S
C124 C123 1.344 . S
C124 C125 1.423 . S
C125 C122 1.390 . S
C125 C124 1.423 . S
C125 H147 0.930 . S
C126 C123 1.413 . S
C126 C127 1.397 . S
C127 C122 1.370 . S
C127 C126 1.397 . S
C127 H148 0.932 . S
C128 Eu114 2.835 . S
C128 O116 1.258 . S
C128 O117 1.246 . S
C128 C122 1.489 . S
C129 O118 1.216 . S
C129 O119 1.279 . S
O130 Eu115 2.472 . S
O130 C143 1.258 . S
O131 Eu115 2.507 . S
O131 C143 1.246 . S
C132 O120 1.239 . S
C132 O121 1.249 . S
O133 Eu115 2.336 . S
O133 C144 1.279 . S
O134 Eu114 2.396 . S
O134 C144 1.216 . S
O135 Eu115 2.389 . S
O135 C145 1.239 . S
O136 Eu114 2.323 . S
O136 C145 1.249 . S
C137 C139 1.370 . S
C137 C142 1.390 1_655 S
C137 C143 1.489 . S
C138 C139 1.397 . S
C138 C140 1.413 1_655 S
C139 C137 1.370 . S
C139 C138 1.397 . S
C139 H149 0.932 . S
C140 C138 1.413 1_455 S
C140 C141 1.344 . S
C140 H150 0.931 . S
C141 C140 1.344 . S
C141 C142 1.423 . S
C142 C137 1.390 1_455 S
C142 C141 1.423 . S
C142 H151 0.930 . S
C143 Eu115 2.835 . S
C143 O130 1.258 . S
C143 O131 1.246 . S
C143 C137 1.489 . S
C144 O133 1.279 . S
C144 O134 1.216 . S
C145 O135 1.239 . S
C145 O136 1.249 . S
H146 C123 0.931 . S
H147 C125 0.930 . S
H148 C127 0.932 . S
H149 C139 0.932 . S
H150 C140 0.931 . S
H151 C142 0.930 . S
C152 C153 1.369 . S
C152 C154 1.419 . S
C152 H156 0.930 . S
C153 C152 1.369 . S
C153 C162 1.429 1_556 S
C154 C152 1.419 . S
C154 C155 1.363 1_556 S
C154 H157 0.929 . S
C155 C154 1.363 1_554 S
C155 C161 1.428 . S
H156 C152 0.930 . S
H157 C154 0.929 . S
S158 N159 1.613 . S
S158 N160 1.610 . S
N159 S158 1.613 . S
N159 C162 1.350 . S
N160 S158 1.610 . S
N160 C161 1.351 . S
C161 C155 1.428 . S
C161 N160 1.351 . S
C161 C162 1.434 . S
C162 C153 1.429 1_554 S
C162 N159 1.350 . S
C162 C161 1.434 . S
C163 C164 1.369 . S
C163 C165 1.419 . S
C163 H167 0.930 . S
C164 C163 1.369 . S
C164 C173 1.429 1_556 S
C165 C163 1.419 . S
C165 C166 1.363 1_556 S
C165 H168 0.929 . S
C166 C165 1.363 1_554 S
C166 C172 1.428 . S
H167 C163 0.930 . S
H168 C165 0.929 . S
S169 N170 1.613 . S
S169 N171 1.610 . S
N170 S169 1.613 . S
N170 C173 1.350 . S
N171 S169 1.610 . S
N171 C172 1.351 . S
C172 C166 1.428 . S
C172 N171 1.351 . S
C172 C173 1.434 . S
C173 C164 1.429 1_554 S
C173 N170 1.350 . S
C173 C172 1.434 . S
C174 C175 1.369 . S
C174 C176 1.419 . S
C174 H178 0.930 . S
C175 C174 1.369 . S
C175 C184 1.429 . S
C176 C174 1.419 . S
C176 C177 1.363 . S
C176 H179 0.929 . S
C177 C176 1.363 . S
C177 C183 1.428 . S
H178 C174 0.930 . S
H179 C176 0.929 . S
S180 N181 1.613 . S
S180 N182 1.610 . S
N181 S180 1.613 . S
N181 C184 1.350 . S
N182 S180 1.610 . S
N182 C183 1.351 . S
C183 C177 1.428 . S
C183 N182 1.351 . S
C183 C184 1.434 . S
C184 C175 1.429 . S
C184 N181 1.350 . S
C184 C183 1.434 . S
C185 C186 1.369 . S
C185 C187 1.419 . S
C185 H189 0.930 . S
C186 C185 1.369 . S
C186 C195 1.429 . S
C187 C185 1.419 . S
C187 C188 1.363 . S
C187 H190 0.929 . S
C188 C187 1.363 . S
C188 C194 1.428 . S
H189 C185 0.930 . S
H190 C187 0.929 . S
S191 N192 1.613 . S
S191 N193 1.610 . S
N192 S191 1.613 . S
N192 C195 1.350 . S
N193 S191 1.610 . S
N193 C194 1.351 . S
C194 C188 1.428 . S
C194 N193 1.351 . S
C194 C195 1.434 . S
C195 C186 1.429 . S
C195 N192 1.350 . S
C195 C194 1.434 . S
C196 C197 1.369 . S
C196 C198 1.419 . S
C196 H200 0.930 . S
C197 C196 1.369 . S
C197 C206 1.428 1_556 S
C198 C196 1.419 . S
C198 C199 1.363 1_556 S
C198 H201 0.929 . S
C199 C198 1.363 1_554 S
C199 C205 1.428 . S
H200 C196 0.930 . S
H201 C198 0.929 . S
S202 N203 1.613 . S
S202 N204 1.610 . S
N203 S202 1.613 . S
N203 C206 1.350 . S
N204 S202 1.610 . S
N204 C205 1.351 . S
C205 C199 1.428 . S
C205 N204 1.351 . S
C205 C206 1.434 . S
C206 C197 1.428 1_554 S
C206 N203 1.350 . S
C206 C205 1.434 . S
C207 C208 1.369 . S
C207 C209 1.419 . S
C207 H211 0.930 . S
C208 C207 1.369 . S
C208 C217 1.429 . S
C209 C207 1.419 . S
C209 C210 1.363 . S
C209 H212 0.929 . S
C210 C209 1.363 . S
C210 C216 1.428 . S
H211 C207 0.930 . S
H212 C209 0.929 . S
S213 N214 1.613 . S
S213 N215 1.610 . S
N214 S213 1.613 . S
N214 C217 1.350 . S
N215 S213 1.610 . S
N215 C216 1.351 . S
C216 C210 1.428 . S
C216 N215 1.351 . S
C216 C217 1.434 . S
C217 C208 1.429 . S
C217 N214 1.350 . S
C217 C216 1.434 . S
C218 C219 1.369 1_545 S
C218 C220 1.423 1_455 S
C218 H222 0.930 . S
C219 C218 1.369 1_565 S
C219 C228 1.429 1_556 S
C220 C218 1.423 1_655 S
C220 C221 1.360 1_556 S
C220 H223 0.928 . S
C221 C220 1.360 1_554 S
C221 C227 1.428 1_545 S
H222 C218 0.930 . S
H223 C220 0.928 . S
S224 N225 1.613 . S
S224 N226 1.610 1_455 S
N225 S224 1.613 . S
N225 C228 1.350 . S
N226 S224 1.610 1_655 S
N226 C227 1.351 . S
C227 C221 1.428 1_565 S
C227 N226 1.351 . S
C227 C228 1.434 1_655 S
C228 C219 1.429 1_554 S
C228 N225 1.350 . S
C228 C227 1.434 1_455 S
C229 C230 1.369 . S
C229 C231 1.419 1_655 S
C229 H233 0.930 . S
C230 C229 1.369 . S
C230 C239 1.429 1_565 S
C231 C229 1.419 1_455 S
C231 C232 1.363 1_565 S
C231 H234 0.929 . S
C232 C231 1.363 1_545 S
C232 C238 1.428 . S
H233 C229 0.930 . S
H234 C231 0.929 . S
S235 N236 1.613 1_455 S
S235 N237 1.610 . S
N236 S235 1.613 1_655 S
N236 C239 1.350 . S
N237 S235 1.610 . S
N237 C238 1.351 . S
C238 C232 1.428 . S
C238 N237 1.351 . S
C238 C239 1.434 1_455 S
C239 C230 1.429 1_545 S
C239 N236 1.350 . S
C239 C238 1.434 1_655 S
C240 C241 1.369 . S
C240 C242 1.419 . S
C240 H244 0.930 . S
C241 C240 1.369 . S
C241 C250 1.429 . S
C242 C240 1.419 . S
C242 C243 1.363 . S
C242 H245 0.929 . S
C243 C242 1.363 . S
C243 C249 1.428 . S
H244 C240 0.930 . S
H245 C242 0.929 . S
S246 N247 1.613 . S
S246 N248 1.610 . S
N247 S246 1.613 . S
N247 C250 1.350 . S
N248 S246 1.610 . S
N248 C249 1.351 . S
C249 C243 1.428 . S
C249 N248 1.351 . S
C249 C250 1.434 . S
C250 C241 1.429 . S
C250 N247 1.350 . S
C250 C249 1.434 . S
C251 C252 1.369 . S
C251 C253 1.419 . S
C251 H255 0.930 . S
C252 C251 1.369 . S
C252 C261 1.429 . S
C253 C251 1.419 . S
C253 C254 1.363 . S
C253 H256 0.929 . S
C254 C253 1.363 . S
C254 C260 1.428 . S
H255 C251 0.930 . S
H256 C253 0.929 . S
S257 N258 1.613 . S
S257 N259 1.610 . S
N258 S257 1.613 . S
N258 C261 1.350 . S
N259 S257 1.610 . S
N259 C260 1.351 . S
C260 C254 1.428 . S
C260 N259 1.351 . S
C260 C261 1.434 . S
C261 C252 1.429 . S
C261 N258 1.350 . S
C261 C260 1.434 . S
C262 C263 1.369 . S
C262 C264 1.419 . S
C262 H266 0.930 . S
C263 C262 1.369 . S
C263 C272 1.429 . S
C264 C262 1.419 . S
C264 C265 1.363 . S
C264 H267 0.929 . S
C265 C264 1.363 . S
C265 C271 1.428 . S
H266 C262 0.930 . S
H267 C264 0.929 . S
S268 N269 1.613 . S
S268 N270 1.610 . S
N269 S268 1.613 . S
N269 C272 1.350 1_545 S
N270 S268 1.610 . S
N270 C271 1.351 1_545 S
C271 C265 1.428 . S
C271 N270 1.351 1_565 S
C271 C272 1.434 . S
C272 C263 1.429 . S
C272 N269 1.350 1_565 S
C272 C271 1.434 . S
C273 C274 1.369 . S
C273 C275 1.419 . S
C273 H277 0.930 . S
C274 C273 1.369 . S
C274 C283 1.429 1_545 S
C275 C273 1.419 . S
C275 C276 1.363 . S
C275 H278 0.929 . S
C276 C275 1.363 . S
C276 C282 1.428 1_545 S
H277 C273 0.930 . S
H278 C275 0.929 . S
S279 N280 1.613 . S
S279 N281 1.610 . S
N280 S279 1.613 . S
N280 C283 1.350 . S
N281 S279 1.610 . S
N281 C282 1.351 . S
C282 C276 1.428 1_565 S
C282 N281 1.351 . S
C282 C283 1.434 . S
C283 C274 1.429 1_565 S
C283 N280 1.350 . S
C283 C282 1.434 . S
C284 C285 1.369 . S
C284 C286 1.419 1_455 S
C284 H288 0.930 . S
C285 C284 1.369 . S
C285 C294 1.429 . S
C286 C284 1.419 1_655 S
C286 C287 1.363 . S
C286 H289 0.929 . S
C287 C286 1.363 . S
C287 C293 1.428 . S
H288 C284 0.930 . S
H289 C286 0.929 . S
S290 N291 1.613 1_655 S
S290 N292 1.610 . S
N291 S290 1.613 1_455 S
N291 C294 1.350 . S
N292 S290 1.610 . S
N292 C293 1.351 . S
C293 C287 1.428 . S
C293 N292 1.351 . S
C293 C294 1.434 1_655 S
C294 C285 1.429 . S
C294 N291 1.350 . S
C294 C293 1.434 1_455 S
C295 C296 1.369 . S
C295 C297 1.419 1_655 S
C295 H299 0.930 . S
C296 C295 1.369 . S
C296 C305 1.429 . S
C297 C295 1.419 1_455 S
C297 C298 1.363 . S
C297 H300 0.929 . S
C298 C297 1.363 . S
C298 C304 1.428 . S
H299 C295 0.930 . S
H300 C297 0.929 . S
S301 N302 1.613 . S
S301 N303 1.610 1_655 S
N302 S301 1.613 . S
N302 C305 1.350 . S
N303 S301 1.610 1_455 S
N303 C304 1.351 . S
C304 C298 1.428 . S
C304 N303 1.351 . S
C304 C305 1.434 1_455 S
C305 C296 1.429 . S
C305 N302 1.350 . S
C305 C304 1.434 1_655 S
C306 C307 1.369 . S
C306 C308 1.419 . S
C306 H310 0.930 . S
C307 C306 1.369 . S
C307 C316 1.429 1_455 S
C308 C306 1.419 . S
C308 C309 1.363 1_455 S
C308 H311 0.929 . S
C309 C308 1.363 1_655 S
C309 C315 1.428 . S
H310 C306 0.930 . S
H311 C308 0.929 . S
S312 N313 1.613 . S
S312 N314 1.610 . S
N313 S312 1.613 . S
N313 C316 1.350 . S
N314 S312 1.610 . S
N314 C315 1.351 . S
C315 C309 1.428 . S
C315 N314 1.351 . S
C315 C316 1.434 . S
C316 C307 1.429 1_655 S
C316 N313 1.350 . S
C316 C315 1.434 . S
C317 C318 1.369 . S
C317 C319 1.419 . S
C317 H321 0.930 . S
C318 C317 1.369 . S
C318 C327 1.429 1_455 S
C319 C317 1.419 . S
C319 C320 1.363 1_455 S
C319 H322 0.929 . S
C320 C319 1.363 1_655 S
C320 C326 1.428 . S
H321 C317 0.930 . S
H322 C319 0.929 . S
S323 N324 1.613 . S
S323 N325 1.610 . S
N324 S323 1.613 . S
N324 C327 1.350 . S
N325 S323 1.610 . S
N325 C326 1.351 . S
C326 C320 1.428 . S
C326 N325 1.351 . S
C326 C327 1.434 . S
C327 C318 1.429 1_655 S
C327 N324 1.350 . S
C327 C326 1.434 . S
C153 C10 1.732 . S
C155 C27 1.722 . S
C164 C48 1.728 . S
C166 C65 1.725 . S
C175 C103 1.733 . S
C177 C86 1.721 . S
C186 C141 1.720 . S
C188 C124 1.732 . S
C197 C53 1.936 1_556 S
C199 C30 1.938 . S
C208 C144 1.942 . S
C210 C91 1.933 . S
C219 C15 1.943 1_566 S
C221 C68 1.933 1_545 S
C230 C129 1.931 1_565 S
C232 C106 1.942 1_545 S
C241 C132 1.297 . S
C243 C18 1.295 . S
C252 C62 1.661 . S
C254 C100 1.672 . S
C263 C107 1.295 . S
C265 C69 1.295 . S
C274 C12 1.665 . S
C276 C126 1.668 . S
C285 C94 1.294 . S
C287 C56 1.296 . S
C296 C138 1.670 . S
C298 C24 1.666 . S
C307 C31 1.294 . S
C309 C145 1.298 . S
C318 C88 1.665 . S
C320 C50 1.669 . S
