# Generated by pormake.
# Topology sod-h, (3)-cn, num edge types: 1
# Building blocks:
#     Node 0, Type 0, BuildingBlock: OLANEW_clean_sbu_2, # of connection points: 3
#     Node 1, Type 0, BuildingBlock: OLANEW_clean_sbu_2, # of connection points: 3
#     Node 2, Type 0, BuildingBlock: OLANEW_clean_sbu_2, # of connection points: 3
#     Node 3, Type 0, BuildingBlock: OLANEW_clean_sbu_2, # of connection points: 3
#     Node 4, Type 0, BuildingBlock: OLANEW_clean_sbu_2, # of connection points: 3
#     Node 5, Type 0, BuildingBlock: OLANEW_clean_sbu_2, # of connection points: 3
#     Node 6, Type 0, BuildingBlock: OLANEW_clean_sbu_2, # of connection points: 3
#     Node 7, Type 0, BuildingBlock: OLANEW_clean_sbu_2, # of connection points: 3
#     Node 8, Type 0, BuildingBlock: OLANEW_clean_sbu_2, # of connection points: 3
#     Node 9, Type 0, BuildingBlock: OLANEW_clean_sbu_2, # of connection points: 3
#     Node 10, Type 0, BuildingBlock: OLANEW_clean_sbu_2, # of connection points: 3
#     Node 11, Type 0, BuildingBlock: OLANEW_clean_sbu_2, # of connection points: 3
#     Node 12, Type 0, BuildingBlock: OLANEW_clean_sbu_2, # of connection points: 3
#     Node 13, Type 0, BuildingBlock: OLANEW_clean_sbu_2, # of connection points: 3
#     Node 14, Type 0, BuildingBlock: OLANEW_clean_sbu_2, # of connection points: 3
#     Node 15, Type 0, BuildingBlock: OLANEW_clean_sbu_2, # of connection points: 3
#     Node 16, Type 0, BuildingBlock: OLANEW_clean_sbu_2, # of connection points: 3
#     Node 17, Type 0, BuildingBlock: OLANEW_clean_sbu_2, # of connection points: 3
#     Node 18, Type 0, BuildingBlock: OLANEW_clean_sbu_2, # of connection points: 3
#     Node 19, Type 0, BuildingBlock: OLANEW_clean_sbu_2, # of connection points: 3
#     Node 20, Type 0, BuildingBlock: OLANEW_clean_sbu_2, # of connection points: 3
#     Node 21, Type 0, BuildingBlock: OLANEW_clean_sbu_2, # of connection points: 3
#     Node 22, Type 0, BuildingBlock: OLANEW_clean_sbu_2, # of connection points: 3
#     Node 23, Type 0, BuildingBlock: OLANEW_clean_sbu_2, # of connection points: 3
#     Node 24, Type 0, BuildingBlock: OLANEW_clean_sbu_2, # of connection points: 3
#     Node 25, Type 0, BuildingBlock: OLANEW_clean_sbu_2, # of connection points: 3
#     Node 26, Type 0, BuildingBlock: OLANEW_clean_sbu_2, # of connection points: 3
#     Node 27, Type 0, BuildingBlock: OLANEW_clean_sbu_2, # of connection points: 3
#     Node 28, Type 0, BuildingBlock: OLANEW_clean_sbu_2, # of connection points: 3
#     Node 29, Type 0, BuildingBlock: OLANEW_clean_sbu_2, # of connection points: 3
#     Node 30, Type 0, BuildingBlock: OLANEW_clean_sbu_2, # of connection points: 3
#     Node 31, Type 0, BuildingBlock: OLANEW_clean_sbu_2, # of connection points: 3
#     Node 32, Type 0, BuildingBlock: OLANEW_clean_sbu_2, # of connection points: 3
#     Node 33, Type 0, BuildingBlock: OLANEW_clean_sbu_2, # of connection points: 3
#     Node 34, Type 0, BuildingBlock: OLANEW_clean_sbu_2, # of connection points: 3
#     Node 35, Type 0, BuildingBlock: OLANEW_clean_sbu_2, # of connection points: 3
#     Node 36, Type 0, BuildingBlock: OLANEW_clean_sbu_2, # of connection points: 3
#     Node 37, Type 0, BuildingBlock: OLANEW_clean_sbu_2, # of connection points: 3
#     Node 38, Type 0, BuildingBlock: OLANEW_clean_sbu_2, # of connection points: 3
#     Node 39, Type 0, BuildingBlock: OLANEW_clean_sbu_2, # of connection points: 3
#     Node 40, Type 0, BuildingBlock: OLANEW_clean_sbu_2, # of connection points: 3
#     Node 41, Type 0, BuildingBlock: OLANEW_clean_sbu_2, # of connection points: 3
#     Node 42, Type 0, BuildingBlock: OLANEW_clean_sbu_2, # of connection points: 3
#     Node 43, Type 0, BuildingBlock: OLANEW_clean_sbu_2, # of connection points: 3
#     Node 44, Type 0, BuildingBlock: OLANEW_clean_sbu_2, # of connection points: 3
#     Node 45, Type 0, BuildingBlock: OLANEW_clean_sbu_2, # of connection points: 3
#     Node 46, Type 0, BuildingBlock: OLANEW_clean_sbu_2, # of connection points: 3
#     Node 47, Type 0, BuildingBlock: OLANEW_clean_sbu_2, # of connection points: 3
#     Edge 48, Type (0, 0), BuildingBlock: CIFDUS_clean_linker_0, # of connection points: 2
#     Edge 49, Type (0, 0), BuildingBlock: CIFDUS_clean_linker_0, # of connection points: 2
#     Edge 50, Type (0, 0), BuildingBlock: CIFDUS_clean_linker_0, # of connection points: 2
#     Edge 51, Type (0, 0), BuildingBlock: CIFDUS_clean_linker_0, # of connection points: 2
#     Edge 52, Type (0, 0), BuildingBlock: CIFDUS_clean_linker_0, # of connection points: 2
#     Edge 53, Type (0, 0), BuildingBlock: CIFDUS_clean_linker_0, # of connection points: 2
#     Edge 54, Type (0, 0), BuildingBlock: CIFDUS_clean_linker_0, # of connection points: 2
#     Edge 55, Type (0, 0), BuildingBlock: CIFDUS_clean_linker_0, # of connection points: 2
#     Edge 56, Type (0, 0), BuildingBlock: CIFDUS_clean_linker_0, # of connection points: 2
#     Edge 57, Type (0, 0), BuildingBlock: CIFDUS_clean_linker_0, # of connection points: 2
#     Edge 58, Type (0, 0), BuildingBlock: CIFDUS_clean_linker_0, # of connection points: 2
#     Edge 59, Type (0, 0), BuildingBlock: CIFDUS_clean_linker_0, # of connection points: 2
#     Edge 60, Type (0, 0), BuildingBlock: CIFDUS_clean_linker_0, # of connection points: 2
#     Edge 61, Type (0, 0), BuildingBlock: CIFDUS_clean_linker_0, # of connection points: 2
#     Edge 62, Type (0, 0), BuildingBlock: CIFDUS_clean_linker_0, # of connection points: 2
#     Edge 63, Type (0, 0), BuildingBlock: CIFDUS_clean_linker_0, # of connection points: 2
#     Edge 64, Type (0, 0), BuildingBlock: CIFDUS_clean_linker_0, # of connection points: 2
#     Edge 65, Type (0, 0), BuildingBlock: CIFDUS_clean_linker_0, # of connection points: 2
#     Edge 66, Type (0, 0), BuildingBlock: CIFDUS_clean_linker_0, # of connection points: 2
#     Edge 67, Type (0, 0), BuildingBlock: CIFDUS_clean_linker_0, # of connection points: 2
#     Edge 68, Type (0, 0), BuildingBlock: CIFDUS_clean_linker_0, # of connection points: 2
#     Edge 69, Type (0, 0), BuildingBlock: CIFDUS_clean_linker_0, # of connection points: 2
#     Edge 70, Type (0, 0), BuildingBlock: CIFDUS_clean_linker_0, # of connection points: 2
#     Edge 71, Type (0, 0), BuildingBlock: CIFDUS_clean_linker_0, # of connection points: 2
#     Edge 72, Type (0, 0), BuildingBlock: CIFDUS_clean_linker_0, # of connection points: 2
#     Edge 73, Type (0, 0), BuildingBlock: CIFDUS_clean_linker_0, # of connection points: 2
#     Edge 74, Type (0, 0), BuildingBlock: CIFDUS_clean_linker_0, # of connection points: 2
#     Edge 75, Type (0, 0), BuildingBlock: CIFDUS_clean_linker_0, # of connection points: 2
#     Edge 76, Type (0, 0), BuildingBlock: CIFDUS_clean_linker_0, # of connection points: 2
#     Edge 77, Type (0, 0), BuildingBlock: CIFDUS_clean_linker_0, # of connection points: 2
#     Edge 78, Type (0, 0), BuildingBlock: CIFDUS_clean_linker_0, # of connection points: 2
#     Edge 79, Type (0, 0), BuildingBlock: CIFDUS_clean_linker_0, # of connection points: 2
#     Edge 80, Type (0, 0), BuildingBlock: CIFDUS_clean_linker_0, # of connection points: 2
#     Edge 81, Type (0, 0), BuildingBlock: CIFDUS_clean_linker_0, # of connection points: 2
#     Edge 82, Type (0, 0), BuildingBlock: CIFDUS_clean_linker_0, # of connection points: 2
#     Edge 83, Type (0, 0), BuildingBlock: CIFDUS_clean_linker_0, # of connection points: 2
#     Edge 84, Type (0, 0), BuildingBlock: CIFDUS_clean_linker_0, # of connection points: 2
#     Edge 85, Type (0, 0), BuildingBlock: CIFDUS_clean_linker_0, # of connection points: 2
#     Edge 86, Type (0, 0), BuildingBlock: CIFDUS_clean_linker_0, # of connection points: 2
#     Edge 87, Type (0, 0), BuildingBlock: CIFDUS_clean_linker_0, # of connection points: 2
#     Edge 88, Type (0, 0), BuildingBlock: CIFDUS_clean_linker_0, # of connection points: 2
#     Edge 89, Type (0, 0), BuildingBlock: CIFDUS_clean_linker_0, # of connection points: 2
#     Edge 90, Type (0, 0), BuildingBlock: CIFDUS_clean_linker_0, # of connection points: 2
#     Edge 91, Type (0, 0), BuildingBlock: CIFDUS_clean_linker_0, # of connection points: 2
#     Edge 92, Type (0, 0), BuildingBlock: CIFDUS_clean_linker_0, # of connection points: 2
#     Edge 93, Type (0, 0), BuildingBlock: CIFDUS_clean_linker_0, # of connection points: 2
#     Edge 94, Type (0, 0), BuildingBlock: CIFDUS_clean_linker_0, # of connection points: 2
#     Edge 95, Type (0, 0), BuildingBlock: CIFDUS_clean_linker_0, # of connection points: 2
#     Edge 96, Type (0, 0), BuildingBlock: CIFDUS_clean_linker_0, # of connection points: 2
#     Edge 97, Type (0, 0), BuildingBlock: CIFDUS_clean_linker_0, # of connection points: 2
#     Edge 98, Type (0, 0), BuildingBlock: CIFDUS_clean_linker_0, # of connection points: 2
#     Edge 99, Type (0, 0), BuildingBlock: CIFDUS_clean_linker_0, # of connection points: 2
#     Edge 100, Type (0, 0), BuildingBlock: CIFDUS_clean_linker_0, # of connection points: 2
#     Edge 101, Type (0, 0), BuildingBlock: CIFDUS_clean_linker_0, # of connection points: 2
#     Edge 102, Type (0, 0), BuildingBlock: CIFDUS_clean_linker_0, # of connection points: 2
#     Edge 103, Type (0, 0), BuildingBlock: CIFDUS_clean_linker_0, # of connection points: 2
#     Edge 104, Type (0, 0), BuildingBlock: CIFDUS_clean_linker_0, # of connection points: 2
#     Edge 105, Type (0, 0), BuildingBlock: CIFDUS_clean_linker_0, # of connection points: 2
#     Edge 106, Type (0, 0), BuildingBlock: CIFDUS_clean_linker_0, # of connection points: 2
#     Edge 107, Type (0, 0), BuildingBlock: CIFDUS_clean_linker_0, # of connection points: 2
#     Edge 108, Type (0, 0), BuildingBlock: CIFDUS_clean_linker_0, # of connection points: 2
#     Edge 109, Type (0, 0), BuildingBlock: CIFDUS_clean_linker_0, # of connection points: 2
#     Edge 110, Type (0, 0), BuildingBlock: CIFDUS_clean_linker_0, # of connection points: 2
#     Edge 111, Type (0, 0), BuildingBlock: CIFDUS_clean_linker_0, # of connection points: 2
#     Edge 112, Type (0, 0), BuildingBlock: CIFDUS_clean_linker_0, # of connection points: 2
#     Edge 113, Type (0, 0), BuildingBlock: CIFDUS_clean_linker_0, # of connection points: 2
#     Edge 114, Type (0, 0), BuildingBlock: CIFDUS_clean_linker_0, # of connection points: 2
#     Edge 115, Type (0, 0), BuildingBlock: CIFDUS_clean_linker_0, # of connection points: 2
#     Edge 116, Type (0, 0), BuildingBlock: CIFDUS_clean_linker_0, # of connection points: 2
#     Edge 117, Type (0, 0), BuildingBlock: CIFDUS_clean_linker_0, # of connection points: 2
#     Edge 118, Type (0, 0), BuildingBlock: CIFDUS_clean_linker_0, # of connection points: 2
#     Edge 119, Type (0, 0), BuildingBlock: CIFDUS_clean_linker_0, # of connection points: 2
# Relax obj value: 0.008
# Max RMSD: 0.028
# Mean RMSD: 0.028
data_MOF--net-sod-h--node1-OLANEW_clean_sbu_2--edge1-CIFDUS_clean_linker_0
_symmetry_space_group_name_H-M    P1
_symmetry_Int_Tables_number       1
_symmetry_cell_setting            triclinic
loop_
_symmetry_equiv_pos_as_xyz
'x, y, z'
_cell_length_a     92.088936
_cell_length_b     92.109316
_cell_length_c     92.085446
_cell_angle_alpha  90.004189
_cell_angle_beta   89.995363
_cell_angle_gamma 90.003688
loop_
_atom_site_label
_atom_site_type_symbol
_atom_site_fract_x
_atom_site_fract_y
_atom_site_fract_z
_atom_type_partial_charge
O0 O 0.10759 0.22633 0.70666 0.0
Cd1 Cd 0.10479 0.2076 0.68804 0.0
O2 O 0.08879 0.21697 0.71791 0.0
Cd3 Cd 0.07134 0.21906 0.73387 0.0
O4 O 0.04936 0.22274 0.74199 0.0
C5 C 0.04258 0.23391 0.73754 0.0
O6 O 0.04936 0.24314 0.72903 0.0
C7 C 0.09864 0.22658 0.71715 0.0
C8 C 0.12419 0.1845 0.69068 0.0
O9 O 0.12737 0.19569 0.68304 0.0
O10 O 0.11192 0.18433 0.69724 0.0
O11 O 0.78462 0.61496 0.21253 0.0
Cd12 Cd 0.80102 0.6104 0.19213 0.0
O13 O 0.78317 0.59139 0.21545 0.0
Cd14 Cd 0.77479 0.5712 0.22502 0.0
O15 O 0.76965 0.54942 0.23303 0.0
C16 C 0.75845 0.54267 0.22862 0.0
O17 O 0.7496 0.54918 0.21951 0.0
C18 C 0.77965 0.60413 0.21948 0.0
C19 C 0.82644 0.62682 0.19369 0.0
O20 O 0.81532 0.63147 0.18673 0.0
O21 O 0.82552 0.61443 0.19995 0.0
O22 O 0.39486 0.28281 0.7199 0.0
Cd23 Cd 0.39859 0.29787 0.69837 0.0
O24 O 0.41835 0.27963 0.72116 0.0
Cd25 Cd 0.43971 0.27353 0.72966 0.0
O26 O 0.4634 0.27517 0.73117 0.0
C27 C 0.46927 0.28243 0.74134 0.0
O28 O 0.46094 0.28824 0.75137 0.0
C29 C 0.40575 0.27726 0.72631 0.0
C30 C 0.3798 0.32162 0.69797 0.0
O31 O 0.37637 0.30967 0.69171 0.0
O32 O 0.39212 0.32233 0.7044 0.0
O33 O 0.71832 0.88437 0.21164 0.0
Cd34 Cd 0.70132 0.88821 0.1916 0.0
O35 O 0.71784 0.90792 0.21486 0.0
Cd36 Cd 0.72461 0.92875 0.22428 0.0
O37 O 0.72793 0.95044 0.23335 0.0
C38 C 0.7391 0.95794 0.23024 0.0
O39 O 0.74908 0.95231 0.22174 0.0
C40 C 0.72255 0.89548 0.21864 0.0
C41 C 0.67721 0.86989 0.19255 0.0
O42 O 0.68866 0.86632 0.18548 0.0
O43 O 0.67722 0.88208 0.19928 0.0
O44 O 0.10796 0.28137 0.7945 0.0
Cd45 Cd 0.10544 0.30066 0.81258 0.0
O46 O 0.08865 0.29021 0.78368 0.0
Cd47 Cd 0.07091 0.28761 0.76812 0.0
O48 O 0.04903 0.28347 0.75995 0.0
C49 C 0.04238 0.27222 0.7644 0.0
O50 O 0.04924 0.26314 0.77302 0.0
C51 C 0.09869 0.28078 0.78431 0.0
C52 C 0.11875 0.3266 0.80435 0.0
O53 O 0.12552 0.31721 0.81207 0.0
O54 O 0.10572 0.32366 0.80042 0.0
O55 O 0.72485 0.61487 0.29436 0.0
Cd56 Cd 0.70694 0.61465 0.31399 0.0
O57 O 0.72227 0.59122 0.29393 0.0
Cd58 Cd 0.7265 0.56989 0.28431 0.0
O59 O 0.72937 0.54816 0.2753 0.0
C60 C 0.7403 0.54046 0.27872 0.0
O61 O 0.75016 0.54591 0.28747 0.0
C62 C 0.72843 0.60261 0.28916 0.0
C63 C 0.68239 0.63161 0.3088 0.0
O64 O 0.69343 0.63683 0.31548 0.0
O65 O 0.68306 0.61843 0.30438 0.0
O66 O 0.38595 0.21966 0.79573 0.0
Cd67 Cd 0.38154 0.20416 0.81682 0.0
O68 O 0.40845 0.21255 0.79781 0.0
Cd69 Cd 0.43187 0.21179 0.79426 0.0
O70 O 0.45542 0.20983 0.79365 0.0
C71 C 0.46248 0.21019 0.8055 0.0
O72 O 0.45535 0.21177 0.81777 0.0
C73 C 0.39898 0.22015 0.79122 0.0
C74 C 0.37122 0.17674 0.80929 0.0
O75 O 0.36246 0.18693 0.81293 0.0
O76 O 0.38485 0.17954 0.80915 0.0
O77 O 0.78254 0.88997 0.29002 0.0
Cd78 Cd 0.80199 0.89179 0.30802 0.0
O79 O 0.78387 0.91369 0.28861 0.0
Cd80 Cd 0.77811 0.93453 0.27871 0.0
O81 O 0.77541 0.95631 0.26973 0.0
C82 C 0.76432 0.964 0.27263 0.0
O83 O 0.75402 0.9585 0.28083 0.0
C84 C 0.77796 0.90184 0.2847 0.0
C85 C 0.82675 0.87572 0.3012 0.0
O86 O 0.81673 0.87037 0.30925 0.0
O87 O 0.82496 0.88859 0.29622 0.0
O88 O 0.71064 0.11097 0.22402 0.0
Cd89 Cd 0.69194 0.10732 0.20553 0.0
O90 O 0.72098 0.09102 0.2161 0.0
Cd91 Cd 0.73665 0.07338 0.21887 0.0
O92 O 0.74593 0.05174 0.22183 0.0
C93 C 0.74131 0.04386 0.23219 0.0
O94 O 0.73174 0.04931 0.24126 0.0
C95 C 0.72081 0.10169 0.22483 0.0
C96 C 0.69585 0.12474 0.18106 0.0
O97 O 0.68781 0.12893 0.19163 0.0
O98 O 0.70212 0.11236 0.18213 0.0
O99 O 0.89239 0.20966 0.71879 0.0
Cd100 Cd 0.89583 0.1932 0.69824 0.0
O101 O 0.91129 0.22171 0.71072 0.0
Cd102 Cd 0.9286 0.23753 0.71442 0.0
O103 O 0.95038 0.2456 0.71921 0.0
C104 C 0.95705 0.24033 0.73009 0.0
O105 O 0.95025 0.23097 0.73844 0.0
C106 C 0.9013 0.2201 0.72009 0.0
C107 C 0.88128 0.202 0.67319 0.0
O108 O 0.87548 0.19294 0.68202 0.0
O109 O 0.8939 0.207 0.67628 0.0
O110 O 0.78644 0.38586 0.21974 0.0
Cd111 Cd 0.80685 0.3902 0.20333 0.0
O112 O 0.78324 0.40942 0.22063 0.0
Cd113 Cd 0.77343 0.42976 0.22833 0.0
O114 O 0.76587 0.45187 0.23264 0.0
C115 C 0.77029 0.45886 0.24369 0.0
O116 O 0.77905 0.45238 0.2529 0.0
C117 C 0.7793 0.39672 0.22439 0.0
C118 C 0.80528 0.37295 0.17848 0.0
O119 O 0.81248 0.36879 0.18965 0.0
O120 O 0.79883 0.38527 0.17908 0.0
O121 O 0.62909 0.30523 0.72173 0.0
Cd122 Cd 0.6397 0.32294 0.70507 0.0
O123 O 0.60668 0.30831 0.7141 0.0
Cd124 Cd 0.58354 0.30249 0.71383 0.0
O125 O 0.56085 0.29542 0.71512 0.0
C126 C 0.55351 0.29754 0.72663 0.0
O127 O 0.55973 0.30409 0.73768 0.0
C128 C 0.61568 0.30212 0.72256 0.0
C129 C 0.64712 0.31074 0.67841 0.0
O130 O 0.65511 0.30885 0.68964 0.0
O131 O 0.63556 0.31836 0.67973 0.0
O132 O 0.7029 0.38541 0.27685 0.0
Cd133 Cd 0.68283 0.38504 0.29424 0.0
O134 O 0.70304 0.40907 0.2795 0.0
Cd135 Cd 0.71276 0.43039 0.27549 0.0
O136 O 0.72248 0.45175 0.27221 0.0
C137 C 0.71979 0.45912 0.26086 0.0
O138 O 0.71129 0.45356 0.25084 0.0
C139 C 0.70809 0.39773 0.27347 0.0
C140 C 0.68856 0.36889 0.31921 0.0
O141 O 0.68242 0.36307 0.30816 0.0
O142 O 0.69214 0.38231 0.31838 0.0
O143 O 0.60633 0.22467 0.7785 0.0
Cd144 Cd 0.5978 0.20597 0.7953 0.0
O145 O 0.58824 0.23916 0.78424 0.0
Cd146 Cd 0.57644 0.22363 0.79757 0.0
O147 O 0.55474 0.21527 0.80169 0.0
C148 C 0.54763 0.21138 0.79052 0.0
O149 O 0.55416 0.21158 0.77782 0.0
C150 C 0.59985 0.23679 0.77717 0.0
C151 C 0.61158 0.20833 0.82218 0.0
O152 O 0.61665 0.20002 0.81224 0.0
O153 O 0.59995 0.21546 0.81943 0.0
O154 O 0.8012 0.11204 0.27515 0.0
Cd155 Cd 0.82023 0.10991 0.29354 0.0
O156 O 0.78916 0.09492 0.28656 0.0
Cd157 Cd 0.77192 0.0786 0.28621 0.0
O158 O 0.76135 0.05759 0.28317 0.0
C159 C 0.76531 0.04987 0.27243 0.0
O160 O 0.77489 0.05519 0.26329 0.0
C161 C 0.79018 0.1038 0.27607 0.0
C162 C 0.81593 0.12791 0.3175 0.0
O163 O 0.82339 0.1322 0.30655 0.0
O164 O 0.81038 0.11516 0.31704 0.0
O165 O 0.89134 0.29318 0.78039 0.0
Cd166 Cd 0.8939 0.30985 0.80089 0.0
O167 O 0.91032 0.28149 0.78878 0.0
Cd168 Cd 0.92801 0.26601 0.78542 0.0
O169 O 0.95008 0.25847 0.78113 0.0
C170 C 0.95686 0.26392 0.7704 0.0
O171 O 0.95002 0.27311 0.7619 0.0
C172 C 0.90046 0.28291 0.77925 0.0
C173 C 0.88003 0.30015 0.82599 0.0
O174 O 0.87358 0.30869 0.8171 0.0
O175 O 0.89299 0.2961 0.82294 0.0
O176 O 0.21772 0.7221 0.09148 0.0
Cd177 Cd 0.19948 0.70384 0.08515 0.0
O178 O 0.20445 0.74016 0.08318 0.0
Cd179 Cd 0.19087 0.72537 0.07052 0.0
O180 O 0.18784 0.71365 0.05008 0.0
C181 C 0.19702 0.70385 0.04687 0.0
O182 O 0.20715 0.70056 0.05637 0.0
C183 C 0.21566 0.73566 0.08989 0.0
C184 C 0.17712 0.70258 0.10563 0.0
O185 O 0.1884 0.69451 0.10681 0.0
O186 O 0.17642 0.71125 0.09476 0.0
O187 O 0.21754 0.77659 0.39143 0.0
Cd188 Cd 0.2008 0.79687 0.39503 0.0
O189 O 0.22073 0.77577 0.41493 0.0
Cd190 Cd 0.2272 0.76809 0.43649 0.0
O191 O 0.22559 0.76729 0.46022 0.0
C192 C 0.2193 0.75673 0.4665 0.0
O193 O 0.21449 0.74587 0.45859 0.0
C194 C 0.2235 0.77068 0.40238 0.0
C195 C 0.17543 0.79327 0.37886 0.0
O196 O 0.18616 0.80056 0.37381 0.0
O197 O 0.17669 0.78774 0.39157 0.0
O198 O 0.21978 0.71393 0.89908 0.0
Cd199 Cd 0.20008 0.69716 0.90509 0.0
O200 O 0.22725 0.71502 0.92174 0.0
Cd201 Cd 0.20958 0.70269 0.93164 0.0
O202 O 0.19764 0.69993 0.95195 0.0
C203 C 0.20345 0.69236 0.96191 0.0
O204 O 0.21559 0.68543 0.95905 0.0
C205 C 0.22877 0.71854 0.90848 0.0
C206 C 0.19723 0.67555 0.884 0.0
O207 O 0.19007 0.68745 0.88311 0.0
O208 O 0.2057 0.67385 0.89492 0.0
O209 O 0.28387 0.70274 0.38499 0.0
Cd210 Cd 0.29879 0.68105 0.38147 0.0
O211 O 0.28976 0.70088 0.40787 0.0
Cd212 Cd 0.2892 0.70476 0.43124 0.0
O213 O 0.29004 0.70561 0.45486 0.0
C214 C 0.28983 0.69381 0.462 0.0
O215 O 0.28906 0.68145 0.45491 0.0
C216 C 0.28276 0.70743 0.39792 0.0
C217 C 0.32157 0.68439 0.36181 0.0
O218 O 0.30906 0.67994 0.35761 0.0
O219 O 0.32322 0.68748 0.37528 0.0
O220 O 0.29981 0.77506 0.88746 0.0
Cd221 Cd 0.31843 0.79362 0.88372 0.0
O222 O 0.29928 0.78319 0.90976 0.0
Cd223 Cd 0.29125 0.78513 0.93209 0.0
O224 O 0.28461 0.78867 0.95461 0.0
C225 C 0.28842 0.77994 0.96459 0.0
O226 O 0.29625 0.76851 0.96118 0.0
C227 C 0.2947 0.77426 0.90025 0.0
C228 C 0.30762 0.81941 0.87212 0.0
O229 O 0.31358 0.80985 0.86394 0.0
O230 O 0.30665 0.81672 0.88574 0.0
O231 O 0.2654 0.81181 0.11988 0.0
Cd232 Cd 0.28387 0.8308 0.12185 0.0
O233 O 0.2782 0.80285 0.10193 0.0
Cd234 Cd 0.28097 0.78903 0.08279 0.0
O235 O 0.28386 0.78093 0.06066 0.0
C236 C 0.27838 0.78834 0.05039 0.0
O237 O 0.27105 0.80015 0.0536 0.0
C238 C 0.267 0.80233 0.10999 0.0
C239 C 0.31026 0.82128 0.13328 0.0
O240 O 0.30059 0.82706 0.14145 0.0
O241 O 0.30738 0.81982 0.11975 0.0
O242 O 0.19203 0.78021 0.62508 0.0
Cd243 Cd 0.17469 0.79769 0.63491 0.0
O244 O 0.18973 0.78747 0.60245 0.0
Cd245 Cd 0.19611 0.78712 0.57945 0.0
O246 O 0.20354 0.78545 0.55689 0.0
C247 C 0.20233 0.77355 0.54999 0.0
O248 O 0.1965 0.76231 0.55656 0.0
C249 C 0.19544 0.77901 0.61176 0.0
C250 C 0.1882 0.82343 0.64324 0.0
O251 O 0.18886 0.81206 0.65123 0.0
O252 O 0.18114 0.82269 0.63127 0.0
O253 O 0.27168 0.72105 0.60551 0.0
Cd254 Cd 0.28999 0.70339 0.59797 0.0
O255 O 0.25764 0.71547 0.58702 0.0
Cd256 Cd 0.27321 0.7017 0.57579 0.0
O257 O 0.28191 0.69777 0.55417 0.0
C258 C 0.28535 0.70908 0.54705 0.0
O259 O 0.28446 0.72177 0.55352 0.0
C260 C 0.25983 0.72262 0.59861 0.0
C261 C 0.28771 0.67796 0.61426 0.0
O262 O 0.29636 0.68816 0.61809 0.0
O263 O 0.28022 0.67975 0.60267 0.0
O264 O 0.91893 0.78783 0.27659 0.0
Cd265 Cd 0.9226 0.80976 0.29106 0.0
O266 O 0.92758 0.77362 0.29371 0.0
Cd267 Cd 0.93758 0.79161 0.3055 0.0
O268 O 0.95832 0.80277 0.3086 0.0
C269 C 0.96212 0.81254 0.29963 0.0
O270 O 0.95287 0.8166 0.28955 0.0
C271 C 0.92147 0.77515 0.28141 0.0
C272 C 0.89651 0.82444 0.29568 0.0
O273 O 0.90477 0.82772 0.28497 0.0
O274 O 0.90062 0.81424 0.30422 0.0
O275 O 0.19794 0.4196 0.76524 0.0
Cd276 Cd 0.1788 0.42451 0.78295 0.0
O277 O 0.21506 0.4199 0.78187 0.0
Cd278 Cd 0.20109 0.43053 0.79784 0.0
O279 O 0.1952 0.45168 0.8069 0.0
C280 C 0.20357 0.45744 0.81624 0.0
O281 O 0.21467 0.44989 0.82108 0.0
C282 C 0.21114 0.41768 0.76881 0.0
C283 C 0.1653 0.39864 0.7911 0.0
O284 O 0.16028 0.40636 0.78067 0.0
O285 O 0.17661 0.40325 0.79778 0.0
O286 O 0.584 0.7047 0.27217 0.0
Cd287 Cd 0.58009 0.68424 0.2886 0.0
O288 O 0.58486 0.72044 0.29011 0.0
Cd289 Cd 0.57527 0.70518 0.30553 0.0
O290 O 0.55437 0.69898 0.31491 0.0
C291 C 0.54956 0.70605 0.32574 0.0
O292 O 0.55797 0.71586 0.3318 0.0
C293 C 0.58618 0.71759 0.27665 0.0
C294 C 0.60551 0.66806 0.29172 0.0
O295 O 0.60303 0.67915 0.29975 0.0
O296 O 0.59591 0.66456 0.28227 0.0
O297 O 0.30048 0.07955 0.76665 0.0
Cd298 Cd 0.31886 0.07523 0.78528 0.0
O299 O 0.28304 0.0821 0.78277 0.0
Cd300 Cd 0.2963 0.07215 0.79973 0.0
O301 O 0.30447 0.05161 0.80833 0.0
C302 C 0.29618 0.04403 0.81636 0.0
O303 O 0.28357 0.04946 0.82025 0.0
C304 C 0.28737 0.08273 0.76966 0.0
C305 C 0.33036 0.10177 0.79417 0.0
O306 O 0.33667 0.09418 0.78435 0.0
O307 O 0.31877 0.09667 0.79995 0.0
O308 O 0.92352 0.70293 0.22421 0.0
Cd309 Cd 0.92834 0.68191 0.20873 0.0
O310 O 0.92277 0.71802 0.20573 0.0
Cd311 Cd 0.93334 0.70242 0.19131 0.0
O312 O 0.95451 0.69516 0.18338 0.0
C313 C 0.96118 0.70331 0.17445 0.0
O314 O 0.95452 0.7149 0.16948 0.0
C315 C 0.92111 0.71558 0.21922 0.0
C316 C 0.90346 0.66477 0.20641 0.0
O317 O 0.91312 0.66212 0.21608 0.0
O318 O 0.90566 0.67544 0.19774 0.0
O319 O 0.29443 0.41398 0.72266 0.0
Cd320 Cd 0.3149 0.41837 0.7063 0.0
O321 O 0.27792 0.41769 0.70581 0.0
Cd322 Cd 0.29411 0.42698 0.69119 0.0
O323 O 0.30669 0.44662 0.68692 0.0
C324 C 0.30083 0.45688 0.67979 0.0
O325 O 0.28795 0.45476 0.67404 0.0
C326 C 0.28118 0.41405 0.71874 0.0
C327 C 0.33406 0.39493 0.70601 0.0
O328 O 0.33595 0.40563 0.71472 0.0
O329 O 0.32313 0.39536 0.69741 0.0
O330 O 0.58275 0.78764 0.21697 0.0
Cd331 Cd 0.57796 0.80902 0.202 0.0
O332 O 0.57696 0.77234 0.19959 0.0
Cd333 Cd 0.56649 0.78915 0.18651 0.0
O334 O 0.54552 0.79857 0.18062 0.0
C335 C 0.53761 0.79175 0.17159 0.0
O336 O 0.54292 0.78013 0.16524 0.0
C337 C 0.58188 0.77469 0.21228 0.0
C338 C 0.60215 0.82724 0.20156 0.0
O339 O 0.60085 0.81682 0.19243 0.0
O340 O 0.59194 0.82912 0.21083 0.0
O341 O 0.20632 0.08979 0.7196 0.0
Cd342 Cd 0.18669 0.08649 0.70208 0.0
O343 O 0.22325 0.08337 0.70403 0.0
Cd344 Cd 0.2077 0.07422 0.68864 0.0
O345 O 0.19881 0.05343 0.68143 0.0
C346 C 0.18774 0.04815 0.68776 0.0
O347 O 0.18102 0.05602 0.69758 0.0
C348 C 0.21968 0.08818 0.71648 0.0
C349 C 0.16838 0.11061 0.70153 0.0
O350 O 0.16574 0.0998 0.70989 0.0
O351 O 0.17966 0.10996 0.69339 0.0
O352 O 0.26864 0.91707 0.79603 0.0
Cd353 Cd 0.27998 0.92005 0.81983 0.0
O354 O 0.28937 0.92145 0.78501 0.0
Cd355 Cd 0.29922 0.93134 0.8042 0.0
O356 O 0.30298 0.95263 0.81402 0.0
C357 C 0.29304 0.95836 0.82169 0.0
O358 O 0.28137 0.9507 0.82466 0.0
C359 C 0.27611 0.91761 0.78442 0.0
C360 C 0.28905 0.89334 0.83086 0.0
O361 O 0.27688 0.8989 0.83472 0.0
O362 O 0.29694 0.90045 0.82187 0.0
O363 O 0.08919 0.77156 0.2852 0.0
Cd364 Cd 0.08364 0.78571 0.307 0.0
O365 O 0.08743 0.79043 0.27068 0.0
Cd366 Cd 0.07726 0.80348 0.28769 0.0
O367 O 0.057 0.80807 0.29917 0.0
C368 C 0.04776 0.81639 0.29318 0.0
O369 O 0.05129 0.82293 0.281 0.0
C370 C 0.09036 0.77707 0.27258 0.0
C371 C 0.10842 0.79034 0.32379 0.0
O372 O 0.09995 0.77959 0.32633 0.0
O373 O 0.10513 0.79892 0.31334 0.0
O374 O 0.21396 0.59279 0.7872 0.0
Cd375 Cd 0.19767 0.58723 0.80743 0.0
O376 O 0.23219 0.58088 0.79699 0.0
Cd377 Cd 0.21885 0.57004 0.81335 0.0
O378 O 0.21083 0.54882 0.82036 0.0
C379 C 0.21859 0.54118 0.82883 0.0
O380 O 0.23054 0.54685 0.83418 0.0
C381 C 0.22723 0.58898 0.78696 0.0
C382 C 0.1996 0.60819 0.82926 0.0
O383 O 0.20769 0.59687 0.82945 0.0
O384 O 0.19056 0.60956 0.81877 0.0
O385 O 0.41518 0.71581 0.28135 0.0
Cd386 Cd 0.41827 0.69474 0.29713 0.0
O387 O 0.42575 0.73065 0.29677 0.0
Cd388 Cd 0.43507 0.71312 0.30976 0.0
O389 O 0.45543 0.70205 0.31488 0.0
C390 C 0.4637 0.70736 0.32457 0.0
O391 O 0.45909 0.71852 0.33216 0.0
C392 C 0.41882 0.72862 0.285 0.0
C393 C 0.39519 0.69313 0.31668 0.0
O394 O 0.39439 0.68722 0.3041 0.0
O395 O 0.407 0.69965 0.32009 0.0
O396 O 0.27622 0.5899 0.70919 0.0
Cd397 Cd 0.2871 0.58529 0.68537 0.0
O398 O 0.2946 0.57998 0.72077 0.0
Cd399 Cd 0.30386 0.57068 0.70101 0.0
O400 O 0.30458 0.55129 0.68737 0.0
C401 C 0.31333 0.54112 0.69061 0.0
O402 O 0.32263 0.54318 0.70124 0.0
C403 C 0.28254 0.58672 0.72106 0.0
C404 C 0.28986 0.61049 0.66879 0.0
O405 O 0.27866 0.60231 0.66759 0.0
O406 O 0.29972 0.60676 0.67787 0.0
O407 O 0.40923 0.78068 0.20547 0.0
Cd408 Cd 0.41202 0.79846 0.18598 0.0
O409 O 0.41913 0.79516 0.22168 0.0
Cd410 Cd 0.42821 0.80996 0.20553 0.0
O411 O 0.44907 0.81611 0.19604 0.0
C412 C 0.45449 0.80811 0.18619 0.0
O413 O 0.44669 0.79731 0.18107 0.0
C414 C 0.41264 0.78336 0.21858 0.0
C415 C 0.38492 0.8062 0.17484 0.0
O416 O 0.39245 0.7961 0.16894 0.0
O417 O 0.39027 0.81271 0.18592 0.0
O418 O 0.23597 0.92252 0.70195 0.0
Cd419 Cd 0.22808 0.9273 0.67705 0.0
O420 O 0.21437 0.92383 0.71204 0.0
Cd421 Cd 0.20531 0.93396 0.69262 0.0
O422 O 0.2011 0.95455 0.68165 0.0
C423 C 0.19072 0.96239 0.68626 0.0
O424 O 0.1822 0.95718 0.69646 0.0
C425 C 0.22788 0.92118 0.71307 0.0
C426 C 0.21531 0.90252 0.66527 0.0
O427 O 0.22914 0.90377 0.66611 0.0
O428 O 0.20745 0.91306 0.66981 0.0
O429 O 0.09029 0.7213 0.19915 0.0
Cd430 Cd 0.08491 0.70703 0.17739 0.0
O431 O 0.08547 0.70313 0.21388 0.0
Cd432 Cd 0.07466 0.69033 0.19708 0.0
O433 O 0.0532 0.68389 0.18923 0.0
C434 C 0.0463 0.69236 0.18078 0.0
O435 O 0.05286 0.70407 0.17595 0.0
C436 C 0.08999 0.71604 0.21192 0.0
C437 C 0.10743 0.70843 0.15712 0.0
O438 O 0.09686 0.71749 0.15675 0.0
O439 O 0.10734 0.69871 0.16707 0.0
O440 O 0.79852 0.25973 0.91774 0.0
Cd441 Cd 0.81948 0.27524 0.92275 0.0
O442 O 0.78338 0.27815 0.91651 0.0
Cd443 Cd 0.79925 0.29291 0.92612 0.0
O444 O 0.80878 0.30025 0.94657 0.0
C445 C 0.80149 0.30896 0.95442 0.0
O446 O 0.78924 0.31418 0.9493 0.0
C447 C 0.78584 0.26461 0.91524 0.0
C448 C 0.83287 0.284 0.89703 0.0
O449 O 0.83719 0.27266 0.90385 0.0
O450 O 0.82227 0.29123 0.90242 0.0
O451 O 0.79701 0.23273 0.57965 0.0
Cd452 Cd 0.82062 0.22141 0.57528 0.0
O453 O 0.78556 0.21178 0.57987 0.0
Cd454 Cd 0.80416 0.20049 0.57045 0.0
O455 O 0.81472 0.19594 0.54971 0.0
C456 C 0.80897 0.1865 0.54144 0.0
O457 O 0.79787 0.17898 0.54632 0.0
C458 C 0.78539 0.22549 0.58152 0.0
C459 C 0.83415 0.21398 0.60135 0.0
O460 O 0.83684 0.22612 0.59509 0.0
O461 O 0.82511 0.20534 0.59523 0.0
O462 O 0.77588 0.29182 0.08417 0.0
Cd463 Cd 0.78927 0.31411 0.07887 0.0
O464 O 0.79445 0.27798 0.07837 0.0
Cd465 Cd 0.80582 0.29553 0.06716 0.0
O466 O 0.8099 0.30485 0.0457 0.0
C467 C 0.80064 0.31351 0.04024 0.0
O468 O 0.78955 0.31763 0.04821 0.0
C469 C 0.78167 0.27931 0.08345 0.0
C470 C 0.7913 0.33178 0.10338 0.0
O471 O 0.78103 0.3335 0.09414 0.0
O472 O 0.80064 0.32174 0.10098 0.0
O473 O 0.70441 0.26852 0.57651 0.0
Cd474 Cd 0.67987 0.27747 0.57193 0.0
O475 O 0.71529 0.28965 0.5743 0.0
Cd476 Cd 0.69636 0.29964 0.56407 0.0
O477 O 0.68788 0.30646 0.54298 0.0
C478 C 0.68056 0.29759 0.53535 0.0
O479 O 0.67706 0.28495 0.54097 0.0
C480 C 0.71584 0.27621 0.5774 0.0
C481 C 0.66831 0.28881 0.59748 0.0
O482 O 0.66854 0.2751 0.59517 0.0
O483 O 0.67334 0.29725 0.58762 0.0
O484 O 0.72968 0.20347 0.08545 0.0
Cd485 Cd 0.71648 0.18092 0.08074 0.0
O486 O 0.7101 0.21706 0.0841 0.0
Cd487 Cd 0.69769 0.19929 0.07448 0.0
O488 O 0.69403 0.18719 0.0544 0.0
C489 C 0.68528 0.19224 0.045 0.0
O490 O 0.67768 0.20387 0.04825 0.0
C491 C 0.72363 0.21584 0.08662 0.0
C492 C 0.71371 0.16428 0.1059 0.0
O493 O 0.72427 0.16221 0.09706 0.0
O494 O 0.70445 0.1742 0.10281 0.0
O495 O 0.69829 0.22683 0.91441 0.0
Cd496 Cd 0.67651 0.2124 0.91919 0.0
O497 O 0.71318 0.20879 0.91913 0.0
Cd498 Cd 0.69595 0.19619 0.92946 0.0
O499 O 0.68461 0.19276 0.95003 0.0
C500 C 0.69033 0.18455 0.95954 0.0
O501 O 0.70217 0.17733 0.95615 0.0
C502 C 0.71112 0.22173 0.91477 0.0
C503 C 0.66089 0.20805 0.8936 0.0
O504 O 0.65804 0.21878 0.902 0.0
O505 O 0.67104 0.19931 0.89738 0.0
O506 O 0.77852 0.20584 0.41194 0.0
Cd507 Cd 0.79575 0.18624 0.41665 0.0
O508 O 0.79355 0.22278 0.41951 0.0
Cd509 Cd 0.80813 0.20719 0.42986 0.0
O510 O 0.8144 0.1975 0.45061 0.0
C511 C 0.8071 0.18688 0.45557 0.0
O512 O 0.79683 0.18121 0.44744 0.0
C513 C 0.78152 0.2192 0.41373 0.0
C514 C 0.79892 0.16862 0.39224 0.0
O515 O 0.78962 0.16554 0.40213 0.0
O516 O 0.80677 0.17998 0.39396 0.0
O517 O 0.7312 0.30011 0.41785 0.0
Cd518 Cd 0.71242 0.31842 0.4218 0.0
O519 O 0.7153 0.28269 0.41416 0.0
Cd520 Cd 0.69766 0.2956 0.42336 0.0
O521 O 0.68726 0.30077 0.44406 0.0
C522 C 0.67899 0.29127 0.4497 0.0
O523 O 0.676 0.27949 0.44222 0.0
C524 C 0.72841 0.28705 0.41431 0.0
C525 C 0.7078 0.33437 0.39648 0.0
O526 O 0.71669 0.33882 0.40622 0.0
O527 O 0.701 0.32245 0.39879 0.0
H528 H 0.09843 0.28343 0.75519 0.0
H529 H 0.10013 0.25184 0.78965 0.0
H530 H 0.09982 0.23207 0.77179 0.0
H531 H 0.09878 0.22389 0.7463 0.0
H532 H 0.09967 0.25552 0.71185 0.0
H533 H 0.09931 0.27527 0.72971 0.0
C534 C 0.09877 0.27219 0.75872 0.0
C535 C 0.09917 0.26897 0.7736 0.0
C536 C 0.09905 0.26098 0.74841 0.0
C537 C 0.09982 0.25446 0.77818 0.0
C538 C 0.0996 0.24321 0.768 0.0
C539 C 0.09892 0.23513 0.74278 0.0
C540 C 0.09912 0.23837 0.72789 0.0
C541 C 0.09917 0.24635 0.75309 0.0
C542 C 0.09952 0.25288 0.72332 0.0
C543 C 0.09928 0.26413 0.7335 0.0
H544 H 0.73218 0.62067 0.26617 0.0
H545 H 0.74974 0.58244 0.28671 0.0
H546 H 0.76734 0.57967 0.26707 0.0
H547 H 0.77765 0.58806 0.24406 0.0
H548 H 0.75989 0.62585 0.22296 0.0
H549 H 0.74281 0.62923 0.24307 0.0
C550 C 0.73992 0.61178 0.26632 0.0
C551 C 0.73948 0.60156 0.27763 0.0
C552 C 0.75 0.61025 0.25497 0.0
C553 C 0.74959 0.59016 0.27784 0.0
C554 C 0.75973 0.58864 0.26669 0.0
C555 C 0.76979 0.59679 0.24367 0.0
C556 C 0.76968 0.6064 0.23184 0.0
C557 C 0.75992 0.59852 0.25512 0.0
C558 C 0.76005 0.61822 0.23191 0.0
C559 C 0.75027 0.62013 0.24337 0.0
H560 H 0.38481 0.24429 0.78247 0.0
H561 H 0.42144 0.21718 0.77174 0.0
H562 H 0.42759 0.23315 0.75151 0.0
H563 H 0.42179 0.25427 0.73604 0.0
H564 H 0.3842 0.28036 0.74605 0.0
H565 H 0.37908 0.26526 0.7672 0.0
C566 C 0.39417 0.24189 0.77573 0.0
C567 C 0.40288 0.22976 0.7789 0.0
C568 C 0.39741 0.25092 0.76389 0.0
C569 C 0.41489 0.22675 0.76998 0.0
C570 C 0.4183 0.23579 0.75824 0.0
C571 C 0.41266 0.2568 0.74302 0.0
C572 C 0.40349 0.26851 0.73958 0.0
C573 C 0.40962 0.24789 0.75507 0.0
C574 C 0.39143 0.27141 0.74848 0.0
C575 C 0.38849 0.26278 0.76058 0.0
H576 H 0.72478 0.91191 0.24304 0.0
H577 H 0.74369 0.87498 0.22139 0.0
H578 H 0.76212 0.87309 0.24045 0.0
H579 H 0.7737 0.8829 0.26257 0.0
H580 H 0.75545 0.92076 0.28317 0.0
H581 H 0.73625 0.92175 0.2649 0.0
C582 C 0.73319 0.90374 0.24223 0.0
C583 C 0.7332 0.89395 0.23055 0.0
C584 C 0.74393 0.90297 0.25299 0.0
C585 C 0.74356 0.88276 0.23022 0.0
C586 C 0.75413 0.88171 0.24107 0.0
C587 C 0.76546 0.8913 0.26304 0.0
C588 C 0.76609 0.90191 0.27398 0.0
C589 C 0.75454 0.89188 0.2524 0.0
C590 C 0.75537 0.91273 0.27459 0.0
C591 C 0.74434 0.91322 0.26423 0.0
H592 H 0.76126 0.10593 0.27983 0.0
H593 H 0.7943 0.102 0.24695 0.0
H594 H 0.7756 0.10064 0.22804 0.0
H595 H 0.74977 0.10008 0.22103 0.0
H596 H 0.71683 0.10632 0.25366 0.0
H597 H 0.73551 0.10732 0.27261 0.0
C598 C 0.76429 0.10482 0.2685 0.0
C599 C 0.77902 0.10392 0.26468 0.0
C600 C 0.75352 0.10444 0.25773 0.0
C601 C 0.78297 0.10271 0.25003 0.0
C602 C 0.77231 0.10189 0.23927 0.0
C603 C 0.74675 0.10167 0.23231 0.0
C604 C 0.73204 0.10296 0.23608 0.0
C605 C 0.75755 0.10265 0.24301 0.0
C606 C 0.72814 0.10528 0.25061 0.0
C607 C 0.73879 0.10582 0.26141 0.0
H608 H 0.90062 0.25367 0.7797 0.0
H609 H 0.89937 0.2904 0.75078 0.0
H610 H 0.8999 0.27411 0.72973 0.0
H611 H 0.90108 0.24933 0.71965 0.0
H612 H 0.89978 0.21257 0.74854 0.0
H613 H 0.89983 0.22887 0.76961 0.0
C614 C 0.90043 0.25803 0.76876 0.0
C615 C 0.9001 0.27312 0.76667 0.0
C616 C 0.90028 0.2486 0.75679 0.0
C617 C 0.89963 0.27878 0.75254 0.0
C618 C 0.89997 0.26948 0.74055 0.0
C619 C 0.90077 0.24496 0.73059 0.0
C620 C 0.90056 0.22987 0.73268 0.0
C621 C 0.90036 0.25438 0.74256 0.0
C622 C 0.89994 0.2242 0.74679 0.0
C623 C 0.90001 0.2335 0.75879 0.0
H624 H 0.75458 0.41264 0.22567 0.0
H625 H 0.7756 0.37526 0.24438 0.0
H626 H 0.75505 0.37177 0.26089 0.0
H627 H 0.73147 0.38004 0.27065 0.0
H628 H 0.71096 0.41783 0.25214 0.0
H629 H 0.73115 0.4208 0.2352 0.0
C630 C 0.75486 0.40399 0.23363 0.0
C631 C 0.76678 0.39452 0.23415 0.0
C632 C 0.74312 0.40218 0.24315 0.0
C633 C 0.76658 0.38279 0.2439 0.0
C634 C 0.75486 0.38081 0.25335 0.0
C635 C 0.73145 0.38887 0.26285 0.0
C636 C 0.71998 0.39891 0.26282 0.0
C637 C 0.74312 0.39052 0.25316 0.0
C638 C 0.71994 0.41025 0.25263 0.0
C639 C 0.7314 0.41188 0.24288 0.0
H640 H 0.58655 0.26192 0.76953 0.0
H641 H 0.62531 0.23671 0.76172 0.0
H642 H 0.63367 0.25482 0.7442 0.0
H643 H 0.62972 0.27765 0.73078 0.0
H644 H 0.59103 0.30273 0.73887 0.0
H645 H 0.58277 0.28471 0.75649 0.0
C646 C 0.59687 0.26038 0.76407 0.0
C647 C 0.6053 0.24796 0.76697 0.0
C648 C 0.60153 0.27073 0.75393 0.0
C649 C 0.6186 0.24616 0.75971 0.0
C650 C 0.62339 0.2565 0.74967 0.0
C651 C 0.61948 0.27913 0.73642 0.0
C652 C 0.61077 0.29126 0.73325 0.0
C653 C 0.6149 0.26879 0.74665 0.0
C654 C 0.59761 0.29317 0.7407 0.0
C655 C 0.59299 0.28298 0.75091 0.0
H656 H 0.27071 0.77372 0.10448 0.0
H657 H 0.23783 0.80655 0.10996 0.0
H658 H 0.21884 0.78874 0.10446 0.0
H659 H 0.21175 0.76399 0.0972 0.0
H660 H 0.24459 0.73081 0.0934 0.0
H661 H 0.26345 0.74854 0.09921 0.0
C662 C 0.25938 0.77693 0.10443 0.0
C663 C 0.25561 0.7914 0.10736 0.0
C664 C 0.24855 0.76657 0.10159 0.0
C665 C 0.24092 0.79543 0.10766 0.0
C666 C 0.23009 0.78528 0.10449 0.0
C667 C 0.22303 0.76064 0.09774 0.0
C668 C 0.22679 0.74615 0.09478 0.0
C669 C 0.23379 0.77084 0.10132 0.0
C670 C 0.24142 0.7419 0.09569 0.0
C671 C 0.25222 0.75204 0.09893 0.0
H672 H 0.25922 0.71578 0.38257 0.0
H673 H 0.28461 0.72727 0.42019 0.0
H674 H 0.26797 0.74721 0.42556 0.0
H675 H 0.24656 0.76198 0.41899 0.0
H676 H 0.22205 0.751 0.38061 0.0
H677 H 0.2381 0.73046 0.37598 0.0
C678 C 0.26112 0.72264 0.39196 0.0
C679 C 0.27293 0.71976 0.40118 0.0
C680 C 0.25168 0.73426 0.39479 0.0
C681 C 0.27529 0.72883 0.41324 0.0
C682 C 0.26587 0.74038 0.4162 0.0
C683 C 0.24459 0.75493 0.40979 0.0
C684 C 0.23302 0.75791 0.40027 0.0
C685 C 0.25401 0.7432 0.40706 0.0
C686 C 0.23088 0.74893 0.38811 0.0
C687 C 0.24004 0.73718 0.38544 0.0
H688 H 0.25045 0.7287 0.92566 0.0
H689 H 0.23405 0.73064 0.88177 0.0
H690 H 0.25319 0.74787 0.87529 0.0
H691 H 0.27417 0.76299 0.88233 0.0
H692 H 0.29077 0.76025 0.92604 0.0
H693 H 0.27184 0.74289 0.93238 0.0
C694 C 0.25105 0.73285 0.91465 0.0
C695 C 0.24076 0.72842 0.90424 0.0
C696 C 0.26202 0.74276 0.91101 0.0
C697 C 0.24181 0.73386 0.89001 0.0
C698 C 0.25273 0.74374 0.8863 0.0
C699 C 0.27363 0.75856 0.89323 0.0
C700 C 0.28354 0.76331 0.90385 0.0
C701 C 0.26283 0.74836 0.89674 0.0
C702 C 0.28286 0.75734 0.91787 0.0
C703 C 0.27216 0.74722 0.92145 0.0
H704 H 0.2352 0.73056 0.58455 0.0
H705 H 0.25965 0.73856 0.62376 0.0
H706 H 0.24174 0.75664 0.63135 0.0
H707 H 0.21933 0.77049 0.62657 0.0
H708 H 0.195 0.76221 0.58745 0.0
H709 H 0.2128 0.74402 0.57997 0.0
C710 C 0.23662 0.73619 0.5948 0.0
C711 C 0.24876 0.73318 0.60358 0.0
C712 C 0.22639 0.74664 0.59901 0.0
C713 C 0.25041 0.74065 0.61679 0.0
C714 C 0.24018 0.751 0.62113 0.0
C715 C 0.21797 0.76468 0.61641 0.0
C716 C 0.20613 0.76795 0.60734 0.0
C717 C 0.22818 0.75413 0.61228 0.0
C718 C 0.20436 0.76029 0.59429 0.0
C719 C 0.21442 0.74976 0.59013 0.0
H720 H 0.91411 0.77468 0.25279 0.0
H721 H 0.92303 0.74657 0.28924 0.0
H722 H 0.9221 0.72541 0.27333 0.0
H723 H 0.92132 0.71518 0.24877 0.0
H724 H 0.91357 0.74341 0.21215 0.0
H725 H 0.91134 0.76417 0.22846 0.0
C726 C 0.91562 0.76391 0.25731 0.0
C727 C 0.91877 0.76225 0.27218 0.0
C728 C 0.91541 0.7518 0.24805 0.0
C729 C 0.9207 0.7482 0.27783 0.0
C730 C 0.9202 0.73607 0.26873 0.0
C731 C 0.91893 0.72583 0.24435 0.0
C732 C 0.91776 0.72773 0.22923 0.0
C733 C 0.91797 0.73779 0.25376 0.0
C734 C 0.91464 0.74163 0.22373 0.0
C735 C 0.91338 0.75353 0.23305 0.0
H736 H 0.23973 0.41143 0.77294 0.0
H737 H 0.20737 0.41638 0.73938 0.0
H738 H 0.22612 0.41423 0.72079 0.0
H739 H 0.25194 0.41349 0.71415 0.0
H740 H 0.28429 0.40884 0.74778 0.0
H741 H 0.26528 0.40817 0.76619 0.0
C742 C 0.23673 0.41187 0.76156 0.0
C743 C 0.22217 0.41427 0.7576 0.0
C744 C 0.24759 0.41077 0.75091 0.0
C745 C 0.21849 0.41463 0.74277 0.0
C746 C 0.22922 0.41345 0.73211 0.0
C747 C 0.25484 0.41213 0.72549 0.0
C748 C 0.26956 0.41142 0.72956 0.0
C749 C 0.24385 0.41191 0.73607 0.0
C750 C 0.27308 0.40952 0.74431 0.0
C751 C 0.2622 0.40918 0.75487 0.0
H752 H 0.58933 0.77568 0.24088 0.0
H753 H 0.58187 0.74577 0.20554 0.0
H754 H 0.58413 0.72531 0.22221 0.0
H755 H 0.58572 0.71605 0.24713 0.0
H756 H 0.59225 0.74603 0.28258 0.0
H757 H 0.59302 0.76626 0.26551 0.0
C758 C 0.5884 0.76469 0.23676 0.0
C759 C 0.58527 0.7623 0.22199 0.0
C760 C 0.58944 0.75296 0.24645 0.0
C761 C 0.58416 0.74796 0.21687 0.0
C762 C 0.58542 0.73623 0.2264 0.0
C763 C 0.58753 0.72698 0.25112 0.0
C764 C 0.58876 0.7295 0.26615 0.0
C765 C 0.58768 0.73862 0.24127 0.0
C766 C 0.59115 0.74375 0.27109 0.0
C767 C 0.59156 0.75536 0.26134 0.0
H768 H 0.25902 0.09078 0.7723 0.0
H769 H 0.29222 0.08186 0.74039 0.0
H770 H 0.27437 0.08414 0.72097 0.0
H771 H 0.249 0.08638 0.71322 0.0
H772 H 0.21572 0.09499 0.74512 0.0
H773 H 0.23399 0.09529 0.7643 0.0
C774 C 0.2624 0.08949 0.76109 0.0
C775 C 0.27692 0.08596 0.75785 0.0
C776 C 0.25205 0.09069 0.74995 0.0
C777 C 0.28111 0.08448 0.74324 0.0
C778 C 0.27089 0.08575 0.7321 0.0
C779 C 0.24574 0.0885 0.72434 0.0
C780 C 0.23097 0.09048 0.72772 0.0
C781 C 0.25628 0.0885 0.73536 0.0
C782 C 0.22699 0.09335 0.74219 0.0
C783 C 0.23743 0.09348 0.75319 0.0
H784 H 0.25639 0.91654 0.7191 0.0
H785 H 0.2141 0.91829 0.73929 0.0
H786 H 0.22528 0.91573 0.7632 0.0
H787 H 0.2472 0.91542 0.77846 0.0
H788 H 0.28945 0.91468 0.75813 0.0
H789 H 0.27811 0.91427 0.73421 0.0
C790 C 0.24957 0.91619 0.7287 0.0
C791 C 0.23443 0.91777 0.72738 0.0
C792 C 0.25608 0.91498 0.74243 0.0
C793 C 0.22579 0.9172 0.73997 0.0
C794 C 0.23218 0.91576 0.75366 0.0
C795 C 0.25393 0.91494 0.76881 0.0
C796 C 0.26916 0.91522 0.77011 0.0
C797 C 0.24734 0.91501 0.75504 0.0
C798 C 0.2777 0.9146 0.75747 0.0
C799 C 0.27123 0.91438 0.74376 0.0
H800 H 0.09454 0.74526 0.21226 0.0
H801 H 0.09266 0.70772 0.24027 0.0
H802 H 0.09431 0.72334 0.26159 0.0
H803 H 0.09353 0.74769 0.27228 0.0
H804 H 0.09431 0.7853 0.2443 0.0
H805 H 0.09602 0.7696 0.22302 0.0
C806 C 0.09474 0.74046 0.22301 0.0
C807 C 0.09331 0.72533 0.22463 0.0
C808 C 0.09536 0.74954 0.23526 0.0
C809 C 0.09361 0.71933 0.23867 0.0
C810 C 0.09452 0.72826 0.2509 0.0
C811 C 0.09429 0.75249 0.26155 0.0
C812 C 0.09362 0.76766 0.25992 0.0
C813 C 0.09497 0.7434 0.24932 0.0
C814 C 0.09468 0.77365 0.2459 0.0
C815 C 0.09563 0.76468 0.2337 0.0
H816 H 0.25618 0.584 0.78392 0.0
H817 H 0.21917 0.60197 0.76146 0.0
H818 H 0.23359 0.60437 0.73934 0.0
H819 H 0.25586 0.59878 0.7257 0.0
H820 H 0.29264 0.58033 0.7482 0.0
H821 H 0.27919 0.58088 0.77097 0.0
C822 C 0.25129 0.58862 0.77425 0.0
C823 C 0.23654 0.5926 0.77432 0.0
C824 C 0.25959 0.5898 0.76152 0.0
C825 C 0.23047 0.59874 0.76172 0.0
C826 C 0.2387 0.60006 0.74903 0.0
C827 C 0.26103 0.59508 0.73562 0.0
C828 C 0.27519 0.58933 0.73515 0.0
C829 C 0.25315 0.59523 0.74869 0.0
C830 C 0.28172 0.5847 0.74817 0.0
C831 C 0.27402 0.58497 0.76122 0.0
H832 H 0.40658 0.72783 0.25805 0.0
H833 H 0.42516 0.75724 0.28951 0.0
H834 H 0.4236 0.77709 0.27209 0.0
H835 H 0.41907 0.78559 0.24732 0.0
H836 H 0.40108 0.75614 0.21558 0.0
H837 H 0.40017 0.73689 0.23379 0.0
C838 C 0.41013 0.73862 0.26117 0.0
C839 C 0.41613 0.74097 0.27504 0.0
C840 C 0.40939 0.74998 0.25102 0.0
C841 C 0.42059 0.75506 0.2789 0.0
C842 C 0.41974 0.76644 0.26892 0.0
C843 C 0.41479 0.77502 0.2444 0.0
C844 C 0.4103 0.7723 0.23004 0.0
C845 C 0.41448 0.76394 0.25485 0.0
C846 C 0.40468 0.75854 0.22652 0.0
C847 C 0.4042 0.7475 0.23692 0.0
H848 H 0.7577 0.27136 0.90911 0.0
H849 H 0.78662 0.23494 0.91508 0.0
H850 H 0.76607 0.21827 0.91403 0.0
H851 H 0.73973 0.21425 0.91399 0.0
H852 H 0.71079 0.25071 0.90837 0.0
H853 H 0.73153 0.26707 0.90655 0.0
C854 C 0.75955 0.25976 0.90999 0.0
C855 C 0.77369 0.25445 0.91237 0.0
C856 C 0.74766 0.25022 0.90955 0.0
C857 C 0.77587 0.23937 0.91334 0.0
C858 C 0.7641 0.22981 0.91279 0.0
C859 C 0.73794 0.22575 0.91218 0.0
C860 C 0.7237 0.23124 0.91152 0.0
C861 C 0.74992 0.23515 0.9113 0.0
C862 C 0.72162 0.24616 0.90902 0.0
C863 C 0.73349 0.25556 0.90802 0.0
H864 H 0.72089 0.24778 0.58364 0.0
H865 H 0.74263 0.28902 0.57867 0.0
H866 H 0.76615 0.27707 0.5811 0.0
H867 H 0.78054 0.25466 0.58216 0.0
H868 H 0.75873 0.21337 0.58636 0.0
H869 H 0.73528 0.22564 0.58688 0.0
C870 C 0.73075 0.25421 0.58326 0.0
C871 C 0.72996 0.26927 0.58079 0.0
C872 C 0.74426 0.24724 0.58445 0.0
C873 C 0.74289 0.2774 0.58045 0.0
C874 C 0.75637 0.27057 0.58181 0.0
C875 C 0.77068 0.24834 0.58341 0.0
C876 C 0.77142 0.23309 0.58405 0.0
C877 C 0.75719 0.25545 0.58344 0.0
C878 C 0.75851 0.22511 0.58573 0.0
C879 C 0.74506 0.23212 0.58599 0.0
H880 H 0.75269 0.2776 0.08914 0.0
H881 H 0.79141 0.25138 0.08568 0.0
H882 H 0.77688 0.22937 0.08806 0.0
H883 H 0.75306 0.21755 0.08846 0.0
H884 H 0.71423 0.24371 0.09077 0.0
H885 H 0.72896 0.26572 0.09169 0.0
C886 C 0.758 0.26709 0.08914 0.0
C887 C 0.77311 0.26617 0.08708 0.0
C888 C 0.74954 0.25443 0.0902 0.0
C889 C 0.77978 0.25243 0.08712 0.0
C890 C 0.77148 0.23981 0.08846 0.0
C891 C 0.7478 0.22804 0.08939 0.0
C892 C 0.73254 0.22896 0.08939 0.0
C893 C 0.75632 0.24068 0.08959 0.0
C894 C 0.72594 0.24267 0.09064 0.0
C895 C 0.73436 0.25528 0.09113 0.0
H896 H 0.72627 0.25867 0.40627 0.0
H897 H 0.75757 0.29192 0.41691 0.0
H898 H 0.77704 0.27398 0.4163 0.0
H899 H 0.7848 0.24854 0.4152 0.0
H900 H 0.75345 0.21523 0.40489 0.0
H901 H 0.73445 0.23356 0.40277 0.0
C902 C 0.73737 0.26205 0.40828 0.0
C903 C 0.74039 0.2766 0.41182 0.0
C904 C 0.74852 0.25165 0.40807 0.0
C905 C 0.75488 0.28078 0.41425 0.0
C906 C 0.76604 0.27052 0.41395 0.0
C907 C 0.77385 0.24528 0.41232 0.0
C908 C 0.77055 0.23049 0.4104 0.0
C909 C 0.76293 0.25586 0.41126 0.0
C910 C 0.75632 0.22651 0.40651 0.0
C911 C 0.74541 0.23699 0.40535 0.0
H912 H 0.02397 0.25286 0.72468 0.0
H913 H 0.02559 0.21802 0.75599 0.0
H914 H 0.99911 0.21803 0.75757 0.0
H915 H 0.97556 0.22624 0.74826 0.0
H916 H 0.97396 0.26034 0.71614 0.0
H917 H 0.00039 0.26239 0.71681 0.0
C918 C 0.01856 0.24536 0.73196 0.0
C919 C 0.02675 0.2353 0.74004 0.0
C920 C 0.00333 0.24518 0.73256 0.0
C921 C 0.01954 0.22576 0.74952 0.0
C922 C 0.0044 0.22572 0.7504 0.0
C923 C 0.98096 0.23423 0.7415 0.0
C924 C 0.97279 0.24297 0.732 0.0
C925 C 0.99618 0.23512 0.74168 0.0
C926 C 0.97999 0.25335 0.72343 0.0
C927 C 0.99511 0.2545 0.72376 0.0
H928 H 0.7727 0.52682 0.24911 0.0
H929 H 0.73991 0.5234 0.2158 0.0
H930 H 0.73958 0.49705 0.2186 0.0
H931 H 0.75065 0.47488 0.22847 0.0
H932 H 0.78338 0.47832 0.26185 0.0
H933 H 0.78151 0.50473 0.26118 0.0
C934 C 0.76538 0.52033 0.24255 0.0
C935 C 0.75659 0.52706 0.23202 0.0
C936 C 0.76533 0.50516 0.24413 0.0
C937 C 0.74693 0.51851 0.22386 0.0
C938 C 0.74678 0.50342 0.22541 0.0
C939 C 0.75729 0.4814 0.23569 0.0
C940 C 0.76739 0.47463 0.24494 0.0
C941 C 0.75626 0.49661 0.23517 0.0
C942 C 0.77564 0.48323 0.25449 0.0
C943 C 0.77464 0.49836 0.25407 0.0
H944 H 0.53446 0.30239 0.74871 0.0
H945 H 0.53786 0.28238 0.70645 0.0
H946 H 0.51232 0.27534 0.70758 0.0
H947 H 0.48883 0.27551 0.72022 0.0
H948 H 0.48534 0.29602 0.76224 0.0
H949 H 0.51111 0.30213 0.76155 0.0
C950 C 0.52965 0.29645 0.73976 0.0
C951 C 0.53809 0.29297 0.72749 0.0
C952 C 0.51492 0.29251 0.74043 0.0
C953 C 0.53163 0.28526 0.716 0.0
C954 C 0.51701 0.28121 0.71664 0.0
C955 C 0.49371 0.28122 0.72928 0.0
C956 C 0.48512 0.2853 0.74126 0.0
C957 C 0.50853 0.28486 0.72875 0.0
C958 C 0.49166 0.29275 0.75287 0.0
C959 C 0.50641 0.29628 0.75249 0.0
H960 H 0.75745 0.97868 0.21996 0.0
H961 H 0.72232 0.97199 0.25027 0.0
H962 H 0.72112 0.99807 0.25487 0.0
H963 H 0.72817 0.02287 0.24824 0.0
H964 H 0.76251 0.02964 0.21706 0.0
H965 H 0.76601 0.00343 0.21501 0.0
C966 C 0.74964 0.98289 0.2277 0.0
C967 C 0.73982 0.97341 0.23456 0.0
C968 C 0.74876 0.99794 0.23003 0.0
C969 C 0.72986 0.97907 0.24466 0.0
C970 C 0.72914 0.99398 0.24728 0.0
C971 C 0.73654 0.01863 0.24111 0.0
C972 C 0.7449 0.0282 0.23263 0.0
C973 C 0.73823 0.00355 0.23969 0.0
C974 C 0.75579 0.02251 0.22357 0.0
C975 C 0.75778 0.00752 0.22236 0.0
H976 H 0.97539 0.27841 0.75258 0.0
H977 H 0.97397 0.24436 0.78475 0.0
H978 H 0.00045 0.24292 0.78458 0.0
H979 H 0.02396 0.25295 0.77708 0.0
H980 H 0.02535 0.28772 0.74568 0.0
H981 H 0.99892 0.28713 0.74367 0.0
C982 C 0.98084 0.27057 0.75946 0.0
C983 C 0.9727 0.26166 0.76882 0.0
C984 C 0.99608 0.27003 0.75956 0.0
C985 C 0.97997 0.25147 0.77756 0.0
C986 C 0.99512 0.25067 0.77751 0.0
C987 C 0.01851 0.26031 0.76968 0.0
C988 C 0.02662 0.27051 0.7617 0.0
C989 C 0.00329 0.26016 0.76883 0.0
C990 C 0.01937 0.27987 0.75208 0.0
C991 C 0.00424 0.27958 0.75095 0.0
H992 H 0.74098 0.47237 0.27654 0.0
H993 H 0.7091 0.48033 0.24313 0.0
H994 H 0.71382 0.50637 0.24461 0.0
H995 H 0.72476 0.52698 0.25754 0.0
H996 H 0.75683 0.51901 0.29077 0.0
H997 H 0.75441 0.49289 0.28705 0.0
C998 C 0.73517 0.4798 0.26948 0.0
C999 C 0.72445 0.47446 0.26 0.0
C1000 C 0.73786 0.49476 0.27045 0.0
C1001 C 0.71728 0.48416 0.25065 0.0
C1002 C 0.71991 0.49907 0.25155 0.0
C1003 C 0.73132 0.51953 0.26387 0.0
C1004 C 0.74069 0.52492 0.27467 0.0
C1005 C 0.72982 0.50452 0.26175 0.0
C1006 C 0.7494 0.51515 0.28251 0.0
C1007 C 0.74797 0.5002 0.28045 0.0
H1008 H 0.4801 0.20459 0.7825 0.0
H1009 H 0.48092 0.21398 0.82843 0.0
H1010 H 0.50743 0.21408 0.82808 0.0
H1011 H 0.53032 0.21295 0.81445 0.0
H1012 H 0.52939 0.20374 0.76847 0.0
H1013 H 0.50299 0.20196 0.7692 0.0
C1014 C 0.48606 0.2066 0.79245 0.0
C1015 C 0.47853 0.20941 0.80543 0.0
C1016 C 0.5013 0.20667 0.79218 0.0
C1017 C 0.48644 0.21185 0.81826 0.0
C1018 C 0.50161 0.21192 0.81808 0.0
C1019 C 0.52436 0.21039 0.80462 0.0
C1020 C 0.53183 0.2086 0.79141 0.0
C1021 C 0.50914 0.20954 0.80506 0.0
C1022 C 0.52393 0.20525 0.77878 0.0
C1023 C 0.50881 0.20427 0.77917 0.0
H1024 H 0.77762 0.02877 0.25593 0.0
H1025 H 0.74345 0.03619 0.28713 0.0
H1026 H 0.73888 0.0101 0.28854 0.0
H1027 H 0.74657 0.98514 0.28315 0.0
H1028 H 0.78164 0.97779 0.25293 0.0
H1029 H 0.7838 0.00388 0.24884 0.0
C1030 C 0.76904 0.02471 0.26291 0.0
C1031 C 0.76104 0.0344 0.27159 0.0
C1032 C 0.76678 0.00968 0.264 0.0
C1033 C 0.74989 0.02895 0.28047 0.0
C1034 C 0.74729 0.01402 0.28131 0.0
C1035 C 0.75456 0.98922 0.27552 0.0
C1036 C 0.76409 0.97954 0.26855 0.0
C1037 C 0.75599 0.00427 0.27349 0.0
C1038 C 0.77432 0.98502 0.25862 0.0
C1039 C 0.77558 0.99995 0.25629 0.0
H1040 H 0.18058 0.71137 0.02339 0.0
H1041 H 0.2152 0.68276 0.03684 0.0
H1042 H 0.21908 0.67537 0.01173 0.0
H1043 H 0.21455 0.67908 0.9858 0.0
H1044 H 0.18048 0.70824 0.97215 0.0
H1045 H 0.17437 0.71316 0.99747 0.0
C1046 C 0.18883 0.70335 0.02086 0.0
C1047 C 0.19772 0.6978 0.03198 0.0
C1048 C 0.19118 0.69931 0.00633 0.0
C1049 C 0.20829 0.68734 0.0285 0.0
C1050 C 0.21055 0.68311 0.01412 0.0
C1051 C 0.20564 0.68635 0.98833 0.0
C1052 C 0.19814 0.69343 0.97707 0.0
C1053 C 0.20235 0.68935 0.00291 0.0
C1054 C 0.18653 0.70271 0.98059 0.0
C1055 C 0.18305 0.70559 0.99508 0.0
H1056 H 0.22424 0.77915 0.48518 0.0
H1057 H 0.20755 0.73538 0.4834 0.0
H1058 H 0.20123 0.7366 0.50911 0.0
H1059 H 0.19963 0.75034 0.53188 0.0
H1060 H 0.21584 0.79429 0.53357 0.0
H1061 H 0.22315 0.79271 0.50813 0.0
C1062 C 0.21932 0.76983 0.49043 0.0
C1063 C 0.21636 0.7572 0.48233 0.0
C1064 C 0.21555 0.77065 0.5052 0.0
C1065 C 0.20993 0.74526 0.48933 0.0
C1066 C 0.20629 0.74594 0.50405 0.0
C1067 C 0.2048 0.75957 0.52672 0.0
C1068 C 0.20712 0.77243 0.53465 0.0
C1069 C 0.20891 0.75863 0.51205 0.0
C1070 C 0.21386 0.78427 0.52774 0.0
C1071 C 0.21806 0.78338 0.51318 0.0
H1072 H 0.29366 0.71714 0.47966 0.0
H1073 H 0.28639 0.67084 0.48045 0.0
H1074 H 0.28538 0.6713 0.50694 0.0
H1075 H 0.28523 0.68505 0.52979 0.0
H1076 H 0.29234 0.73138 0.52889 0.0
H1077 H 0.29489 0.73064 0.50255 0.0
C1078 C 0.29191 0.70713 0.48562 0.0
C1079 C 0.28997 0.694 0.47807 0.0
C1080 C 0.29131 0.70747 0.50084 0.0
C1081 C 0.28785 0.68112 0.48598 0.0
C1082 C 0.28726 0.68136 0.50113 0.0
C1083 C 0.28748 0.69497 0.52386 0.0
C1084 C 0.28848 0.70826 0.53131 0.0
C1085 C 0.2888 0.6945 0.50867 0.0
C1086 C 0.29145 0.721 0.52344 0.0
C1087 C 0.29288 0.72061 0.50835 0.0
H1088 H 0.29604 0.76435 0.98857 0.0
H1089 H 0.27213 0.80237 0.97512 0.0
H1090 H 0.26654 0.80798 0.00039 0.0
H1091 H 0.26904 0.80258 0.02631 0.0
H1092 H 0.29317 0.76477 0.03991 0.0
H1093 H 0.298 0.75859 0.01457 0.0
C1094 C 0.28955 0.77383 0.99115 0.0
C1095 C 0.28456 0.78294 0.97993 0.0
C1096 C 0.28643 0.77706 0.00574 0.0
C1097 C 0.27616 0.79518 0.9835 0.0
C1098 C 0.27295 0.79841 0.99797 0.0
C1099 C 0.27531 0.79295 0.02376 0.0
C1100 C 0.28077 0.78419 0.03502 0.0
C1101 C 0.27813 0.7895 0.00917 0.0
C1102 C 0.28886 0.77173 0.03147 0.0
C1103 C 0.29164 0.76819 0.01697 0.0
H1104 H 0.98484 0.8034 0.31629 0.0
H1105 H 0.97394 0.83252 0.28119 0.0
H1106 H 0.99962 0.83758 0.27721 0.0
H1107 H 0.02514 0.83157 0.28178 0.0
H1108 H 0.03611 0.80187 0.31636 0.0
H1109 H 0.01045 0.79939 0.32254 0.0
C1110 C 0.98805 0.81104 0.30792 0.0
C1111 C 0.97746 0.8174 0.29892 0.0
C1112 C 0.00288 0.81371 0.3055 0.0
C1113 C 0.98184 0.82734 0.28819 0.0
C1114 C 0.99655 0.83023 0.28587 0.0
C1115 C 0.02196 0.82471 0.29081 0.0
C1116 C 0.03255 0.81676 0.29845 0.0
C1117 C 0.00717 0.82313 0.29416 0.0
C1118 C 0.0282 0.80804 0.31021 0.0
C1119 C 0.01351 0.80656 0.31373 0.0
H1120 H 0.19671 0.52537 0.81664 0.0
H1121 H 0.23388 0.52157 0.84497 0.0
H1122 H 0.23145 0.49521 0.84486 0.0
H1123 H 0.22055 0.47322 0.83453 0.0
H1124 H 0.18381 0.47696 0.80565 0.0
H1125 H 0.18421 0.50332 0.80834 0.0
C1126 C 0.20415 0.5188 0.82298 0.0
C1127 C 0.21559 0.52546 0.83063 0.0
C1128 C 0.20285 0.5036 0.82268 0.0
C1129 C 0.22505 0.51676 0.83887 0.0
C1130 C 0.2237 0.50165 0.83878 0.0
C1131 C 0.21249 0.47977 0.82898 0.0
C1132 C 0.20231 0.4731 0.81973 0.0
C1133 C 0.21292 0.49495 0.83038 0.0
C1134 C 0.19186 0.48178 0.81275 0.0
C1135 C 0.1921 0.49688 0.81424 0.0
H1136 H 0.52853 0.68938 0.31322 0.0
H1137 H 0.53549 0.72097 0.34716 0.0
H1138 H 0.50936 0.72283 0.351 0.0
H1139 H 0.48457 0.71778 0.3427 0.0
H1140 H 0.47757 0.68674 0.30826 0.0
H1141 H 0.50364 0.68226 0.30681 0.0
C1142 C 0.52436 0.6965 0.32162 0.0
C1143 C 0.53398 0.70519 0.32972 0.0
C1144 C 0.50928 0.69773 0.32361 0.0
C1145 C 0.52836 0.71426 0.34065 0.0
C1146 C 0.51339 0.71537 0.34284 0.0
C1147 C 0.4887 0.70986 0.33502 0.0
C1148 C 0.47911 0.70279 0.32545 0.0
C1149 C 0.50374 0.70752 0.33405 0.0
C1150 C 0.48469 0.69245 0.31568 0.0
C1151 C 0.49962 0.68991 0.3148 0.0
H1152 H 0.3136 0.97811 0.81368 0.0
H1153 H 0.2731 0.9741 0.83698 0.0
H1154 H 0.27141 0.00045 0.83887 0.0
H1155 H 0.27988 0.02454 0.83139 0.0
H1156 H 0.31995 0.0286 0.8074 0.0
H1157 H 0.32342 0.00236 0.80849 0.0
C1158 C 0.30452 0.98298 0.81938 0.0
C1159 C 0.29339 0.97411 0.82498 0.0
C1160 C 0.30346 0.99817 0.82021 0.0
C1161 C 0.28176 0.98063 0.83243 0.0
C1162 C 0.28075 0.99572 0.83349 0.0
C1163 C 0.28949 0.01973 0.82658 0.0
C1164 C 0.29952 0.02853 0.81914 0.0
C1165 C 0.29129 0.0046 0.82702 0.0
C1166 C 0.31198 0.0221 0.8131 0.0
C1167 C 0.31396 0.00706 0.81367 0.0
H1168 H 0.97891 0.68213 0.1852 0.0
H1169 H 0.97884 0.71982 0.15732 0.0
H1170 H 0.00522 0.71876 0.15555 0.0
H1171 H 0.02841 0.70885 0.16407 0.0
H1172 H 0.02859 0.67149 0.19237 0.0
H1173 H 0.00211 0.67062 0.19164 0.0
C1174 C 0.98463 0.68999 0.17856 0.0
C1175 C 0.97688 0.70116 0.17158 0.0
C1176 C 0.99987 0.68946 0.17774 0.0
C1177 C 0.9845 0.71118 0.16292 0.0
C1178 C 0.99962 0.71061 0.16192 0.0
C1179 C 0.02268 0.70038 0.16992 0.0
C1180 C 0.0305 0.69039 0.17843 0.0
C1181 C 0.00744 0.70006 0.16963 0.0
C1182 C 0.02288 0.6794 0.18581 0.0
C1183 C 0.00771 0.67892 0.18545 0.0
H1184 H 0.32892 0.51673 0.69652 0.0
H1185 H 0.29307 0.53243 0.6707 0.0
H1186 H 0.28709 0.50761 0.66364 0.0
H1187 H 0.2902 0.4814 0.6672 0.0
H1188 H 0.32565 0.46568 0.69355 0.0
H1189 H 0.33371 0.49055 0.69781 0.0
C1190 C 0.31993 0.51476 0.68917 0.0
C1191 C 0.31132 0.52643 0.68435 0.0
C1192 C 0.31639 0.50043 0.68533 0.0
C1193 C 0.29981 0.52366 0.6747 0.0
C1194 C 0.29635 0.50945 0.67068 0.0
C1195 C 0.29982 0.48338 0.67369 0.0
C1196 C 0.30716 0.47168 0.68023 0.0
C1197 C 0.30427 0.49773 0.67631 0.0
C1198 C 0.31971 0.47447 0.68848 0.0
C1199 C 0.3243 0.48871 0.69097 0.0
H1200 H 0.52254 0.8133 0.18525 0.0
H1201 H 0.51743 0.77805 0.15476 0.0
H1202 H 0.49114 0.78117 0.15532 0.0
H1203 H 0.46957 0.79195 0.16661 0.0
H1204 H 0.47461 0.82679 0.19756 0.0
H1205 H 0.50092 0.8259 0.1945 0.0
C1206 C 0.51571 0.80644 0.17855 0.0
C1207 C 0.52197 0.79531 0.17015 0.0
C1208 C 0.50055 0.80814 0.17909 0.0
C1209 C 0.51292 0.78662 0.16144 0.0
C1210 C 0.49786 0.78836 0.16178 0.0
C1211 C 0.47639 0.7995 0.17253 0.0
C1212 C 0.47011 0.80927 0.18246 0.0
C1213 C 0.49154 0.79878 0.1709 0.0
C1214 C 0.47913 0.81908 0.18992 0.0
C1215 C 0.49421 0.81854 0.18822 0.0
H1216 H 0.20184 0.02799 0.67131 0.0
H1217 H 0.16563 0.03317 0.70064 0.0
H1218 H 0.16224 0.00691 0.70132 0.0
H1219 H 0.17142 0.9825 0.69602 0.0
H1220 H 0.20819 0.97729 0.66739 0.0
H1221 H 0.20935 0.00352 0.66387 0.0
C1222 C 0.19305 0.02341 0.67766 0.0
C1223 C 0.18415 0.03255 0.68608 0.0
C1224 C 0.19134 0.00827 0.67824 0.0
C1225 C 0.17274 0.0264 0.69416 0.0
C1226 C 0.17082 0.01137 0.6946 0.0
C1227 C 0.17956 0.98706 0.68882 0.0
C1228 C 0.18984 0.97793 0.68216 0.0
C1229 C 0.18035 0.00219 0.68706 0.0
C1230 C 0.20021 0.98405 0.67277 0.0
C1231 C 0.20092 0.99907 0.67078 0.0
H1232 H 0.81984 0.30366 0.01995 0.0
H1233 H 0.78197 0.33082 0.02507 0.0
H1234 H 0.77993 0.33319 0.99878 0.0
H1235 H 0.78715 0.32524 0.97443 0.0
H1236 H 0.82454 0.29744 0.96925 0.0
H1237 H 0.8286 0.29782 0.99544 0.0
C1238 C 0.81127 0.31029 0.01534 0.0
C1239 C 0.80095 0.31687 0.0245 0.0
C1240 C 0.80999 0.3114 1.00018 0.0
C1241 C 0.78999 0.32551 0.01831 0.0
C1242 C 0.78878 0.32685 0.00325 0.0
C1243 C 0.79632 0.31943 0.97898 0.0
C1244 C 0.80539 0.31116 0.96988 0.0
C1245 C 0.79845 0.31948 0.99408 0.0
C1246 C 0.8173 0.30381 0.97599 0.0
C1247 C 0.81962 0.30398 0.99099 0.0
H1248 H 0.82472 0.19876 0.47619 0.0
H1249 H 0.79219 0.16559 0.46982 0.0
H1250 H 0.79122 0.16133 0.49594 0.0
H1251 H 0.79741 0.16902 0.52065 0.0
H1252 H 0.82935 0.20272 0.52711 0.0
H1253 H 0.83287 0.20459 0.50091 0.0
C1254 C 0.81758 0.19043 0.48048 0.0
C1255 C 0.80838 0.18267 0.47105 0.0
C1256 C 0.81687 0.1882 0.49556 0.0
C1257 C 0.79929 0.17184 0.47681 0.0
C1258 C 0.79869 0.16941 0.49177 0.0
C1259 C 0.80531 0.17663 0.51636 0.0
C1260 C 0.81293 0.18587 0.52585 0.0
C1261 C 0.80709 0.17784 0.50127 0.0
C1262 C 0.82323 0.19556 0.52007 0.0
C1263 C 0.82522 0.19668 0.50507 0.0
H1264 H 0.66654 0.28039 0.51585 0.0
H1265 H 0.68975 0.32096 0.51947 0.0
H1266 H 0.6898 0.32345 0.49309 0.0
H1267 H 0.68589 0.31264 0.46901 0.0
H1268 H 0.6632 0.27177 0.46548 0.0
H1269 H 0.66017 0.271 0.49177 0.0
C1270 C 0.67142 0.2899 0.5109 0.0
C1271 C 0.67833 0.30034 0.51965 0.0
C1272 C 0.67162 0.29116 0.4957 0.0
C1273 C 0.68445 0.31267 0.51302 0.0
C1274 C 0.68454 0.31409 0.49791 0.0
C1275 C 0.68008 0.30368 0.47396 0.0
C1276 C 0.675 0.29217 0.46527 0.0
C1277 C 0.67856 0.30317 0.48914 0.0
C1278 C 0.66737 0.28071 0.47188 0.0
C1279 C 0.66565 0.28023 0.48694 0.0
H1280 H 0.66906 0.20153 0.02211 0.0
H1281 H 0.70221 0.17053 0.03385 0.0
H1282 H 0.70552 0.1642 0.00834 0.0
H1283 H 0.70104 0.16952 0.98261 0.0
H1284 H 0.66831 0.20096 0.97086 0.0
H1285 H 0.6627 0.20489 0.99645 0.0
C1286 C 0.67686 0.19323 0.01913 0.0
C1287 C 0.68552 0.18669 0.02989 0.0
C1288 C 0.67888 0.18979 0.00441 0.0
C1289 C 0.69547 0.17584 0.02581 0.0
C1290 C 0.69742 0.17224 0.0112 0.0
C1291 C 0.69253 0.17708 0.98562 0.0
C1292 C 0.68528 0.18509 0.97481 0.0
C1293 C 0.6895 0.17947 0.00038 0.0
C1294 C 0.67416 0.19472 0.97894 0.0
C1295 C 0.67097 0.19703 0.99359 0.0
H1296 H 0.12071 0.15967 0.70632 0.0
H1297 H 0.15033 0.18121 0.67705 0.0
H1298 H 0.16659 0.16031 0.67787 0.0
H1299 H 0.17226 0.13578 0.68658 0.0
H1300 H 0.14273 0.11428 0.71597 0.0
H1301 H 0.12661 0.13531 0.7154 0.0
C1302 C 0.13074 0.15982 0.70015 0.0
C1303 C 0.13426 0.17199 0.69161 0.0
C1304 C 0.14006 0.14775 0.70065 0.0
C1305 C 0.14733 0.172 0.68371 0.0
C1306 C 0.15664 0.16004 0.68415 0.0
C1307 C 0.1623 0.13568 0.69287 0.0
C1308 C 0.1587 0.12344 0.70126 0.0
C1309 C 0.15308 0.14783 0.69253 0.0
C1310 C 0.14577 0.12354 0.7094 0.0
C1311 C 0.13653 0.13557 0.70908 0.0
H1312 H 0.87954 0.67006 0.18992 0.0
H1313 H 0.89729 0.6396 0.2208 0.0
H1314 H 0.87511 0.62512 0.21948 0.0
H1315 H 0.85062 0.62119 0.20971 0.0
H1316 H 0.83266 0.65197 0.17926 0.0
H1317 H 0.85498 0.66624 0.18029 0.0
C1318 C 0.87859 0.66023 0.19633 0.0
C1319 C 0.89008 0.65591 0.20542 0.0
C1320 C 0.86575 0.65202 0.19563 0.0
C1321 C 0.88861 0.64319 0.21372 0.0
C1322 C 0.87593 0.63489 0.21297 0.0
C1323 C 0.85158 0.63101 0.20328 0.0
C1324 C 0.83998 0.63548 0.19441 0.0
C1325 C 0.86442 0.63922 0.20399 0.0
C1326 C 0.8414 0.64827 0.1862 0.0
C1327 C 0.85418 0.65644 0.18677 0.0
H1328 H 0.33129 0.3696 0.69107 0.0
H1329 H 0.35958 0.39218 0.72086 0.0
H1330 H 0.37626 0.37159 0.72087 0.0
H1331 H 0.38279 0.34714 0.71252 0.0
H1332 H 0.35427 0.32435 0.68311 0.0
H1333 H 0.33773 0.34506 0.68287 0.0
C1334 C 0.34112 0.37003 0.69755 0.0
C1335 C 0.34418 0.38243 0.70593 0.0
C1336 C 0.35063 0.35811 0.69759 0.0
C1337 C 0.35694 0.38278 0.71432 0.0
C1338 C 0.3665 0.371 0.71432 0.0
C1339 C 0.37297 0.3467 0.70603 0.0
C1340 C 0.3698 0.33421 0.69783 0.0
C1341 C 0.36345 0.35861 0.70601 0.0
C1342 C 0.35698 0.33382 0.68954 0.0
C1343 C 0.34751 0.34566 0.68938 0.0
H1344 H 0.62693 0.82375 0.18588 0.0
H1345 H 0.60655 0.85206 0.21719 0.0
H1346 H 0.62795 0.86772 0.21717 0.0
H1347 H 0.65242 0.87341 0.20825 0.0
H1348 H 0.67298 0.84482 0.17729 0.0
H1349 H 0.65154 0.82924 0.17724 0.0
C1350 C 0.62715 0.83336 0.19268 0.0
C1351 C 0.61513 0.83674 0.20148 0.0
C1352 C 0.63953 0.84226 0.19271 0.0
C1353 C 0.61564 0.84919 0.2103 0.0
C1354 C 0.62788 0.85816 0.2103 0.0
C1355 C 0.65223 0.86377 0.20149 0.0
C1356 C 0.66429 0.86032 0.19277 0.0
C1357 C 0.63988 0.8548 0.20155 0.0
C1358 C 0.66386 0.84774 0.18413 0.0
C1359 C 0.65159 0.83882 0.18406 0.0
H1360 H 0.13994 0.38744 0.78088 0.0
H1361 H 0.17511 0.37854 0.81057 0.0
H1362 H 0.16395 0.35541 0.81709 0.0
H1363 H 0.14422 0.33767 0.81437 0.0
H1364 H 0.10877 0.34682 0.7851 0.0
H1365 H 0.12005 0.36986 0.7784 0.0
C1366 C 0.14517 0.38045 0.78878 0.0
C1367 C 0.15836 0.38473 0.79521 0.0
C1368 C 0.13866 0.36718 0.79255 0.0
C1369 C 0.16495 0.37554 0.80547 0.0
C1370 C 0.15858 0.36229 0.80919 0.0
C1371 C 0.13898 0.34468 0.8065 0.0
C1372 C 0.12569 0.3405 0.80022 0.0
C1373 C 0.14545 0.35799 0.80279 0.0
C1374 C 0.119 0.34977 0.79011 0.0
C1375 C 0.12544 0.36295 0.78626 0.0
H1376 H 0.65856 0.62462 0.29277 0.0
H1377 H 0.67638 0.65841 0.31994 0.0
H1378 H 0.65418 0.6726 0.31712 0.0
H1379 H 0.62956 0.67529 0.30724 0.0
H1380 H 0.61194 0.64178 0.27961 0.0
H1381 H 0.6342 0.62762 0.28233 0.0
C1382 C 0.65761 0.6351 0.29805 0.0
C1383 C 0.66911 0.64041 0.30659 0.0
C1384 C 0.64482 0.64325 0.29634 0.0
C1385 C 0.66771 0.65406 0.31329 0.0
C1386 C 0.655 0.66218 0.31171 0.0
C1387 C 0.63058 0.66488 0.30182 0.0
C1388 C 0.61907 0.65957 0.29329 0.0
C1389 C 0.64346 0.65685 0.30332 0.0
C1390 C 0.62062 0.64612 0.28625 0.0
C1391 C 0.63335 0.63801 0.2878 0.0
H1392 H 0.34471 0.16534 0.81535 0.0
H1393 H 0.38558 0.15531 0.79474 0.0
H1394 H 0.37655 0.13123 0.78821 0.0
H1395 H 0.35698 0.11308 0.78822 0.0
H1396 H 0.3165 0.12278 0.80976 0.0
H1397 H 0.32547 0.1469 0.81612 0.0
C1398 C 0.35163 0.1579 0.8094 0.0
C1399 C 0.36575 0.16214 0.80546 0.0
C1400 C 0.34645 0.14399 0.80589 0.0
C1401 C 0.37465 0.1523 0.7979 0.0
C1402 C 0.3695 0.13854 0.79416 0.0
C1403 C 0.35013 0.12047 0.79432 0.0
C1404 C 0.33608 0.11616 0.79846 0.0
C1405 C 0.35541 0.13427 0.79808 0.0
C1406 C 0.32737 0.12581 0.80646 0.0
C1407 C 0.33248 0.13963 0.81007 0.0
H1408 H 0.83587 0.85072 0.31397 0.0
H1409 H 0.84781 0.88222 0.28138 0.0
H1410 H 0.87027 0.86896 0.27658 0.0
H1411 H 0.88674 0.84868 0.28193 0.0
H1412 H 0.87514 0.81763 0.31507 0.0
H1413 H 0.85235 0.83047 0.31935 0.0
C1414 C 0.84335 0.85465 0.30576 0.0
C1415 C 0.84014 0.86743 0.29803 0.0
C1416 C 0.85634 0.84708 0.30318 0.0
C1417 C 0.85001 0.87242 0.28751 0.0
C1418 C 0.86287 0.86485 0.28475 0.0
C1419 C 0.87921 0.8447 0.29006 0.0
C1420 C 0.88265 0.83221 0.29816 0.0
C1421 C 0.86618 0.85221 0.29257 0.0
C1422 C 0.87279 0.82724 0.30871 0.0
C1423 C 0.85974 0.83456 0.31115 0.0
H1424 H 0.71456 0.12043 0.15861 0.0
H1425 H 0.68119 0.14952 0.17402 0.0
H1426 H 0.68372 0.16425 0.15212 0.0
H1427 H 0.69523 0.16876 0.12849 0.0
H1428 H 0.729 0.14 0.11335 0.0
H1429 H 0.72647 0.12527 0.13525 0.0
C1430 C 0.70784 0.13 0.15719 0.0
C1431 C 0.69767 0.13383 0.16792 0.0
C1432 C 0.7094 0.13847 0.1446 0.0
C1433 C 0.68912 0.14632 0.16594 0.0
C1434 C 0.69053 0.15474 0.1534 0.0
C1435 C 0.70203 0.15926 0.12997 0.0
C1436 C 0.71224 0.15547 0.11926 0.0
C1437 C 0.70061 0.1509 0.14265 0.0
C1438 C 0.72105 0.14318 0.12141 0.0
C1439 C 0.7196 0.13473 0.13393 0.0
H1440 H 0.857 0.22744 0.61433 0.0
H1441 H 0.82725 0.1916 0.61949 0.0
H1442 H 0.83892 0.18501 0.64237 0.0
H1443 H 0.85773 0.18925 0.66079 0.0
H1444 H 0.88807 0.22452 0.65517 0.0
H1445 H 0.87599 0.23152 0.63262 0.0
C1446 C 0.85305 0.21821 0.62048 0.0
C1447 C 0.84126 0.21004 0.61521 0.0
C1448 C 0.85991 0.21438 0.63355 0.0
C1449 C 0.83633 0.19805 0.62327 0.0
C1450 C 0.84298 0.19429 0.63637 0.0
C1451 C 0.86166 0.19851 0.65467 0.0
C1452 C 0.87376 0.20637 0.65968 0.0
C1453 C 0.85479 0.20235 0.6416 0.0
C1454 C 0.87879 0.21826 0.65154 0.0
C1455 C 0.87188 0.22228 0.63865 0.0
H1456 H 0.78797 0.37692 0.15489 0.0
H1457 H 0.82072 0.34837 0.17247 0.0
H1458 H 0.81945 0.33327 0.15071 0.0
H1459 H 0.80899 0.32811 0.12673 0.0
H1460 H 0.77575 0.35627 0.10945 0.0
H1461 H 0.77729 0.37158 0.13105 0.0
C1462 C 0.79486 0.36741 0.15396 0.0
C1463 C 0.80445 0.36381 0.16528 0.0
C1464 C 0.79398 0.3587 0.14147 0.0
C1465 C 0.81322 0.35139 0.16393 0.0
C1466 C 0.81252 0.34275 0.15148 0.0
C1467 C 0.8021 0.33761 0.12767 0.0
C1468 C 0.7923 0.34105 0.11647 0.0
C1469 C 0.80294 0.3463 0.14018 0.0
C1470 C 0.78338 0.35336 0.11792 0.0
C1471 C 0.78426 0.36213 0.13026 0.0
H1472 H 0.64306 0.32235 0.65168 0.0
H1473 H 0.66071 0.28502 0.67373 0.0
H1474 H 0.66803 0.27449 0.65046 0.0
H1475 H 0.66994 0.2762 0.6239 0.0
H1476 H 0.65468 0.31467 0.60203 0.0
H1477 H 0.64587 0.32451 0.62513 0.0
C1478 C 0.64843 0.31187 0.65133 0.0
C1479 C 0.65126 0.30438 0.66432 0.0
C1480 C 0.65305 0.30614 0.63797 0.0
C1481 C 0.65845 0.29095 0.66382 0.0
C1482 C 0.66261 0.28493 0.65054 0.0
C1483 C 0.6646 0.2867 0.62421 0.0
C1484 C 0.66282 0.29467 0.61133 0.0
C1485 C 0.66004 0.29247 0.63756 0.0
C1486 C 0.65614 0.30836 0.61185 0.0
C1487 C 0.6511 0.31397 0.62503 0.0
H1488 H 0.69309 0.3258 0.37235 0.0
H1489 H 0.71751 0.36166 0.39012 0.0
H1490 H 0.71377 0.37545 0.36778 0.0
H1491 H 0.70347 0.3774 0.34326 0.0
H1492 H 0.6795 0.34133 0.32532 0.0
H1493 H 0.68322 0.32756 0.34765 0.0
C1494 C 0.69758 0.33665 0.37136 0.0
C1495 C 0.70552 0.3427 0.38292 0.0
C1496 C 0.6955 0.34448 0.35844 0.0
C1497 C 0.71135 0.35673 0.38139 0.0
C1498 C 0.70922 0.36464 0.36862 0.0
C1499 C 0.69907 0.36652 0.34422 0.0
C1500 C 0.69119 0.36043 0.33263 0.0
C1501 C 0.7013 0.35862 0.35708 0.0
C1502 C 0.68562 0.34629 0.33405 0.0
C1503 C 0.68772 0.3384 0.34684 0.0
H1504 H 0.63456 0.19269 0.83217 0.0
H1505 H 0.60528 0.22729 0.84409 0.0
H1506 H 0.61785 0.23016 0.86725 0.0
H1507 H 0.63737 0.22311 0.88397 0.0
H1508 H 0.66643 0.18826 0.87222 0.0
H1509 H 0.6537 0.18522 0.84917 0.0
C1510 C 0.63092 0.20085 0.83983 0.0
C1511 C 0.61903 0.20979 0.83636 0.0
C1512 C 0.63815 0.20241 0.85317 0.0
C1513 C 0.6144 0.22026 0.84647 0.0
C1514 C 0.62159 0.22192 0.85972 0.0
C1515 C 0.64091 0.21483 0.87638 0.0
C1516 C 0.65287 0.20597 0.87981 0.0
C1517 C 0.63351 0.2131 0.86316 0.0
C1518 C 0.65726 0.19524 0.86987 0.0
C1519 C 0.65 0.1935 0.85667 0.0
H1520 H 0.79935 0.12261 0.34138 0.0
H1521 H 0.82822 0.15441 0.32258 0.0
H1522 H 0.82556 0.16973 0.34404 0.0
H1523 H 0.81522 0.17403 0.36823 0.0
H1524 H 0.78606 0.14243 0.38689 0.0
H1525 H 0.78868 0.12712 0.3654 0.0
C1526 C 0.80505 0.1329 0.34196 0.0
C1527 C 0.81399 0.13733 0.33039 0.0
C1528 C 0.80345 0.14169 0.35433 0.0
C1529 C 0.82126 0.15073 0.33132 0.0
C1530 C 0.81976 0.1595 0.3436 0.0
C1531 C 0.80945 0.16379 0.36761 0.0
C1532 C 0.8005 0.15937 0.37918 0.0
C1533 C 0.81093 0.15507 0.35519 0.0
C1534 C 0.79303 0.1461 0.37815 0.0
C1535 C 0.79452 0.13732 0.36587 0.0
H1536 H 0.85757 0.27324 0.88493 0.0
H1537 H 0.82388 0.30513 0.87829 0.0
H1538 H 0.8353 0.31269 0.85559 0.0
H1539 H 0.85493 0.31038 0.8377 0.0
H1540 H 0.88901 0.27898 0.84469 0.0
H1541 H 0.87734 0.27109 0.86716 0.0
C1542 C 0.85271 0.28183 0.87851 0.0
C1543 C 0.83988 0.28859 0.8833 0.0
C1544 C 0.8594 0.28621 0.86552 0.0
C1545 C 0.83377 0.29976 0.87488 0.0
C1546 C 0.84028 0.30408 0.86188 0.0
C1547 C 0.85978 0.30177 0.8441 0.0
C1548 C 0.87281 0.29526 0.83949 0.0
C1549 C 0.8531 0.2974 0.8571 0.0
C1550 C 0.879 0.28419 0.84799 0.0
C1551 C 0.87233 0.27967 0.86084 0.0
H1552 H 0.13183 0.69179 0.15602 0.0
H1553 H 0.10984 0.72683 0.13398 0.0
H1554 H 0.12941 0.72808 0.11614 0.0
H1555 H 0.15273 0.71923 0.10675 0.0
H1556 H 0.17484 0.68435 0.12891 0.0
H1557 H 0.15526 0.68307 0.14674 0.0
C1558 C 0.13131 0.6997 0.14732 0.0
C1559 C 0.11936 0.70918 0.14635 0.0
C1560 C 0.14262 0.7004 0.1371 0.0
C1561 C 0.11889 0.71939 0.135 0.0
C1562 C 0.13008 0.72012 0.12478 0.0
C1563 C 0.15328 0.71134 0.11547 0.0
C1564 C 0.16525 0.70189 0.11646 0.0
C1565 C 0.14199 0.71068 0.12572 0.0
C1566 C 0.16577 0.69176 0.12787 0.0
C1567 C 0.15457 0.69101 0.13808 0.0
H1568 H 0.11595 0.77685 0.34895 0.0
H1569 H 0.13061 0.80925 0.31842 0.0
H1570 H 0.15264 0.81296 0.33271 0.0
H1571 H 0.16784 0.8069 0.35378 0.0
H1572 H 0.15284 0.77498 0.38466 0.0
H1573 H 0.13086 0.77122 0.37033 0.0
C1574 C 0.12397 0.78471 0.34541 0.0
C1575 C 0.12165 0.79271 0.33261 0.0
C1576 C 0.13656 0.78689 0.35374 0.0
C1577 C 0.13211 0.80295 0.32824 0.0
C1578 C 0.14473 0.80507 0.33639 0.0
C1579 C 0.15977 0.79911 0.35737 0.0
C1580 C 0.16202 0.7912 0.37024 0.0
C1581 C 0.14708 0.79708 0.34914 0.0
C1582 C 0.15139 0.78123 0.3748 0.0
C1583 C 0.13881 0.77905 0.3666 0.0
H1584 H 0.18467 0.63361 0.8312 0.0
H1585 H 0.21708 0.60789 0.85323 0.0
H1586 H 0.21909 0.62636 0.87214 0.0
H1587 H 0.21179 0.64988 0.88236 0.0
H1588 H 0.17953 0.67568 0.86021 0.0
H1589 H 0.17733 0.6571 0.84144 0.0
C1590 C 0.19217 0.63203 0.84014 0.0
C1591 C 0.20071 0.61937 0.84077 0.0
C1592 C 0.19331 0.64271 0.85097 0.0
C1593 C 0.21038 0.61752 0.85245 0.0
C1594 C 0.21154 0.62808 0.86328 0.0
C1595 C 0.20426 0.65144 0.87344 0.0
C1596 C 0.19584 0.66417 0.87271 0.0
C1597 C 0.20308 0.64073 0.86264 0.0
C1598 C 0.18615 0.666 0.86105 0.0
C1599 C 0.18488 0.65538 0.8503 0.0
H1600 H 0.36786 0.68339 0.31124 0.0
H1601 H 0.39465 0.70169 0.34508 0.0
H1602 H 0.37421 0.70078 0.36195 0.0
H1603 H 0.34878 0.69461 0.36717 0.0
H1604 H 0.32193 0.67665 0.33319 0.0
H1605 H 0.34234 0.67768 0.31631 0.0
C1606 C 0.36925 0.68716 0.32232 0.0
C1607 C 0.38279 0.69254 0.3269 0.0
C1608 C 0.35742 0.6867 0.33194 0.0
C1609 C 0.38435 0.69748 0.34126 0.0
C1610 C 0.37266 0.69696 0.35093 0.0
C1611 C 0.34738 0.69095 0.35606 0.0
C1612 C 0.33384 0.68553 0.35147 0.0
C1613 C 0.35916 0.69158 0.34639 0.0
C1614 C 0.33221 0.68088 0.33702 0.0
C1615 C 0.34389 0.68143 0.32736 0.0
H1616 H 0.27965 0.87969 0.85527 0.0
H1617 H 0.30928 0.87515 0.81925 0.0
H1618 H 0.3172 0.85159 0.82851 0.0
H1619 H 0.31592 0.83239 0.847 0.0
H1620 H 0.28746 0.83763 0.88385 0.0
H1621 H 0.27884 0.86077 0.8741 0.0
C1622 C 0.28781 0.87351 0.84943 0.0
C1623 C 0.29383 0.87912 0.83657 0.0
C1624 C 0.29252 0.8601 0.85497 0.0
C1625 C 0.30451 0.87108 0.8292 0.0
C1626 C 0.30902 0.85759 0.83447 0.0
C1627 C 0.30777 0.83857 0.85285 0.0
C1628 C 0.30227 0.83328 0.86607 0.0
C1629 C 0.30312 0.85201 0.84735 0.0
C1630 C 0.29187 0.84149 0.87364 0.0
C1631 C 0.28693 0.85471 0.86808 0.0
H1632 H 0.322 0.82861 0.15934 0.0
H1633 H 0.33054 0.80388 0.12046 0.0
H1634 H 0.35427 0.79681 0.12999 0.0
H1635 H 0.37274 0.79791 0.14923 0.0
H1636 H 0.36455 0.82346 0.18766 0.0
H1637 H 0.34056 0.82996 0.17842 0.0
C1638 C 0.32902 0.82161 0.15298 0.0
C1639 C 0.32448 0.81674 0.13923 0.0
C1640 C 0.34275 0.81778 0.15842 0.0
C1641 C 0.33378 0.80779 0.13107 0.0
C1642 C 0.34735 0.80374 0.13651 0.0
C1643 C 0.3657 0.80488 0.15559 0.0
C1644 C 0.37043 0.81017 0.16912 0.0
C1645 C 0.35197 0.80872 0.15014 0.0
C1646 C 0.3612 0.81927 0.17719 0.0
C1647 C 0.34746 0.82297 0.17193 0.0
H1648 H 0.17892 0.85095 0.63857 0.0
H1649 H 0.21338 0.82616 0.6583 0.0
H1650 H 0.2253 0.84858 0.66612 0.0
H1651 H 0.22563 0.8752 0.66779 0.0
H1652 H 0.18991 0.89992 0.65035 0.0
H1653 H 0.17872 0.8776 0.64117 0.0
C1654 C 0.18907 0.85051 0.64451 0.0
C1655 C 0.19535 0.837 0.64778 0.0
C1656 C 0.19559 0.86341 0.6494 0.0
C1657 C 0.20837 0.83648 0.6557 0.0
C1658 C 0.21519 0.84927 0.66014 0.0
C1659 C 0.21544 0.87567 0.66189 0.0
C1660 C 0.20864 0.88913 0.6596 0.0
C1661 C 0.20886 0.86279 0.65711 0.0
C1662 C 0.19532 0.88964 0.65221 0.0
C1663 C 0.18894 0.8769 0.64696 0.0
H1664 H 0.27316 0.61891 0.64594 0.0
H1665 H 0.31008 0.63197 0.67171 0.0
H1666 H 0.31263 0.65399 0.65717 0.0
H1667 H 0.30436 0.66958 0.63718 0.0
H1668 H 0.26783 0.65621 0.61102 0.0
H1669 H 0.26518 0.63427 0.62567 0.0
C1670 C 0.28175 0.62659 0.6484 0.0
C1671 C 0.29138 0.62381 0.65993 0.0
C1672 C 0.28325 0.63917 0.63991 0.0
C1673 C 0.30252 0.63382 0.66289 0.0
C1674 C 0.30398 0.64644 0.65459 0.0
C1675 C 0.29582 0.66187 0.63468 0.0
C1676 C 0.28629 0.66456 0.62304 0.0
C1677 C 0.29441 0.64922 0.64308 0.0
C1678 C 0.27533 0.65441 0.6199 0.0
C1679 C 0.27378 0.64187 0.62829 0.0
loop_
_geom_bond_atom_site_label_1
_geom_bond_atom_site_label_2
_geom_bond_distance
_geom_bond_site_symmetry_2
_ccdc_geom_bond_type
O0 Cd1 2.300 . S
O0 C7 1.275 . S
Cd1 O0 2.300 . S
Cd1 O9 2.381 . S
Cd1 O10 2.378 . S
O2 Cd3 2.385 . S
O2 C7 1.255 . S
Cd3 O2 2.385 . S
Cd3 O4 2.317 . S
O4 Cd3 2.317 . S
O4 C5 1.232 . S
C5 O4 1.232 . S
C5 O6 1.218 . S
O6 C5 1.218 . S
C7 O0 1.275 . S
C7 O2 1.255 . S
C8 O9 1.258 . S
C8 O10 1.256 . S
O9 Cd1 2.381 . S
O9 C8 1.258 . S
O10 Cd1 2.378 . S
O10 C8 1.256 . S
O11 Cd12 2.300 . S
O11 C18 1.275 . S
Cd12 O11 2.300 . S
Cd12 O20 2.381 . S
Cd12 O21 2.378 . S
O13 Cd14 2.385 . S
O13 C18 1.255 . S
Cd14 O13 2.385 . S
Cd14 O15 2.317 . S
O15 Cd14 2.317 . S
O15 C16 1.232 . S
C16 O15 1.232 . S
C16 O17 1.218 . S
O17 C16 1.218 . S
C18 O11 1.275 . S
C18 O13 1.255 . S
C19 O20 1.258 . S
C19 O21 1.256 . S
O20 Cd12 2.381 . S
O20 C19 1.258 . S
O21 Cd12 2.378 . S
O21 C19 1.256 . S
O22 Cd23 2.300 . S
O22 C29 1.275 . S
Cd23 O22 2.300 . S
Cd23 O31 2.381 . S
Cd23 O32 2.378 . S
O24 Cd25 2.385 . S
O24 C29 1.255 . S
Cd25 O24 2.385 . S
Cd25 O26 2.317 . S
O26 Cd25 2.317 . S
O26 C27 1.232 . S
C27 O26 1.232 . S
C27 O28 1.218 . S
O28 C27 1.218 . S
C29 O22 1.275 . S
C29 O24 1.255 . S
C30 O31 1.258 . S
C30 O32 1.256 . S
O31 Cd23 2.381 . S
O31 C30 1.258 . S
O32 Cd23 2.378 . S
O32 C30 1.256 . S
O33 Cd34 2.300 . S
O33 C40 1.275 . S
Cd34 O33 2.300 . S
Cd34 O42 2.381 . S
Cd34 O43 2.378 . S
O35 Cd36 2.385 . S
O35 C40 1.255 . S
Cd36 O35 2.385 . S
Cd36 O37 2.317 . S
O37 Cd36 2.317 . S
O37 C38 1.232 . S
C38 O37 1.232 . S
C38 O39 1.218 . S
O39 C38 1.218 . S
C40 O33 1.275 . S
C40 O35 1.255 . S
C41 O42 1.258 . S
C41 O43 1.256 . S
O42 Cd34 2.381 . S
O42 C41 1.258 . S
O43 Cd34 2.378 . S
O43 C41 1.256 . S
O44 Cd45 2.300 . S
O44 C51 1.275 . S
Cd45 O44 2.300 . S
Cd45 O53 2.381 . S
Cd45 O54 2.378 . S
O46 Cd47 2.385 . S
O46 C51 1.255 . S
Cd47 O46 2.385 . S
Cd47 O48 2.317 . S
O48 Cd47 2.317 . S
O48 C49 1.232 . S
C49 O48 1.232 . S
C49 O50 1.218 . S
O50 C49 1.218 . S
C51 O44 1.275 . S
C51 O46 1.255 . S
C52 O53 1.258 . S
C52 O54 1.256 . S
O53 Cd45 2.381 . S
O53 C52 1.258 . S
O54 Cd45 2.378 . S
O54 C52 1.256 . S
O55 Cd56 2.300 . S
O55 C62 1.275 . S
Cd56 O55 2.300 . S
Cd56 O64 2.381 . S
Cd56 O65 2.378 . S
O57 Cd58 2.385 . S
O57 C62 1.255 . S
Cd58 O57 2.385 . S
Cd58 O59 2.317 . S
O59 Cd58 2.317 . S
O59 C60 1.232 . S
C60 O59 1.232 . S
C60 O61 1.218 . S
O61 C60 1.218 . S
C62 O55 1.275 . S
C62 O57 1.255 . S
C63 O64 1.258 . S
C63 O65 1.256 . S
O64 Cd56 2.381 . S
O64 C63 1.258 . S
O65 Cd56 2.378 . S
O65 C63 1.256 . S
O66 Cd67 2.300 . S
O66 C73 1.275 . S
Cd67 O66 2.300 . S
Cd67 O75 2.381 . S
Cd67 O76 2.378 . S
O68 Cd69 2.385 . S
O68 C73 1.255 . S
Cd69 O68 2.385 . S
Cd69 O70 2.317 . S
O70 Cd69 2.317 . S
O70 C71 1.232 . S
C71 O70 1.232 . S
C71 O72 1.218 . S
O72 C71 1.218 . S
C73 O66 1.275 . S
C73 O68 1.255 . S
C74 O75 1.258 . S
C74 O76 1.256 . S
O75 Cd67 2.381 . S
O75 C74 1.258 . S
O76 Cd67 2.378 . S
O76 C74 1.256 . S
O77 Cd78 2.300 . S
O77 C84 1.275 . S
Cd78 O77 2.300 . S
Cd78 O86 2.381 . S
Cd78 O87 2.378 . S
O79 Cd80 2.385 . S
O79 C84 1.255 . S
Cd80 O79 2.385 . S
Cd80 O81 2.317 . S
O81 Cd80 2.317 . S
O81 C82 1.232 . S
C82 O81 1.232 . S
C82 O83 1.218 . S
O83 C82 1.218 . S
C84 O77 1.275 . S
C84 O79 1.255 . S
C85 O86 1.258 . S
C85 O87 1.256 . S
O86 Cd78 2.381 . S
O86 C85 1.258 . S
O87 Cd78 2.378 . S
O87 C85 1.256 . S
O88 Cd89 2.300 . S
O88 C95 1.275 . S
Cd89 O88 2.300 . S
Cd89 O97 2.381 . S
Cd89 O98 2.378 . S
O90 Cd91 2.385 . S
O90 C95 1.255 . S
Cd91 O90 2.385 . S
Cd91 O92 2.317 . S
O92 Cd91 2.317 . S
O92 C93 1.232 . S
C93 O92 1.232 . S
C93 O94 1.218 . S
O94 C93 1.218 . S
C95 O88 1.275 . S
C95 O90 1.255 . S
C96 O97 1.258 . S
C96 O98 1.256 . S
O97 Cd89 2.381 . S
O97 C96 1.258 . S
O98 Cd89 2.378 . S
O98 C96 1.256 . S
O99 Cd100 2.300 . S
O99 C106 1.275 . S
Cd100 O99 2.300 . S
Cd100 O108 2.381 . S
Cd100 O109 2.378 . S
O101 Cd102 2.385 . S
O101 C106 1.255 . S
Cd102 O101 2.385 . S
Cd102 O103 2.317 . S
O103 Cd102 2.317 . S
O103 C104 1.232 . S
C104 O103 1.232 . S
C104 O105 1.218 . S
O105 C104 1.218 . S
C106 O99 1.275 . S
C106 O101 1.255 . S
C107 O108 1.258 . S
C107 O109 1.256 . S
O108 Cd100 2.381 . S
O108 C107 1.258 . S
O109 Cd100 2.378 . S
O109 C107 1.256 . S
O110 Cd111 2.300 . S
O110 C117 1.275 . S
Cd111 O110 2.300 . S
Cd111 O119 2.381 . S
Cd111 O120 2.378 . S
O112 Cd113 2.385 . S
O112 C117 1.255 . S
Cd113 O112 2.385 . S
Cd113 O114 2.317 . S
O114 Cd113 2.317 . S
O114 C115 1.232 . S
C115 O114 1.232 . S
C115 O116 1.218 . S
O116 C115 1.218 . S
C117 O110 1.275 . S
C117 O112 1.255 . S
C118 O119 1.258 . S
C118 O120 1.256 . S
O119 Cd111 2.381 . S
O119 C118 1.258 . S
O120 Cd111 2.378 . S
O120 C118 1.256 . S
O121 Cd122 2.300 . S
O121 C128 1.275 . S
Cd122 O121 2.300 . S
Cd122 O130 2.381 . S
Cd122 O131 2.378 . S
O123 Cd124 2.385 . S
O123 C128 1.255 . S
Cd124 O123 2.385 . S
Cd124 O125 2.317 . S
O125 Cd124 2.317 . S
O125 C126 1.232 . S
C126 O125 1.232 . S
C126 O127 1.218 . S
O127 C126 1.218 . S
C128 O121 1.275 . S
C128 O123 1.255 . S
C129 O130 1.258 . S
C129 O131 1.256 . S
O130 Cd122 2.381 . S
O130 C129 1.258 . S
O131 Cd122 2.378 . S
O131 C129 1.256 . S
O132 Cd133 2.300 . S
O132 C139 1.275 . S
Cd133 O132 2.300 . S
Cd133 O141 2.381 . S
Cd133 O142 2.378 . S
O134 Cd135 2.385 . S
O134 C139 1.255 . S
Cd135 O134 2.385 . S
Cd135 O136 2.317 . S
O136 Cd135 2.317 . S
O136 C137 1.232 . S
C137 O136 1.232 . S
C137 O138 1.218 . S
O138 C137 1.218 . S
C139 O132 1.275 . S
C139 O134 1.255 . S
C140 O141 1.258 . S
C140 O142 1.256 . S
O141 Cd133 2.381 . S
O141 C140 1.258 . S
O142 Cd133 2.378 . S
O142 C140 1.256 . S
O143 Cd144 2.300 . S
O143 C150 1.275 . S
Cd144 O143 2.300 . S
Cd144 O152 2.381 . S
Cd144 O153 2.378 . S
O145 Cd146 2.385 . S
O145 C150 1.255 . S
Cd146 O145 2.385 . S
Cd146 O147 2.317 . S
O147 Cd146 2.317 . S
O147 C148 1.232 . S
C148 O147 1.232 . S
C148 O149 1.218 . S
O149 C148 1.218 . S
C150 O143 1.275 . S
C150 O145 1.255 . S
C151 O152 1.258 . S
C151 O153 1.256 . S
O152 Cd144 2.381 . S
O152 C151 1.258 . S
O153 Cd144 2.378 . S
O153 C151 1.256 . S
O154 Cd155 2.300 . S
O154 C161 1.275 . S
Cd155 O154 2.300 . S
Cd155 O163 2.381 . S
Cd155 O164 2.378 . S
O156 Cd157 2.385 . S
O156 C161 1.255 . S
Cd157 O156 2.385 . S
Cd157 O158 2.317 . S
O158 Cd157 2.317 . S
O158 C159 1.232 . S
C159 O158 1.232 . S
C159 O160 1.218 . S
O160 C159 1.218 . S
C161 O154 1.275 . S
C161 O156 1.255 . S
C162 O163 1.258 . S
C162 O164 1.256 . S
O163 Cd155 2.381 . S
O163 C162 1.258 . S
O164 Cd155 2.378 . S
O164 C162 1.256 . S
O165 Cd166 2.300 . S
O165 C172 1.275 . S
Cd166 O165 2.300 . S
Cd166 O174 2.381 . S
Cd166 O175 2.378 . S
O167 Cd168 2.385 . S
O167 C172 1.255 . S
Cd168 O167 2.385 . S
Cd168 O169 2.317 . S
O169 Cd168 2.317 . S
O169 C170 1.232 . S
C170 O169 1.232 . S
C170 O171 1.218 . S
O171 C170 1.218 . S
C172 O165 1.275 . S
C172 O167 1.255 . S
C173 O174 1.258 . S
C173 O175 1.256 . S
O174 Cd166 2.381 . S
O174 C173 1.258 . S
O175 Cd166 2.378 . S
O175 C173 1.256 . S
O176 Cd177 2.300 . S
O176 C183 1.275 . S
Cd177 O176 2.300 . S
Cd177 O185 2.381 . S
Cd177 O186 2.378 . S
O178 Cd179 2.385 . S
O178 C183 1.255 . S
Cd179 O178 2.385 . S
Cd179 O180 2.317 . S
O180 Cd179 2.317 . S
O180 C181 1.232 . S
C181 O180 1.232 . S
C181 O182 1.218 . S
O182 C181 1.218 . S
C183 O176 1.275 . S
C183 O178 1.255 . S
C184 O185 1.258 . S
C184 O186 1.256 . S
O185 Cd177 2.381 . S
O185 C184 1.258 . S
O186 Cd177 2.378 . S
O186 C184 1.256 . S
O187 Cd188 2.300 . S
O187 C194 1.275 . S
Cd188 O187 2.300 . S
Cd188 O196 2.381 . S
Cd188 O197 2.378 . S
O189 Cd190 2.385 . S
O189 C194 1.255 . S
Cd190 O189 2.385 . S
Cd190 O191 2.317 . S
O191 Cd190 2.317 . S
O191 C192 1.232 . S
C192 O191 1.232 . S
C192 O193 1.218 . S
O193 C192 1.218 . S
C194 O187 1.275 . S
C194 O189 1.255 . S
C195 O196 1.258 . S
C195 O197 1.256 . S
O196 Cd188 2.381 . S
O196 C195 1.258 . S
O197 Cd188 2.378 . S
O197 C195 1.256 . S
O198 Cd199 2.300 . S
O198 C205 1.275 . S
Cd199 O198 2.300 . S
Cd199 O207 2.381 . S
Cd199 O208 2.378 . S
O200 Cd201 2.385 . S
O200 C205 1.255 . S
Cd201 O200 2.385 . S
Cd201 O202 2.317 . S
O202 Cd201 2.317 . S
O202 C203 1.232 . S
C203 O202 1.232 . S
C203 O204 1.218 . S
O204 C203 1.218 . S
C205 O198 1.275 . S
C205 O200 1.255 . S
C206 O207 1.258 . S
C206 O208 1.256 . S
O207 Cd199 2.381 . S
O207 C206 1.258 . S
O208 Cd199 2.378 . S
O208 C206 1.256 . S
O209 Cd210 2.300 . S
O209 C216 1.275 . S
Cd210 O209 2.300 . S
Cd210 O218 2.381 . S
Cd210 O219 2.378 . S
O211 Cd212 2.385 . S
O211 C216 1.255 . S
Cd212 O211 2.385 . S
Cd212 O213 2.317 . S
O213 Cd212 2.317 . S
O213 C214 1.232 . S
C214 O213 1.232 . S
C214 O215 1.218 . S
O215 C214 1.218 . S
C216 O209 1.275 . S
C216 O211 1.255 . S
C217 O218 1.258 . S
C217 O219 1.256 . S
O218 Cd210 2.381 . S
O218 C217 1.258 . S
O219 Cd210 2.378 . S
O219 C217 1.256 . S
O220 Cd221 2.300 . S
O220 C227 1.275 . S
Cd221 O220 2.300 . S
Cd221 O229 2.381 . S
Cd221 O230 2.378 . S
O222 Cd223 2.385 . S
O222 C227 1.255 . S
Cd223 O222 2.385 . S
Cd223 O224 2.317 . S
O224 Cd223 2.317 . S
O224 C225 1.232 . S
C225 O224 1.232 . S
C225 O226 1.218 . S
O226 C225 1.218 . S
C227 O220 1.275 . S
C227 O222 1.255 . S
C228 O229 1.258 . S
C228 O230 1.256 . S
O229 Cd221 2.381 . S
O229 C228 1.258 . S
O230 Cd221 2.378 . S
O230 C228 1.256 . S
O231 Cd232 2.300 . S
O231 C238 1.275 . S
Cd232 O231 2.300 . S
Cd232 O240 2.381 . S
Cd232 O241 2.378 . S
O233 Cd234 2.385 . S
O233 C238 1.255 . S
Cd234 O233 2.385 . S
Cd234 O235 2.317 . S
O235 Cd234 2.317 . S
O235 C236 1.232 . S
C236 O235 1.232 . S
C236 O237 1.218 . S
O237 C236 1.218 . S
C238 O231 1.275 . S
C238 O233 1.255 . S
C239 O240 1.258 . S
C239 O241 1.256 . S
O240 Cd232 2.381 . S
O240 C239 1.258 . S
O241 Cd232 2.378 . S
O241 C239 1.256 . S
O242 Cd243 2.300 . S
O242 C249 1.275 . S
Cd243 O242 2.300 . S
Cd243 O251 2.381 . S
Cd243 O252 2.378 . S
O244 Cd245 2.385 . S
O244 C249 1.255 . S
Cd245 O244 2.385 . S
Cd245 O246 2.317 . S
O246 Cd245 2.317 . S
O246 C247 1.232 . S
C247 O246 1.232 . S
C247 O248 1.218 . S
O248 C247 1.218 . S
C249 O242 1.275 . S
C249 O244 1.255 . S
C250 O251 1.258 . S
C250 O252 1.256 . S
O251 Cd243 2.381 . S
O251 C250 1.258 . S
O252 Cd243 2.378 . S
O252 C250 1.256 . S
O253 Cd254 2.300 . S
O253 C260 1.275 . S
Cd254 O253 2.300 . S
Cd254 O262 2.381 . S
Cd254 O263 2.378 . S
O255 Cd256 2.385 . S
O255 C260 1.255 . S
Cd256 O255 2.385 . S
Cd256 O257 2.317 . S
O257 Cd256 2.317 . S
O257 C258 1.232 . S
C258 O257 1.232 . S
C258 O259 1.218 . S
O259 C258 1.218 . S
C260 O253 1.275 . S
C260 O255 1.255 . S
C261 O262 1.258 . S
C261 O263 1.256 . S
O262 Cd254 2.381 . S
O262 C261 1.258 . S
O263 Cd254 2.378 . S
O263 C261 1.256 . S
O264 Cd265 2.300 . S
O264 C271 1.275 . S
Cd265 O264 2.300 . S
Cd265 O273 2.381 . S
Cd265 O274 2.378 . S
O266 Cd267 2.385 . S
O266 C271 1.255 . S
Cd267 O266 2.385 . S
Cd267 O268 2.317 . S
O268 Cd267 2.317 . S
O268 C269 1.232 . S
C269 O268 1.232 . S
C269 O270 1.218 . S
O270 C269 1.218 . S
C271 O264 1.275 . S
C271 O266 1.255 . S
C272 O273 1.258 . S
C272 O274 1.256 . S
O273 Cd265 2.381 . S
O273 C272 1.258 . S
O274 Cd265 2.378 . S
O274 C272 1.256 . S
O275 Cd276 2.300 . S
O275 C282 1.275 . S
Cd276 O275 2.300 . S
Cd276 O284 2.381 . S
Cd276 O285 2.378 . S
O277 Cd278 2.385 . S
O277 C282 1.255 . S
Cd278 O277 2.385 . S
Cd278 O279 2.317 . S
O279 Cd278 2.317 . S
O279 C280 1.232 . S
C280 O279 1.232 . S
C280 O281 1.218 . S
O281 C280 1.218 . S
C282 O275 1.275 . S
C282 O277 1.255 . S
C283 O284 1.258 . S
C283 O285 1.256 . S
O284 Cd276 2.381 . S
O284 C283 1.258 . S
O285 Cd276 2.378 . S
O285 C283 1.256 . S
O286 Cd287 2.300 . S
O286 C293 1.275 . S
Cd287 O286 2.300 . S
Cd287 O295 2.381 . S
Cd287 O296 2.378 . S
O288 Cd289 2.385 . S
O288 C293 1.255 . S
Cd289 O288 2.385 . S
Cd289 O290 2.317 . S
O290 Cd289 2.317 . S
O290 C291 1.232 . S
C291 O290 1.232 . S
C291 O292 1.218 . S
O292 C291 1.218 . S
C293 O286 1.275 . S
C293 O288 1.255 . S
C294 O295 1.258 . S
C294 O296 1.256 . S
O295 Cd287 2.381 . S
O295 C294 1.258 . S
O296 Cd287 2.378 . S
O296 C294 1.256 . S
O297 Cd298 2.300 . S
O297 C304 1.275 . S
Cd298 O297 2.300 . S
Cd298 O306 2.381 . S
Cd298 O307 2.378 . S
O299 Cd300 2.385 . S
O299 C304 1.255 . S
Cd300 O299 2.385 . S
Cd300 O301 2.317 . S
O301 Cd300 2.317 . S
O301 C302 1.232 . S
C302 O301 1.232 . S
C302 O303 1.218 . S
O303 C302 1.218 . S
C304 O297 1.275 . S
C304 O299 1.255 . S
C305 O306 1.258 . S
C305 O307 1.256 . S
O306 Cd298 2.381 . S
O306 C305 1.258 . S
O307 Cd298 2.378 . S
O307 C305 1.256 . S
O308 Cd309 2.300 . S
O308 C315 1.275 . S
Cd309 O308 2.300 . S
Cd309 O317 2.381 . S
Cd309 O318 2.378 . S
O310 Cd311 2.385 . S
O310 C315 1.255 . S
Cd311 O310 2.385 . S
Cd311 O312 2.317 . S
O312 Cd311 2.317 . S
O312 C313 1.232 . S
C313 O312 1.232 . S
C313 O314 1.218 . S
O314 C313 1.218 . S
C315 O308 1.275 . S
C315 O310 1.255 . S
C316 O317 1.258 . S
C316 O318 1.256 . S
O317 Cd309 2.381 . S
O317 C316 1.258 . S
O318 Cd309 2.378 . S
O318 C316 1.256 . S
O319 Cd320 2.300 . S
O319 C326 1.275 . S
Cd320 O319 2.300 . S
Cd320 O328 2.381 . S
Cd320 O329 2.378 . S
O321 Cd322 2.385 . S
O321 C326 1.255 . S
Cd322 O321 2.385 . S
Cd322 O323 2.317 . S
O323 Cd322 2.317 . S
O323 C324 1.232 . S
C324 O323 1.232 . S
C324 O325 1.218 . S
O325 C324 1.218 . S
C326 O319 1.275 . S
C326 O321 1.255 . S
C327 O328 1.258 . S
C327 O329 1.256 . S
O328 Cd320 2.381 . S
O328 C327 1.258 . S
O329 Cd320 2.378 . S
O329 C327 1.256 . S
O330 Cd331 2.300 . S
O330 C337 1.275 . S
Cd331 O330 2.300 . S
Cd331 O339 2.381 . S
Cd331 O340 2.378 . S
O332 Cd333 2.385 . S
O332 C337 1.255 . S
Cd333 O332 2.385 . S
Cd333 O334 2.317 . S
O334 Cd333 2.317 . S
O334 C335 1.232 . S
C335 O334 1.232 . S
C335 O336 1.218 . S
O336 C335 1.218 . S
C337 O330 1.275 . S
C337 O332 1.255 . S
C338 O339 1.258 . S
C338 O340 1.256 . S
O339 Cd331 2.381 . S
O339 C338 1.258 . S
O340 Cd331 2.378 . S
O340 C338 1.256 . S
O341 Cd342 2.300 . S
O341 C348 1.275 . S
Cd342 O341 2.300 . S
Cd342 O350 2.381 . S
Cd342 O351 2.378 . S
O343 Cd344 2.385 . S
O343 C348 1.255 . S
Cd344 O343 2.385 . S
Cd344 O345 2.317 . S
O345 Cd344 2.317 . S
O345 C346 1.232 . S
C346 O345 1.232 . S
C346 O347 1.218 . S
O347 C346 1.218 . S
C348 O341 1.275 . S
C348 O343 1.255 . S
C349 O350 1.258 . S
C349 O351 1.256 . S
O350 Cd342 2.381 . S
O350 C349 1.258 . S
O351 Cd342 2.378 . S
O351 C349 1.256 . S
O352 Cd353 2.300 . S
O352 C359 1.275 . S
Cd353 O352 2.300 . S
Cd353 O361 2.381 . S
Cd353 O362 2.378 . S
O354 Cd355 2.385 . S
O354 C359 1.255 . S
Cd355 O354 2.385 . S
Cd355 O356 2.317 . S
O356 Cd355 2.317 . S
O356 C357 1.232 . S
C357 O356 1.232 . S
C357 O358 1.218 . S
O358 C357 1.218 . S
C359 O352 1.275 . S
C359 O354 1.255 . S
C360 O361 1.258 . S
C360 O362 1.256 . S
O361 Cd353 2.381 . S
O361 C360 1.258 . S
O362 Cd353 2.378 . S
O362 C360 1.256 . S
O363 Cd364 2.300 . S
O363 C370 1.275 . S
Cd364 O363 2.300 . S
Cd364 O372 2.381 . S
Cd364 O373 2.378 . S
O365 Cd366 2.385 . S
O365 C370 1.255 . S
Cd366 O365 2.385 . S
Cd366 O367 2.317 . S
O367 Cd366 2.317 . S
O367 C368 1.232 . S
C368 O367 1.232 . S
C368 O369 1.218 . S
O369 C368 1.218 . S
C370 O363 1.275 . S
C370 O365 1.255 . S
C371 O372 1.258 . S
C371 O373 1.256 . S
O372 Cd364 2.381 . S
O372 C371 1.258 . S
O373 Cd364 2.378 . S
O373 C371 1.256 . S
O374 Cd375 2.300 . S
O374 C381 1.275 . S
Cd375 O374 2.300 . S
Cd375 O383 2.381 . S
Cd375 O384 2.378 . S
O376 Cd377 2.385 . S
O376 C381 1.255 . S
Cd377 O376 2.385 . S
Cd377 O378 2.317 . S
O378 Cd377 2.317 . S
O378 C379 1.232 . S
C379 O378 1.232 . S
C379 O380 1.218 . S
O380 C379 1.218 . S
C381 O374 1.275 . S
C381 O376 1.255 . S
C382 O383 1.258 . S
C382 O384 1.256 . S
O383 Cd375 2.381 . S
O383 C382 1.258 . S
O384 Cd375 2.378 . S
O384 C382 1.256 . S
O385 Cd386 2.300 . S
O385 C392 1.275 . S
Cd386 O385 2.300 . S
Cd386 O394 2.381 . S
Cd386 O395 2.378 . S
O387 Cd388 2.385 . S
O387 C392 1.255 . S
Cd388 O387 2.385 . S
Cd388 O389 2.317 . S
O389 Cd388 2.317 . S
O389 C390 1.232 . S
C390 O389 1.232 . S
C390 O391 1.218 . S
O391 C390 1.218 . S
C392 O385 1.275 . S
C392 O387 1.255 . S
C393 O394 1.258 . S
C393 O395 1.256 . S
O394 Cd386 2.381 . S
O394 C393 1.258 . S
O395 Cd386 2.378 . S
O395 C393 1.256 . S
O396 Cd397 2.300 . S
O396 C403 1.275 . S
Cd397 O396 2.300 . S
Cd397 O405 2.381 . S
Cd397 O406 2.378 . S
O398 Cd399 2.385 . S
O398 C403 1.255 . S
Cd399 O398 2.385 . S
Cd399 O400 2.317 . S
O400 Cd399 2.317 . S
O400 C401 1.232 . S
C401 O400 1.232 . S
C401 O402 1.218 . S
O402 C401 1.218 . S
C403 O396 1.275 . S
C403 O398 1.255 . S
C404 O405 1.258 . S
C404 O406 1.256 . S
O405 Cd397 2.381 . S
O405 C404 1.258 . S
O406 Cd397 2.378 . S
O406 C404 1.256 . S
O407 Cd408 2.300 . S
O407 C414 1.275 . S
Cd408 O407 2.300 . S
Cd408 O416 2.381 . S
Cd408 O417 2.378 . S
O409 Cd410 2.385 . S
O409 C414 1.255 . S
Cd410 O409 2.385 . S
Cd410 O411 2.317 . S
O411 Cd410 2.317 . S
O411 C412 1.232 . S
C412 O411 1.232 . S
C412 O413 1.218 . S
O413 C412 1.218 . S
C414 O407 1.275 . S
C414 O409 1.255 . S
C415 O416 1.258 . S
C415 O417 1.256 . S
O416 Cd408 2.381 . S
O416 C415 1.258 . S
O417 Cd408 2.378 . S
O417 C415 1.256 . S
O418 Cd419 2.300 . S
O418 C425 1.275 . S
Cd419 O418 2.300 . S
Cd419 O427 2.381 . S
Cd419 O428 2.378 . S
O420 Cd421 2.385 . S
O420 C425 1.255 . S
Cd421 O420 2.385 . S
Cd421 O422 2.317 . S
O422 Cd421 2.317 . S
O422 C423 1.232 . S
C423 O422 1.232 . S
C423 O424 1.218 . S
O424 C423 1.218 . S
C425 O418 1.275 . S
C425 O420 1.255 . S
C426 O427 1.258 . S
C426 O428 1.256 . S
O427 Cd419 2.381 . S
O427 C426 1.258 . S
O428 Cd419 2.378 . S
O428 C426 1.256 . S
O429 Cd430 2.300 . S
O429 C436 1.275 . S
Cd430 O429 2.300 . S
Cd430 O438 2.381 . S
Cd430 O439 2.378 . S
O431 Cd432 2.385 . S
O431 C436 1.255 . S
Cd432 O431 2.385 . S
Cd432 O433 2.317 . S
O433 Cd432 2.317 . S
O433 C434 1.232 . S
C434 O433 1.232 . S
C434 O435 1.218 . S
O435 C434 1.218 . S
C436 O429 1.275 . S
C436 O431 1.255 . S
C437 O438 1.258 . S
C437 O439 1.256 . S
O438 Cd430 2.381 . S
O438 C437 1.258 . S
O439 Cd430 2.378 . S
O439 C437 1.256 . S
O440 Cd441 2.300 . S
O440 C447 1.275 . S
Cd441 O440 2.300 . S
Cd441 O449 2.381 . S
Cd441 O450 2.378 . S
O442 Cd443 2.385 . S
O442 C447 1.255 . S
Cd443 O442 2.385 . S
Cd443 O444 2.317 . S
O444 Cd443 2.317 . S
O444 C445 1.232 . S
C445 O444 1.232 . S
C445 O446 1.218 . S
O446 C445 1.218 . S
C447 O440 1.275 . S
C447 O442 1.255 . S
C448 O449 1.258 . S
C448 O450 1.256 . S
O449 Cd441 2.381 . S
O449 C448 1.258 . S
O450 Cd441 2.378 . S
O450 C448 1.256 . S
O451 Cd452 2.300 . S
O451 C458 1.275 . S
Cd452 O451 2.300 . S
Cd452 O460 2.381 . S
Cd452 O461 2.378 . S
O453 Cd454 2.385 . S
O453 C458 1.255 . S
Cd454 O453 2.385 . S
Cd454 O455 2.317 . S
O455 Cd454 2.317 . S
O455 C456 1.232 . S
C456 O455 1.232 . S
C456 O457 1.218 . S
O457 C456 1.218 . S
C458 O451 1.275 . S
C458 O453 1.255 . S
C459 O460 1.258 . S
C459 O461 1.256 . S
O460 Cd452 2.381 . S
O460 C459 1.258 . S
O461 Cd452 2.378 . S
O461 C459 1.256 . S
O462 Cd463 2.300 . S
O462 C469 1.275 . S
Cd463 O462 2.300 . S
Cd463 O471 2.381 . S
Cd463 O472 2.378 . S
O464 Cd465 2.385 . S
O464 C469 1.255 . S
Cd465 O464 2.385 . S
Cd465 O466 2.317 . S
O466 Cd465 2.317 . S
O466 C467 1.232 . S
C467 O466 1.232 . S
C467 O468 1.218 . S
O468 C467 1.218 . S
C469 O462 1.275 . S
C469 O464 1.255 . S
C470 O471 1.258 . S
C470 O472 1.256 . S
O471 Cd463 2.381 . S
O471 C470 1.258 . S
O472 Cd463 2.378 . S
O472 C470 1.256 . S
O473 Cd474 2.300 . S
O473 C480 1.275 . S
Cd474 O473 2.300 . S
Cd474 O482 2.381 . S
Cd474 O483 2.378 . S
O475 Cd476 2.385 . S
O475 C480 1.255 . S
Cd476 O475 2.385 . S
Cd476 O477 2.317 . S
O477 Cd476 2.317 . S
O477 C478 1.232 . S
C478 O477 1.232 . S
C478 O479 1.218 . S
O479 C478 1.218 . S
C480 O473 1.275 . S
C480 O475 1.255 . S
C481 O482 1.258 . S
C481 O483 1.256 . S
O482 Cd474 2.381 . S
O482 C481 1.258 . S
O483 Cd474 2.378 . S
O483 C481 1.256 . S
O484 Cd485 2.300 . S
O484 C491 1.275 . S
Cd485 O484 2.300 . S
Cd485 O493 2.381 . S
Cd485 O494 2.378 . S
O486 Cd487 2.385 . S
O486 C491 1.255 . S
Cd487 O486 2.385 . S
Cd487 O488 2.317 . S
O488 Cd487 2.317 . S
O488 C489 1.232 . S
C489 O488 1.232 . S
C489 O490 1.218 . S
O490 C489 1.218 . S
C491 O484 1.275 . S
C491 O486 1.255 . S
C492 O493 1.258 . S
C492 O494 1.256 . S
O493 Cd485 2.381 . S
O493 C492 1.258 . S
O494 Cd485 2.378 . S
O494 C492 1.256 . S
O495 Cd496 2.300 . S
O495 C502 1.275 . S
Cd496 O495 2.300 . S
Cd496 O504 2.381 . S
Cd496 O505 2.378 . S
O497 Cd498 2.385 . S
O497 C502 1.255 . S
Cd498 O497 2.385 . S
Cd498 O499 2.317 . S
O499 Cd498 2.317 . S
O499 C500 1.232 . S
C500 O499 1.232 . S
C500 O501 1.218 . S
O501 C500 1.218 . S
C502 O495 1.275 . S
C502 O497 1.255 . S
C503 O504 1.258 . S
C503 O505 1.256 . S
O504 Cd496 2.381 . S
O504 C503 1.258 . S
O505 Cd496 2.378 . S
O505 C503 1.256 . S
O506 Cd507 2.300 . S
O506 C513 1.275 . S
Cd507 O506 2.300 . S
Cd507 O515 2.381 . S
Cd507 O516 2.378 . S
O508 Cd509 2.385 . S
O508 C513 1.255 . S
Cd509 O508 2.385 . S
Cd509 O510 2.317 . S
O510 Cd509 2.317 . S
O510 C511 1.232 . S
C511 O510 1.232 . S
C511 O512 1.218 . S
O512 C511 1.218 . S
C513 O506 1.275 . S
C513 O508 1.255 . S
C514 O515 1.258 . S
C514 O516 1.256 . S
O515 Cd507 2.381 . S
O515 C514 1.258 . S
O516 Cd507 2.378 . S
O516 C514 1.256 . S
O517 Cd518 2.300 . S
O517 C524 1.275 . S
Cd518 O517 2.300 . S
Cd518 O526 2.381 . S
Cd518 O527 2.378 . S
O519 Cd520 2.385 . S
O519 C524 1.255 . S
Cd520 O519 2.385 . S
Cd520 O521 2.317 . S
O521 Cd520 2.317 . S
O521 C522 1.232 . S
C522 O521 1.232 . S
C522 O523 1.218 . S
O523 C522 1.218 . S
C524 O517 1.275 . S
C524 O519 1.255 . S
C525 O526 1.258 . S
C525 O527 1.256 . S
O526 Cd518 2.381 . S
O526 C525 1.258 . S
O527 Cd518 2.378 . S
O527 C525 1.256 . S
H528 C534 0.930 . S
H529 C537 0.930 . S
H530 C538 0.930 . S
H531 C539 0.930 . S
H532 C542 0.930 . S
H533 C543 0.930 . S
C534 H528 0.930 . S
C534 C535 1.355 . S
C534 C536 1.415 . S
C535 C534 1.355 . S
C535 C537 1.419 . S
C536 C534 1.415 . S
C536 C541 1.425 . S
C536 C543 1.409 . S
C537 H529 0.930 . S
C537 C535 1.419 . S
C537 C538 1.362 . S
C538 H530 0.930 . S
C538 C537 1.362 . S
C538 C541 1.409 . S
C539 H531 0.930 . S
C539 C540 1.355 . S
C539 C541 1.415 . S
C540 C539 1.355 . S
C540 C542 1.419 . S
C541 C536 1.425 . S
C541 C538 1.409 . S
C541 C539 1.415 . S
C542 H532 0.930 . S
C542 C540 1.419 . S
C542 C543 1.362 . S
C543 H533 0.930 . S
C543 C536 1.409 . S
C543 C542 1.362 . S
H544 C550 0.930 . S
H545 C553 0.930 . S
H546 C554 0.930 . S
H547 C555 0.930 . S
H548 C558 0.930 . S
H549 C559 0.930 . S
C550 H544 0.930 . S
C550 C551 1.355 . S
C550 C552 1.415 . S
C551 C550 1.355 . S
C551 C553 1.419 . S
C552 C550 1.415 . S
C552 C557 1.425 . S
C552 C559 1.409 . S
C553 H545 0.930 . S
C553 C551 1.419 . S
C553 C554 1.362 . S
C554 H546 0.930 . S
C554 C553 1.362 . S
C554 C557 1.409 . S
C555 H547 0.930 . S
C555 C556 1.355 . S
C555 C557 1.415 . S
C556 C555 1.355 . S
C556 C558 1.419 . S
C557 C552 1.425 . S
C557 C554 1.409 . S
C557 C555 1.415 . S
C558 H548 0.930 . S
C558 C556 1.419 . S
C558 C559 1.362 . S
C559 H549 0.930 . S
C559 C552 1.409 . S
C559 C558 1.362 . S
H560 C566 0.930 . S
H561 C569 0.930 . S
H562 C570 0.930 . S
H563 C571 0.930 . S
H564 C574 0.930 . S
H565 C575 0.930 . S
C566 H560 0.930 . S
C566 C567 1.355 . S
C566 C568 1.415 . S
C567 C566 1.355 . S
C567 C569 1.419 . S
C568 C566 1.415 . S
C568 C573 1.425 . S
C568 C575 1.409 . S
C569 H561 0.930 . S
C569 C567 1.419 . S
C569 C570 1.362 . S
C570 H562 0.930 . S
C570 C569 1.362 . S
C570 C573 1.409 . S
C571 H563 0.930 . S
C571 C572 1.355 . S
C571 C573 1.415 . S
C572 C571 1.355 . S
C572 C574 1.419 . S
C573 C568 1.425 . S
C573 C570 1.409 . S
C573 C571 1.415 . S
C574 H564 0.930 . S
C574 C572 1.419 . S
C574 C575 1.362 . S
C575 H565 0.930 . S
C575 C568 1.409 . S
C575 C574 1.362 . S
H576 C582 0.930 . S
H577 C585 0.930 . S
H578 C586 0.930 . S
H579 C587 0.930 . S
H580 C590 0.930 . S
H581 C591 0.930 . S
C582 H576 0.930 . S
C582 C583 1.355 . S
C582 C584 1.415 . S
C583 C582 1.355 . S
C583 C585 1.419 . S
C584 C582 1.415 . S
C584 C589 1.425 . S
C584 C591 1.409 . S
C585 H577 0.930 . S
C585 C583 1.419 . S
C585 C586 1.362 . S
C586 H578 0.930 . S
C586 C585 1.362 . S
C586 C589 1.409 . S
C587 H579 0.930 . S
C587 C588 1.355 . S
C587 C589 1.415 . S
C588 C587 1.355 . S
C588 C590 1.419 . S
C589 C584 1.425 . S
C589 C586 1.409 . S
C589 C587 1.415 . S
C590 H580 0.930 . S
C590 C588 1.419 . S
C590 C591 1.362 . S
C591 H581 0.930 . S
C591 C584 1.409 . S
C591 C590 1.362 . S
H592 C598 0.930 . S
H593 C601 0.930 . S
H594 C602 0.930 . S
H595 C603 0.930 . S
H596 C606 0.930 . S
H597 C607 0.930 . S
C598 H592 0.930 . S
C598 C599 1.355 . S
C598 C600 1.415 . S
C599 C598 1.355 . S
C599 C601 1.419 . S
C600 C598 1.415 . S
C600 C605 1.425 . S
C600 C607 1.409 . S
C601 H593 0.930 . S
C601 C599 1.419 . S
C601 C602 1.362 . S
C602 H594 0.930 . S
C602 C601 1.362 . S
C602 C605 1.409 . S
C603 H595 0.930 . S
C603 C604 1.355 . S
C603 C605 1.415 . S
C604 C603 1.355 . S
C604 C606 1.419 . S
C605 C600 1.425 . S
C605 C602 1.409 . S
C605 C603 1.415 . S
C606 H596 0.930 . S
C606 C604 1.419 . S
C606 C607 1.362 . S
C607 H597 0.930 . S
C607 C600 1.409 . S
C607 C606 1.362 . S
H608 C614 0.930 . S
H609 C617 0.930 . S
H610 C618 0.930 . S
H611 C619 0.930 . S
H612 C622 0.930 . S
H613 C623 0.930 . S
C614 H608 0.930 . S
C614 C615 1.355 . S
C614 C616 1.415 . S
C615 C614 1.355 . S
C615 C617 1.419 . S
C616 C614 1.415 . S
C616 C621 1.425 . S
C616 C623 1.409 . S
C617 H609 0.930 . S
C617 C615 1.419 . S
C617 C618 1.362 . S
C618 H610 0.930 . S
C618 C617 1.362 . S
C618 C621 1.409 . S
C619 H611 0.930 . S
C619 C620 1.355 . S
C619 C621 1.415 . S
C620 C619 1.355 . S
C620 C622 1.419 . S
C621 C616 1.425 . S
C621 C618 1.409 . S
C621 C619 1.415 . S
C622 H612 0.930 . S
C622 C620 1.419 . S
C622 C623 1.362 . S
C623 H613 0.930 . S
C623 C616 1.409 . S
C623 C622 1.362 . S
H624 C630 0.930 . S
H625 C633 0.930 . S
H626 C634 0.930 . S
H627 C635 0.930 . S
H628 C638 0.930 . S
H629 C639 0.930 . S
C630 H624 0.930 . S
C630 C631 1.355 . S
C630 C632 1.415 . S
C631 C630 1.355 . S
C631 C633 1.419 . S
C632 C630 1.415 . S
C632 C637 1.425 . S
C632 C639 1.409 . S
C633 H625 0.930 . S
C633 C631 1.419 . S
C633 C634 1.362 . S
C634 H626 0.930 . S
C634 C633 1.362 . S
C634 C637 1.409 . S
C635 H627 0.930 . S
C635 C636 1.355 . S
C635 C637 1.415 . S
C636 C635 1.355 . S
C636 C638 1.419 . S
C637 C632 1.425 . S
C637 C634 1.409 . S
C637 C635 1.415 . S
C638 H628 0.930 . S
C638 C636 1.419 . S
C638 C639 1.362 . S
C639 H629 0.930 . S
C639 C632 1.409 . S
C639 C638 1.362 . S
H640 C646 0.930 . S
H641 C649 0.930 . S
H642 C650 0.930 . S
H643 C651 0.930 . S
H644 C654 0.930 . S
H645 C655 0.930 . S
C646 H640 0.930 . S
C646 C647 1.355 . S
C646 C648 1.415 . S
C647 C646 1.355 . S
C647 C649 1.419 . S
C648 C646 1.415 . S
C648 C653 1.425 . S
C648 C655 1.409 . S
C649 H641 0.930 . S
C649 C647 1.419 . S
C649 C650 1.362 . S
C650 H642 0.930 . S
C650 C649 1.362 . S
C650 C653 1.409 . S
C651 H643 0.930 . S
C651 C652 1.355 . S
C651 C653 1.415 . S
C652 C651 1.355 . S
C652 C654 1.419 . S
C653 C648 1.425 . S
C653 C650 1.409 . S
C653 C651 1.415 . S
C654 H644 0.930 . S
C654 C652 1.419 . S
C654 C655 1.362 . S
C655 H645 0.930 . S
C655 C648 1.409 . S
C655 C654 1.362 . S
H656 C662 0.930 . S
H657 C665 0.930 . S
H658 C666 0.930 . S
H659 C667 0.930 . S
H660 C670 0.930 . S
H661 C671 0.930 . S
C662 H656 0.930 . S
C662 C663 1.355 . S
C662 C664 1.415 . S
C663 C662 1.355 . S
C663 C665 1.419 . S
C664 C662 1.415 . S
C664 C669 1.425 . S
C664 C671 1.409 . S
C665 H657 0.930 . S
C665 C663 1.419 . S
C665 C666 1.362 . S
C666 H658 0.930 . S
C666 C665 1.362 . S
C666 C669 1.409 . S
C667 H659 0.930 . S
C667 C668 1.355 . S
C667 C669 1.415 . S
C668 C667 1.355 . S
C668 C670 1.419 . S
C669 C664 1.425 . S
C669 C666 1.409 . S
C669 C667 1.415 . S
C670 H660 0.930 . S
C670 C668 1.419 . S
C670 C671 1.362 . S
C671 H661 0.930 . S
C671 C664 1.409 . S
C671 C670 1.362 . S
H672 C678 0.930 . S
H673 C681 0.930 . S
H674 C682 0.930 . S
H675 C683 0.930 . S
H676 C686 0.930 . S
H677 C687 0.930 . S
C678 H672 0.930 . S
C678 C679 1.355 . S
C678 C680 1.415 . S
C679 C678 1.355 . S
C679 C681 1.419 . S
C680 C678 1.415 . S
C680 C685 1.425 . S
C680 C687 1.409 . S
C681 H673 0.930 . S
C681 C679 1.419 . S
C681 C682 1.362 . S
C682 H674 0.930 . S
C682 C681 1.362 . S
C682 C685 1.409 . S
C683 H675 0.930 . S
C683 C684 1.355 . S
C683 C685 1.415 . S
C684 C683 1.355 . S
C684 C686 1.419 . S
C685 C680 1.425 . S
C685 C682 1.409 . S
C685 C683 1.415 . S
C686 H676 0.930 . S
C686 C684 1.419 . S
C686 C687 1.362 . S
C687 H677 0.930 . S
C687 C680 1.409 . S
C687 C686 1.362 . S
H688 C694 0.930 . S
H689 C697 0.930 . S
H690 C698 0.930 . S
H691 C699 0.930 . S
H692 C702 0.930 . S
H693 C703 0.930 . S
C694 H688 0.930 . S
C694 C695 1.355 . S
C694 C696 1.415 . S
C695 C694 1.355 . S
C695 C697 1.419 . S
C696 C694 1.415 . S
C696 C701 1.425 . S
C696 C703 1.409 . S
C697 H689 0.930 . S
C697 C695 1.419 . S
C697 C698 1.362 . S
C698 H690 0.930 . S
C698 C697 1.362 . S
C698 C701 1.409 . S
C699 H691 0.930 . S
C699 C700 1.355 . S
C699 C701 1.415 . S
C700 C699 1.355 . S
C700 C702 1.419 . S
C701 C696 1.425 . S
C701 C698 1.409 . S
C701 C699 1.415 . S
C702 H692 0.930 . S
C702 C700 1.419 . S
C702 C703 1.362 . S
C703 H693 0.930 . S
C703 C696 1.409 . S
C703 C702 1.362 . S
H704 C710 0.930 . S
H705 C713 0.930 . S
H706 C714 0.930 . S
H707 C715 0.930 . S
H708 C718 0.930 . S
H709 C719 0.930 . S
C710 H704 0.930 . S
C710 C711 1.355 . S
C710 C712 1.415 . S
C711 C710 1.355 . S
C711 C713 1.419 . S
C712 C710 1.415 . S
C712 C717 1.425 . S
C712 C719 1.409 . S
C713 H705 0.930 . S
C713 C711 1.419 . S
C713 C714 1.362 . S
C714 H706 0.930 . S
C714 C713 1.362 . S
C714 C717 1.409 . S
C715 H707 0.930 . S
C715 C716 1.355 . S
C715 C717 1.415 . S
C716 C715 1.355 . S
C716 C718 1.419 . S
C717 C712 1.425 . S
C717 C714 1.409 . S
C717 C715 1.415 . S
C718 H708 0.930 . S
C718 C716 1.419 . S
C718 C719 1.362 . S
C719 H709 0.930 . S
C719 C712 1.409 . S
C719 C718 1.362 . S
H720 C726 0.930 . S
H721 C729 0.930 . S
H722 C730 0.930 . S
H723 C731 0.930 . S
H724 C734 0.930 . S
H725 C735 0.930 . S
C726 H720 0.930 . S
C726 C727 1.355 . S
C726 C728 1.415 . S
C727 C726 1.355 . S
C727 C729 1.419 . S
C728 C726 1.415 . S
C728 C733 1.425 . S
C728 C735 1.409 . S
C729 H721 0.930 . S
C729 C727 1.419 . S
C729 C730 1.362 . S
C730 H722 0.930 . S
C730 C729 1.362 . S
C730 C733 1.409 . S
C731 H723 0.930 . S
C731 C732 1.355 . S
C731 C733 1.415 . S
C732 C731 1.355 . S
C732 C734 1.419 . S
C733 C728 1.425 . S
C733 C730 1.409 . S
C733 C731 1.415 . S
C734 H724 0.930 . S
C734 C732 1.419 . S
C734 C735 1.362 . S
C735 H725 0.930 . S
C735 C728 1.409 . S
C735 C734 1.362 . S
H736 C742 0.930 . S
H737 C745 0.930 . S
H738 C746 0.930 . S
H739 C747 0.930 . S
H740 C750 0.930 . S
H741 C751 0.930 . S
C742 H736 0.930 . S
C742 C743 1.355 . S
C742 C744 1.415 . S
C743 C742 1.355 . S
C743 C745 1.419 . S
C744 C742 1.415 . S
C744 C749 1.425 . S
C744 C751 1.409 . S
C745 H737 0.930 . S
C745 C743 1.419 . S
C745 C746 1.362 . S
C746 H738 0.930 . S
C746 C745 1.362 . S
C746 C749 1.409 . S
C747 H739 0.930 . S
C747 C748 1.355 . S
C747 C749 1.415 . S
C748 C747 1.355 . S
C748 C750 1.419 . S
C749 C744 1.425 . S
C749 C746 1.409 . S
C749 C747 1.415 . S
C750 H740 0.930 . S
C750 C748 1.419 . S
C750 C751 1.362 . S
C751 H741 0.930 . S
C751 C744 1.409 . S
C751 C750 1.362 . S
H752 C758 0.930 . S
H753 C761 0.930 . S
H754 C762 0.930 . S
H755 C763 0.930 . S
H756 C766 0.930 . S
H757 C767 0.930 . S
C758 H752 0.930 . S
C758 C759 1.355 . S
C758 C760 1.415 . S
C759 C758 1.355 . S
C759 C761 1.419 . S
C760 C758 1.415 . S
C760 C765 1.425 . S
C760 C767 1.409 . S
C761 H753 0.930 . S
C761 C759 1.419 . S
C761 C762 1.362 . S
C762 H754 0.930 . S
C762 C761 1.362 . S
C762 C765 1.409 . S
C763 H755 0.930 . S
C763 C764 1.355 . S
C763 C765 1.415 . S
C764 C763 1.355 . S
C764 C766 1.419 . S
C765 C760 1.425 . S
C765 C762 1.409 . S
C765 C763 1.415 . S
C766 H756 0.930 . S
C766 C764 1.419 . S
C766 C767 1.362 . S
C767 H757 0.930 . S
C767 C760 1.409 . S
C767 C766 1.362 . S
H768 C774 0.930 . S
H769 C777 0.930 . S
H770 C778 0.930 . S
H771 C779 0.930 . S
H772 C782 0.930 . S
H773 C783 0.930 . S
C774 H768 0.930 . S
C774 C775 1.355 . S
C774 C776 1.415 . S
C775 C774 1.355 . S
C775 C777 1.419 . S
C776 C774 1.415 . S
C776 C781 1.425 . S
C776 C783 1.409 . S
C777 H769 0.930 . S
C777 C775 1.419 . S
C777 C778 1.362 . S
C778 H770 0.930 . S
C778 C777 1.362 . S
C778 C781 1.409 . S
C779 H771 0.930 . S
C779 C780 1.355 . S
C779 C781 1.415 . S
C780 C779 1.355 . S
C780 C782 1.419 . S
C781 C776 1.425 . S
C781 C778 1.409 . S
C781 C779 1.415 . S
C782 H772 0.930 . S
C782 C780 1.419 . S
C782 C783 1.362 . S
C783 H773 0.930 . S
C783 C776 1.409 . S
C783 C782 1.362 . S
H784 C790 0.930 . S
H785 C793 0.930 . S
H786 C794 0.930 . S
H787 C795 0.930 . S
H788 C798 0.930 . S
H789 C799 0.930 . S
C790 H784 0.930 . S
C790 C791 1.355 . S
C790 C792 1.415 . S
C791 C790 1.355 . S
C791 C793 1.419 . S
C792 C790 1.415 . S
C792 C797 1.425 . S
C792 C799 1.409 . S
C793 H785 0.930 . S
C793 C791 1.419 . S
C793 C794 1.362 . S
C794 H786 0.930 . S
C794 C793 1.362 . S
C794 C797 1.409 . S
C795 H787 0.930 . S
C795 C796 1.355 . S
C795 C797 1.415 . S
C796 C795 1.355 . S
C796 C798 1.419 . S
C797 C792 1.425 . S
C797 C794 1.409 . S
C797 C795 1.415 . S
C798 H788 0.930 . S
C798 C796 1.419 . S
C798 C799 1.362 . S
C799 H789 0.930 . S
C799 C792 1.409 . S
C799 C798 1.362 . S
H800 C806 0.930 . S
H801 C809 0.930 . S
H802 C810 0.930 . S
H803 C811 0.930 . S
H804 C814 0.930 . S
H805 C815 0.930 . S
C806 H800 0.930 . S
C806 C807 1.355 . S
C806 C808 1.415 . S
C807 C806 1.355 . S
C807 C809 1.419 . S
C808 C806 1.415 . S
C808 C813 1.425 . S
C808 C815 1.409 . S
C809 H801 0.930 . S
C809 C807 1.419 . S
C809 C810 1.362 . S
C810 H802 0.930 . S
C810 C809 1.362 . S
C810 C813 1.409 . S
C811 H803 0.930 . S
C811 C812 1.355 . S
C811 C813 1.415 . S
C812 C811 1.355 . S
C812 C814 1.419 . S
C813 C808 1.425 . S
C813 C810 1.409 . S
C813 C811 1.415 . S
C814 H804 0.930 . S
C814 C812 1.419 . S
C814 C815 1.362 . S
C815 H805 0.930 . S
C815 C808 1.409 . S
C815 C814 1.362 . S
H816 C822 0.930 . S
H817 C825 0.930 . S
H818 C826 0.930 . S
H819 C827 0.930 . S
H820 C830 0.930 . S
H821 C831 0.930 . S
C822 H816 0.930 . S
C822 C823 1.355 . S
C822 C824 1.415 . S
C823 C822 1.355 . S
C823 C825 1.419 . S
C824 C822 1.415 . S
C824 C829 1.425 . S
C824 C831 1.409 . S
C825 H817 0.930 . S
C825 C823 1.419 . S
C825 C826 1.362 . S
C826 H818 0.930 . S
C826 C825 1.362 . S
C826 C829 1.409 . S
C827 H819 0.930 . S
C827 C828 1.355 . S
C827 C829 1.415 . S
C828 C827 1.355 . S
C828 C830 1.419 . S
C829 C824 1.425 . S
C829 C826 1.409 . S
C829 C827 1.415 . S
C830 H820 0.930 . S
C830 C828 1.419 . S
C830 C831 1.362 . S
C831 H821 0.930 . S
C831 C824 1.409 . S
C831 C830 1.362 . S
H832 C838 0.930 . S
H833 C841 0.930 . S
H834 C842 0.930 . S
H835 C843 0.930 . S
H836 C846 0.930 . S
H837 C847 0.930 . S
C838 H832 0.930 . S
C838 C839 1.355 . S
C838 C840 1.415 . S
C839 C838 1.355 . S
C839 C841 1.419 . S
C840 C838 1.415 . S
C840 C845 1.425 . S
C840 C847 1.409 . S
C841 H833 0.930 . S
C841 C839 1.419 . S
C841 C842 1.362 . S
C842 H834 0.930 . S
C842 C841 1.362 . S
C842 C845 1.409 . S
C843 H835 0.930 . S
C843 C844 1.355 . S
C843 C845 1.415 . S
C844 C843 1.355 . S
C844 C846 1.419 . S
C845 C840 1.425 . S
C845 C842 1.409 . S
C845 C843 1.415 . S
C846 H836 0.930 . S
C846 C844 1.419 . S
C846 C847 1.362 . S
C847 H837 0.930 . S
C847 C840 1.409 . S
C847 C846 1.362 . S
H848 C854 0.930 . S
H849 C857 0.930 . S
H850 C858 0.930 . S
H851 C859 0.930 . S
H852 C862 0.930 . S
H853 C863 0.930 . S
C854 H848 0.930 . S
C854 C855 1.355 . S
C854 C856 1.415 . S
C855 C854 1.355 . S
C855 C857 1.419 . S
C856 C854 1.415 . S
C856 C861 1.425 . S
C856 C863 1.409 . S
C857 H849 0.930 . S
C857 C855 1.419 . S
C857 C858 1.362 . S
C858 H850 0.930 . S
C858 C857 1.362 . S
C858 C861 1.409 . S
C859 H851 0.930 . S
C859 C860 1.355 . S
C859 C861 1.415 . S
C860 C859 1.355 . S
C860 C862 1.419 . S
C861 C856 1.425 . S
C861 C858 1.409 . S
C861 C859 1.415 . S
C862 H852 0.930 . S
C862 C860 1.419 . S
C862 C863 1.362 . S
C863 H853 0.930 . S
C863 C856 1.409 . S
C863 C862 1.362 . S
H864 C870 0.930 . S
H865 C873 0.930 . S
H866 C874 0.930 . S
H867 C875 0.930 . S
H868 C878 0.930 . S
H869 C879 0.930 . S
C870 H864 0.930 . S
C870 C871 1.355 . S
C870 C872 1.415 . S
C871 C870 1.355 . S
C871 C873 1.419 . S
C872 C870 1.415 . S
C872 C877 1.425 . S
C872 C879 1.409 . S
C873 H865 0.930 . S
C873 C871 1.419 . S
C873 C874 1.362 . S
C874 H866 0.930 . S
C874 C873 1.362 . S
C874 C877 1.409 . S
C875 H867 0.930 . S
C875 C876 1.355 . S
C875 C877 1.415 . S
C876 C875 1.355 . S
C876 C878 1.419 . S
C877 C872 1.425 . S
C877 C874 1.409 . S
C877 C875 1.415 . S
C878 H868 0.930 . S
C878 C876 1.419 . S
C878 C879 1.362 . S
C879 H869 0.930 . S
C879 C872 1.409 . S
C879 C878 1.362 . S
H880 C886 0.930 . S
H881 C889 0.930 . S
H882 C890 0.930 . S
H883 C891 0.930 . S
H884 C894 0.930 . S
H885 C895 0.930 . S
C886 H880 0.930 . S
C886 C887 1.355 . S
C886 C888 1.415 . S
C887 C886 1.355 . S
C887 C889 1.419 . S
C888 C886 1.415 . S
C888 C893 1.425 . S
C888 C895 1.409 . S
C889 H881 0.930 . S
C889 C887 1.419 . S
C889 C890 1.362 . S
C890 H882 0.930 . S
C890 C889 1.362 . S
C890 C893 1.409 . S
C891 H883 0.930 . S
C891 C892 1.355 . S
C891 C893 1.415 . S
C892 C891 1.355 . S
C892 C894 1.419 . S
C893 C888 1.425 . S
C893 C890 1.409 . S
C893 C891 1.415 . S
C894 H884 0.930 . S
C894 C892 1.419 . S
C894 C895 1.362 . S
C895 H885 0.930 . S
C895 C888 1.409 . S
C895 C894 1.362 . S
H896 C902 0.930 . S
H897 C905 0.930 . S
H898 C906 0.930 . S
H899 C907 0.930 . S
H900 C910 0.930 . S
H901 C911 0.930 . S
C902 H896 0.930 . S
C902 C903 1.355 . S
C902 C904 1.415 . S
C903 C902 1.355 . S
C903 C905 1.419 . S
C904 C902 1.415 . S
C904 C909 1.425 . S
C904 C911 1.409 . S
C905 H897 0.930 . S
C905 C903 1.419 . S
C905 C906 1.362 . S
C906 H898 0.930 . S
C906 C905 1.362 . S
C906 C909 1.409 . S
C907 H899 0.930 . S
C907 C908 1.355 . S
C907 C909 1.415 . S
C908 C907 1.355 . S
C908 C910 1.419 . S
C909 C904 1.425 . S
C909 C906 1.409 . S
C909 C907 1.415 . S
C910 H900 0.930 . S
C910 C908 1.419 . S
C910 C911 1.362 . S
C911 H901 0.930 . S
C911 C904 1.409 . S
C911 C910 1.362 . S
H912 C918 0.930 . S
H913 C921 0.930 . S
H914 C922 0.930 . S
H915 C923 0.930 . S
H916 C926 0.930 . S
H917 C927 0.930 . S
C918 H912 0.930 . S
C918 C919 1.355 . S
C918 C920 1.415 . S
C919 C918 1.355 . S
C919 C921 1.419 . S
C920 C918 1.415 . S
C920 C925 1.425 1_455 S
C920 C927 1.409 1_455 S
C921 H913 0.930 . S
C921 C919 1.419 . S
C921 C922 1.362 . S
C922 H914 0.930 . S
C922 C921 1.362 . S
C922 C925 1.409 1_455 S
C923 H915 0.930 . S
C923 C924 1.355 . S
C923 C925 1.415 . S
C924 C923 1.355 . S
C924 C926 1.419 . S
C925 C920 1.425 1_655 S
C925 C922 1.409 1_655 S
C925 C923 1.415 . S
C926 H916 0.930 . S
C926 C924 1.419 . S
C926 C927 1.362 . S
C927 H917 0.930 . S
C927 C920 1.409 1_655 S
C927 C926 1.362 . S
H928 C934 0.930 . S
H929 C937 0.930 . S
H930 C938 0.930 . S
H931 C939 0.930 . S
H932 C942 0.930 . S
H933 C943 0.930 . S
C934 H928 0.930 . S
C934 C935 1.355 . S
C934 C936 1.415 . S
C935 C934 1.355 . S
C935 C937 1.419 . S
C936 C934 1.415 . S
C936 C941 1.425 . S
C936 C943 1.409 . S
C937 H929 0.930 . S
C937 C935 1.419 . S
C937 C938 1.362 . S
C938 H930 0.930 . S
C938 C937 1.362 . S
C938 C941 1.409 . S
C939 H931 0.930 . S
C939 C940 1.355 . S
C939 C941 1.415 . S
C940 C939 1.355 . S
C940 C942 1.419 . S
C941 C936 1.425 . S
C941 C938 1.409 . S
C941 C939 1.415 . S
C942 H932 0.930 . S
C942 C940 1.419 . S
C942 C943 1.362 . S
C943 H933 0.930 . S
C943 C936 1.409 . S
C943 C942 1.362 . S
H944 C950 0.930 . S
H945 C953 0.930 . S
H946 C954 0.930 . S
H947 C955 0.930 . S
H948 C958 0.930 . S
H949 C959 0.930 . S
C950 H944 0.930 . S
C950 C951 1.355 . S
C950 C952 1.415 . S
C951 C950 1.355 . S
C951 C953 1.419 . S
C952 C950 1.415 . S
C952 C957 1.425 . S
C952 C959 1.409 . S
C953 H945 0.930 . S
C953 C951 1.419 . S
C953 C954 1.362 . S
C954 H946 0.930 . S
C954 C953 1.362 . S
C954 C957 1.409 . S
C955 H947 0.930 . S
C955 C956 1.355 . S
C955 C957 1.415 . S
C956 C955 1.355 . S
C956 C958 1.419 . S
C957 C952 1.425 . S
C957 C954 1.409 . S
C957 C955 1.415 . S
C958 H948 0.930 . S
C958 C956 1.419 . S
C958 C959 1.362 . S
C959 H949 0.930 . S
C959 C952 1.409 . S
C959 C958 1.362 . S
H960 C966 0.930 . S
H961 C969 0.930 . S
H962 C970 0.930 . S
H963 C971 0.930 . S
H964 C974 0.930 . S
H965 C975 0.930 . S
C966 H960 0.930 . S
C966 C967 1.355 . S
C966 C968 1.415 . S
C967 C966 1.355 . S
C967 C969 1.419 . S
C968 C966 1.415 . S
C968 C973 1.425 1_565 S
C968 C975 1.409 1_565 S
C969 H961 0.930 . S
C969 C967 1.419 . S
C969 C970 1.362 . S
C970 H962 0.930 . S
C970 C969 1.362 . S
C970 C973 1.409 1_565 S
C971 H963 0.930 . S
C971 C972 1.355 . S
C971 C973 1.415 . S
C972 C971 1.355 . S
C972 C974 1.419 . S
C973 C968 1.425 1_545 S
C973 C970 1.409 1_545 S
C973 C971 1.415 . S
C974 H964 0.930 . S
C974 C972 1.419 . S
C974 C975 1.362 . S
C975 H965 0.930 . S
C975 C968 1.409 1_545 S
C975 C974 1.362 . S
H976 C982 0.930 . S
H977 C985 0.930 . S
H978 C986 0.930 . S
H979 C987 0.930 . S
H980 C990 0.930 . S
H981 C991 0.930 . S
C982 H976 0.930 . S
C982 C983 1.355 . S
C982 C984 1.415 . S
C983 C982 1.355 . S
C983 C985 1.419 . S
C984 C982 1.415 . S
C984 C989 1.425 1_655 S
C984 C991 1.409 1_655 S
C985 H977 0.930 . S
C985 C983 1.419 . S
C985 C986 1.362 . S
C986 H978 0.930 . S
C986 C985 1.362 . S
C986 C989 1.409 1_655 S
C987 H979 0.930 . S
C987 C988 1.355 . S
C987 C989 1.415 . S
C988 C987 1.355 . S
C988 C990 1.419 . S
C989 C984 1.425 1_455 S
C989 C986 1.409 1_455 S
C989 C987 1.415 . S
C990 H980 0.930 . S
C990 C988 1.419 . S
C990 C991 1.362 . S
C991 H981 0.930 . S
C991 C984 1.409 1_455 S
C991 C990 1.362 . S
H992 C998 0.930 . S
H993 C1001 0.930 . S
H994 C1002 0.930 . S
H995 C1003 0.930 . S
H996 C1006 0.930 . S
H997 C1007 0.930 . S
C998 H992 0.930 . S
C998 C999 1.355 . S
C998 C1000 1.415 . S
C999 C998 1.355 . S
C999 C1001 1.419 . S
C1000 C998 1.415 . S
C1000 C1005 1.425 . S
C1000 C1007 1.409 . S
C1001 H993 0.930 . S
C1001 C999 1.419 . S
C1001 C1002 1.362 . S
C1002 H994 0.930 . S
C1002 C1001 1.362 . S
C1002 C1005 1.409 . S
C1003 H995 0.930 . S
C1003 C1004 1.355 . S
C1003 C1005 1.415 . S
C1004 C1003 1.355 . S
C1004 C1006 1.419 . S
C1005 C1000 1.425 . S
C1005 C1002 1.409 . S
C1005 C1003 1.415 . S
C1006 H996 0.930 . S
C1006 C1004 1.419 . S
C1006 C1007 1.362 . S
C1007 H997 0.930 . S
C1007 C1000 1.409 . S
C1007 C1006 1.362 . S
H1008 C1014 0.930 . S
H1009 C1017 0.930 . S
H1010 C1018 0.930 . S
H1011 C1019 0.930 . S
H1012 C1022 0.930 . S
H1013 C1023 0.930 . S
C1014 H1008 0.930 . S
C1014 C1015 1.355 . S
C1014 C1016 1.415 . S
C1015 C1014 1.355 . S
C1015 C1017 1.419 . S
C1016 C1014 1.415 . S
C1016 C1021 1.425 . S
C1016 C1023 1.409 . S
C1017 H1009 0.930 . S
C1017 C1015 1.419 . S
C1017 C1018 1.362 . S
C1018 H1010 0.930 . S
C1018 C1017 1.362 . S
C1018 C1021 1.409 . S
C1019 H1011 0.930 . S
C1019 C1020 1.355 . S
C1019 C1021 1.415 . S
C1020 C1019 1.355 . S
C1020 C1022 1.419 . S
C1021 C1016 1.425 . S
C1021 C1018 1.409 . S
C1021 C1019 1.415 . S
C1022 H1012 0.930 . S
C1022 C1020 1.419 . S
C1022 C1023 1.362 . S
C1023 H1013 0.930 . S
C1023 C1016 1.409 . S
C1023 C1022 1.362 . S
H1024 C1030 0.930 . S
H1025 C1033 0.930 . S
H1026 C1034 0.930 . S
H1027 C1035 0.930 . S
H1028 C1038 0.930 . S
H1029 C1039 0.930 . S
C1030 H1024 0.930 . S
C1030 C1031 1.355 . S
C1030 C1032 1.415 . S
C1031 C1030 1.355 . S
C1031 C1033 1.419 . S
C1032 C1030 1.415 . S
C1032 C1037 1.425 1_545 S
C1032 C1039 1.409 1_545 S
C1033 H1025 0.930 . S
C1033 C1031 1.419 . S
C1033 C1034 1.362 . S
C1034 H1026 0.930 . S
C1034 C1033 1.362 . S
C1034 C1037 1.409 1_545 S
C1035 H1027 0.930 . S
C1035 C1036 1.355 . S
C1035 C1037 1.415 . S
C1036 C1035 1.355 . S
C1036 C1038 1.419 . S
C1037 C1032 1.425 1_565 S
C1037 C1034 1.409 1_565 S
C1037 C1035 1.415 . S
C1038 H1028 0.930 . S
C1038 C1036 1.419 . S
C1038 C1039 1.362 . S
C1039 H1029 0.930 . S
C1039 C1032 1.409 1_565 S
C1039 C1038 1.362 . S
H1040 C1046 0.930 . S
H1041 C1049 0.930 . S
H1042 C1050 0.930 . S
H1043 C1051 0.930 . S
H1044 C1054 0.930 . S
H1045 C1055 0.930 . S
C1046 H1040 0.930 . S
C1046 C1047 1.355 . S
C1046 C1048 1.415 . S
C1047 C1046 1.355 . S
C1047 C1049 1.419 . S
C1048 C1046 1.415 . S
C1048 C1053 1.425 1_554 S
C1048 C1055 1.409 1_554 S
C1049 H1041 0.930 . S
C1049 C1047 1.419 . S
C1049 C1050 1.362 . S
C1050 H1042 0.930 . S
C1050 C1049 1.362 . S
C1050 C1053 1.409 1_554 S
C1051 H1043 0.930 . S
C1051 C1052 1.355 . S
C1051 C1053 1.415 . S
C1052 C1051 1.355 . S
C1052 C1054 1.419 . S
C1053 C1048 1.425 1_556 S
C1053 C1050 1.409 1_556 S
C1053 C1051 1.415 . S
C1054 H1044 0.930 . S
C1054 C1052 1.419 . S
C1054 C1055 1.362 . S
C1055 H1045 0.930 . S
C1055 C1048 1.409 1_556 S
C1055 C1054 1.362 . S
H1056 C1062 0.930 . S
H1057 C1065 0.930 . S
H1058 C1066 0.930 . S
H1059 C1067 0.930 . S
H1060 C1070 0.930 . S
H1061 C1071 0.930 . S
C1062 H1056 0.930 . S
C1062 C1063 1.355 . S
C1062 C1064 1.415 . S
C1063 C1062 1.355 . S
C1063 C1065 1.419 . S
C1064 C1062 1.415 . S
C1064 C1069 1.425 . S
C1064 C1071 1.409 . S
C1065 H1057 0.930 . S
C1065 C1063 1.419 . S
C1065 C1066 1.362 . S
C1066 H1058 0.930 . S
C1066 C1065 1.362 . S
C1066 C1069 1.409 . S
C1067 H1059 0.930 . S
C1067 C1068 1.355 . S
C1067 C1069 1.415 . S
C1068 C1067 1.355 . S
C1068 C1070 1.419 . S
C1069 C1064 1.425 . S
C1069 C1066 1.409 . S
C1069 C1067 1.415 . S
C1070 H1060 0.930 . S
C1070 C1068 1.419 . S
C1070 C1071 1.362 . S
C1071 H1061 0.930 . S
C1071 C1064 1.409 . S
C1071 C1070 1.362 . S
H1072 C1078 0.930 . S
H1073 C1081 0.930 . S
H1074 C1082 0.930 . S
H1075 C1083 0.930 . S
H1076 C1086 0.930 . S
H1077 C1087 0.930 . S
C1078 H1072 0.930 . S
C1078 C1079 1.355 . S
C1078 C1080 1.415 . S
C1079 C1078 1.355 . S
C1079 C1081 1.419 . S
C1080 C1078 1.415 . S
C1080 C1085 1.425 . S
C1080 C1087 1.409 . S
C1081 H1073 0.930 . S
C1081 C1079 1.419 . S
C1081 C1082 1.362 . S
C1082 H1074 0.930 . S
C1082 C1081 1.362 . S
C1082 C1085 1.409 . S
C1083 H1075 0.930 . S
C1083 C1084 1.355 . S
C1083 C1085 1.415 . S
C1084 C1083 1.355 . S
C1084 C1086 1.419 . S
C1085 C1080 1.425 . S
C1085 C1082 1.409 . S
C1085 C1083 1.415 . S
C1086 H1076 0.930 . S
C1086 C1084 1.419 . S
C1086 C1087 1.362 . S
C1087 H1077 0.930 . S
C1087 C1080 1.409 . S
C1087 C1086 1.362 . S
H1088 C1094 0.930 . S
H1089 C1097 0.930 . S
H1090 C1098 0.930 . S
H1091 C1099 0.930 . S
H1092 C1102 0.930 . S
H1093 C1103 0.930 . S
C1094 H1088 0.930 . S
C1094 C1095 1.355 . S
C1094 C1096 1.415 . S
C1095 C1094 1.355 . S
C1095 C1097 1.419 . S
C1096 C1094 1.415 . S
C1096 C1101 1.425 1_556 S
C1096 C1103 1.409 1_556 S
C1097 H1089 0.930 . S
C1097 C1095 1.419 . S
C1097 C1098 1.362 . S
C1098 H1090 0.930 . S
C1098 C1097 1.362 . S
C1098 C1101 1.409 1_556 S
C1099 H1091 0.930 . S
C1099 C1100 1.355 . S
C1099 C1101 1.415 . S
C1100 C1099 1.355 . S
C1100 C1102 1.419 . S
C1101 C1096 1.425 1_554 S
C1101 C1098 1.409 1_554 S
C1101 C1099 1.415 . S
C1102 H1092 0.930 . S
C1102 C1100 1.419 . S
C1102 C1103 1.362 . S
C1103 H1093 0.930 . S
C1103 C1096 1.409 1_554 S
C1103 C1102 1.362 . S
H1104 C1110 0.930 . S
H1105 C1113 0.930 . S
H1106 C1114 0.930 . S
H1107 C1115 0.930 . S
H1108 C1118 0.930 . S
H1109 C1119 0.930 . S
C1110 H1104 0.930 . S
C1110 C1111 1.355 . S
C1110 C1112 1.415 . S
C1111 C1110 1.355 . S
C1111 C1113 1.419 . S
C1112 C1110 1.415 . S
C1112 C1117 1.425 1_655 S
C1112 C1119 1.409 1_655 S
C1113 H1105 0.930 . S
C1113 C1111 1.419 . S
C1113 C1114 1.362 . S
C1114 H1106 0.930 . S
C1114 C1113 1.362 . S
C1114 C1117 1.409 1_655 S
C1115 H1107 0.930 . S
C1115 C1116 1.355 . S
C1115 C1117 1.415 . S
C1116 C1115 1.355 . S
C1116 C1118 1.419 . S
C1117 C1112 1.425 1_455 S
C1117 C1114 1.409 1_455 S
C1117 C1115 1.415 . S
C1118 H1108 0.930 . S
C1118 C1116 1.419 . S
C1118 C1119 1.362 . S
C1119 H1109 0.930 . S
C1119 C1112 1.409 1_455 S
C1119 C1118 1.362 . S
H1120 C1126 0.930 . S
H1121 C1129 0.930 . S
H1122 C1130 0.930 . S
H1123 C1131 0.930 . S
H1124 C1134 0.930 . S
H1125 C1135 0.930 . S
C1126 H1120 0.930 . S
C1126 C1127 1.355 . S
C1126 C1128 1.415 . S
C1127 C1126 1.355 . S
C1127 C1129 1.419 . S
C1128 C1126 1.415 . S
C1128 C1133 1.425 . S
C1128 C1135 1.409 . S
C1129 H1121 0.930 . S
C1129 C1127 1.419 . S
C1129 C1130 1.362 . S
C1130 H1122 0.930 . S
C1130 C1129 1.362 . S
C1130 C1133 1.409 . S
C1131 H1123 0.930 . S
C1131 C1132 1.355 . S
C1131 C1133 1.415 . S
C1132 C1131 1.355 . S
C1132 C1134 1.419 . S
C1133 C1128 1.425 . S
C1133 C1130 1.409 . S
C1133 C1131 1.415 . S
C1134 H1124 0.930 . S
C1134 C1132 1.419 . S
C1134 C1135 1.362 . S
C1135 H1125 0.930 . S
C1135 C1128 1.409 . S
C1135 C1134 1.362 . S
H1136 C1142 0.930 . S
H1137 C1145 0.930 . S
H1138 C1146 0.930 . S
H1139 C1147 0.930 . S
H1140 C1150 0.930 . S
H1141 C1151 0.930 . S
C1142 H1136 0.930 . S
C1142 C1143 1.355 . S
C1142 C1144 1.415 . S
C1143 C1142 1.355 . S
C1143 C1145 1.419 . S
C1144 C1142 1.415 . S
C1144 C1149 1.425 . S
C1144 C1151 1.409 . S
C1145 H1137 0.930 . S
C1145 C1143 1.419 . S
C1145 C1146 1.362 . S
C1146 H1138 0.930 . S
C1146 C1145 1.362 . S
C1146 C1149 1.409 . S
C1147 H1139 0.930 . S
C1147 C1148 1.355 . S
C1147 C1149 1.415 . S
C1148 C1147 1.355 . S
C1148 C1150 1.419 . S
C1149 C1144 1.425 . S
C1149 C1146 1.409 . S
C1149 C1147 1.415 . S
C1150 H1140 0.930 . S
C1150 C1148 1.419 . S
C1150 C1151 1.362 . S
C1151 H1141 0.930 . S
C1151 C1144 1.409 . S
C1151 C1150 1.362 . S
H1152 C1158 0.930 . S
H1153 C1161 0.930 . S
H1154 C1162 0.930 . S
H1155 C1163 0.930 . S
H1156 C1166 0.930 . S
H1157 C1167 0.930 . S
C1158 H1152 0.930 . S
C1158 C1159 1.355 . S
C1158 C1160 1.415 . S
C1159 C1158 1.355 . S
C1159 C1161 1.419 . S
C1160 C1158 1.415 . S
C1160 C1165 1.425 1_565 S
C1160 C1167 1.409 1_565 S
C1161 H1153 0.930 . S
C1161 C1159 1.419 . S
C1161 C1162 1.362 . S
C1162 H1154 0.930 . S
C1162 C1161 1.362 . S
C1162 C1165 1.409 1_565 S
C1163 H1155 0.930 . S
C1163 C1164 1.355 . S
C1163 C1165 1.415 . S
C1164 C1163 1.355 . S
C1164 C1166 1.419 . S
C1165 C1160 1.425 1_545 S
C1165 C1162 1.409 1_545 S
C1165 C1163 1.415 . S
C1166 H1156 0.930 . S
C1166 C1164 1.419 . S
C1166 C1167 1.362 . S
C1167 H1157 0.930 . S
C1167 C1160 1.409 1_545 S
C1167 C1166 1.362 . S
H1168 C1174 0.930 . S
H1169 C1177 0.930 . S
H1170 C1178 0.930 . S
H1171 C1179 0.930 . S
H1172 C1182 0.930 . S
H1173 C1183 0.930 . S
C1174 H1168 0.930 . S
C1174 C1175 1.355 . S
C1174 C1176 1.415 . S
C1175 C1174 1.355 . S
C1175 C1177 1.419 . S
C1176 C1174 1.415 . S
C1176 C1181 1.425 1_655 S
C1176 C1183 1.409 1_655 S
C1177 H1169 0.930 . S
C1177 C1175 1.419 . S
C1177 C1178 1.362 . S
C1178 H1170 0.930 . S
C1178 C1177 1.362 . S
C1178 C1181 1.409 1_655 S
C1179 H1171 0.930 . S
C1179 C1180 1.355 . S
C1179 C1181 1.415 . S
C1180 C1179 1.355 . S
C1180 C1182 1.419 . S
C1181 C1176 1.425 1_455 S
C1181 C1178 1.409 1_455 S
C1181 C1179 1.415 . S
C1182 H1172 0.930 . S
C1182 C1180 1.419 . S
C1182 C1183 1.362 . S
C1183 H1173 0.930 . S
C1183 C1176 1.409 1_455 S
C1183 C1182 1.362 . S
H1184 C1190 0.930 . S
H1185 C1193 0.930 . S
H1186 C1194 0.930 . S
H1187 C1195 0.930 . S
H1188 C1198 0.930 . S
H1189 C1199 0.930 . S
C1190 H1184 0.930 . S
C1190 C1191 1.355 . S
C1190 C1192 1.415 . S
C1191 C1190 1.355 . S
C1191 C1193 1.419 . S
C1192 C1190 1.415 . S
C1192 C1197 1.425 . S
C1192 C1199 1.409 . S
C1193 H1185 0.930 . S
C1193 C1191 1.419 . S
C1193 C1194 1.362 . S
C1194 H1186 0.930 . S
C1194 C1193 1.362 . S
C1194 C1197 1.409 . S
C1195 H1187 0.930 . S
C1195 C1196 1.355 . S
C1195 C1197 1.415 . S
C1196 C1195 1.355 . S
C1196 C1198 1.419 . S
C1197 C1192 1.425 . S
C1197 C1194 1.409 . S
C1197 C1195 1.415 . S
C1198 H1188 0.930 . S
C1198 C1196 1.419 . S
C1198 C1199 1.362 . S
C1199 H1189 0.930 . S
C1199 C1192 1.409 . S
C1199 C1198 1.362 . S
H1200 C1206 0.930 . S
H1201 C1209 0.930 . S
H1202 C1210 0.930 . S
H1203 C1211 0.930 . S
H1204 C1214 0.930 . S
H1205 C1215 0.930 . S
C1206 H1200 0.930 . S
C1206 C1207 1.355 . S
C1206 C1208 1.415 . S
C1207 C1206 1.355 . S
C1207 C1209 1.419 . S
C1208 C1206 1.415 . S
C1208 C1213 1.425 . S
C1208 C1215 1.409 . S
C1209 H1201 0.930 . S
C1209 C1207 1.419 . S
C1209 C1210 1.362 . S
C1210 H1202 0.930 . S
C1210 C1209 1.362 . S
C1210 C1213 1.409 . S
C1211 H1203 0.930 . S
C1211 C1212 1.355 . S
C1211 C1213 1.415 . S
C1212 C1211 1.355 . S
C1212 C1214 1.419 . S
C1213 C1208 1.425 . S
C1213 C1210 1.409 . S
C1213 C1211 1.415 . S
C1214 H1204 0.930 . S
C1214 C1212 1.419 . S
C1214 C1215 1.362 . S
C1215 H1205 0.930 . S
C1215 C1208 1.409 . S
C1215 C1214 1.362 . S
H1216 C1222 0.930 . S
H1217 C1225 0.930 . S
H1218 C1226 0.930 . S
H1219 C1227 0.930 . S
H1220 C1230 0.930 . S
H1221 C1231 0.930 . S
C1222 H1216 0.930 . S
C1222 C1223 1.355 . S
C1222 C1224 1.415 . S
C1223 C1222 1.355 . S
C1223 C1225 1.419 . S
C1224 C1222 1.415 . S
C1224 C1229 1.425 1_545 S
C1224 C1231 1.409 1_545 S
C1225 H1217 0.930 . S
C1225 C1223 1.419 . S
C1225 C1226 1.362 . S
C1226 H1218 0.930 . S
C1226 C1225 1.362 . S
C1226 C1229 1.409 1_545 S
C1227 H1219 0.930 . S
C1227 C1228 1.355 . S
C1227 C1229 1.415 . S
C1228 C1227 1.355 . S
C1228 C1230 1.419 . S
C1229 C1224 1.425 1_565 S
C1229 C1226 1.409 1_565 S
C1229 C1227 1.415 . S
C1230 H1220 0.930 . S
C1230 C1228 1.419 . S
C1230 C1231 1.362 . S
C1231 H1221 0.930 . S
C1231 C1224 1.409 1_565 S
C1231 C1230 1.362 . S
H1232 C1238 0.930 . S
H1233 C1241 0.930 . S
H1234 C1242 0.930 . S
H1235 C1243 0.930 . S
H1236 C1246 0.930 . S
H1237 C1247 0.930 . S
C1238 H1232 0.930 . S
C1238 C1239 1.355 . S
C1238 C1240 1.415 . S
C1239 C1238 1.355 . S
C1239 C1241 1.419 . S
C1240 C1238 1.415 . S
C1240 C1245 1.425 1_554 S
C1240 C1247 1.409 1_554 S
C1241 H1233 0.930 . S
C1241 C1239 1.419 . S
C1241 C1242 1.362 . S
C1242 H1234 0.930 . S
C1242 C1241 1.362 . S
C1242 C1245 1.409 1_554 S
C1243 H1235 0.930 . S
C1243 C1244 1.355 . S
C1243 C1245 1.415 . S
C1244 C1243 1.355 . S
C1244 C1246 1.419 . S
C1245 C1240 1.425 1_556 S
C1245 C1242 1.409 1_556 S
C1245 C1243 1.415 . S
C1246 H1236 0.930 . S
C1246 C1244 1.419 . S
C1246 C1247 1.362 . S
C1247 H1237 0.930 . S
C1247 C1240 1.409 1_556 S
C1247 C1246 1.362 . S
H1248 C1254 0.930 . S
H1249 C1257 0.930 . S
H1250 C1258 0.930 . S
H1251 C1259 0.930 . S
H1252 C1262 0.930 . S
H1253 C1263 0.930 . S
C1254 H1248 0.930 . S
C1254 C1255 1.355 . S
C1254 C1256 1.415 . S
C1255 C1254 1.355 . S
C1255 C1257 1.419 . S
C1256 C1254 1.415 . S
C1256 C1261 1.425 . S
C1256 C1263 1.409 . S
C1257 H1249 0.930 . S
C1257 C1255 1.419 . S
C1257 C1258 1.362 . S
C1258 H1250 0.930 . S
C1258 C1257 1.362 . S
C1258 C1261 1.409 . S
C1259 H1251 0.930 . S
C1259 C1260 1.355 . S
C1259 C1261 1.415 . S
C1260 C1259 1.355 . S
C1260 C1262 1.419 . S
C1261 C1256 1.425 . S
C1261 C1258 1.409 . S
C1261 C1259 1.415 . S
C1262 H1252 0.930 . S
C1262 C1260 1.419 . S
C1262 C1263 1.362 . S
C1263 H1253 0.930 . S
C1263 C1256 1.409 . S
C1263 C1262 1.362 . S
H1264 C1270 0.930 . S
H1265 C1273 0.930 . S
H1266 C1274 0.930 . S
H1267 C1275 0.930 . S
H1268 C1278 0.930 . S
H1269 C1279 0.930 . S
C1270 H1264 0.930 . S
C1270 C1271 1.355 . S
C1270 C1272 1.415 . S
C1271 C1270 1.355 . S
C1271 C1273 1.419 . S
C1272 C1270 1.415 . S
C1272 C1277 1.425 . S
C1272 C1279 1.409 . S
C1273 H1265 0.930 . S
C1273 C1271 1.419 . S
C1273 C1274 1.362 . S
C1274 H1266 0.930 . S
C1274 C1273 1.362 . S
C1274 C1277 1.409 . S
C1275 H1267 0.930 . S
C1275 C1276 1.355 . S
C1275 C1277 1.415 . S
C1276 C1275 1.355 . S
C1276 C1278 1.419 . S
C1277 C1272 1.425 . S
C1277 C1274 1.409 . S
C1277 C1275 1.415 . S
C1278 H1268 0.930 . S
C1278 C1276 1.419 . S
C1278 C1279 1.362 . S
C1279 H1269 0.930 . S
C1279 C1272 1.409 . S
C1279 C1278 1.362 . S
H1280 C1286 0.930 . S
H1281 C1289 0.930 . S
H1282 C1290 0.930 . S
H1283 C1291 0.930 . S
H1284 C1294 0.930 . S
H1285 C1295 0.930 . S
C1286 H1280 0.930 . S
C1286 C1287 1.355 . S
C1286 C1288 1.415 . S
C1287 C1286 1.355 . S
C1287 C1289 1.419 . S
C1288 C1286 1.415 . S
C1288 C1293 1.425 1_554 S
C1288 C1295 1.409 1_554 S
C1289 H1281 0.930 . S
C1289 C1287 1.419 . S
C1289 C1290 1.362 . S
C1290 H1282 0.930 . S
C1290 C1289 1.362 . S
C1290 C1293 1.409 1_554 S
C1291 H1283 0.930 . S
C1291 C1292 1.355 . S
C1291 C1293 1.415 . S
C1292 C1291 1.355 . S
C1292 C1294 1.419 . S
C1293 C1288 1.425 1_556 S
C1293 C1290 1.409 1_556 S
C1293 C1291 1.415 . S
C1294 H1284 0.930 . S
C1294 C1292 1.419 . S
C1294 C1295 1.362 . S
C1295 H1285 0.930 . S
C1295 C1288 1.409 1_556 S
C1295 C1294 1.362 . S
H1296 C1302 0.930 . S
H1297 C1305 0.930 . S
H1298 C1306 0.930 . S
H1299 C1307 0.930 . S
H1300 C1310 0.930 . S
H1301 C1311 0.930 . S
C1302 H1296 0.930 . S
C1302 C1303 1.355 . S
C1302 C1304 1.415 . S
C1303 C1302 1.355 . S
C1303 C1305 1.419 . S
C1304 C1302 1.415 . S
C1304 C1309 1.425 . S
C1304 C1311 1.409 . S
C1305 H1297 0.930 . S
C1305 C1303 1.419 . S
C1305 C1306 1.362 . S
C1306 H1298 0.930 . S
C1306 C1305 1.362 . S
C1306 C1309 1.409 . S
C1307 H1299 0.930 . S
C1307 C1308 1.355 . S
C1307 C1309 1.415 . S
C1308 C1307 1.355 . S
C1308 C1310 1.419 . S
C1309 C1304 1.425 . S
C1309 C1306 1.409 . S
C1309 C1307 1.415 . S
C1310 H1300 0.930 . S
C1310 C1308 1.419 . S
C1310 C1311 1.362 . S
C1311 H1301 0.930 . S
C1311 C1304 1.409 . S
C1311 C1310 1.362 . S
H1312 C1318 0.930 . S
H1313 C1321 0.930 . S
H1314 C1322 0.930 . S
H1315 C1323 0.930 . S
H1316 C1326 0.930 . S
H1317 C1327 0.930 . S
C1318 H1312 0.930 . S
C1318 C1319 1.355 . S
C1318 C1320 1.415 . S
C1319 C1318 1.355 . S
C1319 C1321 1.419 . S
C1320 C1318 1.415 . S
C1320 C1325 1.425 . S
C1320 C1327 1.409 . S
C1321 H1313 0.930 . S
C1321 C1319 1.419 . S
C1321 C1322 1.362 . S
C1322 H1314 0.930 . S
C1322 C1321 1.362 . S
C1322 C1325 1.409 . S
C1323 H1315 0.930 . S
C1323 C1324 1.355 . S
C1323 C1325 1.415 . S
C1324 C1323 1.355 . S
C1324 C1326 1.419 . S
C1325 C1320 1.425 . S
C1325 C1322 1.409 . S
C1325 C1323 1.415 . S
C1326 H1316 0.930 . S
C1326 C1324 1.419 . S
C1326 C1327 1.362 . S
C1327 H1317 0.930 . S
C1327 C1320 1.409 . S
C1327 C1326 1.362 . S
H1328 C1334 0.930 . S
H1329 C1337 0.930 . S
H1330 C1338 0.930 . S
H1331 C1339 0.930 . S
H1332 C1342 0.930 . S
H1333 C1343 0.930 . S
C1334 H1328 0.930 . S
C1334 C1335 1.355 . S
C1334 C1336 1.415 . S
C1335 C1334 1.355 . S
C1335 C1337 1.419 . S
C1336 C1334 1.415 . S
C1336 C1341 1.425 . S
C1336 C1343 1.409 . S
C1337 H1329 0.930 . S
C1337 C1335 1.419 . S
C1337 C1338 1.362 . S
C1338 H1330 0.930 . S
C1338 C1337 1.362 . S
C1338 C1341 1.409 . S
C1339 H1331 0.930 . S
C1339 C1340 1.355 . S
C1339 C1341 1.415 . S
C1340 C1339 1.355 . S
C1340 C1342 1.419 . S
C1341 C1336 1.425 . S
C1341 C1338 1.409 . S
C1341 C1339 1.415 . S
C1342 H1332 0.930 . S
C1342 C1340 1.419 . S
C1342 C1343 1.362 . S
C1343 H1333 0.930 . S
C1343 C1336 1.409 . S
C1343 C1342 1.362 . S
H1344 C1350 0.930 . S
H1345 C1353 0.930 . S
H1346 C1354 0.930 . S
H1347 C1355 0.930 . S
H1348 C1358 0.930 . S
H1349 C1359 0.930 . S
C1350 H1344 0.930 . S
C1350 C1351 1.355 . S
C1350 C1352 1.415 . S
C1351 C1350 1.355 . S
C1351 C1353 1.419 . S
C1352 C1350 1.415 . S
C1352 C1357 1.425 . S
C1352 C1359 1.409 . S
C1353 H1345 0.930 . S
C1353 C1351 1.419 . S
C1353 C1354 1.362 . S
C1354 H1346 0.930 . S
C1354 C1353 1.362 . S
C1354 C1357 1.409 . S
C1355 H1347 0.930 . S
C1355 C1356 1.355 . S
C1355 C1357 1.415 . S
C1356 C1355 1.355 . S
C1356 C1358 1.419 . S
C1357 C1352 1.425 . S
C1357 C1354 1.409 . S
C1357 C1355 1.415 . S
C1358 H1348 0.930 . S
C1358 C1356 1.419 . S
C1358 C1359 1.362 . S
C1359 H1349 0.930 . S
C1359 C1352 1.409 . S
C1359 C1358 1.362 . S
H1360 C1366 0.930 . S
H1361 C1369 0.930 . S
H1362 C1370 0.930 . S
H1363 C1371 0.930 . S
H1364 C1374 0.930 . S
H1365 C1375 0.930 . S
C1366 H1360 0.930 . S
C1366 C1367 1.355 . S
C1366 C1368 1.415 . S
C1367 C1366 1.355 . S
C1367 C1369 1.419 . S
C1368 C1366 1.415 . S
C1368 C1373 1.425 . S
C1368 C1375 1.409 . S
C1369 H1361 0.930 . S
C1369 C1367 1.419 . S
C1369 C1370 1.362 . S
C1370 H1362 0.930 . S
C1370 C1369 1.362 . S
C1370 C1373 1.409 . S
C1371 H1363 0.930 . S
C1371 C1372 1.355 . S
C1371 C1373 1.415 . S
C1372 C1371 1.355 . S
C1372 C1374 1.419 . S
C1373 C1368 1.425 . S
C1373 C1370 1.409 . S
C1373 C1371 1.415 . S
C1374 H1364 0.930 . S
C1374 C1372 1.419 . S
C1374 C1375 1.362 . S
C1375 H1365 0.930 . S
C1375 C1368 1.409 . S
C1375 C1374 1.362 . S
H1376 C1382 0.930 . S
H1377 C1385 0.930 . S
H1378 C1386 0.930 . S
H1379 C1387 0.930 . S
H1380 C1390 0.930 . S
H1381 C1391 0.930 . S
C1382 H1376 0.930 . S
C1382 C1383 1.355 . S
C1382 C1384 1.415 . S
C1383 C1382 1.355 . S
C1383 C1385 1.419 . S
C1384 C1382 1.415 . S
C1384 C1389 1.425 . S
C1384 C1391 1.409 . S
C1385 H1377 0.930 . S
C1385 C1383 1.419 . S
C1385 C1386 1.362 . S
C1386 H1378 0.930 . S
C1386 C1385 1.362 . S
C1386 C1389 1.409 . S
C1387 H1379 0.930 . S
C1387 C1388 1.355 . S
C1387 C1389 1.415 . S
C1388 C1387 1.355 . S
C1388 C1390 1.419 . S
C1389 C1384 1.425 . S
C1389 C1386 1.409 . S
C1389 C1387 1.415 . S
C1390 H1380 0.930 . S
C1390 C1388 1.419 . S
C1390 C1391 1.362 . S
C1391 H1381 0.930 . S
C1391 C1384 1.409 . S
C1391 C1390 1.362 . S
H1392 C1398 0.930 . S
H1393 C1401 0.930 . S
H1394 C1402 0.930 . S
H1395 C1403 0.930 . S
H1396 C1406 0.930 . S
H1397 C1407 0.930 . S
C1398 H1392 0.930 . S
C1398 C1399 1.355 . S
C1398 C1400 1.415 . S
C1399 C1398 1.355 . S
C1399 C1401 1.419 . S
C1400 C1398 1.415 . S
C1400 C1405 1.425 . S
C1400 C1407 1.409 . S
C1401 H1393 0.930 . S
C1401 C1399 1.419 . S
C1401 C1402 1.362 . S
C1402 H1394 0.930 . S
C1402 C1401 1.362 . S
C1402 C1405 1.409 . S
C1403 H1395 0.930 . S
C1403 C1404 1.355 . S
C1403 C1405 1.415 . S
C1404 C1403 1.355 . S
C1404 C1406 1.419 . S
C1405 C1400 1.425 . S
C1405 C1402 1.409 . S
C1405 C1403 1.415 . S
C1406 H1396 0.930 . S
C1406 C1404 1.419 . S
C1406 C1407 1.362 . S
C1407 H1397 0.930 . S
C1407 C1400 1.409 . S
C1407 C1406 1.362 . S
H1408 C1414 0.930 . S
H1409 C1417 0.930 . S
H1410 C1418 0.930 . S
H1411 C1419 0.930 . S
H1412 C1422 0.930 . S
H1413 C1423 0.930 . S
C1414 H1408 0.930 . S
C1414 C1415 1.355 . S
C1414 C1416 1.415 . S
C1415 C1414 1.355 . S
C1415 C1417 1.419 . S
C1416 C1414 1.415 . S
C1416 C1421 1.425 . S
C1416 C1423 1.409 . S
C1417 H1409 0.930 . S
C1417 C1415 1.419 . S
C1417 C1418 1.362 . S
C1418 H1410 0.930 . S
C1418 C1417 1.362 . S
C1418 C1421 1.409 . S
C1419 H1411 0.930 . S
C1419 C1420 1.355 . S
C1419 C1421 1.415 . S
C1420 C1419 1.355 . S
C1420 C1422 1.419 . S
C1421 C1416 1.425 . S
C1421 C1418 1.409 . S
C1421 C1419 1.415 . S
C1422 H1412 0.930 . S
C1422 C1420 1.419 . S
C1422 C1423 1.362 . S
C1423 H1413 0.930 . S
C1423 C1416 1.409 . S
C1423 C1422 1.362 . S
H1424 C1430 0.930 . S
H1425 C1433 0.930 . S
H1426 C1434 0.930 . S
H1427 C1435 0.930 . S
H1428 C1438 0.930 . S
H1429 C1439 0.930 . S
C1430 H1424 0.930 . S
C1430 C1431 1.355 . S
C1430 C1432 1.415 . S
C1431 C1430 1.355 . S
C1431 C1433 1.419 . S
C1432 C1430 1.415 . S
C1432 C1437 1.425 . S
C1432 C1439 1.409 . S
C1433 H1425 0.930 . S
C1433 C1431 1.419 . S
C1433 C1434 1.362 . S
C1434 H1426 0.930 . S
C1434 C1433 1.362 . S
C1434 C1437 1.409 . S
C1435 H1427 0.930 . S
C1435 C1436 1.355 . S
C1435 C1437 1.415 . S
C1436 C1435 1.355 . S
C1436 C1438 1.419 . S
C1437 C1432 1.425 . S
C1437 C1434 1.409 . S
C1437 C1435 1.415 . S
C1438 H1428 0.930 . S
C1438 C1436 1.419 . S
C1438 C1439 1.362 . S
C1439 H1429 0.930 . S
C1439 C1432 1.409 . S
C1439 C1438 1.362 . S
H1440 C1446 0.930 . S
H1441 C1449 0.930 . S
H1442 C1450 0.930 . S
H1443 C1451 0.930 . S
H1444 C1454 0.930 . S
H1445 C1455 0.930 . S
C1446 H1440 0.930 . S
C1446 C1447 1.355 . S
C1446 C1448 1.415 . S
C1447 C1446 1.355 . S
C1447 C1449 1.419 . S
C1448 C1446 1.415 . S
C1448 C1453 1.425 . S
C1448 C1455 1.409 . S
C1449 H1441 0.930 . S
C1449 C1447 1.419 . S
C1449 C1450 1.362 . S
C1450 H1442 0.930 . S
C1450 C1449 1.362 . S
C1450 C1453 1.409 . S
C1451 H1443 0.930 . S
C1451 C1452 1.355 . S
C1451 C1453 1.415 . S
C1452 C1451 1.355 . S
C1452 C1454 1.419 . S
C1453 C1448 1.425 . S
C1453 C1450 1.409 . S
C1453 C1451 1.415 . S
C1454 H1444 0.930 . S
C1454 C1452 1.419 . S
C1454 C1455 1.362 . S
C1455 H1445 0.930 . S
C1455 C1448 1.409 . S
C1455 C1454 1.362 . S
H1456 C1462 0.930 . S
H1457 C1465 0.930 . S
H1458 C1466 0.930 . S
H1459 C1467 0.930 . S
H1460 C1470 0.930 . S
H1461 C1471 0.930 . S
C1462 H1456 0.930 . S
C1462 C1463 1.355 . S
C1462 C1464 1.415 . S
C1463 C1462 1.355 . S
C1463 C1465 1.419 . S
C1464 C1462 1.415 . S
C1464 C1469 1.425 . S
C1464 C1471 1.409 . S
C1465 H1457 0.930 . S
C1465 C1463 1.419 . S
C1465 C1466 1.362 . S
C1466 H1458 0.930 . S
C1466 C1465 1.362 . S
C1466 C1469 1.409 . S
C1467 H1459 0.930 . S
C1467 C1468 1.355 . S
C1467 C1469 1.415 . S
C1468 C1467 1.355 . S
C1468 C1470 1.419 . S
C1469 C1464 1.425 . S
C1469 C1466 1.409 . S
C1469 C1467 1.415 . S
C1470 H1460 0.930 . S
C1470 C1468 1.419 . S
C1470 C1471 1.362 . S
C1471 H1461 0.930 . S
C1471 C1464 1.409 . S
C1471 C1470 1.362 . S
H1472 C1478 0.930 . S
H1473 C1481 0.930 . S
H1474 C1482 0.930 . S
H1475 C1483 0.930 . S
H1476 C1486 0.930 . S
H1477 C1487 0.930 . S
C1478 H1472 0.930 . S
C1478 C1479 1.355 . S
C1478 C1480 1.415 . S
C1479 C1478 1.355 . S
C1479 C1481 1.419 . S
C1480 C1478 1.415 . S
C1480 C1485 1.425 . S
C1480 C1487 1.409 . S
C1481 H1473 0.930 . S
C1481 C1479 1.419 . S
C1481 C1482 1.362 . S
C1482 H1474 0.930 . S
C1482 C1481 1.362 . S
C1482 C1485 1.409 . S
C1483 H1475 0.930 . S
C1483 C1484 1.355 . S
C1483 C1485 1.415 . S
C1484 C1483 1.355 . S
C1484 C1486 1.419 . S
C1485 C1480 1.425 . S
C1485 C1482 1.409 . S
C1485 C1483 1.415 . S
C1486 H1476 0.930 . S
C1486 C1484 1.419 . S
C1486 C1487 1.362 . S
C1487 H1477 0.930 . S
C1487 C1480 1.409 . S
C1487 C1486 1.362 . S
H1488 C1494 0.930 . S
H1489 C1497 0.930 . S
H1490 C1498 0.930 . S
H1491 C1499 0.930 . S
H1492 C1502 0.930 . S
H1493 C1503 0.930 . S
C1494 H1488 0.930 . S
C1494 C1495 1.355 . S
C1494 C1496 1.415 . S
C1495 C1494 1.355 . S
C1495 C1497 1.419 . S
C1496 C1494 1.415 . S
C1496 C1501 1.425 . S
C1496 C1503 1.409 . S
C1497 H1489 0.930 . S
C1497 C1495 1.419 . S
C1497 C1498 1.362 . S
C1498 H1490 0.930 . S
C1498 C1497 1.362 . S
C1498 C1501 1.409 . S
C1499 H1491 0.930 . S
C1499 C1500 1.355 . S
C1499 C1501 1.415 . S
C1500 C1499 1.355 . S
C1500 C1502 1.419 . S
C1501 C1496 1.425 . S
C1501 C1498 1.409 . S
C1501 C1499 1.415 . S
C1502 H1492 0.930 . S
C1502 C1500 1.419 . S
C1502 C1503 1.362 . S
C1503 H1493 0.930 . S
C1503 C1496 1.409 . S
C1503 C1502 1.362 . S
H1504 C1510 0.930 . S
H1505 C1513 0.930 . S
H1506 C1514 0.930 . S
H1507 C1515 0.930 . S
H1508 C1518 0.930 . S
H1509 C1519 0.930 . S
C1510 H1504 0.930 . S
C1510 C1511 1.355 . S
C1510 C1512 1.415 . S
C1511 C1510 1.355 . S
C1511 C1513 1.419 . S
C1512 C1510 1.415 . S
C1512 C1517 1.425 . S
C1512 C1519 1.409 . S
C1513 H1505 0.930 . S
C1513 C1511 1.419 . S
C1513 C1514 1.362 . S
C1514 H1506 0.930 . S
C1514 C1513 1.362 . S
C1514 C1517 1.409 . S
C1515 H1507 0.930 . S
C1515 C1516 1.355 . S
C1515 C1517 1.415 . S
C1516 C1515 1.355 . S
C1516 C1518 1.419 . S
C1517 C1512 1.425 . S
C1517 C1514 1.409 . S
C1517 C1515 1.415 . S
C1518 H1508 0.930 . S
C1518 C1516 1.419 . S
C1518 C1519 1.362 . S
C1519 H1509 0.930 . S
C1519 C1512 1.409 . S
C1519 C1518 1.362 . S
H1520 C1526 0.930 . S
H1521 C1529 0.930 . S
H1522 C1530 0.930 . S
H1523 C1531 0.930 . S
H1524 C1534 0.930 . S
H1525 C1535 0.930 . S
C1526 H1520 0.930 . S
C1526 C1527 1.355 . S
C1526 C1528 1.415 . S
C1527 C1526 1.355 . S
C1527 C1529 1.419 . S
C1528 C1526 1.415 . S
C1528 C1533 1.425 . S
C1528 C1535 1.409 . S
C1529 H1521 0.930 . S
C1529 C1527 1.419 . S
C1529 C1530 1.362 . S
C1530 H1522 0.930 . S
C1530 C1529 1.362 . S
C1530 C1533 1.409 . S
C1531 H1523 0.930 . S
C1531 C1532 1.355 . S
C1531 C1533 1.415 . S
C1532 C1531 1.355 . S
C1532 C1534 1.419 . S
C1533 C1528 1.425 . S
C1533 C1530 1.409 . S
C1533 C1531 1.415 . S
C1534 H1524 0.930 . S
C1534 C1532 1.419 . S
C1534 C1535 1.362 . S
C1535 H1525 0.930 . S
C1535 C1528 1.409 . S
C1535 C1534 1.362 . S
H1536 C1542 0.930 . S
H1537 C1545 0.930 . S
H1538 C1546 0.930 . S
H1539 C1547 0.930 . S
H1540 C1550 0.930 . S
H1541 C1551 0.930 . S
C1542 H1536 0.930 . S
C1542 C1543 1.355 . S
C1542 C1544 1.415 . S
C1543 C1542 1.355 . S
C1543 C1545 1.419 . S
C1544 C1542 1.415 . S
C1544 C1549 1.425 . S
C1544 C1551 1.409 . S
C1545 H1537 0.930 . S
C1545 C1543 1.419 . S
C1545 C1546 1.362 . S
C1546 H1538 0.930 . S
C1546 C1545 1.362 . S
C1546 C1549 1.409 . S
C1547 H1539 0.930 . S
C1547 C1548 1.355 . S
C1547 C1549 1.415 . S
C1548 C1547 1.355 . S
C1548 C1550 1.419 . S
C1549 C1544 1.425 . S
C1549 C1546 1.409 . S
C1549 C1547 1.415 . S
C1550 H1540 0.930 . S
C1550 C1548 1.419 . S
C1550 C1551 1.362 . S
C1551 H1541 0.930 . S
C1551 C1544 1.409 . S
C1551 C1550 1.362 . S
H1552 C1558 0.930 . S
H1553 C1561 0.930 . S
H1554 C1562 0.930 . S
H1555 C1563 0.930 . S
H1556 C1566 0.930 . S
H1557 C1567 0.930 . S
C1558 H1552 0.930 . S
C1558 C1559 1.355 . S
C1558 C1560 1.415 . S
C1559 C1558 1.355 . S
C1559 C1561 1.419 . S
C1560 C1558 1.415 . S
C1560 C1565 1.425 . S
C1560 C1567 1.409 . S
C1561 H1553 0.930 . S
C1561 C1559 1.419 . S
C1561 C1562 1.362 . S
C1562 H1554 0.930 . S
C1562 C1561 1.362 . S
C1562 C1565 1.409 . S
C1563 H1555 0.930 . S
C1563 C1564 1.355 . S
C1563 C1565 1.415 . S
C1564 C1563 1.355 . S
C1564 C1566 1.419 . S
C1565 C1560 1.425 . S
C1565 C1562 1.409 . S
C1565 C1563 1.415 . S
C1566 H1556 0.930 . S
C1566 C1564 1.419 . S
C1566 C1567 1.362 . S
C1567 H1557 0.930 . S
C1567 C1560 1.409 . S
C1567 C1566 1.362 . S
H1568 C1574 0.930 . S
H1569 C1577 0.930 . S
H1570 C1578 0.930 . S
H1571 C1579 0.930 . S
H1572 C1582 0.930 . S
H1573 C1583 0.930 . S
C1574 H1568 0.930 . S
C1574 C1575 1.355 . S
C1574 C1576 1.415 . S
C1575 C1574 1.355 . S
C1575 C1577 1.419 . S
C1576 C1574 1.415 . S
C1576 C1581 1.425 . S
C1576 C1583 1.409 . S
C1577 H1569 0.930 . S
C1577 C1575 1.419 . S
C1577 C1578 1.362 . S
C1578 H1570 0.930 . S
C1578 C1577 1.362 . S
C1578 C1581 1.409 . S
C1579 H1571 0.930 . S
C1579 C1580 1.355 . S
C1579 C1581 1.415 . S
C1580 C1579 1.355 . S
C1580 C1582 1.419 . S
C1581 C1576 1.425 . S
C1581 C1578 1.409 . S
C1581 C1579 1.415 . S
C1582 H1572 0.930 . S
C1582 C1580 1.419 . S
C1582 C1583 1.362 . S
C1583 H1573 0.930 . S
C1583 C1576 1.409 . S
C1583 C1582 1.362 . S
H1584 C1590 0.930 . S
H1585 C1593 0.930 . S
H1586 C1594 0.930 . S
H1587 C1595 0.930 . S
H1588 C1598 0.930 . S
H1589 C1599 0.930 . S
C1590 H1584 0.930 . S
C1590 C1591 1.355 . S
C1590 C1592 1.415 . S
C1591 C1590 1.355 . S
C1591 C1593 1.419 . S
C1592 C1590 1.415 . S
C1592 C1597 1.425 . S
C1592 C1599 1.409 . S
C1593 H1585 0.930 . S
C1593 C1591 1.419 . S
C1593 C1594 1.362 . S
C1594 H1586 0.930 . S
C1594 C1593 1.362 . S
C1594 C1597 1.409 . S
C1595 H1587 0.930 . S
C1595 C1596 1.355 . S
C1595 C1597 1.415 . S
C1596 C1595 1.355 . S
C1596 C1598 1.419 . S
C1597 C1592 1.425 . S
C1597 C1594 1.409 . S
C1597 C1595 1.415 . S
C1598 H1588 0.930 . S
C1598 C1596 1.419 . S
C1598 C1599 1.362 . S
C1599 H1589 0.930 . S
C1599 C1592 1.409 . S
C1599 C1598 1.362 . S
H1600 C1606 0.930 . S
H1601 C1609 0.930 . S
H1602 C1610 0.930 . S
H1603 C1611 0.930 . S
H1604 C1614 0.930 . S
H1605 C1615 0.930 . S
C1606 H1600 0.930 . S
C1606 C1607 1.355 . S
C1606 C1608 1.415 . S
C1607 C1606 1.355 . S
C1607 C1609 1.419 . S
C1608 C1606 1.415 . S
C1608 C1613 1.425 . S
C1608 C1615 1.409 . S
C1609 H1601 0.930 . S
C1609 C1607 1.419 . S
C1609 C1610 1.362 . S
C1610 H1602 0.930 . S
C1610 C1609 1.362 . S
C1610 C1613 1.409 . S
C1611 H1603 0.930 . S
C1611 C1612 1.355 . S
C1611 C1613 1.415 . S
C1612 C1611 1.355 . S
C1612 C1614 1.419 . S
C1613 C1608 1.425 . S
C1613 C1610 1.409 . S
C1613 C1611 1.415 . S
C1614 H1604 0.930 . S
C1614 C1612 1.419 . S
C1614 C1615 1.362 . S
C1615 H1605 0.930 . S
C1615 C1608 1.409 . S
C1615 C1614 1.362 . S
H1616 C1622 0.930 . S
H1617 C1625 0.930 . S
H1618 C1626 0.930 . S
H1619 C1627 0.930 . S
H1620 C1630 0.930 . S
H1621 C1631 0.930 . S
C1622 H1616 0.930 . S
C1622 C1623 1.355 . S
C1622 C1624 1.415 . S
C1623 C1622 1.355 . S
C1623 C1625 1.419 . S
C1624 C1622 1.415 . S
C1624 C1629 1.425 . S
C1624 C1631 1.409 . S
C1625 H1617 0.930 . S
C1625 C1623 1.419 . S
C1625 C1626 1.362 . S
C1626 H1618 0.930 . S
C1626 C1625 1.362 . S
C1626 C1629 1.409 . S
C1627 H1619 0.930 . S
C1627 C1628 1.355 . S
C1627 C1629 1.415 . S
C1628 C1627 1.355 . S
C1628 C1630 1.419 . S
C1629 C1624 1.425 . S
C1629 C1626 1.409 . S
C1629 C1627 1.415 . S
C1630 H1620 0.930 . S
C1630 C1628 1.419 . S
C1630 C1631 1.362 . S
C1631 H1621 0.930 . S
C1631 C1624 1.409 . S
C1631 C1630 1.362 . S
H1632 C1638 0.930 . S
H1633 C1641 0.930 . S
H1634 C1642 0.930 . S
H1635 C1643 0.930 . S
H1636 C1646 0.930 . S
H1637 C1647 0.930 . S
C1638 H1632 0.930 . S
C1638 C1639 1.355 . S
C1638 C1640 1.415 . S
C1639 C1638 1.355 . S
C1639 C1641 1.419 . S
C1640 C1638 1.415 . S
C1640 C1645 1.425 . S
C1640 C1647 1.409 . S
C1641 H1633 0.930 . S
C1641 C1639 1.419 . S
C1641 C1642 1.362 . S
C1642 H1634 0.930 . S
C1642 C1641 1.362 . S
C1642 C1645 1.409 . S
C1643 H1635 0.930 . S
C1643 C1644 1.355 . S
C1643 C1645 1.415 . S
C1644 C1643 1.355 . S
C1644 C1646 1.419 . S
C1645 C1640 1.425 . S
C1645 C1642 1.409 . S
C1645 C1643 1.415 . S
C1646 H1636 0.930 . S
C1646 C1644 1.419 . S
C1646 C1647 1.362 . S
C1647 H1637 0.930 . S
C1647 C1640 1.409 . S
C1647 C1646 1.362 . S
H1648 C1654 0.930 . S
H1649 C1657 0.930 . S
H1650 C1658 0.930 . S
H1651 C1659 0.930 . S
H1652 C1662 0.930 . S
H1653 C1663 0.930 . S
C1654 H1648 0.930 . S
C1654 C1655 1.355 . S
C1654 C1656 1.415 . S
C1655 C1654 1.355 . S
C1655 C1657 1.419 . S
C1656 C1654 1.415 . S
C1656 C1661 1.425 . S
C1656 C1663 1.409 . S
C1657 H1649 0.930 . S
C1657 C1655 1.419 . S
C1657 C1658 1.362 . S
C1658 H1650 0.930 . S
C1658 C1657 1.362 . S
C1658 C1661 1.409 . S
C1659 H1651 0.930 . S
C1659 C1660 1.355 . S
C1659 C1661 1.415 . S
C1660 C1659 1.355 . S
C1660 C1662 1.419 . S
C1661 C1656 1.425 . S
C1661 C1658 1.409 . S
C1661 C1659 1.415 . S
C1662 H1652 0.930 . S
C1662 C1660 1.419 . S
C1662 C1663 1.362 . S
C1663 H1653 0.930 . S
C1663 C1656 1.409 . S
C1663 C1662 1.362 . S
H1664 C1670 0.930 . S
H1665 C1673 0.930 . S
H1666 C1674 0.930 . S
H1667 C1675 0.930 . S
H1668 C1678 0.930 . S
H1669 C1679 0.930 . S
C1670 H1664 0.930 . S
C1670 C1671 1.355 . S
C1670 C1672 1.415 . S
C1671 C1670 1.355 . S
C1671 C1673 1.419 . S
C1672 C1670 1.415 . S
C1672 C1677 1.425 . S
C1672 C1679 1.409 . S
C1673 H1665 0.930 . S
C1673 C1671 1.419 . S
C1673 C1674 1.362 . S
C1674 H1666 0.930 . S
C1674 C1673 1.362 . S
C1674 C1677 1.409 . S
C1675 H1667 0.930 . S
C1675 C1676 1.355 . S
C1675 C1677 1.415 . S
C1676 C1675 1.355 . S
C1676 C1678 1.419 . S
C1677 C1672 1.425 . S
C1677 C1674 1.409 . S
C1677 C1675 1.415 . S
C1678 H1668 0.930 . S
C1678 C1676 1.419 . S
C1678 C1679 1.362 . S
C1679 H1669 0.930 . S
C1679 C1672 1.409 . S
C1679 C1678 1.362 . S
C535 C51 1.514 . S
C540 C7 1.502 . S
C551 C62 1.518 . S
C556 C18 1.508 . S
C567 C73 1.430 . S
C572 C29 1.439 . S
C583 C40 1.495 . S
C588 C84 1.509 . S
C599 C161 1.520 . S
C604 C95 1.512 . S
C615 C172 1.521 . S
C620 C106 1.513 . S
C631 C117 1.522 . S
C636 C139 1.519 . S
C647 C150 1.454 . S
C652 C128 1.471 . S
C663 C238 1.521 . S
C668 C183 1.514 . S
C679 C216 1.433 . S
C684 C194 1.445 . S
C695 C205 1.492 . S
C700 C227 1.507 . S
C711 C260 1.497 . S
C716 C249 1.511 . S
C727 C271 1.567 . S
C732 C315 1.588 . S
C743 C282 1.575 . S
C748 C326 1.559 . S
C759 C337 1.585 . S
C764 C293 1.571 . S
C775 C304 1.587 . S
C780 C348 1.553 . S
C791 C425 1.568 . S
C796 C359 1.587 . S
C807 C436 1.581 . S
C812 C370 1.577 . S
C823 C381 1.554 . S
C828 C403 1.590 . S
C839 C392 1.592 . S
C844 C414 1.556 . S
C855 C447 1.577 . S
C860 C502 1.558 . S
C871 C480 1.572 . S
C876 C458 1.585 . S
C887 C469 1.557 . S
C892 C491 1.592 . S
C903 C524 1.573 . S
C908 C513 1.560 . S
C919 C5 1.226 . S
C924 C104 1.241 . S
C935 C16 1.360 . S
C940 C115 1.280 . S
C951 C126 1.262 . S
C956 C27 1.348 . S
C967 C38 1.263 . S
C972 C93 1.219 . S
C983 C170 1.219 . S
C988 C49 1.259 . S
C999 C137 1.372 . S
C1004 C60 1.315 . S
C1015 C71 1.343 . S
C1020 C148 1.256 . S
C1031 C159 1.218 . S
C1036 C82 1.271 . S
C1047 C181 1.294 . S
C1052 C203 1.366 . S
C1063 C192 1.286 . S
C1068 C247 1.220 . S
C1079 C214 1.307 . S
C1084 C258 1.228 . S
C1095 C225 1.218 . S
C1100 C236 1.273 . S
C1111 C269 1.610 . S
C1116 C368 1.613 . S
C1127 C379 1.594 . S
C1132 C280 1.604 . S
C1143 C291 1.532 . S
C1148 C390 1.539 . S
C1159 C357 1.597 . S
C1164 C302 1.606 . S
C1175 C313 1.560 . S
C1180 C434 1.574 . S
C1191 C401 1.613 . S
C1196 C324 1.611 . S
C1207 C335 1.561 . S
C1212 C412 1.576 . S
C1223 C346 1.610 . S
C1228 C423 1.613 . S
C1239 C467 1.577 . S
C1244 C445 1.590 . S
C1255 C511 1.594 . S
C1260 C456 1.604 . S
C1271 C478 1.529 . S
C1276 C522 1.531 . S
C1287 C489 1.613 . S
C1292 C500 1.610 . S
C1303 C8 1.566 . S
C1308 C349 1.596 . S
C1319 C316 1.592 . S
C1324 C19 1.587 . S
C1335 C327 1.596 . S
C1340 C30 1.584 . S
C1351 C338 1.596 . S
C1356 C41 1.576 . S
C1367 C283 1.590 . S
C1372 C52 1.540 . S
C1383 C63 1.553 . S
C1388 C294 1.594 . S
C1399 C74 1.548 . S
C1404 C305 1.586 . S
C1415 C85 1.539 . S
C1420 C272 1.589 . S
C1431 C96 1.585 . S
C1436 C492 1.591 . S
C1447 C459 1.586 . S
C1452 C107 1.557 . S
C1463 C118 1.578 . S
C1468 C470 1.596 . S
C1479 C129 1.547 . S
C1484 C481 1.593 . S
C1495 C525 1.596 . S
C1500 C140 1.583 . S
C1511 C151 1.545 . S
C1516 C503 1.592 . S
C1527 C162 1.583 . S
C1532 C514 1.590 . S
C1543 C448 1.587 . S
C1548 C173 1.543 . S
C1559 C437 1.596 . S
C1564 C184 1.584 . S
C1575 C371 1.586 . S
C1580 C195 1.551 . S
C1591 C382 1.592 . S
C1596 C206 1.586 . S
C1607 C393 1.596 . S
C1612 C217 1.573 . S
C1623 C360 1.587 . S
C1628 C228 1.563 . S
C1639 C239 1.578 . S
C1644 C415 1.589 . S
C1655 C250 1.549 . S
C1660 C426 1.594 . S
C1671 C404 1.588 . S
C1676 C261 1.540 . S
