# Generated by pormake.
# Topology umo, (4)-cn, num edge types: 1
# Building blocks:
#     Node 0, Type 0, BuildingBlock: ESEHIV_clean_sbu_0, # of connection points: 4
#     Node 1, Type 0, BuildingBlock: ESEHIV_clean_sbu_0, # of connection points: 4
#     Node 2, Type 0, BuildingBlock: ESEHIV_clean_sbu_0, # of connection points: 4
#     Node 3, Type 0, BuildingBlock: ESEHIV_clean_sbu_0, # of connection points: 4
#     Node 4, Type 0, BuildingBlock: ESEHIV_clean_sbu_0, # of connection points: 4
#     Node 5, Type 0, BuildingBlock: ESEHIV_clean_sbu_0, # of connection points: 4
#     Node 6, Type 0, BuildingBlock: ESEHIV_clean_sbu_0, # of connection points: 4
#     Node 7, Type 0, BuildingBlock: ESEHIV_clean_sbu_0, # of connection points: 4
#     Node 8, Type 0, BuildingBlock: ESEHIV_clean_sbu_0, # of connection points: 4
#     Node 9, Type 0, BuildingBlock: ESEHIV_clean_sbu_0, # of connection points: 4
#     Node 10, Type 0, BuildingBlock: ESEHIV_clean_sbu_0, # of connection points: 4
#     Node 11, Type 0, BuildingBlock: ESEHIV_clean_sbu_0, # of connection points: 4
#     Edge 12, Type (0, 0), BuildingBlock: MIFKUJ_clean_linker_0, # of connection points: 2
#     Edge 13, Type (0, 0), BuildingBlock: MIFKUJ_clean_linker_0, # of connection points: 2
#     Edge 14, Type (0, 0), BuildingBlock: MIFKUJ_clean_linker_0, # of connection points: 2
#     Edge 15, Type (0, 0), BuildingBlock: MIFKUJ_clean_linker_0, # of connection points: 2
#     Edge 16, Type (0, 0), BuildingBlock: MIFKUJ_clean_linker_0, # of connection points: 2
#     Edge 17, Type (0, 0), BuildingBlock: MIFKUJ_clean_linker_0, # of connection points: 2
#     Edge 18, Type (0, 0), BuildingBlock: MIFKUJ_clean_linker_0, # of connection points: 2
#     Edge 19, Type (0, 0), BuildingBlock: MIFKUJ_clean_linker_0, # of connection points: 2
#     Edge 20, Type (0, 0), BuildingBlock: MIFKUJ_clean_linker_0, # of connection points: 2
#     Edge 21, Type (0, 0), BuildingBlock: MIFKUJ_clean_linker_0, # of connection points: 2
#     Edge 22, Type (0, 0), BuildingBlock: MIFKUJ_clean_linker_0, # of connection points: 2
#     Edge 23, Type (0, 0), BuildingBlock: MIFKUJ_clean_linker_0, # of connection points: 2
#     Edge 24, Type (0, 0), BuildingBlock: MIFKUJ_clean_linker_0, # of connection points: 2
#     Edge 25, Type (0, 0), BuildingBlock: MIFKUJ_clean_linker_0, # of connection points: 2
#     Edge 26, Type (0, 0), BuildingBlock: MIFKUJ_clean_linker_0, # of connection points: 2
#     Edge 27, Type (0, 0), BuildingBlock: MIFKUJ_clean_linker_0, # of connection points: 2
#     Edge 28, Type (0, 0), BuildingBlock: MIFKUJ_clean_linker_0, # of connection points: 2
#     Edge 29, Type (0, 0), BuildingBlock: MIFKUJ_clean_linker_0, # of connection points: 2
#     Edge 30, Type (0, 0), BuildingBlock: MIFKUJ_clean_linker_0, # of connection points: 2
#     Edge 31, Type (0, 0), BuildingBlock: MIFKUJ_clean_linker_0, # of connection points: 2
#     Edge 32, Type (0, 0), BuildingBlock: MIFKUJ_clean_linker_0, # of connection points: 2
#     Edge 33, Type (0, 0), BuildingBlock: MIFKUJ_clean_linker_0, # of connection points: 2
#     Edge 34, Type (0, 0), BuildingBlock: MIFKUJ_clean_linker_0, # of connection points: 2
#     Edge 35, Type (0, 0), BuildingBlock: MIFKUJ_clean_linker_0, # of connection points: 2
# Relax obj value: 0.181
# Max RMSD: 0.179
# Mean RMSD: 0.179
data_MOF--net-umo--node1-ESEHIV_clean_sbu_0--edge1-MIFKUJ_clean_linker_0
_symmetry_space_group_name_H-M    P1
_symmetry_Int_Tables_number       1
_symmetry_cell_setting            triclinic
loop_
_symmetry_equiv_pos_as_xyz
'x, y, z'
_cell_length_a     72.835731
_cell_length_b     73.068612
_cell_length_c     45.7909
_cell_angle_alpha  90.14501
_cell_angle_beta   89.703095
_cell_angle_gamma 119.98389
loop_
_atom_site_label
_atom_site_type_symbol
_atom_site_fract_x
_atom_site_fract_y
_atom_site_fract_z
_atom_type_partial_charge
Cu0 Cu 0.18238 0.56186 0.40294 0.0
N1 N 0.19608 0.55658 0.43311 0.0
N2 N 0.2231 0.57131 0.46451 0.0
C3 C 0.21707 0.56932 0.43636 0.0
C4 C 0.20515 0.55887 0.47965 0.0
C5 C 0.18849 0.54974 0.46019 0.0
O6 O 0.20211 0.57043 0.36984 0.0
C7 C 0.16551 0.58039 0.43928 0.0
O8 O 0.14996 0.56077 0.44146 0.0
H9 H 0.22704 0.57983 0.41921 0.0
H10 H 0.17184 0.5414 0.46591 0.0
N11 N 0.15596 0.538 0.39427 0.0
N12 N 0.12201 0.51713 0.38135 0.0
C13 C 0.1381 0.53724 0.38452 0.0
C14 C 0.15092 0.51771 0.39739 0.0
C15 C 0.1301 0.50484 0.38932 0.0
C16 C 0.20702 0.55689 0.36082 0.0
O17 O 0.19696 0.5378 0.37205 0.0
H18 H 0.13689 0.55115 0.38005 0.0
H19 H 0.16159 0.51262 0.40542 0.0
O20 O 0.17975 0.5849 0.41989 0.0
H21 H 0.20381 0.55835 0.50322 0.0
H22 H 0.1214 0.48774 0.3901 0.0
Cu23 Cu 0.63059 0.17257 0.55773 0.0
N24 N 0.60688 0.17434 0.54755 0.0
N25 N 0.58695 0.18958 0.54595 0.0
C26 C 0.60633 0.19227 0.55108 0.0
C27 C 0.57468 0.169 0.53889 0.0
C28 C 0.58712 0.1596 0.53975 0.0
O29 O 0.6541 0.19638 0.53715 0.0
C30 C 0.61596 0.16258 0.61541 0.0
O31 O 0.60004 0.14691 0.60178 0.0
H32 H 0.61969 0.20674 0.55909 0.0
H33 H 0.58187 0.14308 0.53613 0.0
N34 N 0.628 0.1469 0.54472 0.0
N35 N 0.61515 0.11269 0.5334 0.0
C36 C 0.61151 0.12698 0.54732 0.0
C37 C 0.64249 0.14513 0.52854 0.0
C38 C 0.63471 0.12421 0.5216 0.0
C39 C 0.67384 0.20264 0.53859 0.0
O40 O 0.6804 0.19312 0.55654 0.0
H41 H 0.59706 0.12307 0.55893 0.0
H42 H 0.65753 0.15824 0.52159 0.0
O43 O 0.63215 0.17554 0.6005 0.0
H44 H 0.55789 0.16121 0.53423 0.0
H45 H 0.64269 0.11814 0.50809 0.0
Cu46 Cu 0.47863 0.63957 0.73481 0.0
N47 N 0.4514 0.61612 0.73396 0.0
N48 N 0.41615 0.59829 0.73865 0.0
C49 C 0.43362 0.6174 0.73508 0.0
C50 C 0.4232 0.58438 0.73976 0.0
C51 C 0.44499 0.59544 0.7368 0.0
O52 O 0.47758 0.66132 0.71153 0.0
C53 C 0.48558 0.63494 0.79378 0.0
O54 O 0.48433 0.61753 0.78365 0.0
H55 H 0.43366 0.63224 0.73507 0.0
H56 H 0.45538 0.58891 0.738 0.0
N57 N 0.49863 0.63377 0.71747 0.0
N58 N 0.51706 0.61827 0.70274 0.0
C59 C 0.50148 0.61696 0.72047 0.0
C60 C 0.51286 0.64606 0.69718 0.0
C61 C 0.52419 0.63663 0.68809 0.0
C62 C 0.49103 0.68097 0.71272 0.0
O63 O 0.50656 0.6878 0.73168 0.0
H64 H 0.49233 0.60405 0.73529 0.0
H65 H 0.5146 0.66073 0.68908 0.0
O66 O 0.48468 0.64776 0.77583 0.0
H67 H 0.41338 0.56754 0.74321 0.0
H68 H 0.53634 0.64267 0.67135 0.0
Cu69 Cu 0.84418 0.45018 0.88392 0.0
N70 N 0.83837 0.42264 0.877 0.0
N71 N 0.8195 0.3874 0.87724 0.0
C72 C 0.81903 0.40549 0.87382 0.0
C73 C 0.84001 0.3934 0.88206 0.0
C74 C 0.85163 0.41516 0.88178 0.0
O75 O 0.82281 0.45421 0.86342 0.0
C76 C 0.83218 0.43908 0.9431 0.0
O77 O 0.81659 0.42224 0.93091 0.0
H78 H 0.8046 0.40625 0.87245 0.0
H79 H 0.86821 0.42484 0.88724 0.0
N80 N 0.87026 0.46876 0.8662 0.0
N81 N 0.9045 0.48693 0.85309 0.0
C82 C 0.89037 0.47454 0.87377 0.0
C83 C 0.87185 0.47791 0.84015 0.0
C84 C 0.89282 0.48907 0.83203 0.0
C85 C 0.80329 0.44676 0.86979 0.0
O86 O 0.79571 0.43613 0.89416 0.0
H87 H 0.89448 0.46922 0.89343 0.0
H88 H 0.85854 0.4762 0.82761 0.0
O89 O 0.84544 0.45402 0.92667 0.0
H90 H 0.84591 0.38286 0.88753 0.0
H91 H 0.89902 0.49805 0.81208 0.0
Cu92 Cu 0.38273 0.8297 0.06155 0.0
N93 N 0.3572 0.80793 0.07617 0.0
N94 N 0.3366 0.77344 0.08588 0.0
C95 C 0.35614 0.79055 0.08795 0.0
C96 C 0.32474 0.78044 0.07264 0.0
C97 C 0.3375 0.80168 0.06655 0.0
O98 O 0.3839 0.81823 0.02335 0.0
C99 C 0.40352 0.84149 0.11407 0.0
O100 O 0.39014 0.84852 0.11663 0.0
H101 H 0.37012 0.7898 0.09393 0.0
H102 H 0.33335 0.81105 0.05278 0.0
N103 N 0.3833 0.85569 0.05772 0.0
N104 N 0.39515 0.88993 0.04821 0.0
C105 C 0.4001 0.87439 0.04969 0.0
C106 C 0.36726 0.8596 0.06174 0.0
C107 C 0.37447 0.88062 0.05578 0.0
C108 C 0.37519 0.82183 1.0017 0.0
O109 O 0.37022 0.83674 1.00408 0.0
H110 H 0.41553 0.87643 0.04453 0.0
H111 H 0.3514 0.848 0.06853 0.0
O112 O 0.40404 0.83288 0.09004 0.0
H113 H 0.30857 0.77053 0.06537 0.0
H114 H 0.36526 0.88849 0.05728 0.0
Cu115 Cu 0.54946 0.38694 0.22131 0.0
N116 N 0.57701 0.40761 0.21165 0.0
N117 N 0.61228 0.42237 0.21071 0.0
C118 C 0.59384 0.4065 0.22108 0.0
C119 C 0.60686 0.43426 0.19429 0.0
C120 C 0.58496 0.42501 0.19478 0.0
O121 O 0.54411 0.36149 0.1996 0.0
C122 C 0.55305 0.39985 0.27944 0.0
O123 O 0.55433 0.41645 0.26642 0.0
H124 H 0.59252 0.39423 0.23557 0.0
H125 H 0.57557 0.43039 0.18338 0.0
N126 N 0.52859 0.39342 0.20954 0.0
N127 N 0.50939 0.40838 0.19646 0.0
C128 C 0.52823 0.41173 0.20701 0.0
C129 C 0.5094 0.37823 0.2006 0.0
C130 C 0.49762 0.3873 0.19258 0.0
C131 C 0.55229 0.34999 0.20508 0.0
O132 O 0.56396 0.35391 0.22855 0.0
H133 H 0.54151 0.42712 0.21225 0.0
H134 H 0.50436 0.36158 0.1999 0.0
O135 O 0.5496 0.38394 0.26384 0.0
H136 H 0.61784 0.44828 0.18226 0.0
H137 H 0.48145 0.37891 0.18479 0.0
Cu138 Cu 0.45089 0.82991 0.46682 0.0
N139 N 0.42162 0.81243 0.4703 0.0
N140 N 0.38985 0.78332 0.47531 0.0
C141 C 0.41103 0.79125 0.47323 0.0
C142 C 0.38715 0.80029 0.47361 0.0
C143 C 0.40674 0.81818 0.47049 0.0
O144 O 0.46322 0.81435 0.48495 0.0
C145 C 0.45481 0.82123 0.40726 0.0
O146 O 0.44994 0.80249 0.41724 0.0
H147 H 0.41878 0.78191 0.47336 0.0
H148 H 0.40995 0.83427 0.4686 0.0
N149 N 0.45867 0.85515 0.48693 0.0
N150 N 0.47456 0.88916 0.50041 0.0
C151 C 0.4743 0.87503 0.48096 0.0
C152 C 0.44891 0.85679 0.51097 0.0
C153 C 0.45858 0.87767 0.51927 0.0
C154 C 0.47711 0.82175 0.50506 0.0
O155 O 0.48591 0.84184 0.51196 0.0
H156 H 0.48503 0.87906 0.46256 0.0
H157 H 0.43562 0.84365 0.52172 0.0
O158 O 0.45715 0.83554 0.42528 0.0
H159 H 0.37214 0.79993 0.47486 0.0
H160 H 0.45436 0.88387 0.53802 0.0
Cu161 Cu 0.61285 0.43314 0.63961 0.0
N162 N 0.59242 0.40461 0.64039 0.0
N163 N 0.57783 0.36961 0.63603 0.0
C164 C 0.59594 0.38823 0.63987 0.0
C165 C 0.56232 0.37461 0.6346 0.0
C166 C 0.57139 0.3962 0.63725 0.0
O167 O 0.63705 0.43618 0.66211 0.0
C168 C 0.62142 0.4295 0.58059 0.0
O169 O 0.62629 0.4159 0.59161 0.0
H170 H 0.61162 0.39014 0.64117 0.0
H171 H 0.56338 0.40526 0.63553 0.0
N172 N 0.6013 0.44735 0.65972 0.0
N173 N 0.58695 0.46708 0.67241 0.0
C174 C 0.59707 0.46254 0.65115 0.0
C175 C 0.59379 0.44235 0.68717 0.0
C176 C 0.58494 0.45441 0.69503 0.0
C177 C 0.65668 0.44546 0.65552 0.0
O178 O 0.66301 0.45471 0.62996 0.0
H179 H 0.60073 0.46963 0.62963 0.0
H180 H 0.5944 0.4304 0.70034 0.0
O181 O 0.61734 0.44064 0.59808 0.0
H182 H 0.54578 0.36366 0.63024 0.0
H183 H 0.57759 0.45393 0.71584 0.0
Cu184 Cu 0.19 0.62232 0.79575 0.0
N185 N 0.1968 0.60104 0.79202 0.0
N186 N 0.21678 0.58596 0.78741 0.0
C187 C 0.21602 0.60317 0.79638 0.0
C188 C 0.19726 0.57246 0.77708 0.0
C189 C 0.18493 0.58182 0.78003 0.0
O190 O 0.21388 0.64579 0.81549 0.0
C191 C 0.20089 0.63595 0.73805 0.0
O192 O 0.21967 0.64035 0.74747 0.0
H193 H 0.22955 0.61758 0.80419 0.0
H194 H 0.16878 0.57551 0.77268 0.0
N195 N 0.16573 0.61255 0.81921 0.0
N196 N 0.1322 0.59701 0.83581 0.0
C197 C 0.145 0.60244 0.81191 0.0
C198 C 0.16609 0.6135 0.84849 0.0
C199 C 0.1456 0.604 0.85877 0.0
C200 C 0.22001 0.66531 0.81227 0.0
O201 O 0.20984 0.67096 0.79408 0.0
H202 H 0.13954 0.59912 0.78958 0.0
H203 H 0.18036 0.62033 0.8615 0.0
O204 O 0.18555 0.62906 0.75622 0.0
H205 H 0.19245 0.55722 0.76732 0.0
H206 H 0.14109 0.602 0.88157 0.0
Cu207 Cu 0.56529 0.17266 0.97295 0.0
N208 N 0.59401 0.18108 0.97265 0.0
N209 N 0.62872 0.20138 0.96436 0.0
C210 C 0.61038 0.20098 0.97049 0.0
C211 C 0.62374 0.18096 0.96303 0.0
C212 C 0.60231 0.16847 0.9682 0.0
O213 O 0.56226 0.19358 0.99637 0.0
C214 C 0.56828 0.18676 0.91522 0.0
O215 O 0.58002 0.20518 0.92779 0.0
H216 H 0.60859 0.21483 0.97112 0.0
H217 H 0.59317 0.15142 0.96699 0.0
N218 N 0.55112 0.14651 0.99233 0.0
N219 N 0.53266 0.11215 1.00412 0.0
C220 C 0.53728 0.12676 0.98288 0.0
C221 C 0.55512 0.14421 0.0203 0.0
C222 C 0.54386 0.12317 0.02761 0.0
C223 C 0.55126 0.20236 0.9913 0.0
O224 O 0.54013 0.19775 0.96718 0.0
H225 H 0.53132 0.12308 0.96078 0.0
H226 H 0.56593 0.15703 0.03424 0.0
O227 O 0.55805 0.17051 0.93143 0.0
H228 H 0.63464 0.17547 0.95749 0.0
H229 H 0.54394 0.11645 0.04862 0.0
Cu230 Cu 0.38898 0.57072 0.12658 0.0
N231 N 0.36676 0.56985 0.10521 0.0
N232 N 0.34878 0.58522 0.08863 0.0
C233 C 0.36781 0.58795 0.0967 0.0
C234 C 0.33517 0.56429 0.092 0.0
C235 C 0.34626 0.55489 0.10246 0.0
O236 O 0.38449 0.57935 0.16522 0.0
C237 C 0.41992 0.58442 0.08325 0.0
O238 O 0.41021 0.56398 0.07844 0.0
H239 H 0.38199 0.60316 0.09935 0.0
H240 H 0.33941 0.53878 0.10994 0.0
N241 N 0.38878 0.54476 0.1289 0.0
N242 N 0.40005 0.52151 0.13605 0.0
C243 C 0.40432 0.54169 0.13965 0.0
C244 C 0.37418 0.52586 0.11825 0.0
C245 C 0.38098 0.51157 0.12272 0.0
C246 C 0.36845 0.56509 0.17903 0.0
O247 O 0.35879 0.54582 0.16839 0.0
H248 H 0.41881 0.55426 0.1489 0.0
H249 H 0.35981 0.52272 0.10732 0.0
O250 O 0.41425 0.59131 0.10512 0.0
H251 H 0.31819 0.55646 0.08892 0.0
H252 H 0.37247 0.4951 0.1164 0.0
Cu253 Cu 0.83888 0.40373 0.30893 0.0
N254 N 0.82661 0.42082 0.31171 0.0
N255 N 0.80434 0.43288 0.30311 0.0
C256 C 0.80928 0.41773 0.29715 0.0
C257 C 0.81919 0.44602 0.32219 0.0
C258 C 0.83297 0.4386 0.32734 0.0
O259 O 0.81859 0.37665 0.32727 0.0
C260 C 0.85426 0.41887 0.25301 0.0
O261 O 0.8644 0.43658 0.26783 0.0
H262 H 0.80037 0.40447 0.28269 0.0
H263 H 0.84675 0.4458 0.34127 0.0
N264 N 0.86467 0.41662 0.32951 0.0
N265 N 0.89896 0.43284 0.34213 0.0
C266 C 0.88472 0.42316 0.32042 0.0
C267 C 0.86637 0.42205 0.35787 0.0
C268 C 0.88739 0.43209 0.36566 0.0
C269 C 0.82379 0.36591 0.34371 0.0
O270 O 0.84395 0.37195 0.34677 0.0
H271 H 0.88885 0.42135 0.29828 0.0
H272 H 0.85315 0.41908 0.37186 0.0
O273 O 0.84286 0.4017 0.26698 0.0
H274 H 0.82025 0.46016 0.33142 0.0
H275 H 0.89368 0.43826 0.38709 0.0
H276 H 0.22702 0.59727 0.50943 0.0
H277 H 0.2575 0.63252 0.51792 0.0
H278 H 0.29276 0.62134 0.4512 0.0
H279 H 0.26228 0.58614 0.44263 0.0
H280 H 0.30172 0.65258 0.52973 0.0
H281 H 0.31135 0.66322 0.40456 0.0
H282 H 0.28992 0.64816 0.36011 0.0
H283 H 0.23315 0.63143 0.40886 0.0
H284 H 0.25425 0.64672 0.45341 0.0
H285 H 0.39433 0.75068 0.49539 0.0
H286 H 0.36692 0.71355 0.49874 0.0
H287 H 0.32069 0.72884 0.46638 0.0
H288 H 0.34811 0.76577 0.46173 0.0
H289 H 0.31611 0.69544 0.43968 0.0
H290 H 0.32272 0.71723 0.53956 0.0
H291 H 0.34142 0.73297 0.58564 0.0
H292 H 0.3612 0.68669 0.59056 0.0
H293 H 0.34284 0.67083 0.54429 0.0
C294 C 0.24158 0.60198 0.49749 0.0
C295 C 0.24232 0.58903 0.47527 0.0
C296 C 0.25896 0.62217 0.50227 0.0
C297 C 0.27725 0.62964 0.48487 0.0
C298 C 0.27871 0.61594 0.46466 0.0
C299 C 0.26136 0.59585 0.45982 0.0
C300 C 0.2934 0.65245 0.48468 0.0
C301 C 0.30499 0.66198 0.51006 0.0
C302 C 0.2972 0.6648 0.45921 0.0
C303 C 0.28439 0.65596 0.43236 0.0
C304 C 0.29431 0.65642 0.40574 0.0
C305 C 0.28222 0.64784 0.38053 0.0
C306 C 0.2602 0.63885 0.38167 0.0
C307 C 0.25021 0.63839 0.40801 0.0
C308 C 0.26223 0.647 0.43324 0.0
C309 C 0.3784 0.74619 0.48876 0.0
C310 C 0.37355 0.76138 0.47822 0.0
C311 C 0.36264 0.72492 0.49104 0.0
C312 C 0.34165 0.71837 0.48311 0.0
C313 C 0.33675 0.73348 0.4727 0.0
C314 C 0.35248 0.7547 0.47029 0.0
C315 C 0.32488 0.69571 0.48464 0.0
C316 C 0.31305 0.68614 0.4594 0.0
C317 C 0.32058 0.68352 0.51045 0.0
C318 C 0.33158 0.69297 0.53831 0.0
C319 C 0.33119 0.71051 0.55035 0.0
C320 C 0.3417 0.71943 0.57653 0.0
C321 C 0.35253 0.71087 0.59098 0.0
C322 C 0.35282 0.69332 0.57932 0.0
C323 C 0.34235 0.68435 0.55314 0.0
H324 H 0.36066 0.7178 0.61124 0.0
H325 H 0.25089 0.63234 0.36211 0.0
H326 H 0.61123 0.23158 0.53852 0.0
H327 H 0.60363 0.25862 0.55624 0.0
H328 H 0.54111 0.21035 0.58294 0.0
H329 H 0.54883 0.18297 0.56576 0.0
H330 H 0.54621 0.25068 0.55445 0.0
H331 H 0.57033 0.22567 0.63404 0.0
H332 H 0.59362 0.21435 0.65692 0.0
H333 H 0.6475 0.27595 0.64244 0.0
H334 H 0.62458 0.28753 0.61899 0.0
H335 H 0.54226 0.33099 0.64079 0.0
H336 H 0.53856 0.29683 0.62773 0.0
H337 H 0.60507 0.32758 0.60599 0.0
H338 H 0.60887 0.36165 0.61817 0.0
H339 H 0.59202 0.29123 0.63777 0.0
H340 H 0.56964 0.31459 0.55313 0.0
H341 H 0.54776 0.32627 0.52702 0.0
H342 H 0.49151 0.26824 0.54951 0.0
H343 H 0.51307 0.25633 0.57609 0.0
C344 C 0.59578 0.2267 0.54789 0.0
C345 C 0.58077 0.20517 0.55125 0.0
C346 C 0.59144 0.24214 0.55786 0.0
C347 C 0.57195 0.23639 0.57122 0.0
C348 C 0.55625 0.215 0.57269 0.0
C349 C 0.56066 0.19943 0.56281 0.0
C350 C 0.56914 0.25287 0.58578 0.0
C351 C 0.55576 0.25925 0.57315 0.0
C352 C 0.58193 0.26414 0.60984 0.0
C353 C 0.59574 0.25742 0.62457 0.0
C354 C 0.58716 0.23676 0.63555 0.0
C355 C 0.60029 0.2303 0.64864 0.0
C356 C 0.62203 0.24441 0.65109 0.0
C357 C 0.63066 0.26504 0.64053 0.0
C358 C 0.6176 0.27156 0.62736 0.0
C359 C 0.5561 0.33054 0.63317 0.0
C360 C 0.57585 0.34923 0.63048 0.0
C361 C 0.55396 0.31097 0.62583 0.0
C362 C 0.57152 0.30973 0.61576 0.0
C363 C 0.59133 0.3282 0.61387 0.0
C364 C 0.59347 0.34773 0.62101 0.0
C365 C 0.56937 0.28939 0.60612 0.0
C366 C 0.58196 0.28234 0.61963 0.0
C367 C 0.55588 0.27755 0.58285 0.0
C368 C 0.54293 0.2847 0.56691 0.0
C369 C 0.55259 0.30441 0.55273 0.0
C370 C 0.54025 0.31105 0.5378 0.0
C371 C 0.51825 0.29804 0.53669 0.0
C372 C 0.50855 0.27833 0.55045 0.0
C373 C 0.52082 0.27162 0.56544 0.0
H374 H 0.50873 0.3032 0.52511 0.0
H375 H 0.63217 0.23937 0.6612 0.0
H376 H 0.22709 0.5672 0.74444 0.0
H377 H 0.26018 0.56656 0.73942 0.0
H378 H 0.28163 0.5992 0.82178 0.0
H379 H 0.24879 0.60049 0.8262 0.0
H380 H 0.31183 0.61676 0.7857 0.0
H381 H 0.26603 0.54505 0.81209 0.0
H382 H 0.23438 0.50953 0.80992 0.0
H383 H 0.25083 0.50151 0.72252 0.0
H384 H 0.28244 0.53711 0.72401 0.0
H385 H 0.38627 0.56862 0.77416 0.0
H386 H 0.35131 0.56402 0.78562 0.0
H387 H 0.36297 0.61408 0.7254 0.0
H388 H 0.39802 0.61896 0.71442 0.0
H389 H 0.3165 0.55375 0.75668 0.0
H390 H 0.34239 0.64304 0.75067 0.0
H391 H 0.37441 0.67759 0.75926 0.0
H392 H 0.39818 0.64865 0.81797 0.0
H393 H 0.36616 0.61397 0.81006 0.0
C394 C 0.23873 0.57392 0.76166 0.0
C395 C 0.23539 0.58388 0.78574 0.0
C396 C 0.25765 0.57352 0.75884 0.0
C397 C 0.27339 0.58262 0.78038 0.0
C398 C 0.26981 0.59212 0.8048 0.0
C399 C 0.25105 0.59284 0.80736 0.0
C400 C 0.29407 0.58336 0.7766 0.0
C401 C 0.31279 0.60293 0.77948 0.0
C402 C 0.29549 0.56527 0.76909 0.0
C403 C 0.27652 0.54383 0.76809 0.0
C404 C 0.26282 0.53578 0.79233 0.0
C405 C 0.2449 0.51562 0.79123 0.0
C406 C 0.24057 0.50329 0.76608 0.0
C407 C 0.25419 0.51108 0.74198 0.0
C408 C 0.27213 0.53124 0.74296 0.0
C409 C 0.38124 0.57845 0.76314 0.0
C410 C 0.39491 0.59426 0.74356 0.0
C411 C 0.36129 0.57585 0.76974 0.0
C412 C 0.35465 0.58896 0.75678 0.0
C413 C 0.36794 0.60412 0.73624 0.0
C414 C 0.38794 0.60688 0.72992 0.0
C415 C 0.33408 0.5872 0.76513 0.0
C416 C 0.31545 0.5675 0.76308 0.0
C417 C 0.33275 0.60502 0.77436 0.0
C418 C 0.35195 0.62588 0.77955 0.0
C419 C 0.3544 0.64406 0.76552 0.0
C420 C 0.37256 0.66366 0.77025 0.0
C421 C 0.38834 0.66529 0.78909 0.0
C422 C 0.38597 0.64734 0.80332 0.0
C423 C 0.36783 0.62771 0.7987 0.0
H424 H 0.40239 0.68048 0.7927 0.0
H425 H 0.22669 0.48769 0.76527 0.0
H426 H 0.78239 0.36886 0.8482 0.0
H427 H 0.75014 0.33596 0.86155 0.0
H428 H 0.78312 0.32808 0.93422 0.0
H429 H 0.81543 0.36029 0.92003 0.0
H430 H 0.75874 0.29188 0.91344 0.0
H431 H 0.74967 0.35017 0.93988 0.0
H432 H 0.74855 0.38294 0.93166 0.0
H433 H 0.69692 0.35031 0.87188 0.0
H434 H 0.69814 0.31749 0.87905 0.0
H435 H 0.6461 0.24055 0.98752 0.0
H436 H 0.67938 0.27182 0.97269 0.0
H437 H 0.68847 0.23486 0.90651 0.0
H438 H 0.65572 0.20357 0.92205 0.0
H439 H 0.69208 0.29389 0.92599 0.0
H440 H 0.73967 0.2525 0.89316 0.0
H441 H 0.74251 0.22152 0.90771 0.0
H442 H 0.71936 0.2234 0.99346 0.0
H443 H 0.71664 0.25454 0.97955 0.0
C444 C 0.78272 0.35983 0.86669 0.0
C445 C 0.80135 0.367 0.883 0.0
C446 C 0.7643 0.34115 0.87448 0.0
C447 C 0.76402 0.32971 0.8993 0.0
C448 C 0.78287 0.33655 0.91498 0.0
C449 C 0.80138 0.35494 0.90682 0.0
C450 C 0.74403 0.31104 0.90965 0.0
C451 C 0.74417 0.29234 0.91611 0.0
C452 C 0.72508 0.31172 0.9139 0.0
C453 C 0.72416 0.33141 0.90976 0.0
C454 C 0.7382 0.35002 0.92477 0.0
C455 C 0.73757 0.36862 0.92026 0.0
C456 C 0.72276 0.36874 0.9011 0.0
C457 C 0.70848 0.35024 0.88654 0.0
C458 C 0.70915 0.33163 0.89079 0.0
C459 C 0.65535 0.23916 0.96996 0.0
C460 C 0.64852 0.21962 0.9562 0.0
C461 C 0.6743 0.25701 0.96142 0.0
C462 C 0.68666 0.2557 0.93871 0.0
C463 C 0.67958 0.23622 0.92459 0.0
C464 C 0.66085 0.21832 0.93348 0.0
C465 C 0.7068 0.2747 0.92957 0.0
C466 C 0.70666 0.29344 0.92328 0.0
C467 C 0.72597 0.27433 0.92653 0.0
C468 C 0.72776 0.25572 0.93519 0.0
C469 C 0.73526 0.24635 0.91515 0.0
C470 C 0.73684 0.22875 0.92328 0.0
C471 C 0.73106 0.22046 0.95146 0.0
C472 C 0.72376 0.22979 0.97161 0.0
C473 C 0.72217 0.2474 0.9636 0.0
H474 H 0.73227 0.20683 0.9577 0.0
H475 H 0.7223 0.38315 0.89763 0.0
H476 H 0.35149 0.75773 0.1269 0.0
H477 H 0.34853 0.72278 0.12684 0.0
H478 H 0.3087 0.7055 0.05068 0.0
H479 H 0.31169 0.74037 0.05058 0.0
H480 H 0.31474 0.68003 0.1277 0.0
H481 H 0.32746 0.6807 1.00396 0.0
H482 H 0.34223 0.7059 0.96313 0.0
H483 H 0.38489 0.75435 0.02176 0.0
H484 H 0.37061 0.72926 0.06293 0.0
H485 H 0.31017 0.58298 0.09256 0.0
H486 H 0.30323 0.61229 0.08927 0.0
H487 H 0.36943 0.65508 0.07134 0.0
H488 H 0.37622 0.62576 0.07246 0.0
H489 H 0.34732 0.66655 0.04084 0.0
H490 H 0.345 0.64643 0.14364 0.0
H491 H 0.33006 0.61941 0.18252 0.0
H492 H 0.26801 0.61026 0.16622 0.0
H493 H 0.28257 0.63712 0.12719 0.0
C494 C 0.34178 0.74631 0.11051 0.0
C495 C 0.33187 0.75183 0.08874 0.0
C496 C 0.34002 0.72633 0.11055 0.0
C497 C 0.32855 0.7116 0.0886 0.0
C498 C 0.3177 0.71666 0.06776 0.0
C499 C 0.31931 0.73656 0.06785 0.0
C500 C 0.32963 0.69187 0.0859 0.0
C501 C 0.32179 0.67704 0.10868 0.0
C502 C 0.33882 0.68793 0.0611 0.0
C503 C 0.34779 0.70315 0.03654 0.0
C504 C 0.34004 0.69671 1.00812 0.0
C505 C 0.34835 0.71099 0.9849 0.0
C506 C 0.36449 0.73175 0.9898 0.0
C507 C 0.37237 0.73827 0.01798 0.0
C508 C 0.36416 0.72403 0.04128 0.0
C509 C 0.32322 0.5985 0.08733 0.0
C510 C 0.34392 0.60191 0.08346 0.0
C511 C 0.31924 0.61537 0.0858 0.0
C512 C 0.33591 0.6361 0.08098 0.0
C513 C 0.3563 0.63933 0.07548 0.0
C514 C 0.36022 0.62248 0.07649 0.0
C515 C 0.3326 0.65466 0.08275 0.0
C516 C 0.34007 0.66938 0.05979 0.0
C517 C 0.32318 0.65852 0.10746 0.0
C518 C 0.31483 0.64362 0.13238 0.0
C519 C 0.32819 0.63871 0.14847 0.0
C520 C 0.31979 0.6234 0.17048 0.0
C521 C 0.29808 0.61305 0.17667 0.0
C522 C 0.28481 0.61826 0.16132 0.0
C523 C 0.29313 0.63355 0.13932 0.0
H524 H 0.2915 0.60092 0.19327 0.0
H525 H 0.37092 0.74278 0.97178 0.0
H526 H 0.78365 0.4506 0.32971 0.0
H527 H 0.75273 0.45174 0.31147 0.0
H528 H 0.75384 0.41963 0.23292 0.0
H529 H 0.78501 0.41877 0.2508 0.0
H530 H 0.74514 0.45167 0.22141 0.0
H531 H 0.72066 0.39191 0.28587 0.0
H532 H 0.71906 0.37388 0.33207 0.0
H533 H 0.69876 0.41221 0.37754 0.0
H534 H 0.70053 0.43067 0.33164 0.0
H535 H 0.62185 0.39164 0.22017 0.0
H536 H 0.65614 0.396 0.23338 0.0
H537 H 0.68447 0.46366 0.22621 0.0
H538 H 0.64983 0.45933 0.21305 0.0
H539 H 0.67917 0.41509 0.28051 0.0
H540 H 0.73766 0.48337 0.20626 0.0
H541 H 0.73844 0.49864 0.15794 0.0
H542 H 0.68883 0.43832 0.12819 0.0
H543 H 0.68795 0.42265 0.17617 0.0
C544 C 0.77752 0.44405 0.30838 0.0
C545 C 0.7867 0.43443 0.29182 0.0
C546 C 0.75978 0.44463 0.29805 0.0
C547 C 0.75089 0.43563 0.27093 0.0
C548 C 0.76044 0.42666 0.2539 0.0
C549 C 0.77811 0.42597 0.2643 0.0
C550 C 0.73095 0.43447 0.26107 0.0
C551 C 0.73073 0.44379 0.23438 0.0
C552 C 0.71208 0.42393 0.2778 0.0
C553 C 0.71096 0.41283 0.3054 0.0
C554 C 0.71603 0.39661 0.30577 0.0
C555 C 0.71506 0.3863 0.33189 0.0
C556 C 0.70888 0.39194 0.35774 0.0
C557 C 0.70359 0.40788 0.35751 0.0
C558 C 0.70456 0.41827 0.33145 0.0
C559 C 0.63532 0.40748 0.22149 0.0
C560 C 0.63304 0.42517 0.21598 0.0
C561 C 0.65495 0.40994 0.22895 0.0
C562 C 0.67287 0.43014 0.23097 0.0
C563 C 0.67088 0.44789 0.22462 0.0
C564 C 0.65111 0.44542 0.21706 0.0
C565 C 0.69329 0.43234 0.24082 0.0
C566 C 0.69361 0.42321 0.26762 0.0
C567 C 0.71209 0.44274 0.22393 0.0
C568 C 0.71258 0.45193 0.19492 0.0
C569 C 0.72696 0.47337 0.18937 0.0
C570 C 0.72741 0.48209 0.16205 0.0
C571 C 0.71364 0.46948 0.14005 0.0
C572 C 0.69942 0.4481 0.14529 0.0
C573 C 0.69892 0.4393 0.17256 0.0
H574 H 0.71401 0.47626 0.11891 0.0
H575 H 0.70813 0.38393 0.37794 0.0
H576 H 0.23059 0.65185 0.69445 0.0
H577 H 0.22463 0.64805 0.6418 0.0
H578 H 0.1571 0.61643 0.65649 0.0
H579 H 0.16294 0.62007 0.70932 0.0
H580 H 0.16821 0.59409 0.62049 0.0
H581 H 0.18361 0.66601 0.62685 0.0
H582 H 0.20452 0.70364 0.64039 0.0
H583 H 0.2566 0.71031 0.58804 0.0
H584 H 0.2361 0.67263 0.57449 0.0
H585 H 0.13648 0.5809 0.47614 0.0
H586 H 0.1431 0.59648 0.52492 0.0
H587 H 0.21048 0.62592 0.51003 0.0
H588 H 0.20395 0.61064 0.46085 0.0
H589 H 0.19979 0.65064 0.54553 0.0
H590 H 0.18649 0.5796 0.54129 0.0
H591 H 0.16681 0.54197 0.52736 0.0
H592 H 0.1127 0.5336 0.57627 0.0
H593 H 0.13192 0.57128 0.59012 0.0
C594 C 0.21446 0.64438 0.68652 0.0
C595 C 0.19724 0.63619 0.70618 0.0
C596 C 0.21109 0.6423 0.65634 0.0
C597 C 0.19042 0.63202 0.64509 0.0
C598 C 0.1732 0.62444 0.66463 0.0
C599 C 0.17656 0.62661 0.69485 0.0
C600 C 0.18675 0.62765 0.61321 0.0
C601 C 0.17479 0.60652 0.60418 0.0
C602 C 0.19603 0.64378 0.59178 0.0
C603 C 0.20838 0.66644 0.59987 0.0
C604 C 0.19959 0.67545 0.61842 0.0
C605 C 0.21135 0.6968 0.62605 0.0
C606 C 0.23189 0.70934 0.61514 0.0
C607 C 0.24069 0.70057 0.5965 0.0
C608 C 0.229 0.67922 0.58881 0.0
C609 C 0.15271 0.59128 0.48287 0.0
C610 C 0.16966 0.59449 0.46468 0.0
C611 C 0.15648 0.60009 0.51082 0.0
C612 C 0.17727 0.612 0.52137 0.0
C613 C 0.19431 0.61676 0.50238 0.0
C614 C 0.19054 0.60808 0.4742 0.0
C615 C 0.18096 0.61716 0.55303 0.0
C616 C 0.19306 0.6383 0.56195 0.0
C617 C 0.17207 0.60105 0.57449 0.0
C618 C 0.16057 0.57831 0.56652 0.0
C619 C 0.17034 0.56978 0.54891 0.0
C620 C 0.15928 0.54844 0.54103 0.0
C621 C 0.13851 0.53543 0.55085 0.0
C622 C 0.12878 0.54371 0.56865 0.0
C623 C 0.13975 0.56505 0.57653 0.0
H624 H 0.12998 0.51892 0.54473 0.0
H625 H 0.24098 0.72587 0.62107 0.0
H626 H 0.63545 0.19956 0.64733 0.0
H627 H 0.62736 0.20478 0.69777 0.0
H628 H 0.58269 0.13803 0.70503 0.0
H629 H 0.59022 0.13293 0.65468 0.0
H630 H 0.56518 0.15836 0.72608 0.0
H631 H 0.63304 0.16343 0.73953 0.0
H632 H 0.6712 0.17739 0.73083 0.0
H633 H 0.68441 0.23928 0.75689 0.0
H634 H 0.64627 0.22573 0.7654 0.0
H635 H 0.5511 0.15053 0.88171 0.0
H636 H 0.55902 0.14736 0.83045 0.0
H637 H 0.59896 0.21502 0.82504 0.0
H638 H 0.5912 0.21832 0.87605 0.0
H639 H 0.619 0.19561 0.80288 0.0
H640 H 0.55088 0.18976 0.79111 0.0
H641 H 0.51271 0.17529 0.8004 0.0
H642 H 0.50003 0.11408 0.77168 0.0
H643 H 0.53818 0.12813 0.76259 0.0
C644 C 0.6242 0.18597 0.6599 0.0
C645 C 0.61357 0.16581 0.647 0.0
C646 C 0.61953 0.18895 0.68877 0.0
C647 C 0.60444 0.17177 0.7055 0.0
C648 C 0.59428 0.15159 0.69273 0.0
C649 C 0.59871 0.14867 0.6639 0.0
C650 C 0.59857 0.17464 0.73591 0.0
C651 C 0.57699 0.16628 0.74292 0.0
C652 C 0.61387 0.18543 0.75792 0.0
C653 C 0.63678 0.19361 0.75279 0.0
C654 C 0.64406 0.18005 0.74317 0.0
C655 C 0.66569 0.18788 0.73832 0.0
C656 C 0.68021 0.20922 0.74322 0.0
C657 C 0.67314 0.22276 0.75306 0.0
C658 C 0.65152 0.21501 0.75791 0.0
C659 C 0.56127 0.16477 0.86948 0.0
C660 C 0.57046 0.18468 0.88314 0.0
C661 C 0.56583 0.16294 0.84013 0.0
C662 C 0.57964 0.18097 0.82374 0.0
C663 C 0.58836 0.20086 0.83715 0.0
C664 C 0.58377 0.20271 0.86637 0.0
C665 C 0.58565 0.17912 0.79304 0.0
C666 C 0.60723 0.18771 0.78599 0.0
C667 C 0.57036 0.16844 0.77102 0.0
C668 C 0.54742 0.15996 0.77645 0.0
C669 C 0.53998 0.17318 0.78701 0.0
C670 C 0.51834 0.16505 0.79219 0.0
C671 C 0.50396 0.14376 0.78671 0.0
C672 C 0.51119 0.13056 0.77596 0.0
C673 C 0.53281 0.1386 0.77076 0.0
H674 H 0.48721 0.13751 0.79073 0.0
H675 H 0.69695 0.21525 0.73946 0.0
H676 H 0.44604 0.57752 0.04863 0.0
H677 H 0.46341 0.59598 1.00365 0.0
H678 H 0.44257 0.64101 0.01922 0.0
H679 H 0.42511 0.62246 0.06472 0.0
H680 H 0.43135 0.62269 0.96477 0.0
H681 H 0.4949 0.6579 0.0197 0.0
H682 H 0.52203 0.66123 0.05465 0.0
H683 H 0.53592 0.62158 1.00049 0.0
H684 H 0.50865 0.61774 0.9654 0.0
H685 H 0.47653 0.66221 0.82385 0.0
H686 H 0.47124 0.66295 0.87676 0.0
H687 H 0.4879 0.61454 0.88884 0.0
H688 H 0.49331 0.61381 0.83638 0.0
H689 H 0.50423 0.64351 0.93196 0.0
H690 H 0.43649 0.60208 0.88421 0.0
H691 H 0.40816 0.59606 0.84961 0.0
H692 H 0.40145 0.64531 0.89065 0.0
H693 H 0.42997 0.65181 0.92529 0.0
C694 C 0.44569 0.59173 0.04295 0.0
C695 C 0.43433 0.59862 0.06027 0.0
C696 C 0.45565 0.60231 0.01721 0.0
C697 C 0.45439 0.61996 1.00802 0.0
C698 C 0.44384 0.62748 0.02594 0.0
C699 C 0.43405 0.61701 0.05205 0.0
C700 C 0.4622 0.62885 0.97833 0.0
C701 C 0.44747 0.62786 0.9578 0.0
C702 C 0.48309 0.63511 0.969 0.0
C703 C 0.49964 0.63747 0.98995 0.0
C704 C 0.50363 0.64977 0.01532 0.0
C705 C 0.51906 0.65177 0.03515 0.0
C706 C 0.53068 0.64161 0.02981 0.0
C707 C 0.52692 0.62946 1.00459 0.0
C708 C 0.5115 0.6274 0.98469 0.0
C709 C 0.47945 0.65202 0.83787 0.0
C710 C 0.4852 0.63784 0.82586 0.0
C711 C 0.47631 0.65238 0.86809 0.0
C712 C 0.47893 0.63862 0.88679 0.0
C713 C 0.48577 0.6253 0.87493 0.0
C714 C 0.48878 0.62484 0.84484 0.0
C715 C 0.47323 0.63681 0.91838 0.0
C716 C 0.48831 0.63899 0.93917 0.0
C717 C 0.4526 0.63143 0.92793 0.0
C718 C 0.43554 0.62762 0.90708 0.0
C719 C 0.4291 0.61176 0.88568 0.0
C720 C 0.41299 0.60823 0.86611 0.0
C721 C 0.40305 0.62033 0.86791 0.0
C722 C 0.4092 0.63598 0.88927 0.0
C723 C 0.42533 0.6396 0.90888 0.0
H724 H 0.39051 0.6175 0.85283 0.0
H725 H 0.54261 0.64317 0.04519 0.0
H726 H 0.82554 0.38956 0.21478 0.0
H727 H 0.82336 0.39356 0.16203 0.0
H728 H 0.88077 0.4542 0.16507 0.0
H729 H 0.88256 0.45057 0.21781 0.0
H730 H 0.85389 0.45815 0.13387 0.0
H731 H 0.87784 0.40795 0.13413 0.0
H732 H 0.87747 0.37507 0.14735 0.0
H733 H 0.81601 0.33838 0.10858 0.0
H734 H 0.8159 0.37105 0.09546 0.0
H735 H 0.86554 0.468 0.9769 0.0
H736 H 0.87103 0.46539 0.0293 0.0
H737 H 0.811 0.40741 0.03426 0.0
H738 H 0.80549 0.40982 0.98237 0.0
H739 H 0.84128 0.40299 0.06071 0.0
H740 H 0.81751 0.45397 0.06207 0.0
H741 H 0.81873 0.48721 0.04853 0.0
H742 H 0.88148 0.5229 0.08379 0.0
H743 H 0.88073 0.48985 0.09721 0.0
C744 C 0.83788 0.40358 0.20412 0.0
C745 C 0.85424 0.41972 0.22054 0.0
C746 C 0.83665 0.40587 0.17387 0.0
C747 C 0.852 0.42415 0.15927 0.0
C748 C 0.86865 0.43998 0.17564 0.0
C749 C 0.86972 0.43783 0.20585 0.0
C750 C 0.85027 0.42728 0.1273 0.0
C751 C 0.85148 0.44618 0.11788 0.0
C752 C 0.84675 0.41162 0.10622 0.0
C753 C 0.84678 0.39195 0.11406 0.0
C754 C 0.86418 0.39287 0.12862 0.0
C755 C 0.86407 0.37427 0.13606 0.0
C756 C 0.84671 0.35465 0.12888 0.0
C757 C 0.82944 0.35359 0.11417 0.0
C758 C 0.82946 0.37214 0.10669 0.0
C759 C 0.85341 0.45485 0.98925 0.0
C760 C 0.83508 0.43914 0.9753 0.0
C761 C 0.85656 0.45336 0.01923 0.0
C762 C 0.84142 0.43616 0.03584 0.0
C763 C 0.82299 0.42074 0.02199 0.0
C764 C 0.81983 0.42223 0.99222 0.0
C765 C 0.84476 0.43375 0.06745 0.0
C766 C 0.84383 0.41498 0.07676 0.0
C767 C 0.84871 0.44958 0.08838 0.0
C768 C 0.84915 0.46944 0.08035 0.0
C769 C 0.83163 0.46891 0.06671 0.0
C770 C 0.83223 0.48771 0.05911 0.0
C771 C 0.85019 0.50716 0.06521 0.0
C772 C 0.86759 0.50783 0.07902 0.0
C773 C 0.86708 0.48907 0.08666 0.0
H774 H 0.85062 0.5217 0.05931 0.0
H775 H 0.84665 0.34027 0.13466 0.0
H776 H 0.42203 0.81725 0.12541 0.0
H777 H 0.43712 0.8146 0.17209 0.0
H778 H 0.42666 0.86317 0.20847 0.0
H779 H 0.41193 0.86602 0.16224 0.0
H780 H 0.46395 0.86778 0.22687 0.0
H781 H 0.3908 0.81051 0.21798 0.0
H782 H 0.36231 0.77919 0.19326 0.0
H783 H 0.39743 0.74675 0.20312 0.0
H784 H 0.42627 0.77803 0.22751 0.0
H785 H 0.45275 0.85317 0.37917 0.0
H786 H 0.44956 0.85708 0.32688 0.0
H787 H 0.45461 0.80159 0.31028 0.0
H788 H 0.45688 0.7971 0.36286 0.0
H789 H 0.42473 0.79915 0.27862 0.0
H790 H 0.49586 0.8543 0.29336 0.0
H791 H 0.52516 0.88574 0.31668 0.0
H792 H 0.49565 0.92212 0.2948 0.0
H793 H 0.46603 0.89084 0.27169 0.0
C794 C 0.42338 0.82765 0.1432 0.0
C795 C 0.41564 0.84173 0.14018 0.0
C796 C 0.43187 0.82603 0.16992 0.0
C797 C 0.43277 0.8385 0.19398 0.0
C798 C 0.42613 0.85336 0.19034 0.0
C799 C 0.41761 0.8549 0.16385 0.0
C800 C 0.43914 0.83534 0.2236 0.0
C801 C 0.45537 0.85279 0.23824 0.0
C802 C 0.42836 0.81564 0.23821 0.0
C803 C 0.41078 0.79667 0.22427 0.0
C804 C 0.39248 0.79673 0.21474 0.0
C805 C 0.37628 0.77899 0.20079 0.0
C806 C 0.37809 0.76102 0.19653 0.0
C807 C 0.39606 0.7607 0.20637 0.0
C808 C 0.41234 0.77843 0.22026 0.0
C809 C 0.45347 0.84194 0.36441 0.0
C810 C 0.45514 0.82485 0.37526 0.0
C811 C 0.45174 0.84425 0.33437 0.0
C812 C 0.45218 0.82983 0.31432 0.0
C813 C 0.45425 0.81296 0.32514 0.0
C814 C 0.45564 0.81046 0.35525 0.0
C815 C 0.44933 0.83178 0.28235 0.0
C816 C 0.43368 0.81409 0.26724 0.0
C817 C 0.46078 0.85126 0.26723 0.0
C818 C 0.47865 0.87017 0.28094 0.0
C819 C 0.49555 0.86897 0.29367 0.0
C820 C 0.51223 0.88677 0.30683 0.0
C821 C 0.51225 0.9059 0.30726 0.0
C822 C 0.49561 0.90729 0.29446 0.0
C823 C 0.47889 0.88954 0.28128 0.0
H824 H 0.52517 0.91966 0.31748 0.0
H825 H 0.36555 0.74732 0.18566 0.0
H826 H 0.56436 0.3751 0.31137 0.0
H827 H 0.57617 0.38015 0.3623 0.0
H828 H 0.56449 0.43232 0.37018 0.0
H829 H 0.55336 0.42775 0.31928 0.0
H830 H 0.60071 0.44358 0.39304 0.0
H831 H 0.53201 0.38194 0.40276 0.0
H832 H 0.50336 0.34564 0.39252 0.0
H833 H 0.54355 0.3213 0.41887 0.0
H834 H 0.57255 0.35749 0.42887 0.0
H835 H 0.60705 0.45225 0.54976 0.0
H836 H 0.5959 0.44752 0.49852 0.0
H837 H 0.61415 0.40009 0.48818 0.0
H838 H 0.62527 0.40468 0.5391 0.0
H839 H 0.57482 0.38641 0.46689 0.0
H840 H 0.64337 0.44869 0.45752 0.0
H841 H 0.67132 0.48514 0.46864 0.0
H842 H 0.63013 0.50836 0.44263 0.0
H843 H 0.60181 0.472 0.43171 0.0
C844 C 0.56403 0.38745 0.3241 0.0
C845 C 0.55787 0.40099 0.31119 0.0
C846 C 0.57078 0.39033 0.3533 0.0
C847 C 0.57117 0.40659 0.37039 0.0
C848 C 0.56451 0.41975 0.35761 0.0
C849 C 0.55801 0.41703 0.32844 0.0
C850 C 0.57918 0.4105 0.40117 0.0
C851 C 0.59477 0.43108 0.40924 0.0
C852 C 0.57191 0.39422 0.42239 0.0
C853 C 0.55453 0.37245 0.41625 0.0
C854 C 0.5348 0.36886 0.40612 0.0
C855 C 0.51849 0.3483 0.40041 0.0
C856 C 0.52166 0.33118 0.40496 0.0
C857 C 0.54113 0.33458 0.4153 0.0
C858 C 0.55751 0.35511 0.42101 0.0
C859 C 0.60901 0.44106 0.53646 0.0
C860 C 0.6171 0.42888 0.54868 0.0
C861 C 0.6026 0.43834 0.50712 0.0
C862 C 0.60414 0.42341 0.48937 0.0
C863 C 0.61268 0.41163 0.50137 0.0
C864 C 0.61917 0.4144 0.53055 0.0
C865 C 0.59621 0.41944 0.45865 0.0
C866 C 0.58068 0.39886 0.45063 0.0
C867 C 0.6034 0.43573 0.43754 0.0
C868 C 0.6204 0.4576 0.44409 0.0
C869 C 0.64021 0.46155 0.45441 0.0
C870 C 0.65613 0.4822 0.46063 0.0
C871 C 0.65248 0.49905 0.45642 0.0
C872 C 0.63292 0.49529 0.44591 0.0
C873 C 0.61694 0.47467 0.43968 0.0
H874 H 0.66483 0.51502 0.46124 0.0
H875 H 0.509 0.31527 0.40054 0.0
H876 H 0.92209 0.4196 0.31114 0.0
H877 H 0.96076 0.43453 0.31286 0.0
H878 H 0.96599 0.48267 0.37247 0.0
H879 H 0.92757 0.46782 0.37086 0.0
H880 H 0.9975 0.49848 0.32888 0.0
H881 H 0.96653 0.44119 0.39899 0.0
H882 H 0.94292 0.40427 0.41422 0.0
H883 H 0.97376 0.38335 0.35357 0.0
H884 H 0.99738 0.42016 0.33768 0.0
H885 H 0.09871 0.53588 0.39314 0.0
H886 H 0.06124 0.52219 0.38197 0.0
H887 H 0.0588 0.46844 0.33879 0.0
H888 H 0.09604 0.4818 0.35086 0.0
H889 H 0.02571 0.45478 0.37006 0.0
H890 H 0.05807 0.51114 0.30119 0.0
H891 H 0.08156 0.54754 0.28388 0.0
H892 H 0.04849 0.56975 0.33816 0.0
H893 H 0.02496 0.5335 0.35611 0.0
C894 C 0.93156 0.4335 0.32429 0.0
C895 C 0.92177 0.44242 0.34104 0.0
C896 C 0.95362 0.44197 0.32539 0.0
C897 C 0.96629 0.45965 0.34298 0.0
C898 C 0.95659 0.46903 0.35879 0.0
C899 C 0.93459 0.46042 0.35801 0.0
C900 C 0.98951 0.46799 0.34603 0.0
C901 C 1.00371 0.489 0.33805 0.0
C902 C 0.99766 0.45548 0.35728 0.0
C903 C 0.98354 0.43338 0.36692 0.0
C904 C 0.96815 0.42869 0.38873 0.0
C905 C 0.9548 0.4078 0.39751 0.0
C906 C 0.9568 0.39147 0.38481 0.0
C907 C 0.9722 0.39601 0.36335 0.0
C908 C 0.98558 0.41689 0.35446 0.0
C909 C 0.09023 0.5213 0.38093 0.0
C910 C 0.10036 0.50994 0.37288 0.0
C911 C 0.06878 0.51347 0.37445 0.0
C912 C 0.05706 0.49433 0.35913 0.0
C913 C 0.06732 0.48318 0.35068 0.0
C914 C 0.08865 0.49083 0.35757 0.0
C915 C 0.03395 0.48546 0.353 0.0
C916 C 0.01969 0.46432 0.36053 0.0
C917 C 0.02578 0.4978 0.34095 0.0
C918 C 0.03987 0.51962 0.33019 0.0
C919 C 0.0559 0.5238 0.3096 0.0
C920 C 0.06921 0.54441 0.29964 0.0
C921 C 0.06656 0.56095 0.30996 0.0
C922 C 0.05055 0.55692 0.33021 0.0
C923 C 0.0372 0.53634 0.34026 0.0
H924 H 0.07688 0.5769 0.30223 0.0
H925 H 0.94644 0.3753 0.39164 0.0
H926 H 0.46554 0.91877 0.51997 0.0
H927 H 0.48985 0.95678 0.52414 0.0
H928 H 0.5402 0.94908 0.48739 0.0
H929 H 0.51584 0.91083 0.48334 0.0
H930 H 0.55233 0.97424 0.53763 0.0
H931 H 0.51818 0.97024 0.44659 0.0
H932 H 0.48775 0.95968 0.41383 0.0
H933 H 0.4662 0.99377 0.46704 0.0
H934 H 0.49636 1.00428 0.50037 0.0
H935 H 0.62568 0.083 0.51819 0.0
H936 H 0.60194 0.04535 0.51137 0.0
H937 H 0.54871 0.05248 0.53646 0.0
H938 H 0.57226 0.0905 0.5419 0.0
H939 H 0.53824 0.0273 0.49133 0.0
H940 H 0.57091 0.03066 0.58304 0.0
H941 H 0.60041 0.04083 0.61742 0.0
H942 H 0.62361 0.00765 0.56539 0.0
H943 H 0.59439 0.99751 0.53046 0.0
C944 C 0.48178 0.92513 0.51279 0.0
C945 C 0.48876 0.91174 0.50138 0.0
C946 C 0.49564 0.94691 0.515 0.0
C947 C 0.51684 0.95583 0.50595 0.0
C948 C 0.52389 0.94255 0.49446 0.0
C949 C 0.50994 0.92073 0.49196 0.0
C950 C 0.53165 0.97896 0.50914 0.0
C951 C 0.54946 0.98587 0.52713 0.0
C952 C 0.52754 0.99412 0.4962 0.0
C953 C 0.50943 0.98788 0.47613 0.0
C954 C 0.50686 0.97534 0.45145 0.0
C955 C 0.48968 0.96939 0.43275 0.0
C956 C 0.47502 0.976 0.43839 0.0
C957 C 0.47755 0.98863 0.46271 0.0
C958 C 0.4947 0.99461 0.4815 0.0
C959 C 0.60894 0.07675 0.52206 0.0
C960 C 0.60104 0.09008 0.53058 0.0
C961 C 0.59534 0.05502 0.51847 0.0
C962 C 0.5735 0.04589 0.52378 0.0
C963 C 0.56551 0.05908 0.5323 0.0
C964 C 0.57909 0.08088 0.53569 0.0
C965 C 0.55899 0.02269 0.51991 0.0
C966 C 0.5412 0.01573 0.50181 0.0
C967 C 0.563 0.00746 0.533 0.0
C968 C 0.58058 0.01351 0.55398 0.0
C969 C 0.58239 0.02567 0.5788 0.0
C970 C 0.59905 0.03141 0.59841 0.0
C971 C 0.6139 0.02494 0.59355 0.0
C972 C 0.61211 0.01267 0.5691 0.0
C973 C 0.59549 0.00691 0.54941 0.0
H974 H 0.62679 0.02939 0.60875 0.0
H975 H 0.46173 0.97138 0.42388 0.0
H976 H 0.55429 0.6251 0.67872 0.0
H977 H 0.56587 0.5994 0.67142 0.0
H978 H 0.50847 0.55127 0.71209 0.0
H979 H 0.49639 0.57673 0.71889 0.0
H980 H 0.54458 0.55182 0.7325 0.0
H981 H 0.5136 0.55151 0.63969 0.0
H982 H 0.50893 0.56771 0.59525 0.0
H983 H 0.57409 0.59126 0.57178 0.0
H984 H 0.57924 0.57545 0.61632 0.0
H985 H 0.55103 0.46202 0.6971 0.0
H986 H 0.53937 0.48799 0.7001 0.0
H987 H 0.59398 0.53193 0.64976 0.0
H988 H 0.60543 0.50552 0.64612 0.0
H989 H 0.56052 0.53467 0.634 0.0
H990 H 0.59225 0.53567 0.72537 0.0
H991 H 0.5983 0.52073 0.77009 0.0
H992 H 0.53386 0.4978 0.79697 0.0
H993 H 0.52734 0.51236 0.75219 0.0
C994 C 0.54391 0.60904 0.68586 0.0
C995 C 0.52424 0.60312 0.69926 0.0
C996 C 0.55065 0.59434 0.68171 0.0
C997 C 0.53795 0.57335 0.69092 0.0
C998 C 0.51852 0.5674 0.70477 0.0
C999 C 0.51168 0.58206 0.70877 0.0
C1000 C 0.54507 0.55768 0.6864 0.0
C1001 C 0.54778 0.54785 0.71094 0.0
C1002 C 0.54996 0.55304 0.65834 0.0
C1003 C 0.54686 0.56247 0.63149 0.0
C1004 C 0.52698 0.56029 0.62518 0.0
C1005 C 0.52424 0.56937 0.59995 0.0
C1006 C 0.54122 0.58055 0.58074 0.0
C1007 C 0.56096 0.58262 0.5867 0.0
C1008 C 0.5638 0.57358 0.61191 0.0
C1009 C 0.56053 0.4772 0.68662 0.0
C1010 C 0.5793 0.48186 0.67171 0.0
C1011 C 0.55389 0.49207 0.6884 0.0
C1012 C 0.56607 0.51218 0.67584 0.0
C1013 C 0.58437 0.51659 0.65983 0.0
C1014 C 0.5909 0.50152 0.6577 0.0
C1015 C 0.55983 0.52859 0.68012 0.0
C1016 C 0.55735 0.53863 0.65558 0.0
C1017 C 0.55538 0.53363 0.70825 0.0
C1018 C 0.55926 0.52495 0.73529 0.0
C1019 C 0.57933 0.52732 0.74072 0.0
C1020 C 0.58285 0.51893 0.76609 0.0
C1021 C 0.56646 0.50828 0.78632 0.0
C1022 C 0.54654 0.50604 0.78126 0.0
C1023 C 0.54293 0.51437 0.7559 0.0
H1024 H 0.56922 0.5018 0.80596 0.0
H1025 H 0.53906 0.58758 0.56122 0.0
H1026 H 0.10425 0.57442 0.79232 0.0
H1027 H 0.06556 0.55499 0.79542 0.0
H1028 H 0.06873 0.57377 0.88535 0.0
H1029 H 0.10715 0.59365 0.88243 0.0
H1030 H 0.04049 0.53101 0.87717 0.0
H1031 H 0.05565 0.59748 0.83498 0.0
H1032 H 0.07143 0.62641 0.79895 0.0
H1033 H 0.03672 0.58276 0.73022 0.0
H1034 H 0.02095 0.55351 0.76582 0.0
H1035 H 0.93169 0.50172 0.89888 0.0
H1036 H 0.97055 0.51956 0.89654 0.0
H1037 H 0.9674 0.50953 0.80335 0.0
H1038 H 0.92883 0.49233 0.80562 0.0
H1039 H 0.99606 0.54774 0.8133 0.0
H1040 H 0.98063 0.48118 0.85406 0.0
H1041 H 0.96505 0.45157 0.88906 0.0
H1042 H 1.00016 0.49387 0.95884 0.0
H1043 H 0.01575 0.5238 0.9243 0.0
C1044 C 0.09684 0.57467 0.81272 0.0
C1045 C 0.10918 0.58569 0.83713 0.0
C1046 C 0.07463 0.56343 0.81447 0.0
C1047 C 0.06421 0.56289 0.84065 0.0
C1048 C 0.07639 0.5738 0.86499 0.0
C1049 C 0.09852 0.58517 0.86322 0.0
C1050 C 0.04062 0.55111 0.84278 0.0
C1051 C 0.03075 0.53479 0.86342 0.0
C1052 C 0.02788 0.5557 0.82442 0.0
C1053 C 0.0373 0.57327 0.80301 0.0
C1054 C 0.05152 0.59402 0.81214 0.0
C1055 C 0.06044 0.61049 0.79181 0.0
C1056 C 0.05513 0.60642 0.7623 0.0
C1057 C 0.04085 0.58589 0.75308 0.0
C1058 C 0.03191 0.56936 0.77332 0.0
C1059 C 0.93934 0.50313 0.87801 0.0
C1060 C 0.92721 0.49574 0.85243 0.0
C1061 C 0.96156 0.5133 0.87665 0.0
C1062 C 0.97206 0.51587 0.84974 0.0
C1063 C 0.95983 0.50797 0.82434 0.0
C1064 C 0.93773 0.49811 0.82566 0.0
C1065 C 0.99573 0.52742 0.84762 0.0
C1066 C 1.00569 0.5438 0.82702 0.0
C1067 C 1.00852 0.52272 0.86583 0.0
C1068 C 0.99919 0.50476 0.88664 0.0
C1069 C 0.9849 0.48419 0.87691 0.0
C1070 C 0.97609 0.46735 0.89665 0.0
C1071 C 0.98156 0.47084 0.92617 0.0
C1072 C 0.99591 0.49119 0.93598 0.0
C1073 C 1.00475 0.5081 0.91633 0.0
H1074 H 0.97473 0.45778 0.94142 0.0
H1075 H 0.06204 0.61918 0.74659 0.0
H1076 H 0.49495 0.08978 0.9762 0.0
H1077 H 0.47077 0.05128 0.97859 0.0
H1078 H 0.51606 0.04489 0.03147 0.0
H1079 H 0.54 0.0831 0.02926 0.0
H1080 H 0.49769 0.01351 0.98853 0.0
H1081 H 0.47591 0.04559 0.06377 0.0
H1082 H 0.46389 0.06966 0.08206 0.0
H1083 H 0.40891 0.03924 0.02731 0.0
H1084 H 0.42077 0.01518 1.00838 0.0
H1085 H 0.43754 0.91381 0.05714 0.0
H1086 H 0.46048 0.95114 0.04502 0.0
H1087 H 0.40698 0.9531 1.00856 0.0
H1088 H 0.38395 0.91592 0.02137 0.0
H1089 H 0.42837 0.98675 0.03857 0.0
H1090 H 0.44776 0.95307 0.9653 0.0
H1091 H 0.45923 0.92901 0.94526 0.0
H1092 H 0.51765 0.96204 0.99261 0.0
H1093 H 0.50641 0.98613 1.01326 0.0
C1094 C 0.4998 0.08007 0.98795 0.0
C1095 C 0.51928 0.08946 1.00272 0.0
C1096 C 0.48596 0.05812 0.98946 0.0
C1097 C 0.49153 0.04518 1.00543 0.0
C1098 C 0.51138 0.05449 0.01908 0.0
C1099 C 0.525 0.07636 0.01793 0.0
C1100 C 0.47648 0.0221 1.00921 0.0
C1101 C 0.48257 0.00763 0.99961 0.0
C1102 C 0.45651 0.01436 0.02298 0.0
C1103 C 0.44935 0.02877 0.03441 0.0
C1104 C 0.46135 0.04417 0.05544 0.0
C1105 C 0.45455 0.05778 0.06596 0.0
C1106 C 0.43568 0.05603 0.05578 0.0
C1107 C 0.42355 0.04061 0.03512 0.0
C1108 C 0.43029 0.02698 0.0245 0.0
C1109 C 0.43071 0.92214 0.0463 0.0
C1110 C 0.40889 0.91183 0.04022 0.0
C1111 C 0.44387 0.94353 0.03927 0.0
C1112 C 0.43563 0.95505 0.0254 0.0
C1113 C 0.41382 0.94471 0.01925 0.0
C1114 C 0.40063 0.92341 0.02663 0.0
C1115 C 0.44957 0.97796 0.0181 0.0
C1116 C 0.44333 0.99247 0.02713 0.0
C1117 C 0.4693 0.98571 1.00345 0.0
C1118 C 0.47616 0.97129 0.99103 0.0
C1119 C 0.46299 0.95511 0.97161 0.0
C1120 C 0.46946 0.94148 0.96011 0.0
C1121 C 0.48913 0.94397 0.96771 0.0
C1122 C 0.5024 0.96012 0.98677 0.0
C1123 C 0.496 0.97378 0.99835 0.0
H1124 H 0.49411 0.9334 0.95879 0.0
H1125 H 0.43044 0.06658 0.06396 0.0
H1126 H 0.43184 0.53581 0.17635 0.0
H1127 H 0.45335 0.51982 0.18921 0.0
H1128 H 0.41983 0.47071 0.12561 0.0
H1129 H 0.39858 0.48658 0.11247 0.0
H1130 H 0.42253 0.45411 0.176 0.0
H1131 H 0.47092 0.51164 0.11393 0.0
H1132 H 0.49204 0.54897 0.09895 0.0
H1133 H 0.52573 0.56418 0.18019 0.0
H1134 H 0.50458 0.52697 0.19581 0.0
H1135 H 0.48261 0.4056 0.1539 0.0
H1136 H 0.46706 0.42802 0.14688 0.0
H1137 H 0.50459 0.46803 0.21767 0.0
H1138 H 0.52034 0.44533 0.22489 0.0
H1139 H 0.50107 0.49109 0.17064 0.0
H1140 H 0.45447 0.43296 0.23107 0.0
H1141 H 0.43357 0.39554 0.24563 0.0
H1142 H 0.39637 0.38154 0.16769 0.0
H1143 H 0.41726 0.41885 0.15243 0.0
C1144 C 0.42917 0.52174 0.16487 0.0
C1145 C 0.41325 0.51249 0.14345 0.0
C1146 C 0.44151 0.51257 0.17229 0.0
C1147 C 0.4383 0.49402 0.15837 0.0
C1148 C 0.42257 0.48491 0.13687 0.0
C1149 C 0.41029 0.49402 0.12945 0.0
C1150 C 0.45079 0.48359 0.16639 0.0
C1151 C 0.4397 0.46221 0.17458 0.0
C1152 C 0.47327 0.49423 0.16557 0.0
C1153 C 0.486 0.51658 0.15618 0.0
C1154 C 0.4827 0.52298 0.1287 0.0
C1155 C 0.4947 0.54411 0.12008 0.0
C1156 C 0.51017 0.55896 0.13865 0.0
C1157 C 0.51371 0.55268 0.16585 0.0
C1158 C 0.50173 0.53157 0.1746 0.0
C1159 C 0.48764 0.41917 0.16801 0.0
C1160 C 0.50246 0.42342 0.19033 0.0
C1161 C 0.47874 0.43204 0.16391 0.0
C1162 C 0.48427 0.4495 0.18212 0.0
C1163 C 0.49996 0.45457 0.20344 0.0
C1164 C 0.50899 0.44163 0.20753 0.0
C1165 C 0.47271 0.46151 0.17943 0.0
C1166 C 0.48393 0.48311 0.17235 0.0
C1167 C 0.45029 0.45112 0.1813 0.0
C1168 C 0.43754 0.42869 0.19052 0.0
C1169 C 0.44193 0.42188 0.21694 0.0
C1170 C 0.43007 0.40069 0.22533 0.0
C1171 C 0.41368 0.38616 0.20757 0.0
C1172 C 0.40908 0.39281 0.18142 0.0
C1173 C 0.42091 0.41399 0.1729 0.0
H1174 H 0.40452 0.36976 0.2141 0.0
H1175 H 0.51945 0.57531 0.13193 0.0
H1176 H 0.23838 0.59663 0.34348 0.0
H1177 H 0.27107 0.60553 0.31636 0.0
H1178 H 0.25009 0.53918 0.3074 0.0
H1179 H 0.21787 0.53031 0.33441 0.0
H1180 H 0.29036 0.56113 0.32791 0.0
H1181 H 0.24941 0.56966 0.24929 0.0
H1182 H 0.23086 0.58648 0.22666 0.0
H1183 H 0.28709 0.64728 0.23392 0.0
H1184 H 0.3059 0.63081 0.25684 0.0
H1185 H 0.33861 0.5372 0.21622 0.0
H1186 H 0.31699 0.54339 0.25077 0.0
H1187 H 0.35263 0.61021 0.23237 0.0
H1188 H 0.37419 0.6039 0.19655 0.0
H1189 H 0.31238 0.59815 0.23265 0.0
H1190 H 0.35556 0.58981 0.30068 0.0
H1191 H 0.37556 0.57473 0.32375 0.0
H1192 H 0.31763 0.51661 0.33951 0.0
H1193 H 0.29729 0.53119 0.31615 0.0
C1194 C 0.24066 0.58399 0.33534 0.0
C1195 C 0.22553 0.56277 0.34126 0.0
C1196 C 0.25936 0.58908 0.31987 0.0
C1197 C 0.26315 0.57301 0.30993 0.0
C1198 C 0.24769 0.55188 0.31505 0.0
C1199 C 0.22916 0.54682 0.33044 0.0
C1200 C 0.28331 0.57768 0.29505 0.0
C1201 C 0.29512 0.56914 0.30699 0.0
C1202 C 0.29032 0.58921 0.26862 0.0
C1203 C 0.27894 0.59906 0.25511 0.0
C1204 C 0.25774 0.58664 0.24631 0.0
C1205 C 0.2472 0.5961 0.23338 0.0
C1206 C 0.25775 0.61795 0.22902 0.0
C1207 C 0.27889 0.63038 0.23747 0.0
C1208 C 0.2895 0.62099 0.25041 0.0
C1209 C 0.3422 0.55331 0.21979 0.0
C1210 C 0.35824 0.57005 0.20363 0.0
C1211 C 0.32983 0.55687 0.23982 0.0
C1212 C 0.33329 0.57733 0.24473 0.0
C1213 C 0.3497 0.59428 0.2292 0.0
C1214 C 0.36215 0.59069 0.20891 0.0
C1215 C 0.31856 0.5803 0.26452 0.0
C1216 C 0.30789 0.59043 0.25375 0.0
C1217 C 0.31277 0.57051 0.29234 0.0
C1218 C 0.32489 0.5616 0.30655 0.0
C1219 C 0.34708 0.57376 0.30891 0.0
C1220 C 0.35848 0.56531 0.32206 0.0
C1221 C 0.34787 0.54472 0.33307 0.0
C1222 C 0.32583 0.53256 0.33099 0.0
C1223 C 0.31435 0.54093 0.31784 0.0
H1224 H 0.35673 0.5382 0.34324 0.0
H1225 H 0.24958 0.62524 0.21894 0.0
H1226 H 0.82986 0.34016 0.38098 0.0
H1227 H 0.80388 0.31227 0.41255 0.0
H1228 H 0.75474 0.32269 0.37862 0.0
H1229 H 0.78081 0.35094 0.34716 0.0
H1230 H 0.75159 0.31911 0.4366 0.0
H1231 H 0.75831 0.27865 0.35942 0.0
H1232 H 0.77699 0.26737 0.32518 0.0
H1233 H 0.80224 0.24954 0.39722 0.0
H1234 H 0.78394 0.26099 0.43192 0.0
H1235 H 0.66573 0.22614 0.49948 0.0
H1236 H 0.69051 0.25331 0.46584 0.0
H1237 H 0.7414 0.24535 0.4989 0.0
H1238 H 0.71665 0.21796 0.53244 0.0
H1239 H 0.74288 0.24735 0.44036 0.0
H1240 H 0.73656 0.28851 0.51746 0.0
H1241 H 0.71761 0.29959 0.55153 0.0
H1242 H 0.69127 0.3159 0.47921 0.0
H1243 H 0.70985 0.30463 0.44469 0.0
C1244 C 0.8135 0.33645 0.37997 0.0
C1245 C 0.80749 0.34784 0.36134 0.0
C1246 C 0.79859 0.32038 0.39805 0.0
C1247 C 0.7772 0.31511 0.3979 0.0
C1248 C 0.7711 0.32637 0.3792 0.0
C1249 C 0.78604 0.34248 0.36107 0.0
C1250 C 0.76141 0.2983 0.41783 0.0
C1251 C 0.74946 0.30332 0.43705 0.0
C1252 C 0.75888 0.27777 0.41908 0.0
C1253 C 0.76991 0.27087 0.39828 0.0
C1254 C 0.76799 0.27248 0.36797 0.0
C1255 C 0.77848 0.26603 0.34848 0.0
C1256 C 0.79084 0.25779 0.35902 0.0
C1257 C 0.79268 0.25595 0.38909 0.0
C1258 C 0.78224 0.2624 0.40868 0.0
C1259 C 0.68221 0.2302 0.49975 0.0
C1260 C 0.68914 0.21982 0.51884 0.0
C1261 C 0.69642 0.24585 0.4805 0.0
C1262 C 0.71795 0.25162 0.47988 0.0
C1263 C 0.7249 0.24125 0.49887 0.0
C1264 C 0.71071 0.22561 0.51818 0.0
C1265 C 0.73314 0.2682 0.4592 0.0
C1266 C 0.74498 0.26313 0.43984 0.0
C1267 C 0.73554 0.28867 0.45779 0.0
C1268 C 0.72442 0.29552 0.47849 0.0
C1269 C 0.72659 0.2943 0.50882 0.0
C1270 C 0.71595 0.30064 0.52821 0.0
C1271 C 0.7032 0.30838 0.51754 0.0
C1272 C 0.70113 0.30986 0.48744 0.0
C1273 C 0.71172 0.30352 0.46796 0.0
H1274 H 0.69497 0.31329 0.53258 0.0
H1275 H 0.79894 0.2528 0.34389 0.0
H1276 H 0.46334 0.67137 0.66731 0.0
H1277 H 0.46232 0.69548 0.63133 0.0
H1278 H 0.515 0.74814 0.67381 0.0
H1279 H 0.5161 0.72411 0.71004 0.0
H1280 H 0.48381 0.75701 0.65938 0.0
H1281 H 0.52277 0.72848 0.61138 0.0
H1282 H 0.52892 0.70015 0.59338 0.0
H1283 H 0.47364 0.67635 0.53934 0.0
H1284 H 0.46698 0.70437 0.55735 0.0
H1285 H 0.50639 0.83232 0.5485 0.0
H1286 H 0.51003 0.8086 0.58246 0.0
H1287 H 0.4599 0.75478 0.53814 0.0
H1288 H 0.45642 0.7784 0.50369 0.0
H1289 H 0.4904 0.74667 0.5535 0.0
H1290 H 0.45052 0.77387 0.60183 0.0
H1291 H 0.44329 0.80145 0.62002 0.0
H1292 H 0.49889 0.82684 0.67362 0.0
H1293 H 0.50662 0.79956 0.65544 0.0
C1294 C 0.47469 0.68809 0.66911 0.0
C1295 C 0.48987 0.69577 0.69157 0.0
C1296 C 0.47415 0.70185 0.6484 0.0
C1297 C 0.48875 0.72361 0.64961 0.0
C1298 C 0.50361 0.73141 0.67236 0.0
C1299 C 0.50424 0.71763 0.69304 0.0
C1300 C 0.48849 0.73821 0.62717 0.0
C1301 C 0.48558 0.75494 0.63626 0.0
C1302 C 0.49023 0.7352 0.59691 0.0
C1303 C 0.49427 0.71841 0.58593 0.0
C1304 C 0.51183 0.71711 0.59583 0.0
C1305 C 0.51542 0.70112 0.5856 0.0
C1306 C 0.50165 0.68642 0.56528 0.0
C1307 C 0.48428 0.68772 0.5551 0.0
C1308 C 0.4806 0.70367 0.5653 0.0
C1309 C 0.49629 0.81543 0.54572 0.0
C1310 C 0.48102 0.8073 0.52343 0.0
C1311 C 0.49831 0.80187 0.5653 0.0
C1312 C 0.48495 0.77988 0.56328 0.0
C1313 C 0.47033 0.77167 0.54026 0.0
C1314 C 0.46837 0.78523 0.52055 0.0
C1315 C 0.48574 0.76552 0.5857 0.0
C1316 C 0.48871 0.7488 0.57662 0.0
C1317 C 0.4839 0.76844 0.61598 0.0
C1318 C 0.47926 0.78481 0.62704 0.0
C1319 C 0.46129 0.78543 0.61733 0.0
C1320 C 0.45709 0.80099 0.62766 0.0
C1321 C 0.47066 0.81593 0.6479 0.0
C1322 C 0.48842 0.81529 0.65791 0.0
C1323 C 0.49271 0.79977 0.64761 0.0
H1324 H 0.46738 0.82796 0.65588 0.0
H1325 H 0.50446 0.67406 0.55739 0.0
H1326 H 0.7606 0.43199 0.87549 0.0
H1327 H 0.73648 0.43272 0.83922 0.0
H1328 H 0.78866 0.46538 0.77901 0.0
H1329 H 0.81298 0.46511 0.81542 0.0
H1330 H 0.76329 0.48163 0.77613 0.0
H1331 H 0.75333 0.41177 0.77293 0.0
H1332 H 0.7463 0.3777 0.79349 0.0
H1333 H 0.68502 0.36505 0.82306 0.0
H1334 H 0.6918 0.39922 0.80302 0.0
H1335 H 0.69979 0.4625 0.64892 0.0
H1336 H 0.72506 0.46327 0.68467 0.0
H1337 H 0.67423 0.43057 0.74681 0.0
H1338 H 0.64888 0.42937 0.71109 0.0
H1339 H 0.69951 0.41438 0.74792 0.0
H1340 H 0.71014 0.48496 0.75097 0.0
H1341 H 0.71785 0.51923 0.73029 0.0
H1342 H 0.77855 0.53042 0.70024 0.0
H1343 H 0.77109 0.49608 0.72043 0.0
C1344 C 0.76702 0.43949 0.85464 0.0
C1345 C 0.78879 0.44843 0.84843 0.0
C1346 C 0.75314 0.43978 0.83378 0.0
C1347 C 0.76061 0.44879 0.80606 0.0
C1348 C 0.78243 0.45827 0.80013 0.0
C1349 C 0.79635 0.45806 0.82102 0.0
C1350 C 0.74566 0.448 0.78314 0.0
C1351 C 0.7495 0.46687 0.76971 0.0
C1352 C 0.72742 0.42883 0.77494 0.0
C1353 C 0.72315 0.40814 0.78668 0.0
C1354 C 0.7384 0.40179 0.78397 0.0
C1355 C 0.73446 0.38245 0.79551 0.0
C1356 C 0.71524 0.36923 0.80959 0.0
C1357 C 0.6999 0.37532 0.81214 0.0
C1358 C 0.70378 0.39466 0.80067 0.0
C1359 C 0.69396 0.45547 0.67019 0.0
C1360 C 0.67224 0.44594 0.67706 0.0
C1361 C 0.70848 0.456 0.69072 0.0
C1362 C 0.70168 0.44722 0.71872 0.0
C1363 C 0.67996 0.43748 0.72546 0.0
C1364 C 0.66545 0.43687 0.70495 0.0
C1365 C 0.71705 0.44804 0.74102 0.0
C1366 C 0.7133 0.42914 0.75432 0.0
C1367 C 0.73542 0.46718 0.74899 0.0
C1368 C 0.73996 0.48786 0.73695 0.0
C1369 C 0.72507 0.49466 0.73977 0.0
C1370 C 0.7294 0.51411 0.72817 0.0
C1371 C 0.74865 0.52697 0.71389 0.0
C1372 C 0.76363 0.52043 0.71127 0.0
C1373 C 0.75937 0.50099 0.7228 0.0
H1374 H 0.75198 0.54202 0.70493 0.0
H1375 H 0.71221 0.35425 0.81845 0.0
H1376 H 0.36566 0.78027 0.99971 0.0
H1377 H 0.34238 0.75346 0.9643 0.0
H1378 H 0.33905 0.80156 0.91419 0.0
H1379 H 0.36205 0.82828 0.94933 0.0
H1380 H 0.29993 0.76902 0.92921 0.0
H1381 H 0.36473 0.77797 0.889 0.0
H1382 H 0.39886 0.7786 0.88935 0.0
H1383 H 0.36694 0.71272 0.91159 0.0
H1384 H 0.33262 0.71176 0.91192 0.0
H1385 H 0.23802 0.70843 0.81019 0.0
H1386 H 0.26732 0.73478 0.83953 0.0
H1387 H 0.27254 0.68526 0.88288 0.0
H1388 H 0.2435 0.65881 0.85324 0.0
H1389 H 0.31117 0.7179 0.87151 0.0
H1390 H 0.24758 0.70907 0.91585 0.0
H1391 H 0.21301 0.70758 0.91761 0.0
H1392 H 0.24245 0.7722 0.88946 0.0
H1393 H 0.27717 0.774 0.88715 0.0
C1394 C 0.36054 0.78523 0.98064 0.0
C1395 C 0.3657 0.80644 0.97738 0.0
C1396 C 0.34717 0.76986 0.96047 0.0
C1397 C 0.3389 0.77548 0.93663 0.0
C1398 C 0.34511 0.79682 0.93248 0.0
C1399 C 0.35837 0.81211 0.95254 0.0
C1400 C 0.3223 0.7591 0.91749 0.0
C1401 C 0.30253 0.75805 0.91627 0.0
C1402 C 0.32542 0.74431 0.90133 0.0
C1403 C 0.34609 0.74489 0.90102 0.0
C1404 C 0.36498 0.76367 0.89436 0.0
C1405 C 0.38438 0.76408 0.89434 0.0
C1406 C 0.38509 0.74574 0.90063 0.0
C1407 C 0.36638 0.72693 0.90678 0.0
C1408 C 0.34695 0.72646 0.90691 0.0
C1409 C 0.24542 0.70311 0.82589 0.0
C1410 C 0.23824 0.68145 0.82947 0.0
C1411 C 0.26217 0.71822 0.84274 0.0
C1412 C 0.27201 0.71204 0.86377 0.0
C1413 C 0.26523 0.69046 0.86686 0.0
C1414 C 0.24852 0.67533 0.84995 0.0
C1415 C 0.28892 0.72801 0.88305 0.0
C1416 C 0.30865 0.72892 0.88442 0.0
C1417 C 0.28578 0.74261 0.89964 0.0
C1418 C 0.26493 0.7416 0.90104 0.0
C1419 C 0.24665 0.72291 0.90981 0.0
C1420 C 0.22704 0.72202 0.91095 0.0
C1421 C 0.22553 0.73976 0.90357 0.0
C1422 C 0.24364 0.75846 0.89512 0.0
C1423 C 0.2633 0.75943 0.89391 0.0
H1424 H 0.21032 0.73904 0.90447 0.0
H1425 H 0.40012 0.74609 0.90061 0.0
H1426 H 0.56767 0.32269 0.21003 0.0
H1427 H 0.56645 0.29742 0.17393 0.0
H1428 H 0.53161 0.31493 0.1154 0.0
H1429 H 0.53242 0.34 0.1517 0.0
H1430 H 0.51582 0.27321 0.11374 0.0
H1431 H 0.58547 0.33389 0.1066 0.0
H1432 H 0.62005 0.36155 0.12522 0.0
H1433 H 0.63421 0.31408 0.15396 0.0
H1434 H 0.59956 0.28611 0.13588 0.0
H1435 H 0.53221 0.22659 0.98625 0.0
H1436 H 0.53164 0.2513 0.02194 0.0
H1437 H 0.56843 0.23691 0.08138 0.0
H1438 H 0.56952 0.21263 0.04555 0.0
H1439 H 0.58309 0.27758 0.08185 0.0
H1440 H 0.51325 0.21685 0.0897 0.0
H1441 H 0.47849 0.18914 0.07165 0.0
H1442 H 0.46463 0.23658 0.04178 0.0
H1443 H 0.49944 0.26459 0.05933 0.0
C1444 C 0.55961 0.32111 0.18958 0.0
C1445 C 0.55024 0.33353 0.18382 0.0
C1446 C 0.55903 0.30669 0.16881 0.0
C1447 C 0.54927 0.30445 0.14158 0.0
C1448 C 0.53932 0.31636 0.13613 0.0
C1449 C 0.53983 0.33075 0.15695 0.0
C1450 C 0.54974 0.28997 0.11872 0.0
C1451 C 0.53057 0.27436 0.1065 0.0
C1452 C 0.5689 0.2911 0.10951 0.0
C1453 C 0.58984 0.3079 0.12012 0.0
C1454 C 0.5959 0.32934 0.11706 0.0
C1455 C 0.61552 0.34508 0.12749 0.0
C1456 C 0.6293 0.33958 0.14082 0.0
C1457 C 0.62351 0.31832 0.14366 0.0
C1458 C 0.60389 0.30252 0.1333 0.0
C1459 C 0.54018 0.22866 1.00692 0.0
C1460 C 0.55086 0.2175 1.01295 0.0
C1461 C 0.53974 0.24275 0.02745 0.0
C1462 C 0.54973 0.24586 0.05471 0.0
C1463 C 0.56057 0.23487 0.06062 0.0
C1464 C 0.56113 0.2209 0.04005 0.0
C1465 C 0.54915 0.26066 0.07698 0.0
C1466 C 0.56832 0.27639 0.08905 0.0
C1467 C 0.52999 0.25963 0.08605 0.0
C1468 C 0.50904 0.24281 0.07557 0.0
C1469 C 0.50285 0.22138 0.07909 0.0
C1470 C 0.48313 0.20562 0.06899 0.0
C1471 C 0.46938 0.2111 0.05551 0.0
C1472 C 0.47531 0.23236 0.05219 0.0
C1473 C 0.49502 0.24818 0.06223 0.0
H1474 H 0.45412 0.19888 0.0477 0.0
H1475 H 0.64448 0.35178 0.1489 0.0
loop_
_geom_bond_atom_site_label_1
_geom_bond_atom_site_label_2
_geom_bond_distance
_geom_bond_site_symmetry_2
_ccdc_geom_bond_type
Cu0 N1 1.999 . S
Cu0 O6 1.974 . S
Cu0 N11 1.985 . S
Cu0 O20 1.959 . S
N1 Cu0 1.999 . S
N1 C3 1.263 . S
N1 C5 1.389 . S
N2 C3 1.358 . S
N2 C4 1.400 . S
C3 N1 1.263 . S
C3 N2 1.358 . S
C3 H9 0.930 . S
C4 N2 1.400 . S
C4 C5 1.351 . S
C4 H21 0.930 . S
C5 N1 1.389 . S
C5 C4 1.351 . S
C5 H10 0.930 . S
O6 Cu0 1.974 . S
O6 C16 1.282 . S
C7 O8 1.261 . S
C7 O20 1.251 . S
O8 C7 1.261 . S
H9 C3 0.930 . S
H10 C5 0.930 . S
N11 Cu0 1.985 . S
N11 C13 1.335 . S
N11 C14 1.390 . S
N12 C13 1.345 . S
N12 C15 1.336 . S
C13 N11 1.335 . S
C13 N12 1.345 . S
C13 H18 0.930 . S
C14 N11 1.390 . S
C14 C15 1.346 . S
C14 H19 0.930 . S
C15 N12 1.336 . S
C15 C14 1.346 . S
C15 H22 0.929 . S
C16 O6 1.282 . S
C16 O17 1.216 . S
O17 C16 1.216 . S
H18 C13 0.930 . S
H19 C14 0.930 . S
O20 Cu0 1.959 . S
O20 C7 1.251 . S
H21 C4 0.930 . S
H22 C15 0.929 . S
Cu23 N24 1.999 . S
Cu23 O29 1.974 . S
Cu23 N34 1.985 . S
Cu23 O43 1.959 . S
N24 Cu23 1.999 . S
N24 C26 1.263 . S
N24 C28 1.389 . S
N25 C26 1.358 . S
N25 C27 1.400 . S
C26 N24 1.263 . S
C26 N25 1.358 . S
C26 H32 0.930 . S
C27 N25 1.400 . S
C27 C28 1.351 . S
C27 H44 0.930 . S
C28 N24 1.389 . S
C28 C27 1.351 . S
C28 H33 0.930 . S
O29 Cu23 1.974 . S
O29 C39 1.282 . S
C30 O31 1.261 . S
C30 O43 1.251 . S
O31 C30 1.261 . S
H32 C26 0.930 . S
H33 C28 0.930 . S
N34 Cu23 1.985 . S
N34 C36 1.335 . S
N34 C37 1.390 . S
N35 C36 1.345 . S
N35 C38 1.336 . S
C36 N34 1.335 . S
C36 N35 1.345 . S
C36 H41 0.930 . S
C37 N34 1.390 . S
C37 C38 1.346 . S
C37 H42 0.930 . S
C38 N35 1.336 . S
C38 C37 1.346 . S
C38 H45 0.929 . S
C39 O29 1.282 . S
C39 O40 1.216 . S
O40 C39 1.216 . S
H41 C36 0.930 . S
H42 C37 0.930 . S
O43 Cu23 1.959 . S
O43 C30 1.251 . S
H44 C27 0.930 . S
H45 C38 0.929 . S
Cu46 N47 1.999 . S
Cu46 O52 1.974 . S
Cu46 N57 1.985 . S
Cu46 O66 1.959 . S
N47 Cu46 1.999 . S
N47 C49 1.263 . S
N47 C51 1.389 . S
N48 C49 1.358 . S
N48 C50 1.400 . S
C49 N47 1.263 . S
C49 N48 1.358 . S
C49 H55 0.930 . S
C50 N48 1.400 . S
C50 C51 1.351 . S
C50 H67 0.930 . S
C51 N47 1.389 . S
C51 C50 1.351 . S
C51 H56 0.930 . S
O52 Cu46 1.974 . S
O52 C62 1.282 . S
C53 O54 1.261 . S
C53 O66 1.251 . S
O54 C53 1.261 . S
H55 C49 0.930 . S
H56 C51 0.930 . S
N57 Cu46 1.985 . S
N57 C59 1.335 . S
N57 C60 1.390 . S
N58 C59 1.345 . S
N58 C61 1.336 . S
C59 N57 1.335 . S
C59 N58 1.345 . S
C59 H64 0.930 . S
C60 N57 1.390 . S
C60 C61 1.346 . S
C60 H65 0.930 . S
C61 N58 1.336 . S
C61 C60 1.346 . S
C61 H68 0.929 . S
C62 O52 1.282 . S
C62 O63 1.216 . S
O63 C62 1.216 . S
H64 C59 0.930 . S
H65 C60 0.930 . S
O66 Cu46 1.959 . S
O66 C53 1.251 . S
H67 C50 0.930 . S
H68 C61 0.929 . S
Cu69 N70 1.999 . S
Cu69 O75 1.974 . S
Cu69 N80 1.985 . S
Cu69 O89 1.959 . S
N70 Cu69 1.999 . S
N70 C72 1.263 . S
N70 C74 1.389 . S
N71 C72 1.358 . S
N71 C73 1.400 . S
C72 N70 1.263 . S
C72 N71 1.358 . S
C72 H78 0.930 . S
C73 N71 1.400 . S
C73 C74 1.351 . S
C73 H90 0.930 . S
C74 N70 1.389 . S
C74 C73 1.351 . S
C74 H79 0.930 . S
O75 Cu69 1.974 . S
O75 C85 1.282 . S
C76 O77 1.261 . S
C76 O89 1.251 . S
O77 C76 1.261 . S
H78 C72 0.930 . S
H79 C74 0.930 . S
N80 Cu69 1.985 . S
N80 C82 1.335 . S
N80 C83 1.390 . S
N81 C82 1.345 . S
N81 C84 1.336 . S
C82 N80 1.335 . S
C82 N81 1.345 . S
C82 H87 0.930 . S
C83 N80 1.390 . S
C83 C84 1.346 . S
C83 H88 0.930 . S
C84 N81 1.336 . S
C84 C83 1.346 . S
C84 H91 0.929 . S
C85 O75 1.282 . S
C85 O86 1.216 . S
O86 C85 1.216 . S
H87 C82 0.930 . S
H88 C83 0.930 . S
O89 Cu69 1.959 . S
O89 C76 1.251 . S
H90 C73 0.930 . S
H91 C84 0.929 . S
Cu92 N93 1.999 . S
Cu92 O98 1.974 . S
Cu92 N103 1.985 . S
Cu92 O112 1.959 . S
N93 Cu92 1.999 . S
N93 C95 1.263 . S
N93 C97 1.389 . S
N94 C95 1.358 . S
N94 C96 1.400 . S
C95 N93 1.263 . S
C95 N94 1.358 . S
C95 H101 0.930 . S
C96 N94 1.400 . S
C96 C97 1.351 . S
C96 H113 0.930 . S
C97 N93 1.389 . S
C97 C96 1.351 . S
C97 H102 0.930 . S
O98 Cu92 1.974 . S
O98 C108 1.282 . S
C99 O100 1.261 . S
C99 O112 1.251 . S
O100 C99 1.261 . S
H101 C95 0.930 . S
H102 C97 0.930 . S
N103 Cu92 1.985 . S
N103 C105 1.335 . S
N103 C106 1.390 . S
N104 C105 1.345 . S
N104 C107 1.336 . S
C105 N103 1.335 . S
C105 N104 1.345 . S
C105 H110 0.930 . S
C106 N103 1.390 . S
C106 C107 1.346 . S
C106 H111 0.930 . S
C107 N104 1.336 . S
C107 C106 1.346 . S
C107 H114 0.929 . S
C108 O98 1.282 . S
C108 O109 1.216 . S
O109 C108 1.216 . S
H110 C105 0.930 . S
H111 C106 0.930 . S
O112 Cu92 1.959 . S
O112 C99 1.251 . S
H113 C96 0.930 . S
H114 C107 0.929 . S
Cu115 N116 1.999 . S
Cu115 O121 1.974 . S
Cu115 N126 1.985 . S
Cu115 O135 1.959 . S
N116 Cu115 1.999 . S
N116 C118 1.263 . S
N116 C120 1.389 . S
N117 C118 1.358 . S
N117 C119 1.400 . S
C118 N116 1.263 . S
C118 N117 1.358 . S
C118 H124 0.930 . S
C119 N117 1.400 . S
C119 C120 1.351 . S
C119 H136 0.930 . S
C120 N116 1.389 . S
C120 C119 1.351 . S
C120 H125 0.930 . S
O121 Cu115 1.974 . S
O121 C131 1.282 . S
C122 O123 1.261 . S
C122 O135 1.251 . S
O123 C122 1.261 . S
H124 C118 0.930 . S
H125 C120 0.930 . S
N126 Cu115 1.985 . S
N126 C128 1.335 . S
N126 C129 1.390 . S
N127 C128 1.345 . S
N127 C130 1.336 . S
C128 N126 1.335 . S
C128 N127 1.345 . S
C128 H133 0.930 . S
C129 N126 1.390 . S
C129 C130 1.346 . S
C129 H134 0.930 . S
C130 N127 1.336 . S
C130 C129 1.346 . S
C130 H137 0.929 . S
C131 O121 1.282 . S
C131 O132 1.216 . S
O132 C131 1.216 . S
H133 C128 0.930 . S
H134 C129 0.930 . S
O135 Cu115 1.959 . S
O135 C122 1.251 . S
H136 C119 0.930 . S
H137 C130 0.929 . S
Cu138 N139 1.999 . S
Cu138 O144 1.974 . S
Cu138 N149 1.985 . S
Cu138 O158 1.959 . S
N139 Cu138 1.999 . S
N139 C141 1.263 . S
N139 C143 1.389 . S
N140 C141 1.358 . S
N140 C142 1.400 . S
C141 N139 1.263 . S
C141 N140 1.358 . S
C141 H147 0.930 . S
C142 N140 1.400 . S
C142 C143 1.351 . S
C142 H159 0.930 . S
C143 N139 1.389 . S
C143 C142 1.351 . S
C143 H148 0.930 . S
O144 Cu138 1.974 . S
O144 C154 1.282 . S
C145 O146 1.261 . S
C145 O158 1.251 . S
O146 C145 1.261 . S
H147 C141 0.930 . S
H148 C143 0.930 . S
N149 Cu138 1.985 . S
N149 C151 1.335 . S
N149 C152 1.390 . S
N150 C151 1.345 . S
N150 C153 1.336 . S
C151 N149 1.335 . S
C151 N150 1.345 . S
C151 H156 0.930 . S
C152 N149 1.390 . S
C152 C153 1.346 . S
C152 H157 0.930 . S
C153 N150 1.336 . S
C153 C152 1.346 . S
C153 H160 0.929 . S
C154 O144 1.282 . S
C154 O155 1.216 . S
O155 C154 1.216 . S
H156 C151 0.930 . S
H157 C152 0.930 . S
O158 Cu138 1.959 . S
O158 C145 1.251 . S
H159 C142 0.930 . S
H160 C153 0.929 . S
Cu161 N162 1.999 . S
Cu161 O167 1.974 . S
Cu161 N172 1.985 . S
Cu161 O181 1.959 . S
N162 Cu161 1.999 . S
N162 C164 1.263 . S
N162 C166 1.389 . S
N163 C164 1.358 . S
N163 C165 1.400 . S
C164 N162 1.263 . S
C164 N163 1.358 . S
C164 H170 0.930 . S
C165 N163 1.400 . S
C165 C166 1.351 . S
C165 H182 0.930 . S
C166 N162 1.389 . S
C166 C165 1.351 . S
C166 H171 0.930 . S
O167 Cu161 1.974 . S
O167 C177 1.282 . S
C168 O169 1.261 . S
C168 O181 1.251 . S
O169 C168 1.261 . S
H170 C164 0.930 . S
H171 C166 0.930 . S
N172 Cu161 1.985 . S
N172 C174 1.335 . S
N172 C175 1.390 . S
N173 C174 1.345 . S
N173 C176 1.336 . S
C174 N172 1.335 . S
C174 N173 1.345 . S
C174 H179 0.930 . S
C175 N172 1.390 . S
C175 C176 1.346 . S
C175 H180 0.930 . S
C176 N173 1.336 . S
C176 C175 1.346 . S
C176 H183 0.929 . S
C177 O167 1.282 . S
C177 O178 1.216 . S
O178 C177 1.216 . S
H179 C174 0.930 . S
H180 C175 0.930 . S
O181 Cu161 1.959 . S
O181 C168 1.251 . S
H182 C165 0.930 . S
H183 C176 0.929 . S
Cu184 N185 1.999 . S
Cu184 O190 1.974 . S
Cu184 N195 1.985 . S
Cu184 O204 1.959 . S
N185 Cu184 1.999 . S
N185 C187 1.263 . S
N185 C189 1.389 . S
N186 C187 1.358 . S
N186 C188 1.400 . S
C187 N185 1.263 . S
C187 N186 1.358 . S
C187 H193 0.930 . S
C188 N186 1.400 . S
C188 C189 1.351 . S
C188 H205 0.930 . S
C189 N185 1.389 . S
C189 C188 1.351 . S
C189 H194 0.930 . S
O190 Cu184 1.974 . S
O190 C200 1.282 . S
C191 O192 1.261 . S
C191 O204 1.251 . S
O192 C191 1.261 . S
H193 C187 0.930 . S
H194 C189 0.930 . S
N195 Cu184 1.985 . S
N195 C197 1.335 . S
N195 C198 1.390 . S
N196 C197 1.345 . S
N196 C199 1.336 . S
C197 N195 1.335 . S
C197 N196 1.345 . S
C197 H202 0.930 . S
C198 N195 1.390 . S
C198 C199 1.346 . S
C198 H203 0.930 . S
C199 N196 1.336 . S
C199 C198 1.346 . S
C199 H206 0.929 . S
C200 O190 1.282 . S
C200 O201 1.216 . S
O201 C200 1.216 . S
H202 C197 0.930 . S
H203 C198 0.930 . S
O204 Cu184 1.959 . S
O204 C191 1.251 . S
H205 C188 0.930 . S
H206 C199 0.929 . S
Cu207 N208 1.999 . S
Cu207 O213 1.974 . S
Cu207 N218 1.985 . S
Cu207 O227 1.959 . S
N208 Cu207 1.999 . S
N208 C210 1.263 . S
N208 C212 1.389 . S
N209 C210 1.358 . S
N209 C211 1.400 . S
C210 N208 1.263 . S
C210 N209 1.358 . S
C210 H216 0.930 . S
C211 N209 1.400 . S
C211 C212 1.351 . S
C211 H228 0.930 . S
C212 N208 1.389 . S
C212 C211 1.351 . S
C212 H217 0.930 . S
O213 Cu207 1.974 . S
O213 C223 1.282 . S
C214 O215 1.261 . S
C214 O227 1.251 . S
O215 C214 1.261 . S
H216 C210 0.930 . S
H217 C212 0.930 . S
N218 Cu207 1.985 . S
N218 C220 1.335 . S
N218 C221 1.390 . S
N219 C220 1.345 . S
N219 C222 1.336 . S
C220 N218 1.335 . S
C220 N219 1.345 . S
C220 H225 0.930 . S
C221 N218 1.390 . S
C221 C222 1.346 . S
C221 H226 0.930 . S
C222 N219 1.336 . S
C222 C221 1.346 . S
C222 H229 0.929 . S
C223 O213 1.282 . S
C223 O224 1.216 . S
O224 C223 1.216 . S
H225 C220 0.930 . S
H226 C221 0.930 . S
O227 Cu207 1.959 . S
O227 C214 1.251 . S
H228 C211 0.930 . S
H229 C222 0.929 . S
Cu230 N231 1.999 . S
Cu230 O236 1.974 . S
Cu230 N241 1.985 . S
Cu230 O250 1.959 . S
N231 Cu230 1.999 . S
N231 C233 1.263 . S
N231 C235 1.389 . S
N232 C233 1.358 . S
N232 C234 1.400 . S
C233 N231 1.263 . S
C233 N232 1.358 . S
C233 H239 0.930 . S
C234 N232 1.400 . S
C234 C235 1.351 . S
C234 H251 0.930 . S
C235 N231 1.389 . S
C235 C234 1.351 . S
C235 H240 0.930 . S
O236 Cu230 1.974 . S
O236 C246 1.282 . S
C237 O238 1.261 . S
C237 O250 1.251 . S
O238 C237 1.261 . S
H239 C233 0.930 . S
H240 C235 0.930 . S
N241 Cu230 1.985 . S
N241 C243 1.335 . S
N241 C244 1.390 . S
N242 C243 1.345 . S
N242 C245 1.336 . S
C243 N241 1.335 . S
C243 N242 1.345 . S
C243 H248 0.930 . S
C244 N241 1.390 . S
C244 C245 1.346 . S
C244 H249 0.930 . S
C245 N242 1.336 . S
C245 C244 1.346 . S
C245 H252 0.929 . S
C246 O236 1.282 . S
C246 O247 1.216 . S
O247 C246 1.216 . S
H248 C243 0.930 . S
H249 C244 0.930 . S
O250 Cu230 1.959 . S
O250 C237 1.251 . S
H251 C234 0.930 . S
H252 C245 0.929 . S
Cu253 N254 1.999 . S
Cu253 O259 1.974 . S
Cu253 N264 1.985 . S
Cu253 O273 1.959 . S
N254 Cu253 1.999 . S
N254 C256 1.263 . S
N254 C258 1.389 . S
N255 C256 1.358 . S
N255 C257 1.400 . S
C256 N254 1.263 . S
C256 N255 1.358 . S
C256 H262 0.930 . S
C257 N255 1.400 . S
C257 C258 1.351 . S
C257 H274 0.930 . S
C258 N254 1.389 . S
C258 C257 1.351 . S
C258 H263 0.930 . S
O259 Cu253 1.974 . S
O259 C269 1.282 . S
C260 O261 1.261 . S
C260 O273 1.251 . S
O261 C260 1.261 . S
H262 C256 0.930 . S
H263 C258 0.930 . S
N264 Cu253 1.985 . S
N264 C266 1.335 . S
N264 C267 1.390 . S
N265 C266 1.345 . S
N265 C268 1.336 . S
C266 N264 1.335 . S
C266 N265 1.345 . S
C266 H271 0.930 . S
C267 N264 1.390 . S
C267 C268 1.346 . S
C267 H272 0.930 . S
C268 N265 1.336 . S
C268 C267 1.346 . S
C268 H275 0.929 . S
C269 O259 1.282 . S
C269 O270 1.216 . S
O270 C269 1.216 . S
H271 C266 0.930 . S
H272 C267 0.930 . S
O273 Cu253 1.959 . S
O273 C260 1.251 . S
H274 C257 0.930 . S
H275 C268 0.929 . S
H276 C294 0.951 . S
H277 C296 0.951 . S
H278 C298 0.950 . S
H279 C299 0.950 . S
H280 C301 0.950 . S
H281 C304 0.950 . S
H282 C305 0.950 . S
H283 C307 0.950 . S
H284 C308 0.950 . S
H285 C309 0.951 . S
H286 C311 0.951 . S
H287 C313 0.950 . S
H288 C314 0.950 . S
H289 C316 0.950 . S
H290 C319 0.950 . S
H291 C320 0.950 . S
H292 C322 0.950 . S
H293 C323 0.950 . S
C294 H276 0.951 . S
C294 C295 1.366 . S
C294 C296 1.388 . S
C295 C294 1.366 . S
C295 C299 1.385 . S
C296 H277 0.951 . S
C296 C294 1.388 . S
C296 C297 1.366 . S
C297 C296 1.366 . S
C297 C298 1.414 . S
C297 C300 1.499 . S
C298 H278 0.950 . S
C298 C297 1.414 . S
C298 C299 1.374 . S
C299 H279 0.950 . S
C299 C295 1.385 . S
C299 C298 1.374 . S
C300 C297 1.499 . S
C300 C301 1.373 . S
C300 C302 1.389 . S
C301 H280 0.950 . S
C301 C300 1.373 . S
C301 C317 1.377 . S
C302 C300 1.389 . S
C302 C303 1.524 . S
C302 C316 1.377 . S
C303 C302 1.524 . S
C303 C304 1.397 . S
C303 C308 1.363 . S
C304 H281 0.950 . S
C304 C303 1.397 . S
C304 C305 1.334 . S
C305 H282 0.950 . S
C305 C304 1.334 . S
C305 C306 1.287 . S
C306 C305 1.287 . S
C306 C307 1.524 . S
C306 H325 0.913 . S
C307 H283 0.950 . S
C307 C306 1.524 . S
C307 C308 1.415 . S
C308 H284 0.950 . S
C308 C303 1.363 . S
C308 C307 1.415 . S
C309 H285 0.951 . S
C309 C310 1.366 . S
C309 C311 1.388 . S
C310 C309 1.366 . S
C310 C314 1.385 . S
C311 H286 0.951 . S
C311 C309 1.388 . S
C311 C312 1.366 . S
C312 C311 1.366 . S
C312 C313 1.414 . S
C312 C315 1.499 . S
C313 H287 0.950 . S
C313 C312 1.414 . S
C313 C314 1.374 . S
C314 H288 0.950 . S
C314 C310 1.385 . S
C314 C313 1.374 . S
C315 C312 1.499 . S
C315 C316 1.373 . S
C315 C317 1.389 . S
C316 H289 0.950 . S
C316 C302 1.377 . S
C316 C315 1.373 . S
C317 C301 1.377 . S
C317 C315 1.389 . S
C317 C318 1.524 . S
C318 C317 1.524 . S
C318 C319 1.397 . S
C318 C323 1.363 . S
C319 H290 0.950 . S
C319 C318 1.397 . S
C319 C320 1.334 . S
C320 H291 0.950 . S
C320 C319 1.334 . S
C320 C321 1.287 . S
C321 C320 1.287 . S
C321 C322 1.524 . S
C321 H324 0.999 . S
C322 H292 0.950 . S
C322 C321 1.524 . S
C322 C323 1.415 . S
C323 H293 0.950 . S
C323 C318 1.363 . S
C323 C322 1.415 . S
H324 C321 0.999 . S
H325 C306 0.913 . S
H326 C344 0.951 . S
H327 C346 0.951 . S
H328 C348 0.950 . S
H329 C349 0.950 . S
H330 C351 0.950 . S
H331 C354 0.950 . S
H332 C355 0.950 . S
H333 C357 0.950 . S
H334 C358 0.950 . S
H335 C359 0.951 . S
H336 C361 0.951 . S
H337 C363 0.950 . S
H338 C364 0.950 . S
H339 C366 0.950 . S
H340 C369 0.950 . S
H341 C370 0.950 . S
H342 C372 0.950 . S
H343 C373 0.950 . S
C344 H326 0.951 . S
C344 C345 1.366 . S
C344 C346 1.388 . S
C345 C344 1.366 . S
C345 C349 1.385 . S
C346 H327 0.951 . S
C346 C344 1.388 . S
C346 C347 1.366 . S
C347 C346 1.366 . S
C347 C348 1.414 . S
C347 C350 1.499 . S
C348 H328 0.950 . S
C348 C347 1.414 . S
C348 C349 1.374 . S
C349 H329 0.950 . S
C349 C345 1.385 . S
C349 C348 1.374 . S
C350 C347 1.499 . S
C350 C351 1.373 . S
C350 C352 1.389 . S
C351 H330 0.950 . S
C351 C350 1.373 . S
C351 C367 1.377 . S
C352 C350 1.389 . S
C352 C353 1.524 . S
C352 C366 1.377 . S
C353 C352 1.524 . S
C353 C354 1.397 . S
C353 C358 1.363 . S
C354 H331 0.950 . S
C354 C353 1.397 . S
C354 C355 1.334 . S
C355 H332 0.950 . S
C355 C354 1.334 . S
C355 C356 1.287 . S
C356 C355 1.287 . S
C356 C357 1.524 . S
C356 H375 0.913 . S
C357 H333 0.950 . S
C357 C356 1.524 . S
C357 C358 1.415 . S
C358 H334 0.950 . S
C358 C353 1.363 . S
C358 C357 1.415 . S
C359 H335 0.951 . S
C359 C360 1.366 . S
C359 C361 1.388 . S
C360 C359 1.366 . S
C360 C364 1.385 . S
C361 H336 0.951 . S
C361 C359 1.388 . S
C361 C362 1.366 . S
C362 C361 1.366 . S
C362 C363 1.414 . S
C362 C365 1.499 . S
C363 H337 0.950 . S
C363 C362 1.414 . S
C363 C364 1.374 . S
C364 H338 0.950 . S
C364 C360 1.385 . S
C364 C363 1.374 . S
C365 C362 1.499 . S
C365 C366 1.373 . S
C365 C367 1.389 . S
C366 H339 0.950 . S
C366 C352 1.377 . S
C366 C365 1.373 . S
C367 C351 1.377 . S
C367 C365 1.389 . S
C367 C368 1.524 . S
C368 C367 1.524 . S
C368 C369 1.397 . S
C368 C373 1.363 . S
C369 H340 0.950 . S
C369 C368 1.397 . S
C369 C370 1.334 . S
C370 H341 0.950 . S
C370 C369 1.334 . S
C370 C371 1.287 . S
C371 C370 1.287 . S
C371 C372 1.524 . S
C371 H374 0.999 . S
C372 H342 0.950 . S
C372 C371 1.524 . S
C372 C373 1.415 . S
C373 H343 0.950 . S
C373 C368 1.363 . S
C373 C372 1.415 . S
H374 C371 0.999 . S
H375 C356 0.913 . S
H376 C394 0.951 . S
H377 C396 0.951 . S
H378 C398 0.950 . S
H379 C399 0.950 . S
H380 C401 0.950 . S
H381 C404 0.950 . S
H382 C405 0.950 . S
H383 C407 0.950 . S
H384 C408 0.950 . S
H385 C409 0.951 . S
H386 C411 0.951 . S
H387 C413 0.950 . S
H388 C414 0.950 . S
H389 C416 0.950 . S
H390 C419 0.950 . S
H391 C420 0.950 . S
H392 C422 0.950 . S
H393 C423 0.950 . S
C394 H376 0.951 . S
C394 C395 1.366 . S
C394 C396 1.388 . S
C395 C394 1.366 . S
C395 C399 1.385 . S
C396 H377 0.951 . S
C396 C394 1.388 . S
C396 C397 1.366 . S
C397 C396 1.366 . S
C397 C398 1.414 . S
C397 C400 1.499 . S
C398 H378 0.950 . S
C398 C397 1.414 . S
C398 C399 1.374 . S
C399 H379 0.950 . S
C399 C395 1.385 . S
C399 C398 1.374 . S
C400 C397 1.499 . S
C400 C401 1.373 . S
C400 C402 1.389 . S
C401 H380 0.950 . S
C401 C400 1.373 . S
C401 C417 1.377 . S
C402 C400 1.389 . S
C402 C403 1.524 . S
C402 C416 1.377 . S
C403 C402 1.524 . S
C403 C404 1.397 . S
C403 C408 1.363 . S
C404 H381 0.950 . S
C404 C403 1.397 . S
C404 C405 1.334 . S
C405 H382 0.950 . S
C405 C404 1.334 . S
C405 C406 1.287 . S
C406 C405 1.287 . S
C406 C407 1.524 . S
C406 H425 0.913 . S
C407 H383 0.950 . S
C407 C406 1.524 . S
C407 C408 1.415 . S
C408 H384 0.950 . S
C408 C403 1.363 . S
C408 C407 1.415 . S
C409 H385 0.951 . S
C409 C410 1.366 . S
C409 C411 1.388 . S
C410 C409 1.366 . S
C410 C414 1.385 . S
C411 H386 0.951 . S
C411 C409 1.388 . S
C411 C412 1.366 . S
C412 C411 1.366 . S
C412 C413 1.414 . S
C412 C415 1.499 . S
C413 H387 0.950 . S
C413 C412 1.414 . S
C413 C414 1.374 . S
C414 H388 0.950 . S
C414 C410 1.385 . S
C414 C413 1.374 . S
C415 C412 1.499 . S
C415 C416 1.373 . S
C415 C417 1.389 . S
C416 H389 0.950 . S
C416 C402 1.377 . S
C416 C415 1.373 . S
C417 C401 1.377 . S
C417 C415 1.389 . S
C417 C418 1.524 . S
C418 C417 1.524 . S
C418 C419 1.397 . S
C418 C423 1.363 . S
C419 H390 0.950 . S
C419 C418 1.397 . S
C419 C420 1.334 . S
C420 H391 0.950 . S
C420 C419 1.334 . S
C420 C421 1.287 . S
C421 C420 1.287 . S
C421 C422 1.524 . S
C421 H424 0.999 . S
C422 H392 0.950 . S
C422 C421 1.524 . S
C422 C423 1.415 . S
C423 H393 0.950 . S
C423 C418 1.363 . S
C423 C422 1.415 . S
H424 C421 0.999 . S
H425 C406 0.913 . S
H426 C444 0.951 . S
H427 C446 0.951 . S
H428 C448 0.950 . S
H429 C449 0.950 . S
H430 C451 0.950 . S
H431 C454 0.950 . S
H432 C455 0.950 . S
H433 C457 0.950 . S
H434 C458 0.950 . S
H435 C459 0.951 . S
H436 C461 0.951 . S
H437 C463 0.950 . S
H438 C464 0.950 . S
H439 C466 0.950 . S
H440 C469 0.950 . S
H441 C470 0.950 . S
H442 C472 0.950 1_554 S
H443 C473 0.950 . S
C444 H426 0.951 . S
C444 C445 1.366 . S
C444 C446 1.388 . S
C445 C444 1.366 . S
C445 C449 1.385 . S
C446 H427 0.951 . S
C446 C444 1.388 . S
C446 C447 1.366 . S
C447 C446 1.366 . S
C447 C448 1.414 . S
C447 C450 1.499 . S
C448 H428 0.950 . S
C448 C447 1.414 . S
C448 C449 1.374 . S
C449 H429 0.950 . S
C449 C445 1.385 . S
C449 C448 1.374 . S
C450 C447 1.499 . S
C450 C451 1.373 . S
C450 C452 1.389 . S
C451 H430 0.950 . S
C451 C450 1.373 . S
C451 C467 1.377 . S
C452 C450 1.389 . S
C452 C453 1.524 . S
C452 C466 1.377 . S
C453 C452 1.524 . S
C453 C454 1.397 . S
C453 C458 1.363 . S
C454 H431 0.950 . S
C454 C453 1.397 . S
C454 C455 1.334 . S
C455 H432 0.950 . S
C455 C454 1.334 . S
C455 C456 1.287 . S
C456 C455 1.287 . S
C456 C457 1.524 . S
C456 H475 0.913 . S
C457 H433 0.950 . S
C457 C456 1.524 . S
C457 C458 1.415 . S
C458 H434 0.950 . S
C458 C453 1.363 . S
C458 C457 1.415 . S
C459 H435 0.951 . S
C459 C460 1.366 . S
C459 C461 1.388 . S
C460 C459 1.366 . S
C460 C464 1.385 . S
C461 H436 0.951 . S
C461 C459 1.388 . S
C461 C462 1.366 . S
C462 C461 1.366 . S
C462 C463 1.414 . S
C462 C465 1.499 . S
C463 H437 0.950 . S
C463 C462 1.414 . S
C463 C464 1.374 . S
C464 H438 0.950 . S
C464 C460 1.385 . S
C464 C463 1.374 . S
C465 C462 1.499 . S
C465 C466 1.373 . S
C465 C467 1.389 . S
C466 H439 0.950 . S
C466 C452 1.377 . S
C466 C465 1.373 . S
C467 C451 1.377 . S
C467 C465 1.389 . S
C467 C468 1.524 . S
C468 C467 1.524 . S
C468 C469 1.397 . S
C468 C473 1.363 . S
C469 H440 0.950 . S
C469 C468 1.397 . S
C469 C470 1.334 . S
C470 H441 0.950 . S
C470 C469 1.334 . S
C470 C471 1.287 . S
C471 C470 1.287 . S
C471 C472 1.524 . S
C471 H474 0.999 . S
C472 H442 0.950 1_556 S
C472 C471 1.524 . S
C472 C473 1.415 . S
C473 H443 0.950 . S
C473 C468 1.363 . S
C473 C472 1.415 . S
H474 C471 0.999 . S
H475 C456 0.913 . S
H476 C494 0.951 . S
H477 C496 0.951 . S
H478 C498 0.950 . S
H479 C499 0.950 . S
H480 C501 0.950 . S
H481 C504 0.950 . S
H482 C505 0.950 1_556 S
H483 C507 0.950 . S
H484 C508 0.950 . S
H485 C509 0.951 . S
H486 C511 0.951 . S
H487 C513 0.950 . S
H488 C514 0.950 . S
H489 C516 0.950 . S
H490 C519 0.950 . S
H491 C520 0.950 . S
H492 C522 0.950 . S
H493 C523 0.950 . S
C494 H476 0.951 . S
C494 C495 1.366 . S
C494 C496 1.388 . S
C495 C494 1.366 . S
C495 C499 1.385 . S
C496 H477 0.951 . S
C496 C494 1.388 . S
C496 C497 1.366 . S
C497 C496 1.366 . S
C497 C498 1.414 . S
C497 C500 1.499 . S
C498 H478 0.950 . S
C498 C497 1.414 . S
C498 C499 1.374 . S
C499 H479 0.950 . S
C499 C495 1.385 . S
C499 C498 1.374 . S
C500 C497 1.499 . S
C500 C501 1.373 . S
C500 C502 1.389 . S
C501 H480 0.950 . S
C501 C500 1.373 . S
C501 C517 1.377 . S
C502 C500 1.389 . S
C502 C503 1.524 . S
C502 C516 1.377 . S
C503 C502 1.524 . S
C503 C504 1.397 . S
C503 C508 1.363 . S
C504 H481 0.950 . S
C504 C503 1.397 . S
C504 C505 1.334 . S
C505 H482 0.950 1_554 S
C505 C504 1.334 . S
C505 C506 1.287 . S
C506 C505 1.287 . S
C506 C507 1.524 . S
C506 H525 0.913 1_554 S
C507 H483 0.950 . S
C507 C506 1.524 . S
C507 C508 1.415 . S
C508 H484 0.950 . S
C508 C503 1.363 . S
C508 C507 1.415 . S
C509 H485 0.951 . S
C509 C510 1.366 . S
C509 C511 1.388 . S
C510 C509 1.366 . S
C510 C514 1.385 . S
C511 H486 0.951 . S
C511 C509 1.388 . S
C511 C512 1.366 . S
C512 C511 1.366 . S
C512 C513 1.414 . S
C512 C515 1.499 . S
C513 H487 0.950 . S
C513 C512 1.414 . S
C513 C514 1.374 . S
C514 H488 0.950 . S
C514 C510 1.385 . S
C514 C513 1.374 . S
C515 C512 1.499 . S
C515 C516 1.373 . S
C515 C517 1.389 . S
C516 H489 0.950 . S
C516 C502 1.377 . S
C516 C515 1.373 . S
C517 C501 1.377 . S
C517 C515 1.389 . S
C517 C518 1.524 . S
C518 C517 1.524 . S
C518 C519 1.397 . S
C518 C523 1.363 . S
C519 H490 0.950 . S
C519 C518 1.397 . S
C519 C520 1.334 . S
C520 H491 0.950 . S
C520 C519 1.334 . S
C520 C521 1.287 . S
C521 C520 1.287 . S
C521 C522 1.524 . S
C521 H524 0.999 . S
C522 H492 0.950 . S
C522 C521 1.524 . S
C522 C523 1.415 . S
C523 H493 0.950 . S
C523 C518 1.363 . S
C523 C522 1.415 . S
H524 C521 0.999 . S
H525 C506 0.913 1_556 S
H526 C544 0.951 . S
H527 C546 0.951 . S
H528 C548 0.950 . S
H529 C549 0.950 . S
H530 C551 0.950 . S
H531 C554 0.950 . S
H532 C555 0.950 . S
H533 C557 0.950 . S
H534 C558 0.950 . S
H535 C559 0.951 . S
H536 C561 0.951 . S
H537 C563 0.950 . S
H538 C564 0.950 . S
H539 C566 0.950 . S
H540 C569 0.950 . S
H541 C570 0.950 . S
H542 C572 0.950 . S
H543 C573 0.950 . S
C544 H526 0.951 . S
C544 C545 1.366 . S
C544 C546 1.388 . S
C545 C544 1.366 . S
C545 C549 1.385 . S
C546 H527 0.951 . S
C546 C544 1.388 . S
C546 C547 1.366 . S
C547 C546 1.366 . S
C547 C548 1.414 . S
C547 C550 1.499 . S
C548 H528 0.950 . S
C548 C547 1.414 . S
C548 C549 1.374 . S
C549 H529 0.950 . S
C549 C545 1.385 . S
C549 C548 1.374 . S
C550 C547 1.499 . S
C550 C551 1.373 . S
C550 C552 1.389 . S
C551 H530 0.950 . S
C551 C550 1.373 . S
C551 C567 1.377 . S
C552 C550 1.389 . S
C552 C553 1.524 . S
C552 C566 1.377 . S
C553 C552 1.524 . S
C553 C554 1.397 . S
C553 C558 1.363 . S
C554 H531 0.950 . S
C554 C553 1.397 . S
C554 C555 1.334 . S
C555 H532 0.950 . S
C555 C554 1.334 . S
C555 C556 1.287 . S
C556 C555 1.287 . S
C556 C557 1.524 . S
C556 H575 0.913 . S
C557 H533 0.950 . S
C557 C556 1.524 . S
C557 C558 1.415 . S
C558 H534 0.950 . S
C558 C553 1.363 . S
C558 C557 1.415 . S
C559 H535 0.951 . S
C559 C560 1.366 . S
C559 C561 1.388 . S
C560 C559 1.366 . S
C560 C564 1.385 . S
C561 H536 0.951 . S
C561 C559 1.388 . S
C561 C562 1.366 . S
C562 C561 1.366 . S
C562 C563 1.414 . S
C562 C565 1.499 . S
C563 H537 0.950 . S
C563 C562 1.414 . S
C563 C564 1.374 . S
C564 H538 0.950 . S
C564 C560 1.385 . S
C564 C563 1.374 . S
C565 C562 1.499 . S
C565 C566 1.373 . S
C565 C567 1.389 . S
C566 H539 0.950 . S
C566 C552 1.377 . S
C566 C565 1.373 . S
C567 C551 1.377 . S
C567 C565 1.389 . S
C567 C568 1.524 . S
C568 C567 1.524 . S
C568 C569 1.397 . S
C568 C573 1.363 . S
C569 H540 0.950 . S
C569 C568 1.397 . S
C569 C570 1.334 . S
C570 H541 0.950 . S
C570 C569 1.334 . S
C570 C571 1.287 . S
C571 C570 1.287 . S
C571 C572 1.524 . S
C571 H574 0.999 . S
C572 H542 0.950 . S
C572 C571 1.524 . S
C572 C573 1.415 . S
C573 H543 0.950 . S
C573 C568 1.363 . S
C573 C572 1.415 . S
H574 C571 0.999 . S
H575 C556 0.913 . S
H576 C594 0.951 . S
H577 C596 0.951 . S
H578 C598 0.950 . S
H579 C599 0.950 . S
H580 C601 0.950 . S
H581 C604 0.950 . S
H582 C605 0.950 . S
H583 C607 0.950 . S
H584 C608 0.950 . S
H585 C609 0.951 . S
H586 C611 0.951 . S
H587 C613 0.950 . S
H588 C614 0.950 . S
H589 C616 0.950 . S
H590 C619 0.950 . S
H591 C620 0.950 . S
H592 C622 0.950 . S
H593 C623 0.950 . S
C594 H576 0.951 . S
C594 C595 1.366 . S
C594 C596 1.388 . S
C595 C594 1.366 . S
C595 C599 1.385 . S
C596 H577 0.951 . S
C596 C594 1.388 . S
C596 C597 1.366 . S
C597 C596 1.366 . S
C597 C598 1.414 . S
C597 C600 1.499 . S
C598 H578 0.950 . S
C598 C597 1.414 . S
C598 C599 1.374 . S
C599 H579 0.950 . S
C599 C595 1.385 . S
C599 C598 1.374 . S
C600 C597 1.499 . S
C600 C601 1.373 . S
C600 C602 1.389 . S
C601 H580 0.950 . S
C601 C600 1.373 . S
C601 C617 1.377 . S
C602 C600 1.389 . S
C602 C603 1.524 . S
C602 C616 1.377 . S
C603 C602 1.524 . S
C603 C604 1.397 . S
C603 C608 1.363 . S
C604 H581 0.950 . S
C604 C603 1.397 . S
C604 C605 1.334 . S
C605 H582 0.950 . S
C605 C604 1.334 . S
C605 C606 1.287 . S
C606 C605 1.287 . S
C606 C607 1.524 . S
C606 H625 0.913 . S
C607 H583 0.950 . S
C607 C606 1.524 . S
C607 C608 1.415 . S
C608 H584 0.950 . S
C608 C603 1.363 . S
C608 C607 1.415 . S
C609 H585 0.951 . S
C609 C610 1.366 . S
C609 C611 1.388 . S
C610 C609 1.366 . S
C610 C614 1.385 . S
C611 H586 0.951 . S
C611 C609 1.388 . S
C611 C612 1.366 . S
C612 C611 1.366 . S
C612 C613 1.414 . S
C612 C615 1.499 . S
C613 H587 0.950 . S
C613 C612 1.414 . S
C613 C614 1.374 . S
C614 H588 0.950 . S
C614 C610 1.385 . S
C614 C613 1.374 . S
C615 C612 1.499 . S
C615 C616 1.373 . S
C615 C617 1.389 . S
C616 H589 0.950 . S
C616 C602 1.377 . S
C616 C615 1.373 . S
C617 C601 1.377 . S
C617 C615 1.389 . S
C617 C618 1.524 . S
C618 C617 1.524 . S
C618 C619 1.397 . S
C618 C623 1.363 . S
C619 H590 0.950 . S
C619 C618 1.397 . S
C619 C620 1.334 . S
C620 H591 0.950 . S
C620 C619 1.334 . S
C620 C621 1.287 . S
C621 C620 1.287 . S
C621 C622 1.524 . S
C621 H624 0.999 . S
C622 H592 0.950 . S
C622 C621 1.524 . S
C622 C623 1.415 . S
C623 H593 0.950 . S
C623 C618 1.363 . S
C623 C622 1.415 . S
H624 C621 0.999 . S
H625 C606 0.913 . S
H626 C644 0.951 . S
H627 C646 0.951 . S
H628 C648 0.950 . S
H629 C649 0.950 . S
H630 C651 0.950 . S
H631 C654 0.950 . S
H632 C655 0.950 . S
H633 C657 0.950 . S
H634 C658 0.950 . S
H635 C659 0.951 . S
H636 C661 0.951 . S
H637 C663 0.950 . S
H638 C664 0.950 . S
H639 C666 0.950 . S
H640 C669 0.950 . S
H641 C670 0.950 . S
H642 C672 0.950 . S
H643 C673 0.950 . S
C644 H626 0.951 . S
C644 C645 1.366 . S
C644 C646 1.388 . S
C645 C644 1.366 . S
C645 C649 1.385 . S
C646 H627 0.951 . S
C646 C644 1.388 . S
C646 C647 1.366 . S
C647 C646 1.366 . S
C647 C648 1.414 . S
C647 C650 1.499 . S
C648 H628 0.950 . S
C648 C647 1.414 . S
C648 C649 1.374 . S
C649 H629 0.950 . S
C649 C645 1.385 . S
C649 C648 1.374 . S
C650 C647 1.499 . S
C650 C651 1.373 . S
C650 C652 1.389 . S
C651 H630 0.950 . S
C651 C650 1.373 . S
C651 C667 1.377 . S
C652 C650 1.389 . S
C652 C653 1.524 . S
C652 C666 1.377 . S
C653 C652 1.524 . S
C653 C654 1.397 . S
C653 C658 1.363 . S
C654 H631 0.950 . S
C654 C653 1.397 . S
C654 C655 1.334 . S
C655 H632 0.950 . S
C655 C654 1.334 . S
C655 C656 1.287 . S
C656 C655 1.287 . S
C656 C657 1.524 . S
C656 H675 0.913 . S
C657 H633 0.950 . S
C657 C656 1.524 . S
C657 C658 1.415 . S
C658 H634 0.950 . S
C658 C653 1.363 . S
C658 C657 1.415 . S
C659 H635 0.951 . S
C659 C660 1.366 . S
C659 C661 1.388 . S
C660 C659 1.366 . S
C660 C664 1.385 . S
C661 H636 0.951 . S
C661 C659 1.388 . S
C661 C662 1.366 . S
C662 C661 1.366 . S
C662 C663 1.414 . S
C662 C665 1.499 . S
C663 H637 0.950 . S
C663 C662 1.414 . S
C663 C664 1.374 . S
C664 H638 0.950 . S
C664 C660 1.385 . S
C664 C663 1.374 . S
C665 C662 1.499 . S
C665 C666 1.373 . S
C665 C667 1.389 . S
C666 H639 0.950 . S
C666 C652 1.377 . S
C666 C665 1.373 . S
C667 C651 1.377 . S
C667 C665 1.389 . S
C667 C668 1.524 . S
C668 C667 1.524 . S
C668 C669 1.397 . S
C668 C673 1.363 . S
C669 H640 0.950 . S
C669 C668 1.397 . S
C669 C670 1.334 . S
C670 H641 0.950 . S
C670 C669 1.334 . S
C670 C671 1.287 . S
C671 C670 1.287 . S
C671 C672 1.524 . S
C671 H674 0.999 . S
C672 H642 0.950 . S
C672 C671 1.524 . S
C672 C673 1.415 . S
C673 H643 0.950 . S
C673 C668 1.363 . S
C673 C672 1.415 . S
H674 C671 0.999 . S
H675 C656 0.913 . S
H676 C694 0.951 . S
H677 C696 0.951 . S
H678 C698 0.950 . S
H679 C699 0.951 . S
H680 C701 0.950 . S
H681 C704 0.950 . S
H682 C705 0.950 . S
H683 C707 0.950 1_554 S
H684 C708 0.950 . S
H685 C709 0.951 . S
H686 C711 0.951 . S
H687 C713 0.950 . S
H688 C714 0.950 . S
H689 C716 0.950 . S
H690 C719 0.950 . S
H691 C720 0.950 . S
H692 C722 0.950 . S
H693 C723 0.950 . S
C694 H676 0.951 . S
C694 C695 1.366 . S
C694 C696 1.388 1_554 S
C695 C694 1.366 . S
C695 C699 1.390 . S
C696 H677 0.951 . S
C696 C694 1.388 1_556 S
C696 C697 1.366 . S
C697 C696 1.366 . S
C697 C698 1.414 . S
C697 C700 1.499 . S
C698 H678 0.950 . S
C698 C697 1.414 . S
C698 C699 1.367 1_556 S
C699 H679 0.951 . S
C699 C695 1.390 . S
C699 C698 1.367 1_554 S
C700 C697 1.499 . S
C700 C701 1.373 . S
C700 C702 1.389 . S
C701 H680 0.950 . S
C701 C700 1.373 . S
C701 C717 1.377 . S
C702 C700 1.389 . S
C702 C703 1.524 . S
C702 C716 1.377 . S
C703 C702 1.524 . S
C703 C704 1.397 . S
C703 C708 1.363 . S
C704 H681 0.950 . S
C704 C703 1.397 . S
C704 C705 1.334 1_556 S
C705 H682 0.950 . S
C705 C704 1.334 1_554 S
C705 C706 1.287 . S
C706 C705 1.287 . S
C706 C707 1.524 1_554 S
C706 H725 0.913 . S
C707 H683 0.950 1_556 S
C707 C706 1.524 1_556 S
C707 C708 1.415 . S
C708 H684 0.950 . S
C708 C703 1.363 . S
C708 C707 1.415 . S
C709 H685 0.951 . S
C709 C710 1.366 . S
C709 C711 1.388 . S
C710 C709 1.366 . S
C710 C714 1.385 . S
C711 H686 0.951 . S
C711 C709 1.388 . S
C711 C712 1.366 . S
C712 C711 1.366 . S
C712 C713 1.414 . S
C712 C715 1.499 . S
C713 H687 0.950 . S
C713 C712 1.414 . S
C713 C714 1.374 . S
C714 H688 0.950 . S
C714 C710 1.385 . S
C714 C713 1.374 . S
C715 C712 1.499 . S
C715 C716 1.373 . S
C715 C717 1.389 . S
C716 H689 0.950 . S
C716 C702 1.377 . S
C716 C715 1.373 . S
C717 C701 1.377 . S
C717 C715 1.389 . S
C717 C718 1.524 . S
C718 C717 1.524 . S
C718 C719 1.397 . S
C718 C723 1.363 . S
C719 H690 0.950 . S
C719 C718 1.397 . S
C719 C720 1.334 . S
C720 H691 0.950 . S
C720 C719 1.334 . S
C720 C721 1.287 . S
C721 C720 1.287 . S
C721 C722 1.524 . S
C721 H724 0.999 . S
C722 H692 0.950 . S
C722 C721 1.524 . S
C722 C723 1.415 . S
C723 H693 0.950 . S
C723 C718 1.363 . S
C723 C722 1.415 . S
H724 C721 0.999 . S
H725 C706 0.913 . S
H726 C744 0.951 . S
H727 C746 0.951 . S
H728 C748 0.950 . S
H729 C749 0.950 . S
H730 C751 0.950 . S
H731 C754 0.950 . S
H732 C755 0.950 . S
H733 C757 0.950 . S
H734 C758 0.950 . S
H735 C759 0.951 . S
H736 C761 0.951 . S
H737 C763 0.950 . S
H738 C764 0.947 1_556 S
H739 C766 0.950 . S
H740 C769 0.950 . S
H741 C770 0.950 . S
H742 C772 0.950 . S
H743 C773 0.950 . S
C744 H726 0.951 . S
C744 C745 1.366 . S
C744 C746 1.388 . S
C745 C744 1.366 . S
C745 C749 1.385 . S
C746 H727 0.951 . S
C746 C744 1.388 . S
C746 C747 1.366 . S
C747 C746 1.366 . S
C747 C748 1.414 . S
C747 C750 1.499 . S
C748 H728 0.950 . S
C748 C747 1.414 . S
C748 C749 1.374 . S
C749 H729 0.950 . S
C749 C745 1.385 . S
C749 C748 1.374 . S
C750 C747 1.499 . S
C750 C751 1.373 . S
C750 C752 1.389 . S
C751 H730 0.950 . S
C751 C750 1.373 . S
C751 C767 1.377 . S
C752 C750 1.389 . S
C752 C753 1.524 . S
C752 C766 1.377 . S
C753 C752 1.524 . S
C753 C754 1.397 . S
C753 C758 1.363 . S
C754 H731 0.950 . S
C754 C753 1.397 . S
C754 C755 1.334 . S
C755 H732 0.950 . S
C755 C754 1.334 . S
C755 C756 1.287 . S
C756 C755 1.287 . S
C756 C757 1.524 . S
C756 H775 0.913 . S
C757 H733 0.950 . S
C757 C756 1.524 . S
C757 C758 1.415 . S
C758 H734 0.950 . S
C758 C753 1.363 . S
C758 C757 1.415 . S
C759 H735 0.951 . S
C759 C760 1.366 . S
C759 C761 1.388 1_556 S
C760 C759 1.366 . S
C760 C764 1.357 1_556 S
C761 H736 0.951 . S
C761 C759 1.388 1_554 S
C761 C762 1.366 . S
C762 C761 1.366 . S
C762 C763 1.414 . S
C762 C765 1.499 . S
C763 H737 0.950 . S
C763 C762 1.414 . S
C763 C764 1.405 . S
C764 H738 0.947 1_554 S
C764 C760 1.357 1_554 S
C764 C763 1.405 . S
C765 C762 1.499 . S
C765 C766 1.373 . S
C765 C767 1.389 . S
C766 H739 0.950 . S
C766 C752 1.377 . S
C766 C765 1.373 . S
C767 C751 1.377 . S
C767 C765 1.389 . S
C767 C768 1.524 . S
C768 C767 1.524 . S
C768 C769 1.397 . S
C768 C773 1.363 . S
C769 H740 0.950 . S
C769 C768 1.397 . S
C769 C770 1.334 . S
C770 H741 0.950 . S
C770 C769 1.334 . S
C770 C771 1.287 . S
C771 C770 1.287 . S
C771 C772 1.524 . S
C771 H774 0.999 . S
C772 H742 0.950 . S
C772 C771 1.524 . S
C772 C773 1.415 . S
C773 H743 0.950 . S
C773 C768 1.363 . S
C773 C772 1.415 . S
H774 C771 0.999 . S
H775 C756 0.913 . S
H776 C794 0.951 . S
H777 C796 0.951 . S
H778 C798 0.950 . S
H779 C799 0.950 . S
H780 C801 0.950 . S
H781 C804 0.950 . S
H782 C805 0.950 . S
H783 C807 0.950 . S
H784 C808 0.950 . S
H785 C809 0.951 . S
H786 C811 0.951 . S
H787 C813 0.950 . S
H788 C814 0.950 . S
H789 C816 0.950 . S
H790 C819 0.950 . S
H791 C820 0.950 . S
H792 C822 0.950 . S
H793 C823 0.950 . S
C794 H776 0.951 . S
C794 C795 1.366 . S
C794 C796 1.388 . S
C795 C794 1.366 . S
C795 C799 1.385 . S
C796 H777 0.951 . S
C796 C794 1.388 . S
C796 C797 1.366 . S
C797 C796 1.366 . S
C797 C798 1.414 . S
C797 C800 1.499 . S
C798 H778 0.950 . S
C798 C797 1.414 . S
C798 C799 1.374 . S
C799 H779 0.950 . S
C799 C795 1.385 . S
C799 C798 1.374 . S
C800 C797 1.499 . S
C800 C801 1.373 . S
C800 C802 1.389 . S
C801 H780 0.950 . S
C801 C800 1.373 . S
C801 C817 1.377 . S
C802 C800 1.389 . S
C802 C803 1.524 . S
C802 C816 1.377 . S
C803 C802 1.524 . S
C803 C804 1.397 . S
C803 C808 1.363 . S
C804 H781 0.950 . S
C804 C803 1.397 . S
C804 C805 1.334 . S
C805 H782 0.950 . S
C805 C804 1.334 . S
C805 C806 1.287 . S
C806 C805 1.287 . S
C806 C807 1.524 . S
C806 H825 0.913 . S
C807 H783 0.950 . S
C807 C806 1.524 . S
C807 C808 1.415 . S
C808 H784 0.950 . S
C808 C803 1.363 . S
C808 C807 1.415 . S
C809 H785 0.951 . S
C809 C810 1.366 . S
C809 C811 1.388 . S
C810 C809 1.366 . S
C810 C814 1.385 . S
C811 H786 0.951 . S
C811 C809 1.388 . S
C811 C812 1.366 . S
C812 C811 1.366 . S
C812 C813 1.414 . S
C812 C815 1.499 . S
C813 H787 0.950 . S
C813 C812 1.414 . S
C813 C814 1.374 . S
C814 H788 0.950 . S
C814 C810 1.385 . S
C814 C813 1.374 . S
C815 C812 1.499 . S
C815 C816 1.373 . S
C815 C817 1.389 . S
C816 H789 0.950 . S
C816 C802 1.377 . S
C816 C815 1.373 . S
C817 C801 1.377 . S
C817 C815 1.389 . S
C817 C818 1.524 . S
C818 C817 1.524 . S
C818 C819 1.397 . S
C818 C823 1.363 . S
C819 H790 0.950 . S
C819 C818 1.397 . S
C819 C820 1.334 . S
C820 H791 0.950 . S
C820 C819 1.334 . S
C820 C821 1.287 . S
C821 C820 1.287 . S
C821 C822 1.524 . S
C821 H824 0.999 . S
C822 H792 0.950 . S
C822 C821 1.524 . S
C822 C823 1.415 . S
C823 H793 0.950 . S
C823 C818 1.363 . S
C823 C822 1.415 . S
H824 C821 0.999 . S
H825 C806 0.913 . S
H826 C844 0.951 . S
H827 C846 0.951 . S
H828 C848 0.950 . S
H829 C849 0.950 . S
H830 C851 0.950 . S
H831 C854 0.950 . S
H832 C855 0.950 . S
H833 C857 0.950 . S
H834 C858 0.950 . S
H835 C859 0.951 . S
H836 C861 0.951 . S
H837 C863 0.950 . S
H838 C864 0.950 . S
H839 C866 0.950 . S
H840 C869 0.950 . S
H841 C870 0.950 . S
H842 C872 0.950 . S
H843 C873 0.950 . S
C844 H826 0.951 . S
C844 C845 1.366 . S
C844 C846 1.388 . S
C845 C844 1.366 . S
C845 C849 1.385 . S
C846 H827 0.951 . S
C846 C844 1.388 . S
C846 C847 1.366 . S
C847 C846 1.366 . S
C847 C848 1.414 . S
C847 C850 1.499 . S
C848 H828 0.950 . S
C848 C847 1.414 . S
C848 C849 1.374 . S
C849 H829 0.950 . S
C849 C845 1.385 . S
C849 C848 1.374 . S
C850 C847 1.499 . S
C850 C851 1.373 . S
C850 C852 1.389 . S
C851 H830 0.950 . S
C851 C850 1.373 . S
C851 C867 1.377 . S
C852 C850 1.389 . S
C852 C853 1.524 . S
C852 C866 1.377 . S
C853 C852 1.524 . S
C853 C854 1.397 . S
C853 C858 1.363 . S
C854 H831 0.950 . S
C854 C853 1.397 . S
C854 C855 1.334 . S
C855 H832 0.950 . S
C855 C854 1.334 . S
C855 C856 1.287 . S
C856 C855 1.287 . S
C856 C857 1.524 . S
C856 H875 0.913 . S
C857 H833 0.950 . S
C857 C856 1.524 . S
C857 C858 1.415 . S
C858 H834 0.950 . S
C858 C853 1.363 . S
C858 C857 1.415 . S
C859 H835 0.951 . S
C859 C860 1.366 . S
C859 C861 1.388 . S
C860 C859 1.366 . S
C860 C864 1.385 . S
C861 H836 0.951 . S
C861 C859 1.388 . S
C861 C862 1.366 . S
C862 C861 1.366 . S
C862 C863 1.414 . S
C862 C865 1.499 . S
C863 H837 0.950 . S
C863 C862 1.414 . S
C863 C864 1.374 . S
C864 H838 0.950 . S
C864 C860 1.385 . S
C864 C863 1.374 . S
C865 C862 1.499 . S
C865 C866 1.373 . S
C865 C867 1.389 . S
C866 H839 0.950 . S
C866 C852 1.377 . S
C866 C865 1.373 . S
C867 C851 1.377 . S
C867 C865 1.389 . S
C867 C868 1.524 . S
C868 C867 1.524 . S
C868 C869 1.397 . S
C868 C873 1.363 . S
C869 H840 0.950 . S
C869 C868 1.397 . S
C869 C870 1.334 . S
C870 H841 0.950 . S
C870 C869 1.334 . S
C870 C871 1.287 . S
C871 C870 1.287 . S
C871 C872 1.524 . S
C871 H874 0.999 . S
C872 H842 0.950 . S
C872 C871 1.524 . S
C872 C873 1.415 . S
C873 H843 0.950 . S
C873 C868 1.363 . S
C873 C872 1.415 . S
H874 C871 0.999 . S
H875 C856 0.913 . S
H876 C894 0.951 . S
H877 C896 0.951 . S
H878 C898 0.950 . S
H879 C899 0.950 . S
H880 C901 0.950 . S
H881 C904 0.950 . S
H882 C905 0.950 . S
H883 C907 0.950 . S
H884 C908 0.950 . S
H885 C909 0.951 . S
H886 C911 0.951 . S
H887 C913 0.950 . S
H888 C914 0.950 . S
H889 C916 0.950 . S
H890 C919 0.950 . S
H891 C920 0.950 . S
H892 C922 0.950 . S
H893 C923 0.950 . S
C894 H876 0.951 . S
C894 C895 1.366 . S
C894 C896 1.388 . S
C895 C894 1.366 . S
C895 C899 1.385 . S
C896 H877 0.951 . S
C896 C894 1.388 . S
C896 C897 1.366 . S
C897 C896 1.366 . S
C897 C898 1.414 . S
C897 C900 1.499 . S
C898 H878 0.950 . S
C898 C897 1.414 . S
C898 C899 1.374 . S
C899 H879 0.950 . S
C899 C895 1.385 . S
C899 C898 1.374 . S
C900 C897 1.499 . S
C900 C901 1.373 . S
C900 C902 1.389 . S
C901 H880 0.950 . S
C901 C900 1.373 . S
C901 C917 1.377 1_655 S
C902 C900 1.389 . S
C902 C903 1.524 . S
C902 C916 1.377 1_655 S
C903 C902 1.524 . S
C903 C904 1.397 . S
C903 C908 1.363 . S
C904 H881 0.950 . S
C904 C903 1.397 . S
C904 C905 1.334 . S
C905 H882 0.950 . S
C905 C904 1.334 . S
C905 C906 1.287 . S
C906 C905 1.287 . S
C906 C907 1.524 . S
C906 H925 0.913 . S
C907 H883 0.950 . S
C907 C906 1.524 . S
C907 C908 1.415 . S
C908 H884 0.950 . S
C908 C903 1.363 . S
C908 C907 1.415 . S
C909 H885 0.951 . S
C909 C910 1.366 . S
C909 C911 1.388 . S
C910 C909 1.366 . S
C910 C914 1.385 . S
C911 H886 0.951 . S
C911 C909 1.388 . S
C911 C912 1.366 . S
C912 C911 1.366 . S
C912 C913 1.414 . S
C912 C915 1.499 . S
C913 H887 0.950 . S
C913 C912 1.414 . S
C913 C914 1.374 . S
C914 H888 0.950 . S
C914 C910 1.385 . S
C914 C913 1.374 . S
C915 C912 1.499 . S
C915 C916 1.373 . S
C915 C917 1.389 . S
C916 H889 0.950 . S
C916 C902 1.377 1_455 S
C916 C915 1.373 . S
C917 C901 1.377 1_455 S
C917 C915 1.389 . S
C917 C918 1.524 . S
C918 C917 1.524 . S
C918 C919 1.397 . S
C918 C923 1.363 . S
C919 H890 0.950 . S
C919 C918 1.397 . S
C919 C920 1.334 . S
C920 H891 0.950 . S
C920 C919 1.334 . S
C920 C921 1.287 . S
C921 C920 1.287 . S
C921 C922 1.524 . S
C921 H924 0.999 . S
C922 H892 0.950 . S
C922 C921 1.524 . S
C922 C923 1.415 . S
C923 H893 0.950 . S
C923 C918 1.363 . S
C923 C922 1.415 . S
H924 C921 0.999 . S
H925 C906 0.913 . S
H926 C944 0.951 . S
H927 C946 0.951 . S
H928 C948 0.950 . S
H929 C949 0.950 . S
H930 C951 0.950 . S
H931 C954 0.950 . S
H932 C955 0.950 . S
H933 C957 0.950 . S
H934 C958 0.950 . S
H935 C959 0.951 . S
H936 C961 0.951 . S
H937 C963 0.950 . S
H938 C964 0.950 . S
H939 C966 0.950 . S
H940 C969 0.950 . S
H941 C970 0.950 . S
H942 C972 0.950 . S
H943 C973 0.950 . S
C944 H926 0.951 . S
C944 C945 1.366 . S
C944 C946 1.388 . S
C945 C944 1.366 . S
C945 C949 1.385 . S
C946 H927 0.951 . S
C946 C944 1.388 . S
C946 C947 1.366 . S
C947 C946 1.366 . S
C947 C948 1.414 . S
C947 C950 1.499 . S
C948 H928 0.950 . S
C948 C947 1.414 . S
C948 C949 1.374 . S
C949 H929 0.950 . S
C949 C945 1.385 . S
C949 C948 1.374 . S
C950 C947 1.499 . S
C950 C951 1.373 . S
C950 C952 1.389 . S
C951 H930 0.950 . S
C951 C950 1.373 . S
C951 C967 1.377 1_565 S
C952 C950 1.389 . S
C952 C953 1.524 . S
C952 C966 1.377 1_565 S
C953 C952 1.524 . S
C953 C954 1.397 . S
C953 C958 1.363 1_565 S
C954 H931 0.950 . S
C954 C953 1.397 . S
C954 C955 1.334 . S
C955 H932 0.950 . S
C955 C954 1.334 . S
C955 C956 1.287 . S
C956 C955 1.287 . S
C956 C957 1.524 1_565 S
C956 H975 0.913 . S
C957 H933 0.950 . S
C957 C956 1.524 1_545 S
C957 C958 1.415 . S
C958 H934 0.950 . S
C958 C953 1.363 1_545 S
C958 C957 1.415 . S
C959 H935 0.951 . S
C959 C960 1.366 . S
C959 C961 1.388 . S
C960 C959 1.366 . S
C960 C964 1.385 . S
C961 H936 0.951 . S
C961 C959 1.388 . S
C961 C962 1.366 . S
C962 C961 1.366 . S
C962 C963 1.414 . S
C962 C965 1.499 . S
C963 H937 0.950 . S
C963 C962 1.414 . S
C963 C964 1.374 . S
C964 H938 0.950 . S
C964 C960 1.385 . S
C964 C963 1.374 . S
C965 C962 1.499 . S
C965 C966 1.373 . S
C965 C967 1.389 . S
C966 H939 0.950 . S
C966 C952 1.377 1_545 S
C966 C965 1.373 . S
C967 C951 1.377 1_545 S
C967 C965 1.389 . S
C967 C968 1.524 . S
C968 C967 1.524 . S
C968 C969 1.397 . S
C968 C973 1.363 1_545 S
C969 H940 0.950 . S
C969 C968 1.397 . S
C969 C970 1.334 . S
C970 H941 0.950 . S
C970 C969 1.334 . S
C970 C971 1.287 . S
C971 C970 1.287 . S
C971 C972 1.524 1_545 S
C971 H974 0.999 . S
C972 H942 0.950 . S
C972 C971 1.524 1_565 S
C972 C973 1.415 . S
C973 H943 0.950 . S
C973 C968 1.363 1_565 S
C973 C972 1.415 . S
H974 C971 0.999 . S
H975 C956 0.913 . S
H976 C994 0.951 . S
H977 C996 0.951 . S
H978 C998 0.950 . S
H979 C999 0.950 . S
H980 C1001 0.950 . S
H981 C1004 0.950 . S
H982 C1005 0.950 . S
H983 C1007 0.950 . S
H984 C1008 0.950 . S
H985 C1009 0.951 . S
H986 C1011 0.951 . S
H987 C1013 0.950 . S
H988 C1014 0.950 . S
H989 C1016 0.950 . S
H990 C1019 0.950 . S
H991 C1020 0.950 . S
H992 C1022 0.950 . S
H993 C1023 0.950 . S
C994 H976 0.951 . S
C994 C995 1.366 . S
C994 C996 1.388 . S
C995 C994 1.366 . S
C995 C999 1.385 . S
C996 H977 0.951 . S
C996 C994 1.388 . S
C996 C997 1.366 . S
C997 C996 1.366 . S
C997 C998 1.414 . S
C997 C1000 1.499 . S
C998 H978 0.950 . S
C998 C997 1.414 . S
C998 C999 1.374 . S
C999 H979 0.950 . S
C999 C995 1.385 . S
C999 C998 1.374 . S
C1000 C997 1.499 . S
C1000 C1001 1.373 . S
C1000 C1002 1.389 . S
C1001 H980 0.950 . S
C1001 C1000 1.373 . S
C1001 C1017 1.377 . S
C1002 C1000 1.389 . S
C1002 C1003 1.524 . S
C1002 C1016 1.377 . S
C1003 C1002 1.524 . S
C1003 C1004 1.397 . S
C1003 C1008 1.363 . S
C1004 H981 0.950 . S
C1004 C1003 1.397 . S
C1004 C1005 1.334 . S
C1005 H982 0.950 . S
C1005 C1004 1.334 . S
C1005 C1006 1.287 . S
C1006 C1005 1.287 . S
C1006 C1007 1.524 . S
C1006 H1025 0.913 . S
C1007 H983 0.950 . S
C1007 C1006 1.524 . S
C1007 C1008 1.415 . S
C1008 H984 0.950 . S
C1008 C1003 1.363 . S
C1008 C1007 1.415 . S
C1009 H985 0.951 . S
C1009 C1010 1.366 . S
C1009 C1011 1.388 . S
C1010 C1009 1.366 . S
C1010 C1014 1.385 . S
C1011 H986 0.951 . S
C1011 C1009 1.388 . S
C1011 C1012 1.366 . S
C1012 C1011 1.366 . S
C1012 C1013 1.414 . S
C1012 C1015 1.499 . S
C1013 H987 0.950 . S
C1013 C1012 1.414 . S
C1013 C1014 1.374 . S
C1014 H988 0.950 . S
C1014 C1010 1.385 . S
C1014 C1013 1.374 . S
C1015 C1012 1.499 . S
C1015 C1016 1.373 . S
C1015 C1017 1.389 . S
C1016 H989 0.950 . S
C1016 C1002 1.377 . S
C1016 C1015 1.373 . S
C1017 C1001 1.377 . S
C1017 C1015 1.389 . S
C1017 C1018 1.524 . S
C1018 C1017 1.524 . S
C1018 C1019 1.397 . S
C1018 C1023 1.363 . S
C1019 H990 0.950 . S
C1019 C1018 1.397 . S
C1019 C1020 1.334 . S
C1020 H991 0.950 . S
C1020 C1019 1.334 . S
C1020 C1021 1.287 . S
C1021 C1020 1.287 . S
C1021 C1022 1.524 . S
C1021 H1024 0.999 . S
C1022 H992 0.950 . S
C1022 C1021 1.524 . S
C1022 C1023 1.415 . S
C1023 H993 0.950 . S
C1023 C1018 1.363 . S
C1023 C1022 1.415 . S
H1024 C1021 0.999 . S
H1025 C1006 0.913 . S
H1026 C1044 0.951 . S
H1027 C1046 0.951 . S
H1028 C1048 0.950 . S
H1029 C1049 0.950 . S
H1030 C1051 0.950 . S
H1031 C1054 0.950 . S
H1032 C1055 0.950 . S
H1033 C1057 0.950 . S
H1034 C1058 0.950 . S
H1035 C1059 0.951 . S
H1036 C1061 0.951 . S
H1037 C1063 0.950 . S
H1038 C1064 0.950 . S
H1039 C1066 0.950 . S
H1040 C1069 0.950 . S
H1041 C1070 0.950 . S
H1042 C1072 0.950 . S
H1043 C1073 0.950 . S
C1044 H1026 0.951 . S
C1044 C1045 1.366 . S
C1044 C1046 1.388 . S
C1045 C1044 1.366 . S
C1045 C1049 1.385 . S
C1046 H1027 0.951 . S
C1046 C1044 1.388 . S
C1046 C1047 1.366 . S
C1047 C1046 1.366 . S
C1047 C1048 1.414 . S
C1047 C1050 1.499 . S
C1048 H1028 0.950 . S
C1048 C1047 1.414 . S
C1048 C1049 1.374 . S
C1049 H1029 0.950 . S
C1049 C1045 1.385 . S
C1049 C1048 1.374 . S
C1050 C1047 1.499 . S
C1050 C1051 1.373 . S
C1050 C1052 1.389 . S
C1051 H1030 0.950 . S
C1051 C1050 1.373 . S
C1051 C1067 1.377 1_455 S
C1052 C1050 1.389 . S
C1052 C1053 1.524 . S
C1052 C1066 1.377 1_455 S
C1053 C1052 1.524 . S
C1053 C1054 1.397 . S
C1053 C1058 1.363 1_455 S
C1054 H1031 0.950 . S
C1054 C1053 1.397 . S
C1054 C1055 1.334 . S
C1055 H1032 0.950 . S
C1055 C1054 1.334 . S
C1055 C1056 1.287 . S
C1056 C1055 1.287 . S
C1056 C1057 1.524 1_455 S
C1056 H1075 0.913 . S
C1057 H1033 0.950 . S
C1057 C1056 1.524 1_655 S
C1057 C1058 1.415 . S
C1058 H1034 0.950 . S
C1058 C1053 1.363 1_655 S
C1058 C1057 1.415 . S
C1059 H1035 0.951 . S
C1059 C1060 1.366 . S
C1059 C1061 1.388 . S
C1060 C1059 1.366 . S
C1060 C1064 1.385 . S
C1061 H1036 0.951 . S
C1061 C1059 1.388 . S
C1061 C1062 1.366 . S
C1062 C1061 1.366 . S
C1062 C1063 1.414 . S
C1062 C1065 1.499 . S
C1063 H1037 0.950 . S
C1063 C1062 1.414 . S
C1063 C1064 1.374 . S
C1064 H1038 0.950 . S
C1064 C1060 1.385 . S
C1064 C1063 1.374 . S
C1065 C1062 1.499 . S
C1065 C1066 1.373 . S
C1065 C1067 1.389 . S
C1066 H1039 0.950 . S
C1066 C1052 1.377 1_655 S
C1066 C1065 1.373 . S
C1067 C1051 1.377 1_655 S
C1067 C1065 1.389 . S
C1067 C1068 1.524 . S
C1068 C1067 1.524 . S
C1068 C1069 1.397 . S
C1068 C1073 1.363 1_655 S
C1069 H1040 0.950 . S
C1069 C1068 1.397 . S
C1069 C1070 1.334 . S
C1070 H1041 0.950 . S
C1070 C1069 1.334 . S
C1070 C1071 1.287 . S
C1071 C1070 1.287 . S
C1071 C1072 1.524 1_655 S
C1071 H1074 0.999 . S
C1072 H1042 0.950 . S
C1072 C1071 1.524 1_455 S
C1072 C1073 1.415 . S
C1073 H1043 0.950 . S
C1073 C1068 1.363 1_455 S
C1073 C1072 1.415 . S
H1074 C1071 0.999 . S
H1075 C1056 0.913 . S
H1076 C1094 0.951 . S
H1077 C1096 0.951 . S
H1078 C1098 0.950 . S
H1079 C1099 0.950 . S
H1080 C1101 0.950 . S
H1081 C1104 0.950 . S
H1082 C1105 0.950 . S
H1083 C1107 0.950 . S
H1084 C1108 0.950 . S
H1085 C1109 0.951 . S
H1086 C1111 0.951 . S
H1087 C1113 0.950 . S
H1088 C1114 0.950 . S
H1089 C1116 0.950 . S
H1090 C1119 0.950 . S
H1091 C1120 0.950 . S
H1092 C1122 0.950 . S
H1093 C1123 0.950 . S
C1094 H1076 0.951 . S
C1094 C1095 1.366 . S
C1094 C1096 1.388 . S
C1095 C1094 1.366 . S
C1095 C1099 1.385 . S
C1096 H1077 0.951 . S
C1096 C1094 1.388 . S
C1096 C1097 1.366 . S
C1097 C1096 1.366 . S
C1097 C1098 1.414 . S
C1097 C1100 1.499 . S
C1098 H1078 0.950 . S
C1098 C1097 1.414 . S
C1098 C1099 1.374 . S
C1099 H1079 0.950 . S
C1099 C1095 1.385 . S
C1099 C1098 1.374 . S
C1100 C1097 1.499 . S
C1100 C1101 1.373 . S
C1100 C1102 1.389 1_556 S
C1101 H1080 0.950 . S
C1101 C1100 1.373 . S
C1101 C1117 1.377 1_545 S
C1102 C1100 1.389 1_554 S
C1102 C1103 1.524 . S
C1102 C1116 1.377 1_545 S
C1103 C1102 1.524 . S
C1103 C1104 1.397 . S
C1103 C1108 1.363 . S
C1104 H1081 0.950 . S
C1104 C1103 1.397 . S
C1104 C1105 1.334 . S
C1105 H1082 0.950 . S
C1105 C1104 1.334 . S
C1105 C1106 1.287 . S
C1106 C1105 1.287 . S
C1106 C1107 1.524 . S
C1106 H1125 0.913 . S
C1107 H1083 0.950 . S
C1107 C1106 1.524 . S
C1107 C1108 1.415 . S
C1108 H1084 0.950 . S
C1108 C1103 1.363 . S
C1108 C1107 1.415 . S
C1109 H1085 0.951 . S
C1109 C1110 1.366 . S
C1109 C1111 1.388 . S
C1110 C1109 1.366 . S
C1110 C1114 1.385 . S
C1111 H1086 0.951 . S
C1111 C1109 1.388 . S
C1111 C1112 1.366 . S
C1112 C1111 1.366 . S
C1112 C1113 1.414 . S
C1112 C1115 1.499 . S
C1113 H1087 0.950 . S
C1113 C1112 1.414 . S
C1113 C1114 1.374 . S
C1114 H1088 0.950 . S
C1114 C1110 1.385 . S
C1114 C1113 1.374 . S
C1115 C1112 1.499 . S
C1115 C1116 1.373 . S
C1115 C1117 1.389 1_554 S
C1116 H1089 0.950 . S
C1116 C1102 1.377 1_565 S
C1116 C1115 1.373 . S
C1117 C1101 1.377 1_565 S
C1117 C1115 1.389 1_556 S
C1117 C1118 1.524 . S
C1118 C1117 1.524 . S
C1118 C1119 1.397 . S
C1118 C1123 1.363 . S
C1119 H1090 0.950 . S
C1119 C1118 1.397 . S
C1119 C1120 1.334 . S
C1120 H1091 0.950 . S
C1120 C1119 1.334 . S
C1120 C1121 1.287 . S
C1121 C1120 1.287 . S
C1121 C1122 1.524 . S
C1121 H1124 0.999 . S
C1122 H1092 0.950 . S
C1122 C1121 1.524 . S
C1122 C1123 1.415 . S
C1123 H1093 0.950 . S
C1123 C1118 1.363 . S
C1123 C1122 1.415 . S
H1124 C1121 0.999 . S
H1125 C1106 0.913 . S
H1126 C1144 0.951 . S
H1127 C1146 0.951 . S
H1128 C1148 0.950 . S
H1129 C1149 0.950 . S
H1130 C1151 0.950 . S
H1131 C1154 0.950 . S
H1132 C1155 0.950 . S
H1133 C1157 0.950 . S
H1134 C1158 0.950 . S
H1135 C1159 0.951 . S
H1136 C1161 0.951 . S
H1137 C1163 0.950 . S
H1138 C1164 0.950 . S
H1139 C1166 0.950 . S
H1140 C1169 0.950 . S
H1141 C1170 0.950 . S
H1142 C1172 0.950 . S
H1143 C1173 0.950 . S
C1144 H1126 0.951 . S
C1144 C1145 1.366 . S
C1144 C1146 1.388 . S
C1145 C1144 1.366 . S
C1145 C1149 1.385 . S
C1146 H1127 0.951 . S
C1146 C1144 1.388 . S
C1146 C1147 1.366 . S
C1147 C1146 1.366 . S
C1147 C1148 1.414 . S
C1147 C1150 1.499 . S
C1148 H1128 0.950 . S
C1148 C1147 1.414 . S
C1148 C1149 1.374 . S
C1149 H1129 0.950 . S
C1149 C1145 1.385 . S
C1149 C1148 1.374 . S
C1150 C1147 1.499 . S
C1150 C1151 1.373 . S
C1150 C1152 1.389 . S
C1151 H1130 0.950 . S
C1151 C1150 1.373 . S
C1151 C1167 1.377 . S
C1152 C1150 1.389 . S
C1152 C1153 1.524 . S
C1152 C1166 1.377 . S
C1153 C1152 1.524 . S
C1153 C1154 1.397 . S
C1153 C1158 1.363 . S
C1154 H1131 0.950 . S
C1154 C1153 1.397 . S
C1154 C1155 1.334 . S
C1155 H1132 0.950 . S
C1155 C1154 1.334 . S
C1155 C1156 1.287 . S
C1156 C1155 1.287 . S
C1156 C1157 1.524 . S
C1156 H1175 0.913 . S
C1157 H1133 0.950 . S
C1157 C1156 1.524 . S
C1157 C1158 1.415 . S
C1158 H1134 0.950 . S
C1158 C1153 1.363 . S
C1158 C1157 1.415 . S
C1159 H1135 0.951 . S
C1159 C1160 1.366 . S
C1159 C1161 1.388 . S
C1160 C1159 1.366 . S
C1160 C1164 1.385 . S
C1161 H1136 0.951 . S
C1161 C1159 1.388 . S
C1161 C1162 1.366 . S
C1162 C1161 1.366 . S
C1162 C1163 1.414 . S
C1162 C1165 1.499 . S
C1163 H1137 0.950 . S
C1163 C1162 1.414 . S
C1163 C1164 1.374 . S
C1164 H1138 0.950 . S
C1164 C1160 1.385 . S
C1164 C1163 1.374 . S
C1165 C1162 1.499 . S
C1165 C1166 1.373 . S
C1165 C1167 1.389 . S
C1166 H1139 0.950 . S
C1166 C1152 1.377 . S
C1166 C1165 1.373 . S
C1167 C1151 1.377 . S
C1167 C1165 1.389 . S
C1167 C1168 1.524 . S
C1168 C1167 1.524 . S
C1168 C1169 1.397 . S
C1168 C1173 1.363 . S
C1169 H1140 0.950 . S
C1169 C1168 1.397 . S
C1169 C1170 1.334 . S
C1170 H1141 0.950 . S
C1170 C1169 1.334 . S
C1170 C1171 1.287 . S
C1171 C1170 1.287 . S
C1171 C1172 1.524 . S
C1171 H1174 0.999 . S
C1172 H1142 0.950 . S
C1172 C1171 1.524 . S
C1172 C1173 1.415 . S
C1173 H1143 0.950 . S
C1173 C1168 1.363 . S
C1173 C1172 1.415 . S
H1174 C1171 0.999 . S
H1175 C1156 0.913 . S
H1176 C1194 0.951 . S
H1177 C1196 0.951 . S
H1178 C1198 0.950 . S
H1179 C1199 0.950 . S
H1180 C1201 0.950 . S
H1181 C1204 0.950 . S
H1182 C1205 0.950 . S
H1183 C1207 0.950 . S
H1184 C1208 0.950 . S
H1185 C1209 0.951 . S
H1186 C1211 0.951 . S
H1187 C1213 0.950 . S
H1188 C1214 0.950 . S
H1189 C1216 0.950 . S
H1190 C1219 0.950 . S
H1191 C1220 0.950 . S
H1192 C1222 0.950 . S
H1193 C1223 0.950 . S
C1194 H1176 0.951 . S
C1194 C1195 1.366 . S
C1194 C1196 1.388 . S
C1195 C1194 1.366 . S
C1195 C1199 1.385 . S
C1196 H1177 0.951 . S
C1196 C1194 1.388 . S
C1196 C1197 1.366 . S
C1197 C1196 1.366 . S
C1197 C1198 1.414 . S
C1197 C1200 1.499 . S
C1198 H1178 0.950 . S
C1198 C1197 1.414 . S
C1198 C1199 1.374 . S
C1199 H1179 0.950 . S
C1199 C1195 1.385 . S
C1199 C1198 1.374 . S
C1200 C1197 1.499 . S
C1200 C1201 1.373 . S
C1200 C1202 1.389 . S
C1201 H1180 0.950 . S
C1201 C1200 1.373 . S
C1201 C1217 1.377 . S
C1202 C1200 1.389 . S
C1202 C1203 1.524 . S
C1202 C1216 1.377 . S
C1203 C1202 1.524 . S
C1203 C1204 1.397 . S
C1203 C1208 1.363 . S
C1204 H1181 0.950 . S
C1204 C1203 1.397 . S
C1204 C1205 1.334 . S
C1205 H1182 0.950 . S
C1205 C1204 1.334 . S
C1205 C1206 1.287 . S
C1206 C1205 1.287 . S
C1206 C1207 1.524 . S
C1206 H1225 0.913 . S
C1207 H1183 0.950 . S
C1207 C1206 1.524 . S
C1207 C1208 1.415 . S
C1208 H1184 0.950 . S
C1208 C1203 1.363 . S
C1208 C1207 1.415 . S
C1209 H1185 0.951 . S
C1209 C1210 1.366 . S
C1209 C1211 1.388 . S
C1210 C1209 1.366 . S
C1210 C1214 1.385 . S
C1211 H1186 0.951 . S
C1211 C1209 1.388 . S
C1211 C1212 1.366 . S
C1212 C1211 1.366 . S
C1212 C1213 1.414 . S
C1212 C1215 1.499 . S
C1213 H1187 0.950 . S
C1213 C1212 1.414 . S
C1213 C1214 1.374 . S
C1214 H1188 0.950 . S
C1214 C1210 1.385 . S
C1214 C1213 1.374 . S
C1215 C1212 1.499 . S
C1215 C1216 1.373 . S
C1215 C1217 1.389 . S
C1216 H1189 0.950 . S
C1216 C1202 1.377 . S
C1216 C1215 1.373 . S
C1217 C1201 1.377 . S
C1217 C1215 1.389 . S
C1217 C1218 1.524 . S
C1218 C1217 1.524 . S
C1218 C1219 1.397 . S
C1218 C1223 1.363 . S
C1219 H1190 0.950 . S
C1219 C1218 1.397 . S
C1219 C1220 1.334 . S
C1220 H1191 0.950 . S
C1220 C1219 1.334 . S
C1220 C1221 1.287 . S
C1221 C1220 1.287 . S
C1221 C1222 1.524 . S
C1221 H1224 0.999 . S
C1222 H1192 0.950 . S
C1222 C1221 1.524 . S
C1222 C1223 1.415 . S
C1223 H1193 0.950 . S
C1223 C1218 1.363 . S
C1223 C1222 1.415 . S
H1224 C1221 0.999 . S
H1225 C1206 0.913 . S
H1226 C1244 0.951 . S
H1227 C1246 0.951 . S
H1228 C1248 0.950 . S
H1229 C1249 0.950 . S
H1230 C1251 0.950 . S
H1231 C1254 0.950 . S
H1232 C1255 0.950 . S
H1233 C1257 0.950 . S
H1234 C1258 0.950 . S
H1235 C1259 0.951 . S
H1236 C1261 0.951 . S
H1237 C1263 0.950 . S
H1238 C1264 0.950 . S
H1239 C1266 0.950 . S
H1240 C1269 0.950 . S
H1241 C1270 0.950 . S
H1242 C1272 0.950 . S
H1243 C1273 0.950 . S
C1244 H1226 0.951 . S
C1244 C1245 1.366 . S
C1244 C1246 1.388 . S
C1245 C1244 1.366 . S
C1245 C1249 1.385 . S
C1246 H1227 0.951 . S
C1246 C1244 1.388 . S
C1246 C1247 1.366 . S
C1247 C1246 1.366 . S
C1247 C1248 1.414 . S
C1247 C1250 1.499 . S
C1248 H1228 0.950 . S
C1248 C1247 1.414 . S
C1248 C1249 1.374 . S
C1249 H1229 0.950 . S
C1249 C1245 1.385 . S
C1249 C1248 1.374 . S
C1250 C1247 1.499 . S
C1250 C1251 1.373 . S
C1250 C1252 1.389 . S
C1251 H1230 0.950 . S
C1251 C1250 1.373 . S
C1251 C1267 1.377 . S
C1252 C1250 1.389 . S
C1252 C1253 1.524 . S
C1252 C1266 1.377 . S
C1253 C1252 1.524 . S
C1253 C1254 1.397 . S
C1253 C1258 1.363 . S
C1254 H1231 0.950 . S
C1254 C1253 1.397 . S
C1254 C1255 1.334 . S
C1255 H1232 0.950 . S
C1255 C1254 1.334 . S
C1255 C1256 1.287 . S
C1256 C1255 1.287 . S
C1256 C1257 1.524 . S
C1256 H1275 0.913 . S
C1257 H1233 0.950 . S
C1257 C1256 1.524 . S
C1257 C1258 1.415 . S
C1258 H1234 0.950 . S
C1258 C1253 1.363 . S
C1258 C1257 1.415 . S
C1259 H1235 0.951 . S
C1259 C1260 1.366 . S
C1259 C1261 1.388 . S
C1260 C1259 1.366 . S
C1260 C1264 1.385 . S
C1261 H1236 0.951 . S
C1261 C1259 1.388 . S
C1261 C1262 1.366 . S
C1262 C1261 1.366 . S
C1262 C1263 1.414 . S
C1262 C1265 1.499 . S
C1263 H1237 0.950 . S
C1263 C1262 1.414 . S
C1263 C1264 1.374 . S
C1264 H1238 0.950 . S
C1264 C1260 1.385 . S
C1264 C1263 1.374 . S
C1265 C1262 1.499 . S
C1265 C1266 1.373 . S
C1265 C1267 1.389 . S
C1266 H1239 0.950 . S
C1266 C1252 1.377 . S
C1266 C1265 1.373 . S
C1267 C1251 1.377 . S
C1267 C1265 1.389 . S
C1267 C1268 1.524 . S
C1268 C1267 1.524 . S
C1268 C1269 1.397 . S
C1268 C1273 1.363 . S
C1269 H1240 0.950 . S
C1269 C1268 1.397 . S
C1269 C1270 1.334 . S
C1270 H1241 0.950 . S
C1270 C1269 1.334 . S
C1270 C1271 1.287 . S
C1271 C1270 1.287 . S
C1271 C1272 1.524 . S
C1271 H1274 0.999 . S
C1272 H1242 0.950 . S
C1272 C1271 1.524 . S
C1272 C1273 1.415 . S
C1273 H1243 0.950 . S
C1273 C1268 1.363 . S
C1273 C1272 1.415 . S
H1274 C1271 0.999 . S
H1275 C1256 0.913 . S
H1276 C1294 0.951 . S
H1277 C1296 0.951 . S
H1278 C1298 0.950 . S
H1279 C1299 0.950 . S
H1280 C1301 0.950 . S
H1281 C1304 0.950 . S
H1282 C1305 0.950 . S
H1283 C1307 0.950 . S
H1284 C1308 0.950 . S
H1285 C1309 0.951 . S
H1286 C1311 0.951 . S
H1287 C1313 0.950 . S
H1288 C1314 0.950 . S
H1289 C1316 0.950 . S
H1290 C1319 0.950 . S
H1291 C1320 0.950 . S
H1292 C1322 0.950 . S
H1293 C1323 0.950 . S
C1294 H1276 0.951 . S
C1294 C1295 1.366 . S
C1294 C1296 1.388 . S
C1295 C1294 1.366 . S
C1295 C1299 1.385 . S
C1296 H1277 0.951 . S
C1296 C1294 1.388 . S
C1296 C1297 1.366 . S
C1297 C1296 1.366 . S
C1297 C1298 1.414 . S
C1297 C1300 1.499 . S
C1298 H1278 0.950 . S
C1298 C1297 1.414 . S
C1298 C1299 1.374 . S
C1299 H1279 0.950 . S
C1299 C1295 1.385 . S
C1299 C1298 1.374 . S
C1300 C1297 1.499 . S
C1300 C1301 1.373 . S
C1300 C1302 1.389 . S
C1301 H1280 0.950 . S
C1301 C1300 1.373 . S
C1301 C1317 1.377 . S
C1302 C1300 1.389 . S
C1302 C1303 1.524 . S
C1302 C1316 1.377 . S
C1303 C1302 1.524 . S
C1303 C1304 1.397 . S
C1303 C1308 1.363 . S
C1304 H1281 0.950 . S
C1304 C1303 1.397 . S
C1304 C1305 1.334 . S
C1305 H1282 0.950 . S
C1305 C1304 1.334 . S
C1305 C1306 1.287 . S
C1306 C1305 1.287 . S
C1306 C1307 1.524 . S
C1306 H1325 0.913 . S
C1307 H1283 0.950 . S
C1307 C1306 1.524 . S
C1307 C1308 1.415 . S
C1308 H1284 0.950 . S
C1308 C1303 1.363 . S
C1308 C1307 1.415 . S
C1309 H1285 0.951 . S
C1309 C1310 1.366 . S
C1309 C1311 1.388 . S
C1310 C1309 1.366 . S
C1310 C1314 1.385 . S
C1311 H1286 0.951 . S
C1311 C1309 1.388 . S
C1311 C1312 1.366 . S
C1312 C1311 1.366 . S
C1312 C1313 1.414 . S
C1312 C1315 1.499 . S
C1313 H1287 0.950 . S
C1313 C1312 1.414 . S
C1313 C1314 1.374 . S
C1314 H1288 0.950 . S
C1314 C1310 1.385 . S
C1314 C1313 1.374 . S
C1315 C1312 1.499 . S
C1315 C1316 1.373 . S
C1315 C1317 1.389 . S
C1316 H1289 0.950 . S
C1316 C1302 1.377 . S
C1316 C1315 1.373 . S
C1317 C1301 1.377 . S
C1317 C1315 1.389 . S
C1317 C1318 1.524 . S
C1318 C1317 1.524 . S
C1318 C1319 1.397 . S
C1318 C1323 1.363 . S
C1319 H1290 0.950 . S
C1319 C1318 1.397 . S
C1319 C1320 1.334 . S
C1320 H1291 0.950 . S
C1320 C1319 1.334 . S
C1320 C1321 1.287 . S
C1321 C1320 1.287 . S
C1321 C1322 1.524 . S
C1321 H1324 0.999 . S
C1322 H1292 0.950 . S
C1322 C1321 1.524 . S
C1322 C1323 1.415 . S
C1323 H1293 0.950 . S
C1323 C1318 1.363 . S
C1323 C1322 1.415 . S
H1324 C1321 0.999 . S
H1325 C1306 0.913 . S
H1326 C1344 0.951 . S
H1327 C1346 0.951 . S
H1328 C1348 0.950 . S
H1329 C1349 0.950 . S
H1330 C1351 0.950 . S
H1331 C1354 0.950 . S
H1332 C1355 0.950 . S
H1333 C1357 0.950 . S
H1334 C1358 0.950 . S
H1335 C1359 0.951 . S
H1336 C1361 0.951 . S
H1337 C1363 0.950 . S
H1338 C1364 0.950 . S
H1339 C1366 0.950 . S
H1340 C1369 0.950 . S
H1341 C1370 0.950 . S
H1342 C1372 0.950 . S
H1343 C1373 0.950 . S
C1344 H1326 0.951 . S
C1344 C1345 1.366 . S
C1344 C1346 1.388 . S
C1345 C1344 1.366 . S
C1345 C1349 1.385 . S
C1346 H1327 0.951 . S
C1346 C1344 1.388 . S
C1346 C1347 1.366 . S
C1347 C1346 1.366 . S
C1347 C1348 1.414 . S
C1347 C1350 1.499 . S
C1348 H1328 0.950 . S
C1348 C1347 1.414 . S
C1348 C1349 1.374 . S
C1349 H1329 0.950 . S
C1349 C1345 1.385 . S
C1349 C1348 1.374 . S
C1350 C1347 1.499 . S
C1350 C1351 1.373 . S
C1350 C1352 1.389 . S
C1351 H1330 0.950 . S
C1351 C1350 1.373 . S
C1351 C1367 1.377 . S
C1352 C1350 1.389 . S
C1352 C1353 1.524 . S
C1352 C1366 1.377 . S
C1353 C1352 1.524 . S
C1353 C1354 1.397 . S
C1353 C1358 1.363 . S
C1354 H1331 0.950 . S
C1354 C1353 1.397 . S
C1354 C1355 1.334 . S
C1355 H1332 0.950 . S
C1355 C1354 1.334 . S
C1355 C1356 1.287 . S
C1356 C1355 1.287 . S
C1356 C1357 1.524 . S
C1356 H1375 0.913 . S
C1357 H1333 0.950 . S
C1357 C1356 1.524 . S
C1357 C1358 1.415 . S
C1358 H1334 0.950 . S
C1358 C1353 1.363 . S
C1358 C1357 1.415 . S
C1359 H1335 0.951 . S
C1359 C1360 1.366 . S
C1359 C1361 1.388 . S
C1360 C1359 1.366 . S
C1360 C1364 1.385 . S
C1361 H1336 0.951 . S
C1361 C1359 1.388 . S
C1361 C1362 1.366 . S
C1362 C1361 1.366 . S
C1362 C1363 1.414 . S
C1362 C1365 1.499 . S
C1363 H1337 0.950 . S
C1363 C1362 1.414 . S
C1363 C1364 1.374 . S
C1364 H1338 0.950 . S
C1364 C1360 1.385 . S
C1364 C1363 1.374 . S
C1365 C1362 1.499 . S
C1365 C1366 1.373 . S
C1365 C1367 1.389 . S
C1366 H1339 0.950 . S
C1366 C1352 1.377 . S
C1366 C1365 1.373 . S
C1367 C1351 1.377 . S
C1367 C1365 1.389 . S
C1367 C1368 1.524 . S
C1368 C1367 1.524 . S
C1368 C1369 1.397 . S
C1368 C1373 1.363 . S
C1369 H1340 0.950 . S
C1369 C1368 1.397 . S
C1369 C1370 1.334 . S
C1370 H1341 0.950 . S
C1370 C1369 1.334 . S
C1370 C1371 1.287 . S
C1371 C1370 1.287 . S
C1371 C1372 1.524 . S
C1371 H1374 0.999 . S
C1372 H1342 0.950 . S
C1372 C1371 1.524 . S
C1372 C1373 1.415 . S
C1373 H1343 0.950 . S
C1373 C1368 1.363 . S
C1373 C1372 1.415 . S
H1374 C1371 0.999 . S
H1375 C1356 0.913 . S
H1376 C1394 0.951 . S
H1377 C1396 0.951 . S
H1378 C1398 0.950 . S
H1379 C1399 0.963 . S
H1380 C1401 0.950 . S
H1381 C1404 0.950 . S
H1382 C1405 0.950 . S
H1383 C1407 0.950 . S
H1384 C1408 0.950 . S
H1385 C1409 0.951 . S
H1386 C1411 0.951 . S
H1387 C1413 0.950 . S
H1388 C1414 0.950 . S
H1389 C1416 0.950 . S
H1390 C1419 0.950 . S
H1391 C1420 0.950 . S
H1392 C1422 0.950 . S
H1393 C1423 0.950 . S
C1394 H1376 0.951 . S
C1394 C1395 1.367 1_556 S
C1394 C1396 1.388 . S
C1395 C1394 1.367 1_554 S
C1395 C1399 1.386 1_554 S
C1396 H1377 0.951 . S
C1396 C1394 1.388 . S
C1396 C1397 1.366 . S
C1397 C1396 1.366 . S
C1397 C1398 1.414 . S
C1397 C1400 1.499 . S
C1398 H1378 0.950 . S
C1398 C1397 1.414 . S
C1398 C1399 1.374 . S
C1399 H1379 0.963 . S
C1399 C1395 1.386 1_556 S
C1399 C1398 1.374 . S
C1400 C1397 1.499 . S
C1400 C1401 1.373 . S
C1400 C1402 1.389 . S
C1401 H1380 0.950 . S
C1401 C1400 1.373 . S
C1401 C1417 1.377 . S
C1402 C1400 1.389 . S
C1402 C1403 1.524 . S
C1402 C1416 1.377 . S
C1403 C1402 1.524 . S
C1403 C1404 1.397 . S
C1403 C1408 1.363 . S
C1404 H1381 0.950 . S
C1404 C1403 1.397 . S
C1404 C1405 1.334 . S
C1405 H1382 0.950 . S
C1405 C1404 1.334 . S
C1405 C1406 1.287 . S
C1406 C1405 1.287 . S
C1406 C1407 1.524 . S
C1406 H1425 0.913 . S
C1407 H1383 0.950 . S
C1407 C1406 1.524 . S
C1407 C1408 1.415 . S
C1408 H1384 0.950 . S
C1408 C1403 1.363 . S
C1408 C1407 1.415 . S
C1409 H1385 0.951 . S
C1409 C1410 1.366 . S
C1409 C1411 1.388 . S
C1410 C1409 1.366 . S
C1410 C1414 1.385 . S
C1411 H1386 0.951 . S
C1411 C1409 1.388 . S
C1411 C1412 1.366 . S
C1412 C1411 1.366 . S
C1412 C1413 1.414 . S
C1412 C1415 1.499 . S
C1413 H1387 0.950 . S
C1413 C1412 1.414 . S
C1413 C1414 1.374 . S
C1414 H1388 0.950 . S
C1414 C1410 1.385 . S
C1414 C1413 1.374 . S
C1415 C1412 1.499 . S
C1415 C1416 1.373 . S
C1415 C1417 1.389 . S
C1416 H1389 0.950 . S
C1416 C1402 1.377 . S
C1416 C1415 1.373 . S
C1417 C1401 1.377 . S
C1417 C1415 1.389 . S
C1417 C1418 1.524 . S
C1418 C1417 1.524 . S
C1418 C1419 1.397 . S
C1418 C1423 1.363 . S
C1419 H1390 0.950 . S
C1419 C1418 1.397 . S
C1419 C1420 1.334 . S
C1420 H1391 0.950 . S
C1420 C1419 1.334 . S
C1420 C1421 1.287 . S
C1421 C1420 1.287 . S
C1421 C1422 1.524 . S
C1421 H1424 0.999 . S
C1422 H1392 0.950 . S
C1422 C1421 1.524 . S
C1422 C1423 1.415 . S
C1423 H1393 0.950 . S
C1423 C1418 1.363 . S
C1423 C1422 1.415 . S
H1424 C1421 0.999 . S
H1425 C1406 0.913 . S
H1426 C1444 0.951 . S
H1427 C1446 0.951 . S
H1428 C1448 0.950 . S
H1429 C1449 0.950 . S
H1430 C1451 0.950 . S
H1431 C1454 0.950 . S
H1432 C1455 0.950 . S
H1433 C1457 0.950 . S
H1434 C1458 0.950 . S
H1435 C1459 0.951 . S
H1436 C1461 0.951 . S
H1437 C1463 0.950 . S
H1438 C1464 0.950 . S
H1439 C1466 0.950 . S
H1440 C1469 0.950 . S
H1441 C1470 0.950 . S
H1442 C1472 0.950 . S
H1443 C1473 0.950 . S
C1444 H1426 0.951 . S
C1444 C1445 1.366 . S
C1444 C1446 1.388 . S
C1445 C1444 1.366 . S
C1445 C1449 1.385 . S
C1446 H1427 0.951 . S
C1446 C1444 1.388 . S
C1446 C1447 1.366 . S
C1447 C1446 1.366 . S
C1447 C1448 1.414 . S
C1447 C1450 1.499 . S
C1448 H1428 0.950 . S
C1448 C1447 1.414 . S
C1448 C1449 1.374 . S
C1449 H1429 0.950 . S
C1449 C1445 1.385 . S
C1449 C1448 1.374 . S
C1450 C1447 1.499 . S
C1450 C1451 1.373 . S
C1450 C1452 1.389 . S
C1451 H1430 0.950 . S
C1451 C1450 1.373 . S
C1451 C1467 1.377 . S
C1452 C1450 1.389 . S
C1452 C1453 1.524 . S
C1452 C1466 1.377 . S
C1453 C1452 1.524 . S
C1453 C1454 1.397 . S
C1453 C1458 1.363 . S
C1454 H1431 0.950 . S
C1454 C1453 1.397 . S
C1454 C1455 1.334 . S
C1455 H1432 0.950 . S
C1455 C1454 1.334 . S
C1455 C1456 1.287 . S
C1456 C1455 1.287 . S
C1456 C1457 1.524 . S
C1456 H1475 0.913 . S
C1457 H1433 0.950 . S
C1457 C1456 1.524 . S
C1457 C1458 1.415 . S
C1458 H1434 0.950 . S
C1458 C1453 1.363 . S
C1458 C1457 1.415 . S
C1459 H1435 0.951 . S
C1459 C1460 1.366 . S
C1459 C1461 1.388 1_556 S
C1460 C1459 1.366 . S
C1460 C1464 1.388 1_556 S
C1461 H1436 0.951 . S
C1461 C1459 1.388 1_554 S
C1461 C1462 1.366 . S
C1462 C1461 1.366 . S
C1462 C1463 1.414 . S
C1462 C1465 1.499 . S
C1463 H1437 0.950 . S
C1463 C1462 1.414 . S
C1463 C1464 1.374 . S
C1464 H1438 0.950 . S
C1464 C1460 1.388 1_554 S
C1464 C1463 1.374 . S
C1465 C1462 1.499 . S
C1465 C1466 1.373 . S
C1465 C1467 1.389 . S
C1466 H1439 0.950 . S
C1466 C1452 1.377 . S
C1466 C1465 1.373 . S
C1467 C1451 1.377 . S
C1467 C1465 1.389 . S
C1467 C1468 1.524 . S
C1468 C1467 1.524 . S
C1468 C1469 1.397 . S
C1468 C1473 1.363 . S
C1469 H1440 0.950 . S
C1469 C1468 1.397 . S
C1469 C1470 1.334 . S
C1470 H1441 0.950 . S
C1470 C1469 1.334 . S
C1470 C1471 1.287 . S
C1471 C1470 1.287 . S
C1471 C1472 1.524 . S
C1471 H1474 0.999 . S
C1472 H1442 0.950 . S
C1472 C1471 1.524 . S
C1472 C1473 1.415 . S
C1473 H1443 0.950 . S
C1473 C1468 1.363 . S
C1473 C1472 1.415 . S
H1474 C1471 0.999 . S
H1475 C1456 0.913 . S
C295 N2 1.278 . S
C310 N140 1.278 . S
C345 N25 1.278 . S
C360 N163 1.279 . S
C395 N186 1.279 . S
C410 N48 1.277 . S
C445 N71 1.277 . S
C460 N209 1.279 . S
C495 N94 1.279 . S
C510 N232 1.278 . S
C545 N255 1.277 . S
C560 N117 1.279 . S
C595 C191 1.325 . S
C610 C7 1.325 . S
C645 C30 1.325 . S
C660 C214 1.324 . S
C695 C237 1.325 . S
C710 C53 1.325 . S
C745 C260 1.325 . S
C760 C76 1.324 . S
C795 C99 1.325 . S
C810 C145 1.325 . S
C845 C122 1.326 . S
C860 C168 1.324 . S
C895 N265 1.849 . S
C910 N12 1.849 . S
C945 N150 1.848 . S
C960 N35 1.848 . S
C995 N58 1.849 . S
C1010 N173 1.849 . S
C1045 N196 1.849 . S
C1060 N81 1.849 . S
C1095 N219 1.849 . S
C1110 N104 1.849 . S
C1145 N242 1.849 . S
C1160 N127 1.849 . S
C1195 C16 1.749 . S
C1210 C246 1.749 . S
C1245 C269 1.749 . S
C1260 C39 1.749 . S
C1295 C62 1.749 . S
C1310 C154 1.749 . S
C1345 C85 1.749 . S
C1360 C177 1.749 . S
C1395 C108 1.746 . S
C1410 C200 1.749 . S
C1445 C131 1.749 . S
C1460 C223 1.746 . S
