# Generated by pormake.
# Topology pcu-i, (5)-cn, num edge types: 1
# Building blocks:
#     Node 0, Type 0, BuildingBlock: XOMCOT_clean_sbu_1, # of connection points: 5
#     Node 1, Type 0, BuildingBlock: XOMCOT_clean_sbu_1, # of connection points: 5
#     Node 2, Type 0, BuildingBlock: XOMCOT_clean_sbu_1, # of connection points: 5
#     Node 3, Type 0, BuildingBlock: XOMCOT_clean_sbu_1, # of connection points: 5
#     Node 4, Type 0, BuildingBlock: XOMCOT_clean_sbu_1, # of connection points: 5
#     Node 5, Type 0, BuildingBlock: XOMCOT_clean_sbu_1, # of connection points: 5
#     Node 6, Type 0, BuildingBlock: XOMCOT_clean_sbu_1, # of connection points: 5
#     Node 7, Type 0, BuildingBlock: XOMCOT_clean_sbu_1, # of connection points: 5
#     Node 8, Type 0, BuildingBlock: XOMCOT_clean_sbu_1, # of connection points: 5
#     Node 9, Type 0, BuildingBlock: XOMCOT_clean_sbu_1, # of connection points: 5
#     Node 10, Type 0, BuildingBlock: XOMCOT_clean_sbu_1, # of connection points: 5
#     Node 11, Type 0, BuildingBlock: XOMCOT_clean_sbu_1, # of connection points: 5
#     Node 12, Type 0, BuildingBlock: XOMCOT_clean_sbu_1, # of connection points: 5
#     Node 13, Type 0, BuildingBlock: XOMCOT_clean_sbu_1, # of connection points: 5
#     Node 14, Type 0, BuildingBlock: XOMCOT_clean_sbu_1, # of connection points: 5
#     Node 15, Type 0, BuildingBlock: XOMCOT_clean_sbu_1, # of connection points: 5
#     Node 16, Type 0, BuildingBlock: XOMCOT_clean_sbu_1, # of connection points: 5
#     Node 17, Type 0, BuildingBlock: XOMCOT_clean_sbu_1, # of connection points: 5
#     Node 18, Type 0, BuildingBlock: XOMCOT_clean_sbu_1, # of connection points: 5
#     Node 19, Type 0, BuildingBlock: XOMCOT_clean_sbu_1, # of connection points: 5
#     Node 20, Type 0, BuildingBlock: XOMCOT_clean_sbu_1, # of connection points: 5
#     Node 21, Type 0, BuildingBlock: XOMCOT_clean_sbu_1, # of connection points: 5
#     Node 22, Type 0, BuildingBlock: XOMCOT_clean_sbu_1, # of connection points: 5
#     Node 23, Type 0, BuildingBlock: XOMCOT_clean_sbu_1, # of connection points: 5
#     Edge 24, Type (0, 0), BuildingBlock: XUDNAN_clean_linker_2, # of connection points: 2
#     Edge 25, Type (0, 0), BuildingBlock: XUDNAN_clean_linker_2, # of connection points: 2
#     Edge 26, Type (0, 0), BuildingBlock: XUDNAN_clean_linker_2, # of connection points: 2
#     Edge 27, Type (0, 0), BuildingBlock: XUDNAN_clean_linker_2, # of connection points: 2
#     Edge 28, Type (0, 0), BuildingBlock: XUDNAN_clean_linker_2, # of connection points: 2
#     Edge 29, Type (0, 0), BuildingBlock: XUDNAN_clean_linker_2, # of connection points: 2
#     Edge 30, Type (0, 0), BuildingBlock: XUDNAN_clean_linker_2, # of connection points: 2
#     Edge 31, Type (0, 0), BuildingBlock: XUDNAN_clean_linker_2, # of connection points: 2
#     Edge 32, Type (0, 0), BuildingBlock: XUDNAN_clean_linker_2, # of connection points: 2
#     Edge 33, Type (0, 0), BuildingBlock: XUDNAN_clean_linker_2, # of connection points: 2
#     Edge 34, Type (0, 0), BuildingBlock: XUDNAN_clean_linker_2, # of connection points: 2
#     Edge 35, Type (0, 0), BuildingBlock: XUDNAN_clean_linker_2, # of connection points: 2
#     Edge 36, Type (0, 0), BuildingBlock: XUDNAN_clean_linker_2, # of connection points: 2
#     Edge 37, Type (0, 0), BuildingBlock: XUDNAN_clean_linker_2, # of connection points: 2
#     Edge 38, Type (0, 0), BuildingBlock: XUDNAN_clean_linker_2, # of connection points: 2
#     Edge 39, Type (0, 0), BuildingBlock: XUDNAN_clean_linker_2, # of connection points: 2
#     Edge 40, Type (0, 0), BuildingBlock: XUDNAN_clean_linker_2, # of connection points: 2
#     Edge 41, Type (0, 0), BuildingBlock: XUDNAN_clean_linker_2, # of connection points: 2
#     Edge 42, Type (0, 0), BuildingBlock: XUDNAN_clean_linker_2, # of connection points: 2
#     Edge 43, Type (0, 0), BuildingBlock: XUDNAN_clean_linker_2, # of connection points: 2
#     Edge 44, Type (0, 0), BuildingBlock: XUDNAN_clean_linker_2, # of connection points: 2
#     Edge 45, Type (0, 0), BuildingBlock: XUDNAN_clean_linker_2, # of connection points: 2
#     Edge 46, Type (0, 0), BuildingBlock: XUDNAN_clean_linker_2, # of connection points: 2
#     Edge 47, Type (0, 0), BuildingBlock: XUDNAN_clean_linker_2, # of connection points: 2
#     Edge 48, Type (0, 0), BuildingBlock: XUDNAN_clean_linker_2, # of connection points: 2
#     Edge 49, Type (0, 0), BuildingBlock: XUDNAN_clean_linker_2, # of connection points: 2
#     Edge 50, Type (0, 0), BuildingBlock: XUDNAN_clean_linker_2, # of connection points: 2
#     Edge 51, Type (0, 0), BuildingBlock: XUDNAN_clean_linker_2, # of connection points: 2
#     Edge 52, Type (0, 0), BuildingBlock: XUDNAN_clean_linker_2, # of connection points: 2
#     Edge 53, Type (0, 0), BuildingBlock: XUDNAN_clean_linker_2, # of connection points: 2
#     Edge 54, Type (0, 0), BuildingBlock: XUDNAN_clean_linker_2, # of connection points: 2
#     Edge 55, Type (0, 0), BuildingBlock: XUDNAN_clean_linker_2, # of connection points: 2
#     Edge 56, Type (0, 0), BuildingBlock: XUDNAN_clean_linker_2, # of connection points: 2
#     Edge 57, Type (0, 0), BuildingBlock: XUDNAN_clean_linker_2, # of connection points: 2
#     Edge 58, Type (0, 0), BuildingBlock: XUDNAN_clean_linker_2, # of connection points: 2
#     Edge 59, Type (0, 0), BuildingBlock: XUDNAN_clean_linker_2, # of connection points: 2
#     Edge 60, Type (0, 0), BuildingBlock: XUDNAN_clean_linker_2, # of connection points: 2
#     Edge 61, Type (0, 0), BuildingBlock: XUDNAN_clean_linker_2, # of connection points: 2
#     Edge 62, Type (0, 0), BuildingBlock: XUDNAN_clean_linker_2, # of connection points: 2
#     Edge 63, Type (0, 0), BuildingBlock: XUDNAN_clean_linker_2, # of connection points: 2
#     Edge 64, Type (0, 0), BuildingBlock: XUDNAN_clean_linker_2, # of connection points: 2
#     Edge 65, Type (0, 0), BuildingBlock: XUDNAN_clean_linker_2, # of connection points: 2
#     Edge 66, Type (0, 0), BuildingBlock: XUDNAN_clean_linker_2, # of connection points: 2
#     Edge 67, Type (0, 0), BuildingBlock: XUDNAN_clean_linker_2, # of connection points: 2
#     Edge 68, Type (0, 0), BuildingBlock: XUDNAN_clean_linker_2, # of connection points: 2
#     Edge 69, Type (0, 0), BuildingBlock: XUDNAN_clean_linker_2, # of connection points: 2
#     Edge 70, Type (0, 0), BuildingBlock: XUDNAN_clean_linker_2, # of connection points: 2
#     Edge 71, Type (0, 0), BuildingBlock: XUDNAN_clean_linker_2, # of connection points: 2
#     Edge 72, Type (0, 0), BuildingBlock: XUDNAN_clean_linker_2, # of connection points: 2
#     Edge 73, Type (0, 0), BuildingBlock: XUDNAN_clean_linker_2, # of connection points: 2
#     Edge 74, Type (0, 0), BuildingBlock: XUDNAN_clean_linker_2, # of connection points: 2
#     Edge 75, Type (0, 0), BuildingBlock: XUDNAN_clean_linker_2, # of connection points: 2
#     Edge 76, Type (0, 0), BuildingBlock: XUDNAN_clean_linker_2, # of connection points: 2
#     Edge 77, Type (0, 0), BuildingBlock: XUDNAN_clean_linker_2, # of connection points: 2
#     Edge 78, Type (0, 0), BuildingBlock: XUDNAN_clean_linker_2, # of connection points: 2
#     Edge 79, Type (0, 0), BuildingBlock: XUDNAN_clean_linker_2, # of connection points: 2
#     Edge 80, Type (0, 0), BuildingBlock: XUDNAN_clean_linker_2, # of connection points: 2
#     Edge 81, Type (0, 0), BuildingBlock: XUDNAN_clean_linker_2, # of connection points: 2
#     Edge 82, Type (0, 0), BuildingBlock: XUDNAN_clean_linker_2, # of connection points: 2
#     Edge 83, Type (0, 0), BuildingBlock: XUDNAN_clean_linker_2, # of connection points: 2
# Relax obj value: 0.243
# Max RMSD: 0.244
# Mean RMSD: 0.244
data_MOF--net-pcu-i--node1-XOMCOT_clean_sbu_1--edge1-XUDNAN_clean_linker_2
_symmetry_space_group_name_H-M    P1
_symmetry_Int_Tables_number       1
_symmetry_cell_setting            triclinic
loop_
_symmetry_equiv_pos_as_xyz
'x, y, z'
_cell_length_a     56.815888
_cell_length_b     56.793787
_cell_length_c     56.798453
_cell_angle_alpha  90.013783
_cell_angle_beta   89.983638
_cell_angle_gamma 89.997888
loop_
_atom_site_label
_atom_site_type_symbol
_atom_site_fract_x
_atom_site_fract_y
_atom_site_fract_z
_atom_type_partial_charge
C0 C 0.072 0.17876 0.35044 0.0
C1 C 0.04803 0.17602 0.35166 0.0
N2 N 0.04173 0.15851 0.3369 0.0
N3 N 0.08082 0.16296 0.33513 0.0
C4 C 0.06201 0.15086 0.3271 0.0
H5 H 0.08238 0.19155 0.35997 0.0
Co6 Co 0.11223 0.16104 0.32699 0.0
C7 C 0.12371 0.11112 0.324 0.0
O8 O 0.14328 0.11647 0.3351 0.0
N9 N 0.14434 0.15979 0.31768 0.0
C10 C 0.18325 0.16172 0.3128 0.0
C11 C 0.16483 0.16673 0.32771 0.0
C12 C 0.15098 0.15122 0.29641 0.0
N13 N 0.17441 0.15203 0.29312 0.0
O14 O 0.10476 0.17027 0.29573 0.0
H15 H 0.16684 0.175 0.34462 0.0
H16 H 0.13882 0.14386 0.28372 0.0
O17 O 0.10877 0.12729 0.31906 0.0
C18 C 0.10599 0.19261 0.29459 0.0
O19 O 0.10855 0.20441 0.31434 0.0
N20 N 0.11916 0.15399 0.35868 0.0
C21 C 0.13055 0.14695 0.40566 0.0
C22 C 0.11638 0.13069 0.39384 0.0
C23 C 0.11037 0.13485 0.37039 0.0
C24 C 0.13031 0.17131 0.37097 0.0
C25 C 0.137 0.1678 0.39433 0.0
H26 H 0.09864 0.12266 0.36171 0.0
H27 H 0.13427 0.18788 0.36246 0.0
H28 H 0.0631 0.13718 0.31388 0.0
H29 H 0.0362 0.1861 0.36268 0.0
H30 H 0.2017 0.16521 0.31605 0.0
H31 H 0.1103 0.11484 0.40254 0.0
H32 H 0.14709 0.18118 0.40344 0.0
C33 C 0.81105 0.06707 0.35261 0.0
C34 C 0.81735 0.04375 0.35067 0.0
N35 N 0.83762 0.04261 0.33847 0.0
N36 N 0.82719 0.08044 0.34145 0.0
C37 C 0.84326 0.06503 0.3331 0.0
H38 H 0.79533 0.07386 0.36095 0.0
Co39 Co 0.82474 0.11259 0.33614 0.0
C40 C 0.87271 0.13121 0.33756 0.0
O41 O 0.86435 0.14863 0.35032 0.0
N42 N 0.82198 0.14525 0.32956 0.0
C43 C 0.81567 0.18398 0.32704 0.0
C44 C 0.81182 0.16398 0.34029 0.0
C45 C 0.83135 0.15447 0.30967 0.0
N46 N 0.82792 0.17781 0.30774 0.0
O47 O 0.81919 0.1068 0.30351 0.0
H48 H 0.80227 0.16365 0.35666 0.0
H49 H 0.84137 0.14427 0.29707 0.0
O50 O 0.85892 0.11473 0.33073 0.0
C51 C 0.79838 0.09997 0.29891 0.0
O52 O 0.78403 0.09511 0.31636 0.0
N53 N 0.82814 0.11755 0.36876 0.0
C54 C 0.82759 0.12236 0.41782 0.0
C55 C 0.84742 0.1132 0.40617 0.0
C56 C 0.8472 0.11059 0.38169 0.0
C57 C 0.80812 0.12452 0.37991 0.0
C58 C 0.80767 0.12785 0.40423 0.0
H59 H 0.86212 0.10233 0.37328 0.0
H60 H 0.79225 0.12739 0.3698 0.0
H61 H 0.85824 0.06996 0.32241 0.0
H62 H 0.80772 0.02876 0.35746 0.0
H63 H 0.80977 0.20162 0.33119 0.0
H64 H 0.86278 0.10746 0.41586 0.0
H65 H 0.79176 0.13467 0.41217 0.0
C66 C 0.92342 0.81458 0.35083 0.0
C67 C 0.94759 0.81469 0.34904 0.0
N68 N 0.95388 0.83175 0.33377 0.0
N69 N 0.9146 0.8315 0.33676 0.0
C70 C 0.93351 0.84152 0.32648 0.0
H71 H 0.91293 0.80329 0.36201 0.0
Co72 Co 0.88326 0.83963 0.33338 0.0
C73 C 0.88546 0.88248 0.30494 0.0
O74 O 0.87356 0.87179 0.28826 0.0
N75 N 0.85143 0.84848 0.32965 0.0
C76 C 0.82195 0.874 0.32654 0.0
C77 C 0.84143 0.86777 0.33933 0.0
C78 C 0.837 0.84285 0.31157 0.0
N79 N 0.81951 0.85869 0.30856 0.0
O80 O 0.88404 0.82782 0.30181 0.0
H81 H 0.84935 0.87851 0.3529 0.0
H82 H 0.84063 0.82879 0.29937 0.0
O83 O 0.89176 0.87117 0.32328 0.0
C84 C 0.88183 0.80553 0.30053 0.0
O85 O 0.8811 0.79341 0.32023 0.0
N86 N 0.88258 0.8493 0.36485 0.0
C87 C 0.87891 0.86145 0.41234 0.0
C88 C 0.89515 0.87286 0.39753 0.0
C89 C 0.89672 0.86653 0.37381 0.0
C90 C 0.86752 0.83726 0.37909 0.0
C91 C 0.86513 0.84327 0.40279 0.0
H92 H 0.90941 0.87535 0.36272 0.0
H93 H 0.85687 0.82324 0.37181 0.0
H94 H 0.9324 0.85579 0.31392 0.0
H95 H 0.9596 0.80362 0.35884 0.0
H96 H 0.81217 0.89017 0.32884 0.0
H97 H 0.90672 0.88646 0.40418 0.0
H98 H 0.85224 0.83401 0.41334 0.0
C99 C 0.17135 0.9221 0.36687 0.0
C100 C 0.16314 0.94484 0.36644 0.0
N101 N 0.14798 0.94703 0.3483 0.0
N102 N 0.16128 0.90991 0.34922 0.0
C103 C 0.14725 0.92555 0.33808 0.0
H104 H 0.1843 0.91504 0.3789 0.0
Co105 Co 0.16792 0.87907 0.34136 0.0
C106 C 0.12246 0.85626 0.3316 0.0
O107 O 0.13051 0.83752 0.34253 0.0
N108 N 0.17528 0.84783 0.33239 0.0
C109 C 0.18371 0.80965 0.32886 0.0
C110 C 0.18416 0.82884 0.34373 0.0
C111 C 0.17055 0.83978 0.31046 0.0
N112 N 0.17515 0.81672 0.30796 0.0
O113 O 0.17786 0.88898 0.31099 0.0
H114 H 0.18981 0.82833 0.36183 0.0
H115 H 0.16207 0.85026 0.29699 0.0
O116 O 0.13545 0.87464 0.32989 0.0
C117 C 0.19992 0.89259 0.30995 0.0
O118 O 0.21193 0.89276 0.32972 0.0
N119 N 0.15962 0.87001 0.37224 0.0
C120 C 0.15156 0.85818 0.41915 0.0
C121 C 0.13297 0.86545 0.40473 0.0
C122 C 0.1375 0.87209 0.38152 0.0
C123 C 0.17812 0.86476 0.38661 0.0
C124 C 0.17448 0.8585 0.41012 0.0
H125 H 0.12322 0.87931 0.37131 0.0
H126 H 0.19585 0.86538 0.37969 0.0
H127 H 0.13705 0.92133 0.32257 0.0
H128 H 0.16873 0.9589 0.37802 0.0
H129 H 0.18858 0.79176 0.33328 0.0
H130 H 0.11517 0.86647 0.41151 0.0
H131 H 0.18935 0.85364 0.42101 0.0
C132 C 0.07666 0.82194 0.64348 0.0
C133 C 0.0533 0.82808 0.64381 0.0
N134 N 0.05016 0.84437 0.66074 0.0
N135 N 0.08816 0.83427 0.66019 0.0
C136 C 0.07155 0.84793 0.67037 0.0
H137 H 0.08448 0.80839 0.63264 0.0
Co138 Co 0.11903 0.8292 0.66953 0.0
C139 C 0.14019 0.87615 0.674 0.0
O140 O 0.15941 0.86736 0.66457 0.0
N141 N 0.15014 0.82371 0.67989 0.0
C142 C 0.18802 0.81509 0.68544 0.0
C143 C 0.16924 0.81329 0.67017 0.0
C144 C 0.15775 0.83102 0.70125 0.0
N145 N 0.18063 0.82625 0.70497 0.0
O146 O 0.10863 0.82233 0.70081 0.0
H147 H 0.17002 0.80527 0.65299 0.0
H148 H 0.14696 0.84094 0.71344 0.0
O149 O 0.12223 0.86288 0.67704 0.0
C150 C 0.09822 0.80262 0.70315 0.0
O151 O 0.09268 0.79057 0.68421 0.0
N152 N 0.12854 0.83376 0.63807 0.0
C153 C 0.13454 0.83328 0.5893 0.0
C154 C 0.12938 0.85433 0.60109 0.0
C155 C 0.12578 0.85408 0.62544 0.0
C156 C 0.13327 0.81314 0.62673 0.0
C157 C 0.13661 0.81252 0.60242 0.0
H158 H 0.11932 0.86993 0.63367 0.0
H159 H 0.1333 0.79682 0.63654 0.0
H160 H 0.07473 0.859 0.68556 0.0
H161 H 0.03948 0.82048 0.63312 0.0
H162 H 0.20579 0.80895 0.6823 0.0
H163 H 0.12667 0.87052 0.59139 0.0
H164 H 0.14005 0.79582 0.59387 0.0
C165 C 0.18213 0.07137 0.63399 0.0
C166 C 0.1786 0.04754 0.63573 0.0
N167 N 0.16161 0.04368 0.65183 0.0
N168 N 0.16733 0.08252 0.6488 0.0
C169 C 0.15496 0.06521 0.65944 0.0
H170 H 0.19525 0.08002 0.62325 0.0
Co171 Co 0.16851 0.11443 0.65498 0.0
C172 C 0.12025 0.13151 0.65736 0.0
O173 O 0.12781 0.14924 0.64455 0.0
N174 N 0.1705 0.14702 0.66235 0.0
C175 C 0.17598 0.1858 0.66541 0.0
C176 C 0.17898 0.16633 0.65122 0.0
C177 C 0.16295 0.15535 0.68337 0.0
N178 N 0.16599 0.1787 0.68566 0.0
O179 O 0.17725 0.10789 0.68665 0.0
H180 H 0.18678 0.16675 0.63394 0.0
H181 H 0.1546 0.14449 0.69661 0.0
O182 O 0.13453 0.11494 0.66298 0.0
C183 C 0.19962 0.10907 0.68684 0.0
O184 O 0.21065 0.11064 0.66654 0.0
N185 N 0.16247 0.12016 0.62298 0.0
C186 C 0.16101 0.12362 0.57399 0.0
C187 C 0.14164 0.11483 0.58657 0.0
C188 C 0.14292 0.11274 0.61106 0.0
C189 C 0.1818 0.12753 0.61089 0.0
C190 C 0.18128 0.13002 0.58652 0.0
H191 H 0.12861 0.10423 0.62021 0.0
H192 H 0.19805 0.13084 0.62022 0.0
H193 H 0.14232 0.06825 0.67338 0.0
H194 H 0.18816 0.03405 0.62625 0.0
H195 H 0.1809 0.20373 0.66123 0.0
H196 H 0.12603 0.10867 0.57754 0.0
H197 H 0.1968 0.13656 0.5776 0.0
C198 C 0.92381 0.1815 0.63597 0.0
C199 C 0.94747 0.17665 0.63489 0.0
N200 N 0.95237 0.15979 0.65085 0.0
N201 N 0.91384 0.16767 0.65244 0.0
C202 C 0.93164 0.15457 0.66123 0.0
H203 H 0.91453 0.19477 0.62595 0.0
Co204 Co 0.88302 0.17055 0.6626 0.0
C205 C 0.86575 0.12218 0.66449 0.0
O206 O 0.84706 0.1299 0.65322 0.0
N207 N 0.8523 0.17494 0.67436 0.0
C208 C 0.82331 0.19542 0.69134 0.0
C209 C 0.84098 0.19591 0.67473 0.0
C210 C 0.84165 0.16245 0.69168 0.0
N211 N 0.82376 0.17421 0.70173 0.0
O212 O 0.89373 0.17814 0.69336 0.0
H213 H 0.84678 0.21147 0.66543 0.0
H214 H 0.84842 0.14622 0.69892 0.0
O215 O 0.8821 0.13663 0.6702 0.0
C216 C 0.89765 0.20009 0.69569 0.0
O217 O 0.89799 0.21323 0.67664 0.0
N218 N 0.87233 0.16424 0.6313 0.0
C219 C 0.85701 0.15517 0.58544 0.0
C220 C 0.87449 0.14124 0.59571 0.0
C221 C 0.88192 0.14606 0.61864 0.0
C222 C 0.85633 0.17881 0.62084 0.0
C223 C 0.848 0.17425 0.59815 0.0
H224 H 0.89529 0.13492 0.62635 0.0
H225 H 0.84998 0.19421 0.62978 0.0
H226 H 0.92968 0.14243 0.67579 0.0
H227 H 0.96019 0.18523 0.62359 0.0
H228 H 0.81202 0.20992 0.69641 0.0
H229 H 0.88202 0.12646 0.58627 0.0
H230 H 0.8349 0.18577 0.59044 0.0
C231 C 0.82034 0.92559 0.64265 0.0
C232 C 0.82348 0.94952 0.64355 0.0
N233 N 0.84099 0.95417 0.65886 0.0
N234 N 0.83585 0.91519 0.65724 0.0
C235 C 0.84828 0.93302 0.66689 0.0
H236 H 0.80729 0.91629 0.63237 0.0
Co237 Co 0.83589 0.88327 0.66307 0.0
C238 C 0.88443 0.86862 0.66988 0.0
O239 O 0.87906 0.85072 0.65622 0.0
N240 N 0.83487 0.85062 0.67007 0.0
C241 C 0.83009 0.81175 0.6729 0.0
C242 C 0.82724 0.83119 0.65861 0.0
C243 C 0.84177 0.8424 0.69135 0.0
N244 N 0.83938 0.81891 0.6935 0.0
O245 O 0.82444 0.88917 0.694 0.0
H246 H 0.81996 0.83072 0.64111 0.0
H247 H 0.84848 0.85365 0.70517 0.0
O248 O 0.8689 0.8844 0.6743 0.0
C249 C 0.80208 0.88938 0.695 0.0
O250 O 0.79016 0.88749 0.67526 0.0
N251 N 0.84566 0.87843 0.63153 0.0
C252 C 0.85451 0.87877 0.58313 0.0
C253 C 0.87061 0.88867 0.5989 0.0
C254 C 0.8657 0.88869 0.62293 0.0
C255 C 0.82936 0.86958 0.61627 0.0
C256 C 0.83373 0.86892 0.59203 0.0
H257 H 0.87748 0.89824 0.63438 0.0
H258 H 0.81227 0.8643 0.62273 0.0
H259 H 0.86175 0.93062 0.68015 0.0
H260 H 0.81356 0.96252 0.63377 0.0
H261 H 0.82588 0.79375 0.6683 0.0
H262 H 0.88655 0.89707 0.59263 0.0
H263 H 0.8204 0.86204 0.58025 0.0
C264 C 0.35603 0.0811 0.17242 0.0
C265 C 0.35824 0.05751 0.16771 0.0
N266 N 0.34437 0.05221 0.14918 0.0
N267 N 0.34101 0.09073 0.15682 0.0
C268 C 0.334 0.0727 0.14298 0.0
H269 H 0.36448 0.09063 0.18658 0.0
Co270 Co 0.33124 0.12188 0.15722 0.0
C271 C 0.33722 0.13783 0.10871 0.0
O272 O 0.34807 0.15614 0.11783 0.0
N273 N 0.31983 0.15317 0.15841 0.0
C274 C 0.30414 0.18687 0.17143 0.0
C275 C 0.31869 0.16818 0.17691 0.0
C276 C 0.3046 0.16254 0.14267 0.0
N277 N 0.29559 0.18323 0.1497 0.0
O278 O 0.29942 0.11209 0.16087 0.0
H279 H 0.32617 0.16499 0.19408 0.0
H280 H 0.2986 0.15362 0.12698 0.0
O281 O 0.3289 0.12186 0.12236 0.0
C282 C 0.29627 0.10893 0.18285 0.0
O283 O 0.31483 0.10949 0.19666 0.0
N284 N 0.36333 0.13137 0.15581 0.0
C285 C 0.41152 0.14152 0.15822 0.0
C286 C 0.40253 0.12711 0.14029 0.0
C287 C 0.37851 0.12202 0.13957 0.0
C288 C 0.37197 0.14459 0.17387 0.0
C289 C 0.39581 0.15035 0.1751 0.0
H290 H 0.37221 0.10993 0.12629 0.0
H291 H 0.36073 0.14987 0.1881 0.0
H292 H 0.32137 0.07455 0.12884 0.0
H293 H 0.36863 0.04508 0.17773 0.0
H294 H 0.29962 0.20151 0.18276 0.0
H295 H 0.41403 0.11907 0.12738 0.0
H296 H 0.40186 0.1613 0.18948 0.0
C297 C 0.92093 0.35774 0.1885 0.0
C298 C 0.94457 0.35691 0.18365 0.0
N299 N 0.94789 0.34249 0.16509 0.0
N300 N 0.90936 0.34401 0.17302 0.0
C301 C 0.92622 0.33493 0.1589 0.0
H302 H 0.9127 0.36722 0.20282 0.0
Co303 Co 0.87755 0.33769 0.17491 0.0
C304 C 0.85966 0.33388 0.12665 0.0
O305 O 0.84144 0.3462 0.13381 0.0
N306 N 0.8452 0.3303 0.17753 0.0
C307 C 0.80617 0.32804 0.18128 0.0
C308 C 0.82572 0.34213 0.18453 0.0
C309 C 0.83695 0.309 0.17078 0.0
N310 N 0.8135 0.3072 0.17279 0.0
O311 O 0.88444 0.30594 0.18336 0.0
H312 H 0.82528 0.36001 0.19089 0.0
H313 H 0.84781 0.29536 0.16309 0.0
O314 O 0.87646 0.32937 0.14106 0.0
C315 C 0.88467 0.30372 0.20566 0.0
O316 O 0.88409 0.32295 0.21854 0.0
N317 N 0.8715 0.36969 0.16881 0.0
C318 C 0.86839 0.41866 0.167 0.0
C319 C 0.87516 0.4058 0.14707 0.0
C320 C 0.87733 0.38133 0.14855 0.0
C321 C 0.86553 0.38208 0.18848 0.0
C322 C 0.86364 0.40656 0.18793 0.0
H323 H 0.88475 0.37205 0.13373 0.0
H324 H 0.86292 0.37287 0.20495 0.0
H325 H 0.92283 0.32223 0.1451 0.0
H326 H 0.95831 0.36599 0.19324 0.0
H327 H 0.78802 0.33283 0.18455 0.0
H328 H 0.87993 0.4147 0.13089 0.0
H329 H 0.85892 0.41597 0.20384 0.0
C330 C 0.64655 0.92667 0.17913 0.0
C331 C 0.64403 0.95012 0.17411 0.0
N332 N 0.65659 0.95499 0.15458 0.0
N333 N 0.66056 0.91663 0.16284 0.0
C334 C 0.6666 0.93436 0.14816 0.0
H335 H 0.63893 0.91753 0.19399 0.0
Co336 Co 0.66876 0.88499 0.1637 0.0
C337 C 0.68477 0.88725 0.11207 0.0
O338 O 0.70514 0.89803 0.11396 0.0
N339 N 0.6775 0.85303 0.16454 0.0
C340 C 0.68204 0.81446 0.17018 0.0
C341 C 0.66859 0.83392 0.17561 0.0
C342 C 0.69656 0.84468 0.15297 0.0
N343 N 0.69967 0.82139 0.15598 0.0
O344 O 0.70089 0.89304 0.16838 0.0
H345 H 0.65353 0.83375 0.18714 0.0
H346 H 0.708 0.85554 0.14232 0.0
O347 O 0.67227 0.8834 0.13024 0.0
C348 C 0.70438 0.89793 0.18996 0.0
O349 O 0.68602 0.89988 0.2039 0.0
N350 N 0.63683 0.8773 0.16089 0.0
C351 C 0.58824 0.87005 0.1623 0.0
C352 C 0.59926 0.87796 0.14164 0.0
C353 C 0.62354 0.88163 0.14133 0.0
C354 C 0.62633 0.87058 0.18136 0.0
C355 C 0.60222 0.86622 0.18232 0.0
H356 H 0.63126 0.88903 0.12564 0.0
H357 H 0.63675 0.86904 0.19722 0.0
H358 H 0.67807 0.93226 0.13314 0.0
H359 H 0.63422 0.96273 0.18449 0.0
H360 H 0.67934 0.79671 0.17657 0.0
H361 H 0.58919 0.8822 0.12603 0.0
H362 H 0.59468 0.86017 0.19874 0.0
C363 C 0.07447 0.64582 0.18987 0.0
C364 C 0.05072 0.64814 0.18609 0.0
N365 N 0.04751 0.66207 0.16715 0.0
N366 N 0.08616 0.65815 0.17333 0.0
C367 C 0.06931 0.66786 0.15968 0.0
H368 H 0.08275 0.63618 0.20404 0.0
Co369 Co 0.11838 0.66237 0.17285 0.0
C370 C 0.13293 0.65843 0.12387 0.0
O371 O 0.14998 0.64501 0.13194 0.0
N372 N 0.1513 0.6679 0.17278 0.0
C373 C 0.1902 0.67039 0.17713 0.0
C374 C 0.1704 0.65736 0.18231 0.0
C375 C 0.16013 0.68736 0.16225 0.0
N376 N 0.18364 0.68933 0.16446 0.0
O377 O 0.11414 0.69507 0.17897 0.0
H378 H 0.17046 0.64144 0.19259 0.0
H379 H 0.14922 0.7001 0.15328 0.0
O380 O 0.11796 0.66731 0.13827 0.0
C381 C 0.11383 0.69774 0.20123 0.0
O382 O 0.11277 0.67876 0.21443 0.0
N383 N 0.12189 0.62959 0.16937 0.0
C384 C 0.1254 0.58053 0.16965 0.0
C385 C 0.11413 0.59229 0.15104 0.0
C386 C 0.11217 0.6168 0.15146 0.0
C387 C 0.13073 0.61834 0.18858 0.0
C388 C 0.13345 0.59396 0.18877 0.0
H389 H 0.10238 0.62539 0.13761 0.0
H390 H 0.13542 0.62838 0.20405 0.0
H391 H 0.07292 0.67966 0.14517 0.0
H392 H 0.03687 0.64028 0.19656 0.0
H393 H 0.20799 0.66612 0.18236 0.0
H394 H 0.10636 0.58269 0.13653 0.0
H395 H 0.14181 0.58585 0.20384 0.0
C396 C 0.35093 0.92741 0.82661 0.0
C397 C 0.34731 0.95126 0.82761 0.0
N398 N 0.33045 0.95551 0.84366 0.0
N399 N 0.33669 0.91654 0.84226 0.0
C400 C 0.32402 0.93424 0.85202 0.0
H401 H 0.36264 0.91871 0.81447 0.0
Co402 Co 0.33256 0.88393 0.84518 0.0
C403 C 0.32867 0.89885 0.89665 0.0
O404 O 0.34307 0.91689 0.89512 0.0
N405 N 0.32758 0.8516 0.84758 0.0
C406 C 0.3264 0.81276 0.84288 0.0
C407 C 0.33918 0.83299 0.83847 0.0
C408 C 0.30799 0.84233 0.85727 0.0
N409 N 0.30664 0.81881 0.85457 0.0
O410 O 0.30045 0.88744 0.83616 0.0
H411 H 0.35529 0.83403 0.82841 0.0
H412 H 0.29448 0.85292 0.86548 0.0
O413 O 0.3243 0.8864 0.87843 0.0
C414 C 0.29929 0.8856 0.81385 0.0
O415 O 0.31911 0.88508 0.80191 0.0
N416 N 0.36481 0.87977 0.85156 0.0
C417 C 0.41393 0.87789 0.85198 0.0
C418 C 0.40111 0.87769 0.87315 0.0
C419 C 0.37646 0.87823 0.87256 0.0
C420 C 0.37695 0.87784 0.83099 0.0
C421 C 0.40142 0.87704 0.83074 0.0
H422 H 0.36713 0.87742 0.88899 0.0
H423 H 0.36745 0.87749 0.81449 0.0
H424 H 0.30983 0.93157 0.86445 0.0
H425 H 0.35634 0.96449 0.81728 0.0
H426 H 0.33079 0.7952 0.83692 0.0
H427 H 0.40998 0.8777 0.89002 0.0
H428 H 0.41042 0.876 0.81396 0.0
C429 C 0.06967 0.34395 0.80478 0.0
C430 C 0.04612 0.34018 0.80907 0.0
N431 N 0.04405 0.33091 0.83075 0.0
N432 N 0.08224 0.33678 0.8236 0.0
C433 C 0.06609 0.32901 0.83924 0.0
H434 H 0.07725 0.35073 0.78869 0.0
Co435 Co 0.11476 0.335 0.82446 0.0
C436 C 0.128 0.33792 0.87395 0.0
O437 O 0.14458 0.3526 0.86718 0.0
N438 N 0.14803 0.33193 0.82487 0.0
C439 C 0.18693 0.33167 0.81944 0.0
C440 C 0.16626 0.34373 0.8151 0.0
C441 C 0.1582 0.31281 0.83478 0.0
N442 N 0.18168 0.31208 0.83171 0.0
O443 O 0.11295 0.30227 0.81723 0.0
H444 H 0.16499 0.35963 0.80484 0.0
H445 H 0.14835 0.29947 0.84414 0.0
O446 O 0.11416 0.3288 0.85866 0.0
C447 C 0.11442 0.30043 0.79493 0.0
O448 O 0.11469 0.31987 0.78238 0.0
N449 N 0.11576 0.36783 0.829 0.0
C450 C 0.11463 0.41698 0.82948 0.0
C451 C 0.1055 0.40402 0.84839 0.0
C452 C 0.10558 0.37943 0.84749 0.0
C453 C 0.12311 0.38017 0.8098 0.0
C454 C 0.1232 0.40473 0.80983 0.0
H455 H 0.0969 0.36985 0.86142 0.0
H456 H 0.12844 0.37084 0.79409 0.0
H457 H 0.07034 0.32109 0.85603 0.0
H458 H 0.03167 0.3436 0.79713 0.0
H459 H 0.20428 0.3365 0.81325 0.0
H460 H 0.09765 0.41278 0.8634 0.0
H461 H 0.12987 0.414 0.79456 0.0
C462 C 0.65454 0.06836 0.81927 0.0
C463 C 0.65523 0.04503 0.82564 0.0
N464 N 0.66963 0.04293 0.84431 0.0
N465 N 0.66806 0.08094 0.8342 0.0
C466 C 0.67735 0.06488 0.84913 0.0
H467 H 0.64442 0.07582 0.80498 0.0
Co468 Co 0.6711 0.11354 0.8334 0.0
C469 C 0.66375 0.12988 0.88136 0.0
O470 O 0.64992 0.14583 0.87186 0.0
N471 N 0.67548 0.14671 0.8322 0.0
C472 C 0.6784 0.18511 0.82448 0.0
C473 C 0.66642 0.1646 0.81937 0.0
C474 C 0.69315 0.15695 0.8445 0.0
N475 N 0.69531 0.18022 0.84036 0.0
O476 O 0.70438 0.11062 0.82965 0.0
H477 H 0.65263 0.16321 0.80647 0.0
H478 H 0.70478 0.1471 0.85587 0.0
O479 O 0.67422 0.11484 0.86813 0.0
C480 C 0.71137 0.10578 0.80892 0.0
O481 O 0.69583 0.09847 0.79344 0.0
N482 N 0.63776 0.11587 0.83545 0.0
C483 C 0.58867 0.11625 0.8354 0.0
C484 C 0.60101 0.10544 0.85372 0.0
C485 C 0.62553 0.10513 0.85325 0.0
C486 C 0.62585 0.12461 0.81652 0.0
C487 C 0.60125 0.12575 0.81648 0.0
H488 H 0.63466 0.09567 0.86699 0.0
H489 H 0.63535 0.12975 0.8009 0.0
H490 H 0.68895 0.06924 0.8636 0.0
H491 H 0.64585 0.03069 0.81729 0.0
H492 H 0.67501 0.20218 0.81674 0.0
H493 H 0.59175 0.09709 0.86816 0.0
H494 H 0.59212 0.13312 0.80145 0.0
C495 C 0.91817 0.66774 0.8084 0.0
C496 C 0.94223 0.67046 0.80769 0.0
N497 N 0.95053 0.66856 0.82982 0.0
N498 N 0.91136 0.66441 0.83089 0.0
C499 C 0.93153 0.66462 0.84348 0.0
H500 H 0.90628 0.66913 0.79361 0.0
Co501 Co 0.88036 0.66428 0.8413 0.0
C502 C 0.89377 0.69043 0.88544 0.0
O503 O 0.89018 0.71165 0.87699 0.0
N504 N 0.84922 0.66471 0.85179 0.0
C505 C 0.81076 0.65907 0.85625 0.0
C506 C 0.83142 0.64956 0.84762 0.0
C507 C 0.83906 0.68303 0.86299 0.0
N508 N 0.81572 0.68019 0.86591 0.0
O509 O 0.87762 0.6965 0.83184 0.0
H510 H 0.83314 0.63323 0.83798 0.0
H511 H 0.84827 0.69907 0.86729 0.0
O512 O 0.89045 0.67231 0.87265 0.0
C513 C 0.86624 0.69786 0.81255 0.0
O514 O 0.85792 0.67834 0.80329 0.0
N515 N 0.88274 0.63223 0.84826 0.0
C516 C 0.88715 0.58343 0.85214 0.0
C517 C 0.88529 0.5976 0.87236 0.0
C518 C 0.88298 0.62206 0.87005 0.0
C519 C 0.88384 0.61873 0.8285 0.0
C520 C 0.88608 0.59436 0.83001 0.0
H521 H 0.88132 0.63266 0.88575 0.0
H522 H 0.883 0.62705 0.81139 0.0
H523 H 0.93226 0.66323 0.86245 0.0
H524 H 0.95274 0.67415 0.79222 0.0
H525 H 0.79338 0.65141 0.85477 0.0
H526 H 0.88592 0.58992 0.8898 0.0
H527 H 0.88673 0.58417 0.81391 0.0
C528 C 0.17035 0.36223 0.07038 0.0
C529 C 0.16433 0.36387 0.04707 0.0
N530 N 0.1478 0.34748 0.04237 0.0
N531 N 0.15762 0.34498 0.08048 0.0
C532 C 0.14409 0.33618 0.063 0.0
H533 H 0.1837 0.37247 0.07928 0.0
Co534 Co 0.16144 0.33523 0.11134 0.0
C535 C 0.11421 0.33135 0.13144 0.0
O536 O 0.12296 0.34175 0.15018 0.0
N537 N 0.16601 0.32437 0.14254 0.0
C538 C 0.17513 0.31726 0.18006 0.0
C539 C 0.17802 0.33252 0.16145 0.0
C540 C 0.15689 0.30366 0.15004 0.0
N541 N 0.16177 0.29916 0.17275 0.0
O542 O 0.16859 0.30403 0.10106 0.0
H543 H 0.18836 0.34837 0.16222 0.0
H544 H 0.14596 0.29245 0.13918 0.0
O545 O 0.1275 0.3275 0.11359 0.0
C546 C 0.18824 0.30069 0.09085 0.0
O547 O 0.20072 0.31897 0.08419 0.0
N548 N 0.15598 0.36658 0.1211 0.0
C549 C 0.15095 0.41301 0.13563 0.0
C550 C 0.13259 0.4017 0.12379 0.0
C551 C 0.13562 0.37852 0.11625 0.0
C552 C 0.17485 0.37842 0.12999 0.0
C553 C 0.1725 0.40145 0.13824 0.0
H554 H 0.12161 0.3703 0.10638 0.0
H555 H 0.1919 0.37001 0.13049 0.0
H556 H 0.13213 0.32153 0.06532 0.0
H557 H 0.17236 0.37558 0.03437 0.0
H558 H 0.18231 0.31931 0.19759 0.0
H559 H 0.11603 0.41062 0.12064 0.0
H560 H 0.18739 0.41022 0.1463 0.0
C561 C 0.18095 0.64366 0.92426 0.0
C562 C 0.17905 0.64349 0.94832 0.0
N563 N 0.15921 0.65495 0.95432 0.0
N564 N 0.16202 0.65443 0.91478 0.0
C565 C 0.14962 0.66201 0.93373 0.0
H566 H 0.19605 0.63756 0.91444 0.0
Co567 Co 0.15947 0.66193 0.8826 0.0
C568 C 0.10858 0.66448 0.89524 0.0
O569 O 0.11002 0.64441 0.90669 0.0
N570 N 0.15799 0.67036 0.85109 0.0
C571 C 0.16054 0.6719 0.81207 0.0
C572 C 0.16664 0.65926 0.83193 0.0
C573 C 0.14739 0.68984 0.84265 0.0
N574 N 0.14862 0.69112 0.8191 0.0
O575 O 0.17212 0.6922 0.88933 0.0
H576 H 0.17612 0.64275 0.83236 0.0
H577 H 0.13862 0.70277 0.85353 0.0
O578 O 0.1272 0.67367 0.88651 0.0
C579 C 0.19434 0.69271 0.88651 0.0
O580 O 0.20525 0.67296 0.8814 0.0
N581 N 0.14822 0.63128 0.87478 0.0
C582 C 0.13515 0.58609 0.8599 0.0
C583 C 0.12156 0.60578 0.85387 0.0
C584 C 0.12864 0.6282 0.86106 0.0
C585 C 0.16214 0.61238 0.87985 0.0
C586 C 0.15574 0.58965 0.873 0.0
H587 H 0.11863 0.64316 0.85493 0.0
H588 H 0.1789 0.61475 0.88824 0.0
H589 H 0.13438 0.67329 0.93265 0.0
H590 H 0.19194 0.63648 0.96047 0.0
H591 H 0.16393 0.66707 0.79395 0.0
H592 H 0.10573 0.60398 0.84341 0.0
H593 H 0.16739 0.57512 0.8771 0.0
C594 C 0.36403 0.18719 0.91134 0.0
C595 C 0.36389 0.18387 0.9353 0.0
N596 N 0.34845 0.16657 0.94036 0.0
N597 N 0.34882 0.17201 0.90137 0.0
C598 C 0.33954 0.15966 0.91944 0.0
H599 H 0.37439 0.19995 0.90173 0.0
Co600 Co 0.34228 0.17104 0.86961 0.0
C601 C 0.3325 0.12196 0.85754 0.0
O602 O 0.34591 0.12542 0.83899 0.0
N603 N 0.3346 0.1708 0.83712 0.0
C604 C 0.33195 0.17083 0.798 0.0
C605 C 0.34625 0.17573 0.81696 0.0
C606 C 0.31303 0.16388 0.82974 0.0
N607 N 0.31104 0.16311 0.80611 0.0
O608 O 0.31199 0.18418 0.87557 0.0
H609 H 0.3641 0.18193 0.81558 0.0
H610 H 0.29925 0.15868 0.84176 0.0
O611 O 0.3295 0.13863 0.87247 0.0
C612 C 0.31106 0.20647 0.87338 0.0
O613 O 0.33078 0.21803 0.86983 0.0
N614 N 0.37312 0.15958 0.86434 0.0
C615 C 0.41962 0.14531 0.85678 0.0
C616 C 0.40414 0.13146 0.87016 0.0
C617 C 0.38116 0.13911 0.87412 0.0
C618 C 0.3886 0.17447 0.85367 0.0
C619 C 0.41174 0.16743 0.84903 0.0
H620 H 0.36995 0.12862 0.88533 0.0
H621 H 0.38296 0.19194 0.84867 0.0
H622 H 0.32608 0.14634 0.9174 0.0
H623 H 0.37443 0.19341 0.94799 0.0
H624 H 0.33704 0.17214 0.7797 0.0
H625 H 0.40979 0.11496 0.87786 0.0
H626 H 0.42317 0.17916 0.83929 0.0
C627 C 0.81937 0.35325 0.92754 0.0
C628 C 0.81968 0.35131 0.95166 0.0
N629 N 0.83736 0.33677 0.9577 0.0
N630 N 0.83726 0.34063 0.91826 0.0
C631 C 0.84722 0.33003 0.93716 0.0
H632 H 0.8061 0.36244 0.91753 0.0
Co633 Co 0.84261 0.33538 0.88595 0.0
C634 C 0.89188 0.32752 0.90354 0.0
O635 O 0.89104 0.34615 0.91727 0.0
N636 N 0.84732 0.32924 0.8541 0.0
C637 C 0.84844 0.32965 0.81502 0.0
C638 C 0.8427 0.34241 0.83491 0.0
C639 C 0.85552 0.30866 0.84555 0.0
N640 N 0.85639 0.30834 0.82186 0.0
O641 O 0.8277 0.30534 0.88916 0.0
H642 H 0.83537 0.35998 0.83534 0.0
H643 H 0.86056 0.29402 0.85663 0.0
O644 O 0.87358 0.32145 0.89191 0.0
C645 C 0.80708 0.30535 0.88034 0.0
O646 O 0.79879 0.3251 0.87157 0.0
N647 N 0.85571 0.36591 0.88181 0.0
C648 C 0.87055 0.41222 0.87303 0.0
C649 C 0.88574 0.39307 0.86929 0.0
C650 C 0.87774 0.37009 0.87302 0.0
C651 C 0.84036 0.38419 0.8842 0.0
C652 C 0.84743 0.40741 0.88028 0.0
H653 H 0.88912 0.35574 0.86802 0.0
H654 H 0.82211 0.38082 0.88797 0.0
H655 H 0.86069 0.31667 0.936 0.0
H656 H 0.80769 0.35987 0.96375 0.0
H657 H 0.84631 0.33536 0.79697 0.0
H658 H 0.90359 0.39564 0.86317 0.0
H659 H 0.83453 0.42133 0.88203 0.0
C660 C 0.64617 0.80607 0.92085 0.0
C661 C 0.64533 0.80453 0.94494 0.0
N662 N 0.65499 0.82419 0.95398 0.0
N663 N 0.65553 0.82694 0.91446 0.0
C664 C 0.66173 0.83706 0.93516 0.0
H665 H 0.64124 0.79221 0.90878 0.0
Co666 Co 0.66284 0.83455 0.88306 0.0
C667 C 0.66345 0.88294 0.90293 0.0
O668 O 0.64312 0.87884 0.91323 0.0
N669 N 0.67091 0.84091 0.8521 0.0
C670 C 0.67288 0.8403 0.81313 0.0
C671 C 0.65997 0.8334 0.83245 0.0
C672 C 0.69041 0.85208 0.84444 0.0
N673 N 0.6921 0.85197 0.82074 0.0
O674 O 0.69334 0.82138 0.88807 0.0
H675 H 0.644 0.82303 0.83226 0.0
H676 H 0.70336 0.85971 0.85614 0.0
O677 O 0.67387 0.86635 0.89176 0.0
C678 C 0.69356 0.80019 0.88068 0.0
O679 O 0.67426 0.7917 0.87114 0.0
N680 N 0.63187 0.84584 0.87705 0.0
C681 C 0.58555 0.85947 0.86694 0.0
C682 C 0.60452 0.87462 0.86225 0.0
C683 C 0.62753 0.86718 0.86673 0.0
C684 C 0.61377 0.83039 0.88021 0.0
C685 C 0.59056 0.8369 0.87559 0.0
H686 H 0.64188 0.87865 0.86181 0.0
H687 H 0.61719 0.81256 0.8855 0.0
H688 H 0.67169 0.85314 0.93659 0.0
H689 H 0.63888 0.78966 0.95494 0.0
H690 H 0.66889 0.83615 0.79496 0.0
H691 H 0.60175 0.89209 0.85516 0.0
H692 H 0.57676 0.82401 0.87817 0.0
C693 C 0.83331 0.63834 0.07125 0.0
C694 C 0.84249 0.63736 0.04888 0.0
N695 N 0.85691 0.65591 0.04607 0.0
N696 N 0.84235 0.65716 0.08258 0.0
C697 C 0.85648 0.66776 0.06663 0.0
H698 H 0.821 0.62598 0.07885 0.0
Co699 Co 0.83607 0.66544 0.11354 0.0
C700 C 0.88176 0.67497 0.13581 0.0
O701 O 0.8736 0.66443 0.15473 0.0
N702 N 0.82898 0.67475 0.14484 0.0
C703 C 0.81884 0.67855 0.18258 0.0
C704 C 0.81859 0.66382 0.16329 0.0
C705 C 0.83443 0.69639 0.15328 0.0
N706 N 0.8289 0.69901 0.17618 0.0
O707 O 0.82635 0.69585 0.1036 0.0
H708 H 0.81154 0.64623 0.16329 0.0
H709 H 0.84367 0.70959 0.14309 0.0
O710 O 0.86874 0.67662 0.11746 0.0
C711 C 0.80412 0.69713 0.10132 0.0
O712 O 0.79193 0.67747 0.10196 0.0
N713 N 0.84425 0.6345 0.12287 0.0
C714 C 0.85237 0.58787 0.13574 0.0
C715 C 0.87091 0.60209 0.12798 0.0
C716 C 0.86633 0.62512 0.12079 0.0
C717 C 0.82577 0.62023 0.12849 0.0
C718 C 0.82944 0.59687 0.13528 0.0
H719 H 0.88058 0.63513 0.11322 0.0
H720 H 0.80802 0.62707 0.12766 0.0
H721 H 0.86654 0.68357 0.07011 0.0
H722 H 0.83883 0.62415 0.03563 0.0
H723 H 0.81241 0.6744 0.20003 0.0
H724 H 0.8887 0.59528 0.12704 0.0
H725 H 0.81459 0.58608 0.14045 0.0
C726 C 0.3534 0.81002 0.08231 0.0
C727 C 0.35133 0.81178 0.05823 0.0
N728 N 0.34129 0.83265 0.05325 0.0
N729 N 0.34446 0.8296 0.09231 0.0
C730 C 0.33727 0.84314 0.07414 0.0
H731 H 0.35999 0.79502 0.092 0.0
Co732 Co 0.33945 0.83317 0.12424 0.0
C733 C 0.33996 0.88359 0.13359 0.0
O734 O 0.35299 0.87839 0.15199 0.0
N735 N 0.33313 0.83633 0.15704 0.0
C736 C 0.33022 0.83524 0.1962 0.0
C737 C 0.34376 0.82899 0.17707 0.0
C738 C 0.313 0.84656 0.16468 0.0
N739 N 0.31082 0.84623 0.18827 0.0
O740 O 0.30738 0.82442 0.11988 0.0
H741 H 0.35996 0.81924 0.17825 0.0
H742 H 0.30015 0.85436 0.15299 0.0
O743 O 0.33243 0.86711 0.12013 0.0
C744 C 0.30659 0.80273 0.12551 0.0
O745 O 0.32639 0.79205 0.13096 0.0
N746 N 0.37176 0.83906 0.12801 0.0
C747 C 0.41935 0.8445 0.13706 0.0
C748 C 0.40769 0.86052 0.12244 0.0
C749 C 0.38382 0.85715 0.11764 0.0
C750 C 0.38377 0.82166 0.1393 0.0
C751 C 0.40747 0.82444 0.14487 0.0
H752 H 0.375 0.86931 0.10599 0.0
H753 H 0.37472 0.80574 0.14447 0.0
H754 H 0.32799 0.85966 0.07611 0.0
H755 H 0.35616 0.79853 0.0454 0.0
H756 H 0.33402 0.83134 0.21446 0.0
H757 H 0.41676 0.87573 0.11536 0.0
H758 H 0.41638 0.81119 0.1553 0.0
C759 C 0.63993 0.19041 0.07648 0.0
C760 C 0.63949 0.18611 0.05266 0.0
N761 N 0.65345 0.16742 0.04811 0.0
N762 N 0.65396 0.17442 0.0869 0.0
C763 C 0.66208 0.16077 0.06923 0.0
H764 H 0.63085 0.20444 0.08563 0.0
Co765 Co 0.6617 0.17311 0.11856 0.0
C766 C 0.65538 0.12307 0.12951 0.0
O767 O 0.64284 0.12984 0.14776 0.0
N768 N 0.67118 0.17241 0.15042 0.0
C769 C 0.68656 0.18463 0.18453 0.0
C770 C 0.6726 0.19074 0.16559 0.0
C771 C 0.68552 0.15601 0.16005 0.0
N772 N 0.69447 0.16263 0.18093 0.0
O773 O 0.69386 0.17807 0.1111 0.0
H774 H 0.66586 0.2082 0.16221 0.0
H775 H 0.69145 0.14038 0.151 0.0
O776 O 0.6651 0.1385 0.11622 0.0
C777 C 0.6972 0.20015 0.10913 0.0
O778 O 0.67863 0.21393 0.10808 0.0
N779 N 0.62917 0.17019 0.12608 0.0
C780 C 0.58158 0.16694 0.13799 0.0
C781 C 0.59107 0.15259 0.12031 0.0
C782 C 0.61483 0.15471 0.1144 0.0
C783 C 0.61964 0.18556 0.14189 0.0
C784 C 0.59605 0.18391 0.14848 0.0
H785 H 0.62185 0.14348 0.10072 0.0
H786 H 0.63009 0.19947 0.14928 0.0
H787 H 0.67412 0.14626 0.07187 0.0
H788 H 0.63006 0.19637 0.03968 0.0
H789 H 0.69136 0.19583 0.19918 0.0
H790 H 0.58038 0.1395 0.11149 0.0
H791 H 0.58911 0.19602 0.16149 0.0
H792 H 0.12426 0.13719 0.54549 0.0
H793 H 0.19676 0.11296 0.54337 0.0
H794 H 0.19669 0.11653 0.50017 0.0
H795 H 0.10537 0.10613 0.49302 0.0
H796 H 0.086 0.12942 0.48358 0.0
H797 H 0.09176 0.12517 0.51447 0.0
H798 H 0.10551 0.16854 0.51793 0.0
H799 H 0.09988 0.17291 0.48703 0.0
H800 H 0.12863 0.17912 0.49893 0.0
H801 H 0.18935 0.12379 0.45749 0.0
H802 H 0.17428 0.13267 0.41753 0.0
H803 H 0.10611 0.15011 0.44693 0.0
C804 C 0.14005 0.1324 0.53594 0.0
C805 C 0.1606 0.12505 0.54789 0.0
C806 C 0.18096 0.11915 0.5347 0.0
C807 C 0.18106 0.12095 0.51013 0.0
C808 C 0.1606 0.12846 0.49896 0.0
C809 C 0.14041 0.13393 0.51137 0.0
C810 C 0.12077 0.1415 0.495 0.0
C811 C 0.09973 0.12454 0.49662 0.0
C812 C 0.11326 0.16703 0.50003 0.0
C813 C 0.13313 0.13946 0.47147 0.0
C814 C 0.15615 0.13204 0.47419 0.0
C815 C 0.17133 0.12946 0.4551 0.0
C816 C 0.16271 0.13455 0.43257 0.0
C817 C 0.13917 0.14189 0.42947 0.0
C818 C 0.12416 0.14434 0.44907 0.0
H819 H 0.86483 0.13431 0.44679 0.0
H820 H 0.79014 0.11765 0.44845 0.0
H821 H 0.78952 0.12514 0.49107 0.0
H822 H 0.87836 0.10498 0.50198 0.0
H823 H 0.90031 0.12634 0.51027 0.0
H824 H 0.89477 0.1204 0.47961 0.0
H825 H 0.88676 0.16475 0.47249 0.0
H826 H 0.89213 0.17081 0.50314 0.0
H827 H 0.8647 0.1796 0.48983 0.0
H828 H 0.79652 0.13608 0.53335 0.0
H829 H 0.81168 0.1462 0.57297 0.0
H830 H 0.88224 0.15199 0.54453 0.0
C831 C 0.84835 0.13188 0.45604 0.0
C832 C 0.82746 0.12571 0.44391 0.0
C833 C 0.8063 0.12304 0.45696 0.0
C834 C 0.80577 0.12705 0.48131 0.0
C835 C 0.8266 0.13333 0.49255 0.0
C836 C 0.84757 0.13537 0.48042 0.0
C837 C 0.86762 0.14172 0.49683 0.0
C838 C 0.88637 0.12219 0.49719 0.0
C839 C 0.87843 0.16564 0.49017 0.0
C840 C 0.85458 0.1431 0.52005 0.0
C841 C 0.83088 0.13844 0.51714 0.0
C842 C 0.81507 0.13953 0.53589 0.0
C843 C 0.82378 0.14537 0.55825 0.0
C844 C 0.84805 0.14968 0.56166 0.0
C845 C 0.86362 0.1485 0.54233 0.0
H846 H 0.86894 0.83332 0.45081 0.0
H847 H 0.88228 0.90602 0.43094 0.0
H848 H 0.87789 0.91803 0.47235 0.0
H849 H 0.82357 0.84678 0.49333 0.0
H850 H 0.83216 0.82357 0.5132 0.0
H851 H 0.83721 0.82043 0.48204 0.0
H852 H 0.88152 0.81301 0.48986 0.0
H853 H 0.87663 0.81615 0.52104 0.0
H854 H 0.89819 0.83431 0.50647 0.0
H855 H 0.87264 0.92222 0.51587 0.0
H856 H 0.86535 0.91844 0.55859 0.0
H857 H 0.85278 0.84361 0.54996 0.0
C858 C 0.87071 0.85182 0.45502 0.0
C859 C 0.87618 0.86865 0.43745 0.0
C860 C 0.87865 0.89263 0.44401 0.0
C861 C 0.87598 0.8997 0.4675 0.0
C862 C 0.87059 0.88266 0.48427 0.0
C863 C 0.86781 0.85925 0.47834 0.0
C864 C 0.86158 0.84454 0.49973 0.0
C865 C 0.83718 0.83317 0.4969 0.0
C866 C 0.88062 0.8259 0.50456 0.0
C867 C 0.86138 0.86336 0.51863 0.0
C868 C 0.86678 0.88519 0.50932 0.0
C869 C 0.8683 0.90524 0.52335 0.0
C870 C 0.86423 0.90292 0.54756 0.0
C871 C 0.85852 0.88075 0.55746 0.0
C872 C 0.85693 0.86077 0.54275 0.0
H873 H 0.15992 0.86173 0.55957 0.0
H874 H 0.11065 0.8034 0.56047 0.0
H875 H 0.1103 0.80295 0.51698 0.0
H876 H 0.13573 0.89181 0.51008 0.0
H877 H 0.16377 0.90062 0.49814 0.0
H878 H 0.16057 0.8961 0.52936 0.0
H879 H 0.19489 0.86605 0.52866 0.0
H880 H 0.19823 0.87052 0.49743 0.0
H881 H 0.19356 0.84128 0.50885 0.0
H882 H 0.11326 0.81042 0.47374 0.0
H883 H 0.12169 0.82355 0.43305 0.0
H884 H 0.17066 0.87557 0.45988 0.0
C885 C 0.14917 0.84884 0.55054 0.0
C886 C 0.13536 0.83254 0.56327 0.0
C887 C 0.12155 0.81584 0.55097 0.0
C888 C 0.12115 0.81552 0.52632 0.0
C889 C 0.13488 0.83186 0.51425 0.0
C890 C 0.14884 0.84804 0.5259 0.0
C891 C 0.16202 0.86356 0.50865 0.0
C892 C 0.1551 0.88956 0.51175 0.0
C893 C 0.18876 0.86014 0.51104 0.0
C894 C 0.15302 0.85377 0.48553 0.0
C895 C 0.13726 0.8356 0.48919 0.0
C896 C 0.12577 0.82445 0.47061 0.0
C897 C 0.13058 0.83204 0.44764 0.0
C898 C 0.14691 0.85037 0.44349 0.0
C899 C 0.15835 0.86128 0.46267 0.0
H900 H 0.44318 0.14853 0.1221 0.0
H901 H 0.43836 0.14472 0.19837 0.0
H902 H 0.48091 0.15224 0.20135 0.0
H903 H 0.49808 0.11768 0.11776 0.0
H904 H 0.5088 0.13519 0.09356 0.0
H905 H 0.47763 0.13085 0.09737 0.0
H906 H 0.47131 0.17604 0.098 0.0
H907 H 0.50247 0.18053 0.09421 0.0
H908 H 0.48743 0.19377 0.11882 0.0
H909 H 0.52403 0.1597 0.19621 0.0
H910 H 0.56513 0.16517 0.18307 0.0
H911 H 0.54227 0.16222 0.11023 0.0
C912 C 0.45102 0.14915 0.13945 0.0
C913 C 0.43723 0.14627 0.15999 0.0
C914 C 0.44831 0.14744 0.18235 0.0
C915 C 0.47256 0.15152 0.18425 0.0
C916 C 0.48556 0.15422 0.16366 0.0
C917 C 0.47524 0.15296 0.14169 0.0
C918 C 0.49335 0.15575 0.12231 0.0
C919 C 0.49453 0.13354 0.10685 0.0
C920 C 0.48834 0.17784 0.10747 0.0
C921 C 0.51548 0.15866 0.13685 0.0
C922 C 0.51056 0.15791 0.16067 0.0
C923 C 0.52811 0.16034 0.17761 0.0
C924 C 0.55135 0.16354 0.16999 0.0
C925 C 0.55683 0.16411 0.14567 0.0
C926 C 0.5386 0.16164 0.12894 0.0
H927 H 0.83431 0.5465 0.11878 0.0
H928 H 0.88129 0.57523 0.17158 0.0
H929 H 0.88962 0.53499 0.18614 0.0
H930 H 0.81059 0.49865 0.15353 0.0
H931 H 0.81014 0.47812 0.12933 0.0
H932 H 0.80703 0.50921 0.12381 0.0
H933 H 0.84244 0.50774 0.09508 0.0
H934 H 0.84566 0.47667 0.10051 0.0
H935 H 0.87023 0.4962 0.10518 0.0
H936 H 0.89222 0.49194 0.19531 0.0
H937 H 0.89146 0.44841 0.19659 0.0
H938 H 0.84483 0.44734 0.13618 0.0
C939 C 0.84619 0.54421 0.13351 0.0
C940 C 0.85707 0.56378 0.14427 0.0
C941 C 0.87284 0.56031 0.16322 0.0
C942 C 0.87759 0.5376 0.17161 0.0
C943 C 0.86664 0.5186 0.16061 0.0
C944 C 0.85147 0.52161 0.14181 0.0
C945 C 0.84294 0.49813 0.13245 0.0
C946 C 0.81608 0.4959 0.13494 0.0
C947 C 0.8508 0.49448 0.10679 0.0
C948 C 0.85562 0.48147 0.14896 0.0
C949 C 0.86897 0.49367 0.16524 0.0
C950 C 0.88191 0.48218 0.18261 0.0
C951 C 0.88131 0.45752 0.18327 0.0
C952 C 0.86812 0.44468 0.16648 0.0
C953 C 0.85516 0.45682 0.14911 0.0
H954 H 0.55865 0.85505 0.12683 0.0
H955 H 0.5586 0.87837 0.19977 0.0
H956 H 0.5157 0.8731 0.20132 0.0
H957 H 0.50582 0.88614 0.11098 0.0
H958 H 0.49583 0.8636 0.091 0.0
H959 H 0.52686 0.86773 0.09596 0.0
H960 H 0.53086 0.82388 0.10793 0.0
H961 H 0.49984 0.81961 0.10305 0.0
H962 H 0.51259 0.81233 0.13117 0.0
H963 H 0.47293 0.86501 0.19528 0.0
H964 H 0.43255 0.8568 0.18101 0.0
H965 H 0.45989 0.84238 0.11126 0.0
C966 C 0.54971 0.85927 0.14312 0.0
C967 C 0.56226 0.86686 0.16326 0.0
C968 C 0.54966 0.87189 0.18425 0.0
C969 C 0.52519 0.86916 0.18528 0.0
C970 C 0.51348 0.86173 0.1651 0.0
C971 C 0.52525 0.85708 0.14435 0.0
C972 C 0.50834 0.85021 0.12492 0.0
C973 C 0.50927 0.86798 0.10451 0.0
C974 C 0.5132 0.825 0.11627 0.0
C975 C 0.48522 0.85168 0.13804 0.0
C976 C 0.48863 0.85813 0.16128 0.0
C977 C 0.47 0.8601 0.1771 0.0
C978 C 0.44724 0.85541 0.16891 0.0
C979 C 0.44342 0.84917 0.14514 0.0
C980 C 0.46256 0.84733 0.12949 0.0
H981 H 0.14692 0.45412 0.11119 0.0
H982 H 0.14733 0.42493 0.18164 0.0
H983 H 0.14003 0.46465 0.19824 0.0
H984 H 0.17763 0.50794 0.12642 0.0
H985 H 0.1611 0.52579 0.10606 0.0
H986 H 0.16585 0.49505 0.09992 0.0
H987 H 0.1208 0.48888 0.09612 0.0
H988 H 0.11591 0.51958 0.10242 0.0
H989 H 0.10182 0.49733 0.12013 0.0
H990 H 0.13092 0.50702 0.20673 0.0
H991 H 0.12408 0.54979 0.20723 0.0
H992 H 0.13318 0.5519 0.13124 0.0
C993 C 0.14549 0.45625 0.13009 0.0
C994 C 0.14754 0.43676 0.14528 0.0
C995 C 0.14579 0.43988 0.1699 0.0
C996 C 0.14159 0.46227 0.1794 0.0
C997 C 0.13951 0.48123 0.16397 0.0
C998 C 0.14171 0.47852 0.13987 0.0
C999 C 0.1395 0.50189 0.12726 0.0
C1000 C 0.16238 0.50803 0.11415 0.0
C1001 C 0.11824 0.50191 0.1105 0.0
C1002 C 0.13551 0.51813 0.14802 0.0
C1003 C 0.13536 0.50583 0.16898 0.0
C1004 C 0.13136 0.51692 0.19046 0.0
C1005 C 0.12767 0.54132 0.19055 0.0
C1006 C 0.12838 0.55448 0.16931 0.0
C1007 C 0.13228 0.54251 0.1478 0.0
H1008 H 0.44567 0.85649 0.88203 0.0
H1009 H 0.44149 0.90292 0.8214 0.0
H1010 H 0.48474 0.90409 0.81929 0.0
H1011 H 0.49704 0.88518 0.90849 0.0
H1012 H 0.50928 0.85783 0.91893 0.0
H1013 H 0.47786 0.86104 0.91605 0.0
H1014 H 0.47658 0.82414 0.88923 0.0
H1015 H 0.50798 0.8209 0.89191 0.0
H1016 H 0.4947 0.82317 0.86318 0.0
H1017 H 0.52827 0.89845 0.82218 0.0
H1018 H 0.56928 0.88751 0.83085 0.0
H1019 H 0.54546 0.8473 0.89146 0.0
C1020 C 0.45381 0.86719 0.86853 0.0
C1021 C 0.44008 0.87937 0.85171 0.0
C1022 C 0.45155 0.89296 0.83416 0.0
C1023 C 0.47614 0.89393 0.83292 0.0
C1024 C 0.48911 0.88146 0.84952 0.0
C1025 C 0.47839 0.86853 0.86713 0.0
C1026 C 0.4965 0.85653 0.88259 0.0
C1027 C 0.49508 0.8657 0.90802 0.0
C1028 C 0.49377 0.82959 0.88166 0.0
C1029 C 0.519 0.86444 0.87065 0.0
C1030 C 0.51433 0.87881 0.85163 0.0
C1031 C 0.5322 0.88751 0.83727 0.0
C1032 C 0.55551 0.88131 0.84247 0.0
C1033 C 0.56081 0.86665 0.86198 0.0
C1034 C 0.54216 0.85834 0.87629 0.0
H1035 H 0.12679 0.44587 0.86619 0.0
H1036 H 0.10256 0.44709 0.79374 0.0
H1037 H 0.10381 0.49056 0.79409 0.0
H1038 H 0.09437 0.49767 0.8858 0.0
H1039 H 0.11778 0.50762 0.90476 0.0
H1040 H 0.1141 0.47663 0.89905 0.0
H1041 H 0.15727 0.47412 0.88453 0.0
H1042 H 0.16107 0.50509 0.89012 0.0
H1043 H 0.16702 0.49335 0.86123 0.0
H1044 H 0.10886 0.53377 0.80194 0.0
H1045 H 0.118 0.57368 0.81648 0.0
H1046 H 0.13823 0.5443 0.88409 0.0
C1047 C 0.12144 0.4553 0.85051 0.0
C1048 C 0.11461 0.44311 0.82993 0.0
C1049 C 0.10812 0.45607 0.80962 0.0
C1050 C 0.10862 0.48075 0.8097 0.0
C1051 C 0.11562 0.4922 0.83022 0.0
C1052 C 0.1219 0.47992 0.85026 0.0
C1053 C 0.12948 0.49645 0.86976 0.0
C1054 C 0.11294 0.49447 0.8911 0.0
C1055 C 0.15524 0.49198 0.87681 0.0
C1056 C 0.12669 0.51994 0.85747 0.0
C1057 C 0.11854 0.51711 0.83474 0.0
C1058 C 0.11505 0.53623 0.81979 0.0
C1059 C 0.12016 0.55885 0.82827 0.0
C1060 C 0.12872 0.56217 0.85148 0.0
C1061 C 0.13185 0.54237 0.86623 0.0
H1062 H 0.46093 0.17101 0.85411 0.0
H1063 H 0.43323 0.10005 0.8469 0.0
H1064 H 0.47325 0.08523 0.83944 0.0
H1065 H 0.50477 0.16555 0.80726 0.0
H1066 H 0.52621 0.1832 0.82262 0.0
H1067 H 0.49524 0.1884 0.82713 0.0
H1068 H 0.50078 0.18282 0.87207 0.0
H1069 H 0.53172 0.17757 0.8677 0.0
H1070 H 0.514 0.15609 0.88293 0.0
H1071 H 0.51639 0.07762 0.83515 0.0
H1072 H 0.55992 0.07822 0.83252 0.0
H1073 H 0.55943 0.15418 0.83959 0.0
C1074 C 0.46315 0.15241 0.85059 0.0
C1075 C 0.4438 0.13671 0.85133 0.0
C1076 C 0.44772 0.11242 0.84697 0.0
C1077 C 0.4704 0.10383 0.84249 0.0
C1078 C 0.48902 0.11974 0.84211 0.0
C1079 C 0.48565 0.14354 0.84582 0.0
C1080 C 0.50876 0.15683 0.84467 0.0
C1081 C 0.50874 0.17454 0.8242 0.0
C1082 C 0.51412 0.16904 0.86825 0.0
C1083 C 0.52566 0.13671 0.84005 0.0
C1084 C 0.51388 0.11545 0.8387 0.0
C1085 C 0.52579 0.09418 0.83583 0.0
C1086 C 0.55041 0.09466 0.83438 0.0
C1087 C 0.56274 0.11625 0.83556 0.0
C1088 C 0.55023 0.13753 0.83822 0.0
H1089 H 0.86561 0.55267 0.88302 0.0
H1090 H 0.91517 0.55521 0.82485 0.0
H1091 H 0.91765 0.51191 0.82507 0.0
H1092 H 0.89367 0.50259 0.9135 0.0
H1093 H 0.86587 0.49043 0.92276 0.0
H1094 H 0.86897 0.52177 0.9189 0.0
H1095 H 0.83372 0.52164 0.88996 0.0
H1096 H 0.83063 0.49031 0.89357 0.0
H1097 H 0.83449 0.50259 0.86457 0.0
H1098 H 0.91234 0.46842 0.82934 0.0
H1099 H 0.90089 0.42767 0.83844 0.0
H1100 H 0.85696 0.45306 0.89576 0.0
C1101 C 0.87736 0.54417 0.87064 0.0
C1102 C 0.89004 0.55742 0.85378 0.0
C1103 C 0.90493 0.54549 0.83766 0.0
C1104 C 0.90661 0.52088 0.83775 0.0
C1105 C 0.89352 0.50837 0.85425 0.0
C1106 C 0.87937 0.51957 0.87057 0.0
C1107 C 0.86663 0.50186 0.88596 0.0
C1108 C 0.87425 0.50431 0.91181 0.0
C1109 C 0.83978 0.50425 0.88335 0.0
C1110 C 0.87545 0.479 0.87536 0.0
C1111 C 0.89098 0.48317 0.85714 0.0
C1112 C 0.90054 0.46489 0.84388 0.0
C1113 C 0.89402 0.44172 0.84934 0.0
C1114 C 0.87816 0.43689 0.86804 0.0
C1115 C 0.86899 0.45596 0.88128 0.0
H1116 H 0.13684 0.98471 0.3752 0.0
H1117 H 0.13449 0.95837 0.30361 0.0
H1118 H 0.12024 0.99713 0.28991 0.0
H1119 H 0.08603 0.02637 0.37086 0.0
H1120 H 0.10088 0.04781 0.38894 0.0
H1121 H 0.10607 0.01683 0.39354 0.0
H1122 H 0.15094 0.02346 0.38824 0.0
H1123 H 0.14587 0.05432 0.38377 0.0
H1124 H 0.16152 0.03755 0.36183 0.0
H1125 H 0.11229 0.04082 0.28338 0.0
H1126 H 0.11321 0.08459 0.28493 0.0
H1127 H 0.12197 0.08152 0.36053 0.0
C1128 C 0.13294 0.98691 0.3567 0.0
C1129 C 0.13682 0.96847 0.34052 0.0
C1130 C 0.13137 0.9721 0.31643 0.0
C1131 C 0.12327 0.9941 0.30848 0.0
C1132 C 0.12042 0.01219 0.32487 0.0
C1133 C 0.12498 0.00867 0.34854 0.0
C1134 C 0.12336 0.03136 0.36231 0.0
C1135 C 0.10286 0.03053 0.37995 0.0
C1136 C 0.14681 0.037 0.37474 0.0
C1137 C 0.11835 0.04845 0.34258 0.0
C1138 C 0.1161 0.03714 0.32113 0.0
C1139 C 0.11348 0.04979 0.30015 0.0
C1140 C 0.11391 0.07457 0.30114 0.0
C1141 C 0.11731 0.08614 0.32288 0.0
C1142 C 0.11887 0.07293 0.34378 0.0
H1143 H 0.90337 0.16754 0.34147 0.0
H1144 H 0.8996 0.09367 0.32239 0.0
H1145 H 0.94299 0.09298 0.31729 0.0
H1146 H 0.95109 0.18359 0.30128 0.0
H1147 H 0.96372 0.20386 0.32217 0.0
H1148 H 0.93245 0.19862 0.32211 0.0
H1149 H 0.93431 0.18721 0.36628 0.0
H1150 H 0.96556 0.19224 0.36646 0.0
H1151 H 0.95401 0.16412 0.37557 0.0
H1152 H 0.98756 0.10021 0.31762 0.0
H1153 H 0.02838 0.1146 0.32286 0.0
H1154 H 0.00147 0.1837 0.34106 0.0
C1155 C 0.91157 0.15123 0.33597 0.0
C1156 C 0.89817 0.13063 0.33239 0.0
C1157 C 0.90958 0.10969 0.32512 0.0
C1158 C 0.93418 0.10915 0.32221 0.0
C1159 C 0.94692 0.12976 0.32638 0.0
C1160 C 0.93587 0.15044 0.3329 0.0
C1161 C 0.95332 0.16999 0.33738 0.0
C1162 C 0.94994 0.19021 0.31968 0.0
C1163 C 0.9517 0.17889 0.36294 0.0
C1164 C 0.97607 0.157 0.33301 0.0
C1165 C 0.97215 0.13388 0.32647 0.0
C1166 C 0.99077 0.11836 0.32246 0.0
C1167 C 0.01389 0.1267 0.3254 0.0
C1168 C 0.01815 0.15026 0.33246 0.0
C1169 C 0.99888 0.16554 0.33595 0.0
H1170 H 0.84842 0.91068 0.29511 0.0
H1171 H 0.92057 0.91186 0.31974 0.0
H1172 H 0.91725 0.95479 0.32721 0.0
H1173 H 0.8457 0.97057 0.26925 0.0
H1174 H 0.81627 0.97534 0.28013 0.0
H1175 H 0.82583 0.94604 0.27261 0.0
H1176 H 0.81436 0.93192 0.31409 0.0
H1177 H 0.80535 0.9611 0.32238 0.0
H1178 H 0.8272 0.94582 0.33959 0.0
H1179 H 0.90511 0.99717 0.3339 0.0
H1180 H 0.88412 0.0344 0.34315 0.0
H1181 H 0.81887 0.0038 0.31849 0.0
C1182 C 0.86378 0.9202 0.30124 0.0
C1183 C 0.88502 0.90832 0.30615 0.0
C1184 C 0.90438 0.92094 0.31536 0.0
C1185 C 0.90262 0.94524 0.31964 0.0
C1186 C 0.88121 0.95641 0.31507 0.0
C1187 C 0.86206 0.94421 0.30627 0.0
C1188 C 0.84017 0.95942 0.30581 0.0
C1189 C 0.8315 0.96306 0.28043 0.0
C1190 C 0.82064 0.94894 0.32142 0.0
C1191 C 0.84987 0.982 0.3161 0.0
C1192 C 0.8737 0.98014 0.32075 0.0
C1193 C 0.88647 0.99881 0.33032 0.0
C1194 C 0.87451 0.01982 0.33548 0.0
C1195 C 0.85 0.02168 0.33165 0.0
C1196 C 0.83761 0.00259 0.32172 0.0
H1197 H 0.99338 0.80491 0.33391 0.0
H1198 H 0.9679 0.87574 0.32102 0.0
H1199 H 0.00861 0.8891 0.31394 0.0
H1200 H 0.04248 0.82101 0.36637 0.0
H1201 H 0.06141 0.79821 0.35499 0.0
H1202 H 0.0301 0.79373 0.35587 0.0
H1203 H 0.03007 0.78498 0.31104 0.0
H1204 H 0.06146 0.78954 0.31004 0.0
H1205 H 0.0424 0.80623 0.29095 0.0
H1206 H 0.05266 0.89562 0.31272 0.0
H1207 H 0.09592 0.89452 0.31795 0.0
H1208 H 0.092 0.81937 0.33131 0.0
C1209 C 0.99632 0.82317 0.32934 0.0
C1210 C 0.97741 0.83922 0.32793 0.0
C1211 C 0.98202 0.86299 0.32183 0.0
C1212 C 0.00512 0.87078 0.31782 0.0
C1213 C 0.02339 0.85454 0.31973 0.0
C1214 C 0.0192 0.83118 0.3252 0.0
C1215 C 0.04192 0.81759 0.32787 0.0
C1216 C 0.0441 0.80703 0.35275 0.0
C1217 C 0.04408 0.79846 0.30884 0.0
C1218 C 0.05955 0.83713 0.32394 0.0
C1219 C 0.04863 0.85827 0.31895 0.0
C1220 C 0.06143 0.87908 0.31625 0.0
C1221 C 0.08598 0.8783 0.31922 0.0
C1222 C 0.09732 0.85687 0.32501 0.0
C1223 C 0.08389 0.83603 0.32679 0.0
H1224 H 0.1886 0.00502 0.65719 0.0
H1225 H 0.11751 0.03123 0.66558 0.0
H1226 H 0.10419 0.99113 0.67692 0.0
H1227 H 0.1743 0.95223 0.63045 0.0
H1228 H 0.1971 0.93535 0.64464 0.0
H1229 H 0.20101 0.96641 0.64008 0.0
H1230 H 0.20841 0.97215 0.68479 0.0
H1231 H 0.20448 0.94101 0.68949 0.0
H1232 H 0.18684 0.96185 0.70567 0.0
H1233 H 0.09838 0.94672 0.68284 0.0
H1234 H 0.10075 0.90312 0.68305 0.0
H1235 H 0.17611 0.90753 0.67147 0.0
C1236 C 0.17026 0.00237 0.66161 0.0
C1237 C 0.15401 0.02109 0.66037 0.0
C1238 C 0.13022 0.01706 0.66658 0.0
C1239 C 0.12255 0.99438 0.673 0.0
C1240 C 0.13903 0.97615 0.67352 0.0
C1241 C 0.16246 0.98007 0.66821 0.0
C1242 C 0.17657 0.95755 0.66868 0.0
C1243 C 0.18789 0.9526 0.64453 0.0
C1244 C 0.19517 0.95819 0.68833 0.0
C1245 C 0.15731 0.9401 0.67421 0.0
C1246 C 0.13578 0.95103 0.67722 0.0
C1247 C 0.11523 0.93805 0.68089 0.0
C1248 C 0.11673 0.91331 0.68101 0.0
C1249 C 0.13862 0.90193 0.67732 0.0
C1250 C 0.15912 0.91564 0.67446 0.0
H1251 H 0.0902 0.16826 0.65695 0.0
H1252 H 0.09294 0.09308 0.66996 0.0
H1253 H 0.04932 0.09243 0.67365 0.0
H1254 H 0.03982 0.18198 0.69549 0.0
H1255 H 0.0288 0.20362 0.67507 0.0
H1256 H 0.05999 0.19822 0.67714 0.0
H1257 H 0.06139 0.1898 0.63229 0.0
H1258 H 0.03025 0.19488 0.63009 0.0
H1259 H 0.04253 0.16738 0.62007 0.0
H1260 H 0.00449 0.10019 0.67167 0.0
H1261 H 0.96412 0.11528 0.66407 0.0
H1262 H 0.99266 0.1848 0.6513 0.0
C1263 C 0.08175 0.15165 0.66102 0.0
C1264 C 0.0949 0.1307 0.66315 0.0
C1265 C 0.08315 0.10938 0.66846 0.0
C1266 C 0.05841 0.10887 0.67053 0.0
C1267 C 0.04591 0.12987 0.66745 0.0
C1268 C 0.05736 0.15087 0.66302 0.0
C1269 C 0.04032 0.17076 0.65852 0.0
C1270 C 0.04235 0.18976 0.6777 0.0
C1271 C 0.04384 0.1813 0.63378 0.0
C1272 C 0.01733 0.15764 0.66032 0.0
C1273 C 0.0207 0.13416 0.66586 0.0
C1274 C 0.00174 0.11859 0.66756 0.0
C1275 C 0.97891 0.12726 0.66325 0.0
C1276 C 0.97539 0.15113 0.65693 0.0
C1277 C 0.99487 0.16643 0.65582 0.0
H1278 H 0.81473 0.99349 0.66266 0.0
H1279 H 0.88578 0.96688 0.66995 0.0
H1280 H 0.90012 0.00752 0.67733 0.0
H1281 H 0.82846 0.04279 0.63055 0.0
H1282 H 0.80669 0.06159 0.64395 0.0
H1283 H 0.80199 0.03033 0.64286 0.0
H1284 H 0.79675 0.02935 0.68828 0.0
H1285 H 0.80129 0.06073 0.68936 0.0
H1286 H 0.81942 0.04149 0.70689 0.0
H1287 H 0.90687 0.05219 0.67902 0.0
H1288 H 0.90517 0.09569 0.67477 0.0
H1289 H 0.82941 0.09152 0.66645 0.0
C1290 C 0.83326 0.99617 0.6661 0.0
C1291 C 0.84919 0.97716 0.66563 0.0
C1292 C 0.8733 0.98127 0.67044 0.0
C1293 C 0.88156 0.00426 0.67462 0.0
C1294 C 0.86537 0.02276 0.67432 0.0
C1295 C 0.84166 0.01881 0.67043 0.0
C1296 C 0.82796 0.04155 0.66919 0.0
C1297 C 0.81557 0.04421 0.64522 0.0
C1298 C 0.81032 0.04338 0.68966 0.0
C1299 C 0.84774 0.05904 0.67197 0.0
C1300 C 0.8692 0.04805 0.6753 0.0
C1301 C 0.8901 0.06094 0.6768 0.0
C1302 C 0.889 0.0856 0.67439 0.0
C1303 C 0.86718 0.09689 0.67024 0.0
C1304 C 0.84637 0.08339 0.66959 0.0
H1305 H 0.01181 0.8183 0.66909 0.0
H1306 H 0.03844 0.88958 0.67065 0.0
H1307 H 0.99829 0.90436 0.68016 0.0
H1308 H 0.96076 0.82943 0.64027 0.0
H1309 H 0.94305 0.80849 0.65624 0.0
H1310 H 0.97419 0.80395 0.65361 0.0
H1311 H 0.97779 0.80188 0.69911 0.0
H1312 H 0.94652 0.80652 0.70186 0.0
H1313 H 0.96679 0.82581 0.71683 0.0
H1314 H 0.95363 0.91112 0.68291 0.0
H1315 H 0.91013 0.90898 0.67872 0.0
H1316 H 0.91439 0.83284 0.67719 0.0
C1317 C 0.00919 0.83696 0.67194 0.0
C1318 C 0.02791 0.8529 0.66908 0.0
C1319 C 0.02413 0.8772 0.67294 0.0
C1320 C 0.00146 0.88566 0.67836 0.0
C1321 C 0.98309 0.86943 0.68042 0.0
C1322 C 0.98693 0.84551 0.67767 0.0
C1323 C 0.9643 0.83168 0.67872 0.0
C1324 C 0.96035 0.81759 0.65586 0.0
C1325 C 0.96383 0.81552 0.70043 0.0
C1326 C 0.94687 0.85156 0.68117 0.0
C1327 C 0.95785 0.87325 0.68254 0.0
C1328 C 0.94489 0.8942 0.68243 0.0
C1329 C 0.92023 0.89286 0.68014 0.0
C1330 C 0.90905 0.87074 0.67771 0.0
C1331 C 0.92252 0.84998 0.67916 0.0
H1332 H 0.34872 0.19137 0.98095 0.0
H1333 H 0.33481 0.12212 0.95207 0.0
H1334 H 0.32703 0.10701 0.9923 0.0
H1335 H 0.37989 0.17281 0.03047 0.0
H1336 H 0.36827 0.19526 0.04967 0.0
H1337 H 0.3704 0.20066 0.01855 0.0
H1338 H 0.32578 0.21034 0.01712 0.0
H1339 H 0.32351 0.2049 0.04829 0.0
H1340 H 0.30484 0.18914 0.02805 0.0
H1341 H 0.32379 0.09919 0.03688 0.0
H1342 H 0.32563 0.09973 0.08063 0.0
H1343 H 0.34183 0.17434 0.07853 0.0
C1344 C 0.34397 0.17304 0.98303 0.0
C1345 C 0.34248 0.15789 0.96343 0.0
C1346 C 0.33586 0.13408 0.96688 0.0
C1347 C 0.33146 0.12535 0.98964 0.0
C1348 C 0.3335 0.14076 0.00867 0.0
C1349 C 0.33944 0.16417 0.00547 0.0
C1350 C 0.34153 0.17705 0.0286 0.0
C1351 C 0.3665 0.18701 0.03201 0.0
C1352 C 0.3228 0.1965 0.03062 0.0
C1353 C 0.33658 0.15713 0.04546 0.0
C1354 C 0.33169 0.13633 0.03382 0.0
C1355 C 0.3274 0.11545 0.04613 0.0
C1356 C 0.32845 0.11589 0.07092 0.0
C1357 C 0.33399 0.13702 0.08292 0.0
C1358 C 0.33769 0.15784 0.06991 0.0
H1359 H 0.82352 0.33292 0.09559 0.0
H1360 H 0.89884 0.32145 0.10064 0.0
H1361 H 0.90074 0.31645 0.05726 0.0
H1362 H 0.81227 0.29217 0.04587 0.0
H1363 H 0.79047 0.31161 0.03347 0.0
H1364 H 0.79488 0.3107 0.06489 0.0
H1365 H 0.80205 0.35576 0.0651 0.0
H1366 H 0.79791 0.35683 0.03375 0.0
H1367 H 0.8247 0.36802 0.04654 0.0
H1368 H 0.89465 0.31766 0.01278 0.0
H1369 H 0.88141 0.32462 0.97192 0.0
H1370 H 0.81009 0.33526 0.99696 0.0
C1371 C 0.84041 0.32891 0.08768 0.0
C1372 C 0.86106 0.32759 0.10144 0.0
C1373 C 0.88278 0.32234 0.09041 0.0
C1374 C 0.884 0.31951 0.06581 0.0
C1375 C 0.8633 0.3217 0.05268 0.0
C1376 C 0.84189 0.32604 0.06336 0.0
C1377 C 0.82246 0.32944 0.04549 0.0
C1378 C 0.80393 0.3098 0.04755 0.0
C1379 C 0.81114 0.35396 0.04787 0.0
C1380 C 0.83638 0.32727 0.02293 0.0
C1381 C 0.85983 0.32244 0.02735 0.0
C1382 C 0.87626 0.32104 0.00916 0.0
C1383 C 0.86855 0.32495 0.98598 0.0
C1384 C 0.84468 0.33046 0.98119 0.0
C1385 C 0.82844 0.3312 -1e-05 0.0
H1386 H 0.68594 0.85524 0.97434 0.0
H1387 H 0.62803 0.80763 0.98967 0.0
H1388 H 0.63011 0.8186 0.0314 0.0
H1389 H 0.71847 0.84512 0.02811 0.0
H1390 H 0.72746 0.87539 0.03129 0.0
H1391 H 0.7221 0.8634 0.00241 0.0
H1392 H 0.69201 0.89664 0.99414 0.0
H1393 H 0.69723 0.90871 0.023 0.0
H1394 H 0.66775 0.90105 0.01413 0.0
H1395 H 0.63763 0.83451 0.07084 0.0
H1396 H 0.65037 0.8544 0.10679 0.0
H1397 H 0.70289 0.89338 0.067 0.0
C1398 C 0.67363 0.84715 0.9864 0.0
C1399 C 0.6569 0.83036 0.97856 0.0
C1400 C 0.64131 0.82012 0.99514 0.0
C1401 C 0.64222 0.82638 0.01892 0.0
C1402 C 0.65878 0.84298 0.02596 0.0
C1403 C 0.67425 0.85325 0.01031 0.0
C1404 C 0.69017 0.87081 0.02273 0.0
C1405 C 0.71609 0.86321 0.02103 0.0
C1406 C 0.68656 0.89578 0.01291 0.0
C1407 C 0.68107 0.86881 0.04778 0.0
C1408 C 0.66298 0.85259 0.04907 0.0
C1409 C 0.65166 0.84737 0.07008 0.0
C1410 C 0.65898 0.859 0.09043 0.0
C1411 C 0.6774 0.87588 0.08977 0.0
C1412 C 0.68867 0.88074 0.06808 0.0
H1413 H 0.15256 0.63058 0.0907 0.0
H1414 H 0.10907 0.69282 0.09882 0.0
H1415 H 0.1093 0.69826 0.05533 0.0
H1416 H 0.18918 0.652 0.04635 0.0
H1417 H 0.19137 0.62426 0.03107 0.0
H1418 H 0.18612 0.62472 0.0623 0.0
H1419 H 0.14846 0.59954 0.05662 0.0
H1420 H 0.15369 0.59883 0.02535 0.0
H1421 H 0.12596 0.60942 0.03656 0.0
H1422 H 0.11722 0.69768 0.01044 0.0
H1423 H 0.13078 0.69079 0.96959 0.0
H1424 H 0.16807 0.62831 0.99276 0.0
C1425 C 0.14291 0.64534 0.08344 0.0
C1426 C 0.13092 0.6614 0.0981 0.0
C1427 C 0.11833 0.68029 0.08782 0.0
C1428 C 0.11842 0.6835 0.0632 0.0
C1429 C 0.13093 0.66747 0.04929 0.0
C1430 C 0.14271 0.64864 0.05918 0.0
C1431 C 0.15537 0.63409 0.0409 0.0
C1432 C 0.18209 0.63377 0.04543 0.0
C1433 C 0.14526 0.60899 0.0398 0.0
C1434 C 0.1494 0.6479 0.01904 0.0
C1435 C 0.1352 0.66703 0.02403 0.0
C1436 C 0.12814 0.6826 0.0064 0.0
C1437 C 0.13588 0.67849 0.9832 0.0
C1438 C 0.15062 0.65902 0.97789 0.0
C1439 C 0.15715 0.64353 0.99617 0.0
H1440 H 0.35149 0.87435 0.03277 0.0
H1441 H 0.31456 0.80852 0.0226 0.0
H1442 H 0.30235 0.82136 0.98275 0.0
H1443 H 0.31143 0.91267 0.99817 0.0
H1444 H 0.33532 0.92946 0.98575 0.0
H1445 H 0.33825 0.91668 0.01465 0.0
H1446 H 0.37619 0.89507 0.00141 0.0
H1447 H 0.37345 0.90789 0.9726 0.0
H1448 H 0.37531 0.87637 0.97577 0.0
H1449 H 0.29625 0.84008 0.94369 0.0
H1450 H 0.30041 0.861 0.90608 0.0
H1451 H 0.34357 0.91404 0.94027 0.0
C1452 C 0.34044 0.86299 0.0222 0.0
C1453 C 0.33364 0.84063 0.03057 0.0
C1454 C 0.31976 0.82573 0.01628 0.0
C1455 C 0.31265 0.83296 0.9938 0.0
C1456 C 0.3198 0.85506 0.98586 0.0
C1457 C 0.33361 0.86977 0.99948 0.0
C1458 C 0.34112 0.89137 0.98571 0.0
C1459 C 0.33091 0.91388 0.99673 0.0
C1460 C 0.36811 0.89274 0.98375 0.0
C1461 C 0.32984 0.88621 0.96207 0.0
C1462 C 0.31717 0.86545 0.96277 0.0
C1463 C 0.30603 0.85641 0.94293 0.0
C1464 C 0.30854 0.86846 0.92158 0.0
C1465 C 0.32245 0.88912 0.92007 0.0
C1466 C 0.33265 0.89842 0.94081 0.0
H1467 H 0.13398 0.37116 0.90715 0.0
H1468 H 0.11318 0.29836 0.89788 0.0
H1469 H 0.11151 0.2935 0.9414 0.0
H1470 H 0.1718 0.36315 0.95325 0.0
H1471 H 0.16424 0.38995 0.96849 0.0
H1472 H 0.16067 0.38811 0.93712 0.0
H1473 H 0.11667 0.39954 0.94116 0.0
H1474 H 0.12013 0.4016 0.97264 0.0
H1475 H 0.09781 0.38269 0.96034 0.0
H1476 H 0.11789 0.29592 0.98618 0.0
H1477 H 0.12994 0.30551 0.02694 0.0
H1478 H 0.14407 0.37744 0.00554 0.0
C1479 C 0.12869 0.35427 0.91427 0.0
C1480 C 0.12387 0.33506 0.89936 0.0
C1481 C 0.11684 0.31329 0.90918 0.0
C1482 C 0.11587 0.31042 0.9338 0.0
C1483 C 0.12143 0.32968 0.9481 0.0
C1484 C 0.12729 0.35129 0.93855 0.0
C1485 C 0.1338 0.36899 0.95728 0.0
C1486 C 0.15912 0.37806 0.95382 0.0
C1487 C 0.11603 0.3894 0.95789 0.0
C1488 C 0.13175 0.35376 0.97894 0.0
C1489 C 0.12441 0.3312 0.97348 0.0
C1490 C 0.12317 0.31367 0.99066 0.0
C1491 C 0.12999 0.31931 0.01381 0.0
C1492 C 0.13805 0.34225 0.0195 0.0
C1493 C 0.13824 0.3597 0.00183 0.0
H1494 H 0.62624 0.17003 0.00898 0.0
H1495 H 0.69199 0.14156 0.03543 0.0
H1496 H 0.70074 0.12539 0.996 0.0
H1497 H 0.61257 0.12275 0.96813 0.0
H1498 H 0.60085 0.14268 0.9464 0.0
H1499 H 0.59898 0.14997 0.97721 0.0
H1500 H 0.62039 0.18954 0.96928 0.0
H1501 H 0.62223 0.1824 0.93849 0.0
H1502 H 0.64859 0.18931 0.95473 0.0
H1503 H 0.70313 0.11427 0.95221 0.0
H1504 H 0.69925 0.11094 0.90871 0.0
H1505 H 0.63257 0.14794 0.91235 0.0
C1506 C 0.64249 0.16041 0.00661 0.0
C1507 C 0.65837 0.15712 0.02541 0.0
C1508 C 0.67933 0.1441 0.02144 0.0
C1509 C 0.68451 0.13488 0.99906 0.0
C1510 C 0.66852 0.13876 0.98085 0.0
C1511 C 0.64794 0.15123 0.98449 0.0
C1512 C 0.63417 0.15419 0.96198 0.0
C1513 C 0.61023 0.14164 0.96353 0.0
C1514 C 0.63119 0.18041 0.95576 0.0
C1515 C 0.65043 0.1419 0.94494 0.0
C1516 C 0.67005 0.13278 0.95603 0.0
C1517 C 0.68775 0.12124 0.9434 0.0
C1518 C 0.68541 0.11936 0.91877 0.0
C1519 C 0.66571 0.12929 0.90723 0.0
C1520 C 0.64794 0.14029 0.92064 0.0
H1521 H 0.87531 0.71542 0.92232 0.0
H1522 H 0.91966 0.65567 0.90537 0.0
H1523 H 0.91992 0.64391 0.94713 0.0
H1524 H 0.89941 0.72658 0.98381 0.0
H1525 H 0.87049 0.73347 0.99491 0.0
H1526 H 0.87798 0.74024 0.9648 0.0
H1527 H 0.84197 0.71619 0.95053 0.0
H1528 H 0.8345 0.70914 0.98046 0.0
H1529 H 0.83904 0.68585 0.95939 0.0
H1530 H 0.90946 0.6343 0.98818 0.0
H1531 H 0.88992 0.62841 0.02671 0.0
H1532 H 0.85266 0.69423 0.01826 0.0
C1533 C 0.88594 0.70052 0.92766 0.0
C1534 C 0.89783 0.68666 0.91078 0.0
C1535 C 0.9107 0.66665 0.91814 0.0
C1536 C 0.91097 0.65987 0.94182 0.0
C1537 C 0.89829 0.6733 0.95796 0.0
C1538 C 0.88618 0.69336 0.95131 0.0
C1539 C 0.87154 0.70285 0.97155 0.0
C1540 C 0.88039 0.72723 0.97922 0.0
C1541 C 0.84522 0.70353 0.96509 0.0
C1542 C 0.87655 0.68445 0.99025 0.0
C1543 C 0.89228 0.66773 0.98208 0.0
C1544 C 0.89768 0.64761 0.99505 0.0
C1545 C 0.88653 0.64433 0.0168 0.0
C1546 C 0.87036 0.66113 0.0254 0.0
C1547 C 0.86561 0.68162 0.01221 0.0
H1548 H 0.98844 0.3365 0.18895 0.0
H1549 H 0.9579 0.33319 0.11918 0.0
H1550 H 0.99743 0.32501 0.10235 0.0
H1551 H 0.03867 0.36709 0.17381 0.0
H1552 H 0.05773 0.3519 0.19412 0.0
H1553 H 0.02683 0.35439 0.20038 0.0
H1554 H 0.02383 0.30895 0.20403 0.0
H1555 H 0.0548 0.30634 0.19771 0.0
H1556 H 0.03365 0.29064 0.18003 0.0
H1557 H 0.04173 0.3218 0.09319 0.0
H1558 H 0.08542 0.32391 0.09288 0.0
H1559 H 0.08527 0.32873 0.16908 0.0
C1560 C 0.99002 0.33382 0.17015 0.0
C1561 C 0.97022 0.33561 0.15531 0.0
C1562 C 0.97291 0.33173 0.13083 0.0
C1563 C 0.99526 0.3271 0.12116 0.0
C1564 C 0.01458 0.32602 0.13633 0.0
C1565 C 0.01201 0.32904 0.16036 0.0
C1566 C 0.0354 0.32857 0.17291 0.0
C1567 C 0.03991 0.35187 0.18606 0.0
C1568 C 0.03701 0.30736 0.18965 0.0
C1569 C 0.05174 0.32572 0.15216 0.0
C1570 C 0.03958 0.32397 0.13116 0.0
C1571 C 0.05137 0.32279 0.10959 0.0
C1572 C 0.07615 0.32394 0.10955 0.0
C1573 C 0.08868 0.32649 0.13095 0.0
C1574 C 0.07621 0.32676 0.15242 0.0
H1575 H 0.97306 0.64667 0.86571 0.0
H1576 H 0.98146 0.70006 0.81185 0.0
H1577 H 0.02185 0.708 0.82595 0.0
H1578 H 0.00715 0.67588 0.9118 0.0
H1579 H 0.0201 0.64883 0.92218 0.0
H1580 H 0.99124 0.64856 0.90899 0.0
H1581 H 0.00517 0.61747 0.87857 0.0
H1582 H 0.03392 0.61748 0.89184 0.0
H1583 H 0.0308 0.62346 0.86083 0.0
H1584 H 0.06151 0.70945 0.84529 0.0
H1585 H 0.09903 0.70123 0.8653 0.0
H1586 H 0.06528 0.64589 0.90581 0.0
C1587 C 0.98336 0.6602 0.8571 0.0
C1588 C 0.97419 0.67281 0.83775 0.0
C1589 C 0.98828 0.69008 0.82657 0.0
C1590 C 0.01111 0.69488 0.83462 0.0
C1591 C 0.01961 0.68217 0.8538 0.0
C1592 C 0.00628 0.665 0.86474 0.0
C1593 C 0.02019 0.65265 0.88383 0.0
C1594 C 0.009 0.65673 0.90814 0.0
C1595 C 0.02267 0.62621 0.87843 0.0
C1596 C 0.04355 0.66532 0.88169 0.0
C1597 C 0.04271 0.68256 0.86455 0.0
C1598 C 0.06236 0.69605 0.85881 0.0
C1599 C 0.08365 0.69123 0.87031 0.0
C1600 C 0.08525 0.6728 0.88706 0.0
C1601 C 0.06468 0.6602 0.89323 0.0
H1602 H 0.32206 0.09066 0.82361 0.0
H1603 H 0.32236 0.09938 0.89938 0.0
H1604 H 0.31429 0.05666 0.90412 0.0
H1605 H 0.2775 0.04133 0.82056 0.0
H1606 H 0.29364 0.02764 0.7969 0.0
H1607 H 0.29353 0.05925 0.79984 0.0
H1608 H 0.33915 0.05918 0.80049 0.0
H1609 H 0.33945 0.02771 0.79786 0.0
H1610 H 0.35434 0.04165 0.82217 0.0
H1611 H 0.31356 0.01185 0.90011 0.0
H1612 H 0.32082 0.97049 0.88795 0.0
H1613 H 0.32211 0.99217 0.81497 0.0
C1614 C 0.31967 0.08372 0.84122 0.0
C1615 C 0.32277 0.09818 0.86114 0.0
C1616 C 0.31972 0.08856 0.8839 0.0
C1617 C 0.31517 0.06433 0.8867 0.0
C1618 C 0.31337 0.05026 0.86656 0.0
C1619 C 0.31523 0.0598 0.84424 0.0
C1620 C 0.31581 0.04099 0.82544 0.0
C1621 C 0.29381 0.04239 0.80976 0.0
C1622 C 0.33853 0.04248 0.81065 0.0
C1623 C 0.31542 0.01921 0.84063 0.0
C1624 C 0.31336 0.02474 0.86428 0.0
C1625 C 0.31465 0.00736 0.88163 0.0
C1626 C 0.31873 0.98394 0.87462 0.0
C1627 C 0.32196 0.97832 0.85056 0.0
C1628 C 0.31959 0.9961 0.83345 0.0
H1629 H 0.93566 0.34379 0.91581 0.0
H1630 H 0.90047 0.29123 0.87291 0.0
H1631 H 0.93777 0.28293 0.85251 0.0
H1632 H 0.96814 0.368 0.87262 0.0
H1633 H 0.99459 0.37318 0.88936 0.0
H1634 H 0.96664 0.37181 0.90411 0.0
H1635 H 0.98199 0.33866 0.93137 0.0
H1636 H 0.01026 0.34019 0.91702 0.0
H1637 H 0.99477 0.31254 0.91864 0.0
H1638 H 0.97595 0.28649 0.83125 0.0
H1639 H 0.01421 0.29834 0.81388 0.0
H1640 H 0.02573 0.34667 0.87157 0.0
C1641 C 0.93597 0.32985 0.90281 0.0
C1642 C 0.91505 0.31826 0.89591 0.0
C1643 C 0.91619 0.30043 0.87848 0.0
C1644 C 0.93735 0.29555 0.86679 0.0
C1645 C 0.95735 0.30827 0.87306 0.0
C1646 C 0.95701 0.32466 0.89106 0.0
C1647 C 0.98037 0.33745 0.89289 0.0
C1648 C 0.97723 0.36418 0.88954 0.0
C1649 C 0.99257 0.33187 0.91638 0.0
C1650 C 0.99345 0.32653 0.87239 0.0
C1651 C 0.97989 0.30964 0.86125 0.0
C1652 C 0.98705 0.29911 0.84024 0.0
C1653 C 0.00861 0.30599 0.83042 0.0
C1654 C 0.02279 0.323 0.84173 0.0
C1655 C 0.01531 0.33314 0.8631 0.0
H1656 H 0.63755 0.01356 0.86273 0.0
H1657 H 0.71234 0.0241 0.85352 0.0
H1658 H 0.72006 0.98461 0.87087 0.0
H1659 H 0.64195 0.9817 0.91951 0.0
H1660 H 0.61757 0.96271 0.91234 0.0
H1661 H 0.61857 0.99226 0.90084 0.0
H1662 H 0.61453 0.97585 0.85841 0.0
H1663 H 0.6136 0.94631 0.86976 0.0
H1664 H 0.63533 0.95423 0.84804 0.0
H1665 H 0.71842 0.94137 0.88381 0.0
H1666 H 0.70799 0.90044 0.89519 0.0
H1667 H 0.63454 0.92064 0.89933 0.0
C1668 C 0.65553 0.00762 0.86484 0.0
C1669 C 0.67441 0.02159 0.85692 0.0
C1670 C 0.69777 0.01352 0.85976 0.0
C1671 C 0.70223 0.99117 0.86949 0.0
C1672 C 0.68312 0.97752 0.87676 0.0
C1673 C 0.66025 0.98572 0.875 0.0
C1674 C 0.6427 0.96765 0.88354 0.0
C1675 C 0.62942 0.97662 0.90536 0.0
C1676 C 0.62554 0.9606 0.86376 0.0
C1677 C 0.65912 0.94766 0.88974 0.0
C1678 C 0.68238 0.95351 0.88561 0.0
C1679 C 0.70034 0.93684 0.88776 0.0
C1680 C 0.6943 0.91368 0.89419 0.0
C1681 C 0.67059 0.9076 0.89878 0.0
C1682 C 0.65294 0.92497 0.8968 0.0
H1683 H 0.00779 0.67058 0.19175 0.0
H1684 H 0.03692 0.67054 0.12127 0.0
H1685 H 0.99751 0.67999 0.10505 0.0
H1686 H 0.95652 0.64149 0.17858 0.0
H1687 H 0.93825 0.65785 0.19873 0.0
H1688 H 0.96916 0.65472 0.20452 0.0
H1689 H 0.97342 0.70016 0.20662 0.0
H1690 H 0.94241 0.7034 0.20073 0.0
H1691 H 0.96369 0.71794 0.18221 0.0
H1692 H 0.95354 0.68404 0.09659 0.0
H1693 H 0.90995 0.68186 0.09685 0.0
H1694 H 0.91082 0.67999 0.17318 0.0
C1695 C 0.00594 0.67286 0.17293 0.0
C1696 C 0.0253 0.66975 0.15773 0.0
C1697 C 0.02228 0.67306 0.1332 0.0
C1698 C -1e-05 0.67843 0.12388 0.0
C1699 C 0.98108 0.68082 0.1394 0.0
C1700 C 0.98398 0.67835 0.16345 0.0
C1701 C 0.96081 0.67986 0.17637 0.0
C1702 C 0.95591 0.65713 0.19035 0.0
C1703 C 0.96005 0.70164 0.19242 0.0
C1704 C 0.9442 0.68249 0.15579 0.0
C1705 C 0.9561 0.68339 0.13458 0.0
C1706 C 0.94409 0.68381 0.11313 0.0
C1707 C 0.91934 0.68264 0.11342 0.0
C1708 C 0.90706 0.68081 0.13504 0.0
C1709 C 0.91972 0.6815 0.15638 0.0
H1710 H 0.3753 0.01611 0.14909 0.0
H1711 H 0.3047 0.0356 0.12777 0.0
H1712 H 0.29712 0.9944 0.11561 0.0
H1713 H 0.38571 0.9703 0.10376 0.0
H1714 H 0.40138 0.95197 0.12437 0.0
H1715 H 0.40227 0.98355 0.12737 0.0
H1716 H 0.38713 0.97996 0.17031 0.0
H1717 H 0.38621 0.94848 0.16745 0.0
H1718 H 0.36009 0.96434 0.17599 0.0
H1719 H 0.29607 0.9494 0.1104 0.0
H1720 H 0.30147 0.90605 0.11412 0.0
H1721 H 0.37221 0.91751 0.14016 0.0
C1722 C 0.35833 0.01184 0.14157 0.0
C1723 C 0.3406 0.02907 0.13944 0.0
C1724 C 0.31868 0.02275 0.12932 0.0
C1725 C 0.31421 0.99938 0.1224 0.0
C1726 C 0.33193 0.98264 0.12549 0.0
C1727 C 0.35362 0.98875 0.13472 0.0
C1728 C 0.36905 0.96746 0.1385 0.0
C1729 C 0.39089 0.96838 0.12254 0.0
C1730 C 0.376 0.96492 0.1646 0.0
C1731 C 0.35239 0.94824 0.13089 0.0
C1732 C 0.3312 0.95716 0.12294 0.0
C1733 C 0.31272 0.94229 0.1163 0.0
C1734 C 0.3159 0.91775 0.1184 0.0
C1735 C 0.33718 0.90863 0.12751 0.0
C1736 C 0.35571 0.92409 0.1332 0.0
H1737 H 0.62505 0.08882 0.14201 0.0
H1738 H 0.69262 0.10006 0.10844 0.0
H1739 H 0.69893 0.05677 0.10706 0.0
H1740 H 0.64196 0.0446 0.17916 0.0
H1741 H 0.61498 0.02803 0.17716 0.0
H1742 H 0.61466 0.05928 0.17233 0.0
H1743 H 0.59561 0.05309 0.13131 0.0
H1744 H 0.59566 0.02172 0.13608 0.0
H1745 H 0.6096 0.03385 0.11028 0.0
H1746 H 0.69951 0.01213 0.11459 0.0
H1747 H 0.6939 0.97135 0.12905 0.0
H1748 H 0.6252 0.99069 0.15608 0.0
C1749 C 0.64101 0.08218 0.13395 0.0
C1750 C 0.6584 0.09764 0.1254 0.0
C1751 C 0.67903 0.08838 0.11494 0.0
C1752 C 0.68273 0.06387 0.11412 0.0
C1753 C 0.66541 0.04906 0.12341 0.0
C1754 C 0.64479 0.05799 0.13279 0.0
C1755 C 0.62947 0.03886 0.14303 0.0
C1756 C 0.62503 0.04294 0.16948 0.0
C1757 C 0.60621 0.03676 0.12935 0.0
C1758 C 0.64503 0.01775 0.13889 0.0
C1759 C 0.66559 0.02377 0.12735 0.0
C1760 C 0.68327 0.00719 0.12323 0.0
C1761 C 0.67992 0.98405 0.13146 0.0
C1762 C 0.65914 0.97783 0.1438 0.0
C1763 C 0.64137 0.99488 0.14694 0.0
H1764 H 0.11282 0.23949 0.28829 0.0
H1765 H 0.10889 0.17343 0.25005 0.0
H1766 H 0.12121 0.19404 0.21362 0.0
H1767 H 0.09362 0.27851 0.24049 0.0
H1768 H 0.11402 0.30122 0.24912 0.0
H1769 H 0.10192 0.28168 0.27097 0.0
H1770 H 0.1442 0.27043 0.284 0.0
H1771 H 0.15644 0.28959 0.26194 0.0
H1772 H 0.16456 0.25891 0.26254 0.0
H1773 H 0.1363 0.22206 0.18189 0.0
H1774 H 0.15293 0.25461 0.15808 0.0
H1775 H 0.1491 0.30091 0.21858 0.0
C1776 C 0.114 0.22935 0.27218 0.0
C1777 C 0.10968 0.20488 0.27195 0.0
C1778 C 0.11182 0.19226 0.25054 0.0
C1779 C 0.11888 0.20381 0.22981 0.0
C1780 C 0.12373 0.22789 0.2309 0.0
C1781 C 0.12126 0.24048 0.25156 0.0
C1782 C 0.12913 0.26574 0.24875 0.0
C1783 C 0.10844 0.28279 0.25255 0.0
C1784 C 0.14981 0.27149 0.26528 0.0
C1785 C 0.13685 0.26541 0.22333 0.0
C1786 C 0.13332 0.24356 0.21317 0.0
C1787 C 0.1391 0.23921 0.18971 0.0
C1788 C 0.14857 0.25773 0.17636 0.0
C1789 C 0.1526 0.2801 0.18664 0.0
C1790 C 0.14664 0.28386 0.21042 0.0
H1791 H 0.73125 0.17885 0.20719 0.0
H1792 H 0.69394 0.11558 0.18641 0.0
H1793 H 0.72128 0.09153 0.21003 0.0
H1794 H 0.79066 0.15164 0.2077 0.0
H1795 H 0.79999 0.16853 0.23287 0.0
H1796 H 0.77873 0.18063 0.21271 0.0
H1797 H 0.74959 0.18729 0.24724 0.0
H1798 H 0.77095 0.17547 0.26738 0.0
H1799 H 0.74186 0.16285 0.26597 0.0
H1800 H 0.74883 0.07504 0.23947 0.0
H1801 H 0.77489 0.06731 0.27346 0.0
H1802 H 0.79658 0.14037 0.27356 0.0
C1803 C 0.72895 0.15994 0.20763 0.0
C1804 C 0.71052 0.14902 0.19499 0.0
C1805 C 0.70811 0.12421 0.19579 0.0
C1806 C 0.72357 0.11042 0.2091 0.0
C1807 C 0.74162 0.12166 0.22126 0.0
C1808 C 0.74449 0.14583 0.22062 0.0
C1809 C 0.76471 0.15349 0.23625 0.0
C1810 C 0.78471 0.1642 0.2215 0.0
C1811 C 0.75626 0.17078 0.25534 0.0
C1812 C 0.7719 0.12998 0.24669 0.0
C1813 C 0.75852 0.11181 0.23753 0.0
C1814 C 0.75993 0.08893 0.24631 0.0
C1815 C 0.7748 0.08465 0.2655 0.0
C1816 C 0.78825 0.10305 0.27539 0.0
C1817 C 0.7873 0.12582 0.26547 0.0
H1818 H 0.8755 0.75851 0.29332 0.0
H1819 H 0.87424 0.82579 0.2571 0.0
H1820 H 0.86039 0.80581 0.22089 0.0
H1821 H 0.89492 0.72306 0.24366 0.0
H1822 H 0.87672 0.69843 0.25197 0.0
H1823 H 0.88791 0.71806 0.27421 0.0
H1824 H 0.84532 0.72537 0.28895 0.0
H1825 H 0.83398 0.70604 0.26654 0.0
H1826 H 0.82338 0.73589 0.26858 0.0
H1827 H 0.84533 0.77808 0.18892 0.0
H1828 H 0.83138 0.74513 0.16396 0.0
H1829 H 0.84193 0.69674 0.22201 0.0
C1830 C 0.87265 0.76908 0.27771 0.0
C1831 C 0.87608 0.79371 0.27801 0.0
C1832 C 0.87195 0.80686 0.25722 0.0
C1833 C 0.86398 0.79567 0.23661 0.0
C1834 C 0.86031 0.77138 0.23713 0.0
C1835 C 0.86466 0.75826 0.25714 0.0
C1836 C 0.85878 0.73254 0.25349 0.0
C1837 C 0.8809 0.71712 0.25597 0.0
C1838 C 0.8392 0.7245 0.27039 0.0
C1839 C 0.85019 0.73316 0.22832 0.0
C1840 C 0.8513 0.75566 0.21909 0.0
C1841 C 0.84446 0.76041 0.19599 0.0
C1842 C 0.8366 0.74162 0.18196 0.0
C1843 C 0.83547 0.71843 0.19111 0.0
C1844 C 0.8422 0.71432 0.21466 0.0
H1845 H 0.31231 0.86334 0.23287 0.0
H1846 H 0.2651 0.8489 0.17464 0.0
H1847 H 0.2316 0.86349 0.19818 0.0
H1848 H 0.27411 0.84434 0.27788 0.0
H1849 H 0.28293 0.8667 0.29861 0.0
H1850 H 0.30324 0.85687 0.27638 0.0
H1851 H 0.30834 0.89995 0.2621 0.0
H1852 H 0.28784 0.90987 0.2842 0.0
H1853 H 0.28278 0.91674 0.25363 0.0
H1854 H 0.20278 0.87663 0.22933 0.0
H1855 H 0.1811 0.88649 0.26577 0.0
H1856 H 0.24744 0.8931 0.30311 0.0
C1857 C 0.29495 0.86333 0.22505 0.0
C1858 C 0.29135 0.85511 0.20188 0.0
C1859 C 0.26835 0.85549 0.19222 0.0
C1860 C 0.24919 0.86369 0.20547 0.0
C1861 C 0.25336 0.87167 0.22828 0.0
C1862 C 0.27569 0.87161 0.23796 0.0
C1863 C 0.27532 0.88007 0.26321 0.0
C1864 C 0.28443 0.86085 0.28 0.0
C1865 C 0.28941 0.90302 0.26593 0.0
C1866 C 0.24923 0.88432 0.26642 0.0
C1867 C 0.23684 0.87957 0.24605 0.0
C1868 C 0.21233 0.88076 0.24529 0.0
C1869 C 0.20016 0.88645 0.26605 0.0
C1870 C 0.21256 0.89077 0.28725 0.0
C1871 C 0.23742 0.89023 0.28715 0.0
H1872 H 0.13292 0.80156 0.73613 0.0
H1873 H 0.06376 0.77408 0.71967 0.0
H1874 H 0.06763 0.74498 0.75174 0.0
H1875 H 0.15911 0.74924 0.74211 0.0
H1876 H 0.17865 0.75639 0.76607 0.0
H1877 H 0.16847 0.77924 0.7467 0.0
H1878 H 0.15166 0.80274 0.78204 0.0
H1879 H 0.16255 0.78028 0.80162 0.0
H1880 H 0.13191 0.78846 0.80233 0.0
H1881 H 0.08135 0.71504 0.78052 0.0
H1882 H 0.10388 0.68686 0.80517 0.0
H1883 H 0.16504 0.73198 0.80137 0.0
C1884 C 0.11813 0.79026 0.74018 0.0
C1885 C 0.09779 0.79035 0.72593 0.0
C1886 C 0.07924 0.7745 0.7308 0.0
C1887 C 0.08133 0.75792 0.74893 0.0
C1888 C 0.10215 0.75735 0.76187 0.0
C1889 C 0.12017 0.77328 0.75795 0.0
C1890 C 0.14196 0.76681 0.77196 0.0
C1891 C 0.16329 0.76267 0.75573 0.0
C1892 C 0.14733 0.78569 0.79059 0.0
C1893 C 0.13377 0.74414 0.78336 0.0
C1894 C 0.11057 0.73931 0.77775 0.0
C1895 C 0.09941 0.71879 0.78529 0.0
C1896 C 0.11227 0.70284 0.79902 0.0
C1897 C 0.13601 0.7074 0.80469 0.0
C1898 C 0.14687 0.72831 0.79698 0.0
H1899 H 0.23992 0.13405 0.68998 0.0
H1900 H 0.18849 0.09704 0.7326 0.0
H1901 H 0.21132 0.10728 0.76855 0.0
H1902 H 0.29133 0.11873 0.72183 0.0
H1903 H 0.30481 0.14725 0.71831 0.0
H1904 H 0.28453 0.13654 0.69645 0.0
H1905 H 0.25904 0.17408 0.70158 0.0
H1906 H 0.27921 0.18492 0.7235 0.0
H1907 H 0.2484 0.1819 0.73045 0.0
H1908 H 0.24141 0.12037 0.79926 0.0
H1909 H 0.274 0.13667 0.82239 0.0
H1910 H 0.30338 0.16778 0.75891 0.0
C1911 C 0.23351 0.12783 0.70683 0.0
C1912 C 0.21272 0.11436 0.70858 0.0
C1913 C 0.20455 0.10719 0.73098 0.0
C1914 C 0.21738 0.11294 0.75139 0.0
C1915 C 0.23793 0.12624 0.74895 0.0
C1916 C 0.24572 0.1338 0.7272 0.0
C1917 C 0.2678 0.1485 0.72912 0.0
C1918 C 0.28833 0.13706 0.71563 0.0
C1919 C 0.26334 0.17385 0.72067 0.0
C1920 C 0.27171 0.14763 0.75538 0.0
C1921 C 0.25437 0.1347 0.76654 0.0
C1922 C 0.25485 0.13082 0.79071 0.0
C1923 C 0.27352 0.14038 0.80376 0.0
C1924 C 0.29145 0.15391 0.79268 0.0
C1925 C 0.29023 0.15757 0.76812 0.0
H1926 H 0.87546 0.31059 0.778 0.0
H1927 H 0.85327 0.26179 0.8324 0.0
H1928 H 0.86548 0.2284 0.80749 0.0
H1929 H 0.85492 0.27692 0.72974 0.0
H1930 H 0.87908 0.2846 0.71066 0.0
H1931 H 0.87009 0.30454 0.73358 0.0
H1932 H 0.91264 0.30456 0.75013 0.0
H1933 H 0.92169 0.28438 0.72736 0.0
H1934 H 0.92639 0.27702 0.75787 0.0
H1935 H 0.8776 0.20014 0.77545 0.0
H1936 H 0.88748 0.17957 0.73836 0.0
H1937 H 0.90226 0.2469 0.70534 0.0
C1938 C 0.8732 0.2929 0.78468 0.0
C1939 C 0.86357 0.28887 0.80724 0.0
C1940 C 0.86101 0.26539 0.81538 0.0
C1941 C 0.86784 0.24627 0.80132 0.0
C1942 C 0.87735 0.25087 0.77921 0.0
C1943 C 0.88003 0.27361 0.77094 0.0
C1944 C 0.88975 0.27377 0.74614 0.0
C1945 C 0.87242 0.28565 0.72903 0.0
C1946 C 0.91406 0.28563 0.74534 0.0
C1947 C 0.89162 0.24758 0.74157 0.0
C1948 C 0.88457 0.23462 0.7609 0.0
C1949 C 0.88348 0.21009 0.7603 0.0
C1950 C 0.88923 0.19854 0.73919 0.0
C1951 C 0.89586 0.21158 0.71899 0.0
C1952 C 0.89757 0.23637 0.72052 0.0
H1953 H 0.69028 0.86573 0.77499 0.0
H1954 H 0.73777 0.85754 0.83424 0.0
H1955 H 0.77097 0.87027 0.80935 0.0
H1956 H 0.72827 0.84225 0.73248 0.0
H1957 H 0.71939 0.86211 0.70938 0.0
H1958 H 0.69912 0.85481 0.73258 0.0
H1959 H 0.69389 0.89917 0.74208 0.0
H1960 H 0.71424 0.90661 0.7189 0.0
H1961 H 0.71942 0.9169 0.74847 0.0
H1962 H 0.79966 0.88049 0.77684 0.0
H1963 H 0.82111 0.88703 0.73947 0.0
H1964 H 0.75461 0.88839 0.70189 0.0
C1965 C 0.70761 0.86674 0.7828 0.0
C1966 C 0.71132 0.8607 0.80663 0.0
C1967 C 0.73433 0.86243 0.81617 0.0
C1968 C 0.75336 0.86957 0.80213 0.0
C1969 C 0.7491 0.8751 0.77862 0.0
C1970 C 0.72675 0.87385 0.76908 0.0
C1971 C 0.72698 0.87941 0.74305 0.0
C1972 C 0.71791 0.85839 0.72853 0.0
C1973 C 0.71279 0.90186 0.73783 0.0
C1974 C 0.75304 0.88336 0.73928 0.0
C1975 C 0.76553 0.88104 0.76001 0.0
C1976 C 0.79002 0.88267 0.76055 0.0
C1977 C 0.80206 0.88641 0.73926 0.0
C1978 C 0.78954 0.88835 0.71779 0.0
C1979 C 0.76471 0.88721 0.71801 0.0
H1980 H 0.21635 0.12989 0.29373 0.0
H1981 H 0.1616 0.15538 0.24726 0.0
H1982 H 0.18489 0.14238 0.21265 0.0
H1983 H 0.26431 0.1479 0.26005 0.0
H1984 H 0.28218 0.12254 0.26672 0.0
H1985 H 0.26007 0.13208 0.28724 0.0
H1986 H 0.24125 0.09047 0.28619 0.0
H1987 H 0.26324 0.08087 0.26542 0.0
H1988 H 0.23244 0.07798 0.25837 0.0
H1989 H 0.2168 0.13042 0.18319 0.0
H1990 H 0.25385 0.12078 0.16219 0.0
H1991 H 0.28587 0.10112 0.22867 0.0
C1992 C 0.20924 0.13256 0.27625 0.0
C1993 C 0.18731 0.14365 0.27304 0.0
C1994 C 0.17835 0.14672 0.24998 0.0
C1995 C 0.19144 0.13939 0.23028 0.0
C1996 C 0.21318 0.12862 0.23407 0.0
C1997 C 0.22185 0.12503 0.25655 0.0
C1998 C 0.24603 0.11406 0.25607 0.0
C1999 C 0.26421 0.13011 0.26822 0.0
C2000 C 0.24571 0.08938 0.26717 0.0
C2001 C 0.25008 0.11278 0.22981 0.0
C2002 C 0.23095 0.12107 0.21729 0.0
C2003 C 0.23169 0.12344 0.19281 0.0
C2004 C 0.25274 0.11782 0.181 0.0
C2005 C 0.27268 0.11001 0.19376 0.0
C2006 C 0.27089 0.10677 0.21834 0.0
H2007 H 0.87913 0.29518 0.25254 0.0
H2008 H 0.87837 0.26056 0.1844 0.0
H2009 H 0.86479 0.22379 0.20346 0.0
H2010 H 0.89761 0.2443 0.28773 0.0
H2011 H 0.87877 0.25237 0.31196 0.0
H2012 H 0.89088 0.27485 0.29314 0.0
H2013 H 0.84876 0.29036 0.28489 0.0
H2014 H 0.83649 0.26772 0.30335 0.0
H2015 H 0.82688 0.27053 0.27324 0.0
H2016 H 0.84916 0.19144 0.23006 0.0
H2017 H 0.83323 0.16624 0.26178 0.0
H2018 H 0.84261 0.22309 0.31182 0.0
C2019 C 0.87663 0.27976 0.24161 0.0
C2020 C 0.88004 0.2807 0.21697 0.0
C2021 C 0.87617 0.26018 0.20333 0.0
C2022 C 0.86836 0.23925 0.214 0.0
C2023 C 0.86454 0.2392 0.23828 0.0
C2024 C 0.86868 0.25891 0.2519 0.0
C2025 C 0.86193 0.25484 0.27736 0.0
C2026 C 0.88359 0.25669 0.29349 0.0
C2027 C 0.84235 0.27187 0.28515 0.0
C2028 C 0.85302 0.22981 0.27597 0.0
C2029 C 0.85487 0.22098 0.25335 0.0
C2030 C 0.84774 0.19818 0.24782 0.0
C2031 C 0.83871 0.18401 0.26594 0.0
C2032 C 0.83656 0.19278 0.2892 0.0
C2033 C 0.84374 0.21604 0.29415 0.0
H2034 H 0.71822 0.91556 0.23199 0.0
H2035 H 0.74246 0.8734 0.17313 0.0
H2036 H 0.77683 0.8606 0.1966 0.0
H2037 H 0.7787 0.93135 0.25558 0.0
H2038 H 0.7682 0.92947 0.28545 0.0
H2039 H 0.74866 0.93906 0.26235 0.0
H2040 H 0.71916 0.90631 0.27421 0.0
H2041 H 0.73876 0.89621 0.29688 0.0
H2042 H 0.72878 0.87605 0.27449 0.0
H2043 H 0.80468 0.84763 0.22869 0.0
H2044 H 0.82614 0.8386 0.26498 0.0
H2045 H 0.78187 0.88799 0.30328 0.0
C2046 C 0.73126 0.90436 0.22373 0.0
C2047 C 0.72781 0.89553 0.20077 0.0
C2048 C 0.745 0.88063 0.19059 0.0
C2049 C 0.76448 0.87317 0.20385 0.0
C2050 C 0.76659 0.88112 0.22701 0.0
C2051 C 0.75071 0.89685 0.23666 0.0
C2052 C 0.75562 0.90113 0.2625 0.0
C2053 C 0.76325 0.92677 0.26671 0.0
C2054 C 0.73431 0.89452 0.27791 0.0
C2055 C 0.7759 0.88438 0.26624 0.0
C2056 C 0.78228 0.87331 0.24554 0.0
C2057 C 0.80003 0.85646 0.24493 0.0
C2058 C 0.81194 0.8512 0.2659 0.0
C2059 C 0.80588 0.86255 0.2874 0.0
C2060 C 0.78736 0.87917 0.28733 0.0
H2061 H 0.1137 0.70745 0.24799 0.0
H2062 H 0.12897 0.73873 0.17998 0.0
H2063 H 0.14571 0.77367 0.20007 0.0
H2064 H 0.09974 0.76231 0.27969 0.0
H2065 H 0.1136 0.75189 0.30625 0.0
H2066 H 0.10012 0.73126 0.28628 0.0
H2067 H 0.13951 0.70827 0.28391 0.0
H2068 H 0.15326 0.7291 0.30341 0.0
H2069 H 0.16586 0.72344 0.27484 0.0
H2070 H 0.16324 0.80404 0.22822 0.0
H2071 H 0.1789 0.82735 0.26171 0.0
H2072 H 0.15391 0.77429 0.3104 0.0
C2073 C 0.12004 0.72185 0.23723 0.0
C2074 C 0.11988 0.72044 0.21241 0.0
C2075 C 0.12862 0.73958 0.19903 0.0
C2076 C 0.13828 0.75942 0.21029 0.0
C2077 C 0.13898 0.75976 0.23487 0.0
C2078 C 0.12986 0.74152 0.24813 0.0
C2079 C 0.13397 0.74523 0.27417 0.0
C2080 C 0.11046 0.74783 0.28737 0.0
C2081 C 0.14905 0.72533 0.28468 0.0
C2082 C 0.1473 0.7682 0.27358 0.0
C2083 C 0.14979 0.77653 0.25082 0.0
C2084 C 0.16135 0.79766 0.24607 0.0
C2085 C 0.17024 0.8107 0.2651 0.0
C2086 C 0.16785 0.80235 0.28848 0.0
C2087 C 0.1564 0.78076 0.29265 0.0
H2088 H 0.29308 0.87992 0.76678 0.0
H2089 H 0.25569 0.87661 0.83334 0.0
H2090 H 0.22048 0.86138 0.81252 0.0
H2091 H 0.24334 0.89658 0.72984 0.0
H2092 H 0.25333 0.87859 0.70568 0.0
H2093 H 0.27435 0.89126 0.72574 0.0
H2094 H 0.29126 0.84964 0.73394 0.0
H2095 H 0.27006 0.8368 0.71422 0.0
H2096 H 0.2719 0.8267 0.74425 0.0
H2097 H 0.18989 0.84485 0.78397 0.0
H2098 H 0.16673 0.82919 0.75047 0.0
H2099 H 0.22561 0.84178 0.7037 0.0
C2100 C 0.27739 0.87642 0.77702 0.0
C2101 C 0.27707 0.87964 0.80168 0.0
C2102 C 0.25623 0.87456 0.81439 0.0
C2103 C 0.23621 0.8658 0.80272 0.0
C2104 C 0.23743 0.86224 0.77842 0.0
C2105 C 0.2575 0.86753 0.76576 0.0
C2106 C 0.25492 0.86115 0.74004 0.0
C2107 C 0.25658 0.88321 0.72441 0.0
C2108 C 0.27312 0.84246 0.7327 0.0
C2109 C 0.2303 0.85116 0.74012 0.0
C2110 C 0.22036 0.85209 0.76234 0.0
C2111 C 0.19755 0.84408 0.76654 0.0
C2112 C 0.18455 0.8352 0.74748 0.0
C2113 C 0.19452 0.83409 0.72463 0.0
C2114 C 0.21774 0.84203 0.72106 0.0
H2115 H 0.11566 0.29248 0.74787 0.0
H2116 H 0.12545 0.25763 0.81515 0.0
H2117 H 0.13877 0.22164 0.79428 0.0
H2118 H 0.09583 0.24111 0.71453 0.0
H2119 H 0.11134 0.25028 0.68841 0.0
H2120 H 0.10039 0.272 0.70879 0.0
H2121 H 0.14238 0.28954 0.71237 0.0
H2122 H 0.15353 0.26769 0.69232 0.0
H2123 H 0.1664 0.27075 0.72116 0.0
H2124 H 0.15325 0.19031 0.76551 0.0
H2125 H 0.16691 0.16635 0.73172 0.0
H2126 H 0.14863 0.22302 0.68405 0.0
C2127 C 0.1202 0.27718 0.7583 0.0
C2128 C 0.11939 0.27778 0.78314 0.0
C2129 C 0.12568 0.25743 0.79609 0.0
C2130 C 0.13335 0.23699 0.78438 0.0
C2131 C 0.13454 0.23728 0.75981 0.0
C2132 C 0.12797 0.25686 0.74698 0.0
C2133 C 0.13191 0.25335 0.72088 0.0
C2134 C 0.10847 0.25423 0.70736 0.0
C2135 C 0.14961 0.2714 0.71113 0.0
C2136 C 0.14212 0.22882 0.72094 0.0
C2137 C 0.14332 0.2197 0.74349 0.0
C2138 C 0.15225 0.19726 0.7478 0.0
C2139 C 0.15992 0.18379 0.72855 0.0
C2140 C 0.15883 0.19291 0.70534 0.0
C2141 C 0.14992 0.21576 0.70162 0.0
H2142 H 0.73522 0.09168 0.76972 0.0
H2143 H 0.73839 0.141 0.82794 0.0
H2144 H 0.76996 0.16285 0.80771 0.0
H2145 H 0.80064 0.09312 0.75644 0.0
H2146 H 0.79529 0.09052 0.72528 0.0
H2147 H 0.77554 0.07676 0.74597 0.0
H2148 H 0.74053 0.09896 0.72707 0.0
H2149 H 0.76008 0.11309 0.70659 0.0
H2150 H 0.74132 0.13065 0.72523 0.0
H2151 H 0.79525 0.18358 0.77762 0.0
H2152 H 0.8175 0.19768 0.7427 0.0
H2153 H 0.80029 0.13338 0.70564 0.0
C2154 C 0.74319 0.10655 0.7786 0.0
C2155 C 0.73426 0.1147 0.80033 0.0
C2156 C 0.74495 0.13436 0.81134 0.0
C2157 C 0.76288 0.14696 0.79992 0.0
C2158 C 0.77039 0.13921 0.77788 0.0
C2159 C 0.76144 0.11898 0.76768 0.0
C2160 C 0.77166 0.11504 0.74336 0.0
C2161 C 0.78668 0.09252 0.74274 0.0
C2162 C 0.75224 0.11441 0.72447 0.0
C2163 C 0.78681 0.13681 0.74099 0.0
C2164 C 0.78585 0.15058 0.76105 0.0
C2165 C 0.79663 0.17265 0.76206 0.0
C2166 C 0.80895 0.18064 0.74217 0.0
C2167 C 0.81052 0.16647 0.72177 0.0
C2168 C 0.79949 0.14427 0.72128 0.0
H2169 H 0.83673 0.70626 0.77585 0.0
H2170 H 0.8899 0.73965 0.81935 0.0
H2171 H 0.88784 0.77526 0.79417 0.0
H2172 H 0.85708 0.72663 0.72152 0.0
H2173 H 0.82828 0.73099 0.70894 0.0
H2174 H 0.83254 0.70912 0.73146 0.0
H2175 H 0.80005 0.72852 0.75697 0.0
H2176 H 0.79546 0.75033 0.73439 0.0
H2177 H 0.80211 0.75939 0.76407 0.0
H2178 H 0.88216 0.80568 0.76196 0.0
H2179 H 0.87187 0.82941 0.72717 0.0
H2180 H 0.82158 0.77604 0.70563 0.0
C2181 C 0.84776 0.72115 0.78032 0.0
C2182 C 0.86352 0.72021 0.79953 0.0
C2183 C 0.87762 0.74008 0.80478 0.0
C2184 C 0.8766 0.76031 0.79054 0.0
C2185 C 0.86124 0.76038 0.77134 0.0
C2186 C 0.84687 0.74139 0.76644 0.0
C2187 C 0.83235 0.74548 0.74447 0.0
C2188 C 0.83791 0.72696 0.72548 0.0
C2189 C 0.80593 0.74596 0.75033 0.0
C2190 C 0.84114 0.76957 0.73739 0.0
C2191 C 0.85773 0.77792 0.75313 0.0
C2192 C 0.86891 0.79947 0.74976 0.0
C2193 C 0.86284 0.81288 0.72994 0.0
C2194 C 0.84566 0.80479 0.71368 0.0
C2195 C 0.8348 0.78276 0.71758 0.0
H2196 H 0.25754 0.20722 0.1661 0.0
H2197 H 0.29768 0.19151 0.10314 0.0
H2198 H 0.27064 0.2161 0.07958 0.0
H2199 H 0.1995 0.207 0.13661 0.0
H2200 H 0.18829 0.23054 0.15465 0.0
H2201 H 0.21002 0.21065 0.16634 0.0
H2202 H 0.2372 0.24593 0.1764 0.0
H2203 H 0.21534 0.26582 0.16507 0.0
H2204 H 0.24492 0.2666 0.15358 0.0
H2205 H 0.24266 0.24611 0.06407 0.0
H2206 H 0.21498 0.27912 0.05758 0.0
H2207 H 0.19045 0.27263 0.12949 0.0
C2208 C 0.26051 0.209 0.14736 0.0
C2209 C 0.27965 0.19762 0.13636 0.0
C2210 C 0.28297 0.20004 0.11177 0.0
C2211 C 0.26771 0.21389 0.09828 0.0
C2212 C 0.24891 0.22483 0.10959 0.0
C2213 C 0.24511 0.22241 0.13352 0.0
C2214 C 0.22391 0.23655 0.14137 0.0
C2215 C 0.20427 0.2202 0.15026 0.0
C2216 C 0.23077 0.25481 0.16021 0.0
C2217 C 0.21713 0.24821 0.11834 0.0
C2218 C 0.23169 0.24106 0.10018 0.0
C2219 C 0.23069 0.25139 0.07793 0.0
C2220 C 0.21492 0.27003 0.07435 0.0
C2221 C 0.20017 0.27782 0.0928 0.0
C2222 C 0.20081 0.2663 0.11482 0.0
H2223 H 0.24189 0.69834 0.88301 0.0
H2224 H 0.17654 0.73772 0.88741 0.0
H2225 H 0.19866 0.77477 0.88137 0.0
H2226 H 0.27934 0.74212 0.91237 0.0
H2227 H 0.304 0.73608 0.89333 0.0
H2228 H 0.2832 0.71311 0.90007 0.0
H2229 H 0.2762 0.70651 0.85546 0.0
H2230 H 0.29676 0.72961 0.84857 0.0
H2231 H 0.26712 0.73094 0.83734 0.0
H2232 H 0.22754 0.80692 0.87141 0.0
H2233 H 0.2609 0.83209 0.86022 0.0
H2234 H 0.30758 0.77161 0.86306 0.0
C2235 C 0.23222 0.71477 0.8831 0.0
C2236 C 0.20748 0.71517 0.88575 0.0
C2237 C 0.19551 0.73703 0.88561 0.0
C2238 C 0.20792 0.75814 0.88212 0.0
C2239 C 0.23225 0.75702 0.879 0.0
C2240 C 0.24429 0.73592 0.8797 0.0
C2241 C 0.2703 0.73934 0.87492 0.0
C2242 C 0.28508 0.73225 0.89646 0.0
C2243 C 0.27803 0.7258 0.85276 0.0
C2244 C 0.27099 0.76566 0.87095 0.0
C2245 C 0.2489 0.77554 0.87348 0.0
C2246 C 0.24498 0.79943 0.8698 0.0
C2247 C 0.26416 0.81363 0.86355 0.0
C2248 C 0.28708 0.80395 0.86106 0.0
C2249 C 0.29038 0.77958 0.8648 0.0
H2250 H 0.30383 0.25367 0.86702 0.0
H2251 H 0.26678 0.18709 0.87317 0.0
H2252 H 0.22929 0.20733 0.86433 0.0
H2253 H 0.25745 0.29079 0.89242 0.0
H2254 H 0.26326 0.31469 0.87237 0.0
H2255 H 0.28675 0.29521 0.88105 0.0
H2256 H 0.29539 0.28623 0.83716 0.0
H2257 H 0.27179 0.30544 0.82834 0.0
H2258 H 0.27211 0.27522 0.81862 0.0
H2259 H 0.19648 0.23427 0.85187 0.0
H2260 H 0.17029 0.26609 0.83858 0.0
H2261 H 0.22867 0.31535 0.841 0.0
C2262 C 0.2878 0.24337 0.86692 0.0
C2263 C 0.28823 0.21879 0.87091 0.0
C2264 C 0.26686 0.20595 0.87037 0.0
C2265 C 0.2455 0.21729 0.86529 0.0
C2266 C 0.24581 0.24145 0.86091 0.0
C2267 C 0.26637 0.25438 0.86189 0.0
C2268 C 0.26208 0.27997 0.85563 0.0
C2269 C 0.26772 0.29611 0.87662 0.0
C2270 C 0.27618 0.28712 0.83363 0.0
C2271 C 0.23593 0.27937 0.85061 0.0
C2272 C 0.22688 0.25701 0.85384 0.0
C2273 C 0.2033 0.25193 0.84965 0.0
C2274 C 0.18852 0.27021 0.8422 0.0
C2275 C 0.19729 0.2934 0.83903 0.0
C2276 C 0.2214 0.29788 0.84321 0.0
H2277 H 0.70845 0.22354 0.82382 0.0
H2278 H 0.72248 0.17289 0.87942 0.0
H2279 H 0.75372 0.19849 0.89479 0.0
H2280 H 0.76807 0.24189 0.8144 0.0
H2281 H 0.76047 0.27236 0.80982 0.0
H2282 H 0.73967 0.24957 0.80252 0.0
H2283 H 0.70853 0.26903 0.82963 0.0
H2284 H 0.72917 0.29195 0.83691 0.0
H2285 H 0.71573 0.27483 0.86 0.0
H2286 H 0.78447 0.2296 0.90382 0.0
H2287 H 0.8095 0.26526 0.90738 0.0
H2288 H 0.77327 0.29624 0.84774 0.0
C2289 C 0.71787 0.21778 0.83931 0.0
C2290 C 0.71298 0.19584 0.85004 0.0
C2291 C 0.72605 0.18921 0.87033 0.0
C2292 C 0.74385 0.20374 0.87936 0.0
C2293 C 0.74832 0.22506 0.86816 0.0
C2294 C 0.73552 0.23217 0.84873 0.0
C2295 C 0.7433 0.25623 0.84036 0.0
C2296 C 0.75349 0.25492 0.81529 0.0
C2297 C 0.72297 0.27406 0.84183 0.0
C2298 C 0.7623 0.26162 0.85825 0.0
C2299 C 0.76523 0.24331 0.87396 0.0
C2300 C 0.78222 0.24413 0.89171 0.0
C2301 C 0.79638 0.26436 0.89358 0.0
C2302 C 0.79311 0.28354 0.87803 0.0
C2303 C 0.77594 0.28198 0.86011 0.0
H2304 H 0.70026 0.75776 0.85952 0.0
H2305 H 0.73425 0.80799 0.906 0.0
H2306 H 0.76852 0.78114 0.90952 0.0
H2307 H 0.71998 0.70491 0.88837 0.0
H2308 H 0.72411 0.68906 0.86118 0.0
H2309 H 0.70215 0.71187 0.86306 0.0
H2310 H 0.72105 0.73336 0.82748 0.0
H2311 H 0.74289 0.71051 0.82535 0.0
H2312 H 0.75188 0.7408 0.82838 0.0
H2313 H 0.7991 0.74848 0.9075 0.0
H2314 H 0.82464 0.71463 0.89784 0.0
H2315 H 0.77042 0.68678 0.85185 0.0
C2316 C 0.71483 0.76315 0.87057 0.0
C2317 C 0.71456 0.78492 0.88261 0.0
C2318 C 0.73412 0.79138 0.89663 0.0
C2319 C 0.75357 0.77619 0.89881 0.0
C2320 C 0.75312 0.75473 0.88679 0.0
C2321 C 0.73431 0.74836 0.8728 0.0
C2322 C 0.7384 0.72486 0.8609 0.0
C2323 C 0.72007 0.7066 0.86886 0.0
C2324 C 0.73857 0.72756 0.83393 0.0
C2325 C 0.76259 0.71896 0.87024 0.0
C2326 C 0.77073 0.73628 0.88531 0.0
C2327 C 0.79289 0.73488 0.89568 0.0
C2328 C 0.80729 0.71561 0.89002 0.0
C2329 C 0.79959 0.69807 0.87398 0.0
C2330 C 0.77672 0.69964 0.86441 0.0
H2331 H 0.69652 0.77568 0.14265 0.0
H2332 H 0.74455 0.83484 0.14677 0.0
H2333 H 0.77619 0.81037 0.12961 0.0
H2334 H 0.73759 0.73156 0.15876 0.0
H2335 H 0.72584 0.70973 0.13895 0.0
H2336 H 0.70697 0.73242 0.15047 0.0
H2337 H 0.69565 0.74447 0.10791 0.0
H2338 H 0.71472 0.72194 0.09626 0.0
H2339 H 0.71849 0.75214 0.08724 0.0
H2340 H 0.80333 0.77835 0.11463 0.0
H2341 H 0.82355 0.74146 0.10324 0.0
H2342 H 0.75706 0.70405 0.10755 0.0
C2343 C 0.7137 0.78345 0.13995 0.0
C2344 C 0.71809 0.80713 0.146 0.0
C2345 C 0.74074 0.81679 0.14199 0.0
C2346 C 0.75882 0.80303 0.1323 0.0
C2347 C 0.75387 0.77972 0.12646 0.0
C2348 C 0.73183 0.77005 0.13007 0.0
C2349 C 0.73118 0.74443 0.12289 0.0
C2350 C 0.72504 0.72861 0.14403 0.0
C2351 C 0.71399 0.74053 0.10235 0.0
C2352 C 0.75643 0.74103 0.11514 0.0
C2353 C 0.76927 0.76157 0.11724 0.0
C2354 C 0.79337 0.76224 0.11256 0.0
C2355 C 0.80469 0.74123 0.10603 0.0
C2356 C 0.79186 0.71992 0.10423 0.0
C2357 C 0.76734 0.72009 0.10834 0.0
H2358 H 0.22791 0.70093 0.17886 0.0
H2359 H 0.17279 0.72096 0.12978 0.0
H2360 H 0.19709 0.75401 0.11601 0.0
H2361 H 0.24755 0.75929 0.19341 0.0
H2362 H 0.27816 0.75101 0.19441 0.0
H2363 H 0.25576 0.72969 0.20141 0.0
H2364 H 0.27227 0.70154 0.16944 0.0
H2365 H 0.29479 0.72269 0.16247 0.0
H2366 H 0.27552 0.71201 0.13965 0.0
H2367 H 0.22801 0.78543 0.10747 0.0
H2368 H 0.26417 0.80971 0.10293 0.0
H2369 H 0.29891 0.76703 0.15584 0.0
C2370 C 0.22087 0.71208 0.16514 0.0
C2371 C 0.19819 0.70829 0.15574 0.0
C2372 C 0.18982 0.72362 0.13781 0.0
C2373 C 0.20356 0.74248 0.12973 0.0
C2374 C 0.22574 0.74575 0.13956 0.0
C2375 C 0.23439 0.7308 0.15672 0.0
C2376 C 0.25915 0.7374 0.16375 0.0
C2377 C 0.2602 0.74479 0.18979 0.0
C2378 C 0.27645 0.71721 0.1585 0.0
C2379 C 0.26319 0.75817 0.14765 0.0
C2380 C 0.24367 0.76305 0.13405 0.0
C2381 C 0.24345 0.7817 0.11799 0.0
C2382 C 0.26394 0.79542 0.11555 0.0
C2383 C 0.28428 0.79001 0.12882 0.0
C2384 C 0.28368 0.77135 0.1452 0.0
H2385 H 0.70894 0.24621 0.10461 0.0
H2386 H 0.73666 0.17878 0.12746 0.0
H2387 H 0.77111 0.19905 0.14478 0.0
H2388 H 0.76647 0.27567 0.09294 0.0
H2389 H 0.75562 0.30333 0.10407 0.0
H2390 H 0.73576 0.28303 0.08992 0.0
H2391 H 0.70908 0.28389 0.12696 0.0
H2392 H 0.7291 0.30365 0.14149 0.0
H2393 H 0.72135 0.27608 0.15517 0.0
H2394 H 0.80034 0.22734 0.16318 0.0
H2395 H 0.82258 0.26111 0.17966 0.0
H2396 H 0.7738 0.30957 0.1468 0.0
C2397 C 0.72261 0.23558 0.11259 0.0
C2398 C 0.72023 0.2109 0.11452 0.0
C2399 C 0.73832 0.19767 0.12543 0.0
C2400 C 0.75787 0.20906 0.13545 0.0
C2401 C 0.75902 0.23358 0.13424 0.0
C2402 C 0.74198 0.24664 0.1228 0.0
C2403 C 0.74606 0.27281 0.12564 0.0
C2404 C 0.75129 0.28438 0.10172 0.0
C2405 C 0.72516 0.28479 0.13806 0.0
C2406 C 0.76764 0.27254 0.14114 0.0
C2407 C 0.77512 0.24979 0.1456 0.0
C2408 C 0.7947 0.2452 0.15965 0.0
C2409 C 0.80711 0.26439 0.169 0.0
C2410 C 0.79962 0.28776 0.16464 0.0
C2411 C 0.77956 0.29182 0.15068 0.0
loop_
_geom_bond_atom_site_label_1
_geom_bond_atom_site_label_2
_geom_bond_distance
_geom_bond_site_symmetry_2
_ccdc_geom_bond_type
C0 C1 1.351 . S
C0 N3 1.368 . S
C0 H5 0.931 . S
C1 C0 1.351 . S
C1 N2 1.373 . S
C1 H29 0.930 . S
N2 C1 1.373 . S
N2 C4 1.340 . S
N3 C0 1.368 . S
N3 C4 1.321 . S
N3 Co6 2.135 . S
C4 N2 1.340 . S
C4 N3 1.321 . S
C4 H28 0.930 . S
H5 C0 0.931 . S
Co6 N3 2.135 . S
Co6 N9 2.121 . S
Co6 O14 2.055 . S
Co6 O17 2.039 . S
Co6 N20 2.140 . S
C7 O8 1.227 . S
C7 O17 1.265 . S
O8 C7 1.227 . S
N9 Co6 2.121 . S
N9 C11 1.375 . S
N9 C12 1.313 . S
C10 C11 1.338 . S
C10 N13 1.377 . S
C10 H30 0.930 . S
C11 N9 1.375 . S
C11 C10 1.338 . S
C11 H15 0.931 . S
C12 N9 1.313 . S
C12 N13 1.344 . S
C12 H16 0.930 . S
N13 C10 1.377 . S
N13 C12 1.344 . S
O14 Co6 2.055 . S
O14 C18 1.253 . S
H15 C11 0.931 . S
H16 C12 0.930 . S
O17 Co6 2.039 . S
O17 C7 1.265 . S
C18 O14 1.253 . S
C18 O19 1.227 . S
O19 C18 1.227 . S
N20 Co6 2.140 . S
N20 C23 1.346 . S
N20 C24 1.345 . S
C21 C22 1.387 . S
C21 C25 1.391 . S
C22 C21 1.387 . S
C22 C23 1.369 . S
C22 H31 0.929 . S
C23 N20 1.346 . S
C23 C22 1.369 . S
C23 H26 0.928 . S
C24 N20 1.345 . S
C24 C25 1.371 . S
C24 H27 0.931 . S
C25 C21 1.391 . S
C25 C24 1.371 . S
C25 H32 0.930 . S
H26 C23 0.928 . S
H27 C24 0.931 . S
H28 C4 0.930 . S
H29 C1 0.930 . S
H30 C10 0.930 . S
H31 C22 0.929 . S
H32 C25 0.930 . S
C33 C34 1.351 . S
C33 N36 1.368 . S
C33 H38 0.931 . S
C34 C33 1.351 . S
C34 N35 1.373 . S
C34 H62 0.930 . S
N35 C34 1.373 . S
N35 C37 1.340 . S
N36 C33 1.368 . S
N36 C37 1.321 . S
N36 Co39 2.135 . S
C37 N35 1.340 . S
C37 N36 1.321 . S
C37 H61 0.930 . S
H38 C33 0.931 . S
Co39 N36 2.135 . S
Co39 N42 2.121 . S
Co39 O47 2.055 . S
Co39 O50 2.039 . S
Co39 N53 2.140 . S
C40 O41 1.227 . S
C40 O50 1.265 . S
O41 C40 1.227 . S
N42 Co39 2.121 . S
N42 C44 1.375 . S
N42 C45 1.313 . S
C43 C44 1.338 . S
C43 N46 1.377 . S
C43 H63 0.930 . S
C44 N42 1.375 . S
C44 C43 1.338 . S
C44 H48 0.931 . S
C45 N42 1.313 . S
C45 N46 1.344 . S
C45 H49 0.930 . S
N46 C43 1.377 . S
N46 C45 1.344 . S
O47 Co39 2.055 . S
O47 C51 1.253 . S
H48 C44 0.931 . S
H49 C45 0.930 . S
O50 Co39 2.039 . S
O50 C40 1.265 . S
C51 O47 1.253 . S
C51 O52 1.227 . S
O52 C51 1.227 . S
N53 Co39 2.140 . S
N53 C56 1.346 . S
N53 C57 1.345 . S
C54 C55 1.387 . S
C54 C58 1.391 . S
C55 C54 1.387 . S
C55 C56 1.369 . S
C55 H64 0.929 . S
C56 N53 1.346 . S
C56 C55 1.369 . S
C56 H59 0.928 . S
C57 N53 1.345 . S
C57 C58 1.371 . S
C57 H60 0.931 . S
C58 C54 1.391 . S
C58 C57 1.371 . S
C58 H65 0.930 . S
H59 C56 0.928 . S
H60 C57 0.931 . S
H61 C37 0.930 . S
H62 C34 0.930 . S
H63 C43 0.930 . S
H64 C55 0.929 . S
H65 C58 0.930 . S
C66 C67 1.351 . S
C66 N69 1.368 . S
C66 H71 0.931 . S
C67 C66 1.351 . S
C67 N68 1.373 . S
C67 H95 0.930 . S
N68 C67 1.373 . S
N68 C70 1.340 . S
N69 C66 1.368 . S
N69 C70 1.321 . S
N69 Co72 2.135 . S
C70 N68 1.340 . S
C70 N69 1.321 . S
C70 H94 0.930 . S
H71 C66 0.931 . S
Co72 N69 2.135 . S
Co72 N75 2.121 . S
Co72 O80 2.055 . S
Co72 O83 2.039 . S
Co72 N86 2.140 . S
C73 O74 1.227 . S
C73 O83 1.265 . S
O74 C73 1.227 . S
N75 Co72 2.121 . S
N75 C77 1.375 . S
N75 C78 1.313 . S
C76 C77 1.338 . S
C76 N79 1.377 . S
C76 H96 0.930 . S
C77 N75 1.375 . S
C77 C76 1.338 . S
C77 H81 0.931 . S
C78 N75 1.313 . S
C78 N79 1.344 . S
C78 H82 0.930 . S
N79 C76 1.377 . S
N79 C78 1.344 . S
O80 Co72 2.055 . S
O80 C84 1.253 . S
H81 C77 0.931 . S
H82 C78 0.930 . S
O83 Co72 2.039 . S
O83 C73 1.265 . S
C84 O80 1.253 . S
C84 O85 1.227 . S
O85 C84 1.227 . S
N86 Co72 2.140 . S
N86 C89 1.346 . S
N86 C90 1.345 . S
C87 C88 1.387 . S
C87 C91 1.391 . S
C88 C87 1.387 . S
C88 C89 1.369 . S
C88 H97 0.929 . S
C89 N86 1.346 . S
C89 C88 1.369 . S
C89 H92 0.928 . S
C90 N86 1.345 . S
C90 C91 1.371 . S
C90 H93 0.931 . S
C91 C87 1.391 . S
C91 C90 1.371 . S
C91 H98 0.930 . S
H92 C89 0.928 . S
H93 C90 0.931 . S
H94 C70 0.930 . S
H95 C67 0.930 . S
H96 C76 0.930 . S
H97 C88 0.929 . S
H98 C91 0.930 . S
C99 C100 1.351 . S
C99 N102 1.368 . S
C99 H104 0.931 . S
C100 C99 1.351 . S
C100 N101 1.373 . S
C100 H128 0.930 . S
N101 C100 1.373 . S
N101 C103 1.340 . S
N102 C99 1.368 . S
N102 C103 1.321 . S
N102 Co105 2.135 . S
C103 N101 1.340 . S
C103 N102 1.321 . S
C103 H127 0.930 . S
H104 C99 0.931 . S
Co105 N102 2.135 . S
Co105 N108 2.121 . S
Co105 O113 2.055 . S
Co105 O116 2.039 . S
Co105 N119 2.140 . S
C106 O107 1.227 . S
C106 O116 1.265 . S
O107 C106 1.227 . S
N108 Co105 2.121 . S
N108 C110 1.375 . S
N108 C111 1.313 . S
C109 C110 1.338 . S
C109 N112 1.377 . S
C109 H129 0.930 . S
C110 N108 1.375 . S
C110 C109 1.338 . S
C110 H114 0.931 . S
C111 N108 1.313 . S
C111 N112 1.344 . S
C111 H115 0.930 . S
N112 C109 1.377 . S
N112 C111 1.344 . S
O113 Co105 2.055 . S
O113 C117 1.253 . S
H114 C110 0.931 . S
H115 C111 0.930 . S
O116 Co105 2.039 . S
O116 C106 1.265 . S
C117 O113 1.253 . S
C117 O118 1.227 . S
O118 C117 1.227 . S
N119 Co105 2.140 . S
N119 C122 1.346 . S
N119 C123 1.345 . S
C120 C121 1.387 . S
C120 C124 1.391 . S
C121 C120 1.387 . S
C121 C122 1.369 . S
C121 H130 0.929 . S
C122 N119 1.346 . S
C122 C121 1.369 . S
C122 H125 0.928 . S
C123 N119 1.345 . S
C123 C124 1.371 . S
C123 H126 0.931 . S
C124 C120 1.391 . S
C124 C123 1.371 . S
C124 H131 0.930 . S
H125 C122 0.928 . S
H126 C123 0.931 . S
H127 C103 0.930 . S
H128 C100 0.930 . S
H129 C109 0.930 . S
H130 C121 0.929 . S
H131 C124 0.930 . S
C132 C133 1.351 . S
C132 N135 1.368 . S
C132 H137 0.931 . S
C133 C132 1.351 . S
C133 N134 1.373 . S
C133 H161 0.930 . S
N134 C133 1.373 . S
N134 C136 1.340 . S
N135 C132 1.368 . S
N135 C136 1.321 . S
N135 Co138 2.135 . S
C136 N134 1.340 . S
C136 N135 1.321 . S
C136 H160 0.930 . S
H137 C132 0.931 . S
Co138 N135 2.135 . S
Co138 N141 2.121 . S
Co138 O146 2.055 . S
Co138 O149 2.039 . S
Co138 N152 2.140 . S
C139 O140 1.227 . S
C139 O149 1.265 . S
O140 C139 1.227 . S
N141 Co138 2.121 . S
N141 C143 1.375 . S
N141 C144 1.313 . S
C142 C143 1.338 . S
C142 N145 1.377 . S
C142 H162 0.930 . S
C143 N141 1.375 . S
C143 C142 1.338 . S
C143 H147 0.931 . S
C144 N141 1.313 . S
C144 N145 1.344 . S
C144 H148 0.930 . S
N145 C142 1.377 . S
N145 C144 1.344 . S
O146 Co138 2.055 . S
O146 C150 1.253 . S
H147 C143 0.931 . S
H148 C144 0.930 . S
O149 Co138 2.039 . S
O149 C139 1.265 . S
C150 O146 1.253 . S
C150 O151 1.227 . S
O151 C150 1.227 . S
N152 Co138 2.140 . S
N152 C155 1.346 . S
N152 C156 1.345 . S
C153 C154 1.387 . S
C153 C157 1.391 . S
C154 C153 1.387 . S
C154 C155 1.369 . S
C154 H163 0.929 . S
C155 N152 1.346 . S
C155 C154 1.369 . S
C155 H158 0.928 . S
C156 N152 1.345 . S
C156 C157 1.371 . S
C156 H159 0.931 . S
C157 C153 1.391 . S
C157 C156 1.371 . S
C157 H164 0.930 . S
H158 C155 0.928 . S
H159 C156 0.931 . S
H160 C136 0.930 . S
H161 C133 0.930 . S
H162 C142 0.930 . S
H163 C154 0.929 . S
H164 C157 0.930 . S
C165 C166 1.351 . S
C165 N168 1.368 . S
C165 H170 0.931 . S
C166 C165 1.351 . S
C166 N167 1.373 . S
C166 H194 0.930 . S
N167 C166 1.373 . S
N167 C169 1.340 . S
N168 C165 1.368 . S
N168 C169 1.321 . S
N168 Co171 2.135 . S
C169 N167 1.340 . S
C169 N168 1.321 . S
C169 H193 0.930 . S
H170 C165 0.931 . S
Co171 N168 2.135 . S
Co171 N174 2.121 . S
Co171 O179 2.055 . S
Co171 O182 2.039 . S
Co171 N185 2.140 . S
C172 O173 1.227 . S
C172 O182 1.265 . S
O173 C172 1.227 . S
N174 Co171 2.121 . S
N174 C176 1.375 . S
N174 C177 1.313 . S
C175 C176 1.338 . S
C175 N178 1.377 . S
C175 H195 0.930 . S
C176 N174 1.375 . S
C176 C175 1.338 . S
C176 H180 0.931 . S
C177 N174 1.313 . S
C177 N178 1.344 . S
C177 H181 0.930 . S
N178 C175 1.377 . S
N178 C177 1.344 . S
O179 Co171 2.055 . S
O179 C183 1.253 . S
H180 C176 0.931 . S
H181 C177 0.930 . S
O182 Co171 2.039 . S
O182 C172 1.265 . S
C183 O179 1.253 . S
C183 O184 1.227 . S
O184 C183 1.227 . S
N185 Co171 2.140 . S
N185 C188 1.346 . S
N185 C189 1.345 . S
C186 C187 1.387 . S
C186 C190 1.391 . S
C187 C186 1.387 . S
C187 C188 1.369 . S
C187 H196 0.929 . S
C188 N185 1.346 . S
C188 C187 1.369 . S
C188 H191 0.928 . S
C189 N185 1.345 . S
C189 C190 1.371 . S
C189 H192 0.931 . S
C190 C186 1.391 . S
C190 C189 1.371 . S
C190 H197 0.930 . S
H191 C188 0.928 . S
H192 C189 0.931 . S
H193 C169 0.930 . S
H194 C166 0.930 . S
H195 C175 0.930 . S
H196 C187 0.929 . S
H197 C190 0.930 . S
C198 C199 1.351 . S
C198 N201 1.368 . S
C198 H203 0.931 . S
C199 C198 1.351 . S
C199 N200 1.373 . S
C199 H227 0.930 . S
N200 C199 1.373 . S
N200 C202 1.340 . S
N201 C198 1.368 . S
N201 C202 1.321 . S
N201 Co204 2.135 . S
C202 N200 1.340 . S
C202 N201 1.321 . S
C202 H226 0.930 . S
H203 C198 0.931 . S
Co204 N201 2.135 . S
Co204 N207 2.121 . S
Co204 O212 2.055 . S
Co204 O215 2.039 . S
Co204 N218 2.140 . S
C205 O206 1.227 . S
C205 O215 1.265 . S
O206 C205 1.227 . S
N207 Co204 2.121 . S
N207 C209 1.375 . S
N207 C210 1.313 . S
C208 C209 1.338 . S
C208 N211 1.377 . S
C208 H228 0.930 . S
C209 N207 1.375 . S
C209 C208 1.338 . S
C209 H213 0.931 . S
C210 N207 1.313 . S
C210 N211 1.344 . S
C210 H214 0.930 . S
N211 C208 1.377 . S
N211 C210 1.344 . S
O212 Co204 2.055 . S
O212 C216 1.253 . S
H213 C209 0.931 . S
H214 C210 0.930 . S
O215 Co204 2.039 . S
O215 C205 1.265 . S
C216 O212 1.253 . S
C216 O217 1.227 . S
O217 C216 1.227 . S
N218 Co204 2.140 . S
N218 C221 1.346 . S
N218 C222 1.345 . S
C219 C220 1.387 . S
C219 C223 1.391 . S
C220 C219 1.387 . S
C220 C221 1.369 . S
C220 H229 0.929 . S
C221 N218 1.346 . S
C221 C220 1.369 . S
C221 H224 0.928 . S
C222 N218 1.345 . S
C222 C223 1.371 . S
C222 H225 0.931 . S
C223 C219 1.391 . S
C223 C222 1.371 . S
C223 H230 0.930 . S
H224 C221 0.928 . S
H225 C222 0.931 . S
H226 C202 0.930 . S
H227 C199 0.930 . S
H228 C208 0.930 . S
H229 C220 0.929 . S
H230 C223 0.930 . S
C231 C232 1.351 . S
C231 N234 1.368 . S
C231 H236 0.931 . S
C232 C231 1.351 . S
C232 N233 1.373 . S
C232 H260 0.930 . S
N233 C232 1.373 . S
N233 C235 1.340 . S
N234 C231 1.368 . S
N234 C235 1.321 . S
N234 Co237 2.135 . S
C235 N233 1.340 . S
C235 N234 1.321 . S
C235 H259 0.930 . S
H236 C231 0.931 . S
Co237 N234 2.135 . S
Co237 N240 2.121 . S
Co237 O245 2.055 . S
Co237 O248 2.039 . S
Co237 N251 2.140 . S
C238 O239 1.227 . S
C238 O248 1.265 . S
O239 C238 1.227 . S
N240 Co237 2.121 . S
N240 C242 1.375 . S
N240 C243 1.313 . S
C241 C242 1.338 . S
C241 N244 1.377 . S
C241 H261 0.930 . S
C242 N240 1.375 . S
C242 C241 1.338 . S
C242 H246 0.931 . S
C243 N240 1.313 . S
C243 N244 1.344 . S
C243 H247 0.930 . S
N244 C241 1.377 . S
N244 C243 1.344 . S
O245 Co237 2.055 . S
O245 C249 1.253 . S
H246 C242 0.931 . S
H247 C243 0.930 . S
O248 Co237 2.039 . S
O248 C238 1.265 . S
C249 O245 1.253 . S
C249 O250 1.227 . S
O250 C249 1.227 . S
N251 Co237 2.140 . S
N251 C254 1.346 . S
N251 C255 1.345 . S
C252 C253 1.387 . S
C252 C256 1.391 . S
C253 C252 1.387 . S
C253 C254 1.369 . S
C253 H262 0.929 . S
C254 N251 1.346 . S
C254 C253 1.369 . S
C254 H257 0.928 . S
C255 N251 1.345 . S
C255 C256 1.371 . S
C255 H258 0.931 . S
C256 C252 1.391 . S
C256 C255 1.371 . S
C256 H263 0.930 . S
H257 C254 0.928 . S
H258 C255 0.931 . S
H259 C235 0.930 . S
H260 C232 0.930 . S
H261 C241 0.930 . S
H262 C253 0.929 . S
H263 C256 0.930 . S
C264 C265 1.351 . S
C264 N267 1.368 . S
C264 H269 0.931 . S
C265 C264 1.351 . S
C265 N266 1.373 . S
C265 H293 0.930 . S
N266 C265 1.373 . S
N266 C268 1.340 . S
N267 C264 1.368 . S
N267 C268 1.321 . S
N267 Co270 2.135 . S
C268 N266 1.340 . S
C268 N267 1.321 . S
C268 H292 0.930 . S
H269 C264 0.931 . S
Co270 N267 2.135 . S
Co270 N273 2.121 . S
Co270 O278 2.055 . S
Co270 O281 2.039 . S
Co270 N284 2.140 . S
C271 O272 1.227 . S
C271 O281 1.265 . S
O272 C271 1.227 . S
N273 Co270 2.121 . S
N273 C275 1.375 . S
N273 C276 1.313 . S
C274 C275 1.338 . S
C274 N277 1.377 . S
C274 H294 0.930 . S
C275 N273 1.375 . S
C275 C274 1.338 . S
C275 H279 0.931 . S
C276 N273 1.313 . S
C276 N277 1.344 . S
C276 H280 0.930 . S
N277 C274 1.377 . S
N277 C276 1.344 . S
O278 Co270 2.055 . S
O278 C282 1.253 . S
H279 C275 0.931 . S
H280 C276 0.930 . S
O281 Co270 2.039 . S
O281 C271 1.265 . S
C282 O278 1.253 . S
C282 O283 1.227 . S
O283 C282 1.227 . S
N284 Co270 2.140 . S
N284 C287 1.346 . S
N284 C288 1.345 . S
C285 C286 1.387 . S
C285 C289 1.391 . S
C286 C285 1.387 . S
C286 C287 1.369 . S
C286 H295 0.929 . S
C287 N284 1.346 . S
C287 C286 1.369 . S
C287 H290 0.928 . S
C288 N284 1.345 . S
C288 C289 1.371 . S
C288 H291 0.931 . S
C289 C285 1.391 . S
C289 C288 1.371 . S
C289 H296 0.930 . S
H290 C287 0.928 . S
H291 C288 0.931 . S
H292 C268 0.930 . S
H293 C265 0.930 . S
H294 C274 0.930 . S
H295 C286 0.929 . S
H296 C289 0.930 . S
C297 C298 1.351 . S
C297 N300 1.368 . S
C297 H302 0.931 . S
C298 C297 1.351 . S
C298 N299 1.373 . S
C298 H326 0.930 . S
N299 C298 1.373 . S
N299 C301 1.340 . S
N300 C297 1.368 . S
N300 C301 1.321 . S
N300 Co303 2.135 . S
C301 N299 1.340 . S
C301 N300 1.321 . S
C301 H325 0.930 . S
H302 C297 0.931 . S
Co303 N300 2.135 . S
Co303 N306 2.121 . S
Co303 O311 2.055 . S
Co303 O314 2.039 . S
Co303 N317 2.140 . S
C304 O305 1.227 . S
C304 O314 1.265 . S
O305 C304 1.227 . S
N306 Co303 2.121 . S
N306 C308 1.375 . S
N306 C309 1.313 . S
C307 C308 1.338 . S
C307 N310 1.377 . S
C307 H327 0.930 . S
C308 N306 1.375 . S
C308 C307 1.338 . S
C308 H312 0.931 . S
C309 N306 1.313 . S
C309 N310 1.344 . S
C309 H313 0.930 . S
N310 C307 1.377 . S
N310 C309 1.344 . S
O311 Co303 2.055 . S
O311 C315 1.253 . S
H312 C308 0.931 . S
H313 C309 0.930 . S
O314 Co303 2.039 . S
O314 C304 1.265 . S
C315 O311 1.253 . S
C315 O316 1.227 . S
O316 C315 1.227 . S
N317 Co303 2.140 . S
N317 C320 1.346 . S
N317 C321 1.345 . S
C318 C319 1.387 . S
C318 C322 1.391 . S
C319 C318 1.387 . S
C319 C320 1.369 . S
C319 H328 0.929 . S
C320 N317 1.346 . S
C320 C319 1.369 . S
C320 H323 0.928 . S
C321 N317 1.345 . S
C321 C322 1.371 . S
C321 H324 0.931 . S
C322 C318 1.391 . S
C322 C321 1.371 . S
C322 H329 0.930 . S
H323 C320 0.928 . S
H324 C321 0.931 . S
H325 C301 0.930 . S
H326 C298 0.930 . S
H327 C307 0.930 . S
H328 C319 0.929 . S
H329 C322 0.930 . S
C330 C331 1.351 . S
C330 N333 1.368 . S
C330 H335 0.931 . S
C331 C330 1.351 . S
C331 N332 1.373 . S
C331 H359 0.930 . S
N332 C331 1.373 . S
N332 C334 1.340 . S
N333 C330 1.368 . S
N333 C334 1.321 . S
N333 Co336 2.135 . S
C334 N332 1.340 . S
C334 N333 1.321 . S
C334 H358 0.930 . S
H335 C330 0.931 . S
Co336 N333 2.135 . S
Co336 N339 2.121 . S
Co336 O344 2.055 . S
Co336 O347 2.039 . S
Co336 N350 2.140 . S
C337 O338 1.227 . S
C337 O347 1.265 . S
O338 C337 1.227 . S
N339 Co336 2.121 . S
N339 C341 1.375 . S
N339 C342 1.313 . S
C340 C341 1.338 . S
C340 N343 1.377 . S
C340 H360 0.930 . S
C341 N339 1.375 . S
C341 C340 1.338 . S
C341 H345 0.931 . S
C342 N339 1.313 . S
C342 N343 1.344 . S
C342 H346 0.930 . S
N343 C340 1.377 . S
N343 C342 1.344 . S
O344 Co336 2.055 . S
O344 C348 1.253 . S
H345 C341 0.931 . S
H346 C342 0.930 . S
O347 Co336 2.039 . S
O347 C337 1.265 . S
C348 O344 1.253 . S
C348 O349 1.227 . S
O349 C348 1.227 . S
N350 Co336 2.140 . S
N350 C353 1.346 . S
N350 C354 1.345 . S
C351 C352 1.387 . S
C351 C355 1.391 . S
C352 C351 1.387 . S
C352 C353 1.369 . S
C352 H361 0.929 . S
C353 N350 1.346 . S
C353 C352 1.369 . S
C353 H356 0.928 . S
C354 N350 1.345 . S
C354 C355 1.371 . S
C354 H357 0.931 . S
C355 C351 1.391 . S
C355 C354 1.371 . S
C355 H362 0.930 . S
H356 C353 0.928 . S
H357 C354 0.931 . S
H358 C334 0.930 . S
H359 C331 0.930 . S
H360 C340 0.930 . S
H361 C352 0.929 . S
H362 C355 0.930 . S
C363 C364 1.351 . S
C363 N366 1.368 . S
C363 H368 0.931 . S
C364 C363 1.351 . S
C364 N365 1.373 . S
C364 H392 0.930 . S
N365 C364 1.373 . S
N365 C367 1.340 . S
N366 C363 1.368 . S
N366 C367 1.321 . S
N366 Co369 2.135 . S
C367 N365 1.340 . S
C367 N366 1.321 . S
C367 H391 0.930 . S
H368 C363 0.931 . S
Co369 N366 2.135 . S
Co369 N372 2.121 . S
Co369 O377 2.055 . S
Co369 O380 2.039 . S
Co369 N383 2.140 . S
C370 O371 1.227 . S
C370 O380 1.265 . S
O371 C370 1.227 . S
N372 Co369 2.121 . S
N372 C374 1.375 . S
N372 C375 1.313 . S
C373 C374 1.338 . S
C373 N376 1.377 . S
C373 H393 0.930 . S
C374 N372 1.375 . S
C374 C373 1.338 . S
C374 H378 0.931 . S
C375 N372 1.313 . S
C375 N376 1.344 . S
C375 H379 0.930 . S
N376 C373 1.377 . S
N376 C375 1.344 . S
O377 Co369 2.055 . S
O377 C381 1.253 . S
H378 C374 0.931 . S
H379 C375 0.930 . S
O380 Co369 2.039 . S
O380 C370 1.265 . S
C381 O377 1.253 . S
C381 O382 1.227 . S
O382 C381 1.227 . S
N383 Co369 2.140 . S
N383 C386 1.346 . S
N383 C387 1.345 . S
C384 C385 1.387 . S
C384 C388 1.391 . S
C385 C384 1.387 . S
C385 C386 1.369 . S
C385 H394 0.929 . S
C386 N383 1.346 . S
C386 C385 1.369 . S
C386 H389 0.928 . S
C387 N383 1.345 . S
C387 C388 1.371 . S
C387 H390 0.931 . S
C388 C384 1.391 . S
C388 C387 1.371 . S
C388 H395 0.930 . S
H389 C386 0.928 . S
H390 C387 0.931 . S
H391 C367 0.930 . S
H392 C364 0.930 . S
H393 C373 0.930 . S
H394 C385 0.929 . S
H395 C388 0.930 . S
C396 C397 1.351 . S
C396 N399 1.368 . S
C396 H401 0.931 . S
C397 C396 1.351 . S
C397 N398 1.373 . S
C397 H425 0.930 . S
N398 C397 1.373 . S
N398 C400 1.340 . S
N399 C396 1.368 . S
N399 C400 1.321 . S
N399 Co402 2.135 . S
C400 N398 1.340 . S
C400 N399 1.321 . S
C400 H424 0.930 . S
H401 C396 0.931 . S
Co402 N399 2.135 . S
Co402 N405 2.121 . S
Co402 O410 2.055 . S
Co402 O413 2.039 . S
Co402 N416 2.140 . S
C403 O404 1.227 . S
C403 O413 1.265 . S
O404 C403 1.227 . S
N405 Co402 2.121 . S
N405 C407 1.375 . S
N405 C408 1.313 . S
C406 C407 1.338 . S
C406 N409 1.377 . S
C406 H426 0.930 . S
C407 N405 1.375 . S
C407 C406 1.338 . S
C407 H411 0.931 . S
C408 N405 1.313 . S
C408 N409 1.344 . S
C408 H412 0.930 . S
N409 C406 1.377 . S
N409 C408 1.344 . S
O410 Co402 2.055 . S
O410 C414 1.253 . S
H411 C407 0.931 . S
H412 C408 0.930 . S
O413 Co402 2.039 . S
O413 C403 1.265 . S
C414 O410 1.253 . S
C414 O415 1.227 . S
O415 C414 1.227 . S
N416 Co402 2.140 . S
N416 C419 1.346 . S
N416 C420 1.345 . S
C417 C418 1.387 . S
C417 C421 1.391 . S
C418 C417 1.387 . S
C418 C419 1.369 . S
C418 H427 0.929 . S
C419 N416 1.346 . S
C419 C418 1.369 . S
C419 H422 0.928 . S
C420 N416 1.345 . S
C420 C421 1.371 . S
C420 H423 0.931 . S
C421 C417 1.391 . S
C421 C420 1.371 . S
C421 H428 0.930 . S
H422 C419 0.928 . S
H423 C420 0.931 . S
H424 C400 0.930 . S
H425 C397 0.930 . S
H426 C406 0.930 . S
H427 C418 0.929 . S
H428 C421 0.930 . S
C429 C430 1.351 . S
C429 N432 1.368 . S
C429 H434 0.931 . S
C430 C429 1.351 . S
C430 N431 1.373 . S
C430 H458 0.930 . S
N431 C430 1.373 . S
N431 C433 1.340 . S
N432 C429 1.368 . S
N432 C433 1.321 . S
N432 Co435 2.135 . S
C433 N431 1.340 . S
C433 N432 1.321 . S
C433 H457 0.930 . S
H434 C429 0.931 . S
Co435 N432 2.135 . S
Co435 N438 2.121 . S
Co435 O443 2.055 . S
Co435 O446 2.039 . S
Co435 N449 2.140 . S
C436 O437 1.227 . S
C436 O446 1.265 . S
O437 C436 1.227 . S
N438 Co435 2.121 . S
N438 C440 1.375 . S
N438 C441 1.313 . S
C439 C440 1.338 . S
C439 N442 1.377 . S
C439 H459 0.930 . S
C440 N438 1.375 . S
C440 C439 1.338 . S
C440 H444 0.931 . S
C441 N438 1.313 . S
C441 N442 1.344 . S
C441 H445 0.930 . S
N442 C439 1.377 . S
N442 C441 1.344 . S
O443 Co435 2.055 . S
O443 C447 1.253 . S
H444 C440 0.931 . S
H445 C441 0.930 . S
O446 Co435 2.039 . S
O446 C436 1.265 . S
C447 O443 1.253 . S
C447 O448 1.227 . S
O448 C447 1.227 . S
N449 Co435 2.140 . S
N449 C452 1.346 . S
N449 C453 1.345 . S
C450 C451 1.387 . S
C450 C454 1.391 . S
C451 C450 1.387 . S
C451 C452 1.369 . S
C451 H460 0.929 . S
C452 N449 1.346 . S
C452 C451 1.369 . S
C452 H455 0.928 . S
C453 N449 1.345 . S
C453 C454 1.371 . S
C453 H456 0.931 . S
C454 C450 1.391 . S
C454 C453 1.371 . S
C454 H461 0.930 . S
H455 C452 0.928 . S
H456 C453 0.931 . S
H457 C433 0.930 . S
H458 C430 0.930 . S
H459 C439 0.930 . S
H460 C451 0.929 . S
H461 C454 0.930 . S
C462 C463 1.351 . S
C462 N465 1.368 . S
C462 H467 0.931 . S
C463 C462 1.351 . S
C463 N464 1.373 . S
C463 H491 0.930 . S
N464 C463 1.373 . S
N464 C466 1.340 . S
N465 C462 1.368 . S
N465 C466 1.321 . S
N465 Co468 2.135 . S
C466 N464 1.340 . S
C466 N465 1.321 . S
C466 H490 0.930 . S
H467 C462 0.931 . S
Co468 N465 2.135 . S
Co468 N471 2.121 . S
Co468 O476 2.055 . S
Co468 O479 2.039 . S
Co468 N482 2.140 . S
C469 O470 1.227 . S
C469 O479 1.265 . S
O470 C469 1.227 . S
N471 Co468 2.121 . S
N471 C473 1.375 . S
N471 C474 1.313 . S
C472 C473 1.338 . S
C472 N475 1.377 . S
C472 H492 0.930 . S
C473 N471 1.375 . S
C473 C472 1.338 . S
C473 H477 0.931 . S
C474 N471 1.313 . S
C474 N475 1.344 . S
C474 H478 0.930 . S
N475 C472 1.377 . S
N475 C474 1.344 . S
O476 Co468 2.055 . S
O476 C480 1.253 . S
H477 C473 0.931 . S
H478 C474 0.930 . S
O479 Co468 2.039 . S
O479 C469 1.265 . S
C480 O476 1.253 . S
C480 O481 1.227 . S
O481 C480 1.227 . S
N482 Co468 2.140 . S
N482 C485 1.346 . S
N482 C486 1.345 . S
C483 C484 1.387 . S
C483 C487 1.391 . S
C484 C483 1.387 . S
C484 C485 1.369 . S
C484 H493 0.929 . S
C485 N482 1.346 . S
C485 C484 1.369 . S
C485 H488 0.928 . S
C486 N482 1.345 . S
C486 C487 1.371 . S
C486 H489 0.931 . S
C487 C483 1.391 . S
C487 C486 1.371 . S
C487 H494 0.930 . S
H488 C485 0.928 . S
H489 C486 0.931 . S
H490 C466 0.930 . S
H491 C463 0.930 . S
H492 C472 0.930 . S
H493 C484 0.929 . S
H494 C487 0.930 . S
C495 C496 1.351 . S
C495 N498 1.368 . S
C495 H500 0.931 . S
C496 C495 1.351 . S
C496 N497 1.373 . S
C496 H524 0.930 . S
N497 C496 1.373 . S
N497 C499 1.340 . S
N498 C495 1.368 . S
N498 C499 1.321 . S
N498 Co501 2.135 . S
C499 N497 1.340 . S
C499 N498 1.321 . S
C499 H523 0.930 . S
H500 C495 0.931 . S
Co501 N498 2.135 . S
Co501 N504 2.121 . S
Co501 O509 2.055 . S
Co501 O512 2.039 . S
Co501 N515 2.140 . S
C502 O503 1.227 . S
C502 O512 1.265 . S
O503 C502 1.227 . S
N504 Co501 2.121 . S
N504 C506 1.375 . S
N504 C507 1.313 . S
C505 C506 1.338 . S
C505 N508 1.377 . S
C505 H525 0.930 . S
C506 N504 1.375 . S
C506 C505 1.338 . S
C506 H510 0.931 . S
C507 N504 1.313 . S
C507 N508 1.344 . S
C507 H511 0.930 . S
N508 C505 1.377 . S
N508 C507 1.344 . S
O509 Co501 2.055 . S
O509 C513 1.253 . S
H510 C506 0.931 . S
H511 C507 0.930 . S
O512 Co501 2.039 . S
O512 C502 1.265 . S
C513 O509 1.253 . S
C513 O514 1.227 . S
O514 C513 1.227 . S
N515 Co501 2.140 . S
N515 C518 1.346 . S
N515 C519 1.345 . S
C516 C517 1.387 . S
C516 C520 1.391 . S
C517 C516 1.387 . S
C517 C518 1.369 . S
C517 H526 0.929 . S
C518 N515 1.346 . S
C518 C517 1.369 . S
C518 H521 0.928 . S
C519 N515 1.345 . S
C519 C520 1.371 . S
C519 H522 0.931 . S
C520 C516 1.391 . S
C520 C519 1.371 . S
C520 H527 0.930 . S
H521 C518 0.928 . S
H522 C519 0.931 . S
H523 C499 0.930 . S
H524 C496 0.930 . S
H525 C505 0.930 . S
H526 C517 0.929 . S
H527 C520 0.930 . S
C528 C529 1.351 . S
C528 N531 1.368 . S
C528 H533 0.931 . S
C529 C528 1.351 . S
C529 N530 1.373 . S
C529 H557 0.930 . S
N530 C529 1.373 . S
N530 C532 1.340 . S
N531 C528 1.368 . S
N531 C532 1.321 . S
N531 Co534 2.135 . S
C532 N530 1.340 . S
C532 N531 1.321 . S
C532 H556 0.930 . S
H533 C528 0.931 . S
Co534 N531 2.135 . S
Co534 N537 2.121 . S
Co534 O542 2.055 . S
Co534 O545 2.039 . S
Co534 N548 2.140 . S
C535 O536 1.227 . S
C535 O545 1.265 . S
O536 C535 1.227 . S
N537 Co534 2.121 . S
N537 C539 1.375 . S
N537 C540 1.313 . S
C538 C539 1.338 . S
C538 N541 1.377 . S
C538 H558 0.930 . S
C539 N537 1.375 . S
C539 C538 1.338 . S
C539 H543 0.931 . S
C540 N537 1.313 . S
C540 N541 1.344 . S
C540 H544 0.930 . S
N541 C538 1.377 . S
N541 C540 1.344 . S
O542 Co534 2.055 . S
O542 C546 1.253 . S
H543 C539 0.931 . S
H544 C540 0.930 . S
O545 Co534 2.039 . S
O545 C535 1.265 . S
C546 O542 1.253 . S
C546 O547 1.227 . S
O547 C546 1.227 . S
N548 Co534 2.140 . S
N548 C551 1.346 . S
N548 C552 1.345 . S
C549 C550 1.387 . S
C549 C553 1.391 . S
C550 C549 1.387 . S
C550 C551 1.369 . S
C550 H559 0.929 . S
C551 N548 1.346 . S
C551 C550 1.369 . S
C551 H554 0.928 . S
C552 N548 1.345 . S
C552 C553 1.371 . S
C552 H555 0.931 . S
C553 C549 1.391 . S
C553 C552 1.371 . S
C553 H560 0.930 . S
H554 C551 0.928 . S
H555 C552 0.931 . S
H556 C532 0.930 . S
H557 C529 0.930 . S
H558 C538 0.930 . S
H559 C550 0.929 . S
H560 C553 0.930 . S
C561 C562 1.351 . S
C561 N564 1.368 . S
C561 H566 0.931 . S
C562 C561 1.351 . S
C562 N563 1.373 . S
C562 H590 0.930 . S
N563 C562 1.373 . S
N563 C565 1.340 . S
N564 C561 1.368 . S
N564 C565 1.321 . S
N564 Co567 2.135 . S
C565 N563 1.340 . S
C565 N564 1.321 . S
C565 H589 0.930 . S
H566 C561 0.931 . S
Co567 N564 2.135 . S
Co567 N570 2.121 . S
Co567 O575 2.055 . S
Co567 O578 2.039 . S
Co567 N581 2.140 . S
C568 O569 1.227 . S
C568 O578 1.265 . S
O569 C568 1.227 . S
N570 Co567 2.121 . S
N570 C572 1.375 . S
N570 C573 1.313 . S
C571 C572 1.338 . S
C571 N574 1.377 . S
C571 H591 0.930 . S
C572 N570 1.375 . S
C572 C571 1.338 . S
C572 H576 0.931 . S
C573 N570 1.313 . S
C573 N574 1.344 . S
C573 H577 0.930 . S
N574 C571 1.377 . S
N574 C573 1.344 . S
O575 Co567 2.055 . S
O575 C579 1.253 . S
H576 C572 0.931 . S
H577 C573 0.930 . S
O578 Co567 2.039 . S
O578 C568 1.265 . S
C579 O575 1.253 . S
C579 O580 1.227 . S
O580 C579 1.227 . S
N581 Co567 2.140 . S
N581 C584 1.346 . S
N581 C585 1.345 . S
C582 C583 1.387 . S
C582 C586 1.391 . S
C583 C582 1.387 . S
C583 C584 1.369 . S
C583 H592 0.929 . S
C584 N581 1.346 . S
C584 C583 1.369 . S
C584 H587 0.928 . S
C585 N581 1.345 . S
C585 C586 1.371 . S
C585 H588 0.931 . S
C586 C582 1.391 . S
C586 C585 1.371 . S
C586 H593 0.930 . S
H587 C584 0.928 . S
H588 C585 0.931 . S
H589 C565 0.930 . S
H590 C562 0.930 . S
H591 C571 0.930 . S
H592 C583 0.929 . S
H593 C586 0.930 . S
C594 C595 1.351 . S
C594 N597 1.368 . S
C594 H599 0.931 . S
C595 C594 1.351 . S
C595 N596 1.373 . S
C595 H623 0.930 . S
N596 C595 1.373 . S
N596 C598 1.340 . S
N597 C594 1.368 . S
N597 C598 1.321 . S
N597 Co600 2.135 . S
C598 N596 1.340 . S
C598 N597 1.321 . S
C598 H622 0.930 . S
H599 C594 0.931 . S
Co600 N597 2.135 . S
Co600 N603 2.121 . S
Co600 O608 2.055 . S
Co600 O611 2.039 . S
Co600 N614 2.140 . S
C601 O602 1.227 . S
C601 O611 1.265 . S
O602 C601 1.227 . S
N603 Co600 2.121 . S
N603 C605 1.375 . S
N603 C606 1.313 . S
C604 C605 1.338 . S
C604 N607 1.377 . S
C604 H624 0.930 . S
C605 N603 1.375 . S
C605 C604 1.338 . S
C605 H609 0.931 . S
C606 N603 1.313 . S
C606 N607 1.344 . S
C606 H610 0.930 . S
N607 C604 1.377 . S
N607 C606 1.344 . S
O608 Co600 2.055 . S
O608 C612 1.253 . S
H609 C605 0.931 . S
H610 C606 0.930 . S
O611 Co600 2.039 . S
O611 C601 1.265 . S
C612 O608 1.253 . S
C612 O613 1.227 . S
O613 C612 1.227 . S
N614 Co600 2.140 . S
N614 C617 1.346 . S
N614 C618 1.345 . S
C615 C616 1.387 . S
C615 C619 1.391 . S
C616 C615 1.387 . S
C616 C617 1.369 . S
C616 H625 0.929 . S
C617 N614 1.346 . S
C617 C616 1.369 . S
C617 H620 0.928 . S
C618 N614 1.345 . S
C618 C619 1.371 . S
C618 H621 0.931 . S
C619 C615 1.391 . S
C619 C618 1.371 . S
C619 H626 0.930 . S
H620 C617 0.928 . S
H621 C618 0.931 . S
H622 C598 0.930 . S
H623 C595 0.930 . S
H624 C604 0.930 . S
H625 C616 0.929 . S
H626 C619 0.930 . S
C627 C628 1.351 . S
C627 N630 1.368 . S
C627 H632 0.931 . S
C628 C627 1.351 . S
C628 N629 1.373 . S
C628 H656 0.930 . S
N629 C628 1.373 . S
N629 C631 1.340 . S
N630 C627 1.368 . S
N630 C631 1.321 . S
N630 Co633 2.135 . S
C631 N629 1.340 . S
C631 N630 1.321 . S
C631 H655 0.930 . S
H632 C627 0.931 . S
Co633 N630 2.135 . S
Co633 N636 2.121 . S
Co633 O641 2.055 . S
Co633 O644 2.039 . S
Co633 N647 2.140 . S
C634 O635 1.227 . S
C634 O644 1.265 . S
O635 C634 1.227 . S
N636 Co633 2.121 . S
N636 C638 1.375 . S
N636 C639 1.313 . S
C637 C638 1.338 . S
C637 N640 1.377 . S
C637 H657 0.930 . S
C638 N636 1.375 . S
C638 C637 1.338 . S
C638 H642 0.931 . S
C639 N636 1.313 . S
C639 N640 1.344 . S
C639 H643 0.930 . S
N640 C637 1.377 . S
N640 C639 1.344 . S
O641 Co633 2.055 . S
O641 C645 1.253 . S
H642 C638 0.931 . S
H643 C639 0.930 . S
O644 Co633 2.039 . S
O644 C634 1.265 . S
C645 O641 1.253 . S
C645 O646 1.227 . S
O646 C645 1.227 . S
N647 Co633 2.140 . S
N647 C650 1.346 . S
N647 C651 1.345 . S
C648 C649 1.387 . S
C648 C652 1.391 . S
C649 C648 1.387 . S
C649 C650 1.369 . S
C649 H658 0.929 . S
C650 N647 1.346 . S
C650 C649 1.369 . S
C650 H653 0.928 . S
C651 N647 1.345 . S
C651 C652 1.371 . S
C651 H654 0.931 . S
C652 C648 1.391 . S
C652 C651 1.371 . S
C652 H659 0.930 . S
H653 C650 0.928 . S
H654 C651 0.931 . S
H655 C631 0.930 . S
H656 C628 0.930 . S
H657 C637 0.930 . S
H658 C649 0.929 . S
H659 C652 0.930 . S
C660 C661 1.351 . S
C660 N663 1.368 . S
C660 H665 0.931 . S
C661 C660 1.351 . S
C661 N662 1.373 . S
C661 H689 0.930 . S
N662 C661 1.373 . S
N662 C664 1.340 . S
N663 C660 1.368 . S
N663 C664 1.321 . S
N663 Co666 2.135 . S
C664 N662 1.340 . S
C664 N663 1.321 . S
C664 H688 0.930 . S
H665 C660 0.931 . S
Co666 N663 2.135 . S
Co666 N669 2.121 . S
Co666 O674 2.055 . S
Co666 O677 2.039 . S
Co666 N680 2.140 . S
C667 O668 1.227 . S
C667 O677 1.265 . S
O668 C667 1.227 . S
N669 Co666 2.121 . S
N669 C671 1.375 . S
N669 C672 1.313 . S
C670 C671 1.338 . S
C670 N673 1.377 . S
C670 H690 0.930 . S
C671 N669 1.375 . S
C671 C670 1.338 . S
C671 H675 0.931 . S
C672 N669 1.313 . S
C672 N673 1.344 . S
C672 H676 0.930 . S
N673 C670 1.377 . S
N673 C672 1.344 . S
O674 Co666 2.055 . S
O674 C678 1.253 . S
H675 C671 0.931 . S
H676 C672 0.930 . S
O677 Co666 2.039 . S
O677 C667 1.265 . S
C678 O674 1.253 . S
C678 O679 1.227 . S
O679 C678 1.227 . S
N680 Co666 2.140 . S
N680 C683 1.346 . S
N680 C684 1.345 . S
C681 C682 1.387 . S
C681 C685 1.391 . S
C682 C681 1.387 . S
C682 C683 1.369 . S
C682 H691 0.929 . S
C683 N680 1.346 . S
C683 C682 1.369 . S
C683 H686 0.928 . S
C684 N680 1.345 . S
C684 C685 1.371 . S
C684 H687 0.931 . S
C685 C681 1.391 . S
C685 C684 1.371 . S
C685 H692 0.930 . S
H686 C683 0.928 . S
H687 C684 0.931 . S
H688 C664 0.930 . S
H689 C661 0.930 . S
H690 C670 0.930 . S
H691 C682 0.929 . S
H692 C685 0.930 . S
C693 C694 1.351 . S
C693 N696 1.368 . S
C693 H698 0.931 . S
C694 C693 1.351 . S
C694 N695 1.373 . S
C694 H722 0.930 . S
N695 C694 1.373 . S
N695 C697 1.340 . S
N696 C693 1.368 . S
N696 C697 1.321 . S
N696 Co699 2.135 . S
C697 N695 1.340 . S
C697 N696 1.321 . S
C697 H721 0.930 . S
H698 C693 0.931 . S
Co699 N696 2.135 . S
Co699 N702 2.121 . S
Co699 O707 2.055 . S
Co699 O710 2.039 . S
Co699 N713 2.140 . S
C700 O701 1.227 . S
C700 O710 1.265 . S
O701 C700 1.227 . S
N702 Co699 2.121 . S
N702 C704 1.375 . S
N702 C705 1.313 . S
C703 C704 1.338 . S
C703 N706 1.377 . S
C703 H723 0.930 . S
C704 N702 1.375 . S
C704 C703 1.338 . S
C704 H708 0.931 . S
C705 N702 1.313 . S
C705 N706 1.344 . S
C705 H709 0.930 . S
N706 C703 1.377 . S
N706 C705 1.344 . S
O707 Co699 2.055 . S
O707 C711 1.253 . S
H708 C704 0.931 . S
H709 C705 0.930 . S
O710 Co699 2.039 . S
O710 C700 1.265 . S
C711 O707 1.253 . S
C711 O712 1.227 . S
O712 C711 1.227 . S
N713 Co699 2.140 . S
N713 C716 1.346 . S
N713 C717 1.345 . S
C714 C715 1.387 . S
C714 C718 1.391 . S
C715 C714 1.387 . S
C715 C716 1.369 . S
C715 H724 0.929 . S
C716 N713 1.346 . S
C716 C715 1.369 . S
C716 H719 0.928 . S
C717 N713 1.345 . S
C717 C718 1.371 . S
C717 H720 0.931 . S
C718 C714 1.391 . S
C718 C717 1.371 . S
C718 H725 0.930 . S
H719 C716 0.928 . S
H720 C717 0.931 . S
H721 C697 0.930 . S
H722 C694 0.930 . S
H723 C703 0.930 . S
H724 C715 0.929 . S
H725 C718 0.930 . S
C726 C727 1.351 . S
C726 N729 1.368 . S
C726 H731 0.931 . S
C727 C726 1.351 . S
C727 N728 1.373 . S
C727 H755 0.930 . S
N728 C727 1.373 . S
N728 C730 1.340 . S
N729 C726 1.368 . S
N729 C730 1.321 . S
N729 Co732 2.135 . S
C730 N728 1.340 . S
C730 N729 1.321 . S
C730 H754 0.930 . S
H731 C726 0.931 . S
Co732 N729 2.135 . S
Co732 N735 2.121 . S
Co732 O740 2.055 . S
Co732 O743 2.039 . S
Co732 N746 2.140 . S
C733 O734 1.227 . S
C733 O743 1.265 . S
O734 C733 1.227 . S
N735 Co732 2.121 . S
N735 C737 1.375 . S
N735 C738 1.313 . S
C736 C737 1.338 . S
C736 N739 1.377 . S
C736 H756 0.930 . S
C737 N735 1.375 . S
C737 C736 1.338 . S
C737 H741 0.931 . S
C738 N735 1.313 . S
C738 N739 1.344 . S
C738 H742 0.930 . S
N739 C736 1.377 . S
N739 C738 1.344 . S
O740 Co732 2.055 . S
O740 C744 1.253 . S
H741 C737 0.931 . S
H742 C738 0.930 . S
O743 Co732 2.039 . S
O743 C733 1.265 . S
C744 O740 1.253 . S
C744 O745 1.227 . S
O745 C744 1.227 . S
N746 Co732 2.140 . S
N746 C749 1.346 . S
N746 C750 1.345 . S
C747 C748 1.387 . S
C747 C751 1.391 . S
C748 C747 1.387 . S
C748 C749 1.369 . S
C748 H757 0.929 . S
C749 N746 1.346 . S
C749 C748 1.369 . S
C749 H752 0.928 . S
C750 N746 1.345 . S
C750 C751 1.371 . S
C750 H753 0.931 . S
C751 C747 1.391 . S
C751 C750 1.371 . S
C751 H758 0.930 . S
H752 C749 0.928 . S
H753 C750 0.931 . S
H754 C730 0.930 . S
H755 C727 0.930 . S
H756 C736 0.930 . S
H757 C748 0.929 . S
H758 C751 0.930 . S
C759 C760 1.351 . S
C759 N762 1.368 . S
C759 H764 0.931 . S
C760 C759 1.351 . S
C760 N761 1.373 . S
C760 H788 0.930 . S
N761 C760 1.373 . S
N761 C763 1.340 . S
N762 C759 1.368 . S
N762 C763 1.321 . S
N762 Co765 2.135 . S
C763 N761 1.340 . S
C763 N762 1.321 . S
C763 H787 0.930 . S
H764 C759 0.931 . S
Co765 N762 2.135 . S
Co765 N768 2.121 . S
Co765 O773 2.055 . S
Co765 O776 2.039 . S
Co765 N779 2.140 . S
C766 O767 1.227 . S
C766 O776 1.265 . S
O767 C766 1.227 . S
N768 Co765 2.121 . S
N768 C770 1.375 . S
N768 C771 1.313 . S
C769 C770 1.338 . S
C769 N772 1.377 . S
C769 H789 0.930 . S
C770 N768 1.375 . S
C770 C769 1.338 . S
C770 H774 0.931 . S
C771 N768 1.313 . S
C771 N772 1.344 . S
C771 H775 0.930 . S
N772 C769 1.377 . S
N772 C771 1.344 . S
O773 Co765 2.055 . S
O773 C777 1.253 . S
H774 C770 0.931 . S
H775 C771 0.930 . S
O776 Co765 2.039 . S
O776 C766 1.265 . S
C777 O773 1.253 . S
C777 O778 1.227 . S
O778 C777 1.227 . S
N779 Co765 2.140 . S
N779 C782 1.346 . S
N779 C783 1.345 . S
C780 C781 1.387 . S
C780 C784 1.391 . S
C781 C780 1.387 . S
C781 C782 1.369 . S
C781 H790 0.929 . S
C782 N779 1.346 . S
C782 C781 1.369 . S
C782 H785 0.928 . S
C783 N779 1.345 . S
C783 C784 1.371 . S
C783 H786 0.931 . S
C784 C780 1.391 . S
C784 C783 1.371 . S
C784 H791 0.930 . S
H785 C782 0.928 . S
H786 C783 0.931 . S
H787 C763 0.930 . S
H788 C760 0.930 . S
H789 C769 0.930 . S
H790 C781 0.929 . S
H791 C784 0.930 . S
H792 C804 0.930 . S
H793 C806 0.930 . S
H794 C807 0.930 . S
H795 C811 0.959 . S
H796 C811 0.959 . S
H797 C811 0.961 . S
H798 C812 0.960 . S
H799 C812 0.961 . S
H800 C812 0.959 . S
H801 C815 0.929 . S
H802 C816 0.931 . S
H803 C818 0.930 . S
C804 H792 0.930 . S
C804 C805 1.399 . S
C804 C809 1.399 . S
C805 C804 1.399 . S
C805 C806 1.376 . S
C806 H793 0.930 . S
C806 C805 1.376 . S
C806 C807 1.388 . S
C807 H794 0.930 . S
C807 C806 1.388 . S
C807 C808 1.390 . S
C808 C807 1.390 . S
C808 C809 1.394 . S
C808 C814 1.465 . S
C809 C804 1.399 . S
C809 C808 1.394 . S
C809 C810 1.516 . S
C810 C809 1.516 . S
C810 C811 1.502 . S
C810 C812 1.561 . S
C810 C813 1.526 . S
C811 H795 0.959 . S
C811 H796 0.959 . S
C811 H797 0.961 . S
C811 C810 1.502 . S
C812 H798 0.960 . S
C812 H799 0.961 . S
C812 H800 0.959 . S
C812 C810 1.561 . S
C813 C810 1.526 . S
C813 C814 1.396 . S
C813 C818 1.390 . S
C814 C808 1.465 . S
C814 C813 1.396 . S
C814 C815 1.399 . S
C815 H801 0.929 . S
C815 C814 1.399 . S
C815 C816 1.385 . S
C816 H802 0.931 . S
C816 C815 1.385 . S
C816 C817 1.389 . S
C817 C816 1.389 . S
C817 C818 1.387 . S
C818 H803 0.930 . S
C818 C813 1.390 . S
C818 C817 1.387 . S
H819 C831 0.930 . S
H820 C833 0.930 . S
H821 C834 0.930 . S
H822 C838 0.959 . S
H823 C838 0.959 . S
H824 C838 0.961 . S
H825 C839 0.960 . S
H826 C839 0.961 . S
H827 C839 0.959 . S
H828 C842 0.929 . S
H829 C843 0.931 . S
H830 C845 0.930 . S
C831 H819 0.930 . S
C831 C832 1.399 . S
C831 C836 1.399 . S
C832 C831 1.399 . S
C832 C833 1.376 . S
C833 H820 0.930 . S
C833 C832 1.376 . S
C833 C834 1.388 . S
C834 H821 0.930 . S
C834 C833 1.388 . S
C834 C835 1.390 . S
C835 C834 1.390 . S
C835 C836 1.394 . S
C835 C841 1.465 . S
C836 C831 1.399 . S
C836 C835 1.394 . S
C836 C837 1.516 . S
C837 C836 1.516 . S
C837 C838 1.502 . S
C837 C839 1.561 . S
C837 C840 1.526 . S
C838 H822 0.959 . S
C838 H823 0.959 . S
C838 H824 0.961 . S
C838 C837 1.502 . S
C839 H825 0.960 . S
C839 H826 0.961 . S
C839 H827 0.959 . S
C839 C837 1.561 . S
C840 C837 1.526 . S
C840 C841 1.396 . S
C840 C845 1.390 . S
C841 C835 1.465 . S
C841 C840 1.396 . S
C841 C842 1.399 . S
C842 H828 0.929 . S
C842 C841 1.399 . S
C842 C843 1.385 . S
C843 H829 0.931 . S
C843 C842 1.385 . S
C843 C844 1.389 . S
C844 C843 1.389 . S
C844 C845 1.387 . S
C845 H830 0.930 . S
C845 C840 1.390 . S
C845 C844 1.387 . S
H846 C858 0.930 . S
H847 C860 0.930 . S
H848 C861 0.930 . S
H849 C865 0.959 . S
H850 C865 0.959 . S
H851 C865 0.961 . S
H852 C866 0.960 . S
H853 C866 0.961 . S
H854 C866 0.959 . S
H855 C869 0.929 . S
H856 C870 0.931 . S
H857 C872 0.930 . S
C858 H846 0.930 . S
C858 C859 1.399 . S
C858 C863 1.399 . S
C859 C858 1.399 . S
C859 C860 1.376 . S
C860 H847 0.930 . S
C860 C859 1.376 . S
C860 C861 1.388 . S
C861 H848 0.930 . S
C861 C860 1.388 . S
C861 C862 1.390 . S
C862 C861 1.390 . S
C862 C863 1.394 . S
C862 C868 1.465 . S
C863 C858 1.399 . S
C863 C862 1.394 . S
C863 C864 1.516 . S
C864 C863 1.516 . S
C864 C865 1.502 . S
C864 C866 1.561 . S
C864 C867 1.526 . S
C865 H849 0.959 . S
C865 H850 0.959 . S
C865 H851 0.961 . S
C865 C864 1.502 . S
C866 H852 0.960 . S
C866 H853 0.961 . S
C866 H854 0.959 . S
C866 C864 1.561 . S
C867 C864 1.526 . S
C867 C868 1.396 . S
C867 C872 1.390 . S
C868 C862 1.465 . S
C868 C867 1.396 . S
C868 C869 1.399 . S
C869 H855 0.929 . S
C869 C868 1.399 . S
C869 C870 1.385 . S
C870 H856 0.931 . S
C870 C869 1.385 . S
C870 C871 1.389 . S
C871 C870 1.389 . S
C871 C872 1.387 . S
C872 H857 0.930 . S
C872 C867 1.390 . S
C872 C871 1.387 . S
H873 C885 0.930 . S
H874 C887 0.930 . S
H875 C888 0.930 . S
H876 C892 0.959 . S
H877 C892 0.959 . S
H878 C892 0.961 . S
H879 C893 0.960 . S
H880 C893 0.961 . S
H881 C893 0.959 . S
H882 C896 0.929 . S
H883 C897 0.931 . S
H884 C899 0.930 . S
C885 H873 0.930 . S
C885 C886 1.399 . S
C885 C890 1.399 . S
C886 C885 1.399 . S
C886 C887 1.376 . S
C887 H874 0.930 . S
C887 C886 1.376 . S
C887 C888 1.388 . S
C888 H875 0.930 . S
C888 C887 1.388 . S
C888 C889 1.390 . S
C889 C888 1.390 . S
C889 C890 1.394 . S
C889 C895 1.465 . S
C890 C885 1.399 . S
C890 C889 1.394 . S
C890 C891 1.516 . S
C891 C890 1.516 . S
C891 C892 1.502 . S
C891 C893 1.561 . S
C891 C894 1.526 . S
C892 H876 0.959 . S
C892 H877 0.959 . S
C892 H878 0.961 . S
C892 C891 1.502 . S
C893 H879 0.960 . S
C893 H880 0.961 . S
C893 H881 0.959 . S
C893 C891 1.561 . S
C894 C891 1.526 . S
C894 C895 1.396 . S
C894 C899 1.390 . S
C895 C889 1.465 . S
C895 C894 1.396 . S
C895 C896 1.399 . S
C896 H882 0.929 . S
C896 C895 1.399 . S
C896 C897 1.385 . S
C897 H883 0.931 . S
C897 C896 1.385 . S
C897 C898 1.389 . S
C898 C897 1.389 . S
C898 C899 1.387 . S
C899 H884 0.930 . S
C899 C894 1.390 . S
C899 C898 1.387 . S
H900 C912 0.930 . S
H901 C914 0.930 . S
H902 C915 0.930 . S
H903 C919 0.959 . S
H904 C919 0.959 . S
H905 C919 0.961 . S
H906 C920 0.960 . S
H907 C920 0.961 . S
H908 C920 0.959 . S
H909 C923 0.929 . S
H910 C924 0.931 . S
H911 C926 0.930 . S
C912 H900 0.930 . S
C912 C913 1.399 . S
C912 C917 1.399 . S
C913 C912 1.399 . S
C913 C914 1.376 . S
C914 H901 0.930 . S
C914 C913 1.376 . S
C914 C915 1.388 . S
C915 H902 0.930 . S
C915 C914 1.388 . S
C915 C916 1.390 . S
C916 C915 1.390 . S
C916 C917 1.394 . S
C916 C922 1.465 . S
C917 C912 1.399 . S
C917 C916 1.394 . S
C917 C918 1.516 . S
C918 C917 1.516 . S
C918 C919 1.502 . S
C918 C920 1.561 . S
C918 C921 1.526 . S
C919 H903 0.959 . S
C919 H904 0.959 . S
C919 H905 0.961 . S
C919 C918 1.502 . S
C920 H906 0.960 . S
C920 H907 0.961 . S
C920 H908 0.959 . S
C920 C918 1.561 . S
C921 C918 1.526 . S
C921 C922 1.396 . S
C921 C926 1.390 . S
C922 C916 1.465 . S
C922 C921 1.396 . S
C922 C923 1.399 . S
C923 H909 0.929 . S
C923 C922 1.399 . S
C923 C924 1.385 . S
C924 H910 0.931 . S
C924 C923 1.385 . S
C924 C925 1.389 . S
C925 C924 1.389 . S
C925 C926 1.387 . S
C926 H911 0.930 . S
C926 C921 1.390 . S
C926 C925 1.387 . S
H927 C939 0.930 . S
H928 C941 0.930 . S
H929 C942 0.930 . S
H930 C946 0.959 . S
H931 C946 0.959 . S
H932 C946 0.961 . S
H933 C947 0.960 . S
H934 C947 0.961 . S
H935 C947 0.959 . S
H936 C950 0.929 . S
H937 C951 0.931 . S
H938 C953 0.930 . S
C939 H927 0.930 . S
C939 C940 1.399 . S
C939 C944 1.399 . S
C940 C939 1.399 . S
C940 C941 1.376 . S
C941 H928 0.930 . S
C941 C940 1.376 . S
C941 C942 1.388 . S
C942 H929 0.930 . S
C942 C941 1.388 . S
C942 C943 1.390 . S
C943 C942 1.390 . S
C943 C944 1.394 . S
C943 C949 1.465 . S
C944 C939 1.399 . S
C944 C943 1.394 . S
C944 C945 1.516 . S
C945 C944 1.516 . S
C945 C946 1.502 . S
C945 C947 1.561 . S
C945 C948 1.526 . S
C946 H930 0.959 . S
C946 H931 0.959 . S
C946 H932 0.961 . S
C946 C945 1.502 . S
C947 H933 0.960 . S
C947 H934 0.961 . S
C947 H935 0.959 . S
C947 C945 1.561 . S
C948 C945 1.526 . S
C948 C949 1.396 . S
C948 C953 1.390 . S
C949 C943 1.465 . S
C949 C948 1.396 . S
C949 C950 1.399 . S
C950 H936 0.929 . S
C950 C949 1.399 . S
C950 C951 1.385 . S
C951 H937 0.931 . S
C951 C950 1.385 . S
C951 C952 1.389 . S
C952 C951 1.389 . S
C952 C953 1.387 . S
C953 H938 0.930 . S
C953 C948 1.390 . S
C953 C952 1.387 . S
H954 C966 0.930 . S
H955 C968 0.930 . S
H956 C969 0.930 . S
H957 C973 0.959 . S
H958 C973 0.959 . S
H959 C973 0.961 . S
H960 C974 0.960 . S
H961 C974 0.961 . S
H962 C974 0.959 . S
H963 C977 0.929 . S
H964 C978 0.931 . S
H965 C980 0.930 . S
C966 H954 0.930 . S
C966 C967 1.399 . S
C966 C971 1.399 . S
C967 C966 1.399 . S
C967 C968 1.376 . S
C968 H955 0.930 . S
C968 C967 1.376 . S
C968 C969 1.388 . S
C969 H956 0.930 . S
C969 C968 1.388 . S
C969 C970 1.390 . S
C970 C969 1.390 . S
C970 C971 1.394 . S
C970 C976 1.465 . S
C971 C966 1.399 . S
C971 C970 1.394 . S
C971 C972 1.516 . S
C972 C971 1.516 . S
C972 C973 1.502 . S
C972 C974 1.561 . S
C972 C975 1.526 . S
C973 H957 0.959 . S
C973 H958 0.959 . S
C973 H959 0.961 . S
C973 C972 1.502 . S
C974 H960 0.960 . S
C974 H961 0.961 . S
C974 H962 0.959 . S
C974 C972 1.561 . S
C975 C972 1.526 . S
C975 C976 1.396 . S
C975 C980 1.390 . S
C976 C970 1.465 . S
C976 C975 1.396 . S
C976 C977 1.399 . S
C977 H963 0.929 . S
C977 C976 1.399 . S
C977 C978 1.385 . S
C978 H964 0.931 . S
C978 C977 1.385 . S
C978 C979 1.389 . S
C979 C978 1.389 . S
C979 C980 1.387 . S
C980 H965 0.930 . S
C980 C975 1.390 . S
C980 C979 1.387 . S
H981 C993 0.930 . S
H982 C995 0.930 . S
H983 C996 0.930 . S
H984 C1000 0.959 . S
H985 C1000 0.959 . S
H986 C1000 0.961 . S
H987 C1001 0.960 . S
H988 C1001 0.961 . S
H989 C1001 0.959 . S
H990 C1004 0.929 . S
H991 C1005 0.931 . S
H992 C1007 0.930 . S
C993 H981 0.930 . S
C993 C994 1.399 . S
C993 C998 1.399 . S
C994 C993 1.399 . S
C994 C995 1.376 . S
C995 H982 0.930 . S
C995 C994 1.376 . S
C995 C996 1.388 . S
C996 H983 0.930 . S
C996 C995 1.388 . S
C996 C997 1.390 . S
C997 C996 1.390 . S
C997 C998 1.394 . S
C997 C1003 1.465 . S
C998 C993 1.399 . S
C998 C997 1.394 . S
C998 C999 1.516 . S
C999 C998 1.516 . S
C999 C1000 1.502 . S
C999 C1001 1.561 . S
C999 C1002 1.526 . S
C1000 H984 0.959 . S
C1000 H985 0.959 . S
C1000 H986 0.961 . S
C1000 C999 1.502 . S
C1001 H987 0.960 . S
C1001 H988 0.961 . S
C1001 H989 0.959 . S
C1001 C999 1.561 . S
C1002 C999 1.526 . S
C1002 C1003 1.396 . S
C1002 C1007 1.390 . S
C1003 C997 1.465 . S
C1003 C1002 1.396 . S
C1003 C1004 1.399 . S
C1004 H990 0.929 . S
C1004 C1003 1.399 . S
C1004 C1005 1.385 . S
C1005 H991 0.931 . S
C1005 C1004 1.385 . S
C1005 C1006 1.389 . S
C1006 C1005 1.389 . S
C1006 C1007 1.387 . S
C1007 H992 0.930 . S
C1007 C1002 1.390 . S
C1007 C1006 1.387 . S
H1008 C1020 0.930 . S
H1009 C1022 0.930 . S
H1010 C1023 0.930 . S
H1011 C1027 0.959 . S
H1012 C1027 0.959 . S
H1013 C1027 0.961 . S
H1014 C1028 0.960 . S
H1015 C1028 0.961 . S
H1016 C1028 0.959 . S
H1017 C1031 0.929 . S
H1018 C1032 0.931 . S
H1019 C1034 0.930 . S
C1020 H1008 0.930 . S
C1020 C1021 1.399 . S
C1020 C1025 1.399 . S
C1021 C1020 1.399 . S
C1021 C1022 1.376 . S
C1022 H1009 0.930 . S
C1022 C1021 1.376 . S
C1022 C1023 1.388 . S
C1023 H1010 0.930 . S
C1023 C1022 1.388 . S
C1023 C1024 1.390 . S
C1024 C1023 1.390 . S
C1024 C1025 1.394 . S
C1024 C1030 1.465 . S
C1025 C1020 1.399 . S
C1025 C1024 1.394 . S
C1025 C1026 1.516 . S
C1026 C1025 1.516 . S
C1026 C1027 1.502 . S
C1026 C1028 1.561 . S
C1026 C1029 1.526 . S
C1027 H1011 0.959 . S
C1027 H1012 0.959 . S
C1027 H1013 0.961 . S
C1027 C1026 1.502 . S
C1028 H1014 0.960 . S
C1028 H1015 0.961 . S
C1028 H1016 0.959 . S
C1028 C1026 1.561 . S
C1029 C1026 1.526 . S
C1029 C1030 1.396 . S
C1029 C1034 1.390 . S
C1030 C1024 1.465 . S
C1030 C1029 1.396 . S
C1030 C1031 1.399 . S
C1031 H1017 0.929 . S
C1031 C1030 1.399 . S
C1031 C1032 1.385 . S
C1032 H1018 0.931 . S
C1032 C1031 1.385 . S
C1032 C1033 1.389 . S
C1033 C1032 1.389 . S
C1033 C1034 1.387 . S
C1034 H1019 0.930 . S
C1034 C1029 1.390 . S
C1034 C1033 1.387 . S
H1035 C1047 0.930 . S
H1036 C1049 0.930 . S
H1037 C1050 0.930 . S
H1038 C1054 0.959 . S
H1039 C1054 0.959 . S
H1040 C1054 0.961 . S
H1041 C1055 0.960 . S
H1042 C1055 0.961 . S
H1043 C1055 0.959 . S
H1044 C1058 0.929 . S
H1045 C1059 0.931 . S
H1046 C1061 0.930 . S
C1047 H1035 0.930 . S
C1047 C1048 1.399 . S
C1047 C1052 1.399 . S
C1048 C1047 1.399 . S
C1048 C1049 1.376 . S
C1049 H1036 0.930 . S
C1049 C1048 1.376 . S
C1049 C1050 1.388 . S
C1050 H1037 0.930 . S
C1050 C1049 1.388 . S
C1050 C1051 1.390 . S
C1051 C1050 1.390 . S
C1051 C1052 1.394 . S
C1051 C1057 1.465 . S
C1052 C1047 1.399 . S
C1052 C1051 1.394 . S
C1052 C1053 1.516 . S
C1053 C1052 1.516 . S
C1053 C1054 1.502 . S
C1053 C1055 1.561 . S
C1053 C1056 1.526 . S
C1054 H1038 0.959 . S
C1054 H1039 0.959 . S
C1054 H1040 0.961 . S
C1054 C1053 1.502 . S
C1055 H1041 0.960 . S
C1055 H1042 0.961 . S
C1055 H1043 0.959 . S
C1055 C1053 1.561 . S
C1056 C1053 1.526 . S
C1056 C1057 1.396 . S
C1056 C1061 1.390 . S
C1057 C1051 1.465 . S
C1057 C1056 1.396 . S
C1057 C1058 1.399 . S
C1058 H1044 0.929 . S
C1058 C1057 1.399 . S
C1058 C1059 1.385 . S
C1059 H1045 0.931 . S
C1059 C1058 1.385 . S
C1059 C1060 1.389 . S
C1060 C1059 1.389 . S
C1060 C1061 1.387 . S
C1061 H1046 0.930 . S
C1061 C1056 1.390 . S
C1061 C1060 1.387 . S
H1062 C1074 0.930 . S
H1063 C1076 0.930 . S
H1064 C1077 0.930 . S
H1065 C1081 0.959 . S
H1066 C1081 0.959 . S
H1067 C1081 0.961 . S
H1068 C1082 0.960 . S
H1069 C1082 0.961 . S
H1070 C1082 0.959 . S
H1071 C1085 0.929 . S
H1072 C1086 0.931 . S
H1073 C1088 0.930 . S
C1074 H1062 0.930 . S
C1074 C1075 1.399 . S
C1074 C1079 1.399 . S
C1075 C1074 1.399 . S
C1075 C1076 1.376 . S
C1076 H1063 0.930 . S
C1076 C1075 1.376 . S
C1076 C1077 1.388 . S
C1077 H1064 0.930 . S
C1077 C1076 1.388 . S
C1077 C1078 1.390 . S
C1078 C1077 1.390 . S
C1078 C1079 1.394 . S
C1078 C1084 1.465 . S
C1079 C1074 1.399 . S
C1079 C1078 1.394 . S
C1079 C1080 1.516 . S
C1080 C1079 1.516 . S
C1080 C1081 1.502 . S
C1080 C1082 1.561 . S
C1080 C1083 1.526 . S
C1081 H1065 0.959 . S
C1081 H1066 0.959 . S
C1081 H1067 0.961 . S
C1081 C1080 1.502 . S
C1082 H1068 0.960 . S
C1082 H1069 0.961 . S
C1082 H1070 0.959 . S
C1082 C1080 1.561 . S
C1083 C1080 1.526 . S
C1083 C1084 1.396 . S
C1083 C1088 1.390 . S
C1084 C1078 1.465 . S
C1084 C1083 1.396 . S
C1084 C1085 1.399 . S
C1085 H1071 0.929 . S
C1085 C1084 1.399 . S
C1085 C1086 1.385 . S
C1086 H1072 0.931 . S
C1086 C1085 1.385 . S
C1086 C1087 1.389 . S
C1087 C1086 1.389 . S
C1087 C1088 1.387 . S
C1088 H1073 0.930 . S
C1088 C1083 1.390 . S
C1088 C1087 1.387 . S
H1089 C1101 0.930 . S
H1090 C1103 0.930 . S
H1091 C1104 0.930 . S
H1092 C1108 0.959 . S
H1093 C1108 0.959 . S
H1094 C1108 0.961 . S
H1095 C1109 0.960 . S
H1096 C1109 0.961 . S
H1097 C1109 0.959 . S
H1098 C1112 0.929 . S
H1099 C1113 0.931 . S
H1100 C1115 0.930 . S
C1101 H1089 0.930 . S
C1101 C1102 1.399 . S
C1101 C1106 1.399 . S
C1102 C1101 1.399 . S
C1102 C1103 1.376 . S
C1103 H1090 0.930 . S
C1103 C1102 1.376 . S
C1103 C1104 1.388 . S
C1104 H1091 0.930 . S
C1104 C1103 1.388 . S
C1104 C1105 1.390 . S
C1105 C1104 1.390 . S
C1105 C1106 1.394 . S
C1105 C1111 1.465 . S
C1106 C1101 1.399 . S
C1106 C1105 1.394 . S
C1106 C1107 1.516 . S
C1107 C1106 1.516 . S
C1107 C1108 1.502 . S
C1107 C1109 1.561 . S
C1107 C1110 1.526 . S
C1108 H1092 0.959 . S
C1108 H1093 0.959 . S
C1108 H1094 0.961 . S
C1108 C1107 1.502 . S
C1109 H1095 0.960 . S
C1109 H1096 0.961 . S
C1109 H1097 0.959 . S
C1109 C1107 1.561 . S
C1110 C1107 1.526 . S
C1110 C1111 1.396 . S
C1110 C1115 1.390 . S
C1111 C1105 1.465 . S
C1111 C1110 1.396 . S
C1111 C1112 1.399 . S
C1112 H1098 0.929 . S
C1112 C1111 1.399 . S
C1112 C1113 1.385 . S
C1113 H1099 0.931 . S
C1113 C1112 1.385 . S
C1113 C1114 1.389 . S
C1114 C1113 1.389 . S
C1114 C1115 1.387 . S
C1115 H1100 0.930 . S
C1115 C1110 1.390 . S
C1115 C1114 1.387 . S
H1116 C1128 0.930 . S
H1117 C1130 0.930 . S
H1118 C1131 0.930 . S
H1119 C1135 0.959 . S
H1120 C1135 0.959 . S
H1121 C1135 0.961 . S
H1122 C1136 0.960 . S
H1123 C1136 0.961 . S
H1124 C1136 0.959 . S
H1125 C1139 0.929 . S
H1126 C1140 0.931 . S
H1127 C1142 0.930 . S
C1128 H1116 0.930 . S
C1128 C1129 1.399 . S
C1128 C1133 1.399 . S
C1129 C1128 1.399 . S
C1129 C1130 1.376 . S
C1130 H1117 0.930 . S
C1130 C1129 1.376 . S
C1130 C1131 1.388 . S
C1131 H1118 0.930 . S
C1131 C1130 1.388 . S
C1131 C1132 1.390 1_565 S
C1132 C1131 1.390 1_545 S
C1132 C1133 1.394 1_545 S
C1132 C1138 1.465 . S
C1133 C1128 1.399 . S
C1133 C1132 1.394 1_565 S
C1133 C1134 1.516 1_565 S
C1134 C1133 1.516 1_545 S
C1134 C1135 1.502 . S
C1134 C1136 1.561 . S
C1134 C1137 1.526 . S
C1135 H1119 0.959 . S
C1135 H1120 0.959 . S
C1135 H1121 0.961 . S
C1135 C1134 1.502 . S
C1136 H1122 0.960 . S
C1136 H1123 0.961 . S
C1136 H1124 0.959 . S
C1136 C1134 1.561 . S
C1137 C1134 1.526 . S
C1137 C1138 1.396 . S
C1137 C1142 1.390 . S
C1138 C1132 1.465 . S
C1138 C1137 1.396 . S
C1138 C1139 1.399 . S
C1139 H1125 0.929 . S
C1139 C1138 1.399 . S
C1139 C1140 1.385 . S
C1140 H1126 0.931 . S
C1140 C1139 1.385 . S
C1140 C1141 1.389 . S
C1141 C1140 1.389 . S
C1141 C1142 1.387 . S
C1142 H1127 0.930 . S
C1142 C1137 1.390 . S
C1142 C1141 1.387 . S
H1143 C1155 0.930 . S
H1144 C1157 0.930 . S
H1145 C1158 0.930 . S
H1146 C1162 0.959 . S
H1147 C1162 0.959 1_455 S
H1148 C1162 0.961 . S
H1149 C1163 0.960 . S
H1150 C1163 0.961 . S
H1151 C1163 0.959 . S
H1152 C1166 0.929 . S
H1153 C1167 0.931 . S
H1154 C1169 0.930 . S
C1155 H1143 0.930 . S
C1155 C1156 1.399 . S
C1155 C1160 1.399 . S
C1156 C1155 1.399 . S
C1156 C1157 1.376 . S
C1157 H1144 0.930 . S
C1157 C1156 1.376 . S
C1157 C1158 1.388 . S
C1158 H1145 0.930 . S
C1158 C1157 1.388 . S
C1158 C1159 1.390 . S
C1159 C1158 1.390 . S
C1159 C1160 1.394 . S
C1159 C1165 1.465 . S
C1160 C1155 1.399 . S
C1160 C1159 1.394 . S
C1160 C1161 1.516 . S
C1161 C1160 1.516 . S
C1161 C1162 1.502 . S
C1161 C1163 1.561 . S
C1161 C1164 1.526 1_655 S
C1162 H1146 0.959 . S
C1162 H1147 0.959 1_655 S
C1162 H1148 0.961 . S
C1162 C1161 1.502 . S
C1163 H1149 0.960 . S
C1163 H1150 0.961 . S
C1163 H1151 0.959 . S
C1163 C1161 1.561 . S
C1164 C1161 1.526 1_455 S
C1164 C1165 1.396 1_455 S
C1164 C1169 1.390 . S
C1165 C1159 1.465 . S
C1165 C1164 1.396 1_655 S
C1165 C1166 1.399 1_655 S
C1166 H1152 0.929 . S
C1166 C1165 1.399 1_455 S
C1166 C1167 1.385 . S
C1167 H1153 0.931 . S
C1167 C1166 1.385 . S
C1167 C1168 1.389 . S
C1168 C1167 1.389 . S
C1168 C1169 1.387 . S
C1169 H1154 0.930 . S
C1169 C1164 1.390 . S
C1169 C1168 1.387 . S
H1170 C1182 0.930 . S
H1171 C1184 0.930 . S
H1172 C1185 0.930 . S
H1173 C1189 0.959 . S
H1174 C1189 0.959 1_545 S
H1175 C1189 0.961 . S
H1176 C1190 0.960 . S
H1177 C1190 0.961 1_545 S
H1178 C1190 0.959 . S
H1179 C1193 0.911 1_565 S
H1180 C1194 0.931 . S
H1181 C1196 0.930 . S
C1182 H1170 0.930 . S
C1182 C1183 1.399 . S
C1182 C1187 1.399 . S
C1183 C1182 1.399 . S
C1183 C1184 1.376 . S
C1184 H1171 0.930 . S
C1184 C1183 1.376 . S
C1184 C1185 1.388 . S
C1185 H1172 0.930 . S
C1185 C1184 1.388 . S
C1185 C1186 1.390 . S
C1186 C1185 1.390 . S
C1186 C1187 1.394 . S
C1186 C1192 1.465 . S
C1187 C1182 1.399 . S
C1187 C1186 1.394 . S
C1187 C1188 1.516 . S
C1188 C1187 1.516 . S
C1188 C1189 1.502 . S
C1188 C1190 1.561 . S
C1188 C1191 1.526 1_565 S
C1189 H1173 0.959 . S
C1189 H1174 0.959 1_565 S
C1189 H1175 0.961 . S
C1189 C1188 1.502 . S
C1190 H1176 0.960 . S
C1190 H1177 0.961 1_565 S
C1190 H1178 0.959 . S
C1190 C1188 1.561 . S
C1191 C1188 1.526 1_545 S
C1191 C1192 1.396 1_545 S
C1191 C1196 1.390 . S
C1192 C1186 1.465 . S
C1192 C1191 1.396 1_565 S
C1192 C1193 1.399 1_565 S
C1193 H1179 0.911 1_545 S
C1193 C1192 1.399 1_545 S
C1193 C1194 1.385 . S
C1194 H1180 0.931 . S
C1194 C1193 1.385 . S
C1194 C1195 1.389 . S
C1195 C1194 1.389 . S
C1195 C1196 1.387 . S
C1196 H1181 0.930 . S
C1196 C1191 1.390 . S
C1196 C1195 1.387 . S
H1197 C1209 0.930 . S
H1198 C1211 0.930 . S
H1199 C1212 0.930 . S
H1200 C1216 0.959 . S
H1201 C1216 0.959 . S
H1202 C1216 0.961 . S
H1203 C1217 0.960 . S
H1204 C1217 0.961 . S
H1205 C1217 0.959 . S
H1206 C1220 0.929 . S
H1207 C1221 0.931 . S
H1208 C1223 0.930 . S
C1209 H1197 0.930 . S
C1209 C1210 1.399 . S
C1209 C1214 1.399 . S
C1210 C1209 1.399 . S
C1210 C1211 1.376 . S
C1211 H1198 0.930 . S
C1211 C1210 1.376 . S
C1211 C1212 1.388 . S
C1212 H1199 0.930 . S
C1212 C1211 1.388 . S
C1212 C1213 1.390 1_655 S
C1213 C1212 1.390 1_455 S
C1213 C1214 1.394 1_455 S
C1213 C1219 1.465 . S
C1214 C1209 1.399 . S
C1214 C1213 1.394 1_655 S
C1214 C1215 1.516 1_655 S
C1215 C1214 1.516 1_455 S
C1215 C1216 1.502 . S
C1215 C1217 1.561 . S
C1215 C1218 1.526 . S
C1216 H1200 0.959 . S
C1216 H1201 0.959 . S
C1216 H1202 0.961 . S
C1216 C1215 1.502 . S
C1217 H1203 0.960 . S
C1217 H1204 0.961 . S
C1217 H1205 0.959 . S
C1217 C1215 1.561 . S
C1218 C1215 1.526 . S
C1218 C1219 1.396 . S
C1218 C1223 1.390 . S
C1219 C1213 1.465 . S
C1219 C1218 1.396 . S
C1219 C1220 1.399 . S
C1220 H1206 0.929 . S
C1220 C1219 1.399 . S
C1220 C1221 1.385 . S
C1221 H1207 0.931 . S
C1221 C1220 1.385 . S
C1221 C1222 1.389 . S
C1222 C1221 1.389 . S
C1222 C1223 1.387 . S
C1223 H1208 0.930 . S
C1223 C1218 1.390 . S
C1223 C1222 1.387 . S
H1224 C1236 0.930 . S
H1225 C1238 0.930 . S
H1226 C1239 0.930 . S
H1227 C1243 0.959 . S
H1228 C1243 0.959 . S
H1229 C1243 0.961 1_545 S
H1230 C1244 0.960 1_545 S
H1231 C1244 0.961 . S
H1232 C1244 0.959 . S
H1233 C1247 0.929 . S
H1234 C1248 0.931 . S
H1235 C1250 0.930 . S
C1236 H1224 0.930 . S
C1236 C1237 1.399 . S
C1236 C1241 1.399 . S
C1237 C1236 1.399 . S
C1237 C1238 1.376 . S
C1238 H1225 0.930 . S
C1238 C1237 1.376 . S
C1238 C1239 1.388 . S
C1239 H1226 0.930 . S
C1239 C1238 1.388 . S
C1239 C1240 1.390 1_545 S
C1240 C1239 1.390 1_565 S
C1240 C1241 1.394 1_565 S
C1240 C1246 1.465 . S
C1241 C1236 1.399 . S
C1241 C1240 1.394 1_545 S
C1241 C1242 1.516 1_545 S
C1242 C1241 1.516 1_565 S
C1242 C1243 1.502 . S
C1242 C1244 1.561 . S
C1242 C1245 1.526 . S
C1243 H1227 0.959 . S
C1243 H1228 0.959 . S
C1243 H1229 0.961 1_565 S
C1243 C1242 1.502 . S
C1244 H1230 0.960 1_565 S
C1244 H1231 0.961 . S
C1244 H1232 0.959 . S
C1244 C1242 1.561 . S
C1245 C1242 1.526 . S
C1245 C1246 1.396 . S
C1245 C1250 1.390 . S
C1246 C1240 1.465 . S
C1246 C1245 1.396 . S
C1246 C1247 1.399 . S
C1247 H1233 0.929 . S
C1247 C1246 1.399 . S
C1247 C1248 1.385 . S
C1248 H1234 0.931 . S
C1248 C1247 1.385 . S
C1248 C1249 1.389 . S
C1249 C1248 1.389 . S
C1249 C1250 1.387 . S
C1250 H1235 0.930 . S
C1250 C1245 1.390 . S
C1250 C1249 1.387 . S
H1251 C1263 0.930 . S
H1252 C1265 0.930 . S
H1253 C1266 0.930 . S
H1254 C1270 0.959 . S
H1255 C1270 0.959 . S
H1256 C1270 0.961 . S
H1257 C1271 0.960 . S
H1258 C1271 0.961 . S
H1259 C1271 0.959 . S
H1260 C1274 0.929 . S
H1261 C1275 0.931 . S
H1262 C1277 0.930 . S
C1263 H1251 0.930 . S
C1263 C1264 1.399 . S
C1263 C1268 1.399 . S
C1264 C1263 1.399 . S
C1264 C1265 1.376 . S
C1265 H1252 0.930 . S
C1265 C1264 1.376 . S
C1265 C1266 1.388 . S
C1266 H1253 0.930 . S
C1266 C1265 1.388 . S
C1266 C1267 1.390 . S
C1267 C1266 1.390 . S
C1267 C1268 1.394 . S
C1267 C1273 1.465 . S
C1268 C1263 1.399 . S
C1268 C1267 1.394 . S
C1268 C1269 1.516 . S
C1269 C1268 1.516 . S
C1269 C1270 1.502 . S
C1269 C1271 1.561 . S
C1269 C1272 1.526 1_455 S
C1270 H1254 0.959 . S
C1270 H1255 0.959 . S
C1270 H1256 0.961 . S
C1270 C1269 1.502 . S
C1271 H1257 0.960 . S
C1271 H1258 0.961 . S
C1271 H1259 0.959 . S
C1271 C1269 1.561 . S
C1272 C1269 1.526 1_655 S
C1272 C1273 1.396 1_655 S
C1272 C1277 1.390 . S
C1273 C1267 1.465 . S
C1273 C1272 1.396 1_455 S
C1273 C1274 1.399 1_455 S
C1274 H1260 0.929 . S
C1274 C1273 1.399 1_655 S
C1274 C1275 1.385 . S
C1275 H1261 0.931 . S
C1275 C1274 1.385 . S
C1275 C1276 1.389 . S
C1276 C1275 1.389 . S
C1276 C1277 1.387 . S
C1277 H1262 0.930 . S
C1277 C1272 1.390 . S
C1277 C1276 1.387 . S
H1278 C1290 0.930 . S
H1279 C1292 0.930 . S
H1280 C1293 0.930 . S
H1281 C1297 0.959 . S
H1282 C1297 0.959 . S
H1283 C1297 0.961 1_565 S
H1284 C1298 0.960 1_565 S
H1285 C1298 0.961 . S
H1286 C1298 0.959 . S
H1287 C1301 0.929 . S
H1288 C1302 0.931 . S
H1289 C1304 0.930 . S
C1290 H1278 0.930 . S
C1290 C1291 1.399 . S
C1290 C1295 1.399 . S
C1291 C1290 1.399 . S
C1291 C1292 1.376 . S
C1292 H1279 0.930 . S
C1292 C1291 1.376 . S
C1292 C1293 1.388 . S
C1293 H1280 0.930 . S
C1293 C1292 1.388 . S
C1293 C1294 1.390 1_565 S
C1294 C1293 1.390 1_545 S
C1294 C1295 1.394 1_545 S
C1294 C1300 1.465 . S
C1295 C1290 1.399 . S
C1295 C1294 1.394 1_565 S
C1295 C1296 1.516 1_565 S
C1296 C1295 1.516 1_545 S
C1296 C1297 1.502 . S
C1296 C1298 1.561 . S
C1296 C1299 1.526 . S
C1297 H1281 0.959 . S
C1297 H1282 0.959 . S
C1297 H1283 0.961 1_545 S
C1297 C1296 1.502 . S
C1298 H1284 0.960 1_545 S
C1298 H1285 0.961 . S
C1298 H1286 0.959 . S
C1298 C1296 1.561 . S
C1299 C1296 1.526 . S
C1299 C1300 1.396 . S
C1299 C1304 1.390 . S
C1300 C1294 1.465 . S
C1300 C1299 1.396 . S
C1300 C1301 1.399 . S
C1301 H1287 0.929 . S
C1301 C1300 1.399 . S
C1301 C1302 1.385 . S
C1302 H1288 0.931 . S
C1302 C1301 1.385 . S
C1302 C1303 1.389 . S
C1303 C1302 1.389 . S
C1303 C1304 1.387 . S
C1304 H1289 0.930 . S
C1304 C1299 1.390 . S
C1304 C1303 1.387 . S
H1305 C1317 0.930 . S
H1306 C1319 0.930 . S
H1307 C1320 0.930 . S
H1308 C1324 0.959 . S
H1309 C1324 0.959 . S
H1310 C1324 0.961 . S
H1311 C1325 0.960 . S
H1312 C1325 0.961 . S
H1313 C1325 0.959 . S
H1314 C1328 0.929 . S
H1315 C1329 0.931 . S
H1316 C1331 0.930 . S
C1317 H1305 0.930 . S
C1317 C1318 1.399 . S
C1317 C1322 1.399 . S
C1318 C1317 1.399 . S
C1318 C1319 1.376 . S
C1319 H1306 0.930 . S
C1319 C1318 1.376 . S
C1319 C1320 1.388 . S
C1320 H1307 0.930 . S
C1320 C1319 1.388 . S
C1320 C1321 1.390 1_455 S
C1321 C1320 1.390 1_655 S
C1321 C1322 1.394 1_655 S
C1321 C1327 1.465 . S
C1322 C1317 1.399 . S
C1322 C1321 1.394 1_455 S
C1322 C1323 1.516 1_455 S
C1323 C1322 1.516 1_655 S
C1323 C1324 1.502 . S
C1323 C1325 1.561 . S
C1323 C1326 1.526 . S
C1324 H1308 0.959 . S
C1324 H1309 0.959 . S
C1324 H1310 0.961 . S
C1324 C1323 1.502 . S
C1325 H1311 0.960 . S
C1325 H1312 0.961 . S
C1325 H1313 0.959 . S
C1325 C1323 1.561 . S
C1326 C1323 1.526 . S
C1326 C1327 1.396 . S
C1326 C1331 1.390 . S
C1327 C1321 1.465 . S
C1327 C1326 1.396 . S
C1327 C1328 1.399 . S
C1328 H1314 0.929 . S
C1328 C1327 1.399 . S
C1328 C1329 1.385 . S
C1329 H1315 0.931 . S
C1329 C1328 1.385 . S
C1329 C1330 1.389 . S
C1330 C1329 1.389 . S
C1330 C1331 1.387 . S
C1331 H1316 0.930 . S
C1331 C1326 1.390 . S
C1331 C1330 1.387 . S
H1332 C1344 0.930 . S
H1333 C1346 0.930 . S
H1334 C1347 0.930 . S
H1335 C1351 0.959 . S
H1336 C1351 0.959 . S
H1337 C1351 0.961 . S
H1338 C1352 0.960 . S
H1339 C1352 0.961 . S
H1340 C1352 0.959 . S
H1341 C1355 0.929 . S
H1342 C1356 0.931 . S
H1343 C1358 0.930 . S
C1344 H1332 0.930 . S
C1344 C1345 1.399 . S
C1344 C1349 1.399 . S
C1345 C1344 1.399 . S
C1345 C1346 1.376 . S
C1346 H1333 0.930 . S
C1346 C1345 1.376 . S
C1346 C1347 1.388 . S
C1347 H1334 0.930 . S
C1347 C1346 1.388 . S
C1347 C1348 1.390 1_556 S
C1348 C1347 1.390 1_554 S
C1348 C1349 1.394 1_554 S
C1348 C1354 1.465 . S
C1349 C1344 1.399 . S
C1349 C1348 1.394 1_556 S
C1349 C1350 1.516 1_556 S
C1350 C1349 1.516 1_554 S
C1350 C1351 1.502 . S
C1350 C1352 1.561 . S
C1350 C1353 1.526 . S
C1351 H1335 0.959 . S
C1351 H1336 0.959 . S
C1351 H1337 0.961 . S
C1351 C1350 1.502 . S
C1352 H1338 0.960 . S
C1352 H1339 0.961 . S
C1352 H1340 0.959 . S
C1352 C1350 1.561 . S
C1353 C1350 1.526 . S
C1353 C1354 1.396 . S
C1353 C1358 1.390 . S
C1354 C1348 1.465 . S
C1354 C1353 1.396 . S
C1354 C1355 1.399 . S
C1355 H1341 0.929 . S
C1355 C1354 1.399 . S
C1355 C1356 1.385 . S
C1356 H1342 0.931 . S
C1356 C1355 1.385 . S
C1356 C1357 1.389 . S
C1357 C1356 1.389 . S
C1357 C1358 1.387 . S
C1358 H1343 0.930 . S
C1358 C1353 1.390 . S
C1358 C1357 1.387 . S
H1359 C1371 0.930 . S
H1360 C1373 0.930 . S
H1361 C1374 0.930 . S
H1362 C1378 0.959 . S
H1363 C1378 0.959 1_556 S
H1364 C1378 0.961 . S
H1365 C1379 0.960 . S
H1366 C1379 0.961 . S
H1367 C1379 0.959 . S
H1368 C1382 0.929 . S
H1369 C1383 0.931 . S
H1370 C1385 0.930 . S
C1371 H1359 0.930 . S
C1371 C1372 1.399 . S
C1371 C1376 1.399 . S
C1372 C1371 1.399 . S
C1372 C1373 1.376 . S
C1373 H1360 0.930 . S
C1373 C1372 1.376 . S
C1373 C1374 1.388 . S
C1374 H1361 0.930 . S
C1374 C1373 1.388 . S
C1374 C1375 1.390 . S
C1375 C1374 1.390 . S
C1375 C1376 1.394 . S
C1375 C1381 1.465 . S
C1376 C1371 1.399 . S
C1376 C1375 1.394 . S
C1376 C1377 1.516 . S
C1377 C1376 1.516 . S
C1377 C1378 1.502 . S
C1377 C1379 1.561 . S
C1377 C1380 1.526 1_554 S
C1378 H1362 0.959 . S
C1378 H1363 0.959 1_554 S
C1378 H1364 0.961 . S
C1378 C1377 1.502 . S
C1379 H1365 0.960 . S
C1379 H1366 0.961 . S
C1379 H1367 0.959 . S
C1379 C1377 1.561 . S
C1380 C1377 1.526 1_556 S
C1380 C1381 1.396 1_556 S
C1380 C1385 1.390 . S
C1381 C1375 1.465 . S
C1381 C1380 1.396 1_554 S
C1381 C1382 1.399 1_554 S
C1382 H1368 0.929 . S
C1382 C1381 1.399 1_556 S
C1382 C1383 1.385 . S
C1383 H1369 0.931 . S
C1383 C1382 1.385 . S
C1383 C1384 1.389 . S
C1384 C1383 1.389 . S
C1384 C1385 1.387 . S
C1385 H1370 0.930 . S
C1385 C1380 1.390 . S
C1385 C1384 1.387 . S
H1386 C1398 0.930 . S
H1387 C1400 0.930 . S
H1388 C1401 0.925 1_554 S
H1389 C1405 0.959 . S
H1390 C1405 0.959 . S
H1391 C1405 0.961 1_556 S
H1392 C1406 0.960 1_556 S
H1393 C1406 0.961 . S
H1394 C1406 0.959 . S
H1395 C1409 0.929 . S
H1396 C1410 0.931 . S
H1397 C1412 0.930 . S
C1398 H1386 0.930 . S
C1398 C1399 1.399 . S
C1398 C1403 1.399 . S
C1399 C1398 1.399 . S
C1399 C1400 1.376 . S
C1400 H1387 0.930 . S
C1400 C1399 1.376 . S
C1400 C1401 1.388 . S
C1401 H1388 0.925 1_556 S
C1401 C1400 1.388 . S
C1401 C1402 1.390 1_556 S
C1402 C1401 1.390 1_554 S
C1402 C1403 1.394 1_554 S
C1402 C1408 1.465 . S
C1403 C1398 1.399 . S
C1403 C1402 1.394 1_556 S
C1403 C1404 1.516 1_556 S
C1404 C1403 1.516 1_554 S
C1404 C1405 1.502 . S
C1404 C1406 1.561 . S
C1404 C1407 1.526 . S
C1405 H1389 0.959 . S
C1405 H1390 0.959 . S
C1405 H1391 0.961 1_554 S
C1405 C1404 1.502 . S
C1406 H1392 0.960 1_554 S
C1406 H1393 0.961 . S
C1406 H1394 0.959 . S
C1406 C1404 1.561 . S
C1407 C1404 1.526 . S
C1407 C1408 1.396 . S
C1407 C1412 1.390 . S
C1408 C1402 1.465 . S
C1408 C1407 1.396 . S
C1408 C1409 1.399 . S
C1409 H1395 0.929 . S
C1409 C1408 1.399 . S
C1409 C1410 1.385 . S
C1410 H1396 0.931 . S
C1410 C1409 1.385 . S
C1410 C1411 1.389 . S
C1411 C1410 1.389 . S
C1411 C1412 1.387 . S
C1412 H1397 0.930 . S
C1412 C1407 1.390 . S
C1412 C1411 1.387 . S
H1413 C1425 0.930 . S
H1414 C1427 0.930 . S
H1415 C1428 0.930 . S
H1416 C1432 0.959 . S
H1417 C1432 0.959 . S
H1418 C1432 0.961 . S
H1419 C1433 0.960 . S
H1420 C1433 0.961 . S
H1421 C1433 0.959 . S
H1422 C1436 0.929 . S
H1423 C1437 0.931 . S
H1424 C1439 0.930 . S
C1425 H1413 0.930 . S
C1425 C1426 1.399 . S
C1425 C1430 1.399 . S
C1426 C1425 1.399 . S
C1426 C1427 1.376 . S
C1427 H1414 0.930 . S
C1427 C1426 1.376 . S
C1427 C1428 1.388 . S
C1428 H1415 0.930 . S
C1428 C1427 1.388 . S
C1428 C1429 1.390 . S
C1429 C1428 1.390 . S
C1429 C1430 1.394 . S
C1429 C1435 1.465 . S
C1430 C1425 1.399 . S
C1430 C1429 1.394 . S
C1430 C1431 1.516 . S
C1431 C1430 1.516 . S
C1431 C1432 1.502 . S
C1431 C1433 1.561 . S
C1431 C1434 1.526 1_554 S
C1432 H1416 0.959 . S
C1432 H1417 0.959 . S
C1432 H1418 0.961 . S
C1432 C1431 1.502 . S
C1433 H1419 0.960 . S
C1433 H1420 0.961 . S
C1433 H1421 0.959 . S
C1433 C1431 1.561 . S
C1434 C1431 1.526 1_556 S
C1434 C1435 1.396 1_556 S
C1434 C1439 1.390 . S
C1435 C1429 1.465 . S
C1435 C1434 1.396 1_554 S
C1435 C1436 1.399 1_554 S
C1436 H1422 0.929 . S
C1436 C1435 1.399 1_556 S
C1436 C1437 1.385 . S
C1437 H1423 0.931 . S
C1437 C1436 1.385 . S
C1437 C1438 1.389 . S
C1438 C1437 1.389 . S
C1438 C1439 1.387 . S
C1439 H1424 0.930 . S
C1439 C1434 1.390 . S
C1439 C1438 1.387 . S
H1440 C1452 0.930 . S
H1441 C1454 0.930 . S
H1442 C1455 0.930 . S
H1443 C1459 0.959 . S
H1444 C1459 0.959 . S
H1445 C1459 0.961 1_554 S
H1446 C1460 0.963 1_554 S
H1447 C1460 0.961 . S
H1448 C1460 0.959 . S
H1449 C1463 0.929 . S
H1450 C1464 0.931 . S
H1451 C1466 0.930 . S
C1452 H1440 0.930 . S
C1452 C1453 1.399 . S
C1452 C1457 1.399 . S
C1453 C1452 1.399 . S
C1453 C1454 1.376 . S
C1454 H1441 0.930 . S
C1454 C1453 1.376 . S
C1454 C1455 1.388 . S
C1455 H1442 0.930 . S
C1455 C1454 1.388 . S
C1455 C1456 1.390 1_554 S
C1456 C1455 1.390 1_556 S
C1456 C1457 1.394 1_556 S
C1456 C1462 1.465 . S
C1457 C1452 1.399 . S
C1457 C1456 1.394 1_554 S
C1457 C1458 1.516 1_554 S
C1458 C1457 1.516 1_556 S
C1458 C1459 1.502 . S
C1458 C1460 1.561 . S
C1458 C1461 1.526 . S
C1459 H1443 0.959 . S
C1459 H1444 0.959 . S
C1459 H1445 0.961 1_556 S
C1459 C1458 1.502 . S
C1460 H1446 0.963 1_556 S
C1460 H1447 0.961 . S
C1460 H1448 0.959 . S
C1460 C1458 1.561 . S
C1461 C1458 1.526 . S
C1461 C1462 1.396 . S
C1461 C1466 1.390 . S
C1462 C1456 1.465 . S
C1462 C1461 1.396 . S
C1462 C1463 1.399 . S
C1463 H1449 0.929 . S
C1463 C1462 1.399 . S
C1463 C1464 1.385 . S
C1464 H1450 0.931 . S
C1464 C1463 1.385 . S
C1464 C1465 1.389 . S
C1465 C1464 1.389 . S
C1465 C1466 1.387 . S
C1466 H1451 0.930 . S
C1466 C1461 1.390 . S
C1466 C1465 1.387 . S
H1467 C1479 0.930 . S
H1468 C1481 0.930 . S
H1469 C1482 0.930 . S
H1470 C1486 0.959 . S
H1471 C1486 0.959 . S
H1472 C1486 0.961 . S
H1473 C1487 0.960 . S
H1474 C1487 0.961 . S
H1475 C1487 0.959 . S
H1476 C1490 0.929 . S
H1477 C1491 0.931 . S
H1478 C1493 0.930 . S
C1479 H1467 0.930 . S
C1479 C1480 1.399 . S
C1479 C1484 1.399 . S
C1480 C1479 1.399 . S
C1480 C1481 1.376 . S
C1481 H1468 0.930 . S
C1481 C1480 1.376 . S
C1481 C1482 1.388 . S
C1482 H1469 0.930 . S
C1482 C1481 1.388 . S
C1482 C1483 1.390 . S
C1483 C1482 1.390 . S
C1483 C1484 1.394 . S
C1483 C1489 1.465 . S
C1484 C1479 1.399 . S
C1484 C1483 1.394 . S
C1484 C1485 1.516 . S
C1485 C1484 1.516 . S
C1485 C1486 1.502 . S
C1485 C1487 1.561 . S
C1485 C1488 1.526 1_556 S
C1486 H1470 0.959 . S
C1486 H1471 0.959 . S
C1486 H1472 0.961 . S
C1486 C1485 1.502 . S
C1487 H1473 0.960 . S
C1487 H1474 0.961 . S
C1487 H1475 0.959 . S
C1487 C1485 1.561 . S
C1488 C1485 1.526 1_554 S
C1488 C1489 1.396 1_554 S
C1488 C1493 1.390 . S
C1489 C1483 1.465 . S
C1489 C1488 1.396 1_556 S
C1489 C1490 1.399 1_556 S
C1490 H1476 0.929 . S
C1490 C1489 1.399 1_554 S
C1490 C1491 1.385 . S
C1491 H1477 0.931 . S
C1491 C1490 1.385 . S
C1491 C1492 1.389 . S
C1492 C1491 1.389 . S
C1492 C1493 1.387 . S
C1493 H1478 0.930 . S
C1493 C1488 1.390 . S
C1493 C1492 1.387 . S
H1494 C1506 0.930 . S
H1495 C1508 0.930 . S
H1496 C1509 0.930 . S
H1497 C1513 0.959 . S
H1498 C1513 0.959 . S
H1499 C1513 0.961 . S
H1500 C1514 0.960 . S
H1501 C1514 0.961 . S
H1502 C1514 0.959 . S
H1503 C1517 0.929 . S
H1504 C1518 0.931 . S
H1505 C1520 0.930 . S
C1506 H1494 0.930 . S
C1506 C1507 1.399 . S
C1506 C1511 1.399 . S
C1507 C1506 1.399 . S
C1507 C1508 1.376 . S
C1508 H1495 0.930 . S
C1508 C1507 1.376 . S
C1508 C1509 1.388 . S
C1509 H1496 0.930 . S
C1509 C1508 1.388 . S
C1509 C1510 1.390 1_554 S
C1510 C1509 1.390 1_556 S
C1510 C1511 1.394 1_556 S
C1510 C1516 1.465 . S
C1511 C1506 1.399 . S
C1511 C1510 1.394 1_554 S
C1511 C1512 1.516 1_554 S
C1512 C1511 1.516 1_556 S
C1512 C1513 1.502 . S
C1512 C1514 1.561 . S
C1512 C1515 1.526 . S
C1513 H1497 0.959 . S
C1513 H1498 0.959 . S
C1513 H1499 0.961 . S
C1513 C1512 1.502 . S
C1514 H1500 0.960 . S
C1514 H1501 0.961 . S
C1514 H1502 0.959 . S
C1514 C1512 1.561 . S
C1515 C1512 1.526 . S
C1515 C1516 1.396 . S
C1515 C1520 1.390 . S
C1516 C1510 1.465 . S
C1516 C1515 1.396 . S
C1516 C1517 1.399 . S
C1517 H1503 0.929 . S
C1517 C1516 1.399 . S
C1517 C1518 1.385 . S
C1518 H1504 0.931 . S
C1518 C1517 1.385 . S
C1518 C1519 1.389 . S
C1519 C1518 1.389 . S
C1519 C1520 1.387 . S
C1520 H1505 0.930 . S
C1520 C1515 1.390 . S
C1520 C1519 1.387 . S
H1521 C1533 0.930 . S
H1522 C1535 0.930 . S
H1523 C1536 0.930 . S
H1524 C1540 0.959 . S
H1525 C1540 0.959 1_554 S
H1526 C1540 0.961 . S
H1527 C1541 0.960 . S
H1528 C1541 0.961 1_554 S
H1529 C1541 0.959 . S
H1530 C1544 0.910 1_556 S
H1531 C1545 0.931 . S
H1532 C1547 0.930 . S
C1533 H1521 0.930 . S
C1533 C1534 1.399 . S
C1533 C1538 1.399 . S
C1534 C1533 1.399 . S
C1534 C1535 1.376 . S
C1535 H1522 0.930 . S
C1535 C1534 1.376 . S
C1535 C1536 1.388 . S
C1536 H1523 0.930 . S
C1536 C1535 1.388 . S
C1536 C1537 1.390 . S
C1537 C1536 1.390 . S
C1537 C1538 1.394 . S
C1537 C1543 1.465 . S
C1538 C1533 1.399 . S
C1538 C1537 1.394 . S
C1538 C1539 1.516 . S
C1539 C1538 1.516 . S
C1539 C1540 1.502 . S
C1539 C1541 1.561 . S
C1539 C1542 1.526 1_556 S
C1540 H1524 0.959 . S
C1540 H1525 0.959 1_556 S
C1540 H1526 0.961 . S
C1540 C1539 1.502 . S
C1541 H1527 0.960 . S
C1541 H1528 0.961 1_556 S
C1541 H1529 0.959 . S
C1541 C1539 1.561 . S
C1542 C1539 1.526 1_554 S
C1542 C1543 1.396 1_554 S
C1542 C1547 1.390 . S
C1543 C1537 1.465 . S
C1543 C1542 1.396 1_556 S
C1543 C1544 1.399 1_556 S
C1544 H1530 0.910 1_554 S
C1544 C1543 1.399 1_554 S
C1544 C1545 1.385 . S
C1545 H1531 0.931 . S
C1545 C1544 1.385 . S
C1545 C1546 1.389 . S
C1546 C1545 1.389 . S
C1546 C1547 1.387 . S
C1547 H1532 0.930 . S
C1547 C1542 1.390 . S
C1547 C1546 1.387 . S
H1548 C1560 0.930 . S
H1549 C1562 0.930 . S
H1550 C1563 0.930 . S
H1551 C1567 0.959 . S
H1552 C1567 0.959 . S
H1553 C1567 0.961 . S
H1554 C1568 0.960 . S
H1555 C1568 0.961 . S
H1556 C1568 0.959 . S
H1557 C1571 0.929 . S
H1558 C1572 0.931 . S
H1559 C1574 0.930 . S
C1560 H1548 0.930 . S
C1560 C1561 1.399 . S
C1560 C1565 1.399 . S
C1561 C1560 1.399 . S
C1561 C1562 1.376 . S
C1562 H1549 0.930 . S
C1562 C1561 1.376 . S
C1562 C1563 1.388 . S
C1563 H1550 0.930 . S
C1563 C1562 1.388 . S
C1563 C1564 1.390 1_655 S
C1564 C1563 1.390 1_455 S
C1564 C1565 1.394 1_455 S
C1564 C1570 1.465 . S
C1565 C1560 1.399 . S
C1565 C1564 1.394 1_655 S
C1565 C1566 1.516 1_655 S
C1566 C1565 1.516 1_455 S
C1566 C1567 1.502 . S
C1566 C1568 1.561 . S
C1566 C1569 1.526 . S
C1567 H1551 0.959 . S
C1567 H1552 0.959 . S
C1567 H1553 0.961 . S
C1567 C1566 1.502 . S
C1568 H1554 0.960 . S
C1568 H1555 0.961 . S
C1568 H1556 0.959 . S
C1568 C1566 1.561 . S
C1569 C1566 1.526 . S
C1569 C1570 1.396 . S
C1569 C1574 1.390 . S
C1570 C1564 1.465 . S
C1570 C1569 1.396 . S
C1570 C1571 1.399 . S
C1571 H1557 0.929 . S
C1571 C1570 1.399 . S
C1571 C1572 1.385 . S
C1572 H1558 0.931 . S
C1572 C1571 1.385 . S
C1572 C1573 1.389 . S
C1573 C1572 1.389 . S
C1573 C1574 1.387 . S
C1574 H1559 0.930 . S
C1574 C1569 1.390 . S
C1574 C1573 1.387 . S
H1575 C1587 0.930 . S
H1576 C1589 0.930 . S
H1577 C1590 0.930 . S
H1578 C1594 0.959 . S
H1579 C1594 0.959 . S
H1580 C1594 0.961 1_655 S
H1581 C1595 0.960 . S
H1582 C1595 0.961 . S
H1583 C1595 0.959 . S
H1584 C1598 0.929 . S
H1585 C1599 0.931 . S
H1586 C1601 0.930 . S
C1587 H1575 0.930 . S
C1587 C1588 1.399 . S
C1587 C1592 1.399 . S
C1588 C1587 1.399 . S
C1588 C1589 1.376 . S
C1589 H1576 0.930 . S
C1589 C1588 1.376 . S
C1589 C1590 1.388 . S
C1590 H1577 0.930 . S
C1590 C1589 1.388 . S
C1590 C1591 1.390 1_655 S
C1591 C1590 1.390 1_455 S
C1591 C1592 1.394 1_455 S
C1591 C1597 1.465 . S
C1592 C1587 1.399 . S
C1592 C1591 1.394 1_655 S
C1592 C1593 1.516 1_655 S
C1593 C1592 1.516 1_455 S
C1593 C1594 1.502 . S
C1593 C1595 1.561 . S
C1593 C1596 1.526 . S
C1594 H1578 0.959 . S
C1594 H1579 0.959 . S
C1594 H1580 0.961 1_455 S
C1594 C1593 1.502 . S
C1595 H1581 0.960 . S
C1595 H1582 0.961 . S
C1595 H1583 0.959 . S
C1595 C1593 1.561 . S
C1596 C1593 1.526 . S
C1596 C1597 1.396 . S
C1596 C1601 1.390 . S
C1597 C1591 1.465 . S
C1597 C1596 1.396 . S
C1597 C1598 1.399 . S
C1598 H1584 0.929 . S
C1598 C1597 1.399 . S
C1598 C1599 1.385 . S
C1599 H1585 0.931 . S
C1599 C1598 1.385 . S
C1599 C1600 1.389 . S
C1600 C1599 1.389 . S
C1600 C1601 1.387 . S
C1601 H1586 0.930 . S
C1601 C1596 1.390 . S
C1601 C1600 1.387 . S
H1602 C1614 0.930 . S
H1603 C1616 0.930 . S
H1604 C1617 0.930 . S
H1605 C1621 0.959 . S
H1606 C1621 0.959 1_565 S
H1607 C1621 0.961 . S
H1608 C1622 0.960 . S
H1609 C1622 0.961 . S
H1610 C1622 0.959 . S
H1611 C1625 0.929 . S
H1612 C1626 0.931 . S
H1613 C1628 0.930 . S
C1614 H1602 0.930 . S
C1614 C1615 1.399 . S
C1614 C1619 1.399 . S
C1615 C1614 1.399 . S
C1615 C1616 1.376 . S
C1616 H1603 0.930 . S
C1616 C1615 1.376 . S
C1616 C1617 1.388 . S
C1617 H1604 0.930 . S
C1617 C1616 1.388 . S
C1617 C1618 1.390 . S
C1618 C1617 1.390 . S
C1618 C1619 1.394 . S
C1618 C1624 1.465 . S
C1619 C1614 1.399 . S
C1619 C1618 1.394 . S
C1619 C1620 1.516 . S
C1620 C1619 1.516 . S
C1620 C1621 1.502 . S
C1620 C1622 1.561 . S
C1620 C1623 1.526 1_545 S
C1621 H1605 0.959 . S
C1621 H1606 0.959 1_545 S
C1621 H1607 0.961 . S
C1621 C1620 1.502 . S
C1622 H1608 0.960 . S
C1622 H1609 0.961 . S
C1622 H1610 0.959 . S
C1622 C1620 1.561 . S
C1623 C1620 1.526 1_565 S
C1623 C1624 1.396 1_565 S
C1623 C1628 1.390 . S
C1624 C1618 1.465 . S
C1624 C1623 1.396 1_545 S
C1624 C1625 1.399 1_545 S
C1625 H1611 0.929 . S
C1625 C1624 1.399 1_565 S
C1625 C1626 1.385 . S
C1626 H1612 0.931 . S
C1626 C1625 1.385 . S
C1626 C1627 1.389 . S
C1627 C1626 1.389 . S
C1627 C1628 1.387 . S
C1628 H1613 0.930 . S
C1628 C1623 1.390 . S
C1628 C1627 1.387 . S
H1629 C1641 0.930 . S
H1630 C1643 0.930 . S
H1631 C1644 0.930 . S
H1632 C1648 0.959 . S
H1633 C1648 0.959 . S
H1634 C1648 0.961 . S
H1635 C1649 0.960 . S
H1636 C1649 0.961 1_455 S
H1637 C1649 0.959 . S
H1638 C1652 0.929 . S
H1639 C1653 0.931 . S
H1640 C1655 0.930 . S
C1641 H1629 0.930 . S
C1641 C1642 1.399 . S
C1641 C1646 1.399 . S
C1642 C1641 1.399 . S
C1642 C1643 1.376 . S
C1643 H1630 0.930 . S
C1643 C1642 1.376 . S
C1643 C1644 1.388 . S
C1644 H1631 0.930 . S
C1644 C1643 1.388 . S
C1644 C1645 1.390 . S
C1645 C1644 1.390 . S
C1645 C1646 1.394 . S
C1645 C1651 1.465 . S
C1646 C1641 1.399 . S
C1646 C1645 1.394 . S
C1646 C1647 1.516 . S
C1647 C1646 1.516 . S
C1647 C1648 1.502 . S
C1647 C1649 1.561 . S
C1647 C1650 1.526 1_655 S
C1648 H1632 0.959 . S
C1648 H1633 0.959 . S
C1648 H1634 0.961 . S
C1648 C1647 1.502 . S
C1649 H1635 0.960 . S
C1649 H1636 0.961 1_655 S
C1649 H1637 0.959 . S
C1649 C1647 1.561 . S
C1650 C1647 1.526 1_455 S
C1650 C1651 1.396 1_455 S
C1650 C1655 1.390 . S
C1651 C1645 1.465 . S
C1651 C1650 1.396 1_655 S
C1651 C1652 1.399 1_655 S
C1652 H1638 0.929 . S
C1652 C1651 1.399 1_455 S
C1652 C1653 1.385 . S
C1653 H1639 0.931 . S
C1653 C1652 1.385 . S
C1653 C1654 1.389 . S
C1654 C1653 1.389 . S
C1654 C1655 1.387 . S
C1655 H1640 0.930 . S
C1655 C1650 1.390 . S
C1655 C1654 1.387 . S
H1656 C1668 0.930 . S
H1657 C1670 0.930 . S
H1658 C1671 0.930 . S
H1659 C1675 0.959 . S
H1660 C1675 0.959 . S
H1661 C1675 0.961 1_545 S
H1662 C1676 0.960 . S
H1663 C1676 0.961 . S
H1664 C1676 0.959 . S
H1665 C1679 0.929 . S
H1666 C1680 0.931 . S
H1667 C1682 0.930 . S
C1668 H1656 0.930 . S
C1668 C1669 1.399 . S
C1668 C1673 1.399 . S
C1669 C1668 1.399 . S
C1669 C1670 1.376 . S
C1670 H1657 0.930 . S
C1670 C1669 1.376 . S
C1670 C1671 1.388 . S
C1671 H1658 0.930 . S
C1671 C1670 1.388 . S
C1671 C1672 1.390 1_545 S
C1672 C1671 1.390 1_565 S
C1672 C1673 1.394 1_565 S
C1672 C1678 1.465 . S
C1673 C1668 1.399 . S
C1673 C1672 1.394 1_545 S
C1673 C1674 1.516 1_545 S
C1674 C1673 1.516 1_565 S
C1674 C1675 1.502 . S
C1674 C1676 1.561 . S
C1674 C1677 1.526 . S
C1675 H1659 0.959 . S
C1675 H1660 0.959 . S
C1675 H1661 0.961 1_565 S
C1675 C1674 1.502 . S
C1676 H1662 0.960 . S
C1676 H1663 0.961 . S
C1676 H1664 0.959 . S
C1676 C1674 1.561 . S
C1677 C1674 1.526 . S
C1677 C1678 1.396 . S
C1677 C1682 1.390 . S
C1678 C1672 1.465 . S
C1678 C1677 1.396 . S
C1678 C1679 1.399 . S
C1679 H1665 0.929 . S
C1679 C1678 1.399 . S
C1679 C1680 1.385 . S
C1680 H1666 0.931 . S
C1680 C1679 1.385 . S
C1680 C1681 1.389 . S
C1681 C1680 1.389 . S
C1681 C1682 1.387 . S
C1682 H1667 0.930 . S
C1682 C1677 1.390 . S
C1682 C1681 1.387 . S
H1683 C1695 0.930 . S
H1684 C1697 0.930 . S
H1685 C1698 0.930 . S
H1686 C1702 0.959 . S
H1687 C1702 0.959 . S
H1688 C1702 0.961 . S
H1689 C1703 0.960 1_455 S
H1690 C1703 0.961 . S
H1691 C1703 0.959 . S
H1692 C1706 0.929 . S
H1693 C1707 0.931 . S
H1694 C1709 0.930 . S
C1695 H1683 0.930 . S
C1695 C1696 1.399 . S
C1695 C1700 1.399 . S
C1696 C1695 1.399 . S
C1696 C1697 1.376 . S
C1697 H1684 0.930 . S
C1697 C1696 1.376 . S
C1697 C1698 1.388 . S
C1698 H1685 0.930 . S
C1698 C1697 1.388 . S
C1698 C1699 1.390 1_455 S
C1699 C1698 1.390 1_655 S
C1699 C1700 1.394 1_655 S
C1699 C1705 1.465 . S
C1700 C1695 1.399 . S
C1700 C1699 1.394 1_455 S
C1700 C1701 1.516 1_455 S
C1701 C1700 1.516 1_655 S
C1701 C1702 1.502 . S
C1701 C1703 1.561 . S
C1701 C1704 1.526 . S
C1702 H1686 0.959 . S
C1702 H1687 0.959 . S
C1702 H1688 0.961 . S
C1702 C1701 1.502 . S
C1703 H1689 0.960 1_655 S
C1703 H1690 0.961 . S
C1703 H1691 0.959 . S
C1703 C1701 1.561 . S
C1704 C1701 1.526 . S
C1704 C1705 1.396 . S
C1704 C1709 1.390 . S
C1705 C1699 1.465 . S
C1705 C1704 1.396 . S
C1705 C1706 1.399 . S
C1706 H1692 0.929 . S
C1706 C1705 1.399 . S
C1706 C1707 1.385 . S
C1707 H1693 0.931 . S
C1707 C1706 1.385 . S
C1707 C1708 1.389 . S
C1708 C1707 1.389 . S
C1708 C1709 1.387 . S
C1709 H1694 0.930 . S
C1709 C1704 1.390 . S
C1709 C1708 1.387 . S
H1710 C1722 0.930 . S
H1711 C1724 0.930 . S
H1712 C1725 0.930 . S
H1713 C1729 0.959 . S
H1714 C1729 0.959 . S
H1715 C1729 0.961 . S
H1716 C1730 0.960 . S
H1717 C1730 0.961 . S
H1718 C1730 0.959 . S
H1719 C1733 0.929 . S
H1720 C1734 0.931 . S
H1721 C1736 0.930 . S
C1722 H1710 0.930 . S
C1722 C1723 1.399 . S
C1722 C1727 1.399 . S
C1723 C1722 1.399 . S
C1723 C1724 1.376 . S
C1724 H1711 0.930 . S
C1724 C1723 1.376 . S
C1724 C1725 1.388 . S
C1725 H1712 0.930 . S
C1725 C1724 1.388 . S
C1725 C1726 1.390 1_545 S
C1726 C1725 1.390 1_565 S
C1726 C1727 1.394 1_565 S
C1726 C1732 1.465 . S
C1727 C1722 1.399 . S
C1727 C1726 1.394 1_545 S
C1727 C1728 1.516 1_545 S
C1728 C1727 1.516 1_565 S
C1728 C1729 1.502 . S
C1728 C1730 1.561 . S
C1728 C1731 1.526 . S
C1729 H1713 0.959 . S
C1729 H1714 0.959 . S
C1729 H1715 0.961 . S
C1729 C1728 1.502 . S
C1730 H1716 0.960 . S
C1730 H1717 0.961 . S
C1730 H1718 0.959 . S
C1730 C1728 1.561 . S
C1731 C1728 1.526 . S
C1731 C1732 1.396 . S
C1731 C1736 1.390 . S
C1732 C1726 1.465 . S
C1732 C1731 1.396 . S
C1732 C1733 1.399 . S
C1733 H1719 0.929 . S
C1733 C1732 1.399 . S
C1733 C1734 1.385 . S
C1734 H1720 0.931 . S
C1734 C1733 1.385 . S
C1734 C1735 1.389 . S
C1735 C1734 1.389 . S
C1735 C1736 1.387 . S
C1736 H1721 0.930 . S
C1736 C1731 1.390 . S
C1736 C1735 1.387 . S
H1737 C1749 0.930 . S
H1738 C1751 0.930 . S
H1739 C1752 0.930 . S
H1740 C1756 0.959 . S
H1741 C1756 0.959 . S
H1742 C1756 0.961 . S
H1743 C1757 0.960 . S
H1744 C1757 0.961 . S
H1745 C1757 0.959 . S
H1746 C1760 0.929 . S
H1747 C1761 0.931 . S
H1748 C1763 0.930 . S
C1749 H1737 0.930 . S
C1749 C1750 1.399 . S
C1749 C1754 1.399 . S
C1750 C1749 1.399 . S
C1750 C1751 1.376 . S
C1751 H1738 0.930 . S
C1751 C1750 1.376 . S
C1751 C1752 1.388 . S
C1752 H1739 0.930 . S
C1752 C1751 1.388 . S
C1752 C1753 1.390 . S
C1753 C1752 1.390 . S
C1753 C1754 1.394 . S
C1753 C1759 1.465 . S
C1754 C1749 1.399 . S
C1754 C1753 1.394 . S
C1754 C1755 1.516 . S
C1755 C1754 1.516 . S
C1755 C1756 1.502 . S
C1755 C1757 1.561 . S
C1755 C1758 1.526 1_545 S
C1756 H1740 0.959 . S
C1756 H1741 0.959 . S
C1756 H1742 0.961 . S
C1756 C1755 1.502 . S
C1757 H1743 0.960 . S
C1757 H1744 0.961 . S
C1757 H1745 0.959 . S
C1757 C1755 1.561 . S
C1758 C1755 1.526 1_565 S
C1758 C1759 1.396 1_565 S
C1758 C1763 1.390 . S
C1759 C1753 1.465 . S
C1759 C1758 1.396 1_545 S
C1759 C1760 1.399 1_545 S
C1760 H1746 0.929 . S
C1760 C1759 1.399 1_565 S
C1760 C1761 1.385 . S
C1761 H1747 0.931 . S
C1761 C1760 1.385 . S
C1761 C1762 1.389 . S
C1762 C1761 1.389 . S
C1762 C1763 1.387 . S
C1763 H1748 0.930 . S
C1763 C1758 1.390 . S
C1763 C1762 1.387 . S
H1764 C1776 0.930 . S
H1765 C1778 0.930 . S
H1766 C1779 0.930 . S
H1767 C1783 0.959 . S
H1768 C1783 0.959 . S
H1769 C1783 0.961 . S
H1770 C1784 0.960 . S
H1771 C1784 0.961 . S
H1772 C1784 0.959 . S
H1773 C1787 0.929 . S
H1774 C1788 0.931 . S
H1775 C1790 0.930 . S
C1776 H1764 0.930 . S
C1776 C1777 1.399 . S
C1776 C1781 1.399 . S
C1777 C1776 1.399 . S
C1777 C1778 1.376 . S
C1778 H1765 0.930 . S
C1778 C1777 1.376 . S
C1778 C1779 1.388 . S
C1779 H1766 0.930 . S
C1779 C1778 1.388 . S
C1779 C1780 1.390 . S
C1780 C1779 1.390 . S
C1780 C1781 1.394 . S
C1780 C1786 1.465 . S
C1781 C1776 1.399 . S
C1781 C1780 1.394 . S
C1781 C1782 1.516 . S
C1782 C1781 1.516 . S
C1782 C1783 1.502 . S
C1782 C1784 1.561 . S
C1782 C1785 1.526 . S
C1783 H1767 0.959 . S
C1783 H1768 0.959 . S
C1783 H1769 0.961 . S
C1783 C1782 1.502 . S
C1784 H1770 0.960 . S
C1784 H1771 0.961 . S
C1784 H1772 0.959 . S
C1784 C1782 1.561 . S
C1785 C1782 1.526 . S
C1785 C1786 1.396 . S
C1785 C1790 1.390 . S
C1786 C1780 1.465 . S
C1786 C1785 1.396 . S
C1786 C1787 1.399 . S
C1787 H1773 0.929 . S
C1787 C1786 1.399 . S
C1787 C1788 1.385 . S
C1788 H1774 0.931 . S
C1788 C1787 1.385 . S
C1788 C1789 1.389 . S
C1789 C1788 1.389 . S
C1789 C1790 1.387 . S
C1790 H1775 0.930 . S
C1790 C1785 1.390 . S
C1790 C1789 1.387 . S
H1791 C1803 0.930 . S
H1792 C1805 0.930 . S
H1793 C1806 0.930 . S
H1794 C1810 0.959 . S
H1795 C1810 0.959 . S
H1796 C1810 0.961 . S
H1797 C1811 0.960 . S
H1798 C1811 0.961 . S
H1799 C1811 0.959 . S
H1800 C1814 0.929 . S
H1801 C1815 0.931 . S
H1802 C1817 0.930 . S
C1803 H1791 0.930 . S
C1803 C1804 1.399 . S
C1803 C1808 1.399 . S
C1804 C1803 1.399 . S
C1804 C1805 1.376 . S
C1805 H1792 0.930 . S
C1805 C1804 1.376 . S
C1805 C1806 1.388 . S
C1806 H1793 0.930 . S
C1806 C1805 1.388 . S
C1806 C1807 1.390 . S
C1807 C1806 1.390 . S
C1807 C1808 1.394 . S
C1807 C1813 1.465 . S
C1808 C1803 1.399 . S
C1808 C1807 1.394 . S
C1808 C1809 1.516 . S
C1809 C1808 1.516 . S
C1809 C1810 1.502 . S
C1809 C1811 1.561 . S
C1809 C1812 1.526 . S
C1810 H1794 0.959 . S
C1810 H1795 0.959 . S
C1810 H1796 0.961 . S
C1810 C1809 1.502 . S
C1811 H1797 0.960 . S
C1811 H1798 0.961 . S
C1811 H1799 0.959 . S
C1811 C1809 1.561 . S
C1812 C1809 1.526 . S
C1812 C1813 1.396 . S
C1812 C1817 1.390 . S
C1813 C1807 1.465 . S
C1813 C1812 1.396 . S
C1813 C1814 1.399 . S
C1814 H1800 0.929 . S
C1814 C1813 1.399 . S
C1814 C1815 1.385 . S
C1815 H1801 0.931 . S
C1815 C1814 1.385 . S
C1815 C1816 1.389 . S
C1816 C1815 1.389 . S
C1816 C1817 1.387 . S
C1817 H1802 0.930 . S
C1817 C1812 1.390 . S
C1817 C1816 1.387 . S
H1818 C1830 0.930 . S
H1819 C1832 0.930 . S
H1820 C1833 0.930 . S
H1821 C1837 0.959 . S
H1822 C1837 0.959 . S
H1823 C1837 0.961 . S
H1824 C1838 0.960 . S
H1825 C1838 0.961 . S
H1826 C1838 0.959 . S
H1827 C1841 0.929 . S
H1828 C1842 0.931 . S
H1829 C1844 0.930 . S
C1830 H1818 0.930 . S
C1830 C1831 1.399 . S
C1830 C1835 1.399 . S
C1831 C1830 1.399 . S
C1831 C1832 1.376 . S
C1832 H1819 0.930 . S
C1832 C1831 1.376 . S
C1832 C1833 1.388 . S
C1833 H1820 0.930 . S
C1833 C1832 1.388 . S
C1833 C1834 1.390 . S
C1834 C1833 1.390 . S
C1834 C1835 1.394 . S
C1834 C1840 1.465 . S
C1835 C1830 1.399 . S
C1835 C1834 1.394 . S
C1835 C1836 1.516 . S
C1836 C1835 1.516 . S
C1836 C1837 1.502 . S
C1836 C1838 1.561 . S
C1836 C1839 1.526 . S
C1837 H1821 0.959 . S
C1837 H1822 0.959 . S
C1837 H1823 0.961 . S
C1837 C1836 1.502 . S
C1838 H1824 0.960 . S
C1838 H1825 0.961 . S
C1838 H1826 0.959 . S
C1838 C1836 1.561 . S
C1839 C1836 1.526 . S
C1839 C1840 1.396 . S
C1839 C1844 1.390 . S
C1840 C1834 1.465 . S
C1840 C1839 1.396 . S
C1840 C1841 1.399 . S
C1841 H1827 0.929 . S
C1841 C1840 1.399 . S
C1841 C1842 1.385 . S
C1842 H1828 0.931 . S
C1842 C1841 1.385 . S
C1842 C1843 1.389 . S
C1843 C1842 1.389 . S
C1843 C1844 1.387 . S
C1844 H1829 0.930 . S
C1844 C1839 1.390 . S
C1844 C1843 1.387 . S
H1845 C1857 0.930 . S
H1846 C1859 0.930 . S
H1847 C1860 0.930 . S
H1848 C1864 0.959 . S
H1849 C1864 0.959 . S
H1850 C1864 0.961 . S
H1851 C1865 0.960 . S
H1852 C1865 0.961 . S
H1853 C1865 0.959 . S
H1854 C1868 0.929 . S
H1855 C1869 0.931 . S
H1856 C1871 0.930 . S
C1857 H1845 0.930 . S
C1857 C1858 1.399 . S
C1857 C1862 1.399 . S
C1858 C1857 1.399 . S
C1858 C1859 1.376 . S
C1859 H1846 0.930 . S
C1859 C1858 1.376 . S
C1859 C1860 1.388 . S
C1860 H1847 0.930 . S
C1860 C1859 1.388 . S
C1860 C1861 1.390 . S
C1861 C1860 1.390 . S
C1861 C1862 1.394 . S
C1861 C1867 1.465 . S
C1862 C1857 1.399 . S
C1862 C1861 1.394 . S
C1862 C1863 1.516 . S
C1863 C1862 1.516 . S
C1863 C1864 1.502 . S
C1863 C1865 1.561 . S
C1863 C1866 1.526 . S
C1864 H1848 0.959 . S
C1864 H1849 0.959 . S
C1864 H1850 0.961 . S
C1864 C1863 1.502 . S
C1865 H1851 0.960 . S
C1865 H1852 0.961 . S
C1865 H1853 0.959 . S
C1865 C1863 1.561 . S
C1866 C1863 1.526 . S
C1866 C1867 1.396 . S
C1866 C1871 1.390 . S
C1867 C1861 1.465 . S
C1867 C1866 1.396 . S
C1867 C1868 1.399 . S
C1868 H1854 0.929 . S
C1868 C1867 1.399 . S
C1868 C1869 1.385 . S
C1869 H1855 0.931 . S
C1869 C1868 1.385 . S
C1869 C1870 1.389 . S
C1870 C1869 1.389 . S
C1870 C1871 1.387 . S
C1871 H1856 0.930 . S
C1871 C1866 1.390 . S
C1871 C1870 1.387 . S
H1872 C1884 0.930 . S
H1873 C1886 0.930 . S
H1874 C1887 0.930 . S
H1875 C1891 0.959 . S
H1876 C1891 0.959 . S
H1877 C1891 0.961 . S
H1878 C1892 0.960 . S
H1879 C1892 0.961 . S
H1880 C1892 0.959 . S
H1881 C1895 0.929 . S
H1882 C1896 0.931 . S
H1883 C1898 0.930 . S
C1884 H1872 0.930 . S
C1884 C1885 1.399 . S
C1884 C1889 1.399 . S
C1885 C1884 1.399 . S
C1885 C1886 1.376 . S
C1886 H1873 0.930 . S
C1886 C1885 1.376 . S
C1886 C1887 1.388 . S
C1887 H1874 0.930 . S
C1887 C1886 1.388 . S
C1887 C1888 1.390 . S
C1888 C1887 1.390 . S
C1888 C1889 1.394 . S
C1888 C1894 1.465 . S
C1889 C1884 1.399 . S
C1889 C1888 1.394 . S
C1889 C1890 1.516 . S
C1890 C1889 1.516 . S
C1890 C1891 1.502 . S
C1890 C1892 1.561 . S
C1890 C1893 1.526 . S
C1891 H1875 0.959 . S
C1891 H1876 0.959 . S
C1891 H1877 0.961 . S
C1891 C1890 1.502 . S
C1892 H1878 0.960 . S
C1892 H1879 0.961 . S
C1892 H1880 0.959 . S
C1892 C1890 1.561 . S
C1893 C1890 1.526 . S
C1893 C1894 1.396 . S
C1893 C1898 1.390 . S
C1894 C1888 1.465 . S
C1894 C1893 1.396 . S
C1894 C1895 1.399 . S
C1895 H1881 0.929 . S
C1895 C1894 1.399 . S
C1895 C1896 1.385 . S
C1896 H1882 0.931 . S
C1896 C1895 1.385 . S
C1896 C1897 1.389 . S
C1897 C1896 1.389 . S
C1897 C1898 1.387 . S
C1898 H1883 0.930 . S
C1898 C1893 1.390 . S
C1898 C1897 1.387 . S
H1899 C1911 0.930 . S
H1900 C1913 0.930 . S
H1901 C1914 0.930 . S
H1902 C1918 0.959 . S
H1903 C1918 0.959 . S
H1904 C1918 0.961 . S
H1905 C1919 0.960 . S
H1906 C1919 0.961 . S
H1907 C1919 0.959 . S
H1908 C1922 0.929 . S
H1909 C1923 0.931 . S
H1910 C1925 0.930 . S
C1911 H1899 0.930 . S
C1911 C1912 1.399 . S
C1911 C1916 1.399 . S
C1912 C1911 1.399 . S
C1912 C1913 1.376 . S
C1913 H1900 0.930 . S
C1913 C1912 1.376 . S
C1913 C1914 1.388 . S
C1914 H1901 0.930 . S
C1914 C1913 1.388 . S
C1914 C1915 1.390 . S
C1915 C1914 1.390 . S
C1915 C1916 1.394 . S
C1915 C1921 1.465 . S
C1916 C1911 1.399 . S
C1916 C1915 1.394 . S
C1916 C1917 1.516 . S
C1917 C1916 1.516 . S
C1917 C1918 1.502 . S
C1917 C1919 1.561 . S
C1917 C1920 1.526 . S
C1918 H1902 0.959 . S
C1918 H1903 0.959 . S
C1918 H1904 0.961 . S
C1918 C1917 1.502 . S
C1919 H1905 0.960 . S
C1919 H1906 0.961 . S
C1919 H1907 0.959 . S
C1919 C1917 1.561 . S
C1920 C1917 1.526 . S
C1920 C1921 1.396 . S
C1920 C1925 1.390 . S
C1921 C1915 1.465 . S
C1921 C1920 1.396 . S
C1921 C1922 1.399 . S
C1922 H1908 0.929 . S
C1922 C1921 1.399 . S
C1922 C1923 1.385 . S
C1923 H1909 0.931 . S
C1923 C1922 1.385 . S
C1923 C1924 1.389 . S
C1924 C1923 1.389 . S
C1924 C1925 1.387 . S
C1925 H1910 0.930 . S
C1925 C1920 1.390 . S
C1925 C1924 1.387 . S
H1926 C1938 0.930 . S
H1927 C1940 0.930 . S
H1928 C1941 0.930 . S
H1929 C1945 0.959 . S
H1930 C1945 0.959 . S
H1931 C1945 0.961 . S
H1932 C1946 0.960 . S
H1933 C1946 0.961 . S
H1934 C1946 0.959 . S
H1935 C1949 0.929 . S
H1936 C1950 0.931 . S
H1937 C1952 0.930 . S
C1938 H1926 0.930 . S
C1938 C1939 1.399 . S
C1938 C1943 1.399 . S
C1939 C1938 1.399 . S
C1939 C1940 1.376 . S
C1940 H1927 0.930 . S
C1940 C1939 1.376 . S
C1940 C1941 1.388 . S
C1941 H1928 0.930 . S
C1941 C1940 1.388 . S
C1941 C1942 1.390 . S
C1942 C1941 1.390 . S
C1942 C1943 1.394 . S
C1942 C1948 1.465 . S
C1943 C1938 1.399 . S
C1943 C1942 1.394 . S
C1943 C1944 1.516 . S
C1944 C1943 1.516 . S
C1944 C1945 1.502 . S
C1944 C1946 1.561 . S
C1944 C1947 1.526 . S
C1945 H1929 0.959 . S
C1945 H1930 0.959 . S
C1945 H1931 0.961 . S
C1945 C1944 1.502 . S
C1946 H1932 0.960 . S
C1946 H1933 0.961 . S
C1946 H1934 0.959 . S
C1946 C1944 1.561 . S
C1947 C1944 1.526 . S
C1947 C1948 1.396 . S
C1947 C1952 1.390 . S
C1948 C1942 1.465 . S
C1948 C1947 1.396 . S
C1948 C1949 1.399 . S
C1949 H1935 0.929 . S
C1949 C1948 1.399 . S
C1949 C1950 1.385 . S
C1950 H1936 0.931 . S
C1950 C1949 1.385 . S
C1950 C1951 1.389 . S
C1951 C1950 1.389 . S
C1951 C1952 1.387 . S
C1952 H1937 0.930 . S
C1952 C1947 1.390 . S
C1952 C1951 1.387 . S
H1953 C1965 0.930 . S
H1954 C1967 0.930 . S
H1955 C1968 0.930 . S
H1956 C1972 0.959 . S
H1957 C1972 0.959 . S
H1958 C1972 0.961 . S
H1959 C1973 0.960 . S
H1960 C1973 0.961 . S
H1961 C1973 0.959 . S
H1962 C1976 0.929 . S
H1963 C1977 0.931 . S
H1964 C1979 0.930 . S
C1965 H1953 0.930 . S
C1965 C1966 1.399 . S
C1965 C1970 1.399 . S
C1966 C1965 1.399 . S
C1966 C1967 1.376 . S
C1967 H1954 0.930 . S
C1967 C1966 1.376 . S
C1967 C1968 1.388 . S
C1968 H1955 0.930 . S
C1968 C1967 1.388 . S
C1968 C1969 1.390 . S
C1969 C1968 1.390 . S
C1969 C1970 1.394 . S
C1969 C1975 1.465 . S
C1970 C1965 1.399 . S
C1970 C1969 1.394 . S
C1970 C1971 1.516 . S
C1971 C1970 1.516 . S
C1971 C1972 1.502 . S
C1971 C1973 1.561 . S
C1971 C1974 1.526 . S
C1972 H1956 0.959 . S
C1972 H1957 0.959 . S
C1972 H1958 0.961 . S
C1972 C1971 1.502 . S
C1973 H1959 0.960 . S
C1973 H1960 0.961 . S
C1973 H1961 0.959 . S
C1973 C1971 1.561 . S
C1974 C1971 1.526 . S
C1974 C1975 1.396 . S
C1974 C1979 1.390 . S
C1975 C1969 1.465 . S
C1975 C1974 1.396 . S
C1975 C1976 1.399 . S
C1976 H1962 0.929 . S
C1976 C1975 1.399 . S
C1976 C1977 1.385 . S
C1977 H1963 0.931 . S
C1977 C1976 1.385 . S
C1977 C1978 1.389 . S
C1978 C1977 1.389 . S
C1978 C1979 1.387 . S
C1979 H1964 0.930 . S
C1979 C1974 1.390 . S
C1979 C1978 1.387 . S
H1980 C1992 0.930 . S
H1981 C1994 0.930 . S
H1982 C1995 0.930 . S
H1983 C1999 0.959 . S
H1984 C1999 0.959 . S
H1985 C1999 0.961 . S
H1986 C2000 0.960 . S
H1987 C2000 0.961 . S
H1988 C2000 0.959 . S
H1989 C2003 0.929 . S
H1990 C2004 0.931 . S
H1991 C2006 0.930 . S
C1992 H1980 0.930 . S
C1992 C1993 1.399 . S
C1992 C1997 1.399 . S
C1993 C1992 1.399 . S
C1993 C1994 1.376 . S
C1994 H1981 0.930 . S
C1994 C1993 1.376 . S
C1994 C1995 1.388 . S
C1995 H1982 0.930 . S
C1995 C1994 1.388 . S
C1995 C1996 1.390 . S
C1996 C1995 1.390 . S
C1996 C1997 1.394 . S
C1996 C2002 1.465 . S
C1997 C1992 1.399 . S
C1997 C1996 1.394 . S
C1997 C1998 1.516 . S
C1998 C1997 1.516 . S
C1998 C1999 1.502 . S
C1998 C2000 1.561 . S
C1998 C2001 1.526 . S
C1999 H1983 0.959 . S
C1999 H1984 0.959 . S
C1999 H1985 0.961 . S
C1999 C1998 1.502 . S
C2000 H1986 0.960 . S
C2000 H1987 0.961 . S
C2000 H1988 0.959 . S
C2000 C1998 1.561 . S
C2001 C1998 1.526 . S
C2001 C2002 1.396 . S
C2001 C2006 1.390 . S
C2002 C1996 1.465 . S
C2002 C2001 1.396 . S
C2002 C2003 1.399 . S
C2003 H1989 0.929 . S
C2003 C2002 1.399 . S
C2003 C2004 1.385 . S
C2004 H1990 0.931 . S
C2004 C2003 1.385 . S
C2004 C2005 1.389 . S
C2005 C2004 1.389 . S
C2005 C2006 1.387 . S
C2006 H1991 0.930 . S
C2006 C2001 1.390 . S
C2006 C2005 1.387 . S
H2007 C2019 0.930 . S
H2008 C2021 0.930 . S
H2009 C2022 0.930 . S
H2010 C2026 0.959 . S
H2011 C2026 0.959 . S
H2012 C2026 0.961 . S
H2013 C2027 0.960 . S
H2014 C2027 0.961 . S
H2015 C2027 0.959 . S
H2016 C2030 0.929 . S
H2017 C2031 0.931 . S
H2018 C2033 0.930 . S
C2019 H2007 0.930 . S
C2019 C2020 1.399 . S
C2019 C2024 1.399 . S
C2020 C2019 1.399 . S
C2020 C2021 1.376 . S
C2021 H2008 0.930 . S
C2021 C2020 1.376 . S
C2021 C2022 1.388 . S
C2022 H2009 0.930 . S
C2022 C2021 1.388 . S
C2022 C2023 1.390 . S
C2023 C2022 1.390 . S
C2023 C2024 1.394 . S
C2023 C2029 1.465 . S
C2024 C2019 1.399 . S
C2024 C2023 1.394 . S
C2024 C2025 1.516 . S
C2025 C2024 1.516 . S
C2025 C2026 1.502 . S
C2025 C2027 1.561 . S
C2025 C2028 1.526 . S
C2026 H2010 0.959 . S
C2026 H2011 0.959 . S
C2026 H2012 0.961 . S
C2026 C2025 1.502 . S
C2027 H2013 0.960 . S
C2027 H2014 0.961 . S
C2027 H2015 0.959 . S
C2027 C2025 1.561 . S
C2028 C2025 1.526 . S
C2028 C2029 1.396 . S
C2028 C2033 1.390 . S
C2029 C2023 1.465 . S
C2029 C2028 1.396 . S
C2029 C2030 1.399 . S
C2030 H2016 0.929 . S
C2030 C2029 1.399 . S
C2030 C2031 1.385 . S
C2031 H2017 0.931 . S
C2031 C2030 1.385 . S
C2031 C2032 1.389 . S
C2032 C2031 1.389 . S
C2032 C2033 1.387 . S
C2033 H2018 0.930 . S
C2033 C2028 1.390 . S
C2033 C2032 1.387 . S
H2034 C2046 0.930 . S
H2035 C2048 0.930 . S
H2036 C2049 0.930 . S
H2037 C2053 0.959 . S
H2038 C2053 0.959 . S
H2039 C2053 0.961 . S
H2040 C2054 0.960 . S
H2041 C2054 0.961 . S
H2042 C2054 0.959 . S
H2043 C2057 0.929 . S
H2044 C2058 0.931 . S
H2045 C2060 0.930 . S
C2046 H2034 0.930 . S
C2046 C2047 1.399 . S
C2046 C2051 1.399 . S
C2047 C2046 1.399 . S
C2047 C2048 1.376 . S
C2048 H2035 0.930 . S
C2048 C2047 1.376 . S
C2048 C2049 1.388 . S
C2049 H2036 0.930 . S
C2049 C2048 1.388 . S
C2049 C2050 1.390 . S
C2050 C2049 1.390 . S
C2050 C2051 1.394 . S
C2050 C2056 1.465 . S
C2051 C2046 1.399 . S
C2051 C2050 1.394 . S
C2051 C2052 1.516 . S
C2052 C2051 1.516 . S
C2052 C2053 1.502 . S
C2052 C2054 1.561 . S
C2052 C2055 1.526 . S
C2053 H2037 0.959 . S
C2053 H2038 0.959 . S
C2053 H2039 0.961 . S
C2053 C2052 1.502 . S
C2054 H2040 0.960 . S
C2054 H2041 0.961 . S
C2054 H2042 0.959 . S
C2054 C2052 1.561 . S
C2055 C2052 1.526 . S
C2055 C2056 1.396 . S
C2055 C2060 1.390 . S
C2056 C2050 1.465 . S
C2056 C2055 1.396 . S
C2056 C2057 1.399 . S
C2057 H2043 0.929 . S
C2057 C2056 1.399 . S
C2057 C2058 1.385 . S
C2058 H2044 0.931 . S
C2058 C2057 1.385 . S
C2058 C2059 1.389 . S
C2059 C2058 1.389 . S
C2059 C2060 1.387 . S
C2060 H2045 0.930 . S
C2060 C2055 1.390 . S
C2060 C2059 1.387 . S
H2061 C2073 0.930 . S
H2062 C2075 0.930 . S
H2063 C2076 0.930 . S
H2064 C2080 0.959 . S
H2065 C2080 0.959 . S
H2066 C2080 0.961 . S
H2067 C2081 0.960 . S
H2068 C2081 0.961 . S
H2069 C2081 0.959 . S
H2070 C2084 0.929 . S
H2071 C2085 0.931 . S
H2072 C2087 0.930 . S
C2073 H2061 0.930 . S
C2073 C2074 1.399 . S
C2073 C2078 1.399 . S
C2074 C2073 1.399 . S
C2074 C2075 1.376 . S
C2075 H2062 0.930 . S
C2075 C2074 1.376 . S
C2075 C2076 1.388 . S
C2076 H2063 0.930 . S
C2076 C2075 1.388 . S
C2076 C2077 1.390 . S
C2077 C2076 1.390 . S
C2077 C2078 1.394 . S
C2077 C2083 1.465 . S
C2078 C2073 1.399 . S
C2078 C2077 1.394 . S
C2078 C2079 1.516 . S
C2079 C2078 1.516 . S
C2079 C2080 1.502 . S
C2079 C2081 1.561 . S
C2079 C2082 1.526 . S
C2080 H2064 0.959 . S
C2080 H2065 0.959 . S
C2080 H2066 0.961 . S
C2080 C2079 1.502 . S
C2081 H2067 0.960 . S
C2081 H2068 0.961 . S
C2081 H2069 0.959 . S
C2081 C2079 1.561 . S
C2082 C2079 1.526 . S
C2082 C2083 1.396 . S
C2082 C2087 1.390 . S
C2083 C2077 1.465 . S
C2083 C2082 1.396 . S
C2083 C2084 1.399 . S
C2084 H2070 0.929 . S
C2084 C2083 1.399 . S
C2084 C2085 1.385 . S
C2085 H2071 0.931 . S
C2085 C2084 1.385 . S
C2085 C2086 1.389 . S
C2086 C2085 1.389 . S
C2086 C2087 1.387 . S
C2087 H2072 0.930 . S
C2087 C2082 1.390 . S
C2087 C2086 1.387 . S
H2088 C2100 0.930 . S
H2089 C2102 0.930 . S
H2090 C2103 0.930 . S
H2091 C2107 0.959 . S
H2092 C2107 0.959 . S
H2093 C2107 0.961 . S
H2094 C2108 0.960 . S
H2095 C2108 0.961 . S
H2096 C2108 0.959 . S
H2097 C2111 0.929 . S
H2098 C2112 0.931 . S
H2099 C2114 0.930 . S
C2100 H2088 0.930 . S
C2100 C2101 1.399 . S
C2100 C2105 1.399 . S
C2101 C2100 1.399 . S
C2101 C2102 1.376 . S
C2102 H2089 0.930 . S
C2102 C2101 1.376 . S
C2102 C2103 1.388 . S
C2103 H2090 0.930 . S
C2103 C2102 1.388 . S
C2103 C2104 1.390 . S
C2104 C2103 1.390 . S
C2104 C2105 1.394 . S
C2104 C2110 1.465 . S
C2105 C2100 1.399 . S
C2105 C2104 1.394 . S
C2105 C2106 1.516 . S
C2106 C2105 1.516 . S
C2106 C2107 1.502 . S
C2106 C2108 1.561 . S
C2106 C2109 1.526 . S
C2107 H2091 0.959 . S
C2107 H2092 0.959 . S
C2107 H2093 0.961 . S
C2107 C2106 1.502 . S
C2108 H2094 0.960 . S
C2108 H2095 0.961 . S
C2108 H2096 0.959 . S
C2108 C2106 1.561 . S
C2109 C2106 1.526 . S
C2109 C2110 1.396 . S
C2109 C2114 1.390 . S
C2110 C2104 1.465 . S
C2110 C2109 1.396 . S
C2110 C2111 1.399 . S
C2111 H2097 0.929 . S
C2111 C2110 1.399 . S
C2111 C2112 1.385 . S
C2112 H2098 0.931 . S
C2112 C2111 1.385 . S
C2112 C2113 1.389 . S
C2113 C2112 1.389 . S
C2113 C2114 1.387 . S
C2114 H2099 0.930 . S
C2114 C2109 1.390 . S
C2114 C2113 1.387 . S
H2115 C2127 0.930 . S
H2116 C2129 0.930 . S
H2117 C2130 0.930 . S
H2118 C2134 0.959 . S
H2119 C2134 0.959 . S
H2120 C2134 0.961 . S
H2121 C2135 0.960 . S
H2122 C2135 0.961 . S
H2123 C2135 0.959 . S
H2124 C2138 0.929 . S
H2125 C2139 0.931 . S
H2126 C2141 0.930 . S
C2127 H2115 0.930 . S
C2127 C2128 1.399 . S
C2127 C2132 1.399 . S
C2128 C2127 1.399 . S
C2128 C2129 1.376 . S
C2129 H2116 0.930 . S
C2129 C2128 1.376 . S
C2129 C2130 1.388 . S
C2130 H2117 0.930 . S
C2130 C2129 1.388 . S
C2130 C2131 1.390 . S
C2131 C2130 1.390 . S
C2131 C2132 1.394 . S
C2131 C2137 1.465 . S
C2132 C2127 1.399 . S
C2132 C2131 1.394 . S
C2132 C2133 1.516 . S
C2133 C2132 1.516 . S
C2133 C2134 1.502 . S
C2133 C2135 1.561 . S
C2133 C2136 1.526 . S
C2134 H2118 0.959 . S
C2134 H2119 0.959 . S
C2134 H2120 0.961 . S
C2134 C2133 1.502 . S
C2135 H2121 0.960 . S
C2135 H2122 0.961 . S
C2135 H2123 0.959 . S
C2135 C2133 1.561 . S
C2136 C2133 1.526 . S
C2136 C2137 1.396 . S
C2136 C2141 1.390 . S
C2137 C2131 1.465 . S
C2137 C2136 1.396 . S
C2137 C2138 1.399 . S
C2138 H2124 0.929 . S
C2138 C2137 1.399 . S
C2138 C2139 1.385 . S
C2139 H2125 0.931 . S
C2139 C2138 1.385 . S
C2139 C2140 1.389 . S
C2140 C2139 1.389 . S
C2140 C2141 1.387 . S
C2141 H2126 0.930 . S
C2141 C2136 1.390 . S
C2141 C2140 1.387 . S
H2142 C2154 0.930 . S
H2143 C2156 0.930 . S
H2144 C2157 0.930 . S
H2145 C2161 0.959 . S
H2146 C2161 0.959 . S
H2147 C2161 0.961 . S
H2148 C2162 0.960 . S
H2149 C2162 0.961 . S
H2150 C2162 0.959 . S
H2151 C2165 0.929 . S
H2152 C2166 0.931 . S
H2153 C2168 0.930 . S
C2154 H2142 0.930 . S
C2154 C2155 1.399 . S
C2154 C2159 1.399 . S
C2155 C2154 1.399 . S
C2155 C2156 1.376 . S
C2156 H2143 0.930 . S
C2156 C2155 1.376 . S
C2156 C2157 1.388 . S
C2157 H2144 0.930 . S
C2157 C2156 1.388 . S
C2157 C2158 1.390 . S
C2158 C2157 1.390 . S
C2158 C2159 1.394 . S
C2158 C2164 1.465 . S
C2159 C2154 1.399 . S
C2159 C2158 1.394 . S
C2159 C2160 1.516 . S
C2160 C2159 1.516 . S
C2160 C2161 1.502 . S
C2160 C2162 1.561 . S
C2160 C2163 1.526 . S
C2161 H2145 0.959 . S
C2161 H2146 0.959 . S
C2161 H2147 0.961 . S
C2161 C2160 1.502 . S
C2162 H2148 0.960 . S
C2162 H2149 0.961 . S
C2162 H2150 0.959 . S
C2162 C2160 1.561 . S
C2163 C2160 1.526 . S
C2163 C2164 1.396 . S
C2163 C2168 1.390 . S
C2164 C2158 1.465 . S
C2164 C2163 1.396 . S
C2164 C2165 1.399 . S
C2165 H2151 0.929 . S
C2165 C2164 1.399 . S
C2165 C2166 1.385 . S
C2166 H2152 0.931 . S
C2166 C2165 1.385 . S
C2166 C2167 1.389 . S
C2167 C2166 1.389 . S
C2167 C2168 1.387 . S
C2168 H2153 0.930 . S
C2168 C2163 1.390 . S
C2168 C2167 1.387 . S
H2169 C2181 0.930 . S
H2170 C2183 0.930 . S
H2171 C2184 0.930 . S
H2172 C2188 0.959 . S
H2173 C2188 0.959 . S
H2174 C2188 0.961 . S
H2175 C2189 0.960 . S
H2176 C2189 0.961 . S
H2177 C2189 0.959 . S
H2178 C2192 0.929 . S
H2179 C2193 0.931 . S
H2180 C2195 0.930 . S
C2181 H2169 0.930 . S
C2181 C2182 1.399 . S
C2181 C2186 1.399 . S
C2182 C2181 1.399 . S
C2182 C2183 1.376 . S
C2183 H2170 0.930 . S
C2183 C2182 1.376 . S
C2183 C2184 1.388 . S
C2184 H2171 0.930 . S
C2184 C2183 1.388 . S
C2184 C2185 1.390 . S
C2185 C2184 1.390 . S
C2185 C2186 1.394 . S
C2185 C2191 1.465 . S
C2186 C2181 1.399 . S
C2186 C2185 1.394 . S
C2186 C2187 1.516 . S
C2187 C2186 1.516 . S
C2187 C2188 1.502 . S
C2187 C2189 1.561 . S
C2187 C2190 1.526 . S
C2188 H2172 0.959 . S
C2188 H2173 0.959 . S
C2188 H2174 0.961 . S
C2188 C2187 1.502 . S
C2189 H2175 0.960 . S
C2189 H2176 0.961 . S
C2189 H2177 0.959 . S
C2189 C2187 1.561 . S
C2190 C2187 1.526 . S
C2190 C2191 1.396 . S
C2190 C2195 1.390 . S
C2191 C2185 1.465 . S
C2191 C2190 1.396 . S
C2191 C2192 1.399 . S
C2192 H2178 0.929 . S
C2192 C2191 1.399 . S
C2192 C2193 1.385 . S
C2193 H2179 0.931 . S
C2193 C2192 1.385 . S
C2193 C2194 1.389 . S
C2194 C2193 1.389 . S
C2194 C2195 1.387 . S
C2195 H2180 0.930 . S
C2195 C2190 1.390 . S
C2195 C2194 1.387 . S
H2196 C2208 0.930 . S
H2197 C2210 0.930 . S
H2198 C2211 0.930 . S
H2199 C2215 0.959 . S
H2200 C2215 0.959 . S
H2201 C2215 0.961 . S
H2202 C2216 0.960 . S
H2203 C2216 0.961 . S
H2204 C2216 0.959 . S
H2205 C2219 0.929 . S
H2206 C2220 0.931 . S
H2207 C2222 0.930 . S
C2208 H2196 0.930 . S
C2208 C2209 1.399 . S
C2208 C2213 1.399 . S
C2209 C2208 1.399 . S
C2209 C2210 1.376 . S
C2210 H2197 0.930 . S
C2210 C2209 1.376 . S
C2210 C2211 1.388 . S
C2211 H2198 0.930 . S
C2211 C2210 1.388 . S
C2211 C2212 1.390 . S
C2212 C2211 1.390 . S
C2212 C2213 1.394 . S
C2212 C2218 1.465 . S
C2213 C2208 1.399 . S
C2213 C2212 1.394 . S
C2213 C2214 1.516 . S
C2214 C2213 1.516 . S
C2214 C2215 1.502 . S
C2214 C2216 1.561 . S
C2214 C2217 1.526 . S
C2215 H2199 0.959 . S
C2215 H2200 0.959 . S
C2215 H2201 0.961 . S
C2215 C2214 1.502 . S
C2216 H2202 0.960 . S
C2216 H2203 0.961 . S
C2216 H2204 0.959 . S
C2216 C2214 1.561 . S
C2217 C2214 1.526 . S
C2217 C2218 1.396 . S
C2217 C2222 1.390 . S
C2218 C2212 1.465 . S
C2218 C2217 1.396 . S
C2218 C2219 1.399 . S
C2219 H2205 0.929 . S
C2219 C2218 1.399 . S
C2219 C2220 1.385 . S
C2220 H2206 0.931 . S
C2220 C2219 1.385 . S
C2220 C2221 1.389 . S
C2221 C2220 1.389 . S
C2221 C2222 1.387 . S
C2222 H2207 0.930 . S
C2222 C2217 1.390 . S
C2222 C2221 1.387 . S
H2223 C2235 0.930 . S
H2224 C2237 0.930 . S
H2225 C2238 0.930 . S
H2226 C2242 0.959 . S
H2227 C2242 0.959 . S
H2228 C2242 0.961 . S
H2229 C2243 0.960 . S
H2230 C2243 0.961 . S
H2231 C2243 0.959 . S
H2232 C2246 0.929 . S
H2233 C2247 0.931 . S
H2234 C2249 0.930 . S
C2235 H2223 0.930 . S
C2235 C2236 1.399 . S
C2235 C2240 1.399 . S
C2236 C2235 1.399 . S
C2236 C2237 1.376 . S
C2237 H2224 0.930 . S
C2237 C2236 1.376 . S
C2237 C2238 1.388 . S
C2238 H2225 0.930 . S
C2238 C2237 1.388 . S
C2238 C2239 1.390 . S
C2239 C2238 1.390 . S
C2239 C2240 1.394 . S
C2239 C2245 1.465 . S
C2240 C2235 1.399 . S
C2240 C2239 1.394 . S
C2240 C2241 1.516 . S
C2241 C2240 1.516 . S
C2241 C2242 1.502 . S
C2241 C2243 1.561 . S
C2241 C2244 1.526 . S
C2242 H2226 0.959 . S
C2242 H2227 0.959 . S
C2242 H2228 0.961 . S
C2242 C2241 1.502 . S
C2243 H2229 0.960 . S
C2243 H2230 0.961 . S
C2243 H2231 0.959 . S
C2243 C2241 1.561 . S
C2244 C2241 1.526 . S
C2244 C2245 1.396 . S
C2244 C2249 1.390 . S
C2245 C2239 1.465 . S
C2245 C2244 1.396 . S
C2245 C2246 1.399 . S
C2246 H2232 0.929 . S
C2246 C2245 1.399 . S
C2246 C2247 1.385 . S
C2247 H2233 0.931 . S
C2247 C2246 1.385 . S
C2247 C2248 1.389 . S
C2248 C2247 1.389 . S
C2248 C2249 1.387 . S
C2249 H2234 0.930 . S
C2249 C2244 1.390 . S
C2249 C2248 1.387 . S
H2250 C2262 0.930 . S
H2251 C2264 0.930 . S
H2252 C2265 0.930 . S
H2253 C2269 0.959 . S
H2254 C2269 0.959 . S
H2255 C2269 0.961 . S
H2256 C2270 0.960 . S
H2257 C2270 0.961 . S
H2258 C2270 0.959 . S
H2259 C2273 0.929 . S
H2260 C2274 0.931 . S
H2261 C2276 0.930 . S
C2262 H2250 0.930 . S
C2262 C2263 1.399 . S
C2262 C2267 1.399 . S
C2263 C2262 1.399 . S
C2263 C2264 1.376 . S
C2264 H2251 0.930 . S
C2264 C2263 1.376 . S
C2264 C2265 1.388 . S
C2265 H2252 0.930 . S
C2265 C2264 1.388 . S
C2265 C2266 1.390 . S
C2266 C2265 1.390 . S
C2266 C2267 1.394 . S
C2266 C2272 1.465 . S
C2267 C2262 1.399 . S
C2267 C2266 1.394 . S
C2267 C2268 1.516 . S
C2268 C2267 1.516 . S
C2268 C2269 1.502 . S
C2268 C2270 1.561 . S
C2268 C2271 1.526 . S
C2269 H2253 0.959 . S
C2269 H2254 0.959 . S
C2269 H2255 0.961 . S
C2269 C2268 1.502 . S
C2270 H2256 0.960 . S
C2270 H2257 0.961 . S
C2270 H2258 0.959 . S
C2270 C2268 1.561 . S
C2271 C2268 1.526 . S
C2271 C2272 1.396 . S
C2271 C2276 1.390 . S
C2272 C2266 1.465 . S
C2272 C2271 1.396 . S
C2272 C2273 1.399 . S
C2273 H2259 0.929 . S
C2273 C2272 1.399 . S
C2273 C2274 1.385 . S
C2274 H2260 0.931 . S
C2274 C2273 1.385 . S
C2274 C2275 1.389 . S
C2275 C2274 1.389 . S
C2275 C2276 1.387 . S
C2276 H2261 0.930 . S
C2276 C2271 1.390 . S
C2276 C2275 1.387 . S
H2277 C2289 0.930 . S
H2278 C2291 0.930 . S
H2279 C2292 0.930 . S
H2280 C2296 0.959 . S
H2281 C2296 0.959 . S
H2282 C2296 0.961 . S
H2283 C2297 0.960 . S
H2284 C2297 0.961 . S
H2285 C2297 0.959 . S
H2286 C2300 0.929 . S
H2287 C2301 0.931 . S
H2288 C2303 0.930 . S
C2289 H2277 0.930 . S
C2289 C2290 1.399 . S
C2289 C2294 1.399 . S
C2290 C2289 1.399 . S
C2290 C2291 1.376 . S
C2291 H2278 0.930 . S
C2291 C2290 1.376 . S
C2291 C2292 1.388 . S
C2292 H2279 0.930 . S
C2292 C2291 1.388 . S
C2292 C2293 1.390 . S
C2293 C2292 1.390 . S
C2293 C2294 1.394 . S
C2293 C2299 1.465 . S
C2294 C2289 1.399 . S
C2294 C2293 1.394 . S
C2294 C2295 1.516 . S
C2295 C2294 1.516 . S
C2295 C2296 1.502 . S
C2295 C2297 1.561 . S
C2295 C2298 1.526 . S
C2296 H2280 0.959 . S
C2296 H2281 0.959 . S
C2296 H2282 0.961 . S
C2296 C2295 1.502 . S
C2297 H2283 0.960 . S
C2297 H2284 0.961 . S
C2297 H2285 0.959 . S
C2297 C2295 1.561 . S
C2298 C2295 1.526 . S
C2298 C2299 1.396 . S
C2298 C2303 1.390 . S
C2299 C2293 1.465 . S
C2299 C2298 1.396 . S
C2299 C2300 1.399 . S
C2300 H2286 0.929 . S
C2300 C2299 1.399 . S
C2300 C2301 1.385 . S
C2301 H2287 0.931 . S
C2301 C2300 1.385 . S
C2301 C2302 1.389 . S
C2302 C2301 1.389 . S
C2302 C2303 1.387 . S
C2303 H2288 0.930 . S
C2303 C2298 1.390 . S
C2303 C2302 1.387 . S
H2304 C2316 0.930 . S
H2305 C2318 0.930 . S
H2306 C2319 0.930 . S
H2307 C2323 0.959 . S
H2308 C2323 0.959 . S
H2309 C2323 0.961 . S
H2310 C2324 0.960 . S
H2311 C2324 0.961 . S
H2312 C2324 0.959 . S
H2313 C2327 0.929 . S
H2314 C2328 0.931 . S
H2315 C2330 0.930 . S
C2316 H2304 0.930 . S
C2316 C2317 1.399 . S
C2316 C2321 1.399 . S
C2317 C2316 1.399 . S
C2317 C2318 1.376 . S
C2318 H2305 0.930 . S
C2318 C2317 1.376 . S
C2318 C2319 1.388 . S
C2319 H2306 0.930 . S
C2319 C2318 1.388 . S
C2319 C2320 1.390 . S
C2320 C2319 1.390 . S
C2320 C2321 1.394 . S
C2320 C2326 1.465 . S
C2321 C2316 1.399 . S
C2321 C2320 1.394 . S
C2321 C2322 1.516 . S
C2322 C2321 1.516 . S
C2322 C2323 1.502 . S
C2322 C2324 1.561 . S
C2322 C2325 1.526 . S
C2323 H2307 0.959 . S
C2323 H2308 0.959 . S
C2323 H2309 0.961 . S
C2323 C2322 1.502 . S
C2324 H2310 0.960 . S
C2324 H2311 0.961 . S
C2324 H2312 0.959 . S
C2324 C2322 1.561 . S
C2325 C2322 1.526 . S
C2325 C2326 1.396 . S
C2325 C2330 1.390 . S
C2326 C2320 1.465 . S
C2326 C2325 1.396 . S
C2326 C2327 1.399 . S
C2327 H2313 0.929 . S
C2327 C2326 1.399 . S
C2327 C2328 1.385 . S
C2328 H2314 0.931 . S
C2328 C2327 1.385 . S
C2328 C2329 1.389 . S
C2329 C2328 1.389 . S
C2329 C2330 1.387 . S
C2330 H2315 0.930 . S
C2330 C2325 1.390 . S
C2330 C2329 1.387 . S
H2331 C2343 0.930 . S
H2332 C2345 0.930 . S
H2333 C2346 0.930 . S
H2334 C2350 0.959 . S
H2335 C2350 0.959 . S
H2336 C2350 0.961 . S
H2337 C2351 0.960 . S
H2338 C2351 0.961 . S
H2339 C2351 0.959 . S
H2340 C2354 0.929 . S
H2341 C2355 0.931 . S
H2342 C2357 0.930 . S
C2343 H2331 0.930 . S
C2343 C2344 1.399 . S
C2343 C2348 1.399 . S
C2344 C2343 1.399 . S
C2344 C2345 1.376 . S
C2345 H2332 0.930 . S
C2345 C2344 1.376 . S
C2345 C2346 1.388 . S
C2346 H2333 0.930 . S
C2346 C2345 1.388 . S
C2346 C2347 1.390 . S
C2347 C2346 1.390 . S
C2347 C2348 1.394 . S
C2347 C2353 1.465 . S
C2348 C2343 1.399 . S
C2348 C2347 1.394 . S
C2348 C2349 1.516 . S
C2349 C2348 1.516 . S
C2349 C2350 1.502 . S
C2349 C2351 1.561 . S
C2349 C2352 1.526 . S
C2350 H2334 0.959 . S
C2350 H2335 0.959 . S
C2350 H2336 0.961 . S
C2350 C2349 1.502 . S
C2351 H2337 0.960 . S
C2351 H2338 0.961 . S
C2351 H2339 0.959 . S
C2351 C2349 1.561 . S
C2352 C2349 1.526 . S
C2352 C2353 1.396 . S
C2352 C2357 1.390 . S
C2353 C2347 1.465 . S
C2353 C2352 1.396 . S
C2353 C2354 1.399 . S
C2354 H2340 0.929 . S
C2354 C2353 1.399 . S
C2354 C2355 1.385 . S
C2355 H2341 0.931 . S
C2355 C2354 1.385 . S
C2355 C2356 1.389 . S
C2356 C2355 1.389 . S
C2356 C2357 1.387 . S
C2357 H2342 0.930 . S
C2357 C2352 1.390 . S
C2357 C2356 1.387 . S
H2358 C2370 0.930 . S
H2359 C2372 0.930 . S
H2360 C2373 0.930 . S
H2361 C2377 0.959 . S
H2362 C2377 0.959 . S
H2363 C2377 0.961 . S
H2364 C2378 0.960 . S
H2365 C2378 0.961 . S
H2366 C2378 0.959 . S
H2367 C2381 0.929 . S
H2368 C2382 0.931 . S
H2369 C2384 0.930 . S
C2370 H2358 0.930 . S
C2370 C2371 1.399 . S
C2370 C2375 1.399 . S
C2371 C2370 1.399 . S
C2371 C2372 1.376 . S
C2372 H2359 0.930 . S
C2372 C2371 1.376 . S
C2372 C2373 1.388 . S
C2373 H2360 0.930 . S
C2373 C2372 1.388 . S
C2373 C2374 1.390 . S
C2374 C2373 1.390 . S
C2374 C2375 1.394 . S
C2374 C2380 1.465 . S
C2375 C2370 1.399 . S
C2375 C2374 1.394 . S
C2375 C2376 1.516 . S
C2376 C2375 1.516 . S
C2376 C2377 1.502 . S
C2376 C2378 1.561 . S
C2376 C2379 1.526 . S
C2377 H2361 0.959 . S
C2377 H2362 0.959 . S
C2377 H2363 0.961 . S
C2377 C2376 1.502 . S
C2378 H2364 0.960 . S
C2378 H2365 0.961 . S
C2378 H2366 0.959 . S
C2378 C2376 1.561 . S
C2379 C2376 1.526 . S
C2379 C2380 1.396 . S
C2379 C2384 1.390 . S
C2380 C2374 1.465 . S
C2380 C2379 1.396 . S
C2380 C2381 1.399 . S
C2381 H2367 0.929 . S
C2381 C2380 1.399 . S
C2381 C2382 1.385 . S
C2382 H2368 0.931 . S
C2382 C2381 1.385 . S
C2382 C2383 1.389 . S
C2383 C2382 1.389 . S
C2383 C2384 1.387 . S
C2384 H2369 0.930 . S
C2384 C2379 1.390 . S
C2384 C2383 1.387 . S
H2385 C2397 0.930 . S
H2386 C2399 0.930 . S
H2387 C2400 0.930 . S
H2388 C2404 0.959 . S
H2389 C2404 0.959 . S
H2390 C2404 0.961 . S
H2391 C2405 0.960 . S
H2392 C2405 0.961 . S
H2393 C2405 0.959 . S
H2394 C2408 0.929 . S
H2395 C2409 0.931 . S
H2396 C2411 0.930 . S
C2397 H2385 0.930 . S
C2397 C2398 1.399 . S
C2397 C2402 1.399 . S
C2398 C2397 1.399 . S
C2398 C2399 1.376 . S
C2399 H2386 0.930 . S
C2399 C2398 1.376 . S
C2399 C2400 1.388 . S
C2400 H2387 0.930 . S
C2400 C2399 1.388 . S
C2400 C2401 1.390 . S
C2401 C2400 1.390 . S
C2401 C2402 1.394 . S
C2401 C2407 1.465 . S
C2402 C2397 1.399 . S
C2402 C2401 1.394 . S
C2402 C2403 1.516 . S
C2403 C2402 1.516 . S
C2403 C2404 1.502 . S
C2403 C2405 1.561 . S
C2403 C2406 1.526 . S
C2404 H2388 0.959 . S
C2404 H2389 0.959 . S
C2404 H2390 0.961 . S
C2404 C2403 1.502 . S
C2405 H2391 0.960 . S
C2405 H2392 0.961 . S
C2405 H2393 0.959 . S
C2405 C2403 1.561 . S
C2406 C2403 1.526 . S
C2406 C2407 1.396 . S
C2406 C2411 1.390 . S
C2407 C2401 1.465 . S
C2407 C2406 1.396 . S
C2407 C2408 1.399 . S
C2408 H2394 0.929 . S
C2408 C2407 1.399 . S
C2408 C2409 1.385 . S
C2409 H2395 0.931 . S
C2409 C2408 1.385 . S
C2409 C2410 1.389 . S
C2410 C2409 1.389 . S
C2410 C2411 1.387 . S
C2411 H2396 0.930 . S
C2411 C2406 1.390 . S
C2411 C2410 1.387 . S
C805 C186 0.977 . S
C817 C21 0.935 . S
C832 C54 1.001 . S
C844 C219 0.968 . S
C859 C87 0.927 . S
C871 C252 0.936 . S
C886 C153 0.996 . S
C898 C120 0.995 . S
C913 C285 1.002 . S
C925 C780 0.976 . S
C940 C714 0.949 . S
C952 C318 0.991 . S
C967 C351 0.999 . S
C979 C747 0.990 . S
C994 C549 0.968 . S
C1006 C384 1.000 . S
C1021 C417 0.989 . S
C1033 C681 0.999 . S
C1048 C450 1.000 . S
C1060 C582 0.989 . S
C1075 C615 0.926 . S
C1087 C483 0.937 . S
C1102 C516 0.996 . S
C1114 C648 0.994 . S
C1129 N101 1.588 . S
C1141 C7 1.712 . S
C1156 C40 1.658 . S
C1168 N2 1.672 . S
C1183 C73 1.665 . S
C1195 N35 1.644 . S
C1210 N68 1.635 . S
C1222 C106 1.696 . S
C1237 N167 1.672 . S
C1249 C139 1.664 . S
C1264 C172 1.675 . S
C1276 N200 1.662 . S
C1291 N233 1.673 . S
C1303 C205 1.661 . S
C1318 N134 1.627 . S
C1330 C238 1.701 . S
C1345 N596 1.626 . S
C1357 C271 1.702 . S
C1372 C304 1.662 . S
C1384 N629 1.672 . S
C1399 N662 1.653 . S
C1411 C337 1.662 . S
C1426 C370 1.714 . S
C1438 N563 1.598 . S
C1453 N728 1.637 . S
C1465 C403 1.670 . S
C1480 C436 1.711 . S
C1492 N530 1.608 . S
C1507 N761 1.617 . S
C1519 C469 1.706 . S
C1534 C502 1.663 . S
C1546 N695 1.649 . S
C1561 N299 1.626 . S
C1573 C535 1.702 . S
C1588 N497 1.623 . S
C1600 C568 1.678 . S
C1615 C601 1.659 . S
C1627 N398 1.673 . S
C1642 C634 1.698 . S
C1654 N431 1.597 . S
C1669 N464 1.628 . S
C1681 C667 1.675 . S
C1696 N365 1.659 . S
C1708 C700 1.679 . S
C1723 N266 1.618 . S
C1735 C733 1.706 . S
C1750 C766 1.713 . S
C1762 N332 1.589 . S
C1777 C18 1.276 . S
C1789 N541 1.138 . S
C1804 N772 1.179 . S
C1816 C51 1.273 . S
C1831 C84 1.286 . S
C1843 N706 1.138 . S
C1858 N739 1.189 . S
C1870 C117 1.254 . S
C1885 C150 1.261 . S
C1897 N574 1.210 . S
C1912 C183 1.286 . S
C1924 N607 1.122 . S
C1939 N640 1.247 . S
C1951 C216 1.237 . S
C1966 N673 1.237 . S
C1978 C249 1.239 . S
C1993 N13 1.174 . S
C2005 C282 1.260 . S
C2020 C315 1.267 . S
C2032 N46 1.158 . S
C2047 C348 1.241 . S
C2059 N79 1.245 . S
C2074 C381 1.259 . S
C2086 N112 1.177 . S
C2101 C414 1.236 . S
C2113 N145 1.246 . S
C2128 C447 1.262 . S
C2140 N178 1.170 . S
C2155 C480 1.240 . S
C2167 N211 1.247 . S
C2182 C513 1.287 . S
C2194 N244 1.134 . S
C2209 N277 1.171 . S
C2221 C546 1.275 . S
C2236 C579 1.236 . S
C2248 N409 1.244 . S
C2263 C612 1.240 . S
C2275 N442 1.247 . S
C2290 N475 1.184 . S
C2302 C645 1.271 . S
C2317 C678 1.236 . S
C2329 N508 1.246 . S
C2344 N343 1.195 . S
C2356 C711 1.252 . S
C2371 N376 1.160 . S
C2383 C744 1.279 . S
C2398 C777 1.238 . S
C2410 N310 1.234 . S
