# Generated by pormake.
# Topology vda, (6)-cn, num edge types: 1
# Building blocks:
#     Node 0, Type 0, BuildingBlock: VOLQOD_clean_sbu_1, # of connection points: 6
#     Node 1, Type 0, BuildingBlock: VOLQOD_clean_sbu_1, # of connection points: 6
#     Node 2, Type 0, BuildingBlock: VOLQOD_clean_sbu_1, # of connection points: 6
#     Node 3, Type 0, BuildingBlock: VOLQOD_clean_sbu_1, # of connection points: 6
#     Node 4, Type 0, BuildingBlock: VOLQOD_clean_sbu_1, # of connection points: 6
#     Node 5, Type 0, BuildingBlock: VOLQOD_clean_sbu_1, # of connection points: 6
#     Node 6, Type 0, BuildingBlock: VOLQOD_clean_sbu_1, # of connection points: 6
#     Node 7, Type 0, BuildingBlock: VOLQOD_clean_sbu_1, # of connection points: 6
#     Node 8, Type 0, BuildingBlock: VOLQOD_clean_sbu_1, # of connection points: 6
#     Node 9, Type 0, BuildingBlock: VOLQOD_clean_sbu_1, # of connection points: 6
#     Node 10, Type 0, BuildingBlock: VOLQOD_clean_sbu_1, # of connection points: 6
#     Node 11, Type 0, BuildingBlock: VOLQOD_clean_sbu_1, # of connection points: 6
#     Node 12, Type 0, BuildingBlock: VOLQOD_clean_sbu_1, # of connection points: 6
#     Node 13, Type 0, BuildingBlock: VOLQOD_clean_sbu_1, # of connection points: 6
#     Node 14, Type 0, BuildingBlock: VOLQOD_clean_sbu_1, # of connection points: 6
#     Node 15, Type 0, BuildingBlock: VOLQOD_clean_sbu_1, # of connection points: 6
#     Node 16, Type 0, BuildingBlock: VOLQOD_clean_sbu_1, # of connection points: 6
#     Node 17, Type 0, BuildingBlock: VOLQOD_clean_sbu_1, # of connection points: 6
#     Node 18, Type 0, BuildingBlock: VOLQOD_clean_sbu_1, # of connection points: 6
#     Node 19, Type 0, BuildingBlock: VOLQOD_clean_sbu_1, # of connection points: 6
#     Node 20, Type 0, BuildingBlock: VOLQOD_clean_sbu_1, # of connection points: 6
#     Node 21, Type 0, BuildingBlock: VOLQOD_clean_sbu_1, # of connection points: 6
#     Node 22, Type 0, BuildingBlock: VOLQOD_clean_sbu_1, # of connection points: 6
#     Node 23, Type 0, BuildingBlock: VOLQOD_clean_sbu_1, # of connection points: 6
#     Node 24, Type 0, BuildingBlock: VOLQOD_clean_sbu_1, # of connection points: 6
#     Node 25, Type 0, BuildingBlock: VOLQOD_clean_sbu_1, # of connection points: 6
#     Node 26, Type 0, BuildingBlock: VOLQOD_clean_sbu_1, # of connection points: 6
#     Node 27, Type 0, BuildingBlock: VOLQOD_clean_sbu_1, # of connection points: 6
#     Node 28, Type 0, BuildingBlock: VOLQOD_clean_sbu_1, # of connection points: 6
#     Node 29, Type 0, BuildingBlock: VOLQOD_clean_sbu_1, # of connection points: 6
#     Node 30, Type 0, BuildingBlock: VOLQOD_clean_sbu_1, # of connection points: 6
#     Node 31, Type 0, BuildingBlock: VOLQOD_clean_sbu_1, # of connection points: 6
#     Edge 32, Type (0, 0), BuildingBlock: CIFDUS_clean_linker_0, # of connection points: 2
#     Edge 33, Type (0, 0), BuildingBlock: CIFDUS_clean_linker_0, # of connection points: 2
#     Edge 34, Type (0, 0), BuildingBlock: CIFDUS_clean_linker_0, # of connection points: 2
#     Edge 35, Type (0, 0), BuildingBlock: CIFDUS_clean_linker_0, # of connection points: 2
#     Edge 36, Type (0, 0), BuildingBlock: CIFDUS_clean_linker_0, # of connection points: 2
#     Edge 37, Type (0, 0), BuildingBlock: CIFDUS_clean_linker_0, # of connection points: 2
#     Edge 38, Type (0, 0), BuildingBlock: CIFDUS_clean_linker_0, # of connection points: 2
#     Edge 39, Type (0, 0), BuildingBlock: CIFDUS_clean_linker_0, # of connection points: 2
#     Edge 40, Type (0, 0), BuildingBlock: CIFDUS_clean_linker_0, # of connection points: 2
#     Edge 41, Type (0, 0), BuildingBlock: CIFDUS_clean_linker_0, # of connection points: 2
#     Edge 42, Type (0, 0), BuildingBlock: CIFDUS_clean_linker_0, # of connection points: 2
#     Edge 43, Type (0, 0), BuildingBlock: CIFDUS_clean_linker_0, # of connection points: 2
#     Edge 44, Type (0, 0), BuildingBlock: CIFDUS_clean_linker_0, # of connection points: 2
#     Edge 45, Type (0, 0), BuildingBlock: CIFDUS_clean_linker_0, # of connection points: 2
#     Edge 46, Type (0, 0), BuildingBlock: CIFDUS_clean_linker_0, # of connection points: 2
#     Edge 47, Type (0, 0), BuildingBlock: CIFDUS_clean_linker_0, # of connection points: 2
#     Edge 48, Type (0, 0), BuildingBlock: CIFDUS_clean_linker_0, # of connection points: 2
#     Edge 49, Type (0, 0), BuildingBlock: CIFDUS_clean_linker_0, # of connection points: 2
#     Edge 50, Type (0, 0), BuildingBlock: CIFDUS_clean_linker_0, # of connection points: 2
#     Edge 51, Type (0, 0), BuildingBlock: CIFDUS_clean_linker_0, # of connection points: 2
#     Edge 52, Type (0, 0), BuildingBlock: CIFDUS_clean_linker_0, # of connection points: 2
#     Edge 53, Type (0, 0), BuildingBlock: CIFDUS_clean_linker_0, # of connection points: 2
#     Edge 54, Type (0, 0), BuildingBlock: CIFDUS_clean_linker_0, # of connection points: 2
#     Edge 55, Type (0, 0), BuildingBlock: CIFDUS_clean_linker_0, # of connection points: 2
#     Edge 56, Type (0, 0), BuildingBlock: CIFDUS_clean_linker_0, # of connection points: 2
#     Edge 57, Type (0, 0), BuildingBlock: CIFDUS_clean_linker_0, # of connection points: 2
#     Edge 58, Type (0, 0), BuildingBlock: CIFDUS_clean_linker_0, # of connection points: 2
#     Edge 59, Type (0, 0), BuildingBlock: CIFDUS_clean_linker_0, # of connection points: 2
#     Edge 60, Type (0, 0), BuildingBlock: CIFDUS_clean_linker_0, # of connection points: 2
#     Edge 61, Type (0, 0), BuildingBlock: CIFDUS_clean_linker_0, # of connection points: 2
#     Edge 62, Type (0, 0), BuildingBlock: CIFDUS_clean_linker_0, # of connection points: 2
#     Edge 63, Type (0, 0), BuildingBlock: CIFDUS_clean_linker_0, # of connection points: 2
#     Edge 64, Type (0, 0), BuildingBlock: CIFDUS_clean_linker_0, # of connection points: 2
#     Edge 65, Type (0, 0), BuildingBlock: CIFDUS_clean_linker_0, # of connection points: 2
#     Edge 66, Type (0, 0), BuildingBlock: CIFDUS_clean_linker_0, # of connection points: 2
#     Edge 67, Type (0, 0), BuildingBlock: CIFDUS_clean_linker_0, # of connection points: 2
#     Edge 68, Type (0, 0), BuildingBlock: CIFDUS_clean_linker_0, # of connection points: 2
#     Edge 69, Type (0, 0), BuildingBlock: CIFDUS_clean_linker_0, # of connection points: 2
#     Edge 70, Type (0, 0), BuildingBlock: CIFDUS_clean_linker_0, # of connection points: 2
#     Edge 71, Type (0, 0), BuildingBlock: CIFDUS_clean_linker_0, # of connection points: 2
#     Edge 72, Type (0, 0), BuildingBlock: CIFDUS_clean_linker_0, # of connection points: 2
#     Edge 73, Type (0, 0), BuildingBlock: CIFDUS_clean_linker_0, # of connection points: 2
#     Edge 74, Type (0, 0), BuildingBlock: CIFDUS_clean_linker_0, # of connection points: 2
#     Edge 75, Type (0, 0), BuildingBlock: CIFDUS_clean_linker_0, # of connection points: 2
#     Edge 76, Type (0, 0), BuildingBlock: CIFDUS_clean_linker_0, # of connection points: 2
#     Edge 77, Type (0, 0), BuildingBlock: CIFDUS_clean_linker_0, # of connection points: 2
#     Edge 78, Type (0, 0), BuildingBlock: CIFDUS_clean_linker_0, # of connection points: 2
#     Edge 79, Type (0, 0), BuildingBlock: CIFDUS_clean_linker_0, # of connection points: 2
#     Edge 80, Type (0, 0), BuildingBlock: CIFDUS_clean_linker_0, # of connection points: 2
#     Edge 81, Type (0, 0), BuildingBlock: CIFDUS_clean_linker_0, # of connection points: 2
#     Edge 82, Type (0, 0), BuildingBlock: CIFDUS_clean_linker_0, # of connection points: 2
#     Edge 83, Type (0, 0), BuildingBlock: CIFDUS_clean_linker_0, # of connection points: 2
#     Edge 84, Type (0, 0), BuildingBlock: CIFDUS_clean_linker_0, # of connection points: 2
#     Edge 85, Type (0, 0), BuildingBlock: CIFDUS_clean_linker_0, # of connection points: 2
#     Edge 86, Type (0, 0), BuildingBlock: CIFDUS_clean_linker_0, # of connection points: 2
#     Edge 87, Type (0, 0), BuildingBlock: CIFDUS_clean_linker_0, # of connection points: 2
#     Edge 88, Type (0, 0), BuildingBlock: CIFDUS_clean_linker_0, # of connection points: 2
#     Edge 89, Type (0, 0), BuildingBlock: CIFDUS_clean_linker_0, # of connection points: 2
#     Edge 90, Type (0, 0), BuildingBlock: CIFDUS_clean_linker_0, # of connection points: 2
#     Edge 91, Type (0, 0), BuildingBlock: CIFDUS_clean_linker_0, # of connection points: 2
#     Edge 92, Type (0, 0), BuildingBlock: CIFDUS_clean_linker_0, # of connection points: 2
#     Edge 93, Type (0, 0), BuildingBlock: CIFDUS_clean_linker_0, # of connection points: 2
#     Edge 94, Type (0, 0), BuildingBlock: CIFDUS_clean_linker_0, # of connection points: 2
#     Edge 95, Type (0, 0), BuildingBlock: CIFDUS_clean_linker_0, # of connection points: 2
#     Edge 96, Type (0, 0), BuildingBlock: CIFDUS_clean_linker_0, # of connection points: 2
#     Edge 97, Type (0, 0), BuildingBlock: CIFDUS_clean_linker_0, # of connection points: 2
#     Edge 98, Type (0, 0), BuildingBlock: CIFDUS_clean_linker_0, # of connection points: 2
#     Edge 99, Type (0, 0), BuildingBlock: CIFDUS_clean_linker_0, # of connection points: 2
#     Edge 100, Type (0, 0), BuildingBlock: CIFDUS_clean_linker_0, # of connection points: 2
#     Edge 101, Type (0, 0), BuildingBlock: CIFDUS_clean_linker_0, # of connection points: 2
#     Edge 102, Type (0, 0), BuildingBlock: CIFDUS_clean_linker_0, # of connection points: 2
#     Edge 103, Type (0, 0), BuildingBlock: CIFDUS_clean_linker_0, # of connection points: 2
#     Edge 104, Type (0, 0), BuildingBlock: CIFDUS_clean_linker_0, # of connection points: 2
#     Edge 105, Type (0, 0), BuildingBlock: CIFDUS_clean_linker_0, # of connection points: 2
#     Edge 106, Type (0, 0), BuildingBlock: CIFDUS_clean_linker_0, # of connection points: 2
#     Edge 107, Type (0, 0), BuildingBlock: CIFDUS_clean_linker_0, # of connection points: 2
#     Edge 108, Type (0, 0), BuildingBlock: CIFDUS_clean_linker_0, # of connection points: 2
#     Edge 109, Type (0, 0), BuildingBlock: CIFDUS_clean_linker_0, # of connection points: 2
#     Edge 110, Type (0, 0), BuildingBlock: CIFDUS_clean_linker_0, # of connection points: 2
#     Edge 111, Type (0, 0), BuildingBlock: CIFDUS_clean_linker_0, # of connection points: 2
#     Edge 112, Type (0, 0), BuildingBlock: CIFDUS_clean_linker_0, # of connection points: 2
#     Edge 113, Type (0, 0), BuildingBlock: CIFDUS_clean_linker_0, # of connection points: 2
#     Edge 114, Type (0, 0), BuildingBlock: CIFDUS_clean_linker_0, # of connection points: 2
#     Edge 115, Type (0, 0), BuildingBlock: CIFDUS_clean_linker_0, # of connection points: 2
#     Edge 116, Type (0, 0), BuildingBlock: CIFDUS_clean_linker_0, # of connection points: 2
#     Edge 117, Type (0, 0), BuildingBlock: CIFDUS_clean_linker_0, # of connection points: 2
#     Edge 118, Type (0, 0), BuildingBlock: CIFDUS_clean_linker_0, # of connection points: 2
#     Edge 119, Type (0, 0), BuildingBlock: CIFDUS_clean_linker_0, # of connection points: 2
#     Edge 120, Type (0, 0), BuildingBlock: CIFDUS_clean_linker_0, # of connection points: 2
#     Edge 121, Type (0, 0), BuildingBlock: CIFDUS_clean_linker_0, # of connection points: 2
#     Edge 122, Type (0, 0), BuildingBlock: CIFDUS_clean_linker_0, # of connection points: 2
#     Edge 123, Type (0, 0), BuildingBlock: CIFDUS_clean_linker_0, # of connection points: 2
#     Edge 124, Type (0, 0), BuildingBlock: CIFDUS_clean_linker_0, # of connection points: 2
#     Edge 125, Type (0, 0), BuildingBlock: CIFDUS_clean_linker_0, # of connection points: 2
#     Edge 126, Type (0, 0), BuildingBlock: CIFDUS_clean_linker_0, # of connection points: 2
#     Edge 127, Type (0, 0), BuildingBlock: CIFDUS_clean_linker_0, # of connection points: 2
# Relax obj value: 0.527
# Max RMSD: 0.261
# Mean RMSD: 0.261
data_MOF--net-vda--node1-VOLQOD_clean_sbu_1--edge1-CIFDUS_clean_linker_0
_symmetry_space_group_name_H-M    P1
_symmetry_Int_Tables_number       1
_symmetry_cell_setting            triclinic
loop_
_symmetry_equiv_pos_as_xyz
'x, y, z'
_cell_length_a     42.323323
_cell_length_b     33.060134
_cell_length_c     59.968708
_cell_angle_alpha  89.927972
_cell_angle_beta   89.997159
_cell_angle_gamma 89.925776
loop_
_atom_site_label
_atom_site_type_symbol
_atom_site_fract_x
_atom_site_fract_y
_atom_site_fract_z
_atom_type_partial_charge
O0 O 0.36205 0.01408 0.9771 0.0
Zn1 Zn 0.37558 0.07175 0.97432 0.0
O2 O 0.35585 0.10775 -0.00465 0.0
Zn3 Zn 0.33072 0.14845 0.97866 0.0
Zn4 Zn 0.33084 0.07341 0.01457 0.0
Zn5 Zn 0.38835 0.1314 0.01435 0.0
O6 O 0.34851 0.2064 0.98676 0.0
O7 O 0.39069 0.18951 0.00721 0.0
O8 O 0.37313 0.09171 0.94323 0.0
O9 O 0.33965 0.14346 0.9448 0.0
O10 O 0.28227 0.13549 0.98441 0.0
O11 O 0.28583 0.08009 0.0058 0.0
O12 O 0.33375 0.09061 0.04687 0.0
O13 O 0.42072 0.06763 0.98072 0.0
O14 O 0.37725 0.12786 0.04703 0.0
O15 O 0.43173 0.1069 0.00957 0.0
C16 C 0.35526 0.99531 -0.00499 0.0
C17 C 0.37399 0.21588 -0.00277 0.0
C18 C 0.26942 0.10563 -0.00516 0.0
C19 C 0.35811 0.12023 0.93381 0.0
C20 C 0.35416 0.11164 0.05727 0.0
C21 C 0.44016 0.08156 -0.00522 0.0
O22 O 0.34483 0.01439 0.01198 0.0
O23 O 0.93126 0.25667 0.97725 0.0
Zn24 Zn 0.90968 0.20381 0.97253 0.0
O25 O 0.92495 0.16101 0.9914 0.0
Zn26 Zn 0.94617 0.12065 0.97256 0.0
Zn27 Zn 0.952 0.18938 0.01183 0.0
Zn28 Zn 0.8917 0.13875 0.0096 0.0
O29 O 0.92914 0.0629 0.98147 0.0
O30 O 0.88687 0.08115 0.0015 0.0
O31 O 0.91116 0.18941 0.94047 0.0
O32 O 0.93248 0.128 0.93965 0.0
O33 O 0.99493 0.13439 0.97458 0.0
O34 O 0.99568 0.18366 0.00021 0.0
O35 O 0.95068 0.16606 0.0427 0.0
O36 O 0.86494 0.21477 0.97993 0.0
O37 O 0.90305 0.13834 0.0425 0.0
O38 O 0.85052 0.16836 0.00482 0.0
C39 C 0.93527 0.27175 -0.00351 0.0
C40 C 0.90332 0.05422 0.99176 0.0
C41 C 1.0098 0.16122 0.9861 0.0
C42 C 0.91949 0.158 0.92981 0.0
C43 C 0.9283 0.14804 0.05276 0.0
C44 C 0.84432 0.19885 -0.00744 0.0
O45 O 0.93942 0.2491 0.01343 0.0
O46 O 0.34104 0.25344 0.26784 0.0
Zn47 Zn 0.36646 0.20255 0.2702 0.0
O48 O 0.35361 0.16198 0.2493 0.0
Zn49 Zn 0.32867 0.12156 0.26548 0.0
Zn50 Zn 0.33074 0.19308 0.22753 0.0
Zn51 Zn 0.39026 0.14032 0.23439 0.0
O52 O 0.34827 0.06435 0.25826 0.0
O53 O 0.39433 0.08239 0.24274 0.0
O54 O 0.36827 0.1808 0.30114 0.0
O55 O 0.33673 0.12718 0.29928 0.0
O56 O 0.2805 0.13423 0.25856 0.0
O57 O 0.28505 0.18496 0.23396 0.0
O58 O 0.33996 0.17479 0.19587 0.0
O59 O 0.40932 0.22088 0.26264 0.0
O60 O 0.38497 0.1416 0.20105 0.0
O61 O 0.42971 0.17247 0.24134 0.0
C62 C 0.3423 0.27233 0.24936 0.0
C63 C 0.37591 0.05552 0.25067 0.0
C64 C 0.26813 0.16158 0.24594 0.0
C65 C 0.35462 0.15093 0.31035 0.0
C66 C 0.36355 0.15528 0.18819 0.0
C67 C 0.43217 0.20579 0.25183 0.0
O68 O 0.34246 0.25273 0.23104 0.0
O69 O 0.92312 0.01113 0.2657 0.0
Zn70 Zn 0.90257 0.06551 0.26657 0.0
O71 O 0.92044 0.10253 0.24523 0.0
Zn72 Zn 0.94517 0.14275 0.26184 0.0
Zn73 Zn 0.94494 0.06894 0.22511 0.0
Zn74 Zn 0.88678 0.12624 0.22792 0.0
O75 O 0.92822 0.20068 0.25368 0.0
O76 O 0.8841 0.18472 0.23516 0.0
O77 O 0.9019 0.08782 0.29717 0.0
O78 O 0.93535 0.13933 0.29531 0.0
O79 O 0.99296 0.12732 0.25769 0.0
O80 O 0.99067 0.07547 0.23372 0.0
O81 O 0.93871 0.08487 0.19246 0.0
O82 O 0.85802 0.05438 0.2593 0.0
O83 O 0.89513 0.1219 0.19532 0.0
O84 O 0.84507 0.09835 0.23293 0.0
C85 C 0.92626 0.99141 0.24763 0.0
C86 C 0.90205 0.21079 0.24427 0.0
C87 C 1.00643 0.09908 0.24636 0.0
C88 C 0.91638 0.11697 0.30632 0.0
C89 C 0.91648 0.10536 0.18355 0.0
C90 C 0.83793 0.06939 0.24597 0.0
O91 O 0.93121 0.00976 0.22921 0.0
O92 O 0.68725 0.00881 0.97613 0.0
Zn93 Zn 0.66608 0.95586 0.97043 0.0
O94 O 0.67653 0.91473 -0.00776 0.0
Zn95 Zn 0.69969 0.87062 0.9781 0.0
Zn96 Zn 0.70064 0.94401 0.01414 0.0
Zn97 Zn 0.63952 0.89519 0.00699 0.0
O98 O 0.67907 0.81438 0.9863 0.0
O99 O 0.63388 0.83681 0.00099 0.0
O100 O 0.67611 0.93764 0.93959 0.0
O101 O 0.695 0.8755 0.94457 0.0
O102 O 0.74746 0.88234 0.98353 0.0
O103 O 0.74649 0.93625 0.00613 0.0
O104 O 0.69142 0.92491 0.04537 0.0
O105 O 0.62007 0.96937 0.97245 0.0
O106 O 0.64293 0.90121 0.04013 0.0
O107 O 0.60132 0.92512 -0.00288 0.0
C108 C 0.68674 0.02537 -0.00478 0.0
C109 C 0.65107 0.80804 -0.00611 0.0
C110 C 0.76162 0.91084 -0.00586 0.0
C111 C 0.68661 0.90447 0.93182 0.0
C112 C 0.66548 0.91119 0.05302 0.0
C113 C 0.59744 0.95439 0.98366 0.0
O114 O 0.68801 1.00389 0.01285 0.0
O115 O 0.10147 0.76781 0.9729 0.0
Zn116 Zn 0.11706 0.82456 0.96895 0.0
O117 O 0.10389 0.8606 -0.00724 0.0
Zn118 Zn 0.07557 0.90249 0.98109 0.0
Zn119 Zn 0.08384 0.82553 0.01406 0.0
Zn120 Zn 0.13995 0.88413 0.00763 0.0
O121 O 0.09557 0.96009 0.98628 0.0
O122 O 0.14257 0.94251 0.00017 0.0
O123 O 0.10423 0.84531 0.93885 0.0
O124 O 0.07555 0.89932 0.94762 0.0
O125 O 0.02903 0.88756 0.99028 0.0
O126 O 0.03724 0.83029 0.00941 0.0
O127 O 0.0941 0.84135 0.04554 0.0
O128 O 0.16387 0.81711 0.97028 0.0
O129 O 0.13726 0.8785 0.04097 0.0
O130 O 0.17987 0.85713 -0.00214 0.0
C131 C 0.1017 0.74861 0.99129 0.0
C132 C 0.12372 0.96919 -0.00737 0.0
C133 C 0.01862 0.85594 0.00042 0.0
C134 C 0.0876 0.87573 0.93318 0.0
C135 C 0.1171 0.86138 0.05356 0.0
C136 C 0.1855 0.83117 0.98276 0.0
O137 O 0.09858 0.76727 0.00973 0.0
O138 O 0.66901 0.75201 0.75498 0.0
Zn139 Zn 0.65645 0.80821 0.76263 0.0
O140 O 0.67268 0.84832 0.74183 0.0
Zn141 Zn 0.69905 0.88762 0.75784 0.0
Zn142 Zn 0.69595 0.81838 0.71941 0.0
Zn143 Zn 0.63783 0.87507 0.7269 0.0
O144 O 0.67915 0.94589 0.75539 0.0
O145 O 0.63484 0.9322 0.73675 0.0
O146 O 0.66803 0.81991 0.7943 0.0
O147 O 0.69638 0.87604 0.79081 0.0
O148 O 0.74652 0.87673 0.7497 0.0
O149 O 0.74211 0.82455 0.72614 0.0
O150 O 0.68709 0.83948 0.6884 0.0
O151 O 0.60969 0.80388 0.75989 0.0
O152 O 0.6429 0.87436 0.69378 0.0
O153 O 0.59665 0.84789 0.73342 0.0
C154 C 0.67341 0.73688 0.73576 0.0
C155 C 0.65235 0.95687 0.74727 0.0
C156 C 0.75897 0.84869 0.73771 0.0
C157 C 0.68388 0.84862 0.80284 0.0
C158 C 0.66391 0.85996 0.68088 0.0
C159 C 0.58934 0.82017 0.74716 0.0
O160 O 0.6824 0.75889 0.71948 0.0
O161 O 0.09022 1.00475 0.75943 0.0
Zn162 Zn 0.10956 0.95068 0.76605 0.0
O163 O 0.10316 0.91171 0.74241 0.0
Zn164 Zn 0.07681 0.86776 0.75279 0.0
Zn165 Zn 0.08409 0.94326 0.71902 0.0
Zn166 Zn 0.14238 0.89079 0.73187 0.0
O167 O 0.09607 0.81151 0.74368 0.0
O168 O 0.1457 0.83196 0.73818 0.0
O169 O 0.09564 0.92848 0.79558 0.0
O170 O 0.07839 0.86721 0.78636 0.0
O171 O 0.0307 0.884 0.74517 0.0
O172 O 0.03658 0.93835 0.72323 0.0
O173 O 0.09976 0.92511 0.6886 0.0
O174 O 0.15543 0.96415 0.76799 0.0
O175 O 0.14551 0.89758 0.69879 0.0
O176 O 0.17864 0.91992 0.74534 0.0
C177 C 0.09654 0.02246 0.74111 0.0
C178 C 0.12561 0.80385 0.74098 0.0
C179 C 0.01901 0.91389 0.73419 0.0
C180 C 0.08511 0.89375 0.80099 0.0
C181 C 0.12658 0.90974 0.68372 0.0
C182 C 0.17995 0.94916 0.75901 0.0
O183 O 0.09835 1.00206 0.72311 0.0
O184 O 0.33732 0.5137 0.46967 0.0
Zn185 Zn 0.36417 0.56327 0.46759 0.0
O186 O 0.35251 0.60349 0.4891 0.0
Zn187 Zn 0.32865 0.64625 0.47405 0.0
Zn188 Zn 0.32878 0.57273 0.5104 0.0
Zn189 Zn 0.38979 0.62202 0.50426 0.0
O190 O 0.34861 0.70187 0.48424 0.0
O191 O 0.39528 0.68016 0.49729 0.0
O192 O 0.36578 0.58662 0.43703 0.0
O193 O 0.33774 0.64334 0.44014 0.0
O194 O 0.28006 0.6341 0.48011 0.0
O195 O 0.28333 0.58163 0.50368 0.0
O196 O 0.33771 0.59002 0.5422 0.0
O197 O 0.40698 0.54265 0.47423 0.0
O198 O 0.38447 0.61914 0.53771 0.0
O199 O 0.4284 0.58905 0.49631 0.0
C200 C 0.33944 0.49431 0.48794 0.0
C201 C 0.37692 0.70866 0.49121 0.0
C202 C 0.26702 0.60613 0.49196 0.0
C203 C 0.35406 0.6185 0.42852 0.0
C204 C 0.36211 0.60714 0.55027 0.0
C205 C 0.43027 0.55645 0.4851 0.0
O206 O 0.34026 0.51342 0.5064 0.0
O207 O 0.92378 0.75286 0.46903 0.0
Zn208 Zn 0.90344 0.69834 0.46847 0.0
O209 O 0.92169 0.66108 0.4891 0.0
Zn210 Zn 0.94835 0.62272 0.4726 0.0
Zn211 Zn 0.94315 0.69618 0.50977 0.0
Zn212 Zn 0.88868 0.63465 0.50561 0.0
O213 O 0.93144 0.56363 0.47904 0.0
O214 O 0.88534 0.57833 0.49537 0.0
O215 O 0.90252 0.67573 0.43798 0.0
O216 O 0.94002 0.62859 0.43892 0.0
O217 O 0.99583 0.63861 0.47945 0.0
O218 O 0.98913 0.6911 0.50264 0.0
O219 O 0.93713 0.67799 0.54186 0.0
O220 O 0.85947 0.7095 0.47711 0.0
O221 O 0.90043 0.63062 0.53781 0.0
O222 O 0.84655 0.66343 0.5025 0.0
C223 C 0.92486 0.7729 0.4871 0.0
C224 C 0.90422 0.55297 0.48663 0.0
C225 C 1.00701 0.66785 0.49125 0.0
C226 C 0.91917 0.64898 0.42836 0.0
C227 C 0.91973 0.65015 0.54993 0.0
C228 C 0.83963 0.69387 0.4904 0.0
O229 O 0.92825 0.75478 0.50576 0.0
O230 O 0.34944 0.7441 0.76456 0.0
Zn231 Zn 0.37152 0.69081 0.76355 0.0
O232 O 0.35237 0.6539 0.74301 0.0
Zn233 Zn 0.32813 0.61482 0.76074 0.0
Zn234 Zn 0.32749 0.68874 0.72399 0.0
Zn235 Zn 0.38453 0.62957 0.72439 0.0
O236 O 0.34582 0.55673 0.75388 0.0
O237 O 0.38809 0.57171 0.73305 0.0
O238 O 0.3753 0.66807 0.7941 0.0
O239 O 0.33834 0.62058 0.79406 0.0
O240 O 0.2801 0.62945 0.75672 0.0
O241 O 0.28236 0.68246 0.73347 0.0
O242 O 0.33075 0.67224 0.69147 0.0
O243 O 0.41461 0.70379 0.75351 0.0
O244 O 0.37257 0.63165 0.69181 0.0
O245 O 0.42684 0.65758 0.72805 0.0
C246 C 0.34624 0.76498 0.74691 0.0
C247 C 0.37137 0.54625 0.74377 0.0
C248 C 0.26664 0.65827 0.74579 0.0
C249 C 0.3594 0.64115 0.80418 0.0
C250 C 0.35037 0.64948 0.68133 0.0
C251 C 0.43405 0.68812 0.73993 0.0
O252 O 0.34179 0.74776 0.72812 0.0
O253 O 0.91802 0.50815 0.75749 0.0
Zn254 Zn 0.90126 0.56393 0.76123 0.0
O255 O 0.92047 0.60336 0.74212 0.0
Zn256 Zn 0.94623 0.64011 0.76042 0.0
Zn257 Zn 0.94332 0.5709 0.72076 0.0
Zn258 Zn 0.88822 0.63179 0.7256 0.0
O259 O 0.92978 0.69992 0.7554 0.0
O260 O 0.88461 0.68696 0.73748 0.0
O261 O 0.90204 0.58043 0.79285 0.0
O262 O 0.93546 0.63197 0.79357 0.0
O263 O 0.99419 0.6236 0.75481 0.0
O264 O 0.98873 0.57395 0.72964 0.0
O265 O 0.93901 0.59313 0.68935 0.0
O266 O 0.85672 0.55736 0.75285 0.0
O267 O 0.90085 0.63862 0.69367 0.0
O268 O 0.84565 0.60386 0.72728 0.0
C269 C 0.91995 0.49159 0.73842 0.0
C270 C 0.90287 0.71133 0.74755 0.0
C271 C 1.00597 0.5954 0.74247 0.0
C272 C 0.91653 0.60789 0.8035 0.0
C273 C 0.92124 0.62089 0.68156 0.0
C274 C 0.8376 0.57389 0.73936 0.0
O275 O 0.92724 0.51253 0.7213 0.0
O276 O 0.68958 0.50827 0.47255 0.0
Zn277 Zn 0.66979 0.45374 0.46765 0.0
O278 O 0.67822 0.41577 0.49164 0.0
Zn279 Zn 0.70411 0.3711 0.48102 0.0
Zn280 Zn 0.69884 0.4485 0.51357 0.0
Zn281 Zn 0.63987 0.39629 0.505 0.0
O282 O 0.68116 0.31566 0.48709 0.0
O283 O 0.63334 0.33856 0.49663 0.0
O284 O 0.68194 0.43094 0.43783 0.0
O285 O 0.70448 0.37281 0.4476 0.0
O286 O 0.751 0.38284 0.49024 0.0
O287 O 0.74538 0.44095 0.50904 0.0
O288 O 0.68725 0.4308 0.54468 0.0
O289 O 0.62397 0.46776 0.46788 0.0
O290 O 0.6422 0.39839 0.53849 0.0
O291 O 0.60322 0.4302 0.49499 0.0
C292 C 0.68577 0.52701 0.49089 0.0
C293 C 0.65168 0.30967 0.49119 0.0
C294 C 0.7628 0.41379 0.50019 0.0
C295 C 0.69533 0.39769 0.43273 0.0
C296 C 0.66303 0.41198 0.55182 0.0
C297 C 0.60071 0.45734 0.48 0.0
O298 O 0.68535 0.50754 0.50926 0.0
O299 O 0.11758 0.26402 0.48409 0.0
Zn300 Zn 0.12158 0.32153 0.47506 0.0
O301 O 0.103 0.3579 0.49688 0.0
Zn302 Zn 0.07597 0.39723 0.48118 0.0
Zn303 Zn 0.08043 0.32499 0.51861 0.0
Zn304 Zn 0.13675 0.38482 0.51277 0.0
O305 O 0.09607 0.45543 0.48357 0.0
O306 O 0.13965 0.4423 0.50322 0.0
O307 O 0.10498 0.32953 0.4442 0.0
O308 O 0.07723 0.38615 0.44796 0.0
O309 O 0.02876 0.38576 0.49014 0.0
O310 O 0.03423 0.3317 0.5124 0.0
O311 O 0.08928 0.34306 0.55028 0.0
O312 O 0.16834 0.3265 0.4744 0.0
O313 O 0.13123 0.38243 0.54585 0.0
O314 O 0.17808 0.35816 0.5063 0.0
C315 C 0.10861 0.24614 0.50173 0.0
C316 C 0.12245 0.46673 0.49219 0.0
C317 C 0.01688 0.35666 0.50169 0.0
C318 C 0.08854 0.35797 0.43587 0.0
C319 C 0.11122 0.36494 0.55838 0.0
C320 C 0.18731 0.33812 0.48947 0.0
O321 O 0.09405 0.26533 0.51707 0.0
O322 O 0.69094 0.25982 0.26238 0.0
Zn323 Zn 0.67017 0.31391 0.26674 0.0
O324 O 0.67757 0.35138 0.24237 0.0
Zn325 Zn 0.70354 0.39633 0.25243 0.0
Zn326 Zn 0.69759 0.31797 0.22059 0.0
Zn327 Zn 0.6388 0.36982 0.2291 0.0
O328 O 0.67981 0.45124 0.2463 0.0
O329 O 0.63204 0.42769 0.23712 0.0
O330 O 0.68221 0.33783 0.29619 0.0
O331 O 0.70479 0.39558 0.28595 0.0
O332 O 0.75022 0.38457 0.2424 0.0
O333 O 0.74398 0.32593 0.22422 0.0
O334 O 0.68516 0.33399 0.18947 0.0
O335 O 0.6247 0.29867 0.26688 0.0
O336 O 0.6401 0.36655 0.1955 0.0
O337 O 0.60294 0.33543 0.23981 0.0
C338 C 0.68621 0.24043 0.24438 0.0
C339 C 0.65023 0.45684 0.24236 0.0
C340 C 0.76166 0.35336 0.23243 0.0
C341 C 0.6957 0.37109 0.30102 0.0
C342 C 0.66074 0.35229 0.18222 0.0
C343 C 0.60111 0.30838 0.2549 0.0
O344 O 0.68466 0.25929 0.22585 0.0
O345 O 0.0945 0.50497 0.26006 0.0
Zn346 Zn 0.11358 0.4508 0.26575 0.0
O347 O 0.10042 0.40977 0.24459 0.0
Zn348 Zn 0.07566 0.3688 0.2604 0.0
Zn349 Zn 0.07711 0.44013 0.22233 0.0
Zn350 Zn 0.13614 0.38565 0.22964 0.0
O351 O 0.09615 0.31129 0.25641 0.0
O352 O 0.14043 0.32775 0.23838 0.0
O353 O 0.10427 0.43588 0.29732 0.0
O354 O 0.07865 0.37776 0.29375 0.0
O355 O 0.02836 0.38045 0.25331 0.0
O356 O 0.03081 0.43323 0.22986 0.0
O357 O 0.0865 0.42078 0.191 0.0
O358 O 0.15963 0.46096 0.26206 0.0
O359 O 0.1321 0.3889 0.1963 0.0
O360 O 0.17581 0.4148 0.23758 0.0
C361 C 0.09355 0.52152 0.24097 0.0
C362 C 0.12323 0.30174 0.24823 0.0
C363 C 0.01492 0.40858 0.24189 0.0
C364 C 0.09017 0.4057 0.30586 0.0
C365 C 0.11078 0.40263 0.18337 0.0
C366 C 0.18118 0.44463 0.25037 0.0
O367 O 0.09042 0.50012 0.22344 0.0
O368 O 0.86218 0.01597 0.47469 0.0
Zn369 Zn 0.87467 0.07399 0.4714 0.0
O370 O 0.85466 0.11003 0.49226 0.0
Zn371 Zn 0.8286 0.1496 0.47556 0.0
Zn372 Zn 0.83035 0.07553 0.51176 0.0
Zn373 Zn 0.88699 0.13541 0.51076 0.0
O374 O 0.84716 0.20787 0.48149 0.0
O375 O 0.8893 0.19325 0.50245 0.0
O376 O 0.87089 0.09295 0.44025 0.0
O377 O 0.83564 0.14277 0.44182 0.0
O378 O 0.78046 0.1369 0.4823 0.0
O379 O 0.78511 0.08146 0.50353 0.0
O380 O 0.83382 0.09324 0.54379 0.0
O381 O 0.91999 0.07123 0.47748 0.0
O382 O 0.8759 0.13315 0.54336 0.0
O383 O 0.93048 0.11073 0.50636 0.0
C384 C 0.85511 0.99738 0.49259 0.0
C385 C 0.87259 0.21857 0.49166 0.0
C386 C 0.76818 0.10683 0.49287 0.0
C387 C 0.85441 0.12009 0.43081 0.0
C388 C 0.85355 0.11579 0.55385 0.0
C389 C 0.93922 0.08546 0.49159 0.0
O390 O 0.84443 0.01662 0.50942 0.0
O391 O 0.41767 0.25842 0.47484 0.0
Zn392 Zn 0.40155 0.20159 0.4742 0.0
O393 O 0.42083 0.16625 0.49582 0.0
Zn394 Zn 0.44624 0.1251 0.48007 0.0
Zn395 Zn 0.44451 0.20174 0.51512 0.0
Zn396 Zn 0.38815 0.14266 0.51429 0.0
O397 O 0.42861 0.06729 0.48932 0.0
O398 O 0.3838 0.08529 0.50643 0.0
O399 O 0.40229 0.17845 0.44377 0.0
O400 O 0.43726 0.12833 0.4461 0.0
O401 O 0.49447 0.13974 0.48589 0.0
O402 O 0.48993 0.19449 0.50766 0.0
O403 O 0.43873 0.18846 0.5478 0.0
O404 O 0.35718 0.21038 0.48192 0.0
O405 O 0.40012 0.1432 0.54673 0.0
O406 O 0.34606 0.17126 0.51092 0.0
C407 C 0.42249 0.27807 0.49275 0.0
C408 C 0.4017 0.05839 0.49808 0.0
C409 C 0.50681 0.16949 0.49671 0.0
C410 C 0.41789 0.14993 0.43483 0.0
C411 C 0.42035 0.16367 0.55756 0.0
C412 C 0.33814 0.19805 0.49672 0.0
O413 O 0.43092 0.25988 0.51053 0.0
O414 O 0.83238 0.25832 0.762 0.0
Zn415 Zn 0.85983 0.20952 0.76587 0.0
O416 O 0.85116 0.16735 0.74483 0.0
Zn417 Zn 0.82936 0.12302 0.75985 0.0
Zn418 Zn 0.82683 0.19585 0.72307 0.0
Zn419 Zn 0.88925 0.15065 0.73035 0.0
O420 O 0.84983 0.06845 0.74832 0.0
O421 O 0.89628 0.09251 0.73641 0.0
O422 O 0.85989 0.1876 0.79666 0.0
O423 O 0.84061 0.12542 0.79349 0.0
O424 O 0.78039 0.13412 0.75476 0.0
O425 O 0.78179 0.18548 0.73031 0.0
O426 O 0.83645 0.17698 0.69187 0.0
O427 O 0.90296 0.23092 0.76071 0.0
O428 O 0.88531 0.1544 0.69694 0.0
O429 O 0.92629 0.18426 0.7397 0.0
C430 C 0.83526 0.27642 0.74338 0.0
C431 C 0.87837 0.06299 0.74146 0.0
C432 C 0.7664 0.16105 0.74267 0.0
C433 C 0.85298 0.15353 0.80526 0.0
C434 C 0.86228 0.16307 0.68414 0.0
C435 C 0.92712 0.21699 0.75082 0.0
O436 O 0.83717 0.25588 0.72546 0.0
O437 O 0.41183 1.00554 0.76595 0.0
Zn438 Zn 0.40144 0.06456 0.7695 0.0
O439 O 0.42108 0.09981 0.74785 0.0
Zn440 Zn 0.44724 0.14047 0.76366 0.0
Zn441 Zn 0.44493 0.06463 0.72823 0.0
Zn442 Zn 0.38843 0.12497 0.72959 0.0
O443 O 0.43124 0.19896 0.75464 0.0
O444 O 0.3869 0.18297 0.73651 0.0
O445 O 0.40601 0.08458 0.80049 0.0
O446 O 0.43842 0.13723 0.79755 0.0
O447 O 0.49519 0.12557 0.75779 0.0
O448 O 0.49055 0.07151 0.73556 0.0
O449 O 0.43889 0.07879 0.69573 0.0
O450 O 0.35594 0.06366 0.76441 0.0
O451 O 0.39885 0.12215 0.69688 0.0
O452 O 0.34485 0.10139 0.7349 0.0
C453 C 0.41991 0.98695 0.74826 0.0
C454 C 0.4051 0.20906 0.74518 0.0
C455 C 0.50747 0.09612 0.74672 0.0
C456 C 0.42084 0.11394 0.8092 0.0
C457 C 0.41954 0.10243 0.68601 0.0
C458 C 0.33633 0.07747 0.7504 0.0
O459 O 0.43166 1.00607 0.73178 0.0
O460 O 0.18812 0.01218 0.47965 0.0
Zn461 Zn 0.1661 0.96076 0.47186 0.0
O462 O 0.17515 0.91695 0.49249 0.0
Zn463 Zn 0.2 0.87553 0.47745 0.0
Zn464 Zn 0.19701 0.94356 0.51676 0.0
Zn465 Zn 0.13697 0.89413 0.50406 0.0
O466 O 0.1794 0.818 0.48123 0.0
O467 O 0.13284 0.8364 0.49538 0.0
O468 O 0.17641 0.94604 0.44041 0.0
O469 O 0.19772 0.88506 0.44426 0.0
O470 O 0.24691 0.88696 0.48526 0.0
O471 O 0.24399 0.93613 0.51086 0.0
O472 O 0.18259 0.92282 0.54708 0.0
O473 O 0.12025 0.97509 0.47365 0.0
O474 O 0.13631 0.89677 0.53725 0.0
O475 O 0.09938 0.92491 0.49352 0.0
C476 C 0.18654 0.02705 0.49913 0.0
C477 C 0.15111 0.80949 0.48744 0.0
C478 C 0.26016 0.91328 0.49794 0.0
C479 C 0.18853 0.91431 0.43203 0.0
C480 C 0.15593 0.90732 0.5522 0.0
C481 C 0.09663 0.95745 0.48239 0.0
O482 O 0.18572 1.00401 0.51618 0.0
O483 O 0.60845 0.76312 0.47521 0.0
Zn484 Zn 0.61917 0.82121 0.46928 0.0
O485 O 0.60372 0.85771 0.49244 0.0
Zn486 Zn 0.57728 0.89993 0.47937 0.0
Zn487 Zn 0.58056 0.82475 0.51357 0.0
Zn488 Zn 0.63864 0.88219 0.50805 0.0
O489 O 0.59636 0.95765 0.48463 0.0
O490 O 0.64232 0.94045 0.50012 0.0
O491 O 0.60598 0.83885 0.43832 0.0
O492 O 0.58027 0.89564 0.44632 0.0
O493 O 0.53014 0.88598 0.48562 0.0
O494 O 0.5342 0.8298 0.50626 0.0
O495 O 0.58894 0.84258 0.54533 0.0
O496 O 0.66617 0.81753 0.47091 0.0
O497 O 0.63319 0.87783 0.54102 0.0
O498 O 0.67923 0.85481 0.50034 0.0
C499 C 0.6045 0.7458 0.49398 0.0
C500 C 0.62404 0.96696 0.49174 0.0
C501 C 0.51754 0.85549 0.4955 0.0
C502 C 0.59122 0.87062 0.43222 0.0
C503 C 0.61212 0.86227 0.55346 0.0
C504 C 0.68649 0.83054 0.48475 0.0
O505 O 0.59535 0.7659 0.51097 0.0
O506 O 0.16925 0.75506 0.25701 0.0
Zn507 Zn 0.1604 0.81231 0.26491 0.0
O508 O 0.17483 0.85022 0.24248 0.0
Zn509 Zn 0.19851 0.89376 0.25698 0.0
Zn510 Zn 0.19997 0.81929 0.22136 0.0
Zn511 Zn 0.13914 0.87166 0.2266 0.0
O512 O 0.17847 0.9508 0.24973 0.0
O513 O 0.13476 0.93025 0.23242 0.0
O514 O 0.17632 0.82541 0.29532 0.0
O515 O 0.19473 0.8877 0.29046 0.0
O516 O 0.2462 0.88228 0.25143 0.0
O517 O 0.24576 0.82671 0.23008 0.0
O518 O 0.19235 0.83851 0.18971 0.0
O519 O 0.11346 0.81088 0.26597 0.0
O520 O 0.14454 0.86532 0.19372 0.0
O521 O 0.09889 0.84522 0.23579 0.0
C522 C 0.1753 0.73859 0.23836 0.0
C523 C 0.15143 0.95822 0.24086 0.0
C524 C 0.26063 0.85313 0.24155 0.0
C525 C 0.18759 0.85809 0.30312 0.0
C526 C 0.16734 0.85393 0.18141 0.0
C527 C 0.09237 0.82321 0.25253 0.0
O528 O 0.18643 0.75936 0.2222 0.0
O529 O 0.61278 1.00194 0.26015 0.0
Zn530 Zn 0.61708 0.94206 0.26595 0.0
O531 O 0.60115 0.91036 0.24115 0.0
Zn532 Zn 0.57463 0.866 0.2518 0.0
Zn533 Zn 0.57923 0.94584 0.22084 0.0
Zn534 Zn 0.6371 0.89053 0.22536 0.0
O535 O 0.59539 0.81022 0.24304 0.0
O536 O 0.6427 0.83214 0.23175 0.0
O537 O 0.59832 0.92411 0.29497 0.0
O538 O 0.57605 0.86571 0.28543 0.0
O539 O 0.52736 0.87997 0.24393 0.0
O540 O 0.5331 0.93923 0.22628 0.0
O541 O 0.58848 0.93219 0.18862 0.0
O542 O 0.66408 0.93683 0.26896 0.0
O543 O 0.63245 0.89639 0.19251 0.0
O544 O 0.67555 0.92123 0.23396 0.0
C545 C 0.6056 0.02162 0.24257 0.0
C546 C 0.62425 0.80354 0.23735 0.0
C547 C 0.51563 0.91195 0.23487 0.0
C548 C 0.58464 0.89111 0.30018 0.0
C549 C 0.61174 0.91306 0.18022 0.0
C550 C 0.68359 0.93486 0.2529 0.0
O551 O 0.59318 1.00394 0.22583 0.0
O552 O 0.87632 0.51179 0.98182 0.0
Zn553 Zn 0.87934 0.56847 0.97182 0.0
O554 O 0.85555 0.60348 0.99101 0.0
Zn555 Zn 0.8336 0.6428 0.97198 0.0
Zn556 Zn 0.82822 0.57049 0.00978 0.0
Zn557 Zn 0.88616 0.62775 0.01054 0.0
O558 O 0.85232 0.70068 0.97839 0.0
O559 O 0.89203 0.68514 0.00145 0.0
O560 O 0.86787 0.57276 0.93995 0.0
O561 O 0.84481 0.63311 0.93909 0.0
O562 O 0.78483 0.62988 0.97474 0.0
O563 O 0.78438 0.57629 -0.00228 0.0
O564 O 0.82783 0.59076 0.04167 0.0
O565 O 0.9254 0.57894 0.9738 0.0
O566 O 0.87148 0.62779 0.04217 0.0
O567 O 0.9277 0.59775 0.00909 0.0
C568 C 0.8627 0.49301 -0.00243 0.0
C569 C 0.87703 0.71075 0.9896 0.0
C570 C 0.7701 0.60109 0.98487 0.0
C571 C 0.85664 0.60252 0.92918 0.0
C572 C 0.84767 0.61271 0.05206 0.0
C573 C 0.94074 0.58268 0.99187 0.0
O574 O 0.84298 0.51099 0.01031 0.0
O575 O 0.42596 0.7525 0.97005 0.0
Zn576 Zn 0.40504 0.69837 0.96813 0.0
O577 O 0.42126 0.66063 0.98952 0.0
Zn578 Zn 0.44664 0.61955 0.97446 0.0
Zn579 Zn 0.44405 0.694 0.01045 0.0
Zn580 Zn 0.38683 0.63619 0.00524 0.0
O581 O 0.43069 0.56193 0.98482 0.0
O582 O 0.382 0.57974 -0.0046 0.0
O583 O 0.40635 0.67571 0.93746 0.0
O584 O 0.43733 0.62157 0.94085 0.0
O585 O 0.49393 0.63658 0.97891 0.0
O586 O 0.49021 0.68899 0.00243 0.0
O587 O 0.43723 0.67487 0.04237 0.0
O588 O 0.36031 0.7105 0.97489 0.0
O589 O 0.39712 0.63232 0.03783 0.0
O590 O 0.3458 0.6663 0.00084 0.0
C591 C 0.42658 0.77174 0.98842 0.0
C592 C 0.4021 0.5528 0.99016 0.0
C593 C 0.50665 0.66552 0.9901 0.0
C594 C 0.42019 0.64518 0.92908 0.0
C595 C 0.41757 0.64933 0.0502 0.0
C596 C 0.33967 0.69592 0.98796 0.0
O597 O 0.42948 0.75286 0.0069 0.0
O598 O 0.85201 0.75446 0.26087 0.0
Zn599 Zn 0.86979 0.699 0.26488 0.0
O600 O 0.85394 0.66002 0.2438 0.0
Zn601 Zn 0.82939 0.6185 0.25964 0.0
Zn602 Zn 0.82912 0.69119 0.22288 0.0
Zn603 Zn 0.88908 0.63755 0.22748 0.0
O604 O 0.84629 0.56079 0.25032 0.0
O605 O 0.89122 0.579 0.2335 0.0
O606 O 0.86687 0.67881 0.29595 0.0
O607 O 0.83904 0.62198 0.2931 0.0
O608 O 0.78143 0.63341 0.25538 0.0
O609 O 0.78357 0.6852 0.23135 0.0
O610 O 0.83553 0.67215 0.19115 0.0
O611 O 0.91514 0.70844 0.25993 0.0
O612 O 0.88259 0.643 0.19455 0.0
O613 O 0.93082 0.6631 0.23509 0.0
C614 C 0.84963 0.77128 0.24184 0.0
C615 C 0.87305 0.55193 0.24137 0.0
C616 C 0.76787 0.66149 0.24397 0.0
C617 C 0.85456 0.64754 0.30465 0.0
C618 C 0.85969 0.65525 0.18257 0.0
C619 C 0.93661 0.69234 0.2482 0.0
O620 O 0.84297 0.75035 0.22459 0.0
O621 O 0.41385 0.51175 0.26069 0.0
Zn622 Zn 0.3994 0.56913 0.26388 0.0
O623 O 0.41861 0.60569 0.24308 0.0
Zn624 Zn 0.4462 0.64369 0.25916 0.0
Zn625 Zn 0.43959 0.57167 0.22154 0.0
Zn626 Zn 0.38575 0.63377 0.22705 0.0
O627 O 0.4311 0.70317 0.25123 0.0
O628 O 0.38275 0.68921 0.23837 0.0
O629 O 0.40194 0.58956 0.29494 0.0
O630 O 0.43763 0.63885 0.29312 0.0
O631 O 0.49345 0.6263 0.25204 0.0
O632 O 0.48567 0.57537 0.22806 0.0
O633 O 0.43296 0.59146 0.18976 0.0
O634 O 0.35442 0.56367 0.25694 0.0
O635 O 0.39707 0.63962 0.19472 0.0
O636 O 0.34314 0.60672 0.22969 0.0
C637 C 0.41693 0.49373 0.24205 0.0
C638 C 0.40309 0.7143 0.24545 0.0
C639 C 0.50408 0.59752 0.23963 0.0
C640 C 0.41819 0.61709 0.30422 0.0
C641 C 0.41582 0.62004 0.18216 0.0
C642 C 0.33509 0.57876 0.24311 0.0
O643 O 0.42444 0.51338 0.2245 0.0
O644 O 0.16495 0.50692 0.98025 0.0
Zn645 Zn 0.1596 0.44939 0.97181 0.0
O646 O 0.17489 0.41413 -0.00488 0.0
Zn647 Zn 0.19931 0.37086 0.98129 0.0
Zn648 Zn 0.199 0.44589 0.01645 0.0
Zn649 Zn 0.13847 0.39372 0.01032 0.0
O650 O 0.17823 0.31475 0.98779 0.0
O651 O 0.13234 0.33556 0.00228 0.0
O652 O 0.17928 0.43859 0.94231 0.0
O653 O 0.19782 0.37655 0.94772 0.0
O654 O 0.24667 0.38181 0.98804 0.0
O655 O 0.24518 0.4379 0.00891 0.0
O656 O 0.18965 0.42809 0.0483 0.0
O657 O 0.11275 0.44572 0.96813 0.0
O658 O 0.14376 0.39684 0.04339 0.0
O659 O 0.10019 0.42657 0.00242 0.0
C660 C 0.17346 0.52517 -0.00211 0.0
C661 C 0.14996 0.30762 -0.00545 0.0
C662 C 0.26062 0.41123 -0.00203 0.0
C663 C 0.19159 0.40623 0.93488 0.0
C664 C 0.16536 0.41022 0.05615 0.0
C665 C 0.0928 0.44273 0.98388 0.0
O666 O 0.18639 0.50592 0.01398 0.0
O667 O 0.61242 0.25951 0.97878 0.0
Zn668 Zn 0.6212 0.31666 0.97109 0.0
O669 O 0.6042 0.35436 -0.00721 0.0
Zn670 Zn 0.57947 0.39597 0.97707 0.0
Zn671 Zn 0.57936 0.32272 0.01392 0.0
Zn672 Zn 0.63852 0.37844 0.00924 0.0
O673 O 0.59871 0.45395 0.98276 0.0
O674 O 0.64184 0.43669 0.00193 0.0
O675 O 0.60696 0.32807 0.94001 0.0
O676 O 0.58333 0.38771 0.94365 0.0
O677 O 0.5318 0.38388 0.98315 0.0
O678 O 0.53355 0.32956 0.0055 0.0
O679 O 0.58639 0.34117 0.04576 0.0
O680 O 0.66821 0.31595 0.97204 0.0
O681 O 0.63215 0.37327 0.04219 0.0
O682 O 0.67991 0.35272 0.00189 0.0
C683 C 0.60524 0.24262 -0.00288 0.0
C684 C 0.62511 0.46315 0.99207 0.0
C685 C 0.51803 0.35505 -0.00622 0.0
C686 C 0.59326 0.35869 0.93155 0.0
C687 C 0.61007 0.35917 0.05431 0.0
C688 C 0.68806 0.32956 0.98602 0.0
O689 O 0.5931 0.26295 0.01305 0.0
O690 O 0.18569 0.24987 0.75852 0.0
Zn691 Zn 0.16936 0.30416 0.76719 0.0
O692 O 0.17875 0.34649 0.74575 0.0
Zn693 Zn 0.20217 0.3894 0.76065 0.0
Zn694 Zn 0.20266 0.31946 0.7227 0.0
Zn695 Zn 0.1408 0.36715 0.73214 0.0
O696 O 0.17926 0.44551 0.75646 0.0
O697 O 0.13418 0.42474 0.74096 0.0
O698 O 0.18311 0.31768 0.79807 0.0
O699 O 0.20062 0.38043 0.79389 0.0
O700 O 0.24974 0.38008 0.75351 0.0
O701 O 0.24878 0.32681 0.73046 0.0
O702 O 0.19223 0.34225 0.69223 0.0
O703 O 0.12326 0.29405 0.76766 0.0
O704 O 0.14386 0.36571 0.69872 0.0
O705 O 0.10323 0.33447 0.74157 0.0
C706 C 0.18527 0.236 0.73877 0.0
C707 C 0.15102 0.45253 0.74953 0.0
C708 C 0.26395 0.35213 0.74247 0.0
C709 C 0.19399 0.35026 0.80624 0.0
C710 C 0.16621 0.35719 0.6853 0.0
C711 C 0.10009 0.30677 0.75616 0.0
O712 O 0.18971 0.2595 0.72216 0.0
O713 O 0.595 0.50267 0.75583 0.0
Zn714 Zn 0.61472 0.44875 0.76099 0.0
O715 O 0.60057 0.40777 0.74022 0.0
Zn716 Zn 0.5744 0.36805 0.75614 0.0
Zn717 Zn 0.57829 0.43863 0.71783 0.0
Zn718 Zn 0.63599 0.38244 0.72536 0.0
O719 O 0.59497 0.31026 0.75318 0.0
O720 O 0.63963 0.32509 0.73513 0.0
O721 O 0.60634 0.43382 0.79259 0.0
O722 O 0.57686 0.37859 0.78947 0.0
O723 O 0.52707 0.37888 0.74734 0.0
O724 O 0.53223 0.43118 0.72382 0.0
O725 O 0.58778 0.41947 0.68673 0.0
O726 O 0.66073 0.45899 0.75644 0.0
O727 O 0.63161 0.38383 0.69194 0.0
O728 O 0.67618 0.41149 0.73252 0.0
C729 C 0.59346 0.51958 0.73686 0.0
C730 C 0.62206 0.29991 0.74531 0.0
C731 C 0.51503 0.40686 0.73504 0.0
C732 C 0.59043 0.40537 0.80135 0.0
C733 C 0.61084 0.39904 0.67908 0.0
C734 C 0.68199 0.442 0.74474 0.0
O735 O 0.59079 0.49852 0.7192 0.0
H736 H 0.39275 0.81464 0.01903 0.0
H737 H 0.4414 0.82601 0.95612 0.0
H738 H 0.4224 0.89544 0.95227 0.0
H739 H 0.39091 0.95191 0.96603 0.0
H740 H 0.34133 0.94156 0.02868 0.0
H741 H 0.36118 0.87237 0.03313 0.0
C742 C 0.39964 0.83264 0.00471 0.0
C743 C 0.41878 0.81539 0.988 0.0
C744 C 0.38787 0.87231 0.00229 0.0
C745 C 0.4269 0.83871 0.96926 0.0
C746 C 0.41585 0.87829 0.96698 0.0
C747 C 0.38406 0.93452 0.98059 0.0
C748 C 0.36433 0.95196 -0.00311 0.0
C749 C 0.39596 0.89515 0.9832 0.0
C750 C 0.35624 0.9289 0.01577 0.0
C751 C 0.36778 0.8894 0.0184 0.0
H752 H 0.91484 0.45653 0.9814 0.0
H753 H 0.83408 0.43445 0.02366 0.0
H754 H 0.85196 0.36447 0.02945 0.0
H755 H 0.88915 0.30849 0.02034 0.0
H756 H 0.96776 0.33175 0.9765 0.0
H757 H 0.95254 0.40298 0.97388 0.0
C758 C 0.90093 0.43656 0.99187 0.0
C759 C 0.8728 0.45063 0.0018 0.0
C760 C 0.91134 0.39679 -0.00491 0.0
C761 C 0.85563 0.42434 0.01567 0.0
C762 C 0.86592 0.38439 0.01902 0.0
C763 C 0.90335 0.32959 0.01077 0.0
C764 C 0.92992 0.31543 -0.00102 0.0
C765 C 0.89363 0.37019 0.00864 0.0
C766 C 0.94761 0.34239 0.98599 0.0
C767 C 0.93871 0.3829 0.98433 0.0
H768 H 0.38045 0.45191 0.27122 0.0
H769 H 0.42924 0.4398 0.20838 0.0
H770 H 0.40824 0.37123 0.20417 0.0
H771 H 0.37628 0.31452 0.21859 0.0
H772 H 0.32799 0.32729 0.28156 0.0
H773 H 0.34792 0.39629 0.28517 0.0
C774 C 0.38687 0.43418 0.2567 0.0
C775 C 0.4068 0.45087 0.24028 0.0
C776 C 0.37426 0.39518 0.2542 0.0
C777 C 0.41421 0.42762 0.22137 0.0
C778 C 0.40204 0.3885 0.21889 0.0
C779 C 0.36964 0.33269 0.23289 0.0
C780 C 0.35041 0.3159 0.2497 0.0
C781 C 0.38188 0.37205 0.23514 0.0
C782 C 0.34259 0.33957 0.26835 0.0
C783 C 0.35417 0.37891 0.2705 0.0
H784 H 0.88443 0.81439 0.2713 0.0
H785 H 0.84113 0.82286 0.20631 0.0
H786 H 0.86388 0.89042 0.20128 0.0
H787 H 0.89539 0.94774 0.21586 0.0
H788 H 0.93789 0.93811 0.28103 0.0
H789 H 0.91687 0.86978 0.28519 0.0
C790 C 0.87955 0.83109 0.25611 0.0
C791 C 0.86059 0.81374 0.23936 0.0
C792 C 0.89317 0.86941 0.25318 0.0
C793 C 0.85528 0.83564 0.21959 0.0
C794 C 0.86849 0.87416 0.21665 0.0
C795 C 0.9006 0.93027 0.23074 0.0
C796 C 0.91843 0.9478 0.24805 0.0
C797 C 0.88758 0.89131 0.23331 0.0
C798 C 0.9244 0.92518 0.26745 0.0
C799 C 0.91216 0.88626 0.26991 0.0
H800 H 0.64473 0.06297 0.02283 0.0
H801 H 0.7097 0.08446 0.96869 0.0
H802 H 0.68966 0.15332 0.9646 0.0
H803 H 0.65181 0.20533 0.97452 0.0
H804 H 0.58581 0.18604 0.02832 0.0
H805 H 0.60771 0.11791 0.03422 0.0
C806 C 0.65499 0.08319 0.01056 0.0
C807 C 0.67895 0.06891 -0.00378 0.0
C808 C 0.6426 0.12254 0.00785 0.0
C809 C 0.69149 0.09495 0.98 0.0
C810 C 0.67983 0.13414 0.97753 0.0
C811 C 0.64188 0.18626 0.98747 0.0
C812 C 0.6167 0.20057 0.00068 0.0
C813 C 0.65492 0.14783 0.99097 0.0
C814 C 0.60488 0.17563 0.01774 0.0
C815 C 0.61755 0.13679 0.02117 0.0
H816 H 0.13452 0.70528 0.0225 0.0
H817 H 0.08869 0.69493 0.95847 0.0
H818 H 0.10808 0.62582 0.95471 0.0
H819 H 0.13897 0.5695 0.96876 0.0
H820 H 0.18568 0.57789 0.03259 0.0
H821 H 0.16555 0.64706 0.03705 0.0
C822 C 0.12833 0.68755 0.00794 0.0
C823 C 0.10989 0.70508 0.99087 0.0
C824 C 0.14026 0.64793 0.00562 0.0
C825 C 0.10266 0.68209 0.97187 0.0
C826 C 0.11391 0.64266 0.96964 0.0
C827 C 0.14507 0.58632 0.98366 0.0
C828 C 0.16408 0.56837 0.00026 0.0
C829 C 0.13306 0.62554 0.98624 0.0
C830 C 0.17134 0.59091 0.01946 0.0
C831 C 0.15963 0.63039 0.02208 0.0
H832 H 0.62771 0.69887 0.7587 0.0
H833 H 0.69152 0.68219 0.70338 0.0
H834 H 0.66955 0.61435 0.69697 0.0
H835 H 0.63349 0.55866 0.70854 0.0
H836 H 0.5705 0.57745 0.76412 0.0
H837 H 0.59016 0.64635 0.76854 0.0
C838 C 0.63713 0.68035 0.74532 0.0
C839 C 0.66178 0.69518 0.73185 0.0
C840 C 0.62398 0.64214 0.74152 0.0
C841 C 0.67289 0.67121 0.71418 0.0
C842 C 0.66019 0.63257 0.71045 0.0
C843 C 0.62353 0.57834 0.72118 0.0
C844 C 0.60032 0.56329 0.73586 0.0
C845 C 0.63575 0.61765 0.72409 0.0
C846 C 0.58815 0.5886 0.75255 0.0
C847 C 0.59961 0.62778 0.75522 0.0
H848 H 0.14675 0.19526 0.76655 0.0
H849 H 0.19363 0.18446 0.70299 0.0
H850 H 0.16861 0.11819 0.69724 0.0
H851 H 0.13354 0.06302 0.7108 0.0
H852 H 0.08544 0.07745 0.77382 0.0
H853 H 0.11011 0.14328 0.77888 0.0
C854 C 0.15185 0.17835 0.75148 0.0
C855 C 0.17257 0.19452 0.7354 0.0
C856 C 0.13661 0.14124 0.74801 0.0
C857 C 0.17813 0.1725 0.71576 0.0
C858 C 0.16364 0.13475 0.71243 0.0
C859 C 0.12802 0.0809 0.72544 0.0
C860 C 0.10756 0.06514 0.74191 0.0
C861 C 0.14268 0.11886 0.72842 0.0
C862 C 0.10103 0.08865 0.76088 0.0
C863 C 0.11531 0.12625 0.76388 0.0
H864 H 0.38246 0.31707 0.46468 0.0
H865 H 0.43792 0.33444 0.52431 0.0
H866 H 0.415 0.40186 0.52905 0.0
H867 H 0.37867 0.45537 0.51651 0.0
H868 H 0.3239 0.43814 0.45662 0.0
H869 H 0.34645 0.37046 0.45208 0.0
C870 C 0.38998 0.3358 0.47853 0.0
C871 C 0.41218 0.32085 0.49399 0.0
C872 C 0.3762 0.37408 0.48142 0.0
C873 C 0.42108 0.34531 0.51208 0.0
C874 C 0.40779 0.38372 0.5149 0.0
C875 C 0.37122 0.43648 0.50271 0.0
C876 C 0.3493 0.45145 0.48708 0.0
C877 C 0.38502 0.39817 0.49984 0.0
C878 C 0.3405 0.42708 0.46896 0.0
C879 C 0.3536 0.38858 0.46626 0.0
H880 H 0.88954 0.95271 0.46341 0.0
H881 H 0.84162 0.94466 0.52681 0.0
H882 H 0.86105 0.87539 0.53157 0.0
H883 H 0.89195 0.81701 0.51764 0.0
H884 H 0.9388 0.82583 0.45394 0.0
H885 H 0.9201 0.89533 0.44966 0.0
C886 C 0.88298 0.9358 0.47821 0.0
C887 C 0.86388 0.95395 0.49465 0.0
C888 C 0.89461 0.89634 0.48099 0.0
C889 C 0.85608 0.93147 0.51381 0.0
C890 C 0.86737 0.89192 0.51661 0.0
C891 C 0.89851 0.83447 0.50303 0.0
C892 C 0.91709 0.81652 0.48624 0.0
C893 C 0.88691 0.87416 0.50039 0.0
C894 C 0.92475 0.83911 0.46715 0.0
C895 C 0.91388 0.87873 0.46463 0.0
H896 H 0.37937 0.94355 0.77401 0.0
H897 H 0.43894 0.93377 0.71583 0.0
H898 H 0.41906 0.86545 0.70901 0.0
H899 H 0.38452 0.80829 0.7196 0.0
H900 H 0.3264 0.81797 0.77837 0.0
H901 H 0.34521 0.887 0.78456 0.0
C902 C 0.38838 0.92638 0.75998 0.0
C903 C 0.41088 0.94379 0.74557 0.0
C904 C 0.37647 0.88742 0.75594 0.0
C905 C 0.4218 0.92112 0.72728 0.0
C906 C 0.41026 0.88213 0.72326 0.0
C907 C 0.3755 0.82596 0.73345 0.0
C908 C 0.35362 0.80853 0.74827 0.0
C909 C 0.38734 0.86511 0.73735 0.0
C910 C 0.34288 0.8311 0.76659 0.0
C911 C 0.35386 0.87036 0.77024 0.0
H912 H 0.8723 0.316 0.71327 0.0
H913 H 0.82038 0.3331 0.77449 0.0
H914 H 0.84294 0.40064 0.77852 0.0
H915 H 0.87922 0.45312 0.76583 0.0
H916 H 0.93135 0.43737 0.70462 0.0
H917 H 0.90733 0.37047 0.69962 0.0
C918 C 0.86542 0.33485 0.72724 0.0
C919 C 0.84451 0.31961 0.74351 0.0
C920 C 0.87913 0.37335 0.72975 0.0
C921 C 0.8363 0.34416 0.76172 0.0
C922 C 0.84939 0.38264 0.76413 0.0
C923 C 0.8857 0.43493 0.75149 0.0
C924 C 0.90757 0.44991 0.73583 0.0
C925 C 0.87132 0.39713 0.74852 0.0
C926 C 0.91491 0.42633 0.71705 0.0
C927 C 0.90102 0.38822 0.71413 0.0
H928 H 0.64872 0.56853 0.52042 0.0
H929 H 0.70024 0.58213 0.45877 0.0
H930 H 0.67858 0.65004 0.45399 0.0
H931 H 0.64374 0.70447 0.46642 0.0
H932 H 0.59193 0.69223 0.52802 0.0
H933 H 0.6145 0.6246 0.53349 0.0
C934 C 0.65565 0.58667 0.50616 0.0
C935 C 0.67631 0.57029 0.49005 0.0
C936 C 0.64247 0.62555 0.50323 0.0
C937 C 0.68453 0.59397 0.47145 0.0
C938 C 0.67197 0.63273 0.46863 0.0
C939 C 0.63697 0.68693 0.48094 0.0
C940 C 0.61568 0.70332 0.49661 0.0
C941 C 0.65051 0.64853 0.48418 0.0
C942 C 0.60794 0.68029 0.51557 0.0
C943 C 0.62102 0.64169 0.51877 0.0
H944 H 0.14245 0.06382 0.52532 0.0
H945 H 0.21411 0.0875 0.47588 0.0
H946 H 0.1962 0.15752 0.4727 0.0
H947 H 0.158 0.20994 0.4816 0.0
H948 H 0.08513 0.18799 0.53044 0.0
H949 H 0.10532 0.11895 0.53599 0.0
C950 C 0.1546 0.08472 0.51432 0.0
C951 C 0.17983 0.07076 0.50102 0.0
C952 C 0.14341 0.12472 0.51202 0.0
C953 C 0.19487 0.09773 0.48639 0.0
C954 C 0.18444 0.1376 0.48442 0.0
C955 C 0.14628 0.19011 0.49341 0.0
C956 C 0.11965 0.20393 0.50529 0.0
C957 C 0.15825 0.15103 0.49668 0.0
C958 C 0.10542 0.17799 0.5209 0.0
C959 C 0.11706 0.13861 0.52414 0.0
H960 H 0.647 0.19949 0.21641 0.0
H961 H 0.70208 0.18558 0.27646 0.0
H962 H 0.68072 0.1176 0.2818 0.0
H963 H 0.64578 0.06267 0.26984 0.0
H964 H 0.58994 0.07657 0.21006 0.0
H965 H 0.61173 0.14428 0.20447 0.0
C966 C 0.65475 0.18129 0.23045 0.0
C967 C 0.67647 0.19742 0.24586 0.0
C968 C 0.64172 0.14256 0.23373 0.0
C969 C 0.68564 0.17379 0.26426 0.0
C970 C 0.67325 0.13501 0.2674 0.0
C971 C 0.63801 0.0806 0.25571 0.0
C972 C 0.616 0.06446 0.24049 0.0
C973 C 0.651 0.11928 0.25239 0.0
C974 C 0.60667 0.08816 0.22213 0.0
C975 C 0.61929 0.12684 0.21883 0.0
H976 H 0.12977 0.70085 0.26181 0.0
H977 H 0.19318 0.68261 0.2064 0.0
H978 H 0.17091 0.61473 0.20056 0.0
H979 H 0.13433 0.55956 0.21246 0.0
H980 H 0.07169 0.58033 0.26803 0.0
H981 H 0.09216 0.64884 0.27214 0.0
C982 C 0.13905 0.68207 0.24851 0.0
C983 C 0.16363 0.69661 0.23483 0.0
C984 C 0.12573 0.64381 0.24501 0.0
C985 C 0.17459 0.67202 0.21735 0.0
C986 C 0.1617 0.63332 0.21394 0.0
C987 C 0.12461 0.57959 0.22502 0.0
C988 C 0.1012 0.56513 0.23976 0.0
C989 C 0.13722 0.61885 0.22771 0.0
C990 C 0.08943 0.59094 0.25638 0.0
C991 C 0.10136 0.62995 0.25888 0.0
H992 H 0.41489 0.12646 0.91392 0.0
H993 H 0.31497 0.12808 0.90014 0.0
H994 H 0.32593 0.12815 0.85991 0.0
H995 H 0.36412 0.1217 0.82894 0.0
H996 H 0.46403 0.12465 0.84262 0.0
H997 H 0.45309 0.12925 0.88278 0.0
C998 C 0.39556 0.12746 0.90204 0.0
C999 C 0.36415 0.12692 0.90983 0.0
C1000 C 0.40212 0.12807 0.87907 0.0
C1001 C 0.33926 0.12862 0.89445 0.0
C1002 C 0.34556 0.1284 0.87151 0.0
C1003 C 0.38345 0.12389 0.84077 0.0
C1004 C 0.41485 0.1224 0.83301 0.0
C1005 C 0.37689 0.1272 0.86367 0.0
C1006 C 0.43975 0.12576 0.84829 0.0
C1007 C 0.43345 0.12818 0.8712 0.0
H1008 H 0.88957 0.20197 0.83063 0.0
H1009 H 0.83982 0.08817 0.83275 0.0
H1010 H 0.85869 0.07697 0.87103 0.0
H1011 H 0.8882 0.10145 0.90459 0.0
H1012 H 0.93641 0.21611 0.90106 0.0
H1013 H 0.91988 0.22455 0.86242 0.0
C1014 C 0.88257 0.17466 0.83936 0.0
C1015 C 0.86287 0.14621 0.82879 0.0
C1016 C 0.89373 0.16832 0.86108 0.0
C1017 C 0.85467 0.11081 0.84048 0.0
C1018 C 0.86561 0.10432 0.86234 0.0
C1019 C 0.8956 0.12772 0.89509 0.0
C1020 C 0.91381 0.15797 0.90551 0.0
C1021 C 0.88515 0.13297 0.87287 0.0
C1022 C 0.92264 0.19237 0.89329 0.0
C1023 C 0.91299 0.19734 0.87127 0.0
H1024 H 0.36138 0.13971 0.41508 0.0
H1025 H 0.46122 0.14348 0.40124 0.0
H1026 H 0.45027 0.14245 0.36101 0.0
H1027 H 0.41183 0.14683 0.33002 0.0
H1028 H 0.31216 0.13822 0.34388 0.0
H1029 H 0.32332 0.13448 0.38401 0.0
C1030 C 0.38071 0.13957 0.4032 0.0
C1031 C 0.41206 0.14193 0.41096 0.0
C1032 C 0.37417 0.13847 0.38023 0.0
C1033 C 0.43698 0.14146 0.39556 0.0
C1034 C 0.43066 0.14119 0.37262 0.0
C1035 C 0.39263 0.14363 0.34188 0.0
C1036 C 0.36119 0.1433 0.33418 0.0
C1037 C 0.39933 0.14068 0.36479 0.0
C1038 C 0.33648 0.13856 0.34952 0.0
C1039 C 0.34288 0.1366 0.37241 0.0
H1040 H 0.85933 0.11649 0.32619 0.0
H1041 H 0.95829 0.13602 0.33928 0.0
H1042 H 0.94722 0.14134 0.37934 0.0
H1043 H 0.90981 0.13441 0.41066 0.0
H1044 H 0.81048 0.11912 0.39749 0.0
H1045 H 0.82103 0.11861 0.3572 0.0
C1046 C 0.87839 0.12232 0.33785 0.0
C1047 C 0.90965 0.12527 0.33 0.0
C1048 C 0.87171 0.12601 0.36069 0.0
C1049 C 0.93412 0.13355 0.34506 0.0
C1050 C 0.92778 0.13642 0.3679 0.0
C1051 C 0.89048 0.13164 0.39887 0.0
C1052 C 0.85947 0.1265 0.4068 0.0
C1053 C 0.89676 0.13185 0.3759 0.0
C1054 C 0.83447 0.12325 0.39161 0.0
C1055 C 0.84056 0.12269 0.36866 0.0
H1056 H 0.66661 0.90314 0.15791 0.0
H1057 H 0.56655 0.92074 0.14788 0.0
H1058 H 0.57436 0.91958 0.10742 0.0
H1059 H 0.60985 0.91511 0.07511 0.0
H1060 H 0.71031 0.90241 0.08537 0.0
H1061 H 0.70211 0.89998 0.12573 0.0
C1062 C 0.64646 0.90642 0.14687 0.0
C1063 C 0.61601 0.91173 0.15582 0.0
C1064 C 0.65124 0.90668 0.12376 0.0
C1065 C 0.59021 0.91664 0.14135 0.0
C1066 C 0.59466 0.91592 0.11826 0.0
C1067 C 0.62992 0.91148 0.08619 0.0
C1068 C 0.66063 0.90864 0.07733 0.0
C1069 C 0.6251 0.91114 0.10931 0.0
C1070 C 0.68647 0.90466 0.09184 0.0
C1071 C 0.68179 0.90324 0.11487 0.0
H1072 H 0.11268 0.85724 0.15834 0.0
H1073 H 0.21391 0.85782 0.14973 0.0
H1074 H 0.20717 0.86301 0.10925 0.0
H1075 H 0.1723 0.86553 0.07634 0.0
H1076 H 0.07126 0.85959 0.08527 0.0
H1077 H 0.0781 0.85867 0.12574 0.0
C1078 C 0.13331 0.85878 0.14763 0.0
C1079 C 0.16376 0.8574 0.15699 0.0
C1080 C 0.12925 0.86082 0.12448 0.0
C1081 C 0.19023 0.85877 0.14289 0.0
C1082 C 0.18638 0.86182 0.11978 0.0
C1083 C 0.15182 0.86445 0.0872 0.0
C1084 C 0.12131 0.86292 0.07793 0.0
C1085 C 0.15599 0.86268 0.1104 0.0
C1086 C 0.09495 0.86078 0.09208 0.0
C1087 C 0.09885 0.86024 0.11518 0.0
H1088 H 0.66709 0.8678 0.57602 0.0
H1089 H 0.56615 0.86162 0.58546 0.0
H1090 H 0.57345 0.8636 0.62597 0.0
H1091 H 0.60868 0.86431 0.65851 0.0
H1092 H 0.70971 0.86404 0.64894 0.0
H1093 H 0.70229 0.86758 0.60849 0.0
C1094 C 0.64667 0.86729 0.58695 0.0
C1095 C 0.6161 0.86488 0.57784 0.0
C1096 C 0.65112 0.86718 0.6101 0.0
C1097 C 0.58988 0.86347 0.59215 0.0
C1098 C 0.59406 0.86463 0.61526 0.0
C1099 C 0.62906 0.86551 0.64755 0.0
C1100 C 0.6597 0.86429 0.6566 0.0
C1101 C 0.62458 0.86615 0.62439 0.0
C1102 C 0.68592 0.865 0.64228 0.0
C1103 C 0.68167 0.86701 0.61921 0.0
H1104 H 0.19309 0.90816 0.58946 0.0
H1105 H 0.09593 0.90073 0.56792 0.0
H1106 H 0.07816 0.90103 0.60651 0.0
H1107 H 0.08987 0.90544 0.64654 0.0
H1108 H 0.18698 0.90917 0.6683 0.0
H1109 H 0.20496 0.90823 0.62965 0.0
C1110 C 0.16807 0.9064 0.59324 0.0
C1111 C 0.14596 0.90458 0.57581 0.0
C1112 C 0.15789 0.90607 0.61557 0.0
C1113 C 0.11356 0.90198 0.581 0.0
C1114 C 0.10329 0.90233 0.60309 0.0
C1115 C 0.11494 0.906 0.64278 0.0
C1116 C 0.137 0.90761 0.66023 0.0
C1117 C 0.12519 0.90472 0.62051 0.0
C1118 C 0.16947 0.90781 0.65515 0.0
C1119 C 0.17981 0.90738 0.63305 0.0
H1120 H 0.36187 0.62959 0.32387 0.0
H1121 H 0.46144 0.62071 0.33804 0.0
H1122 H 0.45025 0.62257 0.37824 0.0
H1123 H 0.41149 0.62047 0.40913 0.0
H1124 H 0.31226 0.6341 0.39493 0.0
H1125 H 0.32379 0.63706 0.35483 0.0
C1126 C 0.38111 0.62871 0.33582 0.0
C1127 C 0.41242 0.62466 0.32816 0.0
C1128 C 0.37446 0.63043 0.35877 0.0
C1129 C 0.43722 0.62392 0.34364 0.0
C1130 C 0.43077 0.62474 0.36657 0.0
C1131 C 0.3925 0.62475 0.3972 0.0
C1132 C 0.36104 0.62677 0.40481 0.0
C1133 C 0.39943 0.62707 0.3743 0.0
C1134 C 0.33659 0.63263 0.38938 0.0
C1135 C 0.3432 0.63408 0.3665 0.0
H1136 H 0.86212 0.64171 0.40912 0.0
H1137 H 0.96184 0.63898 0.39459 0.0
H1138 H 0.95027 0.63576 0.35451 0.0
H1139 H 0.91157 0.64016 0.32376 0.0
H1140 H 0.81192 0.63879 0.33837 0.0
H1141 H 0.82348 0.63682 0.37849 0.0
C1142 C 0.88127 0.63991 0.39713 0.0
C1143 C 0.91278 0.64114 0.4046 0.0
C1144 C 0.87437 0.63751 0.37429 0.0
C1145 C 0.93746 0.63813 0.3891 0.0
C1146 C 0.93082 0.6365 0.36625 0.0
C1147 C 0.89247 0.63877 0.33581 0.0
C1148 C 0.86097 0.63993 0.32838 0.0
C1149 C 0.89938 0.63712 0.35868 0.0
C1150 C 0.83628 0.63781 0.34388 0.0
C1151 C 0.84293 0.63691 0.36674 0.0
H1152 H 0.41633 0.64231 0.82447 0.0
H1153 H 0.31709 0.62456 0.83732 0.0
H1154 H 0.3276 0.62158 0.87751 0.0
H1155 H 0.36466 0.63015 0.90899 0.0
H1156 H 0.4642 0.64357 0.89605 0.0
H1157 H 0.45416 0.6418 0.85574 0.0
C1158 C 0.39708 0.63739 0.8361 0.0
C1159 C 0.36592 0.63426 0.82808 0.0
C1160 C 0.40342 0.63504 0.85905 0.0
C1161 C 0.34121 0.62715 0.84318 0.0
C1162 C 0.34722 0.62562 0.86611 0.0
C1163 C 0.38413 0.6319 0.89726 0.0
C1164 C 0.41508 0.63708 0.90524 0.0
C1165 C 0.37814 0.63037 0.87424 0.0
C1166 C 0.44026 0.63928 0.89012 0.0
C1167 C 0.43446 0.63855 0.86715 0.0
H1168 H 0.87984 0.5594 0.82905 0.0
H1169 H 0.93467 0.66934 0.83173 0.0
H1170 H 0.9178 0.68003 0.87038 0.0
H1171 H 0.88819 0.65692 0.90378 0.0
H1172 H 0.83592 0.54529 0.9008 0.0
H1173 H 0.85029 0.53705 0.86157 0.0
C1174 C 0.88826 0.58575 0.838 0.0
C1175 C 0.90865 0.61344 0.82744 0.0
C1176 C 0.87837 0.59175 0.86005 0.0
C1177 C 0.91921 0.64733 0.83946 0.0
C1178 C 0.90935 0.65362 0.86151 0.0
C1179 C 0.87939 0.63141 0.89427 0.0
C1180 C 0.86048 0.60214 0.90484 0.0
C1181 C 0.88886 0.62607 0.87196 0.0
C1182 C 0.85002 0.56844 0.89276 0.0
C1183 C 0.8585 0.56355 0.87046 0.0
H1184 H 0.66614 0.39674 0.65662 0.0
H1185 H 0.56515 0.39677 0.64705 0.0
H1186 H 0.57252 0.3981 0.60656 0.0
H1187 H 0.60771 0.40291 0.57406 0.0
H1188 H 0.70857 0.40917 0.58393 0.0
H1189 H 0.70128 0.40179 0.62418 0.0
C1190 C 0.64578 0.39644 0.64564 0.0
C1191 C 0.61516 0.39629 0.65472 0.0
C1192 C 0.6502 0.39873 0.62249 0.0
C1193 C 0.58894 0.39678 0.64038 0.0
C1194 C 0.59315 0.39763 0.61727 0.0
C1195 C 0.62809 0.40233 0.58502 0.0
C1196 C 0.65863 0.40648 0.57607 0.0
C1197 C 0.62367 0.39918 0.60816 0.0
C1198 C 0.68481 0.40622 0.59046 0.0
C1199 C 0.68067 0.4019 0.61345 0.0
H1200 H 0.1102 0.35719 0.66344 0.0
H1201 H 0.21062 0.36927 0.65294 0.0
H1202 H 0.20195 0.37613 0.61277 0.0
H1203 H 0.16609 0.3756 0.58064 0.0
H1204 H 0.06618 0.35759 0.59081 0.0
H1205 H 0.07432 0.35641 0.63124 0.0
C1206 C 0.13017 0.36172 0.65237 0.0
C1207 C 0.16102 0.36292 0.66113 0.0
C1208 C 0.12506 0.36449 0.6293 0.0
C1209 C 0.18668 0.36815 0.64658 0.0
C1210 C 0.18172 0.37213 0.62364 0.0
C1211 C 0.14604 0.37194 0.59172 0.0
C1212 C 0.11553 0.36702 0.5828 0.0
C1213 C 0.15105 0.36995 0.61482 0.0
C1214 C 0.08986 0.36149 0.59731 0.0
C1215 C 0.09452 0.36078 0.62039 0.0
H1216 H 0.60514 0.35679 0.15964 0.0
H1217 H 0.70625 0.35654 0.15037 0.0
H1218 H 0.69922 0.36147 0.11004 0.0
H1219 H 0.66458 0.36338 0.07747 0.0
H1220 H 0.56348 0.3579 0.08606 0.0
H1221 H 0.57019 0.35781 0.12666 0.0
C1222 C 0.62558 0.35813 0.14876 0.0
C1223 C 0.65617 0.35646 0.15792 0.0
C1224 C 0.62135 0.35984 0.12553 0.0
C1225 C 0.68248 0.35763 0.14367 0.0
C1226 C 0.67848 0.36052 0.12064 0.0
C1227 C 0.64397 0.36259 0.08822 0.0
C1228 C 0.61357 0.36099 0.07881 0.0
C1229 C 0.64806 0.36132 0.1114 0.0
C1230 C 0.58713 0.35919 0.09294 0.0
C1231 C 0.59096 0.35913 0.11612 0.0
H1232 H 0.16669 0.40158 0.16139 0.0
H1233 H 0.06588 0.39977 0.15075 0.0
H1234 H 0.07419 0.39975 0.11036 0.0
H1235 H 0.10996 0.4028 0.07826 0.0
H1236 H 0.21065 0.41025 0.08879 0.0
H1237 H 0.20256 0.40558 0.12916 0.0
C1238 C 0.14655 0.40072 0.15021 0.0
C1239 C 0.1157 0.40031 0.159 0.0
C1240 C 0.15151 0.402 0.12706 0.0
C1241 C 0.08983 0.40002 0.14435 0.0
C1242 C 0.09458 0.40004 0.12129 0.0
C1243 C 0.13019 0.40308 0.08937 0.0
C1244 C 0.1609 0.4066 0.08055 0.0
C1245 C 0.1253 0.40141 0.11249 0.0
C1246 C 0.1868 0.4076 0.09518 0.0
C1247 C 0.18217 0.40486 0.11823 0.0
H1248 H 0.58399 0.03181 -0.00677 0.0
H1249 H 0.54221 0.91866 0.97323 0.0
H1250 H 0.48947 0.94902 0.97479 0.0
H1251 H 0.45579 1.00657 0.98286 0.0
H1252 H 0.49602 0.11883 0.00591 0.0
H1253 H 0.54935 0.0898 0.00263 0.0
C1254 C 0.56322 0.01423 0.98894 0.0
C1255 C 0.56648 0.97353 0.98272 0.0
C1256 C 0.53308 0.03145 0.99078 0.0
C1257 C 0.53982 0.95023 0.97778 0.0
C1258 C 0.50986 0.96747 0.97878 0.0
C1259 C 0.47625 0.02481 0.98708 0.0
C1260 C 0.47226 0.06481 -0.00562 0.0
C1261 C 0.50629 1.00786 0.98544 0.0
C1262 C 0.49874 0.0879 0.00029 0.0
C1263 C 0.52909 0.07141 -0.00172 0.0
H1264 H 0.83064 0.27803 0.99077 0.0
H1265 H 0.78772 0.15997 -0.00517 0.0
H1266 H 0.73513 0.19063 0.99174 0.0
H1267 H 0.70184 0.25096 0.98715 0.0
H1268 H 0.74434 0.36934 0.98675 0.0
H1269 H 0.79716 0.33867 0.9889 0.0
C1270 C 0.80969 0.25912 0.99103 0.0
C1271 C 0.81273 0.21694 -0.0072 0.0
C1272 C 0.7798 0.27697 0.98965 0.0
C1273 C 0.78568 0.19256 -0.00647 0.0
C1274 C 0.75576 0.21002 0.99161 0.0
C1275 C 0.7228 0.26986 0.98729 0.0
C1276 C 0.71973 0.31206 0.98626 0.0
C1277 C 0.75263 0.25212 0.98944 0.0
C1278 C 0.74659 0.3367 0.9872 0.0
C1279 C 0.77657 0.31921 0.98851 0.0
H1280 H 0.49178 0.17982 0.25961 0.0
H1281 H 0.43671 0.28483 0.24191 0.0
H1282 H 0.48431 0.32655 0.24147 0.0
H1283 H 0.54151 0.3331 0.24637 0.0
H1284 H 0.59632 0.2294 0.26686 0.0
H1285 H 0.54897 0.18723 0.26632 0.0
C1286 C 0.49048 0.21175 0.25549 0.0
C1287 C 0.46125 0.22939 0.25054 0.0
C1288 C 0.51773 0.23578 0.25608 0.0
C1289 C 0.45929 0.27086 0.24566 0.0
C1290 C 0.48637 0.29467 0.24547 0.0
C1291 C 0.54294 0.30135 0.25087 0.0
C1292 C 0.57211 0.28435 0.25672 0.0
C1293 C 0.51568 0.27749 0.25077 0.0
C1294 C 0.57388 0.24322 0.2626 0.0
C1295 C 0.54693 0.21902 0.2621 0.0
H1296 H 0.71065 0.98225 0.22216 0.0
H1297 H 0.72285 0.93612 0.28891 0.0
H1298 H 0.77148 0.97569 0.29298 0.0
H1299 H 0.81015 0.02288 0.27734 0.0
H1300 H 0.79612 0.07198 0.21131 0.0
H1301 H 0.74773 0.03235 0.20733 0.0
C1302 C 0.72427 0.98048 0.23747 0.0
C1303 C 0.7139 0.95577 0.25505 0.0
C1304 C 0.75131 1.00428 0.23992 0.0
C1305 C 0.73089 0.95461 0.2751 0.0
C1306 C 0.75845 0.97733 0.27745 0.0
C1307 C 0.7964 0.0251 0.26212 0.0
C1308 C 0.80672 0.05005 0.24457 0.0
C1309 C 0.76878 1.0023 0.25997 0.0
C1310 C 0.78853 0.0531 0.22507 0.0
C1311 C 0.76106 0.0302 0.22271 0.0
H1312 H 0.19774 0.75205 0.98546 0.0
H1313 H 0.24247 0.86865 0.97976 0.0
H1314 H 0.29473 0.83639 0.98069 0.0
H1315 H 0.32714 0.77505 0.98349 0.0
H1316 H 0.28249 0.65908 -0.00703 0.0
H1317 H 0.23027 0.69105 0.99055 0.0
C1318 C 0.21904 0.77018 0.98416 0.0
C1319 C 0.21671 0.81234 0.98204 0.0
C1320 C 0.24868 0.75161 0.98566 0.0
C1321 C 0.24409 0.83602 0.98109 0.0
C1322 C 0.27378 0.81764 0.98171 0.0
C1323 C 0.30591 0.75686 0.98502 0.0
C1324 C 0.30835 0.71488 0.98819 0.0
C1325 C 0.27628 0.7755 0.98407 0.0
C1326 C 0.28093 0.69151 0.99058 0.0
C1327 C 0.25122 0.70971 0.98906 0.0
H1328 H 0.57621 0.74131 0.74382 0.0
H1329 H 0.53267 0.85915 0.74664 0.0
H1330 H 0.48017 0.82811 0.74373 0.0
H1331 H 0.44721 0.76731 0.74133 0.0
H1332 H 0.49085 0.64983 0.73551 0.0
H1333 H 0.54332 0.68091 0.73819 0.0
C1334 C 0.55512 0.76002 0.74397 0.0
C1335 C 0.55784 0.80218 0.74597 0.0
C1336 C 0.52541 0.74211 0.74149 0.0
C1337 C 0.53075 0.82655 0.74543 0.0
C1338 C 0.50093 0.80886 0.74369 0.0
C1339 C 0.46829 0.74863 0.74048 0.0
C1340 C 0.46548 0.70646 0.73844 0.0
C1341 C 0.49805 0.76669 0.74181 0.0
C1342 C 0.49269 0.68239 0.737 0.0
C1343 C 0.52255 0.7001 0.73872 0.0
H1344 H 0.32 1.00487 0.76597 0.0
H1345 H 0.2808 0.11329 0.73678 0.0
H1346 H 0.2275 0.08408 0.73939 0.0
H1347 H 0.19291 0.02621 0.74878 0.0
H1348 H 0.2341 0.91624 0.77441 0.0
H1349 H 0.28634 0.94798 0.77491 0.0
C1350 C 0.29979 0.0224 0.76036 0.0
C1351 C 0.30408 0.06127 0.75139 0.0
C1352 C 0.26983 1.0052 0.76148 0.0
C1353 C 0.27787 0.08326 0.74372 0.0
C1354 C 0.24754 0.06665 0.7453 0.0
C1355 C 0.21338 0.00971 0.75485 0.0
C1356 C 0.21012 0.96946 0.76196 0.0
C1357 C 0.24334 0.02755 0.75407 0.0
C1358 C 0.23647 0.94749 0.76918 0.0
C1359 C 0.26615 0.9655 0.76933 0.0
H1360 H 0.54128 0.43037 0.48715 0.0
H1361 H 0.59478 0.53696 0.47002 0.0
H1362 H 0.54677 0.57797 0.47122 0.0
H1363 H 0.48953 0.58366 0.47791 0.0
H1364 H 0.43553 0.47615 0.49193 0.0
H1365 H 0.4837 0.43524 0.4914 0.0
C1366 C 0.54226 0.46251 0.48351 0.0
C1367 C 0.57128 0.48069 0.47847 0.0
C1368 C 0.51458 0.48571 0.4839 0.0
C1369 C 0.57248 0.52229 0.47366 0.0
C1370 C 0.54514 0.5458 0.47453 0.0
C1371 C 0.48855 0.55133 0.48095 0.0
C1372 C 0.45946 0.53278 0.48523 0.0
C1373 C 0.51611 0.52789 0.47981 0.0
C1374 C 0.45796 0.49083 0.4887 0.0
C1375 C 0.48538 0.4675 0.48836 0.0
H1376 H 0.8276 0.77326 0.48981 0.0
H1377 H 0.78217 0.65675 0.49351 0.0
H1378 H 0.73018 0.68942 0.49072 0.0
H1379 H 0.69825 0.75118 0.48606 0.0
H1380 H 0.7437 0.8678 0.48559 0.0
H1381 H 0.79567 0.83504 0.48801 0.0
C1382 C 0.80623 0.75512 0.49015 0.0
C1383 C 0.80838 0.71282 0.49167 0.0
C1384 C 0.77679 0.77408 0.48881 0.0
C1385 C 0.78081 0.68942 0.49245 0.0
C1386 C 0.75125 0.70804 0.49067 0.0
C1387 C 0.71966 0.76923 0.48626 0.0
C1388 C 0.71766 0.81157 0.48511 0.0
C1389 C 0.74906 0.75028 0.48854 0.0
C1390 C 0.74511 0.83508 0.48612 0.0
C1391 C 0.77462 0.81641 0.48761 0.0
H1392 H 0.824 0.49513 0.74152 0.0
H1393 H 0.78097 0.61252 0.7332 0.0
H1394 H 0.72828 0.58154 0.73479 0.0
H1395 H 0.69498 0.52113 0.74029 0.0
H1396 H 0.73865 0.40362 0.74602 0.0
H1397 H 0.79111 0.43467 0.74399 0.0
C1398 C 0.80304 0.51388 0.73995 0.0
C1399 C 0.80604 0.55595 0.73752 0.0
C1400 C 0.77324 0.49591 0.74071 0.0
C1401 C 0.77897 0.58002 0.73506 0.0
C1402 C 0.74899 0.56237 0.73614 0.0
C1403 C 0.71609 0.50251 0.74123 0.0
C1404 C 0.71336 0.46042 0.74375 0.0
C1405 C 0.74592 0.52043 0.73933 0.0
C1406 C 0.74052 0.43617 0.7443 0.0
C1407 C 0.77035 0.45385 0.74309 0.0
H1408 H 0.32693 0.27591 0.48761 0.0
H1409 H 0.28106 0.16598 0.509 0.0
H1410 H 0.2297 0.20063 0.50839 0.0
H1411 H 0.19823 0.26172 0.50054 0.0
H1412 H 0.2446 0.37207 0.48082 0.0
H1413 H 0.29608 0.3376 0.4819 0.0
C1414 C 0.30564 0.25952 0.49213 0.0
C1415 C 0.30742 0.21843 0.49806 0.0
C1416 C 0.27666 0.27964 0.49193 0.0
C1417 C 0.28 0.19764 0.50437 0.0
C1418 C 0.25079 0.21735 0.50391 0.0
C1419 C 0.21975 0.27798 0.49648 0.0
C1420 C 0.21819 0.31887 0.49033 0.0
C1421 C 0.24889 0.25818 0.49751 0.0
C1422 C 0.24574 0.34039 0.48541 0.0
C1423 C 0.27493 0.32075 0.48605 0.0
H1424 H 0.1931 0.52366 0.24507 0.0
H1425 H 0.23814 0.40747 0.25316 0.0
H1426 H 0.29025 0.43948 0.25101 0.0
H1427 H 0.32234 0.50028 0.2473 0.0
H1428 H 0.27806 0.61622 0.23642 0.0
H1429 H 0.22568 0.58442 0.23868 0.0
C1430 C 0.21444 0.50559 0.24654 0.0
C1431 C 0.21226 0.46361 0.24972 0.0
C1432 C 0.24403 0.524 0.24451 0.0
C1433 C 0.23966 0.43994 0.25095 0.0
C1434 C 0.26926 0.45817 0.24965 0.0
C1435 C 0.30116 0.51855 0.24538 0.0
C1436 C 0.30368 0.56043 0.242 0.0
C1437 C 0.27162 0.50011 0.24648 0.0
C1438 C 0.27639 0.58387 0.23904 0.0
C1439 C 0.24661 0.56577 0.24048 0.0
H1440 H 0.08303 0.03523 0.49163 0.0
H1441 H 0.0413 0.92186 0.47185 0.0
H1442 H 0.98867 0.95246 0.4728 0.0
H1443 H 0.95499 0.01028 0.48018 0.0
H1444 H 0.99501 0.12283 0.50296 0.0
H1445 H 0.04835 0.09352 0.50037 0.0
C1446 C 0.06232 0.01761 0.48726 0.0
C1447 C 0.06563 0.97673 0.48131 0.0
C1448 C 0.03217 0.035 0.4887 0.0
C1449 C 0.03895 0.9535 0.47625 0.0
C1450 C 1.00902 0.9709 0.47689 0.0
C1451 C 0.9754 0.02854 0.48448 0.0
C1452 C 0.97135 0.06871 0.49149 0.0
C1453 C 1.00543 0.01143 0.48325 0.0
C1454 C 0.99777 0.0918 0.49753 0.0
C1455 C 0.02812 0.07513 0.49592 0.0
H1456 H 0.04143 0.33779 0.75031 0.0
H1457 H 0.09162 0.22757 0.76575 0.0
H1458 H 0.04234 0.18955 0.76495 0.0
H1459 H 0.98517 0.18727 0.75849 0.0
H1460 H 0.93407 0.29791 0.74613 0.0
H1461 H 0.98346 0.3364 0.74704 0.0
C1462 C 0.04139 0.30554 0.75367 0.0
C1463 C 0.0699 0.28539 0.75797 0.0
C1464 C 1.01293 0.28402 0.75358 0.0
C1465 C 0.06979 0.24368 0.76253 0.0
C1466 C 0.04171 0.22189 0.76194 0.0
C1467 C 0.98504 0.2198 0.75601 0.0
C1468 C 0.95652 0.23991 0.75199 0.0
C1469 C 1.01322 0.24167 0.75723 0.0
C1470 C 0.95609 0.28207 0.7492 0.0
C1471 C 0.9842 0.30397 0.7497 0.0
H1472 H 0.95027 0.77081 0.25353 0.0
H1473 H 0.99335 0.65357 0.24461 0.0
H1474 H 0.04596 0.68425 0.24706 0.0
H1475 H 0.07923 0.7446 0.25118 0.0
H1476 H 0.03606 0.86238 0.25598 0.0
H1477 H 0.98337 0.8313 0.25606 0.0
C1478 C 0.97123 0.75199 0.25225 0.0
C1479 C 0.96826 0.71008 0.24911 0.0
C1480 C 1.00106 0.7699 0.25311 0.0
C1481 C 0.99534 0.68594 0.24702 0.0
C1482 C 0.02527 0.7034 0.24852 0.0
C1483 C 0.05817 0.76322 0.25252 0.0
C1484 C 0.06099 0.80537 0.25401 0.0
C1485 C 0.02833 0.74531 0.25156 0.0
C1486 C 0.03398 0.82976 0.25509 0.0
C1487 C 1.00408 0.81204 0.25505 0.0
H1488 H 0.97318 0.54538 0.95878 0.0
H1489 H 0.97737 0.57278 0.02914 0.0
H1490 H 0.02367 0.52918 0.03306 0.0
H1491 H 0.06173 0.48158 0.01673 0.0
H1492 H 0.05825 0.45579 0.94627 0.0
H1493 H 1.01204 0.49977 0.94227 0.0
C1494 C 0.98436 0.54226 0.97497 0.0
C1495 C 0.97172 0.56227 -0.00634 0.0
C1496 C 1.01054 0.51669 0.97717 0.0
C1497 C 0.98665 0.55789 0.01446 0.0
C1498 C 1.01293 0.53264 0.01676 0.0
C1499 C 0.05048 0.48508 0.00058 0.0
C1500 C 0.06286 0.46499 0.98188 0.0
C1501 C 0.02468 0.51135 -0.00169 0.0
C1502 C 0.04877 0.47064 0.96092 0.0
C1503 C 0.02259 0.49598 0.95861 0.0
H1504 H 0.31656 0.14193 0.15805 0.0
H1505 H 0.41772 0.15292 0.16406 0.0
H1506 H 0.42377 0.14123 0.12407 0.0
H1507 H 0.40041 0.12752 0.08737 0.0
H1508 H 0.29967 0.11097 0.08163 0.0
H1509 H 0.29333 0.12487 0.12144 0.0
C1510 C 0.33987 0.14193 0.15052 0.0
C1511 C 0.36664 0.14858 0.16391 0.0
C1512 C 0.34325 0.13396 0.12759 0.0
C1513 C 0.39677 0.14784 0.15408 0.0
C1514 C 0.40025 0.14119 0.13121 0.0
C1515 C 0.37707 0.12696 0.09484 0.0
C1516 C 0.35055 0.11842 0.08155 0.0
C1517 C 0.37368 0.13413 0.11781 0.0
C1518 C 0.32049 0.11731 0.09152 0.0
C1519 C 0.31683 0.12542 0.11427 0.0
H1520 H 0.96455 0.11314 0.15345 0.0
H1521 H 0.86305 0.10755 0.15896 0.0
H1522 H 0.85773 0.11822 0.11888 0.0
H1523 H 0.8816 0.13184 0.08249 0.0
H1524 H 0.98288 0.14256 0.07696 0.0
H1525 H 0.98861 0.12738 0.11666 0.0
C1526 C 0.94136 0.11391 0.14577 0.0
C1527 C 0.91425 0.10951 0.15908 0.0
C1528 C 0.9384 0.1213 0.12272 0.0
C1529 C 0.88426 0.11107 0.14903 0.0
C1530 C 0.88118 0.11715 0.12612 0.0
C1531 C 0.90495 0.13065 0.08993 0.0
C1532 C 0.93173 0.1383 0.07676 0.0
C1533 C 0.90804 0.12276 0.11284 0.0
C1534 C 0.96181 0.137 0.08674 0.0
C1535 C 0.96514 0.12821 0.10945 0.0
H1536 H 0.69381 0.91608 0.82724 0.0
H1537 H 0.679 0.78743 0.83329 0.0
H1538 H 0.6805 0.79291 0.87396 0.0
H1539 H 0.6838 0.83491 0.90779 0.0
H1540 H 0.69475 0.96415 0.90126 0.0
H1541 H 0.69708 0.95779 0.86077 0.0
C1542 C 0.69124 0.88917 0.83746 0.0
C1543 C 0.68643 0.85141 0.82733 0.0
C1544 C 0.69127 0.89271 0.86073 0.0
C1545 C 0.68266 0.81688 0.84075 0.0
C1546 C 0.68352 0.81998 0.86398 0.0
C1547 C 0.68694 0.86157 0.89747 0.0
C1548 C 0.68909 0.89991 0.90744 0.0
C1549 C 0.68748 0.85782 0.87415 0.0
C1550 C 0.69282 0.93433 0.89392 0.0
C1551 C 0.69422 0.93073 0.87079 0.0
H1552 H 0.08908 0.82316 0.8985 0.0
H1553 H 0.07665 0.94942 0.91448 0.0
H1554 H 0.07358 0.96607 0.87486 0.0
H1555 H 0.07725 0.94518 0.8357 0.0
H1556 H 0.08731 0.81861 0.81964 0.0
H1557 H 0.08819 0.80158 0.85929 0.0
C1558 C 0.08558 0.85427 0.89327 0.0
C1559 C 0.08342 0.88506 0.90932 0.0
C1560 C 0.08343 0.86356 0.87049 0.0
C1561 C 0.07837 0.92518 0.9024 0.0
C1562 C 0.07672 0.93475 0.87976 0.0
C1563 C 0.07945 0.91386 0.8409 0.0
C1564 C 0.08252 0.88325 0.82482 0.0
C1565 C 0.07964 0.90426 0.86368 0.0
C1566 C 0.08488 0.84272 0.83174 0.0
C1567 C 0.08554 0.83297 0.85439 0.0
H1568 H 0.39688 0.63125 0.65181 0.0
H1569 H 0.29662 0.65339 0.65619 0.0
H1570 H 0.29104 0.64045 0.6162 0.0
H1571 H 0.31479 0.62274 0.57985 0.0
H1572 H 0.41567 0.60617 0.57521 0.0
H1573 H 0.42088 0.61685 0.61536 0.0
C1574 C 0.3738 0.6332 0.64401 0.0
C1575 C 0.34718 0.64302 0.65697 0.0
C1576 C 0.37089 0.62662 0.62094 0.0
C1577 C 0.3175 0.646 0.64656 0.0
C1578 C 0.31428 0.63846 0.62372 0.0
C1579 C 0.33786 0.62129 0.5877 0.0
C1580 C 0.36478 0.61334 0.57464 0.0
C1581 C 0.3408 0.62866 0.61073 0.0
C1582 C 0.3946 0.61225 0.58492 0.0
C1583 C 0.3976 0.61832 0.60788 0.0
H1584 H 0.92362 0.69998 0.58578 0.0
H1585 H 0.922 0.57434 0.56674 0.0
H1586 H 0.92535 0.55391 0.60588 0.0
H1587 H 0.9263 0.5718 0.64569 0.0
H1588 H 0.92136 0.69716 0.66494 0.0
H1589 H 0.92315 0.71787 0.62574 0.0
C1590 C 0.92425 0.66821 0.5903 0.0
C1591 C 0.92273 0.63866 0.57356 0.0
C1592 C 0.92491 0.6567 0.61288 0.0
C1593 C 0.92306 0.59754 0.57947 0.0
C1594 C 0.92501 0.58585 0.6018 0.0
C1595 C 0.92595 0.6036 0.64121 0.0
C1596 C 0.92397 0.63298 0.65801 0.0
C1597 C 0.92563 0.61515 0.61866 0.0
C1598 C 0.9229 0.67411 0.65215 0.0
C1599 C 0.92391 0.68593 0.62979 0.0
H1600 H 0.69902 0.32111 0.33677 0.0
H1601 H 0.69988 0.44719 0.31808 0.0
H1602 H 0.70072 0.46679 0.35733 0.0
H1603 H 0.69832 0.44801 0.39697 0.0
H1604 H 0.69974 0.32184 0.41554 0.0
H1605 H 0.70107 0.30238 0.37632 0.0
C1606 C 0.69957 0.35286 0.34132 0.0
C1607 C 0.69911 0.38264 0.32462 0.0
C1608 C 0.70036 0.3639 0.36387 0.0
C1609 C 0.70028 0.42368 0.33067 0.0
C1610 C 0.70061 0.43493 0.3531 0.0
C1611 C 0.69907 0.41629 0.3924 0.0
C1612 C 0.69865 0.38643 0.40907 0.0
C1613 C 0.7002 0.40529 0.36983 0.0
C1614 C 0.70009 0.34542 0.40298 0.0
C1615 C 0.70073 0.33423 0.38057 0.0
H1616 H 0.08424 0.42512 0.4103 0.0
H1617 H 0.08533 0.29485 0.40678 0.0
H1618 H 0.0837 0.29803 0.36602 0.0
H1619 H 0.08505 0.33804 0.33138 0.0
H1620 H 0.08871 0.46827 0.3352 0.0
H1621 H 0.0854 0.46499 0.3758 0.0
C1622 C 0.08365 0.39746 0.40058 0.0
C1623 C 0.08469 0.35983 0.41145 0.0
C1624 C 0.08387 0.39955 0.37722 0.0
C1625 C 0.08454 0.32418 0.39872 0.0
C1626 C 0.08366 0.32598 0.37545 0.0
C1627 C 0.08486 0.36566 0.34113 0.0
C1628 C 0.08713 0.40331 0.33035 0.0
C1629 C 0.08381 0.36352 0.36451 0.0
C1630 C 0.08721 0.43889 0.34315 0.0
C1631 C 0.08523 0.43706 0.36635 0.0
H1632 H 0.89926 0.13716 0.58328 0.0
H1633 H 0.79977 0.11011 0.57869 0.0
H1634 H 0.79338 0.12396 0.61846 0.0
H1635 H 0.81612 0.14389 0.65459 0.0
H1636 H 0.91626 0.16622 0.6596 0.0
H1637 H 0.92235 0.15425 0.61962 0.0
C1638 C 0.87618 0.13434 0.591 0.0
C1639 C 0.85001 0.12282 0.57806 0.0
C1640 C 0.8728 0.14161 0.61393 0.0
C1641 C 0.82032 0.11878 0.58832 0.0
C1642 C 0.81662 0.12685 0.61104 0.0
C1643 C 0.83921 0.14633 0.64687 0.0
C1644 C 0.86565 0.15624 0.65994 0.0
C1645 C 0.84268 0.13836 0.624 0.0
C1646 C 0.89556 0.15863 0.64985 0.0
C1647 C 0.89906 0.15182 0.62701 0.0
H1648 H 0.41984 0.09375 0.58097 0.0
H1649 H 0.42462 0.2232 0.58857 0.0
H1650 H 0.42392 0.21583 0.62924 0.0
H1651 H 0.42068 0.1723 0.66264 0.0
H1652 H 0.42189 0.04273 0.65504 0.0
H1653 H 0.42159 0.05011 0.61435 0.0
C1654 C 0.42084 0.12024 0.59161 0.0
C1655 C 0.42198 0.15895 0.58196 0.0
C1656 C 0.42144 0.11566 0.61489 0.0
C1657 C 0.42377 0.19313 0.59575 0.0
C1658 C 0.42325 0.18892 0.61895 0.0
C1659 C 0.42095 0.14579 0.65198 0.0
C1660 C 0.42095 0.10705 0.66162 0.0
C1661 C 0.42188 0.15034 0.6287 0.0
C1662 C 0.42185 0.0728 0.64784 0.0
C1663 C 0.42161 0.07703 0.62465 0.0
H1664 H 0.1896 0.92744 0.3272 0.0
H1665 H 0.19337 0.79748 0.33364 0.0
H1666 H 0.19609 0.8036 0.37416 0.0
H1667 H 0.19465 0.84564 0.40774 0.0
H1668 H 0.18762 0.97542 0.40143 0.0
H1669 H 0.18902 0.9696 0.36085 0.0
C1670 C 0.19135 0.9005 0.33747 0.0
C1671 C 0.19127 0.8621 0.32747 0.0
C1672 C 0.19214 0.90419 0.36076 0.0
C1673 C 0.19321 0.8274 0.34098 0.0
C1674 C 0.19479 0.83086 0.36413 0.0
C1675 C 0.19372 0.87268 0.39749 0.0
C1676 C 0.19101 0.91087 0.40756 0.0
C1677 C 0.19385 0.86907 0.3742 0.0
C1678 C 0.18953 0.94562 0.39406 0.0
C1679 C 0.19037 0.94234 0.37087 0.0
H1680 H 0.58686 0.8182 0.39734 0.0
H1681 H 0.58792 0.94524 0.41379 0.0
H1682 H 0.58428 0.96289 0.37442 0.0
H1683 H 0.58314 0.94245 0.33527 0.0
H1684 H 0.57964 0.8157 0.31842 0.0
H1685 H 0.58135 0.79773 0.35795 0.0
C1686 C 0.58625 0.84968 0.39223 0.0
C1687 C 0.58793 0.88035 0.40836 0.0
C1688 C 0.58356 0.85969 0.36953 0.0
C1689 C 0.58663 0.92107 0.40164 0.0
C1690 C 0.58459 0.93123 0.37914 0.0
C1691 C 0.58248 0.91091 0.34027 0.0
C1692 C 0.58152 0.88049 0.32398 0.0
C1693 C 0.58333 0.90082 0.36295 0.0
C1694 C 0.58028 0.83973 0.33067 0.0
C1695 C 0.58148 0.8294 0.35326 0.0
H1696 H 0.89357 0.63151 0.08139 0.0
H1697 H 0.79323 0.61035 0.07686 0.0
H1698 H 0.78761 0.62383 0.11686 0.0
H1699 H 0.81173 0.64093 0.15329 0.0
H1700 H 0.91272 0.65702 0.15744 0.0
H1701 H 0.91758 0.64649 0.11735 0.0
C1702 C 0.87041 0.63002 0.08911 0.0
C1703 C 0.84382 0.62023 0.07619 0.0
C1704 C 0.86752 0.63695 0.11204 0.0
C1705 C 0.81407 0.61777 0.0865 0.0
C1706 C 0.81085 0.62558 0.10933 0.0
C1707 C 0.8347 0.64237 0.14531 0.0
C1708 C 0.86181 0.64992 0.15821 0.0
C1709 C 0.83745 0.63516 0.12228 0.0
C1710 C 0.89154 0.65113 0.14783 0.0
C1711 C 0.89435 0.64516 0.12493 0.0
H1712 H 0.41782 0.57053 0.14614 0.0
H1713 H 0.41853 0.69606 0.16537 0.0
H1714 H 0.42161 0.71656 0.12619 0.0
H1715 H 0.42249 0.69869 0.08622 0.0
H1716 H 0.41525 0.57348 0.06703 0.0
H1717 H 0.41639 0.55279 0.10622 0.0
C1718 C 0.41884 0.6023 0.14166 0.0
C1719 C 0.41819 0.63178 0.15848 0.0
C1720 C 0.41936 0.61387 0.11908 0.0
C1721 C 0.41898 0.67291 0.1526 0.0
C1722 C 0.42078 0.68462 0.13023 0.0
C1723 C 0.42138 0.66693 0.09072 0.0
C1724 C 0.41906 0.63758 0.07391 0.0
C1725 C 0.42078 0.65538 0.11331 0.0
C1726 C 0.41706 0.59653 0.0798 0.0
C1727 C 0.41773 0.5847 0.10217 0.0
H1728 H 0.19655 0.33698 0.91094 0.0
H1729 H 0.19785 0.46703 0.90452 0.0
H1730 H 0.20138 0.46099 0.86404 0.0
H1731 H 0.20015 0.41899 0.83048 0.0
H1732 H 0.19559 0.28902 0.83678 0.0
H1733 H 0.19743 0.29483 0.87733 0.0
C1734 C 0.19804 0.36397 0.90069 0.0
C1735 C 0.19683 0.40236 0.91067 0.0
C1736 C 0.19923 0.36032 0.87742 0.0
C1737 C 0.19851 0.43711 0.89719 0.0
C1738 C 0.20052 0.4337 0.87406 0.0
C1739 C 0.19992 0.39191 0.8407 0.0
C1740 C 0.19759 0.35367 0.83064 0.0
C1741 C 0.20028 0.39548 0.86398 0.0
C1742 C 0.19713 0.31886 0.84413 0.0
C1743 C 0.19821 0.32213 0.86732 0.0
H1744 H 0.59062 0.42604 0.90579 0.0
H1745 H 0.58815 0.29575 0.90257 0.0
H1746 H 0.58461 0.29869 0.86192 0.0
H1747 H 0.58475 0.33829 0.82716 0.0
H1748 H 0.59169 0.46831 0.8304 0.0
H1749 H 0.59081 0.46557 0.87111 0.0
C1750 C 0.58899 0.39835 0.89617 0.0
C1751 C 0.58957 0.36078 0.90711 0.0
C1752 C 0.5879 0.40023 0.8728 0.0
C1753 C 0.58789 0.32506 0.89447 0.0
C1754 C 0.58583 0.3267 0.87125 0.0
C1755 C 0.58574 0.36598 0.83682 0.0
C1756 C 0.5882 0.40341 0.82587 0.0
C1757 C 0.58618 0.36411 0.86022 0.0
C1758 C 0.58993 0.4391 0.83852 0.0
C1759 C 0.58939 0.43758 0.86177 0.0
H1760 H 0.14488 0.02317 0.02305 0.0
H1761 H 0.13808 1.00223 0.95245 0.0
H1762 H 0.18094 0.0505 0.94571 0.0
H1763 H 0.22793 0.08676 0.96099 0.0
H1764 H 0.23383 0.10676 0.03182 0.0
H1765 H 0.18362 0.07213 0.03735 0.0
C1766 C 0.15166 0.03083 0.00612 0.0
C1767 C 0.13801 0.00945 0.98828 0.0
C1768 C 0.17678 0.0581 0.00244 0.0
C1769 C 0.14766 0.0189 0.96645 0.0
C1770 C 0.17263 0.04606 0.96262 0.0
C1771 C 0.2174 0.08526 0.97745 0.0
C1772 C 0.23462 0.09958 -0.00402 0.0
C1773 C 0.18849 0.06429 0.9806 0.0
C1774 C 0.22096 0.09641 0.01729 0.0
C1775 C 0.19235 0.07614 0.0205 0.0
H1776 H 0.12484 0.26692 0.95916 0.0
H1777 H 0.14101 0.25877 0.02991 0.0
H1778 H 0.1021 0.20451 0.03284 0.0
H1779 H 0.05599 0.17034 0.01667 0.0
H1780 H 0.03779 0.17941 0.94623 0.0
H1781 H 0.08518 0.22127 0.94156 0.0
C1782 C 0.12087 0.25185 0.97499 0.0
C1783 C 0.13614 0.26644 -0.00572 0.0
C1784 C 0.09758 0.22126 0.97662 0.0
C1785 C 0.13002 0.24757 0.01481 0.0
C1786 C 0.10746 0.21684 0.01652 0.0
C1787 C 0.06321 0.18002 0.00014 0.0
C1788 C 0.04343 0.17165 0.98181 0.0
C1789 C 0.09 0.2049 -0.00225 0.0
C1790 C 0.05282 0.18483 0.96054 0.0
C1791 C 0.0797 0.20936 0.95795 0.0
H1792 H 0.22685 0.18142 0.27974 0.0
H1793 H 0.23263 0.16221 0.20881 0.0
H1794 H 0.1831 0.19856 0.20337 0.0
H1795 H 0.14499 0.24822 0.2178 0.0
H1796 H 0.13832 0.2687 0.28847 0.0
H1797 H 0.18057 0.21927 0.29509 0.0
C1798 C 0.21643 0.18352 0.26327 0.0
C1799 C 0.23347 0.16893 0.24469 0.0
C1800 C 0.18797 0.2056 0.26016 0.0
C1801 C 0.21994 0.17284 0.22338 0.0
C1802 C 0.19172 0.19408 0.22022 0.0
C1803 C 0.15177 0.2404 0.23472 0.0
C1804 C 0.13832 0.26189 0.25261 0.0
C1805 C 0.17644 0.21241 0.23832 0.0
C1806 C 0.14782 0.25205 0.27443 0.0
C1807 C 0.17239 0.22417 0.27818 0.0
H1808 H 0.05086 0.08437 0.21478 0.0
H1809 H 0.03712 0.08719 0.28588 0.0
H1810 H 0.08634 0.04919 0.29132 0.0
H1811 H 0.12727 1.00354 0.27506 0.0
H1812 H 0.14036 1.00188 0.20386 0.0
H1813 H 0.09837 0.05183 0.19925 0.0
C1814 C 0.0593 0.078 0.2315 0.0
C1815 C 0.0403 0.08857 0.24989 0.0
C1816 C 0.08758 0.05597 0.23446 0.0
C1817 C 0.05143 0.07984 0.27145 0.0
C1818 C 0.07946 0.05766 0.27455 0.0
C1819 C 0.12204 0.01578 0.25869 0.0
C1820 C 0.13729 0.99931 0.23983 0.0
C1821 C 0.09704 0.04399 0.2561 0.0
C1822 C 0.12945 0.01456 0.21864 0.0
C1823 C 0.10504 0.04271 0.21597 0.0
H1824 H 0.80862 0.92665 0.02376 0.0
H1825 H 0.78888 0.92006 0.95344 0.0
H1826 H 0.83693 0.95857 0.94529 0.0
H1827 H 0.87789 1.00647 0.9591 0.0
H1828 H 0.8976 0.01119 0.02949 0.0
H1829 H 0.85727 0.96019 0.03663 0.0
C1830 C 0.81559 0.9322 0.00661 0.0
C1831 C 0.79518 0.9206 0.98925 0.0
C1832 C 0.84328 0.95444 0.00207 0.0
C1833 C 0.80435 0.92825 0.9671 0.0
C1834 C 0.8317 0.95074 0.96245 0.0
C1835 C 0.87453 0.99464 0.97581 0.0
C1836 C 0.89091 0.01246 -0.00626 0.0
C1837 C 0.85055 0.9657 0.97988 0.0
C1838 C 0.88564 0.99758 0.0154 0.0
C1839 C 0.86217 0.96882 0.01954 0.0
H1840 H 0.97771 0.84136 0.96585 0.0
H1841 H 0.98412 0.8441 0.03753 0.0
H1842 H 0.93554 0.80485 0.04056 0.0
H1843 H 0.89817 0.75815 0.02296 0.0
H1844 H 0.89192 0.75218 0.95141 0.0
H1845 H 0.93272 0.80459 0.94809 0.0
C1846 C 0.9676 0.83492 0.98208 0.0
C1847 C 0.98441 0.84598 0.00148 0.0
C1848 C 0.93993 0.81093 0.98369 0.0
C1849 C 0.97148 0.83638 0.0224 0.0
C1850 C 0.94384 0.81351 0.02413 0.0
C1851 C 0.90484 0.76953 0.00664 0.0
C1852 C 0.89197 0.75131 0.98747 0.0
C1853 C 0.92881 0.7989 0.00492 0.0
C1854 C 0.90107 0.76606 0.96643 0.0
C1855 C 0.92479 0.79567 0.96455 0.0
H1856 H 0.88595 0.76451 0.71585 0.0
H1857 H 0.88643 0.74697 0.78692 0.0
H1858 H 0.84355 0.79643 0.79096 0.0
H1859 H 0.79812 0.83214 0.77306 0.0
H1860 H 0.79658 0.84471 0.70156 0.0
H1861 H 0.84766 0.81081 0.69884 0.0
C1862 C 0.87778 0.77316 0.73233 0.0
C1863 C 0.88964 0.75241 0.75107 0.0
C1864 C 0.8522 0.80023 0.73433 0.0
C1865 C 0.87827 0.76313 0.77228 0.0
C1866 C 0.85324 0.79088 0.77451 0.0
C1867 C 0.80971 0.829 0.75703 0.0
C1868 C 0.79361 0.84114 0.73751 0.0
C1869 C 0.83882 0.80792 0.75552 0.0
C1870 C 0.80855 0.83592 0.71679 0.0
C1871 C 0.83769 0.81619 0.71522 0.0
H1872 H 0.90029 1.00537 0.77063 0.0
H1873 H 0.88977 0.03285 0.70082 0.0
H1874 H 0.93084 0.9839 0.69148 0.0
H1875 H 0.97693 0.94399 0.70387 0.0
H1876 H 0.98671 0.91377 0.77341 0.0
H1877 H 0.93882 0.9522 0.78211 0.0
C1878 C 0.90584 0.99901 0.75333 0.0
C1879 C 0.89169 0.02249 0.73641 0.0
C1880 C 0.93007 0.97098 0.74805 0.0
C1881 C 0.89988 0.0147 0.7141 0.0
C1882 C 0.92377 0.98711 0.70876 0.0
C1883 C 0.96792 0.94463 0.7208 0.0
C1884 C 0.98554 0.9262 0.73795 0.0
C1885 C 0.94016 0.96665 0.72568 0.0
C1886 C 0.97354 0.92738 0.75983 0.0
C1887 C 0.94625 0.94976 0.76487 0.0
H1888 H 0.22662 0.5834 0.45828 0.0
H1889 H 0.23045 0.61036 0.52847 0.0
H1890 H 0.18067 0.57491 0.53441 0.0
H1891 H 0.14298 0.52374 0.52112 0.0
H1892 H 0.13828 0.49571 0.45117 0.0
H1893 H 0.18067 0.54429 0.44354 0.0
C1894 C 0.21569 0.58325 0.47463 0.0
C1895 C 0.23222 0.59986 0.4929 0.0
C1896 C 0.1871 0.5617 0.47806 0.0
C1897 C 0.2181 0.59832 0.51411 0.0
C1898 C 0.18975 0.57755 0.51757 0.0
C1899 C 0.15018 0.52976 0.50408 0.0
C1900 C 0.13725 0.50633 0.48674 0.0
C1901 C 0.17495 0.55731 0.4999 0.0
C1902 C 0.14733 0.51386 0.46478 0.0
C1903 C 0.172 0.54125 0.46046 0.0
H1904 H 0.12945 0.75751 0.51861 0.0
H1905 H 0.13678 0.77432 0.44767 0.0
H1906 H 0.09476 0.72445 0.44168 0.0
H1907 H 0.04854 0.68702 0.45741 0.0
H1908 H 0.0417 0.67228 0.52864 0.0
H1909 H 0.09104 0.70907 0.53373 0.0
C1910 C 0.1229 0.74874 0.5018 0.0
C1911 C 0.13654 0.76923 0.48362 0.0
C1912 C 0.09823 0.72071 0.49857 0.0
C1913 C 0.12721 0.75835 0.46194 0.0
C1914 C 0.10275 0.73025 0.45854 0.0
C1915 C 0.05866 0.6903 0.47392 0.0
C1916 C 0.04143 0.67673 0.49265 0.0
C1917 C 0.08699 0.71265 0.4768 0.0
C1918 C 0.05454 0.68215 0.51398 0.0
C1919 C 0.08267 0.70358 0.51692 0.0
H1920 H 0.22252 0.67397 0.71417 0.0
H1921 H 0.2359 0.66934 0.78529 0.0
H1922 H 0.18753 0.70899 0.79078 0.0
H1923 H 0.14824 0.75682 0.77465 0.0
H1924 H 0.13531 0.7608 0.70348 0.0
H1925 H 0.17589 0.70889 0.69865 0.0
C1926 C 0.2141 0.68023 0.7309 0.0
C1927 C 0.23281 0.66873 0.7493 0.0
C1928 C 0.18638 0.70337 0.73387 0.0
C1929 C 0.22178 0.67736 0.77088 0.0
C1930 C 0.19428 0.70053 0.77399 0.0
C1931 C 0.15315 0.74467 0.75821 0.0
C1932 C 0.13835 0.76218 0.73945 0.0
C1933 C 0.17721 0.71532 0.75555 0.0
C1934 C 0.14575 0.74716 0.71819 0.0
C1935 C 0.16938 0.7179 0.71541 0.0
H1936 H 0.12976 0.50451 0.71807 0.0
H1937 H 0.13305 0.48604 0.78903 0.0
H1938 H 0.09037 0.53549 0.79416 0.0
H1939 H 0.04526 0.57399 0.77741 0.0
H1940 H 0.04299 0.59112 0.70619 0.0
H1941 H 0.09223 0.55355 0.70225 0.0
C1942 C 0.12211 0.51274 0.73473 0.0
C1943 C 0.1349 0.492 0.75315 0.0
C1944 C 0.09721 0.54075 0.73747 0.0
C1945 C 0.12415 0.50221 0.77461 0.0
C1946 C 0.09934 0.53012 0.7775 0.0
C1947 C 0.05633 0.57101 0.76119 0.0
C1948 C 0.04038 0.58554 0.7421 0.0
C1949 C 0.08469 0.54831 0.75895 0.0
C1950 C 0.05477 0.5805 0.72114 0.0
C1951 C 0.08286 0.55862 0.71884 0.0
H1952 H 0.80286 0.42545 0.46497 0.0
H1953 H 0.79909 0.42321 0.53674 0.0
H1954 H 0.84943 0.45894 0.53874 0.0
H1955 H 0.88721 0.50407 0.5203 0.0
H1956 H 0.88958 0.51139 0.44871 0.0
H1957 H 0.84804 0.4599 0.44624 0.0
C1958 C 0.81388 0.43116 0.48099 0.0
C1959 C 0.79736 0.42139 0.50072 0.0
C1960 C 0.84245 0.45336 0.48199 0.0
C1961 C 0.81147 0.43002 0.52137 0.0
C1962 C 0.84015 0.45084 0.5225 0.0
C1963 C 0.87976 0.49279 0.50414 0.0
C1964 C 0.89172 0.51122 0.48472 0.0
C1965 C 0.85493 0.46455 0.50297 0.0
C1966 C 0.88131 0.4971 0.46389 0.0
C1967 C 0.85706 0.46816 0.46252 0.0
H1968 H 0.9761 0.34285 0.46687 0.0
H1969 H 0.98106 0.34926 0.53854 0.0
H1970 H 0.93079 0.31376 0.54165 0.0
H1971 H 0.89234 0.26806 0.52444 0.0
H1972 H 0.88775 0.25791 0.453 0.0
H1973 H 0.93005 0.30814 0.44923 0.0
C1974 C 0.96539 0.33806 0.48308 0.0
C1975 C 0.9823 0.34886 0.50248 0.0
C1976 C 0.93668 0.31618 0.48478 0.0
C1977 C 0.96846 0.34153 0.5234 0.0
C1978 C 0.93981 0.32085 0.52519 0.0
C1979 C 0.89958 0.27833 0.50802 0.0
C1980 C 0.88677 0.25941 0.48904 0.0
C1981 C 0.9246 0.30617 0.50607 0.0
C1982 C 0.89676 0.27248 0.46787 0.0
C1983 C 0.92141 0.30075 0.46575 0.0
H1984 H 0.80368 0.34303 0.26665 0.0
H1985 H 0.7957 0.34209 0.19505 0.0
H1986 H 0.84479 0.30373 0.19212 0.0
H1987 H 0.88223 0.2574 0.21015 0.0
H1988 H 0.88975 0.255 0.28169 0.0
H1989 H 0.8494 0.30809 0.28452 0.0
C1990 C 0.8136 0.33613 0.25042 0.0
C1991 C 0.79614 0.34561 0.23105 0.0
C1992 C 0.8415 0.31259 0.2489 0.0
C1993 C 0.80884 0.33551 0.21014 0.0
C1994 C 0.83676 0.31312 0.20848 0.0
C1995 C 0.8761 0.26992 0.2263 0.0
C1996 C 0.88904 0.25241 0.24567 0.0
C1997 C 0.85226 0.29956 0.22776 0.0
C1998 C 0.88054 0.2684 0.26652 0.0
C1999 C 0.85704 0.29836 0.26813 0.0
H2000 H 0.89568 0.50219 0.27412 0.0
H2001 H 0.88092 0.51067 0.20324 0.0
H2002 H 0.92207 0.46032 0.19677 0.0
H2003 H 0.97005 0.42644 0.21087 0.0
H2004 H 0.98472 0.41612 0.28169 0.0
H2005 H 0.93588 0.45386 0.28865 0.0
C2006 C 0.90025 0.49125 0.25738 0.0
C2007 C 0.88501 0.50997 0.23918 0.0
C2008 C 0.92472 0.46276 0.25374 0.0
C2009 C 0.8919 0.49628 0.21753 0.0
C2010 C 0.91588 0.46795 0.21379 0.0
C2011 C 0.96186 0.43109 0.22781 0.0
C2012 C 0.98109 0.41868 0.24572 0.0
C2013 C 0.93367 0.45281 0.23168 0.0
C2014 C 0.97025 0.42503 0.26761 0.0
C2015 C 0.94243 0.44704 0.2716 0.0
H2016 H 0.72645 0.08721 0.45938 0.0
H2017 H 0.73329 0.107 0.53019 0.0
H2018 H 0.68388 0.07074 0.53612 0.0
H2019 H 0.64575 0.02075 0.52208 0.0
H2020 H 0.63791 1.00019 0.45148 0.0
H2021 H 0.67989 0.04961 0.44446 0.0
C2022 C 0.71624 0.08531 0.47593 0.0
C2023 C 0.73352 0.10005 0.49433 0.0
C2024 C 0.68784 0.06338 0.47931 0.0
C2025 C 0.72033 0.09635 0.51576 0.0
C2026 C 0.69221 0.07513 0.5192 0.0
C2027 C 0.65216 0.02863 0.5051 0.0
C2028 C 0.63849 1.00709 0.48733 0.0
C2029 C 0.67667 0.05668 0.50125 0.0
C2030 C 0.64757 0.01692 0.46543 0.0
C2031 C 0.67199 0.04478 0.46144 0.0
H2032 H 0.54722 0.18868 0.46232 0.0
H2033 H 0.54301 0.17154 0.53346 0.0
H2034 H 0.59252 0.20826 0.53802 0.0
H2035 H 0.63043 0.25742 0.52263 0.0
H2036 H 0.63518 0.27584 0.4517 0.0
H2037 H 0.59282 0.22637 0.4461 0.0
C2038 C 0.55799 0.19129 0.47866 0.0
C2039 C 0.54147 0.17703 0.49753 0.0
C2040 C 0.5864 0.21358 0.48124 0.0
C2041 C 0.55538 0.18176 0.51867 0.0
C2042 C 0.58357 0.20325 0.52132 0.0
C2043 C 0.62324 0.24907 0.50589 0.0
C2044 C 0.63631 0.26983 0.48759 0.0
C2045 C 0.59844 0.22105 0.50287 0.0
C2046 C 0.62605 0.25961 0.46603 0.0
C2047 C 0.60144 0.23169 0.46285 0.0
H2048 H 0.64102 0.24251 0.71605 0.0
H2049 H 0.63948 0.27125 0.78598 0.0
H2050 H 0.68211 0.22253 0.79283 0.0
H2051 H 0.72742 0.18338 0.77719 0.0
H2052 H 0.72821 0.15573 0.70703 0.0
H2053 H 0.67804 0.19096 0.7021 0.0
C2054 C 0.64894 0.23657 0.73295 0.0
C2055 C 0.63686 0.26022 0.7505 0.0
C2056 C 0.67386 0.20894 0.73666 0.0
C2057 C 0.64789 0.25289 0.77225 0.0
C2058 C 0.67269 0.22541 0.7761 0.0
C2059 C 0.71575 0.18329 0.7611 0.0
C2060 C 0.73153 0.16666 0.74251 0.0
C2061 C 0.68697 0.20475 0.75824 0.0
C2062 C 0.71644 0.16784 0.72162 0.0
C2063 C 0.68788 0.1885 0.71873 0.0
H2064 H 0.63172 0.013 0.7179 0.0
H2065 H 0.63703 0.98705 0.7881 0.0
H2066 H 0.59446 0.03566 0.79539 0.0
H2067 H 0.54819 0.07406 0.7804 0.0
H2068 H 0.54343 0.09825 0.70988 0.0
H2069 H 0.59346 0.06311 0.70415 0.0
C2070 C 0.62461 0.01952 0.73491 0.0
C2071 C 0.63775 0.99667 0.75244 0.0
C2072 C 0.59965 0.04689 0.73885 0.0
C2073 C 0.62781 1.00478 0.77435 0.0
C2074 C 0.60302 0.03216 0.77847 0.0
C2075 C 0.55894 0.07328 0.76399 0.0
C2076 C 0.54214 0.08904 0.74559 0.0
C2077 C 0.58764 0.05189 0.7607 0.0
C2078 C 0.556 0.08679 0.72432 0.0
C2079 C 0.5845 0.06626 0.72099 0.0
H2080 H 0.30507 0.93237 0.52893 0.0
H2081 H 0.29006 0.9221 0.45813 0.0
H2082 H 0.33834 0.96059 0.45099 0.0
H2083 H 0.37845 0.00908 0.46532 0.0
H2084 H 0.39419 0.0167 0.53611 0.0
H2085 H 0.35309 0.96649 0.54278 0.0
C2086 C 0.31304 0.93724 0.51194 0.0
C2087 C 0.29381 0.92455 0.49411 0.0
C2088 C 0.34106 0.95926 0.50794 0.0
C2089 C 0.30446 0.93121 0.47218 0.0
C2090 C 0.332 0.95364 0.46808 0.0
C2091 C 0.37411 0.99799 0.48207 0.0
C2092 C 0.38963 0.01645 0.50019 0.0
C2093 C 0.34976 0.96941 0.48584 0.0
C2094 C 0.38301 1.00253 0.52187 0.0
C2095 C 0.35904 0.97427 0.52573 0.0
H2096 H 0.40036 0.76132 0.46008 0.0
H2097 H 0.3854 0.74543 0.53056 0.0
H2098 H 0.42592 0.79573 0.53868 0.0
H2099 H 0.4731 0.83269 0.52577 0.0
H2100 H 0.48775 0.85078 0.45543 0.0
H2101 H 0.43988 0.81201 0.44716 0.0
C2102 C 0.4048 0.77056 0.47714 0.0
C2103 C 0.38958 0.74994 0.49471 0.0
C2104 C 0.42878 0.79921 0.48172 0.0
C2105 C 0.39633 0.76137 0.51677 0.0
C2106 C 0.41991 0.78971 0.52143 0.0
C2107 C 0.46508 0.82949 0.50868 0.0
C2108 C 0.48402 0.84451 0.49125 0.0
C2109 C 0.43745 0.80718 0.50408 0.0
C2110 C 0.47346 0.83991 0.46916 0.0
C2111 C 0.44621 0.8173 0.46442 0.0
H2112 H 0.37682 0.75986 0.27834 0.0
H2113 H 0.40228 0.76124 0.20887 0.0
H2114 H 0.36106 0.81106 0.20124 0.0
H2115 H 0.30993 0.84079 0.21296 0.0
H2116 H 0.2855 0.84203 0.28265 0.0
H2117 H 0.33407 0.80525 0.29167 0.0
C2118 C 0.37464 0.77301 0.26183 0.0
C2119 C 0.39285 0.75704 0.24423 0.0
C2120 C 0.35023 0.80119 0.25747 0.0
C2121 C 0.38906 0.77358 0.22278 0.0
C2122 C 0.36496 0.8015 0.21832 0.0
C2123 C 0.31595 0.83448 0.2302 0.0
C2124 C 0.29409 0.84397 0.2471 0.0
C2125 C 0.34417 0.81356 0.23529 0.0
C2126 C 0.30206 0.83539 0.26937 0.0
C2127 C 0.32974 0.81397 0.27451 0.0
H2128 H 0.47626 0.9239 0.2705 0.0
H2129 H 0.47904 0.92327 0.1987 0.0
H2130 H 0.42993 0.9619 0.19725 0.0
H2131 H 0.39364 0.0085 0.21625 0.0
H2132 H 0.39138 0.01245 0.28792 0.0
H2133 H 0.43206 0.9596 0.28972 0.0
C2134 C 0.46521 0.93055 0.25459 0.0
C2135 C 0.48117 0.9204 0.2347 0.0
C2136 C 0.43729 0.95422 0.2539 0.0
C2137 C 0.46705 0.93028 0.2142 0.0
C2138 C 0.43911 0.95283 0.21337 0.0
C2139 C 0.40098 0.99633 0.23225 0.0
C2140 C 0.38927 0.01407 0.25192 0.0
C2141 C 0.425 0.9668 0.23307 0.0
C2142 C 0.39951 0.99873 0.27256 0.0
C2143 C 0.42319 0.96892 0.27355 0.0
H2144 H 0.65152 0.50262 0.9566 0.0
H2145 H 0.63291 0.51327 0.02694 0.0
H2146 H 0.67414 0.56444 0.03035 0.0
H2147 H 0.72282 0.59419 0.015 0.0
H2148 H 0.74263 0.58368 0.94486 0.0
H2149 H 0.69366 0.54525 0.93953 0.0
C2150 C 0.65537 0.51779 0.9724 0.0
C2151 C 0.63877 0.50449 0.99146 0.0
C2152 C 0.68002 0.54656 0.97436 0.0
C2153 C 0.64485 0.52348 0.01197 0.0
C2154 C 0.66883 0.55235 0.01399 0.0
C2155 C 0.71568 0.58501 -0.00161 0.0
C2156 C 0.73629 0.59198 0.98033 0.0
C2157 C 0.68767 0.56246 -0.00445 0.0
C2158 C 0.72698 0.57932 0.95896 0.0
C2159 C 0.69912 0.55683 0.95598 0.0
H2160 H 0.55023 0.68362 0.02177 0.0
H2161 H 0.5379 0.67552 0.95066 0.0
H2162 H 0.5869 0.71364 0.94485 0.0
H2163 H 0.62736 0.76055 0.96047 0.0
H2164 H 0.6393 0.76712 0.03167 0.0
H2165 H 0.59728 0.71757 0.037 0.0
C2166 C 0.5589 0.68893 0.005 0.0
C2167 C 0.54037 0.67681 0.98668 0.0
C2168 C 0.58711 0.71093 0.00182 0.0
C2169 C 0.55184 0.68412 0.96505 0.0
C2170 C 0.57975 0.70634 0.96173 0.0
C2171 C 0.62187 0.74946 0.97704 0.0
C2172 C 0.63683 0.76715 -0.00434 0.0
C2173 C 0.59691 0.72141 0.98002 0.0
C2174 C 0.62865 0.75343 0.01709 0.0
C2175 C 0.60421 0.72552 0.02016 0.0
H2176 H 0.64711 0.75739 0.2715 0.0
H2177 H 0.63593 0.7607 0.20017 0.0
H2178 H 0.6775 0.71001 0.19589 0.0
H2179 H 0.72422 0.6764 0.21194 0.0
H2180 H 0.73623 0.67249 0.28319 0.0
H2181 H 0.6871 0.71088 0.28813 0.0
C2182 C 0.65266 0.74535 0.25515 0.0
C2183 C 0.63805 0.76237 0.23617 0.0
C2184 C 0.67738 0.71676 0.25279 0.0
C2185 C 0.64629 0.74748 0.21502 0.0
C2186 C 0.67046 0.71892 0.21256 0.0
C2187 C 0.71539 0.68258 0.22857 0.0
C2188 C 0.7339 0.67164 0.24717 0.0
C2189 C 0.68726 0.70498 0.23123 0.0
C2190 C 0.7223 0.68012 0.26862 0.0
C2191 C 0.69434 0.70255 0.27142 0.0
H2192 H 0.62562 0.50609 0.2108 0.0
H2193 H 0.63666 0.49351 0.28176 0.0
H2194 H 0.59435 0.54303 0.28797 0.0
H2195 H 0.54724 0.57955 0.2728 0.0
H2196 H 0.53699 0.59059 0.20156 0.0
H2197 H 0.58605 0.5534 0.19587 0.0
C2198 C 0.61976 0.51569 0.2276 0.0
C2199 C 0.63461 0.4966 0.24578 0.0
C2200 C 0.59499 0.54364 0.23099 0.0
C2201 C 0.62613 0.50845 0.26748 0.0
C2202 C 0.60154 0.53638 0.27102 0.0
C2203 C 0.55653 0.57533 0.25612 0.0
C2204 C 0.53838 0.58794 0.23762 0.0
C2205 C 0.58477 0.55284 0.25289 0.0
C2206 C 0.55049 0.58137 0.21607 0.0
C2207 C 0.57847 0.55973 0.21278 0.0
H2208 H 0.37725 0.50125 0.95938 0.0
H2209 H 0.39838 0.51352 0.02924 0.0
H2210 H 0.35748 0.46429 0.03846 0.0
H2211 H 0.30789 0.43056 0.02703 0.0
H2212 H 0.28783 0.41553 0.95714 0.0
H2213 H 0.3361 0.45225 0.94749 0.0
C2214 C 0.37417 0.49126 0.97647 0.0
C2215 C 0.39113 0.51076 -0.00642 0.0
C2216 C 0.35002 0.46327 0.9817 0.0
C2217 C 0.38616 0.49837 0.01574 0.0
C2218 C 0.36227 0.47074 0.02106 0.0
C2219 C 0.31481 0.43389 0.00971 0.0
C2220 C 0.29421 0.42051 -0.00716 0.0
C2221 C 0.34284 0.45485 0.00428 0.0
C2222 C 0.30339 0.42521 0.97045 0.0
C2223 C 0.33089 0.44662 0.96492 0.0
H2224 H 0.47196 0.34245 0.02457 0.0
H2225 H 0.4891 0.34355 0.95383 0.0
H2226 H 0.43992 0.30626 0.94746 0.0
H2227 H 0.39848 0.26093 0.96309 0.0
H2228 H 0.38152 0.26148 0.03389 0.0
H2229 H 0.42312 0.31155 0.03911 0.0
C2230 C 0.46422 0.33597 0.00771 0.0
C2231 C 0.48418 0.34569 0.98971 0.0
C2232 C 0.43588 0.31447 0.0042 0.0
C2233 C 0.47401 0.33681 0.96794 0.0
C2234 C 0.446 0.31505 0.96432 0.0
C2235 C 0.40271 0.27377 0.97946 0.0
C2236 C 0.3867 0.25763 -0.00192 0.0
C2237 C 0.42748 0.30203 0.98243 0.0
C2238 C 0.39314 0.27379 0.01927 0.0
C2239 C 0.41736 0.30198 0.02232 0.0
H2240 H 0.38094 0.25798 0.77768 0.0
H2241 H 0.4007 0.25215 0.70734 0.0
H2242 H 0.3601 0.30284 0.69994 0.0
H2243 H 0.31096 0.33587 0.71269 0.0
H2244 H 0.29164 0.34392 0.78304 0.0
H2245 H 0.34 0.30607 0.79128 0.0
C2246 C 0.37762 0.26961 0.76092 0.0
C2247 C 0.39404 0.25144 0.74309 0.0
C2248 C 0.3535 0.29834 0.75671 0.0
C2249 C 0.38878 0.26608 0.72138 0.0
C2250 C 0.3651 0.29459 0.71708 0.0
C2251 C 0.31806 0.33079 0.72985 0.0
C2252 C 0.29764 0.34253 0.74721 0.0
C2253 C 0.34604 0.30905 0.73447 0.0
C2254 C 0.30706 0.33555 0.76937 0.0
C2255 C 0.33461 0.31347 0.77409 0.0
H2256 H 0.47398 0.42116 0.76961 0.0
H2257 H 0.47949 0.4132 0.698 0.0
H2258 H 0.42952 0.44939 0.69444 0.0
H2259 H 0.39147 0.49632 0.71123 0.0
H2260 H 0.38606 0.50738 0.7826 0.0
H2261 H 0.42795 0.4566 0.78684 0.0
C2262 C 0.46343 0.42574 0.75332 0.0
C2263 C 0.48045 0.41445 0.73406 0.0
C2264 C 0.4349 0.44796 0.75136 0.0
C2265 C 0.46681 0.4214 0.71304 0.0
C2266 C 0.43834 0.44249 0.71099 0.0
C2267 C 0.39845 0.48616 0.72773 0.0
C2268 C 0.3856 0.50549 0.74656 0.0
C2269 C 0.42313 0.45783 0.72995 0.0
C2270 C 0.39518 0.49252 0.76784 0.0
C2271 C 0.41956 0.4639 0.77024 0.0
loop_
_geom_bond_atom_site_label_1
_geom_bond_atom_site_label_2
_geom_bond_distance
_geom_bond_site_symmetry_2
_ccdc_geom_bond_type
O0 Zn1 1.932 1_565 S
O0 C16 1.234 1_556 S
Zn1 O0 1.932 1_545 S
Zn1 O2 1.930 1_556 S
Zn1 O8 1.919 . S
Zn1 O13 1.924 . S
O2 Zn1 1.930 1_554 S
O2 Zn3 1.909 1_554 S
O2 Zn4 1.970 . S
O2 Zn5 1.957 . S
Zn3 O2 1.909 1_556 S
Zn3 O6 1.933 . S
Zn3 O9 1.941 . S
Zn3 O10 1.965 . S
Zn4 O2 1.970 . S
Zn4 O11 1.938 . S
Zn4 O12 1.906 . S
Zn4 O22 1.953 . S
Zn5 O2 1.957 . S
Zn5 O7 1.932 . S
Zn5 O14 1.977 . S
Zn5 O15 1.910 . S
O6 Zn3 1.933 . S
O6 C17 1.226 . S
O7 Zn5 1.932 . S
O7 C17 1.307 1_554 S
O8 Zn1 1.919 . S
O8 C19 1.253 . S
O9 Zn3 1.941 . S
O9 C19 1.283 . S
O10 Zn3 1.965 . S
O10 C18 1.303 1_556 S
O11 Zn4 1.938 . S
O11 C18 1.247 . S
O12 Zn4 1.906 . S
O12 C20 1.304 . S
O13 Zn1 1.924 . S
O13 C21 1.287 1_556 S
O14 Zn5 1.977 . S
O14 C20 1.272 . S
O15 Zn5 1.910 . S
O15 C21 1.250 . S
C16 O0 1.234 1_554 S
C16 O22 1.298 1_565 S
C17 O6 1.226 . S
C17 O7 1.307 1_556 S
C18 O10 1.303 1_554 S
C18 O11 1.247 . S
C19 O8 1.253 . S
C19 O9 1.283 . S
C20 O12 1.304 . S
C20 O14 1.272 . S
C21 O13 1.287 1_554 S
C21 O15 1.250 . S
O22 Zn4 1.953 . S
O22 C16 1.298 1_545 S
O23 Zn24 1.953 . S
O23 C39 1.225 1_556 S
Zn24 O23 1.953 . S
Zn24 O25 1.930 1_556 S
Zn24 O31 1.919 . S
Zn24 O36 1.924 . S
O25 Zn24 1.930 1_554 S
O25 Zn26 1.909 1_554 S
O25 Zn27 1.970 . S
O25 Zn28 1.957 . S
Zn26 O25 1.909 1_556 S
Zn26 O29 1.933 . S
Zn26 O32 1.941 . S
Zn26 O33 1.965 . S
Zn27 O25 1.970 . S
Zn27 O34 1.938 . S
Zn27 O35 1.906 . S
Zn27 O45 1.953 . S
Zn28 O25 1.957 . S
Zn28 O30 1.932 . S
Zn28 O37 1.977 . S
Zn28 O38 1.910 . S
O29 Zn26 1.933 . S
O29 C40 1.226 . S
O30 Zn28 1.932 . S
O30 C40 1.307 1_554 S
O31 Zn24 1.919 . S
O31 C42 1.253 . S
O32 Zn26 1.941 . S
O32 C42 1.283 . S
O33 Zn26 1.965 . S
O33 C41 1.303 1_556 S
O34 Zn27 1.938 . S
O34 C41 1.247 . S
O35 Zn27 1.906 . S
O35 C43 1.304 . S
O36 Zn24 1.924 . S
O36 C44 1.287 1_556 S
O37 Zn28 1.977 . S
O37 C43 1.272 . S
O38 Zn28 1.910 . S
O38 C44 1.250 . S
C39 O23 1.225 1_554 S
C39 O45 1.298 . S
C40 O29 1.226 . S
C40 O30 1.307 1_556 S
C41 O33 1.303 1_554 S
C41 O34 1.247 . S
C42 O31 1.253 . S
C42 O32 1.283 . S
C43 O35 1.304 . S
C43 O37 1.272 . S
C44 O36 1.287 1_554 S
C44 O38 1.250 . S
O45 Zn27 1.953 . S
O45 C39 1.298 . S
O46 Zn47 1.953 . S
O46 C62 1.225 . S
Zn47 O46 1.953 . S
Zn47 O48 1.949 . S
Zn47 O54 1.919 . S
Zn47 O59 1.924 . S
O48 Zn47 1.949 . S
O48 Zn49 1.923 . S
O48 Zn50 1.950 . S
O48 Zn51 1.945 . S
Zn49 O48 1.923 . S
Zn49 O52 1.933 . S
Zn49 O55 1.941 . S
Zn49 O56 1.965 . S
Zn50 O48 1.950 . S
Zn50 O57 1.938 . S
Zn50 O58 1.906 . S
Zn50 O68 1.953 . S
Zn51 O48 1.945 . S
Zn51 O53 1.932 . S
Zn51 O60 1.977 . S
Zn51 O61 1.910 . S
O52 Zn49 1.933 . S
O52 C63 1.226 . S
O53 Zn51 1.932 . S
O53 C63 1.307 . S
O54 Zn47 1.919 . S
O54 C65 1.253 . S
O55 Zn49 1.941 . S
O55 C65 1.283 . S
O56 Zn49 1.965 . S
O56 C64 1.303 . S
O57 Zn50 1.938 . S
O57 C64 1.247 . S
O58 Zn50 1.906 . S
O58 C66 1.304 . S
O59 Zn47 1.924 . S
O59 C67 1.311 . S
O60 Zn51 1.977 . S
O60 C66 1.272 . S
O61 Zn51 1.910 . S
O61 C67 1.231 . S
C62 O46 1.225 . S
C62 O68 1.298 . S
C63 O52 1.226 . S
C63 O53 1.307 . S
C64 O56 1.303 . S
C64 O57 1.247 . S
C65 O54 1.253 . S
C65 O55 1.283 . S
C66 O58 1.304 . S
C66 O60 1.272 . S
C67 O59 1.311 . S
C67 O61 1.231 . S
O68 Zn50 1.953 . S
O68 C62 1.298 . S
O69 Zn70 1.936 1_565 S
O69 C85 1.233 . S
Zn70 O69 1.936 1_545 S
Zn70 O71 1.949 . S
Zn70 O77 1.919 . S
Zn70 O82 1.924 . S
O71 Zn70 1.949 . S
O71 Zn72 1.923 . S
O71 Zn73 1.950 . S
O71 Zn74 1.945 . S
Zn72 O71 1.923 . S
Zn72 O75 1.933 . S
Zn72 O78 1.941 . S
Zn72 O79 1.965 . S
Zn73 O71 1.950 . S
Zn73 O80 1.938 . S
Zn73 O81 1.906 . S
Zn73 O91 1.953 . S
Zn74 O71 1.945 . S
Zn74 O76 1.932 . S
Zn74 O83 1.977 . S
Zn74 O84 1.910 . S
O75 Zn72 1.933 . S
O75 C86 1.226 . S
O76 Zn74 1.932 . S
O76 C86 1.307 . S
O77 Zn70 1.919 . S
O77 C88 1.253 . S
O78 Zn72 1.941 . S
O78 C88 1.283 . S
O79 Zn72 1.965 . S
O79 C87 1.303 . S
O80 Zn73 1.938 . S
O80 C87 1.247 . S
O81 Zn73 1.906 . S
O81 C89 1.304 . S
O82 Zn70 1.924 . S
O82 C90 1.311 . S
O83 Zn74 1.977 . S
O83 C89 1.272 . S
O84 Zn74 1.910 . S
O84 C90 1.231 . S
C85 O69 1.233 . S
C85 O91 1.298 1_565 S
C86 O75 1.226 . S
C86 O76 1.307 . S
C87 O79 1.303 . S
C87 O80 1.247 . S
C88 O77 1.253 . S
C88 O78 1.283 . S
C89 O81 1.304 . S
C89 O83 1.272 . S
C90 O82 1.311 . S
C90 O84 1.231 . S
O91 Zn73 1.953 . S
O91 C85 1.298 1_545 S
O92 Zn93 1.953 . S
O92 C108 1.225 1_565 S
Zn93 O92 1.953 . S
Zn93 O94 1.936 1_556 S
Zn93 O100 1.919 . S
Zn93 O105 1.924 . S
O94 Zn93 1.936 1_554 S
O94 Zn95 1.916 1_554 S
O94 Zn96 1.962 . S
O94 Zn97 1.952 . S
Zn95 O94 1.916 1_556 S
Zn95 O98 1.933 . S
Zn95 O101 1.941 . S
Zn95 O102 1.965 . S
Zn96 O94 1.962 . S
Zn96 O103 1.938 . S
Zn96 O104 1.906 . S
Zn96 O114 1.953 . S
Zn97 O94 1.952 . S
Zn97 O99 1.932 . S
Zn97 O106 1.977 . S
Zn97 O107 1.910 . S
O98 Zn95 1.933 . S
O98 C109 1.226 1_556 S
O99 Zn97 1.932 . S
O99 C109 1.307 . S
O100 Zn93 1.919 . S
O100 C111 1.253 . S
O101 Zn95 1.941 . S
O101 C111 1.283 . S
O102 Zn95 1.965 . S
O102 C110 1.303 1_556 S
O103 Zn96 1.938 . S
O103 C110 1.247 . S
O104 Zn96 1.906 . S
O104 C112 1.304 . S
O105 Zn93 1.924 . S
O105 C113 1.311 . S
O106 Zn97 1.977 . S
O106 C112 1.272 . S
O107 Zn97 1.910 . S
O107 C113 1.231 1_554 S
C108 O92 1.225 1_545 S
C108 O114 1.298 1_546 S
C109 O98 1.226 1_554 S
C109 O99 1.307 . S
C110 O102 1.303 1_554 S
C110 O103 1.247 . S
C111 O100 1.253 . S
C111 O101 1.283 . S
C112 O104 1.304 . S
C112 O106 1.272 . S
C113 O105 1.311 . S
C113 O107 1.231 1_556 S
O114 Zn96 1.953 . S
O114 C108 1.298 1_564 S
O115 Zn116 1.953 . S
O115 C131 1.225 . S
Zn116 O115 1.953 . S
Zn116 O117 1.936 1_556 S
Zn116 O123 1.919 . S
Zn116 O128 1.924 . S
O117 Zn116 1.936 1_554 S
O117 Zn118 1.916 1_554 S
O117 Zn119 1.962 . S
O117 Zn120 1.952 . S
Zn118 O117 1.916 1_556 S
Zn118 O121 1.933 . S
Zn118 O124 1.941 . S
Zn118 O125 1.965 . S
Zn119 O117 1.962 . S
Zn119 O126 1.938 . S
Zn119 O127 1.906 . S
Zn119 O137 1.953 . S
Zn120 O117 1.952 . S
Zn120 O122 1.932 . S
Zn120 O129 1.977 . S
Zn120 O130 1.910 . S
O121 Zn118 1.933 . S
O121 C132 1.226 1_556 S
O122 Zn120 1.932 . S
O122 C132 1.307 . S
O123 Zn116 1.919 . S
O123 C134 1.253 . S
O124 Zn118 1.941 . S
O124 C134 1.283 . S
O125 Zn118 1.965 . S
O125 C133 1.303 1_556 S
O126 Zn119 1.938 . S
O126 C133 1.247 . S
O127 Zn119 1.906 . S
O127 C135 1.304 . S
O128 Zn116 1.924 . S
O128 C136 1.311 . S
O129 Zn120 1.977 . S
O129 C135 1.272 . S
O130 Zn120 1.910 . S
O130 C136 1.231 1_554 S
C131 O115 1.225 . S
C131 O137 1.298 1_556 S
C132 O121 1.226 1_554 S
C132 O122 1.307 . S
C133 O125 1.303 1_554 S
C133 O126 1.247 . S
C134 O123 1.253 . S
C134 O124 1.283 . S
C135 O127 1.304 . S
C135 O129 1.272 . S
C136 O128 1.311 . S
C136 O130 1.231 1_556 S
O137 Zn119 1.953 . S
O137 C131 1.298 1_554 S
O138 Zn139 1.953 . S
O138 C154 1.225 . S
Zn139 O138 1.953 . S
Zn139 O140 1.949 . S
Zn139 O146 1.919 . S
Zn139 O151 1.924 . S
O140 Zn139 1.949 . S
O140 Zn141 1.923 . S
O140 Zn142 1.950 . S
O140 Zn143 1.945 . S
Zn141 O140 1.923 . S
Zn141 O144 1.933 . S
Zn141 O147 1.941 . S
Zn141 O148 1.965 . S
Zn142 O140 1.950 . S
Zn142 O149 1.938 . S
Zn142 O150 1.906 . S
Zn142 O160 1.953 . S
Zn143 O140 1.945 . S
Zn143 O145 1.932 . S
Zn143 O152 1.977 . S
Zn143 O153 1.910 . S
O144 Zn141 1.933 . S
O144 C155 1.226 . S
O145 Zn143 1.932 . S
O145 C155 1.307 . S
O146 Zn139 1.919 . S
O146 C157 1.253 . S
O147 Zn141 1.941 . S
O147 C157 1.283 . S
O148 Zn141 1.965 . S
O148 C156 1.303 . S
O149 Zn142 1.938 . S
O149 C156 1.247 . S
O150 Zn142 1.906 . S
O150 C158 1.304 . S
O151 Zn139 1.924 . S
O151 C159 1.311 . S
O152 Zn143 1.977 . S
O152 C158 1.272 . S
O153 Zn143 1.910 . S
O153 C159 1.231 . S
C154 O138 1.225 . S
C154 O160 1.298 . S
C155 O144 1.226 . S
C155 O145 1.307 . S
C156 O148 1.303 . S
C156 O149 1.247 . S
C157 O146 1.253 . S
C157 O147 1.283 . S
C158 O150 1.304 . S
C158 O152 1.272 . S
C159 O151 1.311 . S
C159 O153 1.231 . S
O160 Zn142 1.953 . S
O160 C154 1.298 . S
O161 Zn162 1.953 . S
O161 C177 1.225 1_565 S
Zn162 O161 1.953 . S
Zn162 O163 1.949 . S
Zn162 O169 1.919 . S
Zn162 O174 1.924 . S
O163 Zn162 1.949 . S
O163 Zn164 1.923 . S
O163 Zn165 1.950 . S
O163 Zn166 1.945 . S
Zn164 O163 1.923 . S
Zn164 O167 1.933 . S
Zn164 O170 1.941 . S
Zn164 O171 1.965 . S
Zn165 O163 1.950 . S
Zn165 O172 1.938 . S
Zn165 O173 1.906 . S
Zn165 O183 1.953 . S
Zn166 O163 1.945 . S
Zn166 O168 1.932 . S
Zn166 O175 1.977 . S
Zn166 O176 1.910 . S
O167 Zn164 1.933 . S
O167 C178 1.226 . S
O168 Zn166 1.932 . S
O168 C178 1.307 . S
O169 Zn162 1.919 . S
O169 C180 1.253 . S
O170 Zn164 1.941 . S
O170 C180 1.283 . S
O171 Zn164 1.965 . S
O171 C179 1.303 . S
O172 Zn165 1.938 . S
O172 C179 1.247 . S
O173 Zn165 1.906 . S
O173 C181 1.304 . S
O174 Zn162 1.924 . S
O174 C182 1.311 . S
O175 Zn166 1.977 . S
O175 C181 1.272 . S
O176 Zn166 1.910 . S
O176 C182 1.231 . S
C177 O161 1.225 1_545 S
C177 O183 1.298 1_545 S
C178 O167 1.226 . S
C178 O168 1.307 . S
C179 O171 1.303 . S
C179 O172 1.247 . S
C180 O169 1.253 . S
C180 O170 1.283 . S
C181 O173 1.304 . S
C181 O175 1.272 . S
C182 O174 1.311 . S
C182 O176 1.231 . S
O183 Zn165 1.953 . S
O183 C177 1.298 1_565 S
O184 Zn185 1.953 . S
O184 C200 1.225 . S
Zn185 O184 1.953 . S
Zn185 O186 1.949 . S
Zn185 O192 1.919 . S
Zn185 O197 1.924 . S
O186 Zn185 1.949 . S
O186 Zn187 1.923 . S
O186 Zn188 1.950 . S
O186 Zn189 1.945 . S
Zn187 O186 1.923 . S
Zn187 O190 1.933 . S
Zn187 O193 1.941 . S
Zn187 O194 1.965 . S
Zn188 O186 1.950 . S
Zn188 O195 1.938 . S
Zn188 O196 1.906 . S
Zn188 O206 1.953 . S
Zn189 O186 1.945 . S
Zn189 O191 1.932 . S
Zn189 O198 1.977 . S
Zn189 O199 1.910 . S
O190 Zn187 1.933 . S
O190 C201 1.226 . S
O191 Zn189 1.932 . S
O191 C201 1.307 . S
O192 Zn185 1.919 . S
O192 C203 1.253 . S
O193 Zn187 1.941 . S
O193 C203 1.283 . S
O194 Zn187 1.965 . S
O194 C202 1.303 . S
O195 Zn188 1.938 . S
O195 C202 1.247 . S
O196 Zn188 1.906 . S
O196 C204 1.304 . S
O197 Zn185 1.924 . S
O197 C205 1.311 . S
O198 Zn189 1.977 . S
O198 C204 1.272 . S
O199 Zn189 1.910 . S
O199 C205 1.231 . S
C200 O184 1.225 . S
C200 O206 1.298 . S
C201 O190 1.226 . S
C201 O191 1.307 . S
C202 O194 1.303 . S
C202 O195 1.247 . S
C203 O192 1.253 . S
C203 O193 1.283 . S
C204 O196 1.304 . S
C204 O198 1.272 . S
C205 O197 1.311 . S
C205 O199 1.231 . S
O206 Zn188 1.953 . S
O206 C200 1.298 . S
O207 Zn208 1.953 . S
O207 C223 1.225 . S
Zn208 O207 1.953 . S
Zn208 O209 1.949 . S
Zn208 O215 1.919 . S
Zn208 O220 1.924 . S
O209 Zn208 1.949 . S
O209 Zn210 1.923 . S
O209 Zn211 1.950 . S
O209 Zn212 1.945 . S
Zn210 O209 1.923 . S
Zn210 O213 1.933 . S
Zn210 O216 1.941 . S
Zn210 O217 1.965 . S
Zn211 O209 1.950 . S
Zn211 O218 1.938 . S
Zn211 O219 1.906 . S
Zn211 O229 1.953 . S
Zn212 O209 1.945 . S
Zn212 O214 1.932 . S
Zn212 O221 1.977 . S
Zn212 O222 1.910 . S
O213 Zn210 1.933 . S
O213 C224 1.226 . S
O214 Zn212 1.932 . S
O214 C224 1.307 . S
O215 Zn208 1.919 . S
O215 C226 1.253 . S
O216 Zn210 1.941 . S
O216 C226 1.283 . S
O217 Zn210 1.965 . S
O217 C225 1.303 . S
O218 Zn211 1.938 . S
O218 C225 1.247 . S
O219 Zn211 1.906 . S
O219 C227 1.304 . S
O220 Zn208 1.924 . S
O220 C228 1.311 . S
O221 Zn212 1.977 . S
O221 C227 1.272 . S
O222 Zn212 1.910 . S
O222 C228 1.231 . S
C223 O207 1.225 . S
C223 O229 1.298 . S
C224 O213 1.226 . S
C224 O214 1.307 . S
C225 O217 1.303 . S
C225 O218 1.247 . S
C226 O215 1.253 . S
C226 O216 1.283 . S
C227 O219 1.304 . S
C227 O221 1.272 . S
C228 O220 1.311 . S
C228 O222 1.231 . S
O229 Zn211 1.953 . S
O229 C223 1.298 . S
O230 Zn231 1.953 . S
O230 C246 1.225 . S
Zn231 O230 1.953 . S
Zn231 O232 1.949 . S
Zn231 O238 1.919 . S
Zn231 O243 1.924 . S
O232 Zn231 1.949 . S
O232 Zn233 1.923 . S
O232 Zn234 1.950 . S
O232 Zn235 1.945 . S
Zn233 O232 1.923 . S
Zn233 O236 1.933 . S
Zn233 O239 1.941 . S
Zn233 O240 1.965 . S
Zn234 O232 1.950 . S
Zn234 O241 1.938 . S
Zn234 O242 1.906 . S
Zn234 O252 1.953 . S
Zn235 O232 1.945 . S
Zn235 O237 1.932 . S
Zn235 O244 1.977 . S
Zn235 O245 1.910 . S
O236 Zn233 1.933 . S
O236 C247 1.226 . S
O237 Zn235 1.932 . S
O237 C247 1.307 . S
O238 Zn231 1.919 . S
O238 C249 1.253 . S
O239 Zn233 1.941 . S
O239 C249 1.283 . S
O240 Zn233 1.965 . S
O240 C248 1.303 . S
O241 Zn234 1.938 . S
O241 C248 1.247 . S
O242 Zn234 1.906 . S
O242 C250 1.304 . S
O243 Zn231 1.924 . S
O243 C251 1.311 . S
O244 Zn235 1.977 . S
O244 C250 1.272 . S
O245 Zn235 1.910 . S
O245 C251 1.231 . S
C246 O230 1.225 . S
C246 O252 1.298 . S
C247 O236 1.226 . S
C247 O237 1.307 . S
C248 O240 1.303 . S
C248 O241 1.247 . S
C249 O238 1.253 . S
C249 O239 1.283 . S
C250 O242 1.304 . S
C250 O244 1.272 . S
C251 O243 1.311 . S
C251 O245 1.231 . S
O252 Zn234 1.953 . S
O252 C246 1.298 . S
O253 Zn254 1.953 . S
O253 C269 1.225 . S
Zn254 O253 1.953 . S
Zn254 O255 1.949 . S
Zn254 O261 1.919 . S
Zn254 O266 1.924 . S
O255 Zn254 1.949 . S
O255 Zn256 1.923 . S
O255 Zn257 1.950 . S
O255 Zn258 1.945 . S
Zn256 O255 1.923 . S
Zn256 O259 1.933 . S
Zn256 O262 1.941 . S
Zn256 O263 1.965 . S
Zn257 O255 1.950 . S
Zn257 O264 1.938 . S
Zn257 O265 1.906 . S
Zn257 O275 1.953 . S
Zn258 O255 1.945 . S
Zn258 O260 1.932 . S
Zn258 O267 1.977 . S
Zn258 O268 1.910 . S
O259 Zn256 1.933 . S
O259 C270 1.226 . S
O260 Zn258 1.932 . S
O260 C270 1.307 . S
O261 Zn254 1.919 . S
O261 C272 1.253 . S
O262 Zn256 1.941 . S
O262 C272 1.283 . S
O263 Zn256 1.965 . S
O263 C271 1.303 . S
O264 Zn257 1.938 . S
O264 C271 1.247 . S
O265 Zn257 1.906 . S
O265 C273 1.304 . S
O266 Zn254 1.924 . S
O266 C274 1.311 . S
O267 Zn258 1.977 . S
O267 C273 1.272 . S
O268 Zn258 1.910 . S
O268 C274 1.231 . S
C269 O253 1.225 . S
C269 O275 1.298 . S
C270 O259 1.226 . S
C270 O260 1.307 . S
C271 O263 1.303 . S
C271 O264 1.247 . S
C272 O261 1.253 . S
C272 O262 1.283 . S
C273 O265 1.304 . S
C273 O267 1.272 . S
C274 O266 1.311 . S
C274 O268 1.231 . S
O275 Zn257 1.953 . S
O275 C269 1.298 . S
O276 Zn277 1.953 . S
O276 C292 1.225 . S
Zn277 O276 1.953 . S
Zn277 O278 1.949 . S
Zn277 O284 1.919 . S
Zn277 O289 1.924 . S
O278 Zn277 1.949 . S
O278 Zn279 1.923 . S
O278 Zn280 1.950 . S
O278 Zn281 1.945 . S
Zn279 O278 1.923 . S
Zn279 O282 1.933 . S
Zn279 O285 1.941 . S
Zn279 O286 1.965 . S
Zn280 O278 1.950 . S
Zn280 O287 1.938 . S
Zn280 O288 1.906 . S
Zn280 O298 1.953 . S
Zn281 O278 1.945 . S
Zn281 O283 1.932 . S
Zn281 O290 1.977 . S
Zn281 O291 1.910 . S
O282 Zn279 1.933 . S
O282 C293 1.226 . S
O283 Zn281 1.932 . S
O283 C293 1.307 . S
O284 Zn277 1.919 . S
O284 C295 1.253 . S
O285 Zn279 1.941 . S
O285 C295 1.283 . S
O286 Zn279 1.965 . S
O286 C294 1.303 . S
O287 Zn280 1.938 . S
O287 C294 1.247 . S
O288 Zn280 1.906 . S
O288 C296 1.304 . S
O289 Zn277 1.924 . S
O289 C297 1.311 . S
O290 Zn281 1.977 . S
O290 C296 1.272 . S
O291 Zn281 1.910 . S
O291 C297 1.231 . S
C292 O276 1.225 . S
C292 O298 1.298 . S
C293 O282 1.226 . S
C293 O283 1.307 . S
C294 O286 1.303 . S
C294 O287 1.247 . S
C295 O284 1.253 . S
C295 O285 1.283 . S
C296 O288 1.304 . S
C296 O290 1.272 . S
C297 O289 1.311 . S
C297 O291 1.231 . S
O298 Zn280 1.953 . S
O298 C292 1.298 . S
O299 Zn300 1.953 . S
O299 C315 1.225 . S
Zn300 O299 1.953 . S
Zn300 O301 1.949 . S
Zn300 O307 1.919 . S
Zn300 O312 1.924 . S
O301 Zn300 1.949 . S
O301 Zn302 1.923 . S
O301 Zn303 1.950 . S
O301 Zn304 1.945 . S
Zn302 O301 1.923 . S
Zn302 O305 1.933 . S
Zn302 O308 1.941 . S
Zn302 O309 1.965 . S
Zn303 O301 1.950 . S
Zn303 O310 1.938 . S
Zn303 O311 1.906 . S
Zn303 O321 1.953 . S
Zn304 O301 1.945 . S
Zn304 O306 1.932 . S
Zn304 O313 1.977 . S
Zn304 O314 1.910 . S
O305 Zn302 1.933 . S
O305 C316 1.226 . S
O306 Zn304 1.932 . S
O306 C316 1.307 . S
O307 Zn300 1.919 . S
O307 C318 1.253 . S
O308 Zn302 1.941 . S
O308 C318 1.283 . S
O309 Zn302 1.965 . S
O309 C317 1.303 . S
O310 Zn303 1.938 . S
O310 C317 1.247 . S
O311 Zn303 1.906 . S
O311 C319 1.304 . S
O312 Zn300 1.924 . S
O312 C320 1.311 . S
O313 Zn304 1.977 . S
O313 C319 1.272 . S
O314 Zn304 1.910 . S
O314 C320 1.231 . S
C315 O299 1.225 . S
C315 O321 1.298 . S
C316 O305 1.226 . S
C316 O306 1.307 . S
C317 O309 1.303 . S
C317 O310 1.247 . S
C318 O307 1.253 . S
C318 O308 1.283 . S
C319 O311 1.304 . S
C319 O313 1.272 . S
C320 O312 1.311 . S
C320 O314 1.231 . S
O321 Zn303 1.953 . S
O321 C315 1.298 . S
O322 Zn323 1.953 . S
O322 C338 1.225 . S
Zn323 O322 1.953 . S
Zn323 O324 1.949 . S
Zn323 O330 1.919 . S
Zn323 O335 1.924 . S
O324 Zn323 1.949 . S
O324 Zn325 1.923 . S
O324 Zn326 1.950 . S
O324 Zn327 1.945 . S
Zn325 O324 1.923 . S
Zn325 O328 1.933 . S
Zn325 O331 1.941 . S
Zn325 O332 1.965 . S
Zn326 O324 1.950 . S
Zn326 O333 1.938 . S
Zn326 O334 1.906 . S
Zn326 O344 1.953 . S
Zn327 O324 1.945 . S
Zn327 O329 1.932 . S
Zn327 O336 1.977 . S
Zn327 O337 1.910 . S
O328 Zn325 1.933 . S
O328 C339 1.226 . S
O329 Zn327 1.932 . S
O329 C339 1.307 . S
O330 Zn323 1.919 . S
O330 C341 1.253 . S
O331 Zn325 1.941 . S
O331 C341 1.283 . S
O332 Zn325 1.965 . S
O332 C340 1.303 . S
O333 Zn326 1.938 . S
O333 C340 1.247 . S
O334 Zn326 1.906 . S
O334 C342 1.304 . S
O335 Zn323 1.924 . S
O335 C343 1.311 . S
O336 Zn327 1.977 . S
O336 C342 1.272 . S
O337 Zn327 1.910 . S
O337 C343 1.231 . S
C338 O322 1.225 . S
C338 O344 1.298 . S
C339 O328 1.226 . S
C339 O329 1.307 . S
C340 O332 1.303 . S
C340 O333 1.247 . S
C341 O330 1.253 . S
C341 O331 1.283 . S
C342 O334 1.304 . S
C342 O336 1.272 . S
C343 O335 1.311 . S
C343 O337 1.231 . S
O344 Zn326 1.953 . S
O344 C338 1.298 . S
O345 Zn346 1.953 . S
O345 C361 1.225 . S
Zn346 O345 1.953 . S
Zn346 O347 1.949 . S
Zn346 O353 1.919 . S
Zn346 O358 1.924 . S
O347 Zn346 1.949 . S
O347 Zn348 1.923 . S
O347 Zn349 1.950 . S
O347 Zn350 1.945 . S
Zn348 O347 1.923 . S
Zn348 O351 1.933 . S
Zn348 O354 1.941 . S
Zn348 O355 1.965 . S
Zn349 O347 1.950 . S
Zn349 O356 1.938 . S
Zn349 O357 1.906 . S
Zn349 O367 1.953 . S
Zn350 O347 1.945 . S
Zn350 O352 1.932 . S
Zn350 O359 1.977 . S
Zn350 O360 1.910 . S
O351 Zn348 1.933 . S
O351 C362 1.226 . S
O352 Zn350 1.932 . S
O352 C362 1.307 . S
O353 Zn346 1.919 . S
O353 C364 1.253 . S
O354 Zn348 1.941 . S
O354 C364 1.283 . S
O355 Zn348 1.965 . S
O355 C363 1.303 . S
O356 Zn349 1.938 . S
O356 C363 1.247 . S
O357 Zn349 1.906 . S
O357 C365 1.304 . S
O358 Zn346 1.924 . S
O358 C366 1.311 . S
O359 Zn350 1.977 . S
O359 C365 1.272 . S
O360 Zn350 1.910 . S
O360 C366 1.231 . S
C361 O345 1.225 . S
C361 O367 1.298 . S
C362 O351 1.226 . S
C362 O352 1.307 . S
C363 O355 1.303 . S
C363 O356 1.247 . S
C364 O353 1.253 . S
C364 O354 1.283 . S
C365 O357 1.304 . S
C365 O359 1.272 . S
C366 O358 1.311 . S
C366 O360 1.231 . S
O367 Zn349 1.953 . S
O367 C361 1.298 . S
O368 Zn369 1.935 1_565 S
O368 C384 1.233 . S
Zn369 O368 1.935 1_545 S
Zn369 O370 1.949 . S
Zn369 O376 1.919 . S
Zn369 O381 1.924 . S
O370 Zn369 1.949 . S
O370 Zn371 1.923 . S
O370 Zn372 1.950 . S
O370 Zn373 1.945 . S
Zn371 O370 1.923 . S
Zn371 O374 1.933 . S
Zn371 O377 1.941 . S
Zn371 O378 1.965 . S
Zn372 O370 1.950 . S
Zn372 O379 1.938 . S
Zn372 O380 1.906 . S
Zn372 O390 1.953 . S
Zn373 O370 1.945 . S
Zn373 O375 1.932 . S
Zn373 O382 1.977 . S
Zn373 O383 1.910 . S
O374 Zn371 1.933 . S
O374 C385 1.226 . S
O375 Zn373 1.932 . S
O375 C385 1.307 . S
O376 Zn369 1.919 . S
O376 C387 1.253 . S
O377 Zn371 1.941 . S
O377 C387 1.283 . S
O378 Zn371 1.965 . S
O378 C386 1.303 . S
O379 Zn372 1.938 . S
O379 C386 1.247 . S
O380 Zn372 1.906 . S
O380 C388 1.304 . S
O381 Zn369 1.924 . S
O381 C389 1.311 . S
O382 Zn373 1.977 . S
O382 C388 1.272 . S
O383 Zn373 1.910 . S
O383 C389 1.231 . S
C384 O368 1.233 . S
C384 O390 1.298 1_565 S
C385 O374 1.226 . S
C385 O375 1.307 . S
C386 O378 1.303 . S
C386 O379 1.247 . S
C387 O376 1.253 . S
C387 O377 1.283 . S
C388 O380 1.304 . S
C388 O382 1.272 . S
C389 O381 1.311 . S
C389 O383 1.231 . S
O390 Zn372 1.953 . S
O390 C384 1.298 1_545 S
O391 Zn392 1.953 . S
O391 C407 1.225 . S
Zn392 O391 1.953 . S
Zn392 O393 1.949 . S
Zn392 O399 1.919 . S
Zn392 O404 1.924 . S
O393 Zn392 1.949 . S
O393 Zn394 1.923 . S
O393 Zn395 1.950 . S
O393 Zn396 1.945 . S
Zn394 O393 1.923 . S
Zn394 O397 1.933 . S
Zn394 O400 1.941 . S
Zn394 O401 1.965 . S
Zn395 O393 1.950 . S
Zn395 O402 1.938 . S
Zn395 O403 1.906 . S
Zn395 O413 1.953 . S
Zn396 O393 1.945 . S
Zn396 O398 1.932 . S
Zn396 O405 1.977 . S
Zn396 O406 1.910 . S
O397 Zn394 1.933 . S
O397 C408 1.226 . S
O398 Zn396 1.932 . S
O398 C408 1.307 . S
O399 Zn392 1.919 . S
O399 C410 1.253 . S
O400 Zn394 1.941 . S
O400 C410 1.283 . S
O401 Zn394 1.965 . S
O401 C409 1.303 . S
O402 Zn395 1.938 . S
O402 C409 1.247 . S
O403 Zn395 1.906 . S
O403 C411 1.304 . S
O404 Zn392 1.924 . S
O404 C412 1.311 . S
O405 Zn396 1.977 . S
O405 C411 1.272 . S
O406 Zn396 1.910 . S
O406 C412 1.231 . S
C407 O391 1.225 . S
C407 O413 1.298 . S
C408 O397 1.226 . S
C408 O398 1.307 . S
C409 O401 1.303 . S
C409 O402 1.247 . S
C410 O399 1.253 . S
C410 O400 1.283 . S
C411 O403 1.304 . S
C411 O405 1.272 . S
C412 O404 1.311 . S
C412 O406 1.231 . S
O413 Zn395 1.953 . S
O413 C407 1.298 . S
O414 Zn415 1.953 . S
O414 C430 1.225 . S
Zn415 O414 1.953 . S
Zn415 O416 1.949 . S
Zn415 O422 1.919 . S
Zn415 O427 1.924 . S
O416 Zn415 1.949 . S
O416 Zn417 1.923 . S
O416 Zn418 1.950 . S
O416 Zn419 1.945 . S
Zn417 O416 1.923 . S
Zn417 O420 1.933 . S
Zn417 O423 1.941 . S
Zn417 O424 1.965 . S
Zn418 O416 1.950 . S
Zn418 O425 1.938 . S
Zn418 O426 1.906 . S
Zn418 O436 1.953 . S
Zn419 O416 1.945 . S
Zn419 O421 1.932 . S
Zn419 O428 1.977 . S
Zn419 O429 1.910 . S
O420 Zn417 1.933 . S
O420 C431 1.226 . S
O421 Zn419 1.932 . S
O421 C431 1.307 . S
O422 Zn415 1.919 . S
O422 C433 1.253 . S
O423 Zn417 1.941 . S
O423 C433 1.283 . S
O424 Zn417 1.965 . S
O424 C432 1.303 . S
O425 Zn418 1.938 . S
O425 C432 1.247 . S
O426 Zn418 1.906 . S
O426 C434 1.304 . S
O427 Zn415 1.924 . S
O427 C435 1.311 . S
O428 Zn419 1.977 . S
O428 C434 1.272 . S
O429 Zn419 1.910 . S
O429 C435 1.231 . S
C430 O414 1.225 . S
C430 O436 1.298 . S
C431 O420 1.226 . S
C431 O421 1.307 . S
C432 O424 1.303 . S
C432 O425 1.247 . S
C433 O422 1.253 . S
C433 O423 1.283 . S
C434 O426 1.304 . S
C434 O428 1.272 . S
C435 O427 1.311 . S
C435 O429 1.231 . S
O436 Zn418 1.953 . S
O436 C430 1.298 . S
O437 Zn438 1.936 1_565 S
O437 C453 1.232 . S
Zn438 O437 1.936 1_545 S
Zn438 O439 1.949 . S
Zn438 O445 1.919 . S
Zn438 O450 1.924 . S
O439 Zn438 1.949 . S
O439 Zn440 1.923 . S
O439 Zn441 1.950 . S
O439 Zn442 1.945 . S
Zn440 O439 1.923 . S
Zn440 O443 1.933 . S
Zn440 O446 1.941 . S
Zn440 O447 1.965 . S
Zn441 O439 1.950 . S
Zn441 O448 1.938 . S
Zn441 O449 1.906 . S
Zn441 O459 1.953 . S
Zn442 O439 1.945 . S
Zn442 O444 1.932 . S
Zn442 O451 1.977 . S
Zn442 O452 1.910 . S
O443 Zn440 1.933 . S
O443 C454 1.226 . S
O444 Zn442 1.932 . S
O444 C454 1.307 . S
O445 Zn438 1.919 . S
O445 C456 1.253 . S
O446 Zn440 1.941 . S
O446 C456 1.283 . S
O447 Zn440 1.965 . S
O447 C455 1.303 . S
O448 Zn441 1.938 . S
O448 C455 1.247 . S
O449 Zn441 1.906 . S
O449 C457 1.304 . S
O450 Zn438 1.924 . S
O450 C458 1.311 . S
O451 Zn442 1.977 . S
O451 C457 1.272 . S
O452 Zn442 1.910 . S
O452 C458 1.231 . S
C453 O437 1.232 . S
C453 O459 1.298 1_565 S
C454 O443 1.226 . S
C454 O444 1.307 . S
C455 O447 1.303 . S
C455 O448 1.247 . S
C456 O445 1.253 . S
C456 O446 1.283 . S
C457 O449 1.304 . S
C457 O451 1.272 . S
C458 O450 1.311 . S
C458 O452 1.231 . S
O459 Zn441 1.953 . S
O459 C453 1.298 1_545 S
O460 Zn461 1.953 . S
O460 C476 1.225 1_565 S
Zn461 O460 1.953 . S
Zn461 O462 1.949 . S
Zn461 O468 1.919 . S
Zn461 O473 1.924 . S
O462 Zn461 1.949 . S
O462 Zn463 1.923 . S
O462 Zn464 1.950 . S
O462 Zn465 1.945 . S
Zn463 O462 1.923 . S
Zn463 O466 1.933 . S
Zn463 O469 1.941 . S
Zn463 O470 1.965 . S
Zn464 O462 1.950 . S
Zn464 O471 1.938 . S
Zn464 O472 1.906 . S
Zn464 O482 1.953 . S
Zn465 O462 1.945 . S
Zn465 O467 1.932 . S
Zn465 O474 1.977 . S
Zn465 O475 1.910 . S
O466 Zn463 1.933 . S
O466 C477 1.226 . S
O467 Zn465 1.932 . S
O467 C477 1.307 . S
O468 Zn461 1.919 . S
O468 C479 1.253 . S
O469 Zn463 1.941 . S
O469 C479 1.283 . S
O470 Zn463 1.965 . S
O470 C478 1.303 . S
O471 Zn464 1.938 . S
O471 C478 1.247 . S
O472 Zn464 1.906 . S
O472 C480 1.304 . S
O473 Zn461 1.924 . S
O473 C481 1.311 . S
O474 Zn465 1.977 . S
O474 C480 1.272 . S
O475 Zn465 1.910 . S
O475 C481 1.231 . S
C476 O460 1.225 1_545 S
C476 O482 1.298 1_545 S
C477 O466 1.226 . S
C477 O467 1.307 . S
C478 O470 1.303 . S
C478 O471 1.247 . S
C479 O468 1.253 . S
C479 O469 1.283 . S
C480 O472 1.304 . S
C480 O474 1.272 . S
C481 O473 1.311 . S
C481 O475 1.231 . S
O482 Zn464 1.953 . S
O482 C476 1.298 1_565 S
O483 Zn484 1.953 . S
O483 C499 1.225 . S
Zn484 O483 1.953 . S
Zn484 O485 1.949 . S
Zn484 O491 1.919 . S
Zn484 O496 1.924 . S
O485 Zn484 1.949 . S
O485 Zn486 1.923 . S
O485 Zn487 1.950 . S
O485 Zn488 1.945 . S
Zn486 O485 1.923 . S
Zn486 O489 1.933 . S
Zn486 O492 1.941 . S
Zn486 O493 1.965 . S
Zn487 O485 1.950 . S
Zn487 O494 1.938 . S
Zn487 O495 1.906 . S
Zn487 O505 1.953 . S
Zn488 O485 1.945 . S
Zn488 O490 1.932 . S
Zn488 O497 1.977 . S
Zn488 O498 1.910 . S
O489 Zn486 1.933 . S
O489 C500 1.226 . S
O490 Zn488 1.932 . S
O490 C500 1.307 . S
O491 Zn484 1.919 . S
O491 C502 1.253 . S
O492 Zn486 1.941 . S
O492 C502 1.283 . S
O493 Zn486 1.965 . S
O493 C501 1.303 . S
O494 Zn487 1.938 . S
O494 C501 1.247 . S
O495 Zn487 1.906 . S
O495 C503 1.304 . S
O496 Zn484 1.924 . S
O496 C504 1.311 . S
O497 Zn488 1.977 . S
O497 C503 1.272 . S
O498 Zn488 1.910 . S
O498 C504 1.231 . S
C499 O483 1.225 . S
C499 O505 1.298 . S
C500 O489 1.226 . S
C500 O490 1.307 . S
C501 O493 1.303 . S
C501 O494 1.247 . S
C502 O491 1.253 . S
C502 O492 1.283 . S
C503 O495 1.304 . S
C503 O497 1.272 . S
C504 O496 1.311 . S
C504 O498 1.231 . S
O505 Zn487 1.953 . S
O505 C499 1.298 . S
O506 Zn507 1.953 . S
O506 C522 1.225 . S
Zn507 O506 1.953 . S
Zn507 O508 1.949 . S
Zn507 O514 1.919 . S
Zn507 O519 1.924 . S
O508 Zn507 1.949 . S
O508 Zn509 1.923 . S
O508 Zn510 1.950 . S
O508 Zn511 1.945 . S
Zn509 O508 1.923 . S
Zn509 O512 1.933 . S
Zn509 O515 1.941 . S
Zn509 O516 1.965 . S
Zn510 O508 1.950 . S
Zn510 O517 1.938 . S
Zn510 O518 1.906 . S
Zn510 O528 1.953 . S
Zn511 O508 1.945 . S
Zn511 O513 1.932 . S
Zn511 O520 1.977 . S
Zn511 O521 1.910 . S
O512 Zn509 1.933 . S
O512 C523 1.226 . S
O513 Zn511 1.932 . S
O513 C523 1.307 . S
O514 Zn507 1.919 . S
O514 C525 1.253 . S
O515 Zn509 1.941 . S
O515 C525 1.283 . S
O516 Zn509 1.965 . S
O516 C524 1.303 . S
O517 Zn510 1.938 . S
O517 C524 1.247 . S
O518 Zn510 1.906 . S
O518 C526 1.304 . S
O519 Zn507 1.924 . S
O519 C527 1.311 . S
O520 Zn511 1.977 . S
O520 C526 1.272 . S
O521 Zn511 1.910 . S
O521 C527 1.231 . S
C522 O506 1.225 . S
C522 O528 1.298 . S
C523 O512 1.226 . S
C523 O513 1.307 . S
C524 O516 1.303 . S
C524 O517 1.247 . S
C525 O514 1.253 . S
C525 O515 1.283 . S
C526 O518 1.304 . S
C526 O520 1.272 . S
C527 O519 1.311 . S
C527 O521 1.231 . S
O528 Zn510 1.953 . S
O528 C522 1.298 . S
O529 Zn530 1.953 . S
O529 C545 1.225 1_565 S
Zn530 O529 1.953 . S
Zn530 O531 1.949 . S
Zn530 O537 1.919 . S
Zn530 O542 1.924 . S
O531 Zn530 1.949 . S
O531 Zn532 1.923 . S
O531 Zn533 1.950 . S
O531 Zn534 1.945 . S
Zn532 O531 1.923 . S
Zn532 O535 1.933 . S
Zn532 O538 1.941 . S
Zn532 O539 1.965 . S
Zn533 O531 1.950 . S
Zn533 O540 1.938 . S
Zn533 O541 1.906 . S
Zn533 O551 1.953 . S
Zn534 O531 1.945 . S
Zn534 O536 1.932 . S
Zn534 O543 1.977 . S
Zn534 O544 1.910 . S
O535 Zn532 1.933 . S
O535 C546 1.226 . S
O536 Zn534 1.932 . S
O536 C546 1.307 . S
O537 Zn530 1.919 . S
O537 C548 1.253 . S
O538 Zn532 1.941 . S
O538 C548 1.283 . S
O539 Zn532 1.965 . S
O539 C547 1.303 . S
O540 Zn533 1.938 . S
O540 C547 1.247 . S
O541 Zn533 1.906 . S
O541 C549 1.304 . S
O542 Zn530 1.924 . S
O542 C550 1.311 . S
O543 Zn534 1.977 . S
O543 C549 1.272 . S
O544 Zn534 1.910 . S
O544 C550 1.231 . S
C545 O529 1.225 1_545 S
C545 O551 1.298 1_545 S
C546 O535 1.226 . S
C546 O536 1.307 . S
C547 O539 1.303 . S
C547 O540 1.247 . S
C548 O537 1.253 . S
C548 O538 1.283 . S
C549 O541 1.304 . S
C549 O543 1.272 . S
C550 O542 1.311 . S
C550 O544 1.231 . S
O551 Zn533 1.953 . S
O551 C545 1.298 1_565 S
O552 Zn553 1.953 . S
O552 C568 1.225 1_556 S
Zn553 O552 1.953 . S
Zn553 O554 1.930 1_556 S
Zn553 O560 1.919 . S
Zn553 O565 1.924 . S
O554 Zn553 1.930 1_554 S
O554 Zn555 1.909 1_554 S
O554 Zn556 1.970 . S
O554 Zn557 1.957 . S
Zn555 O554 1.909 1_556 S
Zn555 O558 1.933 . S
Zn555 O561 1.941 . S
Zn555 O562 1.965 . S
Zn556 O554 1.970 . S
Zn556 O563 1.938 . S
Zn556 O564 1.906 . S
Zn556 O574 1.953 . S
Zn557 O554 1.957 . S
Zn557 O559 1.932 . S
Zn557 O566 1.977 . S
Zn557 O567 1.910 . S
O558 Zn555 1.933 . S
O558 C569 1.226 . S
O559 Zn557 1.932 . S
O559 C569 1.307 1_554 S
O560 Zn553 1.919 . S
O560 C571 1.253 . S
O561 Zn555 1.941 . S
O561 C571 1.283 . S
O562 Zn555 1.965 . S
O562 C570 1.303 1_556 S
O563 Zn556 1.938 . S
O563 C570 1.247 . S
O564 Zn556 1.906 . S
O564 C572 1.304 . S
O565 Zn553 1.924 . S
O565 C573 1.287 1_556 S
O566 Zn557 1.977 . S
O566 C572 1.272 . S
O567 Zn557 1.910 . S
O567 C573 1.250 . S
C568 O552 1.225 1_554 S
C568 O574 1.298 . S
C569 O558 1.226 . S
C569 O559 1.307 1_556 S
C570 O562 1.303 1_554 S
C570 O563 1.247 . S
C571 O560 1.253 . S
C571 O561 1.283 . S
C572 O564 1.304 . S
C572 O566 1.272 . S
C573 O565 1.287 1_554 S
C573 O567 1.250 . S
O574 Zn556 1.953 . S
O574 C568 1.298 . S
O575 Zn576 1.953 . S
O575 C591 1.225 1_556 S
Zn576 O575 1.953 . S
Zn576 O577 1.930 1_556 S
Zn576 O583 1.919 . S
Zn576 O588 1.924 . S
O577 Zn576 1.930 1_554 S
O577 Zn578 1.909 1_554 S
O577 Zn579 1.970 . S
O577 Zn580 1.957 . S
Zn578 O577 1.909 1_556 S
Zn578 O581 1.933 . S
Zn578 O584 1.941 . S
Zn578 O585 1.965 . S
Zn579 O577 1.970 . S
Zn579 O586 1.938 . S
Zn579 O587 1.906 . S
Zn579 O597 1.953 . S
Zn580 O577 1.957 . S
Zn580 O582 1.932 . S
Zn580 O589 1.977 . S
Zn580 O590 1.910 . S
O581 Zn578 1.933 . S
O581 C592 1.226 . S
O582 Zn580 1.932 . S
O582 C592 1.307 1_554 S
O583 Zn576 1.919 . S
O583 C594 1.253 . S
O584 Zn578 1.941 . S
O584 C594 1.283 . S
O585 Zn578 1.965 . S
O585 C593 1.303 1_556 S
O586 Zn579 1.938 . S
O586 C593 1.247 . S
O587 Zn579 1.906 . S
O587 C595 1.304 . S
O588 Zn576 1.924 . S
O588 C596 1.287 1_556 S
O589 Zn580 1.977 . S
O589 C595 1.272 . S
O590 Zn580 1.910 . S
O590 C596 1.250 . S
C591 O575 1.225 1_554 S
C591 O597 1.298 . S
C592 O581 1.226 . S
C592 O582 1.307 1_556 S
C593 O585 1.303 1_554 S
C593 O586 1.247 . S
C594 O583 1.253 . S
C594 O584 1.283 . S
C595 O587 1.304 . S
C595 O589 1.272 . S
C596 O588 1.287 1_554 S
C596 O590 1.250 . S
O597 Zn579 1.953 . S
O597 C591 1.298 . S
O598 Zn599 1.953 . S
O598 C614 1.225 . S
Zn599 O598 1.953 . S
Zn599 O600 1.949 . S
Zn599 O606 1.919 . S
Zn599 O611 1.924 . S
O600 Zn599 1.949 . S
O600 Zn601 1.923 . S
O600 Zn602 1.950 . S
O600 Zn603 1.945 . S
Zn601 O600 1.923 . S
Zn601 O604 1.933 . S
Zn601 O607 1.941 . S
Zn601 O608 1.965 . S
Zn602 O600 1.950 . S
Zn602 O609 1.938 . S
Zn602 O610 1.906 . S
Zn602 O620 1.953 . S
Zn603 O600 1.945 . S
Zn603 O605 1.932 . S
Zn603 O612 1.977 . S
Zn603 O613 1.910 . S
O604 Zn601 1.933 . S
O604 C615 1.226 . S
O605 Zn603 1.932 . S
O605 C615 1.307 . S
O606 Zn599 1.919 . S
O606 C617 1.253 . S
O607 Zn601 1.941 . S
O607 C617 1.283 . S
O608 Zn601 1.965 . S
O608 C616 1.303 . S
O609 Zn602 1.938 . S
O609 C616 1.247 . S
O610 Zn602 1.906 . S
O610 C618 1.304 . S
O611 Zn599 1.924 . S
O611 C619 1.311 . S
O612 Zn603 1.977 . S
O612 C618 1.272 . S
O613 Zn603 1.910 . S
O613 C619 1.231 . S
C614 O598 1.225 . S
C614 O620 1.298 . S
C615 O604 1.226 . S
C615 O605 1.307 . S
C616 O608 1.303 . S
C616 O609 1.247 . S
C617 O606 1.253 . S
C617 O607 1.283 . S
C618 O610 1.304 . S
C618 O612 1.272 . S
C619 O611 1.311 . S
C619 O613 1.231 . S
O620 Zn602 1.953 . S
O620 C614 1.298 . S
O621 Zn622 1.953 . S
O621 C637 1.225 . S
Zn622 O621 1.953 . S
Zn622 O623 1.949 . S
Zn622 O629 1.919 . S
Zn622 O634 1.924 . S
O623 Zn622 1.949 . S
O623 Zn624 1.923 . S
O623 Zn625 1.950 . S
O623 Zn626 1.945 . S
Zn624 O623 1.923 . S
Zn624 O627 1.933 . S
Zn624 O630 1.941 . S
Zn624 O631 1.965 . S
Zn625 O623 1.950 . S
Zn625 O632 1.938 . S
Zn625 O633 1.906 . S
Zn625 O643 1.953 . S
Zn626 O623 1.945 . S
Zn626 O628 1.932 . S
Zn626 O635 1.977 . S
Zn626 O636 1.910 . S
O627 Zn624 1.933 . S
O627 C638 1.226 . S
O628 Zn626 1.932 . S
O628 C638 1.307 . S
O629 Zn622 1.919 . S
O629 C640 1.253 . S
O630 Zn624 1.941 . S
O630 C640 1.283 . S
O631 Zn624 1.965 . S
O631 C639 1.303 . S
O632 Zn625 1.938 . S
O632 C639 1.247 . S
O633 Zn625 1.906 . S
O633 C641 1.304 . S
O634 Zn622 1.924 . S
O634 C642 1.311 . S
O635 Zn626 1.977 . S
O635 C641 1.272 . S
O636 Zn626 1.910 . S
O636 C642 1.231 . S
C637 O621 1.225 . S
C637 O643 1.298 . S
C638 O627 1.226 . S
C638 O628 1.307 . S
C639 O631 1.303 . S
C639 O632 1.247 . S
C640 O629 1.253 . S
C640 O630 1.283 . S
C641 O633 1.304 . S
C641 O635 1.272 . S
C642 O634 1.311 . S
C642 O636 1.231 . S
O643 Zn625 1.953 . S
O643 C637 1.298 . S
O644 Zn645 1.953 . S
O644 C660 1.225 . S
Zn645 O644 1.953 . S
Zn645 O646 1.936 1_556 S
Zn645 O652 1.919 . S
Zn645 O657 1.924 . S
O646 Zn645 1.936 1_554 S
O646 Zn647 1.916 1_554 S
O646 Zn648 1.962 . S
O646 Zn649 1.952 . S
Zn647 O646 1.916 1_556 S
Zn647 O650 1.933 . S
Zn647 O653 1.941 . S
Zn647 O654 1.965 . S
Zn648 O646 1.962 . S
Zn648 O655 1.938 . S
Zn648 O656 1.906 . S
Zn648 O666 1.953 . S
Zn649 O646 1.952 . S
Zn649 O651 1.932 . S
Zn649 O658 1.977 . S
Zn649 O659 1.910 . S
O650 Zn647 1.933 . S
O650 C661 1.226 1_556 S
O651 Zn649 1.932 . S
O651 C661 1.307 . S
O652 Zn645 1.919 . S
O652 C663 1.253 . S
O653 Zn647 1.941 . S
O653 C663 1.283 . S
O654 Zn647 1.965 . S
O654 C662 1.303 1_556 S
O655 Zn648 1.938 . S
O655 C662 1.247 . S
O656 Zn648 1.906 . S
O656 C664 1.304 . S
O657 Zn645 1.924 . S
O657 C665 1.311 . S
O658 Zn649 1.977 . S
O658 C664 1.272 . S
O659 Zn649 1.910 . S
O659 C665 1.231 1_554 S
C660 O644 1.225 . S
C660 O666 1.298 1_556 S
C661 O650 1.226 1_554 S
C661 O651 1.307 . S
C662 O654 1.303 1_554 S
C662 O655 1.247 . S
C663 O652 1.253 . S
C663 O653 1.283 . S
C664 O656 1.304 . S
C664 O658 1.272 . S
C665 O657 1.311 . S
C665 O659 1.231 1_556 S
O666 Zn648 1.953 . S
O666 C660 1.298 1_554 S
O667 Zn668 1.953 . S
O667 C683 1.225 . S
Zn668 O667 1.953 . S
Zn668 O669 1.936 1_556 S
Zn668 O675 1.919 . S
Zn668 O680 1.924 . S
O669 Zn668 1.936 1_554 S
O669 Zn670 1.916 1_554 S
O669 Zn671 1.962 . S
O669 Zn672 1.952 . S
Zn670 O669 1.916 1_556 S
Zn670 O673 1.933 . S
Zn670 O676 1.941 . S
Zn670 O677 1.965 . S
Zn671 O669 1.962 . S
Zn671 O678 1.938 . S
Zn671 O679 1.906 . S
Zn671 O689 1.953 . S
Zn672 O669 1.952 . S
Zn672 O674 1.932 . S
Zn672 O681 1.977 . S
Zn672 O682 1.910 . S
O673 Zn670 1.933 . S
O673 C684 1.226 1_556 S
O674 Zn672 1.932 . S
O674 C684 1.307 . S
O675 Zn668 1.919 . S
O675 C686 1.253 . S
O676 Zn670 1.941 . S
O676 C686 1.283 . S
O677 Zn670 1.965 . S
O677 C685 1.303 1_556 S
O678 Zn671 1.938 . S
O678 C685 1.247 . S
O679 Zn671 1.906 . S
O679 C687 1.304 . S
O680 Zn668 1.924 . S
O680 C688 1.311 . S
O681 Zn672 1.977 . S
O681 C687 1.272 . S
O682 Zn672 1.910 . S
O682 C688 1.231 1_554 S
C683 O667 1.225 . S
C683 O689 1.298 1_556 S
C684 O673 1.226 1_554 S
C684 O674 1.307 . S
C685 O677 1.303 1_554 S
C685 O678 1.247 . S
C686 O675 1.253 . S
C686 O676 1.283 . S
C687 O679 1.304 . S
C687 O681 1.272 . S
C688 O680 1.311 . S
C688 O682 1.231 1_556 S
O689 Zn671 1.953 . S
O689 C683 1.298 1_554 S
O690 Zn691 1.953 . S
O690 C706 1.225 . S
Zn691 O690 1.953 . S
Zn691 O692 1.949 . S
Zn691 O698 1.919 . S
Zn691 O703 1.924 . S
O692 Zn691 1.949 . S
O692 Zn693 1.923 . S
O692 Zn694 1.950 . S
O692 Zn695 1.945 . S
Zn693 O692 1.923 . S
Zn693 O696 1.933 . S
Zn693 O699 1.941 . S
Zn693 O700 1.965 . S
Zn694 O692 1.950 . S
Zn694 O701 1.938 . S
Zn694 O702 1.906 . S
Zn694 O712 1.953 . S
Zn695 O692 1.945 . S
Zn695 O697 1.932 . S
Zn695 O704 1.977 . S
Zn695 O705 1.910 . S
O696 Zn693 1.933 . S
O696 C707 1.226 . S
O697 Zn695 1.932 . S
O697 C707 1.307 . S
O698 Zn691 1.919 . S
O698 C709 1.253 . S
O699 Zn693 1.941 . S
O699 C709 1.283 . S
O700 Zn693 1.965 . S
O700 C708 1.303 . S
O701 Zn694 1.938 . S
O701 C708 1.247 . S
O702 Zn694 1.906 . S
O702 C710 1.304 . S
O703 Zn691 1.924 . S
O703 C711 1.311 . S
O704 Zn695 1.977 . S
O704 C710 1.272 . S
O705 Zn695 1.910 . S
O705 C711 1.231 . S
C706 O690 1.225 . S
C706 O712 1.298 . S
C707 O696 1.226 . S
C707 O697 1.307 . S
C708 O700 1.303 . S
C708 O701 1.247 . S
C709 O698 1.253 . S
C709 O699 1.283 . S
C710 O702 1.304 . S
C710 O704 1.272 . S
C711 O703 1.311 . S
C711 O705 1.231 . S
O712 Zn694 1.953 . S
O712 C706 1.298 . S
O713 Zn714 1.953 . S
O713 C729 1.225 . S
Zn714 O713 1.953 . S
Zn714 O715 1.949 . S
Zn714 O721 1.919 . S
Zn714 O726 1.924 . S
O715 Zn714 1.949 . S
O715 Zn716 1.923 . S
O715 Zn717 1.950 . S
O715 Zn718 1.945 . S
Zn716 O715 1.923 . S
Zn716 O719 1.933 . S
Zn716 O722 1.941 . S
Zn716 O723 1.965 . S
Zn717 O715 1.950 . S
Zn717 O724 1.938 . S
Zn717 O725 1.906 . S
Zn717 O735 1.953 . S
Zn718 O715 1.945 . S
Zn718 O720 1.932 . S
Zn718 O727 1.977 . S
Zn718 O728 1.910 . S
O719 Zn716 1.933 . S
O719 C730 1.226 . S
O720 Zn718 1.932 . S
O720 C730 1.307 . S
O721 Zn714 1.919 . S
O721 C732 1.253 . S
O722 Zn716 1.941 . S
O722 C732 1.283 . S
O723 Zn716 1.965 . S
O723 C731 1.303 . S
O724 Zn717 1.938 . S
O724 C731 1.247 . S
O725 Zn717 1.906 . S
O725 C733 1.304 . S
O726 Zn714 1.924 . S
O726 C734 1.311 . S
O727 Zn718 1.977 . S
O727 C733 1.272 . S
O728 Zn718 1.910 . S
O728 C734 1.231 . S
C729 O713 1.225 . S
C729 O735 1.298 . S
C730 O719 1.226 . S
C730 O720 1.307 . S
C731 O723 1.303 . S
C731 O724 1.247 . S
C732 O721 1.253 . S
C732 O722 1.283 . S
C733 O725 1.304 . S
C733 O727 1.272 . S
C734 O726 1.311 . S
C734 O728 1.231 . S
O735 Zn717 1.953 . S
O735 C729 1.298 . S
H736 C742 0.930 . S
H737 C745 0.930 . S
H738 C746 0.930 . S
H739 C747 0.930 . S
H740 C750 0.930 . S
H741 C751 0.930 . S
C742 H736 0.930 . S
C742 C743 1.355 . S
C742 C744 1.415 . S
C743 C742 1.355 . S
C743 C745 1.419 1_554 S
C744 C742 1.415 . S
C744 C749 1.425 1_554 S
C744 C751 1.409 . S
C745 H737 0.930 . S
C745 C743 1.419 1_556 S
C745 C746 1.362 . S
C746 H738 0.930 . S
C746 C745 1.362 . S
C746 C749 1.409 . S
C747 H739 0.930 . S
C747 C748 1.355 1_556 S
C747 C749 1.415 . S
C748 C747 1.355 1_554 S
C748 C750 1.419 . S
C749 C744 1.425 1_556 S
C749 C746 1.409 . S
C749 C747 1.415 . S
C750 H740 0.930 . S
C750 C748 1.419 . S
C750 C751 1.362 . S
C751 H741 0.930 . S
C751 C744 1.409 . S
C751 C750 1.362 . S
H752 C758 0.930 . S
H753 C761 0.930 . S
H754 C762 0.930 . S
H755 C763 0.930 . S
H756 C766 0.930 . S
H757 C767 0.930 . S
C758 H752 0.930 . S
C758 C759 1.355 1_556 S
C758 C760 1.415 . S
C759 C758 1.355 1_554 S
C759 C761 1.419 . S
C760 C758 1.415 . S
C760 C765 1.425 1_556 S
C760 C767 1.409 . S
C761 H753 0.930 . S
C761 C759 1.419 . S
C761 C762 1.362 . S
C762 H754 0.930 . S
C762 C761 1.362 . S
C762 C765 1.409 . S
C763 H755 0.930 . S
C763 C764 1.355 . S
C763 C765 1.415 . S
C764 C763 1.355 . S
C764 C766 1.418 1_554 S
C765 C760 1.425 1_554 S
C765 C762 1.409 . S
C765 C763 1.415 . S
C766 H756 0.930 . S
C766 C764 1.418 1_556 S
C766 C767 1.362 . S
C767 H757 0.930 . S
C767 C760 1.409 . S
C767 C766 1.362 . S
H768 C774 0.930 . S
H769 C777 0.930 . S
H770 C778 0.930 . S
H771 C779 0.930 . S
H772 C782 0.930 . S
H773 C783 0.930 . S
C774 H768 0.930 . S
C774 C775 1.355 . S
C774 C776 1.415 . S
C775 C774 1.355 . S
C775 C777 1.419 . S
C776 C774 1.415 . S
C776 C781 1.425 . S
C776 C783 1.409 . S
C777 H769 0.930 . S
C777 C775 1.419 . S
C777 C778 1.362 . S
C778 H770 0.930 . S
C778 C777 1.362 . S
C778 C781 1.409 . S
C779 H771 0.930 . S
C779 C780 1.355 . S
C779 C781 1.415 . S
C780 C779 1.355 . S
C780 C782 1.419 . S
C781 C776 1.425 . S
C781 C778 1.409 . S
C781 C779 1.415 . S
C782 H772 0.930 . S
C782 C780 1.419 . S
C782 C783 1.362 . S
C783 H773 0.930 . S
C783 C776 1.409 . S
C783 C782 1.362 . S
H784 C790 0.930 . S
H785 C793 0.930 . S
H786 C794 0.930 . S
H787 C795 0.930 . S
H788 C798 0.930 . S
H789 C799 0.930 . S
C790 H784 0.930 . S
C790 C791 1.355 . S
C790 C792 1.415 . S
C791 C790 1.355 . S
C791 C793 1.419 . S
C792 C790 1.415 . S
C792 C797 1.425 . S
C792 C799 1.409 . S
C793 H785 0.930 . S
C793 C791 1.419 . S
C793 C794 1.362 . S
C794 H786 0.930 . S
C794 C793 1.362 . S
C794 C797 1.409 . S
C795 H787 0.930 . S
C795 C796 1.355 . S
C795 C797 1.415 . S
C796 C795 1.355 . S
C796 C798 1.419 . S
C797 C792 1.425 . S
C797 C794 1.409 . S
C797 C795 1.415 . S
C798 H788 0.930 . S
C798 C796 1.419 . S
C798 C799 1.362 . S
C799 H789 0.930 . S
C799 C792 1.409 . S
C799 C798 1.362 . S
H800 C806 0.930 . S
H801 C809 0.930 . S
H802 C810 0.930 . S
H803 C811 0.930 . S
H804 C814 0.930 . S
H805 C815 0.930 . S
C806 H800 0.930 . S
C806 C807 1.355 1_554 S
C806 C808 1.413 1_554 S
C807 C806 1.355 1_556 S
C807 C809 1.419 . S
C808 C806 1.413 1_556 S
C808 C813 1.431 . S
C808 C815 1.406 1_556 S
C809 H801 0.930 . S
C809 C807 1.419 . S
C809 C810 1.362 . S
C810 H802 0.930 . S
C810 C809 1.362 . S
C810 C813 1.409 . S
C811 H803 0.930 . S
C811 C812 1.355 . S
C811 C813 1.415 . S
C812 C811 1.355 . S
C812 C814 1.419 1_556 S
C813 C808 1.431 . S
C813 C810 1.409 . S
C813 C811 1.415 . S
C814 H804 0.930 . S
C814 C812 1.419 1_554 S
C814 C815 1.362 . S
C815 H805 0.930 . S
C815 C808 1.406 1_554 S
C815 C814 1.362 . S
H816 C822 0.930 . S
H817 C825 0.930 . S
H818 C826 0.930 . S
H819 C827 0.930 . S
H820 C830 0.930 . S
H821 C831 0.930 . S
C822 H816 0.930 . S
C822 C823 1.355 1_554 S
C822 C824 1.415 . S
C823 C822 1.355 1_556 S
C823 C825 1.419 . S
C824 C822 1.415 . S
C824 C829 1.425 1_554 S
C824 C831 1.409 . S
C825 H817 0.930 . S
C825 C823 1.419 . S
C825 C826 1.362 . S
C826 H818 0.930 . S
C826 C825 1.362 . S
C826 C829 1.409 . S
C827 H819 0.930 . S
C827 C828 1.355 . S
C827 C829 1.415 . S
C828 C827 1.355 . S
C828 C830 1.419 1_556 S
C829 C824 1.425 1_556 S
C829 C826 1.409 . S
C829 C827 1.415 . S
C830 H820 0.930 . S
C830 C828 1.419 1_554 S
C830 C831 1.362 . S
C831 H821 0.930 . S
C831 C824 1.409 . S
C831 C830 1.362 . S
H832 C838 0.930 . S
H833 C841 0.930 . S
H834 C842 0.930 . S
H835 C843 0.930 . S
H836 C846 0.930 . S
H837 C847 0.930 . S
C838 H832 0.930 . S
C838 C839 1.355 . S
C838 C840 1.415 . S
C839 C838 1.355 . S
C839 C841 1.419 . S
C840 C838 1.415 . S
C840 C845 1.425 . S
C840 C847 1.409 . S
C841 H833 0.930 . S
C841 C839 1.419 . S
C841 C842 1.362 . S
C842 H834 0.930 . S
C842 C841 1.362 . S
C842 C845 1.409 . S
C843 H835 0.930 . S
C843 C844 1.355 . S
C843 C845 1.415 . S
C844 C843 1.355 . S
C844 C846 1.419 . S
C845 C840 1.425 . S
C845 C842 1.409 . S
C845 C843 1.415 . S
C846 H836 0.930 . S
C846 C844 1.419 . S
C846 C847 1.362 . S
C847 H837 0.930 . S
C847 C840 1.409 . S
C847 C846 1.362 . S
H848 C854 0.930 . S
H849 C857 0.930 . S
H850 C858 0.930 . S
H851 C859 0.930 . S
H852 C862 0.930 . S
H853 C863 0.930 . S
C854 H848 0.930 . S
C854 C855 1.355 . S
C854 C856 1.415 . S
C855 C854 1.355 . S
C855 C857 1.419 . S
C856 C854 1.415 . S
C856 C861 1.425 . S
C856 C863 1.409 . S
C857 H849 0.930 . S
C857 C855 1.419 . S
C857 C858 1.362 . S
C858 H850 0.930 . S
C858 C857 1.362 . S
C858 C861 1.409 . S
C859 H851 0.930 . S
C859 C860 1.355 . S
C859 C861 1.415 . S
C860 C859 1.355 . S
C860 C862 1.419 . S
C861 C856 1.425 . S
C861 C858 1.409 . S
C861 C859 1.415 . S
C862 H852 0.930 . S
C862 C860 1.419 . S
C862 C863 1.362 . S
C863 H853 0.930 . S
C863 C856 1.409 . S
C863 C862 1.362 . S
H864 C870 0.930 . S
H865 C873 0.930 . S
H866 C874 0.930 . S
H867 C875 0.930 . S
H868 C878 0.930 . S
H869 C879 0.930 . S
C870 H864 0.930 . S
C870 C871 1.355 . S
C870 C872 1.415 . S
C871 C870 1.355 . S
C871 C873 1.419 . S
C872 C870 1.415 . S
C872 C877 1.425 . S
C872 C879 1.409 . S
C873 H865 0.930 . S
C873 C871 1.419 . S
C873 C874 1.362 . S
C874 H866 0.930 . S
C874 C873 1.362 . S
C874 C877 1.409 . S
C875 H867 0.930 . S
C875 C876 1.355 . S
C875 C877 1.415 . S
C876 C875 1.355 . S
C876 C878 1.419 . S
C877 C872 1.425 . S
C877 C874 1.409 . S
C877 C875 1.415 . S
C878 H868 0.930 . S
C878 C876 1.419 . S
C878 C879 1.362 . S
C879 H869 0.930 . S
C879 C872 1.409 . S
C879 C878 1.362 . S
H880 C886 0.930 . S
H881 C889 0.930 . S
H882 C890 0.930 . S
H883 C891 0.930 . S
H884 C894 0.930 . S
H885 C895 0.930 . S
C886 H880 0.930 . S
C886 C887 1.355 . S
C886 C888 1.415 . S
C887 C886 1.355 . S
C887 C889 1.419 . S
C888 C886 1.415 . S
C888 C893 1.425 . S
C888 C895 1.409 . S
C889 H881 0.930 . S
C889 C887 1.419 . S
C889 C890 1.362 . S
C890 H882 0.930 . S
C890 C889 1.362 . S
C890 C893 1.409 . S
C891 H883 0.930 . S
C891 C892 1.355 . S
C891 C893 1.415 . S
C892 C891 1.355 . S
C892 C894 1.419 . S
C893 C888 1.425 . S
C893 C890 1.409 . S
C893 C891 1.415 . S
C894 H884 0.930 . S
C894 C892 1.419 . S
C894 C895 1.362 . S
C895 H885 0.930 . S
C895 C888 1.409 . S
C895 C894 1.362 . S
H896 C902 0.930 . S
H897 C905 0.930 . S
H898 C906 0.930 . S
H899 C907 0.930 . S
H900 C910 0.930 . S
H901 C911 0.930 . S
C902 H896 0.930 . S
C902 C903 1.355 . S
C902 C904 1.415 . S
C903 C902 1.355 . S
C903 C905 1.419 . S
C904 C902 1.415 . S
C904 C909 1.425 . S
C904 C911 1.409 . S
C905 H897 0.930 . S
C905 C903 1.419 . S
C905 C906 1.362 . S
C906 H898 0.930 . S
C906 C905 1.362 . S
C906 C909 1.409 . S
C907 H899 0.930 . S
C907 C908 1.355 . S
C907 C909 1.415 . S
C908 C907 1.355 . S
C908 C910 1.419 . S
C909 C904 1.425 . S
C909 C906 1.409 . S
C909 C907 1.415 . S
C910 H900 0.930 . S
C910 C908 1.419 . S
C910 C911 1.362 . S
C911 H901 0.930 . S
C911 C904 1.409 . S
C911 C910 1.362 . S
H912 C918 0.930 . S
H913 C921 0.930 . S
H914 C922 0.930 . S
H915 C923 0.930 . S
H916 C926 0.930 . S
H917 C927 0.930 . S
C918 H912 0.930 . S
C918 C919 1.355 . S
C918 C920 1.415 . S
C919 C918 1.355 . S
C919 C921 1.419 . S
C920 C918 1.415 . S
C920 C925 1.425 . S
C920 C927 1.409 . S
C921 H913 0.930 . S
C921 C919 1.419 . S
C921 C922 1.362 . S
C922 H914 0.930 . S
C922 C921 1.362 . S
C922 C925 1.409 . S
C923 H915 0.930 . S
C923 C924 1.355 . S
C923 C925 1.415 . S
C924 C923 1.355 . S
C924 C926 1.419 . S
C925 C920 1.425 . S
C925 C922 1.409 . S
C925 C923 1.415 . S
C926 H916 0.930 . S
C926 C924 1.419 . S
C926 C927 1.362 . S
C927 H917 0.930 . S
C927 C920 1.409 . S
C927 C926 1.362 . S
H928 C934 0.930 . S
H929 C937 0.930 . S
H930 C938 0.930 . S
H931 C939 0.930 . S
H932 C942 0.930 . S
H933 C943 0.930 . S
C934 H928 0.930 . S
C934 C935 1.355 . S
C934 C936 1.415 . S
C935 C934 1.355 . S
C935 C937 1.419 . S
C936 C934 1.415 . S
C936 C941 1.425 . S
C936 C943 1.409 . S
C937 H929 0.930 . S
C937 C935 1.419 . S
C937 C938 1.362 . S
C938 H930 0.930 . S
C938 C937 1.362 . S
C938 C941 1.409 . S
C939 H931 0.930 . S
C939 C940 1.355 . S
C939 C941 1.415 . S
C940 C939 1.355 . S
C940 C942 1.419 . S
C941 C936 1.425 . S
C941 C938 1.409 . S
C941 C939 1.415 . S
C942 H932 0.930 . S
C942 C940 1.419 . S
C942 C943 1.362 . S
C943 H933 0.930 . S
C943 C936 1.409 . S
C943 C942 1.362 . S
H944 C950 0.930 . S
H945 C953 0.930 . S
H946 C954 0.930 . S
H947 C955 0.930 . S
H948 C958 0.930 . S
H949 C959 0.930 . S
C950 H944 0.930 . S
C950 C951 1.355 . S
C950 C952 1.415 . S
C951 C950 1.355 . S
C951 C953 1.419 . S
C952 C950 1.415 . S
C952 C957 1.425 . S
C952 C959 1.409 . S
C953 H945 0.930 . S
C953 C951 1.419 . S
C953 C954 1.362 . S
C954 H946 0.930 . S
C954 C953 1.362 . S
C954 C957 1.409 . S
C955 H947 0.930 . S
C955 C956 1.355 . S
C955 C957 1.415 . S
C956 C955 1.355 . S
C956 C958 1.419 . S
C957 C952 1.425 . S
C957 C954 1.409 . S
C957 C955 1.415 . S
C958 H948 0.930 . S
C958 C956 1.419 . S
C958 C959 1.362 . S
C959 H949 0.930 . S
C959 C952 1.409 . S
C959 C958 1.362 . S
H960 C966 0.930 . S
H961 C969 0.930 . S
H962 C970 0.930 . S
H963 C971 0.930 . S
H964 C974 0.930 . S
H965 C975 0.930 . S
C966 H960 0.930 . S
C966 C967 1.355 . S
C966 C968 1.415 . S
C967 C966 1.355 . S
C967 C969 1.419 . S
C968 C966 1.415 . S
C968 C973 1.425 . S
C968 C975 1.409 . S
C969 H961 0.930 . S
C969 C967 1.419 . S
C969 C970 1.362 . S
C970 H962 0.930 . S
C970 C969 1.362 . S
C970 C973 1.409 . S
C971 H963 0.930 . S
C971 C972 1.355 . S
C971 C973 1.415 . S
C972 C971 1.355 . S
C972 C974 1.419 . S
C973 C968 1.425 . S
C973 C970 1.409 . S
C973 C971 1.415 . S
C974 H964 0.930 . S
C974 C972 1.419 . S
C974 C975 1.362 . S
C975 H965 0.930 . S
C975 C968 1.409 . S
C975 C974 1.362 . S
H976 C982 0.930 . S
H977 C985 0.930 . S
H978 C986 0.930 . S
H979 C987 0.930 . S
H980 C990 0.930 . S
H981 C991 0.930 . S
C982 H976 0.930 . S
C982 C983 1.355 . S
C982 C984 1.415 . S
C983 C982 1.355 . S
C983 C985 1.419 . S
C984 C982 1.415 . S
C984 C989 1.425 . S
C984 C991 1.409 . S
C985 H977 0.930 . S
C985 C983 1.419 . S
C985 C986 1.362 . S
C986 H978 0.930 . S
C986 C985 1.362 . S
C986 C989 1.409 . S
C987 H979 0.930 . S
C987 C988 1.355 . S
C987 C989 1.415 . S
C988 C987 1.355 . S
C988 C990 1.419 . S
C989 C984 1.425 . S
C989 C986 1.409 . S
C989 C987 1.415 . S
C990 H980 0.930 . S
C990 C988 1.419 . S
C990 C991 1.362 . S
C991 H981 0.930 . S
C991 C984 1.409 . S
C991 C990 1.362 . S
H992 C998 0.930 . S
H993 C1001 0.930 . S
H994 C1002 0.930 . S
H995 C1003 0.930 . S
H996 C1006 0.930 . S
H997 C1007 0.930 . S
C998 H992 0.930 . S
C998 C999 1.355 . S
C998 C1000 1.415 . S
C999 C998 1.355 . S
C999 C1001 1.419 . S
C1000 C998 1.415 . S
C1000 C1005 1.425 . S
C1000 C1007 1.409 . S
C1001 H993 0.930 . S
C1001 C999 1.419 . S
C1001 C1002 1.362 . S
C1002 H994 0.930 . S
C1002 C1001 1.362 . S
C1002 C1005 1.409 . S
C1003 H995 0.930 . S
C1003 C1004 1.355 . S
C1003 C1005 1.415 . S
C1004 C1003 1.355 . S
C1004 C1006 1.419 . S
C1005 C1000 1.425 . S
C1005 C1002 1.409 . S
C1005 C1003 1.415 . S
C1006 H996 0.930 . S
C1006 C1004 1.419 . S
C1006 C1007 1.362 . S
C1007 H997 0.930 . S
C1007 C1000 1.409 . S
C1007 C1006 1.362 . S
H1008 C1014 0.930 . S
H1009 C1017 0.930 . S
H1010 C1018 0.930 . S
H1011 C1019 0.930 . S
H1012 C1022 0.930 . S
H1013 C1023 0.930 . S
C1014 H1008 0.930 . S
C1014 C1015 1.355 . S
C1014 C1016 1.415 . S
C1015 C1014 1.355 . S
C1015 C1017 1.419 . S
C1016 C1014 1.415 . S
C1016 C1021 1.425 . S
C1016 C1023 1.409 . S
C1017 H1009 0.930 . S
C1017 C1015 1.419 . S
C1017 C1018 1.362 . S
C1018 H1010 0.930 . S
C1018 C1017 1.362 . S
C1018 C1021 1.409 . S
C1019 H1011 0.930 . S
C1019 C1020 1.355 . S
C1019 C1021 1.415 . S
C1020 C1019 1.355 . S
C1020 C1022 1.419 . S
C1021 C1016 1.425 . S
C1021 C1018 1.409 . S
C1021 C1019 1.415 . S
C1022 H1012 0.930 . S
C1022 C1020 1.419 . S
C1022 C1023 1.362 . S
C1023 H1013 0.930 . S
C1023 C1016 1.409 . S
C1023 C1022 1.362 . S
H1024 C1030 0.930 . S
H1025 C1033 0.930 . S
H1026 C1034 0.930 . S
H1027 C1035 0.930 . S
H1028 C1038 0.930 . S
H1029 C1039 0.930 . S
C1030 H1024 0.930 . S
C1030 C1031 1.355 . S
C1030 C1032 1.415 . S
C1031 C1030 1.355 . S
C1031 C1033 1.419 . S
C1032 C1030 1.415 . S
C1032 C1037 1.425 . S
C1032 C1039 1.409 . S
C1033 H1025 0.930 . S
C1033 C1031 1.419 . S
C1033 C1034 1.362 . S
C1034 H1026 0.930 . S
C1034 C1033 1.362 . S
C1034 C1037 1.409 . S
C1035 H1027 0.930 . S
C1035 C1036 1.355 . S
C1035 C1037 1.415 . S
C1036 C1035 1.355 . S
C1036 C1038 1.419 . S
C1037 C1032 1.425 . S
C1037 C1034 1.409 . S
C1037 C1035 1.415 . S
C1038 H1028 0.930 . S
C1038 C1036 1.419 . S
C1038 C1039 1.362 . S
C1039 H1029 0.930 . S
C1039 C1032 1.409 . S
C1039 C1038 1.362 . S
H1040 C1046 0.930 . S
H1041 C1049 0.930 . S
H1042 C1050 0.930 . S
H1043 C1051 0.930 . S
H1044 C1054 0.930 . S
H1045 C1055 0.930 . S
C1046 H1040 0.930 . S
C1046 C1047 1.355 . S
C1046 C1048 1.415 . S
C1047 C1046 1.355 . S
C1047 C1049 1.419 . S
C1048 C1046 1.415 . S
C1048 C1053 1.425 . S
C1048 C1055 1.409 . S
C1049 H1041 0.930 . S
C1049 C1047 1.419 . S
C1049 C1050 1.362 . S
C1050 H1042 0.930 . S
C1050 C1049 1.362 . S
C1050 C1053 1.409 . S
C1051 H1043 0.930 . S
C1051 C1052 1.355 . S
C1051 C1053 1.415 . S
C1052 C1051 1.355 . S
C1052 C1054 1.419 . S
C1053 C1048 1.425 . S
C1053 C1050 1.409 . S
C1053 C1051 1.415 . S
C1054 H1044 0.930 . S
C1054 C1052 1.419 . S
C1054 C1055 1.362 . S
C1055 H1045 0.930 . S
C1055 C1048 1.409 . S
C1055 C1054 1.362 . S
H1056 C1062 0.930 . S
H1057 C1065 0.930 . S
H1058 C1066 0.930 . S
H1059 C1067 0.930 . S
H1060 C1070 0.930 . S
H1061 C1071 0.930 . S
C1062 H1056 0.930 . S
C1062 C1063 1.355 . S
C1062 C1064 1.415 . S
C1063 C1062 1.355 . S
C1063 C1065 1.419 . S
C1064 C1062 1.415 . S
C1064 C1069 1.425 . S
C1064 C1071 1.409 . S
C1065 H1057 0.930 . S
C1065 C1063 1.419 . S
C1065 C1066 1.362 . S
C1066 H1058 0.930 . S
C1066 C1065 1.362 . S
C1066 C1069 1.409 . S
C1067 H1059 0.930 . S
C1067 C1068 1.355 . S
C1067 C1069 1.415 . S
C1068 C1067 1.355 . S
C1068 C1070 1.419 . S
C1069 C1064 1.425 . S
C1069 C1066 1.409 . S
C1069 C1067 1.415 . S
C1070 H1060 0.930 . S
C1070 C1068 1.419 . S
C1070 C1071 1.362 . S
C1071 H1061 0.930 . S
C1071 C1064 1.409 . S
C1071 C1070 1.362 . S
H1072 C1078 0.930 . S
H1073 C1081 0.930 . S
H1074 C1082 0.930 . S
H1075 C1083 0.930 . S
H1076 C1086 0.930 . S
H1077 C1087 0.930 . S
C1078 H1072 0.930 . S
C1078 C1079 1.355 . S
C1078 C1080 1.415 . S
C1079 C1078 1.355 . S
C1079 C1081 1.419 . S
C1080 C1078 1.415 . S
C1080 C1085 1.425 . S
C1080 C1087 1.409 . S
C1081 H1073 0.930 . S
C1081 C1079 1.419 . S
C1081 C1082 1.362 . S
C1082 H1074 0.930 . S
C1082 C1081 1.362 . S
C1082 C1085 1.409 . S
C1083 H1075 0.930 . S
C1083 C1084 1.355 . S
C1083 C1085 1.415 . S
C1084 C1083 1.355 . S
C1084 C1086 1.419 . S
C1085 C1080 1.425 . S
C1085 C1082 1.409 . S
C1085 C1083 1.415 . S
C1086 H1076 0.930 . S
C1086 C1084 1.419 . S
C1086 C1087 1.362 . S
C1087 H1077 0.930 . S
C1087 C1080 1.409 . S
C1087 C1086 1.362 . S
H1088 C1094 0.930 . S
H1089 C1097 0.930 . S
H1090 C1098 0.930 . S
H1091 C1099 0.930 . S
H1092 C1102 0.930 . S
H1093 C1103 0.930 . S
C1094 H1088 0.930 . S
C1094 C1095 1.355 . S
C1094 C1096 1.415 . S
C1095 C1094 1.355 . S
C1095 C1097 1.419 . S
C1096 C1094 1.415 . S
C1096 C1101 1.425 . S
C1096 C1103 1.409 . S
C1097 H1089 0.930 . S
C1097 C1095 1.419 . S
C1097 C1098 1.362 . S
C1098 H1090 0.930 . S
C1098 C1097 1.362 . S
C1098 C1101 1.409 . S
C1099 H1091 0.930 . S
C1099 C1100 1.355 . S
C1099 C1101 1.415 . S
C1100 C1099 1.355 . S
C1100 C1102 1.419 . S
C1101 C1096 1.425 . S
C1101 C1098 1.409 . S
C1101 C1099 1.415 . S
C1102 H1092 0.930 . S
C1102 C1100 1.419 . S
C1102 C1103 1.362 . S
C1103 H1093 0.930 . S
C1103 C1096 1.409 . S
C1103 C1102 1.362 . S
H1104 C1110 0.930 . S
H1105 C1113 0.930 . S
H1106 C1114 0.930 . S
H1107 C1115 0.930 . S
H1108 C1118 0.930 . S
H1109 C1119 0.930 . S
C1110 H1104 0.930 . S
C1110 C1111 1.355 . S
C1110 C1112 1.415 . S
C1111 C1110 1.355 . S
C1111 C1113 1.419 . S
C1112 C1110 1.415 . S
C1112 C1117 1.425 . S
C1112 C1119 1.409 . S
C1113 H1105 0.930 . S
C1113 C1111 1.419 . S
C1113 C1114 1.362 . S
C1114 H1106 0.930 . S
C1114 C1113 1.362 . S
C1114 C1117 1.409 . S
C1115 H1107 0.930 . S
C1115 C1116 1.355 . S
C1115 C1117 1.415 . S
C1116 C1115 1.355 . S
C1116 C1118 1.419 . S
C1117 C1112 1.425 . S
C1117 C1114 1.409 . S
C1117 C1115 1.415 . S
C1118 H1108 0.930 . S
C1118 C1116 1.419 . S
C1118 C1119 1.362 . S
C1119 H1109 0.930 . S
C1119 C1112 1.409 . S
C1119 C1118 1.362 . S
H1120 C1126 0.930 . S
H1121 C1129 0.930 . S
H1122 C1130 0.930 . S
H1123 C1131 0.930 . S
H1124 C1134 0.930 . S
H1125 C1135 0.930 . S
C1126 H1120 0.930 . S
C1126 C1127 1.355 . S
C1126 C1128 1.415 . S
C1127 C1126 1.355 . S
C1127 C1129 1.419 . S
C1128 C1126 1.415 . S
C1128 C1133 1.425 . S
C1128 C1135 1.409 . S
C1129 H1121 0.930 . S
C1129 C1127 1.419 . S
C1129 C1130 1.362 . S
C1130 H1122 0.930 . S
C1130 C1129 1.362 . S
C1130 C1133 1.409 . S
C1131 H1123 0.930 . S
C1131 C1132 1.355 . S
C1131 C1133 1.415 . S
C1132 C1131 1.355 . S
C1132 C1134 1.419 . S
C1133 C1128 1.425 . S
C1133 C1130 1.409 . S
C1133 C1131 1.415 . S
C1134 H1124 0.930 . S
C1134 C1132 1.419 . S
C1134 C1135 1.362 . S
C1135 H1125 0.930 . S
C1135 C1128 1.409 . S
C1135 C1134 1.362 . S
H1136 C1142 0.930 . S
H1137 C1145 0.930 . S
H1138 C1146 0.930 . S
H1139 C1147 0.930 . S
H1140 C1150 0.930 . S
H1141 C1151 0.930 . S
C1142 H1136 0.930 . S
C1142 C1143 1.355 . S
C1142 C1144 1.415 . S
C1143 C1142 1.355 . S
C1143 C1145 1.419 . S
C1144 C1142 1.415 . S
C1144 C1149 1.425 . S
C1144 C1151 1.409 . S
C1145 H1137 0.930 . S
C1145 C1143 1.419 . S
C1145 C1146 1.362 . S
C1146 H1138 0.930 . S
C1146 C1145 1.362 . S
C1146 C1149 1.409 . S
C1147 H1139 0.930 . S
C1147 C1148 1.355 . S
C1147 C1149 1.415 . S
C1148 C1147 1.355 . S
C1148 C1150 1.419 . S
C1149 C1144 1.425 . S
C1149 C1146 1.409 . S
C1149 C1147 1.415 . S
C1150 H1140 0.930 . S
C1150 C1148 1.419 . S
C1150 C1151 1.362 . S
C1151 H1141 0.930 . S
C1151 C1144 1.409 . S
C1151 C1150 1.362 . S
H1152 C1158 0.930 . S
H1153 C1161 0.930 . S
H1154 C1162 0.930 . S
H1155 C1163 0.930 . S
H1156 C1166 0.930 . S
H1157 C1167 0.930 . S
C1158 H1152 0.930 . S
C1158 C1159 1.355 . S
C1158 C1160 1.415 . S
C1159 C1158 1.355 . S
C1159 C1161 1.419 . S
C1160 C1158 1.415 . S
C1160 C1165 1.425 . S
C1160 C1167 1.409 . S
C1161 H1153 0.930 . S
C1161 C1159 1.419 . S
C1161 C1162 1.362 . S
C1162 H1154 0.930 . S
C1162 C1161 1.362 . S
C1162 C1165 1.409 . S
C1163 H1155 0.930 . S
C1163 C1164 1.355 . S
C1163 C1165 1.415 . S
C1164 C1163 1.355 . S
C1164 C1166 1.419 . S
C1165 C1160 1.425 . S
C1165 C1162 1.409 . S
C1165 C1163 1.415 . S
C1166 H1156 0.930 . S
C1166 C1164 1.419 . S
C1166 C1167 1.362 . S
C1167 H1157 0.930 . S
C1167 C1160 1.409 . S
C1167 C1166 1.362 . S
H1168 C1174 0.930 . S
H1169 C1177 0.930 . S
H1170 C1178 0.930 . S
H1171 C1179 0.930 . S
H1172 C1182 0.930 . S
H1173 C1183 0.930 . S
C1174 H1168 0.930 . S
C1174 C1175 1.355 . S
C1174 C1176 1.415 . S
C1175 C1174 1.355 . S
C1175 C1177 1.419 . S
C1176 C1174 1.415 . S
C1176 C1181 1.425 . S
C1176 C1183 1.409 . S
C1177 H1169 0.930 . S
C1177 C1175 1.419 . S
C1177 C1178 1.362 . S
C1178 H1170 0.930 . S
C1178 C1177 1.362 . S
C1178 C1181 1.409 . S
C1179 H1171 0.930 . S
C1179 C1180 1.355 . S
C1179 C1181 1.415 . S
C1180 C1179 1.355 . S
C1180 C1182 1.419 . S
C1181 C1176 1.425 . S
C1181 C1178 1.409 . S
C1181 C1179 1.415 . S
C1182 H1172 0.930 . S
C1182 C1180 1.419 . S
C1182 C1183 1.362 . S
C1183 H1173 0.930 . S
C1183 C1176 1.409 . S
C1183 C1182 1.362 . S
H1184 C1190 0.930 . S
H1185 C1193 0.930 . S
H1186 C1194 0.930 . S
H1187 C1195 0.930 . S
H1188 C1198 0.930 . S
H1189 C1199 0.930 . S
C1190 H1184 0.930 . S
C1190 C1191 1.355 . S
C1190 C1192 1.415 . S
C1191 C1190 1.355 . S
C1191 C1193 1.419 . S
C1192 C1190 1.415 . S
C1192 C1197 1.425 . S
C1192 C1199 1.409 . S
C1193 H1185 0.930 . S
C1193 C1191 1.419 . S
C1193 C1194 1.362 . S
C1194 H1186 0.930 . S
C1194 C1193 1.362 . S
C1194 C1197 1.409 . S
C1195 H1187 0.930 . S
C1195 C1196 1.355 . S
C1195 C1197 1.415 . S
C1196 C1195 1.355 . S
C1196 C1198 1.419 . S
C1197 C1192 1.425 . S
C1197 C1194 1.409 . S
C1197 C1195 1.415 . S
C1198 H1188 0.930 . S
C1198 C1196 1.419 . S
C1198 C1199 1.362 . S
C1199 H1189 0.930 . S
C1199 C1192 1.409 . S
C1199 C1198 1.362 . S
H1200 C1206 0.930 . S
H1201 C1209 0.930 . S
H1202 C1210 0.930 . S
H1203 C1211 0.930 . S
H1204 C1214 0.930 . S
H1205 C1215 0.930 . S
C1206 H1200 0.930 . S
C1206 C1207 1.355 . S
C1206 C1208 1.415 . S
C1207 C1206 1.355 . S
C1207 C1209 1.419 . S
C1208 C1206 1.415 . S
C1208 C1213 1.425 . S
C1208 C1215 1.409 . S
C1209 H1201 0.930 . S
C1209 C1207 1.419 . S
C1209 C1210 1.362 . S
C1210 H1202 0.930 . S
C1210 C1209 1.362 . S
C1210 C1213 1.409 . S
C1211 H1203 0.930 . S
C1211 C1212 1.355 . S
C1211 C1213 1.415 . S
C1212 C1211 1.355 . S
C1212 C1214 1.419 . S
C1213 C1208 1.425 . S
C1213 C1210 1.409 . S
C1213 C1211 1.415 . S
C1214 H1204 0.930 . S
C1214 C1212 1.419 . S
C1214 C1215 1.362 . S
C1215 H1205 0.930 . S
C1215 C1208 1.409 . S
C1215 C1214 1.362 . S
H1216 C1222 0.930 . S
H1217 C1225 0.930 . S
H1218 C1226 0.930 . S
H1219 C1227 0.930 . S
H1220 C1230 0.930 . S
H1221 C1231 0.930 . S
C1222 H1216 0.930 . S
C1222 C1223 1.355 . S
C1222 C1224 1.415 . S
C1223 C1222 1.355 . S
C1223 C1225 1.419 . S
C1224 C1222 1.415 . S
C1224 C1229 1.425 . S
C1224 C1231 1.409 . S
C1225 H1217 0.930 . S
C1225 C1223 1.419 . S
C1225 C1226 1.362 . S
C1226 H1218 0.930 . S
C1226 C1225 1.362 . S
C1226 C1229 1.409 . S
C1227 H1219 0.930 . S
C1227 C1228 1.355 . S
C1227 C1229 1.415 . S
C1228 C1227 1.355 . S
C1228 C1230 1.419 . S
C1229 C1224 1.425 . S
C1229 C1226 1.409 . S
C1229 C1227 1.415 . S
C1230 H1220 0.930 . S
C1230 C1228 1.419 . S
C1230 C1231 1.362 . S
C1231 H1221 0.930 . S
C1231 C1224 1.409 . S
C1231 C1230 1.362 . S
H1232 C1238 0.930 . S
H1233 C1241 0.930 . S
H1234 C1242 0.930 . S
H1235 C1243 0.930 . S
H1236 C1246 0.930 . S
H1237 C1247 0.930 . S
C1238 H1232 0.930 . S
C1238 C1239 1.355 . S
C1238 C1240 1.415 . S
C1239 C1238 1.355 . S
C1239 C1241 1.419 . S
C1240 C1238 1.415 . S
C1240 C1245 1.425 . S
C1240 C1247 1.409 . S
C1241 H1233 0.930 . S
C1241 C1239 1.419 . S
C1241 C1242 1.362 . S
C1242 H1234 0.930 . S
C1242 C1241 1.362 . S
C1242 C1245 1.409 . S
C1243 H1235 0.930 . S
C1243 C1244 1.355 . S
C1243 C1245 1.415 . S
C1244 C1243 1.355 . S
C1244 C1246 1.419 . S
C1245 C1240 1.425 . S
C1245 C1242 1.409 . S
C1245 C1243 1.415 . S
C1246 H1236 0.930 . S
C1246 C1244 1.419 . S
C1246 C1247 1.362 . S
C1247 H1237 0.930 . S
C1247 C1240 1.409 . S
C1247 C1246 1.362 . S
H1248 C1254 0.930 . S
H1249 C1257 0.930 . S
H1250 C1258 0.930 . S
H1251 C1259 0.930 . S
H1252 C1262 0.930 . S
H1253 C1263 0.930 . S
C1254 H1248 0.930 . S
C1254 C1255 1.350 1_556 S
C1254 C1256 1.415 1_565 S
C1255 C1254 1.350 1_554 S
C1255 C1257 1.425 . S
C1256 C1254 1.415 1_545 S
C1256 C1261 1.425 1_546 S
C1256 C1263 1.409 . S
C1257 H1249 0.930 . S
C1257 C1255 1.425 . S
C1257 C1258 1.362 . S
C1258 H1250 0.930 . S
C1258 C1257 1.362 . S
C1258 C1261 1.409 . S
C1259 H1251 0.930 . S
C1259 C1260 1.374 . S
C1259 C1261 1.415 1_545 S
C1260 C1259 1.374 . S
C1260 C1262 1.394 1_554 S
C1261 C1256 1.425 1_564 S
C1261 C1258 1.409 . S
C1261 C1259 1.415 1_565 S
C1262 H1252 0.930 . S
C1262 C1260 1.394 1_556 S
C1262 C1263 1.362 . S
C1263 H1253 0.930 . S
C1263 C1256 1.409 . S
C1263 C1262 1.362 . S
H1264 C1270 0.930 . S
H1265 C1273 0.930 . S
H1266 C1274 0.930 . S
H1267 C1275 0.930 . S
H1268 C1278 0.930 . S
H1269 C1279 0.930 . S
C1270 H1264 0.930 . S
C1270 C1271 1.355 . S
C1270 C1272 1.415 . S
C1271 C1270 1.355 . S
C1271 C1273 1.419 1_554 S
C1272 C1270 1.415 . S
C1272 C1277 1.425 1_554 S
C1272 C1279 1.409 . S
C1273 H1265 0.930 . S
C1273 C1271 1.419 1_556 S
C1273 C1274 1.362 . S
C1274 H1266 0.930 . S
C1274 C1273 1.362 . S
C1274 C1277 1.409 . S
C1275 H1267 0.930 . S
C1275 C1276 1.363 . S
C1275 C1277 1.415 . S
C1276 C1275 1.363 . S
C1276 C1278 1.408 1_556 S
C1277 C1272 1.425 1_556 S
C1277 C1274 1.409 . S
C1277 C1275 1.415 . S
C1278 H1268 0.930 . S
C1278 C1276 1.408 1_554 S
C1278 C1279 1.362 . S
C1279 H1269 0.930 . S
C1279 C1272 1.409 . S
C1279 C1278 1.362 . S
H1280 C1286 0.930 . S
H1281 C1289 0.930 . S
H1282 C1290 0.930 . S
H1283 C1291 0.930 . S
H1284 C1294 0.930 . S
H1285 C1295 0.930 . S
C1286 H1280 0.930 . S
C1286 C1287 1.355 . S
C1286 C1288 1.415 . S
C1287 C1286 1.355 . S
C1287 C1289 1.419 . S
C1288 C1286 1.415 . S
C1288 C1293 1.425 . S
C1288 C1295 1.409 . S
C1289 H1281 0.930 . S
C1289 C1287 1.419 . S
C1289 C1290 1.362 . S
C1290 H1282 0.930 . S
C1290 C1289 1.362 . S
C1290 C1293 1.409 . S
C1291 H1283 0.930 . S
C1291 C1292 1.355 . S
C1291 C1293 1.415 . S
C1292 C1291 1.355 . S
C1292 C1294 1.419 . S
C1293 C1288 1.425 . S
C1293 C1290 1.409 . S
C1293 C1291 1.415 . S
C1294 H1284 0.930 . S
C1294 C1292 1.419 . S
C1294 C1295 1.362 . S
C1295 H1285 0.930 . S
C1295 C1288 1.409 . S
C1295 C1294 1.362 . S
H1296 C1302 0.930 . S
H1297 C1305 0.930 . S
H1298 C1306 0.923 1_545 S
H1299 C1307 0.930 . S
H1300 C1310 0.930 . S
H1301 C1311 0.934 . S
C1302 H1296 0.930 . S
C1302 C1303 1.355 . S
C1302 C1304 1.415 . S
C1303 C1302 1.355 . S
C1303 C1305 1.419 . S
C1304 C1302 1.415 . S
C1304 C1309 1.425 1_565 S
C1304 C1311 1.411 . S
C1305 H1297 0.930 . S
C1305 C1303 1.419 . S
C1305 C1306 1.374 . S
C1306 H1298 0.923 1_565 S
C1306 C1305 1.374 . S
C1306 C1309 1.405 1_565 S
C1307 H1299 0.930 . S
C1307 C1308 1.355 . S
C1307 C1309 1.415 . S
C1308 C1307 1.355 . S
C1308 C1310 1.419 . S
C1309 C1304 1.425 1_545 S
C1309 C1306 1.405 1_545 S
C1309 C1307 1.415 . S
C1310 H1300 0.930 . S
C1310 C1308 1.419 . S
C1310 C1311 1.357 1_545 S
C1311 H1301 0.934 . S
C1311 C1304 1.411 . S
C1311 C1310 1.357 1_565 S
H1312 C1318 0.930 . S
H1313 C1321 0.930 . S
H1314 C1322 0.930 . S
H1315 C1323 0.930 . S
H1316 C1326 0.930 . S
H1317 C1327 0.930 . S
C1318 H1312 0.930 . S
C1318 C1319 1.330 1_556 S
C1318 C1320 1.415 . S
C1319 C1318 1.330 1_554 S
C1319 C1321 1.452 . S
C1320 C1318 1.415 . S
C1320 C1325 1.425 1_556 S
C1320 C1327 1.409 . S
C1321 H1313 0.930 . S
C1321 C1319 1.452 . S
C1321 C1322 1.362 . S
C1322 H1314 0.930 . S
C1322 C1321 1.362 . S
C1322 C1325 1.409 . S
C1323 H1315 0.930 . S
C1323 C1324 1.370 . S
C1323 C1325 1.415 . S
C1324 C1323 1.370 . S
C1324 C1326 1.400 1_554 S
C1325 C1320 1.425 1_554 S
C1325 C1322 1.409 . S
C1325 C1323 1.415 . S
C1326 H1316 0.930 . S
C1326 C1324 1.400 1_556 S
C1326 C1327 1.362 . S
C1327 H1317 0.930 . S
C1327 C1320 1.409 . S
C1327 C1326 1.362 . S
H1328 C1334 0.930 . S
H1329 C1337 0.930 . S
H1330 C1338 0.930 . S
H1331 C1339 0.930 . S
H1332 C1342 0.930 . S
H1333 C1343 0.930 . S
C1334 H1328 0.930 . S
C1334 C1335 1.355 . S
C1334 C1336 1.415 . S
C1335 C1334 1.355 . S
C1335 C1337 1.419 . S
C1336 C1334 1.415 . S
C1336 C1341 1.425 . S
C1336 C1343 1.409 . S
C1337 H1329 0.930 . S
C1337 C1335 1.419 . S
C1337 C1338 1.362 . S
C1338 H1330 0.930 . S
C1338 C1337 1.362 . S
C1338 C1341 1.409 . S
C1339 H1331 0.930 . S
C1339 C1340 1.355 . S
C1339 C1341 1.415 . S
C1340 C1339 1.355 . S
C1340 C1342 1.419 . S
C1341 C1336 1.425 . S
C1341 C1338 1.409 . S
C1341 C1339 1.415 . S
C1342 H1332 0.930 . S
C1342 C1340 1.419 . S
C1342 C1343 1.362 . S
C1343 H1333 0.930 . S
C1343 C1336 1.409 . S
C1343 C1342 1.362 . S
H1344 C1350 0.930 1_565 S
H1345 C1353 0.930 . S
H1346 C1354 0.930 . S
H1347 C1355 0.925 1_545 S
H1348 C1358 0.930 . S
H1349 C1359 0.930 . S
C1350 H1344 0.930 1_545 S
C1350 C1351 1.355 . S
C1350 C1352 1.415 1_545 S
C1351 C1350 1.355 . S
C1351 C1353 1.419 . S
C1352 C1350 1.415 1_565 S
C1352 C1357 1.425 1_565 S
C1352 C1359 1.409 . S
C1353 H1345 0.930 . S
C1353 C1351 1.419 . S
C1353 C1354 1.362 . S
C1354 H1346 0.930 . S
C1354 C1353 1.362 . S
C1354 C1357 1.409 . S
C1355 H1347 0.925 1_565 S
C1355 C1356 1.355 . S
C1355 C1357 1.415 1_565 S
C1356 C1355 1.355 . S
C1356 C1358 1.419 . S
C1357 C1352 1.425 1_545 S
C1357 C1354 1.409 . S
C1357 C1355 1.415 1_545 S
C1358 H1348 0.930 . S
C1358 C1356 1.419 . S
C1358 C1359 1.362 . S
C1359 H1349 0.930 . S
C1359 C1352 1.409 . S
C1359 C1358 1.362 . S
H1360 C1366 0.930 . S
H1361 C1369 0.930 . S
H1362 C1370 0.930 . S
H1363 C1371 0.930 . S
H1364 C1374 0.930 . S
H1365 C1375 0.930 . S
C1366 H1360 0.930 . S
C1366 C1367 1.355 . S
C1366 C1368 1.415 . S
C1367 C1366 1.355 . S
C1367 C1369 1.419 . S
C1368 C1366 1.415 . S
C1368 C1373 1.425 . S
C1368 C1375 1.409 . S
C1369 H1361 0.930 . S
C1369 C1367 1.419 . S
C1369 C1370 1.362 . S
C1370 H1362 0.930 . S
C1370 C1369 1.362 . S
C1370 C1373 1.409 . S
C1371 H1363 0.930 . S
C1371 C1372 1.355 . S
C1371 C1373 1.415 . S
C1372 C1371 1.355 . S
C1372 C1374 1.419 . S
C1373 C1368 1.425 . S
C1373 C1370 1.409 . S
C1373 C1371 1.415 . S
C1374 H1364 0.930 . S
C1374 C1372 1.419 . S
C1374 C1375 1.362 . S
C1375 H1365 0.930 . S
C1375 C1368 1.409 . S
C1375 C1374 1.362 . S
H1376 C1382 0.930 . S
H1377 C1385 0.930 . S
H1378 C1386 0.930 . S
H1379 C1387 0.930 . S
H1380 C1390 0.930 . S
H1381 C1391 0.930 . S
C1382 H1376 0.930 . S
C1382 C1383 1.355 . S
C1382 C1384 1.415 . S
C1383 C1382 1.355 . S
C1383 C1385 1.419 . S
C1384 C1382 1.415 . S
C1384 C1389 1.425 . S
C1384 C1391 1.409 . S
C1385 H1377 0.930 . S
C1385 C1383 1.419 . S
C1385 C1386 1.362 . S
C1386 H1378 0.930 . S
C1386 C1385 1.362 . S
C1386 C1389 1.409 . S
C1387 H1379 0.930 . S
C1387 C1388 1.355 . S
C1387 C1389 1.415 . S
C1388 C1387 1.355 . S
C1388 C1390 1.419 . S
C1389 C1384 1.425 . S
C1389 C1386 1.409 . S
C1389 C1387 1.415 . S
C1390 H1380 0.930 . S
C1390 C1388 1.419 . S
C1390 C1391 1.362 . S
C1391 H1381 0.930 . S
C1391 C1384 1.409 . S
C1391 C1390 1.362 . S
H1392 C1398 0.930 . S
H1393 C1401 0.930 . S
H1394 C1402 0.930 . S
H1395 C1403 0.930 . S
H1396 C1406 0.930 . S
H1397 C1407 0.930 . S
C1398 H1392 0.930 . S
C1398 C1399 1.355 . S
C1398 C1400 1.415 . S
C1399 C1398 1.355 . S
C1399 C1401 1.419 . S
C1400 C1398 1.415 . S
C1400 C1405 1.425 . S
C1400 C1407 1.409 . S
C1401 H1393 0.930 . S
C1401 C1399 1.419 . S
C1401 C1402 1.362 . S
C1402 H1394 0.930 . S
C1402 C1401 1.362 . S
C1402 C1405 1.409 . S
C1403 H1395 0.930 . S
C1403 C1404 1.355 . S
C1403 C1405 1.415 . S
C1404 C1403 1.355 . S
C1404 C1406 1.419 . S
C1405 C1400 1.425 . S
C1405 C1402 1.409 . S
C1405 C1403 1.415 . S
C1406 H1396 0.930 . S
C1406 C1404 1.419 . S
C1406 C1407 1.362 . S
C1407 H1397 0.930 . S
C1407 C1400 1.409 . S
C1407 C1406 1.362 . S
H1408 C1414 0.930 . S
H1409 C1417 0.930 . S
H1410 C1418 0.930 . S
H1411 C1419 0.930 . S
H1412 C1422 0.930 . S
H1413 C1423 0.930 . S
C1414 H1408 0.930 . S
C1414 C1415 1.355 . S
C1414 C1416 1.415 . S
C1415 C1414 1.355 . S
C1415 C1417 1.419 . S
C1416 C1414 1.415 . S
C1416 C1421 1.425 . S
C1416 C1423 1.409 . S
C1417 H1409 0.930 . S
C1417 C1415 1.419 . S
C1417 C1418 1.362 . S
C1418 H1410 0.930 . S
C1418 C1417 1.362 . S
C1418 C1421 1.409 . S
C1419 H1411 0.930 . S
C1419 C1420 1.355 . S
C1419 C1421 1.415 . S
C1420 C1419 1.355 . S
C1420 C1422 1.419 . S
C1421 C1416 1.425 . S
C1421 C1418 1.409 . S
C1421 C1419 1.415 . S
C1422 H1412 0.930 . S
C1422 C1420 1.419 . S
C1422 C1423 1.362 . S
C1423 H1413 0.930 . S
C1423 C1416 1.409 . S
C1423 C1422 1.362 . S
H1424 C1430 0.930 . S
H1425 C1433 0.930 . S
H1426 C1434 0.930 . S
H1427 C1435 0.930 . S
H1428 C1438 0.930 . S
H1429 C1439 0.930 . S
C1430 H1424 0.930 . S
C1430 C1431 1.355 . S
C1430 C1432 1.415 . S
C1431 C1430 1.355 . S
C1431 C1433 1.419 . S
C1432 C1430 1.415 . S
C1432 C1437 1.425 . S
C1432 C1439 1.409 . S
C1433 H1425 0.930 . S
C1433 C1431 1.419 . S
C1433 C1434 1.362 . S
C1434 H1426 0.930 . S
C1434 C1433 1.362 . S
C1434 C1437 1.409 . S
C1435 H1427 0.930 . S
C1435 C1436 1.355 . S
C1435 C1437 1.415 . S
C1436 C1435 1.355 . S
C1436 C1438 1.419 . S
C1437 C1432 1.425 . S
C1437 C1434 1.409 . S
C1437 C1435 1.415 . S
C1438 H1428 0.930 . S
C1438 C1436 1.419 . S
C1438 C1439 1.362 . S
C1439 H1429 0.930 . S
C1439 C1432 1.409 . S
C1439 C1438 1.362 . S
H1440 C1446 0.930 . S
H1441 C1449 0.930 . S
H1442 C1450 0.930 . S
H1443 C1451 0.935 . S
H1444 C1454 0.930 . S
H1445 C1455 0.930 . S
C1446 H1440 0.930 . S
C1446 C1447 1.355 . S
C1446 C1448 1.415 1_565 S
C1447 C1446 1.355 . S
C1447 C1449 1.419 . S
C1448 C1446 1.415 1_545 S
C1448 C1453 1.425 1_445 S
C1448 C1455 1.409 . S
C1449 H1441 0.930 . S
C1449 C1447 1.419 . S
C1449 C1450 1.362 1_455 S
C1450 H1442 0.930 . S
C1450 C1449 1.362 1_655 S
C1450 C1453 1.409 . S
C1451 H1443 0.935 . S
C1451 C1452 1.355 . S
C1451 C1453 1.415 1_545 S
C1452 C1451 1.355 . S
C1452 C1454 1.419 . S
C1453 C1448 1.425 1_665 S
C1453 C1450 1.409 . S
C1453 C1451 1.415 1_565 S
C1454 H1444 0.930 . S
C1454 C1452 1.419 . S
C1454 C1455 1.362 1_655 S
C1455 H1445 0.930 . S
C1455 C1448 1.409 . S
C1455 C1454 1.362 1_455 S
H1456 C1462 0.930 . S
H1457 C1465 0.930 . S
H1458 C1466 0.930 . S
H1459 C1467 0.930 . S
H1460 C1470 0.930 . S
H1461 C1471 0.930 . S
C1462 H1456 0.930 . S
C1462 C1463 1.355 . S
C1462 C1464 1.415 1_455 S
C1463 C1462 1.355 . S
C1463 C1465 1.419 . S
C1464 C1462 1.415 1_655 S
C1464 C1469 1.425 1_655 S
C1464 C1471 1.409 . S
C1465 H1457 0.930 . S
C1465 C1463 1.419 . S
C1465 C1466 1.362 . S
C1466 H1458 0.930 . S
C1466 C1465 1.362 . S
C1466 C1469 1.409 . S
C1467 H1459 0.930 . S
C1467 C1468 1.355 . S
C1467 C1469 1.415 1_655 S
C1468 C1467 1.355 . S
C1468 C1470 1.419 . S
C1469 C1464 1.425 1_455 S
C1469 C1466 1.409 . S
C1469 C1467 1.415 1_455 S
C1470 H1460 0.930 . S
C1470 C1468 1.419 . S
C1470 C1471 1.362 . S
C1471 H1461 0.930 . S
C1471 C1464 1.409 . S
C1471 C1470 1.362 . S
H1472 C1478 0.930 . S
H1473 C1481 0.930 . S
H1474 C1482 0.930 . S
H1475 C1483 0.930 . S
H1476 C1486 0.930 . S
H1477 C1487 0.930 . S
C1478 H1472 0.930 . S
C1478 C1479 1.355 . S
C1478 C1480 1.415 . S
C1479 C1478 1.355 . S
C1479 C1481 1.419 . S
C1480 C1478 1.415 . S
C1480 C1485 1.425 1_655 S
C1480 C1487 1.409 . S
C1481 H1473 0.930 . S
C1481 C1479 1.419 . S
C1481 C1482 1.362 1_655 S
C1482 H1474 0.930 . S
C1482 C1481 1.362 1_455 S
C1482 C1485 1.409 . S
C1483 H1475 0.930 . S
C1483 C1484 1.355 . S
C1483 C1485 1.415 . S
C1484 C1483 1.355 . S
C1484 C1486 1.419 . S
C1485 C1480 1.425 1_455 S
C1485 C1482 1.409 . S
C1485 C1483 1.415 . S
C1486 H1476 0.930 . S
C1486 C1484 1.419 . S
C1486 C1487 1.362 1_455 S
C1487 H1477 0.930 . S
C1487 C1480 1.409 . S
C1487 C1486 1.362 1_655 S
H1488 C1494 0.930 . S
H1489 C1497 0.930 . S
H1490 C1498 0.930 . S
H1491 C1499 0.930 . S
H1492 C1502 0.930 . S
H1493 C1503 0.930 . S
C1494 H1488 0.930 . S
C1494 C1495 1.355 1_556 S
C1494 C1496 1.415 1_655 S
C1495 C1494 1.355 1_554 S
C1495 C1497 1.419 . S
C1496 C1494 1.415 1_455 S
C1496 C1501 1.425 1_456 S
C1496 C1503 1.409 . S
C1497 H1489 0.930 . S
C1497 C1495 1.419 . S
C1497 C1498 1.362 . S
C1498 H1490 0.930 . S
C1498 C1497 1.362 . S
C1498 C1501 1.409 . S
C1499 H1491 0.930 . S
C1499 C1500 1.355 1_554 S
C1499 C1501 1.415 1_455 S
C1500 C1499 1.355 1_556 S
C1500 C1502 1.419 . S
C1501 C1496 1.425 1_654 S
C1501 C1498 1.409 . S
C1501 C1499 1.415 1_655 S
C1502 H1492 0.930 . S
C1502 C1500 1.419 . S
C1502 C1503 1.362 . S
C1503 H1493 0.930 . S
C1503 C1496 1.409 . S
C1503 C1502 1.362 . S
H1504 C1510 0.930 . S
H1505 C1513 0.930 . S
H1506 C1514 0.930 . S
H1507 C1515 0.930 . S
H1508 C1518 0.930 . S
H1509 C1519 0.930 . S
C1510 H1504 0.930 . S
C1510 C1511 1.355 . S
C1510 C1512 1.415 . S
C1511 C1510 1.355 . S
C1511 C1513 1.419 . S
C1512 C1510 1.415 . S
C1512 C1517 1.425 . S
C1512 C1519 1.409 . S
C1513 H1505 0.930 . S
C1513 C1511 1.419 . S
C1513 C1514 1.362 . S
C1514 H1506 0.930 . S
C1514 C1513 1.362 . S
C1514 C1517 1.409 . S
C1515 H1507 0.930 . S
C1515 C1516 1.355 . S
C1515 C1517 1.415 . S
C1516 C1515 1.355 . S
C1516 C1518 1.419 . S
C1517 C1512 1.425 . S
C1517 C1514 1.409 . S
C1517 C1515 1.415 . S
C1518 H1508 0.930 . S
C1518 C1516 1.419 . S
C1518 C1519 1.362 . S
C1519 H1509 0.930 . S
C1519 C1512 1.409 . S
C1519 C1518 1.362 . S
H1520 C1526 0.930 . S
H1521 C1529 0.930 . S
H1522 C1530 0.930 . S
H1523 C1531 0.930 . S
H1524 C1534 0.930 . S
H1525 C1535 0.930 . S
C1526 H1520 0.930 . S
C1526 C1527 1.355 . S
C1526 C1528 1.415 . S
C1527 C1526 1.355 . S
C1527 C1529 1.419 . S
C1528 C1526 1.415 . S
C1528 C1533 1.425 . S
C1528 C1535 1.409 . S
C1529 H1521 0.930 . S
C1529 C1527 1.419 . S
C1529 C1530 1.362 . S
C1530 H1522 0.930 . S
C1530 C1529 1.362 . S
C1530 C1533 1.409 . S
C1531 H1523 0.930 . S
C1531 C1532 1.355 . S
C1531 C1533 1.415 . S
C1532 C1531 1.355 . S
C1532 C1534 1.419 . S
C1533 C1528 1.425 . S
C1533 C1530 1.409 . S
C1533 C1531 1.415 . S
C1534 H1524 0.930 . S
C1534 C1532 1.419 . S
C1534 C1535 1.362 . S
C1535 H1525 0.930 . S
C1535 C1528 1.409 . S
C1535 C1534 1.362 . S
H1536 C1542 0.930 . S
H1537 C1545 0.930 . S
H1538 C1546 0.930 . S
H1539 C1547 0.930 . S
H1540 C1550 0.930 . S
H1541 C1551 0.930 . S
C1542 H1536 0.930 . S
C1542 C1543 1.355 . S
C1542 C1544 1.415 . S
C1543 C1542 1.355 . S
C1543 C1545 1.419 . S
C1544 C1542 1.415 . S
C1544 C1549 1.425 . S
C1544 C1551 1.409 . S
C1545 H1537 0.930 . S
C1545 C1543 1.419 . S
C1545 C1546 1.362 . S
C1546 H1538 0.930 . S
C1546 C1545 1.362 . S
C1546 C1549 1.409 . S
C1547 H1539 0.930 . S
C1547 C1548 1.355 . S
C1547 C1549 1.415 . S
C1548 C1547 1.355 . S
C1548 C1550 1.419 . S
C1549 C1544 1.425 . S
C1549 C1546 1.409 . S
C1549 C1547 1.415 . S
C1550 H1540 0.930 . S
C1550 C1548 1.419 . S
C1550 C1551 1.362 . S
C1551 H1541 0.930 . S
C1551 C1544 1.409 . S
C1551 C1550 1.362 . S
H1552 C1558 0.930 . S
H1553 C1561 0.930 . S
H1554 C1562 0.930 . S
H1555 C1563 0.930 . S
H1556 C1566 0.930 . S
H1557 C1567 0.930 . S
C1558 H1552 0.930 . S
C1558 C1559 1.355 . S
C1558 C1560 1.415 . S
C1559 C1558 1.355 . S
C1559 C1561 1.419 . S
C1560 C1558 1.415 . S
C1560 C1565 1.425 . S
C1560 C1567 1.409 . S
C1561 H1553 0.930 . S
C1561 C1559 1.419 . S
C1561 C1562 1.362 . S
C1562 H1554 0.930 . S
C1562 C1561 1.362 . S
C1562 C1565 1.409 . S
C1563 H1555 0.930 . S
C1563 C1564 1.355 . S
C1563 C1565 1.415 . S
C1564 C1563 1.355 . S
C1564 C1566 1.419 . S
C1565 C1560 1.425 . S
C1565 C1562 1.409 . S
C1565 C1563 1.415 . S
C1566 H1556 0.930 . S
C1566 C1564 1.419 . S
C1566 C1567 1.362 . S
C1567 H1557 0.930 . S
C1567 C1560 1.409 . S
C1567 C1566 1.362 . S
H1568 C1574 0.930 . S
H1569 C1577 0.930 . S
H1570 C1578 0.930 . S
H1571 C1579 0.930 . S
H1572 C1582 0.930 . S
H1573 C1583 0.930 . S
C1574 H1568 0.930 . S
C1574 C1575 1.355 . S
C1574 C1576 1.415 . S
C1575 C1574 1.355 . S
C1575 C1577 1.419 . S
C1576 C1574 1.415 . S
C1576 C1581 1.425 . S
C1576 C1583 1.409 . S
C1577 H1569 0.930 . S
C1577 C1575 1.419 . S
C1577 C1578 1.362 . S
C1578 H1570 0.930 . S
C1578 C1577 1.362 . S
C1578 C1581 1.409 . S
C1579 H1571 0.930 . S
C1579 C1580 1.355 . S
C1579 C1581 1.415 . S
C1580 C1579 1.355 . S
C1580 C1582 1.419 . S
C1581 C1576 1.425 . S
C1581 C1578 1.409 . S
C1581 C1579 1.415 . S
C1582 H1572 0.930 . S
C1582 C1580 1.419 . S
C1582 C1583 1.362 . S
C1583 H1573 0.930 . S
C1583 C1576 1.409 . S
C1583 C1582 1.362 . S
H1584 C1590 0.930 . S
H1585 C1593 0.930 . S
H1586 C1594 0.930 . S
H1587 C1595 0.930 . S
H1588 C1598 0.930 . S
H1589 C1599 0.930 . S
C1590 H1584 0.930 . S
C1590 C1591 1.355 . S
C1590 C1592 1.415 . S
C1591 C1590 1.355 . S
C1591 C1593 1.419 . S
C1592 C1590 1.415 . S
C1592 C1597 1.425 . S
C1592 C1599 1.409 . S
C1593 H1585 0.930 . S
C1593 C1591 1.419 . S
C1593 C1594 1.362 . S
C1594 H1586 0.930 . S
C1594 C1593 1.362 . S
C1594 C1597 1.409 . S
C1595 H1587 0.930 . S
C1595 C1596 1.355 . S
C1595 C1597 1.415 . S
C1596 C1595 1.355 . S
C1596 C1598 1.419 . S
C1597 C1592 1.425 . S
C1597 C1594 1.409 . S
C1597 C1595 1.415 . S
C1598 H1588 0.930 . S
C1598 C1596 1.419 . S
C1598 C1599 1.362 . S
C1599 H1589 0.930 . S
C1599 C1592 1.409 . S
C1599 C1598 1.362 . S
H1600 C1606 0.930 . S
H1601 C1609 0.930 . S
H1602 C1610 0.930 . S
H1603 C1611 0.930 . S
H1604 C1614 0.930 . S
H1605 C1615 0.930 . S
C1606 H1600 0.930 . S
C1606 C1607 1.355 . S
C1606 C1608 1.415 . S
C1607 C1606 1.355 . S
C1607 C1609 1.419 . S
C1608 C1606 1.415 . S
C1608 C1613 1.425 . S
C1608 C1615 1.409 . S
C1609 H1601 0.930 . S
C1609 C1607 1.419 . S
C1609 C1610 1.362 . S
C1610 H1602 0.930 . S
C1610 C1609 1.362 . S
C1610 C1613 1.409 . S
C1611 H1603 0.930 . S
C1611 C1612 1.355 . S
C1611 C1613 1.415 . S
C1612 C1611 1.355 . S
C1612 C1614 1.419 . S
C1613 C1608 1.425 . S
C1613 C1610 1.409 . S
C1613 C1611 1.415 . S
C1614 H1604 0.930 . S
C1614 C1612 1.419 . S
C1614 C1615 1.362 . S
C1615 H1605 0.930 . S
C1615 C1608 1.409 . S
C1615 C1614 1.362 . S
H1616 C1622 0.930 . S
H1617 C1625 0.930 . S
H1618 C1626 0.930 . S
H1619 C1627 0.930 . S
H1620 C1630 0.930 . S
H1621 C1631 0.930 . S
C1622 H1616 0.930 . S
C1622 C1623 1.355 . S
C1622 C1624 1.415 . S
C1623 C1622 1.355 . S
C1623 C1625 1.419 . S
C1624 C1622 1.415 . S
C1624 C1629 1.425 . S
C1624 C1631 1.409 . S
C1625 H1617 0.930 . S
C1625 C1623 1.419 . S
C1625 C1626 1.362 . S
C1626 H1618 0.930 . S
C1626 C1625 1.362 . S
C1626 C1629 1.409 . S
C1627 H1619 0.930 . S
C1627 C1628 1.355 . S
C1627 C1629 1.415 . S
C1628 C1627 1.355 . S
C1628 C1630 1.419 . S
C1629 C1624 1.425 . S
C1629 C1626 1.409 . S
C1629 C1627 1.415 . S
C1630 H1620 0.930 . S
C1630 C1628 1.419 . S
C1630 C1631 1.362 . S
C1631 H1621 0.930 . S
C1631 C1624 1.409 . S
C1631 C1630 1.362 . S
H1632 C1638 0.930 . S
H1633 C1641 0.930 . S
H1634 C1642 0.930 . S
H1635 C1643 0.930 . S
H1636 C1646 0.930 . S
H1637 C1647 0.930 . S
C1638 H1632 0.930 . S
C1638 C1639 1.355 . S
C1638 C1640 1.415 . S
C1639 C1638 1.355 . S
C1639 C1641 1.419 . S
C1640 C1638 1.415 . S
C1640 C1645 1.425 . S
C1640 C1647 1.409 . S
C1641 H1633 0.930 . S
C1641 C1639 1.419 . S
C1641 C1642 1.362 . S
C1642 H1634 0.930 . S
C1642 C1641 1.362 . S
C1642 C1645 1.409 . S
C1643 H1635 0.930 . S
C1643 C1644 1.355 . S
C1643 C1645 1.415 . S
C1644 C1643 1.355 . S
C1644 C1646 1.419 . S
C1645 C1640 1.425 . S
C1645 C1642 1.409 . S
C1645 C1643 1.415 . S
C1646 H1636 0.930 . S
C1646 C1644 1.419 . S
C1646 C1647 1.362 . S
C1647 H1637 0.930 . S
C1647 C1640 1.409 . S
C1647 C1646 1.362 . S
H1648 C1654 0.930 . S
H1649 C1657 0.930 . S
H1650 C1658 0.930 . S
H1651 C1659 0.930 . S
H1652 C1662 0.930 . S
H1653 C1663 0.930 . S
C1654 H1648 0.930 . S
C1654 C1655 1.355 . S
C1654 C1656 1.415 . S
C1655 C1654 1.355 . S
C1655 C1657 1.419 . S
C1656 C1654 1.415 . S
C1656 C1661 1.425 . S
C1656 C1663 1.409 . S
C1657 H1649 0.930 . S
C1657 C1655 1.419 . S
C1657 C1658 1.362 . S
C1658 H1650 0.930 . S
C1658 C1657 1.362 . S
C1658 C1661 1.409 . S
C1659 H1651 0.930 . S
C1659 C1660 1.355 . S
C1659 C1661 1.415 . S
C1660 C1659 1.355 . S
C1660 C1662 1.419 . S
C1661 C1656 1.425 . S
C1661 C1658 1.409 . S
C1661 C1659 1.415 . S
C1662 H1652 0.930 . S
C1662 C1660 1.419 . S
C1662 C1663 1.362 . S
C1663 H1653 0.930 . S
C1663 C1656 1.409 . S
C1663 C1662 1.362 . S
H1664 C1670 0.930 . S
H1665 C1673 0.930 . S
H1666 C1674 0.930 . S
H1667 C1675 0.930 . S
H1668 C1678 0.930 . S
H1669 C1679 0.930 . S
C1670 H1664 0.930 . S
C1670 C1671 1.355 . S
C1670 C1672 1.415 . S
C1671 C1670 1.355 . S
C1671 C1673 1.419 . S
C1672 C1670 1.415 . S
C1672 C1677 1.425 . S
C1672 C1679 1.409 . S
C1673 H1665 0.930 . S
C1673 C1671 1.419 . S
C1673 C1674 1.362 . S
C1674 H1666 0.930 . S
C1674 C1673 1.362 . S
C1674 C1677 1.409 . S
C1675 H1667 0.930 . S
C1675 C1676 1.355 . S
C1675 C1677 1.415 . S
C1676 C1675 1.355 . S
C1676 C1678 1.419 . S
C1677 C1672 1.425 . S
C1677 C1674 1.409 . S
C1677 C1675 1.415 . S
C1678 H1668 0.930 . S
C1678 C1676 1.419 . S
C1678 C1679 1.362 . S
C1679 H1669 0.930 . S
C1679 C1672 1.409 . S
C1679 C1678 1.362 . S
H1680 C1686 0.930 . S
H1681 C1689 0.930 . S
H1682 C1690 0.930 . S
H1683 C1691 0.930 . S
H1684 C1694 0.930 . S
H1685 C1695 0.930 . S
C1686 H1680 0.930 . S
C1686 C1687 1.355 . S
C1686 C1688 1.415 . S
C1687 C1686 1.355 . S
C1687 C1689 1.419 . S
C1688 C1686 1.415 . S
C1688 C1693 1.425 . S
C1688 C1695 1.409 . S
C1689 H1681 0.930 . S
C1689 C1687 1.419 . S
C1689 C1690 1.362 . S
C1690 H1682 0.930 . S
C1690 C1689 1.362 . S
C1690 C1693 1.409 . S
C1691 H1683 0.930 . S
C1691 C1692 1.355 . S
C1691 C1693 1.415 . S
C1692 C1691 1.355 . S
C1692 C1694 1.419 . S
C1693 C1688 1.425 . S
C1693 C1690 1.409 . S
C1693 C1691 1.415 . S
C1694 H1684 0.930 . S
C1694 C1692 1.419 . S
C1694 C1695 1.362 . S
C1695 H1685 0.930 . S
C1695 C1688 1.409 . S
C1695 C1694 1.362 . S
H1696 C1702 0.930 . S
H1697 C1705 0.930 . S
H1698 C1706 0.930 . S
H1699 C1707 0.930 . S
H1700 C1710 0.930 . S
H1701 C1711 0.930 . S
C1702 H1696 0.930 . S
C1702 C1703 1.355 . S
C1702 C1704 1.415 . S
C1703 C1702 1.355 . S
C1703 C1705 1.419 . S
C1704 C1702 1.415 . S
C1704 C1709 1.425 . S
C1704 C1711 1.409 . S
C1705 H1697 0.930 . S
C1705 C1703 1.419 . S
C1705 C1706 1.362 . S
C1706 H1698 0.930 . S
C1706 C1705 1.362 . S
C1706 C1709 1.409 . S
C1707 H1699 0.930 . S
C1707 C1708 1.355 . S
C1707 C1709 1.415 . S
C1708 C1707 1.355 . S
C1708 C1710 1.419 . S
C1709 C1704 1.425 . S
C1709 C1706 1.409 . S
C1709 C1707 1.415 . S
C1710 H1700 0.930 . S
C1710 C1708 1.419 . S
C1710 C1711 1.362 . S
C1711 H1701 0.930 . S
C1711 C1704 1.409 . S
C1711 C1710 1.362 . S
H1712 C1718 0.930 . S
H1713 C1721 0.930 . S
H1714 C1722 0.930 . S
H1715 C1723 0.930 . S
H1716 C1726 0.930 . S
H1717 C1727 0.930 . S
C1718 H1712 0.930 . S
C1718 C1719 1.355 . S
C1718 C1720 1.415 . S
C1719 C1718 1.355 . S
C1719 C1721 1.419 . S
C1720 C1718 1.415 . S
C1720 C1725 1.425 . S
C1720 C1727 1.409 . S
C1721 H1713 0.930 . S
C1721 C1719 1.419 . S
C1721 C1722 1.362 . S
C1722 H1714 0.930 . S
C1722 C1721 1.362 . S
C1722 C1725 1.409 . S
C1723 H1715 0.930 . S
C1723 C1724 1.355 . S
C1723 C1725 1.415 . S
C1724 C1723 1.355 . S
C1724 C1726 1.419 . S
C1725 C1720 1.425 . S
C1725 C1722 1.409 . S
C1725 C1723 1.415 . S
C1726 H1716 0.930 . S
C1726 C1724 1.419 . S
C1726 C1727 1.362 . S
C1727 H1717 0.930 . S
C1727 C1720 1.409 . S
C1727 C1726 1.362 . S
H1728 C1734 0.930 . S
H1729 C1737 0.930 . S
H1730 C1738 0.930 . S
H1731 C1739 0.930 . S
H1732 C1742 0.930 . S
H1733 C1743 0.930 . S
C1734 H1728 0.930 . S
C1734 C1735 1.355 . S
C1734 C1736 1.415 . S
C1735 C1734 1.355 . S
C1735 C1737 1.419 . S
C1736 C1734 1.415 . S
C1736 C1741 1.425 . S
C1736 C1743 1.409 . S
C1737 H1729 0.930 . S
C1737 C1735 1.419 . S
C1737 C1738 1.362 . S
C1738 H1730 0.930 . S
C1738 C1737 1.362 . S
C1738 C1741 1.409 . S
C1739 H1731 0.930 . S
C1739 C1740 1.355 . S
C1739 C1741 1.415 . S
C1740 C1739 1.355 . S
C1740 C1742 1.419 . S
C1741 C1736 1.425 . S
C1741 C1738 1.409 . S
C1741 C1739 1.415 . S
C1742 H1732 0.930 . S
C1742 C1740 1.419 . S
C1742 C1743 1.362 . S
C1743 H1733 0.930 . S
C1743 C1736 1.409 . S
C1743 C1742 1.362 . S
H1744 C1750 0.930 . S
H1745 C1753 0.930 . S
H1746 C1754 0.930 . S
H1747 C1755 0.930 . S
H1748 C1758 0.930 . S
H1749 C1759 0.930 . S
C1750 H1744 0.930 . S
C1750 C1751 1.355 . S
C1750 C1752 1.415 . S
C1751 C1750 1.355 . S
C1751 C1753 1.419 . S
C1752 C1750 1.415 . S
C1752 C1757 1.425 . S
C1752 C1759 1.409 . S
C1753 H1745 0.930 . S
C1753 C1751 1.419 . S
C1753 C1754 1.362 . S
C1754 H1746 0.930 . S
C1754 C1753 1.362 . S
C1754 C1757 1.409 . S
C1755 H1747 0.930 . S
C1755 C1756 1.355 . S
C1755 C1757 1.415 . S
C1756 C1755 1.355 . S
C1756 C1758 1.419 . S
C1757 C1752 1.425 . S
C1757 C1754 1.409 . S
C1757 C1755 1.415 . S
C1758 H1748 0.930 . S
C1758 C1756 1.419 . S
C1758 C1759 1.362 . S
C1759 H1749 0.930 . S
C1759 C1752 1.409 . S
C1759 C1758 1.362 . S
H1760 C1766 0.930 . S
H1761 C1769 0.930 . S
H1762 C1770 0.930 . S
H1763 C1771 0.930 . S
H1764 C1774 0.930 . S
H1765 C1775 0.930 . S
C1766 H1760 0.930 . S
C1766 C1767 1.345 1_546 S
C1766 C1768 1.415 . S
C1767 C1766 1.345 1_564 S
C1767 C1769 1.431 . S
C1768 C1766 1.415 . S
C1768 C1773 1.425 1_556 S
C1768 C1775 1.409 . S
C1769 H1761 0.930 . S
C1769 C1767 1.431 . S
C1769 C1770 1.362 . S
C1770 H1762 0.930 . S
C1770 C1769 1.362 . S
C1770 C1773 1.409 1_565 S
C1771 H1763 0.930 . S
C1771 C1772 1.355 1_554 S
C1771 C1773 1.415 . S
C1772 C1771 1.355 1_556 S
C1772 C1774 1.419 . S
C1773 C1768 1.425 1_554 S
C1773 C1770 1.409 1_545 S
C1773 C1771 1.415 . S
C1774 H1764 0.930 . S
C1774 C1772 1.419 . S
C1774 C1775 1.362 . S
C1775 H1765 0.930 . S
C1775 C1768 1.409 . S
C1775 C1774 1.362 . S
H1776 C1782 0.930 . S
H1777 C1785 0.930 . S
H1778 C1786 0.930 . S
H1779 C1787 0.930 . S
H1780 C1790 0.930 . S
H1781 C1791 0.930 . S
C1782 H1776 0.930 . S
C1782 C1783 1.355 1_556 S
C1782 C1784 1.415 . S
C1783 C1782 1.355 1_554 S
C1783 C1785 1.419 . S
C1784 C1782 1.415 . S
C1784 C1789 1.425 1_556 S
C1784 C1791 1.409 . S
C1785 H1777 0.930 . S
C1785 C1783 1.419 . S
C1785 C1786 1.362 . S
C1786 H1778 0.930 . S
C1786 C1785 1.362 . S
C1786 C1789 1.409 . S
C1787 H1779 0.930 . S
C1787 C1788 1.355 1_554 S
C1787 C1789 1.415 . S
C1788 C1787 1.355 1_556 S
C1788 C1790 1.419 1_455 S
C1789 C1784 1.425 1_554 S
C1789 C1786 1.409 . S
C1789 C1787 1.415 . S
C1790 H1780 0.930 . S
C1790 C1788 1.419 1_655 S
C1790 C1791 1.362 1_655 S
C1791 H1781 0.930 . S
C1791 C1784 1.409 . S
C1791 C1790 1.362 1_455 S
H1792 C1798 0.930 . S
H1793 C1801 0.930 . S
H1794 C1802 0.930 . S
H1795 C1803 0.930 . S
H1796 C1806 0.930 . S
H1797 C1807 0.930 . S
C1798 H1792 0.930 . S
C1798 C1799 1.355 . S
C1798 C1800 1.415 . S
C1799 C1798 1.355 . S
C1799 C1801 1.419 . S
C1800 C1798 1.415 . S
C1800 C1805 1.425 . S
C1800 C1807 1.409 . S
C1801 H1793 0.930 . S
C1801 C1799 1.419 . S
C1801 C1802 1.362 . S
C1802 H1794 0.930 . S
C1802 C1801 1.362 . S
C1802 C1805 1.409 . S
C1803 H1795 0.930 . S
C1803 C1804 1.355 . S
C1803 C1805 1.415 . S
C1804 C1803 1.355 . S
C1804 C1806 1.419 . S
C1805 C1800 1.425 . S
C1805 C1802 1.409 . S
C1805 C1803 1.415 . S
C1806 H1796 0.930 . S
C1806 C1804 1.419 . S
C1806 C1807 1.362 . S
C1807 H1797 0.930 . S
C1807 C1800 1.409 . S
C1807 C1806 1.362 . S
H1808 C1814 0.930 . S
H1809 C1817 0.930 . S
H1810 C1818 0.930 . S
H1811 C1819 0.930 . S
H1812 C1822 0.930 . S
H1813 C1823 0.930 . S
C1814 H1808 0.930 . S
C1814 C1815 1.388 . S
C1814 C1816 1.415 . S
C1815 C1814 1.388 . S
C1815 C1817 1.412 1_455 S
C1816 C1814 1.415 . S
C1816 C1821 1.425 . S
C1816 C1823 1.409 . S
C1817 H1809 0.930 . S
C1817 C1815 1.412 1_655 S
C1817 C1818 1.362 1_645 S
C1818 H1810 0.930 . S
C1818 C1817 1.362 1_465 S
C1818 C1821 1.409 1_565 S
C1819 H1811 0.930 . S
C1819 C1820 1.355 . S
C1819 C1821 1.415 1_565 S
C1820 C1819 1.355 . S
C1820 C1822 1.419 1_565 S
C1821 C1816 1.425 . S
C1821 C1818 1.409 1_545 S
C1821 C1819 1.415 1_545 S
C1822 H1812 0.930 . S
C1822 C1820 1.419 1_545 S
C1822 C1823 1.362 . S
C1823 H1813 0.930 . S
C1823 C1816 1.409 . S
C1823 C1822 1.362 . S
H1824 C1830 0.930 . S
H1825 C1833 0.930 . S
H1826 C1834 0.930 . S
H1827 C1835 0.923 1_554 S
H1828 C1838 0.930 . S
H1829 C1839 0.930 . S
C1830 H1824 0.930 . S
C1830 C1831 1.353 1_556 S
C1830 C1832 1.415 . S
C1831 C1830 1.353 1_554 S
C1831 C1833 1.420 . S
C1832 C1830 1.415 . S
C1832 C1837 1.426 . S
C1832 C1839 1.409 . S
C1833 H1825 0.930 . S
C1833 C1831 1.420 . S
C1833 C1834 1.362 1_565 S
C1834 H1826 0.930 . S
C1834 C1833 1.362 1_545 S
C1834 C1837 1.408 1_544 S
C1835 H1827 0.923 1_556 S
C1835 C1836 1.362 . S
C1835 C1837 1.414 1_545 S
C1836 C1835 1.362 . S
C1836 C1838 1.419 1_545 S
C1837 C1832 1.426 . S
C1837 C1834 1.408 1_566 S
C1837 C1835 1.414 1_565 S
C1838 H1828 0.930 . S
C1838 C1836 1.419 1_565 S
C1838 C1839 1.362 . S
C1839 H1829 0.930 . S
C1839 C1832 1.409 . S
C1839 C1838 1.362 . S
H1840 C1846 0.930 1_455 S
H1841 C1849 0.930 . S
H1842 C1850 0.930 . S
H1843 C1851 0.930 . S
H1844 C1854 0.930 . S
H1845 C1855 0.930 . S
C1846 H1840 0.930 1_655 S
C1846 C1847 1.352 1_556 S
C1846 C1848 1.415 . S
C1847 C1846 1.352 1_554 S
C1847 C1849 1.423 . S
C1848 C1846 1.415 . S
C1848 C1853 1.425 1_556 S
C1848 C1855 1.409 . S
C1849 H1841 0.930 . S
C1849 C1847 1.423 . S
C1849 C1850 1.362 . S
C1850 H1842 0.930 . S
C1850 C1849 1.362 . S
C1850 C1853 1.409 . S
C1851 H1843 0.930 . S
C1851 C1852 1.355 1_554 S
C1851 C1853 1.415 . S
C1852 C1851 1.355 1_556 S
C1852 C1854 1.419 . S
C1853 C1848 1.425 1_554 S
C1853 C1850 1.409 . S
C1853 C1851 1.415 . S
C1854 H1844 0.930 . S
C1854 C1852 1.419 . S
C1854 C1855 1.362 . S
C1855 H1845 0.930 . S
C1855 C1848 1.409 . S
C1855 C1854 1.362 . S
H1856 C1862 0.930 . S
H1857 C1865 0.930 . S
H1858 C1866 0.930 . S
H1859 C1867 0.930 . S
H1860 C1870 0.930 . S
H1861 C1871 0.930 . S
C1862 H1856 0.930 . S
C1862 C1863 1.355 . S
C1862 C1864 1.415 . S
C1863 C1862 1.355 . S
C1863 C1865 1.419 . S
C1864 C1862 1.415 . S
C1864 C1869 1.425 . S
C1864 C1871 1.409 . S
C1865 H1857 0.930 . S
C1865 C1863 1.419 . S
C1865 C1866 1.362 . S
C1866 H1858 0.930 . S
C1866 C1865 1.362 . S
C1866 C1869 1.409 . S
C1867 H1859 0.930 . S
C1867 C1868 1.355 . S
C1867 C1869 1.415 . S
C1868 C1867 1.355 . S
C1868 C1870 1.419 . S
C1869 C1864 1.425 . S
C1869 C1866 1.409 . S
C1869 C1867 1.415 . S
C1870 H1860 0.930 . S
C1870 C1868 1.419 . S
C1870 C1871 1.362 . S
C1871 H1861 0.930 . S
C1871 C1864 1.409 . S
C1871 C1870 1.362 . S
H1872 C1878 0.930 . S
H1873 C1881 0.930 . S
H1874 C1882 0.930 . S
H1875 C1883 0.930 . S
H1876 C1886 0.930 . S
H1877 C1887 0.930 . S
C1878 H1872 0.930 . S
C1878 C1879 1.355 . S
C1878 C1880 1.415 1_545 S
C1879 C1878 1.355 . S
C1879 C1881 1.419 1_545 S
C1880 C1878 1.415 1_565 S
C1880 C1885 1.425 . S
C1880 C1887 1.409 1_565 S
C1881 H1873 0.930 . S
C1881 C1879 1.419 1_565 S
C1881 C1882 1.362 . S
C1882 H1874 0.930 . S
C1882 C1881 1.362 . S
C1882 C1885 1.409 . S
C1883 H1875 0.930 . S
C1883 C1884 1.355 . S
C1883 C1885 1.415 . S
C1884 C1883 1.355 . S
C1884 C1886 1.419 1_655 S
C1885 C1880 1.425 . S
C1885 C1882 1.409 . S
C1885 C1883 1.415 . S
C1886 H1876 0.930 . S
C1886 C1884 1.419 1_455 S
C1886 C1887 1.362 1_465 S
C1887 H1877 0.930 . S
C1887 C1880 1.409 1_545 S
C1887 C1886 1.362 1_645 S
H1888 C1894 0.930 . S
H1889 C1897 0.930 . S
H1890 C1898 0.930 . S
H1891 C1899 0.930 . S
H1892 C1902 0.930 . S
H1893 C1903 0.930 . S
C1894 H1888 0.930 . S
C1894 C1895 1.355 . S
C1894 C1896 1.415 . S
C1895 C1894 1.355 . S
C1895 C1897 1.419 . S
C1896 C1894 1.415 . S
C1896 C1901 1.425 . S
C1896 C1903 1.409 . S
C1897 H1889 0.930 . S
C1897 C1895 1.419 . S
C1897 C1898 1.362 . S
C1898 H1890 0.930 . S
C1898 C1897 1.362 . S
C1898 C1901 1.409 . S
C1899 H1891 0.930 . S
C1899 C1900 1.355 . S
C1899 C1901 1.415 . S
C1900 C1899 1.355 . S
C1900 C1902 1.419 . S
C1901 C1896 1.425 . S
C1901 C1898 1.409 . S
C1901 C1899 1.415 . S
C1902 H1892 0.930 . S
C1902 C1900 1.419 . S
C1902 C1903 1.362 . S
C1903 H1893 0.930 . S
C1903 C1896 1.409 . S
C1903 C1902 1.362 . S
H1904 C1910 0.930 . S
H1905 C1913 0.930 . S
H1906 C1914 0.930 . S
H1907 C1915 0.930 1_655 S
H1908 C1918 0.930 . S
H1909 C1919 0.930 . S
C1910 H1904 0.930 . S
C1910 C1911 1.355 . S
C1910 C1912 1.415 . S
C1911 C1910 1.355 . S
C1911 C1913 1.419 . S
C1912 C1910 1.415 . S
C1912 C1917 1.425 . S
C1912 C1919 1.409 . S
C1913 H1905 0.930 . S
C1913 C1911 1.419 . S
C1913 C1914 1.362 . S
C1914 H1906 0.930 . S
C1914 C1913 1.362 . S
C1914 C1917 1.409 . S
C1915 H1907 0.930 1_455 S
C1915 C1916 1.355 . S
C1915 C1917 1.415 . S
C1916 C1915 1.355 . S
C1916 C1918 1.419 . S
C1917 C1912 1.425 . S
C1917 C1914 1.409 . S
C1917 C1915 1.415 . S
C1918 H1908 0.930 . S
C1918 C1916 1.419 . S
C1918 C1919 1.362 . S
C1919 H1909 0.930 . S
C1919 C1912 1.409 . S
C1919 C1918 1.362 . S
H1920 C1926 0.930 . S
H1921 C1929 0.930 . S
H1922 C1930 0.930 . S
H1923 C1931 0.930 . S
H1924 C1934 0.930 . S
H1925 C1935 0.930 . S
C1926 H1920 0.930 . S
C1926 C1927 1.355 . S
C1926 C1928 1.415 . S
C1927 C1926 1.355 . S
C1927 C1929 1.419 . S
C1928 C1926 1.415 . S
C1928 C1933 1.425 . S
C1928 C1935 1.409 . S
C1929 H1921 0.930 . S
C1929 C1927 1.419 . S
C1929 C1930 1.362 . S
C1930 H1922 0.930 . S
C1930 C1929 1.362 . S
C1930 C1933 1.409 . S
C1931 H1923 0.930 . S
C1931 C1932 1.355 . S
C1931 C1933 1.415 . S
C1932 C1931 1.355 . S
C1932 C1934 1.419 . S
C1933 C1928 1.425 . S
C1933 C1930 1.409 . S
C1933 C1931 1.415 . S
C1934 H1924 0.930 . S
C1934 C1932 1.419 . S
C1934 C1935 1.362 . S
C1935 H1925 0.930 . S
C1935 C1928 1.409 . S
C1935 C1934 1.362 . S
H1936 C1942 0.930 . S
H1937 C1945 0.930 . S
H1938 C1946 0.930 . S
H1939 C1947 0.930 1_655 S
H1940 C1950 0.930 . S
H1941 C1951 0.930 . S
C1942 H1936 0.930 . S
C1942 C1943 1.355 . S
C1942 C1944 1.415 . S
C1943 C1942 1.355 . S
C1943 C1945 1.419 . S
C1944 C1942 1.415 . S
C1944 C1949 1.425 . S
C1944 C1951 1.409 . S
C1945 H1937 0.930 . S
C1945 C1943 1.419 . S
C1945 C1946 1.362 . S
C1946 H1938 0.930 . S
C1946 C1945 1.362 . S
C1946 C1949 1.409 . S
C1947 H1939 0.930 1_455 S
C1947 C1948 1.355 . S
C1947 C1949 1.415 . S
C1948 C1947 1.355 . S
C1948 C1950 1.419 . S
C1949 C1944 1.425 . S
C1949 C1946 1.409 . S
C1949 C1947 1.415 . S
C1950 H1940 0.930 . S
C1950 C1948 1.419 . S
C1950 C1951 1.362 . S
C1951 H1941 0.930 . S
C1951 C1944 1.409 . S
C1951 C1950 1.362 . S
H1952 C1958 0.930 . S
H1953 C1961 0.930 . S
H1954 C1962 0.930 . S
H1955 C1963 0.930 . S
H1956 C1966 0.930 . S
H1957 C1967 0.930 . S
C1958 H1952 0.930 . S
C1958 C1959 1.355 . S
C1958 C1960 1.415 . S
C1959 C1958 1.355 . S
C1959 C1961 1.419 . S
C1960 C1958 1.415 . S
C1960 C1965 1.425 . S
C1960 C1967 1.409 . S
C1961 H1953 0.930 . S
C1961 C1959 1.419 . S
C1961 C1962 1.362 . S
C1962 H1954 0.930 . S
C1962 C1961 1.362 . S
C1962 C1965 1.409 . S
C1963 H1955 0.930 . S
C1963 C1964 1.355 . S
C1963 C1965 1.415 . S
C1964 C1963 1.355 . S
C1964 C1966 1.419 . S
C1965 C1960 1.425 . S
C1965 C1962 1.409 . S
C1965 C1963 1.415 . S
C1966 H1956 0.930 . S
C1966 C1964 1.419 . S
C1966 C1967 1.362 . S
C1967 H1957 0.930 . S
C1967 C1960 1.409 . S
C1967 C1966 1.362 . S
H1968 C1974 0.930 1_455 S
H1969 C1977 0.930 . S
H1970 C1978 0.930 . S
H1971 C1979 0.930 . S
H1972 C1982 0.930 . S
H1973 C1983 0.930 . S
C1974 H1968 0.930 1_655 S
C1974 C1975 1.355 . S
C1974 C1976 1.415 . S
C1975 C1974 1.355 . S
C1975 C1977 1.419 . S
C1976 C1974 1.415 . S
C1976 C1981 1.425 . S
C1976 C1983 1.409 . S
C1977 H1969 0.930 . S
C1977 C1975 1.419 . S
C1977 C1978 1.362 . S
C1978 H1970 0.930 . S
C1978 C1977 1.362 . S
C1978 C1981 1.409 . S
C1979 H1971 0.930 . S
C1979 C1980 1.355 . S
C1979 C1981 1.415 . S
C1980 C1979 1.355 . S
C1980 C1982 1.419 . S
C1981 C1976 1.425 . S
C1981 C1978 1.409 . S
C1981 C1979 1.415 . S
C1982 H1972 0.930 . S
C1982 C1980 1.419 . S
C1982 C1983 1.362 . S
C1983 H1973 0.930 . S
C1983 C1976 1.409 . S
C1983 C1982 1.362 . S
H1984 C1990 0.930 . S
H1985 C1993 0.930 . S
H1986 C1994 0.930 . S
H1987 C1995 0.930 . S
H1988 C1998 0.930 . S
H1989 C1999 0.930 . S
C1990 H1984 0.930 . S
C1990 C1991 1.355 . S
C1990 C1992 1.415 . S
C1991 C1990 1.355 . S
C1991 C1993 1.419 . S
C1992 C1990 1.415 . S
C1992 C1997 1.425 . S
C1992 C1999 1.409 . S
C1993 H1985 0.930 . S
C1993 C1991 1.419 . S
C1993 C1994 1.362 . S
C1994 H1986 0.930 . S
C1994 C1993 1.362 . S
C1994 C1997 1.409 . S
C1995 H1987 0.930 . S
C1995 C1996 1.355 . S
C1995 C1997 1.415 . S
C1996 C1995 1.355 . S
C1996 C1998 1.419 . S
C1997 C1992 1.425 . S
C1997 C1994 1.409 . S
C1997 C1995 1.415 . S
C1998 H1988 0.930 . S
C1998 C1996 1.419 . S
C1998 C1999 1.362 . S
C1999 H1989 0.930 . S
C1999 C1992 1.409 . S
C1999 C1998 1.362 . S
H2000 C2006 0.930 . S
H2001 C2009 0.930 . S
H2002 C2010 0.930 . S
H2003 C2011 0.930 . S
H2004 C2014 0.930 . S
H2005 C2015 0.930 . S
C2006 H2000 0.930 . S
C2006 C2007 1.355 . S
C2006 C2008 1.415 . S
C2007 C2006 1.355 . S
C2007 C2009 1.419 . S
C2008 C2006 1.415 . S
C2008 C2013 1.425 . S
C2008 C2015 1.409 . S
C2009 H2001 0.930 . S
C2009 C2007 1.419 . S
C2009 C2010 1.362 . S
C2010 H2002 0.930 . S
C2010 C2009 1.362 . S
C2010 C2013 1.409 . S
C2011 H2003 0.930 . S
C2011 C2012 1.355 . S
C2011 C2013 1.415 . S
C2012 C2011 1.355 . S
C2012 C2014 1.419 1_655 S
C2013 C2008 1.425 . S
C2013 C2010 1.409 . S
C2013 C2011 1.415 . S
C2014 H2004 0.930 . S
C2014 C2012 1.419 1_455 S
C2014 C2015 1.362 1_455 S
C2015 H2005 0.930 . S
C2015 C2008 1.409 . S
C2015 C2014 1.362 1_655 S
H2016 C2022 0.930 . S
H2017 C2025 0.930 . S
H2018 C2026 0.930 1_565 S
H2019 C2027 0.930 . S
H2020 C2030 0.930 . S
H2021 C2031 0.930 . S
C2022 H2016 0.930 . S
C2022 C2023 1.355 . S
C2022 C2024 1.415 . S
C2023 C2022 1.355 . S
C2023 C2025 1.419 . S
C2024 C2022 1.415 . S
C2024 C2029 1.425 . S
C2024 C2031 1.409 . S
C2025 H2017 0.930 . S
C2025 C2023 1.419 . S
C2025 C2026 1.362 . S
C2026 H2018 0.930 1_545 S
C2026 C2025 1.362 . S
C2026 C2029 1.409 . S
C2027 H2019 0.930 . S
C2027 C2028 1.355 . S
C2027 C2029 1.415 1_565 S
C2028 C2027 1.355 . S
C2028 C2030 1.419 1_565 S
C2029 C2024 1.425 . S
C2029 C2026 1.409 . S
C2029 C2027 1.415 1_545 S
C2030 H2020 0.930 . S
C2030 C2028 1.419 1_545 S
C2030 C2031 1.362 . S
C2031 H2021 0.930 . S
C2031 C2024 1.409 . S
C2031 C2030 1.362 . S
H2032 C2038 0.930 . S
H2033 C2041 0.930 . S
H2034 C2042 0.930 . S
H2035 C2043 0.930 . S
H2036 C2046 0.930 . S
H2037 C2047 0.930 . S
C2038 H2032 0.930 . S
C2038 C2039 1.355 . S
C2038 C2040 1.415 . S
C2039 C2038 1.355 . S
C2039 C2041 1.419 . S
C2040 C2038 1.415 . S
C2040 C2045 1.425 . S
C2040 C2047 1.409 . S
C2041 H2033 0.930 . S
C2041 C2039 1.419 . S
C2041 C2042 1.362 . S
C2042 H2034 0.930 . S
C2042 C2041 1.362 . S
C2042 C2045 1.409 . S
C2043 H2035 0.930 . S
C2043 C2044 1.355 . S
C2043 C2045 1.415 . S
C2044 C2043 1.355 . S
C2044 C2046 1.419 . S
C2045 C2040 1.425 . S
C2045 C2042 1.409 . S
C2045 C2043 1.415 . S
C2046 H2036 0.930 . S
C2046 C2044 1.419 . S
C2046 C2047 1.362 . S
C2047 H2037 0.930 . S
C2047 C2040 1.409 . S
C2047 C2046 1.362 . S
H2048 C2054 0.930 . S
H2049 C2057 0.930 . S
H2050 C2058 0.930 . S
H2051 C2059 0.930 . S
H2052 C2062 0.930 . S
H2053 C2063 0.930 . S
C2054 H2048 0.930 . S
C2054 C2055 1.355 . S
C2054 C2056 1.415 . S
C2055 C2054 1.355 . S
C2055 C2057 1.419 . S
C2056 C2054 1.415 . S
C2056 C2061 1.425 . S
C2056 C2063 1.409 . S
C2057 H2049 0.930 . S
C2057 C2055 1.419 . S
C2057 C2058 1.362 . S
C2058 H2050 0.930 . S
C2058 C2057 1.362 . S
C2058 C2061 1.409 . S
C2059 H2051 0.930 . S
C2059 C2060 1.355 . S
C2059 C2061 1.415 . S
C2060 C2059 1.355 . S
C2060 C2062 1.419 . S
C2061 C2056 1.425 . S
C2061 C2058 1.409 . S
C2061 C2059 1.415 . S
C2062 H2052 0.930 . S
C2062 C2060 1.419 . S
C2062 C2063 1.362 . S
C2063 H2053 0.930 . S
C2063 C2056 1.409 . S
C2063 C2062 1.362 . S
H2064 C2070 0.930 . S
H2065 C2073 0.930 . S
H2066 C2074 0.930 . S
H2067 C2075 0.930 . S
H2068 C2078 0.930 . S
H2069 C2079 0.930 1_565 S
C2070 H2064 0.930 . S
C2070 C2071 1.355 . S
C2070 C2072 1.415 1_565 S
C2071 C2070 1.355 . S
C2071 C2073 1.419 1_565 S
C2072 C2070 1.415 1_545 S
C2072 C2077 1.425 . S
C2072 C2079 1.409 . S
C2073 H2065 0.930 . S
C2073 C2071 1.419 1_545 S
C2073 C2074 1.362 . S
C2074 H2066 0.930 . S
C2074 C2073 1.362 . S
C2074 C2077 1.409 . S
C2075 H2067 0.930 . S
C2075 C2076 1.355 . S
C2075 C2077 1.415 . S
C2076 C2075 1.355 . S
C2076 C2078 1.419 . S
C2077 C2072 1.425 . S
C2077 C2074 1.409 . S
C2077 C2075 1.415 . S
C2078 H2068 0.930 . S
C2078 C2076 1.419 . S
C2078 C2079 1.362 . S
C2079 H2069 0.930 1_545 S
C2079 C2072 1.409 . S
C2079 C2078 1.362 . S
H2080 C2086 0.930 . S
H2081 C2089 0.930 . S
H2082 C2090 0.930 . S
H2083 C2091 0.930 . S
H2084 C2094 0.930 . S
H2085 C2095 0.930 . S
C2086 H2080 0.930 . S
C2086 C2087 1.355 . S
C2086 C2088 1.415 . S
C2087 C2086 1.355 . S
C2087 C2089 1.419 . S
C2088 C2086 1.415 . S
C2088 C2093 1.425 . S
C2088 C2095 1.409 . S
C2089 H2081 0.930 . S
C2089 C2087 1.419 . S
C2089 C2090 1.362 1_565 S
C2090 H2082 0.930 . S
C2090 C2089 1.362 1_545 S
C2090 C2093 1.409 1_545 S
C2091 H2083 0.930 . S
C2091 C2092 1.355 . S
C2091 C2093 1.415 1_545 S
C2092 C2091 1.355 . S
C2092 C2094 1.419 1_545 S
C2093 C2088 1.425 . S
C2093 C2090 1.409 1_565 S
C2093 C2091 1.415 1_565 S
C2094 H2084 0.930 . S
C2094 C2092 1.419 1_565 S
C2094 C2095 1.362 . S
C2095 H2085 0.930 . S
C2095 C2088 1.409 . S
C2095 C2094 1.362 . S
H2096 C2102 0.930 . S
H2097 C2105 0.930 . S
H2098 C2106 0.930 . S
H2099 C2107 0.930 . S
H2100 C2110 0.930 . S
H2101 C2111 0.930 . S
C2102 H2096 0.930 . S
C2102 C2103 1.355 . S
C2102 C2104 1.415 . S
C2103 C2102 1.355 . S
C2103 C2105 1.419 . S
C2104 C2102 1.415 . S
C2104 C2109 1.425 . S
C2104 C2111 1.409 . S
C2105 H2097 0.930 . S
C2105 C2103 1.419 . S
C2105 C2106 1.362 . S
C2106 H2098 0.930 . S
C2106 C2105 1.362 . S
C2106 C2109 1.409 . S
C2107 H2099 0.930 . S
C2107 C2108 1.355 . S
C2107 C2109 1.415 . S
C2108 C2107 1.355 . S
C2108 C2110 1.419 . S
C2109 C2104 1.425 . S
C2109 C2106 1.409 . S
C2109 C2107 1.415 . S
C2110 H2100 0.930 . S
C2110 C2108 1.419 . S
C2110 C2111 1.362 . S
C2111 H2101 0.930 . S
C2111 C2104 1.409 . S
C2111 C2110 1.362 . S
H2112 C2118 0.930 . S
H2113 C2121 0.930 . S
H2114 C2122 0.930 . S
H2115 C2123 0.930 . S
H2116 C2126 0.930 . S
H2117 C2127 0.930 . S
C2118 H2112 0.930 . S
C2118 C2119 1.355 . S
C2118 C2120 1.415 . S
C2119 C2118 1.355 . S
C2119 C2121 1.419 . S
C2120 C2118 1.415 . S
C2120 C2125 1.425 . S
C2120 C2127 1.409 . S
C2121 H2113 0.930 . S
C2121 C2119 1.419 . S
C2121 C2122 1.362 . S
C2122 H2114 0.930 . S
C2122 C2121 1.362 . S
C2122 C2125 1.409 . S
C2123 H2115 0.930 . S
C2123 C2124 1.355 . S
C2123 C2125 1.415 . S
C2124 C2123 1.355 . S
C2124 C2126 1.419 . S
C2125 C2120 1.425 . S
C2125 C2122 1.409 . S
C2125 C2123 1.415 . S
C2126 H2116 0.930 . S
C2126 C2124 1.419 . S
C2126 C2127 1.362 . S
C2127 H2117 0.930 . S
C2127 C2120 1.409 . S
C2127 C2126 1.362 . S
H2128 C2134 0.930 . S
H2129 C2137 0.930 . S
H2130 C2138 0.930 . S
H2131 C2139 0.930 . S
H2132 C2142 0.930 . S
H2133 C2143 0.930 . S
C2134 H2128 0.930 . S
C2134 C2135 1.355 . S
C2134 C2136 1.415 . S
C2135 C2134 1.355 . S
C2135 C2137 1.419 . S
C2136 C2134 1.415 . S
C2136 C2141 1.425 . S
C2136 C2143 1.409 1_565 S
C2137 H2129 0.930 . S
C2137 C2135 1.419 . S
C2137 C2138 1.362 . S
C2138 H2130 0.930 . S
C2138 C2137 1.362 . S
C2138 C2141 1.409 . S
C2139 H2131 0.930 . S
C2139 C2140 1.355 1_565 S
C2139 C2141 1.415 . S
C2140 C2139 1.355 1_545 S
C2140 C2142 1.419 . S
C2141 C2136 1.425 . S
C2141 C2138 1.409 . S
C2141 C2139 1.415 . S
C2142 H2132 0.930 . S
C2142 C2140 1.419 . S
C2142 C2143 1.362 . S
C2143 H2133 0.930 . S
C2143 C2136 1.409 1_545 S
C2143 C2142 1.362 . S
H2144 C2150 0.930 . S
H2145 C2153 0.930 . S
H2146 C2154 0.930 . S
H2147 C2155 0.930 . S
H2148 C2158 0.930 . S
H2149 C2159 0.930 . S
C2150 H2144 0.930 . S
C2150 C2151 1.355 . S
C2150 C2152 1.415 . S
C2151 C2150 1.355 . S
C2151 C2153 1.419 1_554 S
C2152 C2150 1.415 . S
C2152 C2157 1.425 1_554 S
C2152 C2159 1.409 . S
C2153 H2145 0.930 . S
C2153 C2151 1.419 1_556 S
C2153 C2154 1.362 . S
C2154 H2146 0.930 . S
C2154 C2153 1.362 . S
C2154 C2157 1.409 . S
C2155 H2147 0.930 . S
C2155 C2156 1.355 . S
C2155 C2157 1.415 . S
C2156 C2155 1.355 . S
C2156 C2158 1.419 1_556 S
C2157 C2152 1.425 1_556 S
C2157 C2154 1.409 . S
C2157 C2155 1.415 . S
C2158 H2148 0.930 . S
C2158 C2156 1.419 1_554 S
C2158 C2159 1.362 . S
C2159 H2149 0.930 . S
C2159 C2152 1.409 . S
C2159 C2158 1.362 . S
H2160 C2166 0.930 . S
H2161 C2169 0.930 . S
H2162 C2170 0.930 . S
H2163 C2171 0.930 . S
H2164 C2174 0.930 . S
H2165 C2175 0.930 . S
C2166 H2160 0.930 . S
C2166 C2167 1.361 . S
C2166 C2168 1.415 . S
C2167 C2166 1.361 . S
C2167 C2169 1.411 1_556 S
C2168 C2166 1.415 . S
C2168 C2173 1.425 1_556 S
C2168 C2175 1.409 . S
C2169 H2161 0.930 . S
C2169 C2167 1.411 1_554 S
C2169 C2170 1.362 . S
C2170 H2162 0.930 . S
C2170 C2169 1.362 . S
C2170 C2173 1.409 . S
C2171 H2163 0.930 . S
C2171 C2172 1.353 1_554 S
C2171 C2173 1.415 . S
C2172 C2171 1.353 1_556 S
C2172 C2174 1.421 . S
C2173 C2168 1.425 1_554 S
C2173 C2170 1.409 . S
C2173 C2171 1.415 . S
C2174 H2164 0.930 . S
C2174 C2172 1.421 . S
C2174 C2175 1.362 . S
C2175 H2165 0.930 . S
C2175 C2168 1.409 . S
C2175 C2174 1.362 . S
H2176 C2182 0.930 . S
H2177 C2185 0.930 . S
H2178 C2186 0.930 . S
H2179 C2187 0.930 . S
H2180 C2190 0.930 . S
H2181 C2191 0.930 . S
C2182 H2176 0.930 . S
C2182 C2183 1.355 . S
C2182 C2184 1.415 . S
C2183 C2182 1.355 . S
C2183 C2185 1.419 . S
C2184 C2182 1.415 . S
C2184 C2189 1.425 . S
C2184 C2191 1.409 . S
C2185 H2177 0.930 . S
C2185 C2183 1.419 . S
C2185 C2186 1.362 . S
C2186 H2178 0.930 . S
C2186 C2185 1.362 . S
C2186 C2189 1.409 . S
C2187 H2179 0.930 . S
C2187 C2188 1.355 . S
C2187 C2189 1.415 . S
C2188 C2187 1.355 . S
C2188 C2190 1.419 . S
C2189 C2184 1.425 . S
C2189 C2186 1.409 . S
C2189 C2187 1.415 . S
C2190 H2180 0.930 . S
C2190 C2188 1.419 . S
C2190 C2191 1.362 . S
C2191 H2181 0.930 . S
C2191 C2184 1.409 . S
C2191 C2190 1.362 . S
H2192 C2198 0.930 . S
H2193 C2201 0.930 . S
H2194 C2202 0.930 . S
H2195 C2203 0.930 . S
H2196 C2206 0.930 . S
H2197 C2207 0.930 . S
C2198 H2192 0.930 . S
C2198 C2199 1.355 . S
C2198 C2200 1.415 . S
C2199 C2198 1.355 . S
C2199 C2201 1.419 . S
C2200 C2198 1.415 . S
C2200 C2205 1.425 . S
C2200 C2207 1.409 . S
C2201 H2193 0.930 . S
C2201 C2199 1.419 . S
C2201 C2202 1.362 . S
C2202 H2194 0.930 . S
C2202 C2201 1.362 . S
C2202 C2205 1.409 . S
C2203 H2195 0.930 . S
C2203 C2204 1.355 . S
C2203 C2205 1.415 . S
C2204 C2203 1.355 . S
C2204 C2206 1.419 . S
C2205 C2200 1.425 . S
C2205 C2202 1.409 . S
C2205 C2203 1.415 . S
C2206 H2196 0.930 . S
C2206 C2204 1.419 . S
C2206 C2207 1.362 . S
C2207 H2197 0.930 . S
C2207 C2200 1.409 . S
C2207 C2206 1.362 . S
H2208 C2214 0.930 . S
H2209 C2217 0.930 . S
H2210 C2218 0.930 . S
H2211 C2219 0.930 . S
H2212 C2222 0.930 . S
H2213 C2223 0.930 . S
C2214 H2208 0.930 . S
C2214 C2215 1.355 . S
C2214 C2216 1.415 . S
C2215 C2214 1.355 . S
C2215 C2217 1.419 1_556 S
C2216 C2214 1.415 . S
C2216 C2221 1.425 1_556 S
C2216 C2223 1.409 . S
C2217 H2209 0.930 . S
C2217 C2215 1.419 1_554 S
C2217 C2218 1.362 . S
C2218 H2210 0.930 . S
C2218 C2217 1.362 . S
C2218 C2221 1.409 . S
C2219 H2211 0.930 . S
C2219 C2220 1.355 1_554 S
C2219 C2221 1.415 . S
C2220 C2219 1.355 1_556 S
C2220 C2222 1.419 . S
C2221 C2216 1.425 1_554 S
C2221 C2218 1.409 . S
C2221 C2219 1.415 . S
C2222 H2212 0.930 . S
C2222 C2220 1.419 . S
C2222 C2223 1.362 . S
C2223 H2213 0.930 . S
C2223 C2216 1.409 . S
C2223 C2222 1.362 . S
H2224 C2230 0.930 . S
H2225 C2233 0.930 . S
H2226 C2234 0.930 . S
H2227 C2235 0.930 . S
H2228 C2238 0.930 . S
H2229 C2239 0.930 . S
C2230 H2224 0.930 . S
C2230 C2231 1.349 1_554 S
C2230 C2232 1.415 . S
C2231 C2230 1.349 1_556 S
C2231 C2233 1.428 . S
C2232 C2230 1.415 . S
C2232 C2237 1.425 1_554 S
C2232 C2239 1.409 . S
C2233 H2225 0.930 . S
C2233 C2231 1.428 . S
C2233 C2234 1.362 . S
C2234 H2226 0.930 . S
C2234 C2233 1.362 . S
C2234 C2237 1.409 . S
C2235 H2227 0.930 . S
C2235 C2236 1.355 . S
C2235 C2237 1.415 . S
C2236 C2235 1.355 . S
C2236 C2238 1.419 1_556 S
C2237 C2232 1.425 1_556 S
C2237 C2234 1.409 . S
C2237 C2235 1.415 . S
C2238 H2228 0.930 . S
C2238 C2236 1.419 1_554 S
C2238 C2239 1.362 . S
C2239 H2229 0.930 . S
C2239 C2232 1.409 . S
C2239 C2238 1.362 . S
H2240 C2246 0.930 . S
H2241 C2249 0.930 . S
H2242 C2250 0.930 . S
H2243 C2251 0.930 . S
H2244 C2254 0.930 . S
H2245 C2255 0.930 . S
C2246 H2240 0.930 . S
C2246 C2247 1.355 . S
C2246 C2248 1.415 . S
C2247 C2246 1.355 . S
C2247 C2249 1.419 . S
C2248 C2246 1.415 . S
C2248 C2253 1.425 . S
C2248 C2255 1.409 . S
C2249 H2241 0.930 . S
C2249 C2247 1.419 . S
C2249 C2250 1.362 . S
C2250 H2242 0.930 . S
C2250 C2249 1.362 . S
C2250 C2253 1.409 . S
C2251 H2243 0.930 . S
C2251 C2252 1.355 . S
C2251 C2253 1.415 . S
C2252 C2251 1.355 . S
C2252 C2254 1.419 . S
C2253 C2248 1.425 . S
C2253 C2250 1.409 . S
C2253 C2251 1.415 . S
C2254 H2244 0.930 . S
C2254 C2252 1.419 . S
C2254 C2255 1.362 . S
C2255 H2245 0.930 . S
C2255 C2248 1.409 . S
C2255 C2254 1.362 . S
H2256 C2262 0.930 . S
H2257 C2265 0.930 . S
H2258 C2266 0.930 . S
H2259 C2267 0.930 . S
H2260 C2270 0.930 . S
H2261 C2271 0.930 . S
C2262 H2256 0.930 . S
C2262 C2263 1.355 . S
C2262 C2264 1.415 . S
C2263 C2262 1.355 . S
C2263 C2265 1.419 . S
C2264 C2262 1.415 . S
C2264 C2269 1.425 . S
C2264 C2271 1.409 . S
C2265 H2257 0.930 . S
C2265 C2263 1.419 . S
C2265 C2266 1.362 . S
C2266 H2258 0.930 . S
C2266 C2265 1.362 . S
C2266 C2269 1.409 . S
C2267 H2259 0.930 . S
C2267 C2268 1.355 . S
C2267 C2269 1.415 . S
C2268 C2267 1.355 . S
C2268 C2270 1.419 . S
C2269 C2264 1.425 . S
C2269 C2266 1.409 . S
C2269 C2267 1.415 . S
C2270 H2260 0.930 . S
C2270 C2268 1.419 . S
C2270 C2271 1.362 . S
C2271 H2261 0.930 . S
C2271 C2264 1.409 . S
C2271 C2270 1.362 . S
C743 C591 1.332 . S
C748 C16 1.337 . S
C759 C568 1.389 . S
C764 C39 1.378 . S
C775 C637 1.403 . S
C780 C62 1.407 . S
C791 C614 1.401 . S
C796 C85 1.394 . S
C807 C108 1.382 . S
C812 C683 1.382 . S
C823 C131 1.446 . S
C828 C660 1.447 . S
C839 C154 1.419 . S
C844 C729 1.417 . S
C855 C706 1.394 . S
C860 C177 1.393 . S
C871 C407 1.339 . S
C876 C200 1.333 . S
C887 C384 1.373 . S
C892 C223 1.362 . S
C903 C453 1.366 . S
C908 C246 1.355 . S
C919 C430 1.390 . S
C924 C269 1.399 . S
C935 C292 1.383 . S
C940 C499 1.383 . S
C951 C476 1.418 . S
C956 C315 1.419 . S
C967 C338 1.433 . S
C972 C545 1.434 . S
C983 C522 1.448 . S
C988 C361 1.447 . S
C999 C19 1.384 . S
C1004 C456 1.422 . S
C1015 C433 1.403 . S
C1020 C42 1.406 . S
C1031 C410 1.385 . S
C1036 C65 1.382 . S
C1047 C88 1.347 . S
C1052 C387 1.402 . S
C1063 C549 1.417 . S
C1068 C112 1.378 . S
C1079 C526 1.359 . S
C1084 C135 1.400 . S
C1095 C503 1.380 . S
C1100 C158 1.391 . S
C1111 C480 1.373 . S
C1116 C181 1.343 . S
C1127 C640 1.390 . S
C1132 C203 1.377 . S
C1143 C226 1.404 . S
C1148 C617 1.348 . S
C1159 C249 1.412 . S
C1164 C594 1.396 . S
C1175 C272 1.418 . S
C1180 C571 1.387 . S
C1191 C733 1.349 . S
C1196 C296 1.399 . S
C1207 C710 1.344 . S
C1212 C319 1.371 . S
C1223 C342 1.415 . S
C1228 C687 1.371 . S
C1239 C365 1.379 . S
C1244 C664 1.422 . S
C1255 C113 0.801 1_554 S
C1260 C21 0.774 . S
C1271 C44 0.796 . S
C1276 C688 0.811 . S
C1287 C67 0.770 . S
C1292 C343 0.765 . S
C1303 C550 0.774 . S
C1308 C90 0.810 . S
C1319 C136 0.788 1_554 S
C1324 C596 0.761 . S
C1335 C159 0.768 . S
C1340 C251 0.762 . S
C1351 C458 0.812 . S
C1356 C182 0.794 . S
C1367 C297 0.767 . S
C1372 C205 0.783 . S
C1383 C228 0.802 . S
C1388 C504 0.804 . S
C1399 C274 0.810 . S
C1404 C734 0.797 . S
C1415 C412 0.815 . S
C1420 C320 0.797 . S
C1431 C366 0.804 . S
C1436 C642 0.788 . S
C1447 C481 0.805 . S
C1452 C389 0.780 . S
C1463 C711 0.765 . S
C1468 C435 0.771 . S
C1479 C619 0.813 . S
C1484 C527 0.794 . S
C1495 C573 0.785 . S
C1500 C665 0.769 . S
C1511 C66 1.481 . S
C1516 C20 1.495 . S
C1527 C89 1.502 . S
C1532 C43 1.509 . S
C1543 C157 1.458 . S
C1548 C111 1.453 . S
C1559 C134 1.469 . S
C1564 C180 1.488 . S
C1575 C250 1.515 . S
C1580 C204 1.496 . S
C1591 C227 1.533 . S
C1596 C273 1.527 . S
C1607 C341 1.506 . S
C1612 C295 1.526 . S
C1623 C318 1.478 . S
C1628 C364 1.475 . S
C1639 C388 1.484 . S
C1644 C434 1.493 . S
C1655 C411 1.485 . S
C1660 C457 1.496 . S
C1671 C525 1.474 . S
C1676 C479 1.480 . S
C1687 C502 1.526 . S
C1692 C548 1.507 . S
C1703 C572 1.481 . S
C1708 C618 1.462 . S
C1719 C641 1.515 . S
C1724 C595 1.507 . S
C1735 C663 1.455 . S
C1740 C709 1.458 . S
C1751 C686 1.455 . S
C1756 C732 1.461 . S
C1767 C132 1.678 . S
C1772 C18 1.814 1_556 S
C1783 C661 1.741 . S
C1788 C41 1.805 1_456 S
C1799 C64 1.816 . S
C1804 C362 1.678 . S
C1815 C87 1.737 1_455 S
C1820 C523 1.750 . S
C1831 C110 1.728 . S
C1836 C40 1.716 . S
C1847 C133 1.764 1_655 S
C1852 C569 1.644 . S
C1863 C270 1.711 . S
C1868 C156 1.729 . S
C1879 C431 1.713 . S
C1884 C179 1.740 1_655 S
C1895 C202 1.812 . S
C1900 C316 1.677 . S
C1911 C477 1.683 . S
C1916 C225 1.799 1_455 S
C1927 C248 1.814 . S
C1932 C178 1.722 . S
C1943 C707 1.687 . S
C1948 C271 1.793 1_455 S
C1959 C294 1.730 . S
C1964 C224 1.711 . S
C1975 C317 1.773 1_655 S
C1980 C385 1.638 . S
C1991 C340 1.731 . S
C1996 C86 1.705 . S
C2007 C615 1.708 . S
C2012 C363 1.746 1_655 S
C2023 C386 1.769 . S
C2028 C500 1.744 . S
C2039 C409 1.797 . S
C2044 C293 1.685 . S
C2055 C730 1.697 . S
C2060 C432 1.784 . S
C2071 C155 1.753 . S
C2076 C455 1.769 . S
C2087 C478 1.730 . S
C2092 C408 1.716 . S
C2103 C201 1.717 . S
C2108 C501 1.738 . S
C2119 C638 1.714 . S
C2124 C524 1.740 . S
C2135 C547 1.778 . S
C2140 C63 1.635 . S
C2151 C684 1.758 . S
C2156 C570 1.783 1_556 S
C2167 C593 1.768 1_556 S
C2172 C109 1.748 1_556 S
C2183 C546 1.679 . S
C2188 C616 1.817 . S
C2199 C339 1.719 . S
C2204 C639 1.772 . S
C2215 C592 1.635 . S
C2220 C662 1.775 1_556 S
C2231 C685 1.727 1_556 S
C2236 C17 1.718 . S
C2247 C454 1.672 . S
C2252 C708 1.769 . S
C2263 C731 1.775 . S
C2268 C247 1.635 . S
