# Generated by pormake.
# Topology fcs, (5)-cn, num edge types: 1
# Building blocks:
#     Node 0, Type 0, BuildingBlock: BEQFEK_clean_sbu_0, # of connection points: 5
#     Node 1, Type 0, BuildingBlock: BEQFEK_clean_sbu_0, # of connection points: 5
#     Node 2, Type 0, BuildingBlock: BEQFEK_clean_sbu_0, # of connection points: 5
#     Node 3, Type 0, BuildingBlock: BEQFEK_clean_sbu_0, # of connection points: 5
#     Node 4, Type 0, BuildingBlock: BEQFEK_clean_sbu_0, # of connection points: 5
#     Node 5, Type 0, BuildingBlock: BEQFEK_clean_sbu_0, # of connection points: 5
#     Node 6, Type 0, BuildingBlock: BEQFEK_clean_sbu_0, # of connection points: 5
#     Node 7, Type 0, BuildingBlock: BEQFEK_clean_sbu_0, # of connection points: 5
#     Node 8, Type 0, BuildingBlock: BEQFEK_clean_sbu_0, # of connection points: 5
#     Node 9, Type 0, BuildingBlock: BEQFEK_clean_sbu_0, # of connection points: 5
#     Node 10, Type 0, BuildingBlock: BEQFEK_clean_sbu_0, # of connection points: 5
#     Node 11, Type 0, BuildingBlock: BEQFEK_clean_sbu_0, # of connection points: 5
#     Node 12, Type 0, BuildingBlock: BEQFEK_clean_sbu_0, # of connection points: 5
#     Node 13, Type 0, BuildingBlock: BEQFEK_clean_sbu_0, # of connection points: 5
#     Node 14, Type 0, BuildingBlock: BEQFEK_clean_sbu_0, # of connection points: 5
#     Node 15, Type 0, BuildingBlock: BEQFEK_clean_sbu_0, # of connection points: 5
#     Node 16, Type 0, BuildingBlock: BEQFEK_clean_sbu_0, # of connection points: 5
#     Node 17, Type 0, BuildingBlock: BEQFEK_clean_sbu_0, # of connection points: 5
#     Node 18, Type 0, BuildingBlock: BEQFEK_clean_sbu_0, # of connection points: 5
#     Node 19, Type 0, BuildingBlock: BEQFEK_clean_sbu_0, # of connection points: 5
#     Node 20, Type 0, BuildingBlock: BEQFEK_clean_sbu_0, # of connection points: 5
#     Node 21, Type 0, BuildingBlock: BEQFEK_clean_sbu_0, # of connection points: 5
#     Node 22, Type 0, BuildingBlock: BEQFEK_clean_sbu_0, # of connection points: 5
#     Node 23, Type 0, BuildingBlock: BEQFEK_clean_sbu_0, # of connection points: 5
#     Node 24, Type 0, BuildingBlock: BEQFEK_clean_sbu_0, # of connection points: 5
#     Node 25, Type 0, BuildingBlock: BEQFEK_clean_sbu_0, # of connection points: 5
#     Node 26, Type 0, BuildingBlock: BEQFEK_clean_sbu_0, # of connection points: 5
#     Node 27, Type 0, BuildingBlock: BEQFEK_clean_sbu_0, # of connection points: 5
#     Node 28, Type 0, BuildingBlock: BEQFEK_clean_sbu_0, # of connection points: 5
#     Node 29, Type 0, BuildingBlock: BEQFEK_clean_sbu_0, # of connection points: 5
#     Node 30, Type 0, BuildingBlock: BEQFEK_clean_sbu_0, # of connection points: 5
#     Node 31, Type 0, BuildingBlock: BEQFEK_clean_sbu_0, # of connection points: 5
#     Node 32, Type 0, BuildingBlock: BEQFEK_clean_sbu_0, # of connection points: 5
#     Node 33, Type 0, BuildingBlock: BEQFEK_clean_sbu_0, # of connection points: 5
#     Node 34, Type 0, BuildingBlock: BEQFEK_clean_sbu_0, # of connection points: 5
#     Node 35, Type 0, BuildingBlock: BEQFEK_clean_sbu_0, # of connection points: 5
#     Node 36, Type 0, BuildingBlock: BEQFEK_clean_sbu_0, # of connection points: 5
#     Node 37, Type 0, BuildingBlock: BEQFEK_clean_sbu_0, # of connection points: 5
#     Node 38, Type 0, BuildingBlock: BEQFEK_clean_sbu_0, # of connection points: 5
#     Node 39, Type 0, BuildingBlock: BEQFEK_clean_sbu_0, # of connection points: 5
#     Node 40, Type 0, BuildingBlock: BEQFEK_clean_sbu_0, # of connection points: 5
#     Node 41, Type 0, BuildingBlock: BEQFEK_clean_sbu_0, # of connection points: 5
#     Node 42, Type 0, BuildingBlock: BEQFEK_clean_sbu_0, # of connection points: 5
#     Node 43, Type 0, BuildingBlock: BEQFEK_clean_sbu_0, # of connection points: 5
#     Node 44, Type 0, BuildingBlock: BEQFEK_clean_sbu_0, # of connection points: 5
#     Node 45, Type 0, BuildingBlock: BEQFEK_clean_sbu_0, # of connection points: 5
#     Node 46, Type 0, BuildingBlock: BEQFEK_clean_sbu_0, # of connection points: 5
#     Node 47, Type 0, BuildingBlock: BEQFEK_clean_sbu_0, # of connection points: 5
#     Edge 48, Type (0, 0), BuildingBlock: MIFKUJ_clean_linker_0, # of connection points: 2
#     Edge 49, Type (0, 0), BuildingBlock: MIFKUJ_clean_linker_0, # of connection points: 2
#     Edge 50, Type (0, 0), BuildingBlock: MIFKUJ_clean_linker_0, # of connection points: 2
#     Edge 51, Type (0, 0), BuildingBlock: MIFKUJ_clean_linker_0, # of connection points: 2
#     Edge 52, Type (0, 0), BuildingBlock: MIFKUJ_clean_linker_0, # of connection points: 2
#     Edge 53, Type (0, 0), BuildingBlock: MIFKUJ_clean_linker_0, # of connection points: 2
#     Edge 54, Type (0, 0), BuildingBlock: MIFKUJ_clean_linker_0, # of connection points: 2
#     Edge 55, Type (0, 0), BuildingBlock: MIFKUJ_clean_linker_0, # of connection points: 2
#     Edge 56, Type (0, 0), BuildingBlock: MIFKUJ_clean_linker_0, # of connection points: 2
#     Edge 57, Type (0, 0), BuildingBlock: MIFKUJ_clean_linker_0, # of connection points: 2
#     Edge 58, Type (0, 0), BuildingBlock: MIFKUJ_clean_linker_0, # of connection points: 2
#     Edge 59, Type (0, 0), BuildingBlock: MIFKUJ_clean_linker_0, # of connection points: 2
#     Edge 60, Type (0, 0), BuildingBlock: MIFKUJ_clean_linker_0, # of connection points: 2
#     Edge 61, Type (0, 0), BuildingBlock: MIFKUJ_clean_linker_0, # of connection points: 2
#     Edge 62, Type (0, 0), BuildingBlock: MIFKUJ_clean_linker_0, # of connection points: 2
#     Edge 63, Type (0, 0), BuildingBlock: MIFKUJ_clean_linker_0, # of connection points: 2
#     Edge 64, Type (0, 0), BuildingBlock: MIFKUJ_clean_linker_0, # of connection points: 2
#     Edge 65, Type (0, 0), BuildingBlock: MIFKUJ_clean_linker_0, # of connection points: 2
#     Edge 66, Type (0, 0), BuildingBlock: MIFKUJ_clean_linker_0, # of connection points: 2
#     Edge 67, Type (0, 0), BuildingBlock: MIFKUJ_clean_linker_0, # of connection points: 2
#     Edge 68, Type (0, 0), BuildingBlock: MIFKUJ_clean_linker_0, # of connection points: 2
#     Edge 69, Type (0, 0), BuildingBlock: MIFKUJ_clean_linker_0, # of connection points: 2
#     Edge 70, Type (0, 0), BuildingBlock: MIFKUJ_clean_linker_0, # of connection points: 2
#     Edge 71, Type (0, 0), BuildingBlock: MIFKUJ_clean_linker_0, # of connection points: 2
#     Edge 72, Type (0, 0), BuildingBlock: MIFKUJ_clean_linker_0, # of connection points: 2
#     Edge 73, Type (0, 0), BuildingBlock: MIFKUJ_clean_linker_0, # of connection points: 2
#     Edge 74, Type (0, 0), BuildingBlock: MIFKUJ_clean_linker_0, # of connection points: 2
#     Edge 75, Type (0, 0), BuildingBlock: MIFKUJ_clean_linker_0, # of connection points: 2
#     Edge 76, Type (0, 0), BuildingBlock: MIFKUJ_clean_linker_0, # of connection points: 2
#     Edge 77, Type (0, 0), BuildingBlock: MIFKUJ_clean_linker_0, # of connection points: 2
#     Edge 78, Type (0, 0), BuildingBlock: MIFKUJ_clean_linker_0, # of connection points: 2
#     Edge 79, Type (0, 0), BuildingBlock: MIFKUJ_clean_linker_0, # of connection points: 2
#     Edge 80, Type (0, 0), BuildingBlock: MIFKUJ_clean_linker_0, # of connection points: 2
#     Edge 81, Type (0, 0), BuildingBlock: MIFKUJ_clean_linker_0, # of connection points: 2
#     Edge 82, Type (0, 0), BuildingBlock: MIFKUJ_clean_linker_0, # of connection points: 2
#     Edge 83, Type (0, 0), BuildingBlock: MIFKUJ_clean_linker_0, # of connection points: 2
#     Edge 84, Type (0, 0), BuildingBlock: MIFKUJ_clean_linker_0, # of connection points: 2
#     Edge 85, Type (0, 0), BuildingBlock: MIFKUJ_clean_linker_0, # of connection points: 2
#     Edge 86, Type (0, 0), BuildingBlock: MIFKUJ_clean_linker_0, # of connection points: 2
#     Edge 87, Type (0, 0), BuildingBlock: MIFKUJ_clean_linker_0, # of connection points: 2
#     Edge 88, Type (0, 0), BuildingBlock: MIFKUJ_clean_linker_0, # of connection points: 2
#     Edge 89, Type (0, 0), BuildingBlock: MIFKUJ_clean_linker_0, # of connection points: 2
#     Edge 90, Type (0, 0), BuildingBlock: MIFKUJ_clean_linker_0, # of connection points: 2
#     Edge 91, Type (0, 0), BuildingBlock: MIFKUJ_clean_linker_0, # of connection points: 2
#     Edge 92, Type (0, 0), BuildingBlock: MIFKUJ_clean_linker_0, # of connection points: 2
#     Edge 93, Type (0, 0), BuildingBlock: MIFKUJ_clean_linker_0, # of connection points: 2
#     Edge 94, Type (0, 0), BuildingBlock: MIFKUJ_clean_linker_0, # of connection points: 2
#     Edge 95, Type (0, 0), BuildingBlock: MIFKUJ_clean_linker_0, # of connection points: 2
#     Edge 96, Type (0, 0), BuildingBlock: MIFKUJ_clean_linker_0, # of connection points: 2
#     Edge 97, Type (0, 0), BuildingBlock: MIFKUJ_clean_linker_0, # of connection points: 2
#     Edge 98, Type (0, 0), BuildingBlock: MIFKUJ_clean_linker_0, # of connection points: 2
#     Edge 99, Type (0, 0), BuildingBlock: MIFKUJ_clean_linker_0, # of connection points: 2
#     Edge 100, Type (0, 0), BuildingBlock: MIFKUJ_clean_linker_0, # of connection points: 2
#     Edge 101, Type (0, 0), BuildingBlock: MIFKUJ_clean_linker_0, # of connection points: 2
#     Edge 102, Type (0, 0), BuildingBlock: MIFKUJ_clean_linker_0, # of connection points: 2
#     Edge 103, Type (0, 0), BuildingBlock: MIFKUJ_clean_linker_0, # of connection points: 2
#     Edge 104, Type (0, 0), BuildingBlock: MIFKUJ_clean_linker_0, # of connection points: 2
#     Edge 105, Type (0, 0), BuildingBlock: MIFKUJ_clean_linker_0, # of connection points: 2
#     Edge 106, Type (0, 0), BuildingBlock: MIFKUJ_clean_linker_0, # of connection points: 2
#     Edge 107, Type (0, 0), BuildingBlock: MIFKUJ_clean_linker_0, # of connection points: 2
#     Edge 108, Type (0, 0), BuildingBlock: MIFKUJ_clean_linker_0, # of connection points: 2
#     Edge 109, Type (0, 0), BuildingBlock: MIFKUJ_clean_linker_0, # of connection points: 2
#     Edge 110, Type (0, 0), BuildingBlock: MIFKUJ_clean_linker_0, # of connection points: 2
#     Edge 111, Type (0, 0), BuildingBlock: MIFKUJ_clean_linker_0, # of connection points: 2
#     Edge 112, Type (0, 0), BuildingBlock: MIFKUJ_clean_linker_0, # of connection points: 2
#     Edge 113, Type (0, 0), BuildingBlock: MIFKUJ_clean_linker_0, # of connection points: 2
#     Edge 114, Type (0, 0), BuildingBlock: MIFKUJ_clean_linker_0, # of connection points: 2
#     Edge 115, Type (0, 0), BuildingBlock: MIFKUJ_clean_linker_0, # of connection points: 2
#     Edge 116, Type (0, 0), BuildingBlock: MIFKUJ_clean_linker_0, # of connection points: 2
#     Edge 117, Type (0, 0), BuildingBlock: MIFKUJ_clean_linker_0, # of connection points: 2
#     Edge 118, Type (0, 0), BuildingBlock: MIFKUJ_clean_linker_0, # of connection points: 2
#     Edge 119, Type (0, 0), BuildingBlock: MIFKUJ_clean_linker_0, # of connection points: 2
#     Edge 120, Type (0, 0), BuildingBlock: MIFKUJ_clean_linker_0, # of connection points: 2
#     Edge 121, Type (0, 0), BuildingBlock: MIFKUJ_clean_linker_0, # of connection points: 2
#     Edge 122, Type (0, 0), BuildingBlock: MIFKUJ_clean_linker_0, # of connection points: 2
#     Edge 123, Type (0, 0), BuildingBlock: MIFKUJ_clean_linker_0, # of connection points: 2
#     Edge 124, Type (0, 0), BuildingBlock: MIFKUJ_clean_linker_0, # of connection points: 2
#     Edge 125, Type (0, 0), BuildingBlock: MIFKUJ_clean_linker_0, # of connection points: 2
#     Edge 126, Type (0, 0), BuildingBlock: MIFKUJ_clean_linker_0, # of connection points: 2
#     Edge 127, Type (0, 0), BuildingBlock: MIFKUJ_clean_linker_0, # of connection points: 2
#     Edge 128, Type (0, 0), BuildingBlock: MIFKUJ_clean_linker_0, # of connection points: 2
#     Edge 129, Type (0, 0), BuildingBlock: MIFKUJ_clean_linker_0, # of connection points: 2
#     Edge 130, Type (0, 0), BuildingBlock: MIFKUJ_clean_linker_0, # of connection points: 2
#     Edge 131, Type (0, 0), BuildingBlock: MIFKUJ_clean_linker_0, # of connection points: 2
#     Edge 132, Type (0, 0), BuildingBlock: MIFKUJ_clean_linker_0, # of connection points: 2
#     Edge 133, Type (0, 0), BuildingBlock: MIFKUJ_clean_linker_0, # of connection points: 2
#     Edge 134, Type (0, 0), BuildingBlock: MIFKUJ_clean_linker_0, # of connection points: 2
#     Edge 135, Type (0, 0), BuildingBlock: MIFKUJ_clean_linker_0, # of connection points: 2
#     Edge 136, Type (0, 0), BuildingBlock: MIFKUJ_clean_linker_0, # of connection points: 2
#     Edge 137, Type (0, 0), BuildingBlock: MIFKUJ_clean_linker_0, # of connection points: 2
#     Edge 138, Type (0, 0), BuildingBlock: MIFKUJ_clean_linker_0, # of connection points: 2
#     Edge 139, Type (0, 0), BuildingBlock: MIFKUJ_clean_linker_0, # of connection points: 2
#     Edge 140, Type (0, 0), BuildingBlock: MIFKUJ_clean_linker_0, # of connection points: 2
#     Edge 141, Type (0, 0), BuildingBlock: MIFKUJ_clean_linker_0, # of connection points: 2
#     Edge 142, Type (0, 0), BuildingBlock: MIFKUJ_clean_linker_0, # of connection points: 2
#     Edge 143, Type (0, 0), BuildingBlock: MIFKUJ_clean_linker_0, # of connection points: 2
#     Edge 144, Type (0, 0), BuildingBlock: MIFKUJ_clean_linker_0, # of connection points: 2
#     Edge 145, Type (0, 0), BuildingBlock: MIFKUJ_clean_linker_0, # of connection points: 2
#     Edge 146, Type (0, 0), BuildingBlock: MIFKUJ_clean_linker_0, # of connection points: 2
#     Edge 147, Type (0, 0), BuildingBlock: MIFKUJ_clean_linker_0, # of connection points: 2
#     Edge 148, Type (0, 0), BuildingBlock: MIFKUJ_clean_linker_0, # of connection points: 2
#     Edge 149, Type (0, 0), BuildingBlock: MIFKUJ_clean_linker_0, # of connection points: 2
#     Edge 150, Type (0, 0), BuildingBlock: MIFKUJ_clean_linker_0, # of connection points: 2
#     Edge 151, Type (0, 0), BuildingBlock: MIFKUJ_clean_linker_0, # of connection points: 2
#     Edge 152, Type (0, 0), BuildingBlock: MIFKUJ_clean_linker_0, # of connection points: 2
#     Edge 153, Type (0, 0), BuildingBlock: MIFKUJ_clean_linker_0, # of connection points: 2
#     Edge 154, Type (0, 0), BuildingBlock: MIFKUJ_clean_linker_0, # of connection points: 2
#     Edge 155, Type (0, 0), BuildingBlock: MIFKUJ_clean_linker_0, # of connection points: 2
#     Edge 156, Type (0, 0), BuildingBlock: MIFKUJ_clean_linker_0, # of connection points: 2
#     Edge 157, Type (0, 0), BuildingBlock: MIFKUJ_clean_linker_0, # of connection points: 2
#     Edge 158, Type (0, 0), BuildingBlock: MIFKUJ_clean_linker_0, # of connection points: 2
#     Edge 159, Type (0, 0), BuildingBlock: MIFKUJ_clean_linker_0, # of connection points: 2
#     Edge 160, Type (0, 0), BuildingBlock: MIFKUJ_clean_linker_0, # of connection points: 2
#     Edge 161, Type (0, 0), BuildingBlock: MIFKUJ_clean_linker_0, # of connection points: 2
#     Edge 162, Type (0, 0), BuildingBlock: MIFKUJ_clean_linker_0, # of connection points: 2
#     Edge 163, Type (0, 0), BuildingBlock: MIFKUJ_clean_linker_0, # of connection points: 2
#     Edge 164, Type (0, 0), BuildingBlock: MIFKUJ_clean_linker_0, # of connection points: 2
#     Edge 165, Type (0, 0), BuildingBlock: MIFKUJ_clean_linker_0, # of connection points: 2
#     Edge 166, Type (0, 0), BuildingBlock: MIFKUJ_clean_linker_0, # of connection points: 2
#     Edge 167, Type (0, 0), BuildingBlock: MIFKUJ_clean_linker_0, # of connection points: 2
# Relax obj value: 0.299
# Max RMSD: 0.231
# Mean RMSD: 0.231
data_MOF--net-fcs--node1-BEQFEK_clean_sbu_0--edge1-MIFKUJ_clean_linker_0
_symmetry_space_group_name_H-M    P1
_symmetry_Int_Tables_number       1
_symmetry_cell_setting            triclinic
loop_
_symmetry_equiv_pos_as_xyz
'x, y, z'
_cell_length_a     76.206409
_cell_length_b     76.222536
_cell_length_c     76.217901
_cell_angle_alpha  89.992937
_cell_angle_beta   90.034165
_cell_angle_gamma 90.000815
loop_
_atom_site_label
_atom_site_type_symbol
_atom_site_fract_x
_atom_site_fract_y
_atom_site_fract_z
_atom_type_partial_charge
Co0 Co 0.1461 0.11895 0.30382 0.0
Co1 Co 0.10575 0.12082 0.30997 0.0
C2 C 0.13227 0.14363 0.32939 0.0
O3 O 0.14569 0.13623 0.32277 0.0
O4 O 0.11673 0.13865 0.3256 0.0
C5 C 0.18116 0.1248 0.29236 0.0
O6 O 0.17769 0.14126 0.29612 0.0
C7 C 0.07384 0.11377 0.33021 0.0
C8 C 0.05338 0.11868 0.31023 0.0
C9 C 0.05584 0.11343 0.32746 0.0
N10 N 0.08158 0.11889 0.31524 0.0
N11 N 0.06928 0.12194 0.3034 0.0
C12 C 0.08373 0.10822 0.34623 0.0
H13 H 0.09735 0.10444 0.34274 0.0
H14 H 0.07698 0.09711 0.35281 0.0
H15 H 0.08437 0.1194 0.35553 0.0
C16 C 0.13905 0.08149 0.30724 0.0
N17 N 0.1339 0.09817 0.30958 0.0
N18 N 0.11672 0.0987 0.31038 0.0
C19 C 0.11027 0.08251 0.30745 0.0
C20 C 0.12428 0.07097 0.3051 0.0
C21 C 0.15783 0.07608 0.30512 0.0
H22 H 0.16609 0.08315 0.31481 0.0
H23 H 0.15935 0.06171 0.30696 0.0
H24 H 0.16247 0.07967 0.29182 0.0
O25 O 0.13584 0.13084 0.28274 0.0
O26 O 0.10704 0.13045 0.28648 0.0
H27 H 0.08941 0.06693 0.29561 0.0
H28 H 0.08371 0.07848 0.31542 0.0
C29 C 0.09137 0.07923 0.30307 0.0
H30 H 0.08615 0.09028 0.29518 0.0
H31 H 0.07177 0.12594 0.29055 0.0
O32 O 0.17005 0.11307 0.29633 0.0
C33 C 0.1204 0.13443 0.27739 0.0
Co34 Co 0.37047 0.596 0.94139 0.0
Co35 Co 0.36765 0.63461 0.92768 0.0
C36 C 0.38994 0.60856 0.90946 0.0
O37 O 0.38574 0.5966 0.92037 0.0
O38 O 0.38323 0.62385 0.91025 0.0
C39 C 0.36275 0.5577 0.94703 0.0
O40 O 0.35256 0.55672 0.93316 0.0
C41 C 0.36187 0.66651 0.90645 0.0
C42 C 0.36091 0.68645 0.92752 0.0
C43 C 0.36055 0.68437 0.90952 0.0
N44 N 0.36298 0.65837 0.92205 0.0
N45 N 0.36223 0.67036 0.93457 0.0
C46 C 0.36365 0.65747 0.88915 0.0
H47 H 0.35892 0.64373 0.89016 0.0
H48 H 0.35626 0.66459 0.87882 0.0
H49 H 0.37771 0.65723 0.88539 0.0
C50 C 0.33201 0.60079 0.94366 0.0
N51 N 0.34788 0.60565 0.93763 0.0
N52 N 0.34675 0.62163 0.93117 0.0
C53 C 0.33002 0.62715 0.93234 0.0
C54 C 0.32014 0.61421 0.9404 0.0
C55 C 0.32904 0.58548 0.95567 0.0
H56 H 0.34061 0.58351 0.96426 0.0
H57 H 0.32701 0.57352 0.94767 0.0
H58 H 0.31721 0.58726 0.96395 0.0
O59 O 0.38267 0.60932 0.95972 0.0
O60 O 0.3816 0.63639 0.94936 0.0
H61 H 0.32969 0.6543 0.93928 0.0
H62 H 0.30969 0.64667 0.92915 0.0
C63 C 0.32422 0.6456 0.92898 0.0
H64 H 0.32916 0.65001 0.91604 0.0
H65 H 0.36312 0.66758 0.94794 0.0
O66 O 0.37005 0.57208 0.95115 0.0
C67 C 0.38656 0.62547 0.9609 0.0
Co68 Co 0.8466 0.37248 0.30123 0.0
Co69 Co 0.8864 0.37405 0.3111 0.0
C70 C 0.86052 0.35102 0.33031 0.0
O71 O 0.84734 0.35668 0.3217 0.0
O72 O 0.87595 0.3569 0.32757 0.0
C73 C 0.80781 0.37873 0.29796 0.0
O74 O 0.80617 0.38334 0.31447 0.0
C75 C 0.9172 0.38021 0.33326 0.0
C76 C 0.93741 0.38597 0.31325 0.0
C77 C 0.93459 0.38504 0.33116 0.0
N78 N 0.90999 0.37863 0.31727 0.0
N79 N 0.92217 0.38189 0.30537 0.0
C80 C 0.90727 0.37818 0.35004 0.0
H81 H 0.89339 0.38219 0.34814 0.0
H82 H 0.91335 0.38605 0.36068 0.0
H83 H 0.90742 0.36415 0.35395 0.0
C84 C 0.85131 0.41085 0.3014 0.0
N85 N 0.85689 0.39464 0.30559 0.0
N86 N 0.87365 0.39537 0.30964 0.0
C87 C 0.87921 0.4121 0.30816 0.0
C88 C 0.86532 0.42242 0.30251 0.0
C89 C 0.83372 0.41474 0.2936 0.0
H90 H 0.83179 0.40668 0.28163 0.0
H91 H 0.82343 0.41129 0.30324 0.0
H92 H 0.83226 0.42883 0.29024 0.0
O93 O 0.85909 0.36025 0.28212 0.0
O94 O 0.88741 0.36209 0.28829 0.0
H95 H 0.90501 0.41166 0.29724 0.0
H96 H 0.89956 0.43199 0.30796 0.0
C97 C 0.89808 0.41753 0.30859 0.0
H98 H 0.90425 0.41281 0.32087 0.0
H99 H 0.91997 0.38165 0.29185 0.0
O100 O 0.82265 0.3746 0.29168 0.0
C101 C 0.87501 0.35696 0.27839 0.0
Co102 Co 0.62522 0.89722 0.93739 0.0
Co103 Co 0.62534 0.85747 0.92743 0.0
C104 C 0.60388 0.88361 0.9076 0.0
O105 O 0.60937 0.89648 0.91678 0.0
O106 O 0.60963 0.86809 0.90999 0.0
C107 C 0.61789 0.93207 0.94896 0.0
O108 O 0.60151 0.92797 0.94545 0.0
C109 C 0.62808 0.8232 0.90933 0.0
C110 C 0.63305 0.80607 0.93225 0.0
C111 C 0.63106 0.8059 0.9142 0.0
N112 N 0.62856 0.83312 0.9239 0.0
N113 N 0.63145 0.82278 0.93751 0.0
C114 C 0.62373 0.83007 0.89145 0.0
H115 H 0.61471 0.84139 0.89238 0.0
H116 H 0.63598 0.83456 0.88499 0.0
H117 H 0.61752 0.81979 0.88323 0.0
C118 C 0.6632 0.89061 0.93818 0.0
N119 N 0.64687 0.8857 0.93363 0.0
N120 N 0.64707 0.86905 0.92921 0.0
C121 C 0.6636 0.86291 0.93064 0.0
C122 C 0.6743 0.87628 0.93673 0.0
C123 C 0.66745 0.90763 0.94699 0.0
H124 H 0.66292 0.91867 0.93867 0.0
H125 H 0.68177 0.90901 0.94932 0.0
H126 H 0.66045 0.90828 0.95973 0.0
O127 O 0.61189 0.88659 0.95707 0.0
O128 O 0.61216 0.85861 0.94936 0.0
H129 H 0.66393 0.83705 0.94143 0.0
H130 H 0.68301 0.84239 0.92856 0.0
C131 C 0.66856 0.84396 0.92949 0.0
H132 H 0.66237 0.83791 0.9178 0.0
H133 H 0.6323 0.82717 0.95046 0.0
O134 O 0.62996 0.92134 0.94498 0.0
C135 C 0.60735 0.87075 0.95968 0.0
Co136 Co 0.14635 0.8756 0.18832 0.0
Co137 Co 0.10817 0.87608 0.17382 0.0
C138 C 0.13592 0.85646 0.15525 0.0
O139 O 0.14726 0.86075 0.16685 0.0
O140 O 0.12037 0.86269 0.15547 0.0
C141 C 0.185 0.87534 0.19777 0.0
O142 O 0.19018 0.86652 0.18391 0.0
C143 C 0.07389 0.87978 0.15531 0.0
C144 C 0.05678 0.88158 0.1787 0.0
C145 C 0.0565 0.88112 0.16057 0.0
N146 N 0.08394 0.87942 0.16982 0.0
N147 N 0.07361 0.8806 0.18368 0.0
C148 C 0.08075 0.87792 0.13704 0.0
H149 H 0.09368 0.87129 0.13705 0.0
H150 H 0.08242 0.89117 0.13125 0.0
H151 H 0.07136 0.87046 0.12877 0.0
C152 C 0.13954 0.91341 0.19106 0.0
N153 N 0.13521 0.89737 0.18506 0.0
N154 N 0.11912 0.89772 0.17893 0.0
C155 C 0.11274 0.91411 0.18056 0.0
C156 C 0.12533 0.92456 0.18859 0.0
C157 C 0.15559 0.91689 0.20187 0.0
H158 H 0.16742 0.91314 0.19427 0.0
H159 H 0.15676 0.93081 0.20583 0.0
H160 H 0.15513 0.90865 0.21386 0.0
O161 O 0.13414 0.86159 0.20615 0.0
O162 O 0.10789 0.85993 0.19397 0.0
H163 H 0.08531 0.91446 0.18632 0.0
H164 H 0.09314 0.93389 0.17533 0.0
C165 C 0.09437 0.91939 0.17607 0.0
H166 H 0.09053 0.91358 0.1633 0.0
H167 H 0.07808 0.88046 0.19663 0.0
O168 O 0.16898 0.87934 0.19964 0.0
C169 C 0.11862 0.85565 0.20591 0.0
Co170 Co 0.12535 0.59923 0.05177 0.0
Co171 Co 0.12502 0.63658 0.0685 0.0
C172 C 0.10354 0.60781 0.08325 0.0
O173 O 0.1084 0.59742 0.07109 0.0
O174 O 0.11003 0.62315 0.085 0.0
C175 C 0.12461 0.56131 0.04238 0.0
O176 O 0.1143 0.55765 0.05569 0.0
C177 C 0.13041 0.66775 0.09111 0.0
C178 C 0.12774 0.68863 0.07111 0.0
C179 C 0.13028 0.68577 0.08882 0.0
N180 N 0.12794 0.66026 0.07534 0.0
N181 N 0.12651 0.67283 0.06346 0.0
C182 C 0.13171 0.65789 0.10799 0.0
H183 H 0.13455 0.64382 0.10547 0.0
H184 H 0.14209 0.66368 0.11641 0.0
H185 H 0.11906 0.65898 0.11511 0.0
C186 C 0.16306 0.6049 0.05366 0.0
N187 N 0.14675 0.60953 0.05838 0.0
N188 N 0.14689 0.62578 0.0641 0.0
C189 C 0.1633 0.63221 0.06263 0.0
C190 C 0.17405 0.61925 0.05563 0.0
C191 C 0.16748 0.58806 0.04455 0.0
H192 H 0.16163 0.57689 0.0518 0.0
H193 H 0.1819 0.58616 0.0437 0.0
H194 H 0.16193 0.58825 0.0311 0.0
O195 O 0.11323 0.61305 0.03352 0.0
O196 O 0.11065 0.63846 0.04724 0.0
H197 H 0.16024 0.65895 0.05475 0.0
H198 H 0.182 0.65363 0.06262 0.0
C199 C 0.16777 0.65123 0.06454 0.0
H200 H 0.16394 0.65578 0.07781 0.0
H201 H 0.12443 0.67061 0.05011 0.0
O202 O 0.12985 0.5769 0.03997 0.0
C203 C 0.10718 0.62855 0.03434 0.0
Co204 Co 0.8459 0.61799 0.18606 0.0
Co205 Co 0.88685 0.61918 0.18204 0.0
C206 C 0.8625 0.64027 0.15928 0.0
O207 O 0.84847 0.6336 0.16542 0.0
O208 O 0.87755 0.63541 0.16458 0.0
C209 C 0.80435 0.61072 0.19266 0.0
O210 O 0.79418 0.60772 0.17907 0.0
C211 C 0.91969 0.61409 0.16312 0.0
C212 C 0.93911 0.61479 0.18466 0.0
C213 C 0.93751 0.61262 0.16667 0.0
N214 N 0.91127 0.61687 0.17834 0.0
N215 N 0.92293 0.61743 0.19115 0.0
C216 C 0.91047 0.61147 0.14599 0.0
H217 H 0.89667 0.60737 0.14825 0.0
H218 H 0.91733 0.60146 0.13794 0.0
H219 H 0.91033 0.62405 0.13868 0.0
C220 C 0.85381 0.58008 0.18766 0.0
N221 N 0.85851 0.59667 0.18386 0.0
N222 N 0.87561 0.59726 0.18166 0.0
C223 C 0.88229 0.58107 0.18372 0.0
C224 C 0.86877 0.56966 0.18788 0.0
C225 C 0.83606 0.57514 0.19447 0.0
H226 H 0.83335 0.58256 0.20671 0.0
H227 H 0.82595 0.57883 0.18467 0.0
H228 H 0.83508 0.56087 0.19719 0.0
O229 O 0.85455 0.63205 0.20612 0.0
O230 O 0.88365 0.63111 0.2047 0.0
H231 H 0.90737 0.58461 0.19585 0.0
H232 H 0.90395 0.5629 0.18692 0.0
C233 C 0.9015 0.57711 0.18486 0.0
H234 H 0.90799 0.58113 0.17251 0.0
H235 H 0.9198 0.61934 0.20434 0.0
O236 O 0.82059 0.61357 0.19011 0.0
C237 C 0.8696 0.63627 0.21208 0.0
Co238 Co 0.86945 0.8978 0.05509 0.0
Co239 Co 0.8679 0.85864 0.06658 0.0
C240 C 0.88659 0.887 0.08747 0.0
O241 O 0.88118 0.89946 0.07771 0.0
O242 O 0.88234 0.87101 0.08462 0.0
C243 C 0.86611 0.93634 0.04482 0.0
O244 O 0.86389 0.94253 0.06075 0.0
C245 C 0.86106 0.82705 0.08786 0.0
C246 C 0.85713 0.80766 0.06659 0.0
C247 C 0.85691 0.80964 0.08463 0.0
N248 N 0.86337 0.83503 0.07233 0.0
N249 N 0.8612 0.82334 0.05972 0.0
C250 C 0.86183 0.83625 0.10516 0.0
H251 H 0.85806 0.85023 0.10356 0.0
H252 H 0.85311 0.82978 0.11485 0.0
H253 H 0.8755 0.83579 0.11016 0.0
C254 C 0.83152 0.892 0.05113 0.0
N255 N 0.84744 0.88685 0.05669 0.0
N256 N 0.84659 0.87042 0.06184 0.0
C257 C 0.82999 0.86467 0.05985 0.0
C258 C 0.81995 0.87809 0.05284 0.0
C259 C 0.82809 0.90897 0.04186 0.0
H260 H 0.83584 0.90941 0.02955 0.0
H261 H 0.8324 0.92001 0.0503 0.0
H262 H 0.81396 0.91059 0.0387 0.0
O263 O 0.88589 0.88494 0.04013 0.0
O264 O 0.88269 0.85666 0.04554 0.0
H265 H 0.83016 0.83803 0.05117 0.0
H266 H 0.80983 0.84474 0.06119 0.0
C267 C 0.82433 0.84598 0.06186 0.0
H268 H 0.82892 0.8408 0.07464 0.0
H269 H 0.86218 0.82617 0.04636 0.0
O270 O 0.86792 0.92 0.04231 0.0
C271 C 0.88976 0.86907 0.03708 0.0
Co272 Co 0.30797 0.14767 0.11901 0.0
Co273 Co 0.31253 0.10719 0.11822 0.0
C274 C 0.33506 0.13268 0.13969 0.0
O275 O 0.32996 0.14679 0.13234 0.0
O276 O 0.329 0.11776 0.1352 0.0
C277 C 0.30048 0.18714 0.11316 0.0
O278 O 0.31563 0.19208 0.10658 0.0
C279 C 0.33348 0.07536 0.11312 0.0
C280 C 0.313 0.05494 0.11552 0.0
C281 C 0.33086 0.05739 0.11337 0.0
N282 N 0.31782 0.08318 0.11511 0.0
N283 N 0.30562 0.07092 0.11636 0.0
C284 C 0.35059 0.08493 0.11265 0.0
H285 H 0.34842 0.09925 0.11115 0.0
H286 H 0.35876 0.08007 0.10165 0.0
H287 H 0.35784 0.0824 0.12502 0.0
C288 C 0.30479 0.14165 0.08072 0.0
N289 N 0.30926 0.13631 0.09696 0.0
N290 N 0.31168 0.11924 0.09674 0.0
C291 C 0.30897 0.1132 0.0804 0.0
C292 C 0.30436 0.12716 0.06969 0.0
C293 C 0.29772 0.15951 0.07667 0.0
H294 H 0.28579 0.16192 0.08466 0.0
H295 H 0.30767 0.16949 0.08023 0.0
H296 H 0.2944 0.16091 0.06255 0.0
O297 O 0.29062 0.13644 0.13469 0.0
O298 O 0.28979 0.10781 0.13033 0.0
H299 H 0.29662 0.08822 0.0837 0.0
H300 H 0.30479 0.09215 0.06174 0.0
C301 C 0.30741 0.09414 0.07593 0.0
H302 H 0.31978 0.08734 0.07945 0.0
H303 H 0.29231 0.07347 0.11825 0.0
O304 O 0.29784 0.17126 0.11736 0.0
C305 C 0.28403 0.12147 0.1379 0.0
Co306 Co 0.39734 0.43819 0.1256 0.0
Co307 Co 0.35705 0.43291 0.12349 0.0
C308 C 0.3836 0.41104 0.10312 0.0
O309 O 0.39715 0.41731 0.11057 0.0
O310 O 0.36818 0.41616 0.10709 0.0
C311 C 0.43305 0.44861 0.12032 0.0
O312 O 0.43114 0.44273 0.10423 0.0
C313 C 0.32447 0.4136 0.12951 0.0
C314 C 0.30478 0.43434 0.1246 0.0
C315 C 0.30655 0.41691 0.12946 0.0
N316 N 0.33277 0.42844 0.12497 0.0
N317 N 0.32096 0.44074 0.12193 0.0
C318 C 0.33379 0.39724 0.13505 0.0
H319 H 0.34746 0.40031 0.13906 0.0
H320 H 0.32673 0.39079 0.14602 0.0
H321 H 0.33432 0.38802 0.1238 0.0
C322 C 0.38919 0.4389 0.16323 0.0
N323 N 0.38454 0.43521 0.14662 0.0
N324 N 0.36742 0.43354 0.14583 0.0
C325 C 0.36055 0.43655 0.16183 0.0
C326 C 0.37415 0.44024 0.1734 0.0
C327 C 0.40738 0.44394 0.16869 0.0
H328 H 0.41695 0.43443 0.16323 0.0
H329 H 0.40862 0.44422 0.1832 0.0
H330 H 0.41049 0.45715 0.16343 0.0
O331 O 0.38803 0.45784 0.11085 0.0
O332 O 0.35911 0.45564 0.11199 0.0
H333 H 0.33631 0.44921 0.15538 0.0
H334 H 0.33879 0.44438 0.17849 0.0
C335 C 0.34139 0.43956 0.16501 0.0
H336 H 0.33422 0.42706 0.16307 0.0
H337 H 0.32396 0.4536 0.1183 0.0
O338 O 0.42102 0.44599 0.13149 0.0
C339 C 0.37283 0.46346 0.10673 0.0
Co340 Co 0.68778 0.34669 0.12043 0.0
Co341 Co 0.6822 0.38699 0.12103 0.0
C342 C 0.65983 0.36122 0.14158 0.0
O343 O 0.66607 0.34741 0.13453 0.0
O344 O 0.66514 0.37648 0.1373 0.0
C345 C 0.69505 0.3067 0.11647 0.0
O346 O 0.67954 0.29979 0.11946 0.0
C347 C 0.66258 0.41952 0.11556 0.0
C348 C 0.68423 0.43883 0.11467 0.0
C349 C 0.66619 0.43719 0.11306 0.0
N350 N 0.67785 0.41117 0.1183 0.0
N351 N 0.69071 0.42278 0.11795 0.0
C352 C 0.64535 0.4103 0.11378 0.0
H353 H 0.64743 0.3963 0.11034 0.0
H354 H 0.63709 0.41673 0.10365 0.0
H355 H 0.63834 0.41085 0.12653 0.0
C356 C 0.69149 0.35406 0.08259 0.0
N357 N 0.68645 0.3588 0.09884 0.0
N358 N 0.68301 0.37567 0.09902 0.0
C359 C 0.68509 0.38215 0.08274 0.0
C360 C 0.69098 0.36882 0.07179 0.0
C361 C 0.69995 0.33674 0.07873 0.0
H362 H 0.71163 0.33515 0.08727 0.0
H363 H 0.69061 0.32604 0.08191 0.0
H364 H 0.70416 0.33542 0.06492 0.0
O365 O 0.70611 0.35662 0.13565 0.0
O366 O 0.70491 0.38548 0.13342 0.0
H367 H 0.69346 0.40891 0.08428 0.0
H368 H 0.6833 0.4031 0.06361 0.0
C369 C 0.6829 0.4011 0.07803 0.0
H370 H 0.6701 0.40586 0.08296 0.0
H371 H 0.70395 0.41967 0.11953 0.0
O372 O 0.69716 0.32318 0.11689 0.0
C373 C 0.71203 0.37169 0.13952 0.0
Co374 Co 0.59344 0.05512 0.12281 0.0
Co375 Co 0.63349 0.06455 0.12251 0.0
C376 C 0.6068 0.08607 0.10325 0.0
O377 O 0.59394 0.07704 0.10897 0.0
O378 O 0.62251 0.08272 0.10783 0.0
C379 C 0.55593 0.05051 0.13425 0.0
O380 O 0.55687 0.06323 0.14584 0.0
C381 C 0.66764 0.0833 0.12612 0.0
C382 C 0.68537 0.06038 0.12749 0.0
C383 C 0.68522 0.07855 0.12748 0.0
N384 N 0.65796 0.06852 0.12543 0.0
N385 N 0.66868 0.05493 0.12627 0.0
C386 C 0.6602 0.10141 0.12473 0.0
H387 H 0.64705 0.10118 0.1186 0.0
H388 H 0.65882 0.10701 0.1381 0.0
H389 H 0.66905 0.11 0.11699 0.0
C390 C 0.60185 0.05007 0.1607 0.0
N391 N 0.60568 0.05628 0.14457 0.0
N392 N 0.62213 0.06157 0.14442 0.0
C393 C 0.62898 0.05968 0.16059 0.0
C394 C 0.61646 0.05217 0.17141 0.0
C395 C 0.58617 0.03893 0.16476 0.0
H396 H 0.58159 0.03207 0.1528 0.0
H397 H 0.57551 0.0474 0.16986 0.0
H398 H 0.58919 0.02897 0.17493 0.0
O399 O 0.60397 0.03727 0.1077 0.0
O400 O 0.63245 0.04277 0.10842 0.0
H401 H 0.65613 0.05269 0.15986 0.0
H402 H 0.64953 0.06378 0.17968 0.0
C403 C 0.64772 0.06326 0.16524 0.0
H404 H 0.65188 0.07594 0.15947 0.0
H405 H 0.66458 0.04188 0.12588 0.0
O406 O 0.56917 0.0466 0.12497 0.0
C407 C 0.61954 0.0337 0.10305 0.0
Co408 Co 0.30771 0.84602 0.37352 0.0
Co409 Co 0.31348 0.88655 0.37535 0.0
C410 C 0.33543 0.86069 0.35321 0.0
O411 O 0.32945 0.84666 0.36008 0.0
O412 O 0.33005 0.87584 0.35801 0.0
C413 C 0.29825 0.80656 0.37752 0.0
O414 O 0.31375 0.80017 0.38152 0.0
C415 C 0.33293 0.92022 0.37971 0.0
C416 C 0.31033 0.9382 0.38249 0.0
C417 C 0.32848 0.93782 0.38182 0.0
N418 N 0.31801 0.91078 0.37921 0.0
N419 N 0.30461 0.92165 0.38088 0.0
C420 C 0.35081 0.91256 0.3771 0.0
H421 H 0.34996 0.89959 0.37062 0.0
H422 H 0.35714 0.91073 0.39008 0.0
H423 H 0.35908 0.92152 0.36914 0.0
C424 C 0.30604 0.85069 0.4118 0.0
N425 N 0.30989 0.85682 0.39574 0.0
N426 N 0.31188 0.87392 0.39657 0.0
C427 C 0.30884 0.87933 0.41311 0.0
C428 C 0.30473 0.86475 0.42335 0.0
C429 C 0.30192 0.83187 0.41557 0.0
H430 H 0.31195 0.82339 0.40931 0.0
H431 H 0.3017 0.82928 0.42991 0.0
H432 H 0.28895 0.82851 0.40987 0.0
O433 O 0.29073 0.85816 0.35814 0.0
O434 O 0.29086 0.88663 0.36349 0.0
H435 H 0.29497 0.90353 0.41056 0.0
H436 H 0.30414 0.90029 0.43203 0.0
C437 C 0.3064 0.89825 0.41786 0.0
H438 H 0.31821 0.90578 0.41391 0.0
H439 H 0.29148 0.91778 0.38071 0.0
O440 O 0.29627 0.82288 0.3749 0.0
C441 C 0.28448 0.8734 0.35579 0.0
Co442 Co 0.09445 0.43433 0.86835 0.0
Co443 Co 0.1352 0.43088 0.86638 0.0
C444 C 0.11043 0.40786 0.8889 0.0
O445 O 0.09598 0.41238 0.88176 0.0
O446 O 0.12504 0.41438 0.88392 0.0
C447 C 0.05488 0.4421 0.86351 0.0
O448 O 0.04996 0.42694 0.85696 0.0
C449 C 0.16835 0.41101 0.86188 0.0
C450 C 0.18721 0.43302 0.86101 0.0
C451 C 0.18616 0.41488 0.86091 0.0
N452 N 0.15941 0.42622 0.86261 0.0
N453 N 0.17078 0.43928 0.86194 0.0
C454 C 0.16002 0.39329 0.8633 0.0
H455 H 0.1464 0.39433 0.86822 0.0
H456 H 0.15958 0.38719 0.85009 0.0
H457 H 0.16786 0.38469 0.87206 0.0
C458 C 0.09925 0.43733 0.82988 0.0
N459 N 0.10533 0.4333 0.84596 0.0
N460 N 0.1225 0.43183 0.84521 0.0
C461 C 0.12794 0.43506 0.82873 0.0
C462 C 0.11337 0.43887 0.81843 0.0
C463 C 0.08047 0.44155 0.826 0.0
H464 H 0.07204 0.43092 0.83118 0.0
H465 H 0.07813 0.44289 0.81168 0.0
H466 H 0.07682 0.45397 0.83266 0.0
O467 O 0.10623 0.45133 0.88397 0.0
O468 O 0.13456 0.45366 0.87824 0.0
H469 H 0.15214 0.44882 0.83198 0.0
H470 H 0.14869 0.44095 0.80997 0.0
C471 C 0.14682 0.43785 0.82404 0.0
H472 H 0.15441 0.42587 0.82728 0.0
H473 H 0.16734 0.45252 0.86257 0.0
O474 O 0.07082 0.44487 0.86748 0.0
C475 C 0.12103 0.45853 0.88657 0.0
Co476 Co 0.69386 0.64805 0.37228 0.0
Co477 Co 0.67934 0.60975 0.37336 0.0
C478 C 0.66179 0.6359 0.35179 0.0
O479 O 0.6735 0.64707 0.35602 0.0
O480 O 0.66133 0.62067 0.35865 0.0
C481 C 0.69834 0.68601 0.38201 0.0
O482 O 0.68543 0.68563 0.39341 0.0
C483 C 0.66074 0.5754 0.37682 0.0
C484 C 0.68314 0.55903 0.38534 0.0
C485 C 0.66539 0.5584 0.38159 0.0
N486 N 0.67514 0.58557 0.378 0.0
N487 N 0.68844 0.57565 0.38302 0.0
C488 C 0.64338 0.58165 0.37009 0.0
H489 H 0.64527 0.59203 0.36013 0.0
H490 H 0.63575 0.58726 0.38114 0.0
H491 H 0.63579 0.57074 0.36415 0.0
C492 C 0.69488 0.64213 0.41072 0.0
N493 N 0.68953 0.63781 0.39443 0.0
N494 N 0.68239 0.6221 0.39485 0.0
C495 C 0.68209 0.61641 0.41158 0.0
C496 C 0.69021 0.62874 0.42214 0.0
C497 C 0.70756 0.65665 0.41463 0.0
H498 H 0.71508 0.66023 0.40273 0.0
H499 H 0.70019 0.66825 0.41937 0.0
H500 H 0.71692 0.65282 0.42512 0.0
O501 O 0.71305 0.63566 0.36073 0.0
O502 O 0.70095 0.60935 0.3586 0.0
H503 H 0.68668 0.58901 0.41537 0.0
H504 H 0.67261 0.59878 0.43152 0.0
C505 C 0.67599 0.59867 0.41734 0.0
H506 H 0.66433 0.59462 0.40966 0.0
H507 H 0.7012 0.58028 0.38482 0.0
O508 O 0.70244 0.67234 0.37346 0.0
C509 C 0.71329 0.62002 0.35511 0.0
Co510 Co 0.89641 0.05081 0.86694 0.0
Co511 Co 0.85944 0.06803 0.86771 0.0
C512 C 0.88767 0.08258 0.88926 0.0
O513 O 0.8978 0.07015 0.88438 0.0
O514 O 0.87246 0.08481 0.88257 0.0
C515 C 0.93469 0.04172 0.86653 0.0
O516 O 0.93901 0.05516 0.87642 0.0
C517 C 0.82537 0.08745 0.86573 0.0
C518 C 0.80848 0.06496 0.85851 0.0
C519 C 0.8081 0.08278 0.86197 0.0
N520 N 0.83536 0.07297 0.86434 0.0
N521 N 0.82514 0.05963 0.86011 0.0
C522 C 0.83216 0.10491 0.87157 0.0
H523 H 0.84451 0.10335 0.87908 0.0
H524 H 0.83493 0.11309 0.85986 0.0
H525 H 0.82229 0.11175 0.8798 0.0
C526 C 0.89026 0.05287 0.82905 0.0
N527 N 0.88602 0.05739 0.84557 0.0
N528 N 0.8703 0.06442 0.84565 0.0
C529 C 0.86413 0.06469 0.82906 0.0
C530 C 0.8764 0.05704 0.81803 0.0
C531 C 0.90569 0.04163 0.82441 0.0
H532 H 0.91789 0.04781 0.82938 0.0
H533 H 0.90683 0.03986 0.81 0.0
H534 H 0.90424 0.02859 0.83073 0.0
O535 O 0.88308 0.03212 0.8786 0.0
O536 O 0.85827 0.04659 0.88217 0.0
H537 H 0.83688 0.05854 0.82691 0.0
H538 H 0.84504 0.07241 0.80969 0.0
C539 C 0.84583 0.06962 0.82397 0.0
H540 H 0.84155 0.08137 0.83138 0.0
H541 H 0.8296 0.04681 0.85834 0.0
O542 O 0.91883 0.03936 0.86214 0.0
C543 C 0.86786 0.03334 0.8852 0.0
Co544 Co 0.12222 0.29807 0.14643 0.0
Co545 Co 0.12092 0.31438 0.10885 0.0
C546 C 0.14272 0.33053 0.13545 0.0
O547 O 0.13841 0.31821 0.14588 0.0
O548 O 0.13576 0.33215 0.12034 0.0
C549 C 0.11271 0.29288 0.18431 0.0
O550 O 0.10155 0.30601 0.18423 0.0
C551 C 0.11431 0.33509 0.07651 0.0
C552 C 0.11011 0.31341 0.05768 0.0
C553 C 0.11019 0.33152 0.0591 0.0
N554 N 0.11635 0.31971 0.08494 0.0
N555 N 0.11398 0.30686 0.07356 0.0
C556 C 0.11501 0.35256 0.0854 0.0
H557 H 0.11187 0.35114 0.09955 0.0
H558 H 0.10572 0.36188 0.07915 0.0
H559 H 0.12849 0.35794 0.08425 0.0
C560 C 0.08402 0.29656 0.14052 0.0
N561 N 0.10011 0.30259 0.13643 0.0
N562 N 0.09951 0.31033 0.12101 0.0
C563 C 0.08281 0.31019 0.1152 0.0
C564 C 0.07251 0.30134 0.12726 0.0
C565 C 0.08056 0.2832 0.15455 0.0
H566 H 0.09265 0.27572 0.15758 0.0
H567 H 0.07598 0.28999 0.16657 0.0
H568 H 0.07017 0.27384 0.1505 0.0
O569 O 0.13401 0.2796 0.13331 0.0
O570 O 0.13572 0.29287 0.10755 0.0
H571 H 0.08118 0.30709 0.08738 0.0
H572 H 0.06252 0.31792 0.097 0.0
C573 C 0.07702 0.31659 0.09757 0.0
H574 H 0.08309 0.32949 0.09478 0.0
H575 H 0.1147 0.29356 0.07674 0.0
O576 O 0.12111 0.28888 0.1705 0.0
C577 C 0.1396 0.28015 0.11764 0.0
Co578 Co 0.11832 0.69165 0.34789 0.0
Co579 Co 0.11898 0.67742 0.38624 0.0
C580 C 0.13911 0.66016 0.35737 0.0
O581 O 0.13381 0.67134 0.34614 0.0
O582 O 0.13365 0.66016 0.37322 0.0
C583 C 0.12075 0.70116 0.31038 0.0
O584 O 0.13239 0.68875 0.30766 0.0
C585 C 0.11351 0.65537 0.4178 0.0
C586 C 0.10988 0.67623 0.43767 0.0
C587 C 0.10976 0.65826 0.43533 0.0
N588 N 0.11552 0.67108 0.41002 0.0
N589 N 0.11355 0.68344 0.42203 0.0
C590 C 0.11434 0.63818 0.40844 0.0
H591 H 0.1102 0.6398 0.39457 0.0
H592 H 0.10599 0.62827 0.41509 0.0
H593 H 0.12811 0.63343 0.40857 0.0
C594 C 0.08062 0.69107 0.35409 0.0
N595 N 0.09696 0.68659 0.35891 0.0
N596 N 0.0969 0.68156 0.37538 0.0
C597 C 0.0804 0.68304 0.38167 0.0
C598 C 0.0696 0.68944 0.36845 0.0
C599 C 0.07609 0.6993 0.33682 0.0
H600 H 0.08183 0.69144 0.32601 0.0
H601 H 0.06166 0.70014 0.33497 0.0
H602 H 0.08174 0.71271 0.33624 0.0
O603 O 0.13188 0.70966 0.36056 0.0
O604 O 0.13355 0.69886 0.38743 0.0
H605 H 0.08188 0.69219 0.40811 0.0
H606 H 0.06123 0.68204 0.40261 0.0
C607 C 0.07564 0.68138 0.40064 0.0
H608 H 0.08051 0.66871 0.40582 0.0
H609 H 0.1143 0.69686 0.41942 0.0
O610 O 0.11383 0.70292 0.32539 0.0
C611 C 0.13762 0.71046 0.37618 0.0
Co612 Co 0.9427 0.62119 0.89574 0.0
Co613 Co 0.93093 0.62428 0.85664 0.0
C614 C 0.9116 0.60186 0.88219 0.0
O615 O 0.92122 0.60637 0.89514 0.0
O616 O 0.91374 0.6083 0.86693 0.0
C617 C 0.94962 0.62641 0.93495 0.0
O618 O 0.93404 0.6325 0.93909 0.0
C619 C 0.90958 0.63052 0.82508 0.0
C620 C 0.93045 0.63358 0.80516 0.0
C621 C 0.91246 0.63316 0.80738 0.0
N622 N 0.92526 0.6295 0.83306 0.0
N623 N 0.93766 0.63148 0.82111 0.0
C624 C 0.89238 0.62787 0.83411 0.0
H625 H 0.89319 0.63253 0.84788 0.0
H626 H 0.8817 0.63483 0.82705 0.0
H627 H 0.88928 0.61364 0.83428 0.0
C628 C 0.94504 0.65977 0.89137 0.0
N629 N 0.93972 0.64381 0.88596 0.0
N630 N 0.93361 0.64505 0.86989 0.0
C631 C 0.93396 0.66195 0.86486 0.0
C632 C 0.94159 0.67188 0.8781 0.0
C633 C 0.95612 0.66252 0.90739 0.0
H634 H 0.96552 0.65152 0.90884 0.0
H635 H 0.94751 0.66274 0.91912 0.0
H636 H 0.96367 0.67492 0.90687 0.0
O637 O 0.96074 0.60809 0.88286 0.0
O638 O 0.95282 0.61031 0.85504 0.0
H639 H 0.93777 0.6644 0.83716 0.0
H640 H 0.92666 0.68285 0.84709 0.0
C641 C 0.92806 0.66835 0.84724 0.0
H642 H 0.91525 0.66233 0.84389 0.0
H643 H 0.95108 0.631 0.8238 0.0
O644 O 0.95309 0.62219 0.91923 0.0
C645 C 0.96317 0.60454 0.86678 0.0
Co646 Co 0.87669 0.80495 0.34571 0.0
Co647 Co 0.8733 0.81531 0.38526 0.0
C648 C 0.85436 0.83487 0.3569 0.0
O649 O 0.86085 0.82529 0.34484 0.0
O650 O 0.85867 0.83296 0.37297 0.0
C651 C 0.87138 0.79434 0.31039 0.0
O652 O 0.85532 0.79995 0.31323 0.0
C653 C 0.87721 0.83571 0.41779 0.0
C654 C 0.87919 0.81427 0.43726 0.0
C655 C 0.88011 0.8323 0.4354 0.0
N656 N 0.87497 0.82029 0.40955 0.0
N657 N 0.87586 0.80757 0.4213 0.0
C658 C 0.87808 0.85304 0.40867 0.0
H659 H 0.88261 0.85129 0.39495 0.0
H660 H 0.88693 0.86218 0.41577 0.0
H661 H 0.86473 0.85887 0.40835 0.0
C662 C 0.91398 0.80456 0.35517 0.0
N663 N 0.89728 0.80894 0.35884 0.0
N664 N 0.89603 0.81305 0.37553 0.0
C665 C 0.91197 0.81136 0.38301 0.0
C666 C 0.92383 0.80573 0.37043 0.0
C667 C 0.91951 0.796 0.33838 0.0
H668 H 0.91262 0.78324 0.33701 0.0
H669 H 0.9157 0.80444 0.32716 0.0
H670 H 0.93388 0.79371 0.33794 0.0
O671 O 0.86253 0.7857 0.35576 0.0
O672 O 0.86021 0.79304 0.38377 0.0
H673 H 0.90846 0.80139 0.40898 0.0
H674 H 0.92962 0.81135 0.40526 0.0
C675 C 0.91538 0.81231 0.40232 0.0
H676 H 0.9104 0.82492 0.40754 0.0
H677 H 0.87485 0.79425 0.4183 0.0
O678 O 0.88294 0.79673 0.32211 0.0
C679 C 0.85664 0.7828 0.3711 0.0
Co680 Co 0.55038 0.37001 0.39812 0.0
Co681 Co 0.56741 0.36767 0.36123 0.0
C682 C 0.58303 0.39035 0.38722 0.0
O683 O 0.57027 0.38653 0.39731 0.0
O684 O 0.58537 0.38244 0.37267 0.0
C685 C 0.54527 0.36464 0.43685 0.0
O686 O 0.5603 0.3565 0.43902 0.0
C687 C 0.58721 0.36039 0.32854 0.0
C688 C 0.56491 0.35816 0.31006 0.0
C689 C 0.58301 0.35713 0.31108 0.0
N690 N 0.57217 0.36306 0.33733 0.0
N691 N 0.55895 0.36182 0.32618 0.0
C692 C 0.60485 0.35981 0.3371 0.0
H693 H 0.60349 0.35653 0.35122 0.0
H694 H 0.61343 0.35004 0.33052 0.0
H695 H 0.61108 0.37293 0.33606 0.0
C696 C 0.54918 0.33181 0.39388 0.0
N697 N 0.55549 0.34759 0.38921 0.0
N698 N 0.56255 0.34647 0.37351 0.0
C699 C 0.56116 0.32977 0.36781 0.0
C700 C 0.55229 0.32001 0.38035 0.0
C701 C 0.53789 0.3288 0.40969 0.0
H702 H 0.54592 0.33069 0.42164 0.0
H703 H 0.53245 0.31531 0.41005 0.0
H704 H 0.52705 0.33852 0.40991 0.0
O705 O 0.53165 0.38075 0.38423 0.0
O706 O 0.54666 0.38303 0.35954 0.0
H707 H 0.55505 0.32932 0.34045 0.0
H708 H 0.56528 0.30955 0.34829 0.0
C709 C 0.56518 0.32404 0.34947 0.0
H710 H 0.57819 0.32914 0.34548 0.0
H711 H 0.54579 0.36327 0.32966 0.0
O712 O 0.54047 0.36979 0.42178 0.0
C713 C 0.53326 0.38657 0.36874 0.0
Co714 Co 0.37725 0.6886 0.64876 0.0
Co715 Co 0.37352 0.67777 0.6091 0.0
C716 C 0.35613 0.65769 0.63809 0.0
O717 O 0.36245 0.66763 0.64995 0.0
O718 O 0.36 0.65956 0.6219 0.0
C719 C 0.37253 0.69898 0.68436 0.0
O720 O 0.35668 0.69259 0.68207 0.0
C721 C 0.37526 0.65876 0.5748 0.0
C722 C 0.37514 0.68166 0.55699 0.0
C723 C 0.37572 0.66351 0.55716 0.0
N724 N 0.37456 0.67354 0.58448 0.0
N725 N 0.37443 0.68711 0.5737 0.0
C726 C 0.37472 0.64066 0.58234 0.0
H727 H 0.36799 0.64068 0.59521 0.0
H728 H 0.38835 0.63595 0.58435 0.0
H729 H 0.3679 0.63151 0.57328 0.0
C730 C 0.41418 0.69024 0.6386 0.0
N731 N 0.39758 0.68545 0.63511 0.0
N732 N 0.39629 0.68121 0.61844 0.0
C733 C 0.41211 0.68329 0.6108 0.0
C734 C 0.42392 0.68931 0.62329 0.0
C735 C 0.41993 0.6983 0.65557 0.0
H736 H 0.41319 0.71108 0.65734 0.0
H737 H 0.41619 0.68958 0.66661 0.0
H738 H 0.43435 0.70041 0.65587 0.0
O739 O 0.36168 0.70693 0.63911 0.0
O740 O 0.35909 0.69926 0.61117 0.0
H741 H 0.40841 0.69352 0.58498 0.0
H742 H 0.42945 0.68316 0.58835 0.0
C743 C 0.41523 0.68242 0.59145 0.0
H744 H 0.40984 0.66998 0.58618 0.0
H745 H 0.37394 0.70016 0.57779 0.0
O746 O 0.38374 0.69722 0.67219 0.0
C747 C 0.35539 0.70938 0.62387 0.0
Co748 Co 0.94343 0.37138 0.59562 0.0
Co749 Co 0.93139 0.36986 0.63483 0.0
C750 C 0.91194 0.3909 0.6083 0.0
O751 O 0.92244 0.38628 0.59617 0.0
O752 O 0.9134 0.38496 0.62387 0.0
C753 C 0.94573 0.36426 0.55718 0.0
O754 O 0.92999 0.35728 0.55681 0.0
C755 C 0.91108 0.36489 0.66754 0.0
C756 C 0.93289 0.36345 0.68667 0.0
C757 C 0.91478 0.36343 0.68532 0.0
N758 N 0.92641 0.36578 0.65885 0.0
N759 N 0.93934 0.36479 0.67036 0.0
C760 C 0.89355 0.36729 0.65904 0.0
H761 H 0.89412 0.36311 0.6451 0.0
H762 H 0.88323 0.35982 0.66602 0.0
H763 H 0.89 0.3814 0.65946 0.0
C764 C 0.94498 0.33313 0.60095 0.0
N765 N 0.93983 0.3492 0.60607 0.0
N766 N 0.9348 0.3485 0.62257 0.0
C767 C 0.93651 0.3319 0.62842 0.0
C768 C 0.9433 0.32167 0.615 0.0
C769 C 0.95372 0.32934 0.58375 0.0
H770 H 0.94405 0.33117 0.57307 0.0
H771 H 0.9586 0.31566 0.58296 0.0
H772 H 0.96475 0.3386 0.58166 0.0
O773 O 0.96214 0.38428 0.60792 0.0
O774 O 0.95307 0.38394 0.63547 0.0
H775 H 0.94571 0.33273 0.65489 0.0
H776 H 0.93544 0.31228 0.64899 0.0
C777 C 0.93486 0.32671 0.64729 0.0
H778 H 0.92222 0.33156 0.6526 0.0
H779 H 0.95262 0.36541 0.66707 0.0
O780 O 0.95227 0.36978 0.57146 0.0
C781 C 0.96405 0.38868 0.62388 0.0
Co782 Co 0.05676 0.12592 0.5948 0.0
Co783 Co 0.06235 0.12381 0.63541 0.0
C784 C 0.08451 0.10367 0.60901 0.0
O785 O 0.07796 0.11097 0.59542 0.0
O786 O 0.0794 0.10773 0.62442 0.0
C787 C 0.04555 0.1204 0.55929 0.0
O788 O 0.05079 0.10418 0.56184 0.0
C789 C 0.08075 0.12654 0.66959 0.0
C790 C 0.058 0.13155 0.68686 0.0
C791 C 0.07614 0.13015 0.68691 0.0
N792 N 0.06599 0.12623 0.6599 0.0
N793 N 0.05247 0.12906 0.67035 0.0
C794 C 0.09862 0.12293 0.66231 0.0
H795 H 0.09774 0.11577 0.64974 0.0
H796 H 0.10542 0.13556 0.65984 0.0
H797 H 0.10648 0.11506 0.67171 0.0
C798 C 0.05573 0.16364 0.60336 0.0
N799 N 0.05928 0.1469 0.60776 0.0
N800 N 0.06237 0.14607 0.62469 0.0
C801 C 0.06135 0.16232 0.63151 0.0
C802 C 0.05661 0.17394 0.61836 0.0
C803 C 0.04819 0.16892 0.58598 0.0
H804 H 0.03513 0.1627 0.58438 0.0
H805 H 0.05685 0.16419 0.5753 0.0
H806 H 0.0467 0.18333 0.5848 0.0
O807 O 0.03803 0.11066 0.60418 0.0
O808 O 0.03945 0.1119 0.63318 0.0
H809 H 0.05078 0.16157 0.65747 0.0
H810 H 0.06354 0.18092 0.65278 0.0
C811 C 0.06261 0.16654 0.65064 0.0
H812 H 0.07439 0.1602 0.65631 0.0
H813 H 0.03946 0.12962 0.66611 0.0
O814 O 0.04864 0.13182 0.57099 0.0
C815 C 0.03225 0.10634 0.61922 0.0
Co816 Co 0.64577 0.61792 0.80133 0.0
Co817 Co 0.60714 0.62052 0.81404 0.0
C818 C 0.63673 0.63904 0.83238 0.0
O819 O 0.64829 0.63282 0.82206 0.0
O820 O 0.62055 0.63492 0.8311 0.0
C821 C 0.68439 0.61246 0.79278 0.0
O822 O 0.69067 0.61529 0.80859 0.0
C823 C 0.57628 0.61652 0.83675 0.0
C824 C 0.55508 0.61617 0.8169 0.0
C825 C 0.55835 0.61492 0.83468 0.0
N826 N 0.5834 0.61851 0.82078 0.0
N827 N 0.57067 0.6184 0.80899 0.0
C828 C 0.58651 0.61583 0.85346 0.0
H829 H 0.59981 0.61043 0.85099 0.0
H830 H 0.57957 0.6078 0.86344 0.0
H831 H 0.58798 0.62936 0.85864 0.0
C832 C 0.63707 0.58044 0.80072 0.0
N833 N 0.63336 0.59703 0.80543 0.0
N834 N 0.617 0.59795 0.81074 0.0
C835 C 0.60977 0.58186 0.80974 0.0
C836 C 0.62217 0.57024 0.80319 0.0
C837 C 0.65334 0.57544 0.79087 0.0
H838 H 0.65394 0.583 0.77844 0.0
H839 H 0.66502 0.57893 0.79882 0.0
H840 H 0.65382 0.56126 0.78773 0.0
O841 O 0.63415 0.63249 0.78357 0.0
O842 O 0.60648 0.63416 0.79193 0.0
H843 H 0.58269 0.58468 0.80298 0.0
H844 H 0.58813 0.56368 0.81257 0.0
C845 C 0.5908 0.57799 0.81303 0.0
H846 H 0.58702 0.58304 0.82613 0.0
H847 H 0.57266 0.6196 0.7955 0.0
O848 O 0.66802 0.61309 0.78995 0.0
C849 C 0.61866 0.63816 0.78129 0.0
Co850 Co 0.86713 0.09582 0.43523 0.0
Co851 Co 0.86917 0.13651 0.4325 0.0
C852 C 0.89015 0.11037 0.40987 0.0
O853 O 0.8819 0.0965 0.41419 0.0
O854 O 0.8862 0.12533 0.41626 0.0
C855 C 0.87339 0.06124 0.44803 0.0
O856 O 0.88971 0.06442 0.4435 0.0
C857 C 0.86482 0.16853 0.41188 0.0
C858 C 0.86252 0.18857 0.43272 0.0
C859 C 0.86183 0.18618 0.41474 0.0
N860 N 0.86704 0.16074 0.42752 0.0
N861 N 0.86588 0.17281 0.43991 0.0
C862 C 0.86431 0.15899 0.39476 0.0
H863 H 0.86093 0.14498 0.39686 0.0
H864 H 0.85472 0.16519 0.38571 0.0
H865 H 0.87748 0.15969 0.38859 0.0
C866 C 0.82949 0.10375 0.43578 0.0
N867 N 0.84615 0.10867 0.43276 0.0
N868 N 0.84692 0.12586 0.43222 0.0
C869 C 0.8308 0.13247 0.43523 0.0
C870 C 0.81923 0.11864 0.43788 0.0
C871 C 0.82401 0.08528 0.43953 0.0
H872 H 0.83029 0.07624 0.43001 0.0
H873 H 0.80953 0.08388 0.43876 0.0
H874 H 0.82837 0.08161 0.45292 0.0
O875 O 0.88252 0.10539 0.45405 0.0
O876 O 0.88027 0.13432 0.4556 0.0
H877 H 0.83567 0.15549 0.4505 0.0
H878 H 0.81344 0.1539 0.44241 0.0
C879 C 0.82741 0.1514 0.43923 0.0
H880 H 0.83108 0.15948 0.42771 0.0
H881 H 0.86685 0.17019 0.45332 0.0
O882 O 0.86152 0.0721 0.44373 0.0
C883 C 0.88649 0.11993 0.46125 0.0
Co884 Co 0.34619 0.87624 0.80789 0.0
Co885 Co 0.38645 0.87249 0.81481 0.0
C886 C 0.35859 0.85389 0.83654 0.0
O887 O 0.3456 0.8611 0.82883 0.0
O888 O 0.37439 0.85753 0.83235 0.0
C889 C 0.31146 0.87128 0.79488 0.0
O890 O 0.31397 0.8549 0.79961 0.0
C891 C 0.41825 0.87655 0.83586 0.0
C892 C 0.43872 0.87709 0.81531 0.0
C893 C 0.43605 0.87867 0.83319 0.0
N894 N 0.41064 0.87391 0.82019 0.0
N895 N 0.42296 0.874 0.80799 0.0
C896 C 0.40845 0.87821 0.85276 0.0
H897 H 0.39501 0.88327 0.85029 0.0
H898 H 0.41553 0.88696 0.86201 0.0
H899 H 0.40732 0.86504 0.85885 0.0
C900 C 0.35594 0.91358 0.80739 0.0
N901 N 0.35977 0.89674 0.81104 0.0
N902 N 0.37678 0.89523 0.81343 0.0
C903 C 0.38431 0.91104 0.81113 0.0
C904 C 0.37139 0.92319 0.80707 0.0
C905 C 0.33844 0.91967 0.80086 0.0
H906 H 0.32792 0.91453 0.8095 0.0
H907 H 0.33767 0.9342 0.80047 0.0
H908 H 0.3363 0.9145 0.78743 0.0
O909 O 0.35568 0.86122 0.78898 0.0
O910 O 0.38455 0.86012 0.7922 0.0
H911 H 0.40901 0.90594 0.79886 0.0
H912 H 0.40683 0.92798 0.80736 0.0
C913 C 0.40369 0.91397 0.80976 0.0
H914 H 0.4101 0.90982 0.82213 0.0
H915 H 0.42051 0.87256 0.79459 0.0
O916 O 0.32281 0.88274 0.79902 0.0
C917 C 0.37068 0.8559 0.78396 0.0
Co918 Co 0.12039 0.39654 0.44068 0.0
Co919 Co 0.12399 0.35711 0.43152 0.0
C920 C 0.10158 0.38092 0.41022 0.0
O921 O 0.10634 0.39445 0.41882 0.0
O922 O 0.10776 0.36579 0.41364 0.0
C923 C 0.12972 0.43434 0.44537 0.0
O924 O 0.14157 0.43393 0.43287 0.0
C925 C 0.13092 0.32484 0.41197 0.0
C926 C 0.13918 0.30703 0.43337 0.0
C927 C 0.13686 0.30803 0.41539 0.0
N928 N 0.12994 0.33347 0.42727 0.0
N929 N 0.13469 0.32273 0.44003 0.0
C930 C 0.12737 0.33301 0.39448 0.0
H931 H 0.13136 0.34701 0.39463 0.0
H932 H 0.13443 0.32598 0.38387 0.0
H933 H 0.11306 0.33242 0.3918 0.0
C934 C 0.15866 0.39168 0.44668 0.0
N935 N 0.14314 0.38675 0.43972 0.0
N936 N 0.14467 0.37082 0.43334 0.0
C937 C 0.16152 0.3657 0.43461 0.0
C938 C 0.1709 0.3785 0.44353 0.0
C939 C 0.16063 0.40638 0.45961 0.0
H940 H 0.14781 0.40969 0.46559 0.0
H941 H 0.16599 0.41807 0.45283 0.0
H942 H 0.16985 0.40278 0.4703 0.0
O943 O 0.10685 0.38497 0.45898 0.0
O944 O 0.11025 0.35666 0.45372 0.0
H945 H 0.16572 0.33809 0.43772 0.0
H946 H 0.18286 0.34926 0.42597 0.0
C947 C 0.16846 0.34855 0.42802 0.0
H948 H 0.162 0.3451 0.41545 0.0
H949 H 0.13522 0.32625 0.45325 0.0
O950 O 0.12072 0.42077 0.44876 0.0
C951 C 0.10383 0.36908 0.46284 0.0
Co952 Co 0.64695 0.37532 0.6853 0.0
Co953 Co 0.60654 0.37403 0.68081 0.0
C954 C 0.63257 0.35193 0.65958 0.0
O955 O 0.64641 0.35961 0.66491 0.0
O956 O 0.61737 0.35644 0.66491 0.0
C957 C 0.68128 0.36939 0.69871 0.0
O958 O 0.678 0.35277 0.69553 0.0
C959 C 0.5749 0.37934 0.65997 0.0
C960 C 0.5546 0.38103 0.68063 0.0
C961 C 0.55725 0.38233 0.66273 0.0
N962 N 0.58246 0.37654 0.67562 0.0
N963 N 0.57024 0.37732 0.6879 0.0
C964 C 0.58463 0.38027 0.64299 0.0
H965 H 0.59877 0.38291 0.64537 0.0
H966 H 0.57894 0.39059 0.63441 0.0
H967 H 0.58336 0.3675 0.63612 0.0
C968 C 0.63987 0.41312 0.68515 0.0
N969 N 0.63472 0.39659 0.68174 0.0
N970 N 0.61754 0.39612 0.6809 0.0
C971 C 0.61112 0.41221 0.68444 0.0
C972 C 0.6251 0.42354 0.68756 0.0
C973 C 0.65851 0.41839 0.68836 0.0
H974 H 0.6672 0.41197 0.6786 0.0
H975 H 0.66005 0.43285 0.68748 0.0
H976 H 0.66256 0.41406 0.70163 0.0
O977 O 0.63698 0.3614 0.70527 0.0
O978 O 0.60802 0.36345 0.70389 0.0
H979 H 0.58806 0.40649 0.69933 0.0
H980 H 0.58969 0.42916 0.69287 0.0
C981 C 0.5922 0.41549 0.68868 0.0
H982 H 0.5841 0.41265 0.67693 0.0
H983 H 0.57269 0.37585 0.70129 0.0
O984 O 0.67068 0.38098 0.69325 0.0
C985 C 0.62181 0.35791 0.71141 0.0
Co986 Co 0.62732 0.0949 0.55638 0.0
Co987 Co 0.62282 0.13538 0.56118 0.0
C988 C 0.60376 0.10792 0.58316 0.0
O989 O 0.61205 0.0947 0.57719 0.0
O990 O 0.60683 0.12346 0.5778 0.0
C991 C 0.62285 0.05959 0.54504 0.0
O992 O 0.60651 0.06217 0.54991 0.0
C993 C 0.62689 0.16808 0.58096 0.0
C994 C 0.62458 0.18771 0.55972 0.0
C995 C 0.62792 0.18593 0.57751 0.0
N996 N 0.62337 0.15977 0.56582 0.0
N997 N 0.62175 0.17158 0.55324 0.0
C998 C 0.63097 0.15882 0.59776 0.0
H999 H 0.63461 0.14496 0.59516 0.0
H1000 H 0.64176 0.16557 0.60485 0.0
H1001 H 0.61913 0.15894 0.60623 0.0
C1002 C 0.66447 0.10535 0.55586 0.0
N1003 N 0.64752 0.10899 0.55922 0.0
N1004 N 0.64568 0.12601 0.56116 0.0
C1005 C 0.66139 0.13378 0.55898 0.0
C1006 C 0.67381 0.12098 0.55529 0.0
C1007 C 0.67075 0.0878 0.54967 0.0
H1008 H 0.66577 0.07741 0.55855 0.0
H1009 H 0.68528 0.08711 0.54924 0.0
H1010 H 0.66554 0.08532 0.5363 0.0
O1011 O 0.61186 0.10351 0.53733 0.0
O1012 O 0.61165 0.13257 0.5381 0.0
H1013 H 0.65549 0.15847 0.54695 0.0
H1014 H 0.67787 0.1566 0.55474 0.0
C1015 C 0.66399 0.1532 0.55752 0.0
H1016 H 0.6602 0.1595 0.57005 0.0
H1017 H 0.61931 0.16856 0.54011 0.0
O1018 O 0.6342 0.07131 0.54833 0.0
C1019 C 0.60691 0.11819 0.53113 0.0
Co1020 Co 0.34495 0.11899 0.69008 0.0
Co1021 Co 0.38335 0.11803 0.67594 0.0
C1022 C 0.35629 0.13744 0.65679 0.0
O1023 O 0.34521 0.1335 0.66867 0.0
O1024 O 0.37178 0.13108 0.65684 0.0
C1025 C 0.30604 0.11192 0.69601 0.0
O1026 O 0.30332 0.10316 0.68142 0.0
C1027 C 0.41708 0.11121 0.65759 0.0
C1028 C 0.43516 0.11365 0.68016 0.0
C1029 C 0.43477 0.1104 0.66228 0.0
N1030 N 0.40771 0.11474 0.6721 0.0
N1031 N 0.41862 0.11622 0.68548 0.0
C1032 C 0.4089 0.10765 0.64011 0.0
H1033 H 0.39487 0.10409 0.64173 0.0
H1034 H 0.41596 0.09691 0.63328 0.0
H1035 H 0.40963 0.11968 0.63195 0.0
C1036 C 0.35139 0.0812 0.69365 0.0
N1037 N 0.35577 0.09701 0.68721 0.0
N1038 N 0.37201 0.09647 0.68138 0.0
C1039 C 0.3784 0.08015 0.68376 0.0
C1040 C 0.36561 0.06999 0.6918 0.0
C1041 C 0.33498 0.07771 0.70389 0.0
H1042 H 0.33356 0.08765 0.71443 0.0
H1043 H 0.32354 0.07885 0.695 0.0
H1044 H 0.33488 0.06437 0.7097 0.0
O1045 O 0.35715 0.13252 0.70826 0.0
O1046 O 0.38332 0.13439 0.69594 0.0
H1047 H 0.40539 0.08242 0.69103 0.0
H1048 H 0.39934 0.06094 0.6831 0.0
C1049 C 0.39725 0.07524 0.68133 0.0
H1050 H 0.40157 0.07905 0.66799 0.0
H1051 H 0.41474 0.11889 0.69834 0.0
O1052 O 0.32118 0.1177 0.69977 0.0
C1053 C 0.37263 0.13857 0.70796 0.0
Co1054 Co 0.36866 0.39447 0.5546 0.0
Co1055 Co 0.37051 0.35473 0.56375 0.0
C1056 C 0.3914 0.38203 0.58328 0.0
O1057 O 0.38465 0.39489 0.57499 0.0
O1058 O 0.38671 0.36627 0.58026 0.0
C1059 C 0.3743 0.42954 0.54244 0.0
O1060 O 0.39077 0.42701 0.54687 0.0
C1061 C 0.36642 0.32241 0.58435 0.0
C1062 C 0.36998 0.30246 0.56358 0.0
C1063 C 0.3671 0.3045 0.58138 0.0
N1064 N 0.36878 0.33058 0.56892 0.0
N1065 N 0.37082 0.3186 0.55656 0.0
C1066 C 0.36436 0.33162 0.60155 0.0
H1067 H 0.36849 0.34553 0.60049 0.0
H1068 H 0.35036 0.3313 0.60549 0.0
H1069 H 0.37211 0.32484 0.61185 0.0
C1070 C 0.331 0.3863 0.55433 0.0
N1071 N 0.34758 0.38204 0.55868 0.0
N1072 N 0.34826 0.36532 0.56275 0.0
C1073 C 0.3321 0.35836 0.56124 0.0
C1074 C 0.32063 0.37134 0.55556 0.0
C1075 C 0.32629 0.40321 0.54549 0.0
H1076 H 0.33059 0.41437 0.55378 0.0
H1077 H 0.31206 0.40453 0.54297 0.0
H1078 H 0.33329 0.40396 0.53277 0.0
O1079 O 0.38207 0.38414 0.53491 0.0
O1080 O 0.38219 0.35575 0.54087 0.0
H1081 H 0.33525 0.33186 0.55254 0.0
H1082 H 0.31389 0.33654 0.56185 0.0
C1083 C 0.32817 0.33919 0.56292 0.0
H1084 H 0.33283 0.33443 0.57583 0.0
H1085 H 0.37299 0.32144 0.54335 0.0
O1086 O 0.36292 0.41805 0.54632 0.0
C1087 C 0.38648 0.36852 0.53108 0.0
Co1088 Co 0.80511 0.64807 0.61922 0.0
Co1089 Co 0.81716 0.60899 0.61716 0.0
C1090 C 0.83652 0.63536 0.63872 0.0
O1091 O 0.82619 0.6477 0.63415 0.0
O1092 O 0.83501 0.61993 0.63244 0.0
C1093 C 0.79786 0.68739 0.6146 0.0
O1094 O 0.81337 0.692 0.60867 0.0
C1095 C 0.83783 0.57687 0.61176 0.0
C1096 C 0.81657 0.55708 0.61218 0.0
C1097 C 0.83457 0.55903 0.61123 0.0
N1098 N 0.82234 0.58515 0.61304 0.0
N1099 N 0.8097 0.57327 0.61311 0.0
C1100 C 0.85524 0.58581 0.61274 0.0
H1101 H 0.85416 0.59945 0.60775 0.0
H1102 H 0.86525 0.57844 0.60516 0.0
H1103 H 0.85951 0.58631 0.62666 0.0
C1104 C 0.80319 0.64323 0.58095 0.0
N1105 N 0.80857 0.63791 0.59687 0.0
N1106 N 0.81325 0.62132 0.59597 0.0
C1107 C 0.81084 0.61552 0.57945 0.0
C1108 C 0.8041 0.62916 0.56941 0.0
C1109 C 0.79506 0.66076 0.57745 0.0
H1110 H 0.80427 0.67119 0.58163 0.0
H1111 H 0.79204 0.66258 0.56331 0.0
H1112 H 0.78284 0.6621 0.58524 0.0
O1113 O 0.78682 0.63531 0.63228 0.0
O1114 O 0.79592 0.60781 0.63146 0.0
H1115 H 0.8012 0.58928 0.58135 0.0
H1116 H 0.80995 0.59467 0.56006 0.0
C1117 C 0.81168 0.59657 0.57437 0.0
H1118 H 0.82453 0.59104 0.57834 0.0
H1119 H 0.79638 0.5762 0.61433 0.0
O1120 O 0.79453 0.6715 0.61822 0.0
C1121 C 0.78506 0.61932 0.63653 0.0
Co1122 Co 0.89867 0.93568 0.62608 0.0
Co1123 Co 0.85793 0.93315 0.62336 0.0
C1124 C 0.88353 0.9086 0.60435 0.0
O1125 O 0.89753 0.91418 0.61167 0.0
O1126 O 0.86856 0.91502 0.60818 0.0
C1127 C 0.93391 0.94711 0.62072 0.0
O1128 O 0.93106 0.94255 0.60434 0.0
C1129 C 0.82508 0.91434 0.6289 0.0
C1130 C 0.80549 0.93533 0.62481 0.0
C1131 C 0.80716 0.91772 0.62907 0.0
N1132 N 0.83346 0.92927 0.62478 0.0
N1133 N 0.82171 0.94175 0.62225 0.0
C1134 C 0.83439 0.8978 0.63387 0.0
H1135 H 0.84802 0.90073 0.6381 0.0
H1136 H 0.82727 0.89091 0.64455 0.0
H1137 H 0.83503 0.88903 0.62227 0.0
C1138 C 0.88959 0.93767 0.66373 0.0
N1139 N 0.88515 0.93435 0.64696 0.0
N1140 N 0.86797 0.9337 0.6458 0.0
C1141 C 0.86094 0.93681 0.66169 0.0
C1142 C 0.87442 0.93952 0.67363 0.0
C1143 C 0.90778 0.94207 0.66964 0.0
H1144 H 0.91723 0.93251 0.66406 0.0
H1145 H 0.90875 0.94193 0.68418 0.0
H1146 H 0.91124 0.95536 0.66484 0.0
O1147 O 0.89044 0.95452 0.60998 0.0
O1148 O 0.86139 0.95544 0.61098 0.0
H1149 H 0.83734 0.95065 0.65526 0.0
H1150 H 0.83928 0.94499 0.67827 0.0
C1151 C 0.84187 0.9405 0.66466 0.0
H1152 H 0.83422 0.92838 0.66223 0.0
H1153 H 0.82479 0.95469 0.61903 0.0
O1154 O 0.92257 0.94325 0.63228 0.0
C1155 C 0.87591 0.96134 0.60534 0.0
Co1156 Co 0.18688 0.84732 0.61759 0.0
Co1157 Co 0.18184 0.88795 0.61975 0.0
C1158 C 0.15977 0.86123 0.63993 0.0
O1159 O 0.16553 0.8475 0.63228 0.0
O1160 O 0.16525 0.8765 0.63586 0.0
C1161 C 0.19934 0.8117 0.62265 0.0
O1162 O 0.1935 0.81304 0.6388 0.0
C1163 C 0.16043 0.9195 0.61612 0.0
C1164 C 0.18075 0.93994 0.61275 0.0
C1165 C 0.16281 0.93717 0.61288 0.0
N1166 N 0.17632 0.91205 0.61771 0.0
N1167 N 0.18841 0.92437 0.61595 0.0
C1168 C 0.14351 0.90958 0.61635 0.0
H1169 H 0.14551 0.89618 0.61101 0.0
H1170 H 0.13325 0.91656 0.60873 0.0
H1171 H 0.139 0.90831 0.63014 0.0
C1172 C 0.18791 0.85584 0.57985 0.0
N1173 N 0.18447 0.86034 0.59659 0.0
N1174 N 0.18206 0.87737 0.59746 0.0
C1175 C 0.18363 0.88424 0.58127 0.0
C1176 C 0.18787 0.87093 0.56959 0.0
C1177 C 0.19438 0.83805 0.5746 0.0
H1178 H 0.18562 0.82785 0.58015 0.0
H1179 H 0.19491 0.83642 0.56018 0.0
H1180 H 0.20774 0.83607 0.58002 0.0
O1181 O 0.20508 0.85711 0.63326 0.0
O1182 O 0.20479 0.88615 0.63166 0.0
H1183 H 0.19447 0.91001 0.58373 0.0
H1184 H 0.18371 0.90597 0.56296 0.0
C1185 C 0.18317 0.90347 0.5773 0.0
H1186 H 0.1709 0.90922 0.58252 0.0
H1187 H 0.20189 0.92201 0.61631 0.0
O1188 O 0.19609 0.82387 0.61175 0.0
C1189 C 0.21129 0.87198 0.63761 0.0
Co1190 Co 0.09617 0.5552 0.62104 0.0
Co1191 Co 0.13589 0.5657 0.62254 0.0
C1192 C 0.10946 0.58811 0.60421 0.0
O1193 O 0.09678 0.57795 0.60828 0.0
O1194 O 0.1251 0.58497 0.60921 0.0
C1195 C 0.05736 0.54876 0.62914 0.0
O1196 O 0.05499 0.56275 0.63892 0.0
C1197 C 0.17034 0.5837 0.62718 0.0
C1198 C 0.18674 0.56059 0.63343 0.0
C1199 C 0.18737 0.57863 0.63139 0.0
N1200 N 0.16016 0.56926 0.62706 0.0
N1201 N 0.17011 0.55554 0.6307 0.0
C1202 C 0.16407 0.60162 0.62222 0.0
H1203 H 0.15284 0.60076 0.61311 0.0
H1204 H 0.15972 0.60864 0.63421 0.0
H1205 H 0.17468 0.60928 0.61584 0.0
C1206 C 0.1026 0.55039 0.65918 0.0
N1207 N 0.10739 0.55621 0.6432 0.0
N1208 N 0.1238 0.56156 0.64387 0.0
C1209 C 0.12968 0.55999 0.66046 0.0
C1210 C 0.11659 0.55263 0.67064 0.0
C1211 C 0.08622 0.54009 0.66264 0.0
H1212 H 0.08338 0.53134 0.65138 0.0
H1213 H 0.0751 0.54931 0.66427 0.0
H1214 H 0.08731 0.53206 0.67472 0.0
O1215 O 0.10758 0.53759 0.60609 0.0
O1216 O 0.13562 0.5449 0.60695 0.0
H1217 H 0.15677 0.55316 0.66292 0.0
H1218 H 0.14836 0.56589 0.68088 0.0
C1219 C 0.14792 0.56415 0.66642 0.0
H1220 H 0.15261 0.57633 0.66003 0.0
H1221 H 0.16548 0.54267 0.63133 0.0
O1222 O 0.07226 0.54561 0.62241 0.0
C1223 C 0.12335 0.53505 0.60145 0.0
Co1224 Co 0.80482 0.34546 0.87237 0.0
Co1225 Co 0.81536 0.38491 0.87289 0.0
C1226 C 0.83614 0.35735 0.85333 0.0
O1227 O 0.82695 0.3447 0.85928 0.0
O1228 O 0.83321 0.37324 0.85779 0.0
C1229 C 0.79583 0.30622 0.8762 0.0
O1230 O 0.81164 0.29941 0.87536 0.0
C1231 C 0.83629 0.41676 0.87924 0.0
C1232 C 0.81505 0.43588 0.88435 0.0
C1233 C 0.83311 0.43402 0.884 0.0
N1234 N 0.82075 0.40874 0.87714 0.0
N1235 N 0.80813 0.42028 0.88 0.0
C1236 C 0.85361 0.40762 0.87807 0.0
H1237 H 0.85212 0.39359 0.88169 0.0
H1238 H 0.86344 0.41399 0.88672 0.0
H1239 H 0.85837 0.40828 0.86433 0.0
C1240 C 0.80005 0.35242 0.91001 0.0
N1241 N 0.80621 0.35699 0.89411 0.0
N1242 N 0.81186 0.37325 0.8946 0.0
C1243 C 0.81027 0.37932 0.91112 0.0
C1244 C 0.8024 0.36649 0.92139 0.0
C1245 C 0.78919 0.33631 0.91305 0.0
H1246 H 0.77879 0.33553 0.90289 0.0
H1247 H 0.79764 0.32453 0.91173 0.0
H1248 H 0.78283 0.33617 0.9261 0.0
O1249 O 0.78844 0.35712 0.85667 0.0
O1250 O 0.79347 0.38564 0.85866 0.0
H1251 H 0.80533 0.40691 0.91241 0.0
H1252 H 0.81632 0.39815 0.93143 0.0
C1253 C 0.81534 0.39738 0.91692 0.0
H1254 H 0.8282 0.40097 0.91117 0.0
H1255 H 0.79477 0.41735 0.87947 0.0
O1256 O 0.79366 0.32266 0.87518 0.0
C1257 C 0.78483 0.37279 0.8525 0.0
Co1258 Co 0.59626 0.93416 0.36878 0.0
Co1259 Co 0.63698 0.93208 0.36984 0.0
C1260 C 0.612 0.9079 0.39044 0.0
O1261 O 0.59779 0.91286 0.38313 0.0
O1262 O 0.62675 0.91455 0.38615 0.0
C1263 C 0.56196 0.94691 0.37549 0.0
O1264 O 0.56561 0.94323 0.39193 0.0
C1265 C 0.67028 0.91315 0.36513 0.0
C1266 C 0.6893 0.93488 0.36782 0.0
C1267 C 0.68813 0.91692 0.36524 0.0
N1268 N 0.66145 0.92823 0.36753 0.0
N1269 N 0.67289 0.94116 0.36904 0.0
C1270 C 0.6617 0.89555 0.36375 0.0
H1271 H 0.64805 0.89602 0.36868 0.0
H1272 H 0.66125 0.89156 0.34976 0.0
H1273 H 0.66931 0.88558 0.37116 0.0
C1274 C 0.60353 0.9361 0.33091 0.0
N1275 N 0.60881 0.93267 0.34739 0.0
N1276 N 0.62602 0.9325 0.34782 0.0
C1277 C 0.63231 0.93629 0.33176 0.0
C1278 C 0.61821 0.93896 0.32046 0.0
C1279 C 0.58476 0.93865 0.3257 0.0
H1280 H 0.5765 0.92838 0.33188 0.0
H1281 H 0.58322 0.93806 0.31122 0.0
H1282 H 0.58016 0.95163 0.33039 0.0
O1283 O 0.60519 0.95323 0.38432 0.0
O1284 O 0.63411 0.95461 0.3818 0.0
H1285 H 0.65543 0.95096 0.33788 0.0
H1286 H 0.65348 0.94552 0.31493 0.0
C1287 C 0.65117 0.94073 0.32845 0.0
H1288 H 0.65933 0.9289 0.33074 0.0
H1289 H 0.66948 0.95425 0.37114 0.0
O1290 O 0.57226 0.94173 0.3635 0.0
C1291 C 0.61981 0.96037 0.38812 0.0
Co1292 Co 0.19066 0.14695 0.8753 0.0
Co1293 Co 0.17829 0.1082 0.87326 0.0
C1294 C 0.1601 0.13658 0.85354 0.0
O1295 O 0.17072 0.1482 0.85918 0.0
O1296 O 0.16071 0.12067 0.85872 0.0
C1297 C 0.19896 0.18554 0.87682 0.0
O1298 O 0.18515 0.19048 0.86775 0.0
C1299 C 0.15871 0.0752 0.8786 0.0
C1300 C 0.18075 0.05636 0.87694 0.0
C1301 C 0.16287 0.05751 0.87989 0.0
N1302 N 0.17359 0.08402 0.87523 0.0
N1303 N 0.18663 0.07267 0.87408 0.0
C1304 C 0.14142 0.08385 0.88192 0.0
H1305 H 0.14339 0.09777 0.88574 0.0
H1306 H 0.13409 0.07679 0.89233 0.0
H1307 H 0.13352 0.08354 0.86969 0.0
C1308 C 0.19 0.13926 0.91282 0.0
N1309 N 0.18571 0.13499 0.89628 0.0
N1310 N 0.18133 0.11835 0.89566 0.0
C1311 C 0.18303 0.11139 0.91184 0.0
C1312 C 0.18881 0.12439 0.92321 0.0
C1313 C 0.19812 0.1564 0.91797 0.0
H1314 H 0.19008 0.16736 0.91276 0.0
H1315 H 0.19911 0.15764 0.93245 0.0
H1316 H 0.21146 0.15734 0.91221 0.0
O1317 O 0.2097 0.13569 0.8619 0.0
O1318 O 0.20003 0.10854 0.8595 0.0
H1319 H 0.19268 0.08536 0.90778 0.0
H1320 H 0.18472 0.08938 0.92976 0.0
C1321 C 0.18248 0.09214 0.91564 0.0
H1322 H 0.16949 0.08684 0.91183 0.0
H1323 H 0.19968 0.0761 0.87178 0.0
O1324 O 0.20124 0.16951 0.88054 0.0
C1325 C 0.21132 0.12023 0.85598 0.0
Co1326 Co 0.39868 0.55652 0.37073 0.0
Co1327 Co 0.35918 0.56677 0.37056 0.0
C1328 C 0.3874 0.58851 0.38859 0.0
O1329 O 0.39998 0.57907 0.38289 0.0
O1330 O 0.37141 0.58525 0.38465 0.0
C1331 C 0.43766 0.54669 0.36701 0.0
O1332 O 0.44486 0.56222 0.36902 0.0
C1333 C 0.32488 0.58537 0.36715 0.0
C1334 C 0.30812 0.56232 0.3616 0.0
C1335 C 0.30766 0.58035 0.36364 0.0
N1336 N 0.33495 0.57088 0.36691 0.0
N1337 N 0.3248 0.55721 0.3637 0.0
C1338 C 0.33151 0.60324 0.37183 0.0
H1339 H 0.34359 0.60228 0.37981 0.0
H1340 H 0.33466 0.6105 0.35962 0.0
H1341 H 0.32143 0.61069 0.37925 0.0
C1342 C 0.39167 0.55241 0.33292 0.0
N1343 N 0.38689 0.55781 0.34904 0.0
N1344 N 0.37031 0.56253 0.34876 0.0
C1345 C 0.36411 0.56052 0.33231 0.0
C1346 C 0.37735 0.55387 0.32179 0.0
C1347 C 0.40866 0.54339 0.32896 0.0
H1348 H 0.4095 0.53108 0.3367 0.0
H1349 H 0.41972 0.55198 0.33294 0.0
H1350 H 0.40992 0.54021 0.31481 0.0
O1351 O 0.38733 0.54047 0.38737 0.0
O1352 O 0.35888 0.54557 0.3854 0.0
H1353 H 0.33761 0.5515 0.33127 0.0
H1354 H 0.34426 0.56405 0.31244 0.0
C1355 C 0.3454 0.56298 0.32693 0.0
H1356 H 0.33999 0.57502 0.33302 0.0
H1357 H 0.32932 0.5443 0.36295 0.0
O1358 O 0.42115 0.54491 0.36753 0.0
C1359 C 0.37166 0.53709 0.39181 0.0
Co1360 Co 0.62184 0.80064 0.64802 0.0
Co1361 Co 0.61903 0.81488 0.60966 0.0
C1362 C 0.64219 0.8321 0.63526 0.0
O1363 O 0.63784 0.82097 0.64692 0.0
O1364 O 0.63527 0.8321 0.62005 0.0
C1365 C 0.6133 0.79657 0.68597 0.0
O1366 O 0.60315 0.81048 0.68573 0.0
C1367 C 0.61285 0.83591 0.57767 0.0
C1368 C 0.60553 0.81491 0.55903 0.0
C1369 C 0.60759 0.83288 0.56051 0.0
N1370 N 0.61363 0.82038 0.586 0.0
N1371 N 0.60942 0.8079 0.57473 0.0
C1372 C 0.61612 0.85319 0.58635 0.0
H1373 H 0.61227 0.85254 0.60038 0.0
H1374 H 0.60878 0.86384 0.57964 0.0
H1375 H 0.63035 0.85619 0.5857 0.0
C1376 C 0.58343 0.7986 0.64343 0.0
N1377 N 0.59929 0.80473 0.6386 0.0
N1378 N 0.59805 0.81175 0.62288 0.0
C1379 C 0.58115 0.81105 0.61765 0.0
C1380 C 0.57139 0.80248 0.63033 0.0
C1381 C 0.58055 0.78606 0.65833 0.0
H1382 H 0.59236 0.77781 0.66036 0.0
H1383 H 0.57791 0.79363 0.67044 0.0
H1384 H 0.56905 0.77743 0.65603 0.0
O1385 O 0.63364 0.78201 0.63487 0.0
O1386 O 0.63298 0.79296 0.60798 0.0
H1387 H 0.57826 0.8048 0.59049 0.0
H1388 H 0.56034 0.81719 0.59949 0.0
C1389 C 0.57482 0.81557 0.59963 0.0
H1390 H 0.581 0.82792 0.59512 0.0
H1391 H 0.60898 0.79457 0.57785 0.0
O1392 O 0.62118 0.79165 0.67216 0.0
C1393 C 0.63784 0.7812 0.61877 0.0
Co1394 Co 0.6182 0.19382 0.84688 0.0
Co1395 Co 0.6172 0.17482 0.88278 0.0
C1396 C 0.63852 0.16039 0.85536 0.0
O1397 O 0.63459 0.17379 0.8462 0.0
O1398 O 0.63113 0.15734 0.87002 0.0
C1399 C 0.61037 0.20041 0.80891 0.0
O1400 O 0.59984 0.18684 0.80761 0.0
C1401 C 0.61353 0.15298 0.91468 0.0
C1402 C 0.61136 0.17404 0.93454 0.0
C1403 C 0.61219 0.15606 0.93251 0.0
N1404 N 0.61349 0.16858 0.90648 0.0
N1405 N 0.61207 0.18107 0.91842 0.0
C1406 C 0.61614 0.13575 0.90571 0.0
H1407 H 0.61034 0.13615 0.89235 0.0
H1408 H 0.61022 0.12494 0.91346 0.0
H1409 H 0.63042 0.13323 0.90441 0.0
C1410 C 0.57995 0.19422 0.85244 0.0
N1411 N 0.5961 0.18823 0.85628 0.0
N1412 N 0.59565 0.18004 0.87147 0.0
C1413 C 0.57907 0.18018 0.87754 0.0
C1414 C 0.56859 0.18927 0.86578 0.0
C1415 C 0.57632 0.20754 0.83841 0.0
H1416 H 0.588 0.21594 0.8363 0.0
H1417 H 0.57325 0.20061 0.826 0.0
H1418 H 0.56494 0.21596 0.84177 0.0
O1419 O 0.62946 0.21188 0.86119 0.0
O1420 O 0.6328 0.19553 0.8849 0.0
H1421 H 0.57831 0.18362 0.90534 0.0
H1422 H 0.55925 0.17284 0.8964 0.0
C1423 C 0.57374 0.17403 0.8954 0.0
H1424 H 0.57985 0.16113 0.89822 0.0
H1425 H 0.612 0.19446 0.91556 0.0
O1426 O 0.61757 0.20422 0.82341 0.0
C1427 C 0.636 0.20942 0.87628 0.0
Co1428 Co 0.44257 0.12491 0.39626 0.0
Co1429 Co 0.42757 0.12166 0.35839 0.0
C1430 C 0.40988 0.10424 0.388 0.0
O1431 O 0.42186 0.10937 0.39852 0.0
O1432 O 0.40943 0.10922 0.37202 0.0
C1433 C 0.44901 0.12602 0.43441 0.0
O1434 O 0.43632 0.11458 0.43673 0.0
C1435 C 0.4069 0.12739 0.32628 0.0
C1436 C 0.4278 0.12455 0.30633 0.0
C1437 C 0.41023 0.12867 0.30842 0.0
N1438 N 0.42196 0.12301 0.33432 0.0
N1439 N 0.43431 0.12108 0.32232 0.0
C1440 C 0.39037 0.13193 0.3358 0.0
H1441 H 0.39332 0.13556 0.3496 0.0
H1442 H 0.38344 0.14287 0.32913 0.0
H1443 H 0.3816 0.12031 0.3359 0.0
C1444 C 0.44249 0.1622 0.38689 0.0
N1445 N 0.43782 0.14553 0.38354 0.0
N1446 N 0.43229 0.14433 0.36727 0.0
C1447 C 0.43355 0.16025 0.35965 0.0
C1448 C 0.44008 0.17208 0.37183 0.0
C1449 C 0.45213 0.16784 0.40305 0.0
H1450 H 0.4445 0.164 0.41483 0.0
H1451 H 0.45429 0.18224 0.40329 0.0
H1452 H 0.46502 0.16109 0.40354 0.0
O1453 O 0.46104 0.11065 0.38483 0.0
O1454 O 0.44822 0.10622 0.35913 0.0
H1455 H 0.44017 0.15515 0.33286 0.0
H1456 H 0.43373 0.17758 0.33712 0.0
C1457 C 0.43114 0.16364 0.34046 0.0
H1458 H 0.41748 0.16044 0.33668 0.0
H1459 H 0.44736 0.11802 0.32512 0.0
O1460 O 0.45256 0.13139 0.41908 0.0
C1461 C 0.46061 0.10333 0.36987 0.0
Co1462 Co 0.37599 0.30667 0.84462 0.0
Co1463 Co 0.37419 0.31869 0.88359 0.0
C1464 C 0.35529 0.33804 0.85536 0.0
O1465 O 0.36058 0.32734 0.84362 0.0
O1466 O 0.36071 0.33718 0.87121 0.0
C1467 C 0.37351 0.29607 0.80742 0.0
O1468 O 0.36 0.30645 0.80486 0.0
C1469 C 0.38072 0.33733 0.91679 0.0
C1470 C 0.37609 0.31572 0.93561 0.0
C1471 C 0.38098 0.33318 0.93454 0.0
N1472 N 0.37601 0.32288 0.9079 0.0
N1473 N 0.37314 0.31008 0.91922 0.0
C1474 C 0.38613 0.35408 0.90813 0.0
H1475 H 0.3901 0.35157 0.89434 0.0
H1476 H 0.39708 0.36031 0.91542 0.0
H1477 H 0.37481 0.36323 0.908 0.0
C1478 C 0.41343 0.30584 0.85256 0.0
N1479 N 0.39704 0.31061 0.8569 0.0
N1480 N 0.39646 0.31424 0.87372 0.0
C1481 C 0.41241 0.31126 0.8808 0.0
C1482 C 0.42367 0.30561 0.86761 0.0
C1483 C 0.41869 0.29949 0.83472 0.0
H1484 H 0.41327 0.30838 0.82455 0.0
H1485 H 0.4332 0.29897 0.83339 0.0
H1486 H 0.41326 0.28616 0.83252 0.0
O1487 O 0.36171 0.28789 0.85555 0.0
O1488 O 0.35903 0.29821 0.88252 0.0
H1489 H 0.40636 0.30149 0.9064 0.0
H1490 H 0.42933 0.3063 0.90321 0.0
C1491 C 0.41579 0.31063 0.90014 0.0
H1492 H 0.4137 0.32386 0.9058 0.0
H1493 H 0.36952 0.29735 0.91573 0.0
O1494 O 0.38159 0.29628 0.82195 0.0
C1495 C 0.35531 0.28696 0.87089 0.0
Co1496 Co 0.05387 0.86801 0.89683 0.0
Co1497 Co 0.07146 0.86692 0.86027 0.0
C1498 C 0.08726 0.8879 0.88719 0.0
O1499 O 0.07423 0.88395 0.89687 0.0
O1500 O 0.08978 0.88052 0.87239 0.0
C1501 C 0.04038 0.87701 0.93049 0.0
O1502 O 0.04503 0.89314 0.92664 0.0
C1503 C 0.09086 0.86055 0.82716 0.0
C1504 C 0.06823 0.85613 0.80949 0.0
C1505 C 0.08637 0.85624 0.81004 0.0
N1506 N 0.07594 0.86268 0.8363 0.0
N1507 N 0.06252 0.86019 0.82562 0.0
C1508 C 0.1088 0.8613 0.83508 0.0
H1509 H 0.10817 0.85828 0.84931 0.0
H1510 H 0.11777 0.85199 0.82838 0.0
H1511 H 0.11411 0.87477 0.8335 0.0
C1512 C 0.0508 0.83061 0.89035 0.0
N1513 N 0.0578 0.84627 0.88643 0.0
N1514 N 0.0661 0.84532 0.87141 0.0
C1515 C 0.06547 0.82859 0.86564 0.0
C1516 C 0.0556 0.81869 0.87741 0.0
C1517 C 0.03676 0.8284 0.90397 0.0
H1518 H 0.02891 0.84058 0.90491 0.0
H1519 H 0.04296 0.82584 0.91689 0.0
H1520 H 0.02762 0.81756 0.90078 0.0
O1521 O 0.03557 0.8804 0.88403 0.0
O1522 O 0.05099 0.8832 0.85955 0.0
H1523 H 0.06467 0.82579 0.83775 0.0
H1524 H 0.07551 0.808 0.849 0.0
C1525 C 0.07349 0.82242 0.84883 0.0
H1526 H 0.08627 0.82903 0.84673 0.0
H1527 H 0.0494 0.86087 0.82949 0.0
O1528 O 0.04477 0.86453 0.92043 0.0
C1529 C 0.03766 0.8869 0.86887 0.0
Co1530 Co 0.87268 0.19135 0.14884 0.0
Co1531 Co 0.87464 0.17672 0.11044 0.0
C1532 C 0.8527 0.15937 0.13723 0.0
O1533 O 0.85696 0.17108 0.14835 0.0
O1534 O 0.85971 0.1587 0.12203 0.0
C1535 C 0.87704 0.19655 0.188 0.0
O1536 O 0.8827 0.1806 0.19118 0.0
C1537 C 0.87816 0.15816 0.07581 0.0
C1538 C 0.88589 0.18097 0.05965 0.0
C1539 C 0.88259 0.16313 0.05874 0.0
N1540 N 0.87914 0.17245 0.08618 0.0
N1541 N 0.88361 0.18599 0.07634 0.0
C1542 C 0.87174 0.14066 0.08194 0.0
H1543 H 0.8639 0.14201 0.09408 0.0
H1544 H 0.88317 0.13211 0.08482 0.0
H1545 H 0.86358 0.1343 0.07168 0.0
C1546 C 0.91089 0.19164 0.14489 0.0
N1547 N 0.89494 0.18669 0.13925 0.0
N1548 N 0.89603 0.18149 0.12284 0.0
C1549 C 0.91282 0.18327 0.11744 0.0
C1550 C 0.92274 0.19035 0.1311 0.0
C1551 C 0.91439 0.19883 0.16283 0.0
H1552 H 0.90989 0.18921 0.17273 0.0
H1553 H 0.92858 0.20127 0.16502 0.0
H1554 H 0.90691 0.21118 0.16471 0.0
O1555 O 0.86056 0.20993 0.13557 0.0
O1556 O 0.85919 0.19734 0.10947 0.0
H1557 H 0.91551 0.19277 0.0912 0.0
H1558 H 0.93285 0.17835 0.09781 0.0
C1559 C 0.9186 0.18077 0.09883 0.0
H1560 H 0.91176 0.16939 0.09297 0.0
H1561 H 0.88499 0.19877 0.08106 0.0
O1562 O 0.87347 0.20143 0.17249 0.0
C1563 C 0.85506 0.20964 0.11987 0.0
Co1564 Co 0.43947 0.87158 0.09593 0.0
Co1565 Co 0.42898 0.8714 0.13542 0.0
C1566 C 0.40785 0.89051 0.10806 0.0
O1567 O 0.41746 0.88503 0.09551 0.0
O1568 O 0.4107 0.88595 0.12393 0.0
C1569 C 0.44765 0.86648 0.05637 0.0
O1570 O 0.43177 0.8655 0.04973 0.0
C1571 C 0.40859 0.86535 0.16772 0.0
C1572 C 0.4302 0.86047 0.1865 0.0
C1573 C 0.41212 0.86074 0.18495 0.0
N1574 N 0.42398 0.86744 0.1594 0.0
N1575 N 0.43682 0.86477 0.17076 0.0
C1576 C 0.39109 0.86631 0.15891 0.0
H1577 H 0.39229 0.86243 0.14492 0.0
H1578 H 0.3814 0.85776 0.16564 0.0
H1579 H 0.3863 0.88005 0.15941 0.0
C1580 C 0.44296 0.83374 0.10274 0.0
N1581 N 0.43758 0.84987 0.1075 0.0
N1582 N 0.43237 0.84956 0.12391 0.0
C1583 C 0.43363 0.833 0.12997 0.0
C1584 C 0.44066 0.82244 0.11689 0.0
C1585 C 0.45294 0.83026 0.08616 0.0
H1586 H 0.46361 0.84006 0.08482 0.0
H1587 H 0.44398 0.83179 0.0748 0.0
H1588 H 0.45886 0.81701 0.08581 0.0
O1589 O 0.45689 0.88663 0.10733 0.0
O1590 O 0.45075 0.88578 0.13563 0.0
H1591 H 0.43938 0.83206 0.15742 0.0
H1592 H 0.42808 0.81294 0.14924 0.0
C1593 C 0.42908 0.82743 0.14824 0.0
H1594 H 0.41636 0.83328 0.15213 0.0
H1595 H 0.45012 0.86533 0.16758 0.0
O1596 O 0.44987 0.86858 0.07272 0.0
C1597 C 0.46015 0.89124 0.12298 0.0
Co1598 Co 0.54824 0.62212 0.09703 0.0
Co1599 Co 0.56719 0.62555 0.13252 0.0
C1600 C 0.58234 0.60306 0.1072 0.0
O1601 O 0.56863 0.60602 0.0981 0.0
O1602 O 0.58563 0.61166 0.12113 0.0
C1603 C 0.54267 0.62816 0.05865 0.0
O1604 O 0.55677 0.63795 0.05711 0.0
C1605 C 0.58595 0.63105 0.16627 0.0
C1606 C 0.56282 0.63546 0.18329 0.0
C1607 C 0.58086 0.63372 0.18353 0.0
N1608 N 0.57141 0.63109 0.15629 0.0
N1609 N 0.55772 0.63397 0.16652 0.0
C1610 C 0.60392 0.62677 0.15967 0.0
H1611 H 0.60438 0.62761 0.14515 0.0
H1612 H 0.61371 0.6359 0.16536 0.0
H1613 H 0.60746 0.61328 0.16384 0.0
C1614 C 0.54595 0.6604 0.10082 0.0
N1615 N 0.55269 0.64474 0.10533 0.0
N1616 N 0.56154 0.64632 0.12 0.0
C1617 C 0.56156 0.66329 0.1249 0.0
C1618 C 0.55141 0.67282 0.11306 0.0
C1619 C 0.53175 0.66249 0.08735 0.0
H1620 H 0.52496 0.64985 0.08508 0.0
H1621 H 0.53767 0.66696 0.07482 0.0
H1622 H 0.52187 0.6723 0.09156 0.0
O1623 O 0.53011 0.61133 0.1113 0.0
O1624 O 0.54722 0.60869 0.13456 0.0
H1625 H 0.56212 0.66764 0.15261 0.0
H1626 H 0.57315 0.68431 0.13993 0.0
C1627 C 0.57056 0.67002 0.14101 0.0
H1628 H 0.58312 0.66293 0.143 0.0
H1629 H 0.54477 0.63433 0.16207 0.0
O1630 O 0.53851 0.62172 0.07341 0.0
C1631 C 0.53324 0.6049 0.12629 0.0
H1632 H 0.14081 0.27455 0.19546 0.0
H1633 H 0.14012 0.24713 0.21195 0.0
H1634 H 0.08471 0.25398 0.22123 0.0
H1635 H 0.08537 0.28168 0.20472 0.0
H1636 H 0.10338 0.23705 0.24942 0.0
H1637 H 0.09457 0.23199 0.18767 0.0
H1638 H 0.10058 0.2367 0.15625 0.0
H1639 H 0.15033 0.21082 0.16158 0.0
H1640 H 0.14481 0.20629 0.19316 0.0
H1641 H 0.08954 0.14761 0.26483 0.0
H1642 H 0.08625 0.17421 0.24743 0.0
H1643 H 0.14211 0.17556 0.23862 0.0
H1644 H 0.14567 0.14904 0.25633 0.0
H1645 H 0.1203 0.18817 0.20976 0.0
H1646 H 0.12723 0.19261 0.27257 0.0
H1647 H 0.11933 0.18732 0.30336 0.0
H1648 H 0.0706 0.21455 0.29585 0.0
H1649 H 0.07789 0.21941 0.26471 0.0
C1650 C 0.12861 0.27052 0.20155 0.0
C1651 C 0.11311 0.28005 0.1987 0.0
C1652 C 0.12822 0.25485 0.21088 0.0
C1653 C 0.11228 0.24837 0.21736 0.0
C1654 C 0.09711 0.25877 0.21618 0.0
C1655 C 0.09751 0.2746 0.20686 0.0
C1656 C 0.11128 0.22994 0.22328 0.0
C1657 C 0.10677 0.22631 0.24072 0.0
C1658 C 0.11583 0.21601 0.21183 0.0
C1659 C 0.11934 0.21894 0.19286 0.0
C1660 C 0.10689 0.22748 0.18221 0.0
C1661 C 0.11019 0.23009 0.16435 0.0
C1662 C 0.12581 0.22404 0.15693 0.0
C1663 C 0.13822 0.21548 0.16736 0.0
C1664 C 0.13502 0.2129 0.18525 0.0
C1665 C 0.10111 0.1532 0.25878 0.0
C1666 C 0.11796 0.14651 0.26241 0.0
C1667 C 0.09916 0.16843 0.24884 0.0
C1668 C 0.11398 0.17702 0.24223 0.0
C1669 C 0.13055 0.16915 0.24385 0.0
C1670 C 0.13256 0.154 0.25398 0.0
C1671 C 0.11259 0.19527 0.23594 0.0
C1672 C 0.1167 0.19888 0.21842 0.0
C1673 C 0.10739 0.2091 0.24729 0.0
C1674 C 0.10298 0.20607 0.26609 0.0
C1675 C 0.11462 0.19709 0.27729 0.0
C1676 C 0.11027 0.1942 0.29487 0.0
C1677 C 0.09442 0.20049 0.30156 0.0
C1678 C 0.08286 0.20963 0.29064 0.0
C1679 C 0.08708 0.21241 0.273 0.0
H1680 H 0.09115 0.19838 0.31521 0.0
H1681 H 0.12826 0.22592 0.14307 0.0
H1682 H 0.51553 0.60545 0.05731 0.0
H1683 H 0.49047 0.60657 0.03803 0.0
H1684 H 0.51516 0.64763 0.00778 0.0
H1685 H 0.54028 0.64728 0.02803 0.0
H1686 H 0.48332 0.65685 0.0168 0.0
H1687 H 0.50663 0.60434 0.99051 0.0
H1688 H 0.51955 0.57466 0.99067 0.0
H1689 H 0.47425 0.55472 0.01756 0.0
H1690 H 0.46113 0.58427 0.01772 0.0
H1691 H 0.40955 0.65261 0.9582 0.0
H1692 H 0.43714 0.65541 0.97408 0.0
H1693 H 0.42167 0.61319 0.00852 0.0
H1694 H 0.39433 0.60979 0.99211 0.0
H1695 H 0.45102 0.60559 0.99318 0.0
H1696 H 0.42897 0.65682 0.02288 0.0
H1697 H 0.41569 0.68622 0.02534 0.0
H1698 H 0.4576 0.70807 0.9947 0.0
H1699 H 0.47104 0.67876 0.99189 0.0
C1700 C 0.51586 0.61456 0.04639 0.0
C1701 C 0.52977 0.62649 0.04434 0.0
C1702 C 0.50154 0.61501 0.03519 0.0
C1703 C 0.50097 0.62702 0.02128 0.0
C1704 C 0.51537 0.63821 0.01843 0.0
C1705 C 0.52974 0.63794 0.02991 0.0
C1706 C 0.48441 0.62911 0.01135 0.0
C1707 C 0.47641 0.64572 0.01123 0.0
C1708 C 0.47517 0.61447 0.00462 0.0
C1709 C 0.48291 0.59657 0.00414 0.0
C1710 C 0.49944 0.59364 0.99649 0.0
C1711 C 0.5068 0.57683 0.99652 0.0
C1712 C 0.49773 0.56282 0.00413 0.0
C1713 C 0.48125 0.56557 0.01165 0.0
C1714 C 0.47383 0.58234 0.01163 0.0
C1715 C 0.41174 0.64433 0.96954 0.0
C1716 C 0.39996 0.63077 0.97376 0.0
C1717 C 0.42755 0.64596 0.97863 0.0
C1718 C 0.43156 0.63437 0.99235 0.0
C1719 C 0.41892 0.62211 -0.0022 0.0
C1720 C 0.40328 0.62023 0.98849 0.0
C1721 C 0.44968 0.63319 -0.00076 0.0
C1722 C 0.45799 0.61677 -0.00142 0.0
C1723 C 0.45907 0.64794 0.00545 0.0
C1724 C 0.4509 0.66555 0.007 0.0
C1725 C 0.43527 0.66786 0.01652 0.0
C1726 C 0.42773 0.68452 0.01802 0.0
C1727 C 0.43576 0.69899 0.01013 0.0
C1728 C 0.45138 0.69684 0.00077 0.0
C1729 C 0.45897 0.68021 -0.00076 0.0
H1730 H 0.42991 0.71188 0.01131 0.0
H1731 H 0.50348 0.54984 0.00419 0.0
H1732 H 0.90477 0.33749 0.27404 0.0
H1733 H 0.90699 0.31015 0.25764 0.0
H1734 H 0.85586 0.31936 0.23509 0.0
H1735 H 0.85333 0.34654 0.25184 0.0
H1736 H 0.8565 0.28945 0.25224 0.0
H1737 H 0.89333 0.31698 0.20966 0.0
H1738 H 0.91827 0.33453 0.19887 0.0
H1739 H 0.9544 0.29787 0.22179 0.0
H1740 H 0.92967 0.28021 0.23293 0.0
H1741 H 0.85139 0.22027 0.19215 0.0
H1742 H 0.85271 0.24709 0.20938 0.0
H1743 H 0.90227 0.23069 0.2314 0.0
H1744 H 0.90097 0.20356 0.21387 0.0
H1745 H 0.90396 0.26323 0.21633 0.0
H1746 H 0.86675 0.23533 0.25837 0.0
H1747 H 0.84152 0.21791 0.2687 0.0
H1748 H 0.806 0.25558 0.24647 0.0
H1749 H 0.83101 0.27314 0.23585 0.0
C1750 C 0.89425 0.33404 0.26512 0.0
C1751 C 0.87871 0.34399 0.26449 0.0
C1752 C 0.89556 0.31838 0.25572 0.0
C1753 C 0.8815 0.31261 0.24532 0.0
C1754 C 0.86678 0.32349 0.24322 0.0
C1755 C 0.86538 0.33904 0.25275 0.0
C1756 C 0.88096 0.29429 0.23889 0.0
C1757 C 0.86677 0.2838 0.24416 0.0
C1758 C 0.89471 0.28675 0.22897 0.0
C1759 C 0.90963 0.29736 0.2223 0.0
C1760 C 0.90659 0.31274 0.21255 0.0
C1761 C 0.92069 0.32269 0.20633 0.0
C1762 C 0.9379 0.31735 0.20969 0.0
C1763 C 0.94105 0.30201 0.21922 0.0
C1764 C 0.927 0.29201 0.22547 0.0
C1765 C 0.86229 0.22213 0.2011 0.0
C1766 C 0.87606 0.20993 0.20178 0.0
C1767 C 0.86303 0.23744 0.21096 0.0
C1768 C 0.87757 0.24087 0.2217 0.0
C1769 C 0.89092 0.22822 0.22321 0.0
C1770 C 0.8901 0.21271 0.21338 0.0
C1771 C 0.87945 0.2585 0.22961 0.0
C1772 C 0.89383 0.26888 0.22457 0.0
C1773 C 0.86589 0.26599 0.23979 0.0
C1774 C 0.85078 0.25548 0.2462 0.0
C1775 C 0.85356 0.23984 0.25557 0.0
C1776 C 0.83929 0.22995 0.26151 0.0
C1777 C 0.82217 0.23561 0.25821 0.0
C1778 C 0.81927 0.25121 0.24902 0.0
C1779 C 0.83349 0.26115 0.24307 0.0
H1780 H 0.81114 0.22793 0.2628 0.0
H1781 H 0.9488 0.32507 0.20486 0.0
H1782 H 0.59804 0.88932 0.98915 0.0
H1783 H 0.57098 0.88549 0.00632 0.0
H1784 H 0.55713 0.84078 0.97458 0.0
H1785 H 0.58424 0.84384 0.95814 0.0
H1786 H 0.53523 0.88321 0.98398 0.0
H1787 H 0.55292 0.8203 -0.00254 0.0
H1788 H 0.57449 0.79918 0.00913 0.0
H1789 H 0.57826 0.82896 0.0568 0.0
H1790 H 0.55708 0.85056 0.04512 0.0
H1791 H 0.45021 0.86145 0.02049 0.0
H1792 H 0.47746 0.85961 0.0032 0.0
H1793 H 0.50788 0.86727 0.05034 0.0
H1794 H 0.48131 0.86886 0.06747 0.0
H1795 H 0.52108 0.84121 0.03164 0.0
H1796 H 0.50089 0.90077 0.0216 0.0
H1797 H 0.47991 0.92334 0.01168 0.0
H1798 H 0.48098 0.90187 0.95959 0.0
H1799 H 0.50183 0.87905 0.96927 0.0
C1800 C 0.58949 0.87833 0.98629 0.0
C1801 C 0.59333 0.86682 0.97241 0.0
C1802 C 0.57407 0.87619 0.99603 0.0
C1803 C 0.56227 0.86267 0.99183 0.0
C1804 C 0.56634 0.85091 0.97838 0.0
C1805 C 0.58187 0.85275 0.96896 0.0
C1806 C 0.5448 0.86201 5e-05 0.0
C1807 C 0.53201 0.87393 0.99429 0.0
C1808 C 0.54076 0.84994 0.01346 0.0
C1809 C 0.55383 0.83728 0.02023 0.0
C1810 C 0.55867 0.82256 0.01024 0.0
C1811 C 0.57075 0.81046 0.0169 0.0
C1812 C 0.57784 0.8128 0.03365 0.0
C1813 C 0.57286 0.82724 0.04378 0.0
C1814 C 0.56087 0.83945 0.03712 0.0
C1815 C 0.46274 0.8627 0.02709 0.0
C1816 C 0.46355 0.86528 0.04534 0.0
C1817 C 0.47825 0.86169 0.01723 0.0
C1818 C 0.49466 0.8633 0.02554 0.0
C1819 C 0.49539 0.86585 0.04369 0.0
C1820 C 0.48008 0.86682 0.05346 0.0
C1821 C 0.51135 0.86251 0.01568 0.0
C1822 C 0.52409 0.85034 0.02114 0.0
C1823 C 0.51532 0.87443 0.00203 0.0
C1824 C 0.50274 0.88808 0.99621 0.0
C1825 C 0.49653 0.90077 0.00807 0.0
C1826 C 0.48469 0.91363 0.00248 0.0
C1827 C 0.47907 0.914 0.98503 0.0
C1828 C 0.48531 0.90154 0.97311 0.0
C1829 C 0.49715 0.88865 0.97864 0.0
H1830 H 0.46991 0.92397 0.98073 0.0
H1831 H 0.58712 0.80336 0.03881 0.0
H1832 H 0.10883 0.82401 0.19442 0.0
H1833 H 0.10735 0.79692 0.21115 0.0
H1834 H 0.11717 0.82592 0.25892 0.0
H1835 H 0.12043 0.85293 0.24165 0.0
H1836 H 0.13583 0.7999 0.26025 0.0
H1837 H 0.07476 0.80453 0.24656 0.0
H1838 H 0.04847 0.80852 0.22807 0.0
H1839 H 0.06235 0.76295 0.19798 0.0
H1840 H 0.08877 0.75877 0.21621 0.0
H1841 H 0.10468 0.73237 0.31616 0.0
H1842 H 0.10306 0.75742 0.29658 0.0
H1843 H 0.12831 0.72759 0.25573 0.0
H1844 H 0.13055 0.70218 0.2756 0.0
H1845 H 0.09223 0.75254 0.25053 0.0
H1846 H 0.15428 0.7494 0.26774 0.0
H1847 H 0.17758 0.74616 0.28997 0.0
H1848 H 0.15776 0.79098 0.31771 0.0
H1849 H 0.13411 0.79427 0.29582 0.0
C1850 C 0.1103 0.8246 0.20855 0.0
C1851 C 0.11452 0.84044 0.21687 0.0
C1852 C 0.10932 0.80911 0.21817 0.0
C1853 C 0.11175 0.80928 0.23643 0.0
C1854 C 0.11525 0.82537 0.24485 0.0
C1855 C 0.11696 0.84081 0.23508 0.0
C1856 C 0.11218 0.79253 0.24641 0.0
C1857 C 0.1261 0.78971 0.2582 0.0
C1858 C 0.09972 0.77895 0.24365 0.0
C1859 C 0.08382 0.78142 0.23267 0.0
C1860 C 0.07225 0.79542 0.23594 0.0
C1861 C 0.05731 0.7977 0.22552 0.0
C1862 C 0.05376 0.78602 0.21184 0.0
C1863 C 0.06511 0.77199 0.20858 0.0
C1864 C 0.08005 0.76964 0.21898 0.0
C1865 C 0.10975 0.73093 0.30296 0.0
C1866 C 0.11789 0.71528 0.29745 0.0
C1867 C 0.10881 0.74531 0.29183 0.0
C1868 C 0.1157 0.74429 0.2749 0.0
C1869 C 0.12302 0.7285 0.26889 0.0
C1870 C 0.12428 0.71408 0.2802 0.0
C1871 C 0.11578 0.7602 0.26401 0.0
C1872 C 0.10191 0.76283 0.25227 0.0
C1873 C 0.12792 0.77381 0.2672 0.0
C1874 C 0.14228 0.77193 0.28025 0.0
C1875 C 0.15476 0.75843 0.27869 0.0
C1876 C 0.16806 0.75662 0.29121 0.0
C1877 C 0.16911 0.76832 0.30528 0.0
C1878 C 0.1569 0.7819 0.30683 0.0
C1879 C 0.14355 0.78375 0.29436 0.0
H1880 H 0.17942 0.76689 0.31496 0.0
H1881 H 0.04219 0.78781 0.20379 0.0
H1882 H 0.98198 0.61276 0.92971 0.0
H1883 H 0.00735 0.61462 0.94858 0.0
H1884 H 0.97636 0.64045 0.9883 0.0
H1885 H 0.95056 0.63922 0.96887 0.0
H1886 H 0.00664 0.65714 0.98348 0.0
H1887 H 0.99131 0.59763 0.9943 0.0
H1888 H 0.98262 0.56722 0.98747 0.0
H1889 H 0.02989 0.56006 0.9577 0.0
H1890 H 0.0388 0.59048 0.96419 0.0
H1891 H 0.07938 0.64908 0.04229 0.0
H1892 H 0.05179 0.65071 0.02649 0.0
H1893 H 0.07441 0.62114 0.98378 0.0
H1894 H 0.10184 0.61835 0.00032 0.0
H1895 H 0.04613 0.60641 0.9935 0.0
H1896 H 0.06031 0.66772 0.98217 0.0
H1897 H 0.06862 0.69775 0.99098 0.0
H1898 H 0.02293 0.70111 0.02374 0.0
H1899 H 0.01444 0.67106 0.01527 0.0
C1900 C 0.98037 0.61873 0.9425 0.0
C1901 C 0.9642 0.62594 0.94774 0.0
C1902 C 0.99495 0.61964 0.95338 0.0
C1903 C 0.99373 0.62742 0.96997 0.0
C1904 C 0.97753 0.6343 0.97554 0.0
C1905 C 0.96282 0.63352 0.9645 0.0
C1906 C 0.00983 0.62918 0.98074 0.0
C1907 C 0.01517 0.64601 0.98598 0.0
C1908 C 0.02105 0.6147 0.98375 0.0
C1909 C 0.01568 0.59639 0.97969 0.0
C1910 C -0.0002 0.58962 0.9862 0.0
C1911 C 0.99485 0.57236 0.98241 0.0
C1912 C 0.0057 0.56172 0.97218 0.0
C1913 C 0.02151 0.56831 0.96567 0.0
C1914 C 0.02654 0.58555 0.96942 0.0
C1915 C 0.07869 0.64339 0.02928 0.0
C1916 C 0.09273 0.63354 0.02252 0.0
C1917 C 0.06285 0.6444 0.0202 0.0
C1918 C 0.06096 0.63615 0.00386 0.0
C1919 C 0.07551 0.62753 0.99643 0.0
C1920 C 0.09121 0.62603 0.00579 0.0
C1921 C 0.04337 0.63449 0.99561 0.0
C1922 C 0.03767 0.61758 0.99101 0.0
C1923 C 0.03182 0.64889 0.99337 0.0
C1924 C 0.03681 0.66709 -0.00183 0.0
C1925 C 0.05208 0.67484 0.99131 0.0
C1926 C 0.05681 0.69187 0.99623 0.0
C1927 C 0.04633 0.70132 0.00794 0.0
C1928 C 0.03104 0.69378 0.01468 0.0
C1929 C 0.02625 0.67677 0.0098 0.0
H1930 H 0.05004 0.71448 0.01176 0.0
H1931 H 0.00185 0.54835 0.96931 0.0
H1932 H 0.84947 0.78437 0.28375 0.0
H1933 H 0.85218 0.75788 0.26591 0.0
H1934 H 0.90324 0.74788 0.28824 0.0
H1935 H 0.90095 0.77462 0.30558 0.0
H1936 H 0.90209 0.73602 0.2555 0.0
H1937 H 0.86635 0.7294 0.30733 0.0
H1938 H 0.84227 0.73653 0.32775 0.0
H1939 H 0.80465 0.72922 0.28643 0.0
H1940 H 0.82852 0.72194 0.26579 0.0
H1941 H 0.89749 0.64483 0.2333 0.0
H1942 H 0.90072 0.67163 0.25082 0.0
H1943 H 0.84822 0.68724 0.23622 0.0
H1944 H 0.84456 0.66023 0.21988 0.0
H1945 H 0.85274 0.69537 0.26766 0.0
H1946 H 0.89021 0.70203 0.21538 0.0
H1947 H 0.91522 0.6941 0.1964 0.0
H1948 H 0.95062 0.70069 0.23976 0.0
H1949 H 0.9258 0.7085 0.25902 0.0
C1950 C 0.86148 0.77681 0.28449 0.0
C1951 C 0.87478 0.78134 0.29642 0.0
C1952 C 0.86297 0.76161 0.27438 0.0
C1953 C 0.87763 0.75059 0.27627 0.0
C1954 C 0.8917 0.75606 0.28677 0.0
C1955 C 0.89033 0.77137 0.29671 0.0
C1956 C 0.87745 0.73261 0.26889 0.0
C1957 C 0.89135 0.72706 0.25818 0.0
C1958 C 0.86358 0.72086 0.27262 0.0
C1959 C 0.84922 0.72529 0.285 0.0
C1960 C 0.85295 0.72942 0.30259 0.0
C1961 C 0.83934 0.73348 0.3142 0.0
C1962 C 0.82196 0.73348 0.30835 0.0
C1963 C 0.81813 0.72927 0.29093 0.0
C1964 C 0.83168 0.72512 0.27928 0.0
C1965 C 0.88652 0.65382 0.23425 0.0
C1966 C 0.87075 0.65039 0.22527 0.0
C1967 C 0.88847 0.66925 0.24402 0.0
C1968 C 0.87489 0.68173 0.24447 0.0
C1969 C 0.85893 0.67789 0.2361 0.0
C1970 C 0.85681 0.66233 0.22679 0.0
C1971 C 0.87692 0.69893 0.25342 0.0
C1972 C 0.86345 0.70429 0.26478 0.0
C1973 C 0.89127 0.71038 0.25032 0.0
C1974 C 0.90613 0.70566 0.23867 0.0
C1975 C 0.90331 0.70168 0.22088 0.0
C1976 C 0.91746 0.69723 0.21007 0.0
C1977 C 0.93449 0.69684 0.21688 0.0
C1978 C 0.93742 0.70096 0.23451 0.0
C1979 C 0.92333 0.70541 0.24536 0.0
H1980 H 0.94542 0.69338 0.2085 0.0
H1981 H 0.81144 0.73665 0.31735 0.0
H1982 H 0.01081 0.86019 0.9218 0.0
H1983 H 0.98496 0.85516 0.93987 0.0
H1984 H 0.00971 0.88223 0.983 0.0
H1985 H 0.03587 0.88758 0.96461 0.0
H1986 H 0.99224 0.84698 0.99032 0.0
H1987 H 0.97904 0.90575 0.96868 0.0
H1988 H 0.97639 0.92902 0.94632 0.0
H1989 H 0.94383 0.89546 0.91486 0.0
H1990 H 0.94599 0.87214 0.93729 0.0
H1991 H 0.92034 0.88638 0.03714 0.0
H1992 H 0.94588 0.88123 0.01859 0.0
H1993 H 0.91874 0.8389 0.99261 0.0
H1994 H 0.89313 0.84352 0.01193 0.0
H1995 H 0.93643 0.87677 0.9748 0.0
H1996 H 0.94439 0.82114 0.00303 0.0
H1997 H 0.94638 0.80055 0.02786 0.0
H1998 H 0.99029 0.82919 0.0485 0.0
H1999 H 0.98824 0.85028 0.02405 0.0
C2000 C 0.01086 0.86485 0.93522 0.0
C2001 C 0.02535 0.87399 0.94202 0.0
C2002 C 0.99607 0.86207 0.94544 0.0
C2003 C 0.99557 0.86826 0.96269 0.0
C2004 C 0.01003 0.87732 0.96967 0.0
C2005 C 0.02484 0.8804 0.95924 0.0
C2006 C 0.97959 0.86545 0.97309 0.0
C2007 C 0.98003 0.85355 0.9871 0.0
C2008 C 0.96366 0.87358 0.96834 0.0
C2009 C 0.96282 0.8872 0.95452 0.0
C2010 C 0.97141 0.90332 0.95693 0.0
C2011 C 0.96989 0.91655 0.94432 0.0
C2012 C 0.96001 0.9137 0.92913 0.0
C2013 C 0.9515 0.89765 0.92661 0.0
C2014 C 0.95278 0.88446 0.93931 0.0
C2015 C 0.91985 0.87589 0.02755 0.0
C2016 C 0.90482 0.86544 0.02573 0.0
C2017 C 0.93448 0.87284 0.01715 0.0
C2018 C 0.93423 0.85949 0.00459 0.0
C2019 C 0.91923 0.84898 0.00262 0.0
C2020 C 0.90465 0.85171 0.01346 0.0
C2021 C 0.94901 0.85848 0.9923 0.0
C2022 C 0.94848 0.86982 0.97786 0.0
C2023 C 0.96484 0.84996 -0.00313 0.0
C2024 C 0.96592 0.83752 0.01184 0.0
C2025 C 0.95423 0.82329 0.01304 0.0
C2026 C 0.95543 0.81146 0.02701 0.0
C2027 C 0.9684 0.8136 0.03979 0.0
C2028 C 0.98023 0.82755 0.0386 0.0
C2029 C 0.97904 0.83946 0.02469 0.0
H2030 H 0.96932 0.80442 0.05059 0.0
H2031 H 0.95893 0.92393 0.91934 0.0
H2032 H 0.28009 0.14439 0.16475 0.0
H2033 H 0.26359 0.14019 0.19175 0.0
H2034 H 0.24416 0.09067 0.17258 0.0
H2035 H 0.26127 0.09445 0.14542 0.0
H2036 H 0.21867 0.11936 0.18936 0.0
H2037 H 0.26913 0.08287 0.19907 0.0
H2038 H 0.30063 0.07553 0.1992 0.0
H2039 H 0.31075 0.11802 0.23475 0.0
H2040 H 0.2793 0.12582 0.23462 0.0
H2041 H 0.18346 0.09575 0.2717 0.0
H2042 H 0.20235 0.09175 0.24623 0.0
H2043 H 0.22927 0.13999 0.25833 0.0
H2044 H 0.20997 0.14446 0.28372 0.0
H2045 H 0.25091 0.10813 0.24492 0.0
H2046 H 0.20241 0.14702 0.23243 0.0
H2047 H 0.17133 0.15593 0.23237 0.0
H2048 H 0.15808 0.11053 0.20176 0.0
H2049 H 0.18911 0.10118 0.20192 0.0
C2050 C 0.27213 0.13269 0.16607 0.0
C2051 C 0.27191 0.11976 0.1529 0.0
C2052 C 0.26284 0.13027 0.1816 0.0
C2053 C 0.25289 0.11507 0.18414 0.0
C2054 C 0.25193 0.10243 0.17079 0.0
C2055 C 0.26161 0.10464 0.15532 0.0
C2056 C 0.24358 0.11273 0.20093 0.0
C2057 C 0.2256 0.11646 0.20147 0.0
C2058 C 0.25287 0.10953 0.21669 0.0
C2059 C 0.27185 0.10505 0.21668 0.0
C2060 C 0.27809 0.0908 0.20675 0.0
C2061 C 0.29593 0.08651 0.20688 0.0
C2062 C 0.30767 0.0963 0.21699 0.0
C2063 C 0.30161 0.11044 0.22695 0.0
C2064 C 0.28377 0.11479 0.22686 0.0
C2065 C 0.19368 0.10531 0.26928 0.0
C2066 C 0.19513 0.12054 0.27964 0.0
C2067 C 0.20443 0.10299 0.25468 0.0
C2068 C 0.21704 0.11564 0.25041 0.0
C2069 C 0.21956 0.1301 0.26151 0.0
C2070 C 0.20853 0.13265 0.27595 0.0
C2071 C 0.22603 0.11477 0.2333 0.0
C2072 C 0.24393 0.11063 0.23276 0.0
C2073 C 0.21673 0.11775 0.21751 0.0
C2074 C 0.19804 0.12324 0.21746 0.0
C2075 C 0.19284 0.1388 0.22591 0.0
C2076 C 0.17524 0.14396 0.22581 0.0
C2077 C 0.16271 0.13375 0.21715 0.0
C2078 C 0.16779 0.11839 0.20853 0.0
C2079 C 0.18539 0.11315 0.20862 0.0
H2080 H 0.14909 0.13779 0.21707 0.0
H2081 H 0.32148 0.09293 0.2171 0.0
H2082 H 0.39112 0.54752 0.96551 0.0
H2083 H 0.39133 0.52957 0.99201 0.0
H2084 H 0.33612 0.51892 0.98532 0.0
H2085 H 0.33593 0.53689 0.95851 0.0
H2086 H 0.34459 0.53318 0.01796 0.0
H2087 H 0.36414 0.48579 0.98197 0.0
H2088 H 0.38238 0.47129 0.95955 0.0
H2089 H 0.42851 0.4808 0.99049 0.0
H2090 H 0.41059 0.49558 0.013 0.0
H2091 H 0.34255 0.4754 0.09171 0.0
H2092 H 0.33988 0.49155 0.06434 0.0
H2093 H 0.39605 0.49853 0.06284 0.0
H2094 H 0.39893 0.48185 0.09007 0.0
H2095 H 0.38513 0.4847 0.03344 0.0
H2096 H 0.36625 0.53296 0.06892 0.0
H2097 H 0.34859 0.54864 0.091 0.0
H2098 H 0.30188 0.5389 0.06102 0.0
H2099 H 0.3192 0.52287 0.03891 0.0
C2100 C 0.37917 0.54086 0.96938 0.0
C2101 C 0.36354 0.54345 0.95999 0.0
C2102 C 0.37929 0.53063 0.98452 0.0
C2103 C 0.36374 0.52293 0.99062 0.0
C2104 C 0.34826 0.52474 0.98076 0.0
C2105 C 0.34819 0.53482 0.96539 0.0
C2106 C 0.36354 0.51465 0.0082 0.0
C2107 C 0.35315 0.52232 0.02133 0.0
C2108 C 0.37518 0.50091 0.0126 0.0
C2109 C 0.38601 0.49192 -0.00087 0.0
C2110 C 0.37819 0.48491 0.98394 0.0
C2111 C 0.38847 0.47662 0.97122 0.0
C2112 C 0.4066 0.47516 0.97357 0.0
C2113 C 0.41447 0.48195 0.98868 0.0
C2114 C 0.40425 0.49026 0.00144 0.0
C2115 C 0.35435 0.48073 0.08585 0.0
C2116 C 0.371 0.47708 0.09298 0.0
C2117 C 0.35277 0.49005 0.07016 0.0
C2118 C 0.36776 0.4962 0.06145 0.0
C2119 C 0.3843 0.49378 0.06927 0.0
C2120 C 0.38592 0.48432 0.0849 0.0
C2121 C 0.36638 0.5034 0.0434 0.0
C2122 C 0.37646 0.4955 0.03014 0.0
C2123 C 0.35452 0.51701 0.03893 0.0
C2124 C 0.34403 0.52649 0.05234 0.0
C2125 C 0.35219 0.53397 0.06712 0.0
C2126 C 0.34223 0.54296 0.07963 0.0
C2127 C 0.32411 0.54471 0.07745 0.0
C2128 C 0.31591 0.5375 0.06272 0.0
C2129 C 0.32579 0.52845 0.0502 0.0
H2130 H 0.31644 0.55169 0.08714 0.0
H2131 H 0.41454 0.46874 0.96371 0.0
H2132 H 0.72921 0.40118 0.15112 0.0
H2133 H 0.74616 0.404 0.17836 0.0
H2134 H 0.74082 0.34847 0.1876 0.0
H2135 H 0.72438 0.34536 0.16036 0.0
H2136 H 0.72762 0.37257 0.21528 0.0
H2137 H 0.77779 0.35834 0.18047 0.0
H2138 H 0.79799 0.3612 0.15541 0.0
H2139 H 0.81047 0.41386 0.1711 0.0
H2140 H 0.79009 0.41139 0.19615 0.0
H2141 H 0.78785 0.35272 0.28473 0.0
H2142 H 0.77016 0.3543 0.25787 0.0
H2143 H 0.77954 0.41003 0.25492 0.0
H2144 H 0.79677 0.40853 0.28213 0.0
H2145 H 0.79013 0.3885 0.22417 0.0
H2146 H 0.74067 0.40062 0.26121 0.0
H2147 H 0.72107 0.39566 0.28645 0.0
H2148 H 0.70792 0.34461 0.26659 0.0
H2149 H 0.72764 0.34917 0.24133 0.0
C2150 C 0.73203 0.38951 0.15872 0.0
C2151 C 0.72527 0.3731 0.15365 0.0
C2152 C 0.74166 0.39116 0.17427 0.0
C2153 C 0.74445 0.37647 0.18501 0.0
C2154 C 0.73862 0.35995 0.1795 0.0
C2155 C 0.7293 0.35823 0.16386 0.0
C2156 C 0.7522 0.3785 0.20264 0.0
C2157 C 0.74131 0.37595 0.21726 0.0
C2158 C 0.76995 0.3832 0.20508 0.0
C2159 C 0.78221 0.38478 0.19004 0.0
C2160 C 0.78467 0.37061 0.17847 0.0
C2161 C 0.7962 0.37214 0.16429 0.0
C2162 C 0.80546 0.38773 0.16162 0.0
C2163 C 0.80325 0.4018 0.17316 0.0
C2164 C 0.79171 0.40035 0.18736 0.0
C2165 C 0.78544 0.36539 0.27874 0.0
C2166 C 0.7933 0.38055 0.28554 0.0
C2167 C 0.77552 0.36627 0.26336 0.0
C2168 C 0.77368 0.38227 0.25443 0.0
C2169 C 0.78085 0.39759 0.26167 0.0
C2170 C 0.7905 0.39675 0.27725 0.0
C2171 C 0.76554 0.38253 0.23684 0.0
C2172 C 0.77637 0.38542 0.2222 0.0
C2173 C 0.74777 0.37792 0.23437 0.0
C2174 C 0.73575 0.37519 0.24945 0.0
C2175 C 0.73371 0.38828 0.26229 0.0
C2176 C 0.72255 0.38556 0.27658 0.0
C2177 C 0.71328 0.36982 0.27814 0.0
C2178 C 0.71511 0.35679 0.26537 0.0
C2179 C 0.72626 0.35945 0.25105 0.0
H2180 H 0.70466 0.36772 0.28923 0.0
H2181 H 0.81438 0.38889 0.15064 0.0
H2182 H 0.64854 0.93753 0.96663 0.0
H2183 H 0.65275 0.95604 0.99231 0.0
H2184 H 0.60095 0.97768 0.98542 0.0
H2185 H 0.59627 0.95862 0.95992 0.0
H2186 H 0.63144 0.00221 -0.00292 0.0
H2187 H 0.59904 0.94915 0.0102 0.0
H2188 H 0.59366 0.91727 0.00984 0.0
H2189 H 0.64228 0.90852 0.03698 0.0
H2190 H 0.6481 0.94039 0.03718 0.0
H2191 H 0.59488 0.02078 0.08081 0.0
H2192 H 0.59986 0.00416 0.054 0.0
H2193 H 0.655 0.00058 0.06607 0.0
H2194 H 0.6503 0.01789 0.09289 0.0
H2195 H 0.62734 0.96722 0.05193 0.0
H2196 H 0.65797 0.0224 0.04036 0.0
H2197 H 0.66059 0.05464 0.04124 0.0
H2198 H 0.61289 0.05954 0.01168 0.0
H2199 H 0.60984 0.02736 0.01086 0.0
C2200 C 0.63813 0.94646 0.97027 0.0
C2201 C 0.6219 0.94635 0.96143 0.0
C2202 C 0.64061 0.95704 0.98496 0.0
C2203 C 0.62708 0.96798 0.99078 0.0
C2204 C 0.6115 0.96922 0.98105 0.0
C2205 C 0.60884 0.95832 0.96654 0.0
C2206 C 0.6284 0.97639 0.00812 0.0
C2207 C 0.63062 0.9946 0.00908 0.0
C2208 C 0.6275 0.96632 0.02369 0.0
C2209 C 0.62417 0.94713 0.02338 0.0
C2210 C 0.60873 0.94042 0.01582 0.0
C2211 C 0.60556 0.92235 0.01571 0.0
C2212 C 0.61767 0.91086 0.02328 0.0
C2213 C 0.63295 0.91743 0.03104 0.0
C2214 C 0.63619 0.93549 0.03114 0.0
C2215 C 0.60805 0.01625 0.078 0.0
C2216 C 0.62224 0.02078 0.0889 0.0
C2217 C 0.61086 0.00685 0.06262 0.0
C2218 C 0.6278 0.00153 0.05802 0.0
C2219 C 0.64187 0.00487 0.0694 0.0
C2220 C 0.63914 0.01465 0.08469 0.0
C2221 C 0.63051 0.99303 0.04092 0.0
C2222 C 0.62875 0.97478 0.03995 0.0
C2223 C 0.63172 0.00308 0.02537 0.0
C2224 C 0.63353 0.02246 0.02582 0.0
C2225 C 0.64791 0.03036 0.03427 0.0
C2226 C 0.64951 0.04864 0.03468 0.0
C2227 C 0.63688 0.05916 0.02655 0.0
C2228 C 0.62266 0.05141 0.01796 0.0
C2229 C 0.62099 0.03315 0.01752 0.0
H2230 H 0.63813 0.07331 0.02687 0.0
H2231 H 0.61518 0.89688 0.02321 0.0
H2232 H 0.24963 0.88207 0.35352 0.0
H2233 H 0.23263 0.88554 0.32616 0.0
H2234 H 0.27949 0.87561 0.29598 0.0
H2235 H 0.29618 0.87168 0.32303 0.0
H2236 H 0.2608 0.901 0.2813 0.0
H2237 H 0.25058 0.84302 0.30451 0.0
H2238 H 0.24157 0.82177 0.32721 0.0
H2239 H 0.18954 0.8434 0.32717 0.0
H2240 H 0.19834 0.86499 0.30469 0.0
H2241 H 0.22051 0.86867 0.20072 0.0
H2242 H 0.23834 0.87093 0.2276 0.0
H2243 H 0.19334 0.89024 0.2559 0.0
H2244 H 0.17572 0.8884 0.22954 0.0
H2245 H 0.21087 0.8604 0.27137 0.0
H2246 H 0.22136 0.91831 0.24801 0.0
H2247 H 0.23057 0.93932 0.22521 0.0
H2248 H 0.2823 0.91698 0.22515 0.0
H2249 H 0.2733 0.89566 0.2478 0.0
C2250 C 0.25613 0.88064 0.34097 0.0
C2251 C 0.27396 0.87632 0.34011 0.0
C2252 C 0.24653 0.88263 0.32543 0.0
C2253 C 0.25481 0.88045 0.30907 0.0
C2254 C 0.27284 0.87702 0.30842 0.0
C2255 C 0.2823 0.87476 0.32382 0.0
C2256 C 0.24473 0.88059 0.29254 0.0
C2257 C 0.24995 0.89205 0.27909 0.0
C2258 C 0.23056 0.86893 0.28973 0.0
C2259 C 0.22517 0.85576 0.30305 0.0
C2260 C 0.23725 0.84333 0.30943 0.0
C2261 C 0.23218 0.83122 0.32225 0.0
C2262 C 0.21501 0.83127 0.32866 0.0
C2263 C 0.20285 0.8434 0.32222 0.0
C2264 C 0.20787 0.85558 0.30944 0.0
C2265 C 0.21454 0.87362 0.21262 0.0
C2266 C 0.19669 0.87827 0.21296 0.0
C2267 C 0.22469 0.87487 0.22791 0.0
C2268 C 0.21701 0.88061 0.24365 0.0
C2269 C 0.19941 0.88568 0.24387 0.0
C2270 C 0.1894 0.88468 0.22869 0.0
C2271 C 0.22694 0.88082 0.26023 0.0
C2272 C 0.2217 0.86936 0.27365 0.0
C2273 C 0.24112 0.89239 0.26296 0.0
C2274 C 0.2466 0.90525 0.24943 0.0
C2275 C 0.23465 0.91776 0.24301 0.0
C2276 C 0.23984 0.92976 0.23015 0.0
C2277 C 0.25699 0.92945 0.22369 0.0
C2278 C 0.26901 0.91718 0.23014 0.0
C2279 C 0.26387 0.90515 0.243 0.0
H2280 H 0.26099 0.93875 0.21373 0.0
H2281 H 0.21111 0.82189 0.33858 0.0
H2282 H 0.10758 0.45134 0.91812 0.0
H2283 H 0.11155 0.46739 0.94536 0.0
H2284 H 0.14304 0.50592 0.91827 0.0
H2285 H 0.13999 0.48896 0.89087 0.0
H2286 H 0.15638 0.49969 0.94955 0.0
H2287 H 0.09894 0.5138 0.92874 0.0
H2288 H 0.0696 0.50715 0.91678 0.0
H2289 H 0.0571 0.47765 0.96311 0.0
H2290 H 0.08645 0.48396 0.97527 0.0
H2291 H 0.14387 0.56629 0.01281 0.0
H2292 H 0.14605 0.54716 0.9876 0.0
H2293 H 0.11627 0.50745 0.01484 0.0
H2294 H 0.11338 0.52704 0.04023 0.0
H2295 H 0.10275 0.51416 0.98352 0.0
H2296 H 0.16156 0.5027 0.00453 0.0
H2297 H 0.19079 0.51156 0.01529 0.0
H2298 H 0.20042 0.53926 0.9672 0.0
H2299 H 0.17119 0.53073 0.95622 0.0
C2300 C 0.11521 0.46334 0.91792 0.0
C2301 C 0.12309 0.46926 0.90239 0.0
C2302 C 0.11749 0.47249 0.9335 0.0
C2303 C 0.12712 0.48815 0.93376 0.0
C2304 C 0.1354 0.49394 0.9183 0.0
C2305 C 0.13355 0.4844 0.90269 0.0
C2306 C 0.12814 0.49842 0.95022 0.0
C2307 C 0.14466 0.50306 0.9569 0.0
C2308 C 0.11284 0.50261 0.95989 0.0
C2309 C 0.09494 0.49929 0.95288 0.0
C2310 C 0.08995 0.50587 0.93636 0.0
C2311 C 0.07332 0.50215 0.92954 0.0
C2312 C 0.0615 0.49197 0.93917 0.0
C2313 C 0.06627 0.48555 0.95567 0.0
C2314 C 0.08288 0.48922 0.96256 0.0
C2315 C 0.13799 0.55339 0.01367 0.0
C2316 C 0.12827 0.54827 0.02851 0.0
C2317 C 0.13941 0.54237 -0.00079 0.0
C2318 C 0.13149 0.52579 -0.00064 0.0
C2319 C 0.12251 0.52022 0.01449 0.0
C2320 C 0.12091 0.53138 0.02898 0.0
C2321 C 0.13101 0.51524 0.98306 0.0
C2322 C 0.11451 0.51066 0.9763 0.0
C2323 C 0.14631 0.51148 0.9732 0.0
C2324 C 0.16413 0.51614 0.97959 0.0
C2325 C 0.16989 0.51072 0.99627 0.0
C2326 C 0.18646 0.51568 0.00241 0.0
C2327 C 0.19744 0.52599 0.99195 0.0
C2328 C 0.19191 0.53127 0.97529 0.0
C2329 C 0.17536 0.52634 0.96908 0.0
H2330 H 0.21023 0.52988 -0.00325 0.0
H2331 H 0.04866 0.48907 0.93384 0.0
H2332 H 0.82205 0.61322 0.22387 0.0
H2333 H 0.80955 0.61449 0.25344 0.0
H2334 H 0.75744 0.61081 0.23167 0.0
H2335 H 0.76978 0.6095 0.2021 0.0
H2336 H 0.76039 0.63707 0.25668 0.0
H2337 H 0.77335 0.57448 0.25234 0.0
H2338 H 0.792 0.54851 0.24744 0.0
H2339 H 0.82872 0.56724 0.2859 0.0
H2340 H 0.81003 0.59316 0.29127 0.0
H2341 H 0.7071 0.60255 0.32489 0.0
H2342 H 0.72632 0.60132 0.29921 0.0
H2343 H 0.76768 0.62621 0.3287 0.0
H2344 H 0.74814 0.62831 0.3543 0.0
H2345 H 0.77331 0.59197 0.30186 0.0
H2346 H 0.75531 0.65191 0.31035 0.0
H2347 H 0.73382 0.67523 0.31636 0.0
H2348 H 0.70644 0.6627 0.26879 0.0
H2349 H 0.72743 0.63872 0.26287 0.0
C2350 C 0.80793 0.61265 0.22537 0.0
C2351 C 0.79691 0.61126 0.21062 0.0
C2352 C 0.80082 0.61331 0.24229 0.0
C2353 C 0.78258 0.61268 0.24475 0.0
C2354 C 0.77156 0.61135 0.23005 0.0
C2355 C 0.77865 0.61054 0.21316 0.0
C2356 C 0.77489 0.61356 0.26261 0.0
C2357 C 0.76317 0.62721 0.26656 0.0
C2358 C 0.77891 0.60097 0.27564 0.0
C2359 C 0.79044 0.58579 0.27204 0.0
C2360 C 0.78548 0.5731 0.25963 0.0
C2361 C 0.79603 0.55837 0.25682 0.0
C2362 C 0.81163 0.55628 0.26625 0.0
C2363 C 0.81666 0.56889 0.27857 0.0
C2364 C 0.80606 0.58355 0.28157 0.0
C2365 C 0.72044 0.60736 0.32604 0.0
C2366 C 0.72621 0.61551 0.34152 0.0
C2367 C 0.73131 0.60679 0.31134 0.0
C2368 C 0.74821 0.614 0.31205 0.0
C2369 C 0.75456 0.62079 0.32793 0.0
C2370 C 0.74347 0.6219 0.34251 0.0
C2371 C 0.75865 0.61531 0.29581 0.0
C2372 C 0.77081 0.60205 0.29212 0.0
C2373 C 0.75505 0.62835 0.28307 0.0
C2374 C 0.74257 0.64299 0.28651 0.0
C2375 C 0.74443 0.65372 0.30142 0.0
C2376 C 0.73239 0.66716 0.30477 0.0
C2377 C 0.71862 0.67028 0.29308 0.0
C2378 C 0.71698 0.66009 0.27795 0.0
C2379 C 0.72891 0.64654 0.27464 0.0
H2380 H 0.70933 0.68071 0.29566 0.0
H2381 H 0.81976 0.54485 0.26409 0.0
H2382 H 0.8762 0.92734 0.01199 0.0
H2383 H 0.87546 0.94503 0.98561 0.0
H2384 H 0.85625 0.98916 0.01537 0.0
H2385 H 0.85678 0.97125 0.04227 0.0
H2386 H 0.83707 0.98197 0.98452 0.0
H2387 H 0.89771 0.98972 0.00088 0.0
H2388 H 0.92714 0.97972 0.00993 0.0
H2389 H 0.93162 0.94926 0.96276 0.0
H2390 H 0.90214 0.9589 0.95352 0.0
H2391 H 0.84682 0.04062 0.91289 0.0
H2392 H 0.84483 0.02428 0.94014 0.0
H2393 H 0.87548 0.9824 0.9174 0.0
H2394 H 0.87857 -0.00056 0.89035 0.0
H2395 H 0.88904 0.99011 0.94624 0.0
H2396 H 0.8293 0.97919 0.93006 0.0
H2397 H 0.7992 0.98623 0.92045 0.0
H2398 H 0.79204 0.01886 0.9658 0.0
H2399 H 0.82217 0.01218 0.97559 0.0
C2400 C 0.87188 0.94083 0.01308 0.0
C2401 C 0.86648 0.94789 0.02927 0.0
C2402 C 0.87159 0.95096 -0.00206 0.0
C2403 C 0.866 0.96843 -0.00142 0.0
C2404 C 0.8607 0.97568 0.01469 0.0
C2405 C 0.86105 0.96549 0.03001 0.0
C2406 C 0.86499 0.97857 0.98209 0.0
C2407 C 0.84845 0.98411 0.97624 0.0
C2408 C 0.87978 0.98062 0.97108 0.0
C2409 C 0.89764 0.97497 0.97656 0.0
C2410 C 0.90492 0.98081 0.99249 0.0
C2411 C 0.92162 0.97522 -0.00236 0.0
C2412 C 0.93123 0.96385 0.98694 0.0
C2413 C 0.92417 0.95808 0.97104 0.0
C2414 C 0.90747 0.96363 0.96582 0.0
C2415 C 0.85272 0.0277 0.91348 0.0
C2416 C 0.8629 0.02131 0.8995 0.0
C2417 C 0.85151 0.0183 0.92913 0.0
C2418 C 0.85993 0.00202 0.9309 0.0
C2419 C 0.86898 0.995 0.91642 0.0
C2420 C 0.87063 0.00465 0.90092 0.0
C2421 C 0.86097 0.99331 0.94833 0.0
C2422 C 0.87757 0.98808 0.95443 0.0
C2423 C 0.84616 0.99119 0.95939 0.0
C2424 C 0.82806 0.99532 0.95346 0.0
C2425 C 0.82136 0.98798 0.93791 0.0
C2426 C 0.80428 0.99188 0.93245 0.0
C2427 C 0.79373 0.00302 0.94248 0.0
C2428 C 0.80023 0.01025 0.95803 0.0
C2429 C 0.8173 0.0064 0.96355 0.0
H2430 H 0.78052 0.00602 0.93823 0.0
H2431 H 0.94415 0.95952 0.99097 0.0
H2432 H 0.29458 0.21767 0.0947 0.0
H2433 H 0.26685 0.23415 0.09341 0.0
H2434 H 0.2446 0.19977 0.13249 0.0
H2435 H 0.27197 0.18345 0.13387 0.0
H2436 H 0.22391 0.20181 0.10394 0.0
H2437 H 0.25355 0.24021 0.14305 0.0
H2438 H 0.27692 0.25968 0.15402 0.0
H2439 H 0.26854 0.29465 0.11065 0.0
H2440 H 0.24528 0.27521 0.09923 0.0
H2441 H 0.14881 0.24955 0.13383 0.0
H2442 H 0.17594 0.23308 0.1295 0.0
H2443 H 0.1895 0.2666 0.08599 0.0
H2444 H 0.16224 0.28301 0.09002 0.0
H2445 H 0.21466 0.26544 0.11385 0.0
H2446 H 0.18174 0.22555 0.0772 0.0
H2447 H 0.15683 0.20599 0.07052 0.0
H2448 H 0.17007 0.1736 0.11468 0.0
H2449 H 0.19495 0.19306 0.12173 0.0
C2450 C 0.28388 0.21392 0.10326 0.0
C2451 C 0.28535 0.19917 0.11421 0.0
C2452 C 0.26806 0.22327 0.10248 0.0
C2453 C 0.25363 0.21799 0.1127 0.0
C2454 C 0.25548 0.20389 0.12431 0.0
C2455 C 0.27117 0.19462 0.1251 0.0
C2456 C 0.23623 0.22638 0.11072 0.0
C2457 C 0.22188 0.21572 0.10617 0.0
C2458 C 0.23365 0.24452 0.11351 0.0
C2459 C 0.24788 0.25608 0.1201 0.0
C2460 C 0.25686 0.25191 0.1357 0.0
C2461 C 0.27005 0.26298 0.14204 0.0
C2462 C 0.27428 0.27834 0.13299 0.0
C2463 C 0.26529 0.2827 0.1176 0.0
C2464 C 0.25211 0.27166 0.11118 0.0
C2465 C 0.15727 0.25306 0.12297 0.0
C2466 C 0.15342 0.26764 0.11234 0.0
C2467 C 0.17278 0.24366 0.12054 0.0
C2468 C 0.18472 0.24875 0.10751 0.0
C2469 C 0.18042 0.26255 0.09614 0.0
C2470 C 0.16478 0.27182 0.09841 0.0
C2471 C 0.20242 0.24088 0.10704 0.0
C2472 C 0.21681 0.25161 0.11126 0.0
C2473 C 0.20496 0.22272 0.10444 0.0
C2474 C 0.19016 0.21083 0.10004 0.0
C2475 C 0.17929 0.21431 0.08554 0.0
C2476 C 0.16518 0.20323 0.08168 0.0
C2477 C 0.16185 0.18858 0.09218 0.0
C2478 C 0.17266 0.18495 0.10654 0.0
C2479 C 0.1868 0.19598 0.11046 0.0
H2480 H 0.15091 0.18003 0.08919 0.0
H2481 H 0.28447 0.28691 0.13794 0.0
H2482 H 0.29346 0.77327 0.39087 0.0
H2483 H 0.2658 0.75669 0.39187 0.0
H2484 H 0.23985 0.79817 0.36335 0.0
H2485 H 0.26708 0.8147 0.36246 0.0
H2486 H 0.22129 0.78961 0.39125 0.0
H2487 H 0.2488 0.75967 0.34385 0.0
H2488 H 0.27183 0.74324 0.3282 0.0
H2489 H 0.26746 0.70112 0.36536 0.0
H2490 H 0.24455 0.71744 0.3814 0.0
H2491 H 0.14553 0.74101 0.35903 0.0
H2492 H 0.1727 0.75803 0.36174 0.0
H2493 H 0.18962 0.7246 0.4041 0.0
H2494 H 0.16236 0.70782 0.40187 0.0
H2495 H 0.21266 0.72844 0.37082 0.0
H2496 H 0.18298 0.76023 0.41714 0.0
H2497 H 0.15865 0.77745 0.42971 0.0
H2498 H 0.166 0.81711 0.39038 0.0
H2499 H 0.19022 0.79998 0.37741 0.0
C2500 C 0.28189 0.7787 0.38465 0.0
C2501 C 0.28242 0.79536 0.37676 0.0
C2502 C 0.26612 0.76925 0.38522 0.0
C2503 C 0.25074 0.77627 0.37778 0.0
C2504 C 0.25147 0.79259 0.36937 0.0
C2505 C 0.2671 0.80201 0.36885 0.0
C2506 C 0.23363 0.76711 0.37928 0.0
C2507 C 0.21941 0.77626 0.38667 0.0
C2508 C 0.23118 0.74967 0.37343 0.0
C2509 C 0.24513 0.7399 0.36398 0.0
C2510 C 0.25289 0.747 0.34881 0.0
C2511 C 0.26589 0.73768 0.33984 0.0
C2512 C 0.27115 0.72118 0.34582 0.0
C2513 C 0.2634 0.71394 0.36077 0.0
C2514 C 0.2504 0.72321 0.36981 0.0
C2515 C 0.15481 0.7376 0.36926 0.0
C2516 C 0.15181 0.72306 0.38022 0.0
C2517 C 0.17032 0.74729 0.37074 0.0
C2518 C 0.18313 0.74241 0.38302 0.0
C2519 C 0.17984 0.72848 0.39453 0.0
C2520 C 0.16419 0.71902 0.39332 0.0
C2521 C 0.20052 0.75094 0.38283 0.0
C2522 C 0.21471 0.7417 0.37558 0.0
C2523 C 0.20286 0.76842 0.38843 0.0
C2524 C 0.18828 0.77872 0.39619 0.0
C2525 C 0.17928 0.77252 0.41105 0.0
C2526 C 0.16555 0.78229 0.41828 0.0
C2527 C 0.16075 0.79834 0.41082 0.0
C2528 C 0.16971 0.80467 0.39613 0.0
C2529 C 0.18345 0.79494 0.38885 0.0
H2530 H 0.15012 0.80589 0.41644 0.0
H2531 H 0.2812 0.71397 0.33884 0.0
H2532 H 0.02589 0.44919 0.84322 0.0
H2533 H 0.00933 0.47689 0.84253 0.0
H2534 H 0.04043 0.49652 0.8856 0.0
H2535 H 0.05681 0.46911 0.88637 0.0
H2536 H 0.00691 0.50616 0.88911 0.0
H2537 H 0.0513 0.50733 0.84487 0.0
H2538 H 0.06742 0.49609 0.81919 0.0
H2539 H 0.02085 0.50031 0.78774 0.0
H2540 H 0.00434 0.51134 0.81337 0.0
H2541 H 0.99322 0.59616 0.88435 0.0
H2542 H 0.0097 0.56876 0.88178 0.0
H2543 H 0.97757 0.55353 0.83771 0.0
H2544 H 0.96161 0.58126 0.8397 0.0
H2545 H 0.01017 0.54087 0.83409 0.0
H2546 H 0.96687 0.54251 0.88136 0.0
H2547 H 0.95406 0.55493 0.90838 0.0
H2548 H 0.00275 0.54675 0.93555 0.0
H2549 H 0.0159 0.53451 0.90869 0.0
C2550 C 0.02886 0.45929 0.85277 0.0
C2551 C 0.04269 0.45709 0.86476 0.0
C2552 C 0.01952 0.47513 0.85228 0.0
C2553 C 0.02384 0.48885 0.86385 0.0
C2554 C 0.0369 0.48616 0.87652 0.0
C2555 C 0.04628 0.47049 0.87691 0.0
C2556 C 0.01567 0.50643 0.86226 0.0
C2557 C 0.00764 0.51377 0.87709 0.0
C2558 C 0.01668 0.51635 0.84659 0.0
C2559 C 0.02654 0.50995 0.83108 0.0
C2560 C 0.04445 0.50574 0.83252 0.0
C2561 C 0.05367 0.49943 0.81798 0.0
C2562 C 0.04515 0.49745 0.80188 0.0
C2563 C 0.02741 0.50183 0.80025 0.0
C2564 C 0.01811 0.50812 0.81478 0.0
C2565 C 0.99007 0.58721 0.87376 0.0
C2566 C 0.97601 0.59073 0.86236 0.0
C2567 C -0.00063 0.57149 0.8724 0.0
C2568 C 0.99441 0.55881 0.85997 0.0
C2569 C 0.98148 0.56302 0.84754 0.0
C2570 C 0.97241 0.57892 0.84866 0.0
C2571 C 0.00143 0.54066 0.86098 0.0
C2572 C 0.00922 0.5332 0.84603 0.0
C2573 C 0.00054 0.53073 0.8767 0.0
C2574 C 0.9924 0.53769 0.89297 0.0
C2575 C 0.97485 0.5434 0.89309 0.0
C2576 C 0.96753 0.55043 0.90839 0.0
C2577 C 0.97759 0.55166 0.92368 0.0
C2578 C 0.99496 0.54581 0.92372 0.0
C2579 C 0.00235 0.53881 0.90847 0.0
H2580 H 0.97193 0.55714 0.9355 0.0
H2581 H 0.05233 0.49256 0.79068 0.0
H2582 H 0.7118 0.70425 0.40968 0.0
H2583 H 0.73898 0.72148 0.40923 0.0
H2584 H 0.74082 0.717 0.35279 0.0
H2585 H 0.71406 0.69939 0.35332 0.0
H2586 H 0.77031 0.70579 0.36656 0.0
H2587 H 0.73408 0.75695 0.37367 0.0
H2588 H 0.71118 0.77502 0.38766 0.0
H2589 H 0.74017 0.77484 0.43598 0.0
H2590 H 0.76318 0.75661 0.42232 0.0
H2591 H 0.83911 0.76453 0.34577 0.0
H2592 H 0.81236 0.74749 0.34945 0.0
H2593 H 0.81595 0.7536 0.40561 0.0
H2594 H 0.84263 0.77105 0.40202 0.0
H2595 H 0.78435 0.763 0.39416 0.0
H2596 H 0.82181 0.71311 0.3855 0.0
H2597 H 0.84462 0.69579 0.37045 0.0
H2598 H 0.81299 0.69407 0.32385 0.0
H2599 H 0.79008 0.71157 0.33854 0.0
C2600 C 0.71767 0.70757 0.39717 0.0
C2601 C 0.71092 0.70059 0.38153 0.0
C2602 C 0.73325 0.71731 0.39691 0.0
C2603 C 0.74202 0.72039 0.38097 0.0
C2604 C 0.73439 0.71462 0.36524 0.0
C2605 C 0.71903 0.70473 0.36553 0.0
C2606 C 0.75993 0.72801 0.38069 0.0
C2607 C 0.77333 0.71841 0.37241 0.0
C2608 C 0.76399 0.74417 0.38881 0.0
C2609 C 0.75027 0.75528 0.39702 0.0
C2610 C 0.73552 0.76067 0.38731 0.0
C2611 C 0.72253 0.77096 0.39517 0.0
C2612 C 0.7242 0.77604 0.41271 0.0
C2613 C 0.73889 0.77088 0.4224 0.0
C2614 C 0.75193 0.7606 0.4146 0.0
C2615 C 0.83454 0.76185 0.35895 0.0
C2616 C 0.84299 0.76923 0.3736 0.0
C2617 C 0.81919 0.75209 0.36103 0.0
C2618 C 0.81213 0.74926 0.37781 0.0
C2619 C 0.82111 0.75571 0.39254 0.0
C2620 C 0.83642 0.76559 0.39046 0.0
C2621 C 0.79466 0.74091 0.37978 0.0
C2622 C 0.78135 0.75032 0.38842 0.0
C2623 C 0.79064 0.72462 0.37186 0.0
C2624 C 0.80426 0.71376 0.3631 0.0
C2625 C 0.81975 0.70911 0.37202 0.0
C2626 C 0.83269 0.69925 0.36355 0.0
C2627 C 0.83027 0.69386 0.3462 0.0
C2628 C 0.81484 0.69823 0.3373 0.0
C2629 C 0.80186 0.7081 0.3457 0.0
H2630 H 0.84033 0.68628 0.33965 0.0
H2631 H 0.71412 0.78399 0.41878 0.0
H2632 H 0.47373 0.54323 0.36512 0.0
H2633 H 0.49033 0.51554 0.36324 0.0
H2634 H 0.44183 0.48639 0.36326 0.0
H2635 H 0.42533 0.51343 0.36492 0.0
H2636 H 0.46717 0.47417 0.38766 0.0
H2637 H 0.4609 0.4905 0.32619 0.0
H2638 H 0.46447 0.51099 0.3014 0.0
H2639 H 0.52024 0.51151 0.30952 0.0
H2640 H 0.51696 0.49114 0.3345 0.0
H2641 H 0.49755 0.38908 0.37181 0.0
H2642 H 0.48003 0.41578 0.36765 0.0
H2643 H 0.52669 0.44361 0.35138 0.0
H2644 H 0.5436 0.41672 0.35383 0.0
H2645 H 0.5021 0.45723 0.33544 0.0
H2646 H 0.50918 0.44092 0.39683 0.0
H2647 H 0.50599 0.42126 0.42238 0.0
H2648 H 0.44998 0.42191 0.41624 0.0
H2649 H 0.45285 0.4414 0.39052 0.0
C2650 C 0.46667 0.5309 0.36465 0.0
C2651 C 0.44824 0.53057 0.36523 0.0
C2652 C 0.47612 0.51516 0.36359 0.0
C2653 C 0.46721 0.49902 0.36323 0.0
C2654 C 0.4489 0.49872 0.36369 0.0
C2655 C 0.43952 0.51428 0.36457 0.0
C2656 C 0.47667 0.4822 0.36231 0.0
C2657 C 0.47481 0.47037 0.37626 0.0
C2658 C 0.48668 0.47748 0.3475 0.0
C2659 C 0.48868 0.48943 0.33228 0.0
C2660 C 0.47391 0.49506 0.32275 0.0
C2661 C 0.47588 0.50663 0.30865 0.0
C2662 C 0.49257 0.51258 0.30392 0.0
C2663 C 0.50732 0.5069 0.31322 0.0
C2664 C 0.50542 0.49532 0.32732 0.0
C2665 C 0.50381 0.40082 0.36679 0.0
C2666 C 0.52183 0.40097 0.36314 0.0
C2667 C 0.49391 0.41611 0.36465 0.0
C2668 C 0.50217 0.43193 0.35988 0.0
C2669 C 0.51997 0.43168 0.35517 0.0
C2670 C 0.52965 0.41627 0.35656 0.0
C2671 C 0.49287 0.44899 0.36095 0.0
C2672 C 0.49465 0.46094 0.34698 0.0
C2673 C 0.48297 0.45391 0.37594 0.0
C2674 C 0.48125 0.4425 0.39165 0.0
C2675 C 0.49619 0.43683 0.40091 0.0
C2676 C 0.49444 0.42571 0.41541 0.0
C2677 C 0.47779 0.42031 0.4209 0.0
C2678 C 0.46286 0.42608 0.41195 0.0
C2679 C 0.46454 0.43718 0.39742 0.0
H2680 H 0.47647 0.41167 0.4321 0.0
H2681 H 0.49407 0.52156 0.29302 0.0
H2682 H 0.35311 0.74225 0.60921 0.0
H2683 H 0.32616 0.75993 0.60587 0.0
H2684 H 0.29623 0.71878 0.63075 0.0
H2685 H 0.32299 0.7014 0.63423 0.0
H2686 H 0.28007 0.73063 0.60137 0.0
H2687 H 0.30731 0.75419 0.65301 0.0
H2688 H 0.33014 0.76827 0.67109 0.0
H2689 H 0.32826 0.81405 0.63831 0.0
H2690 H 0.30564 0.8001 0.61981 0.0
H2691 H 0.20572 0.77969 0.63782 0.0
H2692 H 0.23201 0.76138 0.63382 0.0
H2693 H 0.25146 0.7976 0.59502 0.0
H2694 H 0.2252 0.81553 0.59842 0.0
H2695 H 0.2732 0.78931 0.62864 0.0
H2696 H 0.24413 0.76531 0.57798 0.0
H2697 H 0.21979 0.75116 0.56206 0.0
H2698 H 0.22401 0.70588 0.59531 0.0
H2699 H 0.24819 0.71991 0.61166 0.0
C2700 C 0.34074 0.73717 0.61402 0.0
C2701 C 0.33995 0.72069 0.62214 0.0
C2702 C 0.32541 0.74719 0.61212 0.0
C2703 C 0.30921 0.74065 0.61811 0.0
C2704 C 0.30856 0.72405 0.62602 0.0
C2705 C 0.32381 0.71422 0.62811 0.0
C2706 C 0.29282 0.75097 0.61639 0.0
C2707 C 0.27856 0.74344 0.60739 0.0
C2708 C 0.29093 0.76777 0.62406 0.0
C2709 C 0.30498 0.77596 0.63482 0.0
C2710 C 0.31196 0.76714 0.64947 0.0
C2711 C 0.32482 0.77513 0.65984 0.0
C2712 C 0.3307 0.79201 0.65581 0.0
C2713 C 0.32374 0.80094 0.64138 0.0
C2714 C 0.31091 0.79299 0.63094 0.0
C2715 C 0.2154 0.78347 0.62812 0.0
C2716 C 0.21338 0.79901 0.61842 0.0
C2717 C 0.23037 0.77304 0.62586 0.0
C2718 C 0.24359 0.77823 0.61415 0.0
C2719 C 0.24131 0.79338 0.60404 0.0
C2720 C 0.22623 0.80354 0.60596 0.0
C2721 C 0.26056 0.76891 0.61376 0.0
C2722 C 0.27486 0.77661 0.62242 0.0
C2723 C 0.26243 0.75223 0.60596 0.0
C2724 C 0.24782 0.74379 0.59622 0.0
C2725 C 0.23972 0.75244 0.58207 0.0
C2726 C 0.22599 0.74441 0.57292 0.0
C2727 C 0.22031 0.72766 0.57772 0.0
C2728 C 0.22839 0.71888 0.59164 0.0
C2729 C 0.24212 0.72686 0.60085 0.0
H2730 H 0.20969 0.72145 0.57061 0.0
H2731 H 0.3406 0.79821 0.66391 0.0
H2732 H 0.0553 0.52355 0.60434 0.0
H2733 H 0.03808 0.49685 0.60526 0.0
H2734 H 0.01207 0.51497 0.65218 0.0
H2735 H 0.02993 0.54185 0.65162 0.0
H2736 H 0.02447 0.48257 0.65652 0.0
H2737 H 0.98927 0.51012 0.6123 0.0
H2738 H 0.98303 0.52624 0.58493 0.0
H2739 H 0.00808 0.48567 0.55496 0.0
H2740 H 0.01463 0.46939 0.58214 0.0
H2741 H 0.96475 0.40988 0.65271 0.0
H2742 H 0.98136 0.43699 0.65587 0.0
H2743 H 0.00995 0.4251 0.60847 0.0
H2744 H 0.99292 0.39819 0.6049 0.0
H2745 H 0.99432 0.45533 0.60574 0.0
H2746 H 0.03003 0.4281 0.64962 0.0
H2747 H 0.03645 0.41163 0.67672 0.0
H2748 H 0.01043 0.45116 0.70726 0.0
H2749 H 0.00363 0.46775 0.68031 0.0
C2750 C 0.04567 0.52207 0.61469 0.0
C2751 C 0.04404 0.53475 0.62799 0.0
C2752 C 0.03572 0.5068 0.61513 0.0
C2753 C 0.02366 0.50392 0.62871 0.0
C2754 C 0.02129 0.51696 0.64155 0.0
C2755 C 0.03137 0.53235 0.64115 0.0
C2756 C 0.01498 0.48657 0.63017 0.0
C2757 C 0.01748 0.47674 0.64558 0.0
C2758 C 0.00638 0.47876 0.61568 0.0
C2759 C 0.00255 0.4886 0.59929 0.0
C2760 C 0.99356 0.5047 0.59989 0.0
C2761 C 0.98994 0.51385 0.5844 0.0
C2762 C 0.99518 0.507 0.56822 0.0
C2763 C 0.00402 0.49096 0.56749 0.0
C2764 C 0.00766 0.48176 0.58293 0.0
C2765 C 0.97495 0.41273 0.64324 0.0
C2766 C 0.97732 0.40206 0.62837 0.0
C2767 C 0.98449 0.42826 0.64511 0.0
C2768 C -0.0032 0.43316 0.63233 0.0
C2769 C 0.00037 0.42164 0.61839 0.0
C2770 C 0.99067 0.40625 0.61638 0.0
C2771 C 0.00393 0.45125 0.632 0.0
C2772 C 0.0011 0.46122 0.61679 0.0
C2773 C 0.01216 0.45911 0.64667 0.0
C2774 C 0.01615 0.44909 0.6629 0.0
C2775 C 0.02552 0.4332 0.66209 0.0
C2776 C 0.02926 0.42386 0.67744 0.0
C2777 C 0.02381 0.43032 0.6937 0.0
C2778 C 0.01463 0.44616 0.69465 0.0
C2779 C 0.01084 0.45554 0.67934 0.0
H2780 H 0.02673 0.42308 0.70556 0.0
H2781 H 0.99237 0.51411 0.55625 0.0
H2782 H 0.00559 0.1006 0.64297 0.0
H2783 H 0.98784 0.07378 0.64582 0.0
H2784 H 0.01606 0.05087 0.6023 0.0
H2785 H 0.0324 0.07787 0.59858 0.0
H2786 H 0.98499 0.04293 0.59849 0.0
H2787 H 0.02289 0.04266 0.65106 0.0
H2788 H 0.03331 0.05447 0.67938 0.0
H2789 H 0.98085 0.05252 0.69981 0.0
H2790 H 0.97011 0.04086 0.67158 0.0
H2791 H 0.96462 0.95424 0.60357 0.0
H2792 H 0.98246 0.98082 0.60651 0.0
H2793 H 0.94905 -0.0014 0.64862 0.0
H2794 H 0.93201 0.97173 0.64648 0.0
H2795 H 0.97993 0.01028 0.6545 0.0
H2796 H 0.94217 0.0098 0.60352 0.0
H2797 H 0.93065 -0.00199 0.57565 0.0
H2798 H 0.98177 0.00232 0.55238 0.0
H2799 H 0.99367 0.01382 0.58021 0.0
C2800 C 0.00762 0.0899 0.63385 0.0
C2801 C 0.02008 0.09138 0.62036 0.0
C2802 C -0.00229 0.07448 0.63564 0.0
C2803 C 0.00076 0.06007 0.62446 0.0
C2804 C 0.01325 0.06175 0.61102 0.0
C2805 C 0.02257 0.07726 0.60884 0.0
C2806 C 0.99103 0.04321 0.62614 0.0
C2807 C 0.98416 0.03573 0.61075 0.0
C2808 C 0.98913 0.03404 0.64223 0.0
C2809 C 0.99568 0.04107 0.65915 0.0
C2810 C 0.01358 0.04485 0.66156 0.0
C2811 C 0.01954 0.0515 0.6776 0.0
C2812 C 0.00774 0.05429 0.69136 0.0
C2813 C 0.98997 0.05039 0.68913 0.0
C2814 C 0.98394 0.04375 0.67313 0.0
C2815 C 0.96144 0.96361 0.61376 0.0
C2816 C 0.94685 0.96097 0.62467 0.0
C2817 C 0.97152 0.97886 0.61535 0.0
C2818 C 0.96671 0.99203 0.62738 0.0
C2819 C 0.95296 0.98876 0.63915 0.0
C2820 C 0.94322 0.97332 0.6379 0.0
C2821 C 0.97484 0.00974 0.62669 0.0
C2822 C 0.98102 0.01746 0.64226 0.0
C2823 C 0.97608 0.01925 0.61078 0.0
C2824 C 0.96883 0.01255 0.59398 0.0
C2825 C 0.95097 0.00816 0.59248 0.0
C2826 C 0.94437 0.00153 0.57669 0.0
C2827 C 0.95546 -0.00057 0.56225 0.0
C2828 C 0.97319 0.00396 0.56357 0.0
C2829 C 0.97986 0.01052 0.57934 0.0
H2830 H 0.95033 0.99431 0.55004 0.0
H2831 H 0.01238 0.05943 0.70376 0.0
H2832 H 0.58776 0.65473 0.77291 0.0
H2833 H 0.58467 0.68198 0.75616 0.0
H2834 H 0.63976 0.6805 0.7434 0.0
H2835 H 0.64298 0.65325 0.75978 0.0
H2836 H 0.62907 0.71094 0.76132 0.0
H2837 H 0.61319 0.67599 0.71224 0.0
H2838 H 0.5969 0.654 0.69505 0.0
H2839 H 0.54948 0.68376 0.70128 0.0
H2840 H 0.56541 0.70578 0.71887 0.0
H2841 H 0.64054 0.77777 0.69834 0.0
H2842 H 0.63889 0.75153 0.71657 0.0
H2843 H 0.58336 0.75996 0.72382 0.0
H2844 H 0.58503 0.78646 0.7055 0.0
H2845 H 0.59173 0.72684 0.71043 0.0
H2846 H 0.60999 0.76313 0.75858 0.0
H2847 H 0.62848 0.78527 0.77324 0.0
H2848 H 0.67384 0.75265 0.76603 0.0
H2849 H 0.65567 0.7304 0.75113 0.0
C2850 C 0.59911 0.65993 0.76613 0.0
C2851 C 0.61567 0.65195 0.76794 0.0
C2852 C 0.59732 0.6755 0.75658 0.0
C2853 C 0.61205 0.68332 0.74879 0.0
C2854 C 0.62828 0.67471 0.74947 0.0
C2855 C 0.63005 0.65908 0.75881 0.0
C2856 C 0.61106 0.70135 0.74172 0.0
C2857 C 0.62099 0.71441 0.75011 0.0
C2858 C 0.60021 0.70585 0.72737 0.0
C2859 C 0.59045 0.69239 0.71719 0.0
C2860 C 0.59923 0.67771 0.71023 0.0
C2861 C 0.59007 0.66527 0.70034 0.0
C2862 C 0.57215 0.66742 0.69716 0.0
C2863 C 0.56335 0.68206 0.70383 0.0
C2864 C 0.57244 0.69452 0.71378 0.0
C2865 C 0.62811 0.77436 0.70434 0.0
C2866 C 0.61294 0.78411 0.70066 0.0
C2867 C 0.62716 0.75936 0.71472 0.0
C2868 C 0.611 0.75381 0.72152 0.0
C2869 C 0.59596 0.76409 0.71869 0.0
C2870 C 0.59695 0.7793 0.70843 0.0
C2871 C 0.60977 0.7364 0.73 0.0
C2872 C 0.59951 0.72342 0.72186 0.0
C2873 C 0.62052 0.73188 0.74442 0.0
C2874 C 0.63146 0.74512 0.75365 0.0
C2875 C 0.62392 0.76071 0.76004 0.0
C2876 C 0.63435 0.77328 0.76841 0.0
C2877 C 0.65233 0.77038 0.77055 0.0
C2878 C 0.65991 0.75488 0.76437 0.0
C2879 C 0.64954 0.74226 0.756 0.0
H2880 H 0.66038 0.78013 0.77701 0.0
H2881 H 0.56509 0.6578 0.68946 0.0
H2882 H 0.91313 0.09664 0.463 0.0
H2883 H 0.94032 0.09934 0.47923 0.0
H2884 H 0.92129 0.14672 0.50376 0.0
H2885 H 0.89418 0.14468 0.48637 0.0
H2886 H 0.95343 0.15156 0.49505 0.0
H2887 H 0.925 0.10559 0.52645 0.0
H2888 H 0.90867 0.0779 0.53026 0.0
H2889 H 0.95109 0.04931 0.5067 0.0
H2890 H 0.9676 0.07684 0.50258 0.0
H2891 H 0.02284 0.14806 0.5584 0.0
H2892 H 0.99626 0.15038 0.54103 0.0
H2893 H 0.01112 0.10414 0.51192 0.0
H2894 H 0.03743 0.10116 0.53009 0.0
H2895 H 0.98001 0.10018 0.52483 0.0
H2896 H 0.00802 0.14859 0.49358 0.0
H2897 H 0.02355 0.17698 0.49241 0.0
H2898 H 0.98083 0.20182 0.51943 0.0
H2899 H 0.96508 0.17357 0.52083 0.0
C2900 C 0.91449 0.10745 0.47213 0.0
C2901 C 0.90138 0.12031 0.47364 0.0
C2902 C 0.93012 0.10898 0.48145 0.0
C2903 C 0.93278 0.12302 0.49308 0.0
C2904 C 0.91953 0.13573 0.49493 0.0
C2905 C 0.90399 0.13447 0.48515 0.0
C2906 C 0.94972 0.12455 0.50265 0.0
C2907 C 0.95914 0.1404 0.50178 0.0
C2908 C 0.95728 0.10998 0.51137 0.0
C2909 C 0.94751 0.09332 0.51413 0.0
C2910 C 0.93082 0.09341 0.52203 0.0
C2911 C 0.92153 0.07774 0.52424 0.0
C2912 C 0.92883 0.06186 0.5187 0.0
C2913 C 0.94546 0.06162 0.51099 0.0
C2914 C 0.95481 0.07725 0.50875 0.0
C2915 C 0.02074 0.13861 0.54801 0.0
C2916 C 0.03214 0.12425 0.54579 0.0
C2917 C 0.00549 0.14004 0.53797 0.0
C2918 C 0.00161 0.12745 0.52511 0.0
C2919 C 0.01376 0.11394 0.52186 0.0
C2920 C 0.02884 0.11228 0.53219 0.0
C2921 C 0.98401 0.12698 0.51672 0.0
C2922 C 0.97436 0.11133 0.51801 0.0
C2923 C 0.97616 0.14184 0.50877 0.0
C2924 C 0.98542 0.15893 0.50739 0.0
C2925 C 0.00195 0.1601 0.49929 0.0
C2926 C 0.01079 0.17617 0.49858 0.0
C2927 C 0.00319 0.19118 0.50586 0.0
C2928 C 0.98669 0.19018 0.51377 0.0
C2929 C 0.97778 0.17416 0.51448 0.0
H2930 H 0.01008 0.20359 0.50537 0.0
H2931 H 0.9216 0.04975 0.5204 0.0
H2932 H 0.40188 0.71909 0.68905 0.0
H2933 H 0.40408 0.74559 0.70675 0.0
H2934 H 0.35325 0.73489 0.72924 0.0
H2935 H 0.3507 0.70856 0.71116 0.0
H2936 H 0.35436 0.76631 0.7134 0.0
H2937 H 0.39224 0.73472 0.75412 0.0
H2938 H 0.41812 0.71682 0.76177 0.0
H2939 H 0.45214 0.75643 0.74061 0.0
H2940 H 0.42646 0.77449 0.73271 0.0
H2941 H 0.34483 0.83331 0.7748 0.0
H2942 H 0.34756 0.80691 0.75733 0.0
H2943 H 0.40111 0.82053 0.74472 0.0
H2944 H 0.39875 0.84663 0.7634 0.0
H2945 H 0.40075 0.78864 0.75317 0.0
H2946 H 0.36527 0.82082 0.71316 0.0
H2947 H 0.34073 0.83926 0.70284 0.0
H2948 H 0.30392 0.79972 0.71875 0.0
H2949 H 0.3282 0.78112 0.72933 0.0
C2950 C 0.39134 0.72209 0.69809 0.0
C2951 C 0.37591 0.71193 0.6984 0.0
C2952 C 0.39268 0.73724 0.70828 0.0
C2953 C 0.37876 0.74231 0.7192 0.0
C2954 C 0.36408 0.73129 0.72076 0.0
C2955 C 0.36265 0.7162 0.71046 0.0
C2956 C 0.37836 0.76011 0.72699 0.0
C2957 C 0.36434 0.77112 0.72236 0.0
C2958 C 0.39197 0.7667 0.73774 0.0
C2959 C 0.4074 0.7559 0.74271 0.0
C2960 C 0.40523 0.73956 0.75101 0.0
C2961 C 0.41987 0.7294 0.75542 0.0
C2962 C 0.43676 0.73547 0.75164 0.0
C2963 C 0.43905 0.75174 0.74352 0.0
C2964 C 0.42446 0.76196 0.73912 0.0
C2965 C 0.35709 0.83096 0.76798 0.0
C2966 C 0.37158 0.84209 0.77042 0.0
C2967 C 0.35862 0.81582 0.75789 0.0
C2968 C 0.37446 0.81177 0.7494 0.0
C2969 C 0.38874 0.82333 0.75113 0.0
C2970 C 0.38736 0.8383 0.76168 0.0
C2971 C 0.37637 0.79475 0.74006 0.0
C2972 C 0.39074 0.78391 0.74422 0.0
C2973 C 0.36327 0.78841 0.72848 0.0
C2974 C 0.34859 0.79961 0.72215 0.0
C2975 C 0.35194 0.8161 0.71457 0.0
C2976 C 0.33807 0.82657 0.70864 0.0
C2977 C 0.32078 0.82068 0.71016 0.0
C2978 C 0.31732 0.80427 0.71757 0.0
C2979 C 0.33114 0.79375 0.72351 0.0
H2980 H 0.31007 0.82881 0.70557 0.0
H2981 H 0.44807 0.72757 0.75503 0.0
H2982 H 0.95646 0.33487 0.54018 0.0
H2983 H 0.98305 0.33253 0.52209 0.0
H2984 H 0.98884 0.38883 0.52342 0.0
H2985 H 0.96259 0.3911 0.54172 0.0
H2986 H -0.00127 0.37453 0.49145 0.0
H2987 H 0.00808 0.36645 0.55309 0.0
H2988 H 0.00349 0.35289 0.58208 0.0
H2989 H 0.02151 0.3034 0.56211 0.0
H2990 H 0.02582 0.31659 0.53284 0.0
H2991 H 0.08788 0.39248 0.48467 0.0
H2992 H 0.06018 0.38828 0.50001 0.0
H2993 H 0.06057 0.33342 0.48634 0.0
H2994 H 0.0883 0.33748 0.47057 0.0
H2995 H 0.04709 0.34392 0.52267 0.0
H2996 H 0.03977 0.35514 0.46035 0.0
H2997 H 0.04507 0.37145 0.43289 0.0
H2998 H 0.02435 0.41827 0.45635 0.0
H2999 H 0.01923 0.40233 0.48406 0.0
C3000 C 0.96304 0.34673 0.53594 0.0
C3001 C 0.95754 0.36317 0.54211 0.0
C3002 C 0.97828 0.34539 0.5258 0.0
C3003 C 0.98798 0.36051 0.52164 0.0
C3004 C 0.98152 0.37704 0.52649 0.0
C3005 C 0.96652 0.37834 0.53685 0.0
C3006 C 0.00579 0.35917 0.51409 0.0
C3007 C 0.00929 0.36779 0.49823 0.0
C3008 C 0.01954 0.35042 0.52306 0.0
C3009 C 0.01697 0.34244 0.54066 0.0
C3010 C 0.01085 0.35262 0.5548 0.0
C3011 C 0.00833 0.34501 0.5713 0.0
C3012 C 0.01212 0.32727 0.57392 0.0
C3013 C 0.0185 0.31712 0.56004 0.0
C3014 C 0.02096 0.32466 0.54348 0.0
C3015 C 0.08236 0.37939 0.48524 0.0
C3016 C 0.09012 0.36537 0.47606 0.0
C3017 C 0.06651 0.37705 0.49402 0.0
C3018 C 0.05825 0.36064 0.49394 0.0
C3019 C 0.06677 0.3462 0.48638 0.0
C3020 C 0.08262 0.34855 0.47742 0.0
C3021 C 0.03994 0.3592 0.50003 0.0
C3022 C 0.03642 0.35025 0.51569 0.0
C3023 C 0.02622 0.36795 0.49106 0.0
C3024 C 0.02927 0.37756 0.47436 0.0
C3025 C 0.03651 0.36896 0.45972 0.0
C3026 C 0.03945 0.37812 0.44409 0.0
C3027 C 0.03508 0.39588 0.44288 0.0
C3028 C 0.02775 0.40451 0.4573 0.0
C3029 C 0.02482 0.39541 0.47297 0.0
H3030 H 0.03734 0.40295 0.43077 0.0
H3031 H 0.01017 0.3214 0.58671 0.0
H3032 H 0.58546 0.212 0.78583 0.0
H3033 H 0.58755 0.23865 0.76787 0.0
H3034 H 0.6421 0.24404 0.78226 0.0
H3035 H 0.63991 0.2178 0.80042 0.0
H3036 H 0.62469 0.27276 0.7901 0.0
H3037 H 0.63 0.23572 0.73958 0.0
H3038 H 0.62171 0.21158 0.7197 0.0
H3039 H 0.57204 0.2363 0.70988 0.0
H3040 H 0.57998 0.26054 0.72983 0.0
H3041 H 0.64791 0.34224 0.73062 0.0
H3042 H 0.6453 0.31523 0.74778 0.0
H3043 H 0.58929 0.31537 0.7398 0.0
H3044 H 0.59164 0.34243 0.72291 0.0
H3045 H 0.60664 0.28412 0.72862 0.0
H3046 H 0.60255 0.32181 0.77893 0.0
H3047 H 0.61177 0.34579 0.79859 0.0
H3048 H 0.66057 0.31941 0.80844 0.0
H3049 H 0.65171 0.29531 0.78871 0.0
C3050 C 0.59801 0.21857 0.78461 0.0
C3051 C 0.61249 0.21302 0.79452 0.0
C3052 C 0.5992 0.2338 0.77442 0.0
C3053 C 0.61496 0.24341 0.77388 0.0
C3054 C 0.62978 0.23694 0.78264 0.0
C3055 C 0.62854 0.22191 0.79292 0.0
C3056 C 0.61559 0.26111 0.76593 0.0
C3057 C 0.62099 0.27519 0.77656 0.0
C3058 C 0.61031 0.26433 0.74845 0.0
C3059 C 0.60552 0.24986 0.73633 0.0
C3060 C 0.61726 0.23595 0.73327 0.0
C3061 C 0.61264 0.22227 0.72196 0.0
C3062 C 0.59634 0.22238 0.71357 0.0
C3063 C 0.58466 0.23623 0.7164 0.0
C3064 C 0.58923 0.24996 0.72769 0.0
C3065 C 0.63498 0.33681 0.73293 0.0
C3066 C 0.62002 0.3444 0.72523 0.0
C3067 C 0.63352 0.32135 0.74268 0.0
C3068 C 0.61712 0.31326 0.74481 0.0
C3069 C 0.60206 0.32139 0.73813 0.0
C3070 C 0.60346 0.33693 0.72859 0.0
C3071 C 0.61588 0.29564 0.75276 0.0
C3072 C 0.61033 0.28162 0.74214 0.0
C3073 C 0.62119 0.29243 0.7702 0.0
C3074 C 0.62655 0.30685 0.78216 0.0
C3075 C 0.61532 0.32119 0.78516 0.0
C3076 C 0.62045 0.33477 0.79637 0.0
C3077 C 0.63677 0.33414 0.80473 0.0
C3078 C 0.64794 0.31988 0.80196 0.0
C3079 C 0.64286 0.30624 0.79078 0.0
H3080 H 0.64073 0.34468 0.81338 0.0
H3081 H 0.59277 0.21176 0.70484 0.0
H3082 H 0.58026 0.09508 0.52984 0.0
H3083 H 0.55244 0.09862 0.51495 0.0
H3084 H 0.57194 0.14517 0.48915 0.0
H3085 H 0.59954 0.14249 0.50558 0.0
H3086 H 0.54181 0.15218 0.49903 0.0
H3087 H 0.56152 0.10288 0.46504 0.0
H3088 H 0.57414 0.07364 0.45922 0.0
H3089 H 0.53499 0.04987 0.49201 0.0
H3090 H 0.52185 0.07894 0.49763 0.0
H3091 H 0.47477 0.15071 0.43399 0.0
H3092 H 0.50016 0.15205 0.45314 0.0
H3093 H 0.47744 0.11217 0.48629 0.0
H3094 H 0.45204 0.11032 0.46669 0.0
H3095 H 0.50853 0.10252 0.47338 0.0
H3096 H 0.48651 0.15534 0.50114 0.0
H3097 H 0.47429 0.18531 0.50069 0.0
H3098 H 0.51993 0.20385 0.47338 0.0
H3099 H 0.53234 0.17398 0.4735 0.0
C3100 C 0.57884 0.10581 0.52062 0.0
C3101 C 0.59213 0.11841 0.51869 0.0
C3102 C 0.56286 0.1078 0.512 0.0
C3103 C 0.56006 0.12196 0.50054 0.0
C3104 C 0.57371 0.13413 0.49791 0.0
C3105 C 0.58954 0.1325 0.50711 0.0
C3106 C 0.54247 0.12463 0.49244 0.0
C3107 C 0.53467 0.14135 0.49318 0.0
C3108 C 0.53288 0.11054 0.48503 0.0
C3109 C 0.54082 0.09307 0.48187 0.0
C3110 C 0.55566 0.09141 0.47105 0.0
C3111 C 0.56284 0.07487 0.46772 0.0
C3112 C 0.55547 0.05992 0.47536 0.0
C3113 C 0.54072 0.06146 0.48614 0.0
C3114 C 0.53331 0.07794 0.48928 0.0
C3115 C 0.4749 0.14251 0.44559 0.0
C3116 C 0.46159 0.13008 0.44859 0.0
C3117 C 0.48941 0.14344 0.45666 0.0
C3118 C 0.49075 0.13218 0.47113 0.0
C3119 C 0.47667 0.12095 0.47513 0.0
C3120 C 0.46215 0.11992 0.46395 0.0
C3121 C 0.5079 0.12999 0.48003 0.0
C3122 C 0.51564 0.11331 0.47938 0.0
C3123 C 0.51759 0.14429 0.48684 0.0
C3124 C 0.51033 0.16237 0.48728 0.0
C3125 C 0.49392 0.16579 0.495 0.0
C3126 C 0.48696 0.18277 0.4948 0.0
C3127 C 0.49632 0.19647 0.48699 0.0
C3128 C 0.5127 0.19324 0.47944 0.0
C3129 C 0.51972 0.17629 0.47962 0.0
H3130 H 0.49088 0.20959 0.48681 0.0
H3131 H 0.56116 0.04715 0.47288 0.0
H3132 H 0.38229 0.26369 0.81829 0.0
H3133 H 0.38478 0.23718 0.80107 0.0
H3134 H 0.37408 0.26661 0.75384 0.0
H3135 H 0.3703 0.29342 0.77152 0.0
H3136 H 0.35606 0.23777 0.75385 0.0
H3137 H 0.41734 0.2499 0.76643 0.0
H3138 H 0.442 0.25681 0.7863 0.0
H3139 H 0.4331 0.20888 0.81451 0.0
H3140 H 0.4083 0.20179 0.79501 0.0
H3141 H 0.38972 0.16822 0.69915 0.0
H3142 H 0.39241 0.19494 0.71672 0.0
H3143 H 0.36855 0.16859 0.76071 0.0
H3144 H 0.36492 0.14195 0.74281 0.0
H3145 H 0.40545 0.19588 0.76102 0.0
H3146 H 0.34194 0.18699 0.75431 0.0
H3147 H 0.31578 0.17932 0.73689 0.0
H3148 H 0.32782 0.2204 0.70026 0.0
H3149 H 0.35437 0.22797 0.71726 0.0
C3150 C 0.3807 0.26464 0.80419 0.0
C3151 C 0.37632 0.28066 0.79616 0.0
C3152 C 0.38226 0.24943 0.79433 0.0
C3153 C 0.3802 0.24994 0.77607 0.0
C3154 C 0.37593 0.26597 0.76791 0.0
C3155 C 0.37382 0.28124 0.77794 0.0
C3156 C 0.38135 0.23343 0.76588 0.0
C3157 C 0.36704 0.22881 0.75522 0.0
C3158 C 0.39542 0.22139 0.76807 0.0
C3159 C 0.41089 0.22535 0.77927 0.0
C3160 C 0.42064 0.24084 0.77687 0.0
C3161 C 0.43464 0.24479 0.78809 0.0
C3162 C 0.43906 0.2333 0.80168 0.0
C3163 C 0.42965 0.21776 0.80399 0.0
C3164 C 0.41565 0.21375 0.79283 0.0
C3165 C 0.38539 0.16801 0.71269 0.0
C3166 C 0.37712 0.15312 0.71971 0.0
C3167 C 0.38687 0.18326 0.72264 0.0
C3168 C 0.3805 0.18366 0.73984 0.0
C3169 C 0.37335 0.16845 0.74734 0.0
C3170 C 0.37134 0.15332 0.73719 0.0
C3171 C 0.38018 0.20042 0.74936 0.0
C3172 C 0.39464 0.20505 0.75966 0.0
C3173 C 0.36618 0.21234 0.74715 0.0
C3174 C 0.35035 0.20776 0.73681 0.0
C3175 C 0.3392 0.19416 0.74235 0.0
C3176 C 0.32426 0.18987 0.7326 0.0
C3177 C 0.32019 0.1993 0.71741 0.0
C3178 C 0.33104 0.21305 0.71197 0.0
C3179 C 0.34606 0.21731 0.72164 0.0
H3180 H 0.30859 0.196 0.70991 0.0
H3181 H 0.44976 0.23642 0.81047 0.0
H3182 H 0.39985 0.39251 0.50787 0.0
H3183 H 0.42648 0.38914 0.49042 0.0
H3184 H 0.42972 0.33469 0.50547 0.0
H3185 H 0.4031 0.33784 0.52292 0.0
H3186 H 0.45942 0.35354 0.51397 0.0
H3187 H 0.42274 0.34457 0.46404 0.0
H3188 H 0.39862 0.35095 0.44345 0.0
H3189 H 0.42298 0.3998 0.42956 0.0
H3190 H 0.44711 0.39388 0.45029 0.0
H3191 H 0.53632 0.33927 0.46051 0.0
H3192 H 0.50878 0.3383 0.47719 0.0
H3193 H 0.4969 0.39115 0.4606 0.0
H3194 H 0.52406 0.39196 0.44373 0.0
H3195 H 0.47112 0.36965 0.45205 0.0
H3196 H 0.50392 0.38231 0.50452 0.0
H3197 H 0.52775 0.37835 0.52609 0.0
H3198 H 0.5108 0.32546 0.53551 0.0
H3199 H 0.48688 0.32911 0.51394 0.0
C3200 C 0.40591 0.37968 0.50708 0.0
C3201 C 0.3995 0.36552 0.51703 0.0
C3202 C 0.42114 0.37778 0.49709 0.0
C3203 C 0.43012 0.3617 0.49684 0.0
C3204 C 0.42301 0.34722 0.50563 0.0
C3205 C 0.40774 0.34906 0.51552 0.0
C3206 C 0.44787 0.36064 0.48912 0.0
C3207 C 0.46198 0.35675 0.50034 0.0
C3208 C 0.45115 0.36526 0.47148 0.0
C3209 C 0.43668 0.36884 0.45888 0.0
C3210 C 0.42289 0.35675 0.45672 0.0
C3211 C 0.40922 0.36027 0.445 0.0
C3212 C 0.40924 0.37579 0.43524 0.0
C3213 C 0.42298 0.38778 0.43713 0.0
C3214 C 0.43666 0.38435 0.44887 0.0
C3215 C 0.52812 0.35087 0.46105 0.0
C3216 C 0.53217 0.36567 0.45089 0.0
C3217 C 0.51237 0.35029 0.47047 0.0
C3218 C 0.50072 0.3646 0.46995 0.0
C3219 C 0.5056 0.37991 0.46101 0.0
C3220 C 0.52116 0.38041 0.45151 0.0
C3221 C 0.48271 0.3631 0.47705 0.0
C3222 C 0.46855 0.36636 0.46566 0.0
C3223 C 0.47939 0.35824 0.49461 0.0
C3224 C 0.49376 0.35592 0.5075 0.0
C3225 C 0.50537 0.3698 0.51111 0.0
C3226 C 0.51885 0.36763 0.52336 0.0
C3227 C 0.52082 0.35165 0.53213 0.0
C3228 C 0.50927 0.33782 0.52869 0.0
C3229 C 0.49573 0.33994 0.51648 0.0
H3230 H 0.53127 0.34999 0.54161 0.0
H3231 H 0.39863 0.3785 0.42619 0.0
H3232 H 0.67409 0.61091 0.75887 0.0
H3233 H 0.69206 0.60926 0.73297 0.0
H3234 H 0.73875 0.60708 0.76498 0.0
H3235 H 0.72055 0.60945 0.79159 0.0
H3236 H 0.74253 0.62957 0.73808 0.0
H3237 H 0.72403 0.57007 0.74328 0.0
H3238 H 0.70323 0.54572 0.74789 0.0
H3239 H 0.67413 0.56149 0.7023 0.0
H3240 H 0.69467 0.58605 0.69749 0.0
H3241 H 0.78873 0.59422 0.66138 0.0
H3242 H 0.77124 0.59092 0.688 0.0
H3243 H 0.73519 0.63035 0.66942 0.0
H3244 H 0.75321 0.63448 0.64302 0.0
H3245 H 0.72855 0.58727 0.69053 0.0
H3246 H 0.74494 0.65127 0.6909 0.0
H3247 H 0.76706 0.67451 0.68681 0.0
H3248 H 0.80108 0.64896 0.72375 0.0
H3249 H 0.77948 0.62509 0.72736 0.0
C3250 C 0.68817 0.60995 0.76061 0.0
C3251 C 0.6959 0.61025 0.77739 0.0
C3252 C 0.69844 0.60888 0.74567 0.0
C3253 C 0.71669 0.60764 0.74704 0.0
C3254 C 0.72461 0.60787 0.76371 0.0
C3255 C 0.71425 0.60917 0.77885 0.0
C3256 C 0.72718 0.60695 0.73077 0.0
C3257 C 0.73964 0.62016 0.7278 0.0
C3258 C 0.72326 0.59476 0.71727 0.0
C3259 C 0.71091 0.57992 0.72003 0.0
C3260 C 0.71316 0.56839 0.73427 0.0
C3261 C 0.70143 0.55454 0.7369 0.0
C3262 C 0.68743 0.55202 0.72535 0.0
C3263 C 0.68506 0.5634 0.71118 0.0
C3264 C 0.69676 0.57727 0.70847 0.0
C3265 C 0.77688 0.60195 0.66276 0.0
C3266 C 0.77235 0.61471 0.65024 0.0
C3267 C 0.76701 0.60012 0.67802 0.0
C3268 C 0.75232 0.61076 0.68077 0.0
C3269 C 0.74684 0.62242 0.66763 0.0
C3270 C 0.757 0.62463 0.65255 0.0
C3271 C 0.74334 0.61017 0.69779 0.0
C3272 C 0.73137 0.59661 0.70089 0.0
C3273 C 0.74773 0.62196 0.71141 0.0
C3274 C 0.76082 0.63614 0.70899 0.0
C3275 C 0.75733 0.65035 0.69777 0.0
C3276 C 0.76975 0.66367 0.69558 0.0
C3277 C 0.78557 0.66311 0.70486 0.0
C3278 C 0.78893 0.64927 0.7164 0.0
C3279 C 0.77664 0.6358 0.71846 0.0
H3280 H 0.79514 0.67347 0.70321 0.0
H3281 H 0.6784 0.54124 0.72738 0.0
H3282 H 0.8916 0.03136 0.45599 0.0
H3283 H 0.88842 0.01339 0.48257 0.0
H3284 H 0.84458 0.04513 0.4989 0.0
H3285 H 0.84722 0.06269 0.47225 0.0
H3286 H 0.87664 0.04207 0.52284 0.0
H3287 H 0.83232 0.01029 0.49243 0.0
H3288 H 0.81909 0.9937 0.46804 0.0
H3289 H 0.858 0.9534 0.47399 0.0
H3290 H 0.87169 0.96993 0.49824 0.0
H3291 H 0.85207 0.98737 0.59859 0.0
H3292 H 0.84958 0.00465 0.57142 0.0
H3293 H 0.89583 0.97928 0.55101 0.0
H3294 H 0.89884 0.96259 0.57823 0.0
H3295 H 0.85972 0.97955 0.52959 0.0
H3296 H 0.90537 0.01398 0.55846 0.0
H3297 H 0.91735 0.03078 0.5834 0.0
H3298 H 0.87387 0.06648 0.58054 0.0
H3299 H 0.86145 0.04966 0.55578 0.0
C3300 C 0.88099 0.03416 0.46501 0.0
C3301 C 0.86966 0.04838 0.46202 0.0
C3302 C 0.8792 0.02394 0.48015 0.0
C3303 C 0.86631 0.02805 0.49263 0.0
C3304 C 0.85456 0.04177 0.48935 0.0
C3305 C 0.85604 0.0517 0.47405 0.0
C3306 C 0.86628 0.01918 0.50983 0.0
C3307 C 0.8727 0.02847 0.52438 0.0
C3308 C 0.86126 0.00144 0.5117 0.0
C3309 C 0.85321 0.9915 0.497 0.0
C3310 C 0.83823 -0.00198 0.48839 0.0
C3311 C 0.8306 0.9886 0.47462 0.0
C3312 C 0.83774 0.97254 0.46942 0.0
C3313 C 0.85251 0.96587 0.47801 0.0
C3314 C 0.86021 0.97526 0.49177 0.0
C3315 C 0.8619 0.98582 0.58845 0.0
C3316 C 0.87574 0.97381 0.59056 0.0
C3317 C 0.86041 0.99556 0.57296 0.0
C3318 C 0.87245 0.99306 0.55927 0.0
C3319 C 0.88642 0.98133 0.56147 0.0
C3320 C 0.88821 0.97197 0.57709 0.0
C3321 C 0.87033 0.00238 0.54245 0.0
C3322 C 0.86352 0.99318 0.52802 0.0
C3323 C 0.87486 0.02024 0.54068 0.0
C3324 C 0.88234 0.0304 0.55548 0.0
C3325 C 0.89824 0.02527 0.56331 0.0
C3326 C 0.90514 0.03482 0.57737 0.0
C3327 C 0.89633 0.04963 0.5836 0.0
C3328 C 0.88064 0.05496 0.57574 0.0
C3329 C 0.87367 0.04543 0.56169 0.0
H3330 H 0.9017 0.05701 0.59449 0.0
H3331 H 0.8318 0.96525 0.45878 0.0
H3332 H 0.23788 0.89555 0.64407 0.0
H3333 H 0.25536 0.89788 0.67124 0.0
H3334 H 0.22782 0.85343 0.69278 0.0
H3335 H 0.21107 0.85051 0.66566 0.0
H3336 H 0.22986 0.88872 0.71373 0.0
H3337 H 0.26149 0.84196 0.68485 0.0
H3338 H 0.27797 0.82799 0.66081 0.0
H3339 H 0.31711 0.86839 0.66384 0.0
H3340 H 0.30063 0.88282 0.68769 0.0
H3341 H 0.28135 0.85351 0.78664 0.0
H3342 H 0.26329 0.85744 0.76022 0.0
H3343 H 0.29531 0.9014 0.74475 0.0
H3344 H 0.31296 0.89802 0.77125 0.0
H3345 H 0.29159 0.86906 0.72034 0.0
H3346 H 0.26085 0.91372 0.75227 0.0
H3347 H 0.2444 0.92604 0.77721 0.0
H3348 H 0.20338 0.88829 0.76921 0.0
H3349 H 0.2198 0.8754 0.74446 0.0
C3350 C 0.23588 0.88611 0.6545 0.0
C3351 C 0.22336 0.8727 0.6527 0.0
C3352 C 0.24575 0.88749 0.66997 0.0
C3353 C 0.24278 0.87582 0.68392 0.0
C3354 C 0.2303 0.86249 0.6821 0.0
C3355 C 0.22089 0.86076 0.66654 0.0
C3356 C 0.25232 0.87759 0.70067 0.0
C3357 C 0.24335 0.88442 0.71524 0.0
C3358 C 0.26991 0.87206 0.70245 0.0
C3359 C 0.27961 0.86369 0.6878 0.0
C3360 C 0.27342 0.84806 0.68017 0.0
C3361 C 0.28282 0.84001 0.66664 0.0
C3362 C 0.29853 0.84735 0.66073 0.0
C3363 C 0.30489 0.86276 0.66837 0.0
C3364 C 0.29552 0.8709 0.68189 0.0
C3365 C 0.28421 0.8643 0.77785 0.0
C3366 C 0.29856 0.87543 0.78102 0.0
C3367 C 0.27393 0.86651 0.76279 0.0
C3368 C 0.27808 0.87967 0.7506 0.0
C3369 C 0.29192 0.89122 0.75408 0.0
C3370 C 0.30192 0.8893 0.76929 0.0
C3371 C 0.26915 0.8802 0.73343 0.0
C3372 C 0.2782 0.87366 0.71879 0.0
C3373 C 0.25159 0.88585 0.73166 0.0
C3374 C 0.24171 0.89342 0.74665 0.0
C3375 C 0.24845 0.90785 0.75598 0.0
C3376 C 0.23911 0.91497 0.77006 0.0
C3377 C 0.2229 0.90788 0.77485 0.0
C3378 C 0.21598 0.89369 0.76553 0.0
C3379 C 0.22531 0.88647 0.75148 0.0
H3380 H 0.21566 0.91344 0.78573 0.0
H3381 H 0.30581 0.84107 0.65029 0.0
H3382 H 0.15155 0.53385 0.57949 0.0
H3383 H 0.15428 0.5164 0.55269 0.0
H3384 H 0.10653 0.48895 0.56541 0.0
H3385 H 0.10319 0.50692 0.59188 0.0
H3386 H 0.14104 0.46896 0.55059 0.0
H3387 H 0.09477 0.50829 0.54105 0.0
H3388 H 0.07576 0.53414 0.53786 0.0
H3389 H 0.11298 0.55754 0.50268 0.0
H3390 H 0.13267 0.53211 0.50634 0.0
H3391 H 0.1042 0.44071 0.46911 0.0
H3392 H 0.10692 0.45758 0.49606 0.0
H3393 H 0.15784 0.47601 0.47975 0.0
H3394 H 0.15556 0.45847 0.45272 0.0
H3395 H 0.1237 0.50018 0.49611 0.0
H3396 H 0.1654 0.45106 0.50446 0.0
H3397 H 0.17071 0.41923 0.5019 0.0
H3398 H 0.12788 0.40896 0.53698 0.0
H3399 H 0.12204 0.44069 0.53943 0.0
C3400 C 0.14177 0.52391 0.57677 0.0
C3401 C 0.12698 0.52198 0.5876 0.0
C3402 C 0.14331 0.51403 0.56141 0.0
C3403 C 0.13035 0.5018 0.55694 0.0
C3404 C 0.11645 0.49863 0.56855 0.0
C3405 C 0.11461 0.50885 0.58365 0.0
C3406 C 0.13099 0.49306 0.53971 0.0
C3407 C 0.1374 0.47583 0.53866 0.0
C3408 C 0.1257 0.50188 0.52425 0.0
C3409 C 0.11552 0.51849 0.52446 0.0
C3410 C 0.09931 0.51924 0.53326 0.0
C3411 C 0.08827 0.53373 0.53116 0.0
C3412 C 0.09312 0.54744 0.52001 0.0
C3413 C 0.10921 0.54687 0.51126 0.0
C3414 C 0.12041 0.53251 0.5135 0.0
C3415 C 0.1159 0.44854 0.47106 0.0
C3416 C 0.12977 0.44813 0.45888 0.0
C3417 C 0.11745 0.45805 0.48651 0.0
C3418 C 0.13273 0.46756 0.48995 0.0
C3419 C 0.14607 0.46843 0.47729 0.0
C3420 C 0.14465 0.45863 0.46181 0.0
C3421 C 0.13439 0.47652 0.50693 0.0
C3422 C 0.12812 0.49369 0.508 0.0
C3423 C 0.13873 0.46725 0.52241 0.0
C3424 C 0.14316 0.44827 0.52196 0.0
C3425 C 0.15705 0.44202 0.51154 0.0
C3426 C 0.16014 0.42399 0.5101 0.0
C3427 C 0.14952 0.41209 0.51914 0.0
C3428 C 0.13602 0.4182 0.52991 0.0
C3429 C 0.13284 0.4362 0.53134 0.0
H3430 H 0.15176 0.39814 0.51782 0.0
H3431 H 0.08445 0.55855 0.51823 0.0
H3432 H 0.75729 0.39599 0.84942 0.0
H3433 H 0.73772 0.39919 0.82369 0.0
H3434 H 0.7671 0.35922 0.79649 0.0
H3435 H 0.78606 0.3556 0.82201 0.0
H3436 H 0.7596 0.39685 0.77958 0.0
H3437 H 0.73719 0.34318 0.80653 0.0
H3438 H 0.72384 0.32541 0.82999 0.0
H3439 H 0.67892 0.3594 0.83053 0.0
H3440 H 0.69228 0.37771 0.80739 0.0
H3441 H 0.71252 0.35391 0.70734 0.0
H3442 H 0.73002 0.35948 0.73394 0.0
H3443 H 0.69372 0.39997 0.74944 0.0
H3444 H 0.67663 0.39496 0.72287 0.0
H3445 H 0.70233 0.36645 0.77358 0.0
H3446 H 0.72429 0.41751 0.74283 0.0
H3447 H 0.73792 0.4329 0.71787 0.0
H3448 H 0.7842 0.40122 0.72326 0.0
H3449 H 0.7707 0.3854 0.74807 0.0
C3450 C 0.75939 0.3879 0.83792 0.0
C3451 C 0.77294 0.37543 0.83762 0.0
C3452 C 0.74828 0.38969 0.82336 0.0
C3453 C 0.75101 0.37931 0.80838 0.0
C3454 C 0.76477 0.36719 0.80803 0.0
C3455 C 0.77551 0.36511 0.8226 0.0
C3456 C 0.74004 0.38117 0.79263 0.0
C3457 C 0.74704 0.39027 0.77825 0.0
C3458 C 0.72365 0.37265 0.79109 0.0
C3459 C 0.71598 0.36212 0.80556 0.0
C3460 C 0.72469 0.34715 0.81195 0.0
C3461 C 0.71706 0.33691 0.82512 0.0
C3462 C 0.7006 0.34134 0.83184 0.0
C3463 C 0.69173 0.35605 0.8254 0.0
C3464 C 0.69935 0.3664 0.8123 0.0
C3465 C 0.7086 0.36429 0.71622 0.0
C3466 C 0.6934 0.37415 0.71296 0.0
C3467 C 0.71853 0.36743 0.73134 0.0
C3468 C 0.71309 0.38016 0.74348 0.0
C3469 C 0.69815 0.39024 0.74007 0.0
C3470 C 0.68851 0.38743 0.72482 0.0
C3471 C 0.72207 0.38186 0.76048 0.0
C3472 C 0.71471 0.37334 0.77503 0.0
C3473 C 0.73826 0.39068 0.76211 0.0
C3474 C 0.74637 0.40009 0.74714 0.0
C3475 C 0.73727 0.41365 0.73854 0.0
C3476 C 0.745 0.42249 0.72445 0.0
C3477 C 0.76189 0.41799 0.71893 0.0
C3478 C 0.7711 0.40466 0.72752 0.0
C3479 C 0.76341 0.39575 0.74159 0.0
H3480 H 0.76785 0.42487 0.70803 0.0
H3481 H 0.69466 0.33332 0.84195 0.0
H3482 H 0.65068 0.05861 0.52255 0.0
H3483 H 0.65344 0.04046 0.49635 0.0
H3484 H 0.60718 0.01154 0.51126 0.0
H3485 H 0.60397 0.03003 0.53738 0.0
H3486 H 0.63683 0.99116 0.4941 0.0
H3487 H 0.5998 0.04268 0.48846 0.0
H3488 H 0.59423 0.07438 0.49142 0.0
H3489 H 0.63541 0.08533 0.45459 0.0
H3490 H 0.64185 0.0537 0.45211 0.0
H3491 H 0.59666 0.96366 0.41498 0.0
H3492 H 0.60084 0.98012 0.44214 0.0
H3493 H 0.64882 0.00207 0.42179 0.0
H3494 H 0.64509 0.98509 0.39463 0.0
H3495 H 0.62144 0.02609 0.44122 0.0
H3496 H 0.65857 0.97558 0.44598 0.0
H3497 H 0.66605 0.9442 0.44378 0.0
H3498 H 0.62604 0.93171 0.48139 0.0
H3499 H 0.61806 0.96303 0.48355 0.0
C3500 C 0.64135 0.04808 0.52058 0.0
C3501 C 0.62693 0.0459 0.53192 0.0
C3502 C 0.64297 0.03773 0.50557 0.0
C3503 C 0.63041 0.02484 0.50184 0.0
C3504 C 0.61698 0.02147 0.51397 0.0
C3505 C 0.61514 0.03207 0.52883 0.0
C3506 C 0.62981 0.0167 0.48426 0.0
C3507 C 0.63338 -0.00126 0.48255 0.0
C3508 C 0.62569 0.02678 0.46919 0.0
C3509 C 0.62152 0.0458 0.47034 0.0
C3510 C 0.60787 0.05184 0.48121 0.0
C3511 C 0.60456 0.0698 0.48281 0.0
C3512 C 0.61445 0.08186 0.4732 0.0
C3513 C 0.62776 0.07598 0.46205 0.0
C3514 C 0.63132 0.05803 0.46061 0.0
C3515 C 0.60791 0.97229 0.41607 0.0
C3516 C 0.62056 0.97312 0.40266 0.0
C3517 C 0.61033 0.98156 0.43166 0.0
C3518 C 0.62522 0.99209 0.43396 0.0
C3519 C 0.6373 0.99389 0.42021 0.0
C3520 C 0.63512 0.98427 0.40473 0.0
C3521 C 0.62835 0.00054 0.45108 0.0
C3522 C 0.62511 0.01856 0.45274 0.0
C3523 C 0.63291 0.99055 0.46605 0.0
C3524 C 0.63753 0.97165 0.46472 0.0
C3525 C 0.65118 0.96613 0.4536 0.0
C3526 C 0.65556 0.94835 0.4524 0.0
C3527 C 0.64646 0.93595 0.46237 0.0
C3528 C 0.63302 0.94133 0.47362 0.0
C3529 C 0.62857 0.9591 0.47483 0.0
H3530 H 0.64986 0.9222 0.46144 0.0
H3531 H 0.61177 0.09576 0.47436 0.0
H3532 H 0.23861 0.14118 0.84548 0.0
H3533 H 0.25531 0.13839 0.81825 0.0
H3534 H 0.22976 0.08903 0.80751 0.0
H3535 H 0.21355 0.09136 0.83492 0.0
H3536 H 0.26251 0.08845 0.79566 0.0
H3537 H 0.21305 0.1291 0.79109 0.0
H3538 H 0.19593 0.1553 0.79945 0.0
H3539 H 0.2408 0.18801 0.7902 0.0
H3540 H 0.25821 0.16204 0.78179 0.0
H3541 H 0.27954 0.08887 0.70411 0.0
H3542 H 0.26182 0.08921 0.7311 0.0
H3543 H 0.28523 0.13868 0.74573 0.0
H3544 H 0.30249 0.13853 0.71892 0.0
H3545 H 0.25221 0.13829 0.75503 0.0
H3546 H 0.30188 0.09952 0.7598 0.0
H3547 H 0.32048 0.07438 0.7515 0.0
H3548 H 0.27768 0.03911 0.76141 0.0
H3549 H 0.25871 0.0641 0.76944 0.0
C3550 C 0.2369 0.1295 0.83756 0.0
C3551 C 0.22449 0.11667 0.8422 0.0
C3552 C 0.24634 0.12799 0.82193 0.0
C3553 C 0.24328 0.11381 0.81057 0.0
C3554 C 0.23215 0.1002 0.81597 0.0
C3555 C 0.22289 0.10157 0.83169 0.0
C3556 C 0.25041 0.1138 0.79248 0.0
C3557 C 0.26009 0.09924 0.7867 0.0
C3558 C 0.24746 0.12802 0.78088 0.0
C3559 C 0.23695 0.14362 0.78592 0.0
C3560 C 0.21928 0.14187 0.79091 0.0
C3561 C 0.20952 0.15667 0.79564 0.0
C3562 C 0.21727 0.17328 0.7954 0.0
C3563 C 0.2348 0.17514 0.79038 0.0
C3564 C 0.24461 0.1604 0.78559 0.0
C3565 C 0.28042 0.10003 0.71286 0.0
C3566 C 0.29245 0.11358 0.7096 0.0
C3567 C 0.27048 0.10014 0.72833 0.0
C3568 C 0.27252 0.1138 0.74058 0.0
C3569 C 0.28351 0.12796 0.73654 0.0
C3570 C 0.29339 0.12784 0.72123 0.0
C3571 C 0.26441 0.11299 0.75821 0.0
C3572 C 0.25451 0.12741 0.76393 0.0
C3573 C 0.2674 0.09877 0.7698 0.0
C3574 C 0.2788 0.08371 0.76501 0.0
C3575 C 0.29638 0.08642 0.76006 0.0
C3576 C 0.307 0.07219 0.75542 0.0
C3577 C 0.30025 0.05516 0.75589 0.0
C3578 C 0.28288 0.05232 0.76101 0.0
C3579 C 0.27218 0.06651 0.7656 0.0
H3580 H 0.3085 0.04415 0.75233 0.0
H3581 H 0.20968 0.18471 0.79907 0.0
H3582 H 0.34804 0.42754 0.5185 0.0
H3583 H 0.34355 0.44621 0.49302 0.0
H3584 H 0.38566 0.47991 0.51006 0.0
H3585 H 0.39074 0.46077 0.53557 0.0
H3586 H 0.34809 0.49479 0.49478 0.0
H3587 H 0.40009 0.45788 0.4849 0.0
H3588 H 0.4149 0.42911 0.48495 0.0
H3589 H 0.37678 0.40914 0.4486 0.0
H3590 H 0.36144 0.43769 0.44872 0.0
H3591 H 0.3923 0.53276 0.42022 0.0
H3592 H 0.38672 0.5145 0.44592 0.0
H3593 H 0.33896 0.49545 0.42229 0.0
H3594 H 0.344 0.51459 0.3967 0.0
H3595 H 0.3744 0.47158 0.43991 0.0
H3596 H 0.32352 0.50803 0.44717 0.0
H3597 H 0.30621 0.53528 0.44835 0.0
H3598 H 0.33893 0.55455 0.48997 0.0
H3599 H 0.35689 0.52766 0.48855 0.0
C3600 C 0.35611 0.43913 0.51714 0.0
C3601 C 0.36978 0.44271 0.52905 0.0
C3602 C 0.35353 0.44972 0.50251 0.0
C3603 C 0.36433 0.46427 0.49973 0.0
C3604 C 0.37724 0.46864 0.51212 0.0
C3605 C 0.38013 0.45775 0.52661 0.0
C3606 C 0.36303 0.47392 0.48309 0.0
C3607 C 0.35392 0.48986 0.48277 0.0
C3608 C 0.37001 0.46691 0.46741 0.0
C3609 C 0.37942 0.44984 0.46708 0.0
C3610 C 0.39471 0.44729 0.47712 0.0
C3611 C 0.40323 0.43104 0.47708 0.0
C3612 C 0.39672 0.41728 0.46687 0.0
C3613 C 0.38175 0.41979 0.45658 0.0
C3614 C 0.37312 0.436 0.45664 0.0
C3615 C 0.38062 0.52464 0.42045 0.0
C3616 C 0.36861 0.52496 0.40648 0.0
C3617 C 0.37739 0.51437 0.43518 0.0
C3618 C 0.36228 0.50398 0.43608 0.0
C3619 C 0.35047 0.50377 0.42195 0.0
C3620 C 0.35343 0.51453 0.40735 0.0
C3621 C 0.35978 0.49277 0.4516 0.0
C3622 C 0.36831 0.47647 0.45181 0.0
C3623 C 0.35203 0.49936 0.46712 0.0
C3624 C 0.34187 0.51598 0.46741 0.0
C3625 C 0.32736 0.51826 0.45622 0.0
C3626 C 0.31734 0.53361 0.45703 0.0
C3627 C 0.32151 0.54667 0.46918 0.0
C3628 C 0.33572 0.54442 0.48055 0.0
C3629 C 0.34588 0.52916 0.47968 0.0
H3630 H 0.3137 0.55852 0.46982 0.0
H3631 H 0.40329 0.40469 0.46692 0.0
H3632 H 0.79252 0.71759 0.5955 0.0
H3633 H 0.76507 0.73455 0.59403 0.0
H3634 H 0.74276 0.70193 0.63455 0.0
H3635 H 0.76984 0.68511 0.63607 0.0
H3636 H 0.72217 0.7029 0.60568 0.0
H3637 H 0.75205 0.74286 0.64347 0.0
H3638 H 0.7757 0.76264 0.65322 0.0
H3639 H 0.76712 0.7955 0.60826 0.0
H3640 H 0.74355 0.77574 0.59809 0.0
H3641 H 0.64739 0.75099 0.63554 0.0
H3642 H 0.67462 0.73461 0.63114 0.0
H3643 H 0.687 0.76693 0.58639 0.0
H3644 H 0.65969 0.78323 0.59051 0.0
H3645 H 0.71284 0.76675 0.6139 0.0
H3646 H 0.67972 0.72616 0.57865 0.0
H3647 H 0.65505 0.70625 0.5722 0.0
H3648 H 0.66893 0.67427 0.61647 0.0
H3649 H 0.69356 0.69413 0.62332 0.0
C3650 C 0.78189 0.71438 0.60436 0.0
C3651 C 0.78318 0.69993 0.61572 0.0
C3652 C 0.76622 0.72399 0.60347 0.0
C3653 C 0.75184 0.71929 0.61402 0.0
C3654 C 0.75361 0.70559 0.62612 0.0
C3655 C 0.76912 0.69604 0.62699 0.0
C3656 C 0.73447 0.72765 0.61175 0.0
C3657 C 0.72011 0.71686 0.60756 0.0
C3658 C 0.73188 0.74587 0.61395 0.0
C3659 C 0.74622 0.75766 0.61986 0.0
C3660 C 0.75535 0.75418 0.63553 0.0
C3661 C 0.76871 0.76542 0.64117 0.0
C3662 C 0.77297 0.78028 0.63132 0.0
C3663 C 0.76384 0.78395 0.61584 0.0
C3664 C 0.75048 0.77273 0.61013 0.0
C3665 C 0.65563 0.75425 0.62444 0.0
C3666 C 0.65146 0.76848 0.61346 0.0
C3667 C 0.67119 0.74491 0.62196 0.0
C3668 C 0.68284 0.74972 0.60855 0.0
C3669 C 0.67816 0.76311 0.59685 0.0
C3670 C 0.66248 0.7723 0.59916 0.0
C3671 C 0.70059 0.74196 0.60795 0.0
C3672 C 0.71499 0.75285 0.61169 0.0
C3673 C 0.70317 0.72376 0.60572 0.0
C3674 C 0.68842 0.71172 0.60157 0.0
C3675 C 0.67744 0.71496 0.58709 0.0
C3676 C 0.66347 0.70366 0.58335 0.0
C3677 C 0.6604 0.68902 0.59394 0.0
C3678 C 0.67132 0.68562 0.60828 0.0
C3679 C 0.6853 0.69688 0.61208 0.0
H3680 H 0.64958 0.6803 0.59102 0.0
H3681 H 0.7833 0.78898 0.63572 0.0
H3682 H 0.63865 0.24519 0.87432 0.0
H3683 H 0.66562 0.2624 0.87783 0.0
H3684 H 0.69377 0.21515 0.89163 0.0
H3685 H 0.66667 0.19847 0.88982 0.0
H3686 H 0.7082 0.2391 0.90769 0.0
H3687 H 0.68908 0.23445 0.8469 0.0
H3688 H 0.66883 0.23887 0.82199 0.0
H3689 H 0.67099 0.29462 0.82973 0.0
H3690 H 0.69103 0.29054 0.85482 0.0
H3691 H 0.79321 0.27011 0.8787 0.0
H3692 H 0.76593 0.25286 0.88056 0.0
H3693 H 0.73559 0.30062 0.87894 0.0
H3694 H 0.76222 0.3177 0.87705 0.0
H3695 H 0.72319 0.27601 0.85625 0.0
H3696 H 0.74191 0.28017 0.91711 0.0
H3697 H 0.76315 0.27575 0.94115 0.0
H3698 H 0.76288 0.22024 0.93157 0.0
H3699 H 0.74178 0.22436 0.90733 0.0
C3700 C 0.65053 0.2387 0.87867 0.0
C3701 C 0.65068 0.22057 0.88179 0.0
C3702 C 0.66598 0.24844 0.88042 0.0
C3703 C 0.68194 0.23997 0.88429 0.0
C3704 C 0.68174 0.22204 0.88851 0.0
C3705 C 0.6662 0.21249 0.88751 0.0
C3706 C 0.69902 0.24926 0.88286 0.0
C3707 C 0.71149 0.24699 0.8963 0.0
C3708 C 0.70339 0.25975 0.86809 0.0
C3709 C 0.69142 0.26216 0.85288 0.0
C3710 C 0.68516 0.24764 0.84335 0.0
C3711 C 0.67372 0.25009 0.82919 0.0
C3712 C 0.66858 0.26701 0.82431 0.0
C3713 C 0.67494 0.28152 0.83354 0.0
C3714 C 0.68633 0.27915 0.84773 0.0
C3715 C 0.7807 0.27686 0.87877 0.0
C3716 C 0.77992 0.29525 0.87772 0.0
C3717 C 0.76518 0.26704 0.87985 0.0
C3718 C 0.7488 0.27554 0.87986 0.0
C3719 C 0.74809 0.29382 0.87884 0.0
C3720 C 0.76342 0.30356 0.87783 0.0
C3721 C 0.73215 0.26571 0.88098 0.0
C3722 C 0.71982 0.26795 0.8675 0.0
C3723 C 0.72798 0.25509 0.89555 0.0
C3724 C 0.74039 0.25259 0.91032 0.0
C3725 C 0.74645 0.26703 0.92008 0.0
C3726 C 0.75845 0.26458 0.93374 0.0
C3727 C 0.76439 0.24773 0.93786 0.0
C3728 C 0.75828 0.23328 0.92836 0.0
C3729 C 0.74629 0.23567 0.91467 0.0
H3730 H 0.7737 0.24586 0.94843 0.0
H3731 H 0.65972 0.26887 0.81336 0.0
H3732 H 0.56793 0.97331 0.35261 0.0
H3733 H 0.55093 0.00023 0.34903 0.0
H3734 H 0.5125 0.98102 0.38578 0.0
H3735 H 0.52996 0.95414 0.39007 0.0
H3736 H 0.50535 0.00039 0.34463 0.0
H3737 H 0.52839 0.00343 0.40592 0.0
H3738 H 0.55313 0.00157 0.42671 0.0
H3739 H 0.58093 0.04093 0.39755 0.0
H3740 H 0.55653 0.04264 0.37629 0.0
H3741 H 0.45002 0.07032 0.36516 0.0
H3742 H 0.46804 0.04408 0.36272 0.0
H3743 H 0.51484 0.07601 0.36394 0.0
H3744 H 0.49657 0.10235 0.36794 0.0
H3745 H 0.52043 0.05063 0.38318 0.0
H3746 H 0.49801 0.05272 0.32538 0.0
H3747 H 0.47671 0.05493 0.30113 0.0
H3748 H 0.45147 0.00769 0.31853 0.0
H3749 H 0.47236 0.00536 0.3431 0.0
C3750 C 0.55567 0.97463 0.35967 0.0
C3751 C 0.55012 0.96161 0.37152 0.0
C3752 C 0.54608 0.99006 0.35769 0.0
C3753 C 0.53064 0.99256 0.36725 0.0
C3754 C 0.52452 0.97925 0.37842 0.0
C3755 C 0.5344 0.96396 0.38081 0.0
C3756 C 0.52133 0.00944 0.366 0.0
C3757 C 0.50833 0.01138 0.35317 0.0
C3758 C 0.52619 0.02392 0.37647 0.0
C3759 C 0.54079 0.02289 0.38932 0.0
C3760 C 0.5399 0.01145 0.40376 0.0
C3761 C 0.55384 0.01048 0.41567 0.0
C3762 C 0.56864 0.02105 0.4134 0.0
C3763 C 0.5695 0.03268 0.39925 0.0
C3764 C 0.55563 0.03363 0.38725 0.0
C3765 C 0.46417 0.0717 0.36466 0.0
C3766 C 0.47201 0.08822 0.36657 0.0
C3767 C 0.47446 0.05672 0.36307 0.0
C3768 C 0.49283 0.05797 0.36262 0.0
C3769 C 0.5007 0.07465 0.36416 0.0
C3770 C 0.49033 0.08968 0.36637 0.0
C3771 C 0.50362 0.0417 0.36215 0.0
C3772 C 0.51719 0.03982 0.37452 0.0
C3773 C 0.49956 0.02742 0.35086 0.0
C3774 C 0.48673 0.02894 0.33621 0.0
C3775 C 0.48782 0.04289 0.32416 0.0
C3776 C 0.47583 0.04415 0.31032 0.0
C3777 C 0.46275 0.03146 0.30829 0.0
C3778 C 0.46163 0.01749 0.32009 0.0
C3779 C 0.47355 0.0162 0.33398 0.0
H3780 H 0.45348 0.03246 0.29757 0.0
H3781 H 0.57941 0.0203 0.42265 0.0
H3782 H 0.23179 0.17611 0.88645 0.0
H3783 H 0.25768 0.19412 0.88775 0.0
H3784 H 0.22675 0.24007 0.87585 0.0
H3785 H 0.20037 0.22159 0.87338 0.0
H3786 H 0.25501 0.23951 0.85652 0.0
H3787 H 0.24528 0.23164 0.91828 0.0
H3788 H 0.23891 0.21441 0.94492 0.0
H3789 H 0.2862 0.18474 0.93744 0.0
H3790 H 0.29277 0.20164 0.91065 0.0
H3791 H 0.32405 0.29704 0.88312 0.0
H3792 H 0.29751 0.27934 0.88615 0.0
H3793 H 0.32599 0.23345 0.86929 0.0
H3794 H 0.35267 0.25145 0.8654 0.0
H3795 H 0.29907 0.23511 0.90434 0.0
H3796 H 0.30661 0.24011 0.84113 0.0
H3797 H 0.31315 0.25674 0.81417 0.0
H3798 H 0.26981 0.2912 0.82458 0.0
H3799 H 0.26327 0.27498 0.85186 0.0
C3800 C 0.23027 0.19008 0.88432 0.0
C3801 C 0.21394 0.19743 0.8798 0.0
C3802 C 0.24519 0.20042 0.88524 0.0
C3803 C 0.24415 0.21852 0.88232 0.0
C3804 C 0.2278 0.2261 0.87827 0.0
C3805 C 0.21276 0.21559 0.87693 0.0
C3806 C 0.2605 0.229 0.88223 0.0
C3807 C 0.26446 0.23878 0.86714 0.0
C3808 C 0.2731 0.22765 0.89589 0.0
C3809 C 0.26949 0.2179 0.9124 0.0
C3810 C 0.25432 0.22143 0.9223 0.0
C3811 C 0.25067 0.21171 0.93742 0.0
C3812 C 0.26214 0.19848 0.94286 0.0
C3813 C 0.27734 0.195 0.93323 0.0
C3814 C 0.28105 0.20468 0.9181 0.0
C3815 C 0.32471 0.28311 0.88028 0.0
C3816 C 0.34029 0.27547 0.87413 0.0
C3817 C 0.30958 0.27309 0.88198 0.0
C3818 C 0.30992 0.25521 0.87793 0.0
C3819 C 0.32562 0.2473 0.87244 0.0
C3820 C 0.34074 0.2575 0.8702 0.0
C3821 C 0.29343 0.24524 0.87862 0.0
C3822 C 0.28947 0.23578 0.89384 0.0
C3823 C 0.28085 0.24681 0.86512 0.0
C3824 C 0.28465 0.25652 0.84868 0.0
C3825 C 0.29864 0.25139 0.83781 0.0
C3826 C 0.30231 0.2607 0.82244 0.0
C3827 C 0.29195 0.27506 0.8177 0.0
C3828 C 0.27786 0.2801 0.8283 0.0
C3829 C 0.27417 0.27086 0.84372 0.0
H3830 H 0.2948 0.28225 0.80579 0.0
H3831 H 0.25925 0.19093 0.95453 0.0
H3832 H 0.04911 0.91913 0.86062 0.0
H3833 H 0.03145 0.94582 0.85777 0.0
H3834 H 0.98414 0.91513 0.86248 0.0
H3835 H 0.0019 0.88843 0.86673 0.0
H3836 H 0.99237 0.94746 0.8323 0.0
H3837 H 0.98691 0.92782 0.89279 0.0
H3838 H -0.0007 0.91749 0.9207 0.0
H3839 H 0.02544 0.96679 0.92764 0.0
H3840 H 0.01508 0.97664 0.89861 0.0
H3841 H 0.92837 0.01208 0.84778 0.0
H3842 H 0.94688 0.9865 0.8451 0.0
H3843 H 0.98842 0.01333 0.87275 0.0
H3844 H 0.96939 0.03905 0.87632 0.0
H3845 H 0.98367 0.98263 0.88638 0.0
H3846 H 0.98981 0.00279 0.82715 0.0
H3847 H 0.97979 0.01325 0.79821 0.0
H3848 H 0.95182 0.96505 0.79007 0.0
H3849 H 0.96138 0.95441 0.81909 0.0
C3850 C 0.03493 0.91807 0.86079 0.0
C3851 C 0.02675 0.90187 0.86384 0.0
C3852 C 0.02491 0.93328 0.85924 0.0
C3853 C 0.0066 0.93235 0.86021 0.0
C3854 C -0.00168 0.916 0.86193 0.0
C3855 C 0.00839 0.90083 0.86426 0.0
C3856 C 0.99633 0.94869 0.8602 0.0
C3857 C 0.9902 0.9551 0.84411 0.0
C3858 C 0.99419 0.95877 0.87564 0.0
C3859 C 0.00071 0.95271 0.89306 0.0
C3860 C 0.99595 0.93619 0.89979 0.0
C3861 C 0.00261 0.93043 0.91588 0.0
C3862 C 0.0133 0.94143 0.92588 0.0
C3863 C 0.01749 0.95816 0.9197 0.0
C3864 C 0.01141 0.96374 0.9033 0.0
C3865 C 0.94152 0.01275 0.85313 0.0
C3866 C 0.94733 0.02759 0.86248 0.0
C3867 C 0.95218 -0.00193 0.85142 0.0
C3868 C 0.96912 -0.00201 0.85857 0.0
C3869 C 0.97536 0.01311 0.86715 0.0
C3870 C 0.96453 0.02781 0.86911 0.0
C3871 C 0.97956 0.98157 0.8584 0.0
C3872 C 0.98582 0.9751 0.87449 0.0
C3873 C 0.98191 0.97149 0.84294 0.0
C3874 C 0.97624 0.97785 0.82539 0.0
C3875 C 0.98142 0.99446 0.81925 0.0
C3876 C 0.97583 0.00042 0.80281 0.0
C3877 C 0.96518 0.98983 0.79231 0.0
C3878 C 0.96012 0.97323 0.7982 0.0
C3879 C 0.96561 0.96723 0.81465 0.0
H3880 H 0.96083 0.99448 0.77962 0.0
H3881 H 0.0182 0.93707 0.93848 0.0
H3882 H 0.82373 0.19816 0.10932 0.0
H3883 H 0.79671 0.21481 0.10698 0.0
H3884 H 0.82529 0.2627 0.11737 0.0
H3885 H 0.85226 0.24548 0.12152 0.0
H3886 H 0.79843 0.26412 0.13498 0.0
H3887 H 0.80539 0.24992 0.07437 0.0
H3888 H 0.81055 0.23129 0.04842 0.0
H3889 H 0.76473 0.2009 0.06073 0.0
H3890 H 0.75939 0.21923 0.08684 0.0
H3891 H 0.72816 0.31836 0.11071 0.0
H3892 H 0.75506 0.30155 0.10984 0.0
H3893 H 0.72577 0.25369 0.11708 0.0
H3894 H 0.69825 0.27061 0.118 0.0
H3895 H 0.75248 0.25288 0.09022 0.0
H3896 H 0.74641 0.27011 0.15126 0.0
H3897 H 0.74171 0.29168 0.17492 0.0
H3898 H 0.78735 0.32026 0.15839 0.0
H3899 H 0.79222 0.29896 0.13451 0.0
C3900 C 0.82428 0.21231 0.11071 0.0
C3901 C 0.84001 0.22066 0.11531 0.0
C3902 C 0.80882 0.22187 0.10924 0.0
C3903 C 0.80888 0.24016 0.11151 0.0
C3904 C 0.82484 0.24862 0.1155 0.0
C3905 C 0.84026 0.23888 0.11772 0.0
C3906 C 0.79206 0.25005 0.11121 0.0
C3907 C 0.78858 0.26186 0.12495 0.0
C3908 C 0.7789 0.24693 0.09838 0.0
C3909 C 0.78207 0.23589 0.08264 0.0
C3910 C 0.79647 0.2392 0.0716 0.0
C3911 C 0.79942 0.2287 0.05685 0.0
C3912 C 0.78799 0.2149 0.05295 0.0
C3913 C 0.77357 0.2116 0.06376 0.0
C3914 C 0.77056 0.22206 0.07852 0.0
C3915 C 0.72724 0.30424 0.11203 0.0
C3916 C 0.71098 0.29582 0.11454 0.0
C3917 C 0.74273 0.29468 0.11161 0.0
C3918 C 0.74239 0.27648 0.11372 0.0
C3919 C 0.72621 0.26781 0.11559 0.0
C3920 C 0.71055 0.27745 0.11608 0.0
C3921 C 0.7591 0.26673 0.11387 0.0
C3922 C 0.76248 0.25504 0.10013 0.0
C3923 C 0.77235 0.27037 0.12637 0.0
C3924 C 0.7696 0.28299 0.14099 0.0
C3925 C 0.75539 0.28104 0.1526 0.0
C3926 C 0.75271 0.29322 0.16607 0.0
C3927 C 0.7642 0.30736 0.16813 0.0
C3928 C 0.77845 0.3093 0.15678 0.0
C3929 C 0.7812 0.29716 0.1433 0.0
H3930 H 0.76207 0.31679 0.17853 0.0
H3931 H 0.7903 0.20679 0.04153 0.0
H3932 H 0.47339 0.90318 0.15439 0.0
H3933 H 0.49158 0.9293 0.15892 0.0
H3934 H 0.49406 0.93722 0.10289 0.0
H3935 H 0.47682 0.91088 0.09827 0.0
H3936 H 0.52328 0.94663 0.11587 0.0
H3937 H 0.46245 0.95835 0.13128 0.0
H3938 H 0.43502 0.95402 0.14793 0.0
H3939 H 0.46243 0.96401 0.19615 0.0
H3940 H 0.49004 0.96829 0.17977 0.0
H3941 H 0.53908 0.03599 0.10669 0.0
H3942 H 0.52286 0.00831 0.10692 0.0
H3943 H 0.52693 0.00646 0.16339 0.0
H3944 H 0.54243 0.03464 0.16318 0.0
H3945 H 0.49684 0.99292 0.1532 0.0
H3946 H 0.55723 0.98587 0.13517 0.0
H3947 H 0.5833 0.99144 0.1168 0.0
H3948 H 0.55547 0.97331 0.0713 0.0
H3949 H 0.52914 0.96794 0.0893 0.0
C3950 C 0.47813 0.91031 0.14305 0.0
C3951 C 0.47344 0.90507 0.12599 0.0
C3952 C 0.48841 0.92531 0.14565 0.0
C3953 C 0.49377 0.93555 0.13126 0.0
C3954 C 0.49003 0.92966 0.11423 0.0
C3955 C 0.48009 0.91455 0.11161 0.0
C3956 C 0.50226 0.95294 0.13367 0.0
C3957 C 0.51744 0.95678 0.12396 0.0
C3958 C 0.49488 0.96613 0.1445 0.0
C3959 C 0.47832 0.96345 0.15433 0.0
C3960 C 0.46263 0.95951 0.14544 0.0
C3961 C 0.44706 0.95709 0.15482 0.0
C3962 C 0.447 0.95868 0.17309 0.0
C3963 C 0.4625 0.96274 0.18201 0.0
C3964 C 0.47811 0.96519 0.17269 0.0
C3965 C 0.53588 0.02997 0.11917 0.0
C3966 C 0.54187 0.03739 0.13492 0.0
C3967 C 0.52689 0.01404 0.11929 0.0
C3968 C 0.52429 0.005 0.13512 0.0
C3969 C 0.52899 0.01312 0.151 0.0
C3970 C 0.53767 0.02929 0.15091 0.0
C3971 C 0.51754 0.98674 0.13501 0.0
C3972 C 0.50278 0.98273 0.14524 0.0
C3973 C 0.52518 0.97348 0.12441 0.0
C3974 C 0.54114 0.9766 0.11361 0.0
C3975 C 0.55662 0.98317 0.12124 0.0
C3976 C 0.57145 0.98629 0.11088 0.0
C3977 C 0.57103 0.98274 0.0929 0.0
C3978 C 0.55578 0.97606 0.08523 0.0
C3979 C 0.5409 0.97297 0.09551 0.0
H3980 H 0.58252 0.98513 0.08491 0.0
H3981 H 0.43493 0.95682 0.18033 0.0
H3982 H 0.42833 0.47655 0.14159 0.0
H3983 H 0.44718 0.50215 0.14461 0.0
H3984 H 0.48551 0.47825 0.11058 0.0
H3985 H 0.4662 0.45256 0.10684 0.0
H3986 H 0.49241 0.49959 0.15094 0.0
H3987 H 0.47291 0.50102 0.08873 0.0
H3988 H 0.44946 0.49878 0.06652 0.0
H3989 H 0.42076 0.53984 0.09225 0.0
H3990 H 0.44383 0.54198 0.11489 0.0
H3991 H 0.54602 0.57362 0.13622 0.0
H3992 H 0.53007 0.5461 0.13754 0.0
H3993 H 0.48118 0.57411 0.13084 0.0
H3994 H 0.49759 0.60156 0.12742 0.0
H3995 H 0.47966 0.54935 0.11096 0.0
H3996 H 0.49625 0.55071 0.17146 0.0
H3997 H 0.51604 0.5536 0.19692 0.0
H3998 H 0.54595 0.50932 0.17912 0.0
H3999 H 0.52646 0.50627 0.15345 0.0
C4000 C 0.44092 0.47652 0.135 0.0
C4001 C 0.44588 0.46254 0.12401 0.0
C4002 C 0.4516 0.4912 0.13669 0.0
C4003 C 0.46756 0.49203 0.12772 0.0
C4004 C 0.4731 0.47776 0.11749 0.0
C4005 C 0.46214 0.46316 0.11539 0.0
C4006 C 0.47779 0.50836 0.12848 0.0
C4007 C 0.48998 0.51045 0.14205 0.0
C4008 C 0.47373 0.52264 0.11743 0.0
C4009 C 0.45996 0.52143 0.10368 0.0
C4010 C 0.46147 0.50937 0.08982 0.0
C4011 C 0.44827 0.50816 0.07711 0.0
C4012 C 0.43359 0.5191 0.07802 0.0
C4013 C 0.43211 0.53132 0.0916 0.0
C4014 C 0.44523 0.53252 0.10438 0.0
C4015 C 0.53183 0.57392 0.13546 0.0
C4016 C 0.52296 0.58963 0.13184 0.0
C4017 C 0.52265 0.55815 0.13634 0.0
C4018 C 0.50429 0.55788 0.13457 0.0
C4019 C 0.49533 0.57386 0.13214 0.0
C4020 C 0.50463 0.58957 0.13041 0.0
C4021 C 0.49472 0.54089 0.1335 0.0
C4022 C 0.48241 0.53863 0.11991 0.0
C4023 C 0.4983 0.52662 0.14494 0.0
C4024 C 0.50996 0.52835 0.16046 0.0
C4025 C 0.5071 0.54165 0.17292 0.0
C4026 C 0.51826 0.5433 0.1874 0.0
C4027 C 0.53226 0.53168 0.18961 0.0
C4028 C 0.5351 0.51832 0.17739 0.0
C4029 C 0.52399 0.5166 0.16289 0.0
H4030 H 0.54089 0.53299 0.20082 0.0
H4031 H 0.42342 0.51818 0.06815 0.0
H4032 H 0.10463 0.04138 0.31111 0.0
H4033 H 0.10125 0.01613 0.29134 0.0
H4034 H 0.13997 0.03847 0.25651 0.0
H4035 H 0.14178 0.06418 0.27494 0.0
H4036 H 0.11513 0.02825 0.23803 0.0
H4037 H 0.14719 0.00143 0.28616 0.0
H4038 H 0.15183 0.99282 0.31702 0.0
H4039 H 0.10383 0.96331 0.31628 0.0
H4040 H 0.09882 0.9719 0.28545 0.0
H4041 H 0.14351 0.95534 0.18742 0.0
H4042 H 0.14043 0.98029 0.20752 0.0
H4043 H 0.09649 0.95473 0.23251 0.0
H4044 H 0.10005 0.92957 0.21297 0.0
H4045 H 0.11964 0.96597 0.2562 0.0
H4046 H 0.09088 0.99087 0.20547 0.0
H4047 H 0.08888 -0.001 0.1742 0.0
H4048 H 0.13416 0.03208 0.17962 0.0
H4049 H 0.13657 0.02399 0.21086 0.0
C4050 C 0.11245 0.04072 0.29926 0.0
C4051 C 0.12374 0.05456 0.29476 0.0
C4052 C 0.11062 0.02628 0.28804 0.0
C4053 C 0.12051 0.02527 0.27247 0.0
C4054 C 0.13216 0.03889 0.26838 0.0
C4055 C 0.13351 0.05347 0.27919 0.0
C4056 C 0.11849 0.01055 0.2599 0.0
C4057 C 0.11629 0.01464 0.24204 0.0
C4058 C 0.11945 0.99275 0.2651 0.0
C4059 C 0.12254 0.98746 0.28357 0.0
C4060 C 0.13758 0.99319 0.29261 0.0
C4061 C 0.14028 0.9883 0.31009 0.0
C4062 C 0.12811 0.97757 0.31862 0.0
C4063 C 0.11324 0.97165 0.30966 0.0
C4064 C 0.11047 0.97651 0.29219 0.0
C4065 C 0.13306 0.95526 0.19705 0.0
C4066 C 0.12194 0.94071 0.19864 0.0
C4067 C 0.13126 0.96948 0.20847 0.0
C4068 C 0.11813 0.96939 0.22142 0.0
C4069 C 0.10667 0.95506 0.2226 0.0
C4070 C 0.10858 0.94081 0.21131 0.0
C4071 C 0.11697 0.98378 0.23438 0.0
C4072 C 0.11839 0.9796 0.25228 0.0
C4073 C 0.11568 0.00152 0.2292 0.0
C4074 C 0.11394 0.00675 0.2105 0.0
C4075 C 0.10044 -0.00017 0.19998 0.0
C4076 C 0.09924 0.00443 0.18226 0.0
C4077 C 0.1114 0.01603 0.17493 0.0
C4078 C 0.12475 0.02311 0.18532 0.0
C4079 C 0.12601 0.01854 0.20304 0.0
H4080 H 0.11047 0.01955 0.1612 0.0
H4081 H 0.13021 0.97382 0.33215 0.0
H4082 H 0.32011 0.62825 0.9726 0.0
H4083 H 0.295 0.63192 0.99231 0.0
H4084 H 0.26052 0.61163 0.95221 0.0
H4085 H 0.28586 0.60774 0.93245 0.0
H4086 H 0.24818 0.64272 0.97117 0.0
H4087 H 0.2715 0.58506 0.98083 0.0
H4088 H 0.29469 0.56335 0.98692 0.0
H4089 H 0.30468 0.58753 0.03681 0.0
H4090 H 0.28183 0.60968 0.03083 0.0
H4091 H 0.17462 0.61846 0.02043 0.0
H4092 H 0.19996 0.62077 0.0012 0.0
H4093 H 0.23326 0.63037 0.04607 0.0
H4094 H 0.20767 0.62714 0.0656 0.0
H4095 H 0.24717 0.6064 0.02523 0.0
H4096 H 0.22233 0.66338 0.016 0.0
H4097 H 0.19885 0.68469 0.00954 0.0
H4098 H 0.19126 0.66149 0.95878 0.0
H4099 H 0.21451 0.63987 0.96501 0.0
C4100 C 0.3071 0.62477 0.96801 0.0
C4101 C 0.30467 0.6177 0.95122 0.0
C4102 C 0.29287 0.62683 0.97921 0.0
C4103 C 0.27605 0.6219 0.97368 0.0
C4104 C 0.27348 0.61547 0.9566 0.0
C4105 C 0.28783 0.61324 0.94541 0.0
C4106 C 0.26137 0.62276 0.98614 0.0
C4107 C 0.24778 0.63469 0.98292 0.0
C4108 C 0.26131 0.61255 0.00163 0.0
C4109 C 0.27508 0.5992 0.00527 0.0
C4110 C 0.27878 0.5859 0.99301 0.0
C4111 C 0.29185 0.57348 0.99646 0.0
C4112 C 0.30119 0.57408 0.01222 0.0
C4113 C 0.29746 0.5871 0.02458 0.0
C4114 C 0.28446 0.5996 0.02116 0.0
C4115 C 0.18736 0.6211 0.02617 0.0
C4116 C 0.18939 0.62243 0.04441 0.0
C4117 C 0.20178 0.62263 0.01517 0.0
C4118 C 0.21845 0.62602 0.02217 0.0
C4119 C 0.22046 0.62783 0.04043 0.0
C4120 C 0.20594 0.62605 0.05153 0.0
C4121 C 0.2338 0.62642 0.01035 0.0
C4122 C 0.24758 0.61464 0.01363 0.0
C4123 C 0.234 0.63677 0.9949 0.0
C4124 C 0.22013 0.64993 0.99103 0.0
C4125 C 0.2156 0.66275 0.00349 0.0
C4126 C 0.20233 0.6749 -0.00013 0.0
C4127 C 0.19356 0.67443 0.98377 0.0
C4128 C 0.19807 0.66184 0.97124 0.0
C4129 C 0.21131 0.64965 0.9748 0.0
H4130 H 0.18328 0.68383 0.981 0.0
H4131 H 0.31127 0.56444 0.01489 0.0
H4132 H 0.85921 0.53606 0.18014 0.0
H4133 H 0.86157 0.51042 0.19966 0.0
H4134 H 0.88526 0.54298 0.23953 0.0
H4135 H 0.88313 0.56834 0.22004 0.0
H4136 H 0.90064 0.51098 0.23832 0.0
H4137 H 0.84301 0.53572 0.23864 0.0
H4138 H 0.81566 0.5459 0.22483 0.0
H4139 H 0.80362 0.4932 0.20901 0.0
H4140 H 0.83148 0.48282 0.2218 0.0
H4141 H 0.87413 0.45577 0.31258 0.0
H4142 H 0.87762 0.48149 0.29317 0.0
H4143 H 0.86465 0.44936 0.2484 0.0
H4144 H 0.86167 0.42382 0.26749 0.0
H4145 H 0.84434 0.48199 0.25349 0.0
H4146 H 0.90331 0.4582 0.25086 0.0
H4147 H 0.93155 0.44848 0.26331 0.0
H4148 H 0.94007 0.49983 0.28486 0.0
H4149 H 0.91172 0.50978 0.27275 0.0
C4150 C 0.86509 0.53754 0.193 0.0
C4151 C 0.87097 0.55395 0.19875 0.0
C4152 C 0.86648 0.523 0.20407 0.0
C4153 C 0.87349 0.52492 0.22104 0.0
C4154 C 0.87993 0.54124 0.22646 0.0
C4155 C 0.87861 0.55568 0.21541 0.0
C4156 C 0.8727 0.5104 0.23379 0.0
C4157 C 0.88832 0.50473 0.24177 0.0
C4158 C 0.85657 0.50236 0.23825 0.0
C4159 C 0.83951 0.50851 0.23101 0.0
C4160 C 0.83466 0.5263 0.23205 0.0
C4161 C 0.81906 0.53212 0.22438 0.0
C4162 C 0.80786 0.5202 0.21612 0.0
C4163 C 0.81232 0.50243 0.21541 0.0
C4164 C 0.82808 0.49659 0.22277 0.0
C4165 C 0.87208 0.45435 0.29858 0.0
C4166 C 0.8673 0.43808 0.29145 0.0
C4167 C 0.87413 0.4689 0.28758 0.0
C4168 C 0.8713 0.46717 0.26946 0.0
C4169 C 0.86675 0.45087 0.26238 0.0
C4170 C 0.86495 0.43639 0.27327 0.0
C4171 C 0.87226 0.48241 0.25771 0.0
C4172 C 0.85663 0.4883 0.25004 0.0
C4173 C 0.88832 0.4907 0.25365 0.0
C4174 C 0.90526 0.48466 0.26113 0.0
C4175 C 0.91108 0.46736 0.25846 0.0
C4176 C 0.92715 0.46182 0.2654 0.0
C4177 C 0.93757 0.47351 0.27494 0.0
C4178 C 0.93196 0.49077 0.27752 0.0
C4179 C 0.9159 0.49637 0.27061 0.0
H4180 H 0.95001 0.46921 0.28027 0.0
H4181 H 0.79573 0.52472 0.21028 0.0
H4182 H 0.8203 0.8724 0.01821 0.0
H4183 H 0.7951 0.86885 -0.00135 0.0
H4184 H 0.76002 0.87397 0.04283 0.0
H4185 H 0.7855 0.87733 0.06255 0.0
H4186 H 0.7502 0.8475 0.01831 0.0
H4187 H 0.7664 0.90819 0.01931 0.0
H4188 H 0.78709 0.93299 0.01758 0.0
H4189 H 0.79924 0.91951 0.96427 0.0
H4190 H 0.77889 0.89438 0.96579 0.0
H4191 H 0.67403 0.87333 0.97177 0.0
H4192 H 0.69917 0.87002 0.99141 0.0
H4193 H 0.73395 0.86914 0.9467 0.0
H4194 H 0.70857 0.87272 0.92696 0.0
H4195 H 0.74418 0.89241 0.97151 0.0
H4196 H 0.72646 0.8321 0.97045 0.0
H4197 H 0.70595 0.8072 0.9729 0.0
H4198 H 0.69602 0.8203 0.02677 0.0
H4199 H 0.71627 0.84544 0.02459 0.0
C4200 C 0.80718 0.87268 0.02367 0.0
C4201 C 0.80458 0.87538 0.04166 0.0
C4202 C 0.79287 0.87062 0.01258 0.0
C4203 C 0.77579 0.87138 0.01933 0.0
C4204 C 0.77317 0.8734 0.03746 0.0
C4205 C 0.78759 0.87542 0.04863 0.0
C4206 C 0.76081 0.87116 0.00714 0.0
C4207 C 0.74868 0.8574 0.00819 0.0
C4208 C 0.75922 0.88395 0.9938 0.0
C4209 C 0.77123 0.89928 0.99272 0.0
C4210 C 0.77358 0.91042 0.00725 0.0
C4211 C 0.78524 0.92455 0.00631 0.0
C4212 C 0.7945 0.9278 0.99084 0.0
C4213 C 0.79208 0.91696 0.97625 0.0
C4214 C 0.78047 0.90277 0.97715 0.0
C4215 C 0.68708 0.87232 0.96621 0.0
C4216 C 0.68961 0.87343 0.94803 0.0
C4217 C 0.70136 0.87027 0.97737 0.0
C4218 C 0.71836 0.86914 0.97047 0.0
C4219 C 0.72087 0.86991 0.95221 0.0
C4220 C 0.7065 0.87197 0.941 0.0
C4221 C 0.73351 0.86865 0.98251 0.0
C4222 C 0.74569 0.88239 0.98151 0.0
C4223 C 0.73501 0.85591 0.99595 0.0
C4224 C 0.72279 0.84077 -0.0027 0.0
C4225 C 0.71979 0.82978 0.98278 0.0
C4226 C 0.70823 0.81559 0.98413 0.0
C4227 C 0.69966 0.81219 -3e-05 0.0
C4228 C 0.70266 0.82295 0.01451 0.0
C4229 C 0.71419 0.83716 0.01322 0.0
H4230 H 0.69072 0.8012 0.00099 0.0
H4231 H 0.80353 0.93875 0.99013 0.0
H4232 H 0.22397 0.12481 0.92405 0.0
H4233 H 0.24302 0.12228 0.94964 0.0
H4234 H 0.19766 0.11422 0.98264 0.0
H4235 H 0.17842 0.11724 0.95678 0.0
H4236 H 0.21926 0.13888 0.99567 0.0
H4237 H 0.22609 0.08053 0.97382 0.0
H4238 H 0.23166 0.05773 0.95156 0.0
H4239 H 0.28352 0.0781 0.94325 0.0
H4240 H 0.27818 0.10119 0.96527 0.0
H4241 H 0.2702 0.11897 0.07032 0.0
H4242 H 0.25017 0.11625 0.04536 0.0
H4243 H 0.29251 0.12902 0.00998 0.0
H4244 H 0.31269 0.13167 0.03517 0.0
H4245 H 0.27169 0.10038 -0.00098 0.0
H4246 H 0.26435 0.15948 0.01939 0.0
H4247 H 0.25908 0.18245 0.04153 0.0
H4248 H 0.20821 0.16079 0.0523 0.0
H4249 H 0.2133 0.13747 0.03043 0.0
C4250 C 0.21813 0.12237 0.93678 0.0
C4251 C 0.19986 0.12134 0.93867 0.0
C4252 C 0.22898 0.12077 0.95133 0.0
C4253 C 0.22176 0.11785 0.96798 0.0
C4254 C 0.20345 0.11641 0.96984 0.0
C4255 C 0.19252 0.11809 0.95519 0.0
C4256 C 0.23339 0.11765 0.98347 0.0
C4257 C 0.2305 0.1302 0.99661 0.0
C4258 C 0.24836 0.10668 0.98431 0.0
C4259 C 0.25168 0.09268 0.97114 0.0
C4260 C 0.23864 0.08023 0.96717 0.0
C4261 C 0.24177 0.06724 0.9546 0.0
C4262 C 0.25792 0.06648 0.94598 0.0
C4263 C 0.27101 0.0787 0.94994 0.0
C4264 C 0.26795 0.09173 0.96248 0.0
C4265 C 0.27515 0.12116 0.05717 0.0
C4266 C 0.29279 0.12556 0.05443 0.0
C4267 C 0.26377 0.11963 0.043 0.0
C4268 C 0.26988 0.12258 0.02592 0.0
C4269 C 0.28763 0.12672 0.02313 0.0
C4270 C 0.29906 0.12829 0.03739 0.0
C4271 C 0.25752 0.12161 0.01109 0.0
C4272 C 0.26032 0.1089 -0.00189 0.0
C4273 C 0.24248 0.13245 0.01035 0.0
C4274 C 0.23929 0.1466 0.02338 0.0
C4275 C 0.2521 0.15951 0.02658 0.0
C4276 C 0.24914 0.17261 0.03907 0.0
C4277 C 0.23334 0.17305 0.04835 0.0
C4278 C 0.22045 0.16042 0.04512 0.0
C4279 C 0.22337 0.14726 0.03267 0.0
H4280 H 0.23107 0.18321 0.05802 0.0
H4281 H 0.26031 0.05642 0.93625 0.0
H4282 H 0.3604 0.52304 0.31985 0.0
H4283 H 0.35772 0.50372 0.2943 0.0
H4284 H 0.38564 0.54153 0.26274 0.0
H4285 H 0.38855 0.56085 0.28853 0.0
H4286 H 0.35436 0.52577 0.24665 0.0
H4287 H 0.40801 0.51032 0.27592 0.0
H4288 H 0.42637 0.50211 0.30127 0.0
H4289 H 0.39596 0.45523 0.30843 0.0
H4290 H 0.37718 0.46334 0.28331 0.0
H4291 H 0.38264 0.4744 0.17572 0.0
H4292 H 0.3804 0.49354 0.20127 0.0
H4293 H 0.35926 0.45065 0.23163 0.0
H4294 H 0.36184 0.43124 0.20587 0.0
H4295 H 0.38519 0.46843 0.24903 0.0
H4296 H 0.33269 0.48313 0.21806 0.0
H4297 H 0.31477 0.49159 0.19247 0.0
H4298 H 0.34331 0.53996 0.18811 0.0
H4299 H 0.36159 0.53169 0.2135 0.0
C4300 C 0.36576 0.52726 0.30737 0.0
C4301 C 0.37462 0.54331 0.30593 0.0
C4302 C 0.36427 0.51626 0.29287 0.0
C4303 C 0.37156 0.52123 0.27675 0.0
C4304 C 0.37992 0.53757 0.27513 0.0
C4305 C 0.3816 0.54852 0.28975 0.0
C4306 C 0.37112 0.5089 0.26188 0.0
C4307 C 0.36122 0.5133 0.24702 0.0
C4308 C 0.37974 0.49249 0.26274 0.0
C4309 C 0.39103 0.48756 0.27786 0.0
C4310 C 0.4051 0.49836 0.28302 0.0
C4311 C 0.41561 0.4937 0.29732 0.0
C4312 C 0.4123 0.47818 0.30649 0.0
C4313 C 0.39849 0.46727 0.30134 0.0
C4314 C 0.3879 0.47189 0.28707 0.0
C4315 C 0.37762 0.46906 0.1879 0.0
C4316 C 0.37261 0.4514 0.18906 0.0
C4317 C 0.37617 0.48002 0.2024 0.0
C4318 C 0.36947 0.47356 0.21825 0.0
C4319 C 0.36441 0.45586 0.21946 0.0
C4320 C 0.36587 0.44483 0.20485 0.0
C4321 C 0.36849 0.48529 0.23365 0.0
C4322 C 0.37815 0.4808 0.24865 0.0
C4323 C 0.35968 0.50164 0.23288 0.0
C4324 C 0.34861 0.50672 0.21764 0.0
C4325 C 0.33524 0.49552 0.21157 0.0
C4326 C 0.325 0.50029 0.19711 0.0
C4327 C 0.32792 0.51629 0.18865 0.0
C4328 C 0.34106 0.52757 0.19467 0.0
C4329 C 0.35136 0.52285 0.20911 0.0
H4330 H 0.31998 0.51996 0.17746 0.0
H4331 H 0.42047 0.47459 0.31754 0.0
H4332 H 0.80301 0.34561 0.9505 0.0
H4333 H 0.78405 0.34815 0.97645 0.0
H4334 H 0.76289 0.39659 0.95621 0.0
H4335 H 0.78076 0.39348 0.92988 0.0
H4336 H 0.77957 0.37377 0.00211 0.0
H4337 H 0.72856 0.39792 0.95781 0.0
H4338 H 0.71655 0.39403 0.92793 0.0
H4339 H 0.72417 0.33833 0.9319 0.0
H4340 H 0.73657 0.34202 0.96164 0.0
H4341 H 0.71608 0.39318 0.06501 0.0
H4342 H 0.73414 0.39592 0.03889 0.0
H4343 H 0.70779 0.35129 0.01598 0.0
H4344 H 0.68821 0.34982 0.04146 0.0
H4345 H 0.7153 0.37244 0.9914 0.0
H4346 H 0.74901 0.34896 0.0398 0.0
H4347 H 0.76139 0.34899 0.06972 0.0
H4348 H 0.78871 0.39701 0.0587 0.0
H4349 H 0.77634 0.39737 0.02877 0.0
C4350 C 0.79434 0.35681 0.95171 0.0
C4351 C 0.79323 0.36927 0.93821 0.0
C4352 C 0.7836 0.35828 0.96649 0.0
C4353 C 0.77179 0.37233 0.96797 0.0
C4354 C 0.77155 0.38539 0.95504 0.0
C4355 C 0.78202 0.38376 0.94017 0.0
C4356 C 0.75916 0.37296 0.98262 0.0
C4357 C 0.76552 0.3736 -0.00016 0.0
C4358 C 0.74088 0.37241 0.9796 0.0
C4359 C 0.73355 0.37025 0.96179 0.0
C4360 C 0.72768 0.38487 0.95225 0.0
C4361 C 0.72088 0.38271 0.93534 0.0
C4362 C 0.71962 0.36594 0.92801 0.0
C4363 C 0.72523 0.35131 0.93755 0.0
C4364 C 0.73224 0.35344 0.95438 0.0
C4365 C 0.71369 0.38433 0.05416 0.0
C4366 C 0.70077 0.37124 0.05524 0.0
C4367 C 0.72429 0.38569 0.03936 0.0
C4368 C 0.72277 0.37344 0.02572 0.0
C4369 C 0.70934 0.3608 0.02643 0.0
C4370 C 0.69828 0.35985 0.04101 0.0
C4371 C 0.73562 0.37334 0.01113 0.0
C4372 C 0.72932 0.37278 0.99384 0.0
C4373 C 0.75401 0.3736 0.01418 0.0
C4374 C 0.76165 0.37325 0.0321 0.0
C4375 C 0.75761 0.35956 0.04379 0.0
C4376 C 0.76462 0.35951 0.06074 0.0
C4377 C 0.7758 0.37301 0.06612 0.0
C4378 C 0.78004 0.38657 0.05452 0.0
C4379 C 0.77305 0.38669 0.03756 0.0
H4380 H 0.78121 0.37296 0.07925 0.0
H4381 H 0.71428 0.36428 0.91495 0.0
H4382 H 0.59896 0.05507 0.20239 0.0
H4383 H 0.60232 0.03619 0.22835 0.0
H4384 H 0.64426 0.00823 0.2026 0.0
H4385 H 0.64091 0.02699 0.17676 0.0
H4386 H 0.61748 0.98666 0.2154 0.0
H4387 H 0.6544 0.03373 0.23546 0.0
H4388 H 0.66153 0.06453 0.24229 0.0
H4389 H 0.6196 0.06624 0.27985 0.0
H4390 H 0.61204 0.03551 0.27307 0.0
H4391 H 0.63558 0.93217 0.28978 0.0
H4392 H 0.63816 0.95172 0.26426 0.0
H4393 H 0.60392 0.9891 0.28957 0.0
H4394 H 0.60232 0.97025 0.31528 0.0
H4395 H 0.62985 0.00574 0.27637 0.0
H4396 H 0.59042 0.96116 0.255 0.0
H4397 H 0.58096 0.93105 0.24788 0.0
H4398 H 0.62461 0.92535 0.21274 0.0
H4399 H 0.63445 0.95537 0.21983 0.0
C4400 C 0.60911 0.04512 0.20252 0.0
C4401 C 0.61984 0.04256 0.18782 0.0
C4402 C 0.61102 0.03439 0.21726 0.0
C4403 C 0.6236 0.02091 0.21734 0.0
C4404 C 0.63456 0.01862 0.20277 0.0
C4405 C 0.63274 0.02941 0.18813 0.0
C4406 C 0.62445 0.00838 0.23209 0.0
C4407 C 0.62047 0.99073 0.22872 0.0
C4408 C 0.62792 0.01389 0.24943 0.0
C4409 C 0.63256 0.03234 0.25364 0.0
C4410 C 0.64661 0.04071 0.24508 0.0
C4411 C 0.65075 0.05815 0.24896 0.0
C4412 C 0.641 0.06735 0.26147 0.0
C4413 C 0.62713 0.0591 0.27016 0.0
C4414 C 0.62293 0.04166 0.26631 0.0
C4415 C 0.62858 0.94454 0.28974 0.0
C4416 C 0.61856 0.94963 0.30431 0.0
C4417 C 0.62998 0.95565 0.27519 0.0
C4418 C 0.62109 0.97183 0.27493 0.0
C4419 C 0.6109 0.97672 0.28945 0.0
C4420 C 0.60976 0.9658 0.30402 0.0
C4421 C 0.62252 0.98397 0.2598 0.0
C4422 C 0.62698 0.00158 0.26306 0.0
C4423 C 0.61917 0.97849 0.24238 0.0
C4424 C 0.61328 0.96043 0.23811 0.0
C4425 C 0.59808 0.95343 0.24587 0.0
C4426 C 0.59263 0.93639 0.24181 0.0
C4427 C 0.60221 0.92627 0.22991 0.0
C4428 C 0.61723 0.93319 0.22199 0.0
C4429 C 0.62274 0.95022 0.22601 0.0
H4430 H 0.59797 0.91308 0.22679 0.0
H4431 H 0.64422 0.08085 0.26445 0.0
H4432 H 0.31239 0.88044 0.45478 0.0
H4433 H 0.29236 0.88445 0.4796 0.0
H4434 H 0.25362 0.85243 0.45334 0.0
H4435 H 0.27263 0.8503 0.42793 0.0
H4436 H 0.23797 0.8783 0.46563 0.0
H4437 H 0.28161 0.83871 0.49053 0.0
H4438 H 0.31168 0.83008 0.4989 0.0
H4439 H 0.31608 0.87582 0.5315 0.0
H4440 H 0.2861 0.88481 0.52317 0.0
H4441 H 0.1825 0.85567 0.53754 0.0
H4442 H 0.20253 0.85649 0.51234 0.0
H4443 H 0.23602 0.89275 0.54017 0.0
H4444 H 0.21679 0.89097 0.5656 0.0
H4445 H 0.25469 0.86744 0.52753 0.0
H4446 H 0.2094 0.90515 0.50432 0.0
H4447 H 0.17896 0.91269 0.49629 0.0
H4448 H 0.17724 0.86914 0.46061 0.0
H4449 H 0.20759 0.8612 0.46859 0.0
C4450 C 0.29957 0.87432 0.45441 0.0
C4451 C 0.29408 0.86501 0.43951 0.0
C4452 C 0.2882 0.87644 0.46864 0.0
C4453 C 0.2715 0.86856 0.46847 0.0
C4454 C 0.26638 0.85869 0.45381 0.0
C4455 C 0.27742 0.85717 0.4394 0.0
C4456 C 0.25897 0.87089 0.48316 0.0
C4457 C 0.24161 0.87572 0.47915 0.0
C4458 C 0.26378 0.8681 0.50088 0.0
C4459 C 0.28168 0.8625 0.50611 0.0
C4460 C 0.28902 0.84696 0.49943 0.0
C4461 C 0.30605 0.842 0.50417 0.0
C4462 C 0.3158 0.85242 0.51569 0.0
C4463 C 0.30852 0.86777 0.52256 0.0
C4464 C 0.29151 0.87279 0.51785 0.0
C4465 C 0.19407 0.8639 0.5381 0.0
C4466 C 0.19813 0.87329 0.55338 0.0
C4467 C 0.20542 0.86449 0.52372 0.0
C4468 C 0.22071 0.87481 0.52435 0.0
C4469 C 0.22432 0.88472 0.5394 0.0
C4470 C 0.21321 0.88386 0.55383 0.0
C4471 C 0.23365 0.87439 0.50991 0.0
C4472 C 0.25109 0.87005 0.514 0.0
C4473 C 0.22886 0.87746 0.49226 0.0
C4474 C 0.21075 0.88251 0.48715 0.0
C4475 C 0.20251 0.89714 0.49482 0.0
C4476 C 0.18527 0.90148 0.49027 0.0
C4477 C 0.17616 0.89138 0.47797 0.0
C4478 C 0.18431 0.87695 0.47013 0.0
C4479 C 0.20154 0.87254 0.47465 0.0
H4480 H 0.16281 0.89474 0.47449 0.0
H4481 H 0.32898 0.84857 0.51932 0.0
H4482 H 0.09981 0.47125 0.81326 0.0
H4483 H 0.10167 0.48932 0.7869 0.0
H4484 H 0.13052 0.44833 0.76064 0.0
H4485 H 0.12796 0.42971 0.78696 0.0
H4486 H 0.14564 0.48476 0.75997 0.0
H4487 H 0.09416 0.45213 0.74711 0.0
H4488 H 0.06499 0.43906 0.75178 0.0
H4489 H 0.04249 0.4904 0.75716 0.0
H4490 H 0.07165 0.5038 0.75318 0.0
H4491 H 0.13943 0.52616 0.67596 0.0
H4492 H 0.14113 0.50679 0.70141 0.0
H4493 H 0.10136 0.53761 0.72745 0.0
H4494 H 0.09933 0.55677 0.7016 0.0
H4495 H 0.09297 0.50411 0.72695 0.0
H4496 H 0.14543 0.5366 0.74119 0.0
H4497 H 0.17462 0.54921 0.7352 0.0
H4498 H 0.19524 0.49769 0.72556 0.0
H4499 H 0.16611 0.48478 0.73126 0.0
C4500 C 0.10615 0.4659 0.80173 0.0
C4501 C 0.11355 0.44904 0.80198 0.0
C4502 C 0.10735 0.47629 0.78678 0.0
C4503 C 0.11621 0.4701 0.77193 0.0
C4504 C 0.12366 0.45326 0.77206 0.0
C4505 C 0.12215 0.44268 0.78698 0.0
C4506 C 0.11777 0.48158 0.75648 0.0
C4507 C 0.13421 0.48883 0.75251 0.0
C4508 C 0.10274 0.48701 0.74711 0.0
C4509 C 0.0852 0.47898 0.75008 0.0
C4510 C 0.08308 0.46065 0.74962 0.0
C4511 C 0.06651 0.45317 0.75211 0.0
C4512 C 0.0519 0.46389 0.75485 0.0
C4513 C 0.05383 0.48211 0.75509 0.0
C4514 C 0.07039 0.48965 0.75279 0.0
C4515 C 0.13141 0.52903 0.68733 0.0
C4516 C 0.11932 0.54291 0.68704 0.0
C4517 C 0.13241 0.518 0.70186 0.0
C4518 C 0.12149 0.52085 0.71638 0.0
C4519 C 0.10992 0.53523 0.71636 0.0
C4520 C 0.10878 0.54616 0.70171 0.0
C4521 C 0.12076 0.50779 0.73069 0.0
C4522 C 0.10444 0.50013 0.7344 0.0
C4523 C 0.13592 0.50198 0.73973 0.0
C4524 C 0.15352 0.50973 0.73651 0.0
C4525 C 0.15615 0.52796 0.73768 0.0
C4526 C 0.1727 0.53517 0.73435 0.0
C4527 C 0.18676 0.52426 0.72996 0.0
C4528 C 0.18433 0.50612 0.72895 0.0
C4529 C 0.1678 0.49885 0.73225 0.0
H4530 H 0.19956 0.52986 0.72737 0.0
H4531 H 0.03908 0.45808 0.75671 0.0
H4532 H 0.71617 0.60535 0.42683 0.0
H4533 H 0.73523 0.60243 0.45238 0.0
H4534 H 0.7039 0.64071 0.48005 0.0
H4535 H 0.68532 0.64426 0.45393 0.0
H4536 H 0.73616 0.64929 0.48227 0.0
H4537 H 0.70563 0.59508 0.49132 0.0
H4538 H 0.69353 0.56615 0.48336 0.0
H4539 H 0.74537 0.54729 0.47192 0.0
H4540 H 0.75777 0.57619 0.47961 0.0
H4541 H 0.76919 0.63424 0.56729 0.0
H4542 H 0.75038 0.63125 0.54152 0.0
H4543 H 0.79495 0.61504 0.51067 0.0
H4544 H 0.81413 0.61865 0.53655 0.0
H4545 H 0.75776 0.59427 0.50961 0.0
H4546 H 0.78744 0.64999 0.5004 0.0
H4547 H 0.79842 0.67867 0.51061 0.0
H4548 H 0.74603 0.6941 0.52442 0.0
H4549 H 0.73478 0.66538 0.51454 0.0
C4550 C 0.71314 0.61277 0.43857 0.0
C4551 C 0.69929 0.62488 0.43867 0.0
C4552 C 0.72398 0.61106 0.45318 0.0
C4553 C 0.7209 0.62119 0.46823 0.0
C4554 C 0.70651 0.63276 0.46857 0.0
C4555 C 0.69585 0.63472 0.45378 0.0
C4556 C 0.73373 0.62106 0.48283 0.0
C4557 C 0.74066 0.63722 0.48834 0.0
C4558 C 0.74004 0.6053 0.49046 0.0
C4559 C 0.73261 0.58787 0.4859 0.0
C4560 C 0.71444 0.58481 0.48699 0.0
C4561 C 0.70753 0.56841 0.48255 0.0
C4562 C 0.71867 0.55491 0.4771 0.0
C4563 C 0.73675 0.55777 0.47613 0.0
C4564 C 0.74373 0.57415 0.48055 0.0
C4565 C 0.77501 0.63023 0.55496 0.0
C4566 C 0.79309 0.62702 0.55368 0.0
C4567 C 0.76426 0.62835 0.54037 0.0
C4568 C 0.77136 0.62296 0.52433 0.0
C4569 C 0.78933 0.61917 0.52305 0.0
C4570 C 0.80022 0.62131 0.5377 0.0
C4571 C 0.75988 0.62239 0.50886 0.0
C4572 C 0.75322 0.6062 0.5033 0.0
C4573 C 0.75363 0.63807 0.50128 0.0
C4574 C 0.7603 0.65548 0.50688 0.0
C4575 C 0.77829 0.65945 0.50574 0.0
C4576 C 0.78455 0.67572 0.51145 0.0
C4577 C 0.77294 0.68818 0.5182 0.0
C4578 C 0.75502 0.68442 0.5192 0.0
C4579 C 0.74869 0.66816 0.51353 0.0
H4580 H 0.77781 0.70076 0.52263 0.0
H4581 H 0.71329 0.54222 0.47366 0.0
H4582 H 0.86156 0.02523 0.8183 0.0
H4583 H 0.85826 0.00503 0.79354 0.0
H4584 H 0.87818 0.04474 0.75846 0.0
H4585 H 0.88181 0.06498 0.78347 0.0
H4586 H 0.84672 0.02243 0.74662 0.0
H4587 H 0.90633 0.01915 0.7695 0.0
H4588 H 0.92756 0.0163 0.79378 0.0
H4589 H 0.90581 0.96615 0.8073 0.0
H4590 H 0.8843 0.96878 0.78319 0.0
H4591 H 0.87694 0.97457 0.67427 0.0
H4592 H 0.874 0.99406 0.69958 0.0
H4593 H 0.86553 0.94924 0.73317 0.0
H4594 H 0.86852 0.92961 0.70759 0.0
H4595 H 0.88912 0.97293 0.7471 0.0
H4596 H 0.83174 0.97398 0.7232 0.0
H4597 H 0.80884 0.97642 0.70049 0.0
H4598 H 0.82419 0.02965 0.6903 0.0
H4599 H 0.84741 0.02744 0.71274 0.0
C4600 C 0.86486 0.02971 0.80521 0.0
C4601 C 0.87188 0.04651 0.80257 0.0
C4602 C 0.86301 0.01822 0.79117 0.0
C4603 C 0.86807 0.02344 0.77431 0.0
C4604 C 0.87418 0.04059 0.77145 0.0
C4605 C 0.87625 0.05208 0.78562 0.0
C4606 C 0.86841 0.0104 0.76008 0.0
C4607 C 0.8561 0.01172 0.74651 0.0
C4608 C 0.88026 0.99612 0.76053 0.0
C4609 C 0.89356 0.99426 0.77467 0.0
C4610 C 0.90599 0.00756 0.77772 0.0
C4611 C 0.91808 0.00598 0.79144 0.0
C4612 C 0.91793 0.99113 0.80217 0.0
C4613 C 0.90584 0.9777 0.79904 0.0
C4614 C 0.89372 0.97921 0.78532 0.0
C4615 C 0.87448 0.96895 0.6871 0.0
C4616 C 0.87299 0.95075 0.6892 0.0
C4617 C 0.8727 0.98003 0.70148 0.0
C4618 C 0.86934 0.97308 0.71817 0.0
C4619 C 0.86805 0.95481 0.72034 0.0
C4620 C 0.86975 0.94366 0.70584 0.0
C4621 C 0.86762 0.98509 0.73328 0.0
C4622 C 0.87966 0.98357 0.74713 0.0
C4623 C 0.85538 -0.00092 0.73317 0.0
C4624 C 0.84145 0.00048 0.71957 0.0
C4625 C 0.83036 0.98616 0.716 0.0
C4626 C 0.81729 0.98751 0.70319 0.0
C4627 C 0.81508 0.00317 0.69393 0.0
C4628 C 0.82593 0.01752 0.69747 0.0
C4629 C 0.83904 0.01623 0.71025 0.0
H4630 H 0.80495 0.00419 0.68403 0.0
H4631 H 0.92721 0.98999 0.81286 0.0
H4632 H 0.92668 0.22432 0.14081 0.0
H4633 H 0.9522 0.24277 0.1379 0.0
H4634 H 0.97936 0.20106 0.11075 0.0
H4635 H 0.95489 0.18128 0.11707 0.0
H4636 H 0.00165 0.21605 0.12706 0.0
H4637 H 0.95751 0.24164 0.09015 0.0
H4638 H 0.92844 0.25365 0.08244 0.0
H4639 H 0.93463 0.29418 0.12107 0.0
H4640 H 0.96362 0.28233 0.12914 0.0
H4641 H 0.06551 0.27892 0.10071 0.0
H4642 H 0.03936 0.26053 0.09729 0.0
H4643 H 0.01611 0.2852 0.14262 0.0
H4644 H 0.04243 0.30352 0.14618 0.0
H4645 H 0.9928 0.27878 0.11203 0.0
H4646 H 0.03631 0.25 0.14968 0.0
H4647 H 0.06588 0.23819 0.15548 0.0
H4648 H 0.061 0.20361 0.11126 0.0
H4649 H 0.03147 0.2154 0.10507 0.0
C4650 C 0.93828 0.21882 0.13474 0.0
C4651 C 0.93869 0.20128 0.12912 0.0
C4652 C 0.95274 0.22966 0.1325 0.0
C4653 C 0.96749 0.22376 0.12321 0.0
C4654 C 0.96804 0.20614 0.11767 0.0
C4655 C 0.95391 0.19489 0.12098 0.0
C4656 C 0.98253 0.23582 0.12009 0.0
C4657 C -0.00039 0.22963 0.12333 0.0
C4658 C 0.9801 0.25371 0.11536 0.0
C4659 C 0.96274 0.26104 0.11028 0.0
C4660 C 0.95266 0.25309 0.09702 0.0
C4661 C 0.93618 0.25987 0.0926 0.0
C4662 C 0.92969 0.27466 0.10127 0.0
C4663 C 0.93967 0.28274 0.11435 0.0
C4664 C 0.95615 0.27602 0.11882 0.0
C4665 C 0.05457 0.28074 0.10961 0.0
C4666 C 0.05571 0.29267 0.12359 0.0
C4667 C 0.03977 0.27019 0.10772 0.0
C4668 C 0.02596 0.27154 0.11975 0.0
C4669 C 0.02669 0.2841 0.13319 0.0
C4670 C 0.04161 0.29451 0.13522 0.0
C4671 C 0.0114 0.2589 0.11926 0.0
C4672 C 0.99458 0.26504 0.11533 0.0
C4673 C 0.01408 0.24093 0.1229 0.0
C4674 C 0.03176 0.23372 0.1268 0.0
C4675 C 0.0416 0.23998 0.14111 0.0
C4676 C 0.05834 0.23327 0.14448 0.0
C4677 C 0.06534 0.2202 0.13371 0.0
C4678 C 0.05558 0.21376 0.11958 0.0
C4679 C 0.03883 0.22044 0.11615 0.0
H4680 H 0.07831 0.21503 0.13634 0.0
H4681 H 0.91692 0.27987 0.09785 0.0
H4682 H 0.92482 0.77477 0.38732 0.0
H4683 H 0.94964 0.75463 0.38966 0.0
H4684 H 0.98274 0.79246 0.36349 0.0
H4685 H 0.95756 0.81245 0.36067 0.0
H4686 H 0.98593 0.76172 0.3488 0.0
H4687 H 0.98717 0.78236 0.40805 0.0
H4688 H 0.97527 0.7895 0.43726 0.0
H4689 H 0.96179 0.73541 0.44533 0.0
H4690 H 0.97339 0.72797 0.41605 0.0
H4691 H 0.06798 0.72454 0.36613 0.0
H4692 H 0.04213 0.74325 0.36866 0.0
H4693 H 0.01024 0.69791 0.38016 0.0
H4694 H 0.03634 0.67889 0.37723 0.0
H4695 H 0.00559 0.73062 0.40256 0.0
H4696 H 0.00588 0.71061 0.34264 0.0
H4697 H 0.01967 0.7045 0.31403 0.0
H4698 H 0.03198 0.75913 0.30796 0.0
H4699 H 0.01854 0.76553 0.33669 0.0
C4700 C 0.93753 0.77888 0.38244 0.0
C4701 C 0.9395 0.79509 0.37398 0.0
C4702 C 0.95168 0.76742 0.3838 0.0
C4703 C 0.96809 0.77211 0.37692 0.0
C4704 C 0.97018 0.78861 0.36892 0.0
C4705 C 0.95592 0.80003 0.36739 0.0
C4706 C 0.9826 0.75922 0.37679 0.0
C4707 C 0.99036 0.75512 0.36061 0.0
C4708 C 0.988 0.75021 0.39213 0.0
C4709 C 0.981 0.75464 0.40976 0.0
C4710 C 0.98154 0.77201 0.41598 0.0
C4711 C 0.97487 0.77611 0.43257 0.0
C4712 C 0.96773 0.76293 0.44312 0.0
C4713 C 0.96729 0.74561 0.43713 0.0
C4714 C 0.97393 0.74144 0.42054 0.0
C4715 C 0.05543 0.71856 0.36914 0.0
C4716 C 0.05393 0.70034 0.37119 0.0
C4717 C 0.04076 0.72924 0.37066 0.0
C4718 C 0.02436 0.72188 0.37441 0.0
C4719 C 0.02287 0.70373 0.37721 0.0
C4720 C 0.03764 0.69294 0.37551 0.0
C4721 C 0.00887 0.73339 0.37467 0.0
C4722 C 0.00097 0.7372 0.39081 0.0
C4723 C 0.00345 0.74231 0.35935 0.0
C4724 C 0.01132 0.73853 0.34191 0.0
C4725 C 0.01166 0.72131 0.33528 0.0
C4726 C 0.01939 0.71779 0.31903 0.0
C4727 C 0.02673 0.73142 0.3092 0.0
C4728 C 0.0263 0.74859 0.31559 0.0
C4729 C 0.01861 0.75217 0.33186 0.0
H4730 H 0.03272 0.72867 0.29662 0.0
H4731 H 0.96258 0.76613 0.45596 0.0
H4732 H 0.05113 0.79373 0.90229 0.0
H4733 H 0.03105 0.76915 0.90093 0.0
H4734 H 0.02426 0.77767 0.84525 0.0
H4735 H 0.04205 0.80413 0.84735 0.0
H4736 H 0.99513 0.77252 0.85607 0.0
H4737 H 0.04699 0.73933 0.86696 0.0
H4738 H 0.07482 0.73134 0.88144 0.0
H4739 H 0.04755 0.72312 0.93003 0.0
H4740 H 0.01959 0.73124 0.9159 0.0
H4741 H 0.96156 0.68261 0.85067 0.0
H4742 H 0.97936 0.70906 0.8487 0.0
H4743 H 0.96048 0.72574 0.89932 0.0
H4744 H 0.94159 0.69959 0.90092 0.0
H4745 H 0.00162 0.71742 0.89002 0.0
H4746 H 0.94893 0.75117 0.87511 0.0
H4747 H 0.92253 0.75619 0.85705 0.0
H4748 H 0.9544 0.75895 0.81069 0.0
H4749 H 0.98097 0.75371 0.82845 0.0
C4750 C 0.04547 0.79024 0.88972 0.0
C4751 C 0.04798 0.801 0.87502 0.0
C4752 C 0.03416 0.77593 0.88886 0.0
C4753 C 0.02617 0.77121 0.87291 0.0
C4754 C 0.03007 0.78104 0.85778 0.0
C4755 C 0.04062 0.79599 0.85889 0.0
C4756 C 0.01258 0.75717 0.87243 0.0
C4757 C -0.00319 0.76038 0.86329 0.0
C4758 C 0.01444 0.74126 0.88193 0.0
C4759 C 0.0312 0.736 0.89038 0.0
C4760 C 0.04694 0.73587 0.88074 0.0
C4761 C 0.06274 0.73132 0.88889 0.0
C4762 C 0.06296 0.72676 0.90665 0.0
C4763 C 0.04736 0.72665 0.91628 0.0
C4764 C 0.03153 0.73119 0.9082 0.0
C4765 C 0.96053 0.69226 0.86104 0.0
C4766 C 0.9501 0.68915 0.87591 0.0
C4767 C 0.97084 0.70728 0.85994 0.0
C4768 C 0.97113 0.71924 0.87383 0.0
C4769 C 0.96025 0.7166 0.88844 0.0
C4770 C 0.94957 0.70172 0.88936 0.0
C4771 C 0.98454 0.73308 0.87395 0.0
C4772 C 0.00022 0.72966 0.88288 0.0
C4773 C 0.98288 0.74837 0.8637 0.0
C4774 C 0.96692 0.75189 0.8531 0.0
C4775 C 0.9503 0.7527 0.86105 0.0
C4776 C 0.9353 0.75563 0.85087 0.0
C4777 C 0.93678 0.75785 0.83273 0.0
C4778 C 0.95327 0.75722 0.82474 0.0
C4779 C 0.9683 0.75431 0.83487 0.0
H4780 H 0.92516 0.76008 0.82487 0.0
H4781 H 0.07521 0.72328 0.91294 0.0
H4782 H 0.43162 0.20619 0.37829 0.0
H4783 H 0.4513 0.23168 0.37531 0.0
H4784 H 0.49169 0.198 0.35437 0.0
H4785 H 0.47198 0.17272 0.357 0.0
H4786 H 0.50057 0.21924 0.38542 0.0
H4787 H 0.47534 0.22356 0.3273 0.0
H4788 H 0.45048 0.22546 0.30667 0.0
H4789 H 0.4337 0.27348 0.33084 0.0
H4790 H 0.45831 0.27172 0.35182 0.0
H4791 H 0.56334 0.28661 0.37348 0.0
H4792 H 0.54473 0.26097 0.3673 0.0
H4793 H 0.49851 0.29332 0.37275 0.0
H4794 H 0.51705 0.31888 0.37796 0.0
H4795 H 0.49343 0.27159 0.34739 0.0
H4796 H 0.51426 0.26744 0.40655 0.0
H4797 H 0.53646 0.26644 0.43007 0.0
H4798 H 0.55834 0.21953 0.40785 0.0
H4799 H 0.53642 0.22041 0.384 0.0
C4800 C 0.44454 0.20446 0.37264 0.0
C4801 C 0.45039 0.18777 0.36768 0.0
C4802 C 0.45573 0.21889 0.37099 0.0
C4803 C 0.47286 0.21659 0.36462 0.0
C4804 C 0.47848 0.19995 0.35925 0.0
C4805 C 0.46725 0.18563 0.36066 0.0
C4806 C 0.48541 0.23125 0.36482 0.0
C4807 C 0.49926 0.23058 0.37691 0.0
C4808 C 0.48318 0.24616 0.35409 0.0
C4809 C 0.4686 0.24743 0.34123 0.0
C4810 C 0.46628 0.23446 0.3283 0.0
C4811 C 0.45225 0.23552 0.31653 0.0
C4812 C 0.4405 0.24956 0.31747 0.0
C4813 C 0.4428 0.26261 0.33014 0.0
C4814 C 0.45681 0.26159 0.34196 0.0
C4815 C 0.54921 0.28812 0.37323 0.0
C4816 C 0.5415 0.30446 0.37657 0.0
C4817 C 0.53861 0.27356 0.36975 0.0
C4818 C 0.52021 0.2752 0.36987 0.0
C4819 C 0.51264 0.29172 0.37263 0.0
C4820 C 0.5232 0.30625 0.37583 0.0
C4821 C 0.50871 0.25968 0.36806 0.0
C4822 C 0.49497 0.26017 0.35575 0.0
C4823 C 0.51072 0.24477 0.37897 0.0
C4824 C 0.52383 0.24411 0.39337 0.0
C4825 C 0.52389 0.25698 0.4066 0.0
C4826 C 0.53641 0.25643 0.42 0.0
C4827 C 0.54883 0.24296 0.42042 0.0
C4828 C 0.54873 0.22998 0.40748 0.0
C4829 C 0.53626 0.2305 0.39401 0.0
H4830 H 0.55852 0.24256 0.43081 0.0
H4831 H 0.42963 0.25035 0.30835 0.0
H4832 H 0.42479 0.72448 0.62346 0.0
H4833 H 0.45041 0.74345 0.62069 0.0
H4834 H 0.48317 0.69803 0.6121 0.0
H4835 H 0.4573 0.67888 0.61537 0.0
H4836 H 0.49662 0.71913 0.63665 0.0
H4837 H 0.47416 0.72722 0.57865 0.0
H4838 H 0.45162 0.73333 0.55625 0.0
H4839 H 0.44375 0.78479 0.57775 0.0
H4840 H 0.46607 0.77891 0.60045 0.0
H4841 H 0.5713 0.76991 0.61712 0.0
H4842 H 0.54599 0.75066 0.61252 0.0
H4843 H 0.51138 0.79192 0.63003 0.0
H4844 H 0.53693 0.81124 0.63482 0.0
H4845 H 0.49982 0.77228 0.59913 0.0
H4846 H 0.52083 0.76363 0.65789 0.0
H4847 H 0.54311 0.75773 0.68058 0.0
H4848 H 0.55324 0.70718 0.65792 0.0
H4849 H 0.53131 0.71296 0.63479 0.0
C4850 C 0.43746 0.71861 0.62077 0.0
C4851 C 0.43928 0.70035 0.61968 0.0
C4852 C 0.45204 0.72943 0.61906 0.0
C4853 C 0.46865 0.72217 0.61597 0.0
C4854 C 0.47042 0.70386 0.61441 0.0
C4855 C 0.45575 0.69298 0.61621 0.0
C4856 C 0.48422 0.73373 0.61583 0.0
C4857 C 0.49751 0.73053 0.62817 0.0
C4858 C 0.48505 0.74891 0.60512 0.0
C4859 C 0.47174 0.75257 0.59134 0.0
C4860 C 0.46755 0.7398 0.57868 0.0
C4861 C 0.45482 0.74323 0.56591 0.0
C4862 C 0.44624 0.75942 0.5656 0.0
C4863 C 0.45041 0.77225 0.57801 0.0
C4864 C 0.46312 0.76888 0.59082 0.0
C4865 C 0.55824 0.77484 0.61983 0.0
C4866 C 0.55584 0.79182 0.62646 0.0
C4867 C 0.54387 0.76391 0.61721 0.0
C4868 C 0.52694 0.76988 0.6211 0.0
C4869 C 0.52443 0.78716 0.62699 0.0
C4870 C 0.5389 0.7981 0.62978 0.0
C4871 C 0.51206 0.75761 0.61993 0.0
C4872 C 0.49895 0.76074 0.60742 0.0
C4873 C 0.51137 0.74237 0.63049 0.0
C4874 C 0.52456 0.73883 0.64444 0.0
C4875 C 0.52795 0.75134 0.65759 0.0
C4876 C 0.5405 0.74801 0.67057 0.0
C4877 C 0.54962 0.73211 0.67067 0.0
C4878 C 0.5462 0.71951 0.6578 0.0
C4879 C 0.53371 0.72281 0.64474 0.0
H4880 H 0.55931 0.72953 0.68074 0.0
H4881 H 0.43638 0.76204 0.55571 0.0
H4882 H 0.93214 0.28877 0.62404 0.0
H4883 H 0.95069 0.26245 0.62777 0.0
H4884 H 0.99657 0.29308 0.6151 0.0
H4885 H 0.97838 0.31928 0.6121 0.0
H4886 H 0.98593 0.25758 0.5945 0.0
H4887 H -0.00122 0.28705 0.6508 0.0
H4888 H 0.98971 0.29964 0.67919 0.0
H4889 H 0.96588 0.25067 0.6936 0.0
H4890 H 0.97458 0.23788 0.66513 0.0
H4891 H 0.0621 0.20668 0.60487 0.0
H4892 H 0.04191 0.23181 0.60676 0.0
H4893 H 0.00725 0.20145 0.63969 0.0
H4894 H 0.0272 0.17651 0.63772 0.0
H4895 H 0.00946 0.23501 0.6509 0.0
H4896 H -0.00084 0.2038 0.59782 0.0
H4897 H 0.00628 0.18983 0.56954 0.0
H4898 H 0.02211 0.23966 0.54858 0.0
H4899 H 0.01545 0.25389 0.57688 0.0
C4900 C 0.9462 0.28976 0.62222 0.0
C4901 C 0.95392 0.30579 0.61752 0.0
C4902 C 0.95671 0.27487 0.62436 0.0
C4903 C 0.97488 0.27602 0.62167 0.0
C4904 C 0.98254 0.29207 0.61718 0.0
C4905 C 0.97216 0.30692 0.61537 0.0
C4906 C 0.98607 0.26043 0.62259 0.0
C4907 C 0.99119 0.25262 0.60677 0.0
C4908 C 0.99237 0.25388 0.6387 0.0
C4909 C 0.98707 0.26161 0.65573 0.0
C4910 C 0.99139 0.27905 0.65991 0.0
C4911 C 0.98638 0.2862 0.67604 0.0
C4912 C 0.97716 0.27599 0.68816 0.0
C4913 C 0.97298 0.25859 0.68418 0.0
C4914 C 0.97794 0.25138 0.66805 0.0
C4915 C 0.0503 0.20561 0.61272 0.0
C4916 C 0.04614 0.18986 0.62121 0.0
C4917 C 0.03881 0.21983 0.61376 0.0
C4918 C 0.02306 0.21832 0.62323 0.0
C4919 C 0.01936 0.20285 0.63239 0.0
C4920 C 0.03077 0.18867 0.63129 0.0
C4921 C 0.00984 0.23239 0.62271 0.0
C4922 C 0.00421 0.23985 0.63858 0.0
C4923 C 0.00283 0.23844 0.60661 0.0
C4924 C 0.00699 0.22989 0.58957 0.0
C4925 C 0.00434 0.21176 0.58726 0.0
C4926 C 0.00827 0.20379 0.57121 0.0
C4927 C 0.01467 0.21384 0.55728 0.0
C4928 C 0.01717 0.23188 0.55939 0.0
C4929 C 0.01333 0.23991 0.57544 0.0
H4930 H 0.01764 0.20766 0.54485 0.0
H4931 H 0.97331 0.28154 0.70065 0.0
H4932 H 0.63985 0.42766 0.71961 0.0
H4933 H 0.63731 0.45257 0.73935 0.0
H4934 H 0.6045 0.47921 0.70159 0.0
H4935 H 0.60818 0.45456 0.6811 0.0
H4936 H 0.62576 0.5016 0.71601 0.0
H4937 H 0.58751 0.45728 0.73896 0.0
H4938 H 0.57902 0.42796 0.74968 0.0
H4939 H 0.61698 0.43178 0.79116 0.0
H4940 H 0.62587 0.46102 0.78055 0.0
H4941 H 0.59878 0.56511 0.77703 0.0
H4942 H 0.59621 0.53932 0.75813 0.0
H4943 H 0.63552 0.51274 0.78907 0.0
H4944 H 0.63781 0.53852 0.80831 0.0
H4945 H 0.60853 0.4907 0.77786 0.0
H4946 H 0.64677 0.53525 0.75414 0.0
H4947 H 0.65386 0.56511 0.74397 0.0
H4948 H 0.61487 0.56093 0.70351 0.0
H4949 H 0.60706 0.53128 0.71385 0.0
C4950 C 0.63251 0.43902 0.71529 0.0
C4951 C 0.62438 0.43933 0.69876 0.0
C4952 C 0.63075 0.45311 0.72675 0.0
C4953 C 0.62032 0.46756 0.72217 0.0
C4954 C 0.6125 0.46812 0.70546 0.0
C4955 C 0.61457 0.45409 0.69379 0.0
C4956 C 0.61779 0.48208 0.73485 0.0
C4957 C 0.62167 0.49925 0.72944 0.0
C4958 C 0.61276 0.47896 0.75249 0.0
C4959 C 0.60745 0.46131 0.75887 0.0
C4960 C 0.59414 0.45182 0.75029 0.0
C4961 C 0.58924 0.43522 0.75636 0.0
C4962 C 0.59747 0.428 0.77107 0.0
C4963 C 0.61061 0.43738 0.77976 0.0
C4964 C 0.61557 0.45398 0.77373 0.0
C4965 C 0.60645 0.55355 0.7801 0.0
C4966 C 0.61849 0.55365 0.79404 0.0
C4967 C 0.60508 0.53892 0.76924 0.0
C4968 C 0.6159 0.52431 0.77207 0.0
C4969 C 0.62711 0.52396 0.78669 0.0
C4970 C 0.62844 0.5386 0.79761 0.0
C4971 C 0.61658 0.51006 0.75899 0.0
C4972 C 0.61242 0.493 0.76436 0.0
C4973 C 0.62124 0.5133 0.74129 0.0
C4974 C 0.62616 0.53108 0.73492 0.0
C4975 C 0.63955 0.54075 0.74321 0.0
C4976 C 0.64369 0.55766 0.73742 0.0
C4977 C 0.63482 0.56491 0.72311 0.0
C4978 C 0.62173 0.5553 0.71461 0.0
C4979 C 0.61739 0.53846 0.72046 0.0
H4980 H 0.63812 0.57796 0.71859 0.0
H4981 H 0.59365 0.41515 0.77576 0.0
H4982 H 0.67526 0.13652 0.52362 0.0
H4983 H 0.70037 0.13814 0.5038 0.0
H4984 H 0.73264 0.11221 0.54248 0.0
H4985 H 0.7074 0.11089 0.5626 0.0
H4986 H 0.74972 0.13964 0.52548 0.0
H4987 H 0.71545 0.08902 0.51062 0.0
H4988 H 0.68849 0.07289 0.50288 0.0
H4989 H 0.68328 0.10351 0.45588 0.0
H4990 H 0.71004 0.12008 0.46352 0.0
H4991 H 0.81705 0.10792 0.47142 0.0
H4992 H 0.79211 0.11055 0.49129 0.0
H4993 H 0.76181 0.13505 0.45015 0.0
H4994 H 0.78691 0.13204 0.42997 0.0
H4995 H 0.74334 0.10977 0.46794 0.0
H4996 H 0.7787 0.15966 0.48261 0.0
H4997 H 0.80569 0.17549 0.49082 0.0
H4998 H 0.80918 0.14556 0.53842 0.0
H4999 H 0.78235 0.12934 0.53038 0.0
C5000 C 0.68783 0.13154 0.52802 0.0
C5001 C 0.68959 0.1237 0.54458 0.0
C5002 C 0.70208 0.13233 0.51667 0.0
C5003 C 0.71822 0.12507 0.52163 0.0
C5004 C 0.72022 0.11784 0.53847 0.0
C5005 C 0.7059 0.11708 0.54989 0.0
C5006 C 0.73272 0.12438 0.50887 0.0
C5007 C 0.74845 0.13295 0.51297 0.0
C5008 C 0.73075 0.11598 0.49242 0.0
C5009 C 0.71467 0.10594 0.48775 0.0
C5010 C 0.70848 0.09244 0.49872 0.0
C5011 C 0.69324 0.08319 0.49434 0.0
C5012 C 0.68416 0.0872 0.47892 0.0
C5013 C 0.69032 0.10044 0.46784 0.0
C5014 C 0.70552 0.10976 0.47219 0.0
C5015 C 0.80496 0.11362 0.46657 0.0
C5016 C 0.80365 0.11956 0.4492 0.0
C5017 C 0.79084 0.11533 0.47796 0.0
C5018 C 0.77525 0.12322 0.47224 0.0
C5019 C 0.77381 0.12899 0.45478 0.0
C5020 C 0.78802 0.12725 0.44331 0.0
C5021 C 0.76042 0.125 0.48454 0.0
C5022 C 0.7446 0.11659 0.48037 0.0
C5023 C 0.76235 0.13346 0.50096 0.0
C5024 C 0.77856 0.14317 0.5058 0.0
C5025 C 0.78529 0.15634 0.49475 0.0
C5026 C 0.80056 0.16541 0.4994 0.0
C5027 C 0.80916 0.16151 0.51512 0.0
C5028 C 0.80251 0.14855 0.52624 0.0
C5029 C 0.78726 0.13943 0.52165 0.0
H5030 H 0.82096 0.16856 0.51869 0.0
H5031 H 0.67237 0.08002 0.47554 0.0
H5032 H 0.36579 0.95745 0.81568 0.0
H5033 H 0.3675 0.9828 0.79577 0.0
H5034 H 0.3835 0.94849 0.75361 0.0
H5035 H 0.38236 0.92344 0.77362 0.0
H5036 H 0.401 0.97762 0.75138 0.0
H5037 H 0.34097 0.96175 0.75891 0.0
H5038 H 0.31345 0.95536 0.77463 0.0
H5039 H 0.31225 0.00805 0.79453 0.0
H5040 H 0.33999 0.01465 0.77924 0.0
H5041 H 0.37155 0.03615 0.68157 0.0
H5042 H 0.37552 0.01055 0.701 0.0
H5043 H 0.37127 0.04434 0.74623 0.0
H5044 H 0.36755 0.06973 0.72697 0.0
H5045 H 0.34795 0.01491 0.74565 0.0
H5046 H 0.40939 0.02955 0.73692 0.0
H5047 H 0.43568 0.03481 0.71881 0.0
H5048 H 0.43207 0.98263 0.69791 0.0
H5049 H 0.4056 0.97714 0.71572 0.0
C5050 C 0.36996 0.95553 0.80223 0.0
C5051 C 0.37403 0.93873 0.79604 0.0
C5052 C 0.37083 0.96989 0.79087 0.0
C5053 C 0.37539 0.96745 0.77314 0.0
C5054 C 0.38 0.95067 0.76721 0.0
C5055 C 0.37933 0.93641 0.77859 0.0
C5056 C 0.37458 0.98217 0.76053 0.0
C5057 C 0.38934 0.98568 0.75003 0.0
C5058 C 0.35933 0.99263 0.75872 0.0
C5059 C 0.34272 0.98863 0.7681 0.0
C5060 C 0.33496 0.97192 0.7668 0.0
C5061 C 0.31929 0.96827 0.77561 0.0
C5062 C 0.31113 0.98128 0.78562 0.0
C5063 C 0.31861 -0.00203 0.78682 0.0
C5064 C 0.33432 0.00167 0.7781 0.0
C5065 C 0.37164 0.03798 0.69566 0.0
C5066 C 0.36901 0.05466 0.70294 0.0
C5067 C 0.37394 0.02348 0.70669 0.0
C5068 C 0.3736 0.02568 0.72498 0.0
C5069 C 0.37146 0.04245 0.73214 0.0
C5070 C 0.36932 0.05686 0.72119 0.0
C5071 C 0.37441 0.01048 0.73686 0.0
C5072 C 0.35959 0.00684 0.74711 0.0
C5073 C 0.38942 -0.00028 0.73815 0.0
C5074 C 0.4054 0.003 0.72751 0.0
C5075 C 0.4141 0.01925 0.72834 0.0
C5076 C 0.42906 0.02227 0.71816 0.0
C5077 C 0.43551 0.00908 0.70718 0.0
C5078 C 0.42705 0.99284 0.7064 0.0
C5079 C 0.41208 0.98977 0.71655 0.0
H5080 H 0.44709 0.01144 0.69931 0.0
H5081 H 0.29898 0.97844 0.7924 0.0
H5082 H 0.31503 0.34853 0.52881 0.0
H5083 H 0.28941 0.34698 0.50967 0.0
H5084 H 0.26443 0.38783 0.53997 0.0
H5085 H 0.28953 0.38828 0.56004 0.0
H5086 H 0.24114 0.3662 0.53046 0.0
H5087 H 0.28878 0.39509 0.49975 0.0
H5088 H 0.31853 0.3974 0.48719 0.0
H5089 H 0.30839 0.35279 0.4543 0.0
H5090 H 0.27866 0.35011 0.46681 0.0
H5091 H 0.19796 0.40176 0.44697 0.0
H5092 H 0.2239 0.39865 0.46595 0.0
H5093 H 0.20741 0.34634 0.47983 0.0
H5094 H 0.1811 0.34982 0.46216 0.0
H5095 H 0.2514 0.37328 0.46653 0.0
H5096 H 0.20757 0.34137 0.51212 0.0
H5097 H 0.17853 0.34244 0.5265 0.0
H5098 H 0.18299 0.39838 0.53164 0.0
H5099 H 0.2116 0.39765 0.51653 0.0
C5100 C 0.3038 0.35673 0.53172 0.0
C5101 C 0.30415 0.36854 0.54585 0.0
C5102 C 0.28932 0.35609 0.52057 0.0
C5103 C 0.27525 0.36769 0.52304 0.0
C5104 C 0.27522 0.37886 0.53772 0.0
C5105 C 0.28951 0.37914 0.54915 0.0
C5106 C 0.26073 0.36856 0.51017 0.0
C5107 C 0.24349 0.3677 0.51649 0.0
C5108 C 0.26369 0.37062 0.4919 0.0
C5109 C 0.28155 0.37231 0.48433 0.0
C5110 C 0.29293 0.38572 0.48991 0.0
C5111 C 0.30979 0.38711 0.48279 0.0
C5112 C 0.31536 0.37523 0.46998 0.0
C5113 C 0.30407 0.36197 0.46423 0.0
C5114 C 0.28721 0.36053 0.47132 0.0
C5115 C 0.19999 0.38961 0.45405 0.0
C5116 C 0.18764 0.37598 0.45296 0.0
C5117 C 0.21475 0.38783 0.46481 0.0
C5118 C 0.21729 0.3724 0.47454 0.0
C5119 C 0.20542 0.3585 0.47278 0.0
C5120 C 0.19059 0.36037 0.46231 0.0
C5121 C 0.23205 0.37091 0.48695 0.0
C5122 C 0.24925 0.37164 0.48051 0.0
C5123 C 0.22917 0.36897 0.50514 0.0
C5124 C 0.21144 0.36949 0.51291 0.0
C5125 C 0.20213 0.35391 0.51601 0.0
C5126 C 0.18575 0.35446 0.52424 0.0
C5127 C 0.1788 0.37049 0.5298 0.0
C5128 C 0.18819 0.38601 0.52703 0.0
C5129 C 0.2044 0.38555 0.5185 0.0
H5130 H 0.16622 0.37089 0.53636 0.0
H5131 H 0.32841 0.37632 0.46448 0.0
H5132 H 0.56489 0.21434 0.89032 0.0
H5133 H 0.54021 0.23449 0.89366 0.0
H5134 H 0.51146 0.20575 0.85413 0.0
H5135 H 0.53667 0.18604 0.85026 0.0
H5136 H 0.51184 0.23882 0.84654 0.0
H5137 H 0.49989 0.20626 0.89934 0.0
H5138 H 0.507 0.19298 0.92798 0.0
H5139 H 0.51975 0.24378 0.94872 0.0
H5140 H 0.51294 0.25735 0.92013 0.0
H5141 H 0.4268 0.27146 0.85912 0.0
H5142 H 0.45282 0.25299 0.86123 0.0
H5143 H 0.48153 0.29576 0.88469 0.0
H5144 H 0.45542 0.31476 0.88187 0.0
H5145 H 0.48293 0.2585 0.90142 0.0
H5146 H 0.49201 0.29094 0.84853 0.0
H5147 H 0.48424 0.30353 0.81979 0.0
H5148 H 0.47679 0.25183 0.79878 0.0
H5149 H 0.48375 0.2389 0.82762 0.0
C5150 C 0.55306 0.21208 0.88276 0.0
C5151 C 0.5524 0.19866 0.8702 0.0
C5152 C 0.53898 0.22355 0.88467 0.0
C5153 C 0.52393 0.22155 0.87425 0.0
C5154 C 0.52297 0.20752 0.86229 0.0
C5155 C 0.53722 0.19622 0.86017 0.0
C5156 C 0.51001 0.23506 0.87452 0.0
C5157 C 0.50534 0.24291 0.85852 0.0
C5158 C 0.5021 0.24094 0.89027 0.0
C5159 C 0.50606 0.2328 0.90753 0.0
C5160 C 0.50433 0.21459 0.90996 0.0
C5161 C 0.50828 0.20701 0.9262 0.0
C5162 C 0.51387 0.21752 0.94015 0.0
C5163 C 0.51545 0.23565 0.9379 0.0
C5164 C 0.51152 0.24329 0.92169 0.0
C5165 C 0.43872 0.27702 0.86451 0.0
C5166 C 0.43935 0.29459 0.86997 0.0
C5167 C 0.45348 0.26643 0.86583 0.0
C5168 C 0.46901 0.27314 0.87294 0.0
C5169 C 0.46957 0.29048 0.8791 0.0
C5170 C 0.45478 0.30126 0.87749 0.0
C5171 C 0.48459 0.26178 0.87343 0.0
C5172 C 0.48956 0.25439 0.88952 0.0
C5173 C 0.4927 0.25619 0.85774 0.0
C5174 C 0.48817 0.26394 0.84039 0.0
C5175 C 0.48838 0.28224 0.83791 0.0
C5176 C 0.48413 0.28944 0.82158 0.0
C5177 C 0.47989 0.27848 0.80751 0.0
C5178 C 0.47993 0.2603 0.80974 0.0
C5179 C 0.48398 0.25303 0.8261 0.0
H5180 H 0.47667 0.28407 0.79486 0.0
H5181 H 0.51693 0.21163 0.9527 0.0
H5182 H 0.54549 0.69757 0.088 0.0
H5183 H 0.5267 0.72327 0.09057 0.0
H5184 H 0.52227 0.71445 0.14639 0.0
H5185 H 0.53915 0.68758 0.14341 0.0
H5186 H 0.4924 0.72014 0.13594 0.0
H5187 H 0.54566 0.75112 0.12572 0.0
H5188 H 0.57353 0.75876 0.11118 0.0
H5189 H 0.54569 0.77142 0.06385 0.0
H5190 H 0.51767 0.76363 0.07803 0.0
H5191 H 0.46314 0.81319 0.14293 0.0
H5192 H 0.48109 0.7867 0.14464 0.0
H5193 H 0.45707 0.76726 0.09726 0.0
H5194 H 0.43822 0.79343 0.09602 0.0
H5195 H 0.50095 0.77676 0.10506 0.0
H5196 H 0.44727 0.74224 0.11827 0.0
H5197 H 0.42086 0.73698 0.13622 0.0
H5198 H 0.45265 0.73439 0.18269 0.0
H5199 H 0.47922 0.73991 0.16501 0.0
C5200 C 0.54062 0.70124 0.10084 0.0
C5201 C 0.54377 0.69051 0.11546 0.0
C5202 C 0.53005 0.71609 0.10236 0.0
C5203 C 0.52311 0.721 0.11873 0.0
C5204 C 0.52735 0.71095 0.13359 0.0
C5205 C 0.53737 0.69572 0.13194 0.0
C5206 C 0.51021 0.73556 0.12008 0.0
C5207 C 0.4945 0.73257 0.12934 0.0
C5208 C 0.51272 0.75186 0.11147 0.0
C5209 C 0.52956 0.75665 0.10291 0.0
C5210 C 0.54549 0.75542 0.11218 0.0
C5211 C 0.56131 0.7598 0.104 0.0
C5212 C 0.56138 0.76553 0.08659 0.0
C5213 C 0.54562 0.76696 0.07733 0.0
C5214 C 0.52975 0.76259 0.08544 0.0
C5215 C 0.46115 0.80296 0.13328 0.0
C5216 C 0.44929 0.80527 0.11934 0.0
C5217 C 0.4715 0.78793 0.13421 0.0
C5218 C 0.47029 0.77514 0.12111 0.0
C5219 C 0.458 0.77702 0.10755 0.0
C5220 C 0.44734 0.79192 0.10682 0.0
C5221 C 0.48339 0.76099 0.12051 0.0
C5222 C 0.49911 0.76422 0.11156 0.0
C5223 C 0.48114 0.74519 0.1298 0.0
C5224 C 0.46518 0.74173 0.14036 0.0
C5225 C 0.4486 0.74076 0.13234 0.0
C5226 C 0.43361 0.73768 0.14245 0.0
C5227 C 0.43507 0.73542 0.16059 0.0
C5228 C 0.45153 0.73618 0.16864 0.0
C5229 C 0.46656 0.73927 0.15858 0.0
H5230 H 0.42345 0.73304 0.1684 0.0
H5231 H 0.57365 0.7689 0.08028 0.0
H5232 H 0.10794 0.16929 0.3345 0.0
H5233 H 0.11305 0.19888 0.34562 0.0
H5234 H 0.16704 0.18577 0.35635 0.0
H5235 H 0.16222 0.15615 0.34478 0.0
H5236 H 0.14748 0.20178 0.38461 0.0
H5237 H 0.16229 0.21104 0.32465 0.0
H5238 H 0.16048 0.21262 0.2924 0.0
H5239 H 0.11451 0.24493 0.29617 0.0
H5240 H 0.11587 0.24336 0.32847 0.0
H5241 H 0.16533 0.28694 0.41372 0.0
H5242 H 0.16878 0.26042 0.39592 0.0
H5243 H 0.11802 0.26963 0.37244 0.0
H5244 H 0.11491 0.29653 0.38973 0.0
H5245 H 0.14002 0.2558 0.34903 0.0
H5246 H 0.12284 0.243 0.40882 0.0
H5247 H 0.12617 0.24434 0.44099 0.0
H5248 H 0.1764 0.2191 0.43716 0.0
H5249 H 0.17344 0.2178 0.40492 0.0
C5250 C 0.12086 0.17257 0.33944 0.0
C5251 C 0.13467 0.16033 0.33887 0.0
C5252 C 0.12381 0.18957 0.34551 0.0
C5253 C 0.14049 0.19451 0.35142 0.0
C5254 C 0.15414 0.18218 0.35157 0.0
C5255 C 0.15131 0.16526 0.34515 0.0
C5256 C 0.1432 0.2122 0.3587 0.0
C5257 C 0.14619 0.2136 0.37678 0.0
C5258 C 0.14108 0.22753 0.34845 0.0
C5259 C 0.13914 0.22699 0.32904 0.0
C5260 C 0.15161 0.21823 0.31864 0.0
C5261 C 0.15076 0.21926 0.30033 0.0
C5262 C 0.13754 0.22908 0.29226 0.0
C5263 C 0.12488 0.23752 0.30246 0.0
C5264 C 0.12566 0.23653 0.32076 0.0
C5265 C 0.15511 0.28342 0.40448 0.0
C5266 C 0.13986 0.2936 0.40304 0.0
C5267 C 0.15705 0.26831 0.39438 0.0
C5268 C 0.14348 0.26288 0.38317 0.0
C5269 C 0.12864 0.27359 0.38103 0.0
C5270 C 0.12686 0.28891 0.39088 0.0
C5271 C 0.14395 0.24533 0.37495 0.0
C5272 C 0.14148 0.24394 0.35678 0.0
C5273 C 0.14634 0.22995 0.38509 0.0
C5274 C 0.14799 0.23045 0.40448 0.0
C5275 C 0.13462 0.23781 0.41484 0.0
C5276 C 0.13644 0.23856 0.43308 0.0
C5277 C 0.1515 0.23185 0.44111 0.0
C5278 C 0.16475 0.22431 0.43092 0.0
C5279 C 0.163 0.22355 0.41267 0.0
H5280 H 0.1529 0.23245 0.45523 0.0
H5281 H 0.13699 0.22998 0.2781 0.0
H5282 H 0.40921 0.57846 0.90503 0.0
H5283 H 0.43899 0.57658 0.89328 0.0
H5284 H 0.43656 0.63118 0.87847 0.0
H5285 H 0.40675 0.63301 0.88948 0.0
H5286 H 0.45352 0.61486 0.85516 0.0
H5287 H 0.4558 0.61638 0.91807 0.0
H5288 H 0.45038 0.60702 0.94859 0.0
H5289 H 0.47558 0.55771 0.93825 0.0
H5290 H 0.48099 0.56671 0.90762 0.0
H5291 H 0.54083 0.63988 0.85254 0.0
H5292 H 0.51298 0.63581 0.86815 0.0
H5293 H 0.5172 0.5798 0.86122 0.0
H5294 H 0.54504 0.58391 0.84546 0.0
H5295 H 0.50027 0.59425 0.89561 0.0
H5296 H 0.49784 0.59614 0.83111 0.0
H5297 H 0.50556 0.60991 0.80285 0.0
H5298 H 0.4814 0.65805 0.81939 0.0
H5299 H 0.47382 0.64463 0.84787 0.0
C5300 C 0.41484 0.58993 0.89882 0.0
C5301 C 0.40566 0.60595 0.8984 0.0
C5302 C 0.43196 0.58889 0.89234 0.0
C5303 C 0.4402 0.60388 0.88552 0.0
C5304 C 0.43055 0.61947 0.88383 0.0
C5305 C 0.41342 0.62047 0.89009 0.0
C5306 C 0.459 0.6037 0.88059 0.0
C5307 C 0.46367 0.61039 0.86409 0.0
C5308 C 0.47235 0.5978 0.8922 0.0
C5309 C 0.46858 0.59212 0.91046 0.0
C5310 C 0.45999 0.60345 0.92224 0.0
C5311 C 0.45698 0.59824 0.93958 0.0
C5312 C 0.46259 0.58176 0.94534 0.0
C5313 C 0.47121 0.57046 0.93376 0.0
C5314 C 0.47425 0.57561 0.91641 0.0
C5315 C 0.5361 0.6267 0.85502 0.0
C5316 C 0.54487 0.61217 0.848 0.0
C5317 C 0.52028 0.62438 0.86388 0.0
C5318 C 0.5131 0.60752 0.86569 0.0
C5319 C 0.52267 0.59287 0.86003 0.0
C5320 C 0.53846 0.59521 0.85105 0.0
C5321 C 0.49448 0.60557 0.87044 0.0
C5322 C 0.48995 0.59847 0.88676 0.0
C5323 C 0.48121 0.61153 0.85894 0.0
C5324 C 0.48538 0.61942 0.84164 0.0
C5325 C 0.49428 0.60969 0.82875 0.0
C5326 C 0.49862 0.61743 0.8127 0.0
C5327 C 0.494 0.63485 0.80934 0.0
C5328 C 0.48498 0.64456 0.82201 0.0
C5329 C 0.48065 0.63689 0.8381 0.0
H5330 H 0.49737 0.64082 0.7969 0.0
H5331 H 0.46031 0.57778 0.95878 0.0
H5332 H 0.88623 0.32834 0.34032 0.0
H5333 H 0.88239 0.29885 0.35211 0.0
H5334 H 0.8266 0.3073 0.35583 0.0
H5335 H 0.83018 0.33684 0.3435 0.0
H5336 H 0.84726 0.29141 0.38711 0.0
H5337 H 0.83513 0.28516 0.32496 0.0
H5338 H 0.84151 0.28846 0.2934 0.0
H5339 H 0.88895 0.25875 0.29959 0.0
H5340 H 0.88304 0.25552 0.33124 0.0
H5341 H 0.83241 0.20578 0.41299 0.0
H5342 H 0.82779 0.23212 0.3952 0.0
H5343 H 0.87839 0.2245 0.37089 0.0
H5344 H 0.88249 0.19751 0.38801 0.0
H5345 H 0.8571 0.23995 0.34838 0.0
H5346 H 0.87409 0.24954 0.40804 0.0
H5347 H 0.87192 0.24612 0.44014 0.0
H5348 H 0.82097 0.27017 0.4395 0.0
H5349 H 0.82274 0.2735 0.40732 0.0
C5350 C 0.87315 0.32412 0.34393 0.0
C5351 C 0.85848 0.33494 0.34094 0.0
C5352 C 0.87099 0.30719 0.35047 0.0
C5353 C 0.8542 0.30089 0.35444 0.0
C5354 C 0.83963 0.31196 0.35258 0.0
C5355 C 0.84172 0.32883 0.34568 0.0
C5356 C 0.85208 0.28273 0.36071 0.0
C5357 C 0.84899 0.28012 0.37861 0.0
C5358 C 0.85509 0.26816 0.34961 0.0
C5359 C 0.85872 0.27027 0.33056 0.0
C5360 C 0.84704 0.27952 0.31966 0.0
C5361 C 0.85054 0.28133 0.30173 0.0
C5362 C 0.86565 0.27386 0.29453 0.0
C5363 C 0.87727 0.26455 0.30521 0.0
C5364 C 0.87384 0.26271 0.32314 0.0
C5365 C 0.84228 0.20954 0.40348 0.0
C5366 C 0.85786 0.19993 0.4019 0.0
C5367 C 0.83968 0.22455 0.39337 0.0
C5368 C 0.85298 0.23055 0.38211 0.0
C5369 C 0.868 0.22017 0.37957 0.0
C5370 C 0.87038 0.20484 0.38936 0.0
C5371 C 0.85223 0.24858 0.37485 0.0
C5372 C 0.85497 0.2512 0.35684 0.0
C5373 C 0.84948 0.26328 0.38591 0.0
C5374 C 0.84847 0.26161 0.40528 0.0
C5375 C 0.86239 0.25402 0.41474 0.0
C5376 C 0.86123 0.2521 0.43294 0.0
C5377 C 0.8463 0.25789 0.44185 0.0
C5378 C 0.83251 0.26567 0.43257 0.0
C5379 C 0.83359 0.26759 0.41436 0.0
H5380 H 0.84542 0.25638 0.45594 0.0
H5381 H 0.86836 0.27525 0.28068 0.0
H5382 H 0.45034 0.85769 0.85807 0.0
H5383 H 0.47733 0.86344 0.87458 0.0
H5384 H 0.47895 0.91601 0.85345 0.0
H5385 H 0.45245 0.90985 0.83632 0.0
H5386 H 0.50758 0.90067 0.84634 0.0
H5387 H 0.47485 0.90686 0.89904 0.0
H5388 H 0.45358 0.89991 0.92238 0.0
H5389 H 0.48156 0.8525 0.93424 0.0
H5390 H 0.50286 0.85899 0.91079 0.0
H5391 H 0.58818 0.91429 0.89706 0.0
H5392 H 0.55793 0.91747 0.88643 0.0
H5393 H 0.55219 0.86123 0.88554 0.0
H5394 H 0.58234 0.85781 0.89553 0.0
H5395 H 0.5255 0.88325 0.90641 0.0
H5396 H 0.55376 0.87486 0.84972 0.0
H5397 H 0.57577 0.88214 0.82717 0.0
H5398 H 0.55571 0.9347 0.82417 0.0
H5399 H 0.53371 0.92777 0.84692 0.0
C5400 C 0.45627 0.87059 0.85742 0.0
C5401 C 0.4496 0.88332 0.84598 0.0
C5402 C 0.47159 0.87395 0.86693 0.0
C5403 C 0.4802 0.8902 0.86529 0.0
C5404 C 0.4726 0.90337 0.85486 0.0
C5405 C 0.45751 0.89989 0.84512 0.0
C5406 C 0.4984 0.89233 0.87186 0.0
C5407 C 0.51133 0.8973 0.85966 0.0
C5408 C 0.50347 0.88756 0.88911 0.0
C5409 C 0.49042 0.88337 0.90301 0.0
C5410 C 0.47638 0.89485 0.90648 0.0
C5411 C 0.46433 0.89101 0.91977 0.0
C5412 C 0.46619 0.87576 0.92976 0.0
C5413 C 0.48012 0.8643 0.92648 0.0
C5414 C 0.4922 0.86807 0.9132 0.0
C5415 C 0.58063 0.9026 0.89413 0.0
C5416 C 0.58768 0.88581 0.89719 0.0
C5417 C 0.56335 0.90445 0.88825 0.0
C5418 C 0.55287 0.88957 0.88562 0.0
C5419 C 0.5601 0.87284 0.88777 0.0
C5420 C 0.57742 0.87095 0.89326 0.0
C5421 C 0.53424 0.89128 0.88081 0.0
C5422 C 0.52142 0.88699 0.89329 0.0
C5423 C 0.52917 0.89671 0.8639 0.0
C5424 C 0.54227 0.90087 0.85017 0.0
C5425 C 0.55416 0.88802 0.84438 0.0
C5426 C 0.56661 0.89206 0.83153 0.0
C5427 C 0.56719 0.90889 0.82429 0.0
C5428 C 0.55527 0.92169 0.82983 0.0
C5429 C 0.54281 0.9177 0.84269 0.0
H5430 H 0.57683 0.912 0.81434 0.0
H5431 H 0.45688 0.87283 0.94007 0.0
H5432 H 0.16619 0.83707 0.15307 0.0
H5433 H 0.16805 0.80638 0.14398 0.0
H5434 H 0.1147 0.80853 0.12527 0.0
H5435 H 0.11269 0.83918 0.13407 0.0
H5436 H 0.12102 0.78202 0.1508 0.0
H5437 H 0.14524 0.80403 0.09658 0.0
H5438 H 0.16605 0.82136 0.0789 0.0
H5439 H 0.2091 0.7918 0.10006 0.0
H5440 H 0.18853 0.77442 0.11806 0.0
H5441 H 0.10544 0.70953 0.09649 0.0
H5442 H 0.10951 0.737 0.11248 0.0
H5443 H 0.16257 0.72181 0.12525 0.0
H5444 H 0.15834 0.69403 0.1093 0.0
H5445 H 0.16038 0.75341 0.10762 0.0
H5446 H 0.13475 0.72757 0.15777 0.0
H5447 H 0.11349 0.71034 0.17498 0.0
H5448 H 0.07269 0.74685 0.16174 0.0
H5449 H 0.0936 0.76414 0.14414 0.0
C5450 C 0.15504 0.83123 0.14647 0.0
C5451 C 0.13919 0.84056 0.14458 0.0
C5452 C 0.15609 0.81363 0.14142 0.0
C5453 C 0.14136 0.80515 0.13436 0.0
C5454 C 0.1261 0.81483 0.13098 0.0
C5455 C 0.12507 0.83243 0.13586 0.0
C5456 C 0.14137 0.78596 0.13159 0.0
C5457 C 0.12951 0.77571 0.14128 0.0
C5458 C 0.15301 0.77779 0.11974 0.0
C5459 C 0.16538 0.78808 0.10882 0.0
C5460 C 0.15916 0.80133 0.09758 0.0
C5461 C 0.1709 0.81113 0.08747 0.0
C5462 C 0.18889 0.80772 0.0884 0.0
C5463 C 0.19516 0.79444 0.09938 0.0
C5464 C 0.18347 0.7846 0.10953 0.0
C5465 C 0.11773 0.71182 0.10328 0.0
C5466 C 0.13154 0.69978 0.1019 0.0
C5467 C 0.12006 0.72746 0.11241 0.0
C5468 C 0.13632 0.73139 0.12009 0.0
C5469 C 0.14989 0.71893 0.11949 0.0
C5470 C 0.14746 0.70309 0.11053 0.0
C5471 C 0.1396 0.74943 0.1264 0.0
C5472 C 0.15211 0.75956 0.11742 0.0
C5473 C 0.1285 0.75748 0.1389 0.0
C5474 C 0.11579 0.74713 0.14951 0.0
C5475 C 0.12122 0.73186 0.15838 0.0
C5476 C 0.10922 0.72209 0.16823 0.0
C5477 C 0.09175 0.72749 0.16943 0.0
C5478 C 0.08624 0.74269 0.1608 0.0
C5479 C 0.09817 0.75249 0.15089 0.0
H5480 H 0.08248 0.7199 0.17707 0.0
H5481 H 0.19797 0.81534 0.08057 0.0
H5482 H 0.96694 0.59431 0.17404 0.0
H5483 H 0.99328 0.59152 0.15608 0.0
H5484 H 0.96814 0.62014 0.11427 0.0
H5485 H 0.94183 0.62359 0.13242 0.0
H5486 H 0.99251 0.58594 0.10648 0.0
H5487 H 0.99012 0.64486 0.12974 0.0
H5488 H 0.9842 0.66654 0.15301 0.0
H5489 H 0.02256 0.64188 0.18613 0.0
H5490 H 0.0285 0.61988 0.16312 0.0
H5491 H 0.07373 0.60636 0.06528 0.0
H5492 H 0.04394 0.60564 0.07667 0.0
H5493 H 0.06432 0.60138 0.12943 0.0
H5494 H 0.09442 0.60359 0.1179 0.0
H5495 H 0.04015 0.62428 0.12896 0.0
H5496 H 0.04319 0.56555 0.10373 0.0
H5497 H 0.04844 0.54456 0.07965 0.0
H5498 H 0.00849 0.56954 0.04874 0.0
H5499 H 0.00311 0.59077 0.07257 0.0
C5500 C 0.96689 0.59983 0.16094 0.0
C5501 C 0.95227 0.60909 0.15463 0.0
C5502 C 0.98188 0.59809 0.15067 0.0
C5503 C 0.98252 0.60557 0.13392 0.0
C5504 C 0.96771 0.61409 0.12713 0.0
C5505 C 0.95267 0.61597 0.1375 0.0
C5506 C -0.0005 0.60628 0.12474 0.0
C5507 C 0.00293 0.59446 0.11112 0.0
C5508 C 0.01297 0.61732 0.13101 0.0
C5509 C 0.00962 0.63063 0.1448 0.0
C5510 C -0.00283 0.64397 0.14205 0.0
C5511 C 0.99383 0.65634 0.15517 0.0
C5512 C 0.00296 0.65556 0.17106 0.0
C5513 C 0.01548 0.64245 0.17382 0.0
C5514 C 0.01885 0.63004 0.16074 0.0
C5515 C 0.0718 0.60492 0.0793 0.0
C5516 C 0.0862 0.60469 0.09078 0.0
C5517 C 0.05476 0.6044 0.08579 0.0
C5518 C 0.05179 0.60297 0.10389 0.0
C5519 C 0.06629 0.60236 0.11539 0.0
C5520 C 0.08343 0.60349 0.10888 0.0
C5521 C 0.03363 0.60348 0.11087 0.0
C5522 C 0.02988 0.61568 0.12414 0.0
C5523 C 0.01988 0.59289 0.10404 0.0
C5524 C 0.02283 0.57981 0.08991 0.0
C5525 C 0.03556 0.56659 0.09178 0.0
C5526 C 0.03856 0.55465 0.07817 0.0
C5527 C 0.02882 0.55573 0.06266 0.0
C5528 C 0.01601 0.56871 0.06076 0.0
C5529 C 0.01296 0.58067 0.07433 0.0
H5530 H 0.03119 0.54651 0.05213 0.0
H5531 H 0.00036 0.66514 0.18121 0.0
H5532 H 0.83183 0.78482 0.08205 0.0
H5533 H 0.83028 0.75733 0.09841 0.0
H5534 H 0.87362 0.77408 0.13079 0.0
H5535 H 0.87523 0.80168 0.11436 0.0
H5536 H 0.87965 0.74331 0.11274 0.0
H5537 H 0.83532 0.76709 0.1498 0.0
H5538 H 0.80787 0.78278 0.15661 0.0
H5539 H 0.77825 0.74365 0.12894 0.0
H5540 H 0.80556 0.72783 0.12174 0.0
H5541 H 0.88545 0.66685 0.16186 0.0
H5542 H 0.88194 0.69658 0.15162 0.0
H5543 H 0.83393 0.68218 0.12518 0.0
H5544 H 0.83668 0.65216 0.13686 0.0
H5545 H 0.82988 0.71239 0.14112 0.0
H5546 H 0.87469 0.68957 0.10267 0.0
H5547 H 0.9023 0.67392 0.09627 0.0
H5548 H 0.93113 0.71179 0.12642 0.0
H5549 H 0.90368 0.72756 0.13315 0.0
C5550 C 0.84066 0.78283 0.09301 0.0
C5551 C 0.85363 0.79528 0.09702 0.0
C5552 C 0.8397 0.7672 0.1024 0.0
C5553 C 0.85181 0.76374 0.11579 0.0
C5554 C 0.86411 0.77663 0.12054 0.0
C5555 C 0.86494 0.79239 0.11125 0.0
C5556 C 0.85333 0.74576 0.12274 0.0
C5557 C 0.8689 0.73662 0.11925 0.0
C5558 C 0.83903 0.73699 0.13062 0.0
C5559 C 0.82253 0.74634 0.13511 0.0
C5560 C 0.82297 0.76189 0.14505 0.0
C5561 C 0.80743 0.77079 0.14901 0.0
C5562 C 0.79133 0.76424 0.14318 0.0
C5563 C 0.79074 0.74872 0.13344 0.0
C5564 C 0.80624 0.73976 0.12944 0.0
C5565 C 0.87432 0.66979 0.15352 0.0
C5566 C 0.86151 0.65706 0.14982 0.0
C5567 C 0.87233 0.68689 0.14767 0.0
C5568 C 0.85794 0.69155 0.13722 0.0
C5569 C 0.84522 0.67881 0.13314 0.0
C5570 C 0.84688 0.66167 0.13959 0.0
C5571 C 0.85622 0.70989 0.13106 0.0
C5572 C 0.84064 0.71908 0.13462 0.0
C5573 C 0.87049 0.71878 0.12313 0.0
C5574 C 0.88711 0.70971 0.11846 0.0
C5575 C 0.88692 0.69455 0.10793 0.0
C5576 C 0.90254 0.68565 0.10427 0.0
C5577 C 0.91845 0.69185 0.11095 0.0
C5578 C 0.9188 0.70702 0.12123 0.0
C5579 C 0.90322 0.71597 0.12494 0.0
H5580 H 0.93052 0.6849 0.10816 0.0
H5581 H 0.77932 0.77116 0.14624 0.0
H5582 H 0.90938 0.91429 0.08524 0.0
H5583 H 0.93908 0.91491 0.09705 0.0
H5584 H 0.92835 0.8683 0.12719 0.0
H5585 H 0.89865 0.86701 0.11481 0.0
H5586 H 0.95073 0.90541 0.14078 0.0
H5587 H 0.94562 0.85313 0.10227 0.0
H5588 H 0.93642 0.83911 0.0746 0.0
H5589 H 0.96741 0.87591 0.04534 0.0
H5590 H 0.97642 0.89047 0.07288 0.0
H5591 H 0.02629 0.86479 0.16865 0.0
H5592 H -0.00209 0.86806 0.15431 0.0
H5593 H 0.02139 0.90095 0.11471 0.0
H5594 H 0.05004 0.89795 0.12926 0.0
H5595 H 0.99379 0.8741 0.10313 0.0
H5596 H 0.00331 0.9228 0.14161 0.0
H5597 H 0.01275 0.93706 0.16908 0.0
H5598 H 0.97404 0.90793 0.19782 0.0
H5599 H 0.96456 0.89328 0.17055 0.0
C5600 C 0.91307 0.90444 0.09481 0.0
C5601 C 0.90172 0.89047 0.09899 0.0
C5602 C 0.93011 0.90477 0.10139 0.0
C5603 C 0.93585 0.89142 0.11256 0.0
C5604 C 0.92406 0.87853 0.1183 0.0
C5605 C 0.90711 0.8779 0.11136 0.0
C5606 C 0.9545 0.89032 0.11724 0.0
C5607 C 0.96015 0.8985 0.13265 0.0
C5608 C 0.96674 0.88183 0.10617 0.0
C5609 C 0.96134 0.87315 0.08961 0.0
C5610 C 0.9502 0.85845 0.08993 0.0
C5611 C 0.94507 0.85037 0.07428 0.0
C5612 C 0.95118 0.85673 0.05823 0.0
C5613 C 0.96256 0.87111 0.05779 0.0
C5614 C 0.96766 0.8793 0.07341 0.0
C5615 C 0.02549 0.87252 0.15674 0.0
C5616 C 0.04032 0.88113 0.15005 0.0
C5617 C 0.00931 0.87431 0.14856 0.0
C5618 C 0.00764 0.88484 0.13361 0.0
C5619 C 0.02256 0.8927 0.12623 0.0
C5620 C 0.03887 0.89092 0.13448 0.0
C5621 C 0.98993 0.88873 0.127 0.0
C5622 C 0.98443 0.88121 0.11117 0.0
C5623 C 0.9778 0.89792 0.13763 0.0
C5624 C 0.98331 0.90685 0.15405 0.0
C5625 C -0.0031 0.91933 0.15381 0.0
C5626 C 0.00225 0.9275 0.16934 0.0
C5627 C 0.99402 0.92338 0.18519 0.0
C5628 C 0.9804 0.9111 0.18553 0.0
C5629 C 0.97502 0.90288 0.17004 0.0
H5630 H -0.00182 0.92972 0.1972 0.0
H5631 H 0.94718 0.85043 0.04616 0.0
H5632 H 0.37556 0.12024 0.30351 0.0
H5633 H 0.35823 0.12541 0.27692 0.0
H5634 H 0.40172 0.15354 0.25405 0.0
H5635 H 0.41884 0.14885 0.28066 0.0
H5636 H 0.37026 0.16743 0.24372 0.0
H5637 H 0.39795 0.10945 0.24871 0.0
H5638 H 0.40281 0.08064 0.26267 0.0
H5639 H 0.34778 0.06915 0.25874 0.0
H5640 H 0.34258 0.09801 0.24496 0.0
H5641 H 0.36294 0.15261 0.15143 0.0
H5642 H 0.37274 0.15537 0.18214 0.0
H5643 H 0.33142 0.12008 0.19825 0.0
H5644 H 0.32266 0.11634 0.16797 0.0
H5645 H 0.35846 0.11092 0.2137 0.0
H5646 H 0.33063 0.16655 0.2049 0.0
H5647 H 0.32512 0.19496 0.1904 0.0
H5648 H 0.37798 0.21111 0.20132 0.0
H5649 H 0.38389 0.18271 0.21568 0.0
C5650 C 0.38116 0.12807 0.29307 0.0
C5651 C 0.39854 0.13408 0.29405 0.0
C5652 C 0.3713 0.13092 0.27786 0.0
C5653 C 0.37883 0.13965 0.26348 0.0
C5654 C 0.39569 0.14677 0.26501 0.0
C5655 C 0.4055 0.14394 0.28014 0.0
C5656 C 0.37043 0.13927 0.24603 0.0
C5657 C 0.36759 0.15512 0.23709 0.0
C5658 C 0.36672 0.12319 0.23758 0.0
C5659 C 0.36985 0.10594 0.24602 0.0
C5660 C 0.38688 0.10083 0.25097 0.0
C5661 C 0.38969 0.08449 0.25882 0.0
C5662 C 0.37561 0.0731 0.26164 0.0
C5663 C 0.35867 0.07801 0.25659 0.0
C5664 C 0.35578 0.09435 0.24876 0.0
C5665 C 0.35629 0.14526 0.1616 0.0
C5666 C 0.34247 0.13388 0.15738 0.0
C5667 C 0.36165 0.14702 0.17911 0.0
C5668 C 0.35269 0.13801 0.19254 0.0
C5669 C 0.33868 0.12697 0.18817 0.0
C5670 C 0.33378 0.12475 0.17081 0.0
C5671 C 0.35824 0.13914 0.21113 0.0
C5672 C 0.36067 0.12335 0.2203 0.0
C5673 C 0.3613 0.15529 0.21977 0.0
C5674 C 0.35774 0.17243 0.21124 0.0
C5675 C 0.34111 0.17611 0.20411 0.0
C5676 C 0.33791 0.19222 0.19593 0.0
C5677 C 0.3512 0.20481 0.1949 0.0
C5678 C 0.36771 0.20134 0.20211 0.0
C5679 C 0.37098 0.18525 0.21029 0.0
H5680 H 0.3487 0.21727 0.18856 0.0
H5681 H 0.37782 0.06045 0.2677 0.0
H5682 H 0.39781 0.37912 0.09359 0.0
H5683 H 0.40091 0.36806 0.06331 0.0
H5684 H 0.37881 0.4164 0.04355 0.0
H5685 H 0.37495 0.42685 0.07345 0.0
H5686 H 0.3636 0.39063 0.02861 0.0
H5687 H 0.42357 0.40603 0.04036 0.0
H5688 H 0.45166 0.40558 0.05645 0.0
H5689 H 0.45607 0.35009 0.04781 0.0
H5690 H 0.42788 0.35016 0.03187 0.0
H5691 H 0.37523 0.36852 0.93964 0.0
H5692 H 0.38003 0.385 0.96672 0.0
H5693 H 0.40048 0.33835 0.99151 0.0
H5694 H 0.39665 0.32214 0.9643 0.0
H5695 H 0.41791 0.36603 0.0026 0.0
H5696 H 0.3562 0.35064 0.99401 0.0
H5697 H 0.32789 0.35118 0.97827 0.0
H5698 H 0.32698 0.40743 0.98126 0.0
H5699 H 0.35539 0.40722 -0.00316 0.0
C5700 C 0.39358 0.38718 0.08268 0.0
C5701 C 0.38581 0.40357 0.08563 0.0
C5702 C 0.3955 0.38102 0.06546 0.0
C5703 C 0.39015 0.39148 0.05117 0.0
C5704 C 0.38287 0.40805 0.05432 0.0
C5705 C 0.38062 0.41397 0.07137 0.0
C5706 C 0.39102 0.38499 0.03291 0.0
C5707 C 0.37558 0.38552 0.02285 0.0
C5708 C 0.40657 0.37814 0.02547 0.0
C5709 C 0.42352 0.37808 0.03506 0.0
C5710 C 0.43046 0.39371 0.04201 0.0
C5711 C 0.44641 0.39353 0.05108 0.0
C5712 C 0.45562 0.37781 0.05319 0.0
C5713 C 0.44891 0.36225 0.04619 0.0
C5714 C 0.43296 0.36236 0.03712 0.0
C5715 C 0.38135 0.36195 0.95062 0.0
C5716 C 0.38565 0.34405 0.94982 0.0
C5717 C 0.38387 0.37133 0.96618 0.0
C5718 C 0.39036 0.36281 0.98118 0.0
C5719 C 0.39545 0.34519 0.98009 0.0
C5720 C 0.39311 0.3359 0.96457 0.0
C5721 C 0.39048 0.37153 -0.00151 0.0
C5722 C 0.40605 0.37139 0.00836 0.0
C5723 C 0.37506 0.37882 0.00579 0.0
C5724 C 0.35801 0.37892 0.99639 0.0
C5725 C 0.35002 0.36312 0.99119 0.0
C5726 C 0.33395 0.36337 0.98232 0.0
C5727 C 0.32567 0.37933 0.97872 0.0
C5728 C 0.33342 0.39508 0.98402 0.0
C5729 C 0.3495 0.3949 0.99287 0.0
H5730 H 0.31323 0.3795 0.97185 0.0
H5731 H 0.46797 0.3777 0.06021 0.0
H5732 H 0.57562 0.33636 0.28337 0.0
H5733 H 0.59149 0.3344 0.25576 0.0
H5734 H 0.63197 0.36815 0.2765 0.0
H5735 H 0.61567 0.37082 0.30399 0.0
H5736 H 0.62037 0.38003 0.24638 0.0
H5737 H 0.64026 0.32452 0.26661 0.0
H5738 H 0.63764 0.29507 0.27973 0.0
H5739 H 0.60427 0.27882 0.23733 0.0
H5740 H 0.60649 0.30825 0.22406 0.0
H5741 H 0.67143 0.37617 0.17084 0.0
H5742 H 0.66066 0.37248 0.20054 0.0
H5743 H 0.61913 0.33896 0.18149 0.0
H5744 H 0.63088 0.3417 0.15139 0.0
H5745 H 0.6328 0.32654 0.21141 0.0
H5746 H 0.61227 0.38375 0.19246 0.0
H5747 H 0.61643 0.4132 0.17967 0.0
H5748 H 0.65284 0.42618 0.22067 0.0
H5749 H 0.64905 0.39675 0.23359 0.0
C5750 C 0.58808 0.34311 0.28218 0.0
C5751 C 0.59447 0.35363 0.29589 0.0
C5752 C 0.59722 0.34184 0.26644 0.0
C5753 C 0.61302 0.35097 0.26414 0.0
C5754 C 0.61985 0.3609 0.27809 0.0
C5755 C 0.61063 0.36224 0.29387 0.0
C5756 C 0.62111 0.35176 0.24652 0.0
C5757 C 0.62341 0.36833 0.23887 0.0
C5758 C 0.62464 0.33648 0.23658 0.0
C5759 C 0.62345 0.31866 0.24439 0.0
C5760 C 0.63227 0.3147 0.26013 0.0
C5761 C 0.63087 0.298 0.26759 0.0
C5762 C 0.62077 0.28509 0.25938 0.0
C5763 C 0.61209 0.28884 0.24367 0.0
C5764 C 0.61345 0.30552 0.23615 0.0
C5765 C 0.65982 0.36821 0.17292 0.0
C5766 C 0.65158 0.35964 0.15886 0.0
C5767 C 0.65371 0.36609 0.18991 0.0
C5768 C 0.63876 0.35592 0.19317 0.0
C5769 C 0.63059 0.34705 0.17917 0.0
C5770 C 0.63713 0.34872 0.16205 0.0
C5771 C 0.63186 0.35479 0.21128 0.0
C5772 C 0.62979 0.3382 0.21899 0.0
C5773 C 0.62866 0.37007 0.22137 0.0
C5774 C 0.63042 0.38801 0.21395 0.0
C5775 C 0.62117 0.39288 0.19874 0.0
C5776 C 0.62348 0.40957 0.19145 0.0
C5777 C 0.63491 0.42154 0.19934 0.0
C5778 C 0.64399 0.4169 0.21458 0.0
C5779 C 0.64173 0.40023 0.22191 0.0
H5780 H 0.63672 0.43443 0.19365 0.0
H5781 H 0.61969 0.27218 0.26519 0.0
H5782 H 0.63047 0.10836 0.08829 0.0
H5783 H 0.62936 0.11965 0.05844 0.0
H5784 H 0.57642 0.10042 0.05281 0.0
H5785 H 0.57745 0.08883 0.08269 0.0
H5786 H 0.59839 0.0889 0.02628 0.0
H5787 H 0.5834 0.14361 0.05344 0.0
H5788 H 0.58679 0.16742 0.07508 0.0
H5789 H 0.63822 0.17872 0.05506 0.0
H5790 H 0.63523 0.15483 0.03344 0.0
H5791 H 0.58715 0.13285 0.94265 0.0
H5792 H 0.58527 0.11876 0.97158 0.0
H5793 H 0.63696 0.13819 0.9843 0.0
H5794 H 0.63858 0.15256 0.95564 0.0
H5795 H 0.61302 0.14932 0.00714 0.0
H5796 H 0.62902 0.09426 0.98107 0.0
H5797 H 0.62698 0.06949 0.96036 0.0
H5798 H 0.57478 0.05833 0.97836 0.0
H5799 H 0.57642 0.0832 -0.00097 0.0
C5800 C 0.61838 0.10697 0.08094 0.0
C5801 C 0.60411 0.09754 0.08785 0.0
C5802 C 0.61779 0.11339 0.06383 0.0
C5803 C 0.60287 0.1107 0.05339 0.0
C5804 C 0.58811 0.10247 0.06065 0.0
C5805 C 0.58866 0.09606 0.07782 0.0
C5806 C 0.60326 0.11549 0.03461 0.0
C5807 C 0.60123 0.10217 0.02201 0.0
C5808 C 0.60745 0.13269 0.02917 0.0
C5809 C 0.60912 0.14736 0.04188 0.0
C5810 C 0.59546 0.15113 0.0537 0.0
C5811 C 0.59731 0.16464 0.06596 0.0
C5812 C 0.61272 0.17456 0.06646 0.0
C5813 C 0.62629 0.17103 0.05465 0.0
C5814 C 0.62451 0.15753 0.04237 0.0
C5815 C 0.59831 0.13348 0.95144 0.0
C5816 C 0.61301 0.14365 0.94713 0.0
C5817 C 0.59724 0.12549 0.96793 0.0
C5818 C 0.61094 0.12755 0.98011 0.0
C5819 C 0.62622 0.13654 0.97512 0.0
C5820 C 0.62719 0.14464 0.95878 0.0
C5821 C 0.60846 0.12269 -0.00128 0.0
C5822 C 0.61003 0.13605 0.01132 0.0
C5823 C 0.60391 0.10553 0.00408 0.0
C5824 C 0.60276 0.09075 0.99145 0.0
C5825 C 0.61703 0.08666 0.98047 0.0
C5826 C 0.61596 0.07257 0.96878 0.0
C5827 C 0.60074 0.06238 0.96801 0.0
C5828 C 0.58655 0.06626 0.97895 0.0
C5829 C 0.58754 0.08036 0.99065 0.0
H5830 H 0.59995 0.05146 0.95897 0.0
H5831 H 0.61414 0.185 0.07599 0.0
H5832 H 0.33763 0.88524 0.32748 0.0
H5833 H 0.34784 0.88084 0.29751 0.0
H5834 H 0.365 0.8286 0.31074 0.0
H5835 H 0.35427 0.83263 0.34085 0.0
H5836 H 0.38971 0.85259 0.29137 0.0
H5837 H 0.33192 0.82815 0.28958 0.0
H5838 H 0.29983 0.82663 0.2932 0.0
H5839 H 0.29349 0.87078 0.25883 0.0
H5840 H 0.32559 0.87282 0.25525 0.0
H5841 H 0.41368 0.83265 0.20642 0.0
H5842 H 0.39738 0.82831 0.23368 0.0
H5843 H 0.36756 0.87533 0.22337 0.0
H5844 H 0.3835 0.87936 0.19568 0.0
H5845 H 0.34802 0.85081 0.2413 0.0
H5846 H 0.40457 0.87834 0.24629 0.0
H5847 H 0.4365 0.88088 0.24167 0.0
H5848 H 0.44474 0.833 0.27021 0.0
H5849 H 0.41281 0.83005 0.27477 0.0
C5850 C 0.34388 0.87291 0.32419 0.0
C5851 C 0.34523 0.85928 0.33658 0.0
C5852 C 0.34945 0.87036 0.30698 0.0
C5853 C 0.35676 0.85429 0.30194 0.0
C5854 C 0.35911 0.841 0.31444 0.0
C5855 C 0.35317 0.84339 0.33163 0.0
C5856 C 0.36256 0.85181 0.28369 0.0
C5857 C 0.38062 0.85181 0.28044 0.0
C5858 C 0.35055 0.8514 0.26951 0.0
C5859 C 0.33125 0.85074 0.27228 0.0
C5860 C 0.32374 0.83773 0.283 0.0
C5861 C 0.30552 0.83671 0.28498 0.0
C5862 C 0.29463 0.84854 0.27618 0.0
C5863 C 0.30194 0.86157 0.26557 0.0
C5864 C 0.32016 0.86267 0.26358 0.0
C5865 C 0.4033 0.84177 0.20977 0.0
C5866 C 0.39988 0.85642 0.19917 0.0
C5867 C 0.39401 0.83929 0.2253 0.0
C5868 C 0.38158 0.85173 0.23071 0.0
C5869 C 0.37714 0.86561 0.21943 0.0
C5870 C 0.38624 0.86792 0.20366 0.0
C5871 C 0.37518 0.85162 0.24902 0.0
C5872 C 0.35707 0.85131 0.25227 0.0
C5873 C 0.38709 0.85206 0.26328 0.0
C5874 C 0.4063 0.85387 0.26071 0.0
C5875 C 0.41319 0.86829 0.25147 0.0
C5876 C 0.43128 0.86982 0.24888 0.0
C5877 C 0.44264 0.85709 0.25561 0.0
C5878 C 0.43592 0.84284 0.26498 0.0
C5879 C 0.41783 0.84123 0.26758 0.0
H5880 H 0.45664 0.85829 0.25359 0.0
H5881 H 0.28052 0.84765 0.27763 0.0
H5882 H 0.08603 0.38448 0.90187 0.0
H5883 H 0.08405 0.37374 0.9322 0.0
H5884 H 0.1307 0.40307 0.9455 0.0
H5885 H 0.13342 0.41258 0.91537 0.0
H5886 H 0.13323 0.375 0.96065 0.0
H5887 H 0.08598 0.41616 0.95628 0.0
H5888 H 0.05885 0.42934 0.94451 0.0
H5889 H 0.03053 0.382 0.95593 0.0
H5890 H 0.05753 0.36847 0.9676 0.0
H5891 H 0.12606 0.36309 0.05173 0.0
H5892 H 0.12343 0.37994 0.02452 0.0
H5893 H 0.08474 0.34328 0.00545 0.0
H5894 H 0.08692 0.32672 0.03275 0.0
H5895 H 0.07779 0.37729 0.99461 0.0
H5896 H 0.12809 0.33684 -0.00271 0.0
H5897 H 0.15581 0.32617 0.01021 0.0
H5898 H 0.17905 0.377 0.0031 0.0
H5899 H 0.15139 0.38801 0.99032 0.0
C5900 C 0.09604 0.38823 0.91124 0.0
C5901 C 0.11003 0.39909 0.90615 0.0
C5902 C 0.09475 0.38237 0.92863 0.0
C5903 C 0.10706 0.38784 0.9413 0.0
C5904 C 0.12109 0.39852 0.93606 0.0
C5905 C 0.12268 0.40387 0.9187 0.0
C5906 C 0.10584 0.38224 0.95996 0.0
C5907 C 0.12112 0.37585 0.96808 0.0
C5908 C 0.09007 0.38316 0.96978 0.0
C5909 C 0.07383 0.39124 0.96265 0.0
C5910 C 0.074 0.40851 0.95615 0.0
C5911 C 0.05864 0.41606 0.94952 0.0
C5912 C 0.04299 0.4065 0.94942 0.0
C5913 C 0.04266 0.38939 0.95599 0.0
C5914 C 0.05799 0.38178 0.96263 0.0
C5915 C 0.11652 0.359 0.04204 0.0
C5916 C 0.10669 0.34359 0.04435 0.0
C5917 C 0.11514 0.36856 0.02643 0.0
C5918 C 0.10407 0.36269 0.01289 0.0
C5919 C 0.09337 0.34802 0.01572 0.0
C5920 C 0.09473 0.3385 0.03127 0.0
C5921 C 0.10515 0.37026 0.99505 0.0
C5922 C 0.08987 0.37682 0.9871 0.0
C5923 C 0.12102 0.37 0.98546 0.0
C5924 C 0.13764 0.36328 0.99302 0.0
C5925 C 0.13909 0.34575 -0.00142 0.0
C5926 C 0.15479 0.33965 0.00586 0.0
C5927 C 0.16917 0.35091 0.00752 0.0
C5928 C 0.16789 0.36829 0.00184 0.0
C5929 C 0.15222 0.37447 0.99457 0.0
H5930 H 0.18131 0.34615 0.01316 0.0
H5931 H 0.03111 0.41236 0.94429 0.0
H5932 H 0.57466 0.61333 0.21166 0.0
H5933 H 0.58929 0.61454 0.24018 0.0
H5934 H 0.62473 0.65404 0.22042 0.0
H5935 H 0.61012 0.65273 0.1917 0.0
H5936 H 0.64084 0.62891 0.24196 0.0
H5937 H 0.58991 0.66668 0.24326 0.0
H5938 H 0.55846 0.67302 0.23898 0.0
H5939 H 0.54503 0.63313 0.27642 0.0
H5940 H 0.5764 0.62639 0.28075 0.0
H5941 H 0.66827 0.65951 0.32577 0.0
H5942 H 0.6551 0.65987 0.29656 0.0
H5943 H 0.61849 0.61976 0.31245 0.0
H5944 H 0.63177 0.61907 0.34168 0.0
H5945 H 0.60343 0.64611 0.29237 0.0
H5946 H 0.65408 0.60956 0.2931 0.0
H5947 H 0.68475 0.59966 0.29504 0.0
H5948 H 0.69851 0.63306 0.25185 0.0
H5949 H 0.66837 0.6443 0.25059 0.0
C5950 C 0.58576 0.62206 0.21337 0.0
C5951 C 0.5914 0.63287 0.19959 0.0
C5952 C 0.59404 0.62278 0.22962 0.0
C5953 C 0.60784 0.6346 0.23242 0.0
C5954 C 0.61406 0.64485 0.21844 0.0
C5955 C 0.60583 0.64402 0.20207 0.0
C5956 C 0.61512 0.63681 0.25022 0.0
C5957 C 0.63287 0.63305 0.253 0.0
C5958 C 0.60435 0.64161 0.26453 0.0
C5959 C 0.5855 0.64597 0.26225 0.0
C5960 C 0.58025 0.65921 0.25053 0.0
C5961 C 0.56244 0.66288 0.24809 0.0
C5962 C 0.54976 0.65347 0.2574 0.0
C5963 C 0.55487 0.64041 0.26922 0.0
C5964 C 0.57266 0.63668 0.27169 0.0
C5965 C 0.65712 0.65108 0.32323 0.0
C5966 C 0.65108 0.63919 0.33601 0.0
C5967 C 0.64976 0.65118 0.30647 0.0
C5968 C 0.63611 0.63959 0.30233 0.0
C5969 C 0.62915 0.62868 0.31542 0.0
C5970 C 0.63668 0.62836 0.33211 0.0
C5971 C 0.62937 0.63842 0.28423 0.0
C5972 C 0.61162 0.64229 0.28138 0.0
C5973 C 0.64021 0.63359 0.26989 0.0
C5974 C 0.65886 0.6281 0.27199 0.0
C5975 C 0.66373 0.61533 0.28443 0.0
C5976 C 0.6811 0.60945 0.28542 0.0
C5977 C 0.69365 0.61586 0.27372 0.0
C5978 C 0.6889 0.6283 0.26114 0.0
C5979 C 0.67171 0.63457 0.2604 0.0
H5980 H 0.70701 0.61107 0.27428 0.0
H5981 H 0.53597 0.65631 0.25548 0.0
H5982 H 0.87866 0.17578 0.0258 0.0
H5983 H 0.88061 0.16014 -0.0018 0.0
H5984 H 0.88942 0.11162 0.02599 0.0
H5985 H 0.88889 0.1275 0.05383 0.0
H5986 H 0.91015 0.11317 -0.00117 0.0
H5987 H 0.84891 0.12121 0.00657 0.0
H5988 H 0.82177 0.13747 0.01335 0.0
H5989 H 0.83053 0.17119 0.96909 0.0
H5990 H 0.85785 0.15529 0.96217 0.0
H5991 H 0.89805 0.06632 0.91867 0.0
H5992 H 0.89746 0.07785 0.94835 0.0
H5993 H 0.88494 0.1293 0.92811 0.0
H5994 H 0.88381 0.11718 0.89829 0.0
H5995 H 0.86461 0.12282 0.95331 0.0
H5996 H 0.92833 0.11414 0.94775 0.0
H5997 H 0.9544 0.09583 0.94188 0.0
H5998 H 0.93922 0.06048 0.98303 0.0
H5999 H 0.91301 0.07849 0.98903 0.0
C6000 C 0.881 0.16177 0.02616 0.0
C6001 C 0.88306 0.15287 0.04219 0.0
C6002 C 0.88194 0.1528 0.0103 0.0
C6003 C 0.88461 0.1346 0.01 0.0
C6004 C 0.88703 0.12563 0.02592 0.0
C6005 C 0.88638 0.13471 0.04189 0.0
C6006 C 0.88529 0.12528 0.99293 0.0
C6007 C 0.90009 0.11508 0.98893 0.0
C6008 C 0.87216 0.12773 0.98002 0.0
C6009 C 0.8555 0.1371 0.98391 0.0
C6010 C 0.84509 0.13214 -0.00168 0.0
C6011 C 0.82967 0.14129 0.00219 0.0
C6012 C 0.82444 0.15537 0.99167 0.0
C6013 C 0.83459 0.16028 0.97722 0.0
C6014 C 0.85003 0.15118 0.9733 0.0
C6015 C 0.89567 0.08022 0.92052 0.0
C6016 C 0.89132 0.09099 0.90621 0.0
C6017 C 0.89538 0.08683 0.93755 0.0
C6018 C 0.89157 0.10459 0.9406 0.0
C6019 C 0.88797 0.11556 0.92615 0.0
C6020 C 0.88753 0.10874 0.90911 0.0
C6021 C 0.88993 0.11143 0.95882 0.0
C6022 C 0.87476 0.12097 0.96313 0.0
C6023 C 0.90259 0.10808 0.97207 0.0
C6024 C 0.91867 0.09762 0.96877 0.0
C6025 C 0.93056 0.10246 0.95552 0.0
C6026 C 0.94535 0.09212 0.95217 0.0
C6027 C 0.94845 0.07699 0.96206 0.0
C6028 C 0.93681 0.0722 0.97538 0.0
C6029 C 0.92201 0.08249 0.97879 0.0
H6030 H 0.95987 0.06899 0.95941 0.0
H6031 H 0.81252 0.16246 0.99471 0.0
H6032 H 0.2762 0.42642 0.14497 0.0
H6033 H 0.25018 0.40863 0.14964 0.0
H6034 H 0.2772 0.36333 0.12901 0.0
H6035 H 0.30314 0.3814 0.12348 0.0
H6036 H 0.24676 0.36602 0.11424 0.0
H6037 H 0.26546 0.36535 0.17285 0.0
H6038 H 0.277 0.37627 0.20102 0.0
H6039 H 0.23172 0.40921 0.20713 0.0
H6040 H 0.21999 0.39868 0.17887 0.0
H6041 H 0.17227 0.3154 0.14691 0.0
H6042 H 0.20157 0.32824 0.1483 0.0
H6043 H 0.18041 0.37843 0.13299 0.0
H6044 H 0.15088 0.36532 0.13066 0.0
H6045 H 0.20953 0.3687 0.16759 0.0
H6046 H 0.19515 0.36987 0.10354 0.0
H6047 H 0.18493 0.35482 0.07678 0.0
H6048 H 0.22478 0.31553 0.08339 0.0
H6049 H 0.23494 0.33014 0.11045 0.0
C6050 C 0.2767 0.41262 0.14161 0.0
C6051 C 0.29179 0.40527 0.13405 0.0
C6052 C 0.26187 0.40241 0.14447 0.0
C6053 C 0.26183 0.38457 0.13996 0.0
C6054 C 0.27702 0.37704 0.13275 0.0
C6055 C 0.29192 0.38734 0.1298 0.0
C6056 C 0.24529 0.37451 0.14123 0.0
C6057 C 0.23878 0.36641 0.12602 0.0
C6058 C 0.23489 0.37482 0.15663 0.0
C6059 C 0.24189 0.3813 0.17364 0.0
C6060 C 0.25802 0.37503 0.18012 0.0
C6061 C 0.26458 0.38113 0.19613 0.0
C6062 C 0.25511 0.39345 0.20584 0.0
C6063 C 0.23904 0.39967 0.19959 0.0
C6064 C 0.23241 0.39362 0.18358 0.0
C6065 C 0.17378 0.32927 0.14419 0.0
C6066 C 0.15936 0.33951 0.1389 0.0
C6067 C 0.19051 0.3365 0.14487 0.0
C6068 C 0.19301 0.35415 0.14064 0.0
C6069 C 0.17857 0.3647 0.13616 0.0
C6070 C 0.16181 0.3573 0.13493 0.0
C6071 C 0.21089 0.36128 0.14042 0.0
C6072 C 0.21766 0.36844 0.15591 0.0
C6073 C 0.22171 0.35966 0.12547 0.0
C6074 C 0.21557 0.35091 0.10921 0.0
C6075 C 0.20153 0.35787 0.09946 0.0
C6076 C 0.1958 0.34945 0.0842 0.0
C6077 C 0.20414 0.33418 0.07843 0.0
C6078 C 0.21827 0.32732 0.0879 0.0
C6079 C 0.22401 0.33565 0.10322 0.0
H6080 H 0.19971 0.32771 0.06659 0.0
H6081 H 0.26022 0.39815 0.21824 0.0
H6082 H 0.16701 0.67396 0.34113 0.0
H6083 H 0.19677 0.66288 0.3414 0.0
H6084 H 0.17863 0.61464 0.36504 0.0
H6085 H 0.14879 0.6267 0.36647 0.0
H6086 H 0.20476 0.62548 0.38204 0.0
H6087 H 0.19514 0.62145 0.31818 0.0
H6088 H 0.18743 0.63426 0.28944 0.0
H6089 H 0.22859 0.67233 0.29505 0.0
H6090 H 0.23645 0.65984 0.32386 0.0
H6091 H 0.27502 0.56938 0.37178 0.0
H6092 H 0.24767 0.58549 0.36945 0.0
H6093 H 0.2758 0.63126 0.3516 0.0
H6094 H 0.30333 0.61475 0.3528 0.0
H6095 H 0.24709 0.6263 0.33263 0.0
H6096 H 0.25925 0.62978 0.3934 0.0
H6097 H 0.26814 0.61886 0.42253 0.0
H6098 H 0.22336 0.5847 0.42371 0.0
H6099 H 0.21431 0.59523 0.39448 0.0
C6100 C 0.16926 0.66075 0.3459 0.0
C6101 C 0.1556 0.65102 0.35354 0.0
C6102 C 0.18635 0.65438 0.34599 0.0
C6103 C 0.19002 0.63774 0.35289 0.0
C6104 C 0.17614 0.62754 0.35962 0.0
C6105 C 0.15908 0.63428 0.36026 0.0
C6106 C 0.20843 0.63162 0.35465 0.0
C6107 C 0.21388 0.62537 0.37111 0.0
C6108 C 0.22079 0.63263 0.34076 0.0
C6109 C 0.21631 0.63976 0.32321 0.0
C6110 C 0.20252 0.63256 0.31329 0.0
C6111 C 0.19813 0.63978 0.29699 0.0
C6112 C 0.2075 0.65412 0.29044 0.0
C6113 C 0.22134 0.66122 0.30013 0.0
C6114 C 0.2258 0.65406 0.31642 0.0
C6115 C 0.27547 0.5829 0.3674 0.0
C6116 C 0.29145 0.59092 0.36295 0.0
C6117 C 0.25981 0.59214 0.36622 0.0
C6118 C 0.25977 0.60971 0.36083 0.0
C6119 C 0.27563 0.61777 0.35609 0.0
C6120 C 0.29138 0.60841 0.35706 0.0
C6121 C 0.24291 0.6192 0.35966 0.0
C6122 C 0.23788 0.62637 0.34349 0.0
C6123 C 0.23099 0.61933 0.37387 0.0
C6124 C 0.23614 0.61326 0.39168 0.0
C6125 C 0.25133 0.61989 0.39984 0.0
C6126 C 0.2564 0.61377 0.41637 0.0
C6127 C 0.24633 0.60108 0.42496 0.0
C6128 C 0.23114 0.59454 0.41705 0.0
C6129 C 0.22601 0.60061 0.40051 0.0
H6130 H 0.2503 0.59633 0.43774 0.0
H6131 H 0.20404 0.65971 0.27785 0.0
H6132 H 0.9103 0.57672 0.85776 0.0
H6133 H 0.89918 0.54722 0.86078 0.0
H6134 H 0.8792 0.55971 0.9123 0.0
H6135 H 0.89202 0.5893 0.9099 0.0
H6136 H 0.89324 0.52899 0.9132 0.0
H6137 H 0.8519 0.55525 0.87318 0.0
H6138 H 0.84314 0.57221 0.84703 0.0
H6139 H 0.8688 0.53471 0.81375 0.0
H6140 H 0.87787 0.51763 0.8397 0.0
H6141 H 0.8314 0.45763 0.91041 0.0
H6142 H 0.84829 0.48479 0.9131 0.0
H6143 H 0.87915 0.47007 0.86801 0.0
H6144 H 0.86235 0.44277 0.86537 0.0
H6145 H 0.85973 0.50142 0.86467 0.0
H6146 H 0.8999 0.47461 0.90463 0.0
H6147 H 0.90885 0.4577 0.93071 0.0
H6148 H 0.88454 0.49591 0.96419 0.0
H6149 H 0.87522 0.51295 0.93828 0.0
C6150 C 0.90317 0.57339 0.8696 0.0
C6151 C 0.9016 0.58544 0.88345 0.0
C6152 C 0.89678 0.55645 0.87131 0.0
C6153 C 0.88782 0.55133 0.88652 0.0
C6154 C 0.88593 0.56342 0.90035 0.0
C6155 C 0.89302 0.58034 0.89892 0.0
C6156 C 0.88108 0.53313 0.88795 0.0
C6157 C 0.88561 0.52306 0.90274 0.0
C6158 C 0.87157 0.52521 0.87407 0.0
C6159 C 0.86562 0.5352 0.85841 0.0
C6160 C 0.85569 0.55064 0.86029 0.0
C6161 C 0.85068 0.56028 0.8455 0.0
C6162 C 0.85543 0.55455 0.82874 0.0
C6163 C 0.86512 0.53913 0.82673 0.0
C6164 C 0.87016 0.52944 0.84147 0.0
C6165 C 0.84215 0.45998 0.90141 0.0
C6166 C 0.84562 0.44822 0.88768 0.0
C6167 C 0.85183 0.47541 0.90303 0.0
C6168 C 0.86493 0.47936 0.89076 0.0
C6169 C 0.86915 0.46712 0.87766 0.0
C6170 C 0.85962 0.45154 0.8762 0.0
C6171 C 0.87192 0.49737 0.88982 0.0
C6172 C 0.86732 0.5074 0.87513 0.0
C6173 C 0.88115 0.50521 0.90385 0.0
C6174 C 0.8867 0.49497 0.91948 0.0
C6175 C 0.8963 0.47933 0.91753 0.0
C6176 C 0.90148 0.46974 0.9323 0.0
C6177 C 0.89722 0.4757 0.94909 0.0
C6178 C 0.88781 0.4913 0.95116 0.0
C6179 C 0.88259 0.50094 0.93644 0.0
H6180 H 0.90125 0.46826 0.9605 0.0
H6181 H 0.85159 0.56206 0.81732 0.0
H6182 H 0.82942 0.82656 0.33306 0.0
H6183 H 0.79931 0.83704 0.33275 0.0
H6184 H 0.81249 0.87603 0.3717 0.0
H6185 H 0.84248 0.86459 0.37299 0.0
H6186 H 0.78533 0.85882 0.38184 0.0
H6187 H 0.80163 0.88417 0.32451 0.0
H6188 H 0.81259 0.88172 0.29413 0.0
H6189 H 0.77214 0.84433 0.28223 0.0
H6190 H 0.76105 0.84647 0.31257 0.0
H6191 H 0.71927 0.92076 0.38168 0.0
H6192 H 0.74541 0.90275 0.37883 0.0
H6193 H 0.71789 0.86796 0.34363 0.0
H6194 H 0.69177 0.88651 0.34579 0.0
H6195 H 0.74893 0.87611 0.33074 0.0
H6196 H 0.72945 0.85361 0.38485 0.0
H6197 H 0.71749 0.85388 0.4149 0.0
H6198 H 0.76252 0.88255 0.43291 0.0
H6199 H 0.77467 0.88266 0.40294 0.0
C6200 C 0.82607 0.83777 0.34113 0.0
C6201 C 0.8383 0.84486 0.353 0.0
C6202 C 0.80877 0.84375 0.34095 0.0
C6203 C 0.80357 0.8574 0.35214 0.0
C6204 C 0.81616 0.86539 0.36303 0.0
C6205 C 0.83334 0.85903 0.36362 0.0
C6206 C 0.78481 0.8624 0.35377 0.0
C6207 C 0.77746 0.86286 0.37068 0.0
C6208 C 0.77408 0.86637 0.33911 0.0
C6209 C 0.78061 0.86539 0.32082 0.0
C6210 C 0.79513 0.87539 0.31542 0.0
C6211 C 0.80135 0.87406 0.29821 0.0
C6212 C 0.79309 0.86285 0.28627 0.0
C6213 C 0.77854 0.853 0.29149 0.0
C6214 C 0.77226 0.85429 0.30867 0.0
C6215 C 0.71869 0.9092 0.37342 0.0
C6216 C 0.70333 0.90492 0.3642 0.0
C6217 C 0.73361 0.8988 0.37196 0.0
C6218 C 0.7335 0.88379 0.36132 0.0
C6219 C 0.71817 0.87936 0.35211 0.0
C6220 C 0.70317 0.88987 0.35353 0.0
C6221 C 0.74997 0.87378 0.35891 0.0
C6222 C 0.75678 0.87202 0.34189 0.0
C6223 C 0.76013 0.86831 0.37344 0.0
C6224 C 0.75294 0.8682 0.39158 0.0
C6225 C 0.73676 0.86007 0.39518 0.0
C6226 C 0.72996 0.86014 0.41222 0.0
C6227 C 0.73923 0.86824 0.4258 0.0
C6228 C 0.75536 0.87626 0.42238 0.0
C6229 C 0.76223 0.87623 0.40537 0.0
H6230 H 0.73393 0.8683 0.43897 0.0
H6231 H 0.79795 0.86182 0.27297 0.0
H6232 H 0.67631 0.5257 0.37355 0.0
H6233 H 0.65984 0.49843 0.3753 0.0
H6234 H 0.61401 0.52691 0.39242 0.0
H6235 H 0.63079 0.55437 0.39144 0.0
H6236 H 0.61882 0.4979 0.41167 0.0
H6237 H 0.61545 0.5106 0.35106 0.0
H6238 H 0.62606 0.51938 0.3218 0.0
H6239 H 0.65963 0.47417 0.32009 0.0
H6240 H 0.64941 0.46523 0.34946 0.0
H6241 H 0.5691 0.41927 0.402 0.0
H6242 H 0.58087 0.44878 0.40162 0.0
H6243 H 0.62916 0.42933 0.37923 0.0
H6244 H 0.61666 0.39966 0.37822 0.0
H6245 H 0.61899 0.45603 0.36185 0.0
H6246 H 0.62246 0.44547 0.42533 0.0
H6247 H 0.60949 0.43762 0.45394 0.0
H6248 H 0.5726 0.47994 0.44917 0.0
H6249 H 0.58524 0.48794 0.42048 0.0
C6250 C 0.66269 0.52621 0.37761 0.0
C6251 C 0.65471 0.54223 0.38193 0.0
C6252 C 0.65326 0.51062 0.37849 0.0
C6253 C 0.63559 0.51069 0.3836 0.0
C6254 C 0.62758 0.52663 0.3882 0.0
C6255 C 0.63709 0.54232 0.3874 0.0
C6256 C 0.62592 0.49388 0.38462 0.0
C6257 C 0.61861 0.48881 0.40072 0.0
C6258 C 0.62564 0.48207 0.37031 0.0
C6259 C 0.63173 0.4873 0.35254 0.0
C6260 C 0.62518 0.50258 0.3445 0.0
C6261 C 0.63111 0.50758 0.32788 0.0
C6262 C 0.64353 0.49736 0.31911 0.0
C6263 C 0.65001 0.48208 0.32691 0.0
C6264 C 0.64412 0.47702 0.34353 0.0
C6265 C 0.58243 0.42115 0.39741 0.0
C6266 C 0.5921 0.40712 0.39033 0.0
C6267 C 0.58917 0.43811 0.39726 0.0
C6268 C 0.60606 0.44134 0.39073 0.0
C6269 C 0.61608 0.42717 0.38438 0.0
C6270 C 0.60906 0.41022 0.38394 0.0
C6271 C 0.61273 0.45959 0.38921 0.0
C6272 C 0.61924 0.46504 0.37286 0.0
C6273 C 0.61197 0.47181 0.40323 0.0
C6274 C 0.60474 0.46723 0.42071 0.0
C6275 C 0.61156 0.45307 0.43037 0.0
C6276 C 0.60426 0.4486 0.4466 0.0
C6277 C 0.59021 0.45825 0.45335 0.0
C6278 C 0.58348 0.47247 0.44393 0.0
C6279 C 0.59073 0.477 0.42771 0.0
H6280 H 0.58456 0.45473 0.46589 0.0
H6281 H 0.64813 0.50126 0.30625 0.0
H6282 H 0.34627 0.62483 0.62734 0.0
H6283 H 0.31638 0.61296 0.62843 0.0
H6284 H 0.29919 0.65915 0.65646 0.0
H6285 H 0.32916 0.66995 0.65697 0.0
H6286 H 0.28004 0.63587 0.66653 0.0
H6287 H 0.29613 0.65343 0.60908 0.0
H6288 H 0.31402 0.65484 0.58215 0.0
H6289 H 0.30524 0.59994 0.57309 0.0
H6290 H 0.28752 0.59813 0.6001 0.0
H6291 H 0.19136 0.61296 0.64259 0.0
H6292 H 0.21867 0.62976 0.64399 0.0
H6293 H 0.24745 0.58427 0.62643 0.0
H6294 H 0.22024 0.5679 0.62379 0.0
H6295 H 0.25815 0.61298 0.6097 0.0
H6296 H 0.24314 0.59857 0.67209 0.0
H6297 H 0.22368 0.60167 0.6978 0.0
H6298 H 0.22783 0.65776 0.69454 0.0
H6299 H 0.24722 0.65497 0.66876 0.0
C6300 C 0.33618 0.63199 0.63432 0.0
C6301 C 0.33996 0.64815 0.64221 0.0
C6302 C 0.31905 0.62544 0.63466 0.0
C6303 C 0.30533 0.6355 0.64191 0.0
C6304 C 0.30942 0.65113 0.65071 0.0
C6305 C 0.32662 0.65726 0.65108 0.0
C6306 C 0.2867 0.63027 0.63955 0.0
C6307 C 0.27528 0.63105 0.65401 0.0
C6308 C 0.28013 0.62453 0.62312 0.0
C6309 C 0.29059 0.62562 0.6067 0.0
C6310 C 0.29808 0.64164 0.60139 0.0
C6311 C 0.30819 0.64251 0.58611 0.0
C6312 C 0.31079 0.62748 0.57594 0.0
C6313 C 0.30323 0.61157 0.58099 0.0
C6314 C 0.29313 0.61062 0.59627 0.0
C6315 C 0.20342 0.60671 0.6385 0.0
C6316 C 0.20356 0.58923 0.63259 0.0
C6317 C 0.21907 0.61624 0.63964 0.0
C6318 C 0.2351 0.60824 0.63537 0.0
C6319 C 0.23522 0.59075 0.62967 0.0
C6320 C 0.21965 0.58137 0.62829 0.0
C6321 C 0.25202 0.61762 0.63687 0.0
C6322 C 0.26303 0.61791 0.62213 0.0
C6323 C 0.25794 0.62504 0.65281 0.0
C6324 C 0.24651 0.62656 0.66846 0.0
C6325 C 0.23986 0.61155 0.67684 0.0
C6326 C 0.22885 0.61326 0.69142 0.0
C6327 C 0.2245 0.6299 0.69778 0.0
C6328 C 0.2312 0.64488 0.68961 0.0
C6329 C 0.24221 0.64324 0.67504 0.0
H6330 H 0.21596 0.63119 0.70905 0.0
H6331 H 0.31865 0.62818 0.56413 0.0
H6332 H 0.9112 0.41211 0.57939 0.0
H6333 H 0.899 0.44165 0.57791 0.0
H6334 H 0.87539 0.43454 0.62883 0.0
H6335 H 0.88757 0.40498 0.63053 0.0
H6336 H 0.85411 0.45209 0.60586 0.0
H6337 H 0.91438 0.45349 0.62521 0.0
H6338 H 0.94638 0.44895 0.62347 0.0
H6339 H 0.94875 0.48121 0.57737 0.0
H6340 H 0.9167 0.48565 0.57859 0.0
H6341 H 0.83814 0.53502 0.63678 0.0
H6342 H 0.85371 0.50704 0.63473 0.0
H6343 H 0.87343 0.52169 0.58372 0.0
H6344 H 0.85817 0.55005 0.58602 0.0
H6345 H 0.8972 0.50093 0.60365 0.0
H6346 H 0.83687 0.49991 0.58491 0.0
H6347 H 0.80523 0.50588 0.58816 0.0
H6348 H 0.80354 0.47333 0.63411 0.0
H6349 H 0.83524 0.4674 0.63131 0.0
C6350 C 0.90303 0.41661 0.5901 0.0
C6351 C 0.90057 0.40627 0.60523 0.0
C6352 C 0.89623 0.43357 0.58928 0.0
C6353 C 0.88675 0.44036 0.60347 0.0
C6354 C 0.8829 0.42954 0.61785 0.0
C6355 C 0.88979 0.41262 0.61876 0.0
C6356 C 0.88143 0.45895 0.60379 0.0
C6357 C 0.86354 0.46275 0.60546 0.0
C6358 C 0.89381 0.47283 0.60287 0.0
C6359 C 0.91304 0.46968 0.60183 0.0
C6360 C 0.92166 0.4594 0.61453 0.0
C6361 C 0.93983 0.45689 0.61368 0.0
C6362 C 0.94957 0.46473 0.60028 0.0
C6363 C 0.94117 0.47509 0.5877 0.0
C6364 C 0.923 0.47759 0.58846 0.0
C6365 C 0.84627 0.53244 0.6254 0.0
C6366 C 0.84703 0.54445 0.61152 0.0
C6367 C 0.85509 0.51651 0.62422 0.0
C6368 C 0.86435 0.51222 0.60891 0.0
C6369 C 0.86628 0.5248 0.59559 0.0
C6370 C 0.85762 0.54092 0.59691 0.0
C6371 C 0.86996 0.49393 0.60604 0.0
C6372 C 0.88782 0.49022 0.60382 0.0
C6373 C 0.85761 0.48006 0.60647 0.0
C6374 C 0.83846 0.48331 0.60796 0.0
C6375 C 0.82977 0.4941 0.59576 0.0
C6376 C 0.81182 0.49747 0.59752 0.0
C6377 C 0.80238 0.49001 0.61135 0.0
C6378 C 0.81087 0.47911 0.62341 0.0
C6379 C 0.82882 0.47572 0.62174 0.0
H6380 H 0.78849 0.49264 0.61269 0.0
H6381 H 0.96362 0.46285 0.59967 0.0
H6382 H 0.139 0.95124 0.6352 0.0
H6383 H 0.1218 0.97793 0.63027 0.0
H6384 H 0.13963 0.97942 0.57649 0.0
H6385 H 0.15754 0.95328 0.58182 0.0
H6386 H 0.14718 0.0083 0.59115 0.0
H6387 H 0.09462 0.97444 0.58875 0.0
H6388 H 0.07263 0.95259 0.59799 0.0
H6389 H 0.06385 0.98113 0.64574 0.0
H6390 H 0.08596 0.00304 0.63693 0.0
H6391 H 0.09593 0.08805 0.57855 0.0
H6392 H 0.10717 0.05804 0.57566 0.0
H6393 H 0.10722 0.05245 0.63193 0.0
H6394 H 0.09657 0.08237 0.63507 0.0
H6395 H 0.08787 0.02532 0.61172 0.0
H6396 H 0.14375 0.05516 0.61643 0.0
H6397 H 0.16582 0.07722 0.60791 0.0
H6398 H 0.16772 0.05562 0.55591 0.0
H6399 H 0.14546 0.03354 0.56409 0.0
C6400 C 0.13879 0.95708 0.62224 0.0
C6401 C 0.14956 0.9505 0.6089 0.0
C6402 C 0.12888 0.97223 0.61936 0.0
C6403 C 0.12938 0.98072 0.60297 0.0
C6404 C 0.1391 0.97318 0.58925 0.0
C6405 C 0.14929 0.95828 0.59226 0.0
C6406 C 0.12237 -0.00123 0.60105 0.0
C6407 C 0.134 0.01186 0.5952 0.0
C6408 C 0.10536 0.00359 0.6068 0.0
C6409 C 0.09208 0.99035 0.61221 0.0
C6410 C 0.08812 0.976 0.60129 0.0
C6411 C 0.07561 0.96361 0.60644 0.0
C6412 C 0.06688 0.96545 0.62245 0.0
C6413 C 0.07063 0.97971 0.63334 0.0
C6414 C 0.08313 0.99214 0.62826 0.0
C6415 C 0.09879 0.08061 0.59032 0.0
C6416 C 0.09521 0.0876 0.60703 0.0
C6417 C 0.10502 0.06344 0.58863 0.0
C6418 C 0.1076 0.05303 0.60359 0.0
C6419 C 0.105 0.06026 0.62025 0.0
C6420 C 0.09908 0.07745 0.62198 0.0
C6421 C 0.11277 0.03446 0.60202 0.0
C6422 C 0.10083 0.02146 0.60727 0.0
C6423 C 0.12946 0.02962 0.59576 0.0
C6424 C 0.14278 0.04288 0.59079 0.0
C6425 C 0.14874 0.05524 0.60313 0.0
C6426 C 0.16131 0.06771 0.59838 0.0
C6427 C 0.16812 0.06787 0.58136 0.0
C6428 C 0.1624 0.05551 0.56908 0.0
C6429 C 0.14981 0.04301 0.57376 0.0
H6430 H 0.17787 0.07752 0.57771 0.0
H6431 H 0.0572 0.95585 0.62641 0.0
H6432 H 0.65619 0.66586 0.82059 0.0
H6433 H 0.65608 0.69564 0.83175 0.0
H6434 H 0.62699 0.67849 0.87728 0.0
H6435 H 0.62554 0.64878 0.86504 0.0
H6436 H 0.61186 0.70502 0.86444 0.0
H6437 H 0.67474 0.69353 0.87552 0.0
H6438 H 0.70449 0.68511 0.86587 0.0
H6439 H 0.70399 0.72629 0.82742 0.0
H6440 H 0.67421 0.73488 0.83677 0.0
H6441 H 0.61973 0.77365 0.92338 0.0
H6442 H 0.62163 0.74665 0.90647 0.0
H6443 H 0.64531 0.77496 0.86352 0.0
H6444 H 0.64432 0.80198 0.88086 0.0
H6445 H 0.66246 0.74561 0.86967 0.0
H6446 H 0.60305 0.76014 0.86006 0.0
H6447 H 0.57316 0.76987 0.86769 0.0
H6448 H 0.56634 0.7244 0.90022 0.0
H6449 H 0.59628 0.7145 0.89299 0.0
C6450 C 0.65029 0.66832 0.83329 0.0
C6451 C 0.64106 0.65503 0.84213 0.0
C6452 C 0.65026 0.68541 0.83969 0.0
C6453 C 0.64177 0.68938 0.85553 0.0
C6454 C 0.63361 0.67578 0.865 0.0
C6455 C 0.63297 0.65878 0.85819 0.0
C6456 C 0.63988 0.70783 0.86141 0.0
C6457 C 0.623 0.71377 0.86588 0.0
C6458 C 0.65417 0.71973 0.86205 0.0
C6459 C 0.67223 0.71476 0.85678 0.0
C6460 C 0.68097 0.70076 0.86499 0.0
C6461 C 0.69784 0.69596 0.85957 0.0
C6462 C 0.70611 0.70514 0.84602 0.0
C6463 C 0.69757 0.71919 0.83792 0.0
C6464 C 0.68073 0.72405 0.8433 0.0
C6465 C 0.62525 0.77416 0.91029 0.0
C6466 C 0.63147 0.78999 0.90326 0.0
C6467 C 0.62618 0.75876 0.90058 0.0
C6468 C 0.6332 0.7589 0.88358 0.0
C6469 C 0.63959 0.77466 0.87653 0.0
C6470 C 0.63879 0.79011 0.88634 0.0
C6471 C 0.63469 0.74226 0.8738 0.0
C6472 C 0.65136 0.7368 0.86826 0.0
C6473 C 0.62018 0.73088 0.87189 0.0
C6474 C 0.60198 0.73661 0.87603 0.0
C6475 C 0.59522 0.75225 0.86891 0.0
C6476 C 0.57826 0.75779 0.87316 0.0
C6477 C 0.56787 0.74777 0.88445 0.0
C6478 C 0.5744 0.73214 0.89146 0.0
C6479 C 0.59136 0.72654 0.88727 0.0
H6480 H 0.55475 0.7521 0.88774 0.0
H6481 H 0.71914 0.70137 0.84182 0.0
H6482 H 0.90077 0.09165 0.38076 0.0
H6483 H 0.93115 0.08851 0.37017 0.0
H6484 H 0.94941 0.12006 0.4136 0.0
H6485 H 0.91937 0.12412 0.4233 0.0
H6486 H 0.96418 0.13103 0.3868 0.0
H6487 H 0.95546 0.07367 0.41031 0.0
H6488 H 0.94097 0.04504 0.41445 0.0
H6489 H 0.94926 0.03264 0.36013 0.0
H6490 H 0.96357 0.0613 0.35559 0.0
H6491 H 0.05294 0.12045 0.36273 0.0
H6492 H 0.02712 0.11555 0.3812 0.0
H6493 H 0.00042 0.0914 0.33749 0.0
H6494 H 0.02626 0.0958 0.31919 0.0
H6495 H 0.99214 0.07527 0.36839 0.0
H6496 H -0.00283 0.13535 0.34556 0.0
H6497 H 0.01141 0.16427 0.34252 0.0
H6498 H 0.01027 0.17105 0.39844 0.0
H6499 H 0.99623 0.14206 0.40181 0.0
C6500 C 0.91135 0.09804 0.38779 0.0
C6501 C 0.90781 0.10854 0.40245 0.0
C6502 C 0.92868 0.09604 0.38195 0.0
C6503 C 0.94263 0.10396 0.39118 0.0
C6504 C 0.93894 0.114 0.40613 0.0
C6505 C 0.92174 0.11641 0.41158 0.0
C6506 C 0.96098 0.10296 0.38479 0.0
C6507 C 0.97036 0.11874 0.38315 0.0
C6508 C 0.96909 0.08699 0.37988 0.0
C6509 C 0.96046 0.06973 0.38258 0.0
C6510 C 0.95407 0.06491 0.39921 0.0
C6511 C 0.94591 0.04865 0.40163 0.0
C6512 C 0.94416 0.03705 0.38755 0.0
C6513 C 0.95061 0.04165 0.37102 0.0
C6514 C 0.95876 0.05789 0.36852 0.0
C6515 C 0.04181 0.11355 0.35725 0.0
C6516 C 0.04159 0.10846 0.33954 0.0
C6517 C 0.02702 0.1109 0.36777 0.0
C6518 C 0.01182 0.10328 0.36063 0.0
C6519 C 0.01201 0.09728 0.34326 0.0
C6520 C 0.02673 0.09993 0.33278 0.0
C6521 C 0.99502 0.10331 0.3703 0.0
C6522 C 0.98596 0.08742 0.37248 0.0
C6523 C 0.98723 0.11914 0.37602 0.0
C6524 C 0.99589 0.13645 0.37395 0.0
C6525 C 0.00012 0.14294 0.35721 0.0
C6526 C 0.00812 0.15936 0.35543 0.0
C6527 C 0.0118 0.16946 0.37028 0.0
C6528 C 0.00746 0.16318 0.38695 0.0
C6529 C -0.00051 0.14676 0.38881 0.0
H6530 H 0.01796 0.18218 0.36887 0.0
H6531 H 0.93784 0.02448 0.38946 0.0
H6532 H 0.32888 0.8339 0.83835 0.0
H6533 H 0.3272 0.80363 0.84857 0.0
H6534 H 0.37994 0.80738 0.86882 0.0
H6535 H 0.38189 0.83758 0.85833 0.0
H6536 H 0.3765 0.77974 0.84723 0.0
H6537 H 0.34394 0.80402 0.89602 0.0
H6538 H 0.3202 0.82136 0.90953 0.0
H6539 H 0.2817 0.78881 0.88436 0.0
H6540 H 0.30524 0.7714 0.87053 0.0
H6541 H 0.3851 0.70952 0.90637 0.0
H6542 H 0.38282 0.73676 0.88958 0.0
H6543 H 0.33307 0.71973 0.86854 0.0
H6544 H 0.33554 0.69216 0.88523 0.0
H6545 H 0.33193 0.75218 0.88579 0.0
H6546 H 0.36469 0.72513 0.84063 0.0
H6547 H 0.38839 0.70772 0.8272 0.0
H6548 H 0.4265 0.74509 0.84521 0.0
H6549 H 0.40307 0.76261 0.859 0.0
C6550 C 0.33992 0.82852 0.84551 0.0
C6551 C 0.35559 0.83811 0.8474 0.0
C6552 C 0.33897 0.81114 0.85125 0.0
C6553 C 0.35353 0.80319 0.85925 0.0
C6554 C 0.36864 0.8132 0.86245 0.0
C6555 C 0.36966 0.83052 0.85661 0.0
C6556 C 0.35356 0.78415 0.86317 0.0
C6557 C 0.36687 0.77373 0.85581 0.0
C6558 C 0.34049 0.77619 0.87366 0.0
C6559 C 0.32634 0.78653 0.8821 0.0
C6560 C 0.33041 0.80064 0.89328 0.0
C6561 C 0.31699 0.81046 0.90101 0.0
C6562 C 0.29945 0.80622 0.89777 0.0
C6563 C 0.29529 0.7921 0.88684 0.0
C6564 C 0.30866 0.78223 0.87907 0.0
C6565 C 0.37395 0.71142 0.89774 0.0
C6566 C 0.36054 0.69887 0.8969 0.0
C6567 C 0.37267 0.72691 0.88814 0.0
C6568 C 0.35781 0.73019 0.87778 0.0
C6569 C 0.34468 0.71734 0.87639 0.0
C6570 C 0.34612 0.70164 0.8858 0.0
C6571 C 0.35525 0.74793 0.87038 0.0
C6572 C 0.34142 0.75813 0.877 0.0
C6573 C 0.36786 0.75567 0.85922 0.0
C6574 C 0.38208 0.74515 0.85098 0.0
C6575 C 0.37813 0.72957 0.84188 0.0
C6576 C 0.39153 0.71969 0.83417 0.0
C6577 C 0.40894 0.72528 0.83538 0.0
C6578 C 0.413 0.74078 0.84429 0.0
C6579 C 0.39966 0.75071 0.85203 0.0
H6580 H 0.41929 0.71761 0.8294 0.0
H6581 H 0.28908 0.81385 0.90375 0.0
H6582 H 0.07887 0.35449 0.4037 0.0
H6583 H 0.04915 0.35697 0.39295 0.0
H6584 H 0.05746 0.41187 0.38173 0.0
H6585 H 0.08722 0.40974 0.39393 0.0
H6586 H 0.02746 0.40827 0.39701 0.0
H6587 H 0.05443 0.37823 0.34842 0.0
H6588 H 0.0724 0.35526 0.33439 0.0
H6589 H 0.03779 0.31555 0.35436 0.0
H6590 H 0.01972 0.33826 0.36866 0.0
H6591 H 0.95753 0.41201 0.33306 0.0
H6592 H 0.98411 0.41339 0.35108 0.0
H6593 H 0.96945 0.36498 0.37644 0.0
H6594 H 0.9426 0.36378 0.3587 0.0
H6595 H 0.0016 0.36536 0.35547 0.0
H6596 H 0.97348 0.39611 0.40217 0.0
H6597 H 0.95558 0.41934 0.41579 0.0
H6598 H 0.99207 0.45836 0.39799 0.0
H6599 H 0.01011 0.43539 0.38405 0.0
C6600 C 0.07464 0.36703 0.39853 0.0
C6601 C 0.0855 0.38191 0.3995 0.0
C6602 C 0.05753 0.36843 0.39236 0.0
C6603 C 0.05109 0.38453 0.38622 0.0
C6604 C 0.06216 0.39929 0.38641 0.0
C6605 C 0.0792 0.39803 0.39314 0.0
C6606 C 0.03258 0.38593 0.38037 0.0
C6607 C 0.02188 0.39908 0.38768 0.0
C6608 C 0.02514 0.3736 0.36863 0.0
C6609 C 0.03579 0.35995 0.3597 0.0
C6610 C 0.05069 0.36459 0.34987 0.0
C6611 C 0.06089 0.35162 0.34186 0.0
C6612 C 0.05626 0.33396 0.34351 0.0
C6613 C 0.04137 0.32923 0.35309 0.0
C6614 C 0.03112 0.34215 0.36112 0.0
C6615 C 0.95973 0.40201 0.34292 0.0
C6616 C 0.94816 0.38778 0.34455 0.0
C6617 C 0.97481 0.40286 0.35325 0.0
C6618 C 0.97865 0.3893 0.36505 0.0
C6619 C 0.96655 0.37564 0.36749 0.0
C6620 C 0.95126 0.37498 0.35741 0.0
C6621 C 0.99661 0.3877 0.372 0.0
C6622 C 0.00722 0.37453 0.36481 0.0
C6623 C 0.00393 0.40013 0.38361 0.0
C6624 C 0.99307 0.41402 0.39189 0.0
C6625 C 0.97761 0.40966 0.40099 0.0
C6626 C 0.96746 0.42278 0.40882 0.0
C6627 C 0.97266 0.44032 0.40771 0.0
C6628 C 0.98805 0.44477 0.39882 0.0
C6629 C -0.00174 0.4317 0.39097 0.0
H6630 H 0.96478 0.45046 0.41378 0.0
H6631 H 0.0642 0.32393 0.33734 0.0
H6632 H 0.61702 0.32238 0.67039 0.0
H6633 H 0.62102 0.29267 0.65909 0.0
H6634 H 0.65612 0.3124 0.61936 0.0
H6635 H 0.65276 0.34237 0.63124 0.0
H6636 H 0.62258 0.28988 0.60999 0.0
H6637 H 0.67585 0.29169 0.64474 0.0
H6638 H 0.69274 0.29651 0.67191 0.0
H6639 H 0.66239 0.25697 0.69815 0.0
H6640 H 0.64513 0.25209 0.6712 0.0
H6641 H 0.64806 0.21384 0.5693 0.0
H6642 H 0.65262 0.24037 0.58658 0.0
H6643 H 0.62329 0.21783 0.62937 0.0
H6644 H 0.61847 0.19113 0.61198 0.0
H6645 H 0.65471 0.24104 0.63885 0.0
H6646 H 0.6 0.24048 0.60848 0.0
H6647 H 0.58028 0.23491 0.58343 0.0
H6648 H 0.60933 0.27163 0.55209 0.0
H6649 H 0.62941 0.2772 0.57692 0.0
C6650 C 0.6255 0.3204 0.65915 0.0
C6651 C 0.63431 0.33461 0.65137 0.0
C6652 C 0.62794 0.30344 0.65291 0.0
C6653 C 0.63896 0.30043 0.63856 0.0
C6654 C 0.6477 0.31458 0.6306 0.0
C6655 C 0.64567 0.3316 0.63722 0.0
C6656 C 0.63993 0.28267 0.63108 0.0
C6657 C 0.6299 0.27929 0.61608 0.0
C6658 C 0.64868 0.26874 0.63973 0.0
C6659 C 0.65905 0.27167 0.65597 0.0
C6660 C 0.67263 0.28416 0.65635 0.0
C6661 C 0.68232 0.28686 0.67171 0.0
C6662 C 0.67861 0.27709 0.68676 0.0
C6663 C 0.66524 0.26455 0.68648 0.0
C6664 C 0.65551 0.26179 0.67116 0.0
C6665 C 0.64285 0.21438 0.58251 0.0
C6666 C 0.63283 0.20049 0.58927 0.0
C6667 C 0.64559 0.22947 0.5924 0.0
C6668 C 0.63824 0.23101 0.60917 0.0
C6669 C 0.62921 0.21674 0.61649 0.0
C6670 C 0.62646 0.20153 0.60655 0.0
C6671 C 0.63773 0.24846 0.6175 0.0
C6672 C 0.64758 0.25172 0.63271 0.0
C6673 C 0.62837 0.26228 0.60943 0.0
C6674 C 0.61632 0.2591 0.59447 0.0
C6675 C 0.60228 0.24723 0.59619 0.0
C6676 C 0.59102 0.2441 0.58205 0.0
C6677 C 0.59359 0.25287 0.56616 0.0
C6678 C 0.60739 0.26482 0.5644 0.0
C6679 C 0.6187 0.26798 0.57851 0.0
H6680 H 0.58485 0.25044 0.55523 0.0
H6681 H 0.68613 0.2792 0.69863 0.0
H6682 H 0.57378 0.10847 0.56555 0.0
H6683 H 0.54398 0.10615 0.57711 0.0
H6684 H 0.56484 0.09875 0.62927 0.0
H6685 H 0.59498 0.10094 0.61752 0.0
H6686 H 0.53629 0.07612 0.62036 0.0
H6687 H 0.55091 0.13823 0.61739 0.0
H6688 H 0.56093 0.16489 0.60202 0.0
H6689 H 0.51846 0.16006 0.5653 0.0
H6690 H 0.50832 0.13322 0.58031 0.0
H6691 H 0.46547 0.09706 0.67394 0.0
H6692 H 0.49292 0.09416 0.65822 0.0
H6693 H 0.46797 0.11254 0.61081 0.0
H6694 H 0.44061 0.11683 0.62689 0.0
H6695 H 0.49754 0.12811 0.61428 0.0
H6696 H 0.48103 0.06831 0.61669 0.0
H6697 H 0.47026 0.04085 0.62997 0.0
H6698 H 0.51484 0.03965 0.66441 0.0
H6699 H 0.52577 0.06724 0.65153 0.0
C6700 C 0.57195 0.10618 0.57947 0.0
C6701 C 0.58644 0.10492 0.59076 0.0
C6702 C 0.55499 0.10491 0.58604 0.0
C6703 C 0.55226 0.10254 0.60404 0.0
C6704 C 0.56677 0.10064 0.61532 0.0
C6705 C 0.58388 0.10189 0.60869 0.0
C6706 C 0.5342 0.10267 0.61104 0.0
C6707 C 0.52784 0.08752 0.61927 0.0
C6708 C 0.52299 0.1173 0.60874 0.0
C6709 C 0.52894 0.13362 0.59989 0.0
C6710 C 0.54377 0.14279 0.60597 0.0
C6711 C 0.54946 0.15794 0.59734 0.0
C6712 C 0.54036 0.16414 0.58267 0.0
C6713 C 0.52551 0.15523 0.57665 0.0
C6714 C 0.51977 0.14006 0.58523 0.0
C6715 C 0.4657 0.10038 0.66012 0.0
C6716 C 0.45064 0.10688 0.65165 0.0
C6717 C 0.48142 0.09851 0.65107 0.0
C6718 C 0.48245 0.1027 0.6332 0.0
C6719 C 0.46742 0.10899 0.62456 0.0
C6720 C 0.45166 0.11117 0.63373 0.0
C6721 C 0.49961 0.10163 0.62407 0.0
C6722 C 0.50584 0.11659 0.61532 0.0
C6723 C 0.51056 0.08668 0.62555 0.0
C6724 C 0.50417 0.06992 0.6332 0.0
C6725 C 0.48849 0.06225 0.62717 0.0
C6726 C 0.48236 0.04665 0.63462 0.0
C6727 C 0.49184 0.03853 0.64804 0.0
C6728 C 0.50751 0.04595 0.65401 0.0
C6729 C 0.5137 0.06156 0.64661 0.0
H6730 H 0.48706 0.02646 0.65381 0.0
H6731 H 0.54479 0.17586 0.576 0.0
H6732 H 0.32815 0.15949 0.65906 0.0
H6733 H 0.32751 0.18985 0.64948 0.0
H6734 H 0.37557 0.18191 0.62065 0.0
H6735 H 0.37676 0.15156 0.63082 0.0
H6736 H 0.37848 0.20885 0.64291 0.0
H6737 H 0.33436 0.18951 0.6005 0.0
H6738 H 0.30641 0.17539 0.59226 0.0
H6739 H 0.27821 0.21131 0.62525 0.0
H6740 H 0.30602 0.22552 0.63381 0.0
H6741 H 0.3875 0.27574 0.58253 0.0
H6742 H 0.38333 0.2496 0.60042 0.0
H6743 H 0.33915 0.27399 0.62611 0.0
H6744 H 0.34324 0.30031 0.60796 0.0
H6745 H 0.33126 0.2418 0.61257 0.0
H6746 H 0.37409 0.26471 0.65058 0.0
H6747 H 0.40151 0.2795 0.65925 0.0
H6748 H 0.43163 0.23786 0.63623 0.0
H6749 H 0.40441 0.22291 0.62718 0.0
C6750 C 0.33833 0.16396 0.65022 0.0
C6751 C 0.3527 0.15313 0.64596 0.0
C6752 C 0.33794 0.18142 0.64478 0.0
C6753 C 0.35161 0.1882 0.63454 0.0
C6754 C 0.36502 0.17696 0.62878 0.0
C6755 C 0.36557 0.15955 0.63443 0.0
C6756 C 0.35282 0.20726 0.63106 0.0
C6757 C 0.36824 0.21603 0.63611 0.0
C6758 C 0.33898 0.21686 0.62327 0.0
C6759 C 0.32227 0.20846 0.61791 0.0
C6760 C 0.3222 0.19433 0.60607 0.0
C6761 C 0.30638 0.18632 0.60133 0.0
C6762 C 0.29055 0.19242 0.60827 0.0
C6763 C 0.29048 0.20658 0.6199 0.0
C6764 C 0.30626 0.21464 0.62468 0.0
C6765 C 0.37711 0.27565 0.59224 0.0
C6766 C 0.36577 0.29001 0.594 0.0
C6767 C 0.37482 0.26079 0.60254 0.0
C6768 C 0.36106 0.25997 0.61472 0.0
C6769 C 0.34996 0.2745 0.6169 0.0
C6770 C 0.35238 0.28952 0.60665 0.0
C6771 C 0.35735 0.24308 0.62342 0.0
C6772 C 0.3414 0.23471 0.61962 0.0
C6773 C 0.37064 0.23389 0.63252 0.0
C6774 C 0.38714 0.24269 0.63814 0.0
C6775 C 0.38655 0.25873 0.64727 0.0
C6776 C 0.40207 0.26715 0.65227 0.0
C6777 C 0.4183 0.25963 0.64828 0.0
C6778 C 0.41904 0.24366 0.63933 0.0
C6779 C 0.40356 0.23518 0.6343 0.0
H6780 H 0.4303 0.26618 0.65214 0.0
H6781 H 0.27832 0.18619 0.6046 0.0
H6782 H 0.53848 0.41226 0.66144 0.0
H6783 H 0.51196 0.41757 0.64409 0.0
H6784 H 0.51841 0.36724 0.61891 0.0
H6785 H 0.54553 0.3624 0.63565 0.0
H6786 H 0.50236 0.38991 0.59707 0.0
H6787 H 0.49528 0.37037 0.65657 0.0
H6788 H 0.49996 0.37155 0.68857 0.0
H6789 H 0.47556 0.42229 0.69053 0.0
H6790 H 0.47097 0.42152 0.65846 0.0
H6791 H 0.41524 0.35746 0.59331 0.0
H6792 H 0.44489 0.36269 0.60398 0.0
H6793 H 0.43436 0.41815 0.60705 0.0
H6794 H 0.40458 0.41319 0.59572 0.0
H6795 H 0.45239 0.3971 0.63828 0.0
H6796 H 0.456 0.41268 0.57698 0.0
H6797 H 0.45134 0.4083 0.54527 0.0
H6798 H 0.48156 0.36082 0.54711 0.0
H6799 H 0.48622 0.36477 0.57889 0.0
C6800 C 0.53446 0.40264 0.65177 0.0
C6801 C 0.54371 0.38688 0.64989 0.0
C6802 C 0.51937 0.40564 0.64191 0.0
C6803 C 0.51298 0.39258 0.63059 0.0
C6804 C 0.52308 0.37744 0.62763 0.0
C6805 C 0.53847 0.37464 0.63721 0.0
C6806 C 0.49473 0.39349 0.62405 0.0
C6807 C 0.49143 0.39151 0.60604 0.0
C6808 C 0.48047 0.39558 0.63581 0.0
C6809 C 0.48295 0.39597 0.65512 0.0
C6810 C 0.491 0.38182 0.66382 0.0
C6811 C 0.49363 0.38241 0.68196 0.0
C6812 C 0.4881 0.39701 0.69157 0.0
C6813 C 0.47987 0.41101 0.68306 0.0
C6814 C 0.47724 0.41051 0.6649 0.0
C6815 C 0.41902 0.37077 0.59653 0.0
C6816 C 0.40754 0.38495 0.59359 0.0
C6817 C 0.43604 0.37372 0.60244 0.0
C6818 C 0.44179 0.3908 0.60586 0.0
C6819 C 0.4301 0.4049 0.60418 0.0
C6820 C 0.4131 0.40202 0.59788 0.0
C6821 C 0.46007 0.39363 0.61136 0.0
C6822 C 0.46335 0.39602 0.62924 0.0
C6823 C 0.4742 0.39147 0.59952 0.0
C6824 C 0.47129 0.38894 0.5804 0.0
C6825 C 0.46148 0.40118 0.57068 0.0
C6826 C 0.4589 0.39882 0.55267 0.0
C6827 C 0.46615 0.38429 0.54417 0.0
C6828 C 0.47598 0.37208 0.55369 0.0
C6829 C 0.47861 0.37439 0.57171 0.0
H6830 H 0.4642 0.38254 0.53022 0.0
H6831 H 0.49015 0.39745 0.70561 0.0
H6832 H 0.85665 0.61092 0.65567 0.0
H6833 H 0.86674 0.61259 0.68599 0.0
H6834 H 0.85017 0.66662 0.68874 0.0
H6835 H 0.84018 0.6652 0.65837 0.0
H6836 H 0.88024 0.66154 0.70622 0.0
H6837 H 0.82414 0.63527 0.70345 0.0
H6838 H 0.80081 0.61484 0.69434 0.0
H6839 H 0.82986 0.57163 0.71586 0.0
H6840 H 0.85355 0.59176 0.72482 0.0
H6841 H 0.88965 0.65923 0.79896 0.0
H6842 H 0.87274 0.66167 0.77152 0.0
H6843 H 0.89043 0.6101 0.7562 0.0
H6844 H 0.9074 0.60782 0.78339 0.0
H6845 H 0.85519 0.61714 0.74677 0.0
H6846 H 0.91339 0.64413 0.74408 0.0
H6847 H 0.93604 0.66527 0.75343 0.0
H6848 H 0.90105 0.70804 0.74239 0.0
H6849 H 0.87809 0.6871 0.73323 0.0
C6850 C 0.85558 0.62332 0.66252 0.0
C6851 C 0.84734 0.63785 0.65464 0.0
C6852 C 0.86116 0.62418 0.67993 0.0
C6853 C 0.85864 0.63955 0.68972 0.0
C6854 C 0.85198 0.65456 0.68144 0.0
C6855 C 0.84638 0.65373 0.66403 0.0
C6856 C 0.86242 0.63974 0.70874 0.0
C6857 C 0.87451 0.65203 0.71514 0.0
C6858 C 0.85485 0.62734 0.72036 0.0
C6859 C 0.84073 0.61507 0.71472 0.0
C6860 C 0.82566 0.6214 0.70611 0.0
C6861 C 0.81234 0.60986 0.70099 0.0
C6862 C 0.81384 0.59195 0.70452 0.0
C6863 C 0.8287 0.58552 0.71314 0.0
C6864 C 0.84209 0.597 0.71824 0.0
C6865 C 0.88945 0.6483 0.78988 0.0
C6866 C 0.89969 0.63335 0.79305 0.0
C6867 C 0.87989 0.6497 0.77428 0.0
C6868 C 0.88049 0.6361 0.76184 0.0
C6869 C 0.88977 0.62068 0.76567 0.0
C6870 C 0.89947 0.6194 0.78111 0.0
C6871 C 0.87338 0.63854 0.74399 0.0
C6872 C 0.86063 0.62679 0.73783 0.0
C6873 C 0.88019 0.65151 0.7326 0.0
C6874 C 0.89395 0.66406 0.73821 0.0
C6875 C 0.91047 0.65803 0.74382 0.0
C6876 C 0.92337 0.66998 0.74906 0.0
C6877 C 0.91997 0.68799 0.74857 0.0
C6878 C 0.90365 0.69409 0.74282 0.0
C6879 C 0.89069 0.68219 0.73761 0.0
H6880 H 0.92998 0.69722 0.75259 0.0
H6881 H 0.8035 0.58304 0.70058 0.0
H6882 H 0.91295 0.89404 0.58907 0.0
H6883 H 0.91495 0.88215 0.55926 0.0
H6884 H 0.85899 0.88866 0.55303 0.0
H6885 H 0.85674 0.89913 0.58282 0.0
H6886 H 0.86642 0.8618 0.53768 0.0
H6887 H 0.89232 0.91902 0.53704 0.0
H6888 H 0.91278 0.94272 0.54522 0.0
H6889 H 0.95634 0.9115 0.52785 0.0
H6890 H 0.93615 0.88751 0.51979 0.0
H6891 H 0.86144 0.86096 0.4456 0.0
H6892 H 0.86501 0.87706 0.47332 0.0
H6893 H 0.91164 0.84711 0.48479 0.0
H6894 H 0.90781 0.83069 0.45743 0.0
H6895 H 0.91004 0.88665 0.49623 0.0
H6896 H 0.87972 0.82895 0.49854 0.0
H6897 H 0.85649 0.80893 0.48815 0.0
H6898 H 0.81729 0.84736 0.50081 0.0
H6899 H 0.84035 0.86774 0.51096 0.0
C6900 C 0.90103 0.89242 0.58149 0.0
C6901 C 0.88472 0.89768 0.58834 0.0
C6902 C 0.90222 0.88593 0.56433 0.0
C6903 C 0.8872 0.88501 0.55364 0.0
C6904 C 0.87083 0.88928 0.56088 0.0
C6905 C 0.86957 0.89528 0.57806 0.0
C6906 C 0.88819 0.87974 0.53488 0.0
C6907 C 0.87588 0.86749 0.5287 0.0
C6908 C 0.90052 0.88704 0.52295 0.0
C6909 C 0.91273 0.90136 0.52803 0.0
C6910 C 0.90627 0.91713 0.53513 0.0
C6911 C 0.91782 0.93064 0.53971 0.0
C6912 C 0.93586 0.92859 0.53711 0.0
C6913 C 0.94237 0.91305 0.5299 0.0
C6914 C 0.93088 0.89949 0.52532 0.0
C6915 C 0.87273 0.85827 0.45381 0.0
C6916 C 0.88428 0.84459 0.44962 0.0
C6917 C 0.87479 0.86746 0.46955 0.0
C6918 C 0.88858 0.86319 0.48102 0.0
C6919 C 0.90102 0.85063 0.47602 0.0
C6920 C 0.89874 0.8412 0.46051 0.0
C6921 C 0.88816 0.86913 0.49941 0.0
C6922 C 0.90061 0.88125 0.50542 0.0
C6923 C 0.87556 0.86232 0.51113 0.0
C6924 C 0.86175 0.84991 0.50532 0.0
C6925 C 0.86616 0.83318 0.49896 0.0
C6926 C 0.85303 0.82176 0.49314 0.0
C6927 C 0.83543 0.82689 0.49378 0.0
C6928 C 0.83093 0.84342 0.50029 0.0
C6929 C 0.84402 0.8549 0.50608 0.0
H6930 H 0.82528 0.81803 0.48928 0.0
H6931 H 0.94478 0.93907 0.54065 0.0
H6932 H 0.13836 0.83434 0.65117 0.0
H6933 H 0.12699 0.83027 0.68119 0.0
H6934 H 0.15063 0.87921 0.69685 0.0
H6935 H 0.16119 0.8838 0.66716 0.0
H6936 H 0.15805 0.84651 0.71893 0.0
H6937 H 0.11418 0.8848 0.69472 0.0
H6938 H 0.09249 0.89419 0.67265 0.0
H6939 H 0.06286 0.84706 0.68133 0.0
H6940 H 0.08463 0.83723 0.70325 0.0
H6941 H 0.1165 0.87299 0.79978 0.0
H6942 H 0.13141 0.86965 0.77149 0.0
H6943 H 0.09598 0.82769 0.75773 0.0
H6944 H 0.08105 0.83102 0.78585 0.0
H6945 H 0.09533 0.85445 0.73437 0.0
H6946 H 0.13899 0.82002 0.76433 0.0
H6947 H 0.16134 0.81391 0.78689 0.0
H6948 H 0.19231 0.85716 0.76843 0.0
H6949 H 0.16995 0.86384 0.746 0.0
C6950 C 0.14075 0.84436 0.66096 0.0
C6951 C 0.15042 0.85947 0.65675 0.0
C6952 C 0.13445 0.84196 0.67805 0.0
C6953 C 0.13825 0.85437 0.69112 0.0
C6954 C 0.14772 0.86947 0.6869 0.0
C6955 C 0.15351 0.87215 0.66984 0.0
C6956 C 0.13207 0.85201 0.70924 0.0
C6957 C 0.14435 0.8482 0.72243 0.0
C6958 C 0.11427 0.85436 0.71357 0.0
C6959 C 0.10119 0.86012 0.70037 0.0
C6960 C 0.10318 0.87631 0.69173 0.0
C6961 C 0.09085 0.88175 0.6793 0.0
C6962 C 0.07635 0.87119 0.67552 0.0
C6963 C 0.07414 0.85519 0.68422 0.0
C6964 C 0.08648 0.84967 0.69664 0.0
C6965 C 0.11233 0.86266 0.79097 0.0
C6966 C 0.09765 0.85225 0.79492 0.0
C6967 C 0.12081 0.86079 0.77482 0.0
C6968 C 0.11475 0.84843 0.76255 0.0
C6969 C 0.1008 0.83732 0.76701 0.0
C6970 C 0.09229 0.83925 0.78303 0.0
C6971 C 0.12122 0.84862 0.7443 0.0
C6972 C 0.10899 0.8523 0.731 0.0
C6973 C 0.13916 0.84653 0.74003 0.0
C6974 C 0.15265 0.84255 0.75356 0.0
C6975 C 0.15046 0.82837 0.76519 0.0
C6976 C 0.16315 0.8248 0.77795 0.0
C6977 C 0.1782 0.83519 0.77914 0.0
C6978 C 0.18061 0.84917 0.76753 0.0
C6979 C 0.16792 0.85286 0.75479 0.0
H6980 H 0.18802 0.83239 0.78901 0.0
H6981 H 0.06679 0.87543 0.6659 0.0
H6982 H 0.0792 0.65346 0.45246 0.0
H6983 H 0.07568 0.63948 0.48114 0.0
H6984 H 0.1297 0.62247 0.47941 0.0
H6985 H 0.13288 0.63576 0.45028 0.0
H6986 H 0.11236 0.60061 0.49876 0.0
H6987 H 0.11923 0.66174 0.49654 0.0
H6988 H 0.11382 0.6923 0.48749 0.0
H6989 H 0.06253 0.69039 0.51071 0.0
H6990 H 0.06752 0.65964 0.51961 0.0
H6991 H 0.13455 0.60713 0.58713 0.0
H6992 H 0.13141 0.62024 0.55823 0.0
H6993 H 0.07547 0.61234 0.56035 0.0
H6994 H 0.07842 0.59877 0.58931 0.0
H6995 H 0.09233 0.64584 0.5412 0.0
H6996 H 0.09563 0.58136 0.54831 0.0
H6997 H 0.11174 0.556 0.56027 0.0
H6998 H 0.15637 0.56904 0.52853 0.0
H6999 H 0.14098 0.59509 0.5172 0.0
C7000 C 0.09004 0.64606 0.45794 0.0
C7001 C 0.10631 0.64563 0.44939 0.0
C7002 C 0.08809 0.6382 0.47434 0.0
C7003 C 0.10258 0.63043 0.48265 0.0
C7004 C 0.11836 0.6285 0.4733 0.0
C7005 C 0.1202 0.63605 0.45668 0.0
C7006 C 0.10207 0.62677 0.50176 0.0
C7007 C 0.10789 0.61046 0.508 0.0
C7008 C 0.09684 0.63986 0.51392 0.0
C7009 C 0.09364 0.6583 0.50852 0.0
C7010 C 0.10672 0.66777 0.49955 0.0
C7011 C 0.10375 0.68513 0.49447 0.0
C7012 C 0.08782 0.69326 0.49847 0.0
C7013 C 0.07484 0.68405 0.50757 0.0
C7014 C 0.07773 0.66664 0.51263 0.0
C7015 C 0.12146 0.60871 0.58184 0.0
C7016 C 0.10677 0.60141 0.59033 0.0
C7017 C 0.11974 0.61624 0.56528 0.0
C7018 C 0.10329 0.6168 0.55711 0.0
C7019 C 0.08829 0.61181 0.56649 0.0
C7020 C 0.09001 0.60404 0.58302 0.0
C7021 C 0.10226 0.61966 0.53803 0.0
C7022 C 0.09629 0.63586 0.53186 0.0
C7023 C 0.10852 0.60688 0.52606 0.0
C7024 C 0.11721 0.59046 0.53213 0.0
C7025 C 0.10901 0.57909 0.54416 0.0
C7026 C 0.11805 0.56461 0.55089 0.0
C7027 C 0.13512 0.56104 0.54527 0.0
C7028 C 0.14318 0.5719 0.53294 0.0
C7029 C 0.13433 0.58657 0.52643 0.0
H7030 H 0.14208 0.54978 0.55029 0.0
H7031 H 0.08555 0.70673 0.49456 0.0
H7032 H 0.91722 0.38369 0.71407 0.0
H7033 H 0.90145 0.38018 0.74172 0.0
H7034 H 0.87029 0.33881 0.71892 0.0
H7035 H 0.88636 0.34208 0.69113 0.0
H7036 H 0.85195 0.36463 0.74351 0.0
H7037 H 0.89972 0.324 0.7402 0.0
H7038 H 0.93008 0.31501 0.73356 0.0
H7039 H 0.94961 0.35176 0.77153 0.0
H7040 H 0.91936 0.36119 0.7782 0.0
H7041 H 0.83268 0.33073 0.82988 0.0
H7042 H 0.84431 0.33001 0.80006 0.0
H7043 H 0.87517 0.37616 0.81079 0.0
H7044 H 0.86305 0.37746 0.8406 0.0
H7045 H 0.89159 0.34415 0.79106 0.0
H7046 H 0.8438 0.38618 0.79244 0.0
H7047 H 0.81362 0.39671 0.79737 0.0
H7048 H 0.7938 0.35741 0.76224 0.0
H7049 H 0.82387 0.34636 0.75739 0.0
C7050 C 0.90674 0.37411 0.71484 0.0
C7051 C 0.90286 0.36327 0.70049 0.0
C7052 C 0.89775 0.37213 0.73059 0.0
C7053 C 0.88484 0.35917 0.73231 0.0
C7054 C 0.88016 0.34896 0.71772 0.0
C7055 C 0.88924 0.35093 0.70186 0.0
C7056 C 0.87782 0.35531 0.74993 0.0
C7057 C 0.86044 0.35978 0.75386 0.0
C7058 C 0.88907 0.34919 0.76337 0.0
C7059 C 0.90728 0.3434 0.7596 0.0
C7060 C 0.9105 0.33027 0.74704 0.0
C7061 C 0.92768 0.32507 0.74328 0.0
C7062 C 0.94177 0.33283 0.75209 0.0
C7063 C 0.93868 0.34577 0.76471 0.0
C7064 C 0.92152 0.35103 0.7685 0.0
C7065 C 0.84233 0.34047 0.82612 0.0
C7066 C 0.84698 0.35418 0.83761 0.0
C7067 C 0.84877 0.34013 0.809 0.0
C7068 C 0.86028 0.35321 0.80326 0.0
C7069 C 0.86612 0.36607 0.81506 0.0
C7070 C 0.85933 0.3667 0.83208 0.0
C7071 C 0.86581 0.35379 0.78476 0.0
C7072 C 0.88296 0.34866 0.78067 0.0
C7073 C 0.85427 0.35919 0.77121 0.0
C7074 C 0.83609 0.36521 0.77482 0.0
C7075 C 0.833 0.37952 0.78606 0.0
C7076 C 0.81591 0.38565 0.78876 0.0
C7077 C 0.80182 0.37771 0.78015 0.0
C7078 C 0.80474 0.36352 0.76893 0.0
C7079 C 0.8218 0.3573 0.76622 0.0
H7080 H 0.78866 0.38262 0.78209 0.0
H7081 H 0.95506 0.3288 0.74917 0.0
H7082 H 0.58327 0.89219 0.40566 0.0
H7083 H 0.5813 0.88135 0.43584 0.0
H7084 H 0.6366 0.89136 0.44303 0.0
H7085 H 0.63889 0.90109 0.4129 0.0
H7086 H 0.62968 0.86369 0.45868 0.0
H7087 H 0.60294 0.92012 0.45771 0.0
H7088 H 0.58254 0.94348 0.44852 0.0
H7089 H 0.53873 0.91207 0.46492 0.0
H7090 H 0.55888 0.88845 0.47408 0.0
H7091 H 0.62963 0.8594 0.55086 0.0
H7092 H 0.62887 0.87566 0.5231 0.0
H7093 H 0.58025 0.85013 0.50938 0.0
H7094 H 0.58106 0.83374 0.53698 0.0
H7095 H 0.58391 0.88762 0.49832 0.0
H7096 H 0.61427 0.83052 0.49739 0.0
H7097 H 0.63692 0.80985 0.50778 0.0
H7098 H 0.67713 0.84747 0.49584 0.0
H7099 H 0.65466 0.86846 0.48565 0.0
C7100 C 0.59508 0.89161 0.41354 0.0
C7101 C 0.6112 0.8976 0.40686 0.0
C7102 C 0.59389 0.88569 0.43088 0.0
C7103 C 0.6087 0.88603 0.44188 0.0
C7104 C 0.62495 0.89106 0.43488 0.0
C7105 C 0.62624 0.89658 0.41754 0.0
C7106 C 0.6075 0.88118 0.46069 0.0
C7107 C 0.61979 0.86918 0.46733 0.0
C7108 C 0.59462 0.8883 0.47208 0.0
C7109 C 0.58243 0.90243 0.46644 0.0
C7110 C 0.58895 0.91813 0.45925 0.0
C7111 C 0.57743 0.93144 0.45407 0.0
C7112 C 0.55934 0.92924 0.45608 0.0
C7113 C 0.55274 0.91375 0.46334 0.0
C7114 C 0.56421 0.9004 0.46855 0.0
C7115 C 0.61849 0.85776 0.5422 0.0
C7116 C 0.6054 0.84536 0.54596 0.0
C7117 C 0.61809 0.86699 0.52636 0.0
C7118 C 0.60454 0.86398 0.51424 0.0
C7119 C 0.59075 0.85266 0.51863 0.0
C7120 C 0.59128 0.84325 0.53431 0.0
C7121 C 0.60608 0.8703 0.49601 0.0
C7122 C 0.59384 0.88241 0.48954 0.0
C7123 C 0.61934 0.86378 0.48484 0.0
C7124 C 0.63278 0.85112 0.49097 0.0
C7125 C 0.62792 0.83444 0.49715 0.0
C7126 C 0.64073 0.82266 0.50297 0.0
C7127 C 0.65845 0.82737 0.50252 0.0
C7128 C 0.6634 0.84386 0.49622 0.0
C7129 C 0.65064 0.85569 0.49042 0.0
H7130 H 0.66835 0.81822 0.50701 0.0
H7131 H 0.55044 0.93955 0.45206 0.0
H7132 H 0.1765 0.14674 0.82456 0.0
H7133 H 0.1653 0.14598 0.79471 0.0
H7134 H 0.11371 0.13323 0.81439 0.0
H7135 H 0.12554 0.13221 0.84441 0.0
H7136 H 0.12178 0.11259 0.789 0.0
H7137 H 0.12861 0.17739 0.79529 0.0
H7138 H 0.14754 0.20282 0.80204 0.0
H7139 H 0.18378 0.18686 0.76199 0.0
H7140 H 0.16506 0.16138 0.75499 0.0
H7141 H 0.06556 0.12585 0.72046 0.0
H7142 H 0.08265 0.1286 0.74709 0.0
H7143 H 0.12878 0.14087 0.7167 0.0
H7144 H 0.11132 0.13988 0.68993 0.0
H7145 H 0.1288 0.15988 0.7448 0.0
H7146 H 0.12311 0.09932 0.73472 0.0
H7147 H 0.10834 0.07159 0.72701 0.0
H7148 H 0.07568 0.07593 0.77269 0.0
H7149 H 0.09009 0.10382 0.78056 0.0
C7150 C 0.16264 0.14428 0.8225 0.0
C7151 C 0.1517 0.13995 0.83666 0.0
C7152 C 0.15624 0.14391 0.80544 0.0
C7153 C 0.13855 0.14007 0.80226 0.0
C7154 C 0.12741 0.13637 0.81655 0.0
C7155 C 0.13404 0.13597 0.83365 0.0
C7156 C 0.13194 0.13851 0.78405 0.0
C7157 C 0.12303 0.12308 0.77945 0.0
C7158 C 0.13485 0.15157 0.77111 0.0
C7159 C 0.14544 0.16751 0.77463 0.0
C7160 C 0.14056 0.17939 0.78787 0.0
C7161 C 0.15127 0.19378 0.79175 0.0
C7162 C 0.16685 0.19645 0.78245 0.0
C7163 C 0.17169 0.18481 0.76914 0.0
C7164 C 0.16099 0.17045 0.76516 0.0
C7165 C 0.07933 0.12918 0.71932 0.0
C7166 C 0.08716 0.13185 0.70285 0.0
C7167 C 0.08914 0.13059 0.73461 0.0
C7168 C 0.10715 0.13424 0.73385 0.0
C7169 C 0.11497 0.13762 0.71754 0.0
C7170 C 0.105 0.13663 0.70216 0.0
C7171 C 0.11749 0.13452 0.75027 0.0
C7172 C 0.12744 0.14946 0.7544 0.0
C7173 C 0.11611 0.12074 0.76263 0.0
C7174 C 0.10765 0.10372 0.7582 0.0
C7175 C 0.11274 0.0944 0.7431 0.0
C7176 C 0.10443 0.07865 0.73869 0.0
C7177 C 0.09107 0.07202 0.74934 0.0
C7178 C 0.08604 0.08109 0.76446 0.0
C7179 C 0.09431 0.09685 0.76892 0.0
H7180 H 0.08463 0.05984 0.7459 0.0
H7181 H 0.17518 0.20752 0.78556 0.0
H7182 H 0.41573 0.58806 0.41036 0.0
H7183 H 0.41691 0.60033 0.4399 0.0
H7184 H 0.36827 0.62763 0.43067 0.0
H7185 H 0.36659 0.61496 0.40118 0.0
H7186 H 0.40715 0.6421 0.45329 0.0
H7187 H 0.35231 0.60345 0.44891 0.0
H7188 H 0.34061 0.57566 0.43701 0.0
H7189 H 0.38235 0.54716 0.46189 0.0
H7190 H 0.39445 0.57486 0.47369 0.0
H7191 H 0.36141 0.67077 0.52562 0.0
H7192 H 0.36683 0.65609 0.49777 0.0
H7193 H 0.39828 0.61714 0.52408 0.0
H7194 H 0.3934 0.63215 0.55216 0.0
H7195 H 0.37291 0.60494 0.49454 0.0
H7196 H 0.4216 0.64196 0.507 0.0
H7197 H 0.43677 0.66868 0.51708 0.0
H7198 H 0.41156 0.69861 0.47655 0.0
H7199 H 0.39598 0.67211 0.46641 0.0
C7200 C 0.40556 0.59716 0.41432 0.0
C7201 C 0.39092 0.60038 0.40349 0.0
C7202 C 0.40624 0.60405 0.43126 0.0
C7203 C 0.39253 0.61455 0.43742 0.0
C7204 C 0.37886 0.61935 0.42607 0.0
C7205 C 0.37797 0.61219 0.40923 0.0
C7206 C 0.39142 0.61889 0.4562 0.0
C7207 C 0.39964 0.63408 0.46233 0.0
C7208 C 0.38227 0.60789 0.468 0.0
C7209 C 0.37434 0.59118 0.46203 0.0
C7210 C 0.35899 0.59125 0.45181 0.0
C7211 C 0.35234 0.57554 0.44503 0.0
C7212 C 0.36086 0.5597 0.44852 0.0
C7213 C 0.37588 0.55948 0.45905 0.0
C7214 C 0.38262 0.57516 0.46581 0.0
C7215 C 0.36929 0.65893 0.52559 0.0
C7216 C 0.3769 0.6526 0.54114 0.0
C7217 C 0.37231 0.65055 0.50967 0.0
C7218 C 0.38299 0.63563 0.50893 0.0
C7219 C 0.38989 0.6286 0.52449 0.0
C7220 C 0.38697 0.63713 0.54053 0.0
C7221 C 0.38803 0.62869 0.49156 0.0
C7222 C 0.38062 0.61292 0.48563 0.0
C7223 C 0.39823 0.63903 0.47998 0.0
C7224 C 0.40748 0.65507 0.48606 0.0
C7225 C 0.41913 0.65427 0.50036 0.0
C7226 C 0.42784 0.66937 0.50606 0.0
C7227 C 0.4251 0.68534 0.49749 0.0
C7228 C 0.41365 0.68624 0.48319 0.0
C7229 C 0.40488 0.67117 0.47745 0.0
H7230 H 0.43187 0.69702 0.50191 0.0
H7231 H 0.35572 0.54758 0.4432 0.0
H7232 H 0.80396 0.88225 0.62242 0.0
H7233 H 0.77817 0.86391 0.62741 0.0
H7234 H 0.7505 0.90858 0.6485 0.0
H7235 H 0.77651 0.92669 0.64448 0.0
H7236 H 0.74207 0.88 0.66632 0.0
H7237 H 0.74801 0.89557 0.60417 0.0
H7238 H 0.76297 0.89569 0.57547 0.0
H7239 H 0.76352 0.83936 0.57519 0.0
H7240 H 0.74874 0.83891 0.604 0.0
H7241 H 0.65155 0.86524 0.64637 0.0
H7242 H 0.68181 0.87664 0.64865 0.0
H7243 H 0.70187 0.82694 0.63032 0.0
H7244 H 0.67193 0.81574 0.62798 0.0
H7245 H 0.7161 0.85365 0.61278 0.0
H7246 H 0.7066 0.83742 0.67208 0.0
H7247 H 0.69131 0.83623 0.70055 0.0
H7248 H 0.69759 0.89188 0.70659 0.0
H7249 H 0.71267 0.89347 0.67801 0.0
C7250 C 0.79263 0.88803 0.62868 0.0
C7251 C 0.79235 0.90591 0.63321 0.0
C7252 C 0.77779 0.87758 0.6313 0.0
C7253 C 0.76233 0.88494 0.63811 0.0
C7254 C 0.76228 0.90261 0.64323 0.0
C7255 C 0.77711 0.91298 0.64078 0.0
C7256 C 0.74572 0.87488 0.63875 0.0
C7257 C 0.73633 0.87431 0.65461 0.0
C7258 C 0.73851 0.86692 0.62359 0.0
C7259 C 0.74748 0.86722 0.60632 0.0
C7260 C 0.75145 0.88322 0.59805 0.0
C7261 C 0.75987 0.88334 0.58175 0.0
C7262 C 0.76424 0.86755 0.57354 0.0
C7263 C 0.76016 0.85159 0.58159 0.0
C7264 C 0.75177 0.85139 0.59789 0.0
C7265 C 0.66251 0.85689 0.6429 0.0
C7266 C 0.65967 0.83975 0.63695 0.0
C7267 C 0.6797 0.86328 0.64429 0.0
C7268 C 0.69404 0.85255 0.63974 0.0
C7269 C 0.69102 0.83541 0.63388 0.0
C7270 C 0.67398 0.82906 0.63255 0.0
C7271 C 0.71219 0.85935 0.64019 0.0
C7272 C 0.72189 0.85918 0.62456 0.0
C7273 C 0.7197 0.86647 0.65557 0.0
C7274 C 0.71062 0.86559 0.67279 0.0
C7275 C 0.70458 0.84944 0.67939 0.0
C7276 C 0.69597 0.84868 0.69557 0.0
C7277 C 0.69343 0.86397 0.70535 0.0
C7278 C 0.69954 0.88004 0.69899 0.0
C7279 C 0.70813 0.88088 0.6828 0.0
H7280 H 0.68678 0.86336 0.71787 0.0
H7281 H 0.77075 0.86767 0.56092 0.0
H7282 H 0.64782 0.12649 0.86307 0.0
H7283 H 0.67765 0.11449 0.8623 0.0
H7284 H 0.69656 0.16308 0.84006 0.0
H7285 H 0.66684 0.17436 0.83937 0.0
H7286 H 0.71553 0.13979 0.82817 0.0
H7287 H 0.69673 0.15305 0.8866 0.0
H7288 H 0.6774 0.15171 0.91253 0.0
H7289 H 0.68632 0.09624 0.91668 0.0
H7290 H 0.70551 0.0972 0.89064 0.0
H7291 H 0.80363 0.11796 0.85384 0.0
H7292 H 0.77586 0.13406 0.85277 0.0
H7293 H 0.74804 0.0869 0.86725 0.0
H7294 H 0.77558 0.07116 0.86947 0.0
H7295 H 0.73543 0.11394 0.88448 0.0
H7296 H 0.75313 0.10274 0.82274 0.0
H7297 H 0.77307 0.10678 0.79753 0.0
H7298 H 0.76762 0.16269 0.8018 0.0
H7299 H 0.74777 0.15897 0.8271 0.0
C7300 C 0.6583 0.13429 0.85747 0.0
C7301 C 0.65505 0.15131 0.85132 0.0
C7302 C 0.67537 0.12758 0.85728 0.0
C7303 C 0.68947 0.13816 0.85176 0.0
C7304 C 0.68598 0.15468 0.84449 0.0
C7305 C 0.6689 0.1611 0.84406 0.0
C7306 C 0.70791 0.13256 0.85448 0.0
C7307 C 0.71989 0.13431 0.84057 0.0
C7308 C 0.71379 0.12574 0.87074 0.0
C7309 C 0.70245 0.12518 0.88658 0.0
C7310 C 0.69451 0.14056 0.893 0.0
C7311 C 0.68357 0.13986 0.90772 0.0
C7312 C 0.68061 0.12389 0.91622 0.0
C7313 C 0.68862 0.1086 0.91007 0.0
C7314 C 0.69953 0.10921 0.89535 0.0
C7315 C 0.79168 0.11118 0.85735 0.0
C7316 C 0.79186 0.09334 0.86205 0.0
C7317 C 0.77577 0.12033 0.85641 0.0
C7318 C 0.75988 0.11162 0.85978 0.0
C7319 C 0.76014 0.09391 0.86465 0.0
C7320 C 0.77592 0.08489 0.86581 0.0
C7321 C 0.7427 0.12045 0.85796 0.0
C7322 C 0.73101 0.11954 0.87215 0.0
C7323 C 0.73725 0.12846 0.84214 0.0
C7324 C 0.74911 0.13058 0.82689 0.0
C7325 C 0.75627 0.11589 0.81835 0.0
C7326 C 0.76753 0.11812 0.80404 0.0
C7327 C 0.77164 0.13498 0.7981 0.0
C7328 C 0.76445 0.14964 0.80642 0.0
C7329 C 0.75318 0.14748 0.82072 0.0
H7330 H 0.78037 0.13668 0.78703 0.0
H7331 H 0.67212 0.12338 0.9276 0.0
H7332 H 0.41861 0.07882 0.41133 0.0
H7333 H 0.406 0.04942 0.41287 0.0
H7334 H 0.36487 0.065 0.3773 0.0
H7335 H 0.37788 0.09438 0.375 0.0
H7336 H 0.35936 0.04013 0.41367 0.0
H7337 H 0.38699 0.04905 0.35559 0.0
H7338 H 0.41183 0.05784 0.33683 0.0
H7339 H 0.44502 0.02047 0.36285 0.0
H7340 H 0.42051 0.0119 0.38218 0.0
H7341 H 0.31979 0.97031 0.37074 0.0
H7342 H 0.33594 -0.00248 0.37499 0.0
H7343 H 0.37849 0.96894 0.3989 0.0
H7344 H 0.36205 0.94151 0.3954 0.0
H7345 H 0.38676 -0.00148 0.37164 0.0
H7346 H 0.3593 0.98617 0.42643 0.0
H7347 H 0.33522 0.97654 0.44574 0.0
H7348 H 0.30308 0.01897 0.42727 0.0
H7349 H 0.32688 0.02868 0.4076 0.0
C7350 C 0.40656 0.07622 0.40426 0.0
C7351 C 0.39923 0.08889 0.39297 0.0
C7352 C 0.39949 0.05937 0.40506 0.0
C7353 C 0.38476 0.05511 0.39497 0.0
C7354 C 0.37638 0.06814 0.38504 0.0
C7355 C 0.38373 0.08489 0.38383 0.0
C7356 C 0.37898 0.03674 0.39368 0.0
C7357 C 0.36527 0.03104 0.40446 0.0
C7358 C 0.38723 0.02481 0.38208 0.0
C7359 C 0.40202 0.03014 0.37061 0.0
C7360 C 0.39968 0.04297 0.35757 0.0
C7361 C 0.41368 0.04787 0.34678 0.0
C7362 C 0.43002 0.03981 0.34872 0.0
C7363 C 0.43239 0.0268 0.36143 0.0
C7364 C 0.41846 0.02196 0.37234 0.0
C7365 C 0.33264 0.96971 0.3768 0.0
C7366 C 0.33965 0.95367 0.38262 0.0
C7367 C 0.34186 0.98527 0.37914 0.0
C7368 C 0.35831 0.98515 0.38729 0.0
C7369 C 0.36581 0.96917 0.39247 0.0
C7370 C 0.35645 0.9535 0.39031 0.0
C7371 C 0.3668 0.00205 0.3913 0.0
C7372 C 0.38103 0.00752 0.38106 0.0
C7373 C 0.35917 0.01372 0.40354 0.0
C7374 C 0.34482 0.00805 0.41541 0.0
C7375 C 0.34704 0.99335 0.42635 0.0
C7376 C 0.33345 0.98789 0.43739 0.0
C7377 C 0.31761 -0.00289 0.4377 0.0
C7378 C 0.31535 0.01183 0.427 0.0
C7379 C 0.32889 0.01733 0.41591 0.0
H7380 H 0.30711 0.99288 0.44626 0.0
H7381 H 0.44083 0.04363 0.34035 0.0
H7382 H 0.34291 0.36718 0.8724 0.0
H7383 H 0.31246 0.37735 0.87241 0.0
H7384 H 0.2997 0.33927 0.83244 0.0
H7385 H 0.33015 0.33007 0.83145 0.0
H7386 H 0.28051 0.36463 0.82707 0.0
H7387 H 0.29269 0.33214 0.87853 0.0
H7388 H 0.30818 0.32344 0.90558 0.0
H7389 H 0.29612 0.37328 0.92888 0.0
H7390 H 0.28077 0.3824 0.90188 0.0
H7391 H 0.19021 0.38221 0.84563 0.0
H7392 H 0.21698 0.36442 0.845 0.0
H7393 H 0.24382 0.40377 0.87562 0.0
H7394 H 0.21711 0.42115 0.87689 0.0
H7395 H 0.25311 0.37091 0.88575 0.0
H7396 H 0.24439 0.40259 0.82912 0.0
H7397 H 0.2278 0.40779 0.80177 0.0
H7398 H 0.23158 0.3531 0.78876 0.0
H7399 H 0.24804 0.34758 0.81612 0.0
C7400 C 0.33372 0.36148 0.86317 0.0
C7401 C 0.33893 0.34782 0.85198 0.0
C7402 C 0.31624 0.36703 0.86342 0.0
C7403 C 0.3036 0.35856 0.85295 0.0
C7404 C 0.30911 0.3459 0.84079 0.0
C7405 C 0.32663 0.34074 0.84015 0.0
C7406 C 0.28461 0.3625 0.85502 0.0
C7407 C 0.27452 0.3657 0.83993 0.0
C7408 C 0.27652 0.36348 0.87174 0.0
C7409 C 0.28568 0.35801 0.88809 0.0
C7410 C 0.29342 0.3413 0.88937 0.0
C7411 C 0.30218 0.33628 0.90471 0.0
C7412 C 0.30316 0.34782 0.91893 0.0
C7413 C 0.29536 0.36437 0.91785 0.0
C7414 C 0.28661 0.36946 0.90254 0.0
C7415 C 0.20165 0.38681 0.85267 0.0
C7416 C 0.20152 0.40306 0.8614 0.0
C7417 C 0.21699 0.37671 0.85213 0.0
C7418 C 0.23243 0.38287 0.86013 0.0
C7419 C 0.23207 0.39874 0.86938 0.0
C7420 C 0.21682 0.40874 0.86996 0.0
C7421 C 0.24948 0.37385 0.8579 0.0
C7422 C 0.25917 0.36951 0.87295 0.0
C7423 C 0.25703 0.37122 0.84116 0.0
C7424 C 0.24728 0.37466 0.8247 0.0
C7425 C 0.2416 0.39168 0.82045 0.0
C7426 C 0.23224 0.39468 0.80495 0.0
C7427 C 0.2286 0.38077 0.79356 0.0
C7428 C 0.23437 0.36385 0.79761 0.0
C7429 C 0.24372 0.36079 0.8131 0.0
H7430 H 0.22135 0.38312 0.78157 0.0
H7431 H 0.30995 0.34392 0.93078 0.0
H7432 H 0.17208 0.02934 0.8991 0.0
H7433 H 0.15613 0.0018 0.90209 0.0
H7434 H 0.11266 0.02351 0.87309 0.0
H7435 H 0.12882 0.05117 0.86956 0.0
H7436 H 0.10663 -0.00023 0.90727 0.0
H7437 H 0.13153 0.00215 0.84896 0.0
H7438 H 0.15528 0.00859 0.82795 0.0
H7439 H 0.18896 0.97194 0.85436 0.0
H7440 H 0.16547 0.96548 0.8757 0.0
H7441 H 0.06879 0.91734 0.88831 0.0
H7442 H 0.07945 0.9473 0.88868 0.0
H7443 H 0.13272 0.92825 0.89289 0.0
H7444 H 0.12189 0.89785 0.8908 0.0
H7445 H 0.13216 0.95239 0.87063 0.0
H7446 H 0.10539 0.94828 0.92809 0.0
H7447 H 0.08168 0.94331 0.94954 0.0
H7448 H 0.0513 0.98447 0.9259 0.0
H7449 H 0.07442 0.98916 0.90391 0.0
C7450 C 0.15901 0.02838 0.89357 0.0
C7451 C 0.15168 0.04236 0.88408 0.0
C7452 C 0.14993 0.01269 0.89536 0.0
C7453 C 0.13337 0.01074 0.88772 0.0
C7454 C 0.12545 0.02496 0.87914 0.0
C7455 C 0.13463 0.04073 0.87723 0.0
C7456 C 0.1254 0.9932 0.88736 0.0
C7457 C 0.11188 0.98936 0.89911 0.0
C7458 C 0.13274 0.97979 0.87695 0.0
C7459 C 0.14681 0.98346 0.86401 0.0
C7460 C 0.14405 0.99558 0.85037 0.0
C7461 C 0.15745 -0.00079 0.83839 0.0
C7462 C 0.17363 0.99071 0.83984 0.0
C7463 C 0.17642 0.97852 0.85326 0.0
C7464 C 0.16307 0.97486 0.86529 0.0
C7465 C 0.08278 0.91957 0.88957 0.0
C7466 C 0.09458 0.90543 0.88981 0.0
C7467 C 0.08886 0.93672 0.88994 0.0
C7468 C 0.10687 0.94014 0.89137 0.0
C7469 C 0.11873 0.92593 0.89193 0.0
C7470 C 0.11263 0.90863 0.89086 0.0
C7471 C 0.1133 0.9585 0.89088 0.0
C7472 C 0.12667 0.9626 0.87889 0.0
C7473 C 0.10569 0.97213 0.90109 0.0
C7474 C 0.09162 0.96896 0.91422 0.0
C7475 C 0.09355 0.95609 0.92731 0.0
C7476 C 0.08017 0.95329 0.93956 0.0
C7477 C 0.06491 0.96345 0.93902 0.0
C7478 C 0.06301 0.97644 0.92623 0.0
C7479 C 0.07623 0.97915 0.91384 0.0
H7480 H 0.05461 0.96131 0.94855 0.0
H7481 H 0.18399 0.99354 0.83056 0.0
H7482 H 0.68972 0.11128 0.14265 0.0
H7483 H 0.71724 0.12764 0.14543 0.0
H7484 H 0.7446 0.08633 0.11818 0.0
H7485 H 0.71718 0.07028 0.11464 0.0
H7486 H 0.75756 0.09606 0.15324 0.0
H7487 H 0.73927 0.12054 0.09715 0.0
H7488 H 0.71978 0.13697 0.07724 0.0
H7489 H 0.72492 0.18281 0.10956 0.0
H7490 H 0.7442 0.16655 0.12987 0.0
H7491 H 0.84132 0.12898 0.12152 0.0
H7492 H 0.81146 0.11686 0.12292 0.0
H7493 H 0.79679 0.1568 0.16014 0.0
H7494 H 0.82652 0.16846 0.15953 0.0
H7495 H 0.77602 0.15091 0.12344 0.0
H7496 H 0.79326 0.12806 0.17945 0.0
H7497 H 0.81304 0.11292 0.20007 0.0
H7498 H 0.80917 0.06575 0.16951 0.0
H7499 H 0.7896 0.08076 0.14849 0.0
C7500 C 0.70142 0.10596 0.13668 0.0
C7501 C 0.70119 0.08957 0.12819 0.0
C7502 C 0.71717 0.11526 0.13845 0.0
C7503 C 0.73284 0.10813 0.13199 0.0
C7504 C 0.73258 0.09199 0.12325 0.0
C7505 C 0.71691 0.08284 0.1213 0.0
C7506 C 0.74987 0.11662 0.13539 0.0
C7507 C 0.76161 0.10804 0.14669 0.0
C7508 C 0.75483 0.13255 0.12727 0.0
C7509 C 0.74294 0.14221 0.11522 0.0
C7510 C 0.73603 0.13403 0.10018 0.0
C7511 C 0.72507 0.14334 0.08878 0.0
C7512 C 0.72104 0.1609 0.09218 0.0
C7513 C 0.72799 0.16919 0.10697 0.0
C7514 C 0.73893 0.15993 0.11844 0.0
C7515 C 0.83188 0.13481 0.13039 0.0
C7516 C 0.83633 0.14956 0.14049 0.0
C7517 C 0.81485 0.128 0.13107 0.0
C7518 C 0.80205 0.1361 0.14154 0.0
C7519 C 0.80657 0.15043 0.15202 0.0
C7520 C 0.82364 0.15692 0.15175 0.0
C7521 C 0.78374 0.13004 0.14087 0.0
C7522 C 0.77181 0.13908 0.13014 0.0
C7523 C 0.77844 0.11472 0.14972 0.0
C7524 C 0.7902 0.10561 0.16225 0.0
C7525 C 0.79683 0.11454 0.17698 0.0
C7526 C 0.80795 0.10596 0.18878 0.0
C7527 C 0.81243 0.0884 0.18606 0.0
C7528 C 0.80574 0.07937 0.17157 0.0
C7529 C 0.79463 0.0879 0.15971 0.0
H7530 H 0.82103 0.08177 0.19522 0.0
H7531 H 0.71259 0.16809 0.08331 0.0
H7532 H 0.33423 0.03129 0.13688 0.0
H7533 H 0.35209 0.00486 0.1341 0.0
H7534 H 0.37398 0.02464 0.08577 0.0
H7535 H 0.35598 0.05125 0.08858 0.0
H7536 H 0.35887 0.99248 0.08203 0.0
H7537 H 0.40106 0.01793 0.1193 0.0
H7538 H 0.41315 0.03393 0.14467 0.0
H7539 H 0.39362 0.99419 0.17947 0.0
H7540 H 0.38114 0.97807 0.15436 0.0
H7541 H 0.4065 0.91103 0.07873 0.0
H7542 H 0.39574 0.94101 0.07745 0.0
H7543 H 0.37259 0.93504 0.12876 0.0
H7544 H 0.3839 0.90511 0.13045 0.0
H7545 H 0.39404 0.96256 0.12788 0.0
H7546 H 0.34767 0.94025 0.08996 0.0
H7547 H 0.33639 0.92442 0.06407 0.0
H7548 H 0.36525 0.95885 0.03008 0.0
H7549 H 0.37682 0.97479 0.05579 0.0
C7550 C 0.34321 0.03017 0.12592 0.0
C7551 C 0.34389 0.04323 0.113 0.0
C7552 C 0.35348 0.01516 0.12439 0.0
C7553 C 0.36445 0.01287 0.1098 0.0
C7554 C 0.36571 0.02627 0.0972 0.0
C7555 C 0.35554 0.04146 0.09886 0.0
C7556 C 0.3724 0.99547 0.1067 0.0
C7557 C 0.36692 0.98604 0.09186 0.0
C7558 C 0.3827 0.98708 0.11964 0.0
C7559 C 0.39003 -0.00318 0.13489 0.0
C7560 C 0.39917 0.01267 0.13237 0.0
C7561 C 0.40614 0.02175 0.14671 0.0
C7562 C 0.40413 0.0151 0.16367 0.0
C7563 C 0.39516 -0.00067 0.16632 0.0
C7564 C 0.38816 0.9902 0.15203 0.0
C7565 C 0.39862 0.91583 0.08953 0.0
C7566 C 0.3963 0.90575 0.10484 0.0
C7567 C 0.3925 0.93306 0.08878 0.0
C7568 C 0.38356 0.94034 0.1031 0.0
C7569 C 0.3797 0.92973 0.11766 0.0
C7570 C 0.38601 0.91257 0.11853 0.0
C7571 C 0.37969 0.95937 0.10371 0.0
C7572 C 0.38613 0.96908 0.118 0.0
C7573 C 0.37035 0.96805 0.09023 0.0
C7574 C 0.36323 0.95859 0.07479 0.0
C7575 C 0.35169 0.94437 0.07696 0.0
C7576 C 0.34522 0.9354 0.06232 0.0
C7577 C 0.35013 0.9406 0.04544 0.0
C7578 C 0.36146 0.95483 0.04316 0.0
C7579 C 0.36796 0.96385 0.05776 0.0
H7580 H 0.34513 0.93362 0.03413 0.0
H7581 H 0.40953 0.02214 0.17475 0.0
H7582 H 0.67311 0.465 0.09229 0.0
H7583 H 0.65566 0.4916 0.08888 0.0
H7584 H 0.61492 0.4693 0.12115 0.0
H7585 H 0.63257 0.44271 0.1251 0.0
H7586 H 0.60511 0.49207 0.08745 0.0
H7587 H 0.63483 0.49179 0.14357 0.0
H7588 H 0.66043 0.48622 0.16258 0.0
H7589 H 0.69102 0.52275 0.13252 0.0
H7590 H 0.66562 0.52833 0.11316 0.0
H7591 H 0.56555 0.57268 0.10976 0.0
H7592 H 0.57773 0.54325 0.10912 0.0
H7593 H 0.6291 0.56479 0.09849 0.0
H7594 H 0.61692 0.59467 0.10076 0.0
H7595 H 0.63205 0.54079 0.12132 0.0
H7596 H 0.60032 0.54241 0.066 0.0
H7597 H 0.57413 0.54714 0.04754 0.0
H7598 H 0.54622 0.50767 0.07645 0.0
H7599 H 0.57218 0.50281 0.09518 0.0
C7600 C 0.66031 0.46562 0.09844 0.0
C7601 C 0.6542 0.45178 0.10895 0.0
C7602 C 0.65033 0.48074 0.09636 0.0
C7603 C 0.63409 0.48229 0.10477 0.0
C7604 C 0.62738 0.46815 0.11442 0.0
C7605 C 0.63746 0.45297 0.1166 0.0
C7606 C 0.62556 0.49958 0.10537 0.0
C7607 C 0.61076 0.50275 0.09498 0.0
C7608 C 0.63321 0.51338 0.11505 0.0
C7609 C 0.6484 0.51035 0.12684 0.0
C7610 C 0.64706 0.49853 0.14094 0.0
C7611 C 0.66152 0.49539 0.15179 0.0
C7612 C 0.67736 0.5041 0.14873 0.0
C7613 C 0.67874 0.51601 0.13486 0.0
C7614 C 0.66432 0.51918 0.12396 0.0
C7615 C 0.57944 0.57109 0.10715 0.0
C7616 C 0.59035 0.58576 0.1051 0.0
C7617 C 0.58636 0.55425 0.1066 0.0
C7618 C 0.60424 0.5517 0.10318 0.0
C7619 C 0.61521 0.56644 0.10098 0.0
C7620 C 0.60832 0.58344 0.10219 0.0
C7621 C 0.61159 0.53369 0.10304 0.0
C7622 C 0.62626 0.53028 0.11365 0.0
C7623 C 0.60364 0.51968 0.09363 0.0
C7624 C 0.58818 0.52231 0.08205 0.0
C7625 C 0.58858 0.53477 0.06844 0.0
C7626 C 0.57378 0.53747 0.05793 0.0
C7627 C 0.55852 0.52773 0.06083 0.0
C7628 C 0.55805 0.5152 0.07421 0.0
C7629 C 0.57282 0.51244 0.08475 0.0
H7630 H 0.54706 0.52987 0.05271 0.0
H7631 H 0.68854 0.50164 0.15714 0.0
loop_
_geom_bond_atom_site_label_1
_geom_bond_atom_site_label_2
_geom_bond_distance
_geom_bond_site_symmetry_2
_ccdc_geom_bond_type
Co0 O3 1.970 . S
Co0 N17 1.989 . S
Co0 O25 1.967 . S
Co0 O32 1.920 . S
Co1 O4 1.966 . S
Co1 N10 2.022 . S
Co1 N18 1.993 . S
Co1 O26 1.941 . S
C2 O3 1.258 . S
C2 O4 1.263 . S
O3 Co0 1.970 . S
O3 C2 1.258 . S
O4 Co1 1.966 . S
O4 C2 1.263 . S
C5 O6 1.235 . S
C5 O32 1.289 . S
O6 C5 1.235 . S
C7 C9 1.400 . S
C7 N10 1.351 . S
C7 C12 1.501 . S
C8 C9 1.387 . S
C8 N11 1.341 . S
C9 C7 1.400 . S
C9 C8 1.387 . S
N10 Co1 2.022 . S
N10 C7 1.351 . S
N10 N11 1.365 . S
N11 C8 1.341 . S
N11 N10 1.365 . S
N11 H31 0.862 . S
C12 C7 1.501 . S
C12 H13 0.961 . S
C12 H14 0.961 . S
C12 H15 0.960 . S
H13 C12 0.961 . S
H14 C12 0.961 . S
H15 C12 0.960 . S
C16 N17 1.342 . S
C16 C20 1.401 . S
C16 C21 1.499 . S
N17 Co0 1.989 . S
N17 C16 1.342 . S
N17 N18 1.388 . S
N18 Co1 1.993 . S
N18 N17 1.388 . S
N18 C19 1.346 . S
C19 N18 1.346 . S
C19 C20 1.396 . S
C19 C29 1.510 . S
C20 C16 1.401 . S
C20 C19 1.396 . S
C21 C16 1.499 . S
C21 H22 0.959 . S
C21 H23 0.960 . S
C21 H24 0.961 . S
H22 C21 0.959 . S
H23 C21 0.960 . S
H24 C21 0.961 . S
O25 Co0 1.967 . S
O25 C33 1.258 . S
O26 Co1 1.941 . S
O26 C33 1.266 . S
H27 C29 0.959 . S
H28 C29 0.961 . S
C29 C19 1.510 . S
C29 H27 0.959 . S
C29 H28 0.961 . S
C29 H30 0.960 . S
H30 C29 0.960 . S
H31 N11 0.862 . S
O32 Co0 1.920 . S
O32 C5 1.289 . S
C33 O25 1.258 . S
C33 O26 1.266 . S
Co34 O37 1.970 . S
Co34 N51 1.989 . S
Co34 O59 1.967 . S
Co34 O66 1.920 . S
Co35 O38 1.966 . S
Co35 N44 2.022 . S
Co35 N52 1.993 . S
Co35 O60 1.941 . S
C36 O37 1.258 . S
C36 O38 1.263 . S
O37 Co34 1.970 . S
O37 C36 1.258 . S
O38 Co35 1.966 . S
O38 C36 1.263 . S
C39 O40 1.235 . S
C39 O66 1.289 . S
O40 C39 1.235 . S
C41 C43 1.400 . S
C41 N44 1.351 . S
C41 C46 1.501 . S
C42 C43 1.387 . S
C42 N45 1.341 . S
C43 C41 1.400 . S
C43 C42 1.387 . S
N44 Co35 2.022 . S
N44 C41 1.351 . S
N44 N45 1.365 . S
N45 C42 1.341 . S
N45 N44 1.365 . S
N45 H65 0.862 . S
C46 C41 1.501 . S
C46 H47 0.961 . S
C46 H48 0.961 . S
C46 H49 0.960 . S
H47 C46 0.961 . S
H48 C46 0.961 . S
H49 C46 0.960 . S
C50 N51 1.342 . S
C50 C54 1.401 . S
C50 C55 1.499 . S
N51 Co34 1.989 . S
N51 C50 1.342 . S
N51 N52 1.388 . S
N52 Co35 1.993 . S
N52 N51 1.388 . S
N52 C53 1.346 . S
C53 N52 1.346 . S
C53 C54 1.396 . S
C53 C63 1.510 . S
C54 C50 1.401 . S
C54 C53 1.396 . S
C55 C50 1.499 . S
C55 H56 0.959 . S
C55 H57 0.960 . S
C55 H58 0.961 . S
H56 C55 0.959 . S
H57 C55 0.960 . S
H58 C55 0.961 . S
O59 Co34 1.967 . S
O59 C67 1.258 . S
O60 Co35 1.941 . S
O60 C67 1.266 . S
H61 C63 0.959 . S
H62 C63 0.961 . S
C63 C53 1.510 . S
C63 H61 0.959 . S
C63 H62 0.961 . S
C63 H64 0.960 . S
H64 C63 0.960 . S
H65 N45 0.862 . S
O66 Co34 1.920 . S
O66 C39 1.289 . S
C67 O59 1.258 . S
C67 O60 1.266 . S
Co68 O71 1.970 . S
Co68 N85 1.989 . S
Co68 O93 1.967 . S
Co68 O100 1.920 . S
Co69 O72 1.966 . S
Co69 N78 2.022 . S
Co69 N86 1.993 . S
Co69 O94 1.941 . S
C70 O71 1.258 . S
C70 O72 1.263 . S
O71 Co68 1.970 . S
O71 C70 1.258 . S
O72 Co69 1.966 . S
O72 C70 1.263 . S
C73 O74 1.235 . S
C73 O100 1.289 . S
O74 C73 1.235 . S
C75 C77 1.400 . S
C75 N78 1.351 . S
C75 C80 1.501 . S
C76 C77 1.387 . S
C76 N79 1.341 . S
C77 C75 1.400 . S
C77 C76 1.387 . S
N78 Co69 2.022 . S
N78 C75 1.351 . S
N78 N79 1.365 . S
N79 C76 1.341 . S
N79 N78 1.365 . S
N79 H99 0.862 . S
C80 C75 1.501 . S
C80 H81 0.961 . S
C80 H82 0.961 . S
C80 H83 0.960 . S
H81 C80 0.961 . S
H82 C80 0.961 . S
H83 C80 0.960 . S
C84 N85 1.342 . S
C84 C88 1.401 . S
C84 C89 1.499 . S
N85 Co68 1.989 . S
N85 C84 1.342 . S
N85 N86 1.388 . S
N86 Co69 1.993 . S
N86 N85 1.388 . S
N86 C87 1.346 . S
C87 N86 1.346 . S
C87 C88 1.396 . S
C87 C97 1.510 . S
C88 C84 1.401 . S
C88 C87 1.396 . S
C89 C84 1.499 . S
C89 H90 0.959 . S
C89 H91 0.960 . S
C89 H92 0.961 . S
H90 C89 0.959 . S
H91 C89 0.960 . S
H92 C89 0.961 . S
O93 Co68 1.967 . S
O93 C101 1.258 . S
O94 Co69 1.941 . S
O94 C101 1.266 . S
H95 C97 0.959 . S
H96 C97 0.961 . S
C97 C87 1.510 . S
C97 H95 0.959 . S
C97 H96 0.961 . S
C97 H98 0.960 . S
H98 C97 0.960 . S
H99 N79 0.862 . S
O100 Co68 1.920 . S
O100 C73 1.289 . S
C101 O93 1.258 . S
C101 O94 1.266 . S
Co102 O105 1.970 . S
Co102 N119 1.989 . S
Co102 O127 1.967 . S
Co102 O134 1.920 . S
Co103 O106 1.966 . S
Co103 N112 2.022 . S
Co103 N120 1.993 . S
Co103 O128 1.941 . S
C104 O105 1.258 . S
C104 O106 1.263 . S
O105 Co102 1.970 . S
O105 C104 1.258 . S
O106 Co103 1.966 . S
O106 C104 1.263 . S
C107 O108 1.235 . S
C107 O134 1.289 . S
O108 C107 1.235 . S
C109 C111 1.400 . S
C109 N112 1.351 . S
C109 C114 1.501 . S
C110 C111 1.387 . S
C110 N113 1.341 . S
C111 C109 1.400 . S
C111 C110 1.387 . S
N112 Co103 2.022 . S
N112 C109 1.351 . S
N112 N113 1.365 . S
N113 C110 1.341 . S
N113 N112 1.365 . S
N113 H133 0.862 . S
C114 C109 1.501 . S
C114 H115 0.961 . S
C114 H116 0.961 . S
C114 H117 0.960 . S
H115 C114 0.961 . S
H116 C114 0.961 . S
H117 C114 0.960 . S
C118 N119 1.342 . S
C118 C122 1.401 . S
C118 C123 1.499 . S
N119 Co102 1.989 . S
N119 C118 1.342 . S
N119 N120 1.388 . S
N120 Co103 1.993 . S
N120 N119 1.388 . S
N120 C121 1.346 . S
C121 N120 1.346 . S
C121 C122 1.396 . S
C121 C131 1.510 . S
C122 C118 1.401 . S
C122 C121 1.396 . S
C123 C118 1.499 . S
C123 H124 0.959 . S
C123 H125 0.960 . S
C123 H126 0.961 . S
H124 C123 0.959 . S
H125 C123 0.960 . S
H126 C123 0.961 . S
O127 Co102 1.967 . S
O127 C135 1.258 . S
O128 Co103 1.941 . S
O128 C135 1.266 . S
H129 C131 0.959 . S
H130 C131 0.961 . S
C131 C121 1.510 . S
C131 H129 0.959 . S
C131 H130 0.961 . S
C131 H132 0.960 . S
H132 C131 0.960 . S
H133 N113 0.862 . S
O134 Co102 1.920 . S
O134 C107 1.289 . S
C135 O127 1.258 . S
C135 O128 1.266 . S
Co136 O139 1.970 . S
Co136 N153 1.989 . S
Co136 O161 1.967 . S
Co136 O168 1.920 . S
Co137 O140 1.966 . S
Co137 N146 2.022 . S
Co137 N154 1.993 . S
Co137 O162 1.941 . S
C138 O139 1.258 . S
C138 O140 1.263 . S
O139 Co136 1.970 . S
O139 C138 1.258 . S
O140 Co137 1.966 . S
O140 C138 1.263 . S
C141 O142 1.235 . S
C141 O168 1.289 . S
O142 C141 1.235 . S
C143 C145 1.400 . S
C143 N146 1.351 . S
C143 C148 1.501 . S
C144 C145 1.387 . S
C144 N147 1.341 . S
C145 C143 1.400 . S
C145 C144 1.387 . S
N146 Co137 2.022 . S
N146 C143 1.351 . S
N146 N147 1.365 . S
N147 C144 1.341 . S
N147 N146 1.365 . S
N147 H167 0.862 . S
C148 C143 1.501 . S
C148 H149 0.961 . S
C148 H150 0.961 . S
C148 H151 0.960 . S
H149 C148 0.961 . S
H150 C148 0.961 . S
H151 C148 0.960 . S
C152 N153 1.342 . S
C152 C156 1.401 . S
C152 C157 1.499 . S
N153 Co136 1.989 . S
N153 C152 1.342 . S
N153 N154 1.388 . S
N154 Co137 1.993 . S
N154 N153 1.388 . S
N154 C155 1.346 . S
C155 N154 1.346 . S
C155 C156 1.396 . S
C155 C165 1.510 . S
C156 C152 1.401 . S
C156 C155 1.396 . S
C157 C152 1.499 . S
C157 H158 0.959 . S
C157 H159 0.960 . S
C157 H160 0.961 . S
H158 C157 0.959 . S
H159 C157 0.960 . S
H160 C157 0.961 . S
O161 Co136 1.967 . S
O161 C169 1.258 . S
O162 Co137 1.941 . S
O162 C169 1.266 . S
H163 C165 0.959 . S
H164 C165 0.961 . S
C165 C155 1.510 . S
C165 H163 0.959 . S
C165 H164 0.961 . S
C165 H166 0.960 . S
H166 C165 0.960 . S
H167 N147 0.862 . S
O168 Co136 1.920 . S
O168 C141 1.289 . S
C169 O161 1.258 . S
C169 O162 1.266 . S
Co170 O173 1.970 . S
Co170 N187 1.989 . S
Co170 O195 1.967 . S
Co170 O202 1.920 . S
Co171 O174 1.966 . S
Co171 N180 2.022 . S
Co171 N188 1.993 . S
Co171 O196 1.941 . S
C172 O173 1.258 . S
C172 O174 1.263 . S
O173 Co170 1.970 . S
O173 C172 1.258 . S
O174 Co171 1.966 . S
O174 C172 1.263 . S
C175 O176 1.235 . S
C175 O202 1.289 . S
O176 C175 1.235 . S
C177 C179 1.400 . S
C177 N180 1.351 . S
C177 C182 1.501 . S
C178 C179 1.387 . S
C178 N181 1.341 . S
C179 C177 1.400 . S
C179 C178 1.387 . S
N180 Co171 2.022 . S
N180 C177 1.351 . S
N180 N181 1.365 . S
N181 C178 1.341 . S
N181 N180 1.365 . S
N181 H201 0.862 . S
C182 C177 1.501 . S
C182 H183 0.961 . S
C182 H184 0.961 . S
C182 H185 0.960 . S
H183 C182 0.961 . S
H184 C182 0.961 . S
H185 C182 0.960 . S
C186 N187 1.342 . S
C186 C190 1.401 . S
C186 C191 1.499 . S
N187 Co170 1.989 . S
N187 C186 1.342 . S
N187 N188 1.388 . S
N188 Co171 1.993 . S
N188 N187 1.388 . S
N188 C189 1.346 . S
C189 N188 1.346 . S
C189 C190 1.396 . S
C189 C199 1.510 . S
C190 C186 1.401 . S
C190 C189 1.396 . S
C191 C186 1.499 . S
C191 H192 0.959 . S
C191 H193 0.960 . S
C191 H194 0.961 . S
H192 C191 0.959 . S
H193 C191 0.960 . S
H194 C191 0.961 . S
O195 Co170 1.967 . S
O195 C203 1.258 . S
O196 Co171 1.941 . S
O196 C203 1.266 . S
H197 C199 0.959 . S
H198 C199 0.961 . S
C199 C189 1.510 . S
C199 H197 0.959 . S
C199 H198 0.961 . S
C199 H200 0.960 . S
H200 C199 0.960 . S
H201 N181 0.862 . S
O202 Co170 1.920 . S
O202 C175 1.289 . S
C203 O195 1.258 . S
C203 O196 1.266 . S
Co204 O207 1.970 . S
Co204 N221 1.989 . S
Co204 O229 1.967 . S
Co204 O236 1.920 . S
Co205 O208 1.966 . S
Co205 N214 2.022 . S
Co205 N222 1.993 . S
Co205 O230 1.941 . S
C206 O207 1.258 . S
C206 O208 1.263 . S
O207 Co204 1.970 . S
O207 C206 1.258 . S
O208 Co205 1.966 . S
O208 C206 1.263 . S
C209 O210 1.235 . S
C209 O236 1.289 . S
O210 C209 1.235 . S
C211 C213 1.400 . S
C211 N214 1.351 . S
C211 C216 1.501 . S
C212 C213 1.387 . S
C212 N215 1.341 . S
C213 C211 1.400 . S
C213 C212 1.387 . S
N214 Co205 2.022 . S
N214 C211 1.351 . S
N214 N215 1.365 . S
N215 C212 1.341 . S
N215 N214 1.365 . S
N215 H235 0.862 . S
C216 C211 1.501 . S
C216 H217 0.961 . S
C216 H218 0.961 . S
C216 H219 0.960 . S
H217 C216 0.961 . S
H218 C216 0.961 . S
H219 C216 0.960 . S
C220 N221 1.342 . S
C220 C224 1.401 . S
C220 C225 1.499 . S
N221 Co204 1.989 . S
N221 C220 1.342 . S
N221 N222 1.388 . S
N222 Co205 1.993 . S
N222 N221 1.388 . S
N222 C223 1.346 . S
C223 N222 1.346 . S
C223 C224 1.396 . S
C223 C233 1.510 . S
C224 C220 1.401 . S
C224 C223 1.396 . S
C225 C220 1.499 . S
C225 H226 0.959 . S
C225 H227 0.960 . S
C225 H228 0.961 . S
H226 C225 0.959 . S
H227 C225 0.960 . S
H228 C225 0.961 . S
O229 Co204 1.967 . S
O229 C237 1.258 . S
O230 Co205 1.941 . S
O230 C237 1.266 . S
H231 C233 0.959 . S
H232 C233 0.961 . S
C233 C223 1.510 . S
C233 H231 0.959 . S
C233 H232 0.961 . S
C233 H234 0.960 . S
H234 C233 0.960 . S
H235 N215 0.862 . S
O236 Co204 1.920 . S
O236 C209 1.289 . S
C237 O229 1.258 . S
C237 O230 1.266 . S
Co238 O241 1.970 . S
Co238 N255 1.989 . S
Co238 O263 1.967 . S
Co238 O270 1.920 . S
Co239 O242 1.966 . S
Co239 N248 2.022 . S
Co239 N256 1.993 . S
Co239 O264 1.941 . S
C240 O241 1.258 . S
C240 O242 1.263 . S
O241 Co238 1.970 . S
O241 C240 1.258 . S
O242 Co239 1.966 . S
O242 C240 1.263 . S
C243 O244 1.235 . S
C243 O270 1.289 . S
O244 C243 1.235 . S
C245 C247 1.400 . S
C245 N248 1.351 . S
C245 C250 1.501 . S
C246 C247 1.387 . S
C246 N249 1.341 . S
C247 C245 1.400 . S
C247 C246 1.387 . S
N248 Co239 2.022 . S
N248 C245 1.351 . S
N248 N249 1.365 . S
N249 C246 1.341 . S
N249 N248 1.365 . S
N249 H269 0.862 . S
C250 C245 1.501 . S
C250 H251 0.961 . S
C250 H252 0.961 . S
C250 H253 0.960 . S
H251 C250 0.961 . S
H252 C250 0.961 . S
H253 C250 0.960 . S
C254 N255 1.342 . S
C254 C258 1.401 . S
C254 C259 1.499 . S
N255 Co238 1.989 . S
N255 C254 1.342 . S
N255 N256 1.388 . S
N256 Co239 1.993 . S
N256 N255 1.388 . S
N256 C257 1.346 . S
C257 N256 1.346 . S
C257 C258 1.396 . S
C257 C267 1.510 . S
C258 C254 1.401 . S
C258 C257 1.396 . S
C259 C254 1.499 . S
C259 H260 0.959 . S
C259 H261 0.960 . S
C259 H262 0.961 . S
H260 C259 0.959 . S
H261 C259 0.960 . S
H262 C259 0.961 . S
O263 Co238 1.967 . S
O263 C271 1.258 . S
O264 Co239 1.941 . S
O264 C271 1.266 . S
H265 C267 0.959 . S
H266 C267 0.961 . S
C267 C257 1.510 . S
C267 H265 0.959 . S
C267 H266 0.961 . S
C267 H268 0.960 . S
H268 C267 0.960 . S
H269 N249 0.862 . S
O270 Co238 1.920 . S
O270 C243 1.289 . S
C271 O263 1.258 . S
C271 O264 1.266 . S
Co272 O275 1.970 . S
Co272 N289 1.989 . S
Co272 O297 1.967 . S
Co272 O304 1.920 . S
Co273 O276 1.966 . S
Co273 N282 2.022 . S
Co273 N290 1.993 . S
Co273 O298 1.941 . S
C274 O275 1.258 . S
C274 O276 1.263 . S
O275 Co272 1.970 . S
O275 C274 1.258 . S
O276 Co273 1.966 . S
O276 C274 1.263 . S
C277 O278 1.235 . S
C277 O304 1.289 . S
O278 C277 1.235 . S
C279 C281 1.400 . S
C279 N282 1.351 . S
C279 C284 1.501 . S
C280 C281 1.387 . S
C280 N283 1.341 . S
C281 C279 1.400 . S
C281 C280 1.387 . S
N282 Co273 2.022 . S
N282 C279 1.351 . S
N282 N283 1.365 . S
N283 C280 1.341 . S
N283 N282 1.365 . S
N283 H303 0.862 . S
C284 C279 1.501 . S
C284 H285 0.961 . S
C284 H286 0.961 . S
C284 H287 0.960 . S
H285 C284 0.961 . S
H286 C284 0.961 . S
H287 C284 0.960 . S
C288 N289 1.342 . S
C288 C292 1.401 . S
C288 C293 1.499 . S
N289 Co272 1.989 . S
N289 C288 1.342 . S
N289 N290 1.388 . S
N290 Co273 1.993 . S
N290 N289 1.388 . S
N290 C291 1.346 . S
C291 N290 1.346 . S
C291 C292 1.396 . S
C291 C301 1.510 . S
C292 C288 1.401 . S
C292 C291 1.396 . S
C293 C288 1.499 . S
C293 H294 0.959 . S
C293 H295 0.960 . S
C293 H296 0.961 . S
H294 C293 0.959 . S
H295 C293 0.960 . S
H296 C293 0.961 . S
O297 Co272 1.967 . S
O297 C305 1.258 . S
O298 Co273 1.941 . S
O298 C305 1.266 . S
H299 C301 0.959 . S
H300 C301 0.961 . S
C301 C291 1.510 . S
C301 H299 0.959 . S
C301 H300 0.961 . S
C301 H302 0.960 . S
H302 C301 0.960 . S
H303 N283 0.862 . S
O304 Co272 1.920 . S
O304 C277 1.289 . S
C305 O297 1.258 . S
C305 O298 1.266 . S
Co306 O309 1.970 . S
Co306 N323 1.989 . S
Co306 O331 1.967 . S
Co306 O338 1.920 . S
Co307 O310 1.966 . S
Co307 N316 2.022 . S
Co307 N324 1.993 . S
Co307 O332 1.941 . S
C308 O309 1.258 . S
C308 O310 1.263 . S
O309 Co306 1.970 . S
O309 C308 1.258 . S
O310 Co307 1.966 . S
O310 C308 1.263 . S
C311 O312 1.235 . S
C311 O338 1.289 . S
O312 C311 1.235 . S
C313 C315 1.400 . S
C313 N316 1.351 . S
C313 C318 1.501 . S
C314 C315 1.387 . S
C314 N317 1.341 . S
C315 C313 1.400 . S
C315 C314 1.387 . S
N316 Co307 2.022 . S
N316 C313 1.351 . S
N316 N317 1.365 . S
N317 C314 1.341 . S
N317 N316 1.365 . S
N317 H337 0.862 . S
C318 C313 1.501 . S
C318 H319 0.961 . S
C318 H320 0.961 . S
C318 H321 0.960 . S
H319 C318 0.961 . S
H320 C318 0.961 . S
H321 C318 0.960 . S
C322 N323 1.342 . S
C322 C326 1.401 . S
C322 C327 1.499 . S
N323 Co306 1.989 . S
N323 C322 1.342 . S
N323 N324 1.388 . S
N324 Co307 1.993 . S
N324 N323 1.388 . S
N324 C325 1.346 . S
C325 N324 1.346 . S
C325 C326 1.396 . S
C325 C335 1.510 . S
C326 C322 1.401 . S
C326 C325 1.396 . S
C327 C322 1.499 . S
C327 H328 0.959 . S
C327 H329 0.960 . S
C327 H330 0.961 . S
H328 C327 0.959 . S
H329 C327 0.960 . S
H330 C327 0.961 . S
O331 Co306 1.967 . S
O331 C339 1.258 . S
O332 Co307 1.941 . S
O332 C339 1.266 . S
H333 C335 0.959 . S
H334 C335 0.961 . S
C335 C325 1.510 . S
C335 H333 0.959 . S
C335 H334 0.961 . S
C335 H336 0.960 . S
H336 C335 0.960 . S
H337 N317 0.862 . S
O338 Co306 1.920 . S
O338 C311 1.289 . S
C339 O331 1.258 . S
C339 O332 1.266 . S
Co340 O343 1.970 . S
Co340 N357 1.989 . S
Co340 O365 1.967 . S
Co340 O372 1.920 . S
Co341 O344 1.966 . S
Co341 N350 2.022 . S
Co341 N358 1.993 . S
Co341 O366 1.941 . S
C342 O343 1.258 . S
C342 O344 1.263 . S
O343 Co340 1.970 . S
O343 C342 1.258 . S
O344 Co341 1.966 . S
O344 C342 1.263 . S
C345 O346 1.235 . S
C345 O372 1.289 . S
O346 C345 1.235 . S
C347 C349 1.400 . S
C347 N350 1.351 . S
C347 C352 1.501 . S
C348 C349 1.387 . S
C348 N351 1.341 . S
C349 C347 1.400 . S
C349 C348 1.387 . S
N350 Co341 2.022 . S
N350 C347 1.351 . S
N350 N351 1.365 . S
N351 C348 1.341 . S
N351 N350 1.365 . S
N351 H371 0.862 . S
C352 C347 1.501 . S
C352 H353 0.961 . S
C352 H354 0.961 . S
C352 H355 0.960 . S
H353 C352 0.961 . S
H354 C352 0.961 . S
H355 C352 0.960 . S
C356 N357 1.342 . S
C356 C360 1.401 . S
C356 C361 1.499 . S
N357 Co340 1.989 . S
N357 C356 1.342 . S
N357 N358 1.388 . S
N358 Co341 1.993 . S
N358 N357 1.388 . S
N358 C359 1.346 . S
C359 N358 1.346 . S
C359 C360 1.396 . S
C359 C369 1.510 . S
C360 C356 1.401 . S
C360 C359 1.396 . S
C361 C356 1.499 . S
C361 H362 0.959 . S
C361 H363 0.960 . S
C361 H364 0.961 . S
H362 C361 0.959 . S
H363 C361 0.960 . S
H364 C361 0.961 . S
O365 Co340 1.967 . S
O365 C373 1.258 . S
O366 Co341 1.941 . S
O366 C373 1.266 . S
H367 C369 0.959 . S
H368 C369 0.961 . S
C369 C359 1.510 . S
C369 H367 0.959 . S
C369 H368 0.961 . S
C369 H370 0.960 . S
H370 C369 0.960 . S
H371 N351 0.862 . S
O372 Co340 1.920 . S
O372 C345 1.289 . S
C373 O365 1.258 . S
C373 O366 1.266 . S
Co374 O377 1.970 . S
Co374 N391 1.989 . S
Co374 O399 1.967 . S
Co374 O406 1.920 . S
Co375 O378 1.966 . S
Co375 N384 2.022 . S
Co375 N392 1.993 . S
Co375 O400 1.941 . S
C376 O377 1.258 . S
C376 O378 1.263 . S
O377 Co374 1.970 . S
O377 C376 1.258 . S
O378 Co375 1.966 . S
O378 C376 1.263 . S
C379 O380 1.235 . S
C379 O406 1.289 . S
O380 C379 1.235 . S
C381 C383 1.400 . S
C381 N384 1.351 . S
C381 C386 1.501 . S
C382 C383 1.387 . S
C382 N385 1.341 . S
C383 C381 1.400 . S
C383 C382 1.387 . S
N384 Co375 2.022 . S
N384 C381 1.351 . S
N384 N385 1.365 . S
N385 C382 1.341 . S
N385 N384 1.365 . S
N385 H405 0.862 . S
C386 C381 1.501 . S
C386 H387 0.961 . S
C386 H388 0.961 . S
C386 H389 0.960 . S
H387 C386 0.961 . S
H388 C386 0.961 . S
H389 C386 0.960 . S
C390 N391 1.342 . S
C390 C394 1.401 . S
C390 C395 1.499 . S
N391 Co374 1.989 . S
N391 C390 1.342 . S
N391 N392 1.388 . S
N392 Co375 1.993 . S
N392 N391 1.388 . S
N392 C393 1.346 . S
C393 N392 1.346 . S
C393 C394 1.396 . S
C393 C403 1.510 . S
C394 C390 1.401 . S
C394 C393 1.396 . S
C395 C390 1.499 . S
C395 H396 0.959 . S
C395 H397 0.960 . S
C395 H398 0.961 . S
H396 C395 0.959 . S
H397 C395 0.960 . S
H398 C395 0.961 . S
O399 Co374 1.967 . S
O399 C407 1.258 . S
O400 Co375 1.941 . S
O400 C407 1.266 . S
H401 C403 0.959 . S
H402 C403 0.961 . S
C403 C393 1.510 . S
C403 H401 0.959 . S
C403 H402 0.961 . S
C403 H404 0.960 . S
H404 C403 0.960 . S
H405 N385 0.862 . S
O406 Co374 1.920 . S
O406 C379 1.289 . S
C407 O399 1.258 . S
C407 O400 1.266 . S
Co408 O411 1.970 . S
Co408 N425 1.989 . S
Co408 O433 1.967 . S
Co408 O440 1.920 . S
Co409 O412 1.966 . S
Co409 N418 2.022 . S
Co409 N426 1.993 . S
Co409 O434 1.941 . S
C410 O411 1.258 . S
C410 O412 1.263 . S
O411 Co408 1.970 . S
O411 C410 1.258 . S
O412 Co409 1.966 . S
O412 C410 1.263 . S
C413 O414 1.235 . S
C413 O440 1.289 . S
O414 C413 1.235 . S
C415 C417 1.400 . S
C415 N418 1.351 . S
C415 C420 1.501 . S
C416 C417 1.387 . S
C416 N419 1.341 . S
C417 C415 1.400 . S
C417 C416 1.387 . S
N418 Co409 2.022 . S
N418 C415 1.351 . S
N418 N419 1.365 . S
N419 C416 1.341 . S
N419 N418 1.365 . S
N419 H439 0.862 . S
C420 C415 1.501 . S
C420 H421 0.961 . S
C420 H422 0.961 . S
C420 H423 0.960 . S
H421 C420 0.961 . S
H422 C420 0.961 . S
H423 C420 0.960 . S
C424 N425 1.342 . S
C424 C428 1.401 . S
C424 C429 1.499 . S
N425 Co408 1.989 . S
N425 C424 1.342 . S
N425 N426 1.388 . S
N426 Co409 1.993 . S
N426 N425 1.388 . S
N426 C427 1.346 . S
C427 N426 1.346 . S
C427 C428 1.396 . S
C427 C437 1.510 . S
C428 C424 1.401 . S
C428 C427 1.396 . S
C429 C424 1.499 . S
C429 H430 0.959 . S
C429 H431 0.960 . S
C429 H432 0.961 . S
H430 C429 0.959 . S
H431 C429 0.960 . S
H432 C429 0.961 . S
O433 Co408 1.967 . S
O433 C441 1.258 . S
O434 Co409 1.941 . S
O434 C441 1.266 . S
H435 C437 0.959 . S
H436 C437 0.961 . S
C437 C427 1.510 . S
C437 H435 0.959 . S
C437 H436 0.961 . S
C437 H438 0.960 . S
H438 C437 0.960 . S
H439 N419 0.862 . S
O440 Co408 1.920 . S
O440 C413 1.289 . S
C441 O433 1.258 . S
C441 O434 1.266 . S
Co442 O445 1.970 . S
Co442 N459 1.989 . S
Co442 O467 1.967 . S
Co442 O474 1.920 . S
Co443 O446 1.966 . S
Co443 N452 2.022 . S
Co443 N460 1.993 . S
Co443 O468 1.941 . S
C444 O445 1.258 . S
C444 O446 1.263 . S
O445 Co442 1.970 . S
O445 C444 1.258 . S
O446 Co443 1.966 . S
O446 C444 1.263 . S
C447 O448 1.235 . S
C447 O474 1.289 . S
O448 C447 1.235 . S
C449 C451 1.400 . S
C449 N452 1.351 . S
C449 C454 1.501 . S
C450 C451 1.387 . S
C450 N453 1.341 . S
C451 C449 1.400 . S
C451 C450 1.387 . S
N452 Co443 2.022 . S
N452 C449 1.351 . S
N452 N453 1.365 . S
N453 C450 1.341 . S
N453 N452 1.365 . S
N453 H473 0.862 . S
C454 C449 1.501 . S
C454 H455 0.961 . S
C454 H456 0.961 . S
C454 H457 0.960 . S
H455 C454 0.961 . S
H456 C454 0.961 . S
H457 C454 0.960 . S
C458 N459 1.342 . S
C458 C462 1.401 . S
C458 C463 1.499 . S
N459 Co442 1.989 . S
N459 C458 1.342 . S
N459 N460 1.388 . S
N460 Co443 1.993 . S
N460 N459 1.388 . S
N460 C461 1.346 . S
C461 N460 1.346 . S
C461 C462 1.396 . S
C461 C471 1.510 . S
C462 C458 1.401 . S
C462 C461 1.396 . S
C463 C458 1.499 . S
C463 H464 0.959 . S
C463 H465 0.960 . S
C463 H466 0.961 . S
H464 C463 0.959 . S
H465 C463 0.960 . S
H466 C463 0.961 . S
O467 Co442 1.967 . S
O467 C475 1.258 . S
O468 Co443 1.941 . S
O468 C475 1.266 . S
H469 C471 0.959 . S
H470 C471 0.961 . S
C471 C461 1.510 . S
C471 H469 0.959 . S
C471 H470 0.961 . S
C471 H472 0.960 . S
H472 C471 0.960 . S
H473 N453 0.862 . S
O474 Co442 1.920 . S
O474 C447 1.289 . S
C475 O467 1.258 . S
C475 O468 1.266 . S
Co476 O479 1.970 . S
Co476 N493 1.989 . S
Co476 O501 1.967 . S
Co476 O508 1.920 . S
Co477 O480 1.966 . S
Co477 N486 2.022 . S
Co477 N494 1.993 . S
Co477 O502 1.941 . S
C478 O479 1.258 . S
C478 O480 1.263 . S
O479 Co476 1.970 . S
O479 C478 1.258 . S
O480 Co477 1.966 . S
O480 C478 1.263 . S
C481 O482 1.235 . S
C481 O508 1.289 . S
O482 C481 1.235 . S
C483 C485 1.400 . S
C483 N486 1.351 . S
C483 C488 1.501 . S
C484 C485 1.387 . S
C484 N487 1.341 . S
C485 C483 1.400 . S
C485 C484 1.387 . S
N486 Co477 2.022 . S
N486 C483 1.351 . S
N486 N487 1.365 . S
N487 C484 1.341 . S
N487 N486 1.365 . S
N487 H507 0.862 . S
C488 C483 1.501 . S
C488 H489 0.961 . S
C488 H490 0.961 . S
C488 H491 0.960 . S
H489 C488 0.961 . S
H490 C488 0.961 . S
H491 C488 0.960 . S
C492 N493 1.342 . S
C492 C496 1.401 . S
C492 C497 1.499 . S
N493 Co476 1.989 . S
N493 C492 1.342 . S
N493 N494 1.388 . S
N494 Co477 1.993 . S
N494 N493 1.388 . S
N494 C495 1.346 . S
C495 N494 1.346 . S
C495 C496 1.396 . S
C495 C505 1.510 . S
C496 C492 1.401 . S
C496 C495 1.396 . S
C497 C492 1.499 . S
C497 H498 0.959 . S
C497 H499 0.960 . S
C497 H500 0.961 . S
H498 C497 0.959 . S
H499 C497 0.960 . S
H500 C497 0.961 . S
O501 Co476 1.967 . S
O501 C509 1.258 . S
O502 Co477 1.941 . S
O502 C509 1.266 . S
H503 C505 0.959 . S
H504 C505 0.961 . S
C505 C495 1.510 . S
C505 H503 0.959 . S
C505 H504 0.961 . S
C505 H506 0.960 . S
H506 C505 0.960 . S
H507 N487 0.862 . S
O508 Co476 1.920 . S
O508 C481 1.289 . S
C509 O501 1.258 . S
C509 O502 1.266 . S
Co510 O513 1.970 . S
Co510 N527 1.989 . S
Co510 O535 1.967 . S
Co510 O542 1.920 . S
Co511 O514 1.966 . S
Co511 N520 2.022 . S
Co511 N528 1.993 . S
Co511 O536 1.941 . S
C512 O513 1.258 . S
C512 O514 1.263 . S
O513 Co510 1.970 . S
O513 C512 1.258 . S
O514 Co511 1.966 . S
O514 C512 1.263 . S
C515 O516 1.235 . S
C515 O542 1.289 . S
O516 C515 1.235 . S
C517 C519 1.400 . S
C517 N520 1.351 . S
C517 C522 1.501 . S
C518 C519 1.387 . S
C518 N521 1.341 . S
C519 C517 1.400 . S
C519 C518 1.387 . S
N520 Co511 2.022 . S
N520 C517 1.351 . S
N520 N521 1.365 . S
N521 C518 1.341 . S
N521 N520 1.365 . S
N521 H541 0.862 . S
C522 C517 1.501 . S
C522 H523 0.961 . S
C522 H524 0.961 . S
C522 H525 0.960 . S
H523 C522 0.961 . S
H524 C522 0.961 . S
H525 C522 0.960 . S
C526 N527 1.342 . S
C526 C530 1.401 . S
C526 C531 1.499 . S
N527 Co510 1.989 . S
N527 C526 1.342 . S
N527 N528 1.388 . S
N528 Co511 1.993 . S
N528 N527 1.388 . S
N528 C529 1.346 . S
C529 N528 1.346 . S
C529 C530 1.396 . S
C529 C539 1.510 . S
C530 C526 1.401 . S
C530 C529 1.396 . S
C531 C526 1.499 . S
C531 H532 0.959 . S
C531 H533 0.960 . S
C531 H534 0.961 . S
H532 C531 0.959 . S
H533 C531 0.960 . S
H534 C531 0.961 . S
O535 Co510 1.967 . S
O535 C543 1.258 . S
O536 Co511 1.941 . S
O536 C543 1.266 . S
H537 C539 0.959 . S
H538 C539 0.961 . S
C539 C529 1.510 . S
C539 H537 0.959 . S
C539 H538 0.961 . S
C539 H540 0.960 . S
H540 C539 0.960 . S
H541 N521 0.862 . S
O542 Co510 1.920 . S
O542 C515 1.289 . S
C543 O535 1.258 . S
C543 O536 1.266 . S
Co544 O547 1.970 . S
Co544 N561 1.989 . S
Co544 O569 1.967 . S
Co544 O576 1.920 . S
Co545 O548 1.966 . S
Co545 N554 2.022 . S
Co545 N562 1.993 . S
Co545 O570 1.941 . S
C546 O547 1.258 . S
C546 O548 1.263 . S
O547 Co544 1.970 . S
O547 C546 1.258 . S
O548 Co545 1.966 . S
O548 C546 1.263 . S
C549 O550 1.235 . S
C549 O576 1.289 . S
O550 C549 1.235 . S
C551 C553 1.400 . S
C551 N554 1.351 . S
C551 C556 1.501 . S
C552 C553 1.387 . S
C552 N555 1.341 . S
C553 C551 1.400 . S
C553 C552 1.387 . S
N554 Co545 2.022 . S
N554 C551 1.351 . S
N554 N555 1.365 . S
N555 C552 1.341 . S
N555 N554 1.365 . S
N555 H575 0.862 . S
C556 C551 1.501 . S
C556 H557 0.961 . S
C556 H558 0.961 . S
C556 H559 0.960 . S
H557 C556 0.961 . S
H558 C556 0.961 . S
H559 C556 0.960 . S
C560 N561 1.342 . S
C560 C564 1.401 . S
C560 C565 1.499 . S
N561 Co544 1.989 . S
N561 C560 1.342 . S
N561 N562 1.388 . S
N562 Co545 1.993 . S
N562 N561 1.388 . S
N562 C563 1.346 . S
C563 N562 1.346 . S
C563 C564 1.396 . S
C563 C573 1.510 . S
C564 C560 1.401 . S
C564 C563 1.396 . S
C565 C560 1.499 . S
C565 H566 0.959 . S
C565 H567 0.960 . S
C565 H568 0.961 . S
H566 C565 0.959 . S
H567 C565 0.960 . S
H568 C565 0.961 . S
O569 Co544 1.967 . S
O569 C577 1.258 . S
O570 Co545 1.941 . S
O570 C577 1.266 . S
H571 C573 0.959 . S
H572 C573 0.961 . S
C573 C563 1.510 . S
C573 H571 0.959 . S
C573 H572 0.961 . S
C573 H574 0.960 . S
H574 C573 0.960 . S
H575 N555 0.862 . S
O576 Co544 1.920 . S
O576 C549 1.289 . S
C577 O569 1.258 . S
C577 O570 1.266 . S
Co578 O581 1.970 . S
Co578 N595 1.989 . S
Co578 O603 1.967 . S
Co578 O610 1.920 . S
Co579 O582 1.966 . S
Co579 N588 2.022 . S
Co579 N596 1.993 . S
Co579 O604 1.941 . S
C580 O581 1.258 . S
C580 O582 1.263 . S
O581 Co578 1.970 . S
O581 C580 1.258 . S
O582 Co579 1.966 . S
O582 C580 1.263 . S
C583 O584 1.235 . S
C583 O610 1.289 . S
O584 C583 1.235 . S
C585 C587 1.400 . S
C585 N588 1.351 . S
C585 C590 1.501 . S
C586 C587 1.387 . S
C586 N589 1.341 . S
C587 C585 1.400 . S
C587 C586 1.387 . S
N588 Co579 2.022 . S
N588 C585 1.351 . S
N588 N589 1.365 . S
N589 C586 1.341 . S
N589 N588 1.365 . S
N589 H609 0.862 . S
C590 C585 1.501 . S
C590 H591 0.961 . S
C590 H592 0.961 . S
C590 H593 0.960 . S
H591 C590 0.961 . S
H592 C590 0.961 . S
H593 C590 0.960 . S
C594 N595 1.342 . S
C594 C598 1.401 . S
C594 C599 1.499 . S
N595 Co578 1.989 . S
N595 C594 1.342 . S
N595 N596 1.388 . S
N596 Co579 1.993 . S
N596 N595 1.388 . S
N596 C597 1.346 . S
C597 N596 1.346 . S
C597 C598 1.396 . S
C597 C607 1.510 . S
C598 C594 1.401 . S
C598 C597 1.396 . S
C599 C594 1.499 . S
C599 H600 0.959 . S
C599 H601 0.960 . S
C599 H602 0.961 . S
H600 C599 0.959 . S
H601 C599 0.960 . S
H602 C599 0.961 . S
O603 Co578 1.967 . S
O603 C611 1.258 . S
O604 Co579 1.941 . S
O604 C611 1.266 . S
H605 C607 0.959 . S
H606 C607 0.961 . S
C607 C597 1.510 . S
C607 H605 0.959 . S
C607 H606 0.961 . S
C607 H608 0.960 . S
H608 C607 0.960 . S
H609 N589 0.862 . S
O610 Co578 1.920 . S
O610 C583 1.289 . S
C611 O603 1.258 . S
C611 O604 1.266 . S
Co612 O615 1.970 . S
Co612 N629 1.989 . S
Co612 O637 1.967 . S
Co612 O644 1.920 . S
Co613 O616 1.966 . S
Co613 N622 2.022 . S
Co613 N630 1.993 . S
Co613 O638 1.941 . S
C614 O615 1.258 . S
C614 O616 1.263 . S
O615 Co612 1.970 . S
O615 C614 1.258 . S
O616 Co613 1.966 . S
O616 C614 1.263 . S
C617 O618 1.235 . S
C617 O644 1.289 . S
O618 C617 1.235 . S
C619 C621 1.400 . S
C619 N622 1.351 . S
C619 C624 1.501 . S
C620 C621 1.387 . S
C620 N623 1.341 . S
C621 C619 1.400 . S
C621 C620 1.387 . S
N622 Co613 2.022 . S
N622 C619 1.351 . S
N622 N623 1.365 . S
N623 C620 1.341 . S
N623 N622 1.365 . S
N623 H643 0.862 . S
C624 C619 1.501 . S
C624 H625 0.961 . S
C624 H626 0.961 . S
C624 H627 0.960 . S
H625 C624 0.961 . S
H626 C624 0.961 . S
H627 C624 0.960 . S
C628 N629 1.342 . S
C628 C632 1.401 . S
C628 C633 1.499 . S
N629 Co612 1.989 . S
N629 C628 1.342 . S
N629 N630 1.388 . S
N630 Co613 1.993 . S
N630 N629 1.388 . S
N630 C631 1.346 . S
C631 N630 1.346 . S
C631 C632 1.396 . S
C631 C641 1.510 . S
C632 C628 1.401 . S
C632 C631 1.396 . S
C633 C628 1.499 . S
C633 H634 0.959 . S
C633 H635 0.960 . S
C633 H636 0.961 . S
H634 C633 0.959 . S
H635 C633 0.960 . S
H636 C633 0.961 . S
O637 Co612 1.967 . S
O637 C645 1.258 . S
O638 Co613 1.941 . S
O638 C645 1.266 . S
H639 C641 0.959 . S
H640 C641 0.961 . S
C641 C631 1.510 . S
C641 H639 0.959 . S
C641 H640 0.961 . S
C641 H642 0.960 . S
H642 C641 0.960 . S
H643 N623 0.862 . S
O644 Co612 1.920 . S
O644 C617 1.289 . S
C645 O637 1.258 . S
C645 O638 1.266 . S
Co646 O649 1.970 . S
Co646 N663 1.989 . S
Co646 O671 1.967 . S
Co646 O678 1.920 . S
Co647 O650 1.966 . S
Co647 N656 2.022 . S
Co647 N664 1.993 . S
Co647 O672 1.941 . S
C648 O649 1.258 . S
C648 O650 1.263 . S
O649 Co646 1.970 . S
O649 C648 1.258 . S
O650 Co647 1.966 . S
O650 C648 1.263 . S
C651 O652 1.235 . S
C651 O678 1.289 . S
O652 C651 1.235 . S
C653 C655 1.400 . S
C653 N656 1.351 . S
C653 C658 1.501 . S
C654 C655 1.387 . S
C654 N657 1.341 . S
C655 C653 1.400 . S
C655 C654 1.387 . S
N656 Co647 2.022 . S
N656 C653 1.351 . S
N656 N657 1.365 . S
N657 C654 1.341 . S
N657 N656 1.365 . S
N657 H677 0.862 . S
C658 C653 1.501 . S
C658 H659 0.961 . S
C658 H660 0.961 . S
C658 H661 0.960 . S
H659 C658 0.961 . S
H660 C658 0.961 . S
H661 C658 0.960 . S
C662 N663 1.342 . S
C662 C666 1.401 . S
C662 C667 1.499 . S
N663 Co646 1.989 . S
N663 C662 1.342 . S
N663 N664 1.388 . S
N664 Co647 1.993 . S
N664 N663 1.388 . S
N664 C665 1.346 . S
C665 N664 1.346 . S
C665 C666 1.396 . S
C665 C675 1.510 . S
C666 C662 1.401 . S
C666 C665 1.396 . S
C667 C662 1.499 . S
C667 H668 0.959 . S
C667 H669 0.960 . S
C667 H670 0.961 . S
H668 C667 0.959 . S
H669 C667 0.960 . S
H670 C667 0.961 . S
O671 Co646 1.967 . S
O671 C679 1.258 . S
O672 Co647 1.941 . S
O672 C679 1.266 . S
H673 C675 0.959 . S
H674 C675 0.961 . S
C675 C665 1.510 . S
C675 H673 0.959 . S
C675 H674 0.961 . S
C675 H676 0.960 . S
H676 C675 0.960 . S
H677 N657 0.862 . S
O678 Co646 1.920 . S
O678 C651 1.289 . S
C679 O671 1.258 . S
C679 O672 1.266 . S
Co680 O683 1.970 . S
Co680 N697 1.989 . S
Co680 O705 1.967 . S
Co680 O712 1.920 . S
Co681 O684 1.966 . S
Co681 N690 2.022 . S
Co681 N698 1.993 . S
Co681 O706 1.941 . S
C682 O683 1.258 . S
C682 O684 1.263 . S
O683 Co680 1.970 . S
O683 C682 1.258 . S
O684 Co681 1.966 . S
O684 C682 1.263 . S
C685 O686 1.235 . S
C685 O712 1.289 . S
O686 C685 1.235 . S
C687 C689 1.400 . S
C687 N690 1.351 . S
C687 C692 1.501 . S
C688 C689 1.387 . S
C688 N691 1.341 . S
C689 C687 1.400 . S
C689 C688 1.387 . S
N690 Co681 2.022 . S
N690 C687 1.351 . S
N690 N691 1.365 . S
N691 C688 1.341 . S
N691 N690 1.365 . S
N691 H711 0.862 . S
C692 C687 1.501 . S
C692 H693 0.961 . S
C692 H694 0.961 . S
C692 H695 0.960 . S
H693 C692 0.961 . S
H694 C692 0.961 . S
H695 C692 0.960 . S
C696 N697 1.342 . S
C696 C700 1.401 . S
C696 C701 1.499 . S
N697 Co680 1.989 . S
N697 C696 1.342 . S
N697 N698 1.388 . S
N698 Co681 1.993 . S
N698 N697 1.388 . S
N698 C699 1.346 . S
C699 N698 1.346 . S
C699 C700 1.396 . S
C699 C709 1.510 . S
C700 C696 1.401 . S
C700 C699 1.396 . S
C701 C696 1.499 . S
C701 H702 0.959 . S
C701 H703 0.960 . S
C701 H704 0.961 . S
H702 C701 0.959 . S
H703 C701 0.960 . S
H704 C701 0.961 . S
O705 Co680 1.967 . S
O705 C713 1.258 . S
O706 Co681 1.941 . S
O706 C713 1.266 . S
H707 C709 0.959 . S
H708 C709 0.961 . S
C709 C699 1.510 . S
C709 H707 0.959 . S
C709 H708 0.961 . S
C709 H710 0.960 . S
H710 C709 0.960 . S
H711 N691 0.862 . S
O712 Co680 1.920 . S
O712 C685 1.289 . S
C713 O705 1.258 . S
C713 O706 1.266 . S
Co714 O717 1.970 . S
Co714 N731 1.989 . S
Co714 O739 1.967 . S
Co714 O746 1.920 . S
Co715 O718 1.966 . S
Co715 N724 2.022 . S
Co715 N732 1.993 . S
Co715 O740 1.941 . S
C716 O717 1.258 . S
C716 O718 1.263 . S
O717 Co714 1.970 . S
O717 C716 1.258 . S
O718 Co715 1.966 . S
O718 C716 1.263 . S
C719 O720 1.235 . S
C719 O746 1.289 . S
O720 C719 1.235 . S
C721 C723 1.400 . S
C721 N724 1.351 . S
C721 C726 1.501 . S
C722 C723 1.387 . S
C722 N725 1.341 . S
C723 C721 1.400 . S
C723 C722 1.387 . S
N724 Co715 2.022 . S
N724 C721 1.351 . S
N724 N725 1.365 . S
N725 C722 1.341 . S
N725 N724 1.365 . S
N725 H745 0.862 . S
C726 C721 1.501 . S
C726 H727 0.961 . S
C726 H728 0.961 . S
C726 H729 0.960 . S
H727 C726 0.961 . S
H728 C726 0.961 . S
H729 C726 0.960 . S
C730 N731 1.342 . S
C730 C734 1.401 . S
C730 C735 1.499 . S
N731 Co714 1.989 . S
N731 C730 1.342 . S
N731 N732 1.388 . S
N732 Co715 1.993 . S
N732 N731 1.388 . S
N732 C733 1.346 . S
C733 N732 1.346 . S
C733 C734 1.396 . S
C733 C743 1.510 . S
C734 C730 1.401 . S
C734 C733 1.396 . S
C735 C730 1.499 . S
C735 H736 0.959 . S
C735 H737 0.960 . S
C735 H738 0.961 . S
H736 C735 0.959 . S
H737 C735 0.960 . S
H738 C735 0.961 . S
O739 Co714 1.967 . S
O739 C747 1.258 . S
O740 Co715 1.941 . S
O740 C747 1.266 . S
H741 C743 0.959 . S
H742 C743 0.961 . S
C743 C733 1.510 . S
C743 H741 0.959 . S
C743 H742 0.961 . S
C743 H744 0.960 . S
H744 C743 0.960 . S
H745 N725 0.862 . S
O746 Co714 1.920 . S
O746 C719 1.289 . S
C747 O739 1.258 . S
C747 O740 1.266 . S
Co748 O751 1.970 . S
Co748 N765 1.989 . S
Co748 O773 1.967 . S
Co748 O780 1.920 . S
Co749 O752 1.966 . S
Co749 N758 2.022 . S
Co749 N766 1.993 . S
Co749 O774 1.941 . S
C750 O751 1.258 . S
C750 O752 1.263 . S
O751 Co748 1.970 . S
O751 C750 1.258 . S
O752 Co749 1.966 . S
O752 C750 1.263 . S
C753 O754 1.235 . S
C753 O780 1.289 . S
O754 C753 1.235 . S
C755 C757 1.400 . S
C755 N758 1.351 . S
C755 C760 1.501 . S
C756 C757 1.387 . S
C756 N759 1.341 . S
C757 C755 1.400 . S
C757 C756 1.387 . S
N758 Co749 2.022 . S
N758 C755 1.351 . S
N758 N759 1.365 . S
N759 C756 1.341 . S
N759 N758 1.365 . S
N759 H779 0.862 . S
C760 C755 1.501 . S
C760 H761 0.961 . S
C760 H762 0.961 . S
C760 H763 0.960 . S
H761 C760 0.961 . S
H762 C760 0.961 . S
H763 C760 0.960 . S
C764 N765 1.342 . S
C764 C768 1.401 . S
C764 C769 1.499 . S
N765 Co748 1.989 . S
N765 C764 1.342 . S
N765 N766 1.388 . S
N766 Co749 1.993 . S
N766 N765 1.388 . S
N766 C767 1.346 . S
C767 N766 1.346 . S
C767 C768 1.396 . S
C767 C777 1.510 . S
C768 C764 1.401 . S
C768 C767 1.396 . S
C769 C764 1.499 . S
C769 H770 0.959 . S
C769 H771 0.960 . S
C769 H772 0.961 . S
H770 C769 0.959 . S
H771 C769 0.960 . S
H772 C769 0.961 . S
O773 Co748 1.967 . S
O773 C781 1.258 . S
O774 Co749 1.941 . S
O774 C781 1.266 . S
H775 C777 0.959 . S
H776 C777 0.961 . S
C777 C767 1.510 . S
C777 H775 0.959 . S
C777 H776 0.961 . S
C777 H778 0.960 . S
H778 C777 0.960 . S
H779 N759 0.862 . S
O780 Co748 1.920 . S
O780 C753 1.289 . S
C781 O773 1.258 . S
C781 O774 1.266 . S
Co782 O785 1.970 . S
Co782 N799 1.989 . S
Co782 O807 1.967 . S
Co782 O814 1.920 . S
Co783 O786 1.966 . S
Co783 N792 2.022 . S
Co783 N800 1.993 . S
Co783 O808 1.941 . S
C784 O785 1.258 . S
C784 O786 1.263 . S
O785 Co782 1.970 . S
O785 C784 1.258 . S
O786 Co783 1.966 . S
O786 C784 1.263 . S
C787 O788 1.235 . S
C787 O814 1.289 . S
O788 C787 1.235 . S
C789 C791 1.400 . S
C789 N792 1.351 . S
C789 C794 1.501 . S
C790 C791 1.387 . S
C790 N793 1.341 . S
C791 C789 1.400 . S
C791 C790 1.387 . S
N792 Co783 2.022 . S
N792 C789 1.351 . S
N792 N793 1.365 . S
N793 C790 1.341 . S
N793 N792 1.365 . S
N793 H813 0.862 . S
C794 C789 1.501 . S
C794 H795 0.961 . S
C794 H796 0.961 . S
C794 H797 0.960 . S
H795 C794 0.961 . S
H796 C794 0.961 . S
H797 C794 0.960 . S
C798 N799 1.342 . S
C798 C802 1.401 . S
C798 C803 1.499 . S
N799 Co782 1.989 . S
N799 C798 1.342 . S
N799 N800 1.388 . S
N800 Co783 1.993 . S
N800 N799 1.388 . S
N800 C801 1.346 . S
C801 N800 1.346 . S
C801 C802 1.396 . S
C801 C811 1.510 . S
C802 C798 1.401 . S
C802 C801 1.396 . S
C803 C798 1.499 . S
C803 H804 0.959 . S
C803 H805 0.960 . S
C803 H806 0.961 . S
H804 C803 0.959 . S
H805 C803 0.960 . S
H806 C803 0.961 . S
O807 Co782 1.967 . S
O807 C815 1.258 . S
O808 Co783 1.941 . S
O808 C815 1.266 . S
H809 C811 0.959 . S
H810 C811 0.961 . S
C811 C801 1.510 . S
C811 H809 0.959 . S
C811 H810 0.961 . S
C811 H812 0.960 . S
H812 C811 0.960 . S
H813 N793 0.862 . S
O814 Co782 1.920 . S
O814 C787 1.289 . S
C815 O807 1.258 . S
C815 O808 1.266 . S
Co816 O819 1.970 . S
Co816 N833 1.989 . S
Co816 O841 1.967 . S
Co816 O848 1.920 . S
Co817 O820 1.966 . S
Co817 N826 2.022 . S
Co817 N834 1.993 . S
Co817 O842 1.941 . S
C818 O819 1.258 . S
C818 O820 1.263 . S
O819 Co816 1.970 . S
O819 C818 1.258 . S
O820 Co817 1.966 . S
O820 C818 1.263 . S
C821 O822 1.235 . S
C821 O848 1.289 . S
O822 C821 1.235 . S
C823 C825 1.400 . S
C823 N826 1.351 . S
C823 C828 1.501 . S
C824 C825 1.387 . S
C824 N827 1.341 . S
C825 C823 1.400 . S
C825 C824 1.387 . S
N826 Co817 2.022 . S
N826 C823 1.351 . S
N826 N827 1.365 . S
N827 C824 1.341 . S
N827 N826 1.365 . S
N827 H847 0.862 . S
C828 C823 1.501 . S
C828 H829 0.961 . S
C828 H830 0.961 . S
C828 H831 0.960 . S
H829 C828 0.961 . S
H830 C828 0.961 . S
H831 C828 0.960 . S
C832 N833 1.342 . S
C832 C836 1.401 . S
C832 C837 1.499 . S
N833 Co816 1.989 . S
N833 C832 1.342 . S
N833 N834 1.388 . S
N834 Co817 1.993 . S
N834 N833 1.388 . S
N834 C835 1.346 . S
C835 N834 1.346 . S
C835 C836 1.396 . S
C835 C845 1.510 . S
C836 C832 1.401 . S
C836 C835 1.396 . S
C837 C832 1.499 . S
C837 H838 0.959 . S
C837 H839 0.960 . S
C837 H840 0.961 . S
H838 C837 0.959 . S
H839 C837 0.960 . S
H840 C837 0.961 . S
O841 Co816 1.967 . S
O841 C849 1.258 . S
O842 Co817 1.941 . S
O842 C849 1.266 . S
H843 C845 0.959 . S
H844 C845 0.961 . S
C845 C835 1.510 . S
C845 H843 0.959 . S
C845 H844 0.961 . S
C845 H846 0.960 . S
H846 C845 0.960 . S
H847 N827 0.862 . S
O848 Co816 1.920 . S
O848 C821 1.289 . S
C849 O841 1.258 . S
C849 O842 1.266 . S
Co850 O853 1.970 . S
Co850 N867 1.989 . S
Co850 O875 1.967 . S
Co850 O882 1.920 . S
Co851 O854 1.966 . S
Co851 N860 2.022 . S
Co851 N868 1.993 . S
Co851 O876 1.941 . S
C852 O853 1.258 . S
C852 O854 1.263 . S
O853 Co850 1.970 . S
O853 C852 1.258 . S
O854 Co851 1.966 . S
O854 C852 1.263 . S
C855 O856 1.235 . S
C855 O882 1.289 . S
O856 C855 1.235 . S
C857 C859 1.400 . S
C857 N860 1.351 . S
C857 C862 1.501 . S
C858 C859 1.387 . S
C858 N861 1.341 . S
C859 C857 1.400 . S
C859 C858 1.387 . S
N860 Co851 2.022 . S
N860 C857 1.351 . S
N860 N861 1.365 . S
N861 C858 1.341 . S
N861 N860 1.365 . S
N861 H881 0.862 . S
C862 C857 1.501 . S
C862 H863 0.961 . S
C862 H864 0.961 . S
C862 H865 0.960 . S
H863 C862 0.961 . S
H864 C862 0.961 . S
H865 C862 0.960 . S
C866 N867 1.342 . S
C866 C870 1.401 . S
C866 C871 1.499 . S
N867 Co850 1.989 . S
N867 C866 1.342 . S
N867 N868 1.388 . S
N868 Co851 1.993 . S
N868 N867 1.388 . S
N868 C869 1.346 . S
C869 N868 1.346 . S
C869 C870 1.396 . S
C869 C879 1.510 . S
C870 C866 1.401 . S
C870 C869 1.396 . S
C871 C866 1.499 . S
C871 H872 0.959 . S
C871 H873 0.960 . S
C871 H874 0.961 . S
H872 C871 0.959 . S
H873 C871 0.960 . S
H874 C871 0.961 . S
O875 Co850 1.967 . S
O875 C883 1.258 . S
O876 Co851 1.941 . S
O876 C883 1.266 . S
H877 C879 0.959 . S
H878 C879 0.961 . S
C879 C869 1.510 . S
C879 H877 0.959 . S
C879 H878 0.961 . S
C879 H880 0.960 . S
H880 C879 0.960 . S
H881 N861 0.862 . S
O882 Co850 1.920 . S
O882 C855 1.289 . S
C883 O875 1.258 . S
C883 O876 1.266 . S
Co884 O887 1.970 . S
Co884 N901 1.989 . S
Co884 O909 1.967 . S
Co884 O916 1.920 . S
Co885 O888 1.966 . S
Co885 N894 2.022 . S
Co885 N902 1.993 . S
Co885 O910 1.941 . S
C886 O887 1.258 . S
C886 O888 1.263 . S
O887 Co884 1.970 . S
O887 C886 1.258 . S
O888 Co885 1.966 . S
O888 C886 1.263 . S
C889 O890 1.235 . S
C889 O916 1.289 . S
O890 C889 1.235 . S
C891 C893 1.400 . S
C891 N894 1.351 . S
C891 C896 1.501 . S
C892 C893 1.387 . S
C892 N895 1.341 . S
C893 C891 1.400 . S
C893 C892 1.387 . S
N894 Co885 2.022 . S
N894 C891 1.351 . S
N894 N895 1.365 . S
N895 C892 1.341 . S
N895 N894 1.365 . S
N895 H915 0.862 . S
C896 C891 1.501 . S
C896 H897 0.961 . S
C896 H898 0.961 . S
C896 H899 0.960 . S
H897 C896 0.961 . S
H898 C896 0.961 . S
H899 C896 0.960 . S
C900 N901 1.342 . S
C900 C904 1.401 . S
C900 C905 1.499 . S
N901 Co884 1.989 . S
N901 C900 1.342 . S
N901 N902 1.388 . S
N902 Co885 1.993 . S
N902 N901 1.388 . S
N902 C903 1.346 . S
C903 N902 1.346 . S
C903 C904 1.396 . S
C903 C913 1.510 . S
C904 C900 1.401 . S
C904 C903 1.396 . S
C905 C900 1.499 . S
C905 H906 0.959 . S
C905 H907 0.960 . S
C905 H908 0.961 . S
H906 C905 0.959 . S
H907 C905 0.960 . S
H908 C905 0.961 . S
O909 Co884 1.967 . S
O909 C917 1.258 . S
O910 Co885 1.941 . S
O910 C917 1.266 . S
H911 C913 0.959 . S
H912 C913 0.961 . S
C913 C903 1.510 . S
C913 H911 0.959 . S
C913 H912 0.961 . S
C913 H914 0.960 . S
H914 C913 0.960 . S
H915 N895 0.862 . S
O916 Co884 1.920 . S
O916 C889 1.289 . S
C917 O909 1.258 . S
C917 O910 1.266 . S
Co918 O921 1.970 . S
Co918 N935 1.989 . S
Co918 O943 1.967 . S
Co918 O950 1.920 . S
Co919 O922 1.966 . S
Co919 N928 2.022 . S
Co919 N936 1.993 . S
Co919 O944 1.941 . S
C920 O921 1.258 . S
C920 O922 1.263 . S
O921 Co918 1.970 . S
O921 C920 1.258 . S
O922 Co919 1.966 . S
O922 C920 1.263 . S
C923 O924 1.235 . S
C923 O950 1.289 . S
O924 C923 1.235 . S
C925 C927 1.400 . S
C925 N928 1.351 . S
C925 C930 1.501 . S
C926 C927 1.387 . S
C926 N929 1.341 . S
C927 C925 1.400 . S
C927 C926 1.387 . S
N928 Co919 2.022 . S
N928 C925 1.351 . S
N928 N929 1.365 . S
N929 C926 1.341 . S
N929 N928 1.365 . S
N929 H949 0.862 . S
C930 C925 1.501 . S
C930 H931 0.961 . S
C930 H932 0.961 . S
C930 H933 0.960 . S
H931 C930 0.961 . S
H932 C930 0.961 . S
H933 C930 0.960 . S
C934 N935 1.342 . S
C934 C938 1.401 . S
C934 C939 1.499 . S
N935 Co918 1.989 . S
N935 C934 1.342 . S
N935 N936 1.388 . S
N936 Co919 1.993 . S
N936 N935 1.388 . S
N936 C937 1.346 . S
C937 N936 1.346 . S
C937 C938 1.396 . S
C937 C947 1.510 . S
C938 C934 1.401 . S
C938 C937 1.396 . S
C939 C934 1.499 . S
C939 H940 0.959 . S
C939 H941 0.960 . S
C939 H942 0.961 . S
H940 C939 0.959 . S
H941 C939 0.960 . S
H942 C939 0.961 . S
O943 Co918 1.967 . S
O943 C951 1.258 . S
O944 Co919 1.941 . S
O944 C951 1.266 . S
H945 C947 0.959 . S
H946 C947 0.961 . S
C947 C937 1.510 . S
C947 H945 0.959 . S
C947 H946 0.961 . S
C947 H948 0.960 . S
H948 C947 0.960 . S
H949 N929 0.862 . S
O950 Co918 1.920 . S
O950 C923 1.289 . S
C951 O943 1.258 . S
C951 O944 1.266 . S
Co952 O955 1.970 . S
Co952 N969 1.989 . S
Co952 O977 1.967 . S
Co952 O984 1.920 . S
Co953 O956 1.966 . S
Co953 N962 2.022 . S
Co953 N970 1.993 . S
Co953 O978 1.941 . S
C954 O955 1.258 . S
C954 O956 1.263 . S
O955 Co952 1.970 . S
O955 C954 1.258 . S
O956 Co953 1.966 . S
O956 C954 1.263 . S
C957 O958 1.235 . S
C957 O984 1.289 . S
O958 C957 1.235 . S
C959 C961 1.400 . S
C959 N962 1.351 . S
C959 C964 1.501 . S
C960 C961 1.387 . S
C960 N963 1.341 . S
C961 C959 1.400 . S
C961 C960 1.387 . S
N962 Co953 2.022 . S
N962 C959 1.351 . S
N962 N963 1.365 . S
N963 C960 1.341 . S
N963 N962 1.365 . S
N963 H983 0.862 . S
C964 C959 1.501 . S
C964 H965 0.961 . S
C964 H966 0.961 . S
C964 H967 0.960 . S
H965 C964 0.961 . S
H966 C964 0.961 . S
H967 C964 0.960 . S
C968 N969 1.342 . S
C968 C972 1.401 . S
C968 C973 1.499 . S
N969 Co952 1.989 . S
N969 C968 1.342 . S
N969 N970 1.388 . S
N970 Co953 1.993 . S
N970 N969 1.388 . S
N970 C971 1.346 . S
C971 N970 1.346 . S
C971 C972 1.396 . S
C971 C981 1.510 . S
C972 C968 1.401 . S
C972 C971 1.396 . S
C973 C968 1.499 . S
C973 H974 0.959 . S
C973 H975 0.960 . S
C973 H976 0.961 . S
H974 C973 0.959 . S
H975 C973 0.960 . S
H976 C973 0.961 . S
O977 Co952 1.967 . S
O977 C985 1.258 . S
O978 Co953 1.941 . S
O978 C985 1.266 . S
H979 C981 0.959 . S
H980 C981 0.961 . S
C981 C971 1.510 . S
C981 H979 0.959 . S
C981 H980 0.961 . S
C981 H982 0.960 . S
H982 C981 0.960 . S
H983 N963 0.862 . S
O984 Co952 1.920 . S
O984 C957 1.289 . S
C985 O977 1.258 . S
C985 O978 1.266 . S
Co986 O989 1.970 . S
Co986 N1003 1.989 . S
Co986 O1011 1.967 . S
Co986 O1018 1.920 . S
Co987 O990 1.966 . S
Co987 N996 2.022 . S
Co987 N1004 1.993 . S
Co987 O1012 1.941 . S
C988 O989 1.258 . S
C988 O990 1.263 . S
O989 Co986 1.970 . S
O989 C988 1.258 . S
O990 Co987 1.966 . S
O990 C988 1.263 . S
C991 O992 1.235 . S
C991 O1018 1.289 . S
O992 C991 1.235 . S
C993 C995 1.400 . S
C993 N996 1.351 . S
C993 C998 1.501 . S
C994 C995 1.387 . S
C994 N997 1.341 . S
C995 C993 1.400 . S
C995 C994 1.387 . S
N996 Co987 2.022 . S
N996 C993 1.351 . S
N996 N997 1.365 . S
N997 C994 1.341 . S
N997 N996 1.365 . S
N997 H1017 0.862 . S
C998 C993 1.501 . S
C998 H999 0.961 . S
C998 H1000 0.961 . S
C998 H1001 0.960 . S
H999 C998 0.961 . S
H1000 C998 0.961 . S
H1001 C998 0.960 . S
C1002 N1003 1.342 . S
C1002 C1006 1.401 . S
C1002 C1007 1.499 . S
N1003 Co986 1.989 . S
N1003 C1002 1.342 . S
N1003 N1004 1.388 . S
N1004 Co987 1.993 . S
N1004 N1003 1.388 . S
N1004 C1005 1.346 . S
C1005 N1004 1.346 . S
C1005 C1006 1.396 . S
C1005 C1015 1.510 . S
C1006 C1002 1.401 . S
C1006 C1005 1.396 . S
C1007 C1002 1.499 . S
C1007 H1008 0.959 . S
C1007 H1009 0.960 . S
C1007 H1010 0.961 . S
H1008 C1007 0.959 . S
H1009 C1007 0.960 . S
H1010 C1007 0.961 . S
O1011 Co986 1.967 . S
O1011 C1019 1.258 . S
O1012 Co987 1.941 . S
O1012 C1019 1.266 . S
H1013 C1015 0.959 . S
H1014 C1015 0.961 . S
C1015 C1005 1.510 . S
C1015 H1013 0.959 . S
C1015 H1014 0.961 . S
C1015 H1016 0.960 . S
H1016 C1015 0.960 . S
H1017 N997 0.862 . S
O1018 Co986 1.920 . S
O1018 C991 1.289 . S
C1019 O1011 1.258 . S
C1019 O1012 1.266 . S
Co1020 O1023 1.970 . S
Co1020 N1037 1.989 . S
Co1020 O1045 1.967 . S
Co1020 O1052 1.920 . S
Co1021 O1024 1.966 . S
Co1021 N1030 2.022 . S
Co1021 N1038 1.993 . S
Co1021 O1046 1.941 . S
C1022 O1023 1.258 . S
C1022 O1024 1.263 . S
O1023 Co1020 1.970 . S
O1023 C1022 1.258 . S
O1024 Co1021 1.966 . S
O1024 C1022 1.263 . S
C1025 O1026 1.235 . S
C1025 O1052 1.289 . S
O1026 C1025 1.235 . S
C1027 C1029 1.400 . S
C1027 N1030 1.351 . S
C1027 C1032 1.501 . S
C1028 C1029 1.387 . S
C1028 N1031 1.341 . S
C1029 C1027 1.400 . S
C1029 C1028 1.387 . S
N1030 Co1021 2.022 . S
N1030 C1027 1.351 . S
N1030 N1031 1.365 . S
N1031 C1028 1.341 . S
N1031 N1030 1.365 . S
N1031 H1051 0.862 . S
C1032 C1027 1.501 . S
C1032 H1033 0.961 . S
C1032 H1034 0.961 . S
C1032 H1035 0.960 . S
H1033 C1032 0.961 . S
H1034 C1032 0.961 . S
H1035 C1032 0.960 . S
C1036 N1037 1.342 . S
C1036 C1040 1.401 . S
C1036 C1041 1.499 . S
N1037 Co1020 1.989 . S
N1037 C1036 1.342 . S
N1037 N1038 1.388 . S
N1038 Co1021 1.993 . S
N1038 N1037 1.388 . S
N1038 C1039 1.346 . S
C1039 N1038 1.346 . S
C1039 C1040 1.396 . S
C1039 C1049 1.510 . S
C1040 C1036 1.401 . S
C1040 C1039 1.396 . S
C1041 C1036 1.499 . S
C1041 H1042 0.959 . S
C1041 H1043 0.960 . S
C1041 H1044 0.961 . S
H1042 C1041 0.959 . S
H1043 C1041 0.960 . S
H1044 C1041 0.961 . S
O1045 Co1020 1.967 . S
O1045 C1053 1.258 . S
O1046 Co1021 1.941 . S
O1046 C1053 1.266 . S
H1047 C1049 0.959 . S
H1048 C1049 0.961 . S
C1049 C1039 1.510 . S
C1049 H1047 0.959 . S
C1049 H1048 0.961 . S
C1049 H1050 0.960 . S
H1050 C1049 0.960 . S
H1051 N1031 0.862 . S
O1052 Co1020 1.920 . S
O1052 C1025 1.289 . S
C1053 O1045 1.258 . S
C1053 O1046 1.266 . S
Co1054 O1057 1.970 . S
Co1054 N1071 1.989 . S
Co1054 O1079 1.967 . S
Co1054 O1086 1.920 . S
Co1055 O1058 1.966 . S
Co1055 N1064 2.022 . S
Co1055 N1072 1.993 . S
Co1055 O1080 1.941 . S
C1056 O1057 1.258 . S
C1056 O1058 1.263 . S
O1057 Co1054 1.970 . S
O1057 C1056 1.258 . S
O1058 Co1055 1.966 . S
O1058 C1056 1.263 . S
C1059 O1060 1.235 . S
C1059 O1086 1.289 . S
O1060 C1059 1.235 . S
C1061 C1063 1.400 . S
C1061 N1064 1.351 . S
C1061 C1066 1.501 . S
C1062 C1063 1.387 . S
C1062 N1065 1.341 . S
C1063 C1061 1.400 . S
C1063 C1062 1.387 . S
N1064 Co1055 2.022 . S
N1064 C1061 1.351 . S
N1064 N1065 1.365 . S
N1065 C1062 1.341 . S
N1065 N1064 1.365 . S
N1065 H1085 0.862 . S
C1066 C1061 1.501 . S
C1066 H1067 0.961 . S
C1066 H1068 0.961 . S
C1066 H1069 0.960 . S
H1067 C1066 0.961 . S
H1068 C1066 0.961 . S
H1069 C1066 0.960 . S
C1070 N1071 1.342 . S
C1070 C1074 1.401 . S
C1070 C1075 1.499 . S
N1071 Co1054 1.989 . S
N1071 C1070 1.342 . S
N1071 N1072 1.388 . S
N1072 Co1055 1.993 . S
N1072 N1071 1.388 . S
N1072 C1073 1.346 . S
C1073 N1072 1.346 . S
C1073 C1074 1.396 . S
C1073 C1083 1.510 . S
C1074 C1070 1.401 . S
C1074 C1073 1.396 . S
C1075 C1070 1.499 . S
C1075 H1076 0.959 . S
C1075 H1077 0.960 . S
C1075 H1078 0.961 . S
H1076 C1075 0.959 . S
H1077 C1075 0.960 . S
H1078 C1075 0.961 . S
O1079 Co1054 1.967 . S
O1079 C1087 1.258 . S
O1080 Co1055 1.941 . S
O1080 C1087 1.266 . S
H1081 C1083 0.959 . S
H1082 C1083 0.961 . S
C1083 C1073 1.510 . S
C1083 H1081 0.959 . S
C1083 H1082 0.961 . S
C1083 H1084 0.960 . S
H1084 C1083 0.960 . S
H1085 N1065 0.862 . S
O1086 Co1054 1.920 . S
O1086 C1059 1.289 . S
C1087 O1079 1.258 . S
C1087 O1080 1.266 . S
Co1088 O1091 1.970 . S
Co1088 N1105 1.989 . S
Co1088 O1113 1.967 . S
Co1088 O1120 1.920 . S
Co1089 O1092 1.966 . S
Co1089 N1098 2.022 . S
Co1089 N1106 1.993 . S
Co1089 O1114 1.941 . S
C1090 O1091 1.258 . S
C1090 O1092 1.263 . S
O1091 Co1088 1.970 . S
O1091 C1090 1.258 . S
O1092 Co1089 1.966 . S
O1092 C1090 1.263 . S
C1093 O1094 1.235 . S
C1093 O1120 1.289 . S
O1094 C1093 1.235 . S
C1095 C1097 1.400 . S
C1095 N1098 1.351 . S
C1095 C1100 1.501 . S
C1096 C1097 1.387 . S
C1096 N1099 1.341 . S
C1097 C1095 1.400 . S
C1097 C1096 1.387 . S
N1098 Co1089 2.022 . S
N1098 C1095 1.351 . S
N1098 N1099 1.365 . S
N1099 C1096 1.341 . S
N1099 N1098 1.365 . S
N1099 H1119 0.862 . S
C1100 C1095 1.501 . S
C1100 H1101 0.961 . S
C1100 H1102 0.961 . S
C1100 H1103 0.960 . S
H1101 C1100 0.961 . S
H1102 C1100 0.961 . S
H1103 C1100 0.960 . S
C1104 N1105 1.342 . S
C1104 C1108 1.401 . S
C1104 C1109 1.499 . S
N1105 Co1088 1.989 . S
N1105 C1104 1.342 . S
N1105 N1106 1.388 . S
N1106 Co1089 1.993 . S
N1106 N1105 1.388 . S
N1106 C1107 1.346 . S
C1107 N1106 1.346 . S
C1107 C1108 1.396 . S
C1107 C1117 1.510 . S
C1108 C1104 1.401 . S
C1108 C1107 1.396 . S
C1109 C1104 1.499 . S
C1109 H1110 0.959 . S
C1109 H1111 0.960 . S
C1109 H1112 0.961 . S
H1110 C1109 0.959 . S
H1111 C1109 0.960 . S
H1112 C1109 0.961 . S
O1113 Co1088 1.967 . S
O1113 C1121 1.258 . S
O1114 Co1089 1.941 . S
O1114 C1121 1.266 . S
H1115 C1117 0.959 . S
H1116 C1117 0.961 . S
C1117 C1107 1.510 . S
C1117 H1115 0.959 . S
C1117 H1116 0.961 . S
C1117 H1118 0.960 . S
H1118 C1117 0.960 . S
H1119 N1099 0.862 . S
O1120 Co1088 1.920 . S
O1120 C1093 1.289 . S
C1121 O1113 1.258 . S
C1121 O1114 1.266 . S
Co1122 O1125 1.970 . S
Co1122 N1139 1.989 . S
Co1122 O1147 1.967 . S
Co1122 O1154 1.920 . S
Co1123 O1126 1.966 . S
Co1123 N1132 2.022 . S
Co1123 N1140 1.993 . S
Co1123 O1148 1.941 . S
C1124 O1125 1.258 . S
C1124 O1126 1.263 . S
O1125 Co1122 1.970 . S
O1125 C1124 1.258 . S
O1126 Co1123 1.966 . S
O1126 C1124 1.263 . S
C1127 O1128 1.235 . S
C1127 O1154 1.289 . S
O1128 C1127 1.235 . S
C1129 C1131 1.400 . S
C1129 N1132 1.351 . S
C1129 C1134 1.501 . S
C1130 C1131 1.387 . S
C1130 N1133 1.341 . S
C1131 C1129 1.400 . S
C1131 C1130 1.387 . S
N1132 Co1123 2.022 . S
N1132 C1129 1.351 . S
N1132 N1133 1.365 . S
N1133 C1130 1.341 . S
N1133 N1132 1.365 . S
N1133 H1153 0.862 . S
C1134 C1129 1.501 . S
C1134 H1135 0.961 . S
C1134 H1136 0.961 . S
C1134 H1137 0.960 . S
H1135 C1134 0.961 . S
H1136 C1134 0.961 . S
H1137 C1134 0.960 . S
C1138 N1139 1.342 . S
C1138 C1142 1.401 . S
C1138 C1143 1.499 . S
N1139 Co1122 1.989 . S
N1139 C1138 1.342 . S
N1139 N1140 1.388 . S
N1140 Co1123 1.993 . S
N1140 N1139 1.388 . S
N1140 C1141 1.346 . S
C1141 N1140 1.346 . S
C1141 C1142 1.396 . S
C1141 C1151 1.510 . S
C1142 C1138 1.401 . S
C1142 C1141 1.396 . S
C1143 C1138 1.499 . S
C1143 H1144 0.959 . S
C1143 H1145 0.960 . S
C1143 H1146 0.961 . S
H1144 C1143 0.959 . S
H1145 C1143 0.960 . S
H1146 C1143 0.961 . S
O1147 Co1122 1.967 . S
O1147 C1155 1.258 . S
O1148 Co1123 1.941 . S
O1148 C1155 1.266 . S
H1149 C1151 0.959 . S
H1150 C1151 0.961 . S
C1151 C1141 1.510 . S
C1151 H1149 0.959 . S
C1151 H1150 0.961 . S
C1151 H1152 0.960 . S
H1152 C1151 0.960 . S
H1153 N1133 0.862 . S
O1154 Co1122 1.920 . S
O1154 C1127 1.289 . S
C1155 O1147 1.258 . S
C1155 O1148 1.266 . S
Co1156 O1159 1.970 . S
Co1156 N1173 1.989 . S
Co1156 O1181 1.967 . S
Co1156 O1188 1.920 . S
Co1157 O1160 1.966 . S
Co1157 N1166 2.022 . S
Co1157 N1174 1.993 . S
Co1157 O1182 1.941 . S
C1158 O1159 1.258 . S
C1158 O1160 1.263 . S
O1159 Co1156 1.970 . S
O1159 C1158 1.258 . S
O1160 Co1157 1.966 . S
O1160 C1158 1.263 . S
C1161 O1162 1.235 . S
C1161 O1188 1.289 . S
O1162 C1161 1.235 . S
C1163 C1165 1.400 . S
C1163 N1166 1.351 . S
C1163 C1168 1.501 . S
C1164 C1165 1.387 . S
C1164 N1167 1.341 . S
C1165 C1163 1.400 . S
C1165 C1164 1.387 . S
N1166 Co1157 2.022 . S
N1166 C1163 1.351 . S
N1166 N1167 1.365 . S
N1167 C1164 1.341 . S
N1167 N1166 1.365 . S
N1167 H1187 0.862 . S
C1168 C1163 1.501 . S
C1168 H1169 0.961 . S
C1168 H1170 0.961 . S
C1168 H1171 0.960 . S
H1169 C1168 0.961 . S
H1170 C1168 0.961 . S
H1171 C1168 0.960 . S
C1172 N1173 1.342 . S
C1172 C1176 1.401 . S
C1172 C1177 1.499 . S
N1173 Co1156 1.989 . S
N1173 C1172 1.342 . S
N1173 N1174 1.388 . S
N1174 Co1157 1.993 . S
N1174 N1173 1.388 . S
N1174 C1175 1.346 . S
C1175 N1174 1.346 . S
C1175 C1176 1.396 . S
C1175 C1185 1.510 . S
C1176 C1172 1.401 . S
C1176 C1175 1.396 . S
C1177 C1172 1.499 . S
C1177 H1178 0.959 . S
C1177 H1179 0.960 . S
C1177 H1180 0.961 . S
H1178 C1177 0.959 . S
H1179 C1177 0.960 . S
H1180 C1177 0.961 . S
O1181 Co1156 1.967 . S
O1181 C1189 1.258 . S
O1182 Co1157 1.941 . S
O1182 C1189 1.266 . S
H1183 C1185 0.959 . S
H1184 C1185 0.961 . S
C1185 C1175 1.510 . S
C1185 H1183 0.959 . S
C1185 H1184 0.961 . S
C1185 H1186 0.960 . S
H1186 C1185 0.960 . S
H1187 N1167 0.862 . S
O1188 Co1156 1.920 . S
O1188 C1161 1.289 . S
C1189 O1181 1.258 . S
C1189 O1182 1.266 . S
Co1190 O1193 1.970 . S
Co1190 N1207 1.989 . S
Co1190 O1215 1.967 . S
Co1190 O1222 1.920 . S
Co1191 O1194 1.966 . S
Co1191 N1200 2.022 . S
Co1191 N1208 1.993 . S
Co1191 O1216 1.941 . S
C1192 O1193 1.258 . S
C1192 O1194 1.263 . S
O1193 Co1190 1.970 . S
O1193 C1192 1.258 . S
O1194 Co1191 1.966 . S
O1194 C1192 1.263 . S
C1195 O1196 1.235 . S
C1195 O1222 1.289 . S
O1196 C1195 1.235 . S
C1197 C1199 1.400 . S
C1197 N1200 1.351 . S
C1197 C1202 1.501 . S
C1198 C1199 1.387 . S
C1198 N1201 1.341 . S
C1199 C1197 1.400 . S
C1199 C1198 1.387 . S
N1200 Co1191 2.022 . S
N1200 C1197 1.351 . S
N1200 N1201 1.365 . S
N1201 C1198 1.341 . S
N1201 N1200 1.365 . S
N1201 H1221 0.862 . S
C1202 C1197 1.501 . S
C1202 H1203 0.961 . S
C1202 H1204 0.961 . S
C1202 H1205 0.960 . S
H1203 C1202 0.961 . S
H1204 C1202 0.961 . S
H1205 C1202 0.960 . S
C1206 N1207 1.342 . S
C1206 C1210 1.401 . S
C1206 C1211 1.499 . S
N1207 Co1190 1.989 . S
N1207 C1206 1.342 . S
N1207 N1208 1.388 . S
N1208 Co1191 1.993 . S
N1208 N1207 1.388 . S
N1208 C1209 1.346 . S
C1209 N1208 1.346 . S
C1209 C1210 1.396 . S
C1209 C1219 1.510 . S
C1210 C1206 1.401 . S
C1210 C1209 1.396 . S
C1211 C1206 1.499 . S
C1211 H1212 0.959 . S
C1211 H1213 0.960 . S
C1211 H1214 0.961 . S
H1212 C1211 0.959 . S
H1213 C1211 0.960 . S
H1214 C1211 0.961 . S
O1215 Co1190 1.967 . S
O1215 C1223 1.258 . S
O1216 Co1191 1.941 . S
O1216 C1223 1.266 . S
H1217 C1219 0.959 . S
H1218 C1219 0.961 . S
C1219 C1209 1.510 . S
C1219 H1217 0.959 . S
C1219 H1218 0.961 . S
C1219 H1220 0.960 . S
H1220 C1219 0.960 . S
H1221 N1201 0.862 . S
O1222 Co1190 1.920 . S
O1222 C1195 1.289 . S
C1223 O1215 1.258 . S
C1223 O1216 1.266 . S
Co1224 O1227 1.970 . S
Co1224 N1241 1.989 . S
Co1224 O1249 1.967 . S
Co1224 O1256 1.920 . S
Co1225 O1228 1.966 . S
Co1225 N1234 2.022 . S
Co1225 N1242 1.993 . S
Co1225 O1250 1.941 . S
C1226 O1227 1.258 . S
C1226 O1228 1.263 . S
O1227 Co1224 1.970 . S
O1227 C1226 1.258 . S
O1228 Co1225 1.966 . S
O1228 C1226 1.263 . S
C1229 O1230 1.235 . S
C1229 O1256 1.289 . S
O1230 C1229 1.235 . S
C1231 C1233 1.400 . S
C1231 N1234 1.351 . S
C1231 C1236 1.501 . S
C1232 C1233 1.387 . S
C1232 N1235 1.341 . S
C1233 C1231 1.400 . S
C1233 C1232 1.387 . S
N1234 Co1225 2.022 . S
N1234 C1231 1.351 . S
N1234 N1235 1.365 . S
N1235 C1232 1.341 . S
N1235 N1234 1.365 . S
N1235 H1255 0.862 . S
C1236 C1231 1.501 . S
C1236 H1237 0.961 . S
C1236 H1238 0.961 . S
C1236 H1239 0.960 . S
H1237 C1236 0.961 . S
H1238 C1236 0.961 . S
H1239 C1236 0.960 . S
C1240 N1241 1.342 . S
C1240 C1244 1.401 . S
C1240 C1245 1.499 . S
N1241 Co1224 1.989 . S
N1241 C1240 1.342 . S
N1241 N1242 1.388 . S
N1242 Co1225 1.993 . S
N1242 N1241 1.388 . S
N1242 C1243 1.346 . S
C1243 N1242 1.346 . S
C1243 C1244 1.396 . S
C1243 C1253 1.510 . S
C1244 C1240 1.401 . S
C1244 C1243 1.396 . S
C1245 C1240 1.499 . S
C1245 H1246 0.959 . S
C1245 H1247 0.960 . S
C1245 H1248 0.961 . S
H1246 C1245 0.959 . S
H1247 C1245 0.960 . S
H1248 C1245 0.961 . S
O1249 Co1224 1.967 . S
O1249 C1257 1.258 . S
O1250 Co1225 1.941 . S
O1250 C1257 1.266 . S
H1251 C1253 0.959 . S
H1252 C1253 0.961 . S
C1253 C1243 1.510 . S
C1253 H1251 0.959 . S
C1253 H1252 0.961 . S
C1253 H1254 0.960 . S
H1254 C1253 0.960 . S
H1255 N1235 0.862 . S
O1256 Co1224 1.920 . S
O1256 C1229 1.289 . S
C1257 O1249 1.258 . S
C1257 O1250 1.266 . S
Co1258 O1261 1.970 . S
Co1258 N1275 1.989 . S
Co1258 O1283 1.967 . S
Co1258 O1290 1.920 . S
Co1259 O1262 1.966 . S
Co1259 N1268 2.022 . S
Co1259 N1276 1.993 . S
Co1259 O1284 1.941 . S
C1260 O1261 1.258 . S
C1260 O1262 1.263 . S
O1261 Co1258 1.970 . S
O1261 C1260 1.258 . S
O1262 Co1259 1.966 . S
O1262 C1260 1.263 . S
C1263 O1264 1.235 . S
C1263 O1290 1.289 . S
O1264 C1263 1.235 . S
C1265 C1267 1.400 . S
C1265 N1268 1.351 . S
C1265 C1270 1.501 . S
C1266 C1267 1.387 . S
C1266 N1269 1.341 . S
C1267 C1265 1.400 . S
C1267 C1266 1.387 . S
N1268 Co1259 2.022 . S
N1268 C1265 1.351 . S
N1268 N1269 1.365 . S
N1269 C1266 1.341 . S
N1269 N1268 1.365 . S
N1269 H1289 0.862 . S
C1270 C1265 1.501 . S
C1270 H1271 0.961 . S
C1270 H1272 0.961 . S
C1270 H1273 0.960 . S
H1271 C1270 0.961 . S
H1272 C1270 0.961 . S
H1273 C1270 0.960 . S
C1274 N1275 1.342 . S
C1274 C1278 1.401 . S
C1274 C1279 1.499 . S
N1275 Co1258 1.989 . S
N1275 C1274 1.342 . S
N1275 N1276 1.388 . S
N1276 Co1259 1.993 . S
N1276 N1275 1.388 . S
N1276 C1277 1.346 . S
C1277 N1276 1.346 . S
C1277 C1278 1.396 . S
C1277 C1287 1.510 . S
C1278 C1274 1.401 . S
C1278 C1277 1.396 . S
C1279 C1274 1.499 . S
C1279 H1280 0.959 . S
C1279 H1281 0.960 . S
C1279 H1282 0.961 . S
H1280 C1279 0.959 . S
H1281 C1279 0.960 . S
H1282 C1279 0.961 . S
O1283 Co1258 1.967 . S
O1283 C1291 1.258 . S
O1284 Co1259 1.941 . S
O1284 C1291 1.266 . S
H1285 C1287 0.959 . S
H1286 C1287 0.961 . S
C1287 C1277 1.510 . S
C1287 H1285 0.959 . S
C1287 H1286 0.961 . S
C1287 H1288 0.960 . S
H1288 C1287 0.960 . S
H1289 N1269 0.862 . S
O1290 Co1258 1.920 . S
O1290 C1263 1.289 . S
C1291 O1283 1.258 . S
C1291 O1284 1.266 . S
Co1292 O1295 1.970 . S
Co1292 N1309 1.989 . S
Co1292 O1317 1.967 . S
Co1292 O1324 1.920 . S
Co1293 O1296 1.966 . S
Co1293 N1302 2.022 . S
Co1293 N1310 1.993 . S
Co1293 O1318 1.941 . S
C1294 O1295 1.258 . S
C1294 O1296 1.263 . S
O1295 Co1292 1.970 . S
O1295 C1294 1.258 . S
O1296 Co1293 1.966 . S
O1296 C1294 1.263 . S
C1297 O1298 1.235 . S
C1297 O1324 1.289 . S
O1298 C1297 1.235 . S
C1299 C1301 1.400 . S
C1299 N1302 1.351 . S
C1299 C1304 1.501 . S
C1300 C1301 1.387 . S
C1300 N1303 1.341 . S
C1301 C1299 1.400 . S
C1301 C1300 1.387 . S
N1302 Co1293 2.022 . S
N1302 C1299 1.351 . S
N1302 N1303 1.365 . S
N1303 C1300 1.341 . S
N1303 N1302 1.365 . S
N1303 H1323 0.862 . S
C1304 C1299 1.501 . S
C1304 H1305 0.961 . S
C1304 H1306 0.961 . S
C1304 H1307 0.960 . S
H1305 C1304 0.961 . S
H1306 C1304 0.961 . S
H1307 C1304 0.960 . S
C1308 N1309 1.342 . S
C1308 C1312 1.401 . S
C1308 C1313 1.499 . S
N1309 Co1292 1.989 . S
N1309 C1308 1.342 . S
N1309 N1310 1.388 . S
N1310 Co1293 1.993 . S
N1310 N1309 1.388 . S
N1310 C1311 1.346 . S
C1311 N1310 1.346 . S
C1311 C1312 1.396 . S
C1311 C1321 1.510 . S
C1312 C1308 1.401 . S
C1312 C1311 1.396 . S
C1313 C1308 1.499 . S
C1313 H1314 0.959 . S
C1313 H1315 0.960 . S
C1313 H1316 0.961 . S
H1314 C1313 0.959 . S
H1315 C1313 0.960 . S
H1316 C1313 0.961 . S
O1317 Co1292 1.967 . S
O1317 C1325 1.258 . S
O1318 Co1293 1.941 . S
O1318 C1325 1.266 . S
H1319 C1321 0.959 . S
H1320 C1321 0.961 . S
C1321 C1311 1.510 . S
C1321 H1319 0.959 . S
C1321 H1320 0.961 . S
C1321 H1322 0.960 . S
H1322 C1321 0.960 . S
H1323 N1303 0.862 . S
O1324 Co1292 1.920 . S
O1324 C1297 1.289 . S
C1325 O1317 1.258 . S
C1325 O1318 1.266 . S
Co1326 O1329 1.970 . S
Co1326 N1343 1.989 . S
Co1326 O1351 1.967 . S
Co1326 O1358 1.920 . S
Co1327 O1330 1.966 . S
Co1327 N1336 2.022 . S
Co1327 N1344 1.993 . S
Co1327 O1352 1.941 . S
C1328 O1329 1.258 . S
C1328 O1330 1.263 . S
O1329 Co1326 1.970 . S
O1329 C1328 1.258 . S
O1330 Co1327 1.966 . S
O1330 C1328 1.263 . S
C1331 O1332 1.235 . S
C1331 O1358 1.289 . S
O1332 C1331 1.235 . S
C1333 C1335 1.400 . S
C1333 N1336 1.351 . S
C1333 C1338 1.501 . S
C1334 C1335 1.387 . S
C1334 N1337 1.341 . S
C1335 C1333 1.400 . S
C1335 C1334 1.387 . S
N1336 Co1327 2.022 . S
N1336 C1333 1.351 . S
N1336 N1337 1.365 . S
N1337 C1334 1.341 . S
N1337 N1336 1.365 . S
N1337 H1357 0.862 . S
C1338 C1333 1.501 . S
C1338 H1339 0.961 . S
C1338 H1340 0.961 . S
C1338 H1341 0.960 . S
H1339 C1338 0.961 . S
H1340 C1338 0.961 . S
H1341 C1338 0.960 . S
C1342 N1343 1.342 . S
C1342 C1346 1.401 . S
C1342 C1347 1.499 . S
N1343 Co1326 1.989 . S
N1343 C1342 1.342 . S
N1343 N1344 1.388 . S
N1344 Co1327 1.993 . S
N1344 N1343 1.388 . S
N1344 C1345 1.346 . S
C1345 N1344 1.346 . S
C1345 C1346 1.396 . S
C1345 C1355 1.510 . S
C1346 C1342 1.401 . S
C1346 C1345 1.396 . S
C1347 C1342 1.499 . S
C1347 H1348 0.959 . S
C1347 H1349 0.960 . S
C1347 H1350 0.961 . S
H1348 C1347 0.959 . S
H1349 C1347 0.960 . S
H1350 C1347 0.961 . S
O1351 Co1326 1.967 . S
O1351 C1359 1.258 . S
O1352 Co1327 1.941 . S
O1352 C1359 1.266 . S
H1353 C1355 0.959 . S
H1354 C1355 0.961 . S
C1355 C1345 1.510 . S
C1355 H1353 0.959 . S
C1355 H1354 0.961 . S
C1355 H1356 0.960 . S
H1356 C1355 0.960 . S
H1357 N1337 0.862 . S
O1358 Co1326 1.920 . S
O1358 C1331 1.289 . S
C1359 O1351 1.258 . S
C1359 O1352 1.266 . S
Co1360 O1363 1.970 . S
Co1360 N1377 1.989 . S
Co1360 O1385 1.967 . S
Co1360 O1392 1.920 . S
Co1361 O1364 1.966 . S
Co1361 N1370 2.022 . S
Co1361 N1378 1.993 . S
Co1361 O1386 1.941 . S
C1362 O1363 1.258 . S
C1362 O1364 1.263 . S
O1363 Co1360 1.970 . S
O1363 C1362 1.258 . S
O1364 Co1361 1.966 . S
O1364 C1362 1.263 . S
C1365 O1366 1.235 . S
C1365 O1392 1.289 . S
O1366 C1365 1.235 . S
C1367 C1369 1.400 . S
C1367 N1370 1.351 . S
C1367 C1372 1.501 . S
C1368 C1369 1.387 . S
C1368 N1371 1.341 . S
C1369 C1367 1.400 . S
C1369 C1368 1.387 . S
N1370 Co1361 2.022 . S
N1370 C1367 1.351 . S
N1370 N1371 1.365 . S
N1371 C1368 1.341 . S
N1371 N1370 1.365 . S
N1371 H1391 0.862 . S
C1372 C1367 1.501 . S
C1372 H1373 0.961 . S
C1372 H1374 0.961 . S
C1372 H1375 0.960 . S
H1373 C1372 0.961 . S
H1374 C1372 0.961 . S
H1375 C1372 0.960 . S
C1376 N1377 1.342 . S
C1376 C1380 1.401 . S
C1376 C1381 1.499 . S
N1377 Co1360 1.989 . S
N1377 C1376 1.342 . S
N1377 N1378 1.388 . S
N1378 Co1361 1.993 . S
N1378 N1377 1.388 . S
N1378 C1379 1.346 . S
C1379 N1378 1.346 . S
C1379 C1380 1.396 . S
C1379 C1389 1.510 . S
C1380 C1376 1.401 . S
C1380 C1379 1.396 . S
C1381 C1376 1.499 . S
C1381 H1382 0.959 . S
C1381 H1383 0.960 . S
C1381 H1384 0.961 . S
H1382 C1381 0.959 . S
H1383 C1381 0.960 . S
H1384 C1381 0.961 . S
O1385 Co1360 1.967 . S
O1385 C1393 1.258 . S
O1386 Co1361 1.941 . S
O1386 C1393 1.266 . S
H1387 C1389 0.959 . S
H1388 C1389 0.961 . S
C1389 C1379 1.510 . S
C1389 H1387 0.959 . S
C1389 H1388 0.961 . S
C1389 H1390 0.960 . S
H1390 C1389 0.960 . S
H1391 N1371 0.862 . S
O1392 Co1360 1.920 . S
O1392 C1365 1.289 . S
C1393 O1385 1.258 . S
C1393 O1386 1.266 . S
Co1394 O1397 1.970 . S
Co1394 N1411 1.989 . S
Co1394 O1419 1.967 . S
Co1394 O1426 1.920 . S
Co1395 O1398 1.966 . S
Co1395 N1404 2.022 . S
Co1395 N1412 1.993 . S
Co1395 O1420 1.941 . S
C1396 O1397 1.258 . S
C1396 O1398 1.263 . S
O1397 Co1394 1.970 . S
O1397 C1396 1.258 . S
O1398 Co1395 1.966 . S
O1398 C1396 1.263 . S
C1399 O1400 1.235 . S
C1399 O1426 1.289 . S
O1400 C1399 1.235 . S
C1401 C1403 1.400 . S
C1401 N1404 1.351 . S
C1401 C1406 1.501 . S
C1402 C1403 1.387 . S
C1402 N1405 1.341 . S
C1403 C1401 1.400 . S
C1403 C1402 1.387 . S
N1404 Co1395 2.022 . S
N1404 C1401 1.351 . S
N1404 N1405 1.365 . S
N1405 C1402 1.341 . S
N1405 N1404 1.365 . S
N1405 H1425 0.862 . S
C1406 C1401 1.501 . S
C1406 H1407 0.961 . S
C1406 H1408 0.961 . S
C1406 H1409 0.960 . S
H1407 C1406 0.961 . S
H1408 C1406 0.961 . S
H1409 C1406 0.960 . S
C1410 N1411 1.342 . S
C1410 C1414 1.401 . S
C1410 C1415 1.499 . S
N1411 Co1394 1.989 . S
N1411 C1410 1.342 . S
N1411 N1412 1.388 . S
N1412 Co1395 1.993 . S
N1412 N1411 1.388 . S
N1412 C1413 1.346 . S
C1413 N1412 1.346 . S
C1413 C1414 1.396 . S
C1413 C1423 1.510 . S
C1414 C1410 1.401 . S
C1414 C1413 1.396 . S
C1415 C1410 1.499 . S
C1415 H1416 0.959 . S
C1415 H1417 0.960 . S
C1415 H1418 0.961 . S
H1416 C1415 0.959 . S
H1417 C1415 0.960 . S
H1418 C1415 0.961 . S
O1419 Co1394 1.967 . S
O1419 C1427 1.258 . S
O1420 Co1395 1.941 . S
O1420 C1427 1.266 . S
H1421 C1423 0.959 . S
H1422 C1423 0.961 . S
C1423 C1413 1.510 . S
C1423 H1421 0.959 . S
C1423 H1422 0.961 . S
C1423 H1424 0.960 . S
H1424 C1423 0.960 . S
H1425 N1405 0.862 . S
O1426 Co1394 1.920 . S
O1426 C1399 1.289 . S
C1427 O1419 1.258 . S
C1427 O1420 1.266 . S
Co1428 O1431 1.970 . S
Co1428 N1445 1.989 . S
Co1428 O1453 1.967 . S
Co1428 O1460 1.920 . S
Co1429 O1432 1.966 . S
Co1429 N1438 2.022 . S
Co1429 N1446 1.993 . S
Co1429 O1454 1.941 . S
C1430 O1431 1.258 . S
C1430 O1432 1.263 . S
O1431 Co1428 1.970 . S
O1431 C1430 1.258 . S
O1432 Co1429 1.966 . S
O1432 C1430 1.263 . S
C1433 O1434 1.235 . S
C1433 O1460 1.289 . S
O1434 C1433 1.235 . S
C1435 C1437 1.400 . S
C1435 N1438 1.351 . S
C1435 C1440 1.501 . S
C1436 C1437 1.387 . S
C1436 N1439 1.341 . S
C1437 C1435 1.400 . S
C1437 C1436 1.387 . S
N1438 Co1429 2.022 . S
N1438 C1435 1.351 . S
N1438 N1439 1.365 . S
N1439 C1436 1.341 . S
N1439 N1438 1.365 . S
N1439 H1459 0.862 . S
C1440 C1435 1.501 . S
C1440 H1441 0.961 . S
C1440 H1442 0.961 . S
C1440 H1443 0.960 . S
H1441 C1440 0.961 . S
H1442 C1440 0.961 . S
H1443 C1440 0.960 . S
C1444 N1445 1.342 . S
C1444 C1448 1.401 . S
C1444 C1449 1.499 . S
N1445 Co1428 1.989 . S
N1445 C1444 1.342 . S
N1445 N1446 1.388 . S
N1446 Co1429 1.993 . S
N1446 N1445 1.388 . S
N1446 C1447 1.346 . S
C1447 N1446 1.346 . S
C1447 C1448 1.396 . S
C1447 C1457 1.510 . S
C1448 C1444 1.401 . S
C1448 C1447 1.396 . S
C1449 C1444 1.499 . S
C1449 H1450 0.959 . S
C1449 H1451 0.960 . S
C1449 H1452 0.961 . S
H1450 C1449 0.959 . S
H1451 C1449 0.960 . S
H1452 C1449 0.961 . S
O1453 Co1428 1.967 . S
O1453 C1461 1.258 . S
O1454 Co1429 1.941 . S
O1454 C1461 1.266 . S
H1455 C1457 0.959 . S
H1456 C1457 0.961 . S
C1457 C1447 1.510 . S
C1457 H1455 0.959 . S
C1457 H1456 0.961 . S
C1457 H1458 0.960 . S
H1458 C1457 0.960 . S
H1459 N1439 0.862 . S
O1460 Co1428 1.920 . S
O1460 C1433 1.289 . S
C1461 O1453 1.258 . S
C1461 O1454 1.266 . S
Co1462 O1465 1.970 . S
Co1462 N1479 1.989 . S
Co1462 O1487 1.967 . S
Co1462 O1494 1.920 . S
Co1463 O1466 1.966 . S
Co1463 N1472 2.022 . S
Co1463 N1480 1.993 . S
Co1463 O1488 1.941 . S
C1464 O1465 1.258 . S
C1464 O1466 1.263 . S
O1465 Co1462 1.970 . S
O1465 C1464 1.258 . S
O1466 Co1463 1.966 . S
O1466 C1464 1.263 . S
C1467 O1468 1.235 . S
C1467 O1494 1.289 . S
O1468 C1467 1.235 . S
C1469 C1471 1.400 . S
C1469 N1472 1.351 . S
C1469 C1474 1.501 . S
C1470 C1471 1.387 . S
C1470 N1473 1.341 . S
C1471 C1469 1.400 . S
C1471 C1470 1.387 . S
N1472 Co1463 2.022 . S
N1472 C1469 1.351 . S
N1472 N1473 1.365 . S
N1473 C1470 1.341 . S
N1473 N1472 1.365 . S
N1473 H1493 0.862 . S
C1474 C1469 1.501 . S
C1474 H1475 0.961 . S
C1474 H1476 0.961 . S
C1474 H1477 0.960 . S
H1475 C1474 0.961 . S
H1476 C1474 0.961 . S
H1477 C1474 0.960 . S
C1478 N1479 1.342 . S
C1478 C1482 1.401 . S
C1478 C1483 1.499 . S
N1479 Co1462 1.989 . S
N1479 C1478 1.342 . S
N1479 N1480 1.388 . S
N1480 Co1463 1.993 . S
N1480 N1479 1.388 . S
N1480 C1481 1.346 . S
C1481 N1480 1.346 . S
C1481 C1482 1.396 . S
C1481 C1491 1.510 . S
C1482 C1478 1.401 . S
C1482 C1481 1.396 . S
C1483 C1478 1.499 . S
C1483 H1484 0.959 . S
C1483 H1485 0.960 . S
C1483 H1486 0.961 . S
H1484 C1483 0.959 . S
H1485 C1483 0.960 . S
H1486 C1483 0.961 . S
O1487 Co1462 1.967 . S
O1487 C1495 1.258 . S
O1488 Co1463 1.941 . S
O1488 C1495 1.266 . S
H1489 C1491 0.959 . S
H1490 C1491 0.961 . S
C1491 C1481 1.510 . S
C1491 H1489 0.959 . S
C1491 H1490 0.961 . S
C1491 H1492 0.960 . S
H1492 C1491 0.960 . S
H1493 N1473 0.862 . S
O1494 Co1462 1.920 . S
O1494 C1467 1.289 . S
C1495 O1487 1.258 . S
C1495 O1488 1.266 . S
Co1496 O1499 1.970 . S
Co1496 N1513 1.989 . S
Co1496 O1521 1.967 . S
Co1496 O1528 1.920 . S
Co1497 O1500 1.966 . S
Co1497 N1506 2.022 . S
Co1497 N1514 1.993 . S
Co1497 O1522 1.941 . S
C1498 O1499 1.258 . S
C1498 O1500 1.263 . S
O1499 Co1496 1.970 . S
O1499 C1498 1.258 . S
O1500 Co1497 1.966 . S
O1500 C1498 1.263 . S
C1501 O1502 1.235 . S
C1501 O1528 1.289 . S
O1502 C1501 1.235 . S
C1503 C1505 1.400 . S
C1503 N1506 1.351 . S
C1503 C1508 1.501 . S
C1504 C1505 1.387 . S
C1504 N1507 1.341 . S
C1505 C1503 1.400 . S
C1505 C1504 1.387 . S
N1506 Co1497 2.022 . S
N1506 C1503 1.351 . S
N1506 N1507 1.365 . S
N1507 C1504 1.341 . S
N1507 N1506 1.365 . S
N1507 H1527 0.862 . S
C1508 C1503 1.501 . S
C1508 H1509 0.961 . S
C1508 H1510 0.961 . S
C1508 H1511 0.960 . S
H1509 C1508 0.961 . S
H1510 C1508 0.961 . S
H1511 C1508 0.960 . S
C1512 N1513 1.342 . S
C1512 C1516 1.401 . S
C1512 C1517 1.499 . S
N1513 Co1496 1.989 . S
N1513 C1512 1.342 . S
N1513 N1514 1.388 . S
N1514 Co1497 1.993 . S
N1514 N1513 1.388 . S
N1514 C1515 1.346 . S
C1515 N1514 1.346 . S
C1515 C1516 1.396 . S
C1515 C1525 1.510 . S
C1516 C1512 1.401 . S
C1516 C1515 1.396 . S
C1517 C1512 1.499 . S
C1517 H1518 0.959 . S
C1517 H1519 0.960 . S
C1517 H1520 0.961 . S
H1518 C1517 0.959 . S
H1519 C1517 0.960 . S
H1520 C1517 0.961 . S
O1521 Co1496 1.967 . S
O1521 C1529 1.258 . S
O1522 Co1497 1.941 . S
O1522 C1529 1.266 . S
H1523 C1525 0.959 . S
H1524 C1525 0.961 . S
C1525 C1515 1.510 . S
C1525 H1523 0.959 . S
C1525 H1524 0.961 . S
C1525 H1526 0.960 . S
H1526 C1525 0.960 . S
H1527 N1507 0.862 . S
O1528 Co1496 1.920 . S
O1528 C1501 1.289 . S
C1529 O1521 1.258 . S
C1529 O1522 1.266 . S
Co1530 O1533 1.970 . S
Co1530 N1547 1.989 . S
Co1530 O1555 1.967 . S
Co1530 O1562 1.920 . S
Co1531 O1534 1.966 . S
Co1531 N1540 2.022 . S
Co1531 N1548 1.993 . S
Co1531 O1556 1.941 . S
C1532 O1533 1.258 . S
C1532 O1534 1.263 . S
O1533 Co1530 1.970 . S
O1533 C1532 1.258 . S
O1534 Co1531 1.966 . S
O1534 C1532 1.263 . S
C1535 O1536 1.235 . S
C1535 O1562 1.289 . S
O1536 C1535 1.235 . S
C1537 C1539 1.400 . S
C1537 N1540 1.351 . S
C1537 C1542 1.501 . S
C1538 C1539 1.387 . S
C1538 N1541 1.341 . S
C1539 C1537 1.400 . S
C1539 C1538 1.387 . S
N1540 Co1531 2.022 . S
N1540 C1537 1.351 . S
N1540 N1541 1.365 . S
N1541 C1538 1.341 . S
N1541 N1540 1.365 . S
N1541 H1561 0.862 . S
C1542 C1537 1.501 . S
C1542 H1543 0.961 . S
C1542 H1544 0.961 . S
C1542 H1545 0.960 . S
H1543 C1542 0.961 . S
H1544 C1542 0.961 . S
H1545 C1542 0.960 . S
C1546 N1547 1.342 . S
C1546 C1550 1.401 . S
C1546 C1551 1.499 . S
N1547 Co1530 1.989 . S
N1547 C1546 1.342 . S
N1547 N1548 1.388 . S
N1548 Co1531 1.993 . S
N1548 N1547 1.388 . S
N1548 C1549 1.346 . S
C1549 N1548 1.346 . S
C1549 C1550 1.396 . S
C1549 C1559 1.510 . S
C1550 C1546 1.401 . S
C1550 C1549 1.396 . S
C1551 C1546 1.499 . S
C1551 H1552 0.959 . S
C1551 H1553 0.960 . S
C1551 H1554 0.961 . S
H1552 C1551 0.959 . S
H1553 C1551 0.960 . S
H1554 C1551 0.961 . S
O1555 Co1530 1.967 . S
O1555 C1563 1.258 . S
O1556 Co1531 1.941 . S
O1556 C1563 1.266 . S
H1557 C1559 0.959 . S
H1558 C1559 0.961 . S
C1559 C1549 1.510 . S
C1559 H1557 0.959 . S
C1559 H1558 0.961 . S
C1559 H1560 0.960 . S
H1560 C1559 0.960 . S
H1561 N1541 0.862 . S
O1562 Co1530 1.920 . S
O1562 C1535 1.289 . S
C1563 O1555 1.258 . S
C1563 O1556 1.266 . S
Co1564 O1567 1.970 . S
Co1564 N1581 1.989 . S
Co1564 O1589 1.967 . S
Co1564 O1596 1.920 . S
Co1565 O1568 1.966 . S
Co1565 N1574 2.022 . S
Co1565 N1582 1.993 . S
Co1565 O1590 1.941 . S
C1566 O1567 1.258 . S
C1566 O1568 1.263 . S
O1567 Co1564 1.970 . S
O1567 C1566 1.258 . S
O1568 Co1565 1.966 . S
O1568 C1566 1.263 . S
C1569 O1570 1.235 . S
C1569 O1596 1.289 . S
O1570 C1569 1.235 . S
C1571 C1573 1.400 . S
C1571 N1574 1.351 . S
C1571 C1576 1.501 . S
C1572 C1573 1.387 . S
C1572 N1575 1.341 . S
C1573 C1571 1.400 . S
C1573 C1572 1.387 . S
N1574 Co1565 2.022 . S
N1574 C1571 1.351 . S
N1574 N1575 1.365 . S
N1575 C1572 1.341 . S
N1575 N1574 1.365 . S
N1575 H1595 0.862 . S
C1576 C1571 1.501 . S
C1576 H1577 0.961 . S
C1576 H1578 0.961 . S
C1576 H1579 0.960 . S
H1577 C1576 0.961 . S
H1578 C1576 0.961 . S
H1579 C1576 0.960 . S
C1580 N1581 1.342 . S
C1580 C1584 1.401 . S
C1580 C1585 1.499 . S
N1581 Co1564 1.989 . S
N1581 C1580 1.342 . S
N1581 N1582 1.388 . S
N1582 Co1565 1.993 . S
N1582 N1581 1.388 . S
N1582 C1583 1.346 . S
C1583 N1582 1.346 . S
C1583 C1584 1.396 . S
C1583 C1593 1.510 . S
C1584 C1580 1.401 . S
C1584 C1583 1.396 . S
C1585 C1580 1.499 . S
C1585 H1586 0.959 . S
C1585 H1587 0.960 . S
C1585 H1588 0.961 . S
H1586 C1585 0.959 . S
H1587 C1585 0.960 . S
H1588 C1585 0.961 . S
O1589 Co1564 1.967 . S
O1589 C1597 1.258 . S
O1590 Co1565 1.941 . S
O1590 C1597 1.266 . S
H1591 C1593 0.959 . S
H1592 C1593 0.961 . S
C1593 C1583 1.510 . S
C1593 H1591 0.959 . S
C1593 H1592 0.961 . S
C1593 H1594 0.960 . S
H1594 C1593 0.960 . S
H1595 N1575 0.862 . S
O1596 Co1564 1.920 . S
O1596 C1569 1.289 . S
C1597 O1589 1.258 . S
C1597 O1590 1.266 . S
Co1598 O1601 1.970 . S
Co1598 N1615 1.989 . S
Co1598 O1623 1.967 . S
Co1598 O1630 1.920 . S
Co1599 O1602 1.966 . S
Co1599 N1608 2.022 . S
Co1599 N1616 1.993 . S
Co1599 O1624 1.941 . S
C1600 O1601 1.258 . S
C1600 O1602 1.263 . S
O1601 Co1598 1.970 . S
O1601 C1600 1.258 . S
O1602 Co1599 1.966 . S
O1602 C1600 1.263 . S
C1603 O1604 1.235 . S
C1603 O1630 1.289 . S
O1604 C1603 1.235 . S
C1605 C1607 1.400 . S
C1605 N1608 1.351 . S
C1605 C1610 1.501 . S
C1606 C1607 1.387 . S
C1606 N1609 1.341 . S
C1607 C1605 1.400 . S
C1607 C1606 1.387 . S
N1608 Co1599 2.022 . S
N1608 C1605 1.351 . S
N1608 N1609 1.365 . S
N1609 C1606 1.341 . S
N1609 N1608 1.365 . S
N1609 H1629 0.862 . S
C1610 C1605 1.501 . S
C1610 H1611 0.961 . S
C1610 H1612 0.961 . S
C1610 H1613 0.960 . S
H1611 C1610 0.961 . S
H1612 C1610 0.961 . S
H1613 C1610 0.960 . S
C1614 N1615 1.342 . S
C1614 C1618 1.401 . S
C1614 C1619 1.499 . S
N1615 Co1598 1.989 . S
N1615 C1614 1.342 . S
N1615 N1616 1.388 . S
N1616 Co1599 1.993 . S
N1616 N1615 1.388 . S
N1616 C1617 1.346 . S
C1617 N1616 1.346 . S
C1617 C1618 1.396 . S
C1617 C1627 1.510 . S
C1618 C1614 1.401 . S
C1618 C1617 1.396 . S
C1619 C1614 1.499 . S
C1619 H1620 0.959 . S
C1619 H1621 0.960 . S
C1619 H1622 0.961 . S
H1620 C1619 0.959 . S
H1621 C1619 0.960 . S
H1622 C1619 0.961 . S
O1623 Co1598 1.967 . S
O1623 C1631 1.258 . S
O1624 Co1599 1.941 . S
O1624 C1631 1.266 . S
H1625 C1627 0.959 . S
H1626 C1627 0.961 . S
C1627 C1617 1.510 . S
C1627 H1625 0.959 . S
C1627 H1626 0.961 . S
C1627 H1628 0.960 . S
H1628 C1627 0.960 . S
H1629 N1609 0.862 . S
O1630 Co1598 1.920 . S
O1630 C1603 1.289 . S
C1631 O1623 1.258 . S
C1631 O1624 1.266 . S
H1632 C1650 0.951 . S
H1633 C1652 0.951 . S
H1634 C1654 0.950 . S
H1635 C1655 0.950 . S
H1636 C1657 0.950 . S
H1637 C1660 0.950 . S
H1638 C1661 0.950 . S
H1639 C1663 0.950 . S
H1640 C1664 0.950 . S
H1641 C1665 0.951 . S
H1642 C1667 0.951 . S
H1643 C1669 0.950 . S
H1644 C1670 0.950 . S
H1645 C1672 0.950 . S
H1646 C1675 0.950 . S
H1647 C1676 0.950 . S
H1648 C1678 0.950 . S
H1649 C1679 0.950 . S
C1650 H1632 0.951 . S
C1650 C1651 1.366 . S
C1650 C1652 1.388 . S
C1651 C1650 1.366 . S
C1651 C1655 1.385 . S
C1652 H1633 0.951 . S
C1652 C1650 1.388 . S
C1652 C1653 1.366 . S
C1653 C1652 1.366 . S
C1653 C1654 1.414 . S
C1653 C1656 1.499 . S
C1654 H1634 0.950 . S
C1654 C1653 1.414 . S
C1654 C1655 1.374 . S
C1655 H1635 0.950 . S
C1655 C1651 1.385 . S
C1655 C1654 1.374 . S
C1656 C1653 1.499 . S
C1656 C1657 1.373 . S
C1656 C1658 1.389 . S
C1657 H1636 0.950 . S
C1657 C1656 1.373 . S
C1657 C1673 1.377 . S
C1658 C1656 1.389 . S
C1658 C1659 1.524 . S
C1658 C1672 1.377 . S
C1659 C1658 1.524 . S
C1659 C1660 1.397 . S
C1659 C1664 1.363 . S
C1660 H1637 0.950 . S
C1660 C1659 1.397 . S
C1660 C1661 1.334 . S
C1661 H1638 0.950 . S
C1661 C1660 1.334 . S
C1661 C1662 1.287 . S
C1662 C1661 1.287 . S
C1662 C1663 1.524 . S
C1662 H1681 0.913 . S
C1663 H1639 0.950 . S
C1663 C1662 1.524 . S
C1663 C1664 1.415 . S
C1664 H1640 0.950 . S
C1664 C1659 1.363 . S
C1664 C1663 1.415 . S
C1665 H1641 0.951 . S
C1665 C1666 1.366 . S
C1665 C1667 1.388 . S
C1666 C1665 1.366 . S
C1666 C1670 1.385 . S
C1667 H1642 0.951 . S
C1667 C1665 1.388 . S
C1667 C1668 1.366 . S
C1668 C1667 1.366 . S
C1668 C1669 1.414 . S
C1668 C1671 1.499 . S
C1669 H1643 0.950 . S
C1669 C1668 1.414 . S
C1669 C1670 1.374 . S
C1670 H1644 0.950 . S
C1670 C1666 1.385 . S
C1670 C1669 1.374 . S
C1671 C1668 1.499 . S
C1671 C1672 1.373 . S
C1671 C1673 1.389 . S
C1672 H1645 0.950 . S
C1672 C1658 1.377 . S
C1672 C1671 1.373 . S
C1673 C1657 1.377 . S
C1673 C1671 1.389 . S
C1673 C1674 1.524 . S
C1674 C1673 1.524 . S
C1674 C1675 1.397 . S
C1674 C1679 1.363 . S
C1675 H1646 0.950 . S
C1675 C1674 1.397 . S
C1675 C1676 1.334 . S
C1676 H1647 0.950 . S
C1676 C1675 1.334 . S
C1676 C1677 1.287 . S
C1677 C1676 1.287 . S
C1677 C1678 1.524 . S
C1677 H1680 0.999 . S
C1678 H1648 0.950 . S
C1678 C1677 1.524 . S
C1678 C1679 1.415 . S
C1679 H1649 0.950 . S
C1679 C1674 1.363 . S
C1679 C1678 1.415 . S
H1680 C1677 0.999 . S
H1681 C1662 0.913 . S
H1682 C1700 0.951 . S
H1683 C1702 0.951 . S
H1684 C1704 0.950 . S
H1685 C1705 0.950 . S
H1686 C1707 0.950 . S
H1687 C1710 0.950 . S
H1688 C1711 0.950 . S
H1689 C1713 0.950 . S
H1690 C1714 0.950 . S
H1691 C1715 0.951 . S
H1692 C1717 0.951 . S
H1693 C1719 0.950 . S
H1694 C1720 0.950 . S
H1695 C1722 0.950 . S
H1696 C1725 0.950 . S
H1697 C1726 0.950 . S
H1698 C1728 0.950 1_556 S
H1699 C1729 0.956 . S
C1700 H1682 0.951 . S
C1700 C1701 1.366 . S
C1700 C1702 1.388 . S
C1701 C1700 1.366 . S
C1701 C1705 1.385 . S
C1702 H1683 0.951 . S
C1702 C1700 1.388 . S
C1702 C1703 1.366 . S
C1703 C1702 1.366 . S
C1703 C1704 1.414 . S
C1703 C1706 1.499 . S
C1704 H1684 0.950 . S
C1704 C1703 1.414 . S
C1704 C1705 1.374 . S
C1705 H1685 0.950 . S
C1705 C1701 1.385 . S
C1705 C1704 1.374 . S
C1706 C1703 1.499 . S
C1706 C1707 1.373 . S
C1706 C1708 1.389 . S
C1707 H1686 0.950 . S
C1707 C1706 1.373 . S
C1707 C1723 1.377 . S
C1708 C1706 1.389 . S
C1708 C1709 1.524 . S
C1708 C1722 1.377 . S
C1709 C1708 1.524 . S
C1709 C1710 1.397 . S
C1709 C1714 1.363 . S
C1710 H1687 0.950 . S
C1710 C1709 1.397 . S
C1710 C1711 1.334 . S
C1711 H1688 0.950 . S
C1711 C1710 1.334 . S
C1711 C1712 1.287 . S
C1712 C1711 1.287 . S
C1712 C1713 1.524 . S
C1712 H1731 0.913 . S
C1713 H1689 0.950 . S
C1713 C1712 1.524 . S
C1713 C1714 1.415 . S
C1714 H1690 0.950 . S
C1714 C1709 1.363 . S
C1714 C1713 1.415 . S
C1715 H1691 0.951 . S
C1715 C1716 1.366 . S
C1715 C1717 1.388 . S
C1716 C1715 1.366 . S
C1716 C1720 1.385 . S
C1717 H1692 0.951 . S
C1717 C1715 1.388 . S
C1717 C1718 1.366 . S
C1718 C1717 1.366 . S
C1718 C1719 1.414 1_556 S
C1718 C1721 1.499 1_556 S
C1719 H1693 0.950 . S
C1719 C1718 1.414 1_554 S
C1719 C1720 1.374 1_554 S
C1720 H1694 0.950 . S
C1720 C1716 1.385 . S
C1720 C1719 1.374 1_556 S
C1721 C1718 1.499 1_554 S
C1721 C1722 1.373 . S
C1721 C1723 1.389 . S
C1722 H1695 0.950 . S
C1722 C1708 1.377 . S
C1722 C1721 1.373 . S
C1723 C1707 1.377 . S
C1723 C1721 1.389 . S
C1723 C1724 1.524 . S
C1724 C1723 1.524 . S
C1724 C1725 1.397 . S
C1724 C1729 1.363 . S
C1725 H1696 0.950 . S
C1725 C1724 1.397 . S
C1725 C1726 1.334 . S
C1726 H1697 0.950 . S
C1726 C1725 1.334 . S
C1726 C1727 1.287 . S
C1727 C1726 1.287 . S
C1727 C1728 1.524 . S
C1727 H1730 0.999 . S
C1728 H1698 0.950 1_554 S
C1728 C1727 1.524 . S
C1728 C1729 1.415 . S
C1729 H1699 0.956 . S
C1729 C1724 1.363 . S
C1729 C1728 1.415 . S
H1730 C1727 0.999 . S
H1731 C1712 0.913 . S
H1732 C1750 0.951 . S
H1733 C1752 0.951 . S
H1734 C1754 0.950 . S
H1735 C1755 0.950 . S
H1736 C1757 0.950 . S
H1737 C1760 0.950 . S
H1738 C1761 0.950 . S
H1739 C1763 0.950 . S
H1740 C1764 0.950 . S
H1741 C1765 0.951 . S
H1742 C1767 0.951 . S
H1743 C1769 0.950 . S
H1744 C1770 0.950 . S
H1745 C1772 0.950 . S
H1746 C1775 0.950 . S
H1747 C1776 0.950 . S
H1748 C1778 0.950 . S
H1749 C1779 0.950 . S
C1750 H1732 0.951 . S
C1750 C1751 1.366 . S
C1750 C1752 1.388 . S
C1751 C1750 1.366 . S
C1751 C1755 1.385 . S
C1752 H1733 0.951 . S
C1752 C1750 1.388 . S
C1752 C1753 1.366 . S
C1753 C1752 1.366 . S
C1753 C1754 1.414 . S
C1753 C1756 1.499 . S
C1754 H1734 0.950 . S
C1754 C1753 1.414 . S
C1754 C1755 1.374 . S
C1755 H1735 0.950 . S
C1755 C1751 1.385 . S
C1755 C1754 1.374 . S
C1756 C1753 1.499 . S
C1756 C1757 1.373 . S
C1756 C1758 1.389 . S
C1757 H1736 0.950 . S
C1757 C1756 1.373 . S
C1757 C1773 1.377 . S
C1758 C1756 1.389 . S
C1758 C1759 1.524 . S
C1758 C1772 1.377 . S
C1759 C1758 1.524 . S
C1759 C1760 1.397 . S
C1759 C1764 1.363 . S
C1760 H1737 0.950 . S
C1760 C1759 1.397 . S
C1760 C1761 1.334 . S
C1761 H1738 0.950 . S
C1761 C1760 1.334 . S
C1761 C1762 1.287 . S
C1762 C1761 1.287 . S
C1762 C1763 1.524 . S
C1762 H1781 0.913 . S
C1763 H1739 0.950 . S
C1763 C1762 1.524 . S
C1763 C1764 1.415 . S
C1764 H1740 0.950 . S
C1764 C1759 1.363 . S
C1764 C1763 1.415 . S
C1765 H1741 0.951 . S
C1765 C1766 1.366 . S
C1765 C1767 1.388 . S
C1766 C1765 1.366 . S
C1766 C1770 1.385 . S
C1767 H1742 0.951 . S
C1767 C1765 1.388 . S
C1767 C1768 1.366 . S
C1768 C1767 1.366 . S
C1768 C1769 1.414 . S
C1768 C1771 1.499 . S
C1769 H1743 0.950 . S
C1769 C1768 1.414 . S
C1769 C1770 1.374 . S
C1770 H1744 0.950 . S
C1770 C1766 1.385 . S
C1770 C1769 1.374 . S
C1771 C1768 1.499 . S
C1771 C1772 1.373 . S
C1771 C1773 1.389 . S
C1772 H1745 0.950 . S
C1772 C1758 1.377 . S
C1772 C1771 1.373 . S
C1773 C1757 1.377 . S
C1773 C1771 1.389 . S
C1773 C1774 1.524 . S
C1774 C1773 1.524 . S
C1774 C1775 1.397 . S
C1774 C1779 1.363 . S
C1775 H1746 0.950 . S
C1775 C1774 1.397 . S
C1775 C1776 1.334 . S
C1776 H1747 0.950 . S
C1776 C1775 1.334 . S
C1776 C1777 1.287 . S
C1777 C1776 1.287 . S
C1777 C1778 1.524 . S
C1777 H1780 0.999 . S
C1778 H1748 0.950 . S
C1778 C1777 1.524 . S
C1778 C1779 1.415 . S
C1779 H1749 0.950 . S
C1779 C1774 1.363 . S
C1779 C1778 1.415 . S
H1780 C1777 0.999 . S
H1781 C1762 0.913 . S
H1782 C1800 0.930 1_554 S
H1783 C1802 0.951 . S
H1784 C1804 0.950 . S
H1785 C1805 0.950 . S
H1786 C1807 0.901 1_556 S
H1787 C1810 0.950 . S
H1788 C1811 0.950 . S
H1789 C1813 0.950 . S
H1790 C1814 0.950 . S
H1791 C1815 0.951 . S
H1792 C1817 0.951 . S
H1793 C1819 0.950 . S
H1794 C1820 0.950 . S
H1795 C1822 0.950 . S
H1796 C1825 0.950 . S
H1797 C1826 0.950 . S
H1798 C1828 0.950 . S
H1799 C1829 0.950 . S
C1800 H1782 0.930 1_556 S
C1800 C1801 1.366 . S
C1800 C1802 1.388 1_556 S
C1801 C1800 1.366 . S
C1801 C1805 1.385 . S
C1802 H1783 0.951 . S
C1802 C1800 1.388 1_554 S
C1802 C1803 1.366 1_554 S
C1803 C1802 1.366 1_556 S
C1803 C1804 1.414 . S
C1803 C1806 1.499 1_556 S
C1804 H1784 0.950 . S
C1804 C1803 1.414 . S
C1804 C1805 1.374 . S
C1805 H1785 0.950 . S
C1805 C1801 1.385 . S
C1805 C1804 1.374 . S
C1806 C1803 1.499 1_554 S
C1806 C1807 1.391 . S
C1806 C1808 1.389 . S
C1807 H1786 0.901 1_554 S
C1807 C1806 1.391 . S
C1807 C1823 1.410 . S
C1808 C1806 1.389 . S
C1808 C1809 1.524 . S
C1808 C1822 1.377 . S
C1809 C1808 1.524 . S
C1809 C1810 1.397 . S
C1809 C1814 1.363 . S
C1810 H1787 0.950 . S
C1810 C1809 1.397 . S
C1810 C1811 1.334 . S
C1811 H1788 0.950 . S
C1811 C1810 1.334 . S
C1811 C1812 1.287 . S
C1812 C1811 1.287 . S
C1812 C1813 1.524 . S
C1812 H1831 0.913 . S
C1813 H1789 0.950 . S
C1813 C1812 1.524 . S
C1813 C1814 1.415 . S
C1814 H1790 0.950 . S
C1814 C1809 1.363 . S
C1814 C1813 1.415 . S
C1815 H1791 0.951 . S
C1815 C1816 1.366 . S
C1815 C1817 1.388 . S
C1816 C1815 1.366 . S
C1816 C1820 1.385 . S
C1817 H1792 0.951 . S
C1817 C1815 1.388 . S
C1817 C1818 1.366 . S
C1818 C1817 1.366 . S
C1818 C1819 1.414 . S
C1818 C1821 1.499 . S
C1819 H1793 0.950 . S
C1819 C1818 1.414 . S
C1819 C1820 1.374 . S
C1820 H1794 0.950 . S
C1820 C1816 1.385 . S
C1820 C1819 1.374 . S
C1821 C1818 1.499 . S
C1821 C1822 1.373 . S
C1821 C1823 1.389 . S
C1822 H1795 0.950 . S
C1822 C1808 1.377 . S
C1822 C1821 1.373 . S
C1823 C1807 1.410 . S
C1823 C1821 1.389 . S
C1823 C1824 1.524 . S
C1824 C1823 1.524 . S
C1824 C1825 1.397 . S
C1824 C1829 1.363 1_554 S
C1825 H1796 0.950 . S
C1825 C1824 1.397 . S
C1825 C1826 1.334 . S
C1826 H1797 0.950 . S
C1826 C1825 1.334 . S
C1826 C1827 1.287 1_554 S
C1827 C1826 1.287 1_556 S
C1827 C1828 1.524 . S
C1827 H1830 0.999 . S
C1828 H1798 0.950 . S
C1828 C1827 1.524 . S
C1828 C1829 1.415 . S
C1829 H1799 0.950 . S
C1829 C1824 1.363 1_556 S
C1829 C1828 1.415 . S
H1830 C1827 0.999 . S
H1831 C1812 0.913 . S
H1832 C1850 0.951 . S
H1833 C1852 0.951 . S
H1834 C1854 0.950 . S
H1835 C1855 0.950 . S
H1836 C1857 0.950 . S
H1837 C1860 0.950 . S
H1838 C1861 0.950 . S
H1839 C1863 0.950 . S
H1840 C1864 0.950 . S
H1841 C1865 0.951 . S
H1842 C1867 0.951 . S
H1843 C1869 0.950 . S
H1844 C1870 0.950 . S
H1845 C1872 0.950 . S
H1846 C1875 0.950 . S
H1847 C1876 0.950 . S
H1848 C1878 0.950 . S
H1849 C1879 0.950 . S
C1850 H1832 0.951 . S
C1850 C1851 1.366 . S
C1850 C1852 1.388 . S
C1851 C1850 1.366 . S
C1851 C1855 1.385 . S
C1852 H1833 0.951 . S
C1852 C1850 1.388 . S
C1852 C1853 1.366 . S
C1853 C1852 1.366 . S
C1853 C1854 1.414 . S
C1853 C1856 1.499 . S
C1854 H1834 0.950 . S
C1854 C1853 1.414 . S
C1854 C1855 1.374 . S
C1855 H1835 0.950 . S
C1855 C1851 1.385 . S
C1855 C1854 1.374 . S
C1856 C1853 1.499 . S
C1856 C1857 1.373 . S
C1856 C1858 1.389 . S
C1857 H1836 0.950 . S
C1857 C1856 1.373 . S
C1857 C1873 1.377 . S
C1858 C1856 1.389 . S
C1858 C1859 1.524 . S
C1858 C1872 1.377 . S
C1859 C1858 1.524 . S
C1859 C1860 1.397 . S
C1859 C1864 1.363 . S
C1860 H1837 0.950 . S
C1860 C1859 1.397 . S
C1860 C1861 1.334 . S
C1861 H1838 0.950 . S
C1861 C1860 1.334 . S
C1861 C1862 1.287 . S
C1862 C1861 1.287 . S
C1862 C1863 1.524 . S
C1862 H1881 0.913 . S
C1863 H1839 0.950 . S
C1863 C1862 1.524 . S
C1863 C1864 1.415 . S
C1864 H1840 0.950 . S
C1864 C1859 1.363 . S
C1864 C1863 1.415 . S
C1865 H1841 0.951 . S
C1865 C1866 1.366 . S
C1865 C1867 1.388 . S
C1866 C1865 1.366 . S
C1866 C1870 1.385 . S
C1867 H1842 0.951 . S
C1867 C1865 1.388 . S
C1867 C1868 1.366 . S
C1868 C1867 1.366 . S
C1868 C1869 1.414 . S
C1868 C1871 1.499 . S
C1869 H1843 0.950 . S
C1869 C1868 1.414 . S
C1869 C1870 1.374 . S
C1870 H1844 0.950 . S
C1870 C1866 1.385 . S
C1870 C1869 1.374 . S
C1871 C1868 1.499 . S
C1871 C1872 1.373 . S
C1871 C1873 1.389 . S
C1872 H1845 0.950 . S
C1872 C1858 1.377 . S
C1872 C1871 1.373 . S
C1873 C1857 1.377 . S
C1873 C1871 1.389 . S
C1873 C1874 1.524 . S
C1874 C1873 1.524 . S
C1874 C1875 1.397 . S
C1874 C1879 1.363 . S
C1875 H1846 0.950 . S
C1875 C1874 1.397 . S
C1875 C1876 1.334 . S
C1876 H1847 0.950 . S
C1876 C1875 1.334 . S
C1876 C1877 1.287 . S
C1877 C1876 1.287 . S
C1877 C1878 1.524 . S
C1877 H1880 0.999 . S
C1878 H1848 0.950 . S
C1878 C1877 1.524 . S
C1878 C1879 1.415 . S
C1879 H1849 0.950 . S
C1879 C1874 1.363 . S
C1879 C1878 1.415 . S
H1880 C1877 0.999 . S
H1881 C1862 0.913 . S
H1882 C1900 0.951 . S
H1883 C1902 0.951 1_455 S
H1884 C1904 0.950 . S
H1885 C1905 0.950 . S
H1886 C1907 0.950 . S
H1887 C1910 0.913 1_655 S
H1888 C1911 0.950 1_655 S
H1889 C1913 0.950 . S
H1890 C1914 0.950 . S
H1891 C1915 0.951 . S
H1892 C1917 0.951 . S
H1893 C1919 0.950 . S
H1894 C1920 0.947 . S
H1895 C1922 0.950 . S
H1896 C1925 0.950 . S
H1897 C1926 0.950 . S
H1898 C1928 0.950 . S
H1899 C1929 0.950 . S
C1900 H1882 0.951 . S
C1900 C1901 1.366 . S
C1900 C1902 1.388 . S
C1901 C1900 1.366 . S
C1901 C1905 1.385 . S
C1902 H1883 0.951 1_655 S
C1902 C1900 1.388 . S
C1902 C1903 1.366 . S
C1903 C1902 1.366 . S
C1903 C1904 1.414 . S
C1903 C1906 1.499 1_655 S
C1904 H1884 0.950 . S
C1904 C1903 1.414 . S
C1904 C1905 1.374 . S
C1905 H1885 0.950 . S
C1905 C1901 1.385 . S
C1905 C1904 1.374 . S
C1906 C1903 1.499 1_455 S
C1906 C1907 1.373 . S
C1906 C1908 1.389 . S
C1907 H1886 0.950 . S
C1907 C1906 1.373 . S
C1907 C1923 1.377 . S
C1908 C1906 1.389 . S
C1908 C1909 1.524 . S
C1908 C1922 1.377 . S
C1909 C1908 1.524 . S
C1909 C1910 1.397 . S
C1909 C1914 1.363 . S
C1910 H1887 0.913 1_455 S
C1910 C1909 1.397 . S
C1910 C1911 1.334 . S
C1911 H1888 0.950 1_455 S
C1911 C1910 1.334 . S
C1911 C1912 1.287 . S
C1912 C1911 1.287 . S
C1912 C1913 1.524 . S
C1912 H1931 0.913 . S
C1913 H1889 0.950 . S
C1913 C1912 1.524 . S
C1913 C1914 1.415 . S
C1914 H1890 0.950 . S
C1914 C1909 1.363 . S
C1914 C1913 1.415 . S
C1915 H1891 0.951 . S
C1915 C1916 1.366 . S
C1915 C1917 1.388 . S
C1916 C1915 1.366 . S
C1916 C1920 1.385 . S
C1917 H1892 0.951 . S
C1917 C1915 1.388 . S
C1917 C1918 1.366 . S
C1918 C1917 1.366 . S
C1918 C1919 1.414 1_554 S
C1918 C1921 1.499 1_554 S
C1919 H1893 0.950 . S
C1919 C1918 1.414 1_556 S
C1919 C1920 1.374 1_556 S
C1920 H1894 0.947 . S
C1920 C1916 1.385 . S
C1920 C1919 1.374 1_554 S
C1921 C1918 1.499 1_556 S
C1921 C1922 1.373 . S
C1921 C1923 1.389 . S
C1922 H1895 0.950 . S
C1922 C1908 1.377 . S
C1922 C1921 1.373 . S
C1923 C1907 1.377 . S
C1923 C1921 1.389 . S
C1923 C1924 1.524 1_556 S
C1924 C1923 1.524 1_554 S
C1924 C1925 1.397 1_554 S
C1924 C1929 1.363 . S
C1925 H1896 0.950 . S
C1925 C1924 1.397 1_556 S
C1925 C1926 1.334 1_556 S
C1926 H1897 0.950 . S
C1926 C1925 1.334 1_554 S
C1926 C1927 1.287 . S
C1927 C1926 1.287 . S
C1927 C1928 1.524 . S
C1927 H1930 0.999 . S
C1928 H1898 0.950 . S
C1928 C1927 1.524 . S
C1928 C1929 1.415 . S
C1929 H1899 0.950 . S
C1929 C1924 1.363 . S
C1929 C1928 1.415 . S
H1930 C1927 0.999 . S
H1931 C1912 0.913 . S
H1932 C1950 0.951 . S
H1933 C1952 0.951 . S
H1934 C1954 0.950 . S
H1935 C1955 0.950 . S
H1936 C1957 0.950 . S
H1937 C1960 0.950 . S
H1938 C1961 0.950 . S
H1939 C1963 0.950 . S
H1940 C1964 0.950 . S
H1941 C1965 0.951 . S
H1942 C1967 0.951 . S
H1943 C1969 0.950 . S
H1944 C1970 0.950 . S
H1945 C1972 0.950 . S
H1946 C1975 0.950 . S
H1947 C1976 0.950 . S
H1948 C1978 0.950 . S
H1949 C1979 0.950 . S
C1950 H1932 0.951 . S
C1950 C1951 1.366 . S
C1950 C1952 1.388 . S
C1951 C1950 1.366 . S
C1951 C1955 1.385 . S
C1952 H1933 0.951 . S
C1952 C1950 1.388 . S
C1952 C1953 1.366 . S
C1953 C1952 1.366 . S
C1953 C1954 1.414 . S
C1953 C1956 1.499 . S
C1954 H1934 0.950 . S
C1954 C1953 1.414 . S
C1954 C1955 1.374 . S
C1955 H1935 0.950 . S
C1955 C1951 1.385 . S
C1955 C1954 1.374 . S
C1956 C1953 1.499 . S
C1956 C1957 1.373 . S
C1956 C1958 1.389 . S
C1957 H1936 0.950 . S
C1957 C1956 1.373 . S
C1957 C1973 1.377 . S
C1958 C1956 1.389 . S
C1958 C1959 1.524 . S
C1958 C1972 1.377 . S
C1959 C1958 1.524 . S
C1959 C1960 1.397 . S
C1959 C1964 1.363 . S
C1960 H1937 0.950 . S
C1960 C1959 1.397 . S
C1960 C1961 1.334 . S
C1961 H1938 0.950 . S
C1961 C1960 1.334 . S
C1961 C1962 1.287 . S
C1962 C1961 1.287 . S
C1962 C1963 1.524 . S
C1962 H1981 0.913 . S
C1963 H1939 0.950 . S
C1963 C1962 1.524 . S
C1963 C1964 1.415 . S
C1964 H1940 0.950 . S
C1964 C1959 1.363 . S
C1964 C1963 1.415 . S
C1965 H1941 0.951 . S
C1965 C1966 1.366 . S
C1965 C1967 1.388 . S
C1966 C1965 1.366 . S
C1966 C1970 1.385 . S
C1967 H1942 0.951 . S
C1967 C1965 1.388 . S
C1967 C1968 1.366 . S
C1968 C1967 1.366 . S
C1968 C1969 1.414 . S
C1968 C1971 1.499 . S
C1969 H1943 0.950 . S
C1969 C1968 1.414 . S
C1969 C1970 1.374 . S
C1970 H1944 0.950 . S
C1970 C1966 1.385 . S
C1970 C1969 1.374 . S
C1971 C1968 1.499 . S
C1971 C1972 1.373 . S
C1971 C1973 1.389 . S
C1972 H1945 0.950 . S
C1972 C1958 1.377 . S
C1972 C1971 1.373 . S
C1973 C1957 1.377 . S
C1973 C1971 1.389 . S
C1973 C1974 1.524 . S
C1974 C1973 1.524 . S
C1974 C1975 1.397 . S
C1974 C1979 1.363 . S
C1975 H1946 0.950 . S
C1975 C1974 1.397 . S
C1975 C1976 1.334 . S
C1976 H1947 0.950 . S
C1976 C1975 1.334 . S
C1976 C1977 1.287 . S
C1977 C1976 1.287 . S
C1977 C1978 1.524 . S
C1977 H1980 0.999 . S
C1978 H1948 0.950 . S
C1978 C1977 1.524 . S
C1978 C1979 1.415 . S
C1979 H1949 0.950 . S
C1979 C1974 1.363 . S
C1979 C1978 1.415 . S
H1980 C1977 0.999 . S
H1981 C1962 0.913 . S
H1982 C2000 0.951 . S
H1983 C2002 0.951 1_655 S
H1984 C2004 0.950 . S
H1985 C2005 0.950 . S
H1986 C2007 0.950 . S
H1987 C2010 0.950 . S
H1988 C2011 0.950 . S
H1989 C2013 0.950 . S
H1990 C2014 0.950 . S
H1991 C2015 0.951 . S
H1992 C2017 0.951 . S
H1993 C2019 0.950 . S
H1994 C2020 0.947 . S
H1995 C2022 0.950 . S
H1996 C2025 0.950 . S
H1997 C2026 0.950 . S
H1998 C2028 0.950 . S
H1999 C2029 0.950 . S
C2000 H1982 0.951 . S
C2000 C2001 1.366 . S
C2000 C2002 1.388 . S
C2001 C2000 1.366 . S
C2001 C2005 1.385 . S
C2002 H1983 0.951 1_455 S
C2002 C2000 1.388 . S
C2002 C2003 1.366 . S
C2003 C2002 1.366 . S
C2003 C2004 1.414 . S
C2003 C2006 1.499 1_455 S
C2004 H1984 0.950 . S
C2004 C2003 1.414 . S
C2004 C2005 1.374 . S
C2005 H1985 0.950 . S
C2005 C2001 1.385 . S
C2005 C2004 1.374 . S
C2006 C2003 1.499 1_655 S
C2006 C2007 1.373 . S
C2006 C2008 1.389 . S
C2007 H1986 0.950 . S
C2007 C2006 1.373 . S
C2007 C2023 1.391 . S
C2008 C2006 1.389 . S
C2008 C2009 1.524 . S
C2008 C2022 1.377 . S
C2009 C2008 1.524 . S
C2009 C2010 1.397 . S
C2009 C2014 1.363 . S
C2010 H1987 0.950 . S
C2010 C2009 1.397 . S
C2010 C2011 1.334 . S
C2011 H1988 0.950 . S
C2011 C2010 1.334 . S
C2011 C2012 1.287 . S
C2012 C2011 1.287 . S
C2012 C2013 1.524 . S
C2012 H2031 0.913 . S
C2013 H1989 0.950 . S
C2013 C2012 1.524 . S
C2013 C2014 1.415 . S
C2014 H1990 0.950 . S
C2014 C2009 1.363 . S
C2014 C2013 1.415 . S
C2015 H1991 0.951 . S
C2015 C2016 1.366 . S
C2015 C2017 1.388 . S
C2016 C2015 1.366 . S
C2016 C2020 1.385 . S
C2017 H1992 0.951 . S
C2017 C2015 1.388 . S
C2017 C2018 1.366 . S
C2018 C2017 1.366 . S
C2018 C2019 1.414 1_554 S
C2018 C2021 1.499 1_554 S
C2019 H1993 0.950 . S
C2019 C2018 1.414 1_556 S
C2019 C2020 1.374 1_556 S
C2020 H1994 0.947 . S
C2020 C2016 1.385 . S
C2020 C2019 1.374 1_554 S
C2021 C2018 1.499 1_556 S
C2021 C2022 1.373 . S
C2021 C2023 1.399 . S
C2022 H1995 0.950 . S
C2022 C2008 1.377 . S
C2022 C2021 1.373 . S
C2023 C2007 1.391 . S
C2023 C2021 1.399 . S
C2023 C2024 1.501 1_556 S
C2024 C2023 1.501 1_554 S
C2024 C2025 1.397 . S
C2024 C2029 1.363 . S
C2025 H1996 0.950 . S
C2025 C2024 1.397 . S
C2025 C2026 1.334 . S
C2026 H1997 0.950 . S
C2026 C2025 1.334 . S
C2026 C2027 1.287 . S
C2027 C2026 1.287 . S
C2027 C2028 1.524 . S
C2027 H2030 0.999 . S
C2028 H1998 0.950 . S
C2028 C2027 1.524 . S
C2028 C2029 1.415 . S
C2029 H1999 0.950 . S
C2029 C2024 1.363 . S
C2029 C2028 1.415 . S
H2030 C2027 0.999 . S
H2031 C2012 0.913 . S
H2032 C2050 0.951 . S
H2033 C2052 0.951 . S
H2034 C2054 0.950 . S
H2035 C2055 0.950 . S
H2036 C2057 0.950 . S
H2037 C2060 0.950 . S
H2038 C2061 0.950 . S
H2039 C2063 0.950 . S
H2040 C2064 0.950 . S
H2041 C2065 0.951 . S
H2042 C2067 0.951 . S
H2043 C2069 0.950 . S
H2044 C2070 0.950 . S
H2045 C2072 0.950 . S
H2046 C2075 0.950 . S
H2047 C2076 0.950 . S
H2048 C2078 0.950 . S
H2049 C2079 0.950 . S
C2050 H2032 0.951 . S
C2050 C2051 1.366 . S
C2050 C2052 1.388 . S
C2051 C2050 1.366 . S
C2051 C2055 1.385 . S
C2052 H2033 0.951 . S
C2052 C2050 1.388 . S
C2052 C2053 1.366 . S
C2053 C2052 1.366 . S
C2053 C2054 1.414 . S
C2053 C2056 1.499 . S
C2054 H2034 0.950 . S
C2054 C2053 1.414 . S
C2054 C2055 1.374 . S
C2055 H2035 0.950 . S
C2055 C2051 1.385 . S
C2055 C2054 1.374 . S
C2056 C2053 1.499 . S
C2056 C2057 1.373 . S
C2056 C2058 1.389 . S
C2057 H2036 0.950 . S
C2057 C2056 1.373 . S
C2057 C2073 1.377 . S
C2058 C2056 1.389 . S
C2058 C2059 1.524 . S
C2058 C2072 1.377 . S
C2059 C2058 1.524 . S
C2059 C2060 1.397 . S
C2059 C2064 1.363 . S
C2060 H2037 0.950 . S
C2060 C2059 1.397 . S
C2060 C2061 1.334 . S
C2061 H2038 0.950 . S
C2061 C2060 1.334 . S
C2061 C2062 1.287 . S
C2062 C2061 1.287 . S
C2062 C2063 1.524 . S
C2062 H2081 0.913 . S
C2063 H2039 0.950 . S
C2063 C2062 1.524 . S
C2063 C2064 1.415 . S
C2064 H2040 0.950 . S
C2064 C2059 1.363 . S
C2064 C2063 1.415 . S
C2065 H2041 0.951 . S
C2065 C2066 1.366 . S
C2065 C2067 1.388 . S
C2066 C2065 1.366 . S
C2066 C2070 1.385 . S
C2067 H2042 0.951 . S
C2067 C2065 1.388 . S
C2067 C2068 1.366 . S
C2068 C2067 1.366 . S
C2068 C2069 1.414 . S
C2068 C2071 1.499 . S
C2069 H2043 0.950 . S
C2069 C2068 1.414 . S
C2069 C2070 1.374 . S
C2070 H2044 0.950 . S
C2070 C2066 1.385 . S
C2070 C2069 1.374 . S
C2071 C2068 1.499 . S
C2071 C2072 1.373 . S
C2071 C2073 1.389 . S
C2072 H2045 0.950 . S
C2072 C2058 1.377 . S
C2072 C2071 1.373 . S
C2073 C2057 1.377 . S
C2073 C2071 1.389 . S
C2073 C2074 1.524 . S
C2074 C2073 1.524 . S
C2074 C2075 1.397 . S
C2074 C2079 1.363 . S
C2075 H2046 0.950 . S
C2075 C2074 1.397 . S
C2075 C2076 1.334 . S
C2076 H2047 0.950 . S
C2076 C2075 1.334 . S
C2076 C2077 1.287 . S
C2077 C2076 1.287 . S
C2077 C2078 1.524 . S
C2077 H2080 0.999 . S
C2078 H2048 0.950 . S
C2078 C2077 1.524 . S
C2078 C2079 1.415 . S
C2079 H2049 0.950 . S
C2079 C2074 1.363 . S
C2079 C2078 1.415 . S
H2080 C2077 0.999 . S
H2081 C2062 0.913 . S
H2082 C2100 0.951 . S
H2083 C2102 0.951 . S
H2084 C2104 0.950 . S
H2085 C2105 0.950 . S
H2086 C2107 0.950 . S
H2087 C2110 0.950 . S
H2088 C2111 0.950 . S
H2089 C2113 0.950 . S
H2090 C2114 0.950 . S
H2091 C2115 0.951 . S
H2092 C2117 0.951 . S
H2093 C2119 0.950 . S
H2094 C2120 0.950 . S
H2095 C2122 0.950 . S
H2096 C2125 0.950 . S
H2097 C2126 0.950 . S
H2098 C2128 0.950 . S
H2099 C2129 0.950 . S
C2100 H2082 0.951 . S
C2100 C2101 1.366 . S
C2100 C2102 1.388 . S
C2101 C2100 1.366 . S
C2101 C2105 1.385 . S
C2102 H2083 0.951 . S
C2102 C2100 1.388 . S
C2102 C2103 1.366 . S
C2103 C2102 1.366 . S
C2103 C2104 1.414 . S
C2103 C2106 1.499 1_556 S
C2104 H2084 0.950 . S
C2104 C2103 1.414 . S
C2104 C2105 1.374 . S
C2105 H2085 0.950 . S
C2105 C2101 1.385 . S
C2105 C2104 1.374 . S
C2106 C2103 1.499 1_554 S
C2106 C2107 1.373 . S
C2106 C2108 1.389 . S
C2107 H2086 0.950 . S
C2107 C2106 1.373 . S
C2107 C2123 1.377 . S
C2108 C2106 1.389 . S
C2108 C2109 1.524 . S
C2108 C2122 1.377 . S
C2109 C2108 1.524 . S
C2109 C2110 1.397 1_554 S
C2109 C2114 1.363 . S
C2110 H2087 0.950 . S
C2110 C2109 1.397 1_556 S
C2110 C2111 1.334 . S
C2111 H2088 0.950 . S
C2111 C2110 1.334 . S
C2111 C2112 1.287 . S
C2112 C2111 1.287 . S
C2112 C2113 1.524 . S
C2112 H2131 0.913 . S
C2113 H2089 0.950 . S
C2113 C2112 1.524 . S
C2113 C2114 1.415 1_556 S
C2114 H2090 0.950 . S
C2114 C2109 1.363 . S
C2114 C2113 1.415 1_554 S
C2115 H2091 0.951 . S
C2115 C2116 1.366 . S
C2115 C2117 1.388 . S
C2116 C2115 1.366 . S
C2116 C2120 1.385 . S
C2117 H2092 0.951 . S
C2117 C2115 1.388 . S
C2117 C2118 1.366 . S
C2118 C2117 1.366 . S
C2118 C2119 1.414 . S
C2118 C2121 1.499 . S
C2119 H2093 0.950 . S
C2119 C2118 1.414 . S
C2119 C2120 1.374 . S
C2120 H2094 0.950 . S
C2120 C2116 1.385 . S
C2120 C2119 1.374 . S
C2121 C2118 1.499 . S
C2121 C2122 1.373 . S
C2121 C2123 1.389 . S
C2122 H2095 0.950 . S
C2122 C2108 1.377 . S
C2122 C2121 1.373 . S
C2123 C2107 1.377 . S
C2123 C2121 1.389 . S
C2123 C2124 1.524 . S
C2124 C2123 1.524 . S
C2124 C2125 1.397 . S
C2124 C2129 1.363 . S
C2125 H2096 0.950 . S
C2125 C2124 1.397 . S
C2125 C2126 1.334 . S
C2126 H2097 0.950 . S
C2126 C2125 1.334 . S
C2126 C2127 1.287 . S
C2127 C2126 1.287 . S
C2127 C2128 1.524 . S
C2127 H2130 0.999 . S
C2128 H2098 0.950 . S
C2128 C2127 1.524 . S
C2128 C2129 1.415 . S
C2129 H2099 0.950 . S
C2129 C2124 1.363 . S
C2129 C2128 1.415 . S
H2130 C2127 0.999 . S
H2131 C2112 0.913 . S
H2132 C2150 0.951 . S
H2133 C2152 0.951 . S
H2134 C2154 0.950 . S
H2135 C2155 0.950 . S
H2136 C2157 0.950 . S
H2137 C2160 0.950 . S
H2138 C2161 0.950 . S
H2139 C2163 0.950 . S
H2140 C2164 0.950 . S
H2141 C2165 0.951 . S
H2142 C2167 0.951 . S
H2143 C2169 0.950 . S
H2144 C2170 0.950 . S
H2145 C2172 0.950 . S
H2146 C2175 0.950 . S
H2147 C2176 0.950 . S
H2148 C2178 0.950 . S
H2149 C2179 0.950 . S
C2150 H2132 0.951 . S
C2150 C2151 1.366 . S
C2150 C2152 1.388 . S
C2151 C2150 1.366 . S
C2151 C2155 1.385 . S
C2152 H2133 0.951 . S
C2152 C2150 1.388 . S
C2152 C2153 1.366 . S
C2153 C2152 1.366 . S
C2153 C2154 1.414 . S
C2153 C2156 1.499 . S
C2154 H2134 0.950 . S
C2154 C2153 1.414 . S
C2154 C2155 1.374 . S
C2155 H2135 0.950 . S
C2155 C2151 1.385 . S
C2155 C2154 1.374 . S
C2156 C2153 1.499 . S
C2156 C2157 1.373 . S
C2156 C2158 1.389 . S
C2157 H2136 0.950 . S
C2157 C2156 1.373 . S
C2157 C2173 1.377 . S
C2158 C2156 1.389 . S
C2158 C2159 1.524 . S
C2158 C2172 1.377 . S
C2159 C2158 1.524 . S
C2159 C2160 1.397 . S
C2159 C2164 1.363 . S
C2160 H2137 0.950 . S
C2160 C2159 1.397 . S
C2160 C2161 1.334 . S
C2161 H2138 0.950 . S
C2161 C2160 1.334 . S
C2161 C2162 1.287 . S
C2162 C2161 1.287 . S
C2162 C2163 1.524 . S
C2162 H2181 0.913 . S
C2163 H2139 0.950 . S
C2163 C2162 1.524 . S
C2163 C2164 1.415 . S
C2164 H2140 0.950 . S
C2164 C2159 1.363 . S
C2164 C2163 1.415 . S
C2165 H2141 0.951 . S
C2165 C2166 1.366 . S
C2165 C2167 1.388 . S
C2166 C2165 1.366 . S
C2166 C2170 1.385 . S
C2167 H2142 0.951 . S
C2167 C2165 1.388 . S
C2167 C2168 1.366 . S
C2168 C2167 1.366 . S
C2168 C2169 1.414 . S
C2168 C2171 1.499 . S
C2169 H2143 0.950 . S
C2169 C2168 1.414 . S
C2169 C2170 1.374 . S
C2170 H2144 0.950 . S
C2170 C2166 1.385 . S
C2170 C2169 1.374 . S
C2171 C2168 1.499 . S
C2171 C2172 1.373 . S
C2171 C2173 1.389 . S
C2172 H2145 0.950 . S
C2172 C2158 1.377 . S
C2172 C2171 1.373 . S
C2173 C2157 1.377 . S
C2173 C2171 1.389 . S
C2173 C2174 1.524 . S
C2174 C2173 1.524 . S
C2174 C2175 1.397 . S
C2174 C2179 1.363 . S
C2175 H2146 0.950 . S
C2175 C2174 1.397 . S
C2175 C2176 1.334 . S
C2176 H2147 0.950 . S
C2176 C2175 1.334 . S
C2176 C2177 1.287 . S
C2177 C2176 1.287 . S
C2177 C2178 1.524 . S
C2177 H2180 0.999 . S
C2178 H2148 0.950 . S
C2178 C2177 1.524 . S
C2178 C2179 1.415 . S
C2179 H2149 0.950 . S
C2179 C2174 1.363 . S
C2179 C2178 1.415 . S
H2180 C2177 0.999 . S
H2181 C2162 0.913 . S
H2182 C2200 0.951 . S
H2183 C2202 0.951 1_554 S
H2184 C2204 0.950 . S
H2185 C2205 0.950 . S
H2186 C2207 0.950 . S
H2187 C2210 0.950 . S
H2188 C2211 0.950 . S
H2189 C2213 0.950 . S
H2190 C2214 0.950 . S
H2191 C2215 0.951 . S
H2192 C2217 0.951 . S
H2193 C2219 0.975 . S
H2194 C2220 0.950 . S
H2195 C2222 0.950 . S
H2196 C2225 0.950 . S
H2197 C2226 0.950 . S
H2198 C2228 0.950 . S
H2199 C2229 0.950 . S
C2200 H2182 0.951 . S
C2200 C2201 1.366 . S
C2200 C2202 1.388 . S
C2201 C2200 1.366 . S
C2201 C2205 1.385 . S
C2202 H2183 0.951 1_556 S
C2202 C2200 1.388 . S
C2202 C2203 1.366 . S
C2203 C2202 1.366 . S
C2203 C2204 1.414 . S
C2203 C2206 1.499 1_556 S
C2204 H2184 0.950 . S
C2204 C2203 1.414 . S
C2204 C2205 1.374 . S
C2205 H2185 0.950 . S
C2205 C2201 1.385 . S
C2205 C2204 1.374 . S
C2206 C2203 1.499 1_554 S
C2206 C2207 1.373 . S
C2206 C2208 1.389 . S
C2207 H2186 0.950 . S
C2207 C2206 1.373 . S
C2207 C2223 1.377 1_565 S
C2208 C2206 1.389 . S
C2208 C2209 1.524 . S
C2208 C2222 1.377 . S
C2209 C2208 1.524 . S
C2209 C2210 1.397 . S
C2209 C2214 1.363 . S
C2210 H2187 0.950 . S
C2210 C2209 1.397 . S
C2210 C2211 1.334 . S
C2211 H2188 0.950 . S
C2211 C2210 1.334 . S
C2211 C2212 1.287 . S
C2212 C2211 1.287 . S
C2212 C2213 1.524 . S
C2212 H2231 0.913 . S
C2213 H2189 0.950 . S
C2213 C2212 1.524 . S
C2213 C2214 1.415 . S
C2214 H2190 0.950 . S
C2214 C2209 1.363 . S
C2214 C2213 1.415 . S
C2215 H2191 0.951 . S
C2215 C2216 1.366 . S
C2215 C2217 1.388 . S
C2216 C2215 1.366 . S
C2216 C2220 1.385 . S
C2217 H2192 0.951 . S
C2217 C2215 1.388 . S
C2217 C2218 1.366 . S
C2218 C2217 1.366 . S
C2218 C2219 1.406 1_545 S
C2218 C2221 1.499 1_545 S
C2219 H2193 0.975 . S
C2219 C2218 1.406 1_565 S
C2219 C2220 1.358 1_565 S
C2220 H2194 0.950 . S
C2220 C2216 1.385 . S
C2220 C2219 1.358 1_545 S
C2221 C2218 1.499 1_565 S
C2221 C2222 1.373 . S
C2221 C2223 1.389 1_565 S
C2222 H2195 0.950 . S
C2222 C2208 1.377 . S
C2222 C2221 1.373 . S
C2223 C2207 1.377 1_545 S
C2223 C2221 1.389 1_545 S
C2223 C2224 1.524 . S
C2224 C2223 1.524 . S
C2224 C2225 1.397 . S
C2224 C2229 1.363 . S
C2225 H2196 0.950 . S
C2225 C2224 1.397 . S
C2225 C2226 1.334 . S
C2226 H2197 0.950 . S
C2226 C2225 1.334 . S
C2226 C2227 1.287 . S
C2227 C2226 1.287 . S
C2227 C2228 1.524 . S
C2227 H2230 0.999 . S
C2228 H2198 0.950 . S
C2228 C2227 1.524 . S
C2228 C2229 1.415 . S
C2229 H2199 0.950 . S
C2229 C2224 1.363 . S
C2229 C2228 1.415 . S
H2230 C2227 0.999 . S
H2231 C2212 0.913 . S
H2232 C2250 0.951 . S
H2233 C2252 0.951 . S
H2234 C2254 0.950 . S
H2235 C2255 0.950 . S
H2236 C2257 0.950 . S
H2237 C2260 0.950 . S
H2238 C2261 0.950 . S
H2239 C2263 0.950 . S
H2240 C2264 0.950 . S
H2241 C2265 0.951 . S
H2242 C2267 0.951 . S
H2243 C2269 0.950 . S
H2244 C2270 0.950 . S
H2245 C2272 0.950 . S
H2246 C2275 0.950 . S
H2247 C2276 0.950 . S
H2248 C2278 0.950 . S
H2249 C2279 0.950 . S
C2250 H2232 0.951 . S
C2250 C2251 1.366 . S
C2250 C2252 1.388 . S
C2251 C2250 1.366 . S
C2251 C2255 1.385 . S
C2252 H2233 0.951 . S
C2252 C2250 1.388 . S
C2252 C2253 1.366 . S
C2253 C2252 1.366 . S
C2253 C2254 1.414 . S
C2253 C2256 1.499 . S
C2254 H2234 0.950 . S
C2254 C2253 1.414 . S
C2254 C2255 1.374 . S
C2255 H2235 0.950 . S
C2255 C2251 1.385 . S
C2255 C2254 1.374 . S
C2256 C2253 1.499 . S
C2256 C2257 1.373 . S
C2256 C2258 1.389 . S
C2257 H2236 0.950 . S
C2257 C2256 1.373 . S
C2257 C2273 1.377 . S
C2258 C2256 1.389 . S
C2258 C2259 1.524 . S
C2258 C2272 1.377 . S
C2259 C2258 1.524 . S
C2259 C2260 1.397 . S
C2259 C2264 1.363 . S
C2260 H2237 0.950 . S
C2260 C2259 1.397 . S
C2260 C2261 1.334 . S
C2261 H2238 0.950 . S
C2261 C2260 1.334 . S
C2261 C2262 1.287 . S
C2262 C2261 1.287 . S
C2262 C2263 1.524 . S
C2262 H2281 0.913 . S
C2263 H2239 0.950 . S
C2263 C2262 1.524 . S
C2263 C2264 1.415 . S
C2264 H2240 0.950 . S
C2264 C2259 1.363 . S
C2264 C2263 1.415 . S
C2265 H2241 0.951 . S
C2265 C2266 1.366 . S
C2265 C2267 1.388 . S
C2266 C2265 1.366 . S
C2266 C2270 1.385 . S
C2267 H2242 0.951 . S
C2267 C2265 1.388 . S
C2267 C2268 1.366 . S
C2268 C2267 1.366 . S
C2268 C2269 1.414 . S
C2268 C2271 1.499 . S
C2269 H2243 0.950 . S
C2269 C2268 1.414 . S
C2269 C2270 1.374 . S
C2270 H2244 0.950 . S
C2270 C2266 1.385 . S
C2270 C2269 1.374 . S
C2271 C2268 1.499 . S
C2271 C2272 1.373 . S
C2271 C2273 1.389 . S
C2272 H2245 0.950 . S
C2272 C2258 1.377 . S
C2272 C2271 1.373 . S
C2273 C2257 1.377 . S
C2273 C2271 1.389 . S
C2273 C2274 1.524 . S
C2274 C2273 1.524 . S
C2274 C2275 1.397 . S
C2274 C2279 1.363 . S
C2275 H2246 0.950 . S
C2275 C2274 1.397 . S
C2275 C2276 1.334 . S
C2276 H2247 0.950 . S
C2276 C2275 1.334 . S
C2276 C2277 1.287 . S
C2277 C2276 1.287 . S
C2277 C2278 1.524 . S
C2277 H2280 0.999 . S
C2278 H2248 0.950 . S
C2278 C2277 1.524 . S
C2278 C2279 1.415 . S
C2279 H2249 0.950 . S
C2279 C2274 1.363 . S
C2279 C2278 1.415 . S
H2280 C2277 0.999 . S
H2281 C2262 0.913 . S
H2282 C2300 0.951 . S
H2283 C2302 0.951 . S
H2284 C2304 0.950 . S
H2285 C2305 0.950 . S
H2286 C2307 0.950 . S
H2287 C2310 0.950 . S
H2288 C2311 0.950 . S
H2289 C2313 0.950 . S
H2290 C2314 0.950 . S
H2291 C2315 0.951 . S
H2292 C2317 0.951 1_556 S
H2293 C2319 0.950 . S
H2294 C2320 0.950 . S
H2295 C2322 0.950 . S
H2296 C2325 0.949 1_554 S
H2297 C2326 0.950 . S
H2298 C2328 0.950 . S
H2299 C2329 0.950 . S
C2300 H2282 0.951 . S
C2300 C2301 1.366 . S
C2300 C2302 1.388 . S
C2301 C2300 1.366 . S
C2301 C2305 1.385 . S
C2302 H2283 0.951 . S
C2302 C2300 1.388 . S
C2302 C2303 1.366 . S
C2303 C2302 1.366 . S
C2303 C2304 1.414 . S
C2303 C2306 1.499 . S
C2304 H2284 0.950 . S
C2304 C2303 1.414 . S
C2304 C2305 1.374 . S
C2305 H2285 0.950 . S
C2305 C2301 1.385 . S
C2305 C2304 1.374 . S
C2306 C2303 1.499 . S
C2306 C2307 1.373 . S
C2306 C2308 1.389 . S
C2307 H2286 0.950 . S
C2307 C2306 1.373 . S
C2307 C2323 1.377 . S
C2308 C2306 1.389 . S
C2308 C2309 1.524 . S
C2308 C2322 1.377 . S
C2309 C2308 1.524 . S
C2309 C2310 1.397 . S
C2309 C2314 1.363 . S
C2310 H2287 0.950 . S
C2310 C2309 1.397 . S
C2310 C2311 1.334 . S
C2311 H2288 0.950 . S
C2311 C2310 1.334 . S
C2311 C2312 1.287 . S
C2312 C2311 1.287 . S
C2312 C2313 1.524 . S
C2312 H2331 0.913 . S
C2313 H2289 0.950 . S
C2313 C2312 1.524 . S
C2313 C2314 1.415 . S
C2314 H2290 0.950 . S
C2314 C2309 1.363 . S
C2314 C2313 1.415 . S
C2315 H2291 0.951 . S
C2315 C2316 1.366 . S
C2315 C2317 1.388 . S
C2316 C2315 1.366 . S
C2316 C2320 1.385 . S
C2317 H2292 0.951 1_554 S
C2317 C2315 1.388 . S
C2317 C2318 1.366 . S
C2318 C2317 1.366 . S
C2318 C2319 1.414 . S
C2318 C2321 1.499 1_554 S
C2319 H2293 0.950 . S
C2319 C2318 1.414 . S
C2319 C2320 1.374 . S
C2320 H2294 0.950 . S
C2320 C2316 1.385 . S
C2320 C2319 1.374 . S
C2321 C2318 1.499 1_556 S
C2321 C2322 1.373 . S
C2321 C2323 1.389 . S
C2322 H2295 0.950 . S
C2322 C2308 1.377 . S
C2322 C2321 1.373 . S
C2323 C2307 1.377 . S
C2323 C2321 1.389 . S
C2323 C2324 1.524 . S
C2324 C2323 1.524 . S
C2324 C2325 1.397 . S
C2324 C2329 1.363 . S
C2325 H2296 0.949 1_556 S
C2325 C2324 1.397 . S
C2325 C2326 1.334 1_556 S
C2326 H2297 0.950 . S
C2326 C2325 1.334 1_554 S
C2326 C2327 1.287 1_554 S
C2327 C2326 1.287 1_556 S
C2327 C2328 1.524 . S
C2327 H2330 0.999 1_556 S
C2328 H2298 0.950 . S
C2328 C2327 1.524 . S
C2328 C2329 1.415 . S
C2329 H2299 0.950 . S
C2329 C2324 1.363 . S
C2329 C2328 1.415 . S
H2330 C2327 0.999 1_554 S
H2331 C2312 0.913 . S
H2332 C2350 0.951 . S
H2333 C2352 0.951 . S
H2334 C2354 0.950 . S
H2335 C2355 0.950 . S
H2336 C2357 0.950 . S
H2337 C2360 0.950 . S
H2338 C2361 0.950 . S
H2339 C2363 0.950 . S
H2340 C2364 0.950 . S
H2341 C2365 0.951 . S
H2342 C2367 0.951 . S
H2343 C2369 0.950 . S
H2344 C2370 0.950 . S
H2345 C2372 0.950 . S
H2346 C2375 0.950 . S
H2347 C2376 0.950 . S
H2348 C2378 0.950 . S
H2349 C2379 0.950 . S
C2350 H2332 0.951 . S
C2350 C2351 1.366 . S
C2350 C2352 1.388 . S
C2351 C2350 1.366 . S
C2351 C2355 1.385 . S
C2352 H2333 0.951 . S
C2352 C2350 1.388 . S
C2352 C2353 1.366 . S
C2353 C2352 1.366 . S
C2353 C2354 1.414 . S
C2353 C2356 1.499 . S
C2354 H2334 0.950 . S
C2354 C2353 1.414 . S
C2354 C2355 1.374 . S
C2355 H2335 0.950 . S
C2355 C2351 1.385 . S
C2355 C2354 1.374 . S
C2356 C2353 1.499 . S
C2356 C2357 1.373 . S
C2356 C2358 1.389 . S
C2357 H2336 0.950 . S
C2357 C2356 1.373 . S
C2357 C2373 1.377 . S
C2358 C2356 1.389 . S
C2358 C2359 1.524 . S
C2358 C2372 1.377 . S
C2359 C2358 1.524 . S
C2359 C2360 1.397 . S
C2359 C2364 1.363 . S
C2360 H2337 0.950 . S
C2360 C2359 1.397 . S
C2360 C2361 1.334 . S
C2361 H2338 0.950 . S
C2361 C2360 1.334 . S
C2361 C2362 1.287 . S
C2362 C2361 1.287 . S
C2362 C2363 1.524 . S
C2362 H2381 0.913 . S
C2363 H2339 0.950 . S
C2363 C2362 1.524 . S
C2363 C2364 1.415 . S
C2364 H2340 0.950 . S
C2364 C2359 1.363 . S
C2364 C2363 1.415 . S
C2365 H2341 0.951 . S
C2365 C2366 1.366 . S
C2365 C2367 1.388 . S
C2366 C2365 1.366 . S
C2366 C2370 1.385 . S
C2367 H2342 0.951 . S
C2367 C2365 1.388 . S
C2367 C2368 1.366 . S
C2368 C2367 1.366 . S
C2368 C2369 1.414 . S
C2368 C2371 1.499 . S
C2369 H2343 0.950 . S
C2369 C2368 1.414 . S
C2369 C2370 1.374 . S
C2370 H2344 0.950 . S
C2370 C2366 1.385 . S
C2370 C2369 1.374 . S
C2371 C2368 1.499 . S
C2371 C2372 1.373 . S
C2371 C2373 1.389 . S
C2372 H2345 0.950 . S
C2372 C2358 1.377 . S
C2372 C2371 1.373 . S
C2373 C2357 1.377 . S
C2373 C2371 1.389 . S
C2373 C2374 1.524 . S
C2374 C2373 1.524 . S
C2374 C2375 1.397 . S
C2374 C2379 1.363 . S
C2375 H2346 0.950 . S
C2375 C2374 1.397 . S
C2375 C2376 1.334 . S
C2376 H2347 0.950 . S
C2376 C2375 1.334 . S
C2376 C2377 1.287 . S
C2377 C2376 1.287 . S
C2377 C2378 1.524 . S
C2377 H2380 0.999 . S
C2378 H2348 0.950 . S
C2378 C2377 1.524 . S
C2378 C2379 1.415 . S
C2379 H2349 0.950 . S
C2379 C2374 1.363 . S
C2379 C2378 1.415 . S
H2380 C2377 0.999 . S
H2381 C2362 0.913 . S
H2382 C2400 0.951 . S
H2383 C2402 0.951 1_556 S
H2384 C2404 0.950 . S
H2385 C2405 0.950 . S
H2386 C2407 0.950 . S
H2387 C2410 0.950 1_554 S
H2388 C2411 0.950 . S
H2389 C2413 0.950 . S
H2390 C2414 0.950 . S
H2391 C2415 0.951 . S
H2392 C2417 0.951 . S
H2393 C2419 0.950 . S
H2394 C2420 0.950 . S
H2395 C2422 0.950 . S
H2396 C2425 0.950 . S
H2397 C2426 0.950 . S
H2398 C2428 0.950 . S
H2399 C2429 0.950 . S
C2400 H2382 0.951 . S
C2400 C2401 1.366 . S
C2400 C2402 1.388 . S
C2401 C2400 1.366 . S
C2401 C2405 1.385 . S
C2402 H2383 0.951 1_554 S
C2402 C2400 1.388 . S
C2402 C2403 1.366 . S
C2403 C2402 1.366 . S
C2403 C2404 1.414 . S
C2403 C2406 1.499 1_554 S
C2404 H2384 0.950 . S
C2404 C2403 1.414 . S
C2404 C2405 1.374 . S
C2405 H2385 0.950 . S
C2405 C2401 1.385 . S
C2405 C2404 1.374 . S
C2406 C2403 1.499 1_556 S
C2406 C2407 1.373 . S
C2406 C2408 1.389 . S
C2407 H2386 0.950 . S
C2407 C2406 1.373 . S
C2407 C2423 1.377 . S
C2408 C2406 1.389 . S
C2408 C2409 1.524 . S
C2408 C2422 1.377 . S
C2409 C2408 1.524 . S
C2409 C2410 1.397 . S
C2409 C2414 1.363 . S
C2410 H2387 0.950 1_556 S
C2410 C2409 1.397 . S
C2410 C2411 1.334 1_556 S
C2411 H2388 0.950 . S
C2411 C2410 1.334 1_554 S
C2411 C2412 1.287 1_554 S
C2412 C2411 1.287 1_556 S
C2412 C2413 1.524 . S
C2412 H2431 0.913 . S
C2413 H2389 0.950 . S
C2413 C2412 1.524 . S
C2413 C2414 1.415 . S
C2414 H2390 0.950 . S
C2414 C2409 1.363 . S
C2414 C2413 1.415 . S
C2415 H2391 0.951 . S
C2415 C2416 1.366 . S
C2415 C2417 1.388 . S
C2416 C2415 1.366 . S
C2416 C2420 1.385 . S
C2417 H2392 0.951 . S
C2417 C2415 1.388 . S
C2417 C2418 1.366 . S
C2418 C2417 1.366 . S
C2418 C2419 1.414 1_545 S
C2418 C2421 1.499 1_545 S
C2419 H2393 0.950 . S
C2419 C2418 1.414 1_565 S
C2419 C2420 1.374 1_565 S
C2420 H2394 0.950 . S
C2420 C2416 1.385 . S
C2420 C2419 1.374 1_545 S
C2421 C2418 1.499 1_565 S
C2421 C2422 1.373 . S
C2421 C2423 1.389 . S
C2422 H2395 0.950 . S
C2422 C2408 1.377 . S
C2422 C2421 1.373 . S
C2423 C2407 1.377 . S
C2423 C2421 1.389 . S
C2423 C2424 1.524 . S
C2424 C2423 1.524 . S
C2424 C2425 1.397 . S
C2424 C2429 1.363 1_565 S
C2425 H2396 0.950 . S
C2425 C2424 1.397 . S
C2425 C2426 1.334 . S
C2426 H2397 0.950 . S
C2426 C2425 1.334 . S
C2426 C2427 1.287 1_565 S
C2427 C2426 1.287 1_545 S
C2427 C2428 1.524 . S
C2427 H2430 0.999 . S
C2428 H2398 0.950 . S
C2428 C2427 1.524 . S
C2428 C2429 1.415 . S
C2429 H2399 0.950 . S
C2429 C2424 1.363 1_545 S
C2429 C2428 1.415 . S
H2430 C2427 0.999 . S
H2431 C2412 0.913 . S
H2432 C2450 0.951 . S
H2433 C2452 0.951 . S
H2434 C2454 0.950 . S
H2435 C2455 0.950 . S
H2436 C2457 0.950 . S
H2437 C2460 0.950 . S
H2438 C2461 0.950 . S
H2439 C2463 0.950 . S
H2440 C2464 0.950 . S
H2441 C2465 0.951 . S
H2442 C2467 0.951 . S
H2443 C2469 0.950 . S
H2444 C2470 0.950 . S
H2445 C2472 0.950 . S
H2446 C2475 0.950 . S
H2447 C2476 0.950 . S
H2448 C2478 0.950 . S
H2449 C2479 0.950 . S
C2450 H2432 0.951 . S
C2450 C2451 1.366 . S
C2450 C2452 1.388 . S
C2451 C2450 1.366 . S
C2451 C2455 1.385 . S
C2452 H2433 0.951 . S
C2452 C2450 1.388 . S
C2452 C2453 1.366 . S
C2453 C2452 1.366 . S
C2453 C2454 1.414 . S
C2453 C2456 1.499 . S
C2454 H2434 0.950 . S
C2454 C2453 1.414 . S
C2454 C2455 1.374 . S
C2455 H2435 0.950 . S
C2455 C2451 1.385 . S
C2455 C2454 1.374 . S
C2456 C2453 1.499 . S
C2456 C2457 1.373 . S
C2456 C2458 1.389 . S
C2457 H2436 0.950 . S
C2457 C2456 1.373 . S
C2457 C2473 1.377 . S
C2458 C2456 1.389 . S
C2458 C2459 1.524 . S
C2458 C2472 1.377 . S
C2459 C2458 1.524 . S
C2459 C2460 1.397 . S
C2459 C2464 1.363 . S
C2460 H2437 0.950 . S
C2460 C2459 1.397 . S
C2460 C2461 1.334 . S
C2461 H2438 0.950 . S
C2461 C2460 1.334 . S
C2461 C2462 1.287 . S
C2462 C2461 1.287 . S
C2462 C2463 1.524 . S
C2462 H2481 0.913 . S
C2463 H2439 0.950 . S
C2463 C2462 1.524 . S
C2463 C2464 1.415 . S
C2464 H2440 0.950 . S
C2464 C2459 1.363 . S
C2464 C2463 1.415 . S
C2465 H2441 0.951 . S
C2465 C2466 1.366 . S
C2465 C2467 1.388 . S
C2466 C2465 1.366 . S
C2466 C2470 1.385 . S
C2467 H2442 0.951 . S
C2467 C2465 1.388 . S
C2467 C2468 1.366 . S
C2468 C2467 1.366 . S
C2468 C2469 1.414 . S
C2468 C2471 1.499 . S
C2469 H2443 0.950 . S
C2469 C2468 1.414 . S
C2469 C2470 1.374 . S
C2470 H2444 0.950 . S
C2470 C2466 1.385 . S
C2470 C2469 1.374 . S
C2471 C2468 1.499 . S
C2471 C2472 1.373 . S
C2471 C2473 1.389 . S
C2472 H2445 0.950 . S
C2472 C2458 1.377 . S
C2472 C2471 1.373 . S
C2473 C2457 1.377 . S
C2473 C2471 1.389 . S
C2473 C2474 1.524 . S
C2474 C2473 1.524 . S
C2474 C2475 1.397 . S
C2474 C2479 1.363 . S
C2475 H2446 0.950 . S
C2475 C2474 1.397 . S
C2475 C2476 1.334 . S
C2476 H2447 0.950 . S
C2476 C2475 1.334 . S
C2476 C2477 1.287 . S
C2477 C2476 1.287 . S
C2477 C2478 1.524 . S
C2477 H2480 0.999 . S
C2478 H2448 0.950 . S
C2478 C2477 1.524 . S
C2478 C2479 1.415 . S
C2479 H2449 0.950 . S
C2479 C2474 1.363 . S
C2479 C2478 1.415 . S
H2480 C2477 0.999 . S
H2481 C2462 0.913 . S
H2482 C2500 0.951 . S
H2483 C2502 0.951 . S
H2484 C2504 0.950 . S
H2485 C2505 0.950 . S
H2486 C2507 0.950 . S
H2487 C2510 0.950 . S
H2488 C2511 0.950 . S
H2489 C2513 0.950 . S
H2490 C2514 0.950 . S
H2491 C2515 0.951 . S
H2492 C2517 0.951 . S
H2493 C2519 0.950 . S
H2494 C2520 0.950 . S
H2495 C2522 0.950 . S
H2496 C2525 0.950 . S
H2497 C2526 0.950 . S
H2498 C2528 0.950 . S
H2499 C2529 0.950 . S
C2500 H2482 0.951 . S
C2500 C2501 1.366 . S
C2500 C2502 1.388 . S
C2501 C2500 1.366 . S
C2501 C2505 1.385 . S
C2502 H2483 0.951 . S
C2502 C2500 1.388 . S
C2502 C2503 1.366 . S
C2503 C2502 1.366 . S
C2503 C2504 1.414 . S
C2503 C2506 1.499 . S
C2504 H2484 0.950 . S
C2504 C2503 1.414 . S
C2504 C2505 1.374 . S
C2505 H2485 0.950 . S
C2505 C2501 1.385 . S
C2505 C2504 1.374 . S
C2506 C2503 1.499 . S
C2506 C2507 1.373 . S
C2506 C2508 1.389 . S
C2507 H2486 0.950 . S
C2507 C2506 1.373 . S
C2507 C2523 1.377 . S
C2508 C2506 1.389 . S
C2508 C2509 1.524 . S
C2508 C2522 1.377 . S
C2509 C2508 1.524 . S
C2509 C2510 1.397 . S
C2509 C2514 1.363 . S
C2510 H2487 0.950 . S
C2510 C2509 1.397 . S
C2510 C2511 1.334 . S
C2511 H2488 0.950 . S
C2511 C2510 1.334 . S
C2511 C2512 1.287 . S
C2512 C2511 1.287 . S
C2512 C2513 1.524 . S
C2512 H2531 0.913 . S
C2513 H2489 0.950 . S
C2513 C2512 1.524 . S
C2513 C2514 1.415 . S
C2514 H2490 0.950 . S
C2514 C2509 1.363 . S
C2514 C2513 1.415 . S
C2515 H2491 0.951 . S
C2515 C2516 1.366 . S
C2515 C2517 1.388 . S
C2516 C2515 1.366 . S
C2516 C2520 1.385 . S
C2517 H2492 0.951 . S
C2517 C2515 1.388 . S
C2517 C2518 1.366 . S
C2518 C2517 1.366 . S
C2518 C2519 1.414 . S
C2518 C2521 1.499 . S
C2519 H2493 0.950 . S
C2519 C2518 1.414 . S
C2519 C2520 1.374 . S
C2520 H2494 0.950 . S
C2520 C2516 1.385 . S
C2520 C2519 1.374 . S
C2521 C2518 1.499 . S
C2521 C2522 1.373 . S
C2521 C2523 1.389 . S
C2522 H2495 0.950 . S
C2522 C2508 1.377 . S
C2522 C2521 1.373 . S
C2523 C2507 1.377 . S
C2523 C2521 1.389 . S
C2523 C2524 1.524 . S
C2524 C2523 1.524 . S
C2524 C2525 1.397 . S
C2524 C2529 1.363 . S
C2525 H2496 0.950 . S
C2525 C2524 1.397 . S
C2525 C2526 1.334 . S
C2526 H2497 0.950 . S
C2526 C2525 1.334 . S
C2526 C2527 1.287 . S
C2527 C2526 1.287 . S
C2527 C2528 1.524 . S
C2527 H2530 0.999 . S
C2528 H2498 0.950 . S
C2528 C2527 1.524 . S
C2528 C2529 1.415 . S
C2529 H2499 0.950 . S
C2529 C2524 1.363 . S
C2529 C2528 1.415 . S
H2530 C2527 0.999 . S
H2531 C2512 0.913 . S
H2532 C2550 0.951 . S
H2533 C2552 0.951 . S
H2534 C2554 0.950 . S
H2535 C2555 0.950 . S
H2536 C2557 0.950 . S
H2537 C2560 0.950 . S
H2538 C2561 0.950 . S
H2539 C2563 0.950 . S
H2540 C2564 0.950 . S
H2541 C2565 0.951 . S
H2542 C2567 0.984 . S
H2543 C2569 0.950 . S
H2544 C2570 0.950 . S
H2545 C2572 0.950 . S
H2546 C2575 0.950 . S
H2547 C2576 0.950 . S
H2548 C2578 0.950 . S
H2549 C2579 0.950 . S
C2550 H2532 0.951 . S
C2550 C2551 1.366 . S
C2550 C2552 1.388 . S
C2551 C2550 1.366 . S
C2551 C2555 1.385 . S
C2552 H2533 0.951 . S
C2552 C2550 1.388 . S
C2552 C2553 1.366 . S
C2553 C2552 1.366 . S
C2553 C2554 1.414 . S
C2553 C2556 1.499 . S
C2554 H2534 0.950 . S
C2554 C2553 1.414 . S
C2554 C2555 1.374 . S
C2555 H2535 0.950 . S
C2555 C2551 1.385 . S
C2555 C2554 1.374 . S
C2556 C2553 1.499 . S
C2556 C2557 1.373 . S
C2556 C2558 1.389 . S
C2557 H2536 0.950 . S
C2557 C2556 1.373 . S
C2557 C2573 1.377 . S
C2558 C2556 1.389 . S
C2558 C2559 1.524 . S
C2558 C2572 1.377 . S
C2559 C2558 1.524 . S
C2559 C2560 1.397 . S
C2559 C2564 1.363 . S
C2560 H2537 0.950 . S
C2560 C2559 1.397 . S
C2560 C2561 1.334 . S
C2561 H2538 0.950 . S
C2561 C2560 1.334 . S
C2561 C2562 1.287 . S
C2562 C2561 1.287 . S
C2562 C2563 1.524 . S
C2562 H2581 0.913 . S
C2563 H2539 0.950 . S
C2563 C2562 1.524 . S
C2563 C2564 1.415 . S
C2564 H2540 0.950 . S
C2564 C2559 1.363 . S
C2564 C2563 1.415 . S
C2565 H2541 0.951 . S
C2565 C2566 1.366 . S
C2565 C2567 1.368 1_655 S
C2566 C2565 1.366 . S
C2566 C2570 1.385 . S
C2567 H2542 0.984 . S
C2567 C2565 1.368 1_455 S
C2567 C2568 1.354 1_455 S
C2568 C2567 1.354 1_655 S
C2568 C2569 1.414 . S
C2568 C2571 1.499 1_655 S
C2569 H2543 0.950 . S
C2569 C2568 1.414 . S
C2569 C2570 1.374 . S
C2570 H2544 0.950 . S
C2570 C2566 1.385 . S
C2570 C2569 1.374 . S
C2571 C2568 1.499 1_455 S
C2571 C2572 1.373 . S
C2571 C2573 1.389 . S
C2572 H2545 0.950 . S
C2572 C2558 1.377 . S
C2572 C2571 1.373 . S
C2573 C2557 1.377 . S
C2573 C2571 1.389 . S
C2573 C2574 1.524 . S
C2574 C2573 1.524 . S
C2574 C2575 1.397 1_455 S
C2574 C2579 1.363 . S
C2575 H2546 0.950 . S
C2575 C2574 1.397 1_655 S
C2575 C2576 1.334 . S
C2576 H2547 0.950 . S
C2576 C2575 1.334 . S
C2576 C2577 1.287 . S
C2577 C2576 1.287 . S
C2577 C2578 1.524 1_655 S
C2577 H2580 0.999 . S
C2578 H2548 0.950 . S
C2578 C2577 1.524 1_455 S
C2578 C2579 1.415 . S
C2579 H2549 0.950 . S
C2579 C2574 1.363 . S
C2579 C2578 1.415 . S
H2580 C2577 0.999 . S
H2581 C2562 0.913 . S
H2582 C2600 0.951 . S
H2583 C2602 0.951 . S
H2584 C2604 0.950 . S
H2585 C2605 0.950 . S
H2586 C2607 0.950 . S
H2587 C2610 0.950 . S
H2588 C2611 0.950 . S
H2589 C2613 0.950 . S
H2590 C2614 0.950 . S
H2591 C2615 0.951 . S
H2592 C2617 0.951 . S
H2593 C2619 0.950 . S
H2594 C2620 0.950 . S
H2595 C2622 0.950 . S
H2596 C2625 0.950 . S
H2597 C2626 0.950 . S
H2598 C2628 0.950 . S
H2599 C2629 0.950 . S
C2600 H2582 0.951 . S
C2600 C2601 1.366 . S
C2600 C2602 1.388 . S
C2601 C2600 1.366 . S
C2601 C2605 1.385 . S
C2602 H2583 0.951 . S
C2602 C2600 1.388 . S
C2602 C2603 1.366 . S
C2603 C2602 1.366 . S
C2603 C2604 1.414 . S
C2603 C2606 1.499 . S
C2604 H2584 0.950 . S
C2604 C2603 1.414 . S
C2604 C2605 1.374 . S
C2605 H2585 0.950 . S
C2605 C2601 1.385 . S
C2605 C2604 1.374 . S
C2606 C2603 1.499 . S
C2606 C2607 1.373 . S
C2606 C2608 1.389 . S
C2607 H2586 0.950 . S
C2607 C2606 1.373 . S
C2607 C2623 1.377 . S
C2608 C2606 1.389 . S
C2608 C2609 1.524 . S
C2608 C2622 1.377 . S
C2609 C2608 1.524 . S
C2609 C2610 1.397 . S
C2609 C2614 1.363 . S
C2610 H2587 0.950 . S
C2610 C2609 1.397 . S
C2610 C2611 1.334 . S
C2611 H2588 0.950 . S
C2611 C2610 1.334 . S
C2611 C2612 1.287 . S
C2612 C2611 1.287 . S
C2612 C2613 1.524 . S
C2612 H2631 0.913 . S
C2613 H2589 0.950 . S
C2613 C2612 1.524 . S
C2613 C2614 1.415 . S
C2614 H2590 0.950 . S
C2614 C2609 1.363 . S
C2614 C2613 1.415 . S
C2615 H2591 0.951 . S
C2615 C2616 1.366 . S
C2615 C2617 1.388 . S
C2616 C2615 1.366 . S
C2616 C2620 1.385 . S
C2617 H2592 0.951 . S
C2617 C2615 1.388 . S
C2617 C2618 1.366 . S
C2618 C2617 1.366 . S
C2618 C2619 1.414 . S
C2618 C2621 1.499 . S
C2619 H2593 0.950 . S
C2619 C2618 1.414 . S
C2619 C2620 1.374 . S
C2620 H2594 0.950 . S
C2620 C2616 1.385 . S
C2620 C2619 1.374 . S
C2621 C2618 1.499 . S
C2621 C2622 1.373 . S
C2621 C2623 1.389 . S
C2622 H2595 0.950 . S
C2622 C2608 1.377 . S
C2622 C2621 1.373 . S
C2623 C2607 1.377 . S
C2623 C2621 1.389 . S
C2623 C2624 1.524 . S
C2624 C2623 1.524 . S
C2624 C2625 1.397 . S
C2624 C2629 1.363 . S
C2625 H2596 0.950 . S
C2625 C2624 1.397 . S
C2625 C2626 1.334 . S
C2626 H2597 0.950 . S
C2626 C2625 1.334 . S
C2626 C2627 1.287 . S
C2627 C2626 1.287 . S
C2627 C2628 1.524 . S
C2627 H2630 0.999 . S
C2628 H2598 0.950 . S
C2628 C2627 1.524 . S
C2628 C2629 1.415 . S
C2629 H2599 0.950 . S
C2629 C2624 1.363 . S
C2629 C2628 1.415 . S
H2630 C2627 0.999 . S
H2631 C2612 0.913 . S
H2632 C2650 0.951 . S
H2633 C2652 0.951 . S
H2634 C2654 0.950 . S
H2635 C2655 0.950 . S
H2636 C2657 0.950 . S
H2637 C2660 0.950 . S
H2638 C2661 0.950 . S
H2639 C2663 0.950 . S
H2640 C2664 0.950 . S
H2641 C2665 0.951 . S
H2642 C2667 0.951 . S
H2643 C2669 0.950 . S
H2644 C2670 0.950 . S
H2645 C2672 0.950 . S
H2646 C2675 0.950 . S
H2647 C2676 0.950 . S
H2648 C2678 0.950 . S
H2649 C2679 0.950 . S
C2650 H2632 0.951 . S
C2650 C2651 1.366 . S
C2650 C2652 1.388 . S
C2651 C2650 1.366 . S
C2651 C2655 1.385 . S
C2652 H2633 0.951 . S
C2652 C2650 1.388 . S
C2652 C2653 1.366 . S
C2653 C2652 1.366 . S
C2653 C2654 1.414 . S
C2653 C2656 1.499 . S
C2654 H2634 0.950 . S
C2654 C2653 1.414 . S
C2654 C2655 1.374 . S
C2655 H2635 0.950 . S
C2655 C2651 1.385 . S
C2655 C2654 1.374 . S
C2656 C2653 1.499 . S
C2656 C2657 1.373 . S
C2656 C2658 1.389 . S
C2657 H2636 0.950 . S
C2657 C2656 1.373 . S
C2657 C2673 1.377 . S
C2658 C2656 1.389 . S
C2658 C2659 1.524 . S
C2658 C2672 1.377 . S
C2659 C2658 1.524 . S
C2659 C2660 1.397 . S
C2659 C2664 1.363 . S
C2660 H2637 0.950 . S
C2660 C2659 1.397 . S
C2660 C2661 1.334 . S
C2661 H2638 0.950 . S
C2661 C2660 1.334 . S
C2661 C2662 1.287 . S
C2662 C2661 1.287 . S
C2662 C2663 1.524 . S
C2662 H2681 0.913 . S
C2663 H2639 0.950 . S
C2663 C2662 1.524 . S
C2663 C2664 1.415 . S
C2664 H2640 0.950 . S
C2664 C2659 1.363 . S
C2664 C2663 1.415 . S
C2665 H2641 0.951 . S
C2665 C2666 1.366 . S
C2665 C2667 1.388 . S
C2666 C2665 1.366 . S
C2666 C2670 1.385 . S
C2667 H2642 0.951 . S
C2667 C2665 1.388 . S
C2667 C2668 1.366 . S
C2668 C2667 1.366 . S
C2668 C2669 1.414 . S
C2668 C2671 1.499 . S
C2669 H2643 0.950 . S
C2669 C2668 1.414 . S
C2669 C2670 1.374 . S
C2670 H2644 0.950 . S
C2670 C2666 1.385 . S
C2670 C2669 1.374 . S
C2671 C2668 1.499 . S
C2671 C2672 1.373 . S
C2671 C2673 1.389 . S
C2672 H2645 0.950 . S
C2672 C2658 1.377 . S
C2672 C2671 1.373 . S
C2673 C2657 1.377 . S
C2673 C2671 1.389 . S
C2673 C2674 1.524 . S
C2674 C2673 1.524 . S
C2674 C2675 1.397 . S
C2674 C2679 1.363 . S
C2675 H2646 0.950 . S
C2675 C2674 1.397 . S
C2675 C2676 1.334 . S
C2676 H2647 0.950 . S
C2676 C2675 1.334 . S
C2676 C2677 1.287 . S
C2677 C2676 1.287 . S
C2677 C2678 1.524 . S
C2677 H2680 0.999 . S
C2678 H2648 0.950 . S
C2678 C2677 1.524 . S
C2678 C2679 1.415 . S
C2679 H2649 0.950 . S
C2679 C2674 1.363 . S
C2679 C2678 1.415 . S
H2680 C2677 0.999 . S
H2681 C2662 0.913 . S
H2682 C2700 0.951 . S
H2683 C2702 0.951 . S
H2684 C2704 0.950 . S
H2685 C2705 0.950 . S
H2686 C2707 0.950 . S
H2687 C2710 0.950 . S
H2688 C2711 0.950 . S
H2689 C2713 0.950 . S
H2690 C2714 0.950 . S
H2691 C2715 0.951 . S
H2692 C2717 0.951 . S
H2693 C2719 0.950 . S
H2694 C2720 0.950 . S
H2695 C2722 0.950 . S
H2696 C2725 0.950 . S
H2697 C2726 0.950 . S
H2698 C2728 0.950 . S
H2699 C2729 0.950 . S
C2700 H2682 0.951 . S
C2700 C2701 1.366 . S
C2700 C2702 1.388 . S
C2701 C2700 1.366 . S
C2701 C2705 1.385 . S
C2702 H2683 0.951 . S
C2702 C2700 1.388 . S
C2702 C2703 1.366 . S
C2703 C2702 1.366 . S
C2703 C2704 1.414 . S
C2703 C2706 1.499 . S
C2704 H2684 0.950 . S
C2704 C2703 1.414 . S
C2704 C2705 1.374 . S
C2705 H2685 0.950 . S
C2705 C2701 1.385 . S
C2705 C2704 1.374 . S
C2706 C2703 1.499 . S
C2706 C2707 1.373 . S
C2706 C2708 1.389 . S
C2707 H2686 0.950 . S
C2707 C2706 1.373 . S
C2707 C2723 1.377 . S
C2708 C2706 1.389 . S
C2708 C2709 1.524 . S
C2708 C2722 1.377 . S
C2709 C2708 1.524 . S
C2709 C2710 1.397 . S
C2709 C2714 1.363 . S
C2710 H2687 0.950 . S
C2710 C2709 1.397 . S
C2710 C2711 1.334 . S
C2711 H2688 0.950 . S
C2711 C2710 1.334 . S
C2711 C2712 1.287 . S
C2712 C2711 1.287 . S
C2712 C2713 1.524 . S
C2712 H2731 0.913 . S
C2713 H2689 0.950 . S
C2713 C2712 1.524 . S
C2713 C2714 1.415 . S
C2714 H2690 0.950 . S
C2714 C2709 1.363 . S
C2714 C2713 1.415 . S
C2715 H2691 0.951 . S
C2715 C2716 1.366 . S
C2715 C2717 1.388 . S
C2716 C2715 1.366 . S
C2716 C2720 1.385 . S
C2717 H2692 0.951 . S
C2717 C2715 1.388 . S
C2717 C2718 1.366 . S
C2718 C2717 1.366 . S
C2718 C2719 1.414 . S
C2718 C2721 1.499 . S
C2719 H2693 0.950 . S
C2719 C2718 1.414 . S
C2719 C2720 1.374 . S
C2720 H2694 0.950 . S
C2720 C2716 1.385 . S
C2720 C2719 1.374 . S
C2721 C2718 1.499 . S
C2721 C2722 1.373 . S
C2721 C2723 1.389 . S
C2722 H2695 0.950 . S
C2722 C2708 1.377 . S
C2722 C2721 1.373 . S
C2723 C2707 1.377 . S
C2723 C2721 1.389 . S
C2723 C2724 1.524 . S
C2724 C2723 1.524 . S
C2724 C2725 1.397 . S
C2724 C2729 1.363 . S
C2725 H2696 0.950 . S
C2725 C2724 1.397 . S
C2725 C2726 1.334 . S
C2726 H2697 0.950 . S
C2726 C2725 1.334 . S
C2726 C2727 1.287 . S
C2727 C2726 1.287 . S
C2727 C2728 1.524 . S
C2727 H2730 0.999 . S
C2728 H2698 0.950 . S
C2728 C2727 1.524 . S
C2728 C2729 1.415 . S
C2729 H2699 0.950 . S
C2729 C2724 1.363 . S
C2729 C2728 1.415 . S
H2730 C2727 0.999 . S
H2731 C2712 0.913 . S
H2732 C2750 0.951 . S
H2733 C2752 0.951 . S
H2734 C2754 0.950 . S
H2735 C2755 0.950 . S
H2736 C2757 0.950 . S
H2737 C2760 0.950 . S
H2738 C2761 0.953 . S
H2739 C2763 0.950 . S
H2740 C2764 0.950 . S
H2741 C2765 0.951 . S
H2742 C2767 0.951 . S
H2743 C2769 0.950 1_455 S
H2744 C2770 0.950 . S
H2745 C2772 0.950 . S
H2746 C2775 0.950 . S
H2747 C2776 0.950 . S
H2748 C2778 0.950 . S
H2749 C2779 0.950 . S
C2750 H2732 0.951 . S
C2750 C2751 1.366 . S
C2750 C2752 1.388 . S
C2751 C2750 1.366 . S
C2751 C2755 1.385 . S
C2752 H2733 0.951 . S
C2752 C2750 1.388 . S
C2752 C2753 1.366 . S
C2753 C2752 1.366 . S
C2753 C2754 1.414 . S
C2753 C2756 1.499 . S
C2754 H2734 0.950 . S
C2754 C2753 1.414 . S
C2754 C2755 1.374 . S
C2755 H2735 0.950 . S
C2755 C2751 1.385 . S
C2755 C2754 1.374 . S
C2756 C2753 1.499 . S
C2756 C2757 1.373 . S
C2756 C2758 1.389 . S
C2757 H2736 0.950 . S
C2757 C2756 1.373 . S
C2757 C2773 1.377 . S
C2758 C2756 1.389 . S
C2758 C2759 1.524 . S
C2758 C2772 1.377 . S
C2759 C2758 1.524 . S
C2759 C2760 1.397 . S
C2759 C2764 1.363 . S
C2760 H2737 0.950 . S
C2760 C2759 1.397 . S
C2760 C2761 1.334 . S
C2761 H2738 0.953 . S
C2761 C2760 1.334 . S
C2761 C2762 1.287 . S
C2762 C2761 1.287 . S
C2762 C2763 1.524 . S
C2762 H2781 0.913 . S
C2763 H2739 0.950 . S
C2763 C2762 1.524 . S
C2763 C2764 1.415 . S
C2764 H2740 0.950 . S
C2764 C2759 1.363 . S
C2764 C2763 1.415 . S
C2765 H2741 0.951 . S
C2765 C2766 1.366 . S
C2765 C2767 1.388 . S
C2766 C2765 1.366 . S
C2766 C2770 1.385 . S
C2767 H2742 0.951 . S
C2767 C2765 1.388 . S
C2767 C2768 1.366 . S
C2768 C2767 1.366 . S
C2768 C2769 1.414 . S
C2768 C2771 1.499 1_655 S
C2769 H2743 0.950 1_655 S
C2769 C2768 1.414 . S
C2769 C2770 1.374 . S
C2770 H2744 0.950 . S
C2770 C2766 1.385 . S
C2770 C2769 1.374 . S
C2771 C2768 1.499 1_455 S
C2771 C2772 1.373 . S
C2771 C2773 1.389 . S
C2772 H2745 0.950 . S
C2772 C2758 1.377 . S
C2772 C2771 1.373 . S
C2773 C2757 1.377 . S
C2773 C2771 1.389 . S
C2773 C2774 1.524 . S
C2774 C2773 1.524 . S
C2774 C2775 1.397 . S
C2774 C2779 1.363 . S
C2775 H2746 0.950 . S
C2775 C2774 1.397 . S
C2775 C2776 1.334 . S
C2776 H2747 0.950 . S
C2776 C2775 1.334 . S
C2776 C2777 1.287 . S
C2777 C2776 1.287 . S
C2777 C2778 1.524 . S
C2777 H2780 0.999 . S
C2778 H2748 0.950 . S
C2778 C2777 1.524 . S
C2778 C2779 1.415 . S
C2779 H2749 0.950 . S
C2779 C2774 1.363 . S
C2779 C2778 1.415 . S
H2780 C2777 0.999 . S
H2781 C2762 0.913 . S
H2782 C2800 0.951 . S
H2783 C2802 0.951 . S
H2784 C2804 0.950 . S
H2785 C2805 0.950 . S
H2786 C2807 0.950 . S
H2787 C2810 0.950 . S
H2788 C2811 0.950 . S
H2789 C2813 0.950 . S
H2790 C2814 0.950 . S
H2791 C2815 0.951 . S
H2792 C2817 0.951 . S
H2793 C2819 0.950 1_545 S
H2794 C2820 0.950 . S
H2795 C2822 0.950 . S
H2796 C2825 0.950 . S
H2797 C2826 0.950 . S
H2798 C2828 0.950 . S
H2799 C2829 0.937 1_455 S
C2800 H2782 0.951 . S
C2800 C2801 1.366 . S
C2800 C2802 1.388 1_455 S
C2801 C2800 1.366 . S
C2801 C2805 1.385 . S
C2802 H2783 0.951 . S
C2802 C2800 1.388 1_655 S
C2802 C2803 1.366 1_655 S
C2803 C2802 1.366 1_455 S
C2803 C2804 1.414 . S
C2803 C2806 1.499 1_455 S
C2804 H2784 0.950 . S
C2804 C2803 1.414 . S
C2804 C2805 1.374 . S
C2805 H2785 0.950 . S
C2805 C2801 1.385 . S
C2805 C2804 1.374 . S
C2806 C2803 1.499 1_655 S
C2806 C2807 1.373 . S
C2806 C2808 1.389 . S
C2807 H2786 0.950 . S
C2807 C2806 1.373 . S
C2807 C2823 1.377 . S
C2808 C2806 1.389 . S
C2808 C2809 1.524 . S
C2808 C2822 1.377 . S
C2809 C2808 1.524 . S
C2809 C2810 1.397 1_655 S
C2809 C2814 1.363 . S
C2810 H2787 0.950 . S
C2810 C2809 1.397 1_455 S
C2810 C2811 1.334 . S
C2811 H2788 0.950 . S
C2811 C2810 1.334 . S
C2811 C2812 1.287 . S
C2812 C2811 1.287 . S
C2812 C2813 1.524 1_455 S
C2812 H2831 0.913 . S
C2813 H2789 0.950 . S
C2813 C2812 1.524 1_655 S
C2813 C2814 1.415 . S
C2814 H2790 0.950 . S
C2814 C2809 1.363 . S
C2814 C2813 1.415 . S
C2815 H2791 0.951 . S
C2815 C2816 1.366 . S
C2815 C2817 1.388 . S
C2816 C2815 1.366 . S
C2816 C2820 1.385 . S
C2817 H2792 0.951 . S
C2817 C2815 1.388 . S
C2817 C2818 1.366 . S
C2818 C2817 1.366 . S
C2818 C2819 1.414 . S
C2818 C2821 1.499 1_565 S
C2819 H2793 0.950 1_565 S
C2819 C2818 1.414 . S
C2819 C2820 1.374 . S
C2820 H2794 0.950 . S
C2820 C2816 1.385 . S
C2820 C2819 1.374 . S
C2821 C2818 1.499 1_545 S
C2821 C2822 1.373 . S
C2821 C2823 1.389 . S
C2822 H2795 0.950 . S
C2822 C2808 1.377 . S
C2822 C2821 1.373 . S
C2823 C2807 1.377 . S
C2823 C2821 1.389 . S
C2823 C2824 1.524 . S
C2824 C2823 1.524 . S
C2824 C2825 1.397 . S
C2824 C2829 1.363 . S
C2825 H2796 0.950 . S
C2825 C2824 1.397 . S
C2825 C2826 1.334 . S
C2826 H2797 0.950 . S
C2826 C2825 1.334 . S
C2826 C2827 1.287 . S
C2827 C2826 1.287 . S
C2827 C2828 1.524 . S
C2827 H2830 0.999 . S
C2828 H2798 0.950 . S
C2828 C2827 1.524 . S
C2828 C2829 1.415 . S
C2829 H2799 0.937 1_655 S
C2829 C2824 1.363 . S
C2829 C2828 1.415 . S
H2830 C2827 0.999 . S
H2831 C2812 0.913 . S
H2832 C2850 0.951 . S
H2833 C2852 0.951 . S
H2834 C2854 0.950 . S
H2835 C2855 0.950 . S
H2836 C2857 0.950 . S
H2837 C2860 0.950 . S
H2838 C2861 0.950 . S
H2839 C2863 0.950 . S
H2840 C2864 0.950 . S
H2841 C2865 0.951 . S
H2842 C2867 0.951 . S
H2843 C2869 0.950 . S
H2844 C2870 0.950 . S
H2845 C2872 0.950 . S
H2846 C2875 0.950 . S
H2847 C2876 0.950 . S
H2848 C2878 0.950 . S
H2849 C2879 0.950 . S
C2850 H2832 0.951 . S
C2850 C2851 1.366 . S
C2850 C2852 1.388 . S
C2851 C2850 1.366 . S
C2851 C2855 1.385 . S
C2852 H2833 0.951 . S
C2852 C2850 1.388 . S
C2852 C2853 1.366 . S
C2853 C2852 1.366 . S
C2853 C2854 1.414 . S
C2853 C2856 1.499 . S
C2854 H2834 0.950 . S
C2854 C2853 1.414 . S
C2854 C2855 1.374 . S
C2855 H2835 0.950 . S
C2855 C2851 1.385 . S
C2855 C2854 1.374 . S
C2856 C2853 1.499 . S
C2856 C2857 1.373 . S
C2856 C2858 1.389 . S
C2857 H2836 0.950 . S
C2857 C2856 1.373 . S
C2857 C2873 1.377 . S
C2858 C2856 1.389 . S
C2858 C2859 1.524 . S
C2858 C2872 1.377 . S
C2859 C2858 1.524 . S
C2859 C2860 1.397 . S
C2859 C2864 1.363 . S
C2860 H2837 0.950 . S
C2860 C2859 1.397 . S
C2860 C2861 1.334 . S
C2861 H2838 0.950 . S
C2861 C2860 1.334 . S
C2861 C2862 1.287 . S
C2862 C2861 1.287 . S
C2862 C2863 1.524 . S
C2862 H2881 0.913 . S
C2863 H2839 0.950 . S
C2863 C2862 1.524 . S
C2863 C2864 1.415 . S
C2864 H2840 0.950 . S
C2864 C2859 1.363 . S
C2864 C2863 1.415 . S
C2865 H2841 0.951 . S
C2865 C2866 1.366 . S
C2865 C2867 1.388 . S
C2866 C2865 1.366 . S
C2866 C2870 1.385 . S
C2867 H2842 0.951 . S
C2867 C2865 1.388 . S
C2867 C2868 1.366 . S
C2868 C2867 1.366 . S
C2868 C2869 1.414 . S
C2868 C2871 1.499 . S
C2869 H2843 0.950 . S
C2869 C2868 1.414 . S
C2869 C2870 1.374 . S
C2870 H2844 0.950 . S
C2870 C2866 1.385 . S
C2870 C2869 1.374 . S
C2871 C2868 1.499 . S
C2871 C2872 1.373 . S
C2871 C2873 1.389 . S
C2872 H2845 0.950 . S
C2872 C2858 1.377 . S
C2872 C2871 1.373 . S
C2873 C2857 1.377 . S
C2873 C2871 1.389 . S
C2873 C2874 1.524 . S
C2874 C2873 1.524 . S
C2874 C2875 1.397 . S
C2874 C2879 1.363 . S
C2875 H2846 0.950 . S
C2875 C2874 1.397 . S
C2875 C2876 1.334 . S
C2876 H2847 0.950 . S
C2876 C2875 1.334 . S
C2876 C2877 1.287 . S
C2877 C2876 1.287 . S
C2877 C2878 1.524 . S
C2877 H2880 0.999 . S
C2878 H2848 0.950 . S
C2878 C2877 1.524 . S
C2878 C2879 1.415 . S
C2879 H2849 0.950 . S
C2879 C2874 1.363 . S
C2879 C2878 1.415 . S
H2880 C2877 0.999 . S
H2881 C2862 0.913 . S
H2882 C2900 0.951 . S
H2883 C2902 0.951 . S
H2884 C2904 0.950 . S
H2885 C2905 0.950 . S
H2886 C2907 0.950 . S
H2887 C2910 0.950 . S
H2888 C2911 0.950 . S
H2889 C2913 0.950 . S
H2890 C2914 0.950 . S
H2891 C2915 0.951 . S
H2892 C2917 0.951 1_655 S
H2893 C2919 0.950 . S
H2894 C2920 0.950 . S
H2895 C2922 0.950 . S
H2896 C2925 0.950 . S
H2897 C2926 0.950 . S
H2898 C2928 0.950 . S
H2899 C2929 0.950 . S
C2900 H2882 0.951 . S
C2900 C2901 1.366 . S
C2900 C2902 1.388 . S
C2901 C2900 1.366 . S
C2901 C2905 1.385 . S
C2902 H2883 0.951 . S
C2902 C2900 1.388 . S
C2902 C2903 1.366 . S
C2903 C2902 1.366 . S
C2903 C2904 1.414 . S
C2903 C2906 1.499 . S
C2904 H2884 0.950 . S
C2904 C2903 1.414 . S
C2904 C2905 1.374 . S
C2905 H2885 0.950 . S
C2905 C2901 1.385 . S
C2905 C2904 1.374 . S
C2906 C2903 1.499 . S
C2906 C2907 1.373 . S
C2906 C2908 1.389 . S
C2907 H2886 0.950 . S
C2907 C2906 1.373 . S
C2907 C2923 1.377 . S
C2908 C2906 1.389 . S
C2908 C2909 1.524 . S
C2908 C2922 1.377 . S
C2909 C2908 1.524 . S
C2909 C2910 1.397 . S
C2909 C2914 1.363 . S
C2910 H2887 0.950 . S
C2910 C2909 1.397 . S
C2910 C2911 1.334 . S
C2911 H2888 0.950 . S
C2911 C2910 1.334 . S
C2911 C2912 1.287 . S
C2912 C2911 1.287 . S
C2912 C2913 1.524 . S
C2912 H2931 0.913 . S
C2913 H2889 0.950 . S
C2913 C2912 1.524 . S
C2913 C2914 1.415 . S
C2914 H2890 0.950 . S
C2914 C2909 1.363 . S
C2914 C2913 1.415 . S
C2915 H2891 0.951 . S
C2915 C2916 1.366 . S
C2915 C2917 1.388 . S
C2916 C2915 1.366 . S
C2916 C2920 1.385 . S
C2917 H2892 0.951 1_455 S
C2917 C2915 1.388 . S
C2917 C2918 1.366 . S
C2918 C2917 1.366 . S
C2918 C2919 1.414 . S
C2918 C2921 1.499 1_455 S
C2919 H2893 0.950 . S
C2919 C2918 1.414 . S
C2919 C2920 1.374 . S
C2920 H2894 0.950 . S
C2920 C2916 1.385 . S
C2920 C2919 1.374 . S
C2921 C2918 1.499 1_655 S
C2921 C2922 1.373 . S
C2921 C2923 1.389 . S
C2922 H2895 0.950 . S
C2922 C2908 1.377 . S
C2922 C2921 1.373 . S
C2923 C2907 1.377 . S
C2923 C2921 1.389 . S
C2923 C2924 1.524 . S
C2924 C2923 1.524 . S
C2924 C2925 1.397 1_655 S
C2924 C2929 1.363 . S
C2925 H2896 0.950 . S
C2925 C2924 1.397 1_455 S
C2925 C2926 1.334 . S
C2926 H2897 0.950 . S
C2926 C2925 1.334 . S
C2926 C2927 1.287 . S
C2927 C2926 1.287 . S
C2927 C2928 1.524 1_455 S
C2927 H2930 0.999 . S
C2928 H2898 0.950 . S
C2928 C2927 1.524 1_655 S
C2928 C2929 1.415 . S
C2929 H2899 0.950 . S
C2929 C2924 1.363 . S
C2929 C2928 1.415 . S
H2930 C2927 0.999 . S
H2931 C2912 0.913 . S
H2932 C2950 0.951 . S
H2933 C2952 0.951 . S
H2934 C2954 0.950 . S
H2935 C2955 0.950 . S
H2936 C2957 0.950 . S
H2937 C2960 0.950 . S
H2938 C2961 0.950 . S
H2939 C2963 0.950 . S
H2940 C2964 0.950 . S
H2941 C2965 0.951 . S
H2942 C2967 0.951 . S
H2943 C2969 0.950 . S
H2944 C2970 0.950 . S
H2945 C2972 0.950 . S
H2946 C2975 0.950 . S
H2947 C2976 0.950 . S
H2948 C2978 0.950 . S
H2949 C2979 0.950 . S
C2950 H2932 0.951 . S
C2950 C2951 1.366 . S
C2950 C2952 1.388 . S
C2951 C2950 1.366 . S
C2951 C2955 1.385 . S
C2952 H2933 0.951 . S
C2952 C2950 1.388 . S
C2952 C2953 1.366 . S
C2953 C2952 1.366 . S
C2953 C2954 1.414 . S
C2953 C2956 1.499 . S
C2954 H2934 0.950 . S
C2954 C2953 1.414 . S
C2954 C2955 1.374 . S
C2955 H2935 0.950 . S
C2955 C2951 1.385 . S
C2955 C2954 1.374 . S
C2956 C2953 1.499 . S
C2956 C2957 1.373 . S
C2956 C2958 1.389 . S
C2957 H2936 0.950 . S
C2957 C2956 1.373 . S
C2957 C2973 1.377 . S
C2958 C2956 1.389 . S
C2958 C2959 1.524 . S
C2958 C2972 1.377 . S
C2959 C2958 1.524 . S
C2959 C2960 1.397 . S
C2959 C2964 1.363 . S
C2960 H2937 0.950 . S
C2960 C2959 1.397 . S
C2960 C2961 1.334 . S
C2961 H2938 0.950 . S
C2961 C2960 1.334 . S
C2961 C2962 1.287 . S
C2962 C2961 1.287 . S
C2962 C2963 1.524 . S
C2962 H2981 0.913 . S
C2963 H2939 0.950 . S
C2963 C2962 1.524 . S
C2963 C2964 1.415 . S
C2964 H2940 0.950 . S
C2964 C2959 1.363 . S
C2964 C2963 1.415 . S
C2965 H2941 0.951 . S
C2965 C2966 1.366 . S
C2965 C2967 1.388 . S
C2966 C2965 1.366 . S
C2966 C2970 1.385 . S
C2967 H2942 0.951 . S
C2967 C2965 1.388 . S
C2967 C2968 1.366 . S
C2968 C2967 1.366 . S
C2968 C2969 1.414 . S
C2968 C2971 1.499 . S
C2969 H2943 0.950 . S
C2969 C2968 1.414 . S
C2969 C2970 1.374 . S
C2970 H2944 0.950 . S
C2970 C2966 1.385 . S
C2970 C2969 1.374 . S
C2971 C2968 1.499 . S
C2971 C2972 1.373 . S
C2971 C2973 1.389 . S
C2972 H2945 0.950 . S
C2972 C2958 1.377 . S
C2972 C2971 1.373 . S
C2973 C2957 1.377 . S
C2973 C2971 1.389 . S
C2973 C2974 1.524 . S
C2974 C2973 1.524 . S
C2974 C2975 1.397 . S
C2974 C2979 1.363 . S
C2975 H2946 0.950 . S
C2975 C2974 1.397 . S
C2975 C2976 1.334 . S
C2976 H2947 0.950 . S
C2976 C2975 1.334 . S
C2976 C2977 1.287 . S
C2977 C2976 1.287 . S
C2977 C2978 1.524 . S
C2977 H2980 0.999 . S
C2978 H2948 0.950 . S
C2978 C2977 1.524 . S
C2978 C2979 1.415 . S
C2979 H2949 0.950 . S
C2979 C2974 1.363 . S
C2979 C2978 1.415 . S
H2980 C2977 0.999 . S
H2981 C2962 0.913 . S
H2982 C3000 0.951 . S
H2983 C3002 0.951 . S
H2984 C3004 0.950 . S
H2985 C3005 0.950 . S
H2986 C3007 0.950 . S
H2987 C3010 0.950 . S
H2988 C3011 0.950 . S
H2989 C3013 0.950 . S
H2990 C3014 0.950 . S
H2991 C3015 0.951 . S
H2992 C3017 0.951 . S
H2993 C3019 0.950 . S
H2994 C3020 0.950 . S
H2995 C3022 0.950 . S
H2996 C3025 0.950 . S
H2997 C3026 0.950 . S
H2998 C3028 0.950 . S
H2999 C3029 0.950 . S
C3000 H2982 0.951 . S
C3000 C3001 1.366 . S
C3000 C3002 1.388 . S
C3001 C3000 1.366 . S
C3001 C3005 1.385 . S
C3002 H2983 0.951 . S
C3002 C3000 1.388 . S
C3002 C3003 1.366 . S
C3003 C3002 1.366 . S
C3003 C3004 1.414 . S
C3003 C3006 1.499 1_655 S
C3004 H2984 0.950 . S
C3004 C3003 1.414 . S
C3004 C3005 1.374 . S
C3005 H2985 0.950 . S
C3005 C3001 1.385 . S
C3005 C3004 1.374 . S
C3006 C3003 1.499 1_455 S
C3006 C3007 1.373 . S
C3006 C3008 1.389 . S
C3007 H2986 0.950 . S
C3007 C3006 1.373 . S
C3007 C3023 1.377 . S
C3008 C3006 1.389 . S
C3008 C3009 1.524 . S
C3008 C3022 1.377 . S
C3009 C3008 1.524 . S
C3009 C3010 1.397 . S
C3009 C3014 1.363 . S
C3010 H2987 0.950 . S
C3010 C3009 1.397 . S
C3010 C3011 1.334 . S
C3011 H2988 0.950 . S
C3011 C3010 1.334 . S
C3011 C3012 1.287 . S
C3012 C3011 1.287 . S
C3012 C3013 1.524 . S
C3012 H3031 0.913 . S
C3013 H2989 0.950 . S
C3013 C3012 1.524 . S
C3013 C3014 1.415 . S
C3014 H2990 0.950 . S
C3014 C3009 1.363 . S
C3014 C3013 1.415 . S
C3015 H2991 0.951 . S
C3015 C3016 1.366 . S
C3015 C3017 1.388 . S
C3016 C3015 1.366 . S
C3016 C3020 1.385 . S
C3017 H2992 0.951 . S
C3017 C3015 1.388 . S
C3017 C3018 1.366 . S
C3018 C3017 1.366 . S
C3018 C3019 1.414 . S
C3018 C3021 1.499 . S
C3019 H2993 0.950 . S
C3019 C3018 1.414 . S
C3019 C3020 1.374 . S
C3020 H2994 0.950 . S
C3020 C3016 1.385 . S
C3020 C3019 1.374 . S
C3021 C3018 1.499 . S
C3021 C3022 1.373 . S
C3021 C3023 1.389 . S
C3022 H2995 0.950 . S
C3022 C3008 1.377 . S
C3022 C3021 1.373 . S
C3023 C3007 1.377 . S
C3023 C3021 1.389 . S
C3023 C3024 1.524 . S
C3024 C3023 1.524 . S
C3024 C3025 1.397 . S
C3024 C3029 1.363 . S
C3025 H2996 0.950 . S
C3025 C3024 1.397 . S
C3025 C3026 1.334 . S
C3026 H2997 0.950 . S
C3026 C3025 1.334 . S
C3026 C3027 1.287 . S
C3027 C3026 1.287 . S
C3027 C3028 1.524 . S
C3027 H3030 0.999 . S
C3028 H2998 0.950 . S
C3028 C3027 1.524 . S
C3028 C3029 1.415 . S
C3029 H2999 0.950 . S
C3029 C3024 1.363 . S
C3029 C3028 1.415 . S
H3030 C3027 0.999 . S
H3031 C3012 0.913 . S
H3032 C3050 0.951 . S
H3033 C3052 0.951 . S
H3034 C3054 0.950 . S
H3035 C3055 0.950 . S
H3036 C3057 0.950 . S
H3037 C3060 0.950 . S
H3038 C3061 0.950 . S
H3039 C3063 0.950 . S
H3040 C3064 0.950 . S
H3041 C3065 0.951 . S
H3042 C3067 0.951 . S
H3043 C3069 0.950 . S
H3044 C3070 0.950 . S
H3045 C3072 0.950 . S
H3046 C3075 0.950 . S
H3047 C3076 0.950 . S
H3048 C3078 0.950 . S
H3049 C3079 0.950 . S
C3050 H3032 0.951 . S
C3050 C3051 1.366 . S
C3050 C3052 1.388 . S
C3051 C3050 1.366 . S
C3051 C3055 1.385 . S
C3052 H3033 0.951 . S
C3052 C3050 1.388 . S
C3052 C3053 1.366 . S
C3053 C3052 1.366 . S
C3053 C3054 1.414 . S
C3053 C3056 1.499 . S
C3054 H3034 0.950 . S
C3054 C3053 1.414 . S
C3054 C3055 1.374 . S
C3055 H3035 0.950 . S
C3055 C3051 1.385 . S
C3055 C3054 1.374 . S
C3056 C3053 1.499 . S
C3056 C3057 1.373 . S
C3056 C3058 1.389 . S
C3057 H3036 0.950 . S
C3057 C3056 1.373 . S
C3057 C3073 1.377 . S
C3058 C3056 1.389 . S
C3058 C3059 1.524 . S
C3058 C3072 1.377 . S
C3059 C3058 1.524 . S
C3059 C3060 1.397 . S
C3059 C3064 1.363 . S
C3060 H3037 0.950 . S
C3060 C3059 1.397 . S
C3060 C3061 1.334 . S
C3061 H3038 0.950 . S
C3061 C3060 1.334 . S
C3061 C3062 1.287 . S
C3062 C3061 1.287 . S
C3062 C3063 1.524 . S
C3062 H3081 0.913 . S
C3063 H3039 0.950 . S
C3063 C3062 1.524 . S
C3063 C3064 1.415 . S
C3064 H3040 0.950 . S
C3064 C3059 1.363 . S
C3064 C3063 1.415 . S
C3065 H3041 0.951 . S
C3065 C3066 1.366 . S
C3065 C3067 1.388 . S
C3066 C3065 1.366 . S
C3066 C3070 1.385 . S
C3067 H3042 0.951 . S
C3067 C3065 1.388 . S
C3067 C3068 1.366 . S
C3068 C3067 1.366 . S
C3068 C3069 1.414 . S
C3068 C3071 1.499 . S
C3069 H3043 0.950 . S
C3069 C3068 1.414 . S
C3069 C3070 1.374 . S
C3070 H3044 0.950 . S
C3070 C3066 1.385 . S
C3070 C3069 1.374 . S
C3071 C3068 1.499 . S
C3071 C3072 1.373 . S
C3071 C3073 1.389 . S
C3072 H3045 0.950 . S
C3072 C3058 1.377 . S
C3072 C3071 1.373 . S
C3073 C3057 1.377 . S
C3073 C3071 1.389 . S
C3073 C3074 1.524 . S
C3074 C3073 1.524 . S
C3074 C3075 1.397 . S
C3074 C3079 1.363 . S
C3075 H3046 0.950 . S
C3075 C3074 1.397 . S
C3075 C3076 1.334 . S
C3076 H3047 0.950 . S
C3076 C3075 1.334 . S
C3076 C3077 1.287 . S
C3077 C3076 1.287 . S
C3077 C3078 1.524 . S
C3077 H3080 0.999 . S
C3078 H3048 0.950 . S
C3078 C3077 1.524 . S
C3078 C3079 1.415 . S
C3079 H3049 0.950 . S
C3079 C3074 1.363 . S
C3079 C3078 1.415 . S
H3080 C3077 0.999 . S
H3081 C3062 0.913 . S
H3082 C3100 0.951 . S
H3083 C3102 0.951 . S
H3084 C3104 0.950 . S
H3085 C3105 0.950 . S
H3086 C3107 0.950 . S
H3087 C3110 0.950 . S
H3088 C3111 0.950 . S
H3089 C3113 0.950 . S
H3090 C3114 0.950 . S
H3091 C3115 0.951 . S
H3092 C3117 0.951 . S
H3093 C3119 0.950 . S
H3094 C3120 0.950 . S
H3095 C3122 0.950 . S
H3096 C3125 0.950 . S
H3097 C3126 0.950 . S
H3098 C3128 0.950 . S
H3099 C3129 0.950 . S
C3100 H3082 0.951 . S
C3100 C3101 1.366 . S
C3100 C3102 1.388 . S
C3101 C3100 1.366 . S
C3101 C3105 1.385 . S
C3102 H3083 0.951 . S
C3102 C3100 1.388 . S
C3102 C3103 1.366 . S
C3103 C3102 1.366 . S
C3103 C3104 1.414 . S
C3103 C3106 1.499 . S
C3104 H3084 0.950 . S
C3104 C3103 1.414 . S
C3104 C3105 1.374 . S
C3105 H3085 0.950 . S
C3105 C3101 1.385 . S
C3105 C3104 1.374 . S
C3106 C3103 1.499 . S
C3106 C3107 1.373 . S
C3106 C3108 1.389 . S
C3107 H3086 0.950 . S
C3107 C3106 1.373 . S
C3107 C3123 1.377 . S
C3108 C3106 1.389 . S
C3108 C3109 1.524 . S
C3108 C3122 1.377 . S
C3109 C3108 1.524 . S
C3109 C3110 1.397 . S
C3109 C3114 1.363 . S
C3110 H3087 0.950 . S
C3110 C3109 1.397 . S
C3110 C3111 1.334 . S
C3111 H3088 0.950 . S
C3111 C3110 1.334 . S
C3111 C3112 1.287 . S
C3112 C3111 1.287 . S
C3112 C3113 1.524 . S
C3112 H3131 0.913 . S
C3113 H3089 0.950 . S
C3113 C3112 1.524 . S
C3113 C3114 1.415 . S
C3114 H3090 0.950 . S
C3114 C3109 1.363 . S
C3114 C3113 1.415 . S
C3115 H3091 0.951 . S
C3115 C3116 1.366 . S
C3115 C3117 1.388 . S
C3116 C3115 1.366 . S
C3116 C3120 1.385 . S
C3117 H3092 0.951 . S
C3117 C3115 1.388 . S
C3117 C3118 1.366 . S
C3118 C3117 1.366 . S
C3118 C3119 1.414 . S
C3118 C3121 1.499 . S
C3119 H3093 0.950 . S
C3119 C3118 1.414 . S
C3119 C3120 1.374 . S
C3120 H3094 0.950 . S
C3120 C3116 1.385 . S
C3120 C3119 1.374 . S
C3121 C3118 1.499 . S
C3121 C3122 1.373 . S
C3121 C3123 1.389 . S
C3122 H3095 0.950 . S
C3122 C3108 1.377 . S
C3122 C3121 1.373 . S
C3123 C3107 1.377 . S
C3123 C3121 1.389 . S
C3123 C3124 1.524 . S
C3124 C3123 1.524 . S
C3124 C3125 1.397 . S
C3124 C3129 1.363 . S
C3125 H3096 0.950 . S
C3125 C3124 1.397 . S
C3125 C3126 1.334 . S
C3126 H3097 0.950 . S
C3126 C3125 1.334 . S
C3126 C3127 1.287 . S
C3127 C3126 1.287 . S
C3127 C3128 1.524 . S
C3127 H3130 0.999 . S
C3128 H3098 0.950 . S
C3128 C3127 1.524 . S
C3128 C3129 1.415 . S
C3129 H3099 0.950 . S
C3129 C3124 1.363 . S
C3129 C3128 1.415 . S
H3130 C3127 0.999 . S
H3131 C3112 0.913 . S
H3132 C3150 0.951 . S
H3133 C3152 0.951 . S
H3134 C3154 0.950 . S
H3135 C3155 0.950 . S
H3136 C3157 0.950 . S
H3137 C3160 0.950 . S
H3138 C3161 0.950 . S
H3139 C3163 0.950 . S
H3140 C3164 0.950 . S
H3141 C3165 0.951 . S
H3142 C3167 0.951 . S
H3143 C3169 0.950 . S
H3144 C3170 0.950 . S
H3145 C3172 0.950 . S
H3146 C3175 0.950 . S
H3147 C3176 0.950 . S
H3148 C3178 0.950 . S
H3149 C3179 0.950 . S
C3150 H3132 0.951 . S
C3150 C3151 1.366 . S
C3150 C3152 1.388 . S
C3151 C3150 1.366 . S
C3151 C3155 1.385 . S
C3152 H3133 0.951 . S
C3152 C3150 1.388 . S
C3152 C3153 1.366 . S
C3153 C3152 1.366 . S
C3153 C3154 1.414 . S
C3153 C3156 1.499 . S
C3154 H3134 0.950 . S
C3154 C3153 1.414 . S
C3154 C3155 1.374 . S
C3155 H3135 0.950 . S
C3155 C3151 1.385 . S
C3155 C3154 1.374 . S
C3156 C3153 1.499 . S
C3156 C3157 1.373 . S
C3156 C3158 1.389 . S
C3157 H3136 0.950 . S
C3157 C3156 1.373 . S
C3157 C3173 1.377 . S
C3158 C3156 1.389 . S
C3158 C3159 1.524 . S
C3158 C3172 1.377 . S
C3159 C3158 1.524 . S
C3159 C3160 1.397 . S
C3159 C3164 1.363 . S
C3160 H3137 0.950 . S
C3160 C3159 1.397 . S
C3160 C3161 1.334 . S
C3161 H3138 0.950 . S
C3161 C3160 1.334 . S
C3161 C3162 1.287 . S
C3162 C3161 1.287 . S
C3162 C3163 1.524 . S
C3162 H3181 0.913 . S
C3163 H3139 0.950 . S
C3163 C3162 1.524 . S
C3163 C3164 1.415 . S
C3164 H3140 0.950 . S
C3164 C3159 1.363 . S
C3164 C3163 1.415 . S
C3165 H3141 0.951 . S
C3165 C3166 1.366 . S
C3165 C3167 1.388 . S
C3166 C3165 1.366 . S
C3166 C3170 1.385 . S
C3167 H3142 0.951 . S
C3167 C3165 1.388 . S
C3167 C3168 1.366 . S
C3168 C3167 1.366 . S
C3168 C3169 1.414 . S
C3168 C3171 1.499 . S
C3169 H3143 0.950 . S
C3169 C3168 1.414 . S
C3169 C3170 1.374 . S
C3170 H3144 0.950 . S
C3170 C3166 1.385 . S
C3170 C3169 1.374 . S
C3171 C3168 1.499 . S
C3171 C3172 1.373 . S
C3171 C3173 1.389 . S
C3172 H3145 0.950 . S
C3172 C3158 1.377 . S
C3172 C3171 1.373 . S
C3173 C3157 1.377 . S
C3173 C3171 1.389 . S
C3173 C3174 1.524 . S
C3174 C3173 1.524 . S
C3174 C3175 1.397 . S
C3174 C3179 1.363 . S
C3175 H3146 0.950 . S
C3175 C3174 1.397 . S
C3175 C3176 1.334 . S
C3176 H3147 0.950 . S
C3176 C3175 1.334 . S
C3176 C3177 1.287 . S
C3177 C3176 1.287 . S
C3177 C3178 1.524 . S
C3177 H3180 0.999 . S
C3178 H3148 0.950 . S
C3178 C3177 1.524 . S
C3178 C3179 1.415 . S
C3179 H3149 0.950 . S
C3179 C3174 1.363 . S
C3179 C3178 1.415 . S
H3180 C3177 0.999 . S
H3181 C3162 0.913 . S
H3182 C3200 0.951 . S
H3183 C3202 0.951 . S
H3184 C3204 0.950 . S
H3185 C3205 0.950 . S
H3186 C3207 0.950 . S
H3187 C3210 0.950 . S
H3188 C3211 0.950 . S
H3189 C3213 0.950 . S
H3190 C3214 0.950 . S
H3191 C3215 0.951 . S
H3192 C3217 0.951 . S
H3193 C3219 0.950 . S
H3194 C3220 0.950 . S
H3195 C3222 0.950 . S
H3196 C3225 0.950 . S
H3197 C3226 0.950 . S
H3198 C3228 0.950 . S
H3199 C3229 0.950 . S
C3200 H3182 0.951 . S
C3200 C3201 1.366 . S
C3200 C3202 1.388 . S
C3201 C3200 1.366 . S
C3201 C3205 1.385 . S
C3202 H3183 0.951 . S
C3202 C3200 1.388 . S
C3202 C3203 1.366 . S
C3203 C3202 1.366 . S
C3203 C3204 1.414 . S
C3203 C3206 1.499 . S
C3204 H3184 0.950 . S
C3204 C3203 1.414 . S
C3204 C3205 1.374 . S
C3205 H3185 0.950 . S
C3205 C3201 1.385 . S
C3205 C3204 1.374 . S
C3206 C3203 1.499 . S
C3206 C3207 1.373 . S
C3206 C3208 1.389 . S
C3207 H3186 0.950 . S
C3207 C3206 1.373 . S
C3207 C3223 1.377 . S
C3208 C3206 1.389 . S
C3208 C3209 1.524 . S
C3208 C3222 1.377 . S
C3209 C3208 1.524 . S
C3209 C3210 1.397 . S
C3209 C3214 1.363 . S
C3210 H3187 0.950 . S
C3210 C3209 1.397 . S
C3210 C3211 1.334 . S
C3211 H3188 0.950 . S
C3211 C3210 1.334 . S
C3211 C3212 1.287 . S
C3212 C3211 1.287 . S
C3212 C3213 1.524 . S
C3212 H3231 0.913 . S
C3213 H3189 0.950 . S
C3213 C3212 1.524 . S
C3213 C3214 1.415 . S
C3214 H3190 0.950 . S
C3214 C3209 1.363 . S
C3214 C3213 1.415 . S
C3215 H3191 0.951 . S
C3215 C3216 1.366 . S
C3215 C3217 1.388 . S
C3216 C3215 1.366 . S
C3216 C3220 1.385 . S
C3217 H3192 0.951 . S
C3217 C3215 1.388 . S
C3217 C3218 1.366 . S
C3218 C3217 1.366 . S
C3218 C3219 1.414 . S
C3218 C3221 1.499 . S
C3219 H3193 0.950 . S
C3219 C3218 1.414 . S
C3219 C3220 1.374 . S
C3220 H3194 0.950 . S
C3220 C3216 1.385 . S
C3220 C3219 1.374 . S
C3221 C3218 1.499 . S
C3221 C3222 1.373 . S
C3221 C3223 1.389 . S
C3222 H3195 0.950 . S
C3222 C3208 1.377 . S
C3222 C3221 1.373 . S
C3223 C3207 1.377 . S
C3223 C3221 1.389 . S
C3223 C3224 1.524 . S
C3224 C3223 1.524 . S
C3224 C3225 1.397 . S
C3224 C3229 1.363 . S
C3225 H3196 0.950 . S
C3225 C3224 1.397 . S
C3225 C3226 1.334 . S
C3226 H3197 0.950 . S
C3226 C3225 1.334 . S
C3226 C3227 1.287 . S
C3227 C3226 1.287 . S
C3227 C3228 1.524 . S
C3227 H3230 0.999 . S
C3228 H3198 0.950 . S
C3228 C3227 1.524 . S
C3228 C3229 1.415 . S
C3229 H3199 0.950 . S
C3229 C3224 1.363 . S
C3229 C3228 1.415 . S
H3230 C3227 0.999 . S
H3231 C3212 0.913 . S
H3232 C3250 0.951 . S
H3233 C3252 0.951 . S
H3234 C3254 0.950 . S
H3235 C3255 0.950 . S
H3236 C3257 0.950 . S
H3237 C3260 0.950 . S
H3238 C3261 0.950 . S
H3239 C3263 0.950 . S
H3240 C3264 0.950 . S
H3241 C3265 0.951 . S
H3242 C3267 0.951 . S
H3243 C3269 0.950 . S
H3244 C3270 0.950 . S
H3245 C3272 0.950 . S
H3246 C3275 0.950 . S
H3247 C3276 0.950 . S
H3248 C3278 0.950 . S
H3249 C3279 0.950 . S
C3250 H3232 0.951 . S
C3250 C3251 1.366 . S
C3250 C3252 1.388 . S
C3251 C3250 1.366 . S
C3251 C3255 1.385 . S
C3252 H3233 0.951 . S
C3252 C3250 1.388 . S
C3252 C3253 1.366 . S
C3253 C3252 1.366 . S
C3253 C3254 1.414 . S
C3253 C3256 1.499 . S
C3254 H3234 0.950 . S
C3254 C3253 1.414 . S
C3254 C3255 1.374 . S
C3255 H3235 0.950 . S
C3255 C3251 1.385 . S
C3255 C3254 1.374 . S
C3256 C3253 1.499 . S
C3256 C3257 1.373 . S
C3256 C3258 1.389 . S
C3257 H3236 0.950 . S
C3257 C3256 1.373 . S
C3257 C3273 1.377 . S
C3258 C3256 1.389 . S
C3258 C3259 1.524 . S
C3258 C3272 1.377 . S
C3259 C3258 1.524 . S
C3259 C3260 1.397 . S
C3259 C3264 1.363 . S
C3260 H3237 0.950 . S
C3260 C3259 1.397 . S
C3260 C3261 1.334 . S
C3261 H3238 0.950 . S
C3261 C3260 1.334 . S
C3261 C3262 1.287 . S
C3262 C3261 1.287 . S
C3262 C3263 1.524 . S
C3262 H3281 0.913 . S
C3263 H3239 0.950 . S
C3263 C3262 1.524 . S
C3263 C3264 1.415 . S
C3264 H3240 0.950 . S
C3264 C3259 1.363 . S
C3264 C3263 1.415 . S
C3265 H3241 0.951 . S
C3265 C3266 1.366 . S
C3265 C3267 1.388 . S
C3266 C3265 1.366 . S
C3266 C3270 1.385 . S
C3267 H3242 0.951 . S
C3267 C3265 1.388 . S
C3267 C3268 1.366 . S
C3268 C3267 1.366 . S
C3268 C3269 1.414 . S
C3268 C3271 1.499 . S
C3269 H3243 0.950 . S
C3269 C3268 1.414 . S
C3269 C3270 1.374 . S
C3270 H3244 0.950 . S
C3270 C3266 1.385 . S
C3270 C3269 1.374 . S
C3271 C3268 1.499 . S
C3271 C3272 1.373 . S
C3271 C3273 1.389 . S
C3272 H3245 0.950 . S
C3272 C3258 1.377 . S
C3272 C3271 1.373 . S
C3273 C3257 1.377 . S
C3273 C3271 1.389 . S
C3273 C3274 1.524 . S
C3274 C3273 1.524 . S
C3274 C3275 1.397 . S
C3274 C3279 1.363 . S
C3275 H3246 0.950 . S
C3275 C3274 1.397 . S
C3275 C3276 1.334 . S
C3276 H3247 0.950 . S
C3276 C3275 1.334 . S
C3276 C3277 1.287 . S
C3277 C3276 1.287 . S
C3277 C3278 1.524 . S
C3277 H3280 0.999 . S
C3278 H3248 0.950 . S
C3278 C3277 1.524 . S
C3278 C3279 1.415 . S
C3279 H3249 0.950 . S
C3279 C3274 1.363 . S
C3279 C3278 1.415 . S
H3280 C3277 0.999 . S
H3281 C3262 0.913 . S
H3282 C3300 0.951 . S
H3283 C3302 0.951 . S
H3284 C3304 0.950 . S
H3285 C3305 0.950 . S
H3286 C3307 0.950 . S
H3287 C3310 0.950 . S
H3288 C3311 0.950 1_545 S
H3289 C3313 0.950 . S
H3290 C3314 0.950 . S
H3291 C3315 0.951 . S
H3292 C3317 0.951 . S
H3293 C3319 0.950 . S
H3294 C3320 0.950 . S
H3295 C3322 0.950 . S
H3296 C3325 0.950 . S
H3297 C3326 0.950 . S
H3298 C3328 0.950 . S
H3299 C3329 0.950 . S
C3300 H3282 0.951 . S
C3300 C3301 1.366 . S
C3300 C3302 1.388 . S
C3301 C3300 1.366 . S
C3301 C3305 1.385 . S
C3302 H3283 0.951 . S
C3302 C3300 1.388 . S
C3302 C3303 1.366 . S
C3303 C3302 1.366 . S
C3303 C3304 1.414 . S
C3303 C3306 1.499 . S
C3304 H3284 0.950 . S
C3304 C3303 1.414 . S
C3304 C3305 1.374 . S
C3305 H3285 0.950 . S
C3305 C3301 1.385 . S
C3305 C3304 1.374 . S
C3306 C3303 1.499 . S
C3306 C3307 1.373 . S
C3306 C3308 1.389 . S
C3307 H3286 0.950 . S
C3307 C3306 1.373 . S
C3307 C3323 1.377 . S
C3308 C3306 1.389 . S
C3308 C3309 1.524 1_545 S
C3308 C3322 1.377 1_545 S
C3309 C3308 1.524 1_565 S
C3309 C3310 1.397 1_565 S
C3309 C3314 1.363 . S
C3310 H3287 0.950 . S
C3310 C3309 1.397 1_545 S
C3310 C3311 1.334 1_545 S
C3311 H3288 0.950 1_565 S
C3311 C3310 1.334 1_565 S
C3311 C3312 1.287 . S
C3312 C3311 1.287 . S
C3312 C3313 1.524 . S
C3312 H3331 0.913 . S
C3313 H3289 0.950 . S
C3313 C3312 1.524 . S
C3313 C3314 1.415 . S
C3314 H3290 0.950 . S
C3314 C3309 1.363 . S
C3314 C3313 1.415 . S
C3315 H3291 0.951 . S
C3315 C3316 1.366 . S
C3315 C3317 1.388 1_565 S
C3316 C3315 1.366 . S
C3316 C3320 1.385 . S
C3317 H3292 0.951 . S
C3317 C3315 1.388 1_545 S
C3317 C3318 1.366 1_545 S
C3318 C3317 1.366 1_565 S
C3318 C3319 1.414 . S
C3318 C3321 1.499 1_565 S
C3319 H3293 0.950 . S
C3319 C3318 1.414 . S
C3319 C3320 1.374 . S
C3320 H3294 0.950 . S
C3320 C3316 1.385 . S
C3320 C3319 1.374 . S
C3321 C3318 1.499 1_545 S
C3321 C3322 1.373 1_545 S
C3321 C3323 1.389 . S
C3322 H3295 0.950 . S
C3322 C3308 1.377 1_565 S
C3322 C3321 1.373 1_565 S
C3323 C3307 1.377 . S
C3323 C3321 1.389 . S
C3323 C3324 1.524 . S
C3324 C3323 1.524 . S
C3324 C3325 1.397 . S
C3324 C3329 1.363 . S
C3325 H3296 0.950 . S
C3325 C3324 1.397 . S
C3325 C3326 1.334 . S
C3326 H3297 0.950 . S
C3326 C3325 1.334 . S
C3326 C3327 1.287 . S
C3327 C3326 1.287 . S
C3327 C3328 1.524 . S
C3327 H3330 0.999 . S
C3328 H3298 0.950 . S
C3328 C3327 1.524 . S
C3328 C3329 1.415 . S
C3329 H3299 0.950 . S
C3329 C3324 1.363 . S
C3329 C3328 1.415 . S
H3330 C3327 0.999 . S
H3331 C3312 0.913 . S
H3332 C3350 0.951 . S
H3333 C3352 0.951 . S
H3334 C3354 0.950 . S
H3335 C3355 0.950 . S
H3336 C3357 0.950 . S
H3337 C3360 0.950 . S
H3338 C3361 0.950 . S
H3339 C3363 0.950 . S
H3340 C3364 0.950 . S
H3341 C3365 0.951 . S
H3342 C3367 0.951 . S
H3343 C3369 0.950 . S
H3344 C3370 0.950 . S
H3345 C3372 0.950 . S
H3346 C3375 0.950 . S
H3347 C3376 0.950 . S
H3348 C3378 0.950 . S
H3349 C3379 0.950 . S
C3350 H3332 0.951 . S
C3350 C3351 1.366 . S
C3350 C3352 1.388 . S
C3351 C3350 1.366 . S
C3351 C3355 1.385 . S
C3352 H3333 0.951 . S
C3352 C3350 1.388 . S
C3352 C3353 1.366 . S
C3353 C3352 1.366 . S
C3353 C3354 1.414 . S
C3353 C3356 1.499 . S
C3354 H3334 0.950 . S
C3354 C3353 1.414 . S
C3354 C3355 1.374 . S
C3355 H3335 0.950 . S
C3355 C3351 1.385 . S
C3355 C3354 1.374 . S
C3356 C3353 1.499 . S
C3356 C3357 1.373 . S
C3356 C3358 1.389 . S
C3357 H3336 0.950 . S
C3357 C3356 1.373 . S
C3357 C3373 1.377 . S
C3358 C3356 1.389 . S
C3358 C3359 1.524 . S
C3358 C3372 1.377 . S
C3359 C3358 1.524 . S
C3359 C3360 1.397 . S
C3359 C3364 1.363 . S
C3360 H3337 0.950 . S
C3360 C3359 1.397 . S
C3360 C3361 1.334 . S
C3361 H3338 0.950 . S
C3361 C3360 1.334 . S
C3361 C3362 1.287 . S
C3362 C3361 1.287 . S
C3362 C3363 1.524 . S
C3362 H3381 0.913 . S
C3363 H3339 0.950 . S
C3363 C3362 1.524 . S
C3363 C3364 1.415 . S
C3364 H3340 0.950 . S
C3364 C3359 1.363 . S
C3364 C3363 1.415 . S
C3365 H3341 0.951 . S
C3365 C3366 1.366 . S
C3365 C3367 1.388 . S
C3366 C3365 1.366 . S
C3366 C3370 1.385 . S
C3367 H3342 0.951 . S
C3367 C3365 1.388 . S
C3367 C3368 1.366 . S
C3368 C3367 1.366 . S
C3368 C3369 1.414 . S
C3368 C3371 1.499 . S
C3369 H3343 0.950 . S
C3369 C3368 1.414 . S
C3369 C3370 1.374 . S
C3370 H3344 0.950 . S
C3370 C3366 1.385 . S
C3370 C3369 1.374 . S
C3371 C3368 1.499 . S
C3371 C3372 1.373 . S
C3371 C3373 1.389 . S
C3372 H3345 0.950 . S
C3372 C3358 1.377 . S
C3372 C3371 1.373 . S
C3373 C3357 1.377 . S
C3373 C3371 1.389 . S
C3373 C3374 1.524 . S
C3374 C3373 1.524 . S
C3374 C3375 1.397 . S
C3374 C3379 1.363 . S
C3375 H3346 0.950 . S
C3375 C3374 1.397 . S
C3375 C3376 1.334 . S
C3376 H3347 0.950 . S
C3376 C3375 1.334 . S
C3376 C3377 1.287 . S
C3377 C3376 1.287 . S
C3377 C3378 1.524 . S
C3377 H3380 0.999 . S
C3378 H3348 0.950 . S
C3378 C3377 1.524 . S
C3378 C3379 1.415 . S
C3379 H3349 0.950 . S
C3379 C3374 1.363 . S
C3379 C3378 1.415 . S
H3380 C3377 0.999 . S
H3381 C3362 0.913 . S
H3382 C3400 0.951 . S
H3383 C3402 0.951 . S
H3384 C3404 0.950 . S
H3385 C3405 0.950 . S
H3386 C3407 0.950 . S
H3387 C3410 0.950 . S
H3388 C3411 0.950 . S
H3389 C3413 0.950 . S
H3390 C3414 0.950 . S
H3391 C3415 0.951 . S
H3392 C3417 0.951 . S
H3393 C3419 0.950 . S
H3394 C3420 0.950 . S
H3395 C3422 0.950 . S
H3396 C3425 0.950 . S
H3397 C3426 0.950 . S
H3398 C3428 0.950 . S
H3399 C3429 0.950 . S
C3400 H3382 0.951 . S
C3400 C3401 1.366 . S
C3400 C3402 1.388 . S
C3401 C3400 1.366 . S
C3401 C3405 1.385 . S
C3402 H3383 0.951 . S
C3402 C3400 1.388 . S
C3402 C3403 1.366 . S
C3403 C3402 1.366 . S
C3403 C3404 1.414 . S
C3403 C3406 1.499 . S
C3404 H3384 0.950 . S
C3404 C3403 1.414 . S
C3404 C3405 1.374 . S
C3405 H3385 0.950 . S
C3405 C3401 1.385 . S
C3405 C3404 1.374 . S
C3406 C3403 1.499 . S
C3406 C3407 1.373 . S
C3406 C3408 1.389 . S
C3407 H3386 0.950 . S
C3407 C3406 1.373 . S
C3407 C3423 1.377 . S
C3408 C3406 1.389 . S
C3408 C3409 1.524 . S
C3408 C3422 1.377 . S
C3409 C3408 1.524 . S
C3409 C3410 1.397 . S
C3409 C3414 1.363 . S
C3410 H3387 0.950 . S
C3410 C3409 1.397 . S
C3410 C3411 1.334 . S
C3411 H3388 0.950 . S
C3411 C3410 1.334 . S
C3411 C3412 1.287 . S
C3412 C3411 1.287 . S
C3412 C3413 1.524 . S
C3412 H3431 0.913 . S
C3413 H3389 0.950 . S
C3413 C3412 1.524 . S
C3413 C3414 1.415 . S
C3414 H3390 0.950 . S
C3414 C3409 1.363 . S
C3414 C3413 1.415 . S
C3415 H3391 0.951 . S
C3415 C3416 1.366 . S
C3415 C3417 1.388 . S
C3416 C3415 1.366 . S
C3416 C3420 1.385 . S
C3417 H3392 0.951 . S
C3417 C3415 1.388 . S
C3417 C3418 1.366 . S
C3418 C3417 1.366 . S
C3418 C3419 1.414 . S
C3418 C3421 1.499 . S
C3419 H3393 0.950 . S
C3419 C3418 1.414 . S
C3419 C3420 1.374 . S
C3420 H3394 0.950 . S
C3420 C3416 1.385 . S
C3420 C3419 1.374 . S
C3421 C3418 1.499 . S
C3421 C3422 1.373 . S
C3421 C3423 1.389 . S
C3422 H3395 0.950 . S
C3422 C3408 1.377 . S
C3422 C3421 1.373 . S
C3423 C3407 1.377 . S
C3423 C3421 1.389 . S
C3423 C3424 1.524 . S
C3424 C3423 1.524 . S
C3424 C3425 1.397 . S
C3424 C3429 1.363 . S
C3425 H3396 0.950 . S
C3425 C3424 1.397 . S
C3425 C3426 1.334 . S
C3426 H3397 0.950 . S
C3426 C3425 1.334 . S
C3426 C3427 1.287 . S
C3427 C3426 1.287 . S
C3427 C3428 1.524 . S
C3427 H3430 0.999 . S
C3428 H3398 0.950 . S
C3428 C3427 1.524 . S
C3428 C3429 1.415 . S
C3429 H3399 0.950 . S
C3429 C3424 1.363 . S
C3429 C3428 1.415 . S
H3430 C3427 0.999 . S
H3431 C3412 0.913 . S
H3432 C3450 0.951 . S
H3433 C3452 0.951 . S
H3434 C3454 0.950 . S
H3435 C3455 0.950 . S
H3436 C3457 0.950 . S
H3437 C3460 0.950 . S
H3438 C3461 0.950 . S
H3439 C3463 0.950 . S
H3440 C3464 0.950 . S
H3441 C3465 0.951 . S
H3442 C3467 0.951 . S
H3443 C3469 0.950 . S
H3444 C3470 0.950 . S
H3445 C3472 0.950 . S
H3446 C3475 0.950 . S
H3447 C3476 0.950 . S
H3448 C3478 0.950 . S
H3449 C3479 0.950 . S
C3450 H3432 0.951 . S
C3450 C3451 1.366 . S
C3450 C3452 1.388 . S
C3451 C3450 1.366 . S
C3451 C3455 1.385 . S
C3452 H3433 0.951 . S
C3452 C3450 1.388 . S
C3452 C3453 1.366 . S
C3453 C3452 1.366 . S
C3453 C3454 1.414 . S
C3453 C3456 1.499 . S
C3454 H3434 0.950 . S
C3454 C3453 1.414 . S
C3454 C3455 1.374 . S
C3455 H3435 0.950 . S
C3455 C3451 1.385 . S
C3455 C3454 1.374 . S
C3456 C3453 1.499 . S
C3456 C3457 1.373 . S
C3456 C3458 1.389 . S
C3457 H3436 0.950 . S
C3457 C3456 1.373 . S
C3457 C3473 1.377 . S
C3458 C3456 1.389 . S
C3458 C3459 1.524 . S
C3458 C3472 1.377 . S
C3459 C3458 1.524 . S
C3459 C3460 1.397 . S
C3459 C3464 1.363 . S
C3460 H3437 0.950 . S
C3460 C3459 1.397 . S
C3460 C3461 1.334 . S
C3461 H3438 0.950 . S
C3461 C3460 1.334 . S
C3461 C3462 1.287 . S
C3462 C3461 1.287 . S
C3462 C3463 1.524 . S
C3462 H3481 0.913 . S
C3463 H3439 0.950 . S
C3463 C3462 1.524 . S
C3463 C3464 1.415 . S
C3464 H3440 0.950 . S
C3464 C3459 1.363 . S
C3464 C3463 1.415 . S
C3465 H3441 0.951 . S
C3465 C3466 1.366 . S
C3465 C3467 1.388 . S
C3466 C3465 1.366 . S
C3466 C3470 1.385 . S
C3467 H3442 0.951 . S
C3467 C3465 1.388 . S
C3467 C3468 1.366 . S
C3468 C3467 1.366 . S
C3468 C3469 1.414 . S
C3468 C3471 1.499 . S
C3469 H3443 0.950 . S
C3469 C3468 1.414 . S
C3469 C3470 1.374 . S
C3470 H3444 0.950 . S
C3470 C3466 1.385 . S
C3470 C3469 1.374 . S
C3471 C3468 1.499 . S
C3471 C3472 1.373 . S
C3471 C3473 1.389 . S
C3472 H3445 0.950 . S
C3472 C3458 1.377 . S
C3472 C3471 1.373 . S
C3473 C3457 1.377 . S
C3473 C3471 1.389 . S
C3473 C3474 1.524 . S
C3474 C3473 1.524 . S
C3474 C3475 1.397 . S
C3474 C3479 1.363 . S
C3475 H3446 0.950 . S
C3475 C3474 1.397 . S
C3475 C3476 1.334 . S
C3476 H3447 0.950 . S
C3476 C3475 1.334 . S
C3476 C3477 1.287 . S
C3477 C3476 1.287 . S
C3477 C3478 1.524 . S
C3477 H3480 0.999 . S
C3478 H3448 0.950 . S
C3478 C3477 1.524 . S
C3478 C3479 1.415 . S
C3479 H3449 0.950 . S
C3479 C3474 1.363 . S
C3479 C3478 1.415 . S
H3480 C3477 0.999 . S
H3481 C3462 0.913 . S
H3482 C3500 0.951 . S
H3483 C3502 0.951 . S
H3484 C3504 0.950 . S
H3485 C3505 0.950 . S
H3486 C3507 0.950 . S
H3487 C3510 0.950 . S
H3488 C3511 0.950 . S
H3489 C3513 0.950 . S
H3490 C3514 0.950 . S
H3491 C3515 0.951 . S
H3492 C3517 0.951 . S
H3493 C3519 0.950 . S
H3494 C3520 0.950 . S
H3495 C3522 0.950 . S
H3496 C3525 0.950 . S
H3497 C3526 0.950 . S
H3498 C3528 0.950 . S
H3499 C3529 0.950 . S
C3500 H3482 0.951 . S
C3500 C3501 1.366 . S
C3500 C3502 1.388 . S
C3501 C3500 1.366 . S
C3501 C3505 1.385 . S
C3502 H3483 0.951 . S
C3502 C3500 1.388 . S
C3502 C3503 1.366 . S
C3503 C3502 1.366 . S
C3503 C3504 1.414 . S
C3503 C3506 1.499 . S
C3504 H3484 0.950 . S
C3504 C3503 1.414 . S
C3504 C3505 1.374 . S
C3505 H3485 0.950 . S
C3505 C3501 1.385 . S
C3505 C3504 1.374 . S
C3506 C3503 1.499 . S
C3506 C3507 1.373 . S
C3506 C3508 1.389 . S
C3507 H3486 0.950 . S
C3507 C3506 1.373 . S
C3507 C3523 1.377 1_545 S
C3508 C3506 1.389 . S
C3508 C3509 1.524 . S
C3508 C3522 1.377 . S
C3509 C3508 1.524 . S
C3509 C3510 1.397 . S
C3509 C3514 1.363 . S
C3510 H3487 0.950 . S
C3510 C3509 1.397 . S
C3510 C3511 1.334 . S
C3511 H3488 0.950 . S
C3511 C3510 1.334 . S
C3511 C3512 1.287 . S
C3512 C3511 1.287 . S
C3512 C3513 1.524 . S
C3512 H3531 0.913 . S
C3513 H3489 0.950 . S
C3513 C3512 1.524 . S
C3513 C3514 1.415 . S
C3514 H3490 0.950 . S
C3514 C3509 1.363 . S
C3514 C3513 1.415 . S
C3515 H3491 0.951 . S
C3515 C3516 1.366 . S
C3515 C3517 1.388 . S
C3516 C3515 1.366 . S
C3516 C3520 1.385 . S
C3517 H3492 0.951 . S
C3517 C3515 1.388 . S
C3517 C3518 1.366 . S
C3518 C3517 1.366 . S
C3518 C3519 1.414 1_565 S
C3518 C3521 1.499 1_565 S
C3519 H3493 0.950 . S
C3519 C3518 1.414 1_545 S
C3519 C3520 1.374 1_545 S
C3520 H3494 0.950 . S
C3520 C3516 1.385 . S
C3520 C3519 1.374 1_565 S
C3521 C3518 1.499 1_545 S
C3521 C3522 1.373 . S
C3521 C3523 1.389 1_545 S
C3522 H3495 0.950 . S
C3522 C3508 1.377 . S
C3522 C3521 1.373 . S
C3523 C3507 1.377 1_565 S
C3523 C3521 1.389 1_565 S
C3523 C3524 1.524 . S
C3524 C3523 1.524 . S
C3524 C3525 1.397 . S
C3524 C3529 1.363 . S
C3525 H3496 0.950 . S
C3525 C3524 1.397 . S
C3525 C3526 1.334 . S
C3526 H3497 0.950 . S
C3526 C3525 1.334 . S
C3526 C3527 1.287 . S
C3527 C3526 1.287 . S
C3527 C3528 1.524 . S
C3527 H3530 0.999 . S
C3528 H3498 0.950 . S
C3528 C3527 1.524 . S
C3528 C3529 1.415 . S
C3529 H3499 0.950 . S
C3529 C3524 1.363 . S
C3529 C3528 1.415 . S
H3530 C3527 0.999 . S
H3531 C3512 0.913 . S
H3532 C3550 0.951 . S
H3533 C3552 0.951 . S
H3534 C3554 0.950 . S
H3535 C3555 0.950 . S
H3536 C3557 0.950 . S
H3537 C3560 0.950 . S
H3538 C3561 0.950 . S
H3539 C3563 0.950 . S
H3540 C3564 0.950 . S
H3541 C3565 0.951 . S
H3542 C3567 0.951 . S
H3543 C3569 0.950 . S
H3544 C3570 0.950 . S
H3545 C3572 0.950 . S
H3546 C3575 0.950 . S
H3547 C3576 0.950 . S
H3548 C3578 0.950 . S
H3549 C3579 0.950 . S
C3550 H3532 0.951 . S
C3550 C3551 1.366 . S
C3550 C3552 1.388 . S
C3551 C3550 1.366 . S
C3551 C3555 1.385 . S
C3552 H3533 0.951 . S
C3552 C3550 1.388 . S
C3552 C3553 1.366 . S
C3553 C3552 1.366 . S
C3553 C3554 1.414 . S
C3553 C3556 1.499 . S
C3554 H3534 0.950 . S
C3554 C3553 1.414 . S
C3554 C3555 1.374 . S
C3555 H3535 0.950 . S
C3555 C3551 1.385 . S
C3555 C3554 1.374 . S
C3556 C3553 1.499 . S
C3556 C3557 1.373 . S
C3556 C3558 1.389 . S
C3557 H3536 0.950 . S
C3557 C3556 1.373 . S
C3557 C3573 1.377 . S
C3558 C3556 1.389 . S
C3558 C3559 1.524 . S
C3558 C3572 1.377 . S
C3559 C3558 1.524 . S
C3559 C3560 1.397 . S
C3559 C3564 1.363 . S
C3560 H3537 0.950 . S
C3560 C3559 1.397 . S
C3560 C3561 1.334 . S
C3561 H3538 0.950 . S
C3561 C3560 1.334 . S
C3561 C3562 1.287 . S
C3562 C3561 1.287 . S
C3562 C3563 1.524 . S
C3562 H3581 0.913 . S
C3563 H3539 0.950 . S
C3563 C3562 1.524 . S
C3563 C3564 1.415 . S
C3564 H3540 0.950 . S
C3564 C3559 1.363 . S
C3564 C3563 1.415 . S
C3565 H3541 0.951 . S
C3565 C3566 1.366 . S
C3565 C3567 1.388 . S
C3566 C3565 1.366 . S
C3566 C3570 1.385 . S
C3567 H3542 0.951 . S
C3567 C3565 1.388 . S
C3567 C3568 1.366 . S
C3568 C3567 1.366 . S
C3568 C3569 1.414 . S
C3568 C3571 1.499 . S
C3569 H3543 0.950 . S
C3569 C3568 1.414 . S
C3569 C3570 1.374 . S
C3570 H3544 0.950 . S
C3570 C3566 1.385 . S
C3570 C3569 1.374 . S
C3571 C3568 1.499 . S
C3571 C3572 1.373 . S
C3571 C3573 1.389 . S
C3572 H3545 0.950 . S
C3572 C3558 1.377 . S
C3572 C3571 1.373 . S
C3573 C3557 1.377 . S
C3573 C3571 1.389 . S
C3573 C3574 1.524 . S
C3574 C3573 1.524 . S
C3574 C3575 1.397 . S
C3574 C3579 1.363 . S
C3575 H3546 0.950 . S
C3575 C3574 1.397 . S
C3575 C3576 1.334 . S
C3576 H3547 0.950 . S
C3576 C3575 1.334 . S
C3576 C3577 1.287 . S
C3577 C3576 1.287 . S
C3577 C3578 1.524 . S
C3577 H3580 0.999 . S
C3578 H3548 0.950 . S
C3578 C3577 1.524 . S
C3578 C3579 1.415 . S
C3579 H3549 0.950 . S
C3579 C3574 1.363 . S
C3579 C3578 1.415 . S
H3580 C3577 0.999 . S
H3581 C3562 0.913 . S
H3582 C3600 0.951 . S
H3583 C3602 0.951 . S
H3584 C3604 0.950 . S
H3585 C3605 0.950 . S
H3586 C3607 0.950 . S
H3587 C3610 0.950 . S
H3588 C3611 0.950 . S
H3589 C3613 0.950 . S
H3590 C3614 0.950 . S
H3591 C3615 0.951 . S
H3592 C3617 0.951 . S
H3593 C3619 0.950 . S
H3594 C3620 0.950 . S
H3595 C3622 0.950 . S
H3596 C3625 0.950 . S
H3597 C3626 0.950 . S
H3598 C3628 0.950 . S
H3599 C3629 0.950 . S
C3600 H3582 0.951 . S
C3600 C3601 1.366 . S
C3600 C3602 1.388 . S
C3601 C3600 1.366 . S
C3601 C3605 1.385 . S
C3602 H3583 0.951 . S
C3602 C3600 1.388 . S
C3602 C3603 1.366 . S
C3603 C3602 1.366 . S
C3603 C3604 1.414 . S
C3603 C3606 1.499 . S
C3604 H3584 0.950 . S
C3604 C3603 1.414 . S
C3604 C3605 1.374 . S
C3605 H3585 0.950 . S
C3605 C3601 1.385 . S
C3605 C3604 1.374 . S
C3606 C3603 1.499 . S
C3606 C3607 1.373 . S
C3606 C3608 1.389 . S
C3607 H3586 0.950 . S
C3607 C3606 1.373 . S
C3607 C3623 1.377 . S
C3608 C3606 1.389 . S
C3608 C3609 1.524 . S
C3608 C3622 1.377 . S
C3609 C3608 1.524 . S
C3609 C3610 1.397 . S
C3609 C3614 1.363 . S
C3610 H3587 0.950 . S
C3610 C3609 1.397 . S
C3610 C3611 1.334 . S
C3611 H3588 0.950 . S
C3611 C3610 1.334 . S
C3611 C3612 1.287 . S
C3612 C3611 1.287 . S
C3612 C3613 1.524 . S
C3612 H3631 0.913 . S
C3613 H3589 0.950 . S
C3613 C3612 1.524 . S
C3613 C3614 1.415 . S
C3614 H3590 0.950 . S
C3614 C3609 1.363 . S
C3614 C3613 1.415 . S
C3615 H3591 0.951 . S
C3615 C3616 1.366 . S
C3615 C3617 1.388 . S
C3616 C3615 1.366 . S
C3616 C3620 1.385 . S
C3617 H3592 0.951 . S
C3617 C3615 1.388 . S
C3617 C3618 1.366 . S
C3618 C3617 1.366 . S
C3618 C3619 1.414 . S
C3618 C3621 1.499 . S
C3619 H3593 0.950 . S
C3619 C3618 1.414 . S
C3619 C3620 1.374 . S
C3620 H3594 0.950 . S
C3620 C3616 1.385 . S
C3620 C3619 1.374 . S
C3621 C3618 1.499 . S
C3621 C3622 1.373 . S
C3621 C3623 1.389 . S
C3622 H3595 0.950 . S
C3622 C3608 1.377 . S
C3622 C3621 1.373 . S
C3623 C3607 1.377 . S
C3623 C3621 1.389 . S
C3623 C3624 1.524 . S
C3624 C3623 1.524 . S
C3624 C3625 1.397 . S
C3624 C3629 1.363 . S
C3625 H3596 0.950 . S
C3625 C3624 1.397 . S
C3625 C3626 1.334 . S
C3626 H3597 0.950 . S
C3626 C3625 1.334 . S
C3626 C3627 1.287 . S
C3627 C3626 1.287 . S
C3627 C3628 1.524 . S
C3627 H3630 0.999 . S
C3628 H3598 0.950 . S
C3628 C3627 1.524 . S
C3628 C3629 1.415 . S
C3629 H3599 0.950 . S
C3629 C3624 1.363 . S
C3629 C3628 1.415 . S
H3630 C3627 0.999 . S
H3631 C3612 0.913 . S
H3632 C3650 0.951 . S
H3633 C3652 0.951 . S
H3634 C3654 0.950 . S
H3635 C3655 0.950 . S
H3636 C3657 0.950 . S
H3637 C3660 0.950 . S
H3638 C3661 0.950 . S
H3639 C3663 0.950 . S
H3640 C3664 0.950 . S
H3641 C3665 0.951 . S
H3642 C3667 0.951 . S
H3643 C3669 0.950 . S
H3644 C3670 0.950 . S
H3645 C3672 0.950 . S
H3646 C3675 0.950 . S
H3647 C3676 0.950 . S
H3648 C3678 0.950 . S
H3649 C3679 0.950 . S
C3650 H3632 0.951 . S
C3650 C3651 1.366 . S
C3650 C3652 1.388 . S
C3651 C3650 1.366 . S
C3651 C3655 1.385 . S
C3652 H3633 0.951 . S
C3652 C3650 1.388 . S
C3652 C3653 1.366 . S
C3653 C3652 1.366 . S
C3653 C3654 1.414 . S
C3653 C3656 1.499 . S
C3654 H3634 0.950 . S
C3654 C3653 1.414 . S
C3654 C3655 1.374 . S
C3655 H3635 0.950 . S
C3655 C3651 1.385 . S
C3655 C3654 1.374 . S
C3656 C3653 1.499 . S
C3656 C3657 1.373 . S
C3656 C3658 1.389 . S
C3657 H3636 0.950 . S
C3657 C3656 1.373 . S
C3657 C3673 1.377 . S
C3658 C3656 1.389 . S
C3658 C3659 1.524 . S
C3658 C3672 1.377 . S
C3659 C3658 1.524 . S
C3659 C3660 1.397 . S
C3659 C3664 1.363 . S
C3660 H3637 0.950 . S
C3660 C3659 1.397 . S
C3660 C3661 1.334 . S
C3661 H3638 0.950 . S
C3661 C3660 1.334 . S
C3661 C3662 1.287 . S
C3662 C3661 1.287 . S
C3662 C3663 1.524 . S
C3662 H3681 0.913 . S
C3663 H3639 0.950 . S
C3663 C3662 1.524 . S
C3663 C3664 1.415 . S
C3664 H3640 0.950 . S
C3664 C3659 1.363 . S
C3664 C3663 1.415 . S
C3665 H3641 0.951 . S
C3665 C3666 1.366 . S
C3665 C3667 1.388 . S
C3666 C3665 1.366 . S
C3666 C3670 1.385 . S
C3667 H3642 0.951 . S
C3667 C3665 1.388 . S
C3667 C3668 1.366 . S
C3668 C3667 1.366 . S
C3668 C3669 1.414 . S
C3668 C3671 1.499 . S
C3669 H3643 0.950 . S
C3669 C3668 1.414 . S
C3669 C3670 1.374 . S
C3670 H3644 0.950 . S
C3670 C3666 1.385 . S
C3670 C3669 1.374 . S
C3671 C3668 1.499 . S
C3671 C3672 1.373 . S
C3671 C3673 1.389 . S
C3672 H3645 0.950 . S
C3672 C3658 1.377 . S
C3672 C3671 1.373 . S
C3673 C3657 1.377 . S
C3673 C3671 1.389 . S
C3673 C3674 1.524 . S
C3674 C3673 1.524 . S
C3674 C3675 1.397 . S
C3674 C3679 1.363 . S
C3675 H3646 0.950 . S
C3675 C3674 1.397 . S
C3675 C3676 1.334 . S
C3676 H3647 0.950 . S
C3676 C3675 1.334 . S
C3676 C3677 1.287 . S
C3677 C3676 1.287 . S
C3677 C3678 1.524 . S
C3677 H3680 0.999 . S
C3678 H3648 0.950 . S
C3678 C3677 1.524 . S
C3678 C3679 1.415 . S
C3679 H3649 0.950 . S
C3679 C3674 1.363 . S
C3679 C3678 1.415 . S
H3680 C3677 0.999 . S
H3681 C3662 0.913 . S
H3682 C3700 0.951 . S
H3683 C3702 0.951 . S
H3684 C3704 0.950 . S
H3685 C3705 0.950 . S
H3686 C3707 0.950 . S
H3687 C3710 0.950 . S
H3688 C3711 0.950 . S
H3689 C3713 0.950 . S
H3690 C3714 0.950 . S
H3691 C3715 0.951 . S
H3692 C3717 0.951 . S
H3693 C3719 0.950 . S
H3694 C3720 0.950 . S
H3695 C3722 0.950 . S
H3696 C3725 0.950 . S
H3697 C3726 0.950 . S
H3698 C3728 0.950 . S
H3699 C3729 0.950 . S
C3700 H3682 0.951 . S
C3700 C3701 1.366 . S
C3700 C3702 1.388 . S
C3701 C3700 1.366 . S
C3701 C3705 1.385 . S
C3702 H3683 0.951 . S
C3702 C3700 1.388 . S
C3702 C3703 1.366 . S
C3703 C3702 1.366 . S
C3703 C3704 1.414 . S
C3703 C3706 1.499 . S
C3704 H3684 0.950 . S
C3704 C3703 1.414 . S
C3704 C3705 1.374 . S
C3705 H3685 0.950 . S
C3705 C3701 1.385 . S
C3705 C3704 1.374 . S
C3706 C3703 1.499 . S
C3706 C3707 1.373 . S
C3706 C3708 1.389 . S
C3707 H3686 0.950 . S
C3707 C3706 1.373 . S
C3707 C3723 1.377 . S
C3708 C3706 1.389 . S
C3708 C3709 1.524 . S
C3708 C3722 1.377 . S
C3709 C3708 1.524 . S
C3709 C3710 1.397 . S
C3709 C3714 1.363 . S
C3710 H3687 0.950 . S
C3710 C3709 1.397 . S
C3710 C3711 1.334 . S
C3711 H3688 0.950 . S
C3711 C3710 1.334 . S
C3711 C3712 1.287 . S
C3712 C3711 1.287 . S
C3712 C3713 1.524 . S
C3712 H3731 0.913 . S
C3713 H3689 0.950 . S
C3713 C3712 1.524 . S
C3713 C3714 1.415 . S
C3714 H3690 0.950 . S
C3714 C3709 1.363 . S
C3714 C3713 1.415 . S
C3715 H3691 0.951 . S
C3715 C3716 1.366 . S
C3715 C3717 1.388 . S
C3716 C3715 1.366 . S
C3716 C3720 1.385 . S
C3717 H3692 0.951 . S
C3717 C3715 1.388 . S
C3717 C3718 1.366 . S
C3718 C3717 1.366 . S
C3718 C3719 1.414 . S
C3718 C3721 1.499 . S
C3719 H3693 0.950 . S
C3719 C3718 1.414 . S
C3719 C3720 1.374 . S
C3720 H3694 0.950 . S
C3720 C3716 1.385 . S
C3720 C3719 1.374 . S
C3721 C3718 1.499 . S
C3721 C3722 1.373 . S
C3721 C3723 1.389 . S
C3722 H3695 0.950 . S
C3722 C3708 1.377 . S
C3722 C3721 1.373 . S
C3723 C3707 1.377 . S
C3723 C3721 1.389 . S
C3723 C3724 1.524 . S
C3724 C3723 1.524 . S
C3724 C3725 1.397 . S
C3724 C3729 1.363 . S
C3725 H3696 0.950 . S
C3725 C3724 1.397 . S
C3725 C3726 1.334 . S
C3726 H3697 0.950 . S
C3726 C3725 1.334 . S
C3726 C3727 1.287 . S
C3727 C3726 1.287 . S
C3727 C3728 1.524 . S
C3727 H3730 0.999 . S
C3728 H3698 0.950 . S
C3728 C3727 1.524 . S
C3728 C3729 1.415 . S
C3729 H3699 0.950 . S
C3729 C3724 1.363 . S
C3729 C3728 1.415 . S
H3730 C3727 0.999 . S
H3731 C3712 0.913 . S
H3732 C3750 0.951 . S
H3733 C3752 0.951 1_545 S
H3734 C3754 0.950 . S
H3735 C3755 0.950 . S
H3736 C3757 0.950 . S
H3737 C3760 0.950 . S
H3738 C3761 0.950 . S
H3739 C3763 0.950 . S
H3740 C3764 0.950 . S
H3741 C3765 0.951 . S
H3742 C3767 0.951 . S
H3743 C3769 0.950 . S
H3744 C3770 0.950 . S
H3745 C3772 0.950 . S
H3746 C3775 0.950 . S
H3747 C3776 0.950 . S
H3748 C3778 0.950 . S
H3749 C3779 0.950 . S
C3750 H3732 0.951 . S
C3750 C3751 1.366 . S
C3750 C3752 1.388 . S
C3751 C3750 1.366 . S
C3751 C3755 1.385 . S
C3752 H3733 0.951 1_565 S
C3752 C3750 1.388 . S
C3752 C3753 1.366 . S
C3753 C3752 1.366 . S
C3753 C3754 1.414 . S
C3753 C3756 1.499 1_565 S
C3754 H3734 0.950 . S
C3754 C3753 1.414 . S
C3754 C3755 1.374 . S
C3755 H3735 0.950 . S
C3755 C3751 1.385 . S
C3755 C3754 1.374 . S
C3756 C3753 1.499 1_545 S
C3756 C3757 1.373 . S
C3756 C3758 1.389 . S
C3757 H3736 0.950 . S
C3757 C3756 1.373 . S
C3757 C3773 1.377 . S
C3758 C3756 1.389 . S
C3758 C3759 1.524 . S
C3758 C3772 1.377 . S
C3759 C3758 1.524 . S
C3759 C3760 1.397 . S
C3759 C3764 1.363 . S
C3760 H3737 0.950 . S
C3760 C3759 1.397 . S
C3760 C3761 1.334 . S
C3761 H3738 0.950 . S
C3761 C3760 1.334 . S
C3761 C3762 1.287 . S
C3762 C3761 1.287 . S
C3762 C3763 1.524 . S
C3762 H3781 0.913 . S
C3763 H3739 0.950 . S
C3763 C3762 1.524 . S
C3763 C3764 1.415 . S
C3764 H3740 0.950 . S
C3764 C3759 1.363 . S
C3764 C3763 1.415 . S
C3765 H3741 0.951 . S
C3765 C3766 1.366 . S
C3765 C3767 1.388 . S
C3766 C3765 1.366 . S
C3766 C3770 1.385 . S
C3767 H3742 0.951 . S
C3767 C3765 1.388 . S
C3767 C3768 1.366 . S
C3768 C3767 1.366 . S
C3768 C3769 1.414 . S
C3768 C3771 1.499 . S
C3769 H3743 0.950 . S
C3769 C3768 1.414 . S
C3769 C3770 1.374 . S
C3770 H3744 0.950 . S
C3770 C3766 1.385 . S
C3770 C3769 1.374 . S
C3771 C3768 1.499 . S
C3771 C3772 1.373 . S
C3771 C3773 1.389 . S
C3772 H3745 0.950 . S
C3772 C3758 1.377 . S
C3772 C3771 1.373 . S
C3773 C3757 1.377 . S
C3773 C3771 1.389 . S
C3773 C3774 1.524 . S
C3774 C3773 1.524 . S
C3774 C3775 1.397 . S
C3774 C3779 1.363 . S
C3775 H3746 0.950 . S
C3775 C3774 1.397 . S
C3775 C3776 1.334 . S
C3776 H3747 0.950 . S
C3776 C3775 1.334 . S
C3776 C3777 1.287 . S
C3777 C3776 1.287 . S
C3777 C3778 1.524 . S
C3777 H3780 0.999 . S
C3778 H3748 0.950 . S
C3778 C3777 1.524 . S
C3778 C3779 1.415 . S
C3779 H3749 0.950 . S
C3779 C3774 1.363 . S
C3779 C3778 1.415 . S
H3780 C3777 0.999 . S
H3781 C3762 0.913 . S
H3782 C3800 0.951 . S
H3783 C3802 0.951 . S
H3784 C3804 0.950 . S
H3785 C3805 0.950 . S
H3786 C3807 0.950 . S
H3787 C3810 0.950 . S
H3788 C3811 0.950 . S
H3789 C3813 0.950 . S
H3790 C3814 0.950 . S
H3791 C3815 0.951 . S
H3792 C3817 0.951 . S
H3793 C3819 0.950 . S
H3794 C3820 0.950 . S
H3795 C3822 0.950 . S
H3796 C3825 0.950 . S
H3797 C3826 0.950 . S
H3798 C3828 0.950 . S
H3799 C3829 0.950 . S
C3800 H3782 0.951 . S
C3800 C3801 1.366 . S
C3800 C3802 1.388 . S
C3801 C3800 1.366 . S
C3801 C3805 1.385 . S
C3802 H3783 0.951 . S
C3802 C3800 1.388 . S
C3802 C3803 1.366 . S
C3803 C3802 1.366 . S
C3803 C3804 1.414 . S
C3803 C3806 1.499 . S
C3804 H3784 0.950 . S
C3804 C3803 1.414 . S
C3804 C3805 1.374 . S
C3805 H3785 0.950 . S
C3805 C3801 1.385 . S
C3805 C3804 1.374 . S
C3806 C3803 1.499 . S
C3806 C3807 1.373 . S
C3806 C3808 1.389 . S
C3807 H3786 0.950 . S
C3807 C3806 1.373 . S
C3807 C3823 1.377 . S
C3808 C3806 1.389 . S
C3808 C3809 1.524 . S
C3808 C3822 1.377 . S
C3809 C3808 1.524 . S
C3809 C3810 1.397 . S
C3809 C3814 1.363 . S
C3810 H3787 0.950 . S
C3810 C3809 1.397 . S
C3810 C3811 1.334 . S
C3811 H3788 0.950 . S
C3811 C3810 1.334 . S
C3811 C3812 1.287 . S
C3812 C3811 1.287 . S
C3812 C3813 1.524 . S
C3812 H3831 0.913 . S
C3813 H3789 0.950 . S
C3813 C3812 1.524 . S
C3813 C3814 1.415 . S
C3814 H3790 0.950 . S
C3814 C3809 1.363 . S
C3814 C3813 1.415 . S
C3815 H3791 0.951 . S
C3815 C3816 1.366 . S
C3815 C3817 1.388 . S
C3816 C3815 1.366 . S
C3816 C3820 1.385 . S
C3817 H3792 0.951 . S
C3817 C3815 1.388 . S
C3817 C3818 1.366 . S
C3818 C3817 1.366 . S
C3818 C3819 1.414 . S
C3818 C3821 1.499 . S
C3819 H3793 0.950 . S
C3819 C3818 1.414 . S
C3819 C3820 1.374 . S
C3820 H3794 0.950 . S
C3820 C3816 1.385 . S
C3820 C3819 1.374 . S
C3821 C3818 1.499 . S
C3821 C3822 1.373 . S
C3821 C3823 1.389 . S
C3822 H3795 0.950 . S
C3822 C3808 1.377 . S
C3822 C3821 1.373 . S
C3823 C3807 1.377 . S
C3823 C3821 1.389 . S
C3823 C3824 1.524 . S
C3824 C3823 1.524 . S
C3824 C3825 1.397 . S
C3824 C3829 1.363 . S
C3825 H3796 0.950 . S
C3825 C3824 1.397 . S
C3825 C3826 1.334 . S
C3826 H3797 0.950 . S
C3826 C3825 1.334 . S
C3826 C3827 1.287 . S
C3827 C3826 1.287 . S
C3827 C3828 1.524 . S
C3827 H3830 0.999 . S
C3828 H3798 0.950 . S
C3828 C3827 1.524 . S
C3828 C3829 1.415 . S
C3829 H3799 0.950 . S
C3829 C3824 1.363 . S
C3829 C3828 1.415 . S
H3830 C3827 0.999 . S
H3831 C3812 0.913 . S
H3832 C3850 0.951 . S
H3833 C3852 0.951 . S
H3834 C3854 0.950 . S
H3835 C3855 0.969 . S
H3836 C3857 0.950 . S
H3837 C3860 0.950 . S
H3838 C3861 0.947 1_655 S
H3839 C3863 0.950 . S
H3840 C3864 0.950 . S
H3841 C3865 0.951 . S
H3842 C3867 0.951 1_565 S
H3843 C3869 0.950 . S
H3844 C3870 0.950 . S
H3845 C3872 0.950 . S
H3846 C3875 0.950 1_545 S
H3847 C3876 0.950 . S
H3848 C3878 0.950 . S
H3849 C3879 0.950 . S
C3850 H3832 0.951 . S
C3850 C3851 1.366 . S
C3850 C3852 1.388 . S
C3851 C3850 1.366 . S
C3851 C3855 1.385 . S
C3852 H3833 0.951 . S
C3852 C3850 1.388 . S
C3852 C3853 1.366 . S
C3853 C3852 1.366 . S
C3853 C3854 1.414 1_455 S
C3853 C3856 1.499 1_455 S
C3854 H3834 0.950 . S
C3854 C3853 1.414 1_655 S
C3854 C3855 1.374 1_655 S
C3855 H3835 0.969 . S
C3855 C3851 1.385 . S
C3855 C3854 1.374 1_455 S
C3856 C3853 1.499 1_655 S
C3856 C3857 1.373 . S
C3856 C3858 1.389 . S
C3857 H3836 0.950 . S
C3857 C3856 1.373 . S
C3857 C3873 1.377 . S
C3858 C3856 1.389 . S
C3858 C3859 1.521 1_655 S
C3858 C3872 1.377 . S
C3859 C3858 1.521 1_455 S
C3859 C3860 1.394 1_455 S
C3859 C3864 1.368 . S
C3860 H3837 0.950 . S
C3860 C3859 1.394 1_655 S
C3860 C3861 1.330 1_655 S
C3861 H3838 0.947 1_455 S
C3861 C3860 1.330 1_455 S
C3861 C3862 1.295 . S
C3862 C3861 1.295 . S
C3862 C3863 1.524 . S
C3862 H3881 0.913 . S
C3863 H3839 0.950 . S
C3863 C3862 1.524 . S
C3863 C3864 1.415 . S
C3864 H3840 0.950 . S
C3864 C3859 1.368 . S
C3864 C3863 1.415 . S
C3865 H3841 0.951 . S
C3865 C3866 1.366 . S
C3865 C3867 1.388 . S
C3866 C3865 1.366 . S
C3866 C3870 1.385 . S
C3867 H3842 0.951 1_545 S
C3867 C3865 1.388 . S
C3867 C3868 1.366 . S
C3868 C3867 1.366 . S
C3868 C3869 1.414 . S
C3868 C3871 1.499 1_545 S
C3869 H3843 0.950 . S
C3869 C3868 1.414 . S
C3869 C3870 1.374 . S
C3870 H3844 0.950 . S
C3870 C3866 1.385 . S
C3870 C3869 1.374 . S
C3871 C3868 1.499 1_565 S
C3871 C3872 1.373 . S
C3871 C3873 1.389 . S
C3872 H3845 0.950 . S
C3872 C3858 1.377 . S
C3872 C3871 1.373 . S
C3873 C3857 1.377 . S
C3873 C3871 1.389 . S
C3873 C3874 1.524 . S
C3874 C3873 1.524 . S
C3874 C3875 1.397 . S
C3874 C3879 1.363 . S
C3875 H3846 0.950 1_565 S
C3875 C3874 1.397 . S
C3875 C3876 1.334 1_565 S
C3876 H3847 0.950 . S
C3876 C3875 1.334 1_545 S
C3876 C3877 1.287 1_545 S
C3877 C3876 1.287 1_565 S
C3877 C3878 1.524 . S
C3877 H3880 0.999 . S
C3878 H3848 0.950 . S
C3878 C3877 1.524 . S
C3878 C3879 1.415 . S
C3879 H3849 0.950 . S
C3879 C3874 1.363 . S
C3879 C3878 1.415 . S
H3880 C3877 0.999 . S
H3881 C3862 0.913 . S
H3882 C3900 0.951 . S
H3883 C3902 0.951 . S
H3884 C3904 0.950 . S
H3885 C3905 0.950 . S
H3886 C3907 0.950 . S
H3887 C3910 0.950 . S
H3888 C3911 0.950 . S
H3889 C3913 0.950 . S
H3890 C3914 0.950 . S
H3891 C3915 0.951 . S
H3892 C3917 0.951 . S
H3893 C3919 0.950 . S
H3894 C3920 0.950 . S
H3895 C3922 0.950 . S
H3896 C3925 0.950 . S
H3897 C3926 0.950 . S
H3898 C3928 0.950 . S
H3899 C3929 0.950 . S
C3900 H3882 0.951 . S
C3900 C3901 1.366 . S
C3900 C3902 1.388 . S
C3901 C3900 1.366 . S
C3901 C3905 1.385 . S
C3902 H3883 0.951 . S
C3902 C3900 1.388 . S
C3902 C3903 1.366 . S
C3903 C3902 1.366 . S
C3903 C3904 1.414 . S
C3903 C3906 1.499 . S
C3904 H3884 0.950 . S
C3904 C3903 1.414 . S
C3904 C3905 1.374 . S
C3905 H3885 0.950 . S
C3905 C3901 1.385 . S
C3905 C3904 1.374 . S
C3906 C3903 1.499 . S
C3906 C3907 1.373 . S
C3906 C3908 1.389 . S
C3907 H3886 0.950 . S
C3907 C3906 1.373 . S
C3907 C3923 1.377 . S
C3908 C3906 1.389 . S
C3908 C3909 1.524 . S
C3908 C3922 1.377 . S
C3909 C3908 1.524 . S
C3909 C3910 1.397 . S
C3909 C3914 1.363 . S
C3910 H3887 0.950 . S
C3910 C3909 1.397 . S
C3910 C3911 1.334 . S
C3911 H3888 0.950 . S
C3911 C3910 1.334 . S
C3911 C3912 1.287 . S
C3912 C3911 1.287 . S
C3912 C3913 1.524 . S
C3912 H3931 0.913 . S
C3913 H3889 0.950 . S
C3913 C3912 1.524 . S
C3913 C3914 1.415 . S
C3914 H3890 0.950 . S
C3914 C3909 1.363 . S
C3914 C3913 1.415 . S
C3915 H3891 0.951 . S
C3915 C3916 1.366 . S
C3915 C3917 1.388 . S
C3916 C3915 1.366 . S
C3916 C3920 1.385 . S
C3917 H3892 0.951 . S
C3917 C3915 1.388 . S
C3917 C3918 1.366 . S
C3918 C3917 1.366 . S
C3918 C3919 1.414 . S
C3918 C3921 1.499 . S
C3919 H3893 0.950 . S
C3919 C3918 1.414 . S
C3919 C3920 1.374 . S
C3920 H3894 0.950 . S
C3920 C3916 1.385 . S
C3920 C3919 1.374 . S
C3921 C3918 1.499 . S
C3921 C3922 1.373 . S
C3921 C3923 1.389 . S
C3922 H3895 0.950 . S
C3922 C3908 1.377 . S
C3922 C3921 1.373 . S
C3923 C3907 1.377 . S
C3923 C3921 1.389 . S
C3923 C3924 1.524 . S
C3924 C3923 1.524 . S
C3924 C3925 1.397 . S
C3924 C3929 1.363 . S
C3925 H3896 0.950 . S
C3925 C3924 1.397 . S
C3925 C3926 1.334 . S
C3926 H3897 0.950 . S
C3926 C3925 1.334 . S
C3926 C3927 1.287 . S
C3927 C3926 1.287 . S
C3927 C3928 1.524 . S
C3927 H3930 0.999 . S
C3928 H3898 0.950 . S
C3928 C3927 1.524 . S
C3928 C3929 1.415 . S
C3929 H3899 0.950 . S
C3929 C3924 1.363 . S
C3929 C3928 1.415 . S
H3930 C3927 0.999 . S
H3931 C3912 0.913 . S
H3932 C3950 0.951 . S
H3933 C3952 0.951 . S
H3934 C3954 0.950 . S
H3935 C3955 0.950 . S
H3936 C3957 0.950 . S
H3937 C3960 0.950 . S
H3938 C3961 0.950 . S
H3939 C3963 0.950 . S
H3940 C3964 0.950 . S
H3941 C3965 0.951 . S
H3942 C3967 0.951 . S
H3943 C3969 0.950 . S
H3944 C3970 0.950 . S
H3945 C3972 0.950 . S
H3946 C3975 0.950 . S
H3947 C3976 0.950 . S
H3948 C3978 0.950 . S
H3949 C3979 0.950 . S
C3950 H3932 0.951 . S
C3950 C3951 1.366 . S
C3950 C3952 1.388 . S
C3951 C3950 1.366 . S
C3951 C3955 1.385 . S
C3952 H3933 0.951 . S
C3952 C3950 1.388 . S
C3952 C3953 1.366 . S
C3953 C3952 1.366 . S
C3953 C3954 1.414 . S
C3953 C3956 1.499 . S
C3954 H3934 0.950 . S
C3954 C3953 1.414 . S
C3954 C3955 1.374 . S
C3955 H3935 0.950 . S
C3955 C3951 1.385 . S
C3955 C3954 1.374 . S
C3956 C3953 1.499 . S
C3956 C3957 1.373 . S
C3956 C3958 1.389 . S
C3957 H3936 0.950 . S
C3957 C3956 1.373 . S
C3957 C3973 1.377 . S
C3958 C3956 1.389 . S
C3958 C3959 1.524 . S
C3958 C3972 1.377 . S
C3959 C3958 1.524 . S
C3959 C3960 1.397 . S
C3959 C3964 1.363 . S
C3960 H3937 0.950 . S
C3960 C3959 1.397 . S
C3960 C3961 1.334 . S
C3961 H3938 0.950 . S
C3961 C3960 1.334 . S
C3961 C3962 1.287 . S
C3962 C3961 1.287 . S
C3962 C3963 1.524 . S
C3962 H3981 0.913 . S
C3963 H3939 0.950 . S
C3963 C3962 1.524 . S
C3963 C3964 1.415 . S
C3964 H3940 0.950 . S
C3964 C3959 1.363 . S
C3964 C3963 1.415 . S
C3965 H3941 0.951 . S
C3965 C3966 1.366 . S
C3965 C3967 1.388 . S
C3966 C3965 1.366 . S
C3966 C3970 1.385 . S
C3967 H3942 0.951 . S
C3967 C3965 1.388 . S
C3967 C3968 1.366 . S
C3968 C3967 1.366 . S
C3968 C3969 1.414 . S
C3968 C3971 1.499 1_545 S
C3969 H3943 0.950 . S
C3969 C3968 1.414 . S
C3969 C3970 1.374 . S
C3970 H3944 0.950 . S
C3970 C3966 1.385 . S
C3970 C3969 1.374 . S
C3971 C3968 1.499 1_565 S
C3971 C3972 1.373 . S
C3971 C3973 1.389 . S
C3972 H3945 0.950 . S
C3972 C3958 1.377 . S
C3972 C3971 1.373 . S
C3973 C3957 1.377 . S
C3973 C3971 1.389 . S
C3973 C3974 1.524 . S
C3974 C3973 1.524 . S
C3974 C3975 1.397 . S
C3974 C3979 1.363 . S
C3975 H3946 0.950 . S
C3975 C3974 1.397 . S
C3975 C3976 1.334 . S
C3976 H3947 0.950 . S
C3976 C3975 1.334 . S
C3976 C3977 1.287 . S
C3977 C3976 1.287 . S
C3977 C3978 1.524 . S
C3977 H3980 0.999 . S
C3978 H3948 0.950 . S
C3978 C3977 1.524 . S
C3978 C3979 1.415 . S
C3979 H3949 0.950 . S
C3979 C3974 1.363 . S
C3979 C3978 1.415 . S
H3980 C3977 0.999 . S
H3981 C3962 0.913 . S
H3982 C4000 0.951 . S
H3983 C4002 0.951 . S
H3984 C4004 0.950 . S
H3985 C4005 0.950 . S
H3986 C4007 0.950 . S
H3987 C4010 0.950 . S
H3988 C4011 0.950 . S
H3989 C4013 0.950 . S
H3990 C4014 0.950 . S
H3991 C4015 0.951 . S
H3992 C4017 0.951 . S
H3993 C4019 0.950 . S
H3994 C4020 0.950 . S
H3995 C4022 0.950 . S
H3996 C4025 0.950 . S
H3997 C4026 0.950 . S
H3998 C4028 0.950 . S
H3999 C4029 0.950 . S
C4000 H3982 0.951 . S
C4000 C4001 1.366 . S
C4000 C4002 1.388 . S
C4001 C4000 1.366 . S
C4001 C4005 1.385 . S
C4002 H3983 0.951 . S
C4002 C4000 1.388 . S
C4002 C4003 1.366 . S
C4003 C4002 1.366 . S
C4003 C4004 1.414 . S
C4003 C4006 1.499 . S
C4004 H3984 0.950 . S
C4004 C4003 1.414 . S
C4004 C4005 1.374 . S
C4005 H3985 0.950 . S
C4005 C4001 1.385 . S
C4005 C4004 1.374 . S
C4006 C4003 1.499 . S
C4006 C4007 1.373 . S
C4006 C4008 1.389 . S
C4007 H3986 0.950 . S
C4007 C4006 1.373 . S
C4007 C4023 1.377 . S
C4008 C4006 1.389 . S
C4008 C4009 1.524 . S
C4008 C4022 1.377 . S
C4009 C4008 1.524 . S
C4009 C4010 1.397 . S
C4009 C4014 1.363 . S
C4010 H3987 0.950 . S
C4010 C4009 1.397 . S
C4010 C4011 1.334 . S
C4011 H3988 0.950 . S
C4011 C4010 1.334 . S
C4011 C4012 1.287 . S
C4012 C4011 1.287 . S
C4012 C4013 1.524 . S
C4012 H4031 0.913 . S
C4013 H3989 0.950 . S
C4013 C4012 1.524 . S
C4013 C4014 1.415 . S
C4014 H3990 0.950 . S
C4014 C4009 1.363 . S
C4014 C4013 1.415 . S
C4015 H3991 0.951 . S
C4015 C4016 1.366 . S
C4015 C4017 1.388 . S
C4016 C4015 1.366 . S
C4016 C4020 1.385 . S
C4017 H3992 0.951 . S
C4017 C4015 1.388 . S
C4017 C4018 1.366 . S
C4018 C4017 1.366 . S
C4018 C4019 1.414 . S
C4018 C4021 1.499 . S
C4019 H3993 0.950 . S
C4019 C4018 1.414 . S
C4019 C4020 1.374 . S
C4020 H3994 0.950 . S
C4020 C4016 1.385 . S
C4020 C4019 1.374 . S
C4021 C4018 1.499 . S
C4021 C4022 1.373 . S
C4021 C4023 1.389 . S
C4022 H3995 0.950 . S
C4022 C4008 1.377 . S
C4022 C4021 1.373 . S
C4023 C4007 1.377 . S
C4023 C4021 1.389 . S
C4023 C4024 1.524 . S
C4024 C4023 1.524 . S
C4024 C4025 1.397 . S
C4024 C4029 1.363 . S
C4025 H3996 0.950 . S
C4025 C4024 1.397 . S
C4025 C4026 1.334 . S
C4026 H3997 0.950 . S
C4026 C4025 1.334 . S
C4026 C4027 1.287 . S
C4027 C4026 1.287 . S
C4027 C4028 1.524 . S
C4027 H4030 0.999 . S
C4028 H3998 0.950 . S
C4028 C4027 1.524 . S
C4028 C4029 1.415 . S
C4029 H3999 0.950 . S
C4029 C4024 1.363 . S
C4029 C4028 1.415 . S
H4030 C4027 0.999 . S
H4031 C4012 0.913 . S
H4032 C4050 0.951 . S
H4033 C4052 0.951 . S
H4034 C4054 0.950 . S
H4035 C4055 0.950 . S
H4036 C4057 0.950 . S
H4037 C4060 0.973 . S
H4038 C4061 0.950 1_545 S
H4039 C4063 0.950 . S
H4040 C4064 0.950 . S
H4041 C4065 0.951 . S
H4042 C4067 0.951 . S
H4043 C4069 0.950 . S
H4044 C4070 0.950 . S
H4045 C4072 0.950 . S
H4046 C4075 0.973 . S
H4047 C4076 0.950 1_565 S
H4048 C4078 0.950 . S
H4049 C4079 0.950 . S
C4050 H4032 0.951 . S
C4050 C4051 1.366 . S
C4050 C4052 1.388 . S
C4051 C4050 1.366 . S
C4051 C4055 1.385 . S
C4052 H4033 0.951 . S
C4052 C4050 1.388 . S
C4052 C4053 1.366 . S
C4053 C4052 1.366 . S
C4053 C4054 1.414 . S
C4053 C4056 1.499 . S
C4054 H4034 0.950 . S
C4054 C4053 1.414 . S
C4054 C4055 1.374 . S
C4055 H4035 0.950 . S
C4055 C4051 1.385 . S
C4055 C4054 1.374 . S
C4056 C4053 1.499 . S
C4056 C4057 1.373 . S
C4056 C4058 1.389 1_545 S
C4057 H4036 0.950 . S
C4057 C4056 1.373 . S
C4057 C4073 1.377 . S
C4058 C4056 1.389 1_565 S
C4058 C4059 1.524 . S
C4058 C4072 1.377 . S
C4059 C4058 1.524 . S
C4059 C4060 1.382 1_565 S
C4059 C4064 1.363 . S
C4060 H4037 0.973 . S
C4060 C4059 1.382 1_545 S
C4060 C4061 1.327 1_545 S
C4061 H4038 0.950 1_565 S
C4061 C4060 1.327 1_565 S
C4061 C4062 1.287 . S
C4062 C4061 1.287 . S
C4062 C4063 1.524 . S
C4062 H4081 0.913 . S
C4063 H4039 0.950 . S
C4063 C4062 1.524 . S
C4063 C4064 1.415 . S
C4064 H4040 0.950 . S
C4064 C4059 1.363 . S
C4064 C4063 1.415 . S
C4065 H4041 0.951 . S
C4065 C4066 1.366 . S
C4065 C4067 1.388 . S
C4066 C4065 1.366 . S
C4066 C4070 1.385 . S
C4067 H4042 0.951 . S
C4067 C4065 1.388 . S
C4067 C4068 1.366 . S
C4068 C4067 1.366 . S
C4068 C4069 1.414 . S
C4068 C4071 1.499 . S
C4069 H4043 0.950 . S
C4069 C4068 1.414 . S
C4069 C4070 1.374 . S
C4070 H4044 0.950 . S
C4070 C4066 1.385 . S
C4070 C4069 1.374 . S
C4071 C4068 1.499 . S
C4071 C4072 1.373 . S
C4071 C4073 1.389 1_565 S
C4072 H4045 0.950 . S
C4072 C4058 1.377 . S
C4072 C4071 1.373 . S
C4073 C4057 1.377 . S
C4073 C4071 1.389 1_545 S
C4073 C4074 1.524 . S
C4074 C4073 1.524 . S
C4074 C4075 1.382 1_545 S
C4074 C4079 1.363 . S
C4075 H4046 0.973 . S
C4075 C4074 1.382 1_565 S
C4075 C4076 1.327 1_565 S
C4076 H4047 0.950 1_545 S
C4076 C4075 1.327 1_545 S
C4076 C4077 1.287 . S
C4077 C4076 1.287 . S
C4077 C4078 1.524 . S
C4077 H4080 0.999 . S
C4078 H4048 0.950 . S
C4078 C4077 1.524 . S
C4078 C4079 1.415 . S
C4079 H4049 0.950 . S
C4079 C4074 1.363 . S
C4079 C4078 1.415 . S
H4080 C4077 0.999 . S
H4081 C4062 0.913 . S
H4082 C4100 0.951 . S
H4083 C4102 0.951 . S
H4084 C4104 0.950 . S
H4085 C4105 0.950 . S
H4086 C4107 0.950 . S
H4087 C4110 0.950 . S
H4088 C4111 0.950 1_556 S
H4089 C4113 0.950 . S
H4090 C4114 0.950 . S
H4091 C4115 0.951 . S
H4092 C4117 0.951 . S
H4093 C4119 0.950 . S
H4094 C4120 0.950 . S
H4095 C4122 0.950 . S
H4096 C4125 0.950 . S
H4097 C4126 0.950 1_554 S
H4098 C4128 0.950 . S
H4099 C4129 0.950 . S
C4100 H4082 0.951 . S
C4100 C4101 1.366 . S
C4100 C4102 1.388 . S
C4101 C4100 1.366 . S
C4101 C4105 1.385 . S
C4102 H4083 0.951 . S
C4102 C4100 1.388 . S
C4102 C4103 1.366 . S
C4103 C4102 1.366 . S
C4103 C4104 1.414 . S
C4103 C4106 1.499 . S
C4104 H4084 0.950 . S
C4104 C4103 1.414 . S
C4104 C4105 1.374 . S
C4105 H4085 0.950 . S
C4105 C4101 1.385 . S
C4105 C4104 1.374 . S
C4106 C4103 1.499 . S
C4106 C4107 1.373 . S
C4106 C4108 1.389 1_556 S
C4107 H4086 0.950 . S
C4107 C4106 1.373 . S
C4107 C4123 1.377 . S
C4108 C4106 1.389 1_554 S
C4108 C4109 1.524 . S
C4108 C4122 1.377 . S
C4109 C4108 1.524 . S
C4109 C4110 1.397 1_554 S
C4109 C4114 1.363 . S
C4110 H4087 0.950 . S
C4110 C4109 1.397 1_556 S
C4110 C4111 1.334 1_556 S
C4111 H4088 0.950 1_554 S
C4111 C4110 1.334 1_554 S
C4111 C4112 1.287 . S
C4112 C4111 1.287 . S
C4112 C4113 1.524 . S
C4112 H4131 0.913 . S
C4113 H4089 0.950 . S
C4113 C4112 1.524 . S
C4113 C4114 1.415 . S
C4114 H4090 0.950 . S
C4114 C4109 1.363 . S
C4114 C4113 1.415 . S
C4115 H4091 0.951 . S
C4115 C4116 1.366 . S
C4115 C4117 1.388 . S
C4116 C4115 1.366 . S
C4116 C4120 1.385 . S
C4117 H4092 0.951 . S
C4117 C4115 1.388 . S
C4117 C4118 1.366 . S
C4118 C4117 1.366 . S
C4118 C4119 1.414 . S
C4118 C4121 1.499 . S
C4119 H4093 0.950 . S
C4119 C4118 1.414 . S
C4119 C4120 1.374 . S
C4120 H4094 0.950 . S
C4120 C4116 1.385 . S
C4120 C4119 1.374 . S
C4121 C4118 1.499 . S
C4121 C4122 1.373 . S
C4121 C4123 1.389 1_554 S
C4122 H4095 0.950 . S
C4122 C4108 1.377 . S
C4122 C4121 1.373 . S
C4123 C4107 1.377 . S
C4123 C4121 1.389 1_556 S
C4123 C4124 1.524 . S
C4124 C4123 1.524 . S
C4124 C4125 1.397 1_556 S
C4124 C4129 1.363 . S
C4125 H4096 0.950 . S
C4125 C4124 1.397 1_554 S
C4125 C4126 1.334 1_554 S
C4126 H4097 0.950 1_556 S
C4126 C4125 1.334 1_556 S
C4126 C4127 1.287 . S
C4127 C4126 1.287 . S
C4127 C4128 1.524 . S
C4127 H4130 0.999 . S
C4128 H4098 0.950 . S
C4128 C4127 1.524 . S
C4128 C4129 1.415 . S
C4129 H4099 0.950 . S
C4129 C4124 1.363 . S
C4129 C4128 1.415 . S
H4130 C4127 0.999 . S
H4131 C4112 0.913 . S
H4132 C4150 0.951 . S
H4133 C4152 0.951 . S
H4134 C4154 0.950 . S
H4135 C4155 0.950 . S
H4136 C4157 0.950 . S
H4137 C4160 0.950 . S
H4138 C4161 0.950 . S
H4139 C4163 0.950 . S
H4140 C4164 0.950 . S
H4141 C4165 0.951 . S
H4142 C4167 0.951 . S
H4143 C4169 0.950 . S
H4144 C4170 0.950 . S
H4145 C4172 0.950 . S
H4146 C4175 0.950 . S
H4147 C4176 0.950 . S
H4148 C4178 0.950 . S
H4149 C4179 0.950 . S
C4150 H4132 0.951 . S
C4150 C4151 1.366 . S
C4150 C4152 1.388 . S
C4151 C4150 1.366 . S
C4151 C4155 1.385 . S
C4152 H4133 0.951 . S
C4152 C4150 1.388 . S
C4152 C4153 1.366 . S
C4153 C4152 1.366 . S
C4153 C4154 1.414 . S
C4153 C4156 1.499 . S
C4154 H4134 0.950 . S
C4154 C4153 1.414 . S
C4154 C4155 1.374 . S
C4155 H4135 0.950 . S
C4155 C4151 1.385 . S
C4155 C4154 1.374 . S
C4156 C4153 1.499 . S
C4156 C4157 1.373 . S
C4156 C4158 1.389 . S
C4157 H4136 0.950 . S
C4157 C4156 1.373 . S
C4157 C4173 1.377 . S
C4158 C4156 1.389 . S
C4158 C4159 1.524 . S
C4158 C4172 1.377 . S
C4159 C4158 1.524 . S
C4159 C4160 1.397 . S
C4159 C4164 1.363 . S
C4160 H4137 0.950 . S
C4160 C4159 1.397 . S
C4160 C4161 1.334 . S
C4161 H4138 0.950 . S
C4161 C4160 1.334 . S
C4161 C4162 1.287 . S
C4162 C4161 1.287 . S
C4162 C4163 1.524 . S
C4162 H4181 0.913 . S
C4163 H4139 0.950 . S
C4163 C4162 1.524 . S
C4163 C4164 1.415 . S
C4164 H4140 0.950 . S
C4164 C4159 1.363 . S
C4164 C4163 1.415 . S
C4165 H4141 0.951 . S
C4165 C4166 1.366 . S
C4165 C4167 1.388 . S
C4166 C4165 1.366 . S
C4166 C4170 1.385 . S
C4167 H4142 0.951 . S
C4167 C4165 1.388 . S
C4167 C4168 1.366 . S
C4168 C4167 1.366 . S
C4168 C4169 1.414 . S
C4168 C4171 1.499 . S
C4169 H4143 0.950 . S
C4169 C4168 1.414 . S
C4169 C4170 1.374 . S
C4170 H4144 0.950 . S
C4170 C4166 1.385 . S
C4170 C4169 1.374 . S
C4171 C4168 1.499 . S
C4171 C4172 1.373 . S
C4171 C4173 1.389 . S
C4172 H4145 0.950 . S
C4172 C4158 1.377 . S
C4172 C4171 1.373 . S
C4173 C4157 1.377 . S
C4173 C4171 1.389 . S
C4173 C4174 1.524 . S
C4174 C4173 1.524 . S
C4174 C4175 1.397 . S
C4174 C4179 1.363 . S
C4175 H4146 0.950 . S
C4175 C4174 1.397 . S
C4175 C4176 1.334 . S
C4176 H4147 0.950 . S
C4176 C4175 1.334 . S
C4176 C4177 1.287 . S
C4177 C4176 1.287 . S
C4177 C4178 1.524 . S
C4177 H4180 0.999 . S
C4178 H4148 0.950 . S
C4178 C4177 1.524 . S
C4178 C4179 1.415 . S
C4179 H4149 0.950 . S
C4179 C4174 1.363 . S
C4179 C4178 1.415 . S
H4180 C4177 0.999 . S
H4181 C4162 0.913 . S
H4182 C4200 0.951 . S
H4183 C4202 0.951 . S
H4184 C4204 0.950 . S
H4185 C4205 0.950 . S
H4186 C4207 0.950 . S
H4187 C4210 0.950 . S
H4188 C4211 0.950 . S
H4189 C4213 0.950 . S
H4190 C4214 0.950 . S
H4191 C4215 0.951 . S
H4192 C4217 0.951 . S
H4193 C4219 0.950 . S
H4194 C4220 0.950 . S
H4195 C4222 0.950 . S
H4196 C4225 0.950 . S
H4197 C4226 0.950 . S
H4198 C4228 0.950 . S
H4199 C4229 0.950 . S
C4200 H4182 0.951 . S
C4200 C4201 1.366 . S
C4200 C4202 1.388 . S
C4201 C4200 1.366 . S
C4201 C4205 1.385 . S
C4202 H4183 0.951 . S
C4202 C4200 1.388 . S
C4202 C4203 1.366 . S
C4203 C4202 1.366 . S
C4203 C4204 1.414 . S
C4203 C4206 1.499 . S
C4204 H4184 0.950 . S
C4204 C4203 1.414 . S
C4204 C4205 1.374 . S
C4205 H4185 0.950 . S
C4205 C4201 1.385 . S
C4205 C4204 1.374 . S
C4206 C4203 1.499 . S
C4206 C4207 1.373 . S
C4206 C4208 1.389 1_554 S
C4207 H4186 0.950 . S
C4207 C4206 1.373 . S
C4207 C4223 1.377 . S
C4208 C4206 1.389 1_556 S
C4208 C4209 1.524 . S
C4208 C4222 1.377 . S
C4209 C4208 1.524 . S
C4209 C4210 1.397 1_556 S
C4209 C4214 1.363 . S
C4210 H4187 0.950 . S
C4210 C4209 1.397 1_554 S
C4210 C4211 1.334 . S
C4211 H4188 0.950 . S
C4211 C4210 1.334 . S
C4211 C4212 1.287 1_554 S
C4212 C4211 1.287 1_556 S
C4212 C4213 1.524 . S
C4212 H4231 0.913 . S
C4213 H4189 0.950 . S
C4213 C4212 1.524 . S
C4213 C4214 1.415 . S
C4214 H4190 0.950 . S
C4214 C4209 1.363 . S
C4214 C4213 1.415 . S
C4215 H4191 0.951 . S
C4215 C4216 1.366 . S
C4215 C4217 1.388 . S
C4216 C4215 1.366 . S
C4216 C4220 1.385 . S
C4217 H4192 0.951 . S
C4217 C4215 1.388 . S
C4217 C4218 1.366 . S
C4218 C4217 1.366 . S
C4218 C4219 1.414 . S
C4218 C4221 1.499 . S
C4219 H4193 0.950 . S
C4219 C4218 1.414 . S
C4219 C4220 1.374 . S
C4220 H4194 0.950 . S
C4220 C4216 1.385 . S
C4220 C4219 1.374 . S
C4221 C4218 1.499 . S
C4221 C4222 1.373 . S
C4221 C4223 1.389 1_556 S
C4222 H4195 0.950 . S
C4222 C4208 1.377 . S
C4222 C4221 1.373 . S
C4223 C4207 1.377 . S
C4223 C4221 1.389 1_554 S
C4223 C4224 1.524 . S
C4224 C4223 1.524 . S
C4224 C4225 1.397 1_554 S
C4224 C4229 1.363 . S
C4225 H4196 0.950 . S
C4225 C4224 1.397 1_556 S
C4225 C4226 1.334 . S
C4226 H4197 0.950 . S
C4226 C4225 1.334 . S
C4226 C4227 1.287 1_556 S
C4227 C4226 1.287 1_554 S
C4227 C4228 1.524 . S
C4227 H4230 0.999 . S
C4228 H4198 0.950 . S
C4228 C4227 1.524 . S
C4228 C4229 1.415 . S
C4229 H4199 0.950 . S
C4229 C4224 1.363 . S
C4229 C4228 1.415 . S
H4230 C4227 0.999 . S
H4231 C4212 0.913 . S
H4232 C4250 0.951 . S
H4233 C4252 0.951 . S
H4234 C4254 0.950 . S
H4235 C4255 0.950 . S
H4236 C4257 0.950 . S
H4237 C4260 0.950 . S
H4238 C4261 0.950 . S
H4239 C4263 0.950 . S
H4240 C4264 0.950 . S
H4241 C4265 0.951 . S
H4242 C4267 0.951 . S
H4243 C4269 0.950 . S
H4244 C4270 0.950 . S
H4245 C4272 0.950 . S
H4246 C4275 0.950 . S
H4247 C4276 0.950 . S
H4248 C4278 0.950 . S
H4249 C4279 0.950 . S
C4250 H4232 0.951 . S
C4250 C4251 1.366 . S
C4250 C4252 1.388 . S
C4251 C4250 1.366 . S
C4251 C4255 1.385 . S
C4252 H4233 0.951 . S
C4252 C4250 1.388 . S
C4252 C4253 1.366 . S
C4253 C4252 1.366 . S
C4253 C4254 1.414 . S
C4253 C4256 1.499 . S
C4254 H4234 0.950 . S
C4254 C4253 1.414 . S
C4254 C4255 1.374 . S
C4255 H4235 0.950 . S
C4255 C4251 1.385 . S
C4255 C4254 1.374 . S
C4256 C4253 1.499 . S
C4256 C4257 1.373 . S
C4256 C4258 1.389 . S
C4257 H4236 0.950 . S
C4257 C4256 1.373 . S
C4257 C4273 1.377 1_556 S
C4258 C4256 1.389 . S
C4258 C4259 1.524 . S
C4258 C4272 1.377 1_556 S
C4259 C4258 1.524 . S
C4259 C4260 1.397 . S
C4259 C4264 1.363 . S
C4260 H4237 0.950 . S
C4260 C4259 1.397 . S
C4260 C4261 1.334 . S
C4261 H4238 0.950 . S
C4261 C4260 1.334 . S
C4261 C4262 1.287 . S
C4262 C4261 1.287 . S
C4262 C4263 1.524 . S
C4262 H4281 0.913 . S
C4263 H4239 0.950 . S
C4263 C4262 1.524 . S
C4263 C4264 1.415 . S
C4264 H4240 0.950 . S
C4264 C4259 1.363 . S
C4264 C4263 1.415 . S
C4265 H4241 0.951 . S
C4265 C4266 1.366 . S
C4265 C4267 1.388 . S
C4266 C4265 1.366 . S
C4266 C4270 1.385 . S
C4267 H4242 0.951 . S
C4267 C4265 1.388 . S
C4267 C4268 1.366 . S
C4268 C4267 1.366 . S
C4268 C4269 1.414 . S
C4268 C4271 1.499 . S
C4269 H4243 0.950 . S
C4269 C4268 1.414 . S
C4269 C4270 1.374 . S
C4270 H4244 0.950 . S
C4270 C4266 1.385 . S
C4270 C4269 1.374 . S
C4271 C4268 1.499 . S
C4271 C4272 1.373 . S
C4271 C4273 1.389 . S
C4272 H4245 0.950 . S
C4272 C4258 1.377 1_554 S
C4272 C4271 1.373 . S
C4273 C4257 1.377 1_554 S
C4273 C4271 1.389 . S
C4273 C4274 1.524 . S
C4274 C4273 1.524 . S
C4274 C4275 1.397 . S
C4274 C4279 1.363 . S
C4275 H4246 0.950 . S
C4275 C4274 1.397 . S
C4275 C4276 1.334 . S
C4276 H4247 0.950 . S
C4276 C4275 1.334 . S
C4276 C4277 1.287 . S
C4277 C4276 1.287 . S
C4277 C4278 1.524 . S
C4277 H4280 0.999 . S
C4278 H4248 0.950 . S
C4278 C4277 1.524 . S
C4278 C4279 1.415 . S
C4279 H4249 0.950 . S
C4279 C4274 1.363 . S
C4279 C4278 1.415 . S
H4280 C4277 0.999 . S
H4281 C4262 0.913 . S
H4282 C4300 0.951 . S
H4283 C4302 0.951 . S
H4284 C4304 0.950 . S
H4285 C4305 0.950 . S
H4286 C4307 0.950 . S
H4287 C4310 0.950 . S
H4288 C4311 0.950 . S
H4289 C4313 0.950 . S
H4290 C4314 0.950 . S
H4291 C4315 0.951 . S
H4292 C4317 0.951 . S
H4293 C4319 0.950 . S
H4294 C4320 0.950 . S
H4295 C4322 0.950 . S
H4296 C4325 0.950 . S
H4297 C4326 0.950 . S
H4298 C4328 0.950 . S
H4299 C4329 0.950 . S
C4300 H4282 0.951 . S
C4300 C4301 1.366 . S
C4300 C4302 1.388 . S
C4301 C4300 1.366 . S
C4301 C4305 1.385 . S
C4302 H4283 0.951 . S
C4302 C4300 1.388 . S
C4302 C4303 1.366 . S
C4303 C4302 1.366 . S
C4303 C4304 1.414 . S
C4303 C4306 1.499 . S
C4304 H4284 0.950 . S
C4304 C4303 1.414 . S
C4304 C4305 1.374 . S
C4305 H4285 0.950 . S
C4305 C4301 1.385 . S
C4305 C4304 1.374 . S
C4306 C4303 1.499 . S
C4306 C4307 1.373 . S
C4306 C4308 1.389 . S
C4307 H4286 0.950 . S
C4307 C4306 1.373 . S
C4307 C4323 1.377 . S
C4308 C4306 1.389 . S
C4308 C4309 1.524 . S
C4308 C4322 1.377 . S
C4309 C4308 1.524 . S
C4309 C4310 1.397 . S
C4309 C4314 1.363 . S
C4310 H4287 0.950 . S
C4310 C4309 1.397 . S
C4310 C4311 1.334 . S
C4311 H4288 0.950 . S
C4311 C4310 1.334 . S
C4311 C4312 1.287 . S
C4312 C4311 1.287 . S
C4312 C4313 1.524 . S
C4312 H4331 0.913 . S
C4313 H4289 0.950 . S
C4313 C4312 1.524 . S
C4313 C4314 1.415 . S
C4314 H4290 0.950 . S
C4314 C4309 1.363 . S
C4314 C4313 1.415 . S
C4315 H4291 0.951 . S
C4315 C4316 1.366 . S
C4315 C4317 1.388 . S
C4316 C4315 1.366 . S
C4316 C4320 1.385 . S
C4317 H4292 0.951 . S
C4317 C4315 1.388 . S
C4317 C4318 1.366 . S
C4318 C4317 1.366 . S
C4318 C4319 1.414 . S
C4318 C4321 1.499 . S
C4319 H4293 0.950 . S
C4319 C4318 1.414 . S
C4319 C4320 1.374 . S
C4320 H4294 0.950 . S
C4320 C4316 1.385 . S
C4320 C4319 1.374 . S
C4321 C4318 1.499 . S
C4321 C4322 1.373 . S
C4321 C4323 1.389 . S
C4322 H4295 0.950 . S
C4322 C4308 1.377 . S
C4322 C4321 1.373 . S
C4323 C4307 1.377 . S
C4323 C4321 1.389 . S
C4323 C4324 1.524 . S
C4324 C4323 1.524 . S
C4324 C4325 1.397 . S
C4324 C4329 1.363 . S
C4325 H4296 0.950 . S
C4325 C4324 1.397 . S
C4325 C4326 1.334 . S
C4326 H4297 0.950 . S
C4326 C4325 1.334 . S
C4326 C4327 1.287 . S
C4327 C4326 1.287 . S
C4327 C4328 1.524 . S
C4327 H4330 0.999 . S
C4328 H4298 0.950 . S
C4328 C4327 1.524 . S
C4328 C4329 1.415 . S
C4329 H4299 0.950 . S
C4329 C4324 1.363 . S
C4329 C4328 1.415 . S
H4330 C4327 0.999 . S
H4331 C4312 0.913 . S
H4332 C4350 0.951 . S
H4333 C4352 0.951 . S
H4334 C4354 0.950 . S
H4335 C4355 0.950 . S
H4336 C4357 0.954 . S
H4337 C4360 0.950 . S
H4338 C4361 0.950 . S
H4339 C4363 0.950 . S
H4340 C4364 0.950 . S
H4341 C4365 0.951 . S
H4342 C4367 0.951 . S
H4343 C4369 0.950 . S
H4344 C4370 0.950 . S
H4345 C4372 0.954 . S
H4346 C4375 0.950 . S
H4347 C4376 0.950 . S
H4348 C4378 0.950 . S
H4349 C4379 0.950 . S
C4350 H4332 0.951 . S
C4350 C4351 1.366 . S
C4350 C4352 1.388 . S
C4351 C4350 1.366 . S
C4351 C4355 1.385 . S
C4352 H4333 0.951 . S
C4352 C4350 1.388 . S
C4352 C4353 1.366 . S
C4353 C4352 1.366 . S
C4353 C4354 1.414 . S
C4353 C4356 1.499 . S
C4354 H4334 0.950 . S
C4354 C4353 1.414 . S
C4354 C4355 1.374 . S
C4355 H4335 0.950 . S
C4355 C4351 1.385 . S
C4355 C4354 1.374 . S
C4356 C4353 1.499 . S
C4356 C4357 1.332 1_556 S
C4356 C4358 1.389 . S
C4357 H4336 0.954 . S
C4357 C4356 1.332 1_554 S
C4357 C4373 1.416 . S
C4358 C4356 1.389 . S
C4358 C4359 1.524 . S
C4358 C4372 1.416 . S
C4359 C4358 1.524 . S
C4359 C4360 1.397 . S
C4359 C4364 1.363 . S
C4360 H4337 0.950 . S
C4360 C4359 1.397 . S
C4360 C4361 1.334 . S
C4361 H4338 0.950 . S
C4361 C4360 1.334 . S
C4361 C4362 1.287 . S
C4362 C4361 1.287 . S
C4362 C4363 1.524 . S
C4362 H4381 0.913 . S
C4363 H4339 0.950 . S
C4363 C4362 1.524 . S
C4363 C4364 1.415 . S
C4364 H4340 0.950 . S
C4364 C4359 1.363 . S
C4364 C4363 1.415 . S
C4365 H4341 0.951 . S
C4365 C4366 1.366 . S
C4365 C4367 1.388 . S
C4366 C4365 1.366 . S
C4366 C4370 1.385 . S
C4367 H4342 0.951 . S
C4367 C4365 1.388 . S
C4367 C4368 1.366 . S
C4368 C4367 1.366 . S
C4368 C4369 1.414 . S
C4368 C4371 1.499 . S
C4369 H4343 0.950 . S
C4369 C4368 1.414 . S
C4369 C4370 1.374 . S
C4370 H4344 0.950 . S
C4370 C4366 1.385 . S
C4370 C4369 1.374 . S
C4371 C4368 1.499 . S
C4371 C4372 1.332 1_554 S
C4371 C4373 1.389 . S
C4372 H4345 0.954 . S
C4372 C4358 1.416 . S
C4372 C4371 1.332 1_556 S
C4373 C4357 1.416 . S
C4373 C4371 1.389 . S
C4373 C4374 1.524 . S
C4374 C4373 1.524 . S
C4374 C4375 1.397 . S
C4374 C4379 1.363 . S
C4375 H4346 0.950 . S
C4375 C4374 1.397 . S
C4375 C4376 1.334 . S
C4376 H4347 0.950 . S
C4376 C4375 1.334 . S
C4376 C4377 1.287 . S
C4377 C4376 1.287 . S
C4377 C4378 1.524 . S
C4377 H4380 0.999 . S
C4378 H4348 0.950 . S
C4378 C4377 1.524 . S
C4378 C4379 1.415 . S
C4379 H4349 0.950 . S
C4379 C4374 1.363 . S
C4379 C4378 1.415 . S
H4380 C4377 0.999 . S
H4381 C4362 0.913 . S
H4382 C4400 0.951 . S
H4383 C4402 0.951 . S
H4384 C4404 0.950 . S
H4385 C4405 0.950 . S
H4386 C4407 0.950 . S
H4387 C4410 0.950 . S
H4388 C4411 0.950 . S
H4389 C4413 0.950 . S
H4390 C4414 0.950 . S
H4391 C4415 0.951 . S
H4392 C4417 0.951 . S
H4393 C4419 0.950 . S
H4394 C4420 0.950 . S
H4395 C4422 0.950 . S
H4396 C4425 0.950 . S
H4397 C4426 0.950 . S
H4398 C4428 0.950 . S
H4399 C4429 0.950 . S
C4400 H4382 0.951 . S
C4400 C4401 1.366 . S
C4400 C4402 1.388 . S
C4401 C4400 1.366 . S
C4401 C4405 1.385 . S
C4402 H4383 0.951 . S
C4402 C4400 1.388 . S
C4402 C4403 1.366 . S
C4403 C4402 1.366 . S
C4403 C4404 1.414 . S
C4403 C4406 1.499 . S
C4404 H4384 0.950 . S
C4404 C4403 1.414 . S
C4404 C4405 1.374 . S
C4405 H4385 0.950 . S
C4405 C4401 1.385 . S
C4405 C4404 1.374 . S
C4406 C4403 1.499 . S
C4406 C4407 1.373 1_545 S
C4406 C4408 1.389 . S
C4407 H4386 0.950 . S
C4407 C4406 1.373 1_565 S
C4407 C4423 1.377 . S
C4408 C4406 1.389 . S
C4408 C4409 1.524 . S
C4408 C4422 1.377 . S
C4409 C4408 1.524 . S
C4409 C4410 1.397 . S
C4409 C4414 1.363 . S
C4410 H4387 0.950 . S
C4410 C4409 1.397 . S
C4410 C4411 1.334 . S
C4411 H4388 0.950 . S
C4411 C4410 1.334 . S
C4411 C4412 1.287 . S
C4412 C4411 1.287 . S
C4412 C4413 1.524 . S
C4412 H4431 0.913 . S
C4413 H4389 0.950 . S
C4413 C4412 1.524 . S
C4413 C4414 1.415 . S
C4414 H4390 0.950 . S
C4414 C4409 1.363 . S
C4414 C4413 1.415 . S
C4415 H4391 0.951 . S
C4415 C4416 1.366 . S
C4415 C4417 1.388 . S
C4416 C4415 1.366 . S
C4416 C4420 1.385 . S
C4417 H4392 0.951 . S
C4417 C4415 1.388 . S
C4417 C4418 1.366 . S
C4418 C4417 1.366 . S
C4418 C4419 1.414 . S
C4418 C4421 1.499 . S
C4419 H4393 0.950 . S
C4419 C4418 1.414 . S
C4419 C4420 1.374 . S
C4420 H4394 0.950 . S
C4420 C4416 1.385 . S
C4420 C4419 1.374 . S
C4421 C4418 1.499 . S
C4421 C4422 1.373 1_565 S
C4421 C4423 1.389 . S
C4422 H4395 0.950 . S
C4422 C4408 1.377 . S
C4422 C4421 1.373 1_545 S
C4423 C4407 1.377 . S
C4423 C4421 1.389 . S
C4423 C4424 1.524 . S
C4424 C4423 1.524 . S
C4424 C4425 1.397 . S
C4424 C4429 1.363 . S
C4425 H4396 0.950 . S
C4425 C4424 1.397 . S
C4425 C4426 1.334 . S
C4426 H4397 0.950 . S
C4426 C4425 1.334 . S
C4426 C4427 1.287 . S
C4427 C4426 1.287 . S
C4427 C4428 1.524 . S
C4427 H4430 0.999 . S
C4428 H4398 0.950 . S
C4428 C4427 1.524 . S
C4428 C4429 1.415 . S
C4429 H4399 0.950 . S
C4429 C4424 1.363 . S
C4429 C4428 1.415 . S
H4430 C4427 0.999 . S
H4431 C4412 0.913 . S
H4432 C4450 0.951 . S
H4433 C4452 0.951 . S
H4434 C4454 0.950 . S
H4435 C4455 0.950 . S
H4436 C4457 0.950 . S
H4437 C4460 0.950 . S
H4438 C4461 0.950 . S
H4439 C4463 0.950 . S
H4440 C4464 0.950 . S
H4441 C4465 0.951 . S
H4442 C4467 0.951 . S
H4443 C4469 0.950 . S
H4444 C4470 0.950 . S
H4445 C4472 0.950 . S
H4446 C4475 0.950 . S
H4447 C4476 0.950 . S
H4448 C4478 0.950 . S
H4449 C4479 0.950 . S
C4450 H4432 0.951 . S
C4450 C4451 1.366 . S
C4450 C4452 1.388 . S
C4451 C4450 1.366 . S
C4451 C4455 1.385 . S
C4452 H4433 0.951 . S
C4452 C4450 1.388 . S
C4452 C4453 1.366 . S
C4453 C4452 1.366 . S
C4453 C4454 1.414 . S
C4453 C4456 1.499 . S
C4454 H4434 0.950 . S
C4454 C4453 1.414 . S
C4454 C4455 1.374 . S
C4455 H4435 0.950 . S
C4455 C4451 1.385 . S
C4455 C4454 1.374 . S
C4456 C4453 1.499 . S
C4456 C4457 1.373 . S
C4456 C4458 1.389 . S
C4457 H4436 0.950 . S
C4457 C4456 1.373 . S
C4457 C4473 1.377 . S
C4458 C4456 1.389 . S
C4458 C4459 1.524 . S
C4458 C4472 1.377 . S
C4459 C4458 1.524 . S
C4459 C4460 1.397 . S
C4459 C4464 1.363 . S
C4460 H4437 0.950 . S
C4460 C4459 1.397 . S
C4460 C4461 1.334 . S
C4461 H4438 0.950 . S
C4461 C4460 1.334 . S
C4461 C4462 1.287 . S
C4462 C4461 1.287 . S
C4462 C4463 1.524 . S
C4462 H4481 0.913 . S
C4463 H4439 0.950 . S
C4463 C4462 1.524 . S
C4463 C4464 1.415 . S
C4464 H4440 0.950 . S
C4464 C4459 1.363 . S
C4464 C4463 1.415 . S
C4465 H4441 0.951 . S
C4465 C4466 1.366 . S
C4465 C4467 1.388 . S
C4466 C4465 1.366 . S
C4466 C4470 1.385 . S
C4467 H4442 0.951 . S
C4467 C4465 1.388 . S
C4467 C4468 1.366 . S
C4468 C4467 1.366 . S
C4468 C4469 1.414 . S
C4468 C4471 1.499 . S
C4469 H4443 0.950 . S
C4469 C4468 1.414 . S
C4469 C4470 1.374 . S
C4470 H4444 0.950 . S
C4470 C4466 1.385 . S
C4470 C4469 1.374 . S
C4471 C4468 1.499 . S
C4471 C4472 1.373 . S
C4471 C4473 1.389 . S
C4472 H4445 0.950 . S
C4472 C4458 1.377 . S
C4472 C4471 1.373 . S
C4473 C4457 1.377 . S
C4473 C4471 1.389 . S
C4473 C4474 1.524 . S
C4474 C4473 1.524 . S
C4474 C4475 1.397 . S
C4474 C4479 1.363 . S
C4475 H4446 0.950 . S
C4475 C4474 1.397 . S
C4475 C4476 1.334 . S
C4476 H4447 0.950 . S
C4476 C4475 1.334 . S
C4476 C4477 1.287 . S
C4477 C4476 1.287 . S
C4477 C4478 1.524 . S
C4477 H4480 0.999 . S
C4478 H4448 0.950 . S
C4478 C4477 1.524 . S
C4478 C4479 1.415 . S
C4479 H4449 0.950 . S
C4479 C4474 1.363 . S
C4479 C4478 1.415 . S
H4480 C4477 0.999 . S
H4481 C4462 0.913 . S
H4482 C4500 0.951 . S
H4483 C4502 0.951 . S
H4484 C4504 0.950 . S
H4485 C4505 0.950 . S
H4486 C4507 0.950 . S
H4487 C4510 0.950 . S
H4488 C4511 0.950 . S
H4489 C4513 0.950 . S
H4490 C4514 0.950 . S
H4491 C4515 0.951 . S
H4492 C4517 0.951 . S
H4493 C4519 0.950 . S
H4494 C4520 0.950 . S
H4495 C4522 0.950 . S
H4496 C4525 0.950 . S
H4497 C4526 0.950 . S
H4498 C4528 0.950 . S
H4499 C4529 0.950 . S
C4500 H4482 0.951 . S
C4500 C4501 1.366 . S
C4500 C4502 1.388 . S
C4501 C4500 1.366 . S
C4501 C4505 1.385 . S
C4502 H4483 0.951 . S
C4502 C4500 1.388 . S
C4502 C4503 1.366 . S
C4503 C4502 1.366 . S
C4503 C4504 1.414 . S
C4503 C4506 1.499 . S
C4504 H4484 0.950 . S
C4504 C4503 1.414 . S
C4504 C4505 1.374 . S
C4505 H4485 0.950 . S
C4505 C4501 1.385 . S
C4505 C4504 1.374 . S
C4506 C4503 1.499 . S
C4506 C4507 1.373 . S
C4506 C4508 1.389 . S
C4507 H4486 0.950 . S
C4507 C4506 1.373 . S
C4507 C4523 1.377 . S
C4508 C4506 1.389 . S
C4508 C4509 1.524 . S
C4508 C4522 1.377 . S
C4509 C4508 1.524 . S
C4509 C4510 1.397 . S
C4509 C4514 1.363 . S
C4510 H4487 0.950 . S
C4510 C4509 1.397 . S
C4510 C4511 1.334 . S
C4511 H4488 0.950 . S
C4511 C4510 1.334 . S
C4511 C4512 1.287 . S
C4512 C4511 1.287 . S
C4512 C4513 1.524 . S
C4512 H4531 0.913 . S
C4513 H4489 0.950 . S
C4513 C4512 1.524 . S
C4513 C4514 1.415 . S
C4514 H4490 0.950 . S
C4514 C4509 1.363 . S
C4514 C4513 1.415 . S
C4515 H4491 0.951 . S
C4515 C4516 1.366 . S
C4515 C4517 1.388 . S
C4516 C4515 1.366 . S
C4516 C4520 1.385 . S
C4517 H4492 0.951 . S
C4517 C4515 1.388 . S
C4517 C4518 1.366 . S
C4518 C4517 1.366 . S
C4518 C4519 1.414 . S
C4518 C4521 1.499 . S
C4519 H4493 0.950 . S
C4519 C4518 1.414 . S
C4519 C4520 1.374 . S
C4520 H4494 0.950 . S
C4520 C4516 1.385 . S
C4520 C4519 1.374 . S
C4521 C4518 1.499 . S
C4521 C4522 1.373 . S
C4521 C4523 1.389 . S
C4522 H4495 0.950 . S
C4522 C4508 1.377 . S
C4522 C4521 1.373 . S
C4523 C4507 1.377 . S
C4523 C4521 1.389 . S
C4523 C4524 1.524 . S
C4524 C4523 1.524 . S
C4524 C4525 1.397 . S
C4524 C4529 1.363 . S
C4525 H4496 0.950 . S
C4525 C4524 1.397 . S
C4525 C4526 1.334 . S
C4526 H4497 0.950 . S
C4526 C4525 1.334 . S
C4526 C4527 1.287 . S
C4527 C4526 1.287 . S
C4527 C4528 1.524 . S
C4527 H4530 0.999 . S
C4528 H4498 0.950 . S
C4528 C4527 1.524 . S
C4528 C4529 1.415 . S
C4529 H4499 0.950 . S
C4529 C4524 1.363 . S
C4529 C4528 1.415 . S
H4530 C4527 0.999 . S
H4531 C4512 0.913 . S
H4532 C4550 0.951 . S
H4533 C4552 0.951 . S
H4534 C4554 0.950 . S
H4535 C4555 0.950 . S
H4536 C4557 0.950 . S
H4537 C4560 0.950 . S
H4538 C4561 0.950 . S
H4539 C4563 0.950 . S
H4540 C4564 0.950 . S
H4541 C4565 0.951 . S
H4542 C4567 0.951 . S
H4543 C4569 0.950 . S
H4544 C4570 0.950 . S
H4545 C4572 0.950 . S
H4546 C4575 0.950 . S
H4547 C4576 0.950 . S
H4548 C4578 0.950 . S
H4549 C4579 0.950 . S
C4550 H4532 0.951 . S
C4550 C4551 1.366 . S
C4550 C4552 1.388 . S
C4551 C4550 1.366 . S
C4551 C4555 1.385 . S
C4552 H4533 0.951 . S
C4552 C4550 1.388 . S
C4552 C4553 1.366 . S
C4553 C4552 1.366 . S
C4553 C4554 1.414 . S
C4553 C4556 1.499 . S
C4554 H4534 0.950 . S
C4554 C4553 1.414 . S
C4554 C4555 1.374 . S
C4555 H4535 0.950 . S
C4555 C4551 1.385 . S
C4555 C4554 1.374 . S
C4556 C4553 1.499 . S
C4556 C4557 1.373 . S
C4556 C4558 1.389 . S
C4557 H4536 0.950 . S
C4557 C4556 1.373 . S
C4557 C4573 1.377 . S
C4558 C4556 1.389 . S
C4558 C4559 1.524 . S
C4558 C4572 1.377 . S
C4559 C4558 1.524 . S
C4559 C4560 1.397 . S
C4559 C4564 1.363 . S
C4560 H4537 0.950 . S
C4560 C4559 1.397 . S
C4560 C4561 1.334 . S
C4561 H4538 0.950 . S
C4561 C4560 1.334 . S
C4561 C4562 1.287 . S
C4562 C4561 1.287 . S
C4562 C4563 1.524 . S
C4562 H4581 0.913 . S
C4563 H4539 0.950 . S
C4563 C4562 1.524 . S
C4563 C4564 1.415 . S
C4564 H4540 0.950 . S
C4564 C4559 1.363 . S
C4564 C4563 1.415 . S
C4565 H4541 0.951 . S
C4565 C4566 1.366 . S
C4565 C4567 1.388 . S
C4566 C4565 1.366 . S
C4566 C4570 1.385 . S
C4567 H4542 0.951 . S
C4567 C4565 1.388 . S
C4567 C4568 1.366 . S
C4568 C4567 1.366 . S
C4568 C4569 1.414 . S
C4568 C4571 1.499 . S
C4569 H4543 0.950 . S
C4569 C4568 1.414 . S
C4569 C4570 1.374 . S
C4570 H4544 0.950 . S
C4570 C4566 1.385 . S
C4570 C4569 1.374 . S
C4571 C4568 1.499 . S
C4571 C4572 1.373 . S
C4571 C4573 1.389 . S
C4572 H4545 0.950 . S
C4572 C4558 1.377 . S
C4572 C4571 1.373 . S
C4573 C4557 1.377 . S
C4573 C4571 1.389 . S
C4573 C4574 1.524 . S
C4574 C4573 1.524 . S
C4574 C4575 1.397 . S
C4574 C4579 1.363 . S
C4575 H4546 0.950 . S
C4575 C4574 1.397 . S
C4575 C4576 1.334 . S
C4576 H4547 0.950 . S
C4576 C4575 1.334 . S
C4576 C4577 1.287 . S
C4577 C4576 1.287 . S
C4577 C4578 1.524 . S
C4577 H4580 0.999 . S
C4578 H4548 0.950 . S
C4578 C4577 1.524 . S
C4578 C4579 1.415 . S
C4579 H4549 0.950 . S
C4579 C4574 1.363 . S
C4579 C4578 1.415 . S
H4580 C4577 0.999 . S
H4581 C4562 0.913 . S
H4582 C4600 0.951 . S
H4583 C4602 0.951 . S
H4584 C4604 0.950 . S
H4585 C4605 0.950 . S
H4586 C4607 0.950 . S
H4587 C4610 0.950 . S
H4588 C4611 0.950 . S
H4589 C4613 0.950 . S
H4590 C4614 0.950 . S
H4591 C4615 0.951 . S
H4592 C4617 0.951 . S
H4593 C4619 0.950 . S
H4594 C4620 0.950 . S
H4595 C4622 0.950 . S
H4596 C4625 0.950 . S
H4597 C4626 0.950 . S
H4598 C4628 0.950 . S
H4599 C4629 0.950 . S
C4600 H4582 0.951 . S
C4600 C4601 1.366 . S
C4600 C4602 1.388 . S
C4601 C4600 1.366 . S
C4601 C4605 1.385 . S
C4602 H4583 0.951 . S
C4602 C4600 1.388 . S
C4602 C4603 1.366 . S
C4603 C4602 1.366 . S
C4603 C4604 1.414 . S
C4603 C4606 1.499 . S
C4604 H4584 0.950 . S
C4604 C4603 1.414 . S
C4604 C4605 1.374 . S
C4605 H4585 0.950 . S
C4605 C4601 1.385 . S
C4605 C4604 1.374 . S
C4606 C4603 1.499 . S
C4606 C4607 1.373 . S
C4606 C4608 1.389 1_545 S
C4607 H4586 0.950 . S
C4607 C4606 1.373 . S
C4607 C4623 1.377 . S
C4608 C4606 1.389 1_565 S
C4608 C4609 1.524 . S
C4608 C4622 1.377 . S
C4609 C4608 1.524 . S
C4609 C4610 1.397 1_565 S
C4609 C4614 1.363 . S
C4610 H4587 0.950 . S
C4610 C4609 1.397 1_545 S
C4610 C4611 1.334 . S
C4611 H4588 0.950 . S
C4611 C4610 1.334 . S
C4611 C4612 1.287 1_545 S
C4612 C4611 1.287 1_565 S
C4612 C4613 1.524 . S
C4612 H4631 0.913 . S
C4613 H4589 0.950 . S
C4613 C4612 1.524 . S
C4613 C4614 1.415 . S
C4614 H4590 0.950 . S
C4614 C4609 1.363 . S
C4614 C4613 1.415 . S
C4615 H4591 0.951 . S
C4615 C4616 1.366 . S
C4615 C4617 1.388 . S
C4616 C4615 1.366 . S
C4616 C4620 1.385 . S
C4617 H4592 0.951 . S
C4617 C4615 1.388 . S
C4617 C4618 1.366 . S
C4618 C4617 1.366 . S
C4618 C4619 1.414 . S
C4618 C4621 1.499 . S
C4619 H4593 0.950 . S
C4619 C4618 1.414 . S
C4619 C4620 1.374 . S
C4620 H4594 0.950 . S
C4620 C4616 1.385 . S
C4620 C4619 1.374 . S
C4621 C4618 1.499 . S
C4621 C4622 1.373 . S
C4621 C4623 1.389 1_565 S
C4622 H4595 0.950 . S
C4622 C4608 1.377 . S
C4622 C4621 1.373 . S
C4623 C4607 1.377 . S
C4623 C4621 1.389 1_545 S
C4623 C4624 1.524 . S
C4624 C4623 1.524 . S
C4624 C4625 1.397 1_545 S
C4624 C4629 1.363 . S
C4625 H4596 0.950 . S
C4625 C4624 1.397 1_565 S
C4625 C4626 1.334 . S
C4626 H4597 0.950 . S
C4626 C4625 1.334 . S
C4626 C4627 1.287 1_565 S
C4627 C4626 1.287 1_545 S
C4627 C4628 1.524 . S
C4627 H4630 0.999 . S
C4628 H4598 0.950 . S
C4628 C4627 1.524 . S
C4628 C4629 1.415 . S
C4629 H4599 0.950 . S
C4629 C4624 1.363 . S
C4629 C4628 1.415 . S
H4630 C4627 0.999 . S
H4631 C4612 0.913 . S
H4632 C4650 0.951 . S
H4633 C4652 0.951 . S
H4634 C4654 0.950 . S
H4635 C4655 0.950 . S
H4636 C4657 0.957 . S
H4637 C4660 0.950 . S
H4638 C4661 0.950 . S
H4639 C4663 0.950 . S
H4640 C4664 0.950 . S
H4641 C4665 0.951 . S
H4642 C4667 0.951 . S
H4643 C4669 0.950 . S
H4644 C4670 0.950 . S
H4645 C4672 0.957 . S
H4646 C4675 0.950 . S
H4647 C4676 0.950 . S
H4648 C4678 0.950 . S
H4649 C4679 0.950 . S
C4650 H4632 0.951 . S
C4650 C4651 1.366 . S
C4650 C4652 1.388 . S
C4651 C4650 1.366 . S
C4651 C4655 1.385 . S
C4652 H4633 0.951 . S
C4652 C4650 1.388 . S
C4652 C4653 1.366 . S
C4653 C4652 1.366 . S
C4653 C4654 1.414 . S
C4653 C4656 1.499 . S
C4654 H4634 0.950 . S
C4654 C4653 1.414 . S
C4654 C4655 1.374 . S
C4655 H4635 0.950 . S
C4655 C4651 1.385 . S
C4655 C4654 1.374 . S
C4656 C4653 1.499 . S
C4656 C4657 1.315 1_655 S
C4656 C4658 1.389 . S
C4657 H4636 0.957 . S
C4657 C4656 1.315 1_455 S
C4657 C4673 1.431 . S
C4658 C4656 1.389 . S
C4658 C4659 1.524 . S
C4658 C4672 1.431 . S
C4659 C4658 1.524 . S
C4659 C4660 1.397 . S
C4659 C4664 1.363 . S
C4660 H4637 0.950 . S
C4660 C4659 1.397 . S
C4660 C4661 1.334 . S
C4661 H4638 0.950 . S
C4661 C4660 1.334 . S
C4661 C4662 1.287 . S
C4662 C4661 1.287 . S
C4662 C4663 1.524 . S
C4662 H4681 0.913 . S
C4663 H4639 0.950 . S
C4663 C4662 1.524 . S
C4663 C4664 1.415 . S
C4664 H4640 0.950 . S
C4664 C4659 1.363 . S
C4664 C4663 1.415 . S
C4665 H4641 0.951 . S
C4665 C4666 1.366 . S
C4665 C4667 1.388 . S
C4666 C4665 1.366 . S
C4666 C4670 1.385 . S
C4667 H4642 0.951 . S
C4667 C4665 1.388 . S
C4667 C4668 1.366 . S
C4668 C4667 1.366 . S
C4668 C4669 1.414 . S
C4668 C4671 1.499 . S
C4669 H4643 0.950 . S
C4669 C4668 1.414 . S
C4669 C4670 1.374 . S
C4670 H4644 0.950 . S
C4670 C4666 1.385 . S
C4670 C4669 1.374 . S
C4671 C4668 1.499 . S
C4671 C4672 1.315 1_455 S
C4671 C4673 1.389 . S
C4672 H4645 0.957 . S
C4672 C4658 1.431 . S
C4672 C4671 1.315 1_655 S
C4673 C4657 1.431 . S
C4673 C4671 1.389 . S
C4673 C4674 1.524 . S
C4674 C4673 1.524 . S
C4674 C4675 1.397 . S
C4674 C4679 1.363 . S
C4675 H4646 0.950 . S
C4675 C4674 1.397 . S
C4675 C4676 1.334 . S
C4676 H4647 0.950 . S
C4676 C4675 1.334 . S
C4676 C4677 1.287 . S
C4677 C4676 1.287 . S
C4677 C4678 1.524 . S
C4677 H4680 0.999 . S
C4678 H4648 0.950 . S
C4678 C4677 1.524 . S
C4678 C4679 1.415 . S
C4679 H4649 0.950 . S
C4679 C4674 1.363 . S
C4679 C4678 1.415 . S
H4680 C4677 0.999 . S
H4681 C4662 0.913 . S
H4682 C4700 0.951 . S
H4683 C4702 0.951 . S
H4684 C4704 0.950 . S
H4685 C4705 0.950 . S
H4686 C4707 0.950 . S
H4687 C4710 0.950 . S
H4688 C4711 0.950 . S
H4689 C4713 0.950 . S
H4690 C4714 0.950 . S
H4691 C4715 0.951 . S
H4692 C4717 0.951 . S
H4693 C4719 0.950 . S
H4694 C4720 0.950 . S
H4695 C4722 0.950 . S
H4696 C4725 0.950 . S
H4697 C4726 0.950 . S
H4698 C4728 0.950 . S
H4699 C4729 0.950 . S
C4700 H4682 0.951 . S
C4700 C4701 1.366 . S
C4700 C4702 1.388 . S
C4701 C4700 1.366 . S
C4701 C4705 1.385 . S
C4702 H4683 0.951 . S
C4702 C4700 1.388 . S
C4702 C4703 1.366 . S
C4703 C4702 1.366 . S
C4703 C4704 1.414 . S
C4703 C4706 1.499 . S
C4704 H4684 0.950 . S
C4704 C4703 1.414 . S
C4704 C4705 1.374 . S
C4705 H4685 0.950 . S
C4705 C4701 1.385 . S
C4705 C4704 1.374 . S
C4706 C4703 1.499 . S
C4706 C4707 1.373 . S
C4706 C4708 1.389 . S
C4707 H4686 0.950 . S
C4707 C4706 1.373 . S
C4707 C4723 1.377 1_655 S
C4708 C4706 1.389 . S
C4708 C4709 1.524 . S
C4708 C4722 1.377 1_655 S
C4709 C4708 1.524 . S
C4709 C4710 1.397 . S
C4709 C4714 1.363 . S
C4710 H4687 0.950 . S
C4710 C4709 1.397 . S
C4710 C4711 1.334 . S
C4711 H4688 0.950 . S
C4711 C4710 1.334 . S
C4711 C4712 1.287 . S
C4712 C4711 1.287 . S
C4712 C4713 1.524 . S
C4712 H4731 0.913 . S
C4713 H4689 0.950 . S
C4713 C4712 1.524 . S
C4713 C4714 1.415 . S
C4714 H4690 0.950 . S
C4714 C4709 1.363 . S
C4714 C4713 1.415 . S
C4715 H4691 0.951 . S
C4715 C4716 1.366 . S
C4715 C4717 1.388 . S
C4716 C4715 1.366 . S
C4716 C4720 1.385 . S
C4717 H4692 0.951 . S
C4717 C4715 1.388 . S
C4717 C4718 1.366 . S
C4718 C4717 1.366 . S
C4718 C4719 1.414 . S
C4718 C4721 1.499 . S
C4719 H4693 0.950 . S
C4719 C4718 1.414 . S
C4719 C4720 1.374 . S
C4720 H4694 0.950 . S
C4720 C4716 1.385 . S
C4720 C4719 1.374 . S
C4721 C4718 1.499 . S
C4721 C4722 1.373 . S
C4721 C4723 1.389 . S
C4722 H4695 0.950 . S
C4722 C4708 1.377 1_455 S
C4722 C4721 1.373 . S
C4723 C4707 1.377 1_455 S
C4723 C4721 1.389 . S
C4723 C4724 1.524 . S
C4724 C4723 1.524 . S
C4724 C4725 1.397 . S
C4724 C4729 1.363 . S
C4725 H4696 0.950 . S
C4725 C4724 1.397 . S
C4725 C4726 1.334 . S
C4726 H4697 0.950 . S
C4726 C4725 1.334 . S
C4726 C4727 1.287 . S
C4727 C4726 1.287 . S
C4727 C4728 1.524 . S
C4727 H4730 0.999 . S
C4728 H4698 0.950 . S
C4728 C4727 1.524 . S
C4728 C4729 1.415 . S
C4729 H4699 0.950 . S
C4729 C4724 1.363 . S
C4729 C4728 1.415 . S
H4730 C4727 0.999 . S
H4731 C4712 0.913 . S
H4732 C4750 0.951 . S
H4733 C4752 0.951 . S
H4734 C4754 0.950 . S
H4735 C4755 0.950 . S
H4736 C4757 0.950 . S
H4737 C4760 0.950 . S
H4738 C4761 0.950 . S
H4739 C4763 0.950 . S
H4740 C4764 0.950 . S
H4741 C4765 0.951 . S
H4742 C4767 0.951 . S
H4743 C4769 0.950 . S
H4744 C4770 0.950 . S
H4745 C4772 0.950 . S
H4746 C4775 0.950 . S
H4747 C4776 0.950 . S
H4748 C4778 0.950 . S
H4749 C4779 0.950 . S
C4750 H4732 0.951 . S
C4750 C4751 1.366 . S
C4750 C4752 1.388 . S
C4751 C4750 1.366 . S
C4751 C4755 1.385 . S
C4752 H4733 0.951 . S
C4752 C4750 1.388 . S
C4752 C4753 1.366 . S
C4753 C4752 1.366 . S
C4753 C4754 1.414 . S
C4753 C4756 1.499 . S
C4754 H4734 0.950 . S
C4754 C4753 1.414 . S
C4754 C4755 1.374 . S
C4755 H4735 0.950 . S
C4755 C4751 1.385 . S
C4755 C4754 1.374 . S
C4756 C4753 1.499 . S
C4756 C4757 1.373 1_455 S
C4756 C4758 1.389 . S
C4757 H4736 0.950 . S
C4757 C4756 1.373 1_655 S
C4757 C4773 1.377 . S
C4758 C4756 1.389 . S
C4758 C4759 1.524 . S
C4758 C4772 1.377 . S
C4759 C4758 1.524 . S
C4759 C4760 1.397 . S
C4759 C4764 1.363 . S
C4760 H4737 0.950 . S
C4760 C4759 1.397 . S
C4760 C4761 1.334 . S
C4761 H4738 0.950 . S
C4761 C4760 1.334 . S
C4761 C4762 1.287 . S
C4762 C4761 1.287 . S
C4762 C4763 1.524 . S
C4762 H4781 0.913 . S
C4763 H4739 0.950 . S
C4763 C4762 1.524 . S
C4763 C4764 1.415 . S
C4764 H4740 0.950 . S
C4764 C4759 1.363 . S
C4764 C4763 1.415 . S
C4765 H4741 0.951 . S
C4765 C4766 1.366 . S
C4765 C4767 1.388 . S
C4766 C4765 1.366 . S
C4766 C4770 1.385 . S
C4767 H4742 0.951 . S
C4767 C4765 1.388 . S
C4767 C4768 1.366 . S
C4768 C4767 1.366 . S
C4768 C4769 1.414 . S
C4768 C4771 1.499 . S
C4769 H4743 0.950 . S
C4769 C4768 1.414 . S
C4769 C4770 1.374 . S
C4770 H4744 0.950 . S
C4770 C4766 1.385 . S
C4770 C4769 1.374 . S
C4771 C4768 1.499 . S
C4771 C4772 1.373 1_655 S
C4771 C4773 1.389 . S
C4772 H4745 0.950 . S
C4772 C4758 1.377 . S
C4772 C4771 1.373 1_455 S
C4773 C4757 1.377 . S
C4773 C4771 1.389 . S
C4773 C4774 1.524 . S
C4774 C4773 1.524 . S
C4774 C4775 1.397 . S
C4774 C4779 1.363 . S
C4775 H4746 0.950 . S
C4775 C4774 1.397 . S
C4775 C4776 1.334 . S
C4776 H4747 0.950 . S
C4776 C4775 1.334 . S
C4776 C4777 1.287 . S
C4777 C4776 1.287 . S
C4777 C4778 1.524 . S
C4777 H4780 0.999 . S
C4778 H4748 0.950 . S
C4778 C4777 1.524 . S
C4778 C4779 1.415 . S
C4779 H4749 0.950 . S
C4779 C4774 1.363 . S
C4779 C4778 1.415 . S
H4780 C4777 0.999 . S
H4781 C4762 0.913 . S
H4782 C4800 0.951 . S
H4783 C4802 0.951 . S
H4784 C4804 0.950 . S
H4785 C4805 0.950 . S
H4786 C4807 0.950 . S
H4787 C4810 0.950 . S
H4788 C4811 0.950 . S
H4789 C4813 0.950 . S
H4790 C4814 0.950 . S
H4791 C4815 0.951 . S
H4792 C4817 0.951 . S
H4793 C4819 0.950 . S
H4794 C4820 0.950 . S
H4795 C4822 0.950 . S
H4796 C4825 0.950 . S
H4797 C4826 0.950 . S
H4798 C4828 0.950 . S
H4799 C4829 0.950 . S
C4800 H4782 0.951 . S
C4800 C4801 1.366 . S
C4800 C4802 1.388 . S
C4801 C4800 1.366 . S
C4801 C4805 1.385 . S
C4802 H4783 0.951 . S
C4802 C4800 1.388 . S
C4802 C4803 1.366 . S
C4803 C4802 1.366 . S
C4803 C4804 1.414 . S
C4803 C4806 1.499 . S
C4804 H4784 0.950 . S
C4804 C4803 1.414 . S
C4804 C4805 1.374 . S
C4805 H4785 0.950 . S
C4805 C4801 1.385 . S
C4805 C4804 1.374 . S
C4806 C4803 1.499 . S
C4806 C4807 1.373 . S
C4806 C4808 1.389 . S
C4807 H4786 0.950 . S
C4807 C4806 1.373 . S
C4807 C4823 1.377 . S
C4808 C4806 1.389 . S
C4808 C4809 1.524 . S
C4808 C4822 1.377 . S
C4809 C4808 1.524 . S
C4809 C4810 1.397 . S
C4809 C4814 1.363 . S
C4810 H4787 0.950 . S
C4810 C4809 1.397 . S
C4810 C4811 1.334 . S
C4811 H4788 0.950 . S
C4811 C4810 1.334 . S
C4811 C4812 1.287 . S
C4812 C4811 1.287 . S
C4812 C4813 1.524 . S
C4812 H4831 0.913 . S
C4813 H4789 0.950 . S
C4813 C4812 1.524 . S
C4813 C4814 1.415 . S
C4814 H4790 0.950 . S
C4814 C4809 1.363 . S
C4814 C4813 1.415 . S
C4815 H4791 0.951 . S
C4815 C4816 1.366 . S
C4815 C4817 1.388 . S
C4816 C4815 1.366 . S
C4816 C4820 1.385 . S
C4817 H4792 0.951 . S
C4817 C4815 1.388 . S
C4817 C4818 1.366 . S
C4818 C4817 1.366 . S
C4818 C4819 1.414 . S
C4818 C4821 1.499 . S
C4819 H4793 0.950 . S
C4819 C4818 1.414 . S
C4819 C4820 1.374 . S
C4820 H4794 0.950 . S
C4820 C4816 1.385 . S
C4820 C4819 1.374 . S
C4821 C4818 1.499 . S
C4821 C4822 1.373 . S
C4821 C4823 1.389 . S
C4822 H4795 0.950 . S
C4822 C4808 1.377 . S
C4822 C4821 1.373 . S
C4823 C4807 1.377 . S
C4823 C4821 1.389 . S
C4823 C4824 1.524 . S
C4824 C4823 1.524 . S
C4824 C4825 1.397 . S
C4824 C4829 1.363 . S
C4825 H4796 0.950 . S
C4825 C4824 1.397 . S
C4825 C4826 1.334 . S
C4826 H4797 0.950 . S
C4826 C4825 1.334 . S
C4826 C4827 1.287 . S
C4827 C4826 1.287 . S
C4827 C4828 1.524 . S
C4827 H4830 0.999 . S
C4828 H4798 0.950 . S
C4828 C4827 1.524 . S
C4828 C4829 1.415 . S
C4829 H4799 0.950 . S
C4829 C4824 1.363 . S
C4829 C4828 1.415 . S
H4830 C4827 0.999 . S
H4831 C4812 0.913 . S
H4832 C4850 0.951 . S
H4833 C4852 0.951 . S
H4834 C4854 0.950 . S
H4835 C4855 0.950 . S
H4836 C4857 0.950 . S
H4837 C4860 0.950 . S
H4838 C4861 0.950 . S
H4839 C4863 0.950 . S
H4840 C4864 0.950 . S
H4841 C4865 0.951 . S
H4842 C4867 0.951 . S
H4843 C4869 0.950 . S
H4844 C4870 0.950 . S
H4845 C4872 0.950 . S
H4846 C4875 0.950 . S
H4847 C4876 0.950 . S
H4848 C4878 0.950 . S
H4849 C4879 0.950 . S
C4850 H4832 0.951 . S
C4850 C4851 1.366 . S
C4850 C4852 1.388 . S
C4851 C4850 1.366 . S
C4851 C4855 1.385 . S
C4852 H4833 0.951 . S
C4852 C4850 1.388 . S
C4852 C4853 1.366 . S
C4853 C4852 1.366 . S
C4853 C4854 1.414 . S
C4853 C4856 1.499 . S
C4854 H4834 0.950 . S
C4854 C4853 1.414 . S
C4854 C4855 1.374 . S
C4855 H4835 0.950 . S
C4855 C4851 1.385 . S
C4855 C4854 1.374 . S
C4856 C4853 1.499 . S
C4856 C4857 1.373 . S
C4856 C4858 1.389 . S
C4857 H4836 0.950 . S
C4857 C4856 1.373 . S
C4857 C4873 1.377 . S
C4858 C4856 1.389 . S
C4858 C4859 1.524 . S
C4858 C4872 1.377 . S
C4859 C4858 1.524 . S
C4859 C4860 1.397 . S
C4859 C4864 1.363 . S
C4860 H4837 0.950 . S
C4860 C4859 1.397 . S
C4860 C4861 1.334 . S
C4861 H4838 0.950 . S
C4861 C4860 1.334 . S
C4861 C4862 1.287 . S
C4862 C4861 1.287 . S
C4862 C4863 1.524 . S
C4862 H4881 0.913 . S
C4863 H4839 0.950 . S
C4863 C4862 1.524 . S
C4863 C4864 1.415 . S
C4864 H4840 0.950 . S
C4864 C4859 1.363 . S
C4864 C4863 1.415 . S
C4865 H4841 0.951 . S
C4865 C4866 1.366 . S
C4865 C4867 1.388 . S
C4866 C4865 1.366 . S
C4866 C4870 1.385 . S
C4867 H4842 0.951 . S
C4867 C4865 1.388 . S
C4867 C4868 1.366 . S
C4868 C4867 1.366 . S
C4868 C4869 1.414 . S
C4868 C4871 1.499 . S
C4869 H4843 0.950 . S
C4869 C4868 1.414 . S
C4869 C4870 1.374 . S
C4870 H4844 0.950 . S
C4870 C4866 1.385 . S
C4870 C4869 1.374 . S
C4871 C4868 1.499 . S
C4871 C4872 1.373 . S
C4871 C4873 1.389 . S
C4872 H4845 0.950 . S
C4872 C4858 1.377 . S
C4872 C4871 1.373 . S
C4873 C4857 1.377 . S
C4873 C4871 1.389 . S
C4873 C4874 1.524 . S
C4874 C4873 1.524 . S
C4874 C4875 1.397 . S
C4874 C4879 1.363 . S
C4875 H4846 0.950 . S
C4875 C4874 1.397 . S
C4875 C4876 1.334 . S
C4876 H4847 0.950 . S
C4876 C4875 1.334 . S
C4876 C4877 1.287 . S
C4877 C4876 1.287 . S
C4877 C4878 1.524 . S
C4877 H4880 0.999 . S
C4878 H4848 0.950 . S
C4878 C4877 1.524 . S
C4878 C4879 1.415 . S
C4879 H4849 0.950 . S
C4879 C4874 1.363 . S
C4879 C4878 1.415 . S
H4880 C4877 0.999 . S
H4881 C4862 0.913 . S
H4882 C4900 0.951 . S
H4883 C4902 0.951 . S
H4884 C4904 0.950 . S
H4885 C4905 0.950 . S
H4886 C4907 0.950 . S
H4887 C4910 0.950 1_455 S
H4888 C4911 0.950 . S
H4889 C4913 0.950 . S
H4890 C4914 0.950 . S
H4891 C4915 0.951 . S
H4892 C4917 0.951 . S
H4893 C4919 0.950 . S
H4894 C4920 0.950 . S
H4895 C4922 0.950 . S
H4896 C4925 0.950 1_655 S
H4897 C4926 0.950 . S
H4898 C4928 0.950 . S
H4899 C4929 0.950 . S
C4900 H4882 0.951 . S
C4900 C4901 1.366 . S
C4900 C4902 1.388 . S
C4901 C4900 1.366 . S
C4901 C4905 1.385 . S
C4902 H4883 0.951 . S
C4902 C4900 1.388 . S
C4902 C4903 1.366 . S
C4903 C4902 1.366 . S
C4903 C4904 1.414 . S
C4903 C4906 1.499 . S
C4904 H4884 0.950 . S
C4904 C4903 1.414 . S
C4904 C4905 1.374 . S
C4905 H4885 0.950 . S
C4905 C4901 1.385 . S
C4905 C4904 1.374 . S
C4906 C4903 1.499 . S
C4906 C4907 1.373 . S
C4906 C4908 1.389 . S
C4907 H4886 0.950 . S
C4907 C4906 1.373 . S
C4907 C4923 1.377 1_655 S
C4908 C4906 1.389 . S
C4908 C4909 1.524 . S
C4908 C4922 1.377 1_655 S
C4909 C4908 1.524 . S
C4909 C4910 1.397 . S
C4909 C4914 1.363 . S
C4910 H4887 0.950 1_655 S
C4910 C4909 1.397 . S
C4910 C4911 1.334 . S
C4911 H4888 0.950 . S
C4911 C4910 1.334 . S
C4911 C4912 1.287 . S
C4912 C4911 1.287 . S
C4912 C4913 1.524 . S
C4912 H4931 0.913 . S
C4913 H4889 0.950 . S
C4913 C4912 1.524 . S
C4913 C4914 1.415 . S
C4914 H4890 0.950 . S
C4914 C4909 1.363 . S
C4914 C4913 1.415 . S
C4915 H4891 0.951 . S
C4915 C4916 1.366 . S
C4915 C4917 1.388 . S
C4916 C4915 1.366 . S
C4916 C4920 1.385 . S
C4917 H4892 0.951 . S
C4917 C4915 1.388 . S
C4917 C4918 1.366 . S
C4918 C4917 1.366 . S
C4918 C4919 1.414 . S
C4918 C4921 1.499 . S
C4919 H4893 0.950 . S
C4919 C4918 1.414 . S
C4919 C4920 1.374 . S
C4920 H4894 0.950 . S
C4920 C4916 1.385 . S
C4920 C4919 1.374 . S
C4921 C4918 1.499 . S
C4921 C4922 1.373 . S
C4921 C4923 1.389 . S
C4922 H4895 0.950 . S
C4922 C4908 1.377 1_455 S
C4922 C4921 1.373 . S
C4923 C4907 1.377 1_455 S
C4923 C4921 1.389 . S
C4923 C4924 1.524 . S
C4924 C4923 1.524 . S
C4924 C4925 1.397 . S
C4924 C4929 1.363 . S
C4925 H4896 0.950 1_455 S
C4925 C4924 1.397 . S
C4925 C4926 1.334 . S
C4926 H4897 0.950 . S
C4926 C4925 1.334 . S
C4926 C4927 1.287 . S
C4927 C4926 1.287 . S
C4927 C4928 1.524 . S
C4927 H4930 0.999 . S
C4928 H4898 0.950 . S
C4928 C4927 1.524 . S
C4928 C4929 1.415 . S
C4929 H4899 0.950 . S
C4929 C4924 1.363 . S
C4929 C4928 1.415 . S
H4930 C4927 0.999 . S
H4931 C4912 0.913 . S
H4932 C4950 0.951 . S
H4933 C4952 0.951 . S
H4934 C4954 0.950 . S
H4935 C4955 0.950 . S
H4936 C4957 0.950 . S
H4937 C4960 0.950 . S
H4938 C4961 0.950 . S
H4939 C4963 0.950 . S
H4940 C4964 0.950 . S
H4941 C4965 0.951 . S
H4942 C4967 0.951 . S
H4943 C4969 0.950 . S
H4944 C4970 0.950 . S
H4945 C4972 0.950 . S
H4946 C4975 0.950 . S
H4947 C4976 0.950 . S
H4948 C4978 0.950 . S
H4949 C4979 0.950 . S
C4950 H4932 0.951 . S
C4950 C4951 1.366 . S
C4950 C4952 1.388 . S
C4951 C4950 1.366 . S
C4951 C4955 1.385 . S
C4952 H4933 0.951 . S
C4952 C4950 1.388 . S
C4952 C4953 1.366 . S
C4953 C4952 1.366 . S
C4953 C4954 1.414 . S
C4953 C4956 1.499 . S
C4954 H4934 0.950 . S
C4954 C4953 1.414 . S
C4954 C4955 1.374 . S
C4955 H4935 0.950 . S
C4955 C4951 1.385 . S
C4955 C4954 1.374 . S
C4956 C4953 1.499 . S
C4956 C4957 1.373 . S
C4956 C4958 1.389 . S
C4957 H4936 0.950 . S
C4957 C4956 1.373 . S
C4957 C4973 1.377 . S
C4958 C4956 1.389 . S
C4958 C4959 1.524 . S
C4958 C4972 1.377 . S
C4959 C4958 1.524 . S
C4959 C4960 1.397 . S
C4959 C4964 1.363 . S
C4960 H4937 0.950 . S
C4960 C4959 1.397 . S
C4960 C4961 1.334 . S
C4961 H4938 0.950 . S
C4961 C4960 1.334 . S
C4961 C4962 1.287 . S
C4962 C4961 1.287 . S
C4962 C4963 1.524 . S
C4962 H4981 0.913 . S
C4963 H4939 0.950 . S
C4963 C4962 1.524 . S
C4963 C4964 1.415 . S
C4964 H4940 0.950 . S
C4964 C4959 1.363 . S
C4964 C4963 1.415 . S
C4965 H4941 0.951 . S
C4965 C4966 1.366 . S
C4965 C4967 1.388 . S
C4966 C4965 1.366 . S
C4966 C4970 1.385 . S
C4967 H4942 0.951 . S
C4967 C4965 1.388 . S
C4967 C4968 1.366 . S
C4968 C4967 1.366 . S
C4968 C4969 1.414 . S
C4968 C4971 1.499 . S
C4969 H4943 0.950 . S
C4969 C4968 1.414 . S
C4969 C4970 1.374 . S
C4970 H4944 0.950 . S
C4970 C4966 1.385 . S
C4970 C4969 1.374 . S
C4971 C4968 1.499 . S
C4971 C4972 1.373 . S
C4971 C4973 1.389 . S
C4972 H4945 0.950 . S
C4972 C4958 1.377 . S
C4972 C4971 1.373 . S
C4973 C4957 1.377 . S
C4973 C4971 1.389 . S
C4973 C4974 1.524 . S
C4974 C4973 1.524 . S
C4974 C4975 1.397 . S
C4974 C4979 1.363 . S
C4975 H4946 0.950 . S
C4975 C4974 1.397 . S
C4975 C4976 1.334 . S
C4976 H4947 0.950 . S
C4976 C4975 1.334 . S
C4976 C4977 1.287 . S
C4977 C4976 1.287 . S
C4977 C4978 1.524 . S
C4977 H4980 0.999 . S
C4978 H4948 0.950 . S
C4978 C4977 1.524 . S
C4978 C4979 1.415 . S
C4979 H4949 0.950 . S
C4979 C4974 1.363 . S
C4979 C4978 1.415 . S
H4980 C4977 0.999 . S
H4981 C4962 0.913 . S
H4982 C5000 0.951 . S
H4983 C5002 0.951 . S
H4984 C5004 0.950 . S
H4985 C5005 0.950 . S
H4986 C5007 0.950 . S
H4987 C5010 0.950 . S
H4988 C5011 0.950 . S
H4989 C5013 0.950 . S
H4990 C5014 0.950 . S
H4991 C5015 0.951 . S
H4992 C5017 0.951 . S
H4993 C5019 0.950 . S
H4994 C5020 0.950 . S
H4995 C5022 0.950 . S
H4996 C5025 0.950 . S
H4997 C5026 0.950 . S
H4998 C5028 0.950 . S
H4999 C5029 0.950 . S
C5000 H4982 0.951 . S
C5000 C5001 1.366 . S
C5000 C5002 1.388 . S
C5001 C5000 1.366 . S
C5001 C5005 1.385 . S
C5002 H4983 0.951 . S
C5002 C5000 1.388 . S
C5002 C5003 1.366 . S
C5003 C5002 1.366 . S
C5003 C5004 1.414 . S
C5003 C5006 1.499 . S
C5004 H4984 0.950 . S
C5004 C5003 1.414 . S
C5004 C5005 1.374 . S
C5005 H4985 0.950 . S
C5005 C5001 1.385 . S
C5005 C5004 1.374 . S
C5006 C5003 1.499 . S
C5006 C5007 1.373 . S
C5006 C5008 1.389 . S
C5007 H4986 0.950 . S
C5007 C5006 1.373 . S
C5007 C5023 1.377 . S
C5008 C5006 1.389 . S
C5008 C5009 1.524 . S
C5008 C5022 1.377 . S
C5009 C5008 1.524 . S
C5009 C5010 1.397 . S
C5009 C5014 1.363 . S
C5010 H4987 0.950 . S
C5010 C5009 1.397 . S
C5010 C5011 1.334 . S
C5011 H4988 0.950 . S
C5011 C5010 1.334 . S
C5011 C5012 1.287 . S
C5012 C5011 1.287 . S
C5012 C5013 1.524 . S
C5012 H5031 0.913 . S
C5013 H4989 0.950 . S
C5013 C5012 1.524 . S
C5013 C5014 1.415 . S
C5014 H4990 0.950 . S
C5014 C5009 1.363 . S
C5014 C5013 1.415 . S
C5015 H4991 0.951 . S
C5015 C5016 1.366 . S
C5015 C5017 1.388 . S
C5016 C5015 1.366 . S
C5016 C5020 1.385 . S
C5017 H4992 0.951 . S
C5017 C5015 1.388 . S
C5017 C5018 1.366 . S
C5018 C5017 1.366 . S
C5018 C5019 1.414 . S
C5018 C5021 1.499 . S
C5019 H4993 0.950 . S
C5019 C5018 1.414 . S
C5019 C5020 1.374 . S
C5020 H4994 0.950 . S
C5020 C5016 1.385 . S
C5020 C5019 1.374 . S
C5021 C5018 1.499 . S
C5021 C5022 1.373 . S
C5021 C5023 1.389 . S
C5022 H4995 0.950 . S
C5022 C5008 1.377 . S
C5022 C5021 1.373 . S
C5023 C5007 1.377 . S
C5023 C5021 1.389 . S
C5023 C5024 1.524 . S
C5024 C5023 1.524 . S
C5024 C5025 1.397 . S
C5024 C5029 1.363 . S
C5025 H4996 0.950 . S
C5025 C5024 1.397 . S
C5025 C5026 1.334 . S
C5026 H4997 0.950 . S
C5026 C5025 1.334 . S
C5026 C5027 1.287 . S
C5027 C5026 1.287 . S
C5027 C5028 1.524 . S
C5027 H5030 0.999 . S
C5028 H4998 0.950 . S
C5028 C5027 1.524 . S
C5028 C5029 1.415 . S
C5029 H4999 0.950 . S
C5029 C5024 1.363 . S
C5029 C5028 1.415 . S
H5030 C5027 0.999 . S
H5031 C5012 0.913 . S
H5032 C5050 0.951 . S
H5033 C5052 0.951 . S
H5034 C5054 0.950 . S
H5035 C5055 0.950 . S
H5036 C5057 0.950 . S
H5037 C5060 0.950 . S
H5038 C5061 0.950 . S
H5039 C5063 0.950 . S
H5040 C5064 0.950 . S
H5041 C5065 0.951 . S
H5042 C5067 0.951 . S
H5043 C5069 0.950 . S
H5044 C5070 0.950 . S
H5045 C5072 0.950 . S
H5046 C5075 0.950 . S
H5047 C5076 0.950 . S
H5048 C5078 0.950 . S
H5049 C5079 0.950 . S
C5050 H5032 0.951 . S
C5050 C5051 1.366 . S
C5050 C5052 1.388 . S
C5051 C5050 1.366 . S
C5051 C5055 1.385 . S
C5052 H5033 0.951 . S
C5052 C5050 1.388 . S
C5052 C5053 1.366 . S
C5053 C5052 1.366 . S
C5053 C5054 1.414 . S
C5053 C5056 1.499 . S
C5054 H5034 0.950 . S
C5054 C5053 1.414 . S
C5054 C5055 1.374 . S
C5055 H5035 0.950 . S
C5055 C5051 1.385 . S
C5055 C5054 1.374 . S
C5056 C5053 1.499 . S
C5056 C5057 1.373 . S
C5056 C5058 1.389 . S
C5057 H5036 0.950 . S
C5057 C5056 1.373 . S
C5057 C5073 1.377 1_565 S
C5058 C5056 1.389 . S
C5058 C5059 1.524 . S
C5058 C5072 1.377 1_565 S
C5059 C5058 1.524 . S
C5059 C5060 1.397 . S
C5059 C5064 1.363 1_565 S
C5060 H5037 0.950 . S
C5060 C5059 1.397 . S
C5060 C5061 1.334 . S
C5061 H5038 0.950 . S
C5061 C5060 1.334 . S
C5061 C5062 1.287 . S
C5062 C5061 1.287 . S
C5062 C5063 1.524 1_565 S
C5062 H5081 0.913 . S
C5063 H5039 0.950 . S
C5063 C5062 1.524 1_545 S
C5063 C5064 1.415 . S
C5064 H5040 0.950 . S
C5064 C5059 1.363 1_545 S
C5064 C5063 1.415 . S
C5065 H5041 0.951 . S
C5065 C5066 1.366 . S
C5065 C5067 1.388 . S
C5066 C5065 1.366 . S
C5066 C5070 1.385 . S
C5067 H5042 0.951 . S
C5067 C5065 1.388 . S
C5067 C5068 1.366 . S
C5068 C5067 1.366 . S
C5068 C5069 1.414 . S
C5068 C5071 1.499 . S
C5069 H5043 0.950 . S
C5069 C5068 1.414 . S
C5069 C5070 1.374 . S
C5070 H5044 0.950 . S
C5070 C5066 1.385 . S
C5070 C5069 1.374 . S
C5071 C5068 1.499 . S
C5071 C5072 1.373 . S
C5071 C5073 1.389 . S
C5072 H5045 0.950 . S
C5072 C5058 1.377 1_545 S
C5072 C5071 1.373 . S
C5073 C5057 1.377 1_545 S
C5073 C5071 1.389 . S
C5073 C5074 1.524 . S
C5074 C5073 1.524 . S
C5074 C5075 1.397 . S
C5074 C5079 1.363 1_545 S
C5075 H5046 0.950 . S
C5075 C5074 1.397 . S
C5075 C5076 1.334 . S
C5076 H5047 0.950 . S
C5076 C5075 1.334 . S
C5076 C5077 1.287 . S
C5077 C5076 1.287 . S
C5077 C5078 1.524 1_545 S
C5077 H5080 0.999 . S
C5078 H5048 0.950 . S
C5078 C5077 1.524 1_565 S
C5078 C5079 1.415 . S
C5079 H5049 0.950 . S
C5079 C5074 1.363 1_565 S
C5079 C5078 1.415 . S
H5080 C5077 0.999 . S
H5081 C5062 0.913 . S
H5082 C5100 0.951 . S
H5083 C5102 0.951 . S
H5084 C5104 0.950 . S
H5085 C5105 0.950 . S
H5086 C5107 0.950 . S
H5087 C5110 0.950 . S
H5088 C5111 0.950 . S
H5089 C5113 0.950 . S
H5090 C5114 0.950 . S
H5091 C5115 0.951 . S
H5092 C5117 0.951 . S
H5093 C5119 0.950 . S
H5094 C5120 0.950 . S
H5095 C5122 0.950 . S
H5096 C5125 0.950 . S
H5097 C5126 0.950 . S
H5098 C5128 0.950 . S
H5099 C5129 0.950 . S
C5100 H5082 0.951 . S
C5100 C5101 1.366 . S
C5100 C5102 1.388 . S
C5101 C5100 1.366 . S
C5101 C5105 1.385 . S
C5102 H5083 0.951 . S
C5102 C5100 1.388 . S
C5102 C5103 1.366 . S
C5103 C5102 1.366 . S
C5103 C5104 1.414 . S
C5103 C5106 1.499 . S
C5104 H5084 0.950 . S
C5104 C5103 1.414 . S
C5104 C5105 1.374 . S
C5105 H5085 0.950 . S
C5105 C5101 1.385 . S
C5105 C5104 1.374 . S
C5106 C5103 1.499 . S
C5106 C5107 1.373 . S
C5106 C5108 1.389 . S
C5107 H5086 0.950 . S
C5107 C5106 1.373 . S
C5107 C5123 1.377 . S
C5108 C5106 1.389 . S
C5108 C5109 1.524 . S
C5108 C5122 1.377 . S
C5109 C5108 1.524 . S
C5109 C5110 1.397 . S
C5109 C5114 1.363 . S
C5110 H5087 0.950 . S
C5110 C5109 1.397 . S
C5110 C5111 1.334 . S
C5111 H5088 0.950 . S
C5111 C5110 1.334 . S
C5111 C5112 1.287 . S
C5112 C5111 1.287 . S
C5112 C5113 1.524 . S
C5112 H5131 0.913 . S
C5113 H5089 0.950 . S
C5113 C5112 1.524 . S
C5113 C5114 1.415 . S
C5114 H5090 0.950 . S
C5114 C5109 1.363 . S
C5114 C5113 1.415 . S
C5115 H5091 0.951 . S
C5115 C5116 1.366 . S
C5115 C5117 1.388 . S
C5116 C5115 1.366 . S
C5116 C5120 1.385 . S
C5117 H5092 0.951 . S
C5117 C5115 1.388 . S
C5117 C5118 1.366 . S
C5118 C5117 1.366 . S
C5118 C5119 1.414 . S
C5118 C5121 1.499 . S
C5119 H5093 0.950 . S
C5119 C5118 1.414 . S
C5119 C5120 1.374 . S
C5120 H5094 0.950 . S
C5120 C5116 1.385 . S
C5120 C5119 1.374 . S
C5121 C5118 1.499 . S
C5121 C5122 1.373 . S
C5121 C5123 1.389 . S
C5122 H5095 0.950 . S
C5122 C5108 1.377 . S
C5122 C5121 1.373 . S
C5123 C5107 1.377 . S
C5123 C5121 1.389 . S
C5123 C5124 1.524 . S
C5124 C5123 1.524 . S
C5124 C5125 1.397 . S
C5124 C5129 1.363 . S
C5125 H5096 0.950 . S
C5125 C5124 1.397 . S
C5125 C5126 1.334 . S
C5126 H5097 0.950 . S
C5126 C5125 1.334 . S
C5126 C5127 1.287 . S
C5127 C5126 1.287 . S
C5127 C5128 1.524 . S
C5127 H5130 0.999 . S
C5128 H5098 0.950 . S
C5128 C5127 1.524 . S
C5128 C5129 1.415 . S
C5129 H5099 0.950 . S
C5129 C5124 1.363 . S
C5129 C5128 1.415 . S
H5130 C5127 0.999 . S
H5131 C5112 0.913 . S
H5132 C5150 0.951 . S
H5133 C5152 0.951 . S
H5134 C5154 0.950 . S
H5135 C5155 0.950 . S
H5136 C5157 0.950 . S
H5137 C5160 0.950 . S
H5138 C5161 0.950 . S
H5139 C5163 0.950 . S
H5140 C5164 0.950 . S
H5141 C5165 0.951 . S
H5142 C5167 0.951 . S
H5143 C5169 0.950 . S
H5144 C5170 0.950 . S
H5145 C5172 0.950 . S
H5146 C5175 0.950 . S
H5147 C5176 0.950 . S
H5148 C5178 0.950 . S
H5149 C5179 0.950 . S
C5150 H5132 0.951 . S
C5150 C5151 1.366 . S
C5150 C5152 1.388 . S
C5151 C5150 1.366 . S
C5151 C5155 1.385 . S
C5152 H5133 0.951 . S
C5152 C5150 1.388 . S
C5152 C5153 1.366 . S
C5153 C5152 1.366 . S
C5153 C5154 1.414 . S
C5153 C5156 1.499 . S
C5154 H5134 0.950 . S
C5154 C5153 1.414 . S
C5154 C5155 1.374 . S
C5155 H5135 0.950 . S
C5155 C5151 1.385 . S
C5155 C5154 1.374 . S
C5156 C5153 1.499 . S
C5156 C5157 1.373 . S
C5156 C5158 1.389 . S
C5157 H5136 0.950 . S
C5157 C5156 1.373 . S
C5157 C5173 1.377 . S
C5158 C5156 1.389 . S
C5158 C5159 1.524 . S
C5158 C5172 1.377 . S
C5159 C5158 1.524 . S
C5159 C5160 1.397 . S
C5159 C5164 1.363 . S
C5160 H5137 0.950 . S
C5160 C5159 1.397 . S
C5160 C5161 1.334 . S
C5161 H5138 0.950 . S
C5161 C5160 1.334 . S
C5161 C5162 1.287 . S
C5162 C5161 1.287 . S
C5162 C5163 1.524 . S
C5162 H5181 0.913 . S
C5163 H5139 0.950 . S
C5163 C5162 1.524 . S
C5163 C5164 1.415 . S
C5164 H5140 0.950 . S
C5164 C5159 1.363 . S
C5164 C5163 1.415 . S
C5165 H5141 0.951 . S
C5165 C5166 1.366 . S
C5165 C5167 1.388 . S
C5166 C5165 1.366 . S
C5166 C5170 1.385 . S
C5167 H5142 0.951 . S
C5167 C5165 1.388 . S
C5167 C5168 1.366 . S
C5168 C5167 1.366 . S
C5168 C5169 1.414 . S
C5168 C5171 1.499 . S
C5169 H5143 0.950 . S
C5169 C5168 1.414 . S
C5169 C5170 1.374 . S
C5170 H5144 0.950 . S
C5170 C5166 1.385 . S
C5170 C5169 1.374 . S
C5171 C5168 1.499 . S
C5171 C5172 1.373 . S
C5171 C5173 1.389 . S
C5172 H5145 0.950 . S
C5172 C5158 1.377 . S
C5172 C5171 1.373 . S
C5173 C5157 1.377 . S
C5173 C5171 1.389 . S
C5173 C5174 1.524 . S
C5174 C5173 1.524 . S
C5174 C5175 1.397 . S
C5174 C5179 1.363 . S
C5175 H5146 0.950 . S
C5175 C5174 1.397 . S
C5175 C5176 1.334 . S
C5176 H5147 0.950 . S
C5176 C5175 1.334 . S
C5176 C5177 1.287 . S
C5177 C5176 1.287 . S
C5177 C5178 1.524 . S
C5177 H5180 0.999 . S
C5178 H5148 0.950 . S
C5178 C5177 1.524 . S
C5178 C5179 1.415 . S
C5179 H5149 0.950 . S
C5179 C5174 1.363 . S
C5179 C5178 1.415 . S
H5180 C5177 0.999 . S
H5181 C5162 0.913 . S
H5182 C5200 0.951 . S
H5183 C5202 0.951 . S
H5184 C5204 0.950 . S
H5185 C5205 0.950 . S
H5186 C5207 0.950 . S
H5187 C5210 0.950 . S
H5188 C5211 0.950 . S
H5189 C5213 0.950 . S
H5190 C5214 0.950 . S
H5191 C5215 0.951 . S
H5192 C5217 0.951 . S
H5193 C5219 0.950 . S
H5194 C5220 0.950 . S
H5195 C5222 0.950 . S
H5196 C5225 0.950 . S
H5197 C5226 0.950 . S
H5198 C5228 0.950 . S
H5199 C5229 0.950 . S
C5200 H5182 0.951 . S
C5200 C5201 1.366 . S
C5200 C5202 1.388 . S
C5201 C5200 1.366 . S
C5201 C5205 1.385 . S
C5202 H5183 0.951 . S
C5202 C5200 1.388 . S
C5202 C5203 1.366 . S
C5203 C5202 1.366 . S
C5203 C5204 1.414 . S
C5203 C5206 1.499 . S
C5204 H5184 0.950 . S
C5204 C5203 1.414 . S
C5204 C5205 1.374 . S
C5205 H5185 0.950 . S
C5205 C5201 1.385 . S
C5205 C5204 1.374 . S
C5206 C5203 1.499 . S
C5206 C5207 1.373 . S
C5206 C5208 1.389 . S
C5207 H5186 0.950 . S
C5207 C5206 1.373 . S
C5207 C5223 1.377 . S
C5208 C5206 1.389 . S
C5208 C5209 1.524 . S
C5208 C5222 1.377 . S
C5209 C5208 1.524 . S
C5209 C5210 1.397 . S
C5209 C5214 1.363 . S
C5210 H5187 0.950 . S
C5210 C5209 1.397 . S
C5210 C5211 1.334 . S
C5211 H5188 0.950 . S
C5211 C5210 1.334 . S
C5211 C5212 1.287 . S
C5212 C5211 1.287 . S
C5212 C5213 1.524 . S
C5212 H5231 0.913 . S
C5213 H5189 0.950 . S
C5213 C5212 1.524 . S
C5213 C5214 1.415 . S
C5214 H5190 0.950 . S
C5214 C5209 1.363 . S
C5214 C5213 1.415 . S
C5215 H5191 0.951 . S
C5215 C5216 1.366 . S
C5215 C5217 1.388 . S
C5216 C5215 1.366 . S
C5216 C5220 1.385 . S
C5217 H5192 0.951 . S
C5217 C5215 1.388 . S
C5217 C5218 1.366 . S
C5218 C5217 1.366 . S
C5218 C5219 1.414 . S
C5218 C5221 1.499 . S
C5219 H5193 0.950 . S
C5219 C5218 1.414 . S
C5219 C5220 1.374 . S
C5220 H5194 0.950 . S
C5220 C5216 1.385 . S
C5220 C5219 1.374 . S
C5221 C5218 1.499 . S
C5221 C5222 1.373 . S
C5221 C5223 1.389 . S
C5222 H5195 0.950 . S
C5222 C5208 1.377 . S
C5222 C5221 1.373 . S
C5223 C5207 1.377 . S
C5223 C5221 1.389 . S
C5223 C5224 1.524 . S
C5224 C5223 1.524 . S
C5224 C5225 1.397 . S
C5224 C5229 1.363 . S
C5225 H5196 0.950 . S
C5225 C5224 1.397 . S
C5225 C5226 1.334 . S
C5226 H5197 0.950 . S
C5226 C5225 1.334 . S
C5226 C5227 1.287 . S
C5227 C5226 1.287 . S
C5227 C5228 1.524 . S
C5227 H5230 0.999 . S
C5228 H5198 0.950 . S
C5228 C5227 1.524 . S
C5228 C5229 1.415 . S
C5229 H5199 0.950 . S
C5229 C5224 1.363 . S
C5229 C5228 1.415 . S
H5230 C5227 0.999 . S
H5231 C5212 0.913 . S
H5232 C5250 0.951 . S
H5233 C5252 0.951 . S
H5234 C5254 0.950 . S
H5235 C5255 0.950 . S
H5236 C5257 0.950 . S
H5237 C5260 0.950 . S
H5238 C5261 0.950 . S
H5239 C5263 0.950 . S
H5240 C5264 0.950 . S
H5241 C5265 0.951 . S
H5242 C5267 0.951 . S
H5243 C5269 0.950 . S
H5244 C5270 0.950 . S
H5245 C5272 0.950 . S
H5246 C5275 0.950 . S
H5247 C5276 0.950 . S
H5248 C5278 0.950 . S
H5249 C5279 0.950 . S
C5250 H5232 0.951 . S
C5250 C5251 1.366 . S
C5250 C5252 1.388 . S
C5251 C5250 1.366 . S
C5251 C5255 1.385 . S
C5252 H5233 0.951 . S
C5252 C5250 1.388 . S
C5252 C5253 1.366 . S
C5253 C5252 1.366 . S
C5253 C5254 1.414 . S
C5253 C5256 1.499 . S
C5254 H5234 0.950 . S
C5254 C5253 1.414 . S
C5254 C5255 1.374 . S
C5255 H5235 0.950 . S
C5255 C5251 1.385 . S
C5255 C5254 1.374 . S
C5256 C5253 1.499 . S
C5256 C5257 1.373 . S
C5256 C5258 1.389 . S
C5257 H5236 0.950 . S
C5257 C5256 1.373 . S
C5257 C5273 1.377 . S
C5258 C5256 1.389 . S
C5258 C5259 1.524 . S
C5258 C5272 1.377 . S
C5259 C5258 1.524 . S
C5259 C5260 1.397 . S
C5259 C5264 1.363 . S
C5260 H5237 0.950 . S
C5260 C5259 1.397 . S
C5260 C5261 1.334 . S
C5261 H5238 0.950 . S
C5261 C5260 1.334 . S
C5261 C5262 1.287 . S
C5262 C5261 1.287 . S
C5262 C5263 1.524 . S
C5262 H5281 0.913 . S
C5263 H5239 0.950 . S
C5263 C5262 1.524 . S
C5263 C5264 1.415 . S
C5264 H5240 0.950 . S
C5264 C5259 1.363 . S
C5264 C5263 1.415 . S
C5265 H5241 0.951 . S
C5265 C5266 1.366 . S
C5265 C5267 1.388 . S
C5266 C5265 1.366 . S
C5266 C5270 1.385 . S
C5267 H5242 0.951 . S
C5267 C5265 1.388 . S
C5267 C5268 1.366 . S
C5268 C5267 1.366 . S
C5268 C5269 1.414 . S
C5268 C5271 1.499 . S
C5269 H5243 0.950 . S
C5269 C5268 1.414 . S
C5269 C5270 1.374 . S
C5270 H5244 0.950 . S
C5270 C5266 1.385 . S
C5270 C5269 1.374 . S
C5271 C5268 1.499 . S
C5271 C5272 1.373 . S
C5271 C5273 1.389 . S
C5272 H5245 0.950 . S
C5272 C5258 1.377 . S
C5272 C5271 1.373 . S
C5273 C5257 1.377 . S
C5273 C5271 1.389 . S
C5273 C5274 1.524 . S
C5274 C5273 1.524 . S
C5274 C5275 1.397 . S
C5274 C5279 1.363 . S
C5275 H5246 0.950 . S
C5275 C5274 1.397 . S
C5275 C5276 1.334 . S
C5276 H5247 0.950 . S
C5276 C5275 1.334 . S
C5276 C5277 1.287 . S
C5277 C5276 1.287 . S
C5277 C5278 1.524 . S
C5277 H5280 0.999 . S
C5278 H5248 0.950 . S
C5278 C5277 1.524 . S
C5278 C5279 1.415 . S
C5279 H5249 0.950 . S
C5279 C5274 1.363 . S
C5279 C5278 1.415 . S
H5280 C5277 0.999 . S
H5281 C5262 0.913 . S
H5282 C5300 0.951 . S
H5283 C5302 0.951 . S
H5284 C5304 0.950 . S
H5285 C5305 0.950 . S
H5286 C5307 0.950 . S
H5287 C5310 0.950 . S
H5288 C5311 0.950 . S
H5289 C5313 0.950 . S
H5290 C5314 0.950 . S
H5291 C5315 0.951 . S
H5292 C5317 0.951 . S
H5293 C5319 0.950 . S
H5294 C5320 0.950 . S
H5295 C5322 0.950 . S
H5296 C5325 0.950 . S
H5297 C5326 0.950 . S
H5298 C5328 0.950 . S
H5299 C5329 0.950 . S
C5300 H5282 0.951 . S
C5300 C5301 1.366 . S
C5300 C5302 1.388 . S
C5301 C5300 1.366 . S
C5301 C5305 1.385 . S
C5302 H5283 0.951 . S
C5302 C5300 1.388 . S
C5302 C5303 1.366 . S
C5303 C5302 1.366 . S
C5303 C5304 1.414 . S
C5303 C5306 1.499 . S
C5304 H5284 0.950 . S
C5304 C5303 1.414 . S
C5304 C5305 1.374 . S
C5305 H5285 0.950 . S
C5305 C5301 1.385 . S
C5305 C5304 1.374 . S
C5306 C5303 1.499 . S
C5306 C5307 1.373 . S
C5306 C5308 1.389 . S
C5307 H5286 0.950 . S
C5307 C5306 1.373 . S
C5307 C5323 1.377 . S
C5308 C5306 1.389 . S
C5308 C5309 1.524 . S
C5308 C5322 1.377 . S
C5309 C5308 1.524 . S
C5309 C5310 1.397 . S
C5309 C5314 1.363 . S
C5310 H5287 0.950 . S
C5310 C5309 1.397 . S
C5310 C5311 1.334 . S
C5311 H5288 0.950 . S
C5311 C5310 1.334 . S
C5311 C5312 1.287 . S
C5312 C5311 1.287 . S
C5312 C5313 1.524 . S
C5312 H5331 0.913 . S
C5313 H5289 0.950 . S
C5313 C5312 1.524 . S
C5313 C5314 1.415 . S
C5314 H5290 0.950 . S
C5314 C5309 1.363 . S
C5314 C5313 1.415 . S
C5315 H5291 0.951 . S
C5315 C5316 1.366 . S
C5315 C5317 1.388 . S
C5316 C5315 1.366 . S
C5316 C5320 1.385 . S
C5317 H5292 0.951 . S
C5317 C5315 1.388 . S
C5317 C5318 1.366 . S
C5318 C5317 1.366 . S
C5318 C5319 1.414 . S
C5318 C5321 1.499 . S
C5319 H5293 0.950 . S
C5319 C5318 1.414 . S
C5319 C5320 1.374 . S
C5320 H5294 0.950 . S
C5320 C5316 1.385 . S
C5320 C5319 1.374 . S
C5321 C5318 1.499 . S
C5321 C5322 1.373 . S
C5321 C5323 1.389 . S
C5322 H5295 0.950 . S
C5322 C5308 1.377 . S
C5322 C5321 1.373 . S
C5323 C5307 1.377 . S
C5323 C5321 1.389 . S
C5323 C5324 1.524 . S
C5324 C5323 1.524 . S
C5324 C5325 1.397 . S
C5324 C5329 1.363 . S
C5325 H5296 0.950 . S
C5325 C5324 1.397 . S
C5325 C5326 1.334 . S
C5326 H5297 0.950 . S
C5326 C5325 1.334 . S
C5326 C5327 1.287 . S
C5327 C5326 1.287 . S
C5327 C5328 1.524 . S
C5327 H5330 0.999 . S
C5328 H5298 0.950 . S
C5328 C5327 1.524 . S
C5328 C5329 1.415 . S
C5329 H5299 0.950 . S
C5329 C5324 1.363 . S
C5329 C5328 1.415 . S
H5330 C5327 0.999 . S
H5331 C5312 0.913 . S
H5332 C5350 0.951 . S
H5333 C5352 0.951 . S
H5334 C5354 0.950 . S
H5335 C5355 0.950 . S
H5336 C5357 0.950 . S
H5337 C5360 0.950 . S
H5338 C5361 0.950 . S
H5339 C5363 0.950 . S
H5340 C5364 0.950 . S
H5341 C5365 0.951 . S
H5342 C5367 0.951 . S
H5343 C5369 0.950 . S
H5344 C5370 0.950 . S
H5345 C5372 0.950 . S
H5346 C5375 0.950 . S
H5347 C5376 0.950 . S
H5348 C5378 0.950 . S
H5349 C5379 0.950 . S
C5350 H5332 0.951 . S
C5350 C5351 1.366 . S
C5350 C5352 1.388 . S
C5351 C5350 1.366 . S
C5351 C5355 1.385 . S
C5352 H5333 0.951 . S
C5352 C5350 1.388 . S
C5352 C5353 1.366 . S
C5353 C5352 1.366 . S
C5353 C5354 1.414 . S
C5353 C5356 1.499 . S
C5354 H5334 0.950 . S
C5354 C5353 1.414 . S
C5354 C5355 1.374 . S
C5355 H5335 0.950 . S
C5355 C5351 1.385 . S
C5355 C5354 1.374 . S
C5356 C5353 1.499 . S
C5356 C5357 1.373 . S
C5356 C5358 1.389 . S
C5357 H5336 0.950 . S
C5357 C5356 1.373 . S
C5357 C5373 1.377 . S
C5358 C5356 1.389 . S
C5358 C5359 1.524 . S
C5358 C5372 1.377 . S
C5359 C5358 1.524 . S
C5359 C5360 1.397 . S
C5359 C5364 1.363 . S
C5360 H5337 0.950 . S
C5360 C5359 1.397 . S
C5360 C5361 1.334 . S
C5361 H5338 0.950 . S
C5361 C5360 1.334 . S
C5361 C5362 1.287 . S
C5362 C5361 1.287 . S
C5362 C5363 1.524 . S
C5362 H5381 0.913 . S
C5363 H5339 0.950 . S
C5363 C5362 1.524 . S
C5363 C5364 1.415 . S
C5364 H5340 0.950 . S
C5364 C5359 1.363 . S
C5364 C5363 1.415 . S
C5365 H5341 0.951 . S
C5365 C5366 1.366 . S
C5365 C5367 1.388 . S
C5366 C5365 1.366 . S
C5366 C5370 1.385 . S
C5367 H5342 0.951 . S
C5367 C5365 1.388 . S
C5367 C5368 1.366 . S
C5368 C5367 1.366 . S
C5368 C5369 1.414 . S
C5368 C5371 1.499 . S
C5369 H5343 0.950 . S
C5369 C5368 1.414 . S
C5369 C5370 1.374 . S
C5370 H5344 0.950 . S
C5370 C5366 1.385 . S
C5370 C5369 1.374 . S
C5371 C5368 1.499 . S
C5371 C5372 1.373 . S
C5371 C5373 1.389 . S
C5372 H5345 0.950 . S
C5372 C5358 1.377 . S
C5372 C5371 1.373 . S
C5373 C5357 1.377 . S
C5373 C5371 1.389 . S
C5373 C5374 1.524 . S
C5374 C5373 1.524 . S
C5374 C5375 1.397 . S
C5374 C5379 1.363 . S
C5375 H5346 0.950 . S
C5375 C5374 1.397 . S
C5375 C5376 1.334 . S
C5376 H5347 0.950 . S
C5376 C5375 1.334 . S
C5376 C5377 1.287 . S
C5377 C5376 1.287 . S
C5377 C5378 1.524 . S
C5377 H5380 0.999 . S
C5378 H5348 0.950 . S
C5378 C5377 1.524 . S
C5378 C5379 1.415 . S
C5379 H5349 0.950 . S
C5379 C5374 1.363 . S
C5379 C5378 1.415 . S
H5380 C5377 0.999 . S
H5381 C5362 0.913 . S
H5382 C5400 0.951 . S
H5383 C5402 0.951 . S
H5384 C5404 0.950 . S
H5385 C5405 0.950 . S
H5386 C5407 0.950 . S
H5387 C5410 0.950 . S
H5388 C5411 0.950 . S
H5389 C5413 0.950 . S
H5390 C5414 0.950 . S
H5391 C5415 0.951 . S
H5392 C5417 0.951 . S
H5393 C5419 0.950 . S
H5394 C5420 0.950 . S
H5395 C5422 0.950 . S
H5396 C5425 0.950 . S
H5397 C5426 0.950 . S
H5398 C5428 0.950 . S
H5399 C5429 0.950 . S
C5400 H5382 0.951 . S
C5400 C5401 1.366 . S
C5400 C5402 1.388 . S
C5401 C5400 1.366 . S
C5401 C5405 1.385 . S
C5402 H5383 0.951 . S
C5402 C5400 1.388 . S
C5402 C5403 1.366 . S
C5403 C5402 1.366 . S
C5403 C5404 1.414 . S
C5403 C5406 1.499 . S
C5404 H5384 0.950 . S
C5404 C5403 1.414 . S
C5404 C5405 1.374 . S
C5405 H5385 0.950 . S
C5405 C5401 1.385 . S
C5405 C5404 1.374 . S
C5406 C5403 1.499 . S
C5406 C5407 1.373 . S
C5406 C5408 1.389 . S
C5407 H5386 0.950 . S
C5407 C5406 1.373 . S
C5407 C5423 1.377 . S
C5408 C5406 1.389 . S
C5408 C5409 1.524 . S
C5408 C5422 1.377 . S
C5409 C5408 1.524 . S
C5409 C5410 1.397 . S
C5409 C5414 1.363 . S
C5410 H5387 0.950 . S
C5410 C5409 1.397 . S
C5410 C5411 1.334 . S
C5411 H5388 0.950 . S
C5411 C5410 1.334 . S
C5411 C5412 1.287 . S
C5412 C5411 1.287 . S
C5412 C5413 1.524 . S
C5412 H5431 0.913 . S
C5413 H5389 0.950 . S
C5413 C5412 1.524 . S
C5413 C5414 1.415 . S
C5414 H5390 0.950 . S
C5414 C5409 1.363 . S
C5414 C5413 1.415 . S
C5415 H5391 0.951 . S
C5415 C5416 1.366 . S
C5415 C5417 1.388 . S
C5416 C5415 1.366 . S
C5416 C5420 1.385 . S
C5417 H5392 0.951 . S
C5417 C5415 1.388 . S
C5417 C5418 1.366 . S
C5418 C5417 1.366 . S
C5418 C5419 1.414 . S
C5418 C5421 1.499 . S
C5419 H5393 0.950 . S
C5419 C5418 1.414 . S
C5419 C5420 1.374 . S
C5420 H5394 0.950 . S
C5420 C5416 1.385 . S
C5420 C5419 1.374 . S
C5421 C5418 1.499 . S
C5421 C5422 1.373 . S
C5421 C5423 1.389 . S
C5422 H5395 0.950 . S
C5422 C5408 1.377 . S
C5422 C5421 1.373 . S
C5423 C5407 1.377 . S
C5423 C5421 1.389 . S
C5423 C5424 1.524 . S
C5424 C5423 1.524 . S
C5424 C5425 1.397 . S
C5424 C5429 1.363 . S
C5425 H5396 0.950 . S
C5425 C5424 1.397 . S
C5425 C5426 1.334 . S
C5426 H5397 0.950 . S
C5426 C5425 1.334 . S
C5426 C5427 1.287 . S
C5427 C5426 1.287 . S
C5427 C5428 1.524 . S
C5427 H5430 0.999 . S
C5428 H5398 0.950 . S
C5428 C5427 1.524 . S
C5428 C5429 1.415 . S
C5429 H5399 0.950 . S
C5429 C5424 1.363 . S
C5429 C5428 1.415 . S
H5430 C5427 0.999 . S
H5431 C5412 0.913 . S
H5432 C5450 0.951 . S
H5433 C5452 0.951 . S
H5434 C5454 0.950 . S
H5435 C5455 0.950 . S
H5436 C5457 0.950 . S
H5437 C5460 0.950 . S
H5438 C5461 0.950 . S
H5439 C5463 0.950 . S
H5440 C5464 0.950 . S
H5441 C5465 0.951 . S
H5442 C5467 0.951 . S
H5443 C5469 0.950 . S
H5444 C5470 0.950 . S
H5445 C5472 0.950 . S
H5446 C5475 0.950 . S
H5447 C5476 0.950 . S
H5448 C5478 0.950 . S
H5449 C5479 0.950 . S
C5450 H5432 0.951 . S
C5450 C5451 1.366 . S
C5450 C5452 1.388 . S
C5451 C5450 1.366 . S
C5451 C5455 1.385 . S
C5452 H5433 0.951 . S
C5452 C5450 1.388 . S
C5452 C5453 1.366 . S
C5453 C5452 1.366 . S
C5453 C5454 1.414 . S
C5453 C5456 1.499 . S
C5454 H5434 0.950 . S
C5454 C5453 1.414 . S
C5454 C5455 1.374 . S
C5455 H5435 0.950 . S
C5455 C5451 1.385 . S
C5455 C5454 1.374 . S
C5456 C5453 1.499 . S
C5456 C5457 1.373 . S
C5456 C5458 1.389 . S
C5457 H5436 0.950 . S
C5457 C5456 1.373 . S
C5457 C5473 1.377 . S
C5458 C5456 1.389 . S
C5458 C5459 1.524 . S
C5458 C5472 1.377 . S
C5459 C5458 1.524 . S
C5459 C5460 1.397 . S
C5459 C5464 1.363 . S
C5460 H5437 0.950 . S
C5460 C5459 1.397 . S
C5460 C5461 1.334 . S
C5461 H5438 0.950 . S
C5461 C5460 1.334 . S
C5461 C5462 1.287 . S
C5462 C5461 1.287 . S
C5462 C5463 1.524 . S
C5462 H5481 0.913 . S
C5463 H5439 0.950 . S
C5463 C5462 1.524 . S
C5463 C5464 1.415 . S
C5464 H5440 0.950 . S
C5464 C5459 1.363 . S
C5464 C5463 1.415 . S
C5465 H5441 0.951 . S
C5465 C5466 1.366 . S
C5465 C5467 1.388 . S
C5466 C5465 1.366 . S
C5466 C5470 1.385 . S
C5467 H5442 0.951 . S
C5467 C5465 1.388 . S
C5467 C5468 1.366 . S
C5468 C5467 1.366 . S
C5468 C5469 1.414 . S
C5468 C5471 1.499 . S
C5469 H5443 0.950 . S
C5469 C5468 1.414 . S
C5469 C5470 1.374 . S
C5470 H5444 0.950 . S
C5470 C5466 1.385 . S
C5470 C5469 1.374 . S
C5471 C5468 1.499 . S
C5471 C5472 1.373 . S
C5471 C5473 1.389 . S
C5472 H5445 0.950 . S
C5472 C5458 1.377 . S
C5472 C5471 1.373 . S
C5473 C5457 1.377 . S
C5473 C5471 1.389 . S
C5473 C5474 1.524 . S
C5474 C5473 1.524 . S
C5474 C5475 1.397 . S
C5474 C5479 1.363 . S
C5475 H5446 0.950 . S
C5475 C5474 1.397 . S
C5475 C5476 1.334 . S
C5476 H5447 0.950 . S
C5476 C5475 1.334 . S
C5476 C5477 1.287 . S
C5477 C5476 1.287 . S
C5477 C5478 1.524 . S
C5477 H5480 0.999 . S
C5478 H5448 0.950 . S
C5478 C5477 1.524 . S
C5478 C5479 1.415 . S
C5479 H5449 0.950 . S
C5479 C5474 1.363 . S
C5479 C5478 1.415 . S
H5480 C5477 0.999 . S
H5481 C5462 0.913 . S
H5482 C5500 0.951 . S
H5483 C5502 0.951 . S
H5484 C5504 0.950 . S
H5485 C5505 0.950 . S
H5486 C5507 0.950 1_655 S
H5487 C5510 0.938 1_655 S
H5488 C5511 0.950 . S
H5489 C5513 0.950 . S
H5490 C5514 0.950 . S
H5491 C5515 0.951 . S
H5492 C5517 0.951 . S
H5493 C5519 0.950 . S
H5494 C5520 0.950 . S
H5495 C5522 0.950 . S
H5496 C5525 0.950 . S
H5497 C5526 0.950 . S
H5498 C5528 0.950 . S
H5499 C5529 0.950 . S
C5500 H5482 0.951 . S
C5500 C5501 1.366 . S
C5500 C5502 1.388 . S
C5501 C5500 1.366 . S
C5501 C5505 1.385 . S
C5502 H5483 0.951 . S
C5502 C5500 1.388 . S
C5502 C5503 1.366 . S
C5503 C5502 1.366 . S
C5503 C5504 1.414 . S
C5503 C5506 1.499 1_655 S
C5504 H5484 0.950 . S
C5504 C5503 1.414 . S
C5504 C5505 1.374 . S
C5505 H5485 0.950 . S
C5505 C5501 1.385 . S
C5505 C5504 1.374 . S
C5506 C5503 1.499 1_455 S
C5506 C5507 1.373 . S
C5506 C5508 1.389 . S
C5507 H5486 0.950 1_455 S
C5507 C5506 1.373 . S
C5507 C5523 1.377 . S
C5508 C5506 1.389 . S
C5508 C5509 1.524 . S
C5508 C5522 1.377 . S
C5509 C5508 1.524 . S
C5509 C5510 1.413 . S
C5509 C5514 1.363 . S
C5510 H5487 0.938 1_455 S
C5510 C5509 1.413 . S
C5510 C5511 1.330 1_455 S
C5511 H5488 0.950 . S
C5511 C5510 1.330 1_655 S
C5511 C5512 1.287 1_655 S
C5512 C5511 1.287 1_455 S
C5512 C5513 1.524 . S
C5512 H5531 0.913 . S
C5513 H5489 0.950 . S
C5513 C5512 1.524 . S
C5513 C5514 1.415 . S
C5514 H5490 0.950 . S
C5514 C5509 1.363 . S
C5514 C5513 1.415 . S
C5515 H5491 0.951 . S
C5515 C5516 1.366 . S
C5515 C5517 1.388 . S
C5516 C5515 1.366 . S
C5516 C5520 1.385 . S
C5517 H5492 0.951 . S
C5517 C5515 1.388 . S
C5517 C5518 1.366 . S
C5518 C5517 1.366 . S
C5518 C5519 1.414 . S
C5518 C5521 1.499 . S
C5519 H5493 0.950 . S
C5519 C5518 1.414 . S
C5519 C5520 1.374 . S
C5520 H5494 0.950 . S
C5520 C5516 1.385 . S
C5520 C5519 1.374 . S
C5521 C5518 1.499 . S
C5521 C5522 1.373 . S
C5521 C5523 1.389 . S
C5522 H5495 0.950 . S
C5522 C5508 1.377 . S
C5522 C5521 1.373 . S
C5523 C5507 1.377 . S
C5523 C5521 1.389 . S
C5523 C5524 1.524 . S
C5524 C5523 1.524 . S
C5524 C5525 1.397 . S
C5524 C5529 1.363 . S
C5525 H5496 0.950 . S
C5525 C5524 1.397 . S
C5525 C5526 1.334 . S
C5526 H5497 0.950 . S
C5526 C5525 1.334 . S
C5526 C5527 1.287 . S
C5527 C5526 1.287 . S
C5527 C5528 1.524 . S
C5527 H5530 0.999 . S
C5528 H5498 0.950 . S
C5528 C5527 1.524 . S
C5528 C5529 1.415 . S
C5529 H5499 0.950 . S
C5529 C5524 1.363 . S
C5529 C5528 1.415 . S
H5530 C5527 0.999 . S
H5531 C5512 0.913 . S
H5532 C5550 0.951 . S
H5533 C5552 0.951 . S
H5534 C5554 0.950 . S
H5535 C5555 0.950 . S
H5536 C5557 0.950 . S
H5537 C5560 0.950 . S
H5538 C5561 0.950 . S
H5539 C5563 0.950 . S
H5540 C5564 0.950 . S
H5541 C5565 0.951 . S
H5542 C5567 0.951 . S
H5543 C5569 0.950 . S
H5544 C5570 0.950 . S
H5545 C5572 0.950 . S
H5546 C5575 0.950 . S
H5547 C5576 0.950 . S
H5548 C5578 0.950 . S
H5549 C5579 0.950 . S
C5550 H5532 0.951 . S
C5550 C5551 1.366 . S
C5550 C5552 1.388 . S
C5551 C5550 1.366 . S
C5551 C5555 1.385 . S
C5552 H5533 0.951 . S
C5552 C5550 1.388 . S
C5552 C5553 1.366 . S
C5553 C5552 1.366 . S
C5553 C5554 1.414 . S
C5553 C5556 1.499 . S
C5554 H5534 0.950 . S
C5554 C5553 1.414 . S
C5554 C5555 1.374 . S
C5555 H5535 0.950 . S
C5555 C5551 1.385 . S
C5555 C5554 1.374 . S
C5556 C5553 1.499 . S
C5556 C5557 1.373 . S
C5556 C5558 1.389 . S
C5557 H5536 0.950 . S
C5557 C5556 1.373 . S
C5557 C5573 1.377 . S
C5558 C5556 1.389 . S
C5558 C5559 1.524 . S
C5558 C5572 1.377 . S
C5559 C5558 1.524 . S
C5559 C5560 1.397 . S
C5559 C5564 1.363 . S
C5560 H5537 0.950 . S
C5560 C5559 1.397 . S
C5560 C5561 1.334 . S
C5561 H5538 0.950 . S
C5561 C5560 1.334 . S
C5561 C5562 1.287 . S
C5562 C5561 1.287 . S
C5562 C5563 1.524 . S
C5562 H5581 0.913 . S
C5563 H5539 0.950 . S
C5563 C5562 1.524 . S
C5563 C5564 1.415 . S
C5564 H5540 0.950 . S
C5564 C5559 1.363 . S
C5564 C5563 1.415 . S
C5565 H5541 0.951 . S
C5565 C5566 1.366 . S
C5565 C5567 1.388 . S
C5566 C5565 1.366 . S
C5566 C5570 1.385 . S
C5567 H5542 0.951 . S
C5567 C5565 1.388 . S
C5567 C5568 1.366 . S
C5568 C5567 1.366 . S
C5568 C5569 1.414 . S
C5568 C5571 1.499 . S
C5569 H5543 0.950 . S
C5569 C5568 1.414 . S
C5569 C5570 1.374 . S
C5570 H5544 0.950 . S
C5570 C5566 1.385 . S
C5570 C5569 1.374 . S
C5571 C5568 1.499 . S
C5571 C5572 1.373 . S
C5571 C5573 1.389 . S
C5572 H5545 0.950 . S
C5572 C5558 1.377 . S
C5572 C5571 1.373 . S
C5573 C5557 1.377 . S
C5573 C5571 1.389 . S
C5573 C5574 1.524 . S
C5574 C5573 1.524 . S
C5574 C5575 1.397 . S
C5574 C5579 1.363 . S
C5575 H5546 0.950 . S
C5575 C5574 1.397 . S
C5575 C5576 1.334 . S
C5576 H5547 0.950 . S
C5576 C5575 1.334 . S
C5576 C5577 1.287 . S
C5577 C5576 1.287 . S
C5577 C5578 1.524 . S
C5577 H5580 0.999 . S
C5578 H5548 0.950 . S
C5578 C5577 1.524 . S
C5578 C5579 1.415 . S
C5579 H5549 0.950 . S
C5579 C5574 1.363 . S
C5579 C5578 1.415 . S
H5580 C5577 0.999 . S
H5581 C5562 0.913 . S
H5582 C5600 0.951 . S
H5583 C5602 0.951 . S
H5584 C5604 0.950 . S
H5585 C5605 0.950 . S
H5586 C5607 0.950 . S
H5587 C5610 0.950 . S
H5588 C5611 0.950 . S
H5589 C5613 0.950 . S
H5590 C5614 0.950 . S
H5591 C5615 0.951 . S
H5592 C5617 0.951 . S
H5593 C5619 0.950 . S
H5594 C5620 0.950 . S
H5595 C5622 0.950 1_455 S
H5596 C5625 0.950 1_455 S
H5597 C5626 0.963 . S
H5598 C5628 0.950 . S
H5599 C5629 0.950 . S
C5600 H5582 0.951 . S
C5600 C5601 1.366 . S
C5600 C5602 1.388 . S
C5601 C5600 1.366 . S
C5601 C5605 1.385 . S
C5602 H5583 0.951 . S
C5602 C5600 1.388 . S
C5602 C5603 1.366 . S
C5603 C5602 1.366 . S
C5603 C5604 1.414 . S
C5603 C5606 1.499 . S
C5604 H5584 0.950 . S
C5604 C5603 1.414 . S
C5604 C5605 1.374 . S
C5605 H5585 0.950 . S
C5605 C5601 1.385 . S
C5605 C5604 1.374 . S
C5606 C5603 1.499 . S
C5606 C5607 1.373 . S
C5606 C5608 1.389 . S
C5607 H5586 0.950 . S
C5607 C5606 1.373 . S
C5607 C5623 1.377 . S
C5608 C5606 1.389 . S
C5608 C5609 1.524 . S
C5608 C5622 1.377 . S
C5609 C5608 1.524 . S
C5609 C5610 1.397 . S
C5609 C5614 1.363 . S
C5610 H5587 0.950 . S
C5610 C5609 1.397 . S
C5610 C5611 1.334 . S
C5611 H5588 0.950 . S
C5611 C5610 1.334 . S
C5611 C5612 1.287 . S
C5612 C5611 1.287 . S
C5612 C5613 1.524 . S
C5612 H5631 0.913 . S
C5613 H5589 0.950 . S
C5613 C5612 1.524 . S
C5613 C5614 1.415 . S
C5614 H5590 0.950 . S
C5614 C5609 1.363 . S
C5614 C5613 1.415 . S
C5615 H5591 0.951 . S
C5615 C5616 1.366 . S
C5615 C5617 1.388 . S
C5616 C5615 1.366 . S
C5616 C5620 1.385 . S
C5617 H5592 0.951 . S
C5617 C5615 1.388 . S
C5617 C5618 1.366 . S
C5618 C5617 1.366 . S
C5618 C5619 1.414 . S
C5618 C5621 1.499 1_455 S
C5619 H5593 0.950 . S
C5619 C5618 1.414 . S
C5619 C5620 1.374 . S
C5620 H5594 0.950 . S
C5620 C5616 1.385 . S
C5620 C5619 1.374 . S
C5621 C5618 1.499 1_655 S
C5621 C5622 1.373 . S
C5621 C5623 1.389 . S
C5622 H5595 0.950 1_655 S
C5622 C5608 1.377 . S
C5622 C5621 1.373 . S
C5623 C5607 1.377 . S
C5623 C5621 1.389 . S
C5623 C5624 1.524 . S
C5624 C5623 1.524 . S
C5624 C5625 1.397 . S
C5624 C5629 1.363 . S
C5625 H5596 0.950 1_655 S
C5625 C5624 1.397 . S
C5625 C5626 1.332 1_655 S
C5626 H5597 0.963 . S
C5626 C5625 1.332 1_455 S
C5626 C5627 1.276 1_455 S
C5627 C5626 1.276 1_655 S
C5627 C5628 1.524 . S
C5627 H5630 0.999 . S
C5628 H5598 0.950 . S
C5628 C5627 1.524 . S
C5628 C5629 1.415 . S
C5629 H5599 0.950 . S
C5629 C5624 1.363 . S
C5629 C5628 1.415 . S
H5630 C5627 0.999 . S
H5631 C5612 0.913 . S
H5632 C5650 0.951 . S
H5633 C5652 0.951 . S
H5634 C5654 0.950 . S
H5635 C5655 0.950 . S
H5636 C5657 0.950 . S
H5637 C5660 0.950 . S
H5638 C5661 0.950 . S
H5639 C5663 0.950 . S
H5640 C5664 0.950 . S
H5641 C5665 0.951 . S
H5642 C5667 0.951 . S
H5643 C5669 0.950 . S
H5644 C5670 0.950 . S
H5645 C5672 0.950 . S
H5646 C5675 0.950 . S
H5647 C5676 0.950 . S
H5648 C5678 0.950 . S
H5649 C5679 0.950 . S
C5650 H5632 0.951 . S
C5650 C5651 1.366 . S
C5650 C5652 1.388 . S
C5651 C5650 1.366 . S
C5651 C5655 1.385 . S
C5652 H5633 0.951 . S
C5652 C5650 1.388 . S
C5652 C5653 1.366 . S
C5653 C5652 1.366 . S
C5653 C5654 1.414 . S
C5653 C5656 1.499 . S
C5654 H5634 0.950 . S
C5654 C5653 1.414 . S
C5654 C5655 1.374 . S
C5655 H5635 0.950 . S
C5655 C5651 1.385 . S
C5655 C5654 1.374 . S
C5656 C5653 1.499 . S
C5656 C5657 1.373 . S
C5656 C5658 1.389 . S
C5657 H5636 0.950 . S
C5657 C5656 1.373 . S
C5657 C5673 1.377 . S
C5658 C5656 1.389 . S
C5658 C5659 1.524 . S
C5658 C5672 1.377 . S
C5659 C5658 1.524 . S
C5659 C5660 1.397 . S
C5659 C5664 1.363 . S
C5660 H5637 0.950 . S
C5660 C5659 1.397 . S
C5660 C5661 1.334 . S
C5661 H5638 0.950 . S
C5661 C5660 1.334 . S
C5661 C5662 1.287 . S
C5662 C5661 1.287 . S
C5662 C5663 1.524 . S
C5662 H5681 0.913 . S
C5663 H5639 0.950 . S
C5663 C5662 1.524 . S
C5663 C5664 1.415 . S
C5664 H5640 0.950 . S
C5664 C5659 1.363 . S
C5664 C5663 1.415 . S
C5665 H5641 0.951 . S
C5665 C5666 1.366 . S
C5665 C5667 1.388 . S
C5666 C5665 1.366 . S
C5666 C5670 1.385 . S
C5667 H5642 0.951 . S
C5667 C5665 1.388 . S
C5667 C5668 1.366 . S
C5668 C5667 1.366 . S
C5668 C5669 1.414 . S
C5668 C5671 1.499 . S
C5669 H5643 0.950 . S
C5669 C5668 1.414 . S
C5669 C5670 1.374 . S
C5670 H5644 0.950 . S
C5670 C5666 1.385 . S
C5670 C5669 1.374 . S
C5671 C5668 1.499 . S
C5671 C5672 1.373 . S
C5671 C5673 1.389 . S
C5672 H5645 0.950 . S
C5672 C5658 1.377 . S
C5672 C5671 1.373 . S
C5673 C5657 1.377 . S
C5673 C5671 1.389 . S
C5673 C5674 1.524 . S
C5674 C5673 1.524 . S
C5674 C5675 1.397 . S
C5674 C5679 1.363 . S
C5675 H5646 0.950 . S
C5675 C5674 1.397 . S
C5675 C5676 1.334 . S
C5676 H5647 0.950 . S
C5676 C5675 1.334 . S
C5676 C5677 1.287 . S
C5677 C5676 1.287 . S
C5677 C5678 1.524 . S
C5677 H5680 0.999 . S
C5678 H5648 0.950 . S
C5678 C5677 1.524 . S
C5678 C5679 1.415 . S
C5679 H5649 0.950 . S
C5679 C5674 1.363 . S
C5679 C5678 1.415 . S
H5680 C5677 0.999 . S
H5681 C5662 0.913 . S
H5682 C5700 0.951 . S
H5683 C5702 0.951 . S
H5684 C5704 0.950 . S
H5685 C5705 0.950 . S
H5686 C5707 0.950 . S
H5687 C5710 0.950 . S
H5688 C5711 0.950 . S
H5689 C5713 0.950 . S
H5690 C5714 0.950 . S
H5691 C5715 0.951 . S
H5692 C5717 0.951 . S
H5693 C5719 0.950 . S
H5694 C5720 0.950 . S
H5695 C5722 0.950 . S
H5696 C5725 0.950 . S
H5697 C5726 0.950 . S
H5698 C5728 0.950 . S
H5699 C5729 0.950 1_554 S
C5700 H5682 0.951 . S
C5700 C5701 1.366 . S
C5700 C5702 1.388 . S
C5701 C5700 1.366 . S
C5701 C5705 1.385 . S
C5702 H5683 0.951 . S
C5702 C5700 1.388 . S
C5702 C5703 1.366 . S
C5703 C5702 1.366 . S
C5703 C5704 1.414 . S
C5703 C5706 1.499 . S
C5704 H5684 0.950 . S
C5704 C5703 1.414 . S
C5704 C5705 1.374 . S
C5705 H5685 0.950 . S
C5705 C5701 1.385 . S
C5705 C5704 1.374 . S
C5706 C5703 1.499 . S
C5706 C5707 1.373 . S
C5706 C5708 1.389 . S
C5707 H5686 0.950 . S
C5707 C5706 1.373 . S
C5707 C5723 1.377 . S
C5708 C5706 1.389 . S
C5708 C5709 1.524 . S
C5708 C5722 1.377 . S
C5709 C5708 1.524 . S
C5709 C5710 1.397 . S
C5709 C5714 1.363 . S
C5710 H5687 0.950 . S
C5710 C5709 1.397 . S
C5710 C5711 1.334 . S
C5711 H5688 0.950 . S
C5711 C5710 1.334 . S
C5711 C5712 1.287 . S
C5712 C5711 1.287 . S
C5712 C5713 1.524 . S
C5712 H5731 0.913 . S
C5713 H5689 0.950 . S
C5713 C5712 1.524 . S
C5713 C5714 1.415 . S
C5714 H5690 0.950 . S
C5714 C5709 1.363 . S
C5714 C5713 1.415 . S
C5715 H5691 0.951 . S
C5715 C5716 1.366 . S
C5715 C5717 1.388 . S
C5716 C5715 1.366 . S
C5716 C5720 1.385 . S
C5717 H5692 0.951 . S
C5717 C5715 1.388 . S
C5717 C5718 1.366 . S
C5718 C5717 1.366 . S
C5718 C5719 1.414 . S
C5718 C5721 1.499 1_556 S
C5719 H5693 0.950 . S
C5719 C5718 1.414 . S
C5719 C5720 1.374 . S
C5720 H5694 0.950 . S
C5720 C5716 1.385 . S
C5720 C5719 1.374 . S
C5721 C5718 1.499 1_554 S
C5721 C5722 1.373 . S
C5721 C5723 1.389 . S
C5722 H5695 0.950 . S
C5722 C5708 1.377 . S
C5722 C5721 1.373 . S
C5723 C5707 1.377 . S
C5723 C5721 1.389 . S
C5723 C5724 1.521 . S
C5724 C5723 1.521 . S
C5724 C5725 1.399 1_554 S
C5724 C5729 1.363 1_554 S
C5725 H5696 0.950 . S
C5725 C5724 1.399 1_556 S
C5725 C5726 1.334 . S
C5726 H5697 0.950 . S
C5726 C5725 1.334 . S
C5726 C5727 1.287 . S
C5727 C5726 1.287 . S
C5727 C5728 1.524 . S
C5727 H5730 0.999 . S
C5728 H5698 0.950 . S
C5728 C5727 1.524 . S
C5728 C5729 1.415 . S
C5729 H5699 0.950 1_556 S
C5729 C5724 1.363 1_556 S
C5729 C5728 1.415 . S
H5730 C5727 0.999 . S
H5731 C5712 0.913 . S
H5732 C5750 0.951 . S
H5733 C5752 0.951 . S
H5734 C5754 0.950 . S
H5735 C5755 0.950 . S
H5736 C5757 0.950 . S
H5737 C5760 0.950 . S
H5738 C5761 0.950 . S
H5739 C5763 0.950 . S
H5740 C5764 0.950 . S
H5741 C5765 0.951 . S
H5742 C5767 0.951 . S
H5743 C5769 0.950 . S
H5744 C5770 0.950 . S
H5745 C5772 0.950 . S
H5746 C5775 0.950 . S
H5747 C5776 0.950 . S
H5748 C5778 0.950 . S
H5749 C5779 0.950 . S
C5750 H5732 0.951 . S
C5750 C5751 1.366 . S
C5750 C5752 1.388 . S
C5751 C5750 1.366 . S
C5751 C5755 1.385 . S
C5752 H5733 0.951 . S
C5752 C5750 1.388 . S
C5752 C5753 1.366 . S
C5753 C5752 1.366 . S
C5753 C5754 1.414 . S
C5753 C5756 1.499 . S
C5754 H5734 0.950 . S
C5754 C5753 1.414 . S
C5754 C5755 1.374 . S
C5755 H5735 0.950 . S
C5755 C5751 1.385 . S
C5755 C5754 1.374 . S
C5756 C5753 1.499 . S
C5756 C5757 1.373 . S
C5756 C5758 1.389 . S
C5757 H5736 0.950 . S
C5757 C5756 1.373 . S
C5757 C5773 1.377 . S
C5758 C5756 1.389 . S
C5758 C5759 1.524 . S
C5758 C5772 1.377 . S
C5759 C5758 1.524 . S
C5759 C5760 1.397 . S
C5759 C5764 1.363 . S
C5760 H5737 0.950 . S
C5760 C5759 1.397 . S
C5760 C5761 1.334 . S
C5761 H5738 0.950 . S
C5761 C5760 1.334 . S
C5761 C5762 1.287 . S
C5762 C5761 1.287 . S
C5762 C5763 1.524 . S
C5762 H5781 0.913 . S
C5763 H5739 0.950 . S
C5763 C5762 1.524 . S
C5763 C5764 1.415 . S
C5764 H5740 0.950 . S
C5764 C5759 1.363 . S
C5764 C5763 1.415 . S
C5765 H5741 0.951 . S
C5765 C5766 1.366 . S
C5765 C5767 1.388 . S
C5766 C5765 1.366 . S
C5766 C5770 1.385 . S
C5767 H5742 0.951 . S
C5767 C5765 1.388 . S
C5767 C5768 1.366 . S
C5768 C5767 1.366 . S
C5768 C5769 1.414 . S
C5768 C5771 1.499 . S
C5769 H5743 0.950 . S
C5769 C5768 1.414 . S
C5769 C5770 1.374 . S
C5770 H5744 0.950 . S
C5770 C5766 1.385 . S
C5770 C5769 1.374 . S
C5771 C5768 1.499 . S
C5771 C5772 1.373 . S
C5771 C5773 1.389 . S
C5772 H5745 0.950 . S
C5772 C5758 1.377 . S
C5772 C5771 1.373 . S
C5773 C5757 1.377 . S
C5773 C5771 1.389 . S
C5773 C5774 1.524 . S
C5774 C5773 1.524 . S
C5774 C5775 1.397 . S
C5774 C5779 1.363 . S
C5775 H5746 0.950 . S
C5775 C5774 1.397 . S
C5775 C5776 1.334 . S
C5776 H5747 0.950 . S
C5776 C5775 1.334 . S
C5776 C5777 1.287 . S
C5777 C5776 1.287 . S
C5777 C5778 1.524 . S
C5777 H5780 0.999 . S
C5778 H5748 0.950 . S
C5778 C5777 1.524 . S
C5778 C5779 1.415 . S
C5779 H5749 0.950 . S
C5779 C5774 1.363 . S
C5779 C5778 1.415 . S
H5780 C5777 0.999 . S
H5781 C5762 0.913 . S
H5782 C5800 0.951 . S
H5783 C5802 0.951 . S
H5784 C5804 0.950 . S
H5785 C5805 0.950 . S
H5786 C5807 0.950 . S
H5787 C5810 0.950 . S
H5788 C5811 0.950 . S
H5789 C5813 0.950 . S
H5790 C5814 0.950 . S
H5791 C5815 0.951 . S
H5792 C5817 0.951 . S
H5793 C5819 0.950 . S
H5794 C5820 0.950 . S
H5795 C5822 0.950 . S
H5796 C5825 0.950 . S
H5797 C5826 0.950 . S
H5798 C5828 0.950 . S
H5799 C5829 0.960 . S
C5800 H5782 0.951 . S
C5800 C5801 1.366 . S
C5800 C5802 1.388 . S
C5801 C5800 1.366 . S
C5801 C5805 1.385 . S
C5802 H5783 0.951 . S
C5802 C5800 1.388 . S
C5802 C5803 1.366 . S
C5803 C5802 1.366 . S
C5803 C5804 1.414 . S
C5803 C5806 1.499 . S
C5804 H5784 0.950 . S
C5804 C5803 1.414 . S
C5804 C5805 1.374 . S
C5805 H5785 0.950 . S
C5805 C5801 1.385 . S
C5805 C5804 1.374 . S
C5806 C5803 1.499 . S
C5806 C5807 1.373 . S
C5806 C5808 1.389 . S
C5807 H5786 0.950 . S
C5807 C5806 1.373 . S
C5807 C5823 1.377 . S
C5808 C5806 1.389 . S
C5808 C5809 1.524 . S
C5808 C5822 1.377 . S
C5809 C5808 1.524 . S
C5809 C5810 1.397 . S
C5809 C5814 1.363 . S
C5810 H5787 0.950 . S
C5810 C5809 1.397 . S
C5810 C5811 1.334 . S
C5811 H5788 0.950 . S
C5811 C5810 1.334 . S
C5811 C5812 1.287 . S
C5812 C5811 1.287 . S
C5812 C5813 1.524 . S
C5812 H5831 0.913 . S
C5813 H5789 0.950 . S
C5813 C5812 1.524 . S
C5813 C5814 1.415 . S
C5814 H5790 0.950 . S
C5814 C5809 1.363 . S
C5814 C5813 1.415 . S
C5815 H5791 0.951 . S
C5815 C5816 1.366 . S
C5815 C5817 1.388 . S
C5816 C5815 1.366 . S
C5816 C5820 1.385 . S
C5817 H5792 0.951 . S
C5817 C5815 1.388 . S
C5817 C5818 1.366 . S
C5818 C5817 1.366 . S
C5818 C5819 1.414 . S
C5818 C5821 1.499 1_556 S
C5819 H5793 0.950 . S
C5819 C5818 1.414 . S
C5819 C5820 1.374 . S
C5820 H5794 0.950 . S
C5820 C5816 1.385 . S
C5820 C5819 1.374 . S
C5821 C5818 1.499 1_554 S
C5821 C5822 1.373 . S
C5821 C5823 1.389 . S
C5822 H5795 0.950 . S
C5822 C5808 1.377 . S
C5822 C5821 1.373 . S
C5823 C5807 1.377 . S
C5823 C5821 1.389 . S
C5823 C5824 1.524 1_554 S
C5824 C5823 1.524 1_556 S
C5824 C5825 1.397 . S
C5824 C5829 1.363 . S
C5825 H5796 0.950 . S
C5825 C5824 1.397 . S
C5825 C5826 1.334 . S
C5826 H5797 0.950 . S
C5826 C5825 1.334 . S
C5826 C5827 1.287 . S
C5827 C5826 1.287 . S
C5827 C5828 1.524 . S
C5827 H5830 0.999 . S
C5828 H5798 0.950 . S
C5828 C5827 1.524 . S
C5828 C5829 1.415 . S
C5829 H5799 0.960 . S
C5829 C5824 1.363 . S
C5829 C5828 1.415 . S
H5830 C5827 0.999 . S
H5831 C5812 0.913 . S
H5832 C5850 0.951 . S
H5833 C5852 0.951 . S
H5834 C5854 0.950 . S
H5835 C5855 0.950 . S
H5836 C5857 0.950 . S
H5837 C5860 0.950 . S
H5838 C5861 0.950 . S
H5839 C5863 0.950 . S
H5840 C5864 0.950 . S
H5841 C5865 0.951 . S
H5842 C5867 0.951 . S
H5843 C5869 0.950 . S
H5844 C5870 0.950 . S
H5845 C5872 0.950 . S
H5846 C5875 0.950 . S
H5847 C5876 0.950 . S
H5848 C5878 0.950 . S
H5849 C5879 0.950 . S
C5850 H5832 0.951 . S
C5850 C5851 1.366 . S
C5850 C5852 1.388 . S
C5851 C5850 1.366 . S
C5851 C5855 1.385 . S
C5852 H5833 0.951 . S
C5852 C5850 1.388 . S
C5852 C5853 1.366 . S
C5853 C5852 1.366 . S
C5853 C5854 1.414 . S
C5853 C5856 1.499 . S
C5854 H5834 0.950 . S
C5854 C5853 1.414 . S
C5854 C5855 1.374 . S
C5855 H5835 0.950 . S
C5855 C5851 1.385 . S
C5855 C5854 1.374 . S
C5856 C5853 1.499 . S
C5856 C5857 1.373 . S
C5856 C5858 1.389 . S
C5857 H5836 0.950 . S
C5857 C5856 1.373 . S
C5857 C5873 1.377 . S
C5858 C5856 1.389 . S
C5858 C5859 1.524 . S
C5858 C5872 1.377 . S
C5859 C5858 1.524 . S
C5859 C5860 1.397 . S
C5859 C5864 1.363 . S
C5860 H5837 0.950 . S
C5860 C5859 1.397 . S
C5860 C5861 1.334 . S
C5861 H5838 0.950 . S
C5861 C5860 1.334 . S
C5861 C5862 1.287 . S
C5862 C5861 1.287 . S
C5862 C5863 1.524 . S
C5862 H5881 0.913 . S
C5863 H5839 0.950 . S
C5863 C5862 1.524 . S
C5863 C5864 1.415 . S
C5864 H5840 0.950 . S
C5864 C5859 1.363 . S
C5864 C5863 1.415 . S
C5865 H5841 0.951 . S
C5865 C5866 1.366 . S
C5865 C5867 1.388 . S
C5866 C5865 1.366 . S
C5866 C5870 1.385 . S
C5867 H5842 0.951 . S
C5867 C5865 1.388 . S
C5867 C5868 1.366 . S
C5868 C5867 1.366 . S
C5868 C5869 1.414 . S
C5868 C5871 1.499 . S
C5869 H5843 0.950 . S
C5869 C5868 1.414 . S
C5869 C5870 1.374 . S
C5870 H5844 0.950 . S
C5870 C5866 1.385 . S
C5870 C5869 1.374 . S
C5871 C5868 1.499 . S
C5871 C5872 1.373 . S
C5871 C5873 1.389 . S
C5872 H5845 0.950 . S
C5872 C5858 1.377 . S
C5872 C5871 1.373 . S
C5873 C5857 1.377 . S
C5873 C5871 1.389 . S
C5873 C5874 1.524 . S
C5874 C5873 1.524 . S
C5874 C5875 1.397 . S
C5874 C5879 1.363 . S
C5875 H5846 0.950 . S
C5875 C5874 1.397 . S
C5875 C5876 1.334 . S
C5876 H5847 0.950 . S
C5876 C5875 1.334 . S
C5876 C5877 1.287 . S
C5877 C5876 1.287 . S
C5877 C5878 1.524 . S
C5877 H5880 0.999 . S
C5878 H5848 0.950 . S
C5878 C5877 1.524 . S
C5878 C5879 1.415 . S
C5879 H5849 0.950 . S
C5879 C5874 1.363 . S
C5879 C5878 1.415 . S
H5880 C5877 0.999 . S
H5881 C5862 0.913 . S
H5882 C5900 0.951 . S
H5883 C5902 0.951 . S
H5884 C5904 0.950 . S
H5885 C5905 0.950 . S
H5886 C5907 0.950 . S
H5887 C5910 0.950 . S
H5888 C5911 0.950 . S
H5889 C5913 0.950 . S
H5890 C5914 0.950 . S
H5891 C5915 0.951 . S
H5892 C5917 0.951 . S
H5893 C5919 0.950 . S
H5894 C5920 0.950 . S
H5895 C5922 0.950 . S
H5896 C5925 0.950 . S
H5897 C5926 0.950 . S
H5898 C5928 0.952 . S
H5899 C5929 0.950 . S
C5900 H5882 0.951 . S
C5900 C5901 1.366 . S
C5900 C5902 1.388 . S
C5901 C5900 1.366 . S
C5901 C5905 1.385 . S
C5902 H5883 0.951 . S
C5902 C5900 1.388 . S
C5902 C5903 1.366 . S
C5903 C5902 1.366 . S
C5903 C5904 1.414 . S
C5903 C5906 1.499 . S
C5904 H5884 0.950 . S
C5904 C5903 1.414 . S
C5904 C5905 1.374 . S
C5905 H5885 0.950 . S
C5905 C5901 1.385 . S
C5905 C5904 1.374 . S
C5906 C5903 1.499 . S
C5906 C5907 1.373 . S
C5906 C5908 1.389 . S
C5907 H5886 0.950 . S
C5907 C5906 1.373 . S
C5907 C5923 1.377 . S
C5908 C5906 1.389 . S
C5908 C5909 1.524 . S
C5908 C5922 1.377 . S
C5909 C5908 1.524 . S
C5909 C5910 1.397 . S
C5909 C5914 1.363 . S
C5910 H5887 0.950 . S
C5910 C5909 1.397 . S
C5910 C5911 1.334 . S
C5911 H5888 0.950 . S
C5911 C5910 1.334 . S
C5911 C5912 1.287 . S
C5912 C5911 1.287 . S
C5912 C5913 1.524 . S
C5912 H5931 0.913 . S
C5913 H5889 0.950 . S
C5913 C5912 1.524 . S
C5913 C5914 1.415 . S
C5914 H5890 0.950 . S
C5914 C5909 1.363 . S
C5914 C5913 1.415 . S
C5915 H5891 0.951 . S
C5915 C5916 1.366 . S
C5915 C5917 1.388 . S
C5916 C5915 1.366 . S
C5916 C5920 1.385 . S
C5917 H5892 0.951 . S
C5917 C5915 1.388 . S
C5917 C5918 1.366 . S
C5918 C5917 1.366 . S
C5918 C5919 1.414 . S
C5918 C5921 1.499 1_554 S
C5919 H5893 0.950 . S
C5919 C5918 1.414 . S
C5919 C5920 1.374 . S
C5920 H5894 0.950 . S
C5920 C5916 1.385 . S
C5920 C5919 1.374 . S
C5921 C5918 1.499 1_556 S
C5921 C5922 1.373 . S
C5921 C5923 1.389 . S
C5922 H5895 0.950 . S
C5922 C5908 1.377 . S
C5922 C5921 1.373 . S
C5923 C5907 1.377 . S
C5923 C5921 1.389 . S
C5923 C5924 1.524 . S
C5924 C5923 1.524 . S
C5924 C5925 1.397 . S
C5924 C5929 1.363 . S
C5925 H5896 0.950 . S
C5925 C5924 1.397 . S
C5925 C5926 1.334 1_556 S
C5926 H5897 0.950 . S
C5926 C5925 1.334 1_554 S
C5926 C5927 1.287 . S
C5927 C5926 1.287 . S
C5927 C5928 1.524 1_554 S
C5927 H5930 0.999 . S
C5928 H5898 0.952 . S
C5928 C5927 1.524 1_556 S
C5928 C5929 1.415 . S
C5929 H5899 0.950 . S
C5929 C5924 1.363 . S
C5929 C5928 1.415 . S
H5930 C5927 0.999 . S
H5931 C5912 0.913 . S
H5932 C5950 0.951 . S
H5933 C5952 0.951 . S
H5934 C5954 0.950 . S
H5935 C5955 0.950 . S
H5936 C5957 0.950 . S
H5937 C5960 0.950 . S
H5938 C5961 0.950 . S
H5939 C5963 0.950 . S
H5940 C5964 0.950 . S
H5941 C5965 0.951 . S
H5942 C5967 0.951 . S
H5943 C5969 0.950 . S
H5944 C5970 0.950 . S
H5945 C5972 0.950 . S
H5946 C5975 0.950 . S
H5947 C5976 0.950 . S
H5948 C5978 0.950 . S
H5949 C5979 0.950 . S
C5950 H5932 0.951 . S
C5950 C5951 1.366 . S
C5950 C5952 1.388 . S
C5951 C5950 1.366 . S
C5951 C5955 1.385 . S
C5952 H5933 0.951 . S
C5952 C5950 1.388 . S
C5952 C5953 1.366 . S
C5953 C5952 1.366 . S
C5953 C5954 1.414 . S
C5953 C5956 1.499 . S
C5954 H5934 0.950 . S
C5954 C5953 1.414 . S
C5954 C5955 1.374 . S
C5955 H5935 0.950 . S
C5955 C5951 1.385 . S
C5955 C5954 1.374 . S
C5956 C5953 1.499 . S
C5956 C5957 1.373 . S
C5956 C5958 1.389 . S
C5957 H5936 0.950 . S
C5957 C5956 1.373 . S
C5957 C5973 1.377 . S
C5958 C5956 1.389 . S
C5958 C5959 1.524 . S
C5958 C5972 1.377 . S
C5959 C5958 1.524 . S
C5959 C5960 1.397 . S
C5959 C5964 1.363 . S
C5960 H5937 0.950 . S
C5960 C5959 1.397 . S
C5960 C5961 1.334 . S
C5961 H5938 0.950 . S
C5961 C5960 1.334 . S
C5961 C5962 1.287 . S
C5962 C5961 1.287 . S
C5962 C5963 1.524 . S
C5962 H5981 0.913 . S
C5963 H5939 0.950 . S
C5963 C5962 1.524 . S
C5963 C5964 1.415 . S
C5964 H5940 0.950 . S
C5964 C5959 1.363 . S
C5964 C5963 1.415 . S
C5965 H5941 0.951 . S
C5965 C5966 1.366 . S
C5965 C5967 1.388 . S
C5966 C5965 1.366 . S
C5966 C5970 1.385 . S
C5967 H5942 0.951 . S
C5967 C5965 1.388 . S
C5967 C5968 1.366 . S
C5968 C5967 1.366 . S
C5968 C5969 1.414 . S
C5968 C5971 1.499 . S
C5969 H5943 0.950 . S
C5969 C5968 1.414 . S
C5969 C5970 1.374 . S
C5970 H5944 0.950 . S
C5970 C5966 1.385 . S
C5970 C5969 1.374 . S
C5971 C5968 1.499 . S
C5971 C5972 1.373 . S
C5971 C5973 1.389 . S
C5972 H5945 0.950 . S
C5972 C5958 1.377 . S
C5972 C5971 1.373 . S
C5973 C5957 1.377 . S
C5973 C5971 1.389 . S
C5973 C5974 1.524 . S
C5974 C5973 1.524 . S
C5974 C5975 1.397 . S
C5974 C5979 1.363 . S
C5975 H5946 0.950 . S
C5975 C5974 1.397 . S
C5975 C5976 1.334 . S
C5976 H5947 0.950 . S
C5976 C5975 1.334 . S
C5976 C5977 1.287 . S
C5977 C5976 1.287 . S
C5977 C5978 1.524 . S
C5977 H5980 0.999 . S
C5978 H5948 0.950 . S
C5978 C5977 1.524 . S
C5978 C5979 1.415 . S
C5979 H5949 0.950 . S
C5979 C5974 1.363 . S
C5979 C5978 1.415 . S
H5980 C5977 0.999 . S
H5981 C5962 0.913 . S
H5982 C6000 0.951 . S
H5983 C6002 0.951 . S
H5984 C6004 0.950 . S
H5985 C6005 0.950 . S
H5986 C6007 0.950 1_554 S
H5987 C6010 0.950 . S
H5988 C6011 0.950 . S
H5989 C6013 0.950 . S
H5990 C6014 0.950 . S
H5991 C6015 0.951 . S
H5992 C6017 0.951 . S
H5993 C6019 0.950 . S
H5994 C6020 0.950 . S
H5995 C6022 0.950 . S
H5996 C6025 0.950 . S
H5997 C6026 0.950 . S
H5998 C6028 0.950 . S
H5999 C6029 0.950 . S
C6000 H5982 0.951 . S
C6000 C6001 1.366 . S
C6000 C6002 1.388 . S
C6001 C6000 1.366 . S
C6001 C6005 1.385 . S
C6002 H5983 0.951 . S
C6002 C6000 1.388 . S
C6002 C6003 1.366 . S
C6003 C6002 1.366 . S
C6003 C6004 1.414 . S
C6003 C6006 1.499 1_554 S
C6004 H5984 0.950 . S
C6004 C6003 1.414 . S
C6004 C6005 1.374 . S
C6005 H5985 0.950 . S
C6005 C6001 1.385 . S
C6005 C6004 1.374 . S
C6006 C6003 1.499 1_556 S
C6006 C6007 1.373 . S
C6006 C6008 1.389 . S
C6007 H5986 0.950 1_556 S
C6007 C6006 1.373 . S
C6007 C6023 1.377 . S
C6008 C6006 1.389 . S
C6008 C6009 1.524 . S
C6008 C6022 1.377 . S
C6009 C6008 1.524 . S
C6009 C6010 1.397 1_556 S
C6009 C6014 1.363 . S
C6010 H5987 0.950 . S
C6010 C6009 1.397 1_554 S
C6010 C6011 1.334 . S
C6011 H5988 0.950 . S
C6011 C6010 1.334 . S
C6011 C6012 1.287 1_554 S
C6012 C6011 1.287 1_556 S
C6012 C6013 1.524 . S
C6012 H6031 0.924 . S
C6013 H5989 0.950 . S
C6013 C6012 1.524 . S
C6013 C6014 1.415 . S
C6014 H5990 0.950 . S
C6014 C6009 1.363 . S
C6014 C6013 1.415 . S
C6015 H5991 0.951 . S
C6015 C6016 1.366 . S
C6015 C6017 1.388 . S
C6016 C6015 1.366 . S
C6016 C6020 1.385 . S
C6017 H5992 0.951 . S
C6017 C6015 1.388 . S
C6017 C6018 1.366 . S
C6018 C6017 1.366 . S
C6018 C6019 1.414 . S
C6018 C6021 1.499 . S
C6019 H5993 0.950 . S
C6019 C6018 1.414 . S
C6019 C6020 1.374 . S
C6020 H5994 0.950 . S
C6020 C6016 1.385 . S
C6020 C6019 1.374 . S
C6021 C6018 1.499 . S
C6021 C6022 1.373 . S
C6021 C6023 1.389 . S
C6022 H5995 0.950 . S
C6022 C6008 1.377 . S
C6022 C6021 1.373 . S
C6023 C6007 1.377 . S
C6023 C6021 1.389 . S
C6023 C6024 1.524 . S
C6024 C6023 1.524 . S
C6024 C6025 1.397 . S
C6024 C6029 1.363 . S
C6025 H5996 0.950 . S
C6025 C6024 1.397 . S
C6025 C6026 1.334 . S
C6026 H5997 0.950 . S
C6026 C6025 1.334 . S
C6026 C6027 1.287 . S
C6027 C6026 1.287 . S
C6027 C6028 1.524 . S
C6027 H6030 0.999 . S
C6028 H5998 0.950 . S
C6028 C6027 1.524 . S
C6028 C6029 1.415 . S
C6029 H5999 0.950 . S
C6029 C6024 1.363 . S
C6029 C6028 1.415 . S
H6030 C6027 0.999 . S
H6031 C6012 0.924 . S
H6032 C6050 0.951 . S
H6033 C6052 0.951 . S
H6034 C6054 0.950 . S
H6035 C6055 0.950 . S
H6036 C6057 0.950 . S
H6037 C6060 0.950 . S
H6038 C6061 0.950 . S
H6039 C6063 0.950 . S
H6040 C6064 0.950 . S
H6041 C6065 0.951 . S
H6042 C6067 0.951 . S
H6043 C6069 0.950 . S
H6044 C6070 0.950 . S
H6045 C6072 0.950 . S
H6046 C6075 0.950 . S
H6047 C6076 0.950 . S
H6048 C6078 0.950 . S
H6049 C6079 0.950 . S
C6050 H6032 0.951 . S
C6050 C6051 1.366 . S
C6050 C6052 1.388 . S
C6051 C6050 1.366 . S
C6051 C6055 1.385 . S
C6052 H6033 0.951 . S
C6052 C6050 1.388 . S
C6052 C6053 1.366 . S
C6053 C6052 1.366 . S
C6053 C6054 1.414 . S
C6053 C6056 1.499 . S
C6054 H6034 0.950 . S
C6054 C6053 1.414 . S
C6054 C6055 1.374 . S
C6055 H6035 0.950 . S
C6055 C6051 1.385 . S
C6055 C6054 1.374 . S
C6056 C6053 1.499 . S
C6056 C6057 1.373 . S
C6056 C6058 1.389 . S
C6057 H6036 0.950 . S
C6057 C6056 1.373 . S
C6057 C6073 1.377 . S
C6058 C6056 1.389 . S
C6058 C6059 1.524 . S
C6058 C6072 1.377 . S
C6059 C6058 1.524 . S
C6059 C6060 1.397 . S
C6059 C6064 1.363 . S
C6060 H6037 0.950 . S
C6060 C6059 1.397 . S
C6060 C6061 1.334 . S
C6061 H6038 0.950 . S
C6061 C6060 1.334 . S
C6061 C6062 1.287 . S
C6062 C6061 1.287 . S
C6062 C6063 1.524 . S
C6062 H6081 0.913 . S
C6063 H6039 0.950 . S
C6063 C6062 1.524 . S
C6063 C6064 1.415 . S
C6064 H6040 0.950 . S
C6064 C6059 1.363 . S
C6064 C6063 1.415 . S
C6065 H6041 0.951 . S
C6065 C6066 1.366 . S
C6065 C6067 1.388 . S
C6066 C6065 1.366 . S
C6066 C6070 1.385 . S
C6067 H6042 0.951 . S
C6067 C6065 1.388 . S
C6067 C6068 1.366 . S
C6068 C6067 1.366 . S
C6068 C6069 1.414 . S
C6068 C6071 1.499 . S
C6069 H6043 0.950 . S
C6069 C6068 1.414 . S
C6069 C6070 1.374 . S
C6070 H6044 0.950 . S
C6070 C6066 1.385 . S
C6070 C6069 1.374 . S
C6071 C6068 1.499 . S
C6071 C6072 1.373 . S
C6071 C6073 1.389 . S
C6072 H6045 0.950 . S
C6072 C6058 1.377 . S
C6072 C6071 1.373 . S
C6073 C6057 1.377 . S
C6073 C6071 1.389 . S
C6073 C6074 1.524 . S
C6074 C6073 1.524 . S
C6074 C6075 1.397 . S
C6074 C6079 1.363 . S
C6075 H6046 0.950 . S
C6075 C6074 1.397 . S
C6075 C6076 1.334 . S
C6076 H6047 0.950 . S
C6076 C6075 1.334 . S
C6076 C6077 1.287 . S
C6077 C6076 1.287 . S
C6077 C6078 1.524 . S
C6077 H6080 0.999 . S
C6078 H6048 0.950 . S
C6078 C6077 1.524 . S
C6078 C6079 1.415 . S
C6079 H6049 0.950 . S
C6079 C6074 1.363 . S
C6079 C6078 1.415 . S
H6080 C6077 0.999 . S
H6081 C6062 0.913 . S
H6082 C6100 0.951 . S
H6083 C6102 0.951 . S
H6084 C6104 0.950 . S
H6085 C6105 0.950 . S
H6086 C6107 0.950 . S
H6087 C6110 0.950 . S
H6088 C6111 0.950 . S
H6089 C6113 0.950 . S
H6090 C6114 0.950 . S
H6091 C6115 0.951 . S
H6092 C6117 0.951 . S
H6093 C6119 0.950 . S
H6094 C6120 0.950 . S
H6095 C6122 0.950 . S
H6096 C6125 0.950 . S
H6097 C6126 0.950 . S
H6098 C6128 0.950 . S
H6099 C6129 0.950 . S
C6100 H6082 0.951 . S
C6100 C6101 1.366 . S
C6100 C6102 1.388 . S
C6101 C6100 1.366 . S
C6101 C6105 1.385 . S
C6102 H6083 0.951 . S
C6102 C6100 1.388 . S
C6102 C6103 1.366 . S
C6103 C6102 1.366 . S
C6103 C6104 1.414 . S
C6103 C6106 1.499 . S
C6104 H6084 0.950 . S
C6104 C6103 1.414 . S
C6104 C6105 1.374 . S
C6105 H6085 0.950 . S
C6105 C6101 1.385 . S
C6105 C6104 1.374 . S
C6106 C6103 1.499 . S
C6106 C6107 1.373 . S
C6106 C6108 1.389 . S
C6107 H6086 0.950 . S
C6107 C6106 1.373 . S
C6107 C6123 1.377 . S
C6108 C6106 1.389 . S
C6108 C6109 1.524 . S
C6108 C6122 1.377 . S
C6109 C6108 1.524 . S
C6109 C6110 1.397 . S
C6109 C6114 1.363 . S
C6110 H6087 0.950 . S
C6110 C6109 1.397 . S
C6110 C6111 1.334 . S
C6111 H6088 0.950 . S
C6111 C6110 1.334 . S
C6111 C6112 1.287 . S
C6112 C6111 1.287 . S
C6112 C6113 1.524 . S
C6112 H6131 0.913 . S
C6113 H6089 0.950 . S
C6113 C6112 1.524 . S
C6113 C6114 1.415 . S
C6114 H6090 0.950 . S
C6114 C6109 1.363 . S
C6114 C6113 1.415 . S
C6115 H6091 0.951 . S
C6115 C6116 1.366 . S
C6115 C6117 1.388 . S
C6116 C6115 1.366 . S
C6116 C6120 1.385 . S
C6117 H6092 0.951 . S
C6117 C6115 1.388 . S
C6117 C6118 1.366 . S
C6118 C6117 1.366 . S
C6118 C6119 1.414 . S
C6118 C6121 1.499 . S
C6119 H6093 0.950 . S
C6119 C6118 1.414 . S
C6119 C6120 1.374 . S
C6120 H6094 0.950 . S
C6120 C6116 1.385 . S
C6120 C6119 1.374 . S
C6121 C6118 1.499 . S
C6121 C6122 1.373 . S
C6121 C6123 1.389 . S
C6122 H6095 0.950 . S
C6122 C6108 1.377 . S
C6122 C6121 1.373 . S
C6123 C6107 1.377 . S
C6123 C6121 1.389 . S
C6123 C6124 1.524 . S
C6124 C6123 1.524 . S
C6124 C6125 1.397 . S
C6124 C6129 1.363 . S
C6125 H6096 0.950 . S
C6125 C6124 1.397 . S
C6125 C6126 1.334 . S
C6126 H6097 0.950 . S
C6126 C6125 1.334 . S
C6126 C6127 1.287 . S
C6127 C6126 1.287 . S
C6127 C6128 1.524 . S
C6127 H6130 0.999 . S
C6128 H6098 0.950 . S
C6128 C6127 1.524 . S
C6128 C6129 1.415 . S
C6129 H6099 0.950 . S
C6129 C6124 1.363 . S
C6129 C6128 1.415 . S
H6130 C6127 0.999 . S
H6131 C6112 0.913 . S
H6132 C6150 0.951 . S
H6133 C6152 0.951 . S
H6134 C6154 0.950 . S
H6135 C6155 0.950 . S
H6136 C6157 0.950 . S
H6137 C6160 0.950 . S
H6138 C6161 0.950 . S
H6139 C6163 0.950 . S
H6140 C6164 0.950 . S
H6141 C6165 0.951 . S
H6142 C6167 0.951 . S
H6143 C6169 0.950 . S
H6144 C6170 0.950 . S
H6145 C6172 0.950 . S
H6146 C6175 0.950 . S
H6147 C6176 0.950 . S
H6148 C6178 0.950 . S
H6149 C6179 0.950 . S
C6150 H6132 0.951 . S
C6150 C6151 1.366 . S
C6150 C6152 1.388 . S
C6151 C6150 1.366 . S
C6151 C6155 1.385 . S
C6152 H6133 0.951 . S
C6152 C6150 1.388 . S
C6152 C6153 1.366 . S
C6153 C6152 1.366 . S
C6153 C6154 1.414 . S
C6153 C6156 1.499 . S
C6154 H6134 0.950 . S
C6154 C6153 1.414 . S
C6154 C6155 1.374 . S
C6155 H6135 0.950 . S
C6155 C6151 1.385 . S
C6155 C6154 1.374 . S
C6156 C6153 1.499 . S
C6156 C6157 1.373 . S
C6156 C6158 1.389 . S
C6157 H6136 0.950 . S
C6157 C6156 1.373 . S
C6157 C6173 1.377 . S
C6158 C6156 1.389 . S
C6158 C6159 1.524 . S
C6158 C6172 1.377 . S
C6159 C6158 1.524 . S
C6159 C6160 1.397 . S
C6159 C6164 1.363 . S
C6160 H6137 0.950 . S
C6160 C6159 1.397 . S
C6160 C6161 1.334 . S
C6161 H6138 0.950 . S
C6161 C6160 1.334 . S
C6161 C6162 1.287 . S
C6162 C6161 1.287 . S
C6162 C6163 1.524 . S
C6162 H6181 0.913 . S
C6163 H6139 0.950 . S
C6163 C6162 1.524 . S
C6163 C6164 1.415 . S
C6164 H6140 0.950 . S
C6164 C6159 1.363 . S
C6164 C6163 1.415 . S
C6165 H6141 0.951 . S
C6165 C6166 1.366 . S
C6165 C6167 1.388 . S
C6166 C6165 1.366 . S
C6166 C6170 1.385 . S
C6167 H6142 0.951 . S
C6167 C6165 1.388 . S
C6167 C6168 1.366 . S
C6168 C6167 1.366 . S
C6168 C6169 1.414 . S
C6168 C6171 1.499 . S
C6169 H6143 0.950 . S
C6169 C6168 1.414 . S
C6169 C6170 1.374 . S
C6170 H6144 0.950 . S
C6170 C6166 1.385 . S
C6170 C6169 1.374 . S
C6171 C6168 1.499 . S
C6171 C6172 1.373 . S
C6171 C6173 1.389 . S
C6172 H6145 0.950 . S
C6172 C6158 1.377 . S
C6172 C6171 1.373 . S
C6173 C6157 1.377 . S
C6173 C6171 1.389 . S
C6173 C6174 1.524 . S
C6174 C6173 1.524 . S
C6174 C6175 1.397 . S
C6174 C6179 1.363 . S
C6175 H6146 0.950 . S
C6175 C6174 1.397 . S
C6175 C6176 1.334 . S
C6176 H6147 0.950 . S
C6176 C6175 1.334 . S
C6176 C6177 1.287 . S
C6177 C6176 1.287 . S
C6177 C6178 1.524 . S
C6177 H6180 0.999 . S
C6178 H6148 0.950 . S
C6178 C6177 1.524 . S
C6178 C6179 1.415 . S
C6179 H6149 0.950 . S
C6179 C6174 1.363 . S
C6179 C6178 1.415 . S
H6180 C6177 0.999 . S
H6181 C6162 0.913 . S
H6182 C6200 0.951 . S
H6183 C6202 0.951 . S
H6184 C6204 0.950 . S
H6185 C6205 0.950 . S
H6186 C6207 0.950 . S
H6187 C6210 0.950 . S
H6188 C6211 0.950 . S
H6189 C6213 0.950 . S
H6190 C6214 0.950 . S
H6191 C6215 0.951 . S
H6192 C6217 0.951 . S
H6193 C6219 0.950 . S
H6194 C6220 0.950 . S
H6195 C6222 0.950 . S
H6196 C6225 0.950 . S
H6197 C6226 0.950 . S
H6198 C6228 0.950 . S
H6199 C6229 0.950 . S
C6200 H6182 0.951 . S
C6200 C6201 1.366 . S
C6200 C6202 1.388 . S
C6201 C6200 1.366 . S
C6201 C6205 1.385 . S
C6202 H6183 0.951 . S
C6202 C6200 1.388 . S
C6202 C6203 1.366 . S
C6203 C6202 1.366 . S
C6203 C6204 1.414 . S
C6203 C6206 1.499 . S
C6204 H6184 0.950 . S
C6204 C6203 1.414 . S
C6204 C6205 1.374 . S
C6205 H6185 0.950 . S
C6205 C6201 1.385 . S
C6205 C6204 1.374 . S
C6206 C6203 1.499 . S
C6206 C6207 1.373 . S
C6206 C6208 1.389 . S
C6207 H6186 0.950 . S
C6207 C6206 1.373 . S
C6207 C6223 1.377 . S
C6208 C6206 1.389 . S
C6208 C6209 1.524 . S
C6208 C6222 1.377 . S
C6209 C6208 1.524 . S
C6209 C6210 1.397 . S
C6209 C6214 1.363 . S
C6210 H6187 0.950 . S
C6210 C6209 1.397 . S
C6210 C6211 1.334 . S
C6211 H6188 0.950 . S
C6211 C6210 1.334 . S
C6211 C6212 1.287 . S
C6212 C6211 1.287 . S
C6212 C6213 1.524 . S
C6212 H6231 0.913 . S
C6213 H6189 0.950 . S
C6213 C6212 1.524 . S
C6213 C6214 1.415 . S
C6214 H6190 0.950 . S
C6214 C6209 1.363 . S
C6214 C6213 1.415 . S
C6215 H6191 0.951 . S
C6215 C6216 1.366 . S
C6215 C6217 1.388 . S
C6216 C6215 1.366 . S
C6216 C6220 1.385 . S
C6217 H6192 0.951 . S
C6217 C6215 1.388 . S
C6217 C6218 1.366 . S
C6218 C6217 1.366 . S
C6218 C6219 1.414 . S
C6218 C6221 1.499 . S
C6219 H6193 0.950 . S
C6219 C6218 1.414 . S
C6219 C6220 1.374 . S
C6220 H6194 0.950 . S
C6220 C6216 1.385 . S
C6220 C6219 1.374 . S
C6221 C6218 1.499 . S
C6221 C6222 1.373 . S
C6221 C6223 1.389 . S
C6222 H6195 0.950 . S
C6222 C6208 1.377 . S
C6222 C6221 1.373 . S
C6223 C6207 1.377 . S
C6223 C6221 1.389 . S
C6223 C6224 1.524 . S
C6224 C6223 1.524 . S
C6224 C6225 1.397 . S
C6224 C6229 1.363 . S
C6225 H6196 0.950 . S
C6225 C6224 1.397 . S
C6225 C6226 1.334 . S
C6226 H6197 0.950 . S
C6226 C6225 1.334 . S
C6226 C6227 1.287 . S
C6227 C6226 1.287 . S
C6227 C6228 1.524 . S
C6227 H6230 0.999 . S
C6228 H6198 0.950 . S
C6228 C6227 1.524 . S
C6228 C6229 1.415 . S
C6229 H6199 0.950 . S
C6229 C6224 1.363 . S
C6229 C6228 1.415 . S
H6230 C6227 0.999 . S
H6231 C6212 0.913 . S
H6232 C6250 0.951 . S
H6233 C6252 0.951 . S
H6234 C6254 0.950 . S
H6235 C6255 0.950 . S
H6236 C6257 0.950 . S
H6237 C6260 0.950 . S
H6238 C6261 0.950 . S
H6239 C6263 0.950 . S
H6240 C6264 0.950 . S
H6241 C6265 0.951 . S
H6242 C6267 0.951 . S
H6243 C6269 0.950 . S
H6244 C6270 0.950 . S
H6245 C6272 0.950 . S
H6246 C6275 0.950 . S
H6247 C6276 0.950 . S
H6248 C6278 0.950 . S
H6249 C6279 0.950 . S
C6250 H6232 0.951 . S
C6250 C6251 1.366 . S
C6250 C6252 1.388 . S
C6251 C6250 1.366 . S
C6251 C6255 1.385 . S
C6252 H6233 0.951 . S
C6252 C6250 1.388 . S
C6252 C6253 1.366 . S
C6253 C6252 1.366 . S
C6253 C6254 1.414 . S
C6253 C6256 1.499 . S
C6254 H6234 0.950 . S
C6254 C6253 1.414 . S
C6254 C6255 1.374 . S
C6255 H6235 0.950 . S
C6255 C6251 1.385 . S
C6255 C6254 1.374 . S
C6256 C6253 1.499 . S
C6256 C6257 1.373 . S
C6256 C6258 1.389 . S
C6257 H6236 0.950 . S
C6257 C6256 1.373 . S
C6257 C6273 1.377 . S
C6258 C6256 1.389 . S
C6258 C6259 1.524 . S
C6258 C6272 1.377 . S
C6259 C6258 1.524 . S
C6259 C6260 1.397 . S
C6259 C6264 1.363 . S
C6260 H6237 0.950 . S
C6260 C6259 1.397 . S
C6260 C6261 1.334 . S
C6261 H6238 0.950 . S
C6261 C6260 1.334 . S
C6261 C6262 1.287 . S
C6262 C6261 1.287 . S
C6262 C6263 1.524 . S
C6262 H6281 0.913 . S
C6263 H6239 0.950 . S
C6263 C6262 1.524 . S
C6263 C6264 1.415 . S
C6264 H6240 0.950 . S
C6264 C6259 1.363 . S
C6264 C6263 1.415 . S
C6265 H6241 0.951 . S
C6265 C6266 1.366 . S
C6265 C6267 1.388 . S
C6266 C6265 1.366 . S
C6266 C6270 1.385 . S
C6267 H6242 0.951 . S
C6267 C6265 1.388 . S
C6267 C6268 1.366 . S
C6268 C6267 1.366 . S
C6268 C6269 1.414 . S
C6268 C6271 1.499 . S
C6269 H6243 0.950 . S
C6269 C6268 1.414 . S
C6269 C6270 1.374 . S
C6270 H6244 0.950 . S
C6270 C6266 1.385 . S
C6270 C6269 1.374 . S
C6271 C6268 1.499 . S
C6271 C6272 1.373 . S
C6271 C6273 1.389 . S
C6272 H6245 0.950 . S
C6272 C6258 1.377 . S
C6272 C6271 1.373 . S
C6273 C6257 1.377 . S
C6273 C6271 1.389 . S
C6273 C6274 1.524 . S
C6274 C6273 1.524 . S
C6274 C6275 1.397 . S
C6274 C6279 1.363 . S
C6275 H6246 0.950 . S
C6275 C6274 1.397 . S
C6275 C6276 1.334 . S
C6276 H6247 0.950 . S
C6276 C6275 1.334 . S
C6276 C6277 1.287 . S
C6277 C6276 1.287 . S
C6277 C6278 1.524 . S
C6277 H6280 0.999 . S
C6278 H6248 0.950 . S
C6278 C6277 1.524 . S
C6278 C6279 1.415 . S
C6279 H6249 0.950 . S
C6279 C6274 1.363 . S
C6279 C6278 1.415 . S
H6280 C6277 0.999 . S
H6281 C6262 0.913 . S
H6282 C6300 0.951 . S
H6283 C6302 0.951 . S
H6284 C6304 0.950 . S
H6285 C6305 0.950 . S
H6286 C6307 0.950 . S
H6287 C6310 0.950 . S
H6288 C6311 0.950 . S
H6289 C6313 0.950 . S
H6290 C6314 0.950 . S
H6291 C6315 0.951 . S
H6292 C6317 0.951 . S
H6293 C6319 0.950 . S
H6294 C6320 0.950 . S
H6295 C6322 0.950 . S
H6296 C6325 0.950 . S
H6297 C6326 0.950 . S
H6298 C6328 0.950 . S
H6299 C6329 0.950 . S
C6300 H6282 0.951 . S
C6300 C6301 1.366 . S
C6300 C6302 1.388 . S
C6301 C6300 1.366 . S
C6301 C6305 1.385 . S
C6302 H6283 0.951 . S
C6302 C6300 1.388 . S
C6302 C6303 1.366 . S
C6303 C6302 1.366 . S
C6303 C6304 1.414 . S
C6303 C6306 1.499 . S
C6304 H6284 0.950 . S
C6304 C6303 1.414 . S
C6304 C6305 1.374 . S
C6305 H6285 0.950 . S
C6305 C6301 1.385 . S
C6305 C6304 1.374 . S
C6306 C6303 1.499 . S
C6306 C6307 1.373 . S
C6306 C6308 1.389 . S
C6307 H6286 0.950 . S
C6307 C6306 1.373 . S
C6307 C6323 1.377 . S
C6308 C6306 1.389 . S
C6308 C6309 1.524 . S
C6308 C6322 1.377 . S
C6309 C6308 1.524 . S
C6309 C6310 1.397 . S
C6309 C6314 1.363 . S
C6310 H6287 0.950 . S
C6310 C6309 1.397 . S
C6310 C6311 1.334 . S
C6311 H6288 0.950 . S
C6311 C6310 1.334 . S
C6311 C6312 1.287 . S
C6312 C6311 1.287 . S
C6312 C6313 1.524 . S
C6312 H6331 0.913 . S
C6313 H6289 0.950 . S
C6313 C6312 1.524 . S
C6313 C6314 1.415 . S
C6314 H6290 0.950 . S
C6314 C6309 1.363 . S
C6314 C6313 1.415 . S
C6315 H6291 0.951 . S
C6315 C6316 1.366 . S
C6315 C6317 1.388 . S
C6316 C6315 1.366 . S
C6316 C6320 1.385 . S
C6317 H6292 0.951 . S
C6317 C6315 1.388 . S
C6317 C6318 1.366 . S
C6318 C6317 1.366 . S
C6318 C6319 1.414 . S
C6318 C6321 1.499 . S
C6319 H6293 0.950 . S
C6319 C6318 1.414 . S
C6319 C6320 1.374 . S
C6320 H6294 0.950 . S
C6320 C6316 1.385 . S
C6320 C6319 1.374 . S
C6321 C6318 1.499 . S
C6321 C6322 1.373 . S
C6321 C6323 1.389 . S
C6322 H6295 0.950 . S
C6322 C6308 1.377 . S
C6322 C6321 1.373 . S
C6323 C6307 1.377 . S
C6323 C6321 1.389 . S
C6323 C6324 1.524 . S
C6324 C6323 1.524 . S
C6324 C6325 1.397 . S
C6324 C6329 1.363 . S
C6325 H6296 0.950 . S
C6325 C6324 1.397 . S
C6325 C6326 1.334 . S
C6326 H6297 0.950 . S
C6326 C6325 1.334 . S
C6326 C6327 1.287 . S
C6327 C6326 1.287 . S
C6327 C6328 1.524 . S
C6327 H6330 0.999 . S
C6328 H6298 0.950 . S
C6328 C6327 1.524 . S
C6328 C6329 1.415 . S
C6329 H6299 0.950 . S
C6329 C6324 1.363 . S
C6329 C6328 1.415 . S
H6330 C6327 0.999 . S
H6331 C6312 0.913 . S
H6332 C6350 0.951 . S
H6333 C6352 0.951 . S
H6334 C6354 0.950 . S
H6335 C6355 0.950 . S
H6336 C6357 0.950 . S
H6337 C6360 0.950 . S
H6338 C6361 0.950 . S
H6339 C6363 0.950 . S
H6340 C6364 0.950 . S
H6341 C6365 0.951 . S
H6342 C6367 0.951 . S
H6343 C6369 0.950 . S
H6344 C6370 0.950 . S
H6345 C6372 0.950 . S
H6346 C6375 0.950 . S
H6347 C6376 0.950 . S
H6348 C6378 0.950 . S
H6349 C6379 0.950 . S
C6350 H6332 0.951 . S
C6350 C6351 1.366 . S
C6350 C6352 1.388 . S
C6351 C6350 1.366 . S
C6351 C6355 1.385 . S
C6352 H6333 0.951 . S
C6352 C6350 1.388 . S
C6352 C6353 1.366 . S
C6353 C6352 1.366 . S
C6353 C6354 1.414 . S
C6353 C6356 1.499 . S
C6354 H6334 0.950 . S
C6354 C6353 1.414 . S
C6354 C6355 1.374 . S
C6355 H6335 0.950 . S
C6355 C6351 1.385 . S
C6355 C6354 1.374 . S
C6356 C6353 1.499 . S
C6356 C6357 1.373 . S
C6356 C6358 1.389 . S
C6357 H6336 0.950 . S
C6357 C6356 1.373 . S
C6357 C6373 1.377 . S
C6358 C6356 1.389 . S
C6358 C6359 1.524 . S
C6358 C6372 1.377 . S
C6359 C6358 1.524 . S
C6359 C6360 1.397 . S
C6359 C6364 1.363 . S
C6360 H6337 0.950 . S
C6360 C6359 1.397 . S
C6360 C6361 1.334 . S
C6361 H6338 0.950 . S
C6361 C6360 1.334 . S
C6361 C6362 1.287 . S
C6362 C6361 1.287 . S
C6362 C6363 1.524 . S
C6362 H6381 0.913 . S
C6363 H6339 0.950 . S
C6363 C6362 1.524 . S
C6363 C6364 1.415 . S
C6364 H6340 0.950 . S
C6364 C6359 1.363 . S
C6364 C6363 1.415 . S
C6365 H6341 0.951 . S
C6365 C6366 1.366 . S
C6365 C6367 1.388 . S
C6366 C6365 1.366 . S
C6366 C6370 1.385 . S
C6367 H6342 0.951 . S
C6367 C6365 1.388 . S
C6367 C6368 1.366 . S
C6368 C6367 1.366 . S
C6368 C6369 1.414 . S
C6368 C6371 1.499 . S
C6369 H6343 0.950 . S
C6369 C6368 1.414 . S
C6369 C6370 1.374 . S
C6370 H6344 0.950 . S
C6370 C6366 1.385 . S
C6370 C6369 1.374 . S
C6371 C6368 1.499 . S
C6371 C6372 1.373 . S
C6371 C6373 1.389 . S
C6372 H6345 0.950 . S
C6372 C6358 1.377 . S
C6372 C6371 1.373 . S
C6373 C6357 1.377 . S
C6373 C6371 1.389 . S
C6373 C6374 1.524 . S
C6374 C6373 1.524 . S
C6374 C6375 1.397 . S
C6374 C6379 1.363 . S
C6375 H6346 0.950 . S
C6375 C6374 1.397 . S
C6375 C6376 1.334 . S
C6376 H6347 0.950 . S
C6376 C6375 1.334 . S
C6376 C6377 1.287 . S
C6377 C6376 1.287 . S
C6377 C6378 1.524 . S
C6377 H6380 0.999 . S
C6378 H6348 0.950 . S
C6378 C6377 1.524 . S
C6378 C6379 1.415 . S
C6379 H6349 0.950 . S
C6379 C6374 1.363 . S
C6379 C6378 1.415 . S
H6380 C6377 0.999 . S
H6381 C6362 0.913 . S
H6382 C6400 0.951 . S
H6383 C6402 0.951 . S
H6384 C6404 0.950 . S
H6385 C6405 0.950 . S
H6386 C6407 0.950 . S
H6387 C6410 0.950 . S
H6388 C6411 0.950 . S
H6389 C6413 0.950 . S
H6390 C6414 0.950 1_545 S
H6391 C6415 0.951 . S
H6392 C6417 0.951 . S
H6393 C6419 0.950 . S
H6394 C6420 0.950 . S
H6395 C6422 0.950 . S
H6396 C6425 0.950 . S
H6397 C6426 0.950 . S
H6398 C6428 0.950 . S
H6399 C6429 0.950 . S
C6400 H6382 0.951 . S
C6400 C6401 1.366 . S
C6400 C6402 1.388 . S
C6401 C6400 1.366 . S
C6401 C6405 1.385 . S
C6402 H6383 0.951 . S
C6402 C6400 1.388 . S
C6402 C6403 1.366 . S
C6403 C6402 1.366 . S
C6403 C6404 1.414 . S
C6403 C6406 1.499 1_565 S
C6404 H6384 0.950 . S
C6404 C6403 1.414 . S
C6404 C6405 1.374 . S
C6405 H6385 0.950 . S
C6405 C6401 1.385 . S
C6405 C6404 1.374 . S
C6406 C6403 1.499 1_545 S
C6406 C6407 1.373 . S
C6406 C6408 1.389 . S
C6407 H6386 0.950 . S
C6407 C6406 1.373 . S
C6407 C6423 1.377 . S
C6408 C6406 1.389 . S
C6408 C6409 1.524 1_545 S
C6408 C6422 1.377 . S
C6409 C6408 1.524 1_565 S
C6409 C6410 1.397 . S
C6409 C6414 1.363 . S
C6410 H6387 0.950 . S
C6410 C6409 1.397 . S
C6410 C6411 1.334 . S
C6411 H6388 0.950 . S
C6411 C6410 1.334 . S
C6411 C6412 1.287 . S
C6412 C6411 1.287 . S
C6412 C6413 1.524 . S
C6412 H6431 0.913 . S
C6413 H6389 0.950 . S
C6413 C6412 1.524 . S
C6413 C6414 1.415 . S
C6414 H6390 0.950 1_565 S
C6414 C6409 1.363 . S
C6414 C6413 1.415 . S
C6415 H6391 0.951 . S
C6415 C6416 1.366 . S
C6415 C6417 1.388 . S
C6416 C6415 1.366 . S
C6416 C6420 1.385 . S
C6417 H6392 0.951 . S
C6417 C6415 1.388 . S
C6417 C6418 1.366 . S
C6418 C6417 1.366 . S
C6418 C6419 1.414 . S
C6418 C6421 1.499 . S
C6419 H6393 0.950 . S
C6419 C6418 1.414 . S
C6419 C6420 1.374 . S
C6420 H6394 0.950 . S
C6420 C6416 1.385 . S
C6420 C6419 1.374 . S
C6421 C6418 1.499 . S
C6421 C6422 1.373 . S
C6421 C6423 1.389 . S
C6422 H6395 0.950 . S
C6422 C6408 1.377 . S
C6422 C6421 1.373 . S
C6423 C6407 1.377 . S
C6423 C6421 1.389 . S
C6423 C6424 1.524 . S
C6424 C6423 1.524 . S
C6424 C6425 1.397 . S
C6424 C6429 1.363 . S
C6425 H6396 0.950 . S
C6425 C6424 1.397 . S
C6425 C6426 1.334 . S
C6426 H6397 0.950 . S
C6426 C6425 1.334 . S
C6426 C6427 1.287 . S
C6427 C6426 1.287 . S
C6427 C6428 1.524 . S
C6427 H6430 0.999 . S
C6428 H6398 0.950 . S
C6428 C6427 1.524 . S
C6428 C6429 1.415 . S
C6429 H6399 0.950 . S
C6429 C6424 1.363 . S
C6429 C6428 1.415 . S
H6430 C6427 0.999 . S
H6431 C6412 0.913 . S
H6432 C6450 0.951 . S
H6433 C6452 0.951 . S
H6434 C6454 0.950 . S
H6435 C6455 0.950 . S
H6436 C6457 0.950 . S
H6437 C6460 0.950 . S
H6438 C6461 0.950 . S
H6439 C6463 0.950 . S
H6440 C6464 0.950 . S
H6441 C6465 0.951 . S
H6442 C6467 0.951 . S
H6443 C6469 0.950 . S
H6444 C6470 0.950 . S
H6445 C6472 0.950 . S
H6446 C6475 0.950 . S
H6447 C6476 0.950 . S
H6448 C6478 0.950 . S
H6449 C6479 0.950 . S
C6450 H6432 0.951 . S
C6450 C6451 1.366 . S
C6450 C6452 1.388 . S
C6451 C6450 1.366 . S
C6451 C6455 1.385 . S
C6452 H6433 0.951 . S
C6452 C6450 1.388 . S
C6452 C6453 1.366 . S
C6453 C6452 1.366 . S
C6453 C6454 1.414 . S
C6453 C6456 1.499 . S
C6454 H6434 0.950 . S
C6454 C6453 1.414 . S
C6454 C6455 1.374 . S
C6455 H6435 0.950 . S
C6455 C6451 1.385 . S
C6455 C6454 1.374 . S
C6456 C6453 1.499 . S
C6456 C6457 1.373 . S
C6456 C6458 1.389 . S
C6457 H6436 0.950 . S
C6457 C6456 1.373 . S
C6457 C6473 1.377 . S
C6458 C6456 1.389 . S
C6458 C6459 1.524 . S
C6458 C6472 1.377 . S
C6459 C6458 1.524 . S
C6459 C6460 1.397 . S
C6459 C6464 1.363 . S
C6460 H6437 0.950 . S
C6460 C6459 1.397 . S
C6460 C6461 1.334 . S
C6461 H6438 0.950 . S
C6461 C6460 1.334 . S
C6461 C6462 1.287 . S
C6462 C6461 1.287 . S
C6462 C6463 1.524 . S
C6462 H6481 0.913 . S
C6463 H6439 0.950 . S
C6463 C6462 1.524 . S
C6463 C6464 1.415 . S
C6464 H6440 0.950 . S
C6464 C6459 1.363 . S
C6464 C6463 1.415 . S
C6465 H6441 0.951 . S
C6465 C6466 1.366 . S
C6465 C6467 1.388 . S
C6466 C6465 1.366 . S
C6466 C6470 1.385 . S
C6467 H6442 0.951 . S
C6467 C6465 1.388 . S
C6467 C6468 1.366 . S
C6468 C6467 1.366 . S
C6468 C6469 1.414 . S
C6468 C6471 1.499 . S
C6469 H6443 0.950 . S
C6469 C6468 1.414 . S
C6469 C6470 1.374 . S
C6470 H6444 0.950 . S
C6470 C6466 1.385 . S
C6470 C6469 1.374 . S
C6471 C6468 1.499 . S
C6471 C6472 1.373 . S
C6471 C6473 1.389 . S
C6472 H6445 0.950 . S
C6472 C6458 1.377 . S
C6472 C6471 1.373 . S
C6473 C6457 1.377 . S
C6473 C6471 1.389 . S
C6473 C6474 1.524 . S
C6474 C6473 1.524 . S
C6474 C6475 1.397 . S
C6474 C6479 1.363 . S
C6475 H6446 0.950 . S
C6475 C6474 1.397 . S
C6475 C6476 1.334 . S
C6476 H6447 0.950 . S
C6476 C6475 1.334 . S
C6476 C6477 1.287 . S
C6477 C6476 1.287 . S
C6477 C6478 1.524 . S
C6477 H6480 0.999 . S
C6478 H6448 0.950 . S
C6478 C6477 1.524 . S
C6478 C6479 1.415 . S
C6479 H6449 0.950 . S
C6479 C6474 1.363 . S
C6479 C6478 1.415 . S
H6480 C6477 0.999 . S
H6481 C6462 0.913 . S
H6482 C6500 0.951 . S
H6483 C6502 0.951 . S
H6484 C6504 0.950 . S
H6485 C6505 0.950 . S
H6486 C6507 0.950 . S
H6487 C6510 0.950 . S
H6488 C6511 0.950 . S
H6489 C6513 0.950 . S
H6490 C6514 0.950 . S
H6491 C6515 0.951 . S
H6492 C6517 0.951 . S
H6493 C6519 0.950 . S
H6494 C6520 0.950 . S
H6495 C6522 0.950 . S
H6496 C6525 0.950 . S
H6497 C6526 0.950 . S
H6498 C6528 0.950 . S
H6499 C6529 0.974 . S
C6500 H6482 0.951 . S
C6500 C6501 1.366 . S
C6500 C6502 1.388 . S
C6501 C6500 1.366 . S
C6501 C6505 1.385 . S
C6502 H6483 0.951 . S
C6502 C6500 1.388 . S
C6502 C6503 1.366 . S
C6503 C6502 1.366 . S
C6503 C6504 1.414 . S
C6503 C6506 1.499 . S
C6504 H6484 0.950 . S
C6504 C6503 1.414 . S
C6504 C6505 1.374 . S
C6505 H6485 0.950 . S
C6505 C6501 1.385 . S
C6505 C6504 1.374 . S
C6506 C6503 1.499 . S
C6506 C6507 1.373 . S
C6506 C6508 1.389 . S
C6507 H6486 0.950 . S
C6507 C6506 1.373 . S
C6507 C6523 1.377 . S
C6508 C6506 1.389 . S
C6508 C6509 1.524 . S
C6508 C6522 1.377 . S
C6509 C6508 1.524 . S
C6509 C6510 1.397 . S
C6509 C6514 1.363 . S
C6510 H6487 0.950 . S
C6510 C6509 1.397 . S
C6510 C6511 1.334 . S
C6511 H6488 0.950 . S
C6511 C6510 1.334 . S
C6511 C6512 1.287 . S
C6512 C6511 1.287 . S
C6512 C6513 1.524 . S
C6512 H6531 0.913 . S
C6513 H6489 0.950 . S
C6513 C6512 1.524 . S
C6513 C6514 1.415 . S
C6514 H6490 0.950 . S
C6514 C6509 1.363 . S
C6514 C6513 1.415 . S
C6515 H6491 0.951 . S
C6515 C6516 1.366 . S
C6515 C6517 1.388 . S
C6516 C6515 1.366 . S
C6516 C6520 1.385 . S
C6517 H6492 0.951 . S
C6517 C6515 1.388 . S
C6517 C6518 1.366 . S
C6518 C6517 1.366 . S
C6518 C6519 1.414 . S
C6518 C6521 1.499 1_455 S
C6519 H6493 0.950 . S
C6519 C6518 1.414 . S
C6519 C6520 1.374 . S
C6520 H6494 0.950 . S
C6520 C6516 1.385 . S
C6520 C6519 1.374 . S
C6521 C6518 1.499 1_655 S
C6521 C6522 1.373 . S
C6521 C6523 1.389 . S
C6522 H6495 0.950 . S
C6522 C6508 1.377 . S
C6522 C6521 1.373 . S
C6523 C6507 1.377 . S
C6523 C6521 1.389 . S
C6523 C6524 1.524 . S
C6524 C6523 1.524 . S
C6524 C6525 1.397 1_655 S
C6524 C6529 1.367 . S
C6525 H6496 0.950 . S
C6525 C6524 1.397 1_455 S
C6525 C6526 1.334 . S
C6526 H6497 0.950 . S
C6526 C6525 1.334 . S
C6526 C6527 1.287 . S
C6527 C6526 1.287 . S
C6527 C6528 1.524 . S
C6527 H6530 0.999 . S
C6528 H6498 0.950 . S
C6528 C6527 1.524 . S
C6528 C6529 1.392 1_455 S
C6529 H6499 0.974 . S
C6529 C6524 1.367 . S
C6529 C6528 1.392 1_655 S
H6530 C6527 0.999 . S
H6531 C6512 0.913 . S
H6532 C6550 0.951 . S
H6533 C6552 0.951 . S
H6534 C6554 0.950 . S
H6535 C6555 0.950 . S
H6536 C6557 0.950 . S
H6537 C6560 0.950 . S
H6538 C6561 0.950 . S
H6539 C6563 0.950 . S
H6540 C6564 0.950 . S
H6541 C6565 0.951 . S
H6542 C6567 0.951 . S
H6543 C6569 0.950 . S
H6544 C6570 0.950 . S
H6545 C6572 0.950 . S
H6546 C6575 0.950 . S
H6547 C6576 0.950 . S
H6548 C6578 0.950 . S
H6549 C6579 0.950 . S
C6550 H6532 0.951 . S
C6550 C6551 1.366 . S
C6550 C6552 1.388 . S
C6551 C6550 1.366 . S
C6551 C6555 1.385 . S
C6552 H6533 0.951 . S
C6552 C6550 1.388 . S
C6552 C6553 1.366 . S
C6553 C6552 1.366 . S
C6553 C6554 1.414 . S
C6553 C6556 1.499 . S
C6554 H6534 0.950 . S
C6554 C6553 1.414 . S
C6554 C6555 1.374 . S
C6555 H6535 0.950 . S
C6555 C6551 1.385 . S
C6555 C6554 1.374 . S
C6556 C6553 1.499 . S
C6556 C6557 1.373 . S
C6556 C6558 1.389 . S
C6557 H6536 0.950 . S
C6557 C6556 1.373 . S
C6557 C6573 1.377 . S
C6558 C6556 1.389 . S
C6558 C6559 1.524 . S
C6558 C6572 1.377 . S
C6559 C6558 1.524 . S
C6559 C6560 1.397 . S
C6559 C6564 1.363 . S
C6560 H6537 0.950 . S
C6560 C6559 1.397 . S
C6560 C6561 1.334 . S
C6561 H6538 0.950 . S
C6561 C6560 1.334 . S
C6561 C6562 1.287 . S
C6562 C6561 1.287 . S
C6562 C6563 1.524 . S
C6562 H6581 0.913 . S
C6563 H6539 0.950 . S
C6563 C6562 1.524 . S
C6563 C6564 1.415 . S
C6564 H6540 0.950 . S
C6564 C6559 1.363 . S
C6564 C6563 1.415 . S
C6565 H6541 0.951 . S
C6565 C6566 1.366 . S
C6565 C6567 1.388 . S
C6566 C6565 1.366 . S
C6566 C6570 1.385 . S
C6567 H6542 0.951 . S
C6567 C6565 1.388 . S
C6567 C6568 1.366 . S
C6568 C6567 1.366 . S
C6568 C6569 1.414 . S
C6568 C6571 1.499 . S
C6569 H6543 0.950 . S
C6569 C6568 1.414 . S
C6569 C6570 1.374 . S
C6570 H6544 0.950 . S
C6570 C6566 1.385 . S
C6570 C6569 1.374 . S
C6571 C6568 1.499 . S
C6571 C6572 1.373 . S
C6571 C6573 1.389 . S
C6572 H6545 0.950 . S
C6572 C6558 1.377 . S
C6572 C6571 1.373 . S
C6573 C6557 1.377 . S
C6573 C6571 1.389 . S
C6573 C6574 1.524 . S
C6574 C6573 1.524 . S
C6574 C6575 1.397 . S
C6574 C6579 1.363 . S
C6575 H6546 0.950 . S
C6575 C6574 1.397 . S
C6575 C6576 1.334 . S
C6576 H6547 0.950 . S
C6576 C6575 1.334 . S
C6576 C6577 1.287 . S
C6577 C6576 1.287 . S
C6577 C6578 1.524 . S
C6577 H6580 0.999 . S
C6578 H6548 0.950 . S
C6578 C6577 1.524 . S
C6578 C6579 1.415 . S
C6579 H6549 0.950 . S
C6579 C6574 1.363 . S
C6579 C6578 1.415 . S
H6580 C6577 0.999 . S
H6581 C6562 0.913 . S
H6582 C6600 0.951 . S
H6583 C6602 0.951 . S
H6584 C6604 0.950 . S
H6585 C6605 0.950 . S
H6586 C6607 0.950 . S
H6587 C6610 0.950 . S
H6588 C6611 0.950 . S
H6589 C6613 0.950 . S
H6590 C6614 0.950 . S
H6591 C6615 0.951 . S
H6592 C6617 0.951 . S
H6593 C6619 0.950 . S
H6594 C6620 0.950 . S
H6595 C6622 0.950 . S
H6596 C6625 0.950 . S
H6597 C6626 0.950 . S
H6598 C6628 0.950 . S
H6599 C6629 0.966 . S
C6600 H6582 0.951 . S
C6600 C6601 1.366 . S
C6600 C6602 1.388 . S
C6601 C6600 1.366 . S
C6601 C6605 1.385 . S
C6602 H6583 0.951 . S
C6602 C6600 1.388 . S
C6602 C6603 1.366 . S
C6603 C6602 1.366 . S
C6603 C6604 1.414 . S
C6603 C6606 1.499 . S
C6604 H6584 0.950 . S
C6604 C6603 1.414 . S
C6604 C6605 1.374 . S
C6605 H6585 0.950 . S
C6605 C6601 1.385 . S
C6605 C6604 1.374 . S
C6606 C6603 1.499 . S
C6606 C6607 1.373 . S
C6606 C6608 1.389 . S
C6607 H6586 0.950 . S
C6607 C6606 1.373 . S
C6607 C6623 1.377 . S
C6608 C6606 1.389 . S
C6608 C6609 1.524 . S
C6608 C6622 1.377 . S
C6609 C6608 1.524 . S
C6609 C6610 1.397 . S
C6609 C6614 1.363 . S
C6610 H6587 0.950 . S
C6610 C6609 1.397 . S
C6610 C6611 1.334 . S
C6611 H6588 0.950 . S
C6611 C6610 1.334 . S
C6611 C6612 1.287 . S
C6612 C6611 1.287 . S
C6612 C6613 1.524 . S
C6612 H6631 0.913 . S
C6613 H6589 0.950 . S
C6613 C6612 1.524 . S
C6613 C6614 1.415 . S
C6614 H6590 0.950 . S
C6614 C6609 1.363 . S
C6614 C6613 1.415 . S
C6615 H6591 0.951 . S
C6615 C6616 1.366 . S
C6615 C6617 1.388 . S
C6616 C6615 1.366 . S
C6616 C6620 1.385 . S
C6617 H6592 0.951 . S
C6617 C6615 1.388 . S
C6617 C6618 1.366 . S
C6618 C6617 1.366 . S
C6618 C6619 1.414 . S
C6618 C6621 1.499 1_655 S
C6619 H6593 0.950 . S
C6619 C6618 1.414 . S
C6619 C6620 1.374 . S
C6620 H6594 0.950 . S
C6620 C6616 1.385 . S
C6620 C6619 1.374 . S
C6621 C6618 1.499 1_455 S
C6621 C6622 1.373 . S
C6621 C6623 1.389 . S
C6622 H6595 0.950 . S
C6622 C6608 1.377 . S
C6622 C6621 1.373 . S
C6623 C6607 1.377 . S
C6623 C6621 1.389 . S
C6623 C6624 1.524 1_455 S
C6624 C6623 1.524 1_655 S
C6624 C6625 1.397 . S
C6624 C6629 1.358 1_655 S
C6625 H6596 0.950 . S
C6625 C6624 1.397 . S
C6625 C6626 1.334 . S
C6626 H6597 0.950 . S
C6626 C6625 1.334 . S
C6626 C6627 1.287 . S
C6627 C6626 1.287 . S
C6627 C6628 1.524 . S
C6627 H6630 0.999 . S
C6628 H6598 0.950 . S
C6628 C6627 1.524 . S
C6628 C6629 1.405 1_655 S
C6629 H6599 0.966 . S
C6629 C6624 1.358 1_455 S
C6629 C6628 1.405 1_455 S
H6630 C6627 0.999 . S
H6631 C6612 0.913 . S
H6632 C6650 0.951 . S
H6633 C6652 0.951 . S
H6634 C6654 0.950 . S
H6635 C6655 0.950 . S
H6636 C6657 0.950 . S
H6637 C6660 0.950 . S
H6638 C6661 0.950 . S
H6639 C6663 0.950 . S
H6640 C6664 0.950 . S
H6641 C6665 0.951 . S
H6642 C6667 0.951 . S
H6643 C6669 0.950 . S
H6644 C6670 0.950 . S
H6645 C6672 0.950 . S
H6646 C6675 0.950 . S
H6647 C6676 0.950 . S
H6648 C6678 0.950 . S
H6649 C6679 0.950 . S
C6650 H6632 0.951 . S
C6650 C6651 1.366 . S
C6650 C6652 1.388 . S
C6651 C6650 1.366 . S
C6651 C6655 1.385 . S
C6652 H6633 0.951 . S
C6652 C6650 1.388 . S
C6652 C6653 1.366 . S
C6653 C6652 1.366 . S
C6653 C6654 1.414 . S
C6653 C6656 1.499 . S
C6654 H6634 0.950 . S
C6654 C6653 1.414 . S
C6654 C6655 1.374 . S
C6655 H6635 0.950 . S
C6655 C6651 1.385 . S
C6655 C6654 1.374 . S
C6656 C6653 1.499 . S
C6656 C6657 1.373 . S
C6656 C6658 1.389 . S
C6657 H6636 0.950 . S
C6657 C6656 1.373 . S
C6657 C6673 1.377 . S
C6658 C6656 1.389 . S
C6658 C6659 1.524 . S
C6658 C6672 1.377 . S
C6659 C6658 1.524 . S
C6659 C6660 1.397 . S
C6659 C6664 1.363 . S
C6660 H6637 0.950 . S
C6660 C6659 1.397 . S
C6660 C6661 1.334 . S
C6661 H6638 0.950 . S
C6661 C6660 1.334 . S
C6661 C6662 1.287 . S
C6662 C6661 1.287 . S
C6662 C6663 1.524 . S
C6662 H6681 0.913 . S
C6663 H6639 0.950 . S
C6663 C6662 1.524 . S
C6663 C6664 1.415 . S
C6664 H6640 0.950 . S
C6664 C6659 1.363 . S
C6664 C6663 1.415 . S
C6665 H6641 0.951 . S
C6665 C6666 1.366 . S
C6665 C6667 1.388 . S
C6666 C6665 1.366 . S
C6666 C6670 1.385 . S
C6667 H6642 0.951 . S
C6667 C6665 1.388 . S
C6667 C6668 1.366 . S
C6668 C6667 1.366 . S
C6668 C6669 1.414 . S
C6668 C6671 1.499 . S
C6669 H6643 0.950 . S
C6669 C6668 1.414 . S
C6669 C6670 1.374 . S
C6670 H6644 0.950 . S
C6670 C6666 1.385 . S
C6670 C6669 1.374 . S
C6671 C6668 1.499 . S
C6671 C6672 1.373 . S
C6671 C6673 1.389 . S
C6672 H6645 0.950 . S
C6672 C6658 1.377 . S
C6672 C6671 1.373 . S
C6673 C6657 1.377 . S
C6673 C6671 1.389 . S
C6673 C6674 1.524 . S
C6674 C6673 1.524 . S
C6674 C6675 1.397 . S
C6674 C6679 1.363 . S
C6675 H6646 0.950 . S
C6675 C6674 1.397 . S
C6675 C6676 1.334 . S
C6676 H6647 0.950 . S
C6676 C6675 1.334 . S
C6676 C6677 1.287 . S
C6677 C6676 1.287 . S
C6677 C6678 1.524 . S
C6677 H6680 0.999 . S
C6678 H6648 0.950 . S
C6678 C6677 1.524 . S
C6678 C6679 1.415 . S
C6679 H6649 0.950 . S
C6679 C6674 1.363 . S
C6679 C6678 1.415 . S
H6680 C6677 0.999 . S
H6681 C6662 0.913 . S
H6682 C6700 0.951 . S
H6683 C6702 0.951 . S
H6684 C6704 0.950 . S
H6685 C6705 0.950 . S
H6686 C6707 0.950 . S
H6687 C6710 0.950 . S
H6688 C6711 0.950 . S
H6689 C6713 0.950 . S
H6690 C6714 0.950 . S
H6691 C6715 0.951 . S
H6692 C6717 0.951 . S
H6693 C6719 0.950 . S
H6694 C6720 0.950 . S
H6695 C6722 0.950 . S
H6696 C6725 0.950 . S
H6697 C6726 0.950 . S
H6698 C6728 0.950 . S
H6699 C6729 0.950 . S
C6700 H6682 0.951 . S
C6700 C6701 1.366 . S
C6700 C6702 1.388 . S
C6701 C6700 1.366 . S
C6701 C6705 1.385 . S
C6702 H6683 0.951 . S
C6702 C6700 1.388 . S
C6702 C6703 1.366 . S
C6703 C6702 1.366 . S
C6703 C6704 1.414 . S
C6703 C6706 1.499 . S
C6704 H6684 0.950 . S
C6704 C6703 1.414 . S
C6704 C6705 1.374 . S
C6705 H6685 0.950 . S
C6705 C6701 1.385 . S
C6705 C6704 1.374 . S
C6706 C6703 1.499 . S
C6706 C6707 1.373 . S
C6706 C6708 1.389 . S
C6707 H6686 0.950 . S
C6707 C6706 1.373 . S
C6707 C6723 1.377 . S
C6708 C6706 1.389 . S
C6708 C6709 1.524 . S
C6708 C6722 1.377 . S
C6709 C6708 1.524 . S
C6709 C6710 1.397 . S
C6709 C6714 1.363 . S
C6710 H6687 0.950 . S
C6710 C6709 1.397 . S
C6710 C6711 1.334 . S
C6711 H6688 0.950 . S
C6711 C6710 1.334 . S
C6711 C6712 1.287 . S
C6712 C6711 1.287 . S
C6712 C6713 1.524 . S
C6712 H6731 0.913 . S
C6713 H6689 0.950 . S
C6713 C6712 1.524 . S
C6713 C6714 1.415 . S
C6714 H6690 0.950 . S
C6714 C6709 1.363 . S
C6714 C6713 1.415 . S
C6715 H6691 0.951 . S
C6715 C6716 1.366 . S
C6715 C6717 1.388 . S
C6716 C6715 1.366 . S
C6716 C6720 1.385 . S
C6717 H6692 0.951 . S
C6717 C6715 1.388 . S
C6717 C6718 1.366 . S
C6718 C6717 1.366 . S
C6718 C6719 1.414 . S
C6718 C6721 1.499 . S
C6719 H6693 0.950 . S
C6719 C6718 1.414 . S
C6719 C6720 1.374 . S
C6720 H6694 0.950 . S
C6720 C6716 1.385 . S
C6720 C6719 1.374 . S
C6721 C6718 1.499 . S
C6721 C6722 1.373 . S
C6721 C6723 1.389 . S
C6722 H6695 0.950 . S
C6722 C6708 1.377 . S
C6722 C6721 1.373 . S
C6723 C6707 1.377 . S
C6723 C6721 1.389 . S
C6723 C6724 1.524 . S
C6724 C6723 1.524 . S
C6724 C6725 1.397 . S
C6724 C6729 1.363 . S
C6725 H6696 0.950 . S
C6725 C6724 1.397 . S
C6725 C6726 1.334 . S
C6726 H6697 0.950 . S
C6726 C6725 1.334 . S
C6726 C6727 1.287 . S
C6727 C6726 1.287 . S
C6727 C6728 1.524 . S
C6727 H6730 0.999 . S
C6728 H6698 0.950 . S
C6728 C6727 1.524 . S
C6728 C6729 1.415 . S
C6729 H6699 0.950 . S
C6729 C6724 1.363 . S
C6729 C6728 1.415 . S
H6730 C6727 0.999 . S
H6731 C6712 0.913 . S
H6732 C6750 0.951 . S
H6733 C6752 0.951 . S
H6734 C6754 0.950 . S
H6735 C6755 0.950 . S
H6736 C6757 0.950 . S
H6737 C6760 0.950 . S
H6738 C6761 0.950 . S
H6739 C6763 0.950 . S
H6740 C6764 0.950 . S
H6741 C6765 0.951 . S
H6742 C6767 0.951 . S
H6743 C6769 0.950 . S
H6744 C6770 0.950 . S
H6745 C6772 0.950 . S
H6746 C6775 0.950 . S
H6747 C6776 0.950 . S
H6748 C6778 0.950 . S
H6749 C6779 0.950 . S
C6750 H6732 0.951 . S
C6750 C6751 1.366 . S
C6750 C6752 1.388 . S
C6751 C6750 1.366 . S
C6751 C6755 1.385 . S
C6752 H6733 0.951 . S
C6752 C6750 1.388 . S
C6752 C6753 1.366 . S
C6753 C6752 1.366 . S
C6753 C6754 1.414 . S
C6753 C6756 1.499 . S
C6754 H6734 0.950 . S
C6754 C6753 1.414 . S
C6754 C6755 1.374 . S
C6755 H6735 0.950 . S
C6755 C6751 1.385 . S
C6755 C6754 1.374 . S
C6756 C6753 1.499 . S
C6756 C6757 1.373 . S
C6756 C6758 1.389 . S
C6757 H6736 0.950 . S
C6757 C6756 1.373 . S
C6757 C6773 1.377 . S
C6758 C6756 1.389 . S
C6758 C6759 1.524 . S
C6758 C6772 1.377 . S
C6759 C6758 1.524 . S
C6759 C6760 1.397 . S
C6759 C6764 1.363 . S
C6760 H6737 0.950 . S
C6760 C6759 1.397 . S
C6760 C6761 1.334 . S
C6761 H6738 0.950 . S
C6761 C6760 1.334 . S
C6761 C6762 1.287 . S
C6762 C6761 1.287 . S
C6762 C6763 1.524 . S
C6762 H6781 0.913 . S
C6763 H6739 0.950 . S
C6763 C6762 1.524 . S
C6763 C6764 1.415 . S
C6764 H6740 0.950 . S
C6764 C6759 1.363 . S
C6764 C6763 1.415 . S
C6765 H6741 0.951 . S
C6765 C6766 1.366 . S
C6765 C6767 1.388 . S
C6766 C6765 1.366 . S
C6766 C6770 1.385 . S
C6767 H6742 0.951 . S
C6767 C6765 1.388 . S
C6767 C6768 1.366 . S
C6768 C6767 1.366 . S
C6768 C6769 1.414 . S
C6768 C6771 1.499 . S
C6769 H6743 0.950 . S
C6769 C6768 1.414 . S
C6769 C6770 1.374 . S
C6770 H6744 0.950 . S
C6770 C6766 1.385 . S
C6770 C6769 1.374 . S
C6771 C6768 1.499 . S
C6771 C6772 1.373 . S
C6771 C6773 1.389 . S
C6772 H6745 0.950 . S
C6772 C6758 1.377 . S
C6772 C6771 1.373 . S
C6773 C6757 1.377 . S
C6773 C6771 1.389 . S
C6773 C6774 1.524 . S
C6774 C6773 1.524 . S
C6774 C6775 1.397 . S
C6774 C6779 1.363 . S
C6775 H6746 0.950 . S
C6775 C6774 1.397 . S
C6775 C6776 1.334 . S
C6776 H6747 0.950 . S
C6776 C6775 1.334 . S
C6776 C6777 1.287 . S
C6777 C6776 1.287 . S
C6777 C6778 1.524 . S
C6777 H6780 0.999 . S
C6778 H6748 0.950 . S
C6778 C6777 1.524 . S
C6778 C6779 1.415 . S
C6779 H6749 0.950 . S
C6779 C6774 1.363 . S
C6779 C6778 1.415 . S
H6780 C6777 0.999 . S
H6781 C6762 0.913 . S
H6782 C6800 0.951 . S
H6783 C6802 0.951 . S
H6784 C6804 0.950 . S
H6785 C6805 0.950 . S
H6786 C6807 0.950 . S
H6787 C6810 0.950 . S
H6788 C6811 0.950 . S
H6789 C6813 0.950 . S
H6790 C6814 0.950 . S
H6791 C6815 0.951 . S
H6792 C6817 0.951 . S
H6793 C6819 0.950 . S
H6794 C6820 0.950 . S
H6795 C6822 0.950 . S
H6796 C6825 0.950 . S
H6797 C6826 0.950 . S
H6798 C6828 0.950 . S
H6799 C6829 0.950 . S
C6800 H6782 0.951 . S
C6800 C6801 1.366 . S
C6800 C6802 1.388 . S
C6801 C6800 1.366 . S
C6801 C6805 1.385 . S
C6802 H6783 0.951 . S
C6802 C6800 1.388 . S
C6802 C6803 1.366 . S
C6803 C6802 1.366 . S
C6803 C6804 1.414 . S
C6803 C6806 1.499 . S
C6804 H6784 0.950 . S
C6804 C6803 1.414 . S
C6804 C6805 1.374 . S
C6805 H6785 0.950 . S
C6805 C6801 1.385 . S
C6805 C6804 1.374 . S
C6806 C6803 1.499 . S
C6806 C6807 1.373 . S
C6806 C6808 1.389 . S
C6807 H6786 0.950 . S
C6807 C6806 1.373 . S
C6807 C6823 1.377 . S
C6808 C6806 1.389 . S
C6808 C6809 1.524 . S
C6808 C6822 1.377 . S
C6809 C6808 1.524 . S
C6809 C6810 1.397 . S
C6809 C6814 1.363 . S
C6810 H6787 0.950 . S
C6810 C6809 1.397 . S
C6810 C6811 1.334 . S
C6811 H6788 0.950 . S
C6811 C6810 1.334 . S
C6811 C6812 1.287 . S
C6812 C6811 1.287 . S
C6812 C6813 1.524 . S
C6812 H6831 0.913 . S
C6813 H6789 0.950 . S
C6813 C6812 1.524 . S
C6813 C6814 1.415 . S
C6814 H6790 0.950 . S
C6814 C6809 1.363 . S
C6814 C6813 1.415 . S
C6815 H6791 0.951 . S
C6815 C6816 1.366 . S
C6815 C6817 1.388 . S
C6816 C6815 1.366 . S
C6816 C6820 1.385 . S
C6817 H6792 0.951 . S
C6817 C6815 1.388 . S
C6817 C6818 1.366 . S
C6818 C6817 1.366 . S
C6818 C6819 1.414 . S
C6818 C6821 1.499 . S
C6819 H6793 0.950 . S
C6819 C6818 1.414 . S
C6819 C6820 1.374 . S
C6820 H6794 0.950 . S
C6820 C6816 1.385 . S
C6820 C6819 1.374 . S
C6821 C6818 1.499 . S
C6821 C6822 1.373 . S
C6821 C6823 1.389 . S
C6822 H6795 0.950 . S
C6822 C6808 1.377 . S
C6822 C6821 1.373 . S
C6823 C6807 1.377 . S
C6823 C6821 1.389 . S
C6823 C6824 1.524 . S
C6824 C6823 1.524 . S
C6824 C6825 1.397 . S
C6824 C6829 1.363 . S
C6825 H6796 0.950 . S
C6825 C6824 1.397 . S
C6825 C6826 1.334 . S
C6826 H6797 0.950 . S
C6826 C6825 1.334 . S
C6826 C6827 1.287 . S
C6827 C6826 1.287 . S
C6827 C6828 1.524 . S
C6827 H6830 0.999 . S
C6828 H6798 0.950 . S
C6828 C6827 1.524 . S
C6828 C6829 1.415 . S
C6829 H6799 0.950 . S
C6829 C6824 1.363 . S
C6829 C6828 1.415 . S
H6830 C6827 0.999 . S
H6831 C6812 0.913 . S
H6832 C6850 0.951 . S
H6833 C6852 0.951 . S
H6834 C6854 0.950 . S
H6835 C6855 0.950 . S
H6836 C6857 0.950 . S
H6837 C6860 0.950 . S
H6838 C6861 0.950 . S
H6839 C6863 0.950 . S
H6840 C6864 0.950 . S
H6841 C6865 0.951 . S
H6842 C6867 0.951 . S
H6843 C6869 0.950 . S
H6844 C6870 0.950 . S
H6845 C6872 0.950 . S
H6846 C6875 0.950 . S
H6847 C6876 0.950 . S
H6848 C6878 0.950 . S
H6849 C6879 0.950 . S
C6850 H6832 0.951 . S
C6850 C6851 1.366 . S
C6850 C6852 1.388 . S
C6851 C6850 1.366 . S
C6851 C6855 1.385 . S
C6852 H6833 0.951 . S
C6852 C6850 1.388 . S
C6852 C6853 1.366 . S
C6853 C6852 1.366 . S
C6853 C6854 1.414 . S
C6853 C6856 1.499 . S
C6854 H6834 0.950 . S
C6854 C6853 1.414 . S
C6854 C6855 1.374 . S
C6855 H6835 0.950 . S
C6855 C6851 1.385 . S
C6855 C6854 1.374 . S
C6856 C6853 1.499 . S
C6856 C6857 1.373 . S
C6856 C6858 1.389 . S
C6857 H6836 0.950 . S
C6857 C6856 1.373 . S
C6857 C6873 1.377 . S
C6858 C6856 1.389 . S
C6858 C6859 1.524 . S
C6858 C6872 1.377 . S
C6859 C6858 1.524 . S
C6859 C6860 1.397 . S
C6859 C6864 1.363 . S
C6860 H6837 0.950 . S
C6860 C6859 1.397 . S
C6860 C6861 1.334 . S
C6861 H6838 0.950 . S
C6861 C6860 1.334 . S
C6861 C6862 1.287 . S
C6862 C6861 1.287 . S
C6862 C6863 1.524 . S
C6862 H6881 0.913 . S
C6863 H6839 0.950 . S
C6863 C6862 1.524 . S
C6863 C6864 1.415 . S
C6864 H6840 0.950 . S
C6864 C6859 1.363 . S
C6864 C6863 1.415 . S
C6865 H6841 0.951 . S
C6865 C6866 1.366 . S
C6865 C6867 1.388 . S
C6866 C6865 1.366 . S
C6866 C6870 1.385 . S
C6867 H6842 0.951 . S
C6867 C6865 1.388 . S
C6867 C6868 1.366 . S
C6868 C6867 1.366 . S
C6868 C6869 1.414 . S
C6868 C6871 1.499 . S
C6869 H6843 0.950 . S
C6869 C6868 1.414 . S
C6869 C6870 1.374 . S
C6870 H6844 0.950 . S
C6870 C6866 1.385 . S
C6870 C6869 1.374 . S
C6871 C6868 1.499 . S
C6871 C6872 1.373 . S
C6871 C6873 1.389 . S
C6872 H6845 0.950 . S
C6872 C6858 1.377 . S
C6872 C6871 1.373 . S
C6873 C6857 1.377 . S
C6873 C6871 1.389 . S
C6873 C6874 1.524 . S
C6874 C6873 1.524 . S
C6874 C6875 1.397 . S
C6874 C6879 1.363 . S
C6875 H6846 0.950 . S
C6875 C6874 1.397 . S
C6875 C6876 1.334 . S
C6876 H6847 0.950 . S
C6876 C6875 1.334 . S
C6876 C6877 1.287 . S
C6877 C6876 1.287 . S
C6877 C6878 1.524 . S
C6877 H6880 0.999 . S
C6878 H6848 0.950 . S
C6878 C6877 1.524 . S
C6878 C6879 1.415 . S
C6879 H6849 0.950 . S
C6879 C6874 1.363 . S
C6879 C6878 1.415 . S
H6880 C6877 0.999 . S
H6881 C6862 0.913 . S
H6882 C6900 0.951 . S
H6883 C6902 0.951 . S
H6884 C6904 0.950 . S
H6885 C6905 0.950 . S
H6886 C6907 0.950 . S
H6887 C6910 0.950 . S
H6888 C6911 0.950 . S
H6889 C6913 0.950 . S
H6890 C6914 0.950 . S
H6891 C6915 0.951 . S
H6892 C6917 0.951 . S
H6893 C6919 0.950 . S
H6894 C6920 0.950 . S
H6895 C6922 0.950 . S
H6896 C6925 0.950 . S
H6897 C6926 0.950 . S
H6898 C6928 0.950 . S
H6899 C6929 0.950 . S
C6900 H6882 0.951 . S
C6900 C6901 1.366 . S
C6900 C6902 1.388 . S
C6901 C6900 1.366 . S
C6901 C6905 1.385 . S
C6902 H6883 0.951 . S
C6902 C6900 1.388 . S
C6902 C6903 1.366 . S
C6903 C6902 1.366 . S
C6903 C6904 1.414 . S
C6903 C6906 1.499 . S
C6904 H6884 0.950 . S
C6904 C6903 1.414 . S
C6904 C6905 1.374 . S
C6905 H6885 0.950 . S
C6905 C6901 1.385 . S
C6905 C6904 1.374 . S
C6906 C6903 1.499 . S
C6906 C6907 1.373 . S
C6906 C6908 1.389 . S
C6907 H6886 0.950 . S
C6907 C6906 1.373 . S
C6907 C6923 1.377 . S
C6908 C6906 1.389 . S
C6908 C6909 1.524 . S
C6908 C6922 1.377 . S
C6909 C6908 1.524 . S
C6909 C6910 1.397 . S
C6909 C6914 1.363 . S
C6910 H6887 0.950 . S
C6910 C6909 1.397 . S
C6910 C6911 1.334 . S
C6911 H6888 0.950 . S
C6911 C6910 1.334 . S
C6911 C6912 1.287 . S
C6912 C6911 1.287 . S
C6912 C6913 1.524 . S
C6912 H6931 0.913 . S
C6913 H6889 0.950 . S
C6913 C6912 1.524 . S
C6913 C6914 1.415 . S
C6914 H6890 0.950 . S
C6914 C6909 1.363 . S
C6914 C6913 1.415 . S
C6915 H6891 0.951 . S
C6915 C6916 1.366 . S
C6915 C6917 1.388 . S
C6916 C6915 1.366 . S
C6916 C6920 1.385 . S
C6917 H6892 0.951 . S
C6917 C6915 1.388 . S
C6917 C6918 1.366 . S
C6918 C6917 1.366 . S
C6918 C6919 1.414 . S
C6918 C6921 1.499 . S
C6919 H6893 0.950 . S
C6919 C6918 1.414 . S
C6919 C6920 1.374 . S
C6920 H6894 0.950 . S
C6920 C6916 1.385 . S
C6920 C6919 1.374 . S
C6921 C6918 1.499 . S
C6921 C6922 1.373 . S
C6921 C6923 1.389 . S
C6922 H6895 0.950 . S
C6922 C6908 1.377 . S
C6922 C6921 1.373 . S
C6923 C6907 1.377 . S
C6923 C6921 1.389 . S
C6923 C6924 1.524 . S
C6924 C6923 1.524 . S
C6924 C6925 1.397 . S
C6924 C6929 1.363 . S
C6925 H6896 0.950 . S
C6925 C6924 1.397 . S
C6925 C6926 1.334 . S
C6926 H6897 0.950 . S
C6926 C6925 1.334 . S
C6926 C6927 1.287 . S
C6927 C6926 1.287 . S
C6927 C6928 1.524 . S
C6927 H6930 0.999 . S
C6928 H6898 0.950 . S
C6928 C6927 1.524 . S
C6928 C6929 1.415 . S
C6929 H6899 0.950 . S
C6929 C6924 1.363 . S
C6929 C6928 1.415 . S
H6930 C6927 0.999 . S
H6931 C6912 0.913 . S
H6932 C6950 0.951 . S
H6933 C6952 0.951 . S
H6934 C6954 0.950 . S
H6935 C6955 0.950 . S
H6936 C6957 0.950 . S
H6937 C6960 0.950 . S
H6938 C6961 0.950 . S
H6939 C6963 0.950 . S
H6940 C6964 0.950 . S
H6941 C6965 0.951 . S
H6942 C6967 0.951 . S
H6943 C6969 0.950 . S
H6944 C6970 0.950 . S
H6945 C6972 0.950 . S
H6946 C6975 0.950 . S
H6947 C6976 0.950 . S
H6948 C6978 0.950 . S
H6949 C6979 0.950 . S
C6950 H6932 0.951 . S
C6950 C6951 1.366 . S
C6950 C6952 1.388 . S
C6951 C6950 1.366 . S
C6951 C6955 1.385 . S
C6952 H6933 0.951 . S
C6952 C6950 1.388 . S
C6952 C6953 1.366 . S
C6953 C6952 1.366 . S
C6953 C6954 1.414 . S
C6953 C6956 1.499 . S
C6954 H6934 0.950 . S
C6954 C6953 1.414 . S
C6954 C6955 1.374 . S
C6955 H6935 0.950 . S
C6955 C6951 1.385 . S
C6955 C6954 1.374 . S
C6956 C6953 1.499 . S
C6956 C6957 1.373 . S
C6956 C6958 1.389 . S
C6957 H6936 0.950 . S
C6957 C6956 1.373 . S
C6957 C6973 1.377 . S
C6958 C6956 1.389 . S
C6958 C6959 1.524 . S
C6958 C6972 1.377 . S
C6959 C6958 1.524 . S
C6959 C6960 1.397 . S
C6959 C6964 1.363 . S
C6960 H6937 0.950 . S
C6960 C6959 1.397 . S
C6960 C6961 1.334 . S
C6961 H6938 0.950 . S
C6961 C6960 1.334 . S
C6961 C6962 1.287 . S
C6962 C6961 1.287 . S
C6962 C6963 1.524 . S
C6962 H6981 0.913 . S
C6963 H6939 0.950 . S
C6963 C6962 1.524 . S
C6963 C6964 1.415 . S
C6964 H6940 0.950 . S
C6964 C6959 1.363 . S
C6964 C6963 1.415 . S
C6965 H6941 0.951 . S
C6965 C6966 1.366 . S
C6965 C6967 1.388 . S
C6966 C6965 1.366 . S
C6966 C6970 1.385 . S
C6967 H6942 0.951 . S
C6967 C6965 1.388 . S
C6967 C6968 1.366 . S
C6968 C6967 1.366 . S
C6968 C6969 1.414 . S
C6968 C6971 1.499 . S
C6969 H6943 0.950 . S
C6969 C6968 1.414 . S
C6969 C6970 1.374 . S
C6970 H6944 0.950 . S
C6970 C6966 1.385 . S
C6970 C6969 1.374 . S
C6971 C6968 1.499 . S
C6971 C6972 1.373 . S
C6971 C6973 1.389 . S
C6972 H6945 0.950 . S
C6972 C6958 1.377 . S
C6972 C6971 1.373 . S
C6973 C6957 1.377 . S
C6973 C6971 1.389 . S
C6973 C6974 1.524 . S
C6974 C6973 1.524 . S
C6974 C6975 1.397 . S
C6974 C6979 1.363 . S
C6975 H6946 0.950 . S
C6975 C6974 1.397 . S
C6975 C6976 1.334 . S
C6976 H6947 0.950 . S
C6976 C6975 1.334 . S
C6976 C6977 1.287 . S
C6977 C6976 1.287 . S
C6977 C6978 1.524 . S
C6977 H6980 0.999 . S
C6978 H6948 0.950 . S
C6978 C6977 1.524 . S
C6978 C6979 1.415 . S
C6979 H6949 0.950 . S
C6979 C6974 1.363 . S
C6979 C6978 1.415 . S
H6980 C6977 0.999 . S
H6981 C6962 0.913 . S
H6982 C7000 0.951 . S
H6983 C7002 0.951 . S
H6984 C7004 0.950 . S
H6985 C7005 0.950 . S
H6986 C7007 0.950 . S
H6987 C7010 0.950 . S
H6988 C7011 0.950 . S
H6989 C7013 0.950 . S
H6990 C7014 0.950 . S
H6991 C7015 0.951 . S
H6992 C7017 0.951 . S
H6993 C7019 0.950 . S
H6994 C7020 0.950 . S
H6995 C7022 0.950 . S
H6996 C7025 0.950 . S
H6997 C7026 0.950 . S
H6998 C7028 0.950 . S
H6999 C7029 0.950 . S
C7000 H6982 0.951 . S
C7000 C7001 1.366 . S
C7000 C7002 1.388 . S
C7001 C7000 1.366 . S
C7001 C7005 1.385 . S
C7002 H6983 0.951 . S
C7002 C7000 1.388 . S
C7002 C7003 1.366 . S
C7003 C7002 1.366 . S
C7003 C7004 1.414 . S
C7003 C7006 1.499 . S
C7004 H6984 0.950 . S
C7004 C7003 1.414 . S
C7004 C7005 1.374 . S
C7005 H6985 0.950 . S
C7005 C7001 1.385 . S
C7005 C7004 1.374 . S
C7006 C7003 1.499 . S
C7006 C7007 1.373 . S
C7006 C7008 1.389 . S
C7007 H6986 0.950 . S
C7007 C7006 1.373 . S
C7007 C7023 1.377 . S
C7008 C7006 1.389 . S
C7008 C7009 1.524 . S
C7008 C7022 1.377 . S
C7009 C7008 1.524 . S
C7009 C7010 1.397 . S
C7009 C7014 1.363 . S
C7010 H6987 0.950 . S
C7010 C7009 1.397 . S
C7010 C7011 1.334 . S
C7011 H6988 0.950 . S
C7011 C7010 1.334 . S
C7011 C7012 1.287 . S
C7012 C7011 1.287 . S
C7012 C7013 1.524 . S
C7012 H7031 0.913 . S
C7013 H6989 0.950 . S
C7013 C7012 1.524 . S
C7013 C7014 1.415 . S
C7014 H6990 0.950 . S
C7014 C7009 1.363 . S
C7014 C7013 1.415 . S
C7015 H6991 0.951 . S
C7015 C7016 1.366 . S
C7015 C7017 1.388 . S
C7016 C7015 1.366 . S
C7016 C7020 1.385 . S
C7017 H6992 0.951 . S
C7017 C7015 1.388 . S
C7017 C7018 1.366 . S
C7018 C7017 1.366 . S
C7018 C7019 1.414 . S
C7018 C7021 1.499 . S
C7019 H6993 0.950 . S
C7019 C7018 1.414 . S
C7019 C7020 1.374 . S
C7020 H6994 0.950 . S
C7020 C7016 1.385 . S
C7020 C7019 1.374 . S
C7021 C7018 1.499 . S
C7021 C7022 1.373 . S
C7021 C7023 1.389 . S
C7022 H6995 0.950 . S
C7022 C7008 1.377 . S
C7022 C7021 1.373 . S
C7023 C7007 1.377 . S
C7023 C7021 1.389 . S
C7023 C7024 1.524 . S
C7024 C7023 1.524 . S
C7024 C7025 1.397 . S
C7024 C7029 1.363 . S
C7025 H6996 0.950 . S
C7025 C7024 1.397 . S
C7025 C7026 1.334 . S
C7026 H6997 0.950 . S
C7026 C7025 1.334 . S
C7026 C7027 1.287 . S
C7027 C7026 1.287 . S
C7027 C7028 1.524 . S
C7027 H7030 0.999 . S
C7028 H6998 0.950 . S
C7028 C7027 1.524 . S
C7028 C7029 1.415 . S
C7029 H6999 0.950 . S
C7029 C7024 1.363 . S
C7029 C7028 1.415 . S
H7030 C7027 0.999 . S
H7031 C7012 0.913 . S
H7032 C7050 0.951 . S
H7033 C7052 0.951 . S
H7034 C7054 0.950 . S
H7035 C7055 0.950 . S
H7036 C7057 0.950 . S
H7037 C7060 0.950 . S
H7038 C7061 0.950 . S
H7039 C7063 0.950 . S
H7040 C7064 0.950 . S
H7041 C7065 0.951 . S
H7042 C7067 0.951 . S
H7043 C7069 0.950 . S
H7044 C7070 0.950 . S
H7045 C7072 0.950 . S
H7046 C7075 0.950 . S
H7047 C7076 0.950 . S
H7048 C7078 0.950 . S
H7049 C7079 0.950 . S
C7050 H7032 0.951 . S
C7050 C7051 1.366 . S
C7050 C7052 1.388 . S
C7051 C7050 1.366 . S
C7051 C7055 1.385 . S
C7052 H7033 0.951 . S
C7052 C7050 1.388 . S
C7052 C7053 1.366 . S
C7053 C7052 1.366 . S
C7053 C7054 1.414 . S
C7053 C7056 1.499 . S
C7054 H7034 0.950 . S
C7054 C7053 1.414 . S
C7054 C7055 1.374 . S
C7055 H7035 0.950 . S
C7055 C7051 1.385 . S
C7055 C7054 1.374 . S
C7056 C7053 1.499 . S
C7056 C7057 1.373 . S
C7056 C7058 1.389 . S
C7057 H7036 0.950 . S
C7057 C7056 1.373 . S
C7057 C7073 1.377 . S
C7058 C7056 1.389 . S
C7058 C7059 1.524 . S
C7058 C7072 1.377 . S
C7059 C7058 1.524 . S
C7059 C7060 1.397 . S
C7059 C7064 1.363 . S
C7060 H7037 0.950 . S
C7060 C7059 1.397 . S
C7060 C7061 1.334 . S
C7061 H7038 0.950 . S
C7061 C7060 1.334 . S
C7061 C7062 1.287 . S
C7062 C7061 1.287 . S
C7062 C7063 1.524 . S
C7062 H7081 0.913 . S
C7063 H7039 0.950 . S
C7063 C7062 1.524 . S
C7063 C7064 1.415 . S
C7064 H7040 0.950 . S
C7064 C7059 1.363 . S
C7064 C7063 1.415 . S
C7065 H7041 0.951 . S
C7065 C7066 1.366 . S
C7065 C7067 1.388 . S
C7066 C7065 1.366 . S
C7066 C7070 1.385 . S
C7067 H7042 0.951 . S
C7067 C7065 1.388 . S
C7067 C7068 1.366 . S
C7068 C7067 1.366 . S
C7068 C7069 1.414 . S
C7068 C7071 1.499 . S
C7069 H7043 0.950 . S
C7069 C7068 1.414 . S
C7069 C7070 1.374 . S
C7070 H7044 0.950 . S
C7070 C7066 1.385 . S
C7070 C7069 1.374 . S
C7071 C7068 1.499 . S
C7071 C7072 1.373 . S
C7071 C7073 1.389 . S
C7072 H7045 0.950 . S
C7072 C7058 1.377 . S
C7072 C7071 1.373 . S
C7073 C7057 1.377 . S
C7073 C7071 1.389 . S
C7073 C7074 1.524 . S
C7074 C7073 1.524 . S
C7074 C7075 1.397 . S
C7074 C7079 1.363 . S
C7075 H7046 0.950 . S
C7075 C7074 1.397 . S
C7075 C7076 1.334 . S
C7076 H7047 0.950 . S
C7076 C7075 1.334 . S
C7076 C7077 1.287 . S
C7077 C7076 1.287 . S
C7077 C7078 1.524 . S
C7077 H7080 0.999 . S
C7078 H7048 0.950 . S
C7078 C7077 1.524 . S
C7078 C7079 1.415 . S
C7079 H7049 0.950 . S
C7079 C7074 1.363 . S
C7079 C7078 1.415 . S
H7080 C7077 0.999 . S
H7081 C7062 0.913 . S
H7082 C7100 0.951 . S
H7083 C7102 0.951 . S
H7084 C7104 0.950 . S
H7085 C7105 0.950 . S
H7086 C7107 0.950 . S
H7087 C7110 0.950 . S
H7088 C7111 0.950 . S
H7089 C7113 0.950 . S
H7090 C7114 0.950 . S
H7091 C7115 0.951 . S
H7092 C7117 0.951 . S
H7093 C7119 0.950 . S
H7094 C7120 0.950 . S
H7095 C7122 0.950 . S
H7096 C7125 0.950 . S
H7097 C7126 0.950 . S
H7098 C7128 0.950 . S
H7099 C7129 0.950 . S
C7100 H7082 0.951 . S
C7100 C7101 1.366 . S
C7100 C7102 1.388 . S
C7101 C7100 1.366 . S
C7101 C7105 1.385 . S
C7102 H7083 0.951 . S
C7102 C7100 1.388 . S
C7102 C7103 1.366 . S
C7103 C7102 1.366 . S
C7103 C7104 1.414 . S
C7103 C7106 1.499 . S
C7104 H7084 0.950 . S
C7104 C7103 1.414 . S
C7104 C7105 1.374 . S
C7105 H7085 0.950 . S
C7105 C7101 1.385 . S
C7105 C7104 1.374 . S
C7106 C7103 1.499 . S
C7106 C7107 1.373 . S
C7106 C7108 1.389 . S
C7107 H7086 0.950 . S
C7107 C7106 1.373 . S
C7107 C7123 1.377 . S
C7108 C7106 1.389 . S
C7108 C7109 1.524 . S
C7108 C7122 1.377 . S
C7109 C7108 1.524 . S
C7109 C7110 1.397 . S
C7109 C7114 1.363 . S
C7110 H7087 0.950 . S
C7110 C7109 1.397 . S
C7110 C7111 1.334 . S
C7111 H7088 0.950 . S
C7111 C7110 1.334 . S
C7111 C7112 1.287 . S
C7112 C7111 1.287 . S
C7112 C7113 1.524 . S
C7112 H7131 0.913 . S
C7113 H7089 0.950 . S
C7113 C7112 1.524 . S
C7113 C7114 1.415 . S
C7114 H7090 0.950 . S
C7114 C7109 1.363 . S
C7114 C7113 1.415 . S
C7115 H7091 0.951 . S
C7115 C7116 1.366 . S
C7115 C7117 1.388 . S
C7116 C7115 1.366 . S
C7116 C7120 1.385 . S
C7117 H7092 0.951 . S
C7117 C7115 1.388 . S
C7117 C7118 1.366 . S
C7118 C7117 1.366 . S
C7118 C7119 1.414 . S
C7118 C7121 1.499 . S
C7119 H7093 0.950 . S
C7119 C7118 1.414 . S
C7119 C7120 1.374 . S
C7120 H7094 0.950 . S
C7120 C7116 1.385 . S
C7120 C7119 1.374 . S
C7121 C7118 1.499 . S
C7121 C7122 1.373 . S
C7121 C7123 1.389 . S
C7122 H7095 0.950 . S
C7122 C7108 1.377 . S
C7122 C7121 1.373 . S
C7123 C7107 1.377 . S
C7123 C7121 1.389 . S
C7123 C7124 1.524 . S
C7124 C7123 1.524 . S
C7124 C7125 1.397 . S
C7124 C7129 1.363 . S
C7125 H7096 0.950 . S
C7125 C7124 1.397 . S
C7125 C7126 1.334 . S
C7126 H7097 0.950 . S
C7126 C7125 1.334 . S
C7126 C7127 1.287 . S
C7127 C7126 1.287 . S
C7127 C7128 1.524 . S
C7127 H7130 0.999 . S
C7128 H7098 0.950 . S
C7128 C7127 1.524 . S
C7128 C7129 1.415 . S
C7129 H7099 0.950 . S
C7129 C7124 1.363 . S
C7129 C7128 1.415 . S
H7130 C7127 0.999 . S
H7131 C7112 0.913 . S
H7132 C7150 0.951 . S
H7133 C7152 0.951 . S
H7134 C7154 0.950 . S
H7135 C7155 0.950 . S
H7136 C7157 0.950 . S
H7137 C7160 0.950 . S
H7138 C7161 0.950 . S
H7139 C7163 0.950 . S
H7140 C7164 0.950 . S
H7141 C7165 0.951 . S
H7142 C7167 0.951 . S
H7143 C7169 0.950 . S
H7144 C7170 0.950 . S
H7145 C7172 0.950 . S
H7146 C7175 0.950 . S
H7147 C7176 0.950 . S
H7148 C7178 0.950 . S
H7149 C7179 0.950 . S
C7150 H7132 0.951 . S
C7150 C7151 1.366 . S
C7150 C7152 1.388 . S
C7151 C7150 1.366 . S
C7151 C7155 1.385 . S
C7152 H7133 0.951 . S
C7152 C7150 1.388 . S
C7152 C7153 1.366 . S
C7153 C7152 1.366 . S
C7153 C7154 1.414 . S
C7153 C7156 1.499 . S
C7154 H7134 0.950 . S
C7154 C7153 1.414 . S
C7154 C7155 1.374 . S
C7155 H7135 0.950 . S
C7155 C7151 1.385 . S
C7155 C7154 1.374 . S
C7156 C7153 1.499 . S
C7156 C7157 1.373 . S
C7156 C7158 1.389 . S
C7157 H7136 0.950 . S
C7157 C7156 1.373 . S
C7157 C7173 1.377 . S
C7158 C7156 1.389 . S
C7158 C7159 1.524 . S
C7158 C7172 1.377 . S
C7159 C7158 1.524 . S
C7159 C7160 1.397 . S
C7159 C7164 1.363 . S
C7160 H7137 0.950 . S
C7160 C7159 1.397 . S
C7160 C7161 1.334 . S
C7161 H7138 0.950 . S
C7161 C7160 1.334 . S
C7161 C7162 1.287 . S
C7162 C7161 1.287 . S
C7162 C7163 1.524 . S
C7162 H7181 0.913 . S
C7163 H7139 0.950 . S
C7163 C7162 1.524 . S
C7163 C7164 1.415 . S
C7164 H7140 0.950 . S
C7164 C7159 1.363 . S
C7164 C7163 1.415 . S
C7165 H7141 0.951 . S
C7165 C7166 1.366 . S
C7165 C7167 1.388 . S
C7166 C7165 1.366 . S
C7166 C7170 1.385 . S
C7167 H7142 0.951 . S
C7167 C7165 1.388 . S
C7167 C7168 1.366 . S
C7168 C7167 1.366 . S
C7168 C7169 1.414 . S
C7168 C7171 1.499 . S
C7169 H7143 0.950 . S
C7169 C7168 1.414 . S
C7169 C7170 1.374 . S
C7170 H7144 0.950 . S
C7170 C7166 1.385 . S
C7170 C7169 1.374 . S
C7171 C7168 1.499 . S
C7171 C7172 1.373 . S
C7171 C7173 1.389 . S
C7172 H7145 0.950 . S
C7172 C7158 1.377 . S
C7172 C7171 1.373 . S
C7173 C7157 1.377 . S
C7173 C7171 1.389 . S
C7173 C7174 1.524 . S
C7174 C7173 1.524 . S
C7174 C7175 1.397 . S
C7174 C7179 1.363 . S
C7175 H7146 0.950 . S
C7175 C7174 1.397 . S
C7175 C7176 1.334 . S
C7176 H7147 0.950 . S
C7176 C7175 1.334 . S
C7176 C7177 1.287 . S
C7177 C7176 1.287 . S
C7177 C7178 1.524 . S
C7177 H7180 0.999 . S
C7178 H7148 0.950 . S
C7178 C7177 1.524 . S
C7178 C7179 1.415 . S
C7179 H7149 0.950 . S
C7179 C7174 1.363 . S
C7179 C7178 1.415 . S
H7180 C7177 0.999 . S
H7181 C7162 0.913 . S
H7182 C7200 0.951 . S
H7183 C7202 0.951 . S
H7184 C7204 0.950 . S
H7185 C7205 0.950 . S
H7186 C7207 0.950 . S
H7187 C7210 0.950 . S
H7188 C7211 0.950 . S
H7189 C7213 0.950 . S
H7190 C7214 0.950 . S
H7191 C7215 0.951 . S
H7192 C7217 0.951 . S
H7193 C7219 0.950 . S
H7194 C7220 0.950 . S
H7195 C7222 0.950 . S
H7196 C7225 0.950 . S
H7197 C7226 0.950 . S
H7198 C7228 0.950 . S
H7199 C7229 0.950 . S
C7200 H7182 0.951 . S
C7200 C7201 1.366 . S
C7200 C7202 1.388 . S
C7201 C7200 1.366 . S
C7201 C7205 1.385 . S
C7202 H7183 0.951 . S
C7202 C7200 1.388 . S
C7202 C7203 1.366 . S
C7203 C7202 1.366 . S
C7203 C7204 1.414 . S
C7203 C7206 1.499 . S
C7204 H7184 0.950 . S
C7204 C7203 1.414 . S
C7204 C7205 1.374 . S
C7205 H7185 0.950 . S
C7205 C7201 1.385 . S
C7205 C7204 1.374 . S
C7206 C7203 1.499 . S
C7206 C7207 1.373 . S
C7206 C7208 1.389 . S
C7207 H7186 0.950 . S
C7207 C7206 1.373 . S
C7207 C7223 1.377 . S
C7208 C7206 1.389 . S
C7208 C7209 1.524 . S
C7208 C7222 1.377 . S
C7209 C7208 1.524 . S
C7209 C7210 1.397 . S
C7209 C7214 1.363 . S
C7210 H7187 0.950 . S
C7210 C7209 1.397 . S
C7210 C7211 1.334 . S
C7211 H7188 0.950 . S
C7211 C7210 1.334 . S
C7211 C7212 1.287 . S
C7212 C7211 1.287 . S
C7212 C7213 1.524 . S
C7212 H7231 0.913 . S
C7213 H7189 0.950 . S
C7213 C7212 1.524 . S
C7213 C7214 1.415 . S
C7214 H7190 0.950 . S
C7214 C7209 1.363 . S
C7214 C7213 1.415 . S
C7215 H7191 0.951 . S
C7215 C7216 1.366 . S
C7215 C7217 1.388 . S
C7216 C7215 1.366 . S
C7216 C7220 1.385 . S
C7217 H7192 0.951 . S
C7217 C7215 1.388 . S
C7217 C7218 1.366 . S
C7218 C7217 1.366 . S
C7218 C7219 1.414 . S
C7218 C7221 1.499 . S
C7219 H7193 0.950 . S
C7219 C7218 1.414 . S
C7219 C7220 1.374 . S
C7220 H7194 0.950 . S
C7220 C7216 1.385 . S
C7220 C7219 1.374 . S
C7221 C7218 1.499 . S
C7221 C7222 1.373 . S
C7221 C7223 1.389 . S
C7222 H7195 0.950 . S
C7222 C7208 1.377 . S
C7222 C7221 1.373 . S
C7223 C7207 1.377 . S
C7223 C7221 1.389 . S
C7223 C7224 1.524 . S
C7224 C7223 1.524 . S
C7224 C7225 1.397 . S
C7224 C7229 1.363 . S
C7225 H7196 0.950 . S
C7225 C7224 1.397 . S
C7225 C7226 1.334 . S
C7226 H7197 0.950 . S
C7226 C7225 1.334 . S
C7226 C7227 1.287 . S
C7227 C7226 1.287 . S
C7227 C7228 1.524 . S
C7227 H7230 0.999 . S
C7228 H7198 0.950 . S
C7228 C7227 1.524 . S
C7228 C7229 1.415 . S
C7229 H7199 0.950 . S
C7229 C7224 1.363 . S
C7229 C7228 1.415 . S
H7230 C7227 0.999 . S
H7231 C7212 0.913 . S
H7232 C7250 0.951 . S
H7233 C7252 0.951 . S
H7234 C7254 0.950 . S
H7235 C7255 0.950 . S
H7236 C7257 0.950 . S
H7237 C7260 0.950 . S
H7238 C7261 0.950 . S
H7239 C7263 0.950 . S
H7240 C7264 0.950 . S
H7241 C7265 0.951 . S
H7242 C7267 0.951 . S
H7243 C7269 0.950 . S
H7244 C7270 0.950 . S
H7245 C7272 0.950 . S
H7246 C7275 0.950 . S
H7247 C7276 0.950 . S
H7248 C7278 0.950 . S
H7249 C7279 0.950 . S
C7250 H7232 0.951 . S
C7250 C7251 1.366 . S
C7250 C7252 1.388 . S
C7251 C7250 1.366 . S
C7251 C7255 1.385 . S
C7252 H7233 0.951 . S
C7252 C7250 1.388 . S
C7252 C7253 1.366 . S
C7253 C7252 1.366 . S
C7253 C7254 1.414 . S
C7253 C7256 1.499 . S
C7254 H7234 0.950 . S
C7254 C7253 1.414 . S
C7254 C7255 1.374 . S
C7255 H7235 0.950 . S
C7255 C7251 1.385 . S
C7255 C7254 1.374 . S
C7256 C7253 1.499 . S
C7256 C7257 1.373 . S
C7256 C7258 1.389 . S
C7257 H7236 0.950 . S
C7257 C7256 1.373 . S
C7257 C7273 1.377 . S
C7258 C7256 1.389 . S
C7258 C7259 1.524 . S
C7258 C7272 1.377 . S
C7259 C7258 1.524 . S
C7259 C7260 1.397 . S
C7259 C7264 1.363 . S
C7260 H7237 0.950 . S
C7260 C7259 1.397 . S
C7260 C7261 1.334 . S
C7261 H7238 0.950 . S
C7261 C7260 1.334 . S
C7261 C7262 1.287 . S
C7262 C7261 1.287 . S
C7262 C7263 1.524 . S
C7262 H7281 0.913 . S
C7263 H7239 0.950 . S
C7263 C7262 1.524 . S
C7263 C7264 1.415 . S
C7264 H7240 0.950 . S
C7264 C7259 1.363 . S
C7264 C7263 1.415 . S
C7265 H7241 0.951 . S
C7265 C7266 1.366 . S
C7265 C7267 1.388 . S
C7266 C7265 1.366 . S
C7266 C7270 1.385 . S
C7267 H7242 0.951 . S
C7267 C7265 1.388 . S
C7267 C7268 1.366 . S
C7268 C7267 1.366 . S
C7268 C7269 1.414 . S
C7268 C7271 1.499 . S
C7269 H7243 0.950 . S
C7269 C7268 1.414 . S
C7269 C7270 1.374 . S
C7270 H7244 0.950 . S
C7270 C7266 1.385 . S
C7270 C7269 1.374 . S
C7271 C7268 1.499 . S
C7271 C7272 1.373 . S
C7271 C7273 1.389 . S
C7272 H7245 0.950 . S
C7272 C7258 1.377 . S
C7272 C7271 1.373 . S
C7273 C7257 1.377 . S
C7273 C7271 1.389 . S
C7273 C7274 1.524 . S
C7274 C7273 1.524 . S
C7274 C7275 1.397 . S
C7274 C7279 1.363 . S
C7275 H7246 0.950 . S
C7275 C7274 1.397 . S
C7275 C7276 1.334 . S
C7276 H7247 0.950 . S
C7276 C7275 1.334 . S
C7276 C7277 1.287 . S
C7277 C7276 1.287 . S
C7277 C7278 1.524 . S
C7277 H7280 0.999 . S
C7278 H7248 0.950 . S
C7278 C7277 1.524 . S
C7278 C7279 1.415 . S
C7279 H7249 0.950 . S
C7279 C7274 1.363 . S
C7279 C7278 1.415 . S
H7280 C7277 0.999 . S
H7281 C7262 0.913 . S
H7282 C7300 0.951 . S
H7283 C7302 0.951 . S
H7284 C7304 0.950 . S
H7285 C7305 0.950 . S
H7286 C7307 0.950 . S
H7287 C7310 0.950 . S
H7288 C7311 0.950 . S
H7289 C7313 0.950 . S
H7290 C7314 0.950 . S
H7291 C7315 0.951 . S
H7292 C7317 0.951 . S
H7293 C7319 0.950 . S
H7294 C7320 0.950 . S
H7295 C7322 0.950 . S
H7296 C7325 0.950 . S
H7297 C7326 0.950 . S
H7298 C7328 0.950 . S
H7299 C7329 0.950 . S
C7300 H7282 0.951 . S
C7300 C7301 1.366 . S
C7300 C7302 1.388 . S
C7301 C7300 1.366 . S
C7301 C7305 1.385 . S
C7302 H7283 0.951 . S
C7302 C7300 1.388 . S
C7302 C7303 1.366 . S
C7303 C7302 1.366 . S
C7303 C7304 1.414 . S
C7303 C7306 1.499 . S
C7304 H7284 0.950 . S
C7304 C7303 1.414 . S
C7304 C7305 1.374 . S
C7305 H7285 0.950 . S
C7305 C7301 1.385 . S
C7305 C7304 1.374 . S
C7306 C7303 1.499 . S
C7306 C7307 1.373 . S
C7306 C7308 1.389 . S
C7307 H7286 0.950 . S
C7307 C7306 1.373 . S
C7307 C7323 1.377 . S
C7308 C7306 1.389 . S
C7308 C7309 1.524 . S
C7308 C7322 1.377 . S
C7309 C7308 1.524 . S
C7309 C7310 1.397 . S
C7309 C7314 1.363 . S
C7310 H7287 0.950 . S
C7310 C7309 1.397 . S
C7310 C7311 1.334 . S
C7311 H7288 0.950 . S
C7311 C7310 1.334 . S
C7311 C7312 1.287 . S
C7312 C7311 1.287 . S
C7312 C7313 1.524 . S
C7312 H7331 0.913 . S
C7313 H7289 0.950 . S
C7313 C7312 1.524 . S
C7313 C7314 1.415 . S
C7314 H7290 0.950 . S
C7314 C7309 1.363 . S
C7314 C7313 1.415 . S
C7315 H7291 0.951 . S
C7315 C7316 1.366 . S
C7315 C7317 1.388 . S
C7316 C7315 1.366 . S
C7316 C7320 1.385 . S
C7317 H7292 0.951 . S
C7317 C7315 1.388 . S
C7317 C7318 1.366 . S
C7318 C7317 1.366 . S
C7318 C7319 1.414 . S
C7318 C7321 1.499 . S
C7319 H7293 0.950 . S
C7319 C7318 1.414 . S
C7319 C7320 1.374 . S
C7320 H7294 0.950 . S
C7320 C7316 1.385 . S
C7320 C7319 1.374 . S
C7321 C7318 1.499 . S
C7321 C7322 1.373 . S
C7321 C7323 1.389 . S
C7322 H7295 0.950 . S
C7322 C7308 1.377 . S
C7322 C7321 1.373 . S
C7323 C7307 1.377 . S
C7323 C7321 1.389 . S
C7323 C7324 1.524 . S
C7324 C7323 1.524 . S
C7324 C7325 1.397 . S
C7324 C7329 1.363 . S
C7325 H7296 0.950 . S
C7325 C7324 1.397 . S
C7325 C7326 1.334 . S
C7326 H7297 0.950 . S
C7326 C7325 1.334 . S
C7326 C7327 1.287 . S
C7327 C7326 1.287 . S
C7327 C7328 1.524 . S
C7327 H7330 0.999 . S
C7328 H7298 0.950 . S
C7328 C7327 1.524 . S
C7328 C7329 1.415 . S
C7329 H7299 0.950 . S
C7329 C7324 1.363 . S
C7329 C7328 1.415 . S
H7330 C7327 0.999 . S
H7331 C7312 0.913 . S
H7332 C7350 0.951 . S
H7333 C7352 0.951 . S
H7334 C7354 0.950 . S
H7335 C7355 0.950 . S
H7336 C7357 0.950 . S
H7337 C7360 0.950 . S
H7338 C7361 0.950 . S
H7339 C7363 0.950 . S
H7340 C7364 0.950 . S
H7341 C7365 0.951 . S
H7342 C7367 0.951 . S
H7343 C7369 0.950 . S
H7344 C7370 0.950 . S
H7345 C7372 0.950 1_565 S
H7346 C7375 0.950 . S
H7347 C7376 0.950 . S
H7348 C7378 0.950 . S
H7349 C7379 0.950 . S
C7350 H7332 0.951 . S
C7350 C7351 1.366 . S
C7350 C7352 1.388 . S
C7351 C7350 1.366 . S
C7351 C7355 1.385 . S
C7352 H7333 0.951 . S
C7352 C7350 1.388 . S
C7352 C7353 1.366 . S
C7353 C7352 1.366 . S
C7353 C7354 1.414 . S
C7353 C7356 1.499 . S
C7354 H7334 0.950 . S
C7354 C7353 1.414 . S
C7354 C7355 1.374 . S
C7355 H7335 0.950 . S
C7355 C7351 1.385 . S
C7355 C7354 1.374 . S
C7356 C7353 1.499 . S
C7356 C7357 1.373 . S
C7356 C7358 1.389 . S
C7357 H7336 0.950 . S
C7357 C7356 1.373 . S
C7357 C7373 1.377 . S
C7358 C7356 1.389 . S
C7358 C7359 1.524 . S
C7358 C7372 1.377 . S
C7359 C7358 1.524 . S
C7359 C7360 1.397 . S
C7359 C7364 1.363 . S
C7360 H7337 0.950 . S
C7360 C7359 1.397 . S
C7360 C7361 1.334 . S
C7361 H7338 0.950 . S
C7361 C7360 1.334 . S
C7361 C7362 1.287 . S
C7362 C7361 1.287 . S
C7362 C7363 1.524 . S
C7362 H7381 0.913 . S
C7363 H7339 0.950 . S
C7363 C7362 1.524 . S
C7363 C7364 1.415 . S
C7364 H7340 0.950 . S
C7364 C7359 1.363 . S
C7364 C7363 1.415 . S
C7365 H7341 0.951 . S
C7365 C7366 1.366 . S
C7365 C7367 1.388 . S
C7366 C7365 1.366 . S
C7366 C7370 1.385 . S
C7367 H7342 0.951 . S
C7367 C7365 1.388 . S
C7367 C7368 1.366 . S
C7368 C7367 1.366 . S
C7368 C7369 1.414 . S
C7368 C7371 1.499 1_565 S
C7369 H7343 0.950 . S
C7369 C7368 1.414 . S
C7369 C7370 1.374 . S
C7370 H7344 0.950 . S
C7370 C7366 1.385 . S
C7370 C7369 1.374 . S
C7371 C7368 1.499 1_545 S
C7371 C7372 1.373 . S
C7371 C7373 1.389 . S
C7372 H7345 0.950 1_545 S
C7372 C7358 1.377 . S
C7372 C7371 1.373 . S
C7373 C7357 1.377 . S
C7373 C7371 1.389 . S
C7373 C7374 1.524 . S
C7374 C7373 1.524 . S
C7374 C7375 1.397 1_545 S
C7374 C7379 1.363 . S
C7375 H7346 0.950 . S
C7375 C7374 1.397 1_565 S
C7375 C7376 1.334 . S
C7376 H7347 0.950 . S
C7376 C7375 1.334 . S
C7376 C7377 1.287 1_565 S
C7377 C7376 1.287 1_545 S
C7377 C7378 1.524 . S
C7377 H7380 0.999 . S
C7378 H7348 0.950 . S
C7378 C7377 1.524 . S
C7378 C7379 1.415 . S
C7379 H7349 0.950 . S
C7379 C7374 1.363 . S
C7379 C7378 1.415 . S
H7380 C7377 0.999 . S
H7381 C7362 0.913 . S
H7382 C7400 0.951 . S
H7383 C7402 0.951 . S
H7384 C7404 0.950 . S
H7385 C7405 0.950 . S
H7386 C7407 0.950 . S
H7387 C7410 0.950 . S
H7388 C7411 0.950 . S
H7389 C7413 0.950 . S
H7390 C7414 0.950 . S
H7391 C7415 0.951 . S
H7392 C7417 0.951 . S
H7393 C7419 0.950 . S
H7394 C7420 0.950 . S
H7395 C7422 0.950 . S
H7396 C7425 0.950 . S
H7397 C7426 0.950 . S
H7398 C7428 0.950 . S
H7399 C7429 0.950 . S
C7400 H7382 0.951 . S
C7400 C7401 1.366 . S
C7400 C7402 1.388 . S
C7401 C7400 1.366 . S
C7401 C7405 1.385 . S
C7402 H7383 0.951 . S
C7402 C7400 1.388 . S
C7402 C7403 1.366 . S
C7403 C7402 1.366 . S
C7403 C7404 1.414 . S
C7403 C7406 1.499 . S
C7404 H7384 0.950 . S
C7404 C7403 1.414 . S
C7404 C7405 1.374 . S
C7405 H7385 0.950 . S
C7405 C7401 1.385 . S
C7405 C7404 1.374 . S
C7406 C7403 1.499 . S
C7406 C7407 1.373 . S
C7406 C7408 1.389 . S
C7407 H7386 0.950 . S
C7407 C7406 1.373 . S
C7407 C7423 1.377 . S
C7408 C7406 1.389 . S
C7408 C7409 1.524 . S
C7408 C7422 1.377 . S
C7409 C7408 1.524 . S
C7409 C7410 1.397 . S
C7409 C7414 1.363 . S
C7410 H7387 0.950 . S
C7410 C7409 1.397 . S
C7410 C7411 1.334 . S
C7411 H7388 0.950 . S
C7411 C7410 1.334 . S
C7411 C7412 1.287 . S
C7412 C7411 1.287 . S
C7412 C7413 1.524 . S
C7412 H7431 0.913 . S
C7413 H7389 0.950 . S
C7413 C7412 1.524 . S
C7413 C7414 1.415 . S
C7414 H7390 0.950 . S
C7414 C7409 1.363 . S
C7414 C7413 1.415 . S
C7415 H7391 0.951 . S
C7415 C7416 1.366 . S
C7415 C7417 1.388 . S
C7416 C7415 1.366 . S
C7416 C7420 1.385 . S
C7417 H7392 0.951 . S
C7417 C7415 1.388 . S
C7417 C7418 1.366 . S
C7418 C7417 1.366 . S
C7418 C7419 1.414 . S
C7418 C7421 1.499 . S
C7419 H7393 0.950 . S
C7419 C7418 1.414 . S
C7419 C7420 1.374 . S
C7420 H7394 0.950 . S
C7420 C7416 1.385 . S
C7420 C7419 1.374 . S
C7421 C7418 1.499 . S
C7421 C7422 1.373 . S
C7421 C7423 1.389 . S
C7422 H7395 0.950 . S
C7422 C7408 1.377 . S
C7422 C7421 1.373 . S
C7423 C7407 1.377 . S
C7423 C7421 1.389 . S
C7423 C7424 1.524 . S
C7424 C7423 1.524 . S
C7424 C7425 1.397 . S
C7424 C7429 1.363 . S
C7425 H7396 0.950 . S
C7425 C7424 1.397 . S
C7425 C7426 1.334 . S
C7426 H7397 0.950 . S
C7426 C7425 1.334 . S
C7426 C7427 1.287 . S
C7427 C7426 1.287 . S
C7427 C7428 1.524 . S
C7427 H7430 0.999 . S
C7428 H7398 0.950 . S
C7428 C7427 1.524 . S
C7428 C7429 1.415 . S
C7429 H7399 0.950 . S
C7429 C7424 1.363 . S
C7429 C7428 1.415 . S
H7430 C7427 0.999 . S
H7431 C7412 0.913 . S
H7432 C7450 0.951 . S
H7433 C7452 0.951 . S
H7434 C7454 0.950 . S
H7435 C7455 0.950 . S
H7436 C7457 0.950 1_545 S
H7437 C7460 0.950 1_545 S
H7438 C7461 0.950 . S
H7439 C7463 0.950 . S
H7440 C7464 0.950 . S
H7441 C7465 0.951 . S
H7442 C7467 0.951 . S
H7443 C7469 0.950 . S
H7444 C7470 0.950 . S
H7445 C7472 0.950 . S
H7446 C7475 0.950 . S
H7447 C7476 0.950 . S
H7448 C7478 0.950 . S
H7449 C7479 0.950 . S
C7450 H7432 0.951 . S
C7450 C7451 1.366 . S
C7450 C7452 1.388 . S
C7451 C7450 1.366 . S
C7451 C7455 1.385 . S
C7452 H7433 0.951 . S
C7452 C7450 1.388 . S
C7452 C7453 1.366 . S
C7453 C7452 1.366 . S
C7453 C7454 1.414 . S
C7453 C7456 1.499 1_545 S
C7454 H7434 0.950 . S
C7454 C7453 1.414 . S
C7454 C7455 1.374 . S
C7455 H7435 0.950 . S
C7455 C7451 1.385 . S
C7455 C7454 1.374 . S
C7456 C7453 1.499 1_565 S
C7456 C7457 1.373 . S
C7456 C7458 1.389 . S
C7457 H7436 0.950 1_565 S
C7457 C7456 1.373 . S
C7457 C7473 1.377 . S
C7458 C7456 1.389 . S
C7458 C7459 1.524 . S
C7458 C7472 1.377 . S
C7459 C7458 1.524 . S
C7459 C7460 1.397 . S
C7459 C7464 1.363 . S
C7460 H7437 0.950 1_565 S
C7460 C7459 1.397 . S
C7460 C7461 1.334 1_565 S
C7461 H7438 0.950 . S
C7461 C7460 1.334 1_545 S
C7461 C7462 1.287 1_545 S
C7462 C7461 1.287 1_565 S
C7462 C7463 1.524 . S
C7462 H7481 0.913 . S
C7463 H7439 0.950 . S
C7463 C7462 1.524 . S
C7463 C7464 1.415 . S
C7464 H7440 0.950 . S
C7464 C7459 1.363 . S
C7464 C7463 1.415 . S
C7465 H7441 0.951 . S
C7465 C7466 1.366 . S
C7465 C7467 1.388 . S
C7466 C7465 1.366 . S
C7466 C7470 1.385 . S
C7467 H7442 0.951 . S
C7467 C7465 1.388 . S
C7467 C7468 1.366 . S
C7468 C7467 1.366 . S
C7468 C7469 1.414 . S
C7468 C7471 1.499 . S
C7469 H7443 0.950 . S
C7469 C7468 1.414 . S
C7469 C7470 1.374 . S
C7470 H7444 0.950 . S
C7470 C7466 1.385 . S
C7470 C7469 1.374 . S
C7471 C7468 1.499 . S
C7471 C7472 1.373 . S
C7471 C7473 1.389 . S
C7472 H7445 0.950 . S
C7472 C7458 1.377 . S
C7472 C7471 1.373 . S
C7473 C7457 1.377 . S
C7473 C7471 1.389 . S
C7473 C7474 1.524 . S
C7474 C7473 1.524 . S
C7474 C7475 1.397 . S
C7474 C7479 1.363 . S
C7475 H7446 0.950 . S
C7475 C7474 1.397 . S
C7475 C7476 1.334 . S
C7476 H7447 0.950 . S
C7476 C7475 1.334 . S
C7476 C7477 1.287 . S
C7477 C7476 1.287 . S
C7477 C7478 1.524 . S
C7477 H7480 0.999 . S
C7478 H7448 0.950 . S
C7478 C7477 1.524 . S
C7478 C7479 1.415 . S
C7479 H7449 0.950 . S
C7479 C7474 1.363 . S
C7479 C7478 1.415 . S
H7480 C7477 0.999 . S
H7481 C7462 0.913 . S
H7482 C7500 0.951 . S
H7483 C7502 0.951 . S
H7484 C7504 0.950 . S
H7485 C7505 0.950 . S
H7486 C7507 0.950 . S
H7487 C7510 0.950 . S
H7488 C7511 0.950 . S
H7489 C7513 0.950 . S
H7490 C7514 0.950 . S
H7491 C7515 0.951 . S
H7492 C7517 0.951 . S
H7493 C7519 0.950 . S
H7494 C7520 0.950 . S
H7495 C7522 0.950 . S
H7496 C7525 0.950 . S
H7497 C7526 0.950 . S
H7498 C7528 0.950 . S
H7499 C7529 0.950 . S
C7500 H7482 0.951 . S
C7500 C7501 1.366 . S
C7500 C7502 1.388 . S
C7501 C7500 1.366 . S
C7501 C7505 1.385 . S
C7502 H7483 0.951 . S
C7502 C7500 1.388 . S
C7502 C7503 1.366 . S
C7503 C7502 1.366 . S
C7503 C7504 1.414 . S
C7503 C7506 1.499 . S
C7504 H7484 0.950 . S
C7504 C7503 1.414 . S
C7504 C7505 1.374 . S
C7505 H7485 0.950 . S
C7505 C7501 1.385 . S
C7505 C7504 1.374 . S
C7506 C7503 1.499 . S
C7506 C7507 1.373 . S
C7506 C7508 1.389 . S
C7507 H7486 0.950 . S
C7507 C7506 1.373 . S
C7507 C7523 1.377 . S
C7508 C7506 1.389 . S
C7508 C7509 1.524 . S
C7508 C7522 1.377 . S
C7509 C7508 1.524 . S
C7509 C7510 1.397 . S
C7509 C7514 1.363 . S
C7510 H7487 0.950 . S
C7510 C7509 1.397 . S
C7510 C7511 1.334 . S
C7511 H7488 0.950 . S
C7511 C7510 1.334 . S
C7511 C7512 1.287 . S
C7512 C7511 1.287 . S
C7512 C7513 1.524 . S
C7512 H7531 0.913 . S
C7513 H7489 0.950 . S
C7513 C7512 1.524 . S
C7513 C7514 1.415 . S
C7514 H7490 0.950 . S
C7514 C7509 1.363 . S
C7514 C7513 1.415 . S
C7515 H7491 0.951 . S
C7515 C7516 1.366 . S
C7515 C7517 1.388 . S
C7516 C7515 1.366 . S
C7516 C7520 1.385 . S
C7517 H7492 0.951 . S
C7517 C7515 1.388 . S
C7517 C7518 1.366 . S
C7518 C7517 1.366 . S
C7518 C7519 1.414 . S
C7518 C7521 1.499 . S
C7519 H7493 0.950 . S
C7519 C7518 1.414 . S
C7519 C7520 1.374 . S
C7520 H7494 0.950 . S
C7520 C7516 1.385 . S
C7520 C7519 1.374 . S
C7521 C7518 1.499 . S
C7521 C7522 1.373 . S
C7521 C7523 1.389 . S
C7522 H7495 0.950 . S
C7522 C7508 1.377 . S
C7522 C7521 1.373 . S
C7523 C7507 1.377 . S
C7523 C7521 1.389 . S
C7523 C7524 1.524 . S
C7524 C7523 1.524 . S
C7524 C7525 1.397 . S
C7524 C7529 1.363 . S
C7525 H7496 0.950 . S
C7525 C7524 1.397 . S
C7525 C7526 1.334 . S
C7526 H7497 0.950 . S
C7526 C7525 1.334 . S
C7526 C7527 1.287 . S
C7527 C7526 1.287 . S
C7527 C7528 1.524 . S
C7527 H7530 0.999 . S
C7528 H7498 0.950 . S
C7528 C7527 1.524 . S
C7528 C7529 1.415 . S
C7529 H7499 0.950 . S
C7529 C7524 1.363 . S
C7529 C7528 1.415 . S
H7530 C7527 0.999 . S
H7531 C7512 0.913 . S
H7532 C7550 0.951 . S
H7533 C7552 0.951 . S
H7534 C7554 0.950 . S
H7535 C7555 0.950 . S
H7536 C7557 0.950 . S
H7537 C7560 0.950 . S
H7538 C7561 0.950 . S
H7539 C7563 0.950 . S
H7540 C7564 0.950 . S
H7541 C7565 0.951 . S
H7542 C7567 0.951 . S
H7543 C7569 0.950 . S
H7544 C7570 0.950 . S
H7545 C7572 0.950 . S
H7546 C7575 0.950 . S
H7547 C7576 0.950 . S
H7548 C7578 0.950 . S
H7549 C7579 0.950 . S
C7550 H7532 0.951 . S
C7550 C7551 1.366 . S
C7550 C7552 1.388 . S
C7551 C7550 1.366 . S
C7551 C7555 1.385 . S
C7552 H7533 0.951 . S
C7552 C7550 1.388 . S
C7552 C7553 1.366 . S
C7553 C7552 1.366 . S
C7553 C7554 1.414 . S
C7553 C7556 1.499 1_545 S
C7554 H7534 0.950 . S
C7554 C7553 1.414 . S
C7554 C7555 1.374 . S
C7555 H7535 0.950 . S
C7555 C7551 1.385 . S
C7555 C7554 1.374 . S
C7556 C7553 1.499 1_565 S
C7556 C7557 1.373 . S
C7556 C7558 1.389 . S
C7557 H7536 0.950 . S
C7557 C7556 1.373 . S
C7557 C7573 1.377 . S
C7558 C7556 1.389 . S
C7558 C7559 1.524 1_565 S
C7558 C7572 1.377 . S
C7559 C7558 1.524 1_545 S
C7559 C7560 1.397 . S
C7559 C7564 1.363 1_545 S
C7560 H7537 0.950 . S
C7560 C7559 1.397 . S
C7560 C7561 1.334 . S
C7561 H7538 0.950 . S
C7561 C7560 1.334 . S
C7561 C7562 1.287 . S
C7562 C7561 1.287 . S
C7562 C7563 1.524 . S
C7562 H7581 0.913 . S
C7563 H7539 0.950 . S
C7563 C7562 1.524 . S
C7563 C7564 1.415 1_545 S
C7564 H7540 0.950 . S
C7564 C7559 1.363 1_565 S
C7564 C7563 1.415 1_565 S
C7565 H7541 0.951 . S
C7565 C7566 1.366 . S
C7565 C7567 1.388 . S
C7566 C7565 1.366 . S
C7566 C7570 1.385 . S
C7567 H7542 0.951 . S
C7567 C7565 1.388 . S
C7567 C7568 1.366 . S
C7568 C7567 1.366 . S
C7568 C7569 1.414 . S
C7568 C7571 1.499 . S
C7569 H7543 0.950 . S
C7569 C7568 1.414 . S
C7569 C7570 1.374 . S
C7570 H7544 0.950 . S
C7570 C7566 1.385 . S
C7570 C7569 1.374 . S
C7571 C7568 1.499 . S
C7571 C7572 1.373 . S
C7571 C7573 1.389 . S
C7572 H7545 0.950 . S
C7572 C7558 1.377 . S
C7572 C7571 1.373 . S
C7573 C7557 1.377 . S
C7573 C7571 1.389 . S
C7573 C7574 1.524 . S
C7574 C7573 1.524 . S
C7574 C7575 1.397 . S
C7574 C7579 1.363 . S
C7575 H7546 0.950 . S
C7575 C7574 1.397 . S
C7575 C7576 1.334 . S
C7576 H7547 0.950 . S
C7576 C7575 1.334 . S
C7576 C7577 1.287 . S
C7577 C7576 1.287 . S
C7577 C7578 1.524 . S
C7577 H7580 0.999 . S
C7578 H7548 0.950 . S
C7578 C7577 1.524 . S
C7578 C7579 1.415 . S
C7579 H7549 0.950 . S
C7579 C7574 1.363 . S
C7579 C7578 1.415 . S
H7580 C7577 0.999 . S
H7581 C7562 0.913 . S
H7582 C7600 0.951 . S
H7583 C7602 0.951 . S
H7584 C7604 0.950 . S
H7585 C7605 0.950 . S
H7586 C7607 0.950 . S
H7587 C7610 0.950 . S
H7588 C7611 0.950 . S
H7589 C7613 0.950 . S
H7590 C7614 0.950 . S
H7591 C7615 0.951 . S
H7592 C7617 0.951 . S
H7593 C7619 0.950 . S
H7594 C7620 0.950 . S
H7595 C7622 0.950 . S
H7596 C7625 0.950 . S
H7597 C7626 0.950 . S
H7598 C7628 0.950 . S
H7599 C7629 0.950 . S
C7600 H7582 0.951 . S
C7600 C7601 1.366 . S
C7600 C7602 1.388 . S
C7601 C7600 1.366 . S
C7601 C7605 1.385 . S
C7602 H7583 0.951 . S
C7602 C7600 1.388 . S
C7602 C7603 1.366 . S
C7603 C7602 1.366 . S
C7603 C7604 1.414 . S
C7603 C7606 1.499 . S
C7604 H7584 0.950 . S
C7604 C7603 1.414 . S
C7604 C7605 1.374 . S
C7605 H7585 0.950 . S
C7605 C7601 1.385 . S
C7605 C7604 1.374 . S
C7606 C7603 1.499 . S
C7606 C7607 1.373 . S
C7606 C7608 1.389 . S
C7607 H7586 0.950 . S
C7607 C7606 1.373 . S
C7607 C7623 1.377 . S
C7608 C7606 1.389 . S
C7608 C7609 1.524 . S
C7608 C7622 1.377 . S
C7609 C7608 1.524 . S
C7609 C7610 1.397 . S
C7609 C7614 1.363 . S
C7610 H7587 0.950 . S
C7610 C7609 1.397 . S
C7610 C7611 1.334 . S
C7611 H7588 0.950 . S
C7611 C7610 1.334 . S
C7611 C7612 1.287 . S
C7612 C7611 1.287 . S
C7612 C7613 1.524 . S
C7612 H7631 0.913 . S
C7613 H7589 0.950 . S
C7613 C7612 1.524 . S
C7613 C7614 1.415 . S
C7614 H7590 0.950 . S
C7614 C7609 1.363 . S
C7614 C7613 1.415 . S
C7615 H7591 0.951 . S
C7615 C7616 1.366 . S
C7615 C7617 1.388 . S
C7616 C7615 1.366 . S
C7616 C7620 1.385 . S
C7617 H7592 0.951 . S
C7617 C7615 1.388 . S
C7617 C7618 1.366 . S
C7618 C7617 1.366 . S
C7618 C7619 1.414 . S
C7618 C7621 1.499 . S
C7619 H7593 0.950 . S
C7619 C7618 1.414 . S
C7619 C7620 1.374 . S
C7620 H7594 0.950 . S
C7620 C7616 1.385 . S
C7620 C7619 1.374 . S
C7621 C7618 1.499 . S
C7621 C7622 1.373 . S
C7621 C7623 1.389 . S
C7622 H7595 0.950 . S
C7622 C7608 1.377 . S
C7622 C7621 1.373 . S
C7623 C7607 1.377 . S
C7623 C7621 1.389 . S
C7623 C7624 1.524 . S
C7624 C7623 1.524 . S
C7624 C7625 1.397 . S
C7624 C7629 1.363 . S
C7625 H7596 0.950 . S
C7625 C7624 1.397 . S
C7625 C7626 1.334 . S
C7626 H7597 0.950 . S
C7626 C7625 1.334 . S
C7626 C7627 1.287 . S
C7627 C7626 1.287 . S
C7627 C7628 1.524 . S
C7627 H7630 0.999 . S
C7628 H7598 0.950 . S
C7628 C7627 1.524 . S
C7628 C7629 1.415 . S
C7629 H7599 0.950 . S
C7629 C7624 1.363 . S
C7629 C7628 1.415 . S
H7630 C7627 0.999 . S
H7631 C7612 0.913 . S
C1651 C549 0.970 . S
C1666 C33 0.973 . S
C1701 C1603 0.969 . S
C1716 C67 0.972 . S
C1751 C101 0.972 . S
C1766 C1535 0.969 . S
C1801 C135 0.972 . S
C1816 C1569 0.969 . S
C1851 C169 0.972 . S
C1866 C583 0.969 . S
C1901 C617 0.969 . S
C1916 C203 0.972 . S
C1951 C651 0.970 . S
C1966 C237 0.972 . S
C2001 C1501 0.970 . S
C2016 C271 0.972 . S
C2051 C305 0.973 . S
C2066 C5 0.970 . S
C2101 C39 0.968 . S
C2116 C339 0.972 . S
C2151 C373 0.972 . S
C2166 C73 0.969 . S
C2201 C107 0.970 . S
C2216 C407 0.973 . S
C2251 C441 0.973 . S
C2266 C141 0.969 . S
C2301 C475 0.973 . S
C2316 C175 0.969 . S
C2351 C209 0.970 . S
C2366 C509 0.973 . S
C2401 C243 0.969 . S
C2416 C543 0.972 . S
C2451 C277 0.969 . S
C2466 C577 0.972 . S
C2501 C413 0.969 . S
C2516 C611 0.972 . S
C2551 C447 0.970 . S
C2566 C645 0.973 . S
C2601 C481 0.969 . S
C2616 C679 0.972 . S
C2651 C1331 0.969 . S
C2666 C713 0.973 . S
C2701 C747 0.972 . S
C2716 C1161 0.969 . S
C2751 C1195 0.969 . S
C2766 C781 0.972 . S
C2801 C815 0.972 . S
C2816 C1127 0.969 . S
C2851 C849 0.972 . S
C2866 C1365 0.968 . S
C2901 C883 0.972 . S
C2916 C787 0.969 . S
C2951 C719 0.969 . S
C2966 C917 0.972 . S
C3001 C753 0.970 . S
C3016 C951 0.973 . S
C3051 C1399 0.969 . S
C3066 C985 0.972 . S
C3101 C1019 0.973 . S
C3116 C1433 0.969 . S
C3151 C1467 0.969 . S
C3166 C1053 0.973 . S
C3201 C1087 0.972 . S
C3216 C685 0.968 . S
C3251 C821 0.970 . S
C3266 C1121 0.973 . S
C3301 C855 0.969 . S
C3316 C1155 0.972 . S
C3351 C1189 0.972 . S
C3366 C889 0.969 . S
C3401 C1223 0.973 . S
C3416 C923 0.970 . S
C3451 C1257 0.972 . S
C3466 C957 0.969 . S
C3501 C991 0.970 . S
C3516 C1291 0.973 . S
C3551 C1325 0.973 . S
C3566 C1025 0.970 . S
C3601 C1059 0.970 . S
C3616 C1359 0.973 . S
C3651 C1093 0.969 . S
C3666 C1393 0.972 . S
C3701 C1427 0.973 . S
C3716 C1229 0.969 . S
C3751 C1263 0.969 . S
C3766 C1461 0.972 . S
C3801 C1297 0.969 . S
C3816 C1495 0.973 . S
C3851 C1529 0.973 . S
C3866 C515 0.969 . S
C3901 C1563 0.972 . S
C3916 C345 0.969 . S
C3951 C1597 0.973 . S
C3966 C379 0.970 . S
C4001 C311 0.969 . S
C4016 C1631 0.972 . S
C4051 C20 1.205 . S
C4066 C156 1.205 . S
C4101 C54 1.206 . S
C4116 C190 1.206 . S
C4151 C224 1.206 . S
C4166 C88 1.206 . S
C4201 C258 1.206 . S
C4216 C122 1.206 . S
C4251 C1312 1.206 . S
C4266 C292 1.206 . S
C4301 C1346 1.206 . S
C4316 C326 1.206 . S
C4351 C1244 1.206 . S
C4366 C360 1.206 . S
C4401 C394 1.205 . S
C4416 C1278 1.206 . S
C4451 C428 1.205 . S
C4466 C1176 1.205 . S
C4501 C462 1.206 . S
C4516 C1210 1.205 . S
C4551 C496 1.205 . S
C4566 C1108 1.206 . S
C4601 C530 1.206 . S
C4616 C1142 1.206 . S
C4651 C1550 1.206 . S
C4666 C564 1.206 . S
C4701 C666 1.206 . S
C4716 C598 1.206 . S
C4751 C1516 1.205 . S
C4766 C632 1.205 . S
C4801 C1448 1.205 . S
C4816 C700 1.206 . S
C4851 C734 1.206 . S
C4866 C1380 1.206 . S
C4901 C768 1.206 . S
C4916 C802 1.206 . S
C4951 C972 1.206 . S
C4966 C836 1.206 . S
C5001 C1006 1.206 . S
C5016 C870 1.206 . S
C5051 C904 1.206 . S
C5066 C1040 1.206 . S
C5101 C1074 1.206 . S
C5116 C938 1.206 . S
C5151 C1414 1.205 . S
C5166 C1482 1.206 . S
C5201 C1618 1.205 . S
C5216 C1584 1.205 . S
C5251 C2 1.447 . S
C5266 C927 1.393 . S
C5301 C36 1.447 . S
C5316 C825 1.393 . S
C5351 C70 1.447 . S
C5366 C859 1.393 . S
C5401 C893 1.391 . S
C5416 C104 1.446 . S
C5451 C138 1.446 . S
C5466 C179 1.391 . S
C5501 C213 1.392 . S
C5516 C172 1.446 . S
C5551 C247 1.391 . S
C5566 C206 1.446 . S
C5601 C240 1.447 . S
C5616 C145 1.392 . S
C5651 C1437 1.392 . S
C5666 C274 1.446 . S
C5701 C308 1.446 . S
C5716 C1471 1.392 . S
C5751 C689 1.391 . S
C5766 C342 1.446 . S
C5801 C376 1.446 . S
C5816 C1403 1.391 . S
C5851 C410 1.447 . S
C5866 C1573 1.393 . S
C5901 C444 1.446 . S
C5916 C553 1.392 . S
C5951 C1607 1.392 . S
C5966 C478 1.447 . S
C6001 C1539 1.392 . S
C6016 C512 1.446 . S
C6051 C315 1.392 . S
C6066 C546 1.446 . S
C6101 C580 1.446 . S
C6116 C1335 1.392 . S
C6151 C614 1.446 . S
C6166 C1233 1.391 . S
C6201 C648 1.446 . S
C6216 C1267 1.392 . S
C6251 C485 1.392 . S
C6266 C682 1.446 . S
C6301 C716 1.446 . S
C6316 C1199 1.392 . S
C6351 C750 1.447 . S
C6366 C1097 1.393 . S
C6401 C1165 1.391 . S
C6416 C784 1.446 . S
C6451 C818 1.446 . S
C6466 C111 1.392 . S
C6501 C852 1.446 . S
C6516 C9 1.392 . S
C6551 C886 1.446 . S
C6566 C43 1.391 . S
C6601 C920 1.446 . S
C6616 C77 1.391 . S
C6651 C954 1.446 . S
C6666 C995 1.392 . S
C6701 C988 1.446 . S
C6716 C1029 1.392 . S
C6751 C1022 1.446 . S
C6766 C1063 1.391 . S
C6801 C961 1.393 . S
C6816 C1056 1.447 . S
C6851 C1090 1.447 . S
C6866 C621 1.392 . S
C6901 C1124 1.446 . S
C6916 C655 1.393 . S
C6951 C1158 1.446 . S
C6966 C1505 1.391 . S
C7001 C587 1.393 . S
C7016 C1192 1.447 . S
C7051 C757 1.392 . S
C7066 C1226 1.447 . S
C7101 C1260 1.446 . S
C7116 C1369 1.393 . S
C7151 C1294 1.446 . S
C7166 C791 1.392 . S
C7201 C1328 1.447 . S
C7216 C723 1.392 . S
C7251 C1131 1.392 . S
C7266 C1362 1.446 . S
C7301 C1396 1.446 . S
C7316 C519 1.391 . S
C7351 C1430 1.447 . S
C7366 C417 1.392 . S
C7401 C1464 1.447 . S
C7416 C451 1.392 . S
C7451 C1301 1.392 . S
C7466 C1498 1.446 . S
C7501 C383 1.392 . S
C7516 C1532 1.446 . S
C7551 C281 1.391 . S
C7566 C1566 1.446 . S
C7601 C349 1.392 . S
C7616 C1600 1.446 . S
