# Generated by pormake.
# Topology ilc, (8)-cn, num edge types: 1
# Building blocks:
#     Node 0, Type 0, BuildingBlock: TAGTUT_clean_sbu_3, # of connection points: 8
#     Node 1, Type 0, BuildingBlock: TAGTUT_clean_sbu_3, # of connection points: 8
#     Node 2, Type 0, BuildingBlock: TAGTUT_clean_sbu_3, # of connection points: 8
#     Edge 3, Type (0, 0), BuildingBlock: UVAHIK_clean_linker_0, # of connection points: 2
#     Edge 4, Type (0, 0), BuildingBlock: UVAHIK_clean_linker_0, # of connection points: 2
#     Edge 5, Type (0, 0), BuildingBlock: UVAHIK_clean_linker_0, # of connection points: 2
#     Edge 6, Type (0, 0), BuildingBlock: UVAHIK_clean_linker_0, # of connection points: 2
#     Edge 7, Type (0, 0), BuildingBlock: UVAHIK_clean_linker_0, # of connection points: 2
#     Edge 8, Type (0, 0), BuildingBlock: UVAHIK_clean_linker_0, # of connection points: 2
#     Edge 9, Type (0, 0), BuildingBlock: UVAHIK_clean_linker_0, # of connection points: 2
#     Edge 10, Type (0, 0), BuildingBlock: UVAHIK_clean_linker_0, # of connection points: 2
#     Edge 11, Type (0, 0), BuildingBlock: UVAHIK_clean_linker_0, # of connection points: 2
#     Edge 12, Type (0, 0), BuildingBlock: UVAHIK_clean_linker_0, # of connection points: 2
#     Edge 13, Type (0, 0), BuildingBlock: UVAHIK_clean_linker_0, # of connection points: 2
#     Edge 14, Type (0, 0), BuildingBlock: UVAHIK_clean_linker_0, # of connection points: 2
# Relax obj value: 0.177
# Max RMSD: 0.149
# Mean RMSD: 0.149
data_MOF--net-ilc--node1-TAGTUT_clean_sbu_3--edge1-UVAHIK_clean_linker_0
_symmetry_space_group_name_H-M    P1
_symmetry_Int_Tables_number       1
_symmetry_cell_setting            triclinic
loop_
_symmetry_equiv_pos_as_xyz
'x, y, z'
_cell_length_a     33.6772
_cell_length_b     33.673123
_cell_length_c     17.840279
_cell_angle_alpha  90.826331
_cell_angle_beta   89.401688
_cell_angle_gamma 133.26921
loop_
_atom_site_label
_atom_site_type_symbol
_atom_site_fract_x
_atom_site_fract_y
_atom_site_fract_z
_atom_type_partial_charge
C0 C 0.08144 0.09739 0.09584 0.0
C1 C 0.10354 0.03064 0.24243 0.0
C2 C 0.06688 0.90119 0.11283 0.0
Mg3 Mg 0.03768 0.09404 0.94199 0.0
Mg4 Mg 0.95635 0.9954 0.82553 0.0
O5 O 0.98336 1.01285 0.92154 0.0
Mg6 Mg 0.99915 0.98303 0.99934 0.0
O7 O 0.02357 0.96177 0.07764 0.0
Mg8 Mg 0.10627 0.01867 0.0696 0.0
Mg9 Mg 1.00015 0.93034 0.17112 0.0
C10 C 0.92714 0.88533 0.86248 0.0
O11 O 0.91632 0.93628 0.06596 0.0
O12 O 0.04805 0.12286 0.82234 0.0
O13 O 0.91714 0.89402 0.16285 0.0
O14 O 0.95989 0.08145 0.94232 0.0
O15 O 0.02824 0.0542 0.75889 0.0
O16 O 0.91395 0.02165 0.84508 0.0
O17 O 0.08402 0.02338 0.94712 0.0
O18 O 0.10881 0.10121 0.91474 0.0
C19 C 0.11755 0.06987 0.91545 0.0
C20 C 0.05622 0.10507 0.76685 0.0
O21 O 0.95578 0.90418 0.9233 0.0
O22 O 0.12516 0.02262 0.19331 0.0
O23 O 0.92092 0.91241 0.8233 0.0
O24 O 0.09527 0.94176 0.06677 0.0
O25 O 0.05206 1.00034 0.24346 0.0
O26 O 0.03049 0.89135 0.15664 0.0
O27 O 0.03616 0.06434 0.06081 0.0
O28 O 0.11294 0.08903 0.09847 0.0
C29 C 0.92089 0.05469 0.89331 0.0
C30 C 0.89327 0.90366 0.12248 0.0
C31 C 0.75249 0.43667 0.40354 0.0
C32 C 0.69663 0.31924 0.55136 0.0
C33 C 0.72007 0.22249 0.43232 0.0
Mg34 Mg 0.70353 0.42631 0.25358 0.0
Mg35 Mg 0.56624 0.29313 0.21747 0.0
O36 O 0.64513 0.33909 0.23805 0.0
Mg37 Mg 0.66033 0.31454 0.32667 0.0
O38 O 0.68383 0.29797 0.41388 0.0
Mg39 Mg 0.76998 0.3524 0.40219 0.0
Mg40 Mg 0.6345 0.22966 0.47108 0.0
C41 C 0.56218 0.19769 0.23705 0.0
O42 O 0.57778 0.27293 0.38896 0.0
O43 O 0.651 0.35632 0.17048 0.0
O44 O 0.55562 0.19867 0.43895 0.0
O45 O 0.63056 0.42022 0.26879 0.0
O46 O 0.5798 0.31889 0.10141 0.0
O47 O 0.5466 0.3359 0.27131 0.0
O48 O 0.74321 0.35089 0.2782 0.0
O49 O 0.76972 0.42655 0.22787 0.0
C50 C 0.77712 0.3946 0.23947 0.0
C51 C 0.63089 0.35796 0.111 0.0
O52 O 0.61018 0.22919 0.26675 0.0
O53 O 0.69846 0.32189 0.47927 0.0
O54 O 0.53584 0.21237 0.23011 0.0
O55 O 0.75429 0.27257 0.41081 0.0
O56 O 0.65983 0.2719 0.57867 0.0
O57 O 0.67127 0.19758 0.45275 0.0
O58 O 0.7053 0.40081 0.37295 0.0
O59 O 0.78316 0.42758 0.41334 0.0
C60 C 0.5784 0.388 0.27276 0.0
C61 C 0.54361 0.22629 0.42183 0.0
C62 C 0.41074 0.76916 0.74739 0.0
C63 C 0.41939 0.69636 0.92971 0.0
C64 C 0.40053 0.57417 0.79759 0.0
Mg65 Mg 0.36926 0.75562 0.58779 0.0
Mg66 Mg 0.23797 0.61758 0.54176 0.0
O67 O 0.31496 0.66815 0.57653 0.0
Mg68 Mg 0.33152 0.64887 0.66991 0.0
O69 O 0.35681 0.63896 0.76148 0.0
Mg70 Mg 0.43852 0.69307 0.75309 0.0
Mg71 Mg 0.32474 0.5936 0.8431 0.0
C72 C 0.24074 0.52838 0.58358 0.0
O73 O 0.24722 0.60433 0.72992 0.0
O74 O 0.3257 0.68381 0.50804 0.0
O75 O 0.24179 0.55511 0.82215 0.0
O76 O 0.29162 0.74267 0.58907 0.0
O77 O 0.2611 0.64395 0.42536 0.0
O78 O 0.21001 0.65643 0.57992 0.0
O79 O 0.4189 0.68976 0.62453 0.0
O80 O 0.44143 0.76334 0.57371 0.0
C81 C 0.45211 0.73431 0.5874 0.0
C82 C 0.31068 0.68443 0.44246 0.0
O83 O 0.28762 0.56343 0.61623 0.0
O84 O 0.45114 0.70191 0.88136 0.0
O85 O 0.21255 0.53958 0.56495 0.0
O86 O 0.43169 0.61863 0.75935 0.0
O87 O 0.36767 0.65746 0.92502 0.0
O88 O 0.35799 0.55769 0.83213 0.0
O89 O 0.367 0.73235 0.71061 0.0
O90 O 0.44305 0.76325 0.76416 0.0
C91 C 0.23927 0.70808 0.58463 0.0
C92 C 0.22068 0.56787 0.78174 0.0
C93 C 0.12823 0.19929 0.71463 0.0
C94 C 0.10362 0.1447 0.71801 0.0
C95 C 0.17378 0.23663 0.6688 0.0
C96 C 0.21654 0.26725 0.50811 0.0
H97 H 0.28767 0.21682 0.45603 0.0
C98 C 0.1153 0.09821 0.32503 0.0
C99 C 0.13877 0.08208 0.28626 0.0
C100 C 0.14794 0.1482 0.36226 0.0
C101 C 0.2702 0.23375 0.46831 0.0
H102 H 0.10978 0.08752 0.68091 0.0
H103 H 0.18729 0.15117 0.60038 0.0
H104 H 0.28777 0.24054 0.58499 0.0
H105 H 0.21537 0.10699 0.25358 0.0
H106 H 0.27275 0.19424 0.32163 0.0
H107 H 0.19612 0.25742 0.39251 0.0
C108 C 0.1726 0.1661 0.63347 0.0
C109 C 0.26999 0.24707 0.54273 0.0
C110 C 0.12696 0.12889 0.67812 0.0
C111 C 0.196 0.1179 0.28414 0.0
C112 C 0.22891 0.16814 0.32214 0.0
C113 C 0.21879 0.25633 0.43328 0.0
C114 C 0.19603 0.22018 0.62691 0.0
C115 C 0.2341 0.25321 0.56386 0.0
C116 C 0.20518 0.18367 0.36216 0.0
C117 C 0.23722 0.2304 0.41569 0.0
H118 H 0.11145 0.21277 0.74584 0.0
H119 H 0.19035 0.27766 0.66393 0.0
H120 H 0.19137 0.27549 0.52213 0.0
H121 H 0.07149 0.07222 0.32679 0.0
H122 H 0.12776 0.15776 0.39401 0.0
C123 C 0.75097 0.38348 0.6588 0.0
C124 C 0.71886 0.36772 0.59533 0.0
C125 C 0.76845 0.42789 0.7024 0.0
C126 C 0.80238 0.5241 0.79013 0.0
H127 H 0.66595 0.48211 0.83933 0.0
C128 C 0.64066 0.42613 0.03504 0.0
C129 C 0.6636 0.40803 0.06705 0.0
C130 C 0.67102 0.46927 0.9844 0.0
C131 C 0.70541 0.49634 0.8272 0.0
H132 H 0.67959 0.38489 0.52687 0.0
H133 H 0.71008 0.46224 0.60236 0.0
H134 H 0.67811 0.46224 0.71783 0.0
H135 H 0.73779 0.42516 0.08137 0.0
H136 H 0.78885 0.49592 0.98981 0.0
H137 H 0.82887 0.55719 0.90077 0.0
C138 C 0.72306 0.44169 0.61792 0.0
C139 C 0.7124 0.48468 0.75592 0.0
C140 C 0.70564 0.39746 0.5747 0.0
C141 C 0.71876 0.43742 0.05509 0.0
C142 C 0.7484 0.47902 0.00269 0.0
C143 C 0.79577 0.53705 0.86108 0.0
C144 C 0.75334 0.45658 0.68349 0.0
C145 C 0.75822 0.49238 0.74016 0.0
C146 C 0.72339 0.49235 0.96133 0.0
C147 C 0.74378 0.51493 0.88395 0.0
H148 H 0.76126 0.36068 0.67565 0.0
H149 H 0.79052 0.43721 0.75364 0.0
H150 H 0.83977 0.53384 0.77753 0.0
H151 H 0.59883 0.40577 0.04702 0.0
H152 H 0.65134 0.48092 0.95882 0.0
C153 C 0.48044 0.77074 0.02561 0.0
C154 C 0.43977 0.74519 0.971 0.0
C155 C 0.49472 0.81457 0.06745 0.0
C156 C 0.51004 0.89519 0.16887 0.0
H157 H 0.36944 0.84767 0.20117 0.0
C158 C 0.32277 0.75682 0.37514 0.0
C159 C 0.34442 0.73636 0.40292 0.0
C160 C 0.3564 0.80626 0.33661 0.0
C161 C 0.40964 0.86258 0.19433 0.0
H162 H 0.38685 0.74842 0.91034 0.0
H163 H 0.4134 0.82539 0.97865 0.0
H164 H 0.39412 0.84395 0.07919 0.0
H165 H 0.41826 0.75351 0.42131 0.0
H166 H 0.47567 0.83594 0.35012 0.0
H167 H 0.52391 0.91279 0.28624 0.0
C168 C 0.4331 0.81155 0.99308 0.0
C169 C 0.42422 0.86019 0.12238 0.0
C170 C 0.41758 0.76697 0.95361 0.0
C171 C 0.40048 0.76785 0.39778 0.0
C172 C 0.43371 0.81618 0.3577 0.0
C173 C 0.49542 0.89812 0.24099 0.0
C174 C 0.46945 0.83431 0.05373 0.0
C175 C 0.47069 0.8679 0.11151 0.0
C176 C 0.41163 0.83458 0.32197 0.0
C177 C 0.44085 0.87157 0.2558 0.0
H178 H 0.49879 0.755 0.03875 0.0
H179 H 0.52266 0.82996 0.11365 0.0
H180 H 0.54923 0.90782 0.16098 0.0
H181 H 0.27996 0.73448 0.3826 0.0
H182 H 0.33794 0.82018 0.31468 0.0
C183 C 0.24903 0.78451 0.53883 0.0
C184 C 0.21469 0.72914 0.55832 0.0
C185 C 0.23098 0.80162 0.49023 0.0
C186 C 0.11072 0.76467 0.40083 0.0
H187 H 0.20953 0.84871 0.23412 0.0
C188 C 0.04523 0.81833 0.15719 0.0
C189 C 0.08421 0.8722 0.1312 0.0
C190 C 0.06078 0.79693 0.20146 0.0
C191 C 0.18157 0.82578 0.28046 0.0
H192 H 0.13212 0.64986 0.5482 0.0
H193 H 0.10034 0.68026 0.46539 0.0
H194 H 0.23592 0.82305 0.33557 0.0
H195 H 0.17056 0.94441 0.12669 0.0
H196 H 0.19786 0.9077 0.20436 0.0
H197 H 0.05691 0.76842 0.34734 0.0
C198 C 0.1417 0.7101 0.48652 0.0
C199 C 0.1968 0.8111 0.33882 0.0
C200 C 0.15992 0.69274 0.53454 0.0
C201 C 0.13962 0.90242 0.14462 0.0
C202 C 0.15518 0.88133 0.18998 0.0
C203 C 0.09572 0.77985 0.34293 0.0
C204 C 0.17784 0.76416 0.4609 0.0
C205 C 0.16165 0.78052 0.39986 0.0
C206 C 0.11568 0.82921 0.2221 0.0
C207 C 0.13089 0.81067 0.28173 0.0
H208 H 0.29136 0.81409 0.55607 0.0
H209 H 0.25944 0.84387 0.47304 0.0
H210 H 0.08285 0.74139 0.44719 0.0
H211 H 1.00218 0.7941 0.14798 0.0
H212 H 0.02926 0.75598 0.2227 0.0
C213 C 0.16664 0.434 0.53195 0.0
C214 C 0.2213 0.47591 0.55466 0.0
C215 C 0.15035 0.3902 0.4881 0.0
C216 C 0.20824 0.36048 0.34892 0.0
H217 H 0.06671 0.21244 0.35905 0.0
C218 C 0.15121 0.1852 0.16591 0.0
C219 C 0.09769 0.14499 0.13811 0.0
C220 C 0.16551 0.22599 0.21488 0.0
C221 C 0.106 0.25385 0.3547 0.0
H222 H 0.30079 0.50224 0.55356 0.0
H223 H 0.27214 0.42522 0.47761 0.0
H224 H 0.09336 0.27873 0.45632 0.0
H225 H 0.01758 0.11726 0.13879 0.0
H226 H 0.04275 0.18903 0.2245 0.0
H227 H 0.22093 0.33581 0.24736 0.0
C228 C 0.2421 0.42692 0.4928 0.0
C229 C 0.12148 0.29175 0.41082 0.0
C230 C 0.25838 0.47071 0.5372 0.0
C231 C 0.05923 0.14777 0.1587 0.0
C232 C 0.07351 0.18853 0.20845 0.0
C233 C 0.19274 0.3227 0.29279 0.0
C234 C 0.18832 0.38718 0.46548 0.0
C235 C 0.17284 0.34558 0.40869 0.0
C236 C 0.12667 0.22767 0.23797 0.0
C237 C 0.14148 0.26883 0.29497 0.0
H238 H 0.13689 0.43652 0.54464 0.0
H239 H 0.10868 0.36052 0.46813 0.0
H240 H 0.2476 0.40183 0.3445 0.0
H241 H 0.18191 0.18424 0.15178 0.0
H242 H 0.20659 0.25488 0.23714 0.0
C243 C 0.54118 0.8045 0.52243 0.0
C244 C 0.50192 0.75156 0.55177 0.0
C245 C 0.58283 0.81904 0.47589 0.0
C246 C 0.61644 0.75786 0.34831 0.0
H247 H 0.75802 0.90619 0.34424 0.0
C248 C 0.80397 0.82765 0.18235 0.0
C249 C 0.83882 0.87934 0.14889 0.0
C250 C 0.75888 0.8092 0.22442 0.0
C251 C 0.71839 0.86481 0.34391 0.0
H252 H 0.47774 0.67326 0.55822 0.0
H253 H 0.55196 0.69923 0.47817 0.0
H254 H 0.69203 0.8801 0.44005 0.0
H255 H 0.85209 0.95103 0.12982 0.0
H256 H 0.77306 0.91887 0.20404 0.0
H257 H 0.64391 0.74257 0.25299 0.0
C258 C 0.54948 0.72911 0.49002 0.0
C259 C 0.68049 0.84969 0.39909 0.0
C260 C 0.50738 0.7144 0.53682 0.0
C261 C 0.82563 0.91081 0.15433 0.0
C262 C 0.78085 0.89268 0.19758 0.0
C263 C 0.65469 0.7729 0.2935 0.0
C264 C 0.587 0.7813 0.4575 0.0
C265 C 0.62876 0.79612 0.40183 0.0
C266 C 0.74803 0.84239 0.23503 0.0
C267 C 0.70599 0.82667 0.29038 0.0
H268 H 0.53846 0.83436 0.53273 0.0
H269 H 0.61026 0.85932 0.45157 0.0
H270 H 0.57681 0.71652 0.34766 0.0
H271 H 0.81328 0.80259 0.17923 0.0
H272 H 0.73463 0.77042 0.25262 0.0
C273 C 0.706 0.14392 0.48098 0.0
C274 C 0.74189 0.19842 0.45681 0.0
C275 C 0.72441 0.12613 0.52746 0.0
C276 C 0.82709 0.18213 0.67286 0.0
H277 H 0.78549 0.04275 0.66211 0.0
C278 C 0.92002 0.12625 0.86589 0.0
C279 C 0.89068 0.07093 0.87745 0.0
C280 C 0.89828 0.14143 0.82129 0.0
C281 C 0.7966 0.08139 0.6672 0.0
H282 H 0.82666 0.27523 0.45711 0.0
H283 H 0.85844 0.24404 0.53776 0.0
H284 H 0.75759 0.06825 0.563 0.0
H285 H 0.81342 0.9885 0.85844 0.0
H286 H 0.7739 0.01482 0.78549 0.0
H287 H 0.86496 0.19503 0.77771 0.0
C288 C 0.81586 0.21541 0.52165 0.0
C289 C 0.78098 0.09617 0.60966 0.0
C290 C 0.79766 0.233 0.47437 0.0
C291 C 0.83689 0.03149 0.85075 0.0
C292 C 0.81476 0.04664 0.8074 0.0
C293 C 0.84209 0.16707 0.73097 0.0
C294 C 0.77902 0.16252 0.55132 0.0
C295 C 0.79643 0.1469 0.61146 0.0
C296 C 0.84631 0.10159 0.78824 0.0
C297 C 0.82735 0.11655 0.72894 0.0
H298 H 0.66282 0.11607 0.46863 0.0
H299 H 0.69504 0.085 0.54897 0.0
H300 H 0.83871 0.22109 0.67668 0.0
H301 H 0.96198 0.15752 0.88436 0.0
H302 H 0.92412 0.18415 0.8081 0.0
C303 C 0.73614 0.4969 0.44325 0.0
C304 C 0.77149 0.48845 0.43507 0.0
C305 C 0.75115 0.54003 0.48826 0.0
C306 C 0.83985 0.62293 0.65096 0.0
H307 H 0.81213 0.71426 0.60668 0.0
C308 C 0.93051 0.81494 0.82876 0.0
C309 C 0.90179 0.83128 0.83179 0.0
C310 C 0.91104 0.76974 0.78467 0.0
C311 C 0.81923 0.68842 0.62091 0.0
H312 H 0.85241 0.52203 0.46227 0.0
H313 H 0.87801 0.59622 0.53953 0.0
H314 H 0.78599 0.64493 0.51618 0.0
H315 H 0.82828 0.8109 0.79627 0.0
H316 H 0.79309 0.731 0.72297 0.0
H317 H 0.8722 0.66541 0.75606 0.0
C318 C 0.83826 0.56898 0.51308 0.0
C319 C 0.80443 0.6488 0.56856 0.0
C320 C 0.8236 0.52651 0.468 0.0
C321 C 0.85152 0.79945 0.79443 0.0
C322 C 0.83169 0.75399 0.75156 0.0
C323 C 0.85393 0.66193 0.70378 0.0
C324 C 0.80154 0.57508 0.52623 0.0
C325 C 0.81516 0.61601 0.58256 0.0
C326 C 0.8621 0.73963 0.74358 0.0
C327 C 0.84439 0.69572 0.68928 0.0
H328 H 0.69572 0.4684 0.41886 0.0
H329 H 0.72198 0.5438 0.49699 0.0
H330 H 0.84819 0.59794 0.66385 0.0
H331 H 0.96968 0.83911 0.85629 0.0
H332 H 0.93589 0.76029 0.77981 0.0
C333 C 0.48388 0.24171 0.46763 0.0
C334 C 0.49108 0.20594 0.45171 0.0
C335 C 0.43979 0.22453 0.51194 0.0
C336 C 0.35132 0.12625 0.66181 0.0
H337 H 0.26713 0.16414 0.63198 0.0
C338 C 0.1699 0.04923 0.85472 0.0
C339 C 0.16417 0.08615 0.87048 0.0
C340 C 0.20906 0.0625 0.80292 0.0
C341 C 0.29099 0.15411 0.64168 0.0
H342 H 0.4547 0.12267 0.46405 0.0
H343 H 0.3783 0.09304 0.54019 0.0
H344 H 0.33477 0.19023 0.53826 0.0
H345 H 0.19702 0.16701 0.84596 0.0
H346 H 0.26513 0.19008 0.75746 0.0
H347 H 0.30843 0.09116 0.76583 0.0
C348 C 0.40728 0.13464 0.52028 0.0
C349 C 0.32949 0.16874 0.58775 0.0
C350 C 0.45097 0.15162 0.47607 0.0
C351 C 0.19998 0.13735 0.83539 0.0
C352 C 0.23883 0.15047 0.78377 0.0
C353 C 0.31319 0.11211 0.71603 0.0
C354 C 0.40222 0.17135 0.54115 0.0
C355 C 0.36021 0.15504 0.5972 0.0
C356 C 0.24326 0.11289 0.76561 0.0
C357 C 0.2828 0.12625 0.70699 0.0
H358 H 0.51404 0.28383 0.45003 0.0
H359 H 0.43694 0.2538 0.52685 0.0
H360 H 0.37484 0.1157 0.67139 0.0
H361 H 0.14282 1.00932 0.8802 0.0
H362 H 0.21117 0.03245 0.79011 0.0
C363 C 0.59025 0.46583 0.22773 0.0
C364 C 0.55502 0.41088 0.2497 0.0
C365 C 0.5721 0.48331 0.18011 0.0
C366 C 0.46528 0.42505 0.03586 0.0
H367 H 0.52602 0.57279 0.02849 0.0
C368 C 0.38307 0.49439 0.84744 0.0
C369 C 0.42035 0.5479 0.81957 0.0
C370 C 0.40074 0.47552 0.89292 0.0
C371 C 0.50929 0.53156 0.02905 0.0
H372 H 0.47086 0.33325 0.24633 0.0
H373 H 0.43883 0.36436 0.16623 0.0
H374 H 0.55011 0.54603 0.13159 0.0
H375 H 0.50612 0.6217 0.81222 0.0
H376 H 0.53704 0.5885 0.89085 0.0
H377 H 0.42368 0.41051 0.93384 0.0
C378 C 0.48128 0.39334 0.18291 0.0
C379 C 0.52294 0.51608 0.08852 0.0
C380 C 0.49952 0.37571 0.23017 0.0
C381 C 0.47631 0.58015 0.83219 0.0
C382 C 0.49396 0.56146 0.87842 0.0
C383 C 0.45131 0.44044 0.9767 0.0
C384 C 0.51796 0.4466 0.15404 0.0
C385 C 0.50119 0.46258 0.09288 0.0
C386 C 0.45611 0.50986 0.9121 0.0
C387 C 0.47324 0.49394 0.97239 0.0
H388 H 0.63322 0.49445 0.24163 0.0
H389 H 0.60173 0.52468 0.1596 0.0
H390 H 0.44863 0.38385 0.03599 0.0
H391 H 0.33966 0.46854 0.83896 0.0
H392 H 0.37044 0.43553 0.91764 0.0
C393 C 0.38143 0.81389 0.80509 0.0
C394 C 0.42325 0.81795 0.7775 0.0
C395 C 0.39364 0.85469 0.85239 0.0
C396 C 0.50856 0.96851 0.9776 0.0
H397 H 0.40879 0.98666 0.01788 0.0
C398 C 0.55755 0.12032 0.20911 0.0
C399 C 0.53928 0.1467 0.19671 0.0
C400 C 0.53905 0.07592 0.16342 0.0
C401 C 0.43805 0.98332 0.00692 0.0
H402 H 0.51079 0.8705 0.77059 0.0
H403 H 0.53242 0.94301 0.84795 0.0
H404 H 0.38917 0.92695 0.91749 0.0
H405 H 0.48719 0.14676 0.12588 0.0
H406 H 0.45858 0.07383 0.04528 0.0
H407 H 0.55961 0.02822 0.06313 0.0
C408 C 0.48991 0.9072 0.83765 0.0
C409 C 0.42601 0.94768 0.94953 0.0
C410 C 0.47761 0.86593 0.79192 0.0
C411 C 0.50168 0.12714 0.13848 0.0
C412 C 0.48464 0.08432 0.09192 0.0
C413 C 0.52156 1.0056 0.03332 0.0
C414 C 0.44814 0.90097 0.87234 0.0
C415 C 0.46127 0.93993 0.93315 0.0
C416 C 0.50308 0.05791 0.10286 0.0
C417 C 0.48693 1.01436 0.04836 0.0
H418 H 0.3391 0.77711 0.79553 0.0
H419 H 0.35983 0.84744 0.87756 0.0
H420 H 0.53598 0.96241 0.96993 0.0
H421 H 0.5865 0.1343 0.25342 0.0
H422 H 0.5536 0.05632 0.17534 0.0
C423 C 0.15283 0.57425 0.81546 0.0
C424 C 0.16505 0.54234 0.8033 0.0
C425 C 0.10616 0.55331 0.85626 0.0
C426 C 1.0136 0.44748 0.99976 0.0
H427 H 0.93591 0.49337 0.97602 0.0
C428 C 0.82587 0.36905 0.18158 0.0
C429 C 0.82526 0.40902 0.20269 0.0
C430 C 0.86634 0.38211 0.13266 0.0
C431 C 0.95746 0.48041 0.98361 0.0
H432 H 0.13592 0.46227 0.81789 0.0
H433 H 0.05345 0.4249 0.88536 0.0
H434 H 1.00406 0.52011 0.88336 0.0
H435 H 0.86919 0.4949 0.19398 0.0
H436 H 0.93918 0.51731 0.11011 0.0
H437 H 0.96661 0.40765 0.1001 0.0
C438 C 0.08066 0.46669 0.86651 0.0
C439 C 0.99663 0.49582 0.93046 0.0
C440 C 0.12753 0.48783 0.82685 0.0
C441 C 0.86789 0.46284 0.17808 0.0
C442 C 0.90788 0.47571 0.1294 0.0
C443 C 0.97406 0.43169 0.05259 0.0
C444 C 0.07055 0.49985 0.88484 0.0
C445 C 0.0258 0.48018 0.93821 0.0
C446 C 0.90662 0.43524 0.10404 0.0
C447 C 0.94619 0.44873 0.04578 0.0
H448 H 0.18146 0.61662 0.79881 0.0
H449 H 0.1 0.58025 0.86937 0.0
H450 H 0.03581 0.43539 0.00867 0.0
H451 H 0.79347 0.32721 0.19925 0.0
H452 H 0.86453 0.35009 0.11436 0.0
loop_
_geom_bond_atom_site_label_1
_geom_bond_atom_site_label_2
_geom_bond_distance
_geom_bond_site_symmetry_2
_ccdc_geom_bond_type
C0 O27 1.312 . S
C0 O28 1.208 . S
C1 O22 1.331 1_565 S
C1 O25 1.244 1_455 S
C2 O24 1.264 . S
C2 O26 1.273 . S
Mg3 O5 1.936 1_455 S
Mg3 O12 2.081 . S
Mg3 O14 2.023 1_455 S
Mg3 O18 2.031 . S
Mg3 O27 2.291 1_556 S
Mg4 O5 1.963 1_565 S
Mg4 O15 1.942 . S
Mg4 O16 1.955 1_565 S
Mg4 O23 1.986 . S
O5 Mg3 1.936 1_655 S
O5 Mg4 1.963 1_545 S
O5 Mg6 1.915 1_546 S
Mg6 O5 1.915 1_564 S
Mg6 O7 1.915 1_655 S
Mg6 O11 2.013 . S
Mg6 O17 2.114 1_664 S
Mg6 O21 2.013 1_554 S
Mg6 O27 2.114 1_665 S
O7 Mg6 1.915 1_455 S
O7 Mg8 1.936 1_565 S
O7 Mg9 1.963 1_455 S
Mg8 O7 1.936 1_545 S
Mg8 O17 2.291 1_554 S
Mg8 O22 2.081 . S
Mg8 O24 2.023 1_545 S
Mg8 O28 2.031 . S
Mg9 O7 1.963 1_655 S
Mg9 O13 1.986 . S
Mg9 O25 1.942 . S
Mg9 O26 1.955 1_655 S
C10 O21 1.191 . S
C10 O23 1.307 . S
O11 Mg6 2.013 . S
O11 C30 1.191 . S
O12 Mg3 2.081 . S
O12 C20 1.331 1_455 S
O13 Mg9 1.986 . S
O13 C30 1.307 . S
O14 Mg3 2.023 1_655 S
O14 C29 1.264 . S
O15 Mg4 1.942 . S
O15 C20 1.244 1_565 S
O16 Mg4 1.955 1_545 S
O16 C29 1.273 . S
O17 Mg6 2.114 1_446 S
O17 Mg8 2.291 1_556 S
O17 C19 1.312 . S
O18 Mg3 2.031 . S
O18 C19 1.208 . S
C19 O17 1.312 . S
C19 O18 1.208 . S
C20 O12 1.331 1_655 S
C20 O15 1.244 1_545 S
O21 Mg6 2.013 1_556 S
O21 C10 1.191 . S
O22 C1 1.331 1_545 S
O22 Mg8 2.081 . S
O23 Mg4 1.986 . S
O23 C10 1.307 . S
O24 C2 1.264 . S
O24 Mg8 2.023 1_565 S
O25 C1 1.244 1_655 S
O25 Mg9 1.942 . S
O26 C2 1.273 . S
O26 Mg9 1.955 1_455 S
O27 C0 1.312 . S
O27 Mg3 2.291 1_554 S
O27 Mg6 2.114 1_445 S
O28 C0 1.208 . S
O28 Mg8 2.031 . S
C29 O14 1.264 . S
C29 O16 1.273 . S
C30 O11 1.191 . S
C30 O13 1.307 . S
C31 O58 1.312 . S
C31 O59 1.208 . S
C32 O53 1.331 . S
C32 O56 1.244 . S
C33 O55 1.264 . S
C33 O57 1.273 . S
Mg34 O36 1.936 . S
Mg34 O43 2.081 . S
Mg34 O45 2.023 . S
Mg34 O49 2.031 . S
Mg34 O58 2.291 . S
Mg35 O36 1.963 . S
Mg35 O46 1.942 . S
Mg35 O47 1.955 . S
Mg35 O54 1.986 . S
O36 Mg34 1.936 . S
O36 Mg35 1.963 . S
O36 Mg37 1.915 . S
Mg37 O36 1.915 . S
Mg37 O38 1.915 . S
Mg37 O42 2.013 . S
Mg37 O48 2.114 . S
Mg37 O52 2.013 . S
Mg37 O58 2.114 . S
O38 Mg37 1.915 . S
O38 Mg39 1.936 . S
O38 Mg40 1.963 . S
Mg39 O38 1.936 . S
Mg39 O48 2.291 . S
Mg39 O53 2.081 . S
Mg39 O55 2.023 . S
Mg39 O59 2.031 . S
Mg40 O38 1.963 . S
Mg40 O44 1.986 . S
Mg40 O56 1.942 . S
Mg40 O57 1.955 . S
C41 O52 1.191 . S
C41 O54 1.307 . S
O42 Mg37 2.013 . S
O42 C61 1.191 . S
O43 Mg34 2.081 . S
O43 C51 1.331 . S
O44 Mg40 1.986 . S
O44 C61 1.307 . S
O45 Mg34 2.023 . S
O45 C60 1.264 . S
O46 Mg35 1.942 . S
O46 C51 1.244 . S
O47 Mg35 1.955 . S
O47 C60 1.273 . S
O48 Mg37 2.114 . S
O48 Mg39 2.291 . S
O48 C50 1.312 . S
O49 Mg34 2.031 . S
O49 C50 1.208 . S
C50 O48 1.312 . S
C50 O49 1.208 . S
C51 O43 1.331 . S
C51 O46 1.244 . S
O52 Mg37 2.013 . S
O52 C41 1.191 . S
O53 C32 1.331 . S
O53 Mg39 2.081 . S
O54 Mg35 1.986 . S
O54 C41 1.307 . S
O55 C33 1.264 . S
O55 Mg39 2.023 . S
O56 C32 1.244 . S
O56 Mg40 1.942 . S
O57 C33 1.273 . S
O57 Mg40 1.955 . S
O58 C31 1.312 . S
O58 Mg34 2.291 . S
O58 Mg37 2.114 . S
O59 C31 1.208 . S
O59 Mg39 2.031 . S
C60 O45 1.264 . S
C60 O47 1.273 . S
C61 O42 1.191 . S
C61 O44 1.307 . S
C62 O89 1.312 . S
C62 O90 1.208 . S
C63 O84 1.331 . S
C63 O87 1.244 . S
C64 O86 1.264 . S
C64 O88 1.273 . S
Mg65 O67 1.936 . S
Mg65 O74 2.081 . S
Mg65 O76 2.023 . S
Mg65 O80 2.031 . S
Mg65 O89 2.291 . S
Mg66 O67 1.963 . S
Mg66 O77 1.942 . S
Mg66 O78 1.955 . S
Mg66 O85 1.986 . S
O67 Mg65 1.936 . S
O67 Mg66 1.963 . S
O67 Mg68 1.915 . S
Mg68 O67 1.915 . S
Mg68 O69 1.915 . S
Mg68 O73 2.013 . S
Mg68 O79 2.114 . S
Mg68 O83 2.013 . S
Mg68 O89 2.114 . S
O69 Mg68 1.915 . S
O69 Mg70 1.936 . S
O69 Mg71 1.963 . S
Mg70 O69 1.936 . S
Mg70 O79 2.291 . S
Mg70 O84 2.081 . S
Mg70 O86 2.023 . S
Mg70 O90 2.031 . S
Mg71 O69 1.963 . S
Mg71 O75 1.986 . S
Mg71 O87 1.942 . S
Mg71 O88 1.955 . S
C72 O83 1.191 . S
C72 O85 1.307 . S
O73 Mg68 2.013 . S
O73 C92 1.191 . S
O74 Mg65 2.081 . S
O74 C82 1.331 . S
O75 Mg71 1.986 . S
O75 C92 1.307 . S
O76 Mg65 2.023 . S
O76 C91 1.264 . S
O77 Mg66 1.942 . S
O77 C82 1.244 . S
O78 Mg66 1.955 . S
O78 C91 1.273 . S
O79 Mg68 2.114 . S
O79 Mg70 2.291 . S
O79 C81 1.312 . S
O80 Mg65 2.031 . S
O80 C81 1.208 . S
C81 O79 1.312 . S
C81 O80 1.208 . S
C82 O74 1.331 . S
C82 O77 1.244 . S
O83 Mg68 2.013 . S
O83 C72 1.191 . S
O84 C63 1.331 . S
O84 Mg70 2.081 . S
O85 Mg66 1.986 . S
O85 C72 1.307 . S
O86 C64 1.264 . S
O86 Mg70 2.023 . S
O87 C63 1.244 . S
O87 Mg71 1.942 . S
O88 C64 1.273 . S
O88 Mg71 1.955 . S
O89 C62 1.312 . S
O89 Mg65 2.291 . S
O89 Mg68 2.114 . S
O90 C62 1.208 . S
O90 Mg70 2.031 . S
C91 O76 1.264 . S
C91 O78 1.273 . S
C92 O73 1.191 . S
C92 O75 1.307 . S
C93 C94 1.340 1_455 S
C93 C95 1.327 . S
C93 H118 0.950 . S
C94 C93 1.340 1_655 S
C94 C110 1.356 1_545 S
C95 C93 1.327 . S
C95 C114 1.429 . S
C95 H119 0.950 . S
C96 C113 1.574 . S
C96 C115 1.368 1_665 S
C96 H120 0.949 . S
H97 C101 0.949 . S
C98 C99 1.353 1_655 S
C98 C100 1.327 . S
C98 H121 0.950 . S
C99 C98 1.353 1_455 S
C99 C111 1.343 1_565 S
C100 C98 1.327 . S
C100 C116 1.429 1_665 S
C100 H122 0.950 . S
C101 H97 0.949 . S
C101 C109 1.574 . S
C101 C117 1.368 . S
H102 C110 0.950 . S
H103 C108 0.950 . S
H104 C109 0.949 . S
H105 C111 0.950 . S
H106 C112 0.950 . S
H107 C113 0.949 . S
C108 H103 0.950 . S
C108 C110 1.327 . S
C108 C114 1.429 1_665 S
C109 C101 1.574 . S
C109 H104 0.949 . S
C109 C115 1.368 . S
C110 C94 1.356 1_565 S
C110 H102 0.950 . S
C110 C108 1.327 . S
C111 C99 1.343 1_545 S
C111 H105 0.950 . S
C111 C112 1.327 . S
C112 H106 0.950 . S
C112 C111 1.327 . S
C112 C116 1.429 . S
C113 C96 1.574 . S
C113 H107 0.949 . S
C113 C117 1.368 1_665 S
C114 C95 1.429 . S
C114 C108 1.429 1_445 S
C114 C115 1.523 . S
C115 C96 1.368 1_445 S
C115 C109 1.368 . S
C115 C114 1.523 . S
C116 C100 1.429 1_445 S
C116 C112 1.429 . S
C116 C117 1.523 . S
C117 C101 1.368 . S
C117 C113 1.368 1_445 S
C117 C116 1.523 . S
H118 C93 0.950 . S
H119 C95 0.950 . S
H120 C96 0.949 . S
H121 C98 0.950 . S
H122 C100 0.950 . S
C123 C124 1.349 . S
C123 C125 1.327 . S
C123 H148 0.950 . S
C124 C123 1.349 . S
C124 C140 1.349 . S
C125 C123 1.327 . S
C125 C144 1.429 . S
C125 H149 0.950 . S
C126 C143 1.574 . S
C126 C145 1.368 . S
C126 H150 0.949 . S
H127 C131 0.949 . S
C128 C129 1.349 . S
C128 C130 1.327 . S
C128 H151 0.950 . S
C129 C128 1.349 . S
C129 C141 1.349 . S
C130 C128 1.327 . S
C130 C146 1.429 1_554 S
C130 H152 0.950 1_554 S
C131 H127 0.949 . S
C131 C139 1.574 . S
C131 C147 1.368 . S
H132 C140 0.950 . S
H133 C138 0.950 . S
H134 C139 0.949 . S
H135 C141 0.950 . S
H136 C142 0.950 . S
H137 C143 0.949 . S
C138 H133 0.950 . S
C138 C140 1.327 . S
C138 C144 1.429 . S
C139 C131 1.574 . S
C139 H134 0.949 . S
C139 C145 1.368 . S
C140 C124 1.349 . S
C140 H132 0.950 . S
C140 C138 1.327 . S
C141 C129 1.349 . S
C141 H135 0.950 . S
C141 C142 1.327 . S
C142 H136 0.950 . S
C142 C141 1.327 . S
C142 C146 1.429 1_554 S
C143 C126 1.574 . S
C143 H137 0.949 . S
C143 C147 1.368 . S
C144 C125 1.429 . S
C144 C138 1.429 . S
C144 C145 1.523 . S
C145 C126 1.368 . S
C145 C139 1.368 . S
C145 C144 1.523 . S
C146 C130 1.429 1_556 S
C146 C142 1.429 1_556 S
C146 C147 1.523 . S
C147 C131 1.368 . S
C147 C143 1.368 . S
C147 C146 1.523 . S
H148 C123 0.950 . S
H149 C125 0.950 . S
H150 C126 0.949 . S
H151 C128 0.950 . S
H152 C130 0.950 1_556 S
C153 C154 1.349 . S
C153 C155 1.327 . S
C153 H178 0.950 . S
C154 C153 1.349 . S
C154 C170 1.349 . S
C155 C153 1.327 . S
C155 C174 1.429 1_556 S
C155 H179 0.950 1_556 S
C156 C173 1.574 . S
C156 C175 1.368 . S
C156 H180 0.949 . S
H157 C161 0.949 . S
C158 C159 1.349 . S
C158 C160 1.327 . S
C158 H181 0.950 . S
C159 C158 1.349 . S
C159 C171 1.349 . S
C160 C158 1.327 . S
C160 C176 1.429 . S
C160 H182 0.950 . S
C161 H157 0.949 . S
C161 C169 1.574 . S
C161 C177 1.368 . S
H162 C170 0.950 . S
H163 C168 0.950 . S
H164 C169 0.949 . S
H165 C171 0.950 . S
H166 C172 0.950 . S
H167 C173 0.949 . S
C168 H163 0.950 . S
C168 C170 1.327 . S
C168 C174 1.429 1_556 S
C169 C161 1.574 . S
C169 H164 0.949 . S
C169 C175 1.368 . S
C170 C154 1.349 . S
C170 H162 0.950 . S
C170 C168 1.327 . S
C171 C159 1.349 . S
C171 H165 0.950 . S
C171 C172 1.327 . S
C172 H166 0.950 . S
C172 C171 1.327 . S
C172 C176 1.429 . S
C173 C156 1.574 . S
C173 H167 0.949 . S
C173 C177 1.368 . S
C174 C155 1.429 1_554 S
C174 C168 1.429 1_554 S
C174 C175 1.523 . S
C175 C156 1.368 . S
C175 C169 1.368 . S
C175 C174 1.523 . S
C176 C160 1.429 . S
C176 C172 1.429 . S
C176 C177 1.523 . S
C177 C161 1.368 . S
C177 C173 1.368 . S
C177 C176 1.523 . S
H178 C153 0.950 . S
H179 C155 0.950 1_554 S
H180 C156 0.949 . S
H181 C158 0.950 . S
H182 C160 0.950 . S
C183 C184 1.349 . S
C183 C185 1.327 . S
C183 H208 0.950 . S
C184 C183 1.349 . S
C184 C200 1.349 . S
C185 C183 1.327 . S
C185 C204 1.429 . S
C185 H209 0.950 . S
C186 C203 1.574 . S
C186 C205 1.368 . S
C186 H210 0.949 . S
H187 C191 0.949 . S
C188 C189 1.349 . S
C188 C190 1.327 . S
C188 H211 0.950 . S
C189 C188 1.349 . S
C189 C201 1.349 . S
C190 C188 1.327 . S
C190 C206 1.429 . S
C190 H212 0.950 . S
C191 H187 0.949 . S
C191 C199 1.574 . S
C191 C207 1.368 . S
H192 C200 0.950 . S
H193 C198 0.950 . S
H194 C199 0.949 . S
H195 C201 0.950 . S
H196 C202 0.950 . S
H197 C203 0.949 . S
C198 H193 0.950 . S
C198 C200 1.327 . S
C198 C204 1.429 . S
C199 C191 1.574 . S
C199 H194 0.949 . S
C199 C205 1.368 . S
C200 C184 1.349 . S
C200 H192 0.950 . S
C200 C198 1.327 . S
C201 C189 1.349 . S
C201 H195 0.950 . S
C201 C202 1.327 . S
C202 H196 0.950 . S
C202 C201 1.327 . S
C202 C206 1.429 . S
C203 C186 1.574 . S
C203 H197 0.949 . S
C203 C207 1.368 . S
C204 C185 1.429 . S
C204 C198 1.429 . S
C204 C205 1.523 . S
C205 C186 1.368 . S
C205 C199 1.368 . S
C205 C204 1.523 . S
C206 C190 1.429 . S
C206 C202 1.429 . S
C206 C207 1.523 . S
C207 C191 1.368 . S
C207 C203 1.368 . S
C207 C206 1.523 . S
H208 C183 0.950 . S
H209 C185 0.950 . S
H210 C186 0.949 . S
H211 C188 0.950 . S
H212 C190 0.950 . S
C213 C214 1.349 . S
C213 C215 1.327 . S
C213 H238 0.950 . S
C214 C213 1.349 . S
C214 C230 1.349 . S
C215 C213 1.327 . S
C215 C234 1.429 . S
C215 H239 0.950 . S
C216 C233 1.574 . S
C216 C235 1.368 . S
C216 H240 0.949 . S
H217 C221 0.949 . S
C218 C219 1.349 . S
C218 C220 1.327 . S
C218 H241 0.950 . S
C219 C218 1.349 . S
C219 C231 1.349 . S
C220 C218 1.327 . S
C220 C236 1.429 . S
C220 H242 0.950 . S
C221 H217 0.949 . S
C221 C229 1.574 . S
C221 C237 1.368 . S
H222 C230 0.950 . S
H223 C228 0.950 . S
H224 C229 0.949 . S
H225 C231 0.950 . S
H226 C232 0.950 . S
H227 C233 0.949 . S
C228 H223 0.950 . S
C228 C230 1.327 . S
C228 C234 1.429 . S
C229 C221 1.574 . S
C229 H224 0.949 . S
C229 C235 1.368 . S
C230 C214 1.349 . S
C230 H222 0.950 . S
C230 C228 1.327 . S
C231 C219 1.349 . S
C231 H225 0.950 . S
C231 C232 1.327 . S
C232 H226 0.950 . S
C232 C231 1.327 . S
C232 C236 1.429 . S
C233 C216 1.574 . S
C233 H227 0.949 . S
C233 C237 1.368 . S
C234 C215 1.429 . S
C234 C228 1.429 . S
C234 C235 1.523 . S
C235 C216 1.368 . S
C235 C229 1.368 . S
C235 C234 1.523 . S
C236 C220 1.429 . S
C236 C232 1.429 . S
C236 C237 1.523 . S
C237 C221 1.368 . S
C237 C233 1.368 . S
C237 C236 1.523 . S
H238 C213 0.950 . S
H239 C215 0.950 . S
H240 C216 0.949 . S
H241 C218 0.950 . S
H242 C220 0.950 . S
C243 C244 1.349 . S
C243 C245 1.327 . S
C243 H268 0.950 . S
C244 C243 1.349 . S
C244 C260 1.349 . S
C245 C243 1.327 . S
C245 C264 1.429 . S
C245 H269 0.950 . S
C246 C263 1.574 . S
C246 C265 1.368 . S
C246 H270 0.949 . S
H247 C251 0.949 . S
C248 C249 1.349 . S
C248 C250 1.327 . S
C248 H271 0.950 . S
C249 C248 1.349 . S
C249 C261 1.349 . S
C250 C248 1.327 . S
C250 C266 1.429 . S
C250 H272 0.950 . S
C251 H247 0.949 . S
C251 C259 1.574 . S
C251 C267 1.368 . S
H252 C260 0.950 . S
H253 C258 0.950 . S
H254 C259 0.949 . S
H255 C261 0.950 . S
H256 C262 0.950 . S
H257 C263 0.949 . S
C258 H253 0.950 . S
C258 C260 1.327 . S
C258 C264 1.429 . S
C259 C251 1.574 . S
C259 H254 0.949 . S
C259 C265 1.368 . S
C260 C244 1.349 . S
C260 H252 0.950 . S
C260 C258 1.327 . S
C261 C249 1.349 . S
C261 H255 0.950 . S
C261 C262 1.327 . S
C262 H256 0.950 . S
C262 C261 1.327 . S
C262 C266 1.429 . S
C263 C246 1.574 . S
C263 H257 0.949 . S
C263 C267 1.368 . S
C264 C245 1.429 . S
C264 C258 1.429 . S
C264 C265 1.523 . S
C265 C246 1.368 . S
C265 C259 1.368 . S
C265 C264 1.523 . S
C266 C250 1.429 . S
C266 C262 1.429 . S
C266 C267 1.523 . S
C267 C251 1.368 . S
C267 C263 1.368 . S
C267 C266 1.523 . S
H268 C243 0.950 . S
H269 C245 0.950 . S
H270 C246 0.949 . S
H271 C248 0.950 . S
H272 C250 0.950 . S
C273 C274 1.349 . S
C273 C275 1.327 . S
C273 H298 0.950 . S
C274 C273 1.349 . S
C274 C290 1.349 . S
C275 C273 1.327 . S
C275 C294 1.429 . S
C275 H299 0.950 . S
C276 C293 1.574 . S
C276 C295 1.368 . S
C276 H300 0.949 . S
H277 C281 0.949 . S
C278 C279 1.349 . S
C278 C280 1.327 . S
C278 H301 0.950 . S
C279 C278 1.349 . S
C279 C291 1.349 . S
C280 C278 1.327 . S
C280 C296 1.429 . S
C280 H302 0.950 . S
C281 H277 0.949 . S
C281 C289 1.574 . S
C281 C297 1.368 . S
H282 C290 0.950 . S
H283 C288 0.950 . S
H284 C289 0.949 . S
H285 C291 0.950 . S
H286 C292 0.950 . S
H287 C293 0.949 . S
C288 H283 0.950 . S
C288 C290 1.327 . S
C288 C294 1.429 . S
C289 C281 1.574 . S
C289 H284 0.949 . S
C289 C295 1.368 . S
C290 C274 1.349 . S
C290 H282 0.950 . S
C290 C288 1.327 . S
C291 C279 1.349 . S
C291 H285 0.950 . S
C291 C292 1.327 . S
C292 H286 0.950 . S
C292 C291 1.327 . S
C292 C296 1.429 . S
C293 C276 1.574 . S
C293 H287 0.949 . S
C293 C297 1.368 . S
C294 C275 1.429 . S
C294 C288 1.429 . S
C294 C295 1.523 . S
C295 C276 1.368 . S
C295 C289 1.368 . S
C295 C294 1.523 . S
C296 C280 1.429 . S
C296 C292 1.429 . S
C296 C297 1.523 . S
C297 C281 1.368 . S
C297 C293 1.368 . S
C297 C296 1.523 . S
H298 C273 0.950 . S
H299 C275 0.950 . S
H300 C276 0.949 . S
H301 C278 0.950 . S
H302 C280 0.950 . S
C303 C304 1.349 . S
C303 C305 1.327 . S
C303 H328 0.950 . S
C304 C303 1.349 . S
C304 C320 1.349 . S
C305 C303 1.327 . S
C305 C324 1.429 . S
C305 H329 0.950 . S
C306 C323 1.574 . S
C306 C325 1.368 . S
C306 H330 0.949 . S
H307 C311 0.949 . S
C308 C309 1.349 . S
C308 C310 1.327 . S
C308 H331 0.950 . S
C309 C308 1.349 . S
C309 C321 1.349 . S
C310 C308 1.327 . S
C310 C326 1.429 . S
C310 H332 0.950 . S
C311 H307 0.949 . S
C311 C319 1.574 . S
C311 C327 1.368 . S
H312 C320 0.950 . S
H313 C318 0.950 . S
H314 C319 0.949 . S
H315 C321 0.950 . S
H316 C322 0.950 . S
H317 C323 0.949 . S
C318 H313 0.950 . S
C318 C320 1.327 . S
C318 C324 1.429 . S
C319 C311 1.574 . S
C319 H314 0.949 . S
C319 C325 1.368 . S
C320 C304 1.349 . S
C320 H312 0.950 . S
C320 C318 1.327 . S
C321 C309 1.349 . S
C321 H315 0.950 . S
C321 C322 1.327 . S
C322 H316 0.950 . S
C322 C321 1.327 . S
C322 C326 1.429 . S
C323 C306 1.574 . S
C323 H317 0.949 . S
C323 C327 1.368 . S
C324 C305 1.429 . S
C324 C318 1.429 . S
C324 C325 1.523 . S
C325 C306 1.368 . S
C325 C319 1.368 . S
C325 C324 1.523 . S
C326 C310 1.429 . S
C326 C322 1.429 . S
C326 C327 1.523 . S
C327 C311 1.368 . S
C327 C323 1.368 . S
C327 C326 1.523 . S
H328 C303 0.950 . S
H329 C305 0.950 . S
H330 C306 0.949 . S
H331 C308 0.950 . S
H332 C310 0.950 . S
C333 C334 1.349 . S
C333 C335 1.327 . S
C333 H358 0.950 . S
C334 C333 1.349 . S
C334 C350 1.349 . S
C335 C333 1.327 . S
C335 C354 1.429 . S
C335 H359 0.950 . S
C336 C353 1.574 . S
C336 C355 1.368 . S
C336 H360 0.949 . S
H337 C341 0.949 . S
C338 C339 1.349 . S
C338 C340 1.327 . S
C338 H361 0.950 . S
C339 C338 1.349 . S
C339 C351 1.349 . S
C340 C338 1.327 . S
C340 C356 1.429 . S
C340 H362 0.950 . S
C341 H337 0.949 . S
C341 C349 1.574 . S
C341 C357 1.368 . S
H342 C350 0.950 . S
H343 C348 0.950 . S
H344 C349 0.949 . S
H345 C351 0.950 . S
H346 C352 0.950 . S
H347 C353 0.949 . S
C348 H343 0.950 . S
C348 C350 1.327 . S
C348 C354 1.429 . S
C349 C341 1.574 . S
C349 H344 0.949 . S
C349 C355 1.368 . S
C350 C334 1.349 . S
C350 H342 0.950 . S
C350 C348 1.327 . S
C351 C339 1.349 . S
C351 H345 0.950 . S
C351 C352 1.327 . S
C352 H346 0.950 . S
C352 C351 1.327 . S
C352 C356 1.429 . S
C353 C336 1.574 . S
C353 H347 0.949 . S
C353 C357 1.368 . S
C354 C335 1.429 . S
C354 C348 1.429 . S
C354 C355 1.523 . S
C355 C336 1.368 . S
C355 C349 1.368 . S
C355 C354 1.523 . S
C356 C340 1.429 . S
C356 C352 1.429 . S
C356 C357 1.523 . S
C357 C341 1.368 . S
C357 C353 1.368 . S
C357 C356 1.523 . S
H358 C333 0.950 . S
H359 C335 0.950 . S
H360 C336 0.949 . S
H361 C338 0.950 . S
H362 C340 0.950 . S
C363 C364 1.349 . S
C363 C365 1.327 . S
C363 H388 0.950 . S
C364 C363 1.349 . S
C364 C380 1.349 . S
C365 C363 1.327 . S
C365 C384 1.429 . S
C365 H389 0.950 . S
C366 C383 1.574 1_554 S
C366 C385 1.368 . S
C366 H390 0.949 . S
H367 C371 0.949 . S
C368 C369 1.349 . S
C368 C370 1.327 . S
C368 H391 0.950 . S
C369 C368 1.349 . S
C369 C381 1.349 . S
C370 C368 1.327 . S
C370 C386 1.429 . S
C370 H392 0.950 . S
C371 H367 0.949 . S
C371 C379 1.574 1_556 S
C371 C387 1.368 . S
H372 C380 0.950 . S
H373 C378 0.950 . S
H374 C379 0.949 . S
H375 C381 0.950 . S
H376 C382 0.950 . S
H377 C383 0.949 . S
C378 H373 0.950 . S
C378 C380 1.327 . S
C378 C384 1.429 . S
C379 C371 1.574 1_554 S
C379 H374 0.949 . S
C379 C385 1.368 . S
C380 C364 1.349 . S
C380 H372 0.950 . S
C380 C378 1.327 . S
C381 C369 1.349 . S
C381 H375 0.950 . S
C381 C382 1.327 . S
C382 H376 0.950 . S
C382 C381 1.327 . S
C382 C386 1.429 . S
C383 C366 1.574 1_556 S
C383 H377 0.949 . S
C383 C387 1.368 . S
C384 C365 1.429 . S
C384 C378 1.429 . S
C384 C385 1.523 . S
C385 C366 1.368 . S
C385 C379 1.368 . S
C385 C384 1.523 . S
C386 C370 1.429 . S
C386 C382 1.429 . S
C386 C387 1.523 . S
C387 C371 1.368 . S
C387 C383 1.368 . S
C387 C386 1.523 . S
H388 C363 0.950 . S
H389 C365 0.950 . S
H390 C366 0.949 . S
H391 C368 0.950 . S
H392 C370 0.950 . S
C393 C394 1.349 . S
C393 C395 1.327 . S
C393 H418 0.950 . S
C394 C393 1.349 . S
C394 C410 1.349 . S
C395 C393 1.327 . S
C395 C414 1.429 . S
C395 H419 0.950 . S
C396 C413 1.574 1_565 S
C396 C415 1.368 1_554 S
C396 H420 0.949 . S
H397 C401 0.949 . S
C398 C399 1.349 . S
C398 C400 1.327 . S
C398 H421 0.950 . S
C399 C398 1.349 . S
C399 C411 1.349 . S
C400 C398 1.327 . S
C400 C416 1.429 . S
C400 H422 0.950 . S
C401 H397 0.949 . S
C401 C409 1.574 1_545 S
C401 C417 1.368 1_556 S
H402 C410 0.950 . S
H403 C408 0.950 . S
H404 C409 0.949 . S
H405 C411 0.950 . S
H406 C412 0.950 . S
H407 C413 0.949 . S
C408 H403 0.950 . S
C408 C410 1.327 . S
C408 C414 1.429 . S
C409 C401 1.574 1_565 S
C409 H404 0.949 . S
C409 C415 1.368 . S
C410 C394 1.349 . S
C410 H402 0.950 . S
C410 C408 1.327 . S
C411 C399 1.349 . S
C411 H405 0.950 . S
C411 C412 1.327 . S
C412 H406 0.950 . S
C412 C411 1.327 . S
C412 C416 1.429 . S
C413 C396 1.574 1_545 S
C413 H407 0.949 . S
C413 C417 1.368 . S
C414 C395 1.429 . S
C414 C408 1.429 . S
C414 C415 1.523 . S
C415 C396 1.368 1_556 S
C415 C409 1.368 . S
C415 C414 1.523 . S
C416 C400 1.429 . S
C416 C412 1.429 . S
C416 C417 1.523 . S
C417 C401 1.368 1_554 S
C417 C413 1.368 . S
C417 C416 1.523 . S
H418 C393 0.950 . S
H419 C395 0.950 . S
H420 C396 0.949 . S
H421 C398 0.950 . S
H422 C400 0.950 . S
C423 C424 1.349 . S
C423 C425 1.327 . S
C423 H448 0.950 . S
C424 C423 1.349 . S
C424 C440 1.349 . S
C425 C423 1.327 . S
C425 C444 1.429 . S
C425 H449 0.950 . S
C426 C443 1.574 1_455 S
C426 C445 1.368 1_554 S
C426 H450 0.949 1_554 S
H427 C431 0.949 . S
C428 C429 1.349 . S
C428 C430 1.327 . S
C428 H451 0.950 . S
C429 C428 1.349 . S
C429 C441 1.349 . S
C430 C428 1.327 . S
C430 C446 1.429 . S
C430 H452 0.950 . S
C431 H427 0.949 . S
C431 C439 1.574 1_654 S
C431 C447 1.368 . S
H432 C440 0.950 . S
H433 C438 0.950 . S
H434 C439 0.949 . S
H435 C441 0.950 . S
H436 C442 0.950 . S
H437 C443 0.949 . S
C438 H433 0.950 . S
C438 C440 1.327 . S
C438 C444 1.429 . S
C439 C431 1.574 1_456 S
C439 H434 0.949 . S
C439 C445 1.368 . S
C440 C424 1.349 . S
C440 H432 0.950 . S
C440 C438 1.327 . S
C441 C429 1.349 . S
C441 H435 0.950 . S
C441 C442 1.327 . S
C442 H436 0.950 . S
C442 C441 1.327 . S
C442 C446 1.429 . S
C443 C426 1.574 1_655 S
C443 H437 0.949 . S
C443 C447 1.368 . S
C444 C425 1.429 . S
C444 C438 1.429 . S
C444 C445 1.523 . S
C445 C426 1.368 1_556 S
C445 C439 1.368 . S
C445 C444 1.523 . S
C446 C430 1.429 . S
C446 C442 1.429 . S
C446 C447 1.523 . S
C447 C431 1.368 . S
C447 C443 1.368 . S
C447 C446 1.523 . S
H448 C423 0.950 . S
H449 C425 0.950 . S
H450 C426 0.949 1_556 S
H451 C428 0.950 . S
H452 C430 0.950 . S
C94 C20 1.382 . S
C99 C1 1.382 . S
C124 C32 1.381 . S
C129 C51 1.381 . S
C154 C63 1.381 . S
C159 C82 1.381 . S
C184 C91 2.341 . S
C189 C2 2.340 . S
C214 C72 1.914 . S
C219 C0 1.894 . S
C244 C81 1.897 . S
C249 C30 1.914 . S
C274 C33 2.341 . S
C279 C29 2.342 . S
C304 C31 1.897 . S
C309 C10 1.916 . S
C334 C61 1.914 . S
C339 C19 1.896 . S
C364 C60 2.341 . S
C369 C64 2.341 . S
C394 C62 1.897 . S
C399 C41 1.914 . S
C424 C92 1.914 . S
C429 C50 1.897 . S
