# Generated by pormake.
# Topology ilc, (8)-cn, num edge types: 1
# Building blocks:
#     Node 0, Type 0, BuildingBlock: XADDAJ01_clean_sbu_3, # of connection points: 8
#     Node 1, Type 0, BuildingBlock: XADDAJ01_clean_sbu_3, # of connection points: 8
#     Node 2, Type 0, BuildingBlock: XADDAJ01_clean_sbu_3, # of connection points: 8
#     Edge 3, Type (0, 0), BuildingBlock: FUNLAD_clean_linker_0, # of connection points: 2
#     Edge 4, Type (0, 0), BuildingBlock: FUNLAD_clean_linker_0, # of connection points: 2
#     Edge 5, Type (0, 0), BuildingBlock: FUNLAD_clean_linker_0, # of connection points: 2
#     Edge 6, Type (0, 0), BuildingBlock: FUNLAD_clean_linker_0, # of connection points: 2
#     Edge 7, Type (0, 0), BuildingBlock: FUNLAD_clean_linker_0, # of connection points: 2
#     Edge 8, Type (0, 0), BuildingBlock: FUNLAD_clean_linker_0, # of connection points: 2
#     Edge 9, Type (0, 0), BuildingBlock: FUNLAD_clean_linker_0, # of connection points: 2
#     Edge 10, Type (0, 0), BuildingBlock: FUNLAD_clean_linker_0, # of connection points: 2
#     Edge 11, Type (0, 0), BuildingBlock: FUNLAD_clean_linker_0, # of connection points: 2
#     Edge 12, Type (0, 0), BuildingBlock: FUNLAD_clean_linker_0, # of connection points: 2
#     Edge 13, Type (0, 0), BuildingBlock: FUNLAD_clean_linker_0, # of connection points: 2
#     Edge 14, Type (0, 0), BuildingBlock: FUNLAD_clean_linker_0, # of connection points: 2
# Relax obj value: 0.150
# Max RMSD: 0.200
# Mean RMSD: 0.200
data_MOF--net-ilc--node1-XADDAJ01_clean_sbu_3--edge1-FUNLAD_clean_linker_0
_symmetry_space_group_name_H-M    P1
_symmetry_Int_Tables_number       1
_symmetry_cell_setting            triclinic
loop_
_symmetry_equiv_pos_as_xyz
'x, y, z'
_cell_length_a     24.900553
_cell_length_b     34.664768
_cell_length_c     21.768787
_cell_angle_alpha  100.17325
_cell_angle_beta   77.660043
_cell_angle_gamma 141.80931
loop_
_atom_site_label
_atom_site_type_symbol
_atom_site_fract_x
_atom_site_fract_y
_atom_site_fract_z
_atom_type_partial_charge
C0 C 0.11332 0.99006 0.17467 0.0
C1 C 1.04241 0.96872 0.21606 0.0
C2 C 1.00389 0.92945 0.2657 0.0
C3 C 1.03746 0.9125 0.2742 0.0
C4 C 0.1093 0.93446 0.23453 0.0
C5 C 0.14754 0.97361 0.18461 0.0
O6 O 0.04549 0.05746 0.05919 0.0
Tb7 Tb 0.16388 0.10137 0.0876 0.0
Tb8 Tb 1.00591 1.00302 0.92408 0.0
O9 O 0.18149 0.15764 0.16596 0.0
O10 O 0.93065 0.9629 0.01657 0.0
O11 O 0.21957 0.08849 0.12596 0.0
C12 C 0.99984 0.0638 0.88706 0.0
O13 O 0.0924 1.01003 0.09015 0.0
O14 O 0.12229 0.05544 0.96409 0.0
O15 O 0.2469 0.14583 0.99849 0.0
C16 C 0.14987 1.02747 0.11975 0.0
C17 C 0.96635 0.89668 0.86585 0.0
O18 O 0.99284 0.90489 0.9182 0.0
C19 C 0.96812 0.99802 0.06712 0.0
C20 C 0.20346 0.11132 0.95 0.0
O21 O 0.96295 0.9311 0.85621 0.0
C22 C 0.96171 0.05365 0.83405 0.0
C23 C 0.94202 0.08909 0.76459 0.0
C24 C 0.97973 0.10022 0.81556 0.0
C25 C 0.90686 0.99636 0.80133 0.0
C26 C 0.8696 0.98498 0.75042 0.0
C27 C 0.88746 0.03147 0.73263 0.0
C28 C 0.18761 0.19771 0.15773 0.0
O29 O 0.18508 0.2042 0.10113 0.0
O30 O 0.94213 1.02097 0.93068 0.0
O31 O 0.06779 0.0778 0.87176 0.0
H32 H 1.01715 0.98241 0.20957 0.0
H33 H 1.01034 0.8846 0.31441 0.0
H34 H 0.20295 0.99064 0.15335 0.0
H35 H 1.02246 0.14453 0.84071 0.0
H36 H 0.89412 0.96092 0.8151 0.0
H37 H 0.86267 1.02413 0.69105 0.0
C38 C 0.87419 0.39076 0.47748 0.0
C39 C 0.8647 0.41107 0.53535 0.0
C40 C 0.88761 0.41181 0.58914 0.0
C41 C 0.92679 0.39691 0.5838 0.0
C42 C 0.93785 0.37692 0.52636 0.0
C43 C 0.91046 0.37329 0.47283 0.0
O44 O 0.65828 0.3568 0.39181 0.0
Tb45 Tb 0.79412 0.42432 0.40604 0.0
Tb46 Tb 0.58094 0.28431 0.27031 0.0
O47 O 0.82921 0.49059 0.4792 0.0
O48 O 0.53749 0.25592 0.36838 0.0
O49 O 0.89217 0.43619 0.39424 0.0
C50 C 0.5352 0.322 0.24229 0.0
O51 O 0.75826 0.35139 0.4354 0.0
O52 O 0.7168 0.3536 0.28556 0.0
O53 O 0.83542 0.45477 0.30948 0.0
C54 C 0.8399 0.38412 0.42403 0.0
C55 C 0.58562 0.20276 0.19579 0.0
O56 O 0.63888 0.2275 0.23652 0.0
C57 C 0.58996 0.29865 0.41069 0.0
C58 C 0.78321 0.4119 0.26726 0.0
O59 O 0.54971 0.21743 0.19983 0.0
C60 C 0.50248 0.31051 0.18444 0.0
C61 C 0.47264 0.33619 0.1107 0.0
C62 C 0.49111 0.34203 0.17108 0.0
C63 C 0.49424 0.273 0.13819 0.0
C64 C 0.47967 0.26895 0.07781 0.0
C65 C 0.46471 0.29807 0.06526 0.0
C66 C 0.84679 0.53571 0.467 0.0
O67 O 0.84405 0.54068 0.4096 0.0
O68 O 0.4831 0.27202 0.27607 0.0
O69 O 0.617 0.35532 0.23418 0.0
H70 H 0.83362 0.42211 0.53943 0.0
H71 H 0.94005 0.39429 0.62619 0.0
H72 H 0.91548 0.35583 0.42849 0.0
H73 H 0.50125 0.37326 0.20597 0.0
H74 H 0.50726 0.25136 0.14754 0.0
H75 H 0.45446 0.29556 0.01803 0.0
C76 C 0.50911 0.70875 0.81612 0.0
C77 C 0.53817 0.75065 0.86719 0.0
C78 C 0.54681 0.74239 0.92343 0.0
C79 C 0.52211 0.69041 0.92977 0.0
C80 C 0.49113 0.64725 0.88053 0.0
C81 C 0.48622 0.65714 0.82288 0.0
O82 O 0.33123 0.70391 0.76664 0.0
Tb83 Tb 0.46177 0.75749 0.72217 0.0
Tb84 Tb 0.30379 0.63806 0.62962 0.0
O85 O 0.51302 0.83589 0.78264 0.0
O86 O 0.24952 0.60626 0.72602 0.0
O87 O 0.56076 0.77942 0.74473 0.0
C88 C 0.2737 0.6851 0.597 0.0
O89 O 0.42901 0.68214 0.73801 0.0
O90 O 0.4337 0.68954 0.58872 0.0
O91 O 0.50533 0.78502 0.62394 0.0
C92 C 0.50662 0.72073 0.75529 0.0
C93 C 0.27399 0.53641 0.57163 0.0
O94 O 0.32608 0.55978 0.61272 0.0
C95 C 0.26223 0.64265 0.77143 0.0
C96 C 0.49635 0.74961 0.5797 0.0
O97 O 0.24863 0.5582 0.57074 0.0
C98 C 0.30536 0.72186 0.54338 0.0
C99 C 0.30499 0.77757 0.48961 0.0
C100 C 0.27179 0.74001 0.53933 0.0
C101 C 0.37026 0.73981 0.49654 0.0
C102 C 0.40412 0.77772 0.44704 0.0
C103 C 0.37126 0.7964 0.44436 0.0
C104 C 0.48551 0.85635 0.78268 0.0
O105 O 0.43123 0.83136 0.74279 0.0
O106 O 0.22574 0.62686 0.58444 0.0
O107 O 0.33246 0.7136 0.63433 0.0
H108 H 0.55617 0.79053 0.86285 0.0
H109 H 0.52717 0.6834 0.97385 0.0
H110 H 0.46425 0.62482 0.78388 0.0
H111 H 0.22058 0.72528 0.57469 0.0
H112 H 0.39398 0.72413 0.49862 0.0
H113 H 0.39407 0.82313 0.40458 0.0
C114 C 0.75109 0.90113 0.6822 0.0
C115 C 0.82167 0.92873 0.70988 0.0
C116 C 0.72632 0.86449 0.62795 0.0
C117 C 0.77109 0.85438 0.6013 0.0
C118 C 0.83131 0.87317 0.63473 0.0
C119 C 0.85722 0.91077 0.68854 0.0
C120 C 0.77283 0.83927 0.53372 0.0
C121 C 0.78914 0.87265 0.49174 0.0
C122 C 0.83082 0.88217 0.4269 0.0
C123 C 0.81233 0.83509 0.39264 0.0
C124 C 0.86377 0.84917 0.33618 0.0
C125 C 0.93473 0.91053 0.31357 0.0
H126 H 0.91042 0.97861 0.42638 0.0
C127 C 0.94792 0.95606 0.34489 0.0
C128 C 0.89601 0.94184 0.40109 0.0
H129 H 1.00219 1.00368 0.32851 0.0
H130 H 0.72076 0.91277 0.69889 0.0
H131 H 0.67859 0.84948 0.60356 0.0
H132 H 0.86613 0.86539 0.61517 0.0
H133 H 0.91163 0.93122 0.70895 0.0
H134 H 0.7829 0.81351 0.51873 0.0
H135 H 0.78867 0.90387 0.50849 0.0
H136 H 0.76051 0.78817 0.41057 0.0
H137 H 0.85164 0.81305 0.31218 0.0
C138 C 0.76126 0.37042 0.66329 0.0
C139 C 0.85116 0.41172 0.65219 0.0
C140 C 0.71816 0.35194 0.72414 0.0
C141 C 0.76438 0.37446 0.77468 0.0
C142 C 0.85575 0.42172 0.76465 0.0
C143 C 0.89909 0.44016 0.70353 0.0
C144 C 0.71788 0.34732 0.83748 0.0
C145 C 0.63986 0.28606 0.84537 0.0
C146 C 0.58818 0.26204 0.90763 0.0
C147 C 0.50054 0.22494 0.91346 0.0
C148 C 0.45899 0.21955 0.97191 0.0
C149 C 0.50469 0.25076 0.02463 0.0
H150 H 0.69563 0.31152 0.95832 0.0
C151 C 0.58712 0.2788 0.02013 0.0
C152 C 0.6288 0.28453 0.96178 0.0
H153 H 0.62391 0.30284 0.06005 0.0
H154 H 0.7225 0.34772 0.62475 0.0
H155 H 0.64804 0.31765 0.73116 0.0
H156 H 0.89271 0.44097 0.80349 0.0
H157 H 0.96872 0.47276 0.69606 0.0
H158 H 0.7488 0.37853 0.87793 0.0
H159 H 0.60873 0.25494 0.80493 0.0
H160 H 0.46761 0.20606 0.87211 0.0
H161 H 0.39488 0.19651 0.97468 0.0
C162 C 0.63998 0.80525 0.0105 0.0
C163 C 0.57893 0.78603 0.97754 0.0
C164 C 0.65261 0.83105 0.07074 0.0
C165 C 0.60502 0.83859 0.09881 0.0
C166 C 0.55231 0.82663 0.06291 0.0
C167 C 0.53884 0.80009 1.0026 0.0
C168 C 0.60004 0.85061 0.16724 0.0
C169 C 0.59365 0.82218 0.20876 0.0
C170 C 0.55964 0.81614 0.27566 0.0
C171 C 0.58057 0.86458 0.30874 0.0
C172 C 0.53512 0.85356 0.36767 0.0
C173 C 0.46759 0.79386 0.3942 0.0
H174 H 0.48304 0.72092 0.2807 0.0
C175 C 0.45288 0.74734 0.36381 0.0
C176 C 0.49899 0.75859 0.30503 0.0
H177 H 0.4016 0.70102 0.38321 0.0
H178 H 0.67333 0.79623 0.99143 0.0
H179 H 0.6954 0.84147 0.09669 0.0
H180 H 0.51576 0.83284 0.08343 0.0
H181 H 0.49183 0.78599 0.97794 0.0
H182 H 0.58541 0.87339 0.18373 0.0
H183 H 0.59833 0.79338 0.19167 0.0
H184 H 0.62938 0.9101 0.28802 0.0
H185 H 0.54937 0.89077 0.39097 0.0
C186 C 0.32597 0.85667 0.46576 0.0
C187 C 0.26854 0.79473 0.48018 0.0
C188 C 0.29694 0.8711 0.43951 0.0
C189 C 0.20976 0.82367 0.4269 0.0
C190 C 0.15036 0.76281 0.44716 0.0
C191 C 0.17959 0.7483 0.47338 0.0
C192 C 0.1798 0.83579 0.39084 0.0
C193 C 0.23333 0.88044 0.34677 0.0
C194 C 0.20331 0.89185 0.3096 0.0
C195 C 0.26256 0.95241 0.28846 0.0
C196 C 0.23385 0.96585 0.25906 0.0
C197 C 0.14552 0.91864 0.24983 0.0
H198 H 0.07027 0.79598 0.30819 0.0
C199 C 0.08827 0.85707 0.26587 0.0
C200 C 0.11674 0.84375 0.29545 0.0
H201 H 1.02011 0.8196 0.25822 0.0
H202 H 0.39468 0.89343 0.47146 0.0
H203 H 0.34365 0.91909 0.42752 0.0
H204 H 0.08236 0.72566 0.43923 0.0
H205 H 0.13407 0.70015 0.48398 0.0
H206 H 0.11081 0.80515 0.39921 0.0
H207 H 0.3023 0.91104 0.33833 0.0
H208 H 0.33014 0.99006 0.29762 0.0
H209 H 0.27928 1.01371 0.24731 0.0
C210 C 0.27234 0.46368 0.52748 0.0
C211 C 0.25132 0.49063 0.52337 0.0
C212 C 0.25562 0.42316 0.48027 0.0
C213 C 0.21714 0.40842 0.42753 0.0
C214 C 0.19469 0.43461 0.4243 0.0
C215 C 0.2119 0.4754 0.47138 0.0
C216 C 0.20242 0.3685 0.37364 0.0
C217 C 0.21909 0.33933 0.37092 0.0
C218 C 0.20871 0.30261 0.31528 0.0
C219 C 0.20269 0.25996 0.32357 0.0
C220 C 0.1957 0.22587 0.27256 0.0
C221 C 0.19496 0.23382 0.21179 0.0
H222 H 0.21631 0.34475 0.24497 0.0
C223 C 0.20133 0.27662 0.20322 0.0
C224 C 0.20873 0.31095 0.2542 0.0
H225 H 0.20178 0.28429 0.15689 0.0
H226 H 0.30275 0.47442 0.56698 0.0
H227 H 0.27473 0.40487 0.4855 0.0
H228 H 0.16489 0.42431 0.38459 0.0
H229 H 0.19493 0.4954 0.46667 0.0
H230 H 0.17656 0.36323 0.33431 0.0
H231 H 0.23997 0.34095 0.41115 0.0
H232 H 0.20336 0.2529 0.36981 0.0
H233 H 0.191 0.19335 0.28087 0.0
C234 C 0.60385 0.8354 0.50012 0.0
C235 C 0.5514 0.77546 0.51782 0.0
C236 C 0.65257 0.8582 0.44046 0.0
C237 C 0.65046 0.8216 0.39725 0.0
C238 C 0.59743 0.76158 0.41519 0.0
C239 C 0.54862 0.73879 0.47455 0.0
C240 C 0.70146 0.84316 0.33316 0.0
C241 C 0.76662 0.90275 0.31386 0.0
C242 C 0.81996 0.92496 0.25064 0.0
C243 C 0.79841 0.88447 0.20011 0.0
C244 C 0.84863 0.90831 0.14106 0.0
C245 C 0.92108 0.97286 0.13099 0.0
H246 H 0.91322 1.02216 0.27844 0.0
C247 C 0.94431 1.01331 0.18172 0.0
C248 C 0.8943 0.98962 0.24067 0.0
H249 H 0.99945 0.0633 0.17547 0.0
H250 H 0.60628 0.86443 0.53203 0.0
H251 H 0.69036 0.90403 0.42869 0.0
H252 H 0.59393 0.73207 0.38319 0.0
H253 H 0.50861 0.69228 0.48642 0.0
H254 H 0.68613 0.80817 0.30193 0.0
H255 H 0.78484 0.93822 0.34636 0.0
H256 H 0.74176 0.83439 0.2047 0.0
H257 H 0.82944 0.87604 0.10282 0.0
C258 C 1.03076 0.38163 0.56443 0.0
C259 C 0.96517 0.35135 0.52765 0.0
C260 C 1.03975 0.35047 0.58283 0.0
C261 C 0.98281 0.28775 0.56495 0.0
C262 C 0.92305 0.25959 0.52298 0.0
C263 C 0.9142 0.29099 0.50449 0.0
C264 C 0.9761 0.24792 0.594 0.0
C265 C 1.02158 0.26664 0.64048 0.0
C266 C 1.00027 0.22204 0.67569 0.0
C267 C 0.06686 0.24118 0.69956 0.0
C268 C 0.04789 0.19909 0.73148 0.0
C269 C 0.96164 0.13735 0.74086 0.0
H270 H 0.85989 0.14587 0.67326 0.0
C271 C 0.89445 0.11971 0.72057 0.0
C272 C 0.91347 0.16136 0.68824 0.0
H273 H 0.82698 0.07294 0.72845 0.0
H274 H 0.07159 0.42842 0.58257 0.0
H275 H 0.0884 0.3752 0.61365 0.0
H276 H 0.8788 0.21156 0.50771 0.0
H277 H 0.86252 0.26607 0.47658 0.0
H278 H 0.92651 0.19921 0.57909 0.0
H279 H 0.07522 0.31533 0.65429 0.0
H280 H 0.13405 0.28816 0.69174 0.0
H281 H 0.10113 0.21408 0.74636 0.0
C282 C 0.88353 0.62651 0.50497 0.0
C283 C 0.86666 0.57911 0.51765 0.0
C284 C 0.8995 0.66621 0.55312 0.0
C285 C 0.89864 0.65925 0.61526 0.0
C286 C 0.88407 0.61294 0.62749 0.0
C287 C 0.86779 0.5731 0.57941 0.0
C288 C 0.91507 0.70031 0.66807 0.0
C289 C 0.89751 0.72873 0.66921 0.0
C290 C 0.91344 0.77012 0.72155 0.0
C291 C 0.91061 0.80738 0.71112 0.0
C292 C 0.92646 0.84773 0.75813 0.0
C293 C 0.94537 0.85176 0.81698 0.0
H294 H 0.93054 0.74417 0.79256 0.0
C295 C 0.94632 0.81359 0.82811 0.0
C296 C 0.93023 0.77308 0.78119 0.0
H297 H 0.9598 0.81506 0.87317 0.0
H298 H 0.88431 0.633 0.45776 0.0
H299 H 0.91366 0.70273 0.54114 0.0
H300 H 0.8841 0.60696 0.67469 0.0
H301 H 0.85558 0.53736 0.59081 0.0
H302 H 0.94072 0.70567 0.70756 0.0
H303 H 0.87043 0.7219 0.62962 0.0
H304 H 0.89708 0.80589 0.66605 0.0
H305 H 0.92495 0.8763 0.74798 0.0
C306 C 0.48965 0.21954 0.49608 0.0
C307 C 0.56475 0.28227 0.47804 0.0
C308 C 0.45654 0.20388 0.55953 0.0
C309 C 0.49744 0.25071 0.60664 0.0
C310 C 0.57583 0.31313 0.58886 0.0
C311 C 0.6089 0.32883 0.52524 0.0
C312 C 0.45939 0.23608 0.67423 0.0
C313 C 0.37261 0.18552 0.69273 0.0
C314 C 0.33103 0.16921 0.75946 0.0
C315 C 0.2465 0.10738 0.7727 0.0
C316 C 0.20442 0.08911 0.83429 0.0
C317 C 0.24502 0.13247 0.88429 0.0
H318 H 0.43556 0.26148 0.80139 0.0
C319 C 0.32881 0.19477 0.87119 0.0
C320 C 0.3715 0.21304 0.80946 0.0
H321 H 0.36192 0.22933 0.90876 0.0
H322 H 0.4546 0.18238 0.46103 0.0
H323 H 0.39834 0.15501 0.5712 0.0
H324 H 0.60977 0.35015 0.62411 0.0
H325 H 0.66691 0.37755 0.51305 0.0
H326 H 0.50409 0.26921 0.70907 0.0
H327 H 0.32859 0.15342 0.65721 0.0
H328 H 0.21331 0.07257 0.73532 0.0
H329 H 0.14066 0.04059 0.84282 0.0
C330 C 0.51809 0.4056 0.03293 0.0
C331 C 0.47166 0.37467 0.09086 0.0
C332 C 0.51109 0.4364 0.00965 0.0
C333 C 0.45703 0.43709 0.04358 0.0
C334 C 0.41419 0.40902 0.10314 0.0
C335 C 0.42148 0.37816 0.12661 0.0
C336 C 0.44669 0.46856 0.01929 0.0
C337 C 0.46194 0.48011 0.95764 0.0
C338 C 0.45799 0.51561 0.93368 0.0
C339 C 0.50783 0.54735 0.87634 0.0
C340 C 0.51314 0.5865 0.8556 0.0
C341 C 0.46796 0.59412 0.89164 0.0
H342 H 0.36538 0.49406 0.00992 0.0
C343 C 0.41266 0.55853 0.94628 0.0
C344 C 0.40754 0.51968 0.96706 0.0
H345 H 0.3766 0.56324 0.97474 0.0
H346 H 0.5598 0.40565 1.0051 0.0
H347 H 0.54896 0.45995 0.96526 0.0
H348 H 0.37357 0.40991 0.1311 0.0
H349 H 0.38603 0.35555 0.17171 0.0
H350 H 0.42628 0.48291 0.054 0.0
H351 H 0.48205 0.46558 0.92291 0.0
H352 H 0.54634 0.54438 0.84905 0.0
H353 H 0.55687 0.61379 0.8137 0.0
C354 C 0.47791 0.92359 0.83071 0.0
C355 C 0.50958 0.90332 0.83007 0.0
C356 C 0.49625 0.9652 0.87725 0.0
C357 C 0.54647 0.9874 0.92478 0.0
C358 C 0.57996 0.96832 0.92306 0.0
C359 C 0.56157 0.92666 0.87649 0.0
C360 C 0.56677 0.03109 0.97616 0.0
C361 C 0.52038 0.03905 0.99392 0.0
C362 C 0.53936 0.08173 0.0461 0.0
C363 C 0.50404 0.09958 0.04888 0.0
C364 C 0.5187 0.13862 0.09738 0.0
C365 C 0.56877 0.16058 0.14472 0.0
H366 H 0.61518 0.08948 0.09518 0.0
C367 C 0.60352 0.14238 0.14242 0.0
C368 C 0.58882 0.1033 0.09396 0.0
H369 H 0.64187 0.15803 0.17836 0.0
H370 H 0.43828 0.90702 0.79535 0.0
H371 H 0.47147 0.98005 0.87509 0.0
H372 H 0.61956 0.98498 0.95851 0.0
H373 H 0.58723 0.9122 0.87743 0.0
H374 H 0.62153 0.05669 1.00075 0.0
H375 H 0.46558 1.0134 0.96933 0.0
H376 H 0.46518 0.08351 0.01312 0.0
H377 H 0.49104 0.15177 0.09754 0.0
C378 C 0.11509 0.55123 0.83248 0.0
C379 C 0.1972 0.61545 0.82835 0.0
C380 C 0.05534 0.52675 0.88733 0.0
C381 C 0.07699 0.56622 0.9391 0.0
C382 C 0.15875 0.63023 0.93438 0.0
C383 C 0.21781 0.65456 0.87984 0.0
C384 C 1.02021 0.54337 1.00048 0.0
C385 C 0.93399 0.48738 0.01029 0.0
C386 C 0.88437 0.46701 0.07464 0.0
C387 C 0.81496 0.4035 0.08972 0.0
C388 C 0.77672 0.38447 0.15215 0.0
C389 C 0.80733 0.42874 0.20049 0.0
H390 H 0.95845 0.55918 0.11215 0.0
C391 C 0.87109 0.49139 0.18455 0.0
C392 C 0.90857 0.51027 0.12229 0.0
H393 H 0.89476 0.5264 0.22063 0.0
H394 H 0.09714 0.51985 0.79355 0.0
H395 H 0.99374 0.47699 0.88932 0.0
H396 H 0.1776 0.66179 0.97343 0.0
H397 H 0.28038 0.70422 0.8786 0.0
H398 H 0.05301 0.57493 0.04032 0.0
H399 H 0.90018 0.45419 0.97167 0.0
H400 H 0.79373 0.36897 0.05383 0.0
H401 H 0.72734 0.33577 0.16293 0.0
loop_
_geom_bond_atom_site_label_1
_geom_bond_atom_site_label_2
_geom_bond_distance
_geom_bond_site_symmetry_2
_ccdc_geom_bond_type
C0 C1 1.386 . S
C0 C5 1.384 1_545 S
C0 C16 1.497 . S
C1 C0 1.386 . S
C1 C2 1.393 1_545 S
C1 H32 0.932 . S
C2 C1 1.393 1_565 S
C2 C3 1.387 . S
C3 C2 1.387 . S
C3 C4 1.392 . S
C3 H33 0.930 . S
C4 C3 1.392 . S
C4 C5 1.402 . S
C5 C0 1.384 1_565 S
C5 C4 1.402 . S
C5 H34 0.930 . S
O6 Tb7 2.288 1_655 S
O6 C19 1.257 1_545 S
Tb7 O6 2.288 1_455 S
Tb7 O9 2.303 . S
Tb7 O11 2.430 . S
Tb7 O13 2.459 . S
Tb7 O15 2.301 1_554 S
Tb7 C16 2.808 . S
Tb8 O10 2.301 1_556 S
Tb8 C12 2.808 . S
Tb8 O14 2.288 1_655 S
Tb8 O21 2.303 . S
Tb8 O30 2.430 . S
Tb8 O31 2.459 . S
O9 Tb7 2.303 . S
O9 C28 1.255 . S
O10 Tb8 2.301 1_554 S
O10 C19 1.237 . S
O11 Tb7 2.430 . S
O11 C16 1.248 . S
C12 Tb8 2.808 . S
C12 C22 1.497 . S
C12 O30 1.248 . S
C12 O31 1.260 . S
O13 Tb7 2.459 . S
O13 C16 1.260 . S
O14 Tb8 2.288 1_455 S
O14 C20 1.257 1_565 S
O15 Tb7 2.301 1_556 S
O15 C20 1.237 . S
C16 C0 1.497 . S
C16 Tb7 2.808 . S
C16 O11 1.248 . S
C16 O13 1.260 . S
C17 O18 1.255 . S
C17 O21 1.255 . S
O18 C17 1.255 . S
C19 O6 1.257 1_565 S
C19 O10 1.237 . S
C20 O14 1.257 1_545 S
C20 O15 1.237 . S
O21 Tb8 2.303 . S
O21 C17 1.255 . S
C22 C12 1.497 . S
C22 C24 1.384 1_565 S
C22 C25 1.386 . S
C23 C24 1.402 . S
C23 C27 1.392 . S
C24 C22 1.384 1_545 S
C24 C23 1.402 . S
C24 H35 0.930 . S
C25 C22 1.386 . S
C25 C26 1.393 1_565 S
C25 H36 0.932 . S
C26 C25 1.393 1_545 S
C26 C27 1.387 . S
C27 C23 1.392 . S
C27 C26 1.387 . S
C27 H37 0.930 . S
C28 O9 1.255 . S
C28 O29 1.255 . S
O29 C28 1.255 . S
O30 Tb8 2.430 . S
O30 C12 1.248 . S
O31 Tb8 2.459 . S
O31 C12 1.260 . S
H32 C1 0.932 . S
H33 C3 0.930 . S
H34 C5 0.930 . S
H35 C24 0.930 . S
H36 C25 0.932 . S
H37 C27 0.930 . S
C38 C39 1.386 . S
C38 C43 1.384 . S
C38 C54 1.497 . S
C39 C38 1.386 . S
C39 C40 1.393 . S
C39 H70 0.932 . S
C40 C39 1.393 . S
C40 C41 1.387 . S
C41 C40 1.387 . S
C41 C42 1.392 . S
C41 H71 0.930 . S
C42 C41 1.392 . S
C42 C43 1.402 . S
C43 C38 1.384 . S
C43 C42 1.402 . S
C43 H72 0.930 . S
O44 Tb45 2.288 . S
O44 C57 1.257 . S
Tb45 O44 2.288 . S
Tb45 O47 2.303 . S
Tb45 O49 2.430 . S
Tb45 O51 2.459 . S
Tb45 O53 2.301 . S
Tb45 C54 2.808 . S
Tb46 O48 2.301 . S
Tb46 C50 2.808 . S
Tb46 O52 2.288 . S
Tb46 O59 2.303 . S
Tb46 O68 2.430 . S
Tb46 O69 2.459 . S
O47 Tb45 2.303 . S
O47 C66 1.255 . S
O48 Tb46 2.301 . S
O48 C57 1.237 . S
O49 Tb45 2.430 . S
O49 C54 1.248 . S
C50 Tb46 2.808 . S
C50 C60 1.497 . S
C50 O68 1.248 . S
C50 O69 1.260 . S
O51 Tb45 2.459 . S
O51 C54 1.260 . S
O52 Tb46 2.288 . S
O52 C58 1.257 . S
O53 Tb45 2.301 . S
O53 C58 1.237 . S
C54 C38 1.497 . S
C54 Tb45 2.808 . S
C54 O49 1.248 . S
C54 O51 1.260 . S
C55 O56 1.255 . S
C55 O59 1.255 . S
O56 C55 1.255 . S
C57 O44 1.257 . S
C57 O48 1.237 . S
C58 O52 1.257 . S
C58 O53 1.237 . S
O59 Tb46 2.303 . S
O59 C55 1.255 . S
C60 C50 1.497 . S
C60 C62 1.384 . S
C60 C63 1.386 . S
C61 C62 1.402 . S
C61 C65 1.392 . S
C62 C60 1.384 . S
C62 C61 1.402 . S
C62 H73 0.930 . S
C63 C60 1.386 . S
C63 C64 1.393 . S
C63 H74 0.932 . S
C64 C63 1.393 . S
C64 C65 1.387 . S
C65 C61 1.392 . S
C65 C64 1.387 . S
C65 H75 0.930 . S
C66 O47 1.255 . S
C66 O67 1.255 . S
O67 C66 1.255 . S
O68 Tb46 2.430 . S
O68 C50 1.248 . S
O69 Tb46 2.459 . S
O69 C50 1.260 . S
H70 C39 0.932 . S
H71 C41 0.930 . S
H72 C43 0.930 . S
H73 C62 0.930 . S
H74 C63 0.932 . S
H75 C65 0.930 . S
C76 C77 1.386 . S
C76 C81 1.384 . S
C76 C92 1.497 . S
C77 C76 1.386 . S
C77 C78 1.393 . S
C77 H108 0.932 . S
C78 C77 1.393 . S
C78 C79 1.387 . S
C79 C78 1.387 . S
C79 C80 1.392 . S
C79 H109 0.930 . S
C80 C79 1.392 . S
C80 C81 1.402 . S
C81 C76 1.384 . S
C81 C80 1.402 . S
C81 H110 0.930 . S
O82 Tb83 2.288 . S
O82 C95 1.257 . S
Tb83 O82 2.288 . S
Tb83 O85 2.303 . S
Tb83 O87 2.430 . S
Tb83 O89 2.459 . S
Tb83 O91 2.301 . S
Tb83 C92 2.808 . S
Tb84 O86 2.301 . S
Tb84 C88 2.808 . S
Tb84 O90 2.288 . S
Tb84 O97 2.303 . S
Tb84 O106 2.430 . S
Tb84 O107 2.459 . S
O85 Tb83 2.303 . S
O85 C104 1.255 . S
O86 Tb84 2.301 . S
O86 C95 1.237 . S
O87 Tb83 2.430 . S
O87 C92 1.248 . S
C88 Tb84 2.808 . S
C88 C98 1.497 . S
C88 O106 1.248 . S
C88 O107 1.260 . S
O89 Tb83 2.459 . S
O89 C92 1.260 . S
O90 Tb84 2.288 . S
O90 C96 1.257 . S
O91 Tb83 2.301 . S
O91 C96 1.237 . S
C92 C76 1.497 . S
C92 Tb83 2.808 . S
C92 O87 1.248 . S
C92 O89 1.260 . S
C93 O94 1.255 . S
C93 O97 1.255 . S
O94 C93 1.255 . S
C95 O82 1.257 . S
C95 O86 1.237 . S
C96 O90 1.257 . S
C96 O91 1.237 . S
O97 Tb84 2.303 . S
O97 C93 1.255 . S
C98 C88 1.497 . S
C98 C100 1.384 . S
C98 C101 1.386 . S
C99 C100 1.402 . S
C99 C103 1.392 . S
C100 C98 1.384 . S
C100 C99 1.402 . S
C100 H111 0.930 . S
C101 C98 1.386 . S
C101 C102 1.393 . S
C101 H112 0.932 . S
C102 C101 1.393 . S
C102 C103 1.387 . S
C103 C99 1.392 . S
C103 C102 1.387 . S
C103 H113 0.930 . S
C104 O85 1.255 . S
C104 O105 1.255 . S
O105 C104 1.255 . S
O106 Tb84 2.430 . S
O106 C88 1.248 . S
O107 Tb84 2.459 . S
O107 C88 1.260 . S
H108 C77 0.932 . S
H109 C79 0.930 . S
H110 C81 0.930 . S
H111 C100 0.930 . S
H112 C101 0.932 . S
H113 C103 0.930 . S
C114 C115 1.386 1_565 S
C114 C116 1.383 . S
C114 H130 0.951 . S
C115 C114 1.386 1_545 S
C115 C119 1.383 . S
C116 C114 1.383 . S
C116 C117 1.402 1_565 S
C116 H131 0.951 . S
C117 C116 1.402 1_545 S
C117 C118 1.375 . S
C117 C120 1.481 . S
C118 C117 1.375 . S
C118 C119 1.367 . S
C118 H132 0.951 1_655 S
C119 C115 1.383 . S
C119 C118 1.367 . S
C119 H133 0.950 . S
C120 C117 1.481 . S
C120 C121 1.297 1_545 S
C120 H134 0.950 1_655 S
C121 C120 1.297 1_565 S
C121 C122 1.479 1_655 S
C121 H135 0.950 . S
C122 C121 1.479 1_455 S
C122 C123 1.375 1_455 S
C122 C128 1.404 1_565 S
C123 C122 1.375 1_655 S
C123 C124 1.369 1_655 S
C123 H136 0.950 . S
C124 C123 1.369 1_455 S
C124 C125 1.392 . S
C124 H137 0.951 . S
C125 C124 1.392 . S
C125 C127 1.384 1_565 S
H126 C128 0.949 . S
C127 C125 1.384 1_545 S
C127 C128 1.385 . S
C127 H129 0.950 . S
C128 C122 1.404 1_545 S
C128 H126 0.949 . S
C128 C127 1.385 . S
H129 C127 0.950 . S
H130 C114 0.951 . S
H131 C116 0.951 . S
H132 C118 0.951 1_455 S
H133 C119 0.950 . S
H134 C120 0.950 1_455 S
H135 C121 0.950 . S
H136 C123 0.950 . S
H137 C124 0.951 . S
C138 C139 1.386 . S
C138 C140 1.383 . S
C138 H154 0.951 . S
C139 C138 1.386 . S
C139 C143 1.383 . S
C140 C138 1.383 . S
C140 C141 1.402 . S
C140 H155 0.951 . S
C141 C140 1.402 . S
C141 C142 1.375 . S
C141 C144 1.481 . S
C142 C141 1.375 . S
C142 C143 1.367 . S
C142 H156 0.951 . S
C143 C139 1.383 . S
C143 C142 1.367 . S
C143 H157 0.950 . S
C144 C141 1.481 . S
C144 C145 1.297 . S
C144 H158 0.950 . S
C145 C144 1.297 . S
C145 C146 1.479 . S
C145 H159 0.950 . S
C146 C145 1.479 . S
C146 C147 1.375 . S
C146 C152 1.404 . S
C147 C146 1.375 . S
C147 C148 1.369 . S
C147 H160 0.950 . S
C148 C147 1.369 . S
C148 C149 1.392 1_556 S
C148 H161 0.951 1_556 S
C149 C148 1.392 1_554 S
C149 C151 1.384 . S
H150 C152 0.949 . S
C151 C149 1.384 . S
C151 C152 1.385 1_554 S
C151 H153 0.950 . S
C152 C146 1.404 . S
C152 H150 0.949 . S
C152 C151 1.385 1_556 S
H153 C151 0.950 . S
H154 C138 0.951 . S
H155 C140 0.951 . S
H156 C142 0.951 . S
H157 C143 0.950 . S
H158 C144 0.950 . S
H159 C145 0.950 . S
H160 C147 0.950 . S
H161 C148 0.951 1_554 S
C162 C163 1.386 1_554 S
C162 C164 1.383 . S
C162 H178 0.951 . S
C163 C162 1.386 1_556 S
C163 C167 1.383 . S
C164 C162 1.383 . S
C164 C165 1.402 . S
C164 H179 0.951 . S
C165 C164 1.402 . S
C165 C166 1.375 . S
C165 C168 1.481 . S
C166 C165 1.375 . S
C166 C167 1.367 1_554 S
C166 H180 0.951 . S
C167 C163 1.383 . S
C167 C166 1.367 1_556 S
C167 H181 0.950 . S
C168 C165 1.481 . S
C168 C169 1.297 . S
C168 H182 0.950 . S
C169 C168 1.297 . S
C169 C170 1.479 . S
C169 H183 0.950 . S
C170 C169 1.479 . S
C170 C171 1.375 . S
C170 C176 1.404 . S
C171 C170 1.375 . S
C171 C172 1.369 . S
C171 H184 0.950 . S
C172 C171 1.369 . S
C172 C173 1.392 . S
C172 H185 0.951 . S
C173 C172 1.392 . S
C173 C175 1.384 . S
H174 C176 0.949 . S
C175 C173 1.384 . S
C175 C176 1.385 . S
C175 H177 0.950 . S
C176 C170 1.404 . S
C176 H174 0.949 . S
C176 C175 1.385 . S
H177 C175 0.950 . S
H178 C162 0.951 . S
H179 C164 0.951 . S
H180 C166 0.951 . S
H181 C167 0.950 . S
H182 C168 0.950 . S
H183 C169 0.950 . S
H184 C171 0.950 . S
H185 C172 0.951 . S
C186 C187 1.386 . S
C186 C188 1.383 . S
C186 H202 0.951 . S
C187 C186 1.386 . S
C187 C191 1.383 . S
C188 C186 1.383 . S
C188 C189 1.402 . S
C188 H203 0.951 . S
C189 C188 1.402 . S
C189 C190 1.375 . S
C189 C192 1.481 . S
C190 C189 1.375 . S
C190 C191 1.367 . S
C190 H204 0.951 . S
C191 C187 1.383 . S
C191 C190 1.367 . S
C191 H205 0.950 . S
C192 C189 1.481 . S
C192 C193 1.297 . S
C192 H206 0.950 . S
C193 C192 1.297 . S
C193 C194 1.479 . S
C193 H207 0.950 . S
C194 C193 1.479 . S
C194 C195 1.375 . S
C194 C200 1.404 . S
C195 C194 1.375 . S
C195 C196 1.369 . S
C195 H208 0.950 . S
C196 C195 1.369 . S
C196 C197 1.392 . S
C196 H209 0.951 . S
C197 C196 1.392 . S
C197 C199 1.384 . S
H198 C200 0.949 . S
C199 C197 1.384 . S
C199 C200 1.385 . S
C199 H201 0.950 . S
C200 C194 1.404 . S
C200 H198 0.949 . S
C200 C199 1.385 . S
H201 C199 0.950 . S
H202 C186 0.951 . S
H203 C188 0.951 . S
H204 C190 0.951 . S
H205 C191 0.950 . S
H206 C192 0.950 . S
H207 C193 0.950 . S
H208 C195 0.950 . S
H209 C196 0.951 . S
C210 C211 1.386 . S
C210 C212 1.383 . S
C210 H226 0.951 . S
C211 C210 1.386 . S
C211 C215 1.383 . S
C212 C210 1.383 . S
C212 C213 1.402 . S
C212 H227 0.951 . S
C213 C212 1.402 . S
C213 C214 1.375 . S
C213 C216 1.481 . S
C214 C213 1.375 . S
C214 C215 1.367 . S
C214 H228 0.951 . S
C215 C211 1.383 . S
C215 C214 1.367 . S
C215 H229 0.950 . S
C216 C213 1.481 . S
C216 C217 1.297 . S
C216 H230 0.950 . S
C217 C216 1.297 . S
C217 C218 1.479 . S
C217 H231 0.950 . S
C218 C217 1.479 . S
C218 C219 1.375 . S
C218 C224 1.404 . S
C219 C218 1.375 . S
C219 C220 1.369 . S
C219 H232 0.950 . S
C220 C219 1.369 . S
C220 C221 1.392 . S
C220 H233 0.951 . S
C221 C220 1.392 . S
C221 C223 1.384 . S
H222 C224 0.949 . S
C223 C221 1.384 . S
C223 C224 1.385 . S
C223 H225 0.950 1_455 S
C224 C218 1.404 . S
C224 H222 0.949 . S
C224 C223 1.385 . S
H225 C223 0.950 1_655 S
H226 C210 0.951 . S
H227 C212 0.951 . S
H228 C214 0.951 . S
H229 C215 0.950 . S
H230 C216 0.950 . S
H231 C217 0.950 . S
H232 C219 0.950 . S
H233 C220 0.951 . S
C234 C235 1.386 . S
C234 C236 1.383 . S
C234 H250 0.951 . S
C235 C234 1.386 . S
C235 C239 1.383 . S
C236 C234 1.383 . S
C236 C237 1.402 . S
C236 H251 0.951 . S
C237 C236 1.402 . S
C237 C238 1.375 . S
C237 C240 1.481 . S
C238 C237 1.375 . S
C238 C239 1.367 . S
C238 H252 0.951 . S
C239 C235 1.383 . S
C239 C238 1.367 . S
C239 H253 0.950 . S
C240 C237 1.481 . S
C240 C241 1.297 . S
C240 H254 0.950 . S
C241 C240 1.297 . S
C241 C242 1.479 . S
C241 H255 0.950 . S
C242 C241 1.479 . S
C242 C243 1.375 . S
C242 C248 1.404 . S
C243 C242 1.375 . S
C243 C244 1.369 . S
C243 H256 0.950 . S
C244 C243 1.369 . S
C244 C245 1.392 . S
C244 H257 0.951 . S
C245 C244 1.392 . S
C245 C247 1.384 . S
H246 C248 0.949 . S
C247 C245 1.384 . S
C247 C248 1.385 . S
C247 H249 0.950 . S
C248 C242 1.404 . S
C248 H246 0.949 . S
C248 C247 1.385 . S
H249 C247 0.950 . S
H250 C234 0.951 . S
H251 C236 0.951 . S
H252 C238 0.951 . S
H253 C239 0.950 . S
H254 C240 0.950 . S
H255 C241 0.950 . S
H256 C243 0.950 . S
H257 C244 0.951 . S
C258 C259 1.386 . S
C258 C260 1.383 . S
C258 H274 0.951 . S
C259 C258 1.386 . S
C259 C263 1.383 . S
C260 C258 1.383 . S
C260 C261 1.402 . S
C260 H275 0.951 . S
C261 C260 1.402 . S
C261 C262 1.375 . S
C261 C264 1.481 . S
C262 C261 1.375 . S
C262 C263 1.367 . S
C262 H276 0.951 . S
C263 C259 1.383 . S
C263 C262 1.367 . S
C263 H277 0.950 . S
C264 C261 1.481 . S
C264 C265 1.297 . S
C264 H278 0.950 . S
C265 C264 1.297 . S
C265 C266 1.479 . S
C265 H279 0.950 . S
C266 C265 1.479 . S
C266 C267 1.375 . S
C266 C272 1.404 . S
C267 C266 1.375 . S
C267 C268 1.369 . S
C267 H280 0.950 . S
C268 C267 1.369 . S
C268 C269 1.392 . S
C268 H281 0.951 . S
C269 C268 1.392 . S
C269 C271 1.384 . S
H270 C272 0.949 . S
C271 C269 1.384 . S
C271 C272 1.385 . S
C271 H273 0.950 . S
C272 C266 1.404 . S
C272 H270 0.949 . S
C272 C271 1.385 . S
H273 C271 0.950 . S
H274 C258 0.951 . S
H275 C260 0.951 . S
H276 C262 0.951 . S
H277 C263 0.950 . S
H278 C264 0.950 . S
H279 C265 0.950 . S
H280 C267 0.950 . S
H281 C268 0.951 . S
C282 C283 1.386 . S
C282 C284 1.383 . S
C282 H298 0.951 . S
C283 C282 1.386 . S
C283 C287 1.383 . S
C284 C282 1.383 . S
C284 C285 1.402 . S
C284 H299 0.951 . S
C285 C284 1.402 . S
C285 C286 1.375 . S
C285 C288 1.481 . S
C286 C285 1.375 . S
C286 C287 1.367 . S
C286 H300 0.951 . S
C287 C283 1.383 . S
C287 C286 1.367 . S
C287 H301 0.950 . S
C288 C285 1.481 . S
C288 C289 1.297 . S
C288 H302 0.950 . S
C289 C288 1.297 . S
C289 C290 1.479 . S
C289 H303 0.950 . S
C290 C289 1.479 . S
C290 C291 1.375 . S
C290 C296 1.404 . S
C291 C290 1.375 . S
C291 C292 1.369 . S
C291 H304 0.950 . S
C292 C291 1.369 . S
C292 C293 1.392 . S
C292 H305 0.951 1_655 S
C293 C292 1.392 . S
C293 C295 1.384 . S
H294 C296 0.949 . S
C295 C293 1.384 . S
C295 C296 1.385 . S
C295 H297 0.950 . S
C296 C290 1.404 . S
C296 H294 0.949 . S
C296 C295 1.385 . S
H297 C295 0.950 . S
H298 C282 0.951 . S
H299 C284 0.951 . S
H300 C286 0.951 . S
H301 C287 0.950 . S
H302 C288 0.950 . S
H303 C289 0.950 . S
H304 C291 0.950 . S
H305 C292 0.951 1_455 S
C306 C307 1.386 . S
C306 C308 1.383 . S
C306 H322 0.951 . S
C307 C306 1.386 . S
C307 C311 1.383 . S
C308 C306 1.383 . S
C308 C309 1.402 . S
C308 H323 0.951 . S
C309 C308 1.402 . S
C309 C310 1.375 . S
C309 C312 1.481 . S
C310 C309 1.375 . S
C310 C311 1.367 . S
C310 H324 0.951 . S
C311 C307 1.383 . S
C311 C310 1.367 . S
C311 H325 0.950 . S
C312 C309 1.481 . S
C312 C313 1.297 . S
C312 H326 0.950 . S
C313 C312 1.297 . S
C313 C314 1.479 . S
C313 H327 0.950 . S
C314 C313 1.479 . S
C314 C315 1.375 . S
C314 C320 1.404 . S
C315 C314 1.375 . S
C315 C316 1.369 . S
C315 H328 0.950 . S
C316 C315 1.369 . S
C316 C317 1.392 . S
C316 H329 0.951 . S
C317 C316 1.392 . S
C317 C319 1.384 . S
H318 C320 0.949 . S
C319 C317 1.384 . S
C319 C320 1.385 . S
C319 H321 0.950 . S
C320 C314 1.404 . S
C320 H318 0.949 . S
C320 C319 1.385 . S
H321 C319 0.950 . S
H322 C306 0.951 . S
H323 C308 0.951 . S
H324 C310 0.951 . S
H325 C311 0.950 . S
H326 C312 0.950 . S
H327 C313 0.950 . S
H328 C315 0.950 . S
H329 C316 0.951 . S
C330 C331 1.386 . S
C330 C332 1.383 . S
C330 H346 0.951 . S
C331 C330 1.386 . S
C331 C335 1.383 . S
C332 C330 1.383 . S
C332 C333 1.402 . S
C332 H347 0.951 . S
C333 C332 1.402 . S
C333 C334 1.375 . S
C333 C336 1.481 1_554 S
C334 C333 1.375 . S
C334 C335 1.367 . S
C334 H348 0.951 . S
C335 C331 1.383 . S
C335 C334 1.367 . S
C335 H349 0.950 . S
C336 C333 1.481 1_556 S
C336 C337 1.297 . S
C336 H350 0.950 . S
C337 C336 1.297 . S
C337 C338 1.479 . S
C337 H351 0.950 . S
C338 C337 1.479 . S
C338 C339 1.375 . S
C338 C344 1.404 . S
C339 C338 1.375 . S
C339 C340 1.369 . S
C339 H352 0.950 . S
C340 C339 1.369 . S
C340 C341 1.392 . S
C340 H353 0.951 . S
C341 C340 1.392 . S
C341 C343 1.384 . S
H342 C344 0.949 . S
C343 C341 1.384 . S
C343 C344 1.385 . S
C343 H345 0.950 . S
C344 C338 1.404 . S
C344 H342 0.949 . S
C344 C343 1.385 . S
H345 C343 0.950 . S
H346 C330 0.951 . S
H347 C332 0.951 . S
H348 C334 0.951 . S
H349 C335 0.950 . S
H350 C336 0.950 . S
H351 C337 0.950 . S
H352 C339 0.950 . S
H353 C340 0.951 . S
C354 C355 1.386 . S
C354 C356 1.383 . S
C354 H370 0.951 . S
C355 C354 1.386 . S
C355 C359 1.383 . S
C356 C354 1.383 . S
C356 C357 1.402 . S
C356 H371 0.951 . S
C357 C356 1.402 . S
C357 C358 1.375 . S
C357 C360 1.481 1_556 S
C358 C357 1.375 . S
C358 C359 1.367 . S
C358 H372 0.951 . S
C359 C355 1.383 . S
C359 C358 1.367 . S
C359 H373 0.950 . S
C360 C357 1.481 1_554 S
C360 C361 1.297 . S
C360 H374 0.950 . S
C361 C360 1.297 . S
C361 C362 1.479 1_565 S
C361 H375 0.950 . S
C362 C361 1.479 1_545 S
C362 C363 1.375 . S
C362 C368 1.404 . S
C363 C362 1.375 . S
C363 C364 1.369 . S
C363 H376 0.950 . S
C364 C363 1.369 . S
C364 C365 1.392 . S
C364 H377 0.951 . S
C365 C364 1.392 . S
C365 C367 1.384 . S
H366 C368 0.949 . S
C367 C365 1.384 . S
C367 C368 1.385 . S
C367 H369 0.950 . S
C368 C362 1.404 . S
C368 H366 0.949 . S
C368 C367 1.385 . S
H369 C367 0.950 . S
H370 C354 0.951 . S
H371 C356 0.951 . S
H372 C358 0.951 . S
H373 C359 0.950 . S
H374 C360 0.950 . S
H375 C361 0.950 . S
H376 C363 0.950 . S
H377 C364 0.951 . S
C378 C379 1.386 . S
C378 C380 1.383 . S
C378 H394 0.951 . S
C379 C378 1.386 . S
C379 C383 1.383 . S
C380 C378 1.383 . S
C380 C381 1.402 . S
C380 H395 0.951 1_455 S
C381 C380 1.402 . S
C381 C382 1.375 . S
C381 C384 1.481 . S
C382 C381 1.375 . S
C382 C383 1.367 . S
C382 H396 0.951 . S
C383 C379 1.383 . S
C383 C382 1.367 . S
C383 H397 0.950 . S
C384 C381 1.481 . S
C384 C385 1.297 1_456 S
C384 H398 0.950 1_556 S
C385 C384 1.297 1_654 S
C385 C386 1.479 . S
C385 H399 0.950 1_554 S
C386 C385 1.479 . S
C386 C387 1.375 . S
C386 C392 1.404 . S
C387 C386 1.375 . S
C387 C388 1.369 . S
C387 H400 0.950 . S
C388 C387 1.369 . S
C388 C389 1.392 . S
C388 H401 0.951 . S
C389 C388 1.392 . S
C389 C391 1.384 . S
H390 C392 0.949 1_455 S
C391 C389 1.384 . S
C391 C392 1.385 . S
C391 H393 0.950 . S
C392 C386 1.404 . S
C392 H390 0.949 1_655 S
C392 C391 1.385 . S
H393 C391 0.950 . S
H394 C378 0.951 . S
H395 C380 0.951 1_655 S
H396 C382 0.951 . S
H397 C383 0.950 . S
H398 C384 0.950 1_554 S
H399 C385 0.950 1_556 S
H400 C387 0.950 . S
H401 C388 0.951 . S
C115 C26 0.522 . S
C125 C2 0.406 . S
C139 C40 0.483 . S
C149 C64 0.573 . S
C163 C78 0.487 . S
C173 C102 0.426 . S
C187 C99 2.495 . S
C197 C4 2.551 . S
C211 C93 1.179 . S
C221 C28 1.278 . S
C235 C96 1.488 . S
C245 C19 1.506 . S
C259 C42 2.493 . S
C269 C23 2.546 . S
C283 C66 1.262 . S
C293 C17 1.202 . S
C307 C57 1.498 . S
C317 C20 1.498 . S
C331 C61 2.493 . S
C341 C80 2.538 . S
C355 C104 1.230 . S
C365 C55 1.142 . S
C379 C95 1.482 . S
C389 C58 1.508 . S
