# Generated by pormake.
# Topology umh, (4)-cn, num edge types: 1
# Building blocks:
#     Node 0, Type 0, BuildingBlock: GALJAG_clean_sbu_0, # of connection points: 4
#     Node 1, Type 0, BuildingBlock: GALJAG_clean_sbu_0, # of connection points: 4
#     Node 2, Type 0, BuildingBlock: GALJAG_clean_sbu_0, # of connection points: 4
#     Node 3, Type 0, BuildingBlock: GALJAG_clean_sbu_0, # of connection points: 4
#     Node 4, Type 0, BuildingBlock: GALJAG_clean_sbu_0, # of connection points: 4
#     Node 5, Type 0, BuildingBlock: GALJAG_clean_sbu_0, # of connection points: 4
#     Node 6, Type 0, BuildingBlock: GALJAG_clean_sbu_0, # of connection points: 4
#     Node 7, Type 0, BuildingBlock: GALJAG_clean_sbu_0, # of connection points: 4
#     Node 8, Type 0, BuildingBlock: GALJAG_clean_sbu_0, # of connection points: 4
#     Node 9, Type 0, BuildingBlock: GALJAG_clean_sbu_0, # of connection points: 4
#     Node 10, Type 0, BuildingBlock: GALJAG_clean_sbu_0, # of connection points: 4
#     Node 11, Type 0, BuildingBlock: GALJAG_clean_sbu_0, # of connection points: 4
#     Node 12, Type 0, BuildingBlock: GALJAG_clean_sbu_0, # of connection points: 4
#     Node 13, Type 0, BuildingBlock: GALJAG_clean_sbu_0, # of connection points: 4
#     Node 14, Type 0, BuildingBlock: GALJAG_clean_sbu_0, # of connection points: 4
#     Node 15, Type 0, BuildingBlock: GALJAG_clean_sbu_0, # of connection points: 4
#     Edge 16, Type (0, 0), BuildingBlock: TEMPAE_clean_linker_10, # of connection points: 2
#     Edge 17, Type (0, 0), BuildingBlock: TEMPAE_clean_linker_10, # of connection points: 2
#     Edge 18, Type (0, 0), BuildingBlock: TEMPAE_clean_linker_10, # of connection points: 2
#     Edge 19, Type (0, 0), BuildingBlock: TEMPAE_clean_linker_10, # of connection points: 2
#     Edge 20, Type (0, 0), BuildingBlock: TEMPAE_clean_linker_10, # of connection points: 2
#     Edge 21, Type (0, 0), BuildingBlock: TEMPAE_clean_linker_10, # of connection points: 2
#     Edge 22, Type (0, 0), BuildingBlock: TEMPAE_clean_linker_10, # of connection points: 2
#     Edge 23, Type (0, 0), BuildingBlock: TEMPAE_clean_linker_10, # of connection points: 2
#     Edge 24, Type (0, 0), BuildingBlock: TEMPAE_clean_linker_10, # of connection points: 2
#     Edge 25, Type (0, 0), BuildingBlock: TEMPAE_clean_linker_10, # of connection points: 2
#     Edge 26, Type (0, 0), BuildingBlock: TEMPAE_clean_linker_10, # of connection points: 2
#     Edge 27, Type (0, 0), BuildingBlock: TEMPAE_clean_linker_10, # of connection points: 2
#     Edge 28, Type (0, 0), BuildingBlock: TEMPAE_clean_linker_10, # of connection points: 2
#     Edge 29, Type (0, 0), BuildingBlock: TEMPAE_clean_linker_10, # of connection points: 2
#     Edge 30, Type (0, 0), BuildingBlock: TEMPAE_clean_linker_10, # of connection points: 2
#     Edge 31, Type (0, 0), BuildingBlock: TEMPAE_clean_linker_10, # of connection points: 2
#     Edge 32, Type (0, 0), BuildingBlock: TEMPAE_clean_linker_10, # of connection points: 2
#     Edge 33, Type (0, 0), BuildingBlock: TEMPAE_clean_linker_10, # of connection points: 2
#     Edge 34, Type (0, 0), BuildingBlock: TEMPAE_clean_linker_10, # of connection points: 2
#     Edge 35, Type (0, 0), BuildingBlock: TEMPAE_clean_linker_10, # of connection points: 2
#     Edge 36, Type (0, 0), BuildingBlock: TEMPAE_clean_linker_10, # of connection points: 2
#     Edge 37, Type (0, 0), BuildingBlock: TEMPAE_clean_linker_10, # of connection points: 2
#     Edge 38, Type (0, 0), BuildingBlock: TEMPAE_clean_linker_10, # of connection points: 2
#     Edge 39, Type (0, 0), BuildingBlock: TEMPAE_clean_linker_10, # of connection points: 2
#     Edge 40, Type (0, 0), BuildingBlock: TEMPAE_clean_linker_10, # of connection points: 2
#     Edge 41, Type (0, 0), BuildingBlock: TEMPAE_clean_linker_10, # of connection points: 2
#     Edge 42, Type (0, 0), BuildingBlock: TEMPAE_clean_linker_10, # of connection points: 2
#     Edge 43, Type (0, 0), BuildingBlock: TEMPAE_clean_linker_10, # of connection points: 2
#     Edge 44, Type (0, 0), BuildingBlock: TEMPAE_clean_linker_10, # of connection points: 2
#     Edge 45, Type (0, 0), BuildingBlock: TEMPAE_clean_linker_10, # of connection points: 2
#     Edge 46, Type (0, 0), BuildingBlock: TEMPAE_clean_linker_10, # of connection points: 2
#     Edge 47, Type (0, 0), BuildingBlock: TEMPAE_clean_linker_10, # of connection points: 2
# Relax obj value: 0.114
# Max RMSD: 0.280
# Mean RMSD: 0.279
data_MOF--net-umh--node1-GALJAG_clean_sbu_0--edge1-TEMPAE_clean_linker_10
_symmetry_space_group_name_H-M    P1
_symmetry_Int_Tables_number       1
_symmetry_cell_setting            triclinic
loop_
_symmetry_equiv_pos_as_xyz
'x, y, z'
_cell_length_a     41.151523
_cell_length_b     41.026046
_cell_length_c     53.102319
_cell_angle_alpha  90.088453
_cell_angle_beta   89.878885
_cell_angle_gamma 89.887208
loop_
_atom_site_label
_atom_site_type_symbol
_atom_site_fract_x
_atom_site_fract_y
_atom_site_fract_z
_atom_type_partial_charge
In0 In 0.333 0.10062 0.14963 0.0
O1 O 0.30532 0.09553 0.11192 0.0
O2 O 0.35643 0.10261 0.11102 0.0
C3 C 0.2847 0.07246 0.17703 0.0
C4 C 0.38967 0.07127 0.16 0.0
C5 C 0.32956 0.16386 0.16312 0.0
O6 O 0.28122 0.09881 0.1652 0.0
O7 O 0.31163 0.05862 0.17325 0.0
O8 O 0.33337 0.14145 0.17909 0.0
O9 O 0.33033 0.15444 0.14055 0.0
C10 C 0.33065 0.09899 0.09866 0.0
O11 O 0.38301 0.09924 0.1687 0.0
O12 O 0.36755 0.05831 0.14698 0.0
In13 In 0.38545 0.35553 0.66336 0.0
O14 O 0.38147 0.40756 0.67857 0.0
O15 O 0.42796 0.38436 0.67774 0.0
C16 C 0.32459 0.33276 0.66409 0.0
C17 C 0.39272 0.36671 0.61351 0.0
C18 C 0.40855 0.31069 0.69566 0.0
O19 O 0.33324 0.35616 0.67811 0.0
O20 O 0.34612 0.32231 0.64917 0.0
O21 O 0.42276 0.31599 0.67484 0.0
O22 O 0.38376 0.328 0.69972 0.0
C23 C 0.41158 0.40948 0.68316 0.0
O24 O 0.40264 0.3406 0.62369 0.0
O25 O 0.38021 0.38705 0.62853 0.0
In26 In 0.13427 0.39475 0.16231 0.0
O27 O 0.08122 0.38563 0.17361 0.0
O28 O 0.09648 0.43362 0.16277 0.0
C29 C 0.17544 0.34653 0.17256 0.0
C30 C 0.13159 0.3881 0.11194 0.0
C31 C 0.16052 0.42853 0.20021 0.0
O32 O 0.145 0.34294 0.17566 0.0
O33 O 0.1843 0.37364 0.16363 0.0
O34 O 0.16805 0.43455 0.17741 0.0
O35 O 0.13912 0.40675 0.20323 0.0
C36 C 0.07375 0.41539 0.17036 0.0
O37 O 0.14272 0.41383 0.12207 0.0
O38 O 0.12233 0.36641 0.12718 0.0
In39 In 0.08562 0.14289 0.65993 0.0
O40 O 0.06689 0.14964 0.61955 0.0
O41 O 0.11563 0.13305 0.62512 0.0
C42 C 0.04722 0.17066 0.69503 0.0
C43 C 0.06994 0.08021 0.66421 0.0
C44 C 0.13477 0.18281 0.67044 0.0
O45 O 0.04717 0.18021 0.67232 0.0
O46 O 0.0648 0.14608 0.69934 0.0
O47 O 0.13679 0.15248 0.6751 0.0
O48 O 0.10859 0.19197 0.66032 0.0
C49 C 0.09344 0.14021 0.60965 0.0
O50 O 0.09534 0.09132 0.67468 0.0
O51 O 0.05282 0.10083 0.65251 0.0
In52 In 0.3541 0.39115 0.37659 0.0
O53 O 0.40529 0.38613 0.36029 0.0
O54 O 0.38435 0.43363 0.3643 0.0
C55 C 0.32785 0.33173 0.3772 0.0
C56 C 0.36536 0.39795 0.42636 0.0
C57 C 0.3128 0.41424 0.3417 0.0
O58 O 0.35361 0.33759 0.36492 0.0
O59 O 0.31655 0.3554 0.38966 0.0
O60 O 0.31506 0.42779 0.36315 0.0
O61 O 0.33126 0.39004 0.33841 0.0
C62 C 0.40832 0.41659 0.35722 0.0
O63 O 0.34044 0.41019 0.41597 0.0
O64 O 0.38459 0.38342 0.41156 0.0
In65 In 0.09782 0.34514 0.87453 0.0
O66 O 0.07911 0.33673 0.91493 0.0
O67 O 0.12511 0.3596 0.90976 0.0
C68 C 0.05967 0.30093 0.85052 0.0
C69 C 0.07972 0.4071 0.86616 0.0
C70 C 0.15512 0.32333 0.85691 0.0
O71 O 0.07997 0.29303 0.86719 0.0
O72 O 0.05638 0.33121 0.84774 0.0
O73 O 0.136 0.3395 0.84312 0.0
O74 O 0.14594 0.31999 0.8794 0.0
C75 C 0.10381 0.34972 0.92506 0.0
O76 O 0.10366 0.39463 0.85466 0.0
O77 O 0.06525 0.38828 0.88117 0.0
In78 In 0.13404 0.09394 0.37348 0.0
O79 O 0.14077 0.07563 0.41391 0.0
O80 O 0.12075 0.12327 0.4078 0.0
C81 C 0.16009 0.05906 0.3357 0.0
C82 C 0.07268 0.07536 0.36851 0.0
C83 C 0.17577 0.14248 0.36697 0.0
O84 O 0.16927 0.05505 0.35833 0.0
O85 O 0.13714 0.07916 0.33272 0.0
O86 O 0.14602 0.14571 0.36091 0.0
O87 O 0.18355 0.11515 0.37615 0.0
C88 C 0.12929 0.10171 0.42348 0.0
O89 O 0.08246 0.10191 0.3588 0.0
O90 O 0.09389 0.05881 0.3801 0.0
In91 In 0.37461 0.12753 0.86246 0.0
O92 O 0.37235 0.0754 0.84714 0.0
O93 O 0.40808 0.08769 0.87485 0.0
C94 C 0.3268 0.16321 0.84233 0.0
C95 C 0.35844 0.1287 0.91161 0.0
C96 C 0.41965 0.1538 0.83197 0.0
O97 O 0.32505 0.13235 0.84277 0.0
O98 O 0.35153 0.1752 0.85274 0.0
O99 O 0.41633 0.16318 0.85463 0.0
O100 O 0.40189 0.13005 0.82577 0.0
C101 C 0.3958 0.06606 0.86084 0.0
O102 O 0.38298 0.14395 0.90325 0.0
O103 O 0.34196 0.11396 0.89511 0.0
In104 In 0.63643 0.89516 0.8686 0.0
O105 O 0.5837 0.88723 0.85639 0.0
O106 O 0.6006 0.93563 0.86386 0.0
C107 C 0.67193 0.84135 0.86247 0.0
C108 C 0.62879 0.89328 0.91889 0.0
C109 C 0.67025 0.92476 0.83199 0.0
O110 O 0.64341 0.84354 0.85353 0.0
O111 O 0.68159 0.86578 0.8749 0.0
O112 O 0.67554 0.93127 0.85505 0.0
O113 O 0.64752 0.90476 0.82808 0.0
C114 C 0.57737 0.91749 0.85717 0.0
O115 O 0.64239 0.91734 0.90817 0.0
O116 O 0.61945 0.87089 0.90427 0.0
In117 In 0.60272 0.63291 0.36725 0.0
O118 O 0.58851 0.65585 0.40541 0.0
O119 O 0.60984 0.60849 0.40475 0.0
C120 C 0.57004 0.6792 0.34115 0.0
C121 C 0.579 0.574 0.35625 0.0
C122 C 0.66573 0.6451 0.35726 0.0
O123 O 0.59255 0.68582 0.35637 0.0
O124 O 0.56225 0.64955 0.34058 0.0
O125 O 0.64549 0.64004 0.33988 0.0
O126 O 0.65456 0.64145 0.37911 0.0
C127 C 0.59836 0.63142 0.41784 0.0
O128 O 0.60503 0.5839 0.34608 0.0
O129 O 0.56516 0.59405 0.37076 0.0
In130 In 0.85513 0.59361 0.85879 0.0
O131 O 0.84833 0.57385 0.89893 0.0
O132 O 0.87336 0.61895 0.89365 0.0
C133 C 0.82177 0.56158 0.82345 0.0
C134 C 0.91311 0.56849 0.84782 0.0
C135 C 0.8187 0.64677 0.85268 0.0
O136 O 0.81486 0.55858 0.84666 0.0
O137 O 0.84562 0.57984 0.81851 0.0
O138 O 0.8478 0.64584 0.84458 0.0
O139 O 0.80903 0.62132 0.86371 0.0
C140 C 0.86279 0.59791 0.90894 0.0
O141 O 0.90779 0.59883 0.84529 0.0
O142 O 0.88956 0.55187 0.8561 0.0
In143 In 0.90041 0.83991 0.36691 0.0
O144 O 0.91913 0.82581 0.4063 0.0
O145 O 0.88296 0.86307 0.4031 0.0
C146 C 0.92781 0.81027 0.32723 0.0
C147 C 0.92272 0.89876 0.35507 0.0
C148 C 0.84887 0.80155 0.36147 0.0
O149 O 0.93931 0.80651 0.3493 0.0
O150 O 0.90409 0.82982 0.32567 0.0
O151 O 0.84689 0.83193 0.3571 0.0
O152 O 0.87584 0.79168 0.36984 0.0
C153 C 0.90087 0.84631 0.41739 0.0
O154 O 0.89248 0.89266 0.35475 0.0
O155 O 0.94097 0.8753 0.36146 0.0
In156 In 0.62951 0.60696 0.65602 0.0
O157 O 0.64797 0.59742 0.6158 0.0
O158 O 0.6023 0.62112 0.62082 0.0
C159 C 0.67966 0.573 0.67579 0.0
C160 C 0.57338 0.57843 0.66884 0.0
C161 C 0.64387 0.66747 0.67238 0.0
O162 O 0.68364 0.59661 0.66092 0.0
O163 O 0.65046 0.56476 0.67894 0.0
O164 O 0.64166 0.64365 0.68726 0.0
O165 O 0.63554 0.6612 0.65011 0.0
C166 C 0.6233 0.61032 0.60563 0.0
O167 O 0.58218 0.60484 0.67912 0.0
O168 O 0.59305 0.56681 0.65294 0.0
In169 In 0.88899 0.6325 0.14715 0.0
O170 O 0.87759 0.581 0.16164 0.0
O171 O 0.92118 0.58938 0.14057 0.0
C172 C 0.83839 0.6719 0.15569 0.0
C173 C 0.88547 0.63098 0.09665 0.0
C174 C 0.92561 0.65884 0.18392 0.0
O175 O 0.83725 0.64181 0.16114 0.0
O176 O 0.8646 0.68137 0.14571 0.0
O177 O 0.92995 0.6664 0.161 0.0
O178 O 0.90442 0.63718 0.18757 0.0
C179 C 0.90329 0.56925 0.15199 0.0
O180 O 0.91099 0.64033 0.10794 0.0
O181 O 0.86205 0.62324 0.11086 0.0
In182 In 0.85845 0.87974 0.65469 0.0
O183 O 0.84587 0.89521 0.61427 0.0
O184 O 0.88307 0.85947 0.61993 0.0
C185 C 0.82774 0.90945 0.69268 0.0
C186 C 0.91493 0.90637 0.66724 0.0
C187 C 0.81941 0.8293 0.66268 0.0
O188 O 0.82444 0.91947 0.67011 0.0
O189 O 0.84729 0.88588 0.69556 0.0
O190 O 0.84966 0.82705 0.66725 0.0
O191 O 0.81015 0.85559 0.65262 0.0
C192 C 0.86688 0.87631 0.60447 0.0
O193 O 0.911 0.87568 0.66838 0.0
O194 O 0.89088 0.92265 0.65932 0.0
In195 In 0.58912 0.85315 0.15557 0.0
O196 O 0.56927 0.84842 0.11525 0.0
O197 O 0.61315 0.87506 0.12144 0.0
C198 C 0.55886 0.81589 0.18959 0.0
C199 C 0.56185 0.90933 0.1692 0.0
C200 C 0.64428 0.81951 0.16023 0.0
O201 O 0.55629 0.81012 0.16616 0.0
O202 O 0.57598 0.84028 0.19537 0.0
O203 O 0.64095 0.84724 0.17064 0.0
O204 O 0.62013 0.80969 0.14772 0.0
C205 C 0.59255 0.86463 0.10579 0.0
O206 O 0.59245 0.90552 0.17036 0.0
O207 O 0.54593 0.88534 0.16083 0.0
C208 C 0.36304 0.14831 0.95625 0.0
C209 C 0.35077 0.1259 0.93878 0.0
C210 C 0.35699 0.1446 0.98219 0.0
C211 C 0.33909 0.1173 0.99086 0.0
C212 C 0.32638 0.09482 0.97321 0.0
C213 C 0.33201 0.09964 0.9474 0.0
C214 C 0.37028 0.16955 1.00035 0.0
C215 C 0.30799 0.06493 0.98163 0.0
C216 C 0.35794 0.08965 0.0575 0.0
C217 C 0.33073 0.10082 0.07088 0.0
C218 C 0.36044 0.09402 0.03137 0.0
C219 C 0.33561 0.11102 0.0184 0.0
C220 C 0.30788 0.12213 0.03183 0.0
C221 C 0.30553 0.11643 0.05792 0.0
C222 C 0.38991 0.08084 0.01772 0.0
C223 C 0.28131 0.14106 0.01881 0.0
H224 H 0.37739 0.16872 0.94965 0.0
H225 H 0.32266 0.08209 0.93397 0.0
H226 H 0.35077 0.1782 0.01319 0.0
H227 H 0.38941 0.15826 0.01217 0.0
H228 H 0.38091 0.19091 0.9905 0.0
H229 H 0.29862 0.05048 0.9655 0.0
H230 H 0.32419 0.04913 0.99302 0.0
H231 H 0.28722 0.07199 0.99382 0.0
H232 H 0.37743 0.07756 0.06756 0.0
H233 H 0.28473 0.12552 0.06836 0.0
H234 H 0.40428 0.10126 1.00981 0.0
H235 H 0.38227 0.06523 1.00172 0.0
H236 H 0.40592 0.06632 0.03027 0.0
H237 H 0.2915 0.16386 1.01084 0.0
H238 H 0.26109 0.1475 0.0318 0.0
H239 H 0.27136 0.12674 1.00288 0.0
C240 C 0.4022 0.39404 0.46353 0.0
C241 C 0.3707 0.39784 0.45394 0.0
C242 C 0.40764 0.39056 0.48951 0.0
C243 C 0.38084 0.38987 0.50626 0.0
C244 C 0.34896 0.39418 0.49668 0.0
C245 C 0.34432 0.39857 0.47065 0.0
C246 C 0.44205 0.38708 0.49896 0.0
C247 C 0.31967 0.39296 0.51381 0.0
C248 C 0.3913 0.34617 0.56909 0.0
C249 C 0.39293 0.37239 0.58597 0.0
C250 C 0.38742 0.35151 0.54309 0.0
C251 C 0.38605 0.38384 0.53371 0.0
C252 C 0.38904 0.41036 0.55064 0.0
C253 C 0.39194 0.40431 0.57659 0.0
C254 C 0.38368 0.32255 0.52577 0.0
C255 C 0.3887 0.44514 0.5414 0.0
H256 H 0.42267 0.39355 0.45064 0.0
H257 H 0.31991 0.40112 0.46326 0.0
H258 H 0.44675 0.4051 0.51412 0.0
H259 H 0.44556 0.36248 0.50717 0.0
H260 H 0.46029 0.39058 0.48376 0.0
H261 H 0.29657 0.39699 0.50347 0.0
H262 H 0.31854 0.36887 0.52325 0.0
H263 H 0.32175 0.41171 0.52879 0.0
H264 H 0.39168 0.32148 0.57632 0.0
H265 H 0.39328 0.42465 0.5896 0.0
H266 H 0.40271 0.32301 0.51095 0.0
H267 H 0.3598 0.32379 0.51613 0.0
H268 H 0.38534 0.299 0.53599 0.0
H269 H 0.40722 0.44843 0.52641 0.0
H270 H 0.39356 0.46289 0.55676 0.0
H271 H 0.3647 0.45089 0.53303 0.0
C272 C 0.0805 0.35558 0.96855 0.0
C273 C 0.10761 0.35425 0.95257 0.0
C274 C 0.0841 0.36214 0.99443 0.0
C275 C 0.11562 0.36665 1.00462 0.0
C276 C 0.14307 0.36467 0.98857 0.0
C277 C 0.13869 0.35891 0.96273 0.0
C278 C 0.05419 0.36463 1.01082 0.0
C279 C 0.17712 0.36843 0.99872 0.0
C280 C 0.12682 0.40967 0.06782 0.0
C281 C 0.12887 0.38319 0.08437 0.0
C282 C 0.12202 0.40472 0.04183 0.0
C283 C 0.12005 0.37252 0.03217 0.0
C284 C 0.12285 0.34575 0.04881 0.0
C285 C 0.12682 0.35142 0.07469 0.0
C286 C 0.11857 0.4339 0.02477 0.0
C287 C 0.12175 0.31106 0.03928 0.0
H288 H 0.05642 0.35233 0.96071 0.0
H289 H 0.15974 0.3578 0.95045 0.0
H290 H 0.05494 0.34572 0.02571 0.0
H291 H 0.05359 0.38869 0.02041 0.0
H292 H 0.0314 0.36163 0.99989 0.0
H293 H 0.19591 0.36565 0.98381 0.0
H294 H 0.17994 0.39276 1.00756 0.0
H295 H 0.18166 0.34995 0.01354 0.0
H296 H 0.1281 0.43425 0.07527 0.0
H297 H 0.12855 0.33084 0.08741 0.0
H298 H 0.09497 0.4328 0.01473 0.0
H299 H 0.138 0.43361 1.01026 0.0
H300 H 0.1199 0.4573 0.03527 0.0
H301 H 0.09808 0.30631 0.03005 0.0
H302 H 0.12516 0.29298 0.05461 0.0
H303 H 0.14098 0.3072 0.0249 0.0
C304 C 0.12988 0.13353 0.57239 0.0
C305 C 0.09828 0.1361 0.58217 0.0
C306 C 0.13532 0.12784 0.54664 0.0
C307 C 0.1085 0.12398 0.53027 0.0
C308 C 0.07648 0.12657 0.54003 0.0
C309 C 0.07175 0.13292 0.56585 0.0
C310 C 0.16982 0.126 0.53697 0.0
C311 C 0.04725 0.12218 0.52325 0.0
C312 C 0.12106 0.13872 0.46024 0.0
C313 C 0.12518 0.10696 0.45092 0.0
C314 C 0.11585 0.14457 0.48599 0.0
C315 C 0.11406 0.11796 0.50286 0.0
C316 C 0.11814 0.08577 0.49356 0.0
C317 C 0.124 0.08066 0.46771 0.0
C318 C 0.11238 0.17929 0.49513 0.0
C319 C 0.11595 0.05672 0.51089 0.0
H320 H 0.1505 0.13605 0.58491 0.0
H321 H 0.04729 0.13458 0.57336 0.0
H322 H 0.17442 0.10175 0.52841 0.0
H323 H 0.17359 0.14448 0.52201 0.0
H324 H 0.18798 0.13014 0.55208 0.0
H325 H 0.024 0.12421 0.53382 0.0
H326 H 0.0474 0.14079 0.50812 0.0
H327 H 0.04827 0.09793 0.51399 0.0
H328 H 0.1221 0.15917 0.44736 0.0
H329 H 0.12691 0.05607 0.46056 0.0
H330 H 0.13102 0.18451 0.50965 0.0
H331 H 0.08825 0.18278 0.5041 0.0
H332 H 0.115 0.19728 0.47965 0.0
H333 H 0.13493 0.05835 0.52564 0.0
H334 H 0.11896 0.03327 0.50066 0.0
H335 H 0.09205 0.05665 0.52061 0.0
C336 C 0.62795 0.87597 0.06877 0.0
C337 C 0.59674 0.87015 0.07842 0.0
C338 C 0.6331 0.88079 0.04292 0.0
C339 C 0.60625 0.88073 0.0263 0.0
C340 C 0.57453 0.87559 0.03602 0.0
C341 C 0.5702 0.86985 0.06196 0.0
C342 C 0.6674 0.88513 0.03333 0.0
C343 C 0.54521 0.87609 0.019 0.0
C344 C 0.62023 0.91853 0.96153 0.0
C345 C 0.62393 0.89073 0.94644 0.0
C346 C 0.61365 0.91571 0.98748 0.0
C347 C 0.61173 0.88437 0.99864 0.0
C348 C 0.61612 0.85629 0.98347 0.0
C349 C 0.62168 0.85982 0.95754 0.0
C350 C 0.60838 0.9462 1.00291 0.0
C351 C 0.61532 0.82247 0.99466 0.0
H352 H 0.64859 0.876 0.08143 0.0
H353 H 0.54603 0.8656 0.0694 0.0
H354 H 0.67338 0.86547 0.0197 0.0
H355 H 0.66963 0.90863 0.02319 0.0
H356 H 0.68561 0.88464 0.04874 0.0
H357 H 0.52208 0.87393 0.02968 0.0
H358 H 0.54472 0.89905 1.00799 0.0
H359 H 0.54669 0.85568 1.00532 0.0
H360 H 0.62163 0.94244 0.95292 0.0
H361 H 0.6247 0.83826 0.94594 0.0
H362 H 0.62717 0.94797 0.01779 0.0
H363 H 0.58442 0.94509 0.0125 0.0
H364 H 0.60932 0.96863 0.99124 0.0
H365 H 0.63394 0.82034 1.00967 0.0
H366 H 0.61989 0.8032 0.98036 0.0
H367 H 0.59134 0.81792 1.00353 0.0
C368 C 0.64577 0.61243 0.56183 0.0
C369 C 0.61901 0.61331 0.57814 0.0
C370 C 0.64172 0.61683 0.53579 0.0
C371 C 0.61007 0.6214 0.52587 0.0
C372 C 0.58295 0.62182 0.54228 0.0
C373 C 0.5878 0.61815 0.56825 0.0
C374 C 0.67126 0.61673 0.51889 0.0
C375 C 0.54878 0.62573 0.5324 0.0
C376 C 0.60054 0.65776 0.46036 0.0
C377 C 0.59829 0.62959 0.44557 0.0
C378 C 0.60438 0.65554 0.48662 0.0
C379 C 0.60519 0.62444 0.49822 0.0
C380 C 0.60163 0.59602 0.48337 0.0
C381 C 0.5986 0.59895 0.45721 0.0
C382 C 0.60858 0.68634 0.50183 0.0
C383 C 0.60149 0.56247 0.49506 0.0
H384 H 0.66993 0.60897 0.5695 0.0
H385 H 0.56703 0.61868 0.58083 0.0
H386 H 0.66977 0.59618 0.50534 0.0
H387 H 0.6721 0.63956 0.50773 0.0
H388 H 0.69426 0.61442 0.52967 0.0
H389 H 0.53032 0.62549 0.54769 0.0
H390 H 0.54653 0.64898 0.52191 0.0
H391 H 0.54322 0.60574 0.51899 0.0
H392 H 0.60061 0.68144 0.45131 0.0
H393 H 0.59668 0.57712 0.44576 0.0
H394 H 0.63259 0.68601 0.51131 0.0
H395 H 0.58978 0.68775 0.51679 0.0
H396 H 0.60694 0.70861 0.49002 0.0
H397 H 0.6253 0.55755 0.50405 0.0
H398 H 0.5967 0.54299 0.48101 0.0
H399 H 0.5827 0.56113 0.51003 0.0
C400 C 0.86446 0.57564 0.95296 0.0
C401 C 0.86661 0.60217 0.93647 0.0
C402 C 0.86873 0.5799 0.97906 0.0
C403 C 0.87445 0.61155 0.98887 0.0
C404 C 0.87629 0.63841 0.97225 0.0
C405 C 0.87274 0.63333 0.94628 0.0
C406 C 0.86722 0.55056 0.99614 0.0
C407 C 0.88152 0.67264 0.98193 0.0
C408 C 0.85255 0.62735 0.05741 0.0
C409 C 0.88315 0.62763 0.06897 0.0
C410 C 0.84943 0.62245 0.03136 0.0
C411 C 0.87756 0.61685 0.01656 0.0
C412 C 0.90857 0.61703 0.02816 0.0
C413 C 0.91103 0.62284 0.05421 0.0
C414 C 0.81601 0.62334 0.01968 0.0
C415 C 0.93908 0.61059 0.01311 0.0
H416 H 0.85993 0.5515 0.94543 0.0
H417 H 0.8742 0.65398 0.93361 0.0
H418 H 0.88981 0.54886 1.00744 0.0
H419 H 0.84669 0.5532 1.00956 0.0
H420 H 0.86407 0.52746 0.98548 0.0
H421 H 0.88211 0.69092 0.96652 0.0
H422 H 0.86176 0.67931 0.99524 0.0
H423 H 0.90472 0.67403 0.99246 0.0
H424 H 0.83095 0.63115 0.06877 0.0
H425 H 0.93468 0.62268 0.06316 0.0
H426 H 0.81055 0.59955 1.01071 0.0
H427 H 0.81517 0.64212 1.00468 0.0
H428 H 0.79669 0.62882 0.03371 0.0
H429 H 0.9373 0.58657 1.00358 0.0
H430 H 0.96123 0.61075 0.02503 0.0
H431 H 0.94183 0.62929 0.9982 0.0
C432 C 0.89726 0.88202 0.45521 0.0
C433 C 0.89954 0.85057 0.44502 0.0
C434 C 0.89326 0.8869 0.48122 0.0
C435 C 0.89 0.85963 0.49735 0.0
C436 C 0.89229 0.82774 0.48709 0.0
C437 C 0.89767 0.82359 0.46107 0.0
C438 C 0.89233 0.92128 0.49141 0.0
C439 C 0.88793 0.79801 0.50346 0.0
C440 C 0.90418 0.86861 0.56791 0.0
C441 C 0.87256 0.87364 0.57702 0.0
C442 C 0.91027 0.86475 0.54202 0.0
C443 C 0.88394 0.86455 0.52489 0.0
C444 C 0.85186 0.86934 0.53407 0.0
C445 C 0.84663 0.87448 0.56 0.0
C446 C 0.94492 0.86111 0.53301 0.0
C447 C 0.82301 0.86831 0.51659 0.0
H448 H 0.89873 0.90288 0.44274 0.0
H449 H 0.89893 0.79928 0.4531 0.0
H450 H 0.86797 0.92658 0.49941 0.0
H451 H 0.91022 0.92402 0.50687 0.0
H452 H 0.89772 0.93969 0.47666 0.0
H453 H 0.8899 0.77496 0.49255 0.0
H454 H 0.90645 0.79772 0.51859 0.0
H455 H 0.86374 0.79888 0.51273 0.0
H456 H 0.92428 0.86813 0.58108 0.0
H457 H 0.82214 0.878 0.56709 0.0
H458 H 0.95037 0.87989 0.5186 0.0
H459 H 0.94833 0.83697 0.52397 0.0
H460 H 0.96273 0.86348 0.5486 0.0
H461 H 0.82491 0.88802 0.5024 0.0
H462 H 0.79959 0.87109 0.52681 0.0
H463 H 0.82276 0.84482 0.50619 0.0
C464 C 0.19189 0.28814 0.17577 0.0
C465 C 0.19955 0.32114 0.17837 0.0
C466 C 0.21629 0.26429 0.17743 0.0
C467 C 0.24879 0.27382 0.18236 0.0
C468 C 0.256 0.30693 0.1871 0.0
C469 C 0.23133 0.33029 0.18468 0.0
C470 C 0.20767 0.22917 0.1722 0.0
C471 C 0.29004 0.31798 0.19325 0.0
C472 C 0.30547 0.20259 0.19435 0.0
C473 C 0.3168 0.19636 0.16988 0.0
C474 C 0.28495 0.22928 0.19926 0.0
C475 C 0.27551 0.2498 0.17915 0.0
C476 C 0.28931 0.24525 0.15495 0.0
C477 C 0.30999 0.21869 0.15067 0.0
C478 C 0.27152 0.23396 0.22549 0.0
C479 C 0.28012 0.26678 0.13301 0.0
H480 H 0.16727 0.28116 0.17097 0.0
H481 H 0.2371 0.35588 0.18715 0.0
H482 H 0.21925 0.22127 0.1543 0.0
H483 H 0.21712 0.21319 0.18735 0.0
H484 H 0.18102 0.22546 0.17062 0.0
H485 H 0.29031 0.343 0.20129 0.0
H486 H 0.30173 0.3011 0.20682 0.0
H487 H 0.30497 0.31793 0.17584 0.0
H488 H 0.31074 0.18544 0.20932 0.0
H489 H 0.31893 0.21412 0.13176 0.0
H490 H 0.24622 0.22471 0.22622 0.0
H491 H 0.27087 0.26017 0.23064 0.0
H492 H 0.28606 0.22057 0.23975 0.0
H493 H 0.25407 0.26316 0.12841 0.0
H494 H 0.29478 0.26141 0.11591 0.0
H495 H 0.28336 0.29282 0.138 0.0
C496 C 0.28199 0.29638 0.64715 0.0
C497 C 0.29356 0.3155 0.66703 0.0
C498 C 0.25525 0.27583 0.65044 0.0
C499 C 0.24009 0.274 0.67435 0.0
C500 C 0.25122 0.29378 0.69442 0.0
C501 C 0.27777 0.31463 0.69043 0.0
C502 C 0.24367 0.25558 0.62843 0.0
C503 C 0.23582 0.29209 0.72022 0.0
C504 C 0.15536 0.23958 0.67102 0.0
C505 C 0.16113 0.2063 0.67517 0.0
C506 C 0.18059 0.26229 0.67226 0.0
C507 C 0.21235 0.25146 0.67789 0.0
C508 C 0.21798 0.21823 0.68378 0.0
C509 C 0.1922 0.19592 0.68229 0.0
C510 C 0.17358 0.29749 0.66589 0.0
C511 C 0.25154 0.20596 0.69022 0.0
H512 H 0.29429 0.29706 0.62908 0.0
H513 H 0.28711 0.32905 0.70592 0.0
H514 H 0.246 0.22929 0.63294 0.0
H515 H 0.21759 0.26054 0.62476 0.0
H516 H 0.25763 0.26058 0.61094 0.0
H517 H 0.24664 0.30988 0.73357 0.0
H518 H 0.20933 0.2968 0.71894 0.0
H519 H 0.2389 0.26722 0.72805 0.0
H520 H 0.13123 0.24784 0.66588 0.0
H521 H 0.19664 0.17026 0.68575 0.0
H522 H 0.18475 0.30348 0.64744 0.0
H523 H 0.18446 0.31396 0.68013 0.0
H524 H 0.1471 0.30259 0.66478 0.0
H525 H 0.26711 0.20661 0.67314 0.0
H526 H 0.2511 0.18057 0.69746 0.0
H527 H 0.263 0.22192 0.70454 0.0
C528 C 0.31289 0.2813 0.35366 0.0
C529 C 0.30972 0.30102 0.37509 0.0
C530 C 0.29211 0.25463 0.34992 0.0
C531 C 0.26817 0.24745 0.36827 0.0
C532 C 0.26575 0.26666 0.39034 0.0
C533 C 0.28642 0.29338 0.39338 0.0
C534 C 0.29511 0.23477 0.32607 0.0
C535 C 0.24096 0.25935 0.41059 0.0
C536 C 0.19191 0.19902 0.35441 0.0
C537 C 0.19999 0.16876 0.36482 0.0
C538 C 0.21458 0.22456 0.35416 0.0
C539 C 0.24574 0.21961 0.36483 0.0
C540 C 0.25435 0.18872 0.37448 0.0
C541 C 0.23142 0.16363 0.37424 0.0
C542 C 0.20481 0.25716 0.34339 0.0
C543 C 0.28722 0.18259 0.38622 0.0
H544 H 0.33065 0.28752 0.33936 0.0
H545 H 0.28401 0.30867 0.40997 0.0
H546 H 0.29875 0.20866 0.33067 0.0
H547 H 0.27226 0.2366 0.3151 0.0
H548 H 0.31559 0.24301 0.314 0.0
H549 H 0.2429 0.27618 0.42692 0.0
H550 H 0.21608 0.26132 0.40272 0.0
H551 H 0.24408 0.23399 0.41742 0.0
H552 H 0.16773 0.20295 0.34693 0.0
H553 H 0.2379 0.14019 0.38219 0.0
H554 H 0.2236 0.26598 0.33004 0.0
H555 H 0.20291 0.27538 0.35879 0.0
H556 H 0.1811 0.25604 0.33346 0.0
H557 H 0.3069 0.19038 0.37329 0.0
H558 H 0.29099 0.15651 0.39102 0.0
H559 H 0.28952 0.19725 0.40371 0.0
C560 C 0.26859 0.17631 0.83394 0.0
C561 C 0.30141 0.18472 0.83214 0.0
C562 C 0.24441 0.20017 0.83083 0.0
C563 C 0.25359 0.23281 0.82569 0.0
C564 C 0.28645 0.24014 0.82043 0.0
C565 C 0.31007 0.21601 0.82398 0.0
C566 C 0.20947 0.19126 0.83593 0.0
C567 C 0.29713 0.27428 0.81393 0.0
C568 C 0.18574 0.29586 0.82201 0.0
C569 C 0.18362 0.3054 0.84733 0.0
C570 C 0.20931 0.27308 0.81416 0.0
C571 C 0.23089 0.25973 0.83216 0.0
C572 C 0.22999 0.27098 0.8574 0.0
C573 C 0.20638 0.29366 0.86462 0.0
C574 C 0.20973 0.26209 0.78703 0.0
C575 C 0.25292 0.25788 0.87719 0.0
H576 H 0.26193 0.15197 0.83995 0.0
H577 H 0.33555 0.22225 0.82194 0.0
H578 H 0.20245 0.20012 0.85495 0.0
H579 H 0.19312 0.20309 0.82209 0.0
H580 H 0.20562 0.16448 0.83524 0.0
H581 H 0.32166 0.27447 0.80514 0.0
H582 H 0.27964 0.28605 0.80091 0.0
H583 H 0.29805 0.28917 0.83138 0.0
H584 H 0.16794 0.30476 0.80864 0.0
H585 H 0.20487 0.30121 0.88417 0.0
H586 H 0.19613 0.23887 0.78534 0.0
H587 H 0.23489 0.25762 0.78029 0.0
H588 H 0.198 0.2803 0.77451 0.0
H589 H 0.24885 0.23135 0.87971 0.0
H590 H 0.24963 0.27006 0.89572 0.0
H591 H 0.27849 0.26123 0.87109 0.0
C592 C 0.68815 0.79166 0.83812 0.0
C593 C 0.69326 0.81298 0.85835 0.0
C594 C 0.70932 0.76532 0.83381 0.0
C595 C 0.73559 0.75995 0.8505 0.0
C596 C 0.7409 0.78163 0.87082 0.0
C597 C 0.71983 0.80805 0.87434 0.0
C598 C 0.70336 0.74299 0.81167 0.0
C599 C 0.76823 0.77637 0.88935 0.0
C600 C 0.76661 0.67472 0.86212 0.0
C601 C 0.79709 0.67534 0.85026 0.0
C602 C 0.74591 0.70173 0.8615 0.0
C603 C 0.75574 0.73005 0.84845 0.0
C604 C 0.78592 0.73049 0.83554 0.0
C605 C 0.80644 0.70308 0.83674 0.0
C606 C 0.71409 0.70038 0.87574 0.0
C607 C 0.79687 0.76018 0.82112 0.0
H608 H 0.66787 0.7958 0.82551 0.0
H609 H 0.72384 0.82458 0.88998 0.0
H610 H 0.72591 0.74015 0.80039 0.0
H611 H 0.69647 0.71842 0.81852 0.0
H612 H 0.68373 0.75219 0.79921 0.0
H613 H 0.76981 0.79626 0.90351 0.0
H614 H 0.76458 0.75298 0.89942 0.0
H615 H 0.79181 0.77467 0.87927 0.0
H616 H 0.75913 0.65327 0.87252 0.0
H617 H 0.82986 0.70351 0.82736 0.0
H618 H 0.69362 0.70689 0.86315 0.0
H619 H 0.71437 0.71845 0.89131 0.0
H620 H 0.70933 0.6759 0.88385 0.0
H621 H 0.77739 0.76853 0.80823 0.0
H622 H 0.81924 0.75542 0.80995 0.0
H623 H 0.80182 0.78042 0.83445 0.0
C624 C 0.71711 0.66752 0.37405 0.0
C625 C 0.69736 0.66105 0.35318 0.0
C626 C 0.74291 0.68952 0.3724 0.0
C627 C 0.74948 0.705 0.34916 0.0
C628 C 0.73129 0.69664 0.32749 0.0
C629 C 0.7052 0.67479 0.32979 0.0
C630 C 0.76184 0.69768 0.39594 0.0
C631 C 0.7382 0.71205 0.30226 0.0
C632 C 0.79015 0.78717 0.35707 0.0
C633 C 0.82289 0.77823 0.35562 0.0
C634 C 0.76569 0.76373 0.35373 0.0
C635 C 0.77443 0.73101 0.34822 0.0
C636 C 0.80746 0.72254 0.34499 0.0
C637 C 0.83133 0.74618 0.34907 0.0
C638 C 0.73065 0.77355 0.35754 0.0
C639 C 0.81772 0.68819 0.33843 0.0
H640 H 0.71124 0.65682 0.39215 0.0
H641 H 0.68992 0.6699 0.31362 0.0
H642 H 0.78821 0.69394 0.39269 0.0
H643 H 0.7582 0.72375 0.40081 0.0
H644 H 0.7543 0.68264 0.41232 0.0
H645 H 0.72532 0.6994 0.28671 0.0
H646 H 0.73021 0.73789 0.30258 0.0
H647 H 0.76466 0.71183 0.29821 0.0
H648 H 0.78374 0.81203 0.36196 0.0
H649 H 0.85674 0.73946 0.34739 0.0
H650 H 0.72095 0.76151 0.37468 0.0
H651 H 0.71568 0.76535 0.3414 0.0
H652 H 0.72775 0.80034 0.35974 0.0
H653 H 0.81407 0.67215 0.35499 0.0
H654 H 0.84369 0.68683 0.33276 0.0
H655 H 0.80261 0.67841 0.32288 0.0
C656 C 0.76725 0.81702 0.68347 0.0
C657 C 0.79529 0.8055 0.67133 0.0
C658 C 0.74155 0.79602 0.68925 0.0
C659 C 0.74361 0.76295 0.68192 0.0
C660 C 0.77275 0.75081 0.67098 0.0
C661 C 0.79858 0.7723 0.66608 0.0
C662 C 0.7115 0.80968 0.7018 0.0
C663 C 0.77577 0.71567 0.66284 0.0
C664 C 0.68205 0.69823 0.70015 0.0
C665 C 0.66312 0.69683 0.67823 0.0
C666 C 0.70734 0.72102 0.70243 0.0
C667 C 0.71394 0.7424 0.68215 0.0
C668 C 0.6932 0.74275 0.66092 0.0
C669 C 0.66783 0.72018 0.65936 0.0
C670 C 0.72823 0.72062 0.72576 0.0
C671 C 0.69923 0.76529 0.63892 0.0
H672 H 0.76513 0.84276 0.68794 0.0
H673 H 0.8204 0.76356 0.65678 0.0
H674 H 0.69176 0.81201 0.68771 0.0
H675 H 0.70277 0.79303 0.7168 0.0
H676 H 0.71595 0.8341 0.71017 0.0
H677 H 0.80081 0.70947 0.65659 0.0
H678 H 0.76887 0.69919 0.6785 0.0
H679 H 0.75882 0.71092 0.64703 0.0
H680 H 0.67854 0.68022 0.71482 0.0
H681 H 0.65315 0.71933 0.64244 0.0
H682 H 0.73474 0.74573 0.73165 0.0
H683 H 0.75115 0.70734 0.72167 0.0
H684 H 0.71586 0.70822 0.74169 0.0
H685 H 0.70044 0.79095 0.64545 0.0
H686 H 0.68002 0.76341 0.62432 0.0
H687 H 0.72297 0.75931 0.63008 0.0
C688 C 0.78419 0.68559 0.17454 0.0
C689 C 0.81117 0.69469 0.16007 0.0
C690 C 0.75786 0.70705 0.17783 0.0
C691 C 0.75847 0.73797 0.16598 0.0
C692 C 0.78614 0.74759 0.15203 0.0
C693 C 0.81223 0.72591 0.1494 0.0
C694 C 0.72893 0.69621 0.19318 0.0
C695 C 0.78753 0.78012 0.13878 0.0
C696 C 0.6786 0.77407 0.14472 0.0
C697 C 0.67387 0.79938 0.1621 0.0
C698 C 0.70588 0.7538 0.14602 0.0
C699 C 0.72884 0.75863 0.16544 0.0
C700 C 0.72409 0.78392 0.18329 0.0
C701 C 0.69669 0.8043 0.18127 0.0
C702 C 0.71032 0.7275 0.12633 0.0
C703 C 0.7479 0.78935 0.20446 0.0
H704 H 0.78349 0.66162 0.18308 0.0
H705 H 0.83312 0.73314 0.13828 0.0
H706 H 0.7218 0.71548 0.20681 0.0
H707 H 0.7079 0.69205 0.18055 0.0
H708 H 0.73389 0.67333 0.20366 0.0
H709 H 0.8118 0.78494 0.13039 0.0
H710 H 0.76915 0.78072 0.12352 0.0
H711 H 0.78157 0.80015 0.15207 0.0
H712 H 0.66104 0.77025 0.12982 0.0
H713 H 0.69287 0.82369 0.19485 0.0
H714 H 0.71201 0.70328 0.13548 0.0
H715 H 0.73338 0.73149 0.11592 0.0
H716 H 0.69006 0.72693 0.11254 0.0
H717 H 0.75086 0.7666 0.2155 0.0
H718 H 0.74002 0.8092 0.21737 0.0
H719 H 0.77211 0.79563 0.19665 0.0
C720 C 0.16172 0.03869 0.29156 0.0
C721 C 0.17838 0.04695 0.31365 0.0
C722 C 0.1782 0.03576 0.26846 0.0
C723 C 0.21186 0.04271 0.26728 0.0
C724 C 0.22912 0.04894 0.28988 0.0
C725 C 0.2122 0.05046 0.31289 0.0
C726 C 0.15907 0.02772 0.24506 0.0
C727 C 0.26484 0.05725 0.2895 0.0
C728 C 0.26375 0.03144 0.20819 0.0
C729 C 0.26239 0.06273 0.19761 0.0
C730 C 0.24613 0.02391 0.2302 0.0
C731 C 0.22779 0.04862 0.24239 0.0
C732 C 0.22576 0.08 0.23136 0.0
C733 C 0.24259 0.08645 0.20893 0.0
C734 C 0.24793 0.98986 0.2408 0.0
C735 C 0.2071 0.10735 0.2439 0.0
H736 H 0.13551 0.03606 0.29215 0.0
H737 H 0.225 0.05742 0.3299 0.0
H738 H 0.15471 0.05031 0.23411 0.0
H739 H 0.17285 0.01062 0.23281 0.0
H740 H 0.13514 0.01671 0.24968 0.0
H741 H 0.27539 0.05804 0.30873 0.0
H742 H 0.27863 0.03929 0.27808 0.0
H743 H 0.26819 0.0815 0.28062 0.0
H744 H 0.27908 0.01303 0.19952 0.0
H745 H 0.24172 0.1108 0.20104 0.0
H746 H 0.22331 0.98106 0.24592 0.0
H747 H 0.26273 0.98994 0.25822 0.0
H748 H 0.25906 0.97242 0.22726 0.0
H749 H 0.20823 0.13042 0.233 0.0
H750 H 0.21706 0.11192 0.26299 0.0
H751 H 0.18123 0.10044 0.24621 0.0
C752 C 0.45111 0.27534 0.71611 0.0
C753 C 0.41879 0.28588 0.71418 0.0
C754 C 0.46043 0.25319 0.73508 0.0
C755 C 0.43668 0.24109 0.75204 0.0
C756 C 0.40393 0.25131 0.7497 0.0
C757 C 0.39553 0.27372 0.731 0.0
C758 C 0.49567 0.2435 0.73739 0.0
C759 C 0.37754 0.23865 0.76699 0.0
C760 C 0.43666 0.16202 0.78751 0.0
C761 C 0.43609 0.1735 0.81241 0.0
C762 C 0.44087 0.18349 0.76726 0.0
C763 C 0.44499 0.21715 0.7721 0.0
C764 C 0.44919 0.228 0.79724 0.0
C765 C 0.44451 0.20601 0.8172 0.0
C766 C 0.4365 0.17069 0.74081 0.0
C767 C 0.45475 0.26351 0.80318 0.0
H768 H 0.46917 0.28502 0.70327 0.0
H769 H 0.37046 0.28166 0.72946 0.0
H770 H 0.50596 0.25451 0.75472 0.0
H771 H 0.49814 0.21668 0.7392 0.0
H772 H 0.51031 0.25177 0.72101 0.0
H773 H 0.35312 0.24825 0.76203 0.0
H774 H 0.3767 0.21164 0.76618 0.0
H775 H 0.38287 0.24565 0.78673 0.0
H776 H 0.43075 0.13675 0.78368 0.0
H777 H 0.44451 0.215 0.83641 0.0
H778 H 0.45372 0.18247 0.72759 0.0
H779 H 0.4115 0.17641 0.73434 0.0
H780 H 0.43999 0.14385 0.73985 0.0
H781 H 0.47167 0.27464 0.78937 0.0
H782 H 0.46471 0.26686 0.82244 0.0
H783 H 0.4313 0.27683 0.80204 0.0
C784 C 0.20917 0.45615 0.21892 0.0
C785 C 0.17885 0.44119 0.22208 0.0
C786 C 0.23034 0.46 0.23948 0.0
C787 C 0.22098 0.44827 0.26352 0.0
C788 C 0.18904 0.43646 0.26719 0.0
C789 C 0.16832 0.43325 0.24645 0.0
C790 C 0.26387 0.4736 0.23491 0.0
C791 C 0.17794 0.42355 0.2924 0.0
C792 C 0.28441 0.40324 0.30145 0.0
C793 C 0.28992 0.42446 0.32172 0.0
C794 C 0.2626 0.41119 0.28226 0.0
C795 C 0.24606 0.44146 0.28302 0.0
C796 C 0.25208 0.4635 0.30306 0.0
C797 C 0.27376 0.45457 0.32241 0.0
C798 C 0.25669 0.38664 0.26147 0.0
C799 C 0.23538 0.49624 0.3042 0.0
H800 H 0.21735 0.46263 0.20017 0.0
H801 H 0.14468 0.42213 0.24909 0.0
H802 H 0.27174 0.48905 0.25094 0.0
H803 H 0.28147 0.45319 0.23312 0.0
H804 H 0.26486 0.48821 0.21733 0.0
H805 H 0.15116 0.42034 0.29318 0.0
H806 H 0.18955 0.39952 0.29583 0.0
H807 H 0.18535 0.44009 0.30787 0.0
H808 H 0.29675 0.37988 0.30079 0.0
H809 H 0.27816 0.47114 0.33795 0.0
H810 H 0.26215 0.39766 0.24288 0.0
H811 H 0.23074 0.37935 0.26136 0.0
H812 H 0.27178 0.36433 0.26358 0.0
H813 H 0.23781 0.50902 0.28589 0.0
H814 H 0.24545 0.51201 0.3193 0.0
H815 H 0.20905 0.49282 0.30776 0.0
C816 C 0.04574 0.22352 0.71748 0.0
C817 C 0.03554 0.19105 0.71609 0.0
C818 C 0.04404 0.24089 0.74027 0.0
C819 C 0.03055 0.2258 0.76191 0.0
C820 C 0.01728 0.19406 0.75983 0.0
C821 C 0.02077 0.17669 0.73711 0.0
C822 C 0.05951 0.2742 0.74172 0.0
C823 C 0.00124 0.17766 0.782 0.0
C824 C 0.0683 0.25183 0.82396 0.0
C825 C 0.048 0.27762 0.83128 0.0
C826 C 0.0623 0.23413 0.80182 0.0
C827 C 0.03449 0.24148 0.78714 0.0
C828 C 0.01244 0.26573 0.79561 0.0
C829 C 0.01988 0.2841 0.81727 0.0
C830 C 0.08708 0.20925 0.7932 0.0
C831 C 0.98179 0.27332 0.78121 0.0
H832 H 0.05785 0.23435 0.70138 0.0
H833 H 0.01312 0.15145 0.73607 0.0
H834 H 0.04238 0.29209 0.75008 0.0
H835 H 0.08115 0.2731 0.75414 0.0
H836 H 0.06727 0.28325 0.72294 0.0
H837 H 0.98641 0.15641 0.77605 0.0
H838 H 0.02011 0.16891 0.79527 0.0
H839 H 0.98545 0.1951 0.79235 0.0
H840 H 0.09036 0.24711 0.83449 0.0
H841 H 0.00419 0.30412 0.82284 0.0
H842 H 0.09763 0.21688 0.77488 0.0
H843 H 0.07533 0.18526 0.79025 0.0
H844 H 0.10719 0.20616 0.80692 0.0
H845 H 0.98789 0.28748 0.76408 0.0
H846 H 0.96438 0.28786 0.79267 0.0
H847 H 0.96969 0.25052 0.77503 0.0
C848 C 0.7205 0.95225 0.81527 0.0
C849 C 0.69139 0.93546 0.81097 0.0
C850 C 0.74345 0.95618 0.79579 0.0
C851 C 0.73729 0.9424 0.77176 0.0
C852 C 0.70681 0.9278 0.76691 0.0
C853 C 0.68417 0.92486 0.78647 0.0
C854 C 0.77521 0.97291 0.80144 0.0
C855 C 0.69925 0.91233 0.74175 0.0
C856 C 0.78946 0.94997 0.71273 0.0
C857 C 0.80763 0.92109 0.71402 0.0
C858 C 0.76809 0.95877 0.73239 0.0
C859 C 0.76414 0.93759 0.75326 0.0
C860 C 0.78334 0.90902 0.75493 0.0
C861 C 0.80509 0.90142 0.73551 0.0
C862 C 0.74882 0.98995 0.73033 0.0
C863 C 0.77948 0.88524 0.77646 0.0
H864 H 0.72611 0.96079 0.83409 0.0
H865 H 0.66154 0.91222 0.78287 0.0
H866 H 0.7944 0.9543 0.80446 0.0
H867 H 0.78291 0.98838 0.78538 0.0
H868 H 0.77353 0.98825 0.81866 0.0
H869 H 0.6734 0.90482 0.74026 0.0
H870 H 0.70477 0.92938 0.72616 0.0
H871 H 0.71473 0.89039 0.73909 0.0
H872 H 0.79154 0.96538 0.69625 0.0
H873 H 0.81897 0.87898 0.73663 0.0
H874 H 0.74772 0.00268 0.74877 0.0
H875 H 0.72353 0.98427 0.72467 0.0
H876 H 0.75937 0.00671 0.71609 0.0
H877 H 0.7825 0.89792 0.79476 0.0
H878 H 0.79729 0.86489 0.77549 0.0
H879 H 0.75463 0.87476 0.77616 0.0
C880 C 0.53075 0.69661 0.30778 0.0
C881 C 0.55909 0.70244 0.32169 0.0
C882 C 0.52347 0.71521 0.28627 0.0
C883 C 0.54574 0.73923 0.27801 0.0
C884 C 0.57376 0.74595 0.29259 0.0
C885 C 0.57976 0.72787 0.31448 0.0
C886 C 0.49269 0.70825 0.27186 0.0
C887 C 0.59853 0.7709 0.28428 0.0
C888 C 0.55721 0.76121 0.20927 0.0
C889 C 0.54714 0.79377 0.20935 0.0
C890 C 0.55498 0.74225 0.23121 0.0
C891 C 0.54138 0.75603 0.25339 0.0
C892 C 0.52812 0.78788 0.25263 0.0
C893 C 0.53188 0.80668 0.23076 0.0
C894 C 0.57009 0.70869 0.23131 0.0
C895 C 0.51217 0.80299 0.27545 0.0
H896 H 0.51471 0.67695 0.31333 0.0
H897 H 0.60187 0.73223 0.32501 0.0
H898 H 0.48046 0.73131 0.26641 0.0
H899 H 0.49868 0.69488 0.25429 0.0
H900 H 0.47543 0.69323 0.28299 0.0
H901 H 0.61896 0.77325 0.29781 0.0
H902 H 0.60862 0.76391 0.26563 0.0
H903 H 0.58686 0.79511 0.28213 0.0
H904 H 0.56953 0.75152 0.19279 0.0
H905 H 0.52422 0.83199 0.23075 0.0
H906 H 0.55319 0.69068 0.23968 0.0
H907 H 0.59232 0.70899 0.24312 0.0
H908 H 0.57687 0.70038 0.21208 0.0
H909 H 0.49626 0.78508 0.28509 0.0
H910 H 0.49747 0.82475 0.2704 0.0
H911 H 0.5311 0.81066 0.28906 0.0
C912 C 0.76748 0.55638 0.80382 0.0
C913 C 0.80079 0.54966 0.80305 0.0
C914 C 0.74855 0.55417 0.78192 0.0
C915 C 0.7632 0.54388 0.75903 0.0
C916 C 0.79612 0.53384 0.75892 0.0
C917 C 0.81478 0.53763 0.78083 0.0
C918 C 0.71375 0.56587 0.78278 0.0
C919 C 0.81227 0.52131 0.73527 0.0
C920 C 0.70305 0.53202 0.70555 0.0
C921 C 0.70541 0.56206 0.69315 0.0
C922 C 0.72343 0.52461 0.726 0.0
C923 C 0.74553 0.54843 0.73483 0.0
C924 C 0.7489 0.57823 0.72162 0.0
C925 C 0.72925 0.58437 0.70063 0.0
C926 C 0.72015 0.492 0.73885 0.0
C927 C 0.77155 0.6047 0.7307 0.0
H928 H 0.75687 0.56618 0.82095 0.0
H929 H 0.84063 0.53249 0.78032 0.0
H930 H 0.7115 0.58876 0.77178 0.0
H931 H 0.69738 0.54768 0.77406 0.0
H932 H 0.70532 0.57068 0.80233 0.0
H933 H 0.83538 0.50839 0.73945 0.0
H934 H 0.79588 0.50449 0.72497 0.0
H935 H 0.81778 0.54204 0.72259 0.0
H936 H 0.68457 0.51476 0.6998 0.0
H937 H 0.73082 0.60781 0.6913 0.0
H938 H 0.70646 0.49502 0.75671 0.0
H939 H 0.74441 0.48189 0.7436 0.0
H940 H 0.707 0.47413 0.7269 0.0
H941 H 0.76419 0.61271 0.74986 0.0
H942 H 0.77152 0.62631 0.71811 0.0
H943 H 0.79674 0.59526 0.73199 0.0
C944 C 0.96498 0.7698 0.30575 0.0
C945 C 0.93787 0.79055 0.30512 0.0
C946 C 0.97163 0.7484 0.28555 0.0
C947 C 0.95003 0.7471 0.26479 0.0
C948 C 0.92348 0.76903 0.26371 0.0
C949 C 0.91805 0.7907 0.28366 0.0
C950 C 0.00087 0.72628 0.28702 0.0
C951 C 0.89937 0.76822 0.24226 0.0
C952 C 0.95892 0.70493 0.20155 0.0
C953 C 0.93944 0.67736 0.20537 0.0
C954 C 0.96577 0.7264 0.22158 0.0
C955 C 0.95209 0.7205 0.24567 0.0
C956 C 0.93483 0.69122 0.25 0.0
C957 C 0.92909 0.66988 0.22988 0.0
C958 C 0.9855 0.75663 0.21647 0.0
C959 C 0.91947 0.68396 0.27524 0.0
H960 H 0.98055 0.76974 0.32219 0.0
H961 H 0.89705 0.80667 0.28295 0.0
H962 H -0.00684 0.70179 0.29348 0.0
H963 H 0.01246 0.72338 0.26826 0.0
H964 H 0.0192 0.7357 0.30052 0.0
H965 H 0.88067 0.78768 0.24387 0.0
H966 H 0.9121 0.77108 0.22398 0.0
H967 H 0.88686 0.74428 0.24193 0.0
H968 H 0.96736 0.71069 0.18273 0.0
H969 H 0.91436 0.6484 0.23311 0.0
H970 H 0.00183 0.76209 0.23254 0.0
H971 H 0.96894 0.77776 0.21407 0.0
H972 H 0.00033 0.75408 0.19907 0.0
H973 H 0.93736 0.68714 0.29061 0.0
H974 H 0.90963 0.65879 0.27621 0.0
H975 H 0.89924 0.70134 0.27873 0.0
C976 C 0.44051 0.06133 0.18489 0.0
C977 C 0.42106 0.05473 0.16386 0.0
C978 C 0.46875 0.04288 0.1895 0.0
C979 C 0.47766 0.01778 0.17246 0.0
C980 C 0.45912 0.01267 0.15037 0.0
C981 C 0.43093 0.03099 0.1465 0.0
C982 C 0.48784 0.04899 0.21325 0.0
C983 C 0.46798 0.98656 0.13143 0.0
C984 C 0.55588 0.96984 0.16791 0.0
C985 C 0.54496 0.93949 0.17637 0.0
C986 C 0.53522 -0.00283 0.16886 0.0
C987 C 0.50339 -0.00626 0.17877 0.0
C988 C 0.49401 0.96396 0.19004 0.0
C989 C 0.51479 0.93706 0.18839 0.0
C990 C 0.5462 0.02858 0.15686 0.0
C991 C 0.46061 0.95937 0.20133 0.0
H992 H 0.43291 0.07984 0.19826 0.0
H993 H 0.41621 0.0263 0.12997 0.0
H994 H 0.48181 0.02994 0.2273 0.0
H995 H 0.51435 0.04756 0.20958 0.0
H996 H 0.48206 0.07316 0.22161 0.0
H997 H 0.45294 0.98799 0.11411 0.0
H998 H 0.49392 0.98861 0.12597 0.0
H999 H 0.46446 0.96215 0.13998 0.0
H1000 H 0.5793 0.97159 0.15862 0.0
H1001 H 0.50665 0.91353 0.19522 0.0
H1002 H 0.53734 0.04998 0.16768 0.0
H1003 H 0.53595 0.03024 0.13759 0.0
H1004 H 0.57311 0.02979 0.15538 0.0
H1005 H 0.45378 0.98061 0.21317 0.0
H1006 H 0.4592 0.93696 0.21299 0.0
H1007 H 0.44246 0.95738 0.18598 0.0
C1008 C 0.53075 0.53906 0.65712 0.0
C1009 C 0.54276 0.5615 0.67463 0.0
C1010 C 0.50422 0.51926 0.66286 0.0
C1011 C 0.48941 0.52176 0.68688 0.0
C1012 C 0.50006 0.54586 0.70412 0.0
C1013 C 0.52675 0.56564 0.69774 0.0
C1014 C 0.49344 0.49424 0.64369 0.0
C1015 C 0.4847 0.54949 0.72978 0.0
C1016 C 0.414 0.47021 0.68571 0.0
C1017 C 0.42763 0.43974 0.69127 0.0
C1018 C 0.43293 0.49861 0.68717 0.0
C1019 C 0.46594 0.49613 0.69441 0.0
C1020 C 0.47829 0.466 0.70317 0.0
C1021 C 0.459 0.43807 0.70132 0.0
C1022 C 0.41867 0.53045 0.67828 0.0
C1023 C 0.51313 0.46238 0.71161 0.0
H1024 H 0.54276 0.53627 0.63905 0.0
H1025 H 0.53597 0.58314 0.71125 0.0
H1026 H 0.49879 0.46937 0.65079 0.0
H1027 H 0.46684 0.49593 0.64062 0.0
H1028 H 0.50586 0.49728 0.62525 0.0
H1029 H 0.48947 0.57396 0.73796 0.0
H1030 H 0.45806 0.54553 0.72897 0.0
H1031 H 0.49509 0.53094 0.74265 0.0
H1032 H 0.38955 0.47157 0.67821 0.0
H1033 H 0.4693 0.41455 0.70616 0.0
H1034 H 0.42598 0.53466 0.65842 0.0
H1035 H 0.42789 0.55116 0.68966 0.0
H1036 H 0.3917 0.53024 0.67921 0.0
H1037 H 0.52935 0.46282 0.69488 0.0
H1038 H 0.51724 0.4391 0.72179 0.0
H1039 H 0.52022 0.48288 0.72405 0.0
C1040 C 0.01293 0.41092 0.16957 0.0
C1041 C 0.04107 0.42891 0.17466 0.0
C1042 C 0.9824 0.42646 0.16873 0.0
C1043 C 0.9804 0.4605 0.17315 0.0
C1044 C 0.00846 0.4778 0.18082 0.0
C1045 C 0.03841 0.46179 0.18134 0.0
C1046 C 0.95299 0.40694 0.16116 0.0
C1047 C 0.00757 0.514 0.18619 0.0
C1048 C 0.93303 0.52125 0.13611 0.0
C1049 C 0.91392 0.53526 0.15507 0.0
C1050 C 0.9517 0.49344 0.14083 0.0
C1051 C 0.95154 0.47973 0.16528 0.0
C1052 C 0.92895 0.49121 0.18344 0.0
C1053 C 0.91023 0.51908 0.1781 0.0
C1054 C 0.97474 0.48155 0.12062 0.0
C1055 C 0.9272 0.47645 0.20938 0.0
H1056 H 0.015 0.38536 0.1646 0.0
H1057 H 0.06016 0.47551 0.18581 0.0
H1058 H 0.93047 0.41673 0.1699 0.0
H1059 H 0.95012 0.40809 0.14041 0.0
H1060 H 0.95579 0.38092 0.16649 0.0
H1061 H 0.03076 0.52297 0.1943 0.0
H1062 H 0.00291 0.5275 0.16845 0.0
H1063 H 0.98763 0.51994 0.1995 0.0
H1064 H 0.93529 0.53351 0.1181 0.0
H1065 H 0.89515 0.52981 0.1927 0.0
H1066 H 0.97473 0.45456 0.11963 0.0
H1067 H -0.00018 0.48948 0.12522 0.0
H1068 H 0.96834 0.49136 0.10177 0.0
H1069 H 0.93123 0.44971 0.20867 0.0
H1070 H 0.90335 0.48147 0.21846 0.0
H1071 H 0.94647 0.48722 0.22136 0.0
C1072 C 0.9429 0.95442 0.68451 0.0
C1073 C 0.94514 0.92305 0.67433 0.0
C1074 C 0.97032 0.97424 0.68656 0.0
C1075 C 0.00068 0.96249 0.67778 0.0
C1076 C 0.00368 0.92961 0.66985 0.0
C1077 C 0.97567 0.91007 0.66827 0.0
C1078 C 0.96598 0.00891 0.69564 0.0
C1079 C 0.03572 0.91596 0.66087 0.0
C1080 C 0.04077 0.0333 0.64613 0.0
C1081 C 0.05953 0.04599 0.66575 0.0
C1082 C 0.02432 0.00377 0.64884 0.0
C1083 C 0.02637 0.98673 0.67196 0.0
C1084 C 0.04802 -0.00229 0.69087 0.0
C1085 C 0.06454 0.02741 0.68751 0.0
C1086 C 0.00204 0.99274 0.62792 0.0
C1087 C 0.05148 0.97983 0.7155 0.0
H1088 H 0.91926 0.96416 0.68966 0.0
H1089 H 0.97735 0.88564 0.66055 0.0
H1090 H 0.98529 0.01547 0.70926 0.0
H1091 H 0.9679 0.02582 0.67941 0.0
H1092 H 0.94198 0.01278 0.7048 0.0
H1093 H 0.03619 0.88894 0.66219 0.0
H1094 H 0.03947 0.92274 0.64086 0.0
H1095 H 0.05626 0.92605 0.67189 0.0
H1096 H 0.0375 0.04743 0.62906 0.0
H1097 H 0.07933 0.03716 0.70261 0.0
H1098 H 0.97639 -0.00314 0.63362 0.0
H1099 H 0.00514 0.96631 0.62423 0.0
H1100 H 0.00653 0.0062 0.61011 0.0
H1101 H 0.03143 0.98718 0.72832 0.0
H1102 H 0.07486 0.98575 0.72485 0.0
H1103 H 0.04994 0.95306 0.71272 0.0
C1104 C 0.56392 0.52697 0.32857 0.0
C1105 C 0.56515 0.54146 0.35243 0.0
C1106 C 0.54385 0.49976 0.32435 0.0
C1107 C 0.52504 0.48723 0.34451 0.0
C1108 C 0.52935 0.49972 0.36915 0.0
C1109 C 0.54921 0.52683 0.37273 0.0
C1110 C 0.54064 0.4865 0.29798 0.0
C1111 C 0.51033 0.48679 0.39137 0.0
C1112 C 0.43724 0.46472 0.34044 0.0
C1113 C 0.43825 0.43199 0.34777 0.0
C1114 C 0.46584 0.48221 0.33631 0.0
C1115 C 0.49619 0.46654 0.33975 0.0
C1116 C 0.4973 0.43256 0.34431 0.0
C1117 C 0.46813 0.41556 0.34836 0.0
C1118 C 0.46343 0.51832 0.33102 0.0
C1119 C 0.52917 0.41478 0.34724 0.0
H1120 H 0.57656 0.53825 0.31293 0.0
H1121 H 0.55083 0.5378 0.39129 0.0
H1122 H 0.53602 0.45987 0.29811 0.0
H1123 H 0.51981 0.49852 0.28854 0.0
H1124 H 0.56283 0.49146 0.28667 0.0
H1125 H 0.51931 0.49667 0.40956 0.0
H1126 H 0.48435 0.49365 0.38937 0.0
H1127 H 0.5117 0.45982 0.39207 0.0
H1128 H 0.41406 0.47726 0.33934 0.0
H1129 H 0.46892 0.39005 0.35362 0.0
H1130 H 0.48025 0.52533 0.31563 0.0
H1131 H 0.47051 0.53219 0.34811 0.0
H1132 H 0.4384 0.52576 0.32568 0.0
H1133 H 0.54798 0.42484 0.33444 0.0
H1134 H 0.5264 0.38829 0.34343 0.0
H1135 H 0.53795 0.4177 0.36685 0.0
C1136 C 0.04874 0.45536 0.88033 0.0
C1137 C 0.06746 0.44029 0.86161 0.0
C1138 C 0.03036 0.48317 0.87504 0.0
C1139 C 0.03046 0.49597 0.85029 0.0
C1140 C 0.05218 0.48303 0.83209 0.0
C1141 C 0.07059 0.45515 0.83799 0.0
C1142 C 0.00808 0.49652 0.89525 0.0
C1143 C 0.05367 0.49658 0.80574 0.0
C1144 C 0.94454 0.51966 0.8359 0.0
C1145 C 0.94448 0.55271 0.8424 0.0
C1146 C 0.97332 0.5016 0.83579 0.0
C1147 C 0.0028 0.51698 0.84261 0.0
C1148 C 0.0034 0.55113 0.8467 0.0
C1149 C 0.97401 0.56876 0.84652 0.0
C1150 C 0.97149 0.46535 0.83086 0.0
C1151 C 0.03443 0.56856 0.85338 0.0
H1152 H 0.04692 0.44422 0.89879 0.0
H1153 H 0.08539 0.44365 0.82357 0.0
H1154 H 0.00939 0.52349 0.89592 0.0
H1155 H 0.9826 0.48976 0.89086 0.0
H1156 H 0.01416 0.48681 0.91419 0.0
H1157 H 0.07701 0.49027 0.79635 0.0
H1158 H 0.03362 0.48607 0.79441 0.0
H1159 H 0.05068 0.52346 0.8058 0.0
H1160 H 0.92169 0.50744 0.83219 0.0
H1161 H 0.97395 0.59444 0.85135 0.0
H1162 H 0.97535 0.45193 0.84874 0.0
H1163 H 0.9908 0.45767 0.81751 0.0
H1164 H 0.94759 0.458 0.82302 0.0
H1165 H 0.03873 0.56637 0.87393 0.0
H1166 H 0.03294 0.59491 0.84871 0.0
H1167 H 0.05562 0.55771 0.84347 0.0
C1168 C 0.91838 0.95968 0.35411 0.0
C1169 C 0.93641 0.93118 0.34984 0.0
C1170 C 0.93367 0.99033 0.35392 0.0
C1171 C 0.96753 0.99213 0.34931 0.0
C1172 C 0.98494 0.96361 0.34252 0.0
C1173 C 0.96917 0.93349 0.343 0.0
C1174 C 0.91411 0.02022 0.36069 0.0
C1175 C 0.02099 0.96435 0.337 0.0
C1176 C 0.0236 0.06416 0.34233 0.0
C1177 C 0.03963 0.0625 0.36553 0.0
C1178 C -0.00309 0.04376 0.3374 0.0
C1179 C 0.9864 0.02163 0.35618 0.0
C1180 C 4e-05 0.02317 0.38061 0.0
C1181 C 0.0267 0.04344 0.3849 0.0
C1182 C 0.98237 0.04349 0.31137 0.0
C1183 C 0.98919 0.00057 0.40142 0.0
H1184 H 0.89291 0.95791 0.3592 0.0
H1185 H 0.98296 0.91147 0.33919 0.0
H1186 H 0.91654 0.02509 0.38116 0.0
H1187 H 0.92296 0.04201 0.35043 0.0
H1188 H 0.88791 0.0167 0.35651 0.0
H1189 H 0.02999 0.94078 0.32934 0.0
H1190 H 0.02673 0.98386 0.32328 0.0
H1191 H 0.03448 0.96972 0.3546 0.0
H1192 H 0.03359 0.07911 0.32739 0.0
H1193 H 0.0389 0.04268 0.40298 0.0
H1194 H 0.95589 0.03854 0.31209 0.0
H1195 H -0.00603 0.02387 0.30007 0.0
H1196 H 0.98651 0.06702 0.30155 0.0
H1197 H 0.9623 -0.00026 0.40256 0.0
H1198 H -0.00115 0.00811 0.42006 0.0
H1199 H -0.00204 0.9755 0.39735 0.0
C1200 C 0.543 0.96442 0.84535 0.0
C1201 C 0.54516 0.93139 0.85166 0.0
C1202 C 0.51293 0.98011 0.84385 0.0
C1203 C 0.48422 0.96236 0.84905 0.0
C1204 C 0.48603 0.92837 0.85353 0.0
C1205 C 0.51667 0.91316 0.85474 0.0
C1206 C 0.51222 0.01633 0.83862 0.0
C1207 C 0.45598 0.90853 0.85883 0.0
C1208 C 0.42756 0.02151 0.88007 0.0
C1209 C 0.41055 0.03345 0.85925 0.0
C1210 C 0.44895 -0.00482 0.87761 0.0
C1211 C 0.45375 0.9809 0.8536 0.0
C1212 C 0.43382 0.99044 0.83317 0.0
C1213 C 0.41221 0.01675 0.83626 0.0
C1214 C 0.46916 0.98534 0.90007 0.0
C1215 C 0.43774 0.97533 0.80744 0.0
H1216 H 0.56504 0.97841 0.8425 0.0
H1217 H 0.51834 0.88752 0.85949 0.0
H1218 H 0.49419 0.022 0.82376 0.0
H1219 H 0.50478 0.02963 0.85592 0.0
H1220 H 0.53628 0.02573 0.83254 0.0
H1221 H 0.46026 0.88216 0.85534 0.0
H1222 H 0.44899 0.91163 0.87888 0.0
H1223 H 0.43523 0.91679 0.84714 0.0
H1224 H 0.42575 0.03414 0.89798 0.0
H1225 H 0.39884 0.02591 0.82017 0.0
H1226 H 0.49419 -0.00503 0.89781 0.0
H1227 H 0.47089 0.95843 0.90145 0.0
H1228 H 0.45898 -0.00501 0.91799 0.0
H1229 H 0.45886 0.98658 0.79779 0.0
H1230 H 0.41586 0.97935 0.79561 0.0
H1231 H 0.44247 0.94876 0.80885 0.0
loop_
_geom_bond_atom_site_label_1
_geom_bond_atom_site_label_2
_geom_bond_distance
_geom_bond_site_symmetry_2
_ccdc_geom_bond_type
In0 O1 2.294 . S
In0 O2 2.326 . S
In0 O6 2.266 . S
In0 O7 2.326 . S
In0 O8 2.266 . S
In0 O9 2.326 . S
In0 O11 2.294 . S
In0 O12 2.326 . S
O1 In0 2.294 . S
O1 C10 1.240 . S
O2 In0 2.326 . S
O2 C10 1.252 . S
C3 O6 1.252 . S
C3 O7 1.260 . S
C4 O11 1.240 . S
C4 O12 1.252 . S
C5 O8 1.252 . S
C5 O9 1.260 . S
O6 In0 2.266 . S
O6 C3 1.252 . S
O7 In0 2.326 . S
O7 C3 1.260 . S
O8 In0 2.266 . S
O8 C5 1.252 . S
O9 In0 2.326 . S
O9 C5 1.260 . S
C10 O1 1.240 . S
C10 O2 1.252 . S
O11 In0 2.294 . S
O11 C4 1.240 . S
O12 In0 2.326 . S
O12 C4 1.252 . S
In13 O14 2.294 . S
In13 O15 2.326 . S
In13 O19 2.266 . S
In13 O20 2.326 . S
In13 O21 2.266 . S
In13 O22 2.326 . S
In13 O24 2.294 . S
In13 O25 2.326 . S
O14 In13 2.294 . S
O14 C23 1.240 . S
O15 In13 2.326 . S
O15 C23 1.252 . S
C16 O19 1.252 . S
C16 O20 1.260 . S
C17 O24 1.240 . S
C17 O25 1.252 . S
C18 O21 1.252 . S
C18 O22 1.260 . S
O19 In13 2.266 . S
O19 C16 1.252 . S
O20 In13 2.326 . S
O20 C16 1.260 . S
O21 In13 2.266 . S
O21 C18 1.252 . S
O22 In13 2.326 . S
O22 C18 1.260 . S
C23 O14 1.240 . S
C23 O15 1.252 . S
O24 In13 2.294 . S
O24 C17 1.240 . S
O25 In13 2.326 . S
O25 C17 1.252 . S
In26 O27 2.294 . S
In26 O28 2.326 . S
In26 O32 2.266 . S
In26 O33 2.326 . S
In26 O34 2.266 . S
In26 O35 2.326 . S
In26 O37 2.294 . S
In26 O38 2.326 . S
O27 In26 2.294 . S
O27 C36 1.240 . S
O28 In26 2.326 . S
O28 C36 1.252 . S
C29 O32 1.252 . S
C29 O33 1.260 . S
C30 O37 1.240 . S
C30 O38 1.252 . S
C31 O34 1.252 . S
C31 O35 1.260 . S
O32 In26 2.266 . S
O32 C29 1.252 . S
O33 In26 2.326 . S
O33 C29 1.260 . S
O34 In26 2.266 . S
O34 C31 1.252 . S
O35 In26 2.326 . S
O35 C31 1.260 . S
C36 O27 1.240 . S
C36 O28 1.252 . S
O37 In26 2.294 . S
O37 C30 1.240 . S
O38 In26 2.326 . S
O38 C30 1.252 . S
In39 O40 2.294 . S
In39 O41 2.326 . S
In39 O45 2.266 . S
In39 O46 2.326 . S
In39 O47 2.266 . S
In39 O48 2.326 . S
In39 O50 2.294 . S
In39 O51 2.326 . S
O40 In39 2.294 . S
O40 C49 1.240 . S
O41 In39 2.326 . S
O41 C49 1.252 . S
C42 O45 1.252 . S
C42 O46 1.260 . S
C43 O50 1.240 . S
C43 O51 1.252 . S
C44 O47 1.252 . S
C44 O48 1.260 . S
O45 In39 2.266 . S
O45 C42 1.252 . S
O46 In39 2.326 . S
O46 C42 1.260 . S
O47 In39 2.266 . S
O47 C44 1.252 . S
O48 In39 2.326 . S
O48 C44 1.260 . S
C49 O40 1.240 . S
C49 O41 1.252 . S
O50 In39 2.294 . S
O50 C43 1.240 . S
O51 In39 2.326 . S
O51 C43 1.252 . S
In52 O53 2.294 . S
In52 O54 2.326 . S
In52 O58 2.266 . S
In52 O59 2.326 . S
In52 O60 2.266 . S
In52 O61 2.326 . S
In52 O63 2.294 . S
In52 O64 2.326 . S
O53 In52 2.294 . S
O53 C62 1.240 . S
O54 In52 2.326 . S
O54 C62 1.252 . S
C55 O58 1.252 . S
C55 O59 1.260 . S
C56 O63 1.240 . S
C56 O64 1.252 . S
C57 O60 1.252 . S
C57 O61 1.260 . S
O58 In52 2.266 . S
O58 C55 1.252 . S
O59 In52 2.326 . S
O59 C55 1.260 . S
O60 In52 2.266 . S
O60 C57 1.252 . S
O61 In52 2.326 . S
O61 C57 1.260 . S
C62 O53 1.240 . S
C62 O54 1.252 . S
O63 In52 2.294 . S
O63 C56 1.240 . S
O64 In52 2.326 . S
O64 C56 1.252 . S
In65 O66 2.294 . S
In65 O67 2.326 . S
In65 O71 2.266 . S
In65 O72 2.326 . S
In65 O73 2.266 . S
In65 O74 2.326 . S
In65 O76 2.294 . S
In65 O77 2.326 . S
O66 In65 2.294 . S
O66 C75 1.240 . S
O67 In65 2.326 . S
O67 C75 1.252 . S
C68 O71 1.252 . S
C68 O72 1.260 . S
C69 O76 1.240 . S
C69 O77 1.252 . S
C70 O73 1.252 . S
C70 O74 1.260 . S
O71 In65 2.266 . S
O71 C68 1.252 . S
O72 In65 2.326 . S
O72 C68 1.260 . S
O73 In65 2.266 . S
O73 C70 1.252 . S
O74 In65 2.326 . S
O74 C70 1.260 . S
C75 O66 1.240 . S
C75 O67 1.252 . S
O76 In65 2.294 . S
O76 C69 1.240 . S
O77 In65 2.326 . S
O77 C69 1.252 . S
In78 O79 2.294 . S
In78 O80 2.326 . S
In78 O84 2.266 . S
In78 O85 2.326 . S
In78 O86 2.266 . S
In78 O87 2.326 . S
In78 O89 2.294 . S
In78 O90 2.326 . S
O79 In78 2.294 . S
O79 C88 1.240 . S
O80 In78 2.326 . S
O80 C88 1.252 . S
C81 O84 1.252 . S
C81 O85 1.260 . S
C82 O89 1.240 . S
C82 O90 1.252 . S
C83 O86 1.252 . S
C83 O87 1.260 . S
O84 In78 2.266 . S
O84 C81 1.252 . S
O85 In78 2.326 . S
O85 C81 1.260 . S
O86 In78 2.266 . S
O86 C83 1.252 . S
O87 In78 2.326 . S
O87 C83 1.260 . S
C88 O79 1.240 . S
C88 O80 1.252 . S
O89 In78 2.294 . S
O89 C82 1.240 . S
O90 In78 2.326 . S
O90 C82 1.252 . S
In91 O92 2.294 . S
In91 O93 2.326 . S
In91 O97 2.266 . S
In91 O98 2.326 . S
In91 O99 2.266 . S
In91 O100 2.326 . S
In91 O102 2.294 . S
In91 O103 2.326 . S
O92 In91 2.294 . S
O92 C101 1.240 . S
O93 In91 2.326 . S
O93 C101 1.252 . S
C94 O97 1.252 . S
C94 O98 1.260 . S
C95 O102 1.240 . S
C95 O103 1.252 . S
C96 O99 1.252 . S
C96 O100 1.260 . S
O97 In91 2.266 . S
O97 C94 1.252 . S
O98 In91 2.326 . S
O98 C94 1.260 . S
O99 In91 2.266 . S
O99 C96 1.252 . S
O100 In91 2.326 . S
O100 C96 1.260 . S
C101 O92 1.240 . S
C101 O93 1.252 . S
O102 In91 2.294 . S
O102 C95 1.240 . S
O103 In91 2.326 . S
O103 C95 1.252 . S
In104 O105 2.294 . S
In104 O106 2.326 . S
In104 O110 2.266 . S
In104 O111 2.326 . S
In104 O112 2.266 . S
In104 O113 2.326 . S
In104 O115 2.294 . S
In104 O116 2.326 . S
O105 In104 2.294 . S
O105 C114 1.240 . S
O106 In104 2.326 . S
O106 C114 1.252 . S
C107 O110 1.252 . S
C107 O111 1.260 . S
C108 O115 1.240 . S
C108 O116 1.252 . S
C109 O112 1.252 . S
C109 O113 1.260 . S
O110 In104 2.266 . S
O110 C107 1.252 . S
O111 In104 2.326 . S
O111 C107 1.260 . S
O112 In104 2.266 . S
O112 C109 1.252 . S
O113 In104 2.326 . S
O113 C109 1.260 . S
C114 O105 1.240 . S
C114 O106 1.252 . S
O115 In104 2.294 . S
O115 C108 1.240 . S
O116 In104 2.326 . S
O116 C108 1.252 . S
In117 O118 2.294 . S
In117 O119 2.326 . S
In117 O123 2.266 . S
In117 O124 2.326 . S
In117 O125 2.266 . S
In117 O126 2.326 . S
In117 O128 2.294 . S
In117 O129 2.326 . S
O118 In117 2.294 . S
O118 C127 1.240 . S
O119 In117 2.326 . S
O119 C127 1.252 . S
C120 O123 1.252 . S
C120 O124 1.260 . S
C121 O128 1.240 . S
C121 O129 1.252 . S
C122 O125 1.252 . S
C122 O126 1.260 . S
O123 In117 2.266 . S
O123 C120 1.252 . S
O124 In117 2.326 . S
O124 C120 1.260 . S
O125 In117 2.266 . S
O125 C122 1.252 . S
O126 In117 2.326 . S
O126 C122 1.260 . S
C127 O118 1.240 . S
C127 O119 1.252 . S
O128 In117 2.294 . S
O128 C121 1.240 . S
O129 In117 2.326 . S
O129 C121 1.252 . S
In130 O131 2.294 . S
In130 O132 2.326 . S
In130 O136 2.266 . S
In130 O137 2.326 . S
In130 O138 2.266 . S
In130 O139 2.326 . S
In130 O141 2.294 . S
In130 O142 2.326 . S
O131 In130 2.294 . S
O131 C140 1.240 . S
O132 In130 2.326 . S
O132 C140 1.252 . S
C133 O136 1.252 . S
C133 O137 1.260 . S
C134 O141 1.240 . S
C134 O142 1.252 . S
C135 O138 1.252 . S
C135 O139 1.260 . S
O136 In130 2.266 . S
O136 C133 1.252 . S
O137 In130 2.326 . S
O137 C133 1.260 . S
O138 In130 2.266 . S
O138 C135 1.252 . S
O139 In130 2.326 . S
O139 C135 1.260 . S
C140 O131 1.240 . S
C140 O132 1.252 . S
O141 In130 2.294 . S
O141 C134 1.240 . S
O142 In130 2.326 . S
O142 C134 1.252 . S
In143 O144 2.294 . S
In143 O145 2.326 . S
In143 O149 2.266 . S
In143 O150 2.326 . S
In143 O151 2.266 . S
In143 O152 2.326 . S
In143 O154 2.294 . S
In143 O155 2.326 . S
O144 In143 2.294 . S
O144 C153 1.240 . S
O145 In143 2.326 . S
O145 C153 1.252 . S
C146 O149 1.252 . S
C146 O150 1.260 . S
C147 O154 1.240 . S
C147 O155 1.252 . S
C148 O151 1.252 . S
C148 O152 1.260 . S
O149 In143 2.266 . S
O149 C146 1.252 . S
O150 In143 2.326 . S
O150 C146 1.260 . S
O151 In143 2.266 . S
O151 C148 1.252 . S
O152 In143 2.326 . S
O152 C148 1.260 . S
C153 O144 1.240 . S
C153 O145 1.252 . S
O154 In143 2.294 . S
O154 C147 1.240 . S
O155 In143 2.326 . S
O155 C147 1.252 . S
In156 O157 2.294 . S
In156 O158 2.326 . S
In156 O162 2.266 . S
In156 O163 2.326 . S
In156 O164 2.266 . S
In156 O165 2.326 . S
In156 O167 2.294 . S
In156 O168 2.326 . S
O157 In156 2.294 . S
O157 C166 1.240 . S
O158 In156 2.326 . S
O158 C166 1.252 . S
C159 O162 1.252 . S
C159 O163 1.260 . S
C160 O167 1.240 . S
C160 O168 1.252 . S
C161 O164 1.252 . S
C161 O165 1.260 . S
O162 In156 2.266 . S
O162 C159 1.252 . S
O163 In156 2.326 . S
O163 C159 1.260 . S
O164 In156 2.266 . S
O164 C161 1.252 . S
O165 In156 2.326 . S
O165 C161 1.260 . S
C166 O157 1.240 . S
C166 O158 1.252 . S
O167 In156 2.294 . S
O167 C160 1.240 . S
O168 In156 2.326 . S
O168 C160 1.252 . S
In169 O170 2.294 . S
In169 O171 2.326 . S
In169 O175 2.266 . S
In169 O176 2.326 . S
In169 O177 2.266 . S
In169 O178 2.326 . S
In169 O180 2.294 . S
In169 O181 2.326 . S
O170 In169 2.294 . S
O170 C179 1.240 . S
O171 In169 2.326 . S
O171 C179 1.252 . S
C172 O175 1.252 . S
C172 O176 1.260 . S
C173 O180 1.240 . S
C173 O181 1.252 . S
C174 O177 1.252 . S
C174 O178 1.260 . S
O175 In169 2.266 . S
O175 C172 1.252 . S
O176 In169 2.326 . S
O176 C172 1.260 . S
O177 In169 2.266 . S
O177 C174 1.252 . S
O178 In169 2.326 . S
O178 C174 1.260 . S
C179 O170 1.240 . S
C179 O171 1.252 . S
O180 In169 2.294 . S
O180 C173 1.240 . S
O181 In169 2.326 . S
O181 C173 1.252 . S
In182 O183 2.294 . S
In182 O184 2.326 . S
In182 O188 2.266 . S
In182 O189 2.326 . S
In182 O190 2.266 . S
In182 O191 2.326 . S
In182 O193 2.294 . S
In182 O194 2.326 . S
O183 In182 2.294 . S
O183 C192 1.240 . S
O184 In182 2.326 . S
O184 C192 1.252 . S
C185 O188 1.252 . S
C185 O189 1.260 . S
C186 O193 1.240 . S
C186 O194 1.252 . S
C187 O190 1.252 . S
C187 O191 1.260 . S
O188 In182 2.266 . S
O188 C185 1.252 . S
O189 In182 2.326 . S
O189 C185 1.260 . S
O190 In182 2.266 . S
O190 C187 1.252 . S
O191 In182 2.326 . S
O191 C187 1.260 . S
C192 O183 1.240 . S
C192 O184 1.252 . S
O193 In182 2.294 . S
O193 C186 1.240 . S
O194 In182 2.326 . S
O194 C186 1.252 . S
In195 O196 2.294 . S
In195 O197 2.326 . S
In195 O201 2.266 . S
In195 O202 2.326 . S
In195 O203 2.266 . S
In195 O204 2.326 . S
In195 O206 2.294 . S
In195 O207 2.326 . S
O196 In195 2.294 . S
O196 C205 1.240 . S
O197 In195 2.326 . S
O197 C205 1.252 . S
C198 O201 1.252 . S
C198 O202 1.260 . S
C199 O206 1.240 . S
C199 O207 1.252 . S
C200 O203 1.252 . S
C200 O204 1.260 . S
O201 In195 2.266 . S
O201 C198 1.252 . S
O202 In195 2.326 . S
O202 C198 1.260 . S
O203 In195 2.266 . S
O203 C200 1.252 . S
O204 In195 2.326 . S
O204 C200 1.260 . S
C205 O196 1.240 . S
C205 O197 1.252 . S
O206 In195 2.294 . S
O206 C199 1.240 . S
O207 In195 2.326 . S
O207 C199 1.252 . S
C208 C209 1.391 . S
C208 C210 1.394 . S
C208 H224 0.931 . S
C209 C208 1.391 . S
C209 C213 1.376 . S
C210 C208 1.394 . S
C210 C211 1.369 . S
C210 C214 1.531 1_556 S
C211 C210 1.369 . S
C211 C212 1.410 . S
C211 C219 1.503 1_556 S
C212 C211 1.410 . S
C212 C213 1.392 . S
C212 C215 1.511 . S
C213 C209 1.376 . S
C213 C212 1.392 . S
C213 H225 0.929 . S
C214 C210 1.531 1_554 S
C214 H226 0.960 . S
C214 H227 0.962 . S
C214 H228 0.960 . S
C215 C212 1.511 . S
C215 H229 0.961 . S
C215 H230 0.961 . S
C215 H231 0.961 . S
C216 C217 1.370 . S
C216 C218 1.363 . S
C216 H232 0.931 . S
C217 C216 1.370 . S
C217 C221 1.408 . S
C218 C216 1.363 . S
C218 C219 1.370 . S
C218 C222 1.524 . S
C219 C211 1.503 1_554 S
C219 C218 1.370 . S
C219 C220 1.403 . S
C220 C219 1.403 . S
C220 C221 1.404 . S
C220 C223 1.539 . S
C221 C217 1.408 . S
C221 C220 1.404 . S
C221 H233 0.930 . S
C222 C218 1.524 . S
C222 H234 0.956 . S
C222 H235 0.961 1_554 S
C222 H236 0.961 . S
C223 C220 1.539 . S
C223 H237 0.958 . S
C223 H238 0.961 . S
C223 H239 0.960 1_554 S
H224 C208 0.931 . S
H225 C213 0.929 . S
H226 C214 0.960 . S
H227 C214 0.962 . S
H228 C214 0.960 . S
H229 C215 0.961 . S
H230 C215 0.961 . S
H231 C215 0.961 . S
H232 C216 0.931 . S
H233 C221 0.930 . S
H234 C222 0.956 . S
H235 C222 0.961 1_556 S
H236 C222 0.961 . S
H237 C223 0.958 . S
H238 C223 0.961 . S
H239 C223 0.960 1_556 S
C240 C241 1.391 . S
C240 C242 1.394 . S
C240 H256 0.931 . S
C241 C240 1.391 . S
C241 C245 1.376 . S
C242 C240 1.394 . S
C242 C243 1.369 . S
C242 C246 1.531 . S
C243 C242 1.369 . S
C243 C244 1.410 . S
C243 C251 1.503 . S
C244 C243 1.410 . S
C244 C245 1.392 . S
C244 C247 1.511 . S
C245 C241 1.376 . S
C245 C244 1.392 . S
C245 H257 0.929 . S
C246 C242 1.531 . S
C246 H258 0.960 . S
C246 H259 0.962 . S
C246 H260 0.960 . S
C247 C244 1.511 . S
C247 H261 0.961 . S
C247 H262 0.961 . S
C247 H263 0.961 . S
C248 C249 1.370 . S
C248 C250 1.363 . S
C248 H264 0.931 . S
C249 C248 1.370 . S
C249 C253 1.408 . S
C250 C248 1.363 . S
C250 C251 1.370 . S
C250 C254 1.524 . S
C251 C243 1.503 . S
C251 C250 1.370 . S
C251 C252 1.403 . S
C252 C251 1.403 . S
C252 C253 1.404 . S
C252 C255 1.539 . S
C253 C249 1.408 . S
C253 C252 1.404 . S
C253 H265 0.930 . S
C254 C250 1.524 . S
C254 H266 0.956 . S
C254 H267 0.961 . S
C254 H268 0.961 . S
C255 C252 1.539 . S
C255 H269 0.958 . S
C255 H270 0.961 . S
C255 H271 0.960 . S
H256 C240 0.931 . S
H257 C245 0.929 . S
H258 C246 0.960 . S
H259 C246 0.962 . S
H260 C246 0.960 . S
H261 C247 0.961 . S
H262 C247 0.961 . S
H263 C247 0.961 . S
H264 C248 0.931 . S
H265 C253 0.930 . S
H266 C254 0.956 . S
H267 C254 0.961 . S
H268 C254 0.961 . S
H269 C255 0.958 . S
H270 C255 0.961 . S
H271 C255 0.960 . S
C272 C273 1.391 . S
C272 C274 1.394 . S
C272 H288 0.931 . S
C273 C272 1.391 . S
C273 C277 1.376 . S
C274 C272 1.394 . S
C274 C275 1.369 . S
C274 C278 1.531 1_556 S
C275 C274 1.369 . S
C275 C276 1.410 . S
C275 C283 1.503 1_556 S
C276 C275 1.410 . S
C276 C277 1.392 . S
C276 C279 1.511 . S
C277 C273 1.376 . S
C277 C276 1.392 . S
C277 H289 0.929 . S
C278 C274 1.531 1_554 S
C278 H290 0.960 . S
C278 H291 0.962 . S
C278 H292 0.960 . S
C279 C276 1.511 . S
C279 H293 0.961 . S
C279 H294 0.961 . S
C279 H295 0.961 . S
C280 C281 1.370 . S
C280 C282 1.363 . S
C280 H296 0.931 . S
C281 C280 1.370 . S
C281 C285 1.408 . S
C282 C280 1.363 . S
C282 C283 1.370 . S
C282 C286 1.524 . S
C283 C275 1.503 1_554 S
C283 C282 1.370 . S
C283 C284 1.403 . S
C284 C283 1.403 . S
C284 C285 1.404 . S
C284 C287 1.539 . S
C285 C281 1.408 . S
C285 C284 1.404 . S
C285 H297 0.930 . S
C286 C282 1.524 . S
C286 H298 0.956 . S
C286 H299 0.961 1_554 S
C286 H300 0.961 . S
C287 C284 1.539 . S
C287 H301 0.958 . S
C287 H302 0.961 . S
C287 H303 0.960 . S
H288 C272 0.931 . S
H289 C277 0.929 . S
H290 C278 0.960 . S
H291 C278 0.962 . S
H292 C278 0.960 . S
H293 C279 0.961 . S
H294 C279 0.961 . S
H295 C279 0.961 . S
H296 C280 0.931 . S
H297 C285 0.930 . S
H298 C286 0.956 . S
H299 C286 0.961 1_556 S
H300 C286 0.961 . S
H301 C287 0.958 . S
H302 C287 0.961 . S
H303 C287 0.960 . S
C304 C305 1.391 . S
C304 C306 1.394 . S
C304 H320 0.931 . S
C305 C304 1.391 . S
C305 C309 1.376 . S
C306 C304 1.394 . S
C306 C307 1.369 . S
C306 C310 1.531 . S
C307 C306 1.369 . S
C307 C308 1.410 . S
C307 C315 1.503 . S
C308 C307 1.410 . S
C308 C309 1.392 . S
C308 C311 1.511 . S
C309 C305 1.376 . S
C309 C308 1.392 . S
C309 H321 0.929 . S
C310 C306 1.531 . S
C310 H322 0.960 . S
C310 H323 0.962 . S
C310 H324 0.960 . S
C311 C308 1.511 . S
C311 H325 0.961 . S
C311 H326 0.961 . S
C311 H327 0.961 . S
C312 C313 1.370 . S
C312 C314 1.363 . S
C312 H328 0.931 . S
C313 C312 1.370 . S
C313 C317 1.408 . S
C314 C312 1.363 . S
C314 C315 1.370 . S
C314 C318 1.524 . S
C315 C307 1.503 . S
C315 C314 1.370 . S
C315 C316 1.403 . S
C316 C315 1.403 . S
C316 C317 1.404 . S
C316 C319 1.539 . S
C317 C313 1.408 . S
C317 C316 1.404 . S
C317 H329 0.930 . S
C318 C314 1.524 . S
C318 H330 0.956 . S
C318 H331 0.961 . S
C318 H332 0.961 . S
C319 C316 1.539 . S
C319 H333 0.958 . S
C319 H334 0.961 . S
C319 H335 0.960 . S
H320 C304 0.931 . S
H321 C309 0.929 . S
H322 C310 0.960 . S
H323 C310 0.962 . S
H324 C310 0.960 . S
H325 C311 0.961 . S
H326 C311 0.961 . S
H327 C311 0.961 . S
H328 C312 0.931 . S
H329 C317 0.930 . S
H330 C318 0.956 . S
H331 C318 0.961 . S
H332 C318 0.961 . S
H333 C319 0.958 . S
H334 C319 0.961 . S
H335 C319 0.960 . S
C336 C337 1.391 . S
C336 C338 1.394 . S
C336 H352 0.931 . S
C337 C336 1.391 . S
C337 C341 1.376 . S
C338 C336 1.394 . S
C338 C339 1.369 . S
C338 C342 1.531 . S
C339 C338 1.369 . S
C339 C340 1.410 . S
C339 C347 1.503 1_554 S
C340 C339 1.410 . S
C340 C341 1.392 . S
C340 C343 1.511 1_554 S
C341 C337 1.376 . S
C341 C340 1.392 . S
C341 H353 0.929 . S
C342 C338 1.531 . S
C342 H354 0.960 . S
C342 H355 0.962 . S
C342 H356 0.960 . S
C343 C340 1.511 1_556 S
C343 H357 0.949 1_556 S
C343 H358 0.961 . S
C343 H359 0.961 . S
C344 C345 1.370 . S
C344 C346 1.363 . S
C344 H360 0.931 . S
C345 C344 1.370 . S
C345 C349 1.408 . S
C346 C344 1.363 . S
C346 C347 1.370 . S
C346 C350 1.524 1_556 S
C347 C339 1.503 1_556 S
C347 C346 1.370 . S
C347 C348 1.403 . S
C348 C347 1.403 . S
C348 C349 1.404 . S
C348 C351 1.539 . S
C349 C345 1.408 . S
C349 C348 1.404 . S
C349 H361 0.930 . S
C350 C346 1.524 1_554 S
C350 H362 0.956 . S
C350 H363 0.961 . S
C350 H364 0.961 1_554 S
C351 C348 1.539 . S
C351 H365 0.958 . S
C351 H366 0.961 . S
C351 H367 0.960 . S
H352 C336 0.931 . S
H353 C341 0.929 . S
H354 C342 0.960 . S
H355 C342 0.962 . S
H356 C342 0.960 . S
H357 C343 0.949 1_554 S
H358 C343 0.961 . S
H359 C343 0.961 . S
H360 C344 0.931 . S
H361 C349 0.930 . S
H362 C350 0.956 . S
H363 C350 0.961 . S
H364 C350 0.961 1_556 S
H365 C351 0.958 . S
H366 C351 0.961 . S
H367 C351 0.960 . S
C368 C369 1.391 . S
C368 C370 1.394 . S
C368 H384 0.931 . S
C369 C368 1.391 . S
C369 C373 1.376 . S
C370 C368 1.394 . S
C370 C371 1.369 . S
C370 C374 1.531 . S
C371 C370 1.369 . S
C371 C372 1.410 . S
C371 C379 1.503 . S
C372 C371 1.410 . S
C372 C373 1.392 . S
C372 C375 1.511 . S
C373 C369 1.376 . S
C373 C372 1.392 . S
C373 H385 0.929 . S
C374 C370 1.531 . S
C374 H386 0.960 . S
C374 H387 0.962 . S
C374 H388 0.960 . S
C375 C372 1.511 . S
C375 H389 0.961 . S
C375 H390 0.961 . S
C375 H391 0.961 . S
C376 C377 1.370 . S
C376 C378 1.363 . S
C376 H392 0.931 . S
C377 C376 1.370 . S
C377 C381 1.408 . S
C378 C376 1.363 . S
C378 C379 1.370 . S
C378 C382 1.524 . S
C379 C371 1.503 . S
C379 C378 1.370 . S
C379 C380 1.403 . S
C380 C379 1.403 . S
C380 C381 1.404 . S
C380 C383 1.539 . S
C381 C377 1.408 . S
C381 C380 1.404 . S
C381 H393 0.930 . S
C382 C378 1.524 . S
C382 H394 0.956 . S
C382 H395 0.961 . S
C382 H396 0.961 . S
C383 C380 1.539 . S
C383 H397 0.958 . S
C383 H398 0.961 . S
C383 H399 0.960 . S
H384 C368 0.931 . S
H385 C373 0.929 . S
H386 C374 0.960 . S
H387 C374 0.962 . S
H388 C374 0.960 . S
H389 C375 0.961 . S
H390 C375 0.961 . S
H391 C375 0.961 . S
H392 C376 0.931 . S
H393 C381 0.930 . S
H394 C382 0.956 . S
H395 C382 0.961 . S
H396 C382 0.961 . S
H397 C383 0.958 . S
H398 C383 0.961 . S
H399 C383 0.960 . S
C400 C401 1.391 . S
C400 C402 1.394 . S
C400 H416 0.931 . S
C401 C400 1.391 . S
C401 C405 1.376 . S
C402 C400 1.394 . S
C402 C403 1.369 . S
C402 C406 1.531 1_556 S
C403 C402 1.369 . S
C403 C404 1.410 . S
C403 C411 1.503 1_556 S
C404 C403 1.410 . S
C404 C405 1.392 . S
C404 C407 1.511 . S
C405 C401 1.376 . S
C405 C404 1.392 . S
C405 H417 0.929 . S
C406 C402 1.531 1_554 S
C406 H418 0.960 . S
C406 H419 0.962 . S
C406 H420 0.960 1_554 S
C407 C404 1.511 . S
C407 H421 0.961 . S
C407 H422 0.961 . S
C407 H423 0.961 . S
C408 C409 1.370 . S
C408 C410 1.363 . S
C408 H424 0.931 . S
C409 C408 1.370 . S
C409 C413 1.408 . S
C410 C408 1.363 . S
C410 C411 1.370 . S
C410 C414 1.524 . S
C411 C403 1.503 1_554 S
C411 C410 1.370 . S
C411 C412 1.403 . S
C412 C411 1.403 . S
C412 C413 1.404 . S
C412 C415 1.539 . S
C413 C409 1.408 . S
C413 C412 1.404 . S
C413 H425 0.930 . S
C414 C410 1.524 . S
C414 H426 0.956 . S
C414 H427 0.961 . S
C414 H428 0.961 . S
C415 C412 1.539 . S
C415 H429 0.958 . S
C415 H430 0.961 . S
C415 H431 0.960 1_554 S
H416 C400 0.931 . S
H417 C405 0.929 . S
H418 C406 0.960 . S
H419 C406 0.962 . S
H420 C406 0.960 1_556 S
H421 C407 0.961 . S
H422 C407 0.961 . S
H423 C407 0.961 . S
H424 C408 0.931 . S
H425 C413 0.930 . S
H426 C414 0.956 . S
H427 C414 0.961 . S
H428 C414 0.961 . S
H429 C415 0.958 . S
H430 C415 0.961 . S
H431 C415 0.960 1_556 S
C432 C433 1.391 . S
C432 C434 1.394 . S
C432 H448 0.931 . S
C433 C432 1.391 . S
C433 C437 1.376 . S
C434 C432 1.394 . S
C434 C435 1.369 . S
C434 C438 1.531 . S
C435 C434 1.369 . S
C435 C436 1.410 . S
C435 C443 1.503 . S
C436 C435 1.410 . S
C436 C437 1.392 . S
C436 C439 1.511 . S
C437 C433 1.376 . S
C437 C436 1.392 . S
C437 H449 0.929 . S
C438 C434 1.531 . S
C438 H450 0.960 . S
C438 H451 0.962 . S
C438 H452 0.960 . S
C439 C436 1.511 . S
C439 H453 0.961 . S
C439 H454 0.961 . S
C439 H455 0.961 . S
C440 C441 1.370 . S
C440 C442 1.363 . S
C440 H456 0.931 . S
C441 C440 1.370 . S
C441 C445 1.408 . S
C442 C440 1.363 . S
C442 C443 1.370 . S
C442 C446 1.524 . S
C443 C435 1.503 . S
C443 C442 1.370 . S
C443 C444 1.403 . S
C444 C443 1.403 . S
C444 C445 1.404 . S
C444 C447 1.539 . S
C445 C441 1.408 . S
C445 C444 1.404 . S
C445 H457 0.930 . S
C446 C442 1.524 . S
C446 H458 0.956 . S
C446 H459 0.961 . S
C446 H460 0.961 . S
C447 C444 1.539 . S
C447 H461 0.958 . S
C447 H462 0.961 . S
C447 H463 0.960 . S
H448 C432 0.931 . S
H449 C437 0.929 . S
H450 C438 0.960 . S
H451 C438 0.962 . S
H452 C438 0.960 . S
H453 C439 0.961 . S
H454 C439 0.961 . S
H455 C439 0.961 . S
H456 C440 0.931 . S
H457 C445 0.930 . S
H458 C446 0.956 . S
H459 C446 0.961 . S
H460 C446 0.961 . S
H461 C447 0.958 . S
H462 C447 0.961 . S
H463 C447 0.960 . S
C464 C465 1.391 . S
C464 C466 1.394 . S
C464 H480 0.931 . S
C465 C464 1.391 . S
C465 C469 1.376 . S
C466 C464 1.394 . S
C466 C467 1.369 . S
C466 C470 1.531 . S
C467 C466 1.369 . S
C467 C468 1.410 . S
C467 C475 1.503 . S
C468 C467 1.410 . S
C468 C469 1.392 . S
C468 C471 1.511 . S
C469 C465 1.376 . S
C469 C468 1.392 . S
C469 H481 0.929 . S
C470 C466 1.531 . S
C470 H482 0.960 . S
C470 H483 0.962 . S
C470 H484 0.960 . S
C471 C468 1.511 . S
C471 H485 0.961 . S
C471 H486 0.961 . S
C471 H487 0.961 . S
C472 C473 1.370 . S
C472 C474 1.363 . S
C472 H488 0.931 . S
C473 C472 1.370 . S
C473 C477 1.408 . S
C474 C472 1.363 . S
C474 C475 1.370 . S
C474 C478 1.524 . S
C475 C467 1.503 . S
C475 C474 1.370 . S
C475 C476 1.403 . S
C476 C475 1.403 . S
C476 C477 1.404 . S
C476 C479 1.539 . S
C477 C473 1.408 . S
C477 C476 1.404 . S
C477 H489 0.930 . S
C478 C474 1.524 . S
C478 H490 0.956 . S
C478 H491 0.961 . S
C478 H492 0.961 . S
C479 C476 1.539 . S
C479 H493 0.958 . S
C479 H494 0.961 . S
C479 H495 0.960 . S
H480 C464 0.931 . S
H481 C469 0.929 . S
H482 C470 0.960 . S
H483 C470 0.962 . S
H484 C470 0.960 . S
H485 C471 0.961 . S
H486 C471 0.961 . S
H487 C471 0.961 . S
H488 C472 0.931 . S
H489 C477 0.930 . S
H490 C478 0.956 . S
H491 C478 0.961 . S
H492 C478 0.961 . S
H493 C479 0.958 . S
H494 C479 0.961 . S
H495 C479 0.960 . S
C496 C497 1.391 . S
C496 C498 1.394 . S
C496 H512 0.931 . S
C497 C496 1.391 . S
C497 C501 1.376 . S
C498 C496 1.394 . S
C498 C499 1.369 . S
C498 C502 1.531 . S
C499 C498 1.369 . S
C499 C500 1.410 . S
C499 C507 1.503 . S
C500 C499 1.410 . S
C500 C501 1.392 . S
C500 C503 1.511 . S
C501 C497 1.376 . S
C501 C500 1.392 . S
C501 H513 0.929 . S
C502 C498 1.531 . S
C502 H514 0.960 . S
C502 H515 0.962 . S
C502 H516 0.960 . S
C503 C500 1.511 . S
C503 H517 0.961 . S
C503 H518 0.961 . S
C503 H519 0.961 . S
C504 C505 1.370 . S
C504 C506 1.363 . S
C504 H520 0.931 . S
C505 C504 1.370 . S
C505 C509 1.408 . S
C506 C504 1.363 . S
C506 C507 1.370 . S
C506 C510 1.524 . S
C507 C499 1.503 . S
C507 C506 1.370 . S
C507 C508 1.403 . S
C508 C507 1.403 . S
C508 C509 1.404 . S
C508 C511 1.539 . S
C509 C505 1.408 . S
C509 C508 1.404 . S
C509 H521 0.930 . S
C510 C506 1.524 . S
C510 H522 0.956 . S
C510 H523 0.961 . S
C510 H524 0.961 . S
C511 C508 1.539 . S
C511 H525 0.958 . S
C511 H526 0.961 . S
C511 H527 0.960 . S
H512 C496 0.931 . S
H513 C501 0.929 . S
H514 C502 0.960 . S
H515 C502 0.962 . S
H516 C502 0.960 . S
H517 C503 0.961 . S
H518 C503 0.961 . S
H519 C503 0.961 . S
H520 C504 0.931 . S
H521 C509 0.930 . S
H522 C510 0.956 . S
H523 C510 0.961 . S
H524 C510 0.961 . S
H525 C511 0.958 . S
H526 C511 0.961 . S
H527 C511 0.960 . S
C528 C529 1.391 . S
C528 C530 1.394 . S
C528 H544 0.931 . S
C529 C528 1.391 . S
C529 C533 1.376 . S
C530 C528 1.394 . S
C530 C531 1.369 . S
C530 C534 1.531 . S
C531 C530 1.369 . S
C531 C532 1.410 . S
C531 C539 1.503 . S
C532 C531 1.410 . S
C532 C533 1.392 . S
C532 C535 1.511 . S
C533 C529 1.376 . S
C533 C532 1.392 . S
C533 H545 0.929 . S
C534 C530 1.531 . S
C534 H546 0.960 . S
C534 H547 0.962 . S
C534 H548 0.960 . S
C535 C532 1.511 . S
C535 H549 0.961 . S
C535 H550 0.961 . S
C535 H551 0.961 . S
C536 C537 1.370 . S
C536 C538 1.363 . S
C536 H552 0.931 . S
C537 C536 1.370 . S
C537 C541 1.408 . S
C538 C536 1.363 . S
C538 C539 1.370 . S
C538 C542 1.524 . S
C539 C531 1.503 . S
C539 C538 1.370 . S
C539 C540 1.403 . S
C540 C539 1.403 . S
C540 C541 1.404 . S
C540 C543 1.539 . S
C541 C537 1.408 . S
C541 C540 1.404 . S
C541 H553 0.930 . S
C542 C538 1.524 . S
C542 H554 0.956 . S
C542 H555 0.961 . S
C542 H556 0.961 . S
C543 C540 1.539 . S
C543 H557 0.958 . S
C543 H558 0.961 . S
C543 H559 0.960 . S
H544 C528 0.931 . S
H545 C533 0.929 . S
H546 C534 0.960 . S
H547 C534 0.962 . S
H548 C534 0.960 . S
H549 C535 0.961 . S
H550 C535 0.961 . S
H551 C535 0.961 . S
H552 C536 0.931 . S
H553 C541 0.930 . S
H554 C542 0.956 . S
H555 C542 0.961 . S
H556 C542 0.961 . S
H557 C543 0.958 . S
H558 C543 0.961 . S
H559 C543 0.960 . S
C560 C561 1.391 . S
C560 C562 1.394 . S
C560 H576 0.931 . S
C561 C560 1.391 . S
C561 C565 1.376 . S
C562 C560 1.394 . S
C562 C563 1.369 . S
C562 C566 1.531 . S
C563 C562 1.369 . S
C563 C564 1.410 . S
C563 C571 1.503 . S
C564 C563 1.410 . S
C564 C565 1.392 . S
C564 C567 1.511 . S
C565 C561 1.376 . S
C565 C564 1.392 . S
C565 H577 0.929 . S
C566 C562 1.531 . S
C566 H578 0.960 . S
C566 H579 0.962 . S
C566 H580 0.960 . S
C567 C564 1.511 . S
C567 H581 0.961 . S
C567 H582 0.961 . S
C567 H583 0.961 . S
C568 C569 1.370 . S
C568 C570 1.363 . S
C568 H584 0.931 . S
C569 C568 1.370 . S
C569 C573 1.408 . S
C570 C568 1.363 . S
C570 C571 1.370 . S
C570 C574 1.524 . S
C571 C563 1.503 . S
C571 C570 1.370 . S
C571 C572 1.403 . S
C572 C571 1.403 . S
C572 C573 1.404 . S
C572 C575 1.539 . S
C573 C569 1.408 . S
C573 C572 1.404 . S
C573 H585 0.930 . S
C574 C570 1.524 . S
C574 H586 0.956 . S
C574 H587 0.961 . S
C574 H588 0.961 . S
C575 C572 1.539 . S
C575 H589 0.958 . S
C575 H590 0.961 . S
C575 H591 0.960 . S
H576 C560 0.931 . S
H577 C565 0.929 . S
H578 C566 0.960 . S
H579 C566 0.962 . S
H580 C566 0.960 . S
H581 C567 0.961 . S
H582 C567 0.961 . S
H583 C567 0.961 . S
H584 C568 0.931 . S
H585 C573 0.930 . S
H586 C574 0.956 . S
H587 C574 0.961 . S
H588 C574 0.961 . S
H589 C575 0.958 . S
H590 C575 0.961 . S
H591 C575 0.960 . S
C592 C593 1.391 . S
C592 C594 1.394 . S
C592 H608 0.931 . S
C593 C592 1.391 . S
C593 C597 1.376 . S
C594 C592 1.394 . S
C594 C595 1.369 . S
C594 C598 1.531 . S
C595 C594 1.369 . S
C595 C596 1.410 . S
C595 C603 1.503 . S
C596 C595 1.410 . S
C596 C597 1.392 . S
C596 C599 1.511 . S
C597 C593 1.376 . S
C597 C596 1.392 . S
C597 H609 0.929 . S
C598 C594 1.531 . S
C598 H610 0.960 . S
C598 H611 0.962 . S
C598 H612 0.960 . S
C599 C596 1.511 . S
C599 H613 0.961 . S
C599 H614 0.961 . S
C599 H615 0.961 . S
C600 C601 1.370 . S
C600 C602 1.363 . S
C600 H616 0.931 . S
C601 C600 1.370 . S
C601 C605 1.408 . S
C602 C600 1.363 . S
C602 C603 1.370 . S
C602 C606 1.524 . S
C603 C595 1.503 . S
C603 C602 1.370 . S
C603 C604 1.403 . S
C604 C603 1.403 . S
C604 C605 1.404 . S
C604 C607 1.539 . S
C605 C601 1.408 . S
C605 C604 1.404 . S
C605 H617 0.930 . S
C606 C602 1.524 . S
C606 H618 0.956 . S
C606 H619 0.961 . S
C606 H620 0.961 . S
C607 C604 1.539 . S
C607 H621 0.958 . S
C607 H622 0.961 . S
C607 H623 0.960 . S
H608 C592 0.931 . S
H609 C597 0.929 . S
H610 C598 0.960 . S
H611 C598 0.962 . S
H612 C598 0.960 . S
H613 C599 0.961 . S
H614 C599 0.961 . S
H615 C599 0.961 . S
H616 C600 0.931 . S
H617 C605 0.930 . S
H618 C606 0.956 . S
H619 C606 0.961 . S
H620 C606 0.961 . S
H621 C607 0.958 . S
H622 C607 0.961 . S
H623 C607 0.960 . S
C624 C625 1.391 . S
C624 C626 1.394 . S
C624 H640 0.931 . S
C625 C624 1.391 . S
C625 C629 1.376 . S
C626 C624 1.394 . S
C626 C627 1.369 . S
C626 C630 1.531 . S
C627 C626 1.369 . S
C627 C628 1.410 . S
C627 C635 1.503 . S
C628 C627 1.410 . S
C628 C629 1.392 . S
C628 C631 1.511 . S
C629 C625 1.376 . S
C629 C628 1.392 . S
C629 H641 0.929 . S
C630 C626 1.531 . S
C630 H642 0.960 . S
C630 H643 0.962 . S
C630 H644 0.960 . S
C631 C628 1.511 . S
C631 H645 0.961 . S
C631 H646 0.961 . S
C631 H647 0.961 . S
C632 C633 1.370 . S
C632 C634 1.363 . S
C632 H648 0.931 . S
C633 C632 1.370 . S
C633 C637 1.408 . S
C634 C632 1.363 . S
C634 C635 1.370 . S
C634 C638 1.524 . S
C635 C627 1.503 . S
C635 C634 1.370 . S
C635 C636 1.403 . S
C636 C635 1.403 . S
C636 C637 1.404 . S
C636 C639 1.539 . S
C637 C633 1.408 . S
C637 C636 1.404 . S
C637 H649 0.930 . S
C638 C634 1.524 . S
C638 H650 0.956 . S
C638 H651 0.961 . S
C638 H652 0.961 . S
C639 C636 1.539 . S
C639 H653 0.958 . S
C639 H654 0.961 . S
C639 H655 0.960 . S
H640 C624 0.931 . S
H641 C629 0.929 . S
H642 C630 0.960 . S
H643 C630 0.962 . S
H644 C630 0.960 . S
H645 C631 0.961 . S
H646 C631 0.961 . S
H647 C631 0.961 . S
H648 C632 0.931 . S
H649 C637 0.930 . S
H650 C638 0.956 . S
H651 C638 0.961 . S
H652 C638 0.961 . S
H653 C639 0.958 . S
H654 C639 0.961 . S
H655 C639 0.960 . S
C656 C657 1.391 . S
C656 C658 1.394 . S
C656 H672 0.931 . S
C657 C656 1.391 . S
C657 C661 1.376 . S
C658 C656 1.394 . S
C658 C659 1.369 . S
C658 C662 1.531 . S
C659 C658 1.369 . S
C659 C660 1.410 . S
C659 C667 1.503 . S
C660 C659 1.410 . S
C660 C661 1.392 . S
C660 C663 1.511 . S
C661 C657 1.376 . S
C661 C660 1.392 . S
C661 H673 0.929 . S
C662 C658 1.531 . S
C662 H674 0.960 . S
C662 H675 0.962 . S
C662 H676 0.960 . S
C663 C660 1.511 . S
C663 H677 0.961 . S
C663 H678 0.961 . S
C663 H679 0.961 . S
C664 C665 1.370 . S
C664 C666 1.363 . S
C664 H680 0.931 . S
C665 C664 1.370 . S
C665 C669 1.408 . S
C666 C664 1.363 . S
C666 C667 1.370 . S
C666 C670 1.524 . S
C667 C659 1.503 . S
C667 C666 1.370 . S
C667 C668 1.403 . S
C668 C667 1.403 . S
C668 C669 1.404 . S
C668 C671 1.539 . S
C669 C665 1.408 . S
C669 C668 1.404 . S
C669 H681 0.930 . S
C670 C666 1.524 . S
C670 H682 0.956 . S
C670 H683 0.961 . S
C670 H684 0.961 . S
C671 C668 1.539 . S
C671 H685 0.958 . S
C671 H686 0.961 . S
C671 H687 0.960 . S
H672 C656 0.931 . S
H673 C661 0.929 . S
H674 C662 0.960 . S
H675 C662 0.962 . S
H676 C662 0.960 . S
H677 C663 0.961 . S
H678 C663 0.961 . S
H679 C663 0.961 . S
H680 C664 0.931 . S
H681 C669 0.930 . S
H682 C670 0.956 . S
H683 C670 0.961 . S
H684 C670 0.961 . S
H685 C671 0.958 . S
H686 C671 0.961 . S
H687 C671 0.960 . S
C688 C689 1.391 . S
C688 C690 1.394 . S
C688 H704 0.931 . S
C689 C688 1.391 . S
C689 C693 1.376 . S
C690 C688 1.394 . S
C690 C691 1.369 . S
C690 C694 1.531 . S
C691 C690 1.369 . S
C691 C692 1.410 . S
C691 C699 1.503 . S
C692 C691 1.410 . S
C692 C693 1.392 . S
C692 C695 1.511 . S
C693 C689 1.376 . S
C693 C692 1.392 . S
C693 H705 0.929 . S
C694 C690 1.531 . S
C694 H706 0.960 . S
C694 H707 0.962 . S
C694 H708 0.960 . S
C695 C692 1.511 . S
C695 H709 0.961 . S
C695 H710 0.961 . S
C695 H711 0.961 . S
C696 C697 1.370 . S
C696 C698 1.363 . S
C696 H712 0.931 . S
C697 C696 1.370 . S
C697 C701 1.408 . S
C698 C696 1.363 . S
C698 C699 1.370 . S
C698 C702 1.524 . S
C699 C691 1.503 . S
C699 C698 1.370 . S
C699 C700 1.403 . S
C700 C699 1.403 . S
C700 C701 1.404 . S
C700 C703 1.539 . S
C701 C697 1.408 . S
C701 C700 1.404 . S
C701 H713 0.930 . S
C702 C698 1.524 . S
C702 H714 0.956 . S
C702 H715 0.961 . S
C702 H716 0.961 . S
C703 C700 1.539 . S
C703 H717 0.958 . S
C703 H718 0.961 . S
C703 H719 0.960 . S
H704 C688 0.931 . S
H705 C693 0.929 . S
H706 C694 0.960 . S
H707 C694 0.962 . S
H708 C694 0.960 . S
H709 C695 0.961 . S
H710 C695 0.961 . S
H711 C695 0.961 . S
H712 C696 0.931 . S
H713 C701 0.930 . S
H714 C702 0.956 . S
H715 C702 0.961 . S
H716 C702 0.961 . S
H717 C703 0.958 . S
H718 C703 0.961 . S
H719 C703 0.960 . S
C720 C721 1.391 . S
C720 C722 1.394 . S
C720 H736 0.931 . S
C721 C720 1.391 . S
C721 C725 1.376 . S
C722 C720 1.394 . S
C722 C723 1.369 . S
C722 C726 1.531 . S
C723 C722 1.369 . S
C723 C724 1.410 . S
C723 C731 1.503 . S
C724 C723 1.410 . S
C724 C725 1.392 . S
C724 C727 1.511 . S
C725 C721 1.376 . S
C725 C724 1.392 . S
C725 H737 0.929 . S
C726 C722 1.531 . S
C726 H738 0.960 . S
C726 H739 0.962 . S
C726 H740 0.960 . S
C727 C724 1.511 . S
C727 H741 0.961 . S
C727 H742 0.961 . S
C727 H743 0.961 . S
C728 C729 1.370 . S
C728 C730 1.363 . S
C728 H744 0.931 . S
C729 C728 1.370 . S
C729 C733 1.408 . S
C730 C728 1.363 . S
C730 C731 1.370 . S
C730 C734 1.524 . S
C731 C723 1.503 . S
C731 C730 1.370 . S
C731 C732 1.403 . S
C732 C731 1.403 . S
C732 C733 1.404 . S
C732 C735 1.539 . S
C733 C729 1.408 . S
C733 C732 1.404 . S
C733 H745 0.930 . S
C734 C730 1.524 . S
C734 H746 0.956 . S
C734 H747 0.961 . S
C734 H748 0.961 . S
C735 C732 1.539 . S
C735 H749 0.958 . S
C735 H750 0.961 . S
C735 H751 0.960 . S
H736 C720 0.931 . S
H737 C725 0.929 . S
H738 C726 0.960 . S
H739 C726 0.962 . S
H740 C726 0.960 . S
H741 C727 0.961 . S
H742 C727 0.961 . S
H743 C727 0.961 . S
H744 C728 0.931 . S
H745 C733 0.930 . S
H746 C734 0.956 . S
H747 C734 0.961 . S
H748 C734 0.961 . S
H749 C735 0.958 . S
H750 C735 0.961 . S
H751 C735 0.960 . S
C752 C753 1.391 . S
C752 C754 1.394 . S
C752 H768 0.931 . S
C753 C752 1.391 . S
C753 C757 1.376 . S
C754 C752 1.394 . S
C754 C755 1.369 . S
C754 C758 1.531 . S
C755 C754 1.369 . S
C755 C756 1.410 . S
C755 C763 1.503 . S
C756 C755 1.410 . S
C756 C757 1.392 . S
C756 C759 1.511 . S
C757 C753 1.376 . S
C757 C756 1.392 . S
C757 H769 0.929 . S
C758 C754 1.531 . S
C758 H770 0.960 . S
C758 H771 0.962 . S
C758 H772 0.960 . S
C759 C756 1.511 . S
C759 H773 0.961 . S
C759 H774 0.961 . S
C759 H775 0.961 . S
C760 C761 1.370 . S
C760 C762 1.363 . S
C760 H776 0.931 . S
C761 C760 1.370 . S
C761 C765 1.408 . S
C762 C760 1.363 . S
C762 C763 1.370 . S
C762 C766 1.524 . S
C763 C755 1.503 . S
C763 C762 1.370 . S
C763 C764 1.403 . S
C764 C763 1.403 . S
C764 C765 1.404 . S
C764 C767 1.539 . S
C765 C761 1.408 . S
C765 C764 1.404 . S
C765 H777 0.930 . S
C766 C762 1.524 . S
C766 H778 0.956 . S
C766 H779 0.961 . S
C766 H780 0.961 . S
C767 C764 1.539 . S
C767 H781 0.958 . S
C767 H782 0.961 . S
C767 H783 0.960 . S
H768 C752 0.931 . S
H769 C757 0.929 . S
H770 C758 0.960 . S
H771 C758 0.962 . S
H772 C758 0.960 . S
H773 C759 0.961 . S
H774 C759 0.961 . S
H775 C759 0.961 . S
H776 C760 0.931 . S
H777 C765 0.930 . S
H778 C766 0.956 . S
H779 C766 0.961 . S
H780 C766 0.961 . S
H781 C767 0.958 . S
H782 C767 0.961 . S
H783 C767 0.960 . S
C784 C785 1.391 . S
C784 C786 1.394 . S
C784 H800 0.931 . S
C785 C784 1.391 . S
C785 C789 1.376 . S
C786 C784 1.394 . S
C786 C787 1.369 . S
C786 C790 1.531 . S
C787 C786 1.369 . S
C787 C788 1.410 . S
C787 C795 1.503 . S
C788 C787 1.410 . S
C788 C789 1.392 . S
C788 C791 1.511 . S
C789 C785 1.376 . S
C789 C788 1.392 . S
C789 H801 0.929 . S
C790 C786 1.531 . S
C790 H802 0.960 . S
C790 H803 0.962 . S
C790 H804 0.960 . S
C791 C788 1.511 . S
C791 H805 0.961 . S
C791 H806 0.961 . S
C791 H807 0.961 . S
C792 C793 1.370 . S
C792 C794 1.363 . S
C792 H808 0.931 . S
C793 C792 1.370 . S
C793 C797 1.408 . S
C794 C792 1.363 . S
C794 C795 1.370 . S
C794 C798 1.524 . S
C795 C787 1.503 . S
C795 C794 1.370 . S
C795 C796 1.403 . S
C796 C795 1.403 . S
C796 C797 1.404 . S
C796 C799 1.539 . S
C797 C793 1.408 . S
C797 C796 1.404 . S
C797 H809 0.930 . S
C798 C794 1.524 . S
C798 H810 0.956 . S
C798 H811 0.961 . S
C798 H812 0.961 . S
C799 C796 1.539 . S
C799 H813 0.958 . S
C799 H814 0.961 . S
C799 H815 0.960 . S
H800 C784 0.931 . S
H801 C789 0.929 . S
H802 C790 0.960 . S
H803 C790 0.962 . S
H804 C790 0.960 . S
H805 C791 0.961 . S
H806 C791 0.961 . S
H807 C791 0.961 . S
H808 C792 0.931 . S
H809 C797 0.930 . S
H810 C798 0.956 . S
H811 C798 0.961 . S
H812 C798 0.961 . S
H813 C799 0.958 . S
H814 C799 0.961 . S
H815 C799 0.960 . S
C816 C817 1.391 . S
C816 C818 1.394 . S
C816 H832 0.931 . S
C817 C816 1.391 . S
C817 C821 1.376 . S
C818 C816 1.394 . S
C818 C819 1.369 . S
C818 C822 1.531 . S
C819 C818 1.369 . S
C819 C820 1.410 . S
C819 C827 1.503 . S
C820 C819 1.410 . S
C820 C821 1.392 . S
C820 C823 1.511 . S
C821 C817 1.376 . S
C821 C820 1.392 . S
C821 H833 0.929 . S
C822 C818 1.531 . S
C822 H834 0.960 . S
C822 H835 0.962 . S
C822 H836 0.960 . S
C823 C820 1.511 . S
C823 H837 0.961 . S
C823 H838 0.961 . S
C823 H839 0.961 . S
C824 C825 1.370 . S
C824 C826 1.363 . S
C824 H840 0.931 . S
C825 C824 1.370 . S
C825 C829 1.408 . S
C826 C824 1.363 . S
C826 C827 1.370 . S
C826 C830 1.524 . S
C827 C819 1.503 . S
C827 C826 1.370 . S
C827 C828 1.403 . S
C828 C827 1.403 . S
C828 C829 1.404 . S
C828 C831 1.539 . S
C829 C825 1.408 . S
C829 C828 1.404 . S
C829 H841 0.930 . S
C830 C826 1.524 . S
C830 H842 0.956 . S
C830 H843 0.961 . S
C830 H844 0.961 . S
C831 C828 1.539 . S
C831 H845 0.958 . S
C831 H846 0.961 . S
C831 H847 0.960 . S
H832 C816 0.931 . S
H833 C821 0.929 . S
H834 C822 0.960 . S
H835 C822 0.962 . S
H836 C822 0.960 . S
H837 C823 0.961 . S
H838 C823 0.961 . S
H839 C823 0.961 . S
H840 C824 0.931 . S
H841 C829 0.930 . S
H842 C830 0.956 . S
H843 C830 0.961 . S
H844 C830 0.961 . S
H845 C831 0.958 . S
H846 C831 0.961 . S
H847 C831 0.960 . S
C848 C849 1.391 . S
C848 C850 1.394 . S
C848 H864 0.931 . S
C849 C848 1.391 . S
C849 C853 1.376 . S
C850 C848 1.394 . S
C850 C851 1.369 . S
C850 C854 1.531 . S
C851 C850 1.369 . S
C851 C852 1.410 . S
C851 C859 1.503 . S
C852 C851 1.410 . S
C852 C853 1.392 . S
C852 C855 1.511 . S
C853 C849 1.376 . S
C853 C852 1.392 . S
C853 H865 0.929 . S
C854 C850 1.531 . S
C854 H866 0.960 . S
C854 H867 0.962 . S
C854 H868 0.960 . S
C855 C852 1.511 . S
C855 H869 0.961 . S
C855 H870 0.961 . S
C855 H871 0.961 . S
C856 C857 1.370 . S
C856 C858 1.363 . S
C856 H872 0.931 . S
C857 C856 1.370 . S
C857 C861 1.408 . S
C858 C856 1.363 . S
C858 C859 1.370 . S
C858 C862 1.524 . S
C859 C851 1.503 . S
C859 C858 1.370 . S
C859 C860 1.403 . S
C860 C859 1.403 . S
C860 C861 1.404 . S
C860 C863 1.539 . S
C861 C857 1.408 . S
C861 C860 1.404 . S
C861 H873 0.930 . S
C862 C858 1.524 . S
C862 H874 0.956 . S
C862 H875 0.961 . S
C862 H876 0.961 . S
C863 C860 1.539 . S
C863 H877 0.958 . S
C863 H878 0.961 . S
C863 H879 0.960 . S
H864 C848 0.931 . S
H865 C853 0.929 . S
H866 C854 0.960 . S
H867 C854 0.962 . S
H868 C854 0.960 . S
H869 C855 0.961 . S
H870 C855 0.961 . S
H871 C855 0.961 . S
H872 C856 0.931 . S
H873 C861 0.930 . S
H874 C862 0.956 . S
H875 C862 0.961 . S
H876 C862 0.961 . S
H877 C863 0.958 . S
H878 C863 0.961 . S
H879 C863 0.960 . S
C880 C881 1.391 . S
C880 C882 1.394 . S
C880 H896 0.931 . S
C881 C880 1.391 . S
C881 C885 1.376 . S
C882 C880 1.394 . S
C882 C883 1.369 . S
C882 C886 1.531 . S
C883 C882 1.369 . S
C883 C884 1.410 . S
C883 C891 1.503 . S
C884 C883 1.410 . S
C884 C885 1.392 . S
C884 C887 1.511 . S
C885 C881 1.376 . S
C885 C884 1.392 . S
C885 H897 0.929 . S
C886 C882 1.531 . S
C886 H898 0.960 . S
C886 H899 0.962 . S
C886 H900 0.960 . S
C887 C884 1.511 . S
C887 H901 0.961 . S
C887 H902 0.961 . S
C887 H903 0.961 . S
C888 C889 1.370 . S
C888 C890 1.363 . S
C888 H904 0.931 . S
C889 C888 1.370 . S
C889 C893 1.408 . S
C890 C888 1.363 . S
C890 C891 1.370 . S
C890 C894 1.524 . S
C891 C883 1.503 . S
C891 C890 1.370 . S
C891 C892 1.403 . S
C892 C891 1.403 . S
C892 C893 1.404 . S
C892 C895 1.539 . S
C893 C889 1.408 . S
C893 C892 1.404 . S
C893 H905 0.930 . S
C894 C890 1.524 . S
C894 H906 0.956 . S
C894 H907 0.961 . S
C894 H908 0.961 . S
C895 C892 1.539 . S
C895 H909 0.958 . S
C895 H910 0.961 . S
C895 H911 0.960 . S
H896 C880 0.931 . S
H897 C885 0.929 . S
H898 C886 0.960 . S
H899 C886 0.962 . S
H900 C886 0.960 . S
H901 C887 0.961 . S
H902 C887 0.961 . S
H903 C887 0.961 . S
H904 C888 0.931 . S
H905 C893 0.930 . S
H906 C894 0.956 . S
H907 C894 0.961 . S
H908 C894 0.961 . S
H909 C895 0.958 . S
H910 C895 0.961 . S
H911 C895 0.960 . S
C912 C913 1.391 . S
C912 C914 1.394 . S
C912 H928 0.931 . S
C913 C912 1.391 . S
C913 C917 1.376 . S
C914 C912 1.394 . S
C914 C915 1.369 . S
C914 C918 1.531 . S
C915 C914 1.369 . S
C915 C916 1.410 . S
C915 C923 1.503 . S
C916 C915 1.410 . S
C916 C917 1.392 . S
C916 C919 1.511 . S
C917 C913 1.376 . S
C917 C916 1.392 . S
C917 H929 0.929 . S
C918 C914 1.531 . S
C918 H930 0.960 . S
C918 H931 0.962 . S
C918 H932 0.960 . S
C919 C916 1.511 . S
C919 H933 0.961 . S
C919 H934 0.961 . S
C919 H935 0.961 . S
C920 C921 1.370 . S
C920 C922 1.363 . S
C920 H936 0.931 . S
C921 C920 1.370 . S
C921 C925 1.408 . S
C922 C920 1.363 . S
C922 C923 1.370 . S
C922 C926 1.524 . S
C923 C915 1.503 . S
C923 C922 1.370 . S
C923 C924 1.403 . S
C924 C923 1.403 . S
C924 C925 1.404 . S
C924 C927 1.539 . S
C925 C921 1.408 . S
C925 C924 1.404 . S
C925 H937 0.930 . S
C926 C922 1.524 . S
C926 H938 0.956 . S
C926 H939 0.961 . S
C926 H940 0.961 . S
C927 C924 1.539 . S
C927 H941 0.958 . S
C927 H942 0.961 . S
C927 H943 0.960 . S
H928 C912 0.931 . S
H929 C917 0.929 . S
H930 C918 0.960 . S
H931 C918 0.962 . S
H932 C918 0.960 . S
H933 C919 0.961 . S
H934 C919 0.961 . S
H935 C919 0.961 . S
H936 C920 0.931 . S
H937 C925 0.930 . S
H938 C926 0.956 . S
H939 C926 0.961 . S
H940 C926 0.961 . S
H941 C927 0.958 . S
H942 C927 0.961 . S
H943 C927 0.960 . S
C944 C945 1.391 . S
C944 C946 1.394 . S
C944 H960 0.931 . S
C945 C944 1.391 . S
C945 C949 1.376 . S
C946 C944 1.394 . S
C946 C947 1.369 . S
C946 C950 1.531 . S
C947 C946 1.369 . S
C947 C948 1.410 . S
C947 C955 1.503 . S
C948 C947 1.410 . S
C948 C949 1.392 . S
C948 C951 1.511 . S
C949 C945 1.376 . S
C949 C948 1.392 . S
C949 H961 0.929 . S
C950 C946 1.531 . S
C950 H962 0.960 . S
C950 H963 0.962 . S
C950 H964 0.960 . S
C951 C948 1.511 . S
C951 H965 0.961 . S
C951 H966 0.961 . S
C951 H967 0.961 . S
C952 C953 1.370 . S
C952 C954 1.363 . S
C952 H968 0.931 . S
C953 C952 1.370 . S
C953 C957 1.408 . S
C954 C952 1.363 . S
C954 C955 1.370 . S
C954 C958 1.524 . S
C955 C947 1.503 . S
C955 C954 1.370 . S
C955 C956 1.403 . S
C956 C955 1.403 . S
C956 C957 1.404 . S
C956 C959 1.539 . S
C957 C953 1.408 . S
C957 C956 1.404 . S
C957 H969 0.930 . S
C958 C954 1.524 . S
C958 H970 0.956 . S
C958 H971 0.961 . S
C958 H972 0.961 . S
C959 C956 1.539 . S
C959 H973 0.958 . S
C959 H974 0.961 . S
C959 H975 0.960 . S
H960 C944 0.931 . S
H961 C949 0.929 . S
H962 C950 0.960 . S
H963 C950 0.962 . S
H964 C950 0.960 . S
H965 C951 0.961 . S
H966 C951 0.961 . S
H967 C951 0.961 . S
H968 C952 0.931 . S
H969 C957 0.930 . S
H970 C958 0.956 . S
H971 C958 0.961 . S
H972 C958 0.961 . S
H973 C959 0.958 . S
H974 C959 0.961 . S
H975 C959 0.960 . S
C976 C977 1.391 . S
C976 C978 1.394 . S
C976 H992 0.931 . S
C977 C976 1.391 . S
C977 C981 1.376 . S
C978 C976 1.394 . S
C978 C979 1.369 1_545 S
C978 C982 1.531 1_545 S
C979 C978 1.369 1_565 S
C979 C980 1.410 1_565 S
C979 C987 1.503 . S
C980 C979 1.410 1_545 S
C980 C981 1.392 . S
C980 C983 1.511 1_545 S
C981 C977 1.376 . S
C981 C980 1.392 . S
C981 H993 0.929 . S
C982 C978 1.531 1_565 S
C982 H994 0.958 . S
C982 H995 0.963 1_565 S
C982 H996 0.961 1_565 S
C983 C980 1.511 1_565 S
C983 H997 0.961 . S
C983 H998 0.961 . S
C983 H999 0.961 . S
C984 C985 1.370 . S
C984 C986 1.363 . S
C984 H1000 0.931 . S
C985 C984 1.370 . S
C985 C989 1.408 . S
C986 C984 1.363 . S
C986 C987 1.370 . S
C986 C990 1.524 1_565 S
C987 C979 1.503 . S
C987 C986 1.370 . S
C987 C988 1.403 . S
C988 C987 1.403 . S
C988 C989 1.404 . S
C988 C991 1.539 . S
C989 C985 1.408 . S
C989 C988 1.404 . S
C989 H1001 0.930 . S
C990 C986 1.524 1_545 S
C990 H1002 0.956 . S
C990 H1003 0.961 . S
C990 H1004 0.961 . S
C991 C988 1.539 . S
C991 H1005 0.958 . S
C991 H1006 0.961 . S
C991 H1007 0.960 . S
H992 C976 0.931 . S
H993 C981 0.929 . S
H994 C982 0.958 . S
H995 C982 0.963 1_545 S
H996 C982 0.961 1_545 S
H997 C983 0.961 . S
H998 C983 0.961 . S
H999 C983 0.961 . S
H1000 C984 0.931 . S
H1001 C989 0.930 . S
H1002 C990 0.956 . S
H1003 C990 0.961 . S
H1004 C990 0.961 . S
H1005 C991 0.958 . S
H1006 C991 0.961 . S
H1007 C991 0.960 . S
C1008 C1009 1.391 . S
C1008 C1010 1.394 . S
C1008 H1024 0.931 . S
C1009 C1008 1.391 . S
C1009 C1013 1.376 . S
C1010 C1008 1.394 . S
C1010 C1011 1.369 . S
C1010 C1014 1.531 . S
C1011 C1010 1.369 . S
C1011 C1012 1.410 . S
C1011 C1019 1.503 . S
C1012 C1011 1.410 . S
C1012 C1013 1.392 . S
C1012 C1015 1.511 . S
C1013 C1009 1.376 . S
C1013 C1012 1.392 . S
C1013 H1025 0.929 . S
C1014 C1010 1.531 . S
C1014 H1026 0.960 . S
C1014 H1027 0.962 . S
C1014 H1028 0.960 . S
C1015 C1012 1.511 . S
C1015 H1029 0.961 . S
C1015 H1030 0.961 . S
C1015 H1031 0.961 . S
C1016 C1017 1.370 . S
C1016 C1018 1.363 . S
C1016 H1032 0.931 . S
C1017 C1016 1.370 . S
C1017 C1021 1.408 . S
C1018 C1016 1.363 . S
C1018 C1019 1.370 . S
C1018 C1022 1.524 . S
C1019 C1011 1.503 . S
C1019 C1018 1.370 . S
C1019 C1020 1.403 . S
C1020 C1019 1.403 . S
C1020 C1021 1.404 . S
C1020 C1023 1.539 . S
C1021 C1017 1.408 . S
C1021 C1020 1.404 . S
C1021 H1033 0.930 . S
C1022 C1018 1.524 . S
C1022 H1034 0.956 . S
C1022 H1035 0.961 . S
C1022 H1036 0.961 . S
C1023 C1020 1.539 . S
C1023 H1037 0.958 . S
C1023 H1038 0.961 . S
C1023 H1039 0.960 . S
H1024 C1008 0.931 . S
H1025 C1013 0.929 . S
H1026 C1014 0.960 . S
H1027 C1014 0.962 . S
H1028 C1014 0.960 . S
H1029 C1015 0.961 . S
H1030 C1015 0.961 . S
H1031 C1015 0.961 . S
H1032 C1016 0.931 . S
H1033 C1021 0.930 . S
H1034 C1022 0.956 . S
H1035 C1022 0.961 . S
H1036 C1022 0.961 . S
H1037 C1023 0.958 . S
H1038 C1023 0.961 . S
H1039 C1023 0.960 . S
C1040 C1041 1.391 . S
C1040 C1042 1.394 . S
C1040 H1056 0.931 . S
C1041 C1040 1.391 . S
C1041 C1045 1.376 . S
C1042 C1040 1.394 . S
C1042 C1043 1.369 . S
C1042 C1046 1.531 1_455 S
C1043 C1042 1.369 . S
C1043 C1044 1.410 . S
C1043 C1051 1.510 . S
C1044 C1043 1.410 . S
C1044 C1045 1.392 . S
C1044 C1047 1.511 . S
C1045 C1041 1.376 . S
C1045 C1044 1.392 . S
C1045 H1057 0.929 . S
C1046 C1042 1.531 1_655 S
C1046 H1058 0.960 . S
C1046 H1059 0.962 . S
C1046 H1060 0.960 . S
C1047 C1044 1.511 . S
C1047 H1061 0.961 . S
C1047 H1062 0.961 . S
C1047 H1063 0.961 . S
C1048 C1049 1.370 . S
C1048 C1050 1.363 . S
C1048 H1064 0.931 . S
C1049 C1048 1.370 . S
C1049 C1053 1.408 . S
C1050 C1048 1.363 . S
C1050 C1051 1.369 1_655 S
C1050 C1054 1.524 1_655 S
C1051 C1043 1.510 . S
C1051 C1050 1.369 1_455 S
C1051 C1052 1.397 1_455 S
C1052 C1051 1.397 1_655 S
C1052 C1053 1.404 . S
C1052 C1055 1.539 . S
C1053 C1049 1.408 . S
C1053 C1052 1.404 . S
C1053 H1065 0.930 . S
C1054 C1050 1.524 1_455 S
C1054 H1066 0.956 . S
C1054 H1067 0.961 . S
C1054 H1068 0.961 . S
C1055 C1052 1.539 . S
C1055 H1069 0.958 . S
C1055 H1070 0.961 . S
C1055 H1071 0.960 1_655 S
H1056 C1040 0.931 . S
H1057 C1045 0.929 . S
H1058 C1046 0.960 . S
H1059 C1046 0.962 . S
H1060 C1046 0.960 . S
H1061 C1047 0.961 . S
H1062 C1047 0.961 . S
H1063 C1047 0.961 . S
H1064 C1048 0.931 . S
H1065 C1053 0.930 . S
H1066 C1054 0.956 . S
H1067 C1054 0.961 . S
H1068 C1054 0.961 . S
H1069 C1055 0.958 . S
H1070 C1055 0.961 . S
H1071 C1055 0.960 1_455 S
C1072 C1073 1.391 . S
C1072 C1074 1.388 1_565 S
C1072 H1088 0.931 . S
C1073 C1072 1.391 . S
C1073 C1077 1.376 . S
C1074 C1072 1.388 1_545 S
C1074 C1075 1.368 1_545 S
C1074 C1078 1.538 . S
C1075 C1074 1.368 1_565 S
C1075 C1076 1.410 . S
C1075 C1083 1.503 1_665 S
C1076 C1075 1.410 . S
C1076 C1077 1.392 . S
C1076 C1079 1.511 1_655 S
C1077 C1073 1.376 . S
C1077 C1076 1.392 . S
C1077 H1089 0.929 . S
C1078 C1074 1.538 . S
C1078 H1090 0.960 . S
C1078 H1091 0.962 . S
C1078 H1092 0.960 . S
C1079 C1076 1.511 1_455 S
C1079 H1093 0.961 . S
C1079 H1094 0.961 . S
C1079 H1095 0.961 . S
C1080 C1081 1.370 . S
C1080 C1082 1.363 1_455 S
C1080 H1096 0.931 . S
C1081 C1080 1.370 . S
C1081 C1085 1.408 . S
C1082 C1080 1.363 1_655 S
C1082 C1083 1.370 1_655 S
C1082 C1086 1.524 . S
C1083 C1075 1.503 1_445 S
C1083 C1082 1.370 1_455 S
C1083 C1084 1.403 . S
C1084 C1083 1.403 . S
C1084 C1085 1.404 . S
C1084 C1087 1.539 1_545 S
C1085 C1081 1.408 . S
C1085 C1084 1.404 . S
C1085 H1097 0.930 . S
C1086 C1082 1.524 . S
C1086 H1098 0.956 . S
C1086 H1099 0.961 . S
C1086 H1100 0.961 . S
C1087 C1084 1.539 1_565 S
C1087 H1101 0.958 . S
C1087 H1102 0.961 . S
C1087 H1103 0.960 . S
H1088 C1072 0.931 . S
H1089 C1077 0.929 . S
H1090 C1078 0.960 . S
H1091 C1078 0.962 . S
H1092 C1078 0.960 . S
H1093 C1079 0.961 . S
H1094 C1079 0.961 . S
H1095 C1079 0.961 . S
H1096 C1080 0.931 . S
H1097 C1085 0.930 . S
H1098 C1086 0.956 . S
H1099 C1086 0.961 . S
H1100 C1086 0.961 . S
H1101 C1087 0.958 . S
H1102 C1087 0.961 . S
H1103 C1087 0.960 . S
C1104 C1105 1.391 . S
C1104 C1106 1.394 . S
C1104 H1120 0.931 . S
C1105 C1104 1.391 . S
C1105 C1109 1.376 . S
C1106 C1104 1.394 . S
C1106 C1107 1.369 . S
C1106 C1110 1.531 . S
C1107 C1106 1.369 . S
C1107 C1108 1.410 . S
C1107 C1115 1.503 . S
C1108 C1107 1.410 . S
C1108 C1109 1.392 . S
C1108 C1111 1.511 . S
C1109 C1105 1.376 . S
C1109 C1108 1.392 . S
C1109 H1121 0.929 . S
C1110 C1106 1.531 . S
C1110 H1122 0.960 . S
C1110 H1123 0.962 . S
C1110 H1124 0.960 . S
C1111 C1108 1.511 . S
C1111 H1125 0.961 . S
C1111 H1126 0.961 . S
C1111 H1127 0.961 . S
C1112 C1113 1.370 . S
C1112 C1114 1.363 . S
C1112 H1128 0.931 . S
C1113 C1112 1.370 . S
C1113 C1117 1.408 . S
C1114 C1112 1.363 . S
C1114 C1115 1.370 . S
C1114 C1118 1.524 . S
C1115 C1107 1.503 . S
C1115 C1114 1.370 . S
C1115 C1116 1.403 . S
C1116 C1115 1.403 . S
C1116 C1117 1.404 . S
C1116 C1119 1.539 . S
C1117 C1113 1.408 . S
C1117 C1116 1.404 . S
C1117 H1129 0.930 . S
C1118 C1114 1.524 . S
C1118 H1130 0.956 . S
C1118 H1131 0.961 . S
C1118 H1132 0.961 . S
C1119 C1116 1.539 . S
C1119 H1133 0.958 . S
C1119 H1134 0.961 . S
C1119 H1135 0.960 . S
H1120 C1104 0.931 . S
H1121 C1109 0.929 . S
H1122 C1110 0.960 . S
H1123 C1110 0.962 . S
H1124 C1110 0.960 . S
H1125 C1111 0.961 . S
H1126 C1111 0.961 . S
H1127 C1111 0.961 . S
H1128 C1112 0.931 . S
H1129 C1117 0.930 . S
H1130 C1118 0.956 . S
H1131 C1118 0.961 . S
H1132 C1118 0.961 . S
H1133 C1119 0.958 . S
H1134 C1119 0.961 . S
H1135 C1119 0.960 . S
C1136 C1137 1.391 . S
C1136 C1138 1.394 . S
C1136 H1152 0.931 . S
C1137 C1136 1.391 . S
C1137 C1141 1.376 . S
C1138 C1136 1.394 . S
C1138 C1139 1.369 . S
C1138 C1142 1.531 . S
C1139 C1138 1.369 . S
C1139 C1140 1.410 . S
C1139 C1147 1.503 1_455 S
C1140 C1139 1.410 . S
C1140 C1141 1.392 . S
C1140 C1143 1.511 . S
C1141 C1137 1.376 . S
C1141 C1140 1.392 . S
C1141 H1153 0.929 . S
C1142 C1138 1.531 . S
C1142 H1154 0.960 . S
C1142 H1155 0.962 1_455 S
C1142 H1156 0.960 . S
C1143 C1140 1.511 . S
C1143 H1157 0.961 . S
C1143 H1158 0.961 1_455 S
C1143 H1159 0.961 . S
C1144 C1145 1.370 . S
C1144 C1146 1.363 . S
C1144 H1160 0.931 . S
C1145 C1144 1.370 . S
C1145 C1149 1.408 . S
C1146 C1144 1.363 . S
C1146 C1147 1.370 . S
C1146 C1150 1.524 . S
C1147 C1139 1.503 1_655 S
C1147 C1146 1.370 . S
C1147 C1148 1.403 . S
C1148 C1147 1.403 . S
C1148 C1149 1.404 . S
C1148 C1151 1.539 1_655 S
C1149 C1145 1.408 . S
C1149 C1148 1.404 . S
C1149 H1161 0.930 . S
C1150 C1146 1.524 . S
C1150 H1162 0.956 . S
C1150 H1163 0.961 . S
C1150 H1164 0.961 . S
C1151 C1148 1.539 1_455 S
C1151 H1165 0.958 . S
C1151 H1166 0.961 . S
C1151 H1167 0.960 . S
H1152 C1136 0.931 . S
H1153 C1141 0.929 . S
H1154 C1142 0.960 . S
H1155 C1142 0.962 1_655 S
H1156 C1142 0.960 . S
H1157 C1143 0.961 . S
H1158 C1143 0.961 1_655 S
H1159 C1143 0.961 . S
H1160 C1144 0.931 . S
H1161 C1149 0.930 . S
H1162 C1150 0.956 . S
H1163 C1150 0.961 . S
H1164 C1150 0.961 . S
H1165 C1151 0.958 . S
H1166 C1151 0.961 . S
H1167 C1151 0.960 . S
C1168 C1169 1.391 . S
C1168 C1170 1.394 . S
C1168 H1184 0.931 . S
C1169 C1168 1.391 . S
C1169 C1173 1.376 . S
C1170 C1168 1.394 . S
C1170 C1171 1.369 1_655 S
C1170 C1174 1.531 1_565 S
C1171 C1170 1.369 1_455 S
C1171 C1172 1.410 . S
C1171 C1179 1.503 . S
C1172 C1171 1.410 . S
C1172 C1173 1.392 1_455 S
C1172 C1175 1.511 . S
C1173 C1169 1.376 . S
C1173 C1172 1.392 1_655 S
C1173 H1185 0.929 . S
C1174 C1170 1.531 1_545 S
C1174 H1186 0.960 . S
C1174 H1187 0.962 . S
C1174 H1188 0.960 . S
C1175 C1172 1.511 . S
C1175 H1189 0.961 . S
C1175 H1190 0.961 . S
C1175 H1191 0.961 . S
C1176 C1177 1.370 . S
C1176 C1178 1.363 . S
C1176 H1192 0.931 . S
C1177 C1176 1.370 . S
C1177 C1181 1.408 . S
C1178 C1176 1.363 . S
C1178 C1179 1.370 1_545 S
C1178 C1182 1.524 . S
C1179 C1171 1.503 . S
C1179 C1178 1.370 1_565 S
C1179 C1180 1.403 1_565 S
C1180 C1179 1.403 1_545 S
C1180 C1181 1.404 . S
C1180 C1183 1.539 1_545 S
C1181 C1177 1.408 . S
C1181 C1180 1.404 . S
C1181 H1193 0.930 . S
C1182 C1178 1.524 . S
C1182 H1194 0.956 1_455 S
C1182 H1195 0.961 1_545 S
C1182 H1196 0.961 . S
C1183 C1180 1.539 1_565 S
C1183 H1197 0.958 . S
C1183 H1198 0.961 . S
C1183 H1199 0.960 . S
H1184 C1168 0.931 . S
H1185 C1173 0.929 . S
H1186 C1174 0.960 . S
H1187 C1174 0.962 . S
H1188 C1174 0.960 . S
H1189 C1175 0.961 . S
H1190 C1175 0.961 . S
H1191 C1175 0.961 . S
H1192 C1176 0.931 . S
H1193 C1181 0.930 . S
H1194 C1182 0.956 1_655 S
H1195 C1182 0.961 1_565 S
H1196 C1182 0.961 . S
H1197 C1183 0.958 . S
H1198 C1183 0.961 . S
H1199 C1183 0.960 . S
C1200 C1201 1.391 . S
C1200 C1202 1.394 1_565 S
C1200 H1216 0.931 . S
C1201 C1200 1.391 . S
C1201 C1205 1.376 . S
C1202 C1200 1.394 1_545 S
C1202 C1203 1.369 . S
C1202 C1206 1.531 . S
C1203 C1202 1.369 . S
C1203 C1204 1.410 1_545 S
C1203 C1211 1.503 . S
C1204 C1203 1.410 1_565 S
C1204 C1205 1.392 . S
C1204 C1207 1.511 . S
C1205 C1201 1.376 . S
C1205 C1204 1.392 . S
C1205 H1217 0.929 . S
C1206 C1202 1.531 . S
C1206 H1218 0.960 . S
C1206 H1219 0.962 . S
C1206 H1220 0.960 . S
C1207 C1204 1.511 . S
C1207 H1221 0.961 . S
C1207 H1222 0.961 . S
C1207 H1223 0.961 . S
C1208 C1209 1.370 . S
C1208 C1210 1.363 . S
C1208 H1224 0.931 . S
C1209 C1208 1.370 . S
C1209 C1213 1.408 . S
C1210 C1208 1.363 . S
C1210 C1211 1.370 . S
C1210 C1214 1.524 . S
C1211 C1203 1.503 . S
C1211 C1210 1.370 . S
C1211 C1212 1.403 . S
C1212 C1211 1.403 . S
C1212 C1213 1.404 . S
C1212 C1215 1.539 . S
C1213 C1209 1.408 . S
C1213 C1212 1.404 . S
C1213 H1225 0.930 . S
C1214 C1210 1.524 . S
C1214 H1226 0.956 . S
C1214 H1227 0.961 1_545 S
C1214 H1228 0.961 . S
C1215 C1212 1.539 . S
C1215 H1229 0.958 . S
C1215 H1230 0.961 . S
C1215 H1231 0.960 . S
H1216 C1200 0.931 . S
H1217 C1205 0.929 . S
H1218 C1206 0.960 . S
H1219 C1206 0.962 . S
H1220 C1206 0.960 . S
H1221 C1207 0.961 . S
H1222 C1207 0.961 . S
H1223 C1207 0.961 . S
H1224 C1208 0.931 . S
H1225 C1213 0.930 . S
H1226 C1214 0.956 . S
H1227 C1214 0.961 1_565 S
H1228 C1214 0.961 . S
H1229 C1215 0.958 . S
H1230 C1215 0.961 . S
H1231 C1215 0.960 . S
C209 C95 1.490 . S
C217 C10 1.511 . S
C241 C56 1.532 . S
C249 C17 1.495 . S
C273 C75 1.505 . S
C281 C30 1.504 . S
C305 C49 1.485 . S
C313 C88 1.516 . S
C337 C205 1.517 . S
C345 C108 1.497 . S
C369 C166 1.522 . S
C377 C127 1.505 . S
C401 C140 1.492 . S
C409 C173 1.516 . S
C433 C153 1.473 . S
C441 C192 1.518 . S
C465 C29 1.144 . S
C473 C5 1.192 . S
C497 C16 1.139 . S
C505 C44 1.195 . S
C529 C55 1.187 . S
C537 C83 1.173 . S
C561 C94 1.164 . S
C569 C70 1.182 . S
C593 C107 1.137 . S
C601 C135 1.195 . S
C625 C122 1.218 . S
C633 C148 1.166 . S
C657 C187 1.143 . S
C665 C161 1.187 . S
C689 C172 1.165 . S
C697 C200 1.198 . S
C721 C81 1.323 . S
C729 C3 1.346 . S
C753 C18 1.322 . S
C761 C96 1.352 . S
C785 C31 1.352 . S
C793 C57 1.363 . S
C817 C42 1.375 . S
C825 C68 1.352 . S
C849 C109 1.333 . S
C857 C185 1.343 . S
C881 C120 1.374 . S
C889 C198 1.349 . S
C913 C133 1.323 . S
C921 C159 1.349 . S
C945 C146 1.347 . S
C953 C174 1.341 . S
C977 C4 1.278 . S
C985 C199 1.288 . S
C1009 C160 1.281 . S
C1017 C23 1.291 . S
C1041 C36 1.304 . S
C1049 C179 1.299 . S
C1073 C186 1.309 . S
C1081 C43 1.302 . S
C1105 C121 1.304 . S
C1113 C62 1.299 . S
C1137 C69 1.307 . S
C1145 C134 1.301 . S
C1169 C147 1.277 . S
C1177 C82 1.288 . S
C1201 C114 1.299 . S
C1209 C101 1.299 . S
