# Generated by pormake.
# Topology smd, (6)-cn, num edge types: 1
# Building blocks:
#     Node 0, Type 0, BuildingBlock: PAMTOO_clean_sbu_0, # of connection points: 6
#     Node 1, Type 0, BuildingBlock: PAMTOO_clean_sbu_0, # of connection points: 6
#     Node 2, Type 0, BuildingBlock: PAMTOO_clean_sbu_0, # of connection points: 6
#     Node 3, Type 0, BuildingBlock: PAMTOO_clean_sbu_0, # of connection points: 6
#     Node 4, Type 0, BuildingBlock: PAMTOO_clean_sbu_0, # of connection points: 6
#     Node 5, Type 0, BuildingBlock: PAMTOO_clean_sbu_0, # of connection points: 6
#     Node 6, Type 0, BuildingBlock: PAMTOO_clean_sbu_0, # of connection points: 6
#     Node 7, Type 0, BuildingBlock: PAMTOO_clean_sbu_0, # of connection points: 6
#     Node 8, Type 0, BuildingBlock: PAMTOO_clean_sbu_0, # of connection points: 6
#     Node 9, Type 0, BuildingBlock: PAMTOO_clean_sbu_0, # of connection points: 6
#     Node 10, Type 0, BuildingBlock: PAMTOO_clean_sbu_0, # of connection points: 6
#     Node 11, Type 0, BuildingBlock: PAMTOO_clean_sbu_0, # of connection points: 6
#     Node 12, Type 0, BuildingBlock: PAMTOO_clean_sbu_0, # of connection points: 6
#     Node 13, Type 0, BuildingBlock: PAMTOO_clean_sbu_0, # of connection points: 6
#     Node 14, Type 0, BuildingBlock: PAMTOO_clean_sbu_0, # of connection points: 6
#     Node 15, Type 0, BuildingBlock: PAMTOO_clean_sbu_0, # of connection points: 6
#     Node 16, Type 0, BuildingBlock: PAMTOO_clean_sbu_0, # of connection points: 6
#     Node 17, Type 0, BuildingBlock: PAMTOO_clean_sbu_0, # of connection points: 6
#     Edge 18, Type (0, 0), BuildingBlock: AJUNOK_clean_linker_0, # of connection points: 2
#     Edge 19, Type (0, 0), BuildingBlock: AJUNOK_clean_linker_0, # of connection points: 2
#     Edge 20, Type (0, 0), BuildingBlock: AJUNOK_clean_linker_0, # of connection points: 2
#     Edge 21, Type (0, 0), BuildingBlock: AJUNOK_clean_linker_0, # of connection points: 2
#     Edge 22, Type (0, 0), BuildingBlock: AJUNOK_clean_linker_0, # of connection points: 2
#     Edge 23, Type (0, 0), BuildingBlock: AJUNOK_clean_linker_0, # of connection points: 2
#     Edge 24, Type (0, 0), BuildingBlock: AJUNOK_clean_linker_0, # of connection points: 2
#     Edge 25, Type (0, 0), BuildingBlock: AJUNOK_clean_linker_0, # of connection points: 2
#     Edge 26, Type (0, 0), BuildingBlock: AJUNOK_clean_linker_0, # of connection points: 2
#     Edge 27, Type (0, 0), BuildingBlock: AJUNOK_clean_linker_0, # of connection points: 2
#     Edge 28, Type (0, 0), BuildingBlock: AJUNOK_clean_linker_0, # of connection points: 2
#     Edge 29, Type (0, 0), BuildingBlock: AJUNOK_clean_linker_0, # of connection points: 2
#     Edge 30, Type (0, 0), BuildingBlock: AJUNOK_clean_linker_0, # of connection points: 2
#     Edge 31, Type (0, 0), BuildingBlock: AJUNOK_clean_linker_0, # of connection points: 2
#     Edge 32, Type (0, 0), BuildingBlock: AJUNOK_clean_linker_0, # of connection points: 2
#     Edge 33, Type (0, 0), BuildingBlock: AJUNOK_clean_linker_0, # of connection points: 2
#     Edge 34, Type (0, 0), BuildingBlock: AJUNOK_clean_linker_0, # of connection points: 2
#     Edge 35, Type (0, 0), BuildingBlock: AJUNOK_clean_linker_0, # of connection points: 2
#     Edge 36, Type (0, 0), BuildingBlock: AJUNOK_clean_linker_0, # of connection points: 2
#     Edge 37, Type (0, 0), BuildingBlock: AJUNOK_clean_linker_0, # of connection points: 2
#     Edge 38, Type (0, 0), BuildingBlock: AJUNOK_clean_linker_0, # of connection points: 2
#     Edge 39, Type (0, 0), BuildingBlock: AJUNOK_clean_linker_0, # of connection points: 2
#     Edge 40, Type (0, 0), BuildingBlock: AJUNOK_clean_linker_0, # of connection points: 2
#     Edge 41, Type (0, 0), BuildingBlock: AJUNOK_clean_linker_0, # of connection points: 2
#     Edge 42, Type (0, 0), BuildingBlock: AJUNOK_clean_linker_0, # of connection points: 2
#     Edge 43, Type (0, 0), BuildingBlock: AJUNOK_clean_linker_0, # of connection points: 2
#     Edge 44, Type (0, 0), BuildingBlock: AJUNOK_clean_linker_0, # of connection points: 2
#     Edge 45, Type (0, 0), BuildingBlock: AJUNOK_clean_linker_0, # of connection points: 2
#     Edge 46, Type (0, 0), BuildingBlock: AJUNOK_clean_linker_0, # of connection points: 2
#     Edge 47, Type (0, 0), BuildingBlock: AJUNOK_clean_linker_0, # of connection points: 2
#     Edge 48, Type (0, 0), BuildingBlock: AJUNOK_clean_linker_0, # of connection points: 2
#     Edge 49, Type (0, 0), BuildingBlock: AJUNOK_clean_linker_0, # of connection points: 2
#     Edge 50, Type (0, 0), BuildingBlock: AJUNOK_clean_linker_0, # of connection points: 2
#     Edge 51, Type (0, 0), BuildingBlock: AJUNOK_clean_linker_0, # of connection points: 2
#     Edge 52, Type (0, 0), BuildingBlock: AJUNOK_clean_linker_0, # of connection points: 2
#     Edge 53, Type (0, 0), BuildingBlock: AJUNOK_clean_linker_0, # of connection points: 2
#     Edge 54, Type (0, 0), BuildingBlock: AJUNOK_clean_linker_0, # of connection points: 2
#     Edge 55, Type (0, 0), BuildingBlock: AJUNOK_clean_linker_0, # of connection points: 2
#     Edge 56, Type (0, 0), BuildingBlock: AJUNOK_clean_linker_0, # of connection points: 2
#     Edge 57, Type (0, 0), BuildingBlock: AJUNOK_clean_linker_0, # of connection points: 2
#     Edge 58, Type (0, 0), BuildingBlock: AJUNOK_clean_linker_0, # of connection points: 2
#     Edge 59, Type (0, 0), BuildingBlock: AJUNOK_clean_linker_0, # of connection points: 2
#     Edge 60, Type (0, 0), BuildingBlock: AJUNOK_clean_linker_0, # of connection points: 2
#     Edge 61, Type (0, 0), BuildingBlock: AJUNOK_clean_linker_0, # of connection points: 2
#     Edge 62, Type (0, 0), BuildingBlock: AJUNOK_clean_linker_0, # of connection points: 2
#     Edge 63, Type (0, 0), BuildingBlock: AJUNOK_clean_linker_0, # of connection points: 2
#     Edge 64, Type (0, 0), BuildingBlock: AJUNOK_clean_linker_0, # of connection points: 2
#     Edge 65, Type (0, 0), BuildingBlock: AJUNOK_clean_linker_0, # of connection points: 2
#     Edge 66, Type (0, 0), BuildingBlock: AJUNOK_clean_linker_0, # of connection points: 2
#     Edge 67, Type (0, 0), BuildingBlock: AJUNOK_clean_linker_0, # of connection points: 2
#     Edge 68, Type (0, 0), BuildingBlock: AJUNOK_clean_linker_0, # of connection points: 2
#     Edge 69, Type (0, 0), BuildingBlock: AJUNOK_clean_linker_0, # of connection points: 2
#     Edge 70, Type (0, 0), BuildingBlock: AJUNOK_clean_linker_0, # of connection points: 2
#     Edge 71, Type (0, 0), BuildingBlock: AJUNOK_clean_linker_0, # of connection points: 2
# Relax obj value: 0.250
# Max RMSD: 0.337
# Mean RMSD: 0.337
data_MOF--net-smd--node1-PAMTOO_clean_sbu_0--edge1-AJUNOK_clean_linker_0
_symmetry_space_group_name_H-M    P1
_symmetry_Int_Tables_number       1
_symmetry_cell_setting            triclinic
loop_
_symmetry_equiv_pos_as_xyz
'x, y, z'
_cell_length_a     46.78435
_cell_length_b     46.822458
_cell_length_c     20.719379
_cell_angle_alpha  89.985676
_cell_angle_beta   90.159877
_cell_angle_gamma 119.86909
loop_
_atom_site_label
_atom_site_type_symbol
_atom_site_fract_x
_atom_site_fract_y
_atom_site_fract_z
_atom_type_partial_charge
Dy0 Dy 1.01461 0.24142 0.47395 0.0
Dy1 Dy 0.06136 0.26669 0.59871 0.0
C2 C 0.0799 0.23403 0.488 0.0
O3 O 0.99729 0.19513 0.52862 0.0
O4 O 1.01367 0.21938 0.62796 0.0
O5 O 0.99416 0.20885 0.39193 0.0
O6 O 0.98617 0.25021 0.40177 0.0
O7 O 1.02738 0.28624 0.61094 0.0
O8 O 0.98343 0.24701 0.55414 0.0
O9 O 0.09013 0.30111 0.51282 0.0
O10 O 0.04331 0.29578 0.47337 0.0
O11 O 0.09161 0.30649 0.6643 0.0
O12 O 0.08452 0.25782 0.68078 0.0
C13 C 0.99536 0.19311 0.59144 0.0
O14 O 0.06343 0.24316 0.44898 0.0
O15 O 0.07552 0.23354 0.55022 0.0
C16 C 0.99653 0.23771 0.29693 0.0
C17 C 1.01995 0.25742 0.16966 0.0
C18 C 0.04125 0.2585 0.21885 0.0
C19 C 1.0297 0.24884 0.28179 0.0
C20 C 0.97526 0.23698 0.24827 0.0
C21 C 0.98685 0.24674 0.18515 0.0
C22 C 0.9844 0.22733 0.36343 0.0
C23 C 0.99566 0.2694 0.60104 0.0
C24 C 0.07524 0.31051 0.47023 0.0
C25 C 0.08576 0.28811 0.77235 0.0
C26 C 0.06612 0.28445 0.90255 0.0
C27 C 0.04416 0.28008 0.85196 0.0
C28 C 0.05387 0.28183 0.78747 0.0
C29 C 0.10798 0.2933 0.82256 0.0
C30 C 0.09826 0.29145 0.88704 0.0
C31 C 0.09519 0.28715 0.70477 0.0
H32 H 0.06691 0.26685 0.2086 0.0
H33 H 0.04673 0.25009 0.31872 0.0
H34 H 0.94964 0.22864 0.25898 0.0
H35 H 0.96972 0.24518 0.14816 0.0
H36 H 1.01908 0.27407 0.86219 0.0
H37 H 0.03622 0.27744 0.7494 0.0
H38 H 0.13264 0.29807 0.81193 0.0
H39 H 0.11574 0.29501 0.92491 0.0
Dy40 Dy 0.83213 0.79066 0.48126 0.0
Dy41 Dy 0.80838 0.81271 0.60502 0.0
C42 C 0.83797 0.86283 0.49256 0.0
O43 O 0.87878 0.82128 0.53357 0.0
O44 O 0.85594 0.81189 0.63372 0.0
O45 O 0.8661 0.80241 0.40209 0.0
O46 O 0.82331 0.75399 0.40812 0.0
O47 O 0.78744 0.75928 0.61824 0.0
O48 O 0.82586 0.75335 0.56145 0.0
O49 O 0.77213 0.80542 0.52063 0.0
O50 O 0.77778 0.76433 0.47985 0.0
O51 O 0.76975 0.80409 0.67275 0.0
O52 O 0.81846 0.84623 0.68462 0.0
C53 C 0.88191 0.82056 0.59593 0.0
O54 O 0.82868 0.83688 0.45447 0.0
O55 O 0.84005 0.85962 0.55455 0.0
C56 C 0.83881 0.77808 0.30491 0.0
C57 C 0.82372 0.78587 0.17633 0.0
C58 C 0.81943 0.80344 0.22679 0.0
C59 C 0.82698 0.79965 0.29038 0.0
C60 C 0.84229 0.7598 0.25505 0.0
C61 C 0.83471 0.76359 0.1912 0.0
C62 C 0.84744 0.77482 0.37196 0.0
C63 C 0.8031 0.74327 0.60756 0.0
C64 C 0.76241 0.78098 0.47829 0.0
C65 C 0.7905 0.81898 0.77877 0.0
C66 C 0.79799 0.80627 0.9091 0.0
C67 C 0.80288 0.78879 0.85924 0.0
C68 C 0.7993 0.79519 0.79461 0.0
C69 C 0.78449 0.83564 0.82832 0.0
C70 C 0.78809 0.82927 0.89297 0.0
C71 C 0.78971 0.82791 0.7109 0.0
H72 H 0.81023 0.82015 0.21706 0.0
H73 H 0.82357 0.81359 0.3283 0.0
H74 H 0.85114 0.74286 0.26538 0.0
H75 H 0.83814 0.74968 0.15327 0.0
H76 H 0.81055 0.77096 0.87016 0.0
H77 H 0.80417 0.78214 0.75692 0.0
H78 H 0.77765 0.85404 0.817 0.0
H79 H 0.78351 0.84263 0.93039 0.0
Dy80 Dy 0.2827 0.06193 0.47243 0.0
Dy81 Dy 0.26591 1.01601 0.59662 0.0
C82 C 0.21267 0.99229 0.48559 0.0
O83 O 0.24859 0.07231 0.52766 0.0
O84 O 0.26387 0.06257 0.62571 0.0
O85 O 0.26915 0.08393 0.39516 0.0
O86 O 0.31936 0.09403 0.40313 0.0
O87 O 0.31975 0.04735 0.5883 0.0
O88 O 0.31908 0.09241 0.55477 0.0
O89 O 0.27114 0.98626 0.51305 0.0
O90 O 0.30599 0.03152 0.45496 0.0
O91 O 0.28179 0.99203 0.66559 0.0
O92 O 0.23649 0.99264 0.68135 0.0
C93 C 0.251 0.07685 0.58995 0.0
O94 O 0.23647 1.01256 0.44596 0.0
O95 O 0.21737 0.994 0.548 0.0
C96 C 0.29719 0.08712 0.2977 0.0
C97 C 0.29754 0.06926 0.16719 0.0
C98 C 0.27052 0.0498 0.20729 0.0
C99 C 0.27035 0.05857 0.27175 0.0
C100 C 0.32425 0.10665 0.25779 0.0
C101 C 0.32444 0.09783 0.19311 0.0
C102 C 0.29764 0.0959 0.36661 0.0
C103 C 0.33282 0.07914 0.59089 0.0
C104 C 0.29146 0.99973 0.46335 0.0
C105 C 0.26863 0.99832 0.7733 0.0
C106 C 0.28437 0.02285 0.90109 0.0
C107 C 0.30589 0.03988 0.84981 0.0
C108 C 0.298 0.02784 0.78647 0.0
C109 C 0.24765 0.98084 0.82449 0.0
C110 C 0.25541 0.99294 0.88765 0.0
C111 C 0.25846 0.98656 0.70641 0.0
H112 H 0.24945 0.02768 0.18873 0.0
H113 H 0.2493 0.04273 0.30144 0.0
H114 H 0.34541 0.12853 0.27687 0.0
H115 H 0.34587 0.113 0.16375 0.0
H116 H 0.32875 0.06259 0.85851 0.0
H117 H 0.31458 0.04187 0.74772 0.0
H118 H 0.22482 0.95814 0.8154 0.0
H119 H 0.23818 0.9793 0.92581 0.0
Dy120 Dy 1.02678 0.79638 0.47742 0.0
Dy121 Dy 0.07275 0.81873 0.60274 0.0
C122 C 0.09033 0.78979 0.47536 0.0
O123 O 0.99718 0.76006 0.55965 0.0
O124 O 0.0426 0.76457 0.60768 0.0
O125 O 0.9959 0.75796 0.40995 0.0
O126 O 1.00456 0.80741 0.39674 0.0
O127 O 1.02379 0.81642 0.62991 0.0
O128 O 1.01147 0.82768 0.53026 0.0
O129 O 0.08938 0.8657 0.55084 0.0
O130 O 0.07512 0.84335 0.44996 0.0
O131 O 0.09573 0.85213 0.68271 0.0
O132 O 0.1 0.80845 0.67499 0.0
C133 C 1.01062 0.74972 0.60371 0.0
O134 O 0.05863 0.77446 0.46491 0.0
O135 O 0.10324 0.81221 0.52205 0.0
C136 C 1.00245 0.77802 0.30352 0.0
C137 C 1.02213 0.78361 0.17335 0.0
C138 C 0.04463 0.789 0.22343 0.0
C139 C 0.0349 0.78632 0.28799 0.0
C140 C 0.97961 0.77135 0.25382 0.0
C141 C 0.98932 0.774 0.18924 0.0
C142 C 0.99303 0.7783 0.37113 0.0
C143 C 1.00679 0.82564 0.59252 0.0
C144 C 0.09267 0.86898 0.4883 0.0
C145 C 0.09184 0.82367 0.77873 0.0
C146 C 0.06846 0.80817 0.90668 0.0
C147 C 0.04689 0.80428 0.85577 0.0
C148 C 0.0585 0.81212 0.79256 0.0
C149 C 0.1133 0.82657 0.82893 0.0
C150 C 0.1017 0.81884 0.89249 0.0
C151 C 0.10395 0.83263 0.71203 0.0
H152 H 0.07004 0.79642 0.21269 0.0
H153 H 0.0529 0.79158 0.32583 0.0
H154 H 0.95445 0.76477 0.26494 0.0
H155 H 0.97127 0.769 0.15167 0.0
H156 H 1.021 0.7953 0.86488 0.0
H157 H 0.0414 0.80927 0.75439 0.0
H158 H 0.13906 0.83519 0.81913 0.0
H159 H 0.11885 0.82196 0.93075 0.0
Dy160 Dy 0.2772 0.24624 0.48062 0.0
Dy161 Dy 0.25267 0.26804 0.60528 0.0
C162 C 0.28136 0.31503 0.47975 0.0
O163 O 0.31221 0.25173 0.56559 0.0
O164 O 0.30704 0.29302 0.60704 0.0
O165 O 0.31658 0.2556 0.41432 0.0
O166 O 0.26765 0.2145 0.398 0.0
O167 O 0.25497 0.22144 0.6322 0.0
O168 O 0.24596 0.19921 0.53123 0.0
O169 O 0.2064 0.23678 0.55226 0.0
O170 O 0.22934 0.24618 0.45201 0.0
O171 O 0.21944 0.25661 0.68567 0.0
O172 O 0.26136 0.30552 0.67648 0.0
C173 C 0.32174 0.27571 0.60881 0.0
O174 O 0.29816 0.29997 0.47147 0.0
O175 O 0.25791 0.30434 0.52432 0.0
C176 C 0.29714 0.24425 0.30683 0.0
C177 C 0.29118 0.26148 0.17874 0.0
C178 C 0.28881 0.27926 0.2312 0.0
C179 C 0.2916 0.27062 0.29462 0.0
C180 C 0.30076 0.22725 0.2547 0.0
C181 C 0.29792 0.23585 0.19116 0.0
C182 C 0.29683 0.23313 0.37357 0.0
C183 C 0.2464 0.1958 0.59369 0.0
C184 C 0.2033 0.23708 0.48972 0.0
C185 C 0.24691 0.28345 0.78162 0.0
C186 C 0.26411 0.28058 0.91145 0.0
C187 C 0.26525 0.25938 0.86477 0.0
C188 C 0.25668 0.26074 0.80055 0.0
C189 C 0.24638 0.30511 0.8277 0.0
C190 C 0.25494 0.30373 0.89205 0.0
C191 C 0.23776 0.28488 0.71391 0.0
H192 H 0.2843 0.29955 0.22322 0.0
H193 H 0.2887 0.28408 0.33421 0.0
H194 H 0.30494 0.20677 0.26314 0.0
H195 H 0.29981 0.22167 0.15178 0.0
H196 H 0.27223 0.24131 0.87817 0.0
H197 H 0.2577 0.24407 0.76562 0.0
H198 H 0.23932 0.32306 0.81393 0.0
H199 H 0.25448 0.32084 0.92662 0.0
Dy200 Dy 0.82592 0.04842 0.48113 0.0
Dy201 Dy 0.80252 1.0034 0.60805 0.0
C202 C 0.75714 0.98626 0.47942 0.0
O203 O 0.81965 0.07948 0.56089 0.0
O204 O 0.78153 0.03627 0.62039 0.0
O205 O 0.81653 0.07646 0.4093 0.0
O206 O 0.85914 0.07029 0.40078 0.0
O207 O 0.84939 0.0522 0.63441 0.0
O208 O 0.8727 0.06537 0.53445 0.0
O209 O 0.83404 0.98748 0.55772 0.0
O210 O 0.82466 0.99977 0.45613 0.0
O211 O 0.8135 0.98283 0.6916 0.0
O212 O 0.7635 0.97188 0.67344 0.0
C213 C 0.79759 0.06777 0.60826 0.0
O214 O 0.77178 1.01817 0.47514 0.0
O215 O 0.76719 0.97322 0.52475 0.0
C216 C 0.83115 0.06862 0.30472 0.0
C217 C 0.81184 0.04682 0.1765 0.0
C218 C 0.81371 0.02587 0.22287 0.0
C219 C 0.82322 0.03664 0.28628 0.0
C220 C 0.82948 0.0897 0.25864 0.0
C221 C 0.82004 0.07895 0.19495 0.0
C222 C 0.84036 0.07967 0.3721 0.0
C223 C 0.87532 0.0696 0.59682 0.0
C224 C 0.83338 0.98301 0.49536 0.0
C225 C 0.78167 0.97943 0.78183 0.0
C226 C 0.78392 0.99987 0.91079 0.0
C227 C 0.78317 1.01912 0.85952 0.0
C228 C 0.78211 1.00903 0.79557 0.0
C229 C 0.78139 0.95966 0.83291 0.0
C230 C 0.78248 0.96977 0.89692 0.0
C231 C 0.78376 0.97026 0.71469 0.0
H232 H 0.80827 1.00125 0.2099 0.0
H233 H 0.82423 1.01987 0.32106 0.0
H234 H 0.8354 0.11443 0.27195 0.0
H235 H 0.81885 0.09563 0.16024 0.0
H236 H 0.78382 0.04216 0.86906 0.0
H237 H 0.78231 0.02464 0.75681 0.0
H238 H 0.78122 0.93683 0.82327 0.0
H239 H 0.78342 0.95464 0.93551 0.0
Dy240 Dy 0.68152 0.57346 0.81098 0.0
Dy241 Dy 0.72736 0.59741 0.93685 0.0
C242 C 0.74719 0.56669 0.82444 0.0
O243 O 0.66466 0.52683 0.86396 0.0
O244 O 0.67896 0.5502 0.96412 0.0
O245 O 0.66046 0.54043 0.72982 0.0
O246 O 0.65306 0.5822 0.73899 0.0
O247 O 0.69436 0.61818 0.94865 0.0
O248 O 0.65055 0.57904 0.89153 0.0
O249 O 0.75674 0.63275 0.85268 0.0
O250 O 0.71064 0.62778 0.80881 0.0
O251 O 0.75865 0.63665 1.00254 0.0
O252 O 0.74887 0.58707 1.01991 0.0
C253 C 0.66116 0.52426 0.92646 0.0
O254 O 0.73063 0.57597 0.786 0.0
O255 O 0.74238 0.56521 0.88662 0.0
C256 C 0.66188 0.5685 0.63414 0.0
C257 C 0.6834 0.58722 0.5057 0.0
C258 C 0.70418 0.58472 0.55174 0.0
C259 C 0.69356 0.57549 0.61528 0.0
C260 C 0.64131 0.57164 0.58879 0.0
C261 C 0.65198 0.581 0.52517 0.0
C262 C 0.65066 0.55887 0.70126 0.0
C263 C 0.6627 0.60161 0.93807 0.0
C264 C 0.74264 0.64251 0.8089 0.0
C265 C 0.75185 0.61843 0.11105 0.0
C266 C 0.73088 0.61465 0.2401 0.0
C267 C 0.71355 0.61922 0.1894 0.0
C268 C 0.72383 0.62094 0.1254 0.0
C269 C 0.76999 0.61529 0.16184 0.0
C270 C 0.75967 0.61353 0.22589 0.0
C271 C 0.76087 0.61667 0.04349 0.0
H272 H 0.72848 0.58934 0.53833 0.0
H273 H 0.71013 0.5738 0.64968 0.0
H274 H 0.61703 0.56695 0.60264 0.0
H275 H 0.6357 0.58349 0.49126 0.0
H276 H 0.69169 0.62085 0.19929 0.0
H277 H 0.70945 0.62344 0.08705 0.0
H278 H 0.79162 0.61325 0.15182 0.0
H279 H 0.77346 0.61001 0.2641 0.0
Dy280 Dy 0.48705 0.12152 0.81773 0.0
Dy281 Dy 0.46844 0.15036 0.94066 0.0
C282 C 0.49916 0.19653 0.82202 0.0
O283 O 0.53526 0.14984 0.86662 0.0
O284 O 0.51485 0.14735 0.96797 0.0
O285 O 0.51832 0.12675 0.73672 0.0
O286 O 0.4714 0.08229 0.74734 0.0
O287 O 0.44341 0.0964 0.95314 0.0
O288 O 0.48086 0.08697 0.90315 0.0
O289 O 0.43313 0.14539 0.85655 0.0
O290 O 0.43319 0.09995 0.82491 0.0
O291 O 0.4814 0.18544 1.01844 0.0
O292 O 0.43172 0.14447 1.01127 0.0
C293 C 0.5394 0.15214 0.92911 0.0
O294 O 0.48823 0.16945 0.78661 0.0
O295 O 0.50107 0.195 0.88464 0.0
C296 C 0.48833 0.10273 0.6417 0.0
C297 C 0.47587 0.11192 0.51199 0.0
C298 C 0.46294 0.12186 0.56284 0.0
C299 C 0.4694 0.1176 0.62709 0.0
C300 C 0.50093 0.09241 0.59112 0.0
C301 C 0.49493 0.09716 0.52677 0.0
C302 C 0.49632 0.09954 0.70934 0.0
C303 C 0.45877 0.0797 0.94978 0.0
C304 C 0.42085 0.11923 0.81822 0.0
C305 C 0.45532 0.15912 0.11542 0.0
C306 C 0.45924 0.14131 0.2445 0.0
C307 C 0.47838 0.13821 0.1957 0.0
C308 C 0.47645 0.14701 0.132 0.0
C309 C 0.43595 0.16206 0.16364 0.0
C310 C 0.43798 0.15338 0.22766 0.0
C311 C 0.45328 0.16811 0.04781 0.0
H312 H 0.44864 0.13378 0.55289 0.0
H313 H 0.46016 0.12648 0.66543 0.0
H314 H 0.51582 0.08115 0.60139 0.0
H315 H 0.50522 0.08933 0.48847 0.0
H316 H 0.4947 0.12866 0.20666 0.0
H317 H 0.49132 0.14409 0.09548 0.0
H318 H 0.41943 0.17128 0.1519 0.0
H319 H 0.42337 0.15673 0.26411 0.0
Dy320 Dy 0.93944 0.38478 0.80789 0.0
Dy321 Dy 0.92026 0.33902 0.93245 0.0
C322 C 0.86831 0.3181 0.82188 0.0
O323 O 0.9088 0.39967 0.8639 0.0
O324 O 0.92213 0.38758 0.96181 0.0
O325 O 0.92562 0.40672 0.73101 0.0
O326 O 0.97462 0.41328 0.73319 0.0
O327 O 0.97382 0.37211 0.94339 0.0
O328 O 0.97783 0.41579 0.88665 0.0
O329 O 0.92726 0.31058 0.84755 0.0
O330 O 0.96626 0.35725 0.80165 0.0
O331 O 0.9305 0.3098 0.99964 0.0
O332 O 0.88769 0.31531 1.01297 0.0
C333 C 0.91196 0.40437 0.92604 0.0
O334 O 0.89353 0.33497 0.78257 0.0
O335 O 0.87243 0.32318 0.88394 0.0
C336 C 0.94881 0.4048 0.6314 0.0
C337 C 0.94212 0.38218 0.50269 0.0
C338 C 0.9217 0.36117 0.55164 0.0
C339 C 0.92492 0.37238 0.61521 0.0
C340 C 0.96951 0.42578 0.58295 0.0
C341 C 0.96624 0.41456 0.51911 0.0
C342 C 0.9528 0.41618 0.69901 0.0
C343 C 0.98885 0.40368 0.93245 0.0
C344 C 0.95042 0.32527 0.8029 0.0
C345 C 0.91582 0.3148 0.10643 0.0
C346 C 0.92741 0.335 0.23683 0.0
C347 C 0.94642 0.35683 0.18754 0.0
C348 C 0.94056 0.34686 0.1228 0.0
C349 C 0.8979 0.29254 0.15562 0.0
C350 C 0.9037 0.3025 0.22029 0.0
C351 C 0.90673 0.30538 1.03842 0.0
H352 H 0.90349 0.33585 0.54096 0.0
H353 H 0.90906 0.35551 0.65196 0.0
H354 H 0.98827 0.45078 0.59453 0.0
H355 H 0.98234 0.43129 0.48244 0.0
H356 H 0.96484 0.382 0.19884 0.0
H357 H 0.9546 0.36448 0.08542 0.0
H358 H 0.87876 0.26771 0.14392 0.0
H359 H 0.88914 0.28497 0.25736 0.0
Dy360 Dy 0.68102 0.12268 0.81131 0.0
Dy361 Dy 0.72662 0.14384 0.93683 0.0
C362 C 0.74397 0.116 0.8073 0.0
O363 O 0.65077 0.08514 0.89136 0.0
O364 O 0.69557 0.08986 0.94413 0.0
O365 O 0.65181 0.08553 0.73999 0.0
O366 O 0.65836 0.13445 0.73258 0.0
O367 O 0.67793 0.14202 0.9646 0.0
O368 O 0.66557 0.15352 0.86509 0.0
O369 O 0.74312 0.19121 0.88647 0.0
O370 O 0.72968 0.16959 0.78509 0.0
O371 O 0.74842 0.17618 1.01876 0.0
O372 O 0.75617 0.13478 1.00542 0.0
C373 C 0.66378 0.0743 0.93541 0.0
O374 O 0.71209 0.09978 0.79986 0.0
O375 O 0.7569 0.13821 0.85433 0.0
C376 C 0.65881 0.10827 0.63584 0.0
C377 C 0.67875 0.11226 0.50605 0.0
C378 C 0.70124 0.1326 0.55345 0.0
C379 C 0.69134 0.1307 0.61765 0.0
C380 C 0.63643 0.08746 0.58903 0.0
C381 C 0.6463 0.08941 0.52463 0.0
C382 C 0.64842 0.10634 0.70358 0.0
C383 C 0.66119 0.15167 0.92741 0.0
C384 C 0.74704 0.19493 0.82411 0.0
C385 C 0.74797 0.14738 0.11157 0.0
C386 C 0.72477 0.13165 0.23949 0.0
C387 C 0.70435 0.11388 0.18727 0.0
C388 C 0.7158 0.12177 0.12387 0.0
C389 C 0.7688 0.16444 0.16349 0.0
C390 C 0.75733 0.15657 0.227 0.0
C391 C 0.75889 0.15773 0.04479 0.0
H392 H 0.72636 0.15045 0.54063 0.0
H393 H 0.70912 0.14684 0.65312 0.0
H394 H 0.61132 0.06976 0.60225 0.0
H395 H 0.62861 0.07296 0.48939 0.0
H396 H 0.67937 0.09414 0.19543 0.0
H397 H 0.69932 0.10833 0.08435 0.0
H398 H 0.79364 0.18436 0.15487 0.0
H399 H 0.77358 0.17069 0.26627 0.0
Dy400 Dy 0.94483 0.57824 0.80706 0.0
Dy401 Dy 0.92395 0.60225 0.93351 0.0
C402 C 0.95455 0.64893 0.80552 0.0
O403 O 0.9819 0.58337 0.88687 0.0
O404 O 0.97681 0.62015 0.95139 0.0
O405 O 0.98203 0.5837 0.7386 0.0
O406 O 0.93123 0.54605 0.7241 0.0
O407 O 0.92423 0.55459 0.96067 0.0
O408 O 0.91504 0.53149 0.86027 0.0
O409 O 0.87655 0.56984 0.88443 0.0
O410 O 0.89805 0.58122 0.78346 0.0
O411 O 0.88957 0.59322 1.01065 0.0
O412 O 0.93393 0.6406 1.00337 0.0
C413 C 0.99201 0.6041 0.93666 0.0
O414 O 0.96948 0.63224 0.79512 0.0
O415 O 0.93195 0.63937 0.85169 0.0
C416 C 0.9617 0.57314 0.63191 0.0
C417 C 0.95761 0.59083 0.50333 0.0
C418 C 0.9568 0.60978 0.55515 0.0
C419 C 0.95881 0.60101 0.61885 0.0
C420 C 0.9636 0.55475 0.58052 0.0
C421 C 0.96164 0.56354 0.51678 0.0
C422 C 0.96055 0.56204 0.6988 0.0
C423 C 0.9159 0.52871 0.92284 0.0
C424 C 0.87256 0.57181 0.8227 0.0
C425 C 0.91675 0.61853 0.10742 0.0
C426 C 0.93142 0.61289 0.23747 0.0
C427 C 0.93189 0.59167 0.19009 0.0
C428 C 0.92487 0.59459 0.12574 0.0
C429 C 0.91631 0.63991 0.15432 0.0
C430 C 0.9236 0.63713 0.21895 0.0
C431 C 0.90898 0.62108 1.03945 0.0
H432 H 0.95334 0.63064 0.54659 0.0
H433 H 0.95723 0.61545 0.65803 0.0
H434 H 0.96585 0.53317 0.5897 0.0
H435 H 0.96268 0.54861 0.47793 0.0
H436 H 0.93769 0.57273 0.20296 0.0
H437 H 0.92555 0.57795 0.09027 0.0
H438 H 0.91013 0.65857 0.14105 0.0
H439 H 0.92244 0.65346 0.25454 0.0
Dy440 Dy 0.48964 0.38208 0.81557 0.0
Dy441 Dy 0.46825 0.33522 0.93987 0.0
C442 C 0.42078 0.3172 0.81463 0.0
O443 O 0.48354 0.41099 0.9007 0.0
O444 O 0.44286 0.36434 0.94273 0.0
O445 O 0.4795 0.4115 0.74867 0.0
O446 O 0.52164 0.40509 0.73387 0.0
O447 O 0.51456 0.3842 0.96612 0.0
O448 O 0.53701 0.39733 0.86568 0.0
O449 O 0.49833 0.31937 0.88485 0.0
O450 O 0.4889 0.33429 0.78555 0.0
O451 O 0.4808 0.31414 1.02029 0.0
O452 O 0.43144 0.30635 1.01176 0.0
C453 C 0.45976 0.39634 0.94415 0.0
O454 O 0.43592 0.34902 0.8063 0.0
O455 O 0.43138 0.30434 0.85944 0.0
C456 C 0.49197 0.4043 0.64159 0.0
C457 C 0.47544 0.38244 0.51245 0.0
C458 C 0.46049 0.3605 0.56416 0.0
C459 C 0.46865 0.37132 0.62807 0.0
C460 C 0.50646 0.42644 0.59034 0.0
C461 C 0.49829 0.41563 0.52633 0.0
C462 C 0.50251 0.41499 0.70871 0.0
C463 C 0.54032 0.4012 0.92812 0.0
C464 C 0.49768 0.31666 0.82211 0.0
C465 C 0.45444 0.31502 0.11643 0.0
C466 C 0.45752 0.33639 0.24524 0.0
C467 C 0.47673 0.35879 0.19687 0.0
C468 C 0.47522 0.34822 0.13315 0.0
C469 C 0.4352 0.29258 0.16446 0.0
C470 C 0.43683 0.30313 0.2284 0.0
C471 C 0.45263 0.30396 0.04903 0.0
H472 H 0.44273 0.33484 0.55513 0.0
H473 H 0.45724 0.35378 0.66698 0.0
H474 H 0.52468 0.45192 0.59978 0.0
H475 H 0.51071 0.43302 0.48768 0.0
H476 H 0.49329 0.38445 0.20846 0.0
H477 H 0.49019 0.36602 0.0968 0.0
H478 H 0.41894 0.26689 0.15253 0.0
H479 H 0.42173 0.28534 0.26464 0.0
Dy480 Dy 0.35471 0.90909 0.14648 0.0
Dy481 Dy 0.3971 0.93009 0.27466 0.0
C482 C 0.42 0.89976 0.16247 0.0
O483 O 0.32279 0.8661 0.20671 0.0
O484 O 0.35936 0.87501 0.28948 0.0
O485 O 0.32494 0.87742 0.06876 0.0
O486 O 0.33447 0.92773 0.07546 0.0
O487 O 0.34829 0.91961 0.30794 0.0
O488 O 0.33982 0.93874 0.21479 0.0
O489 O 0.41153 0.97435 0.20608 0.0
O490 O 0.40407 0.94655 0.11393 0.0
O491 O 0.41976 0.97004 0.34263 0.0
O492 O 0.42568 0.92715 0.35413 0.0
C493 C 0.33082 0.85628 0.25921 0.0
O494 O 0.39159 0.89052 0.13208 0.0
O495 O 0.42832 0.91776 0.21473 0.0
C496 C 0.33401 0.90737 0.97251 0.0
C497 C 0.35645 0.92266 0.8446 0.0
C498 C 0.37752 0.92315 0.89356 0.0
C499 C 0.36641 0.91565 0.95705 0.0
C500 C 0.31283 0.90673 0.92392 0.0
C501 C 0.32395 0.91424 0.86024 0.0
C502 C 0.3231 0.90128 1.03982 0.0
C503 C 0.33386 0.93302 0.27747 0.0
C504 C 0.41817 0.97444 0.14387 0.0
C505 C 0.42007 0.95218 0.44832 0.0
C506 C 0.40139 0.94714 0.57864 0.0
C507 C 0.37916 0.94361 0.52942 0.0
C508 C 0.38842 0.94607 0.46481 0.0
C509 C 0.4424 0.95592 0.49726 0.0
C510 C 0.4331 0.95332 0.56203 0.0
C511 C 0.42967 0.9543 0.38029 0.0
H512 H 0.40271 0.9297 0.88282 0.0
H513 H 0.38319 0.91655 0.99419 0.0
H514 H 0.28781 0.90058 0.93527 0.0
H515 H 0.30706 0.91316 0.82317 0.0
H516 H 0.35437 0.93818 0.54083 0.0
H517 H 0.37075 0.94296 0.42774 0.0
H518 H 0.46691 0.96062 0.48536 0.0
H519 H 0.45064 0.9561 0.59919 0.0
Dy520 Dy 0.16199 0.45589 0.13691 0.0
Dy521 Dy 0.13593 0.47667 0.26094 0.0
C522 C 0.16669 0.52764 0.14797 0.0
O523 O 0.20752 0.48748 0.19221 0.0
O524 O 0.18304 0.47579 0.29088 0.0
O525 O 0.19758 0.46796 0.06069 0.0
O526 O 0.15451 0.41952 0.06393 0.0
O527 O 0.11397 0.42277 0.26659 0.0
O528 O 0.1553 0.41884 0.2179 0.0
O529 O 0.10066 0.47066 0.17632 0.0
O530 O 0.10775 0.43152 0.12764 0.0
O531 O 0.09698 0.46621 0.32922 0.0
O532 O 0.1452 0.50889 0.34265 0.0
C533 C 0.20967 0.48586 0.2547 0.0
O534 O 0.15951 0.50233 0.10937 0.0
O535 O 0.16623 0.5241 0.21053 0.0
C536 C 0.17276 0.44356 0.96103 0.0
C537 C 0.15753 0.44806 0.83047 0.0
C538 C 0.16016 0.47154 0.87595 0.0
C539 C 0.16773 0.46935 0.94049 0.0
C540 C 0.17015 0.42006 0.91581 0.0
C541 C 0.16262 0.42228 0.85108 0.0
C542 C 0.17955 0.44047 1.02967 0.0
C543 C 0.13092 0.40774 0.26054 0.0
C544 C 0.09209 0.44798 0.13039 0.0
C545 C 0.11783 0.47961 0.43586 0.0
C546 C 0.12696 0.46482 0.56405 0.0
C547 C 0.12608 0.44487 0.5124 0.0
C548 C 0.12176 0.45231 0.4489 0.0
C549 C 0.11758 0.49891 0.48733 0.0
C550 C 0.12201 0.49155 0.55085 0.0
C551 C 0.11663 0.48952 0.36869 0.0
H552 H 0.1564 0.49167 0.86152 0.0
H553 H 0.16922 0.4876 0.97455 0.0
H554 H 0.17362 0.3998 0.9307 0.0
H555 H 0.16023 0.40353 0.81738 0.0
H556 H 0.12908 0.42369 0.52099 0.0
H557 H 0.12216 0.43711 0.40985 0.0
H558 H 0.1148 0.52019 0.47825 0.0
H559 H 0.12264 0.50743 0.58949 0.0
Dy560 Dy 0.61326 0.71861 0.14919 0.0
Dy561 Dy 0.59248 0.67204 0.27477 0.0
C562 C 0.54128 0.65228 0.16082 0.0
O563 O 0.58148 0.73247 0.20413 0.0
O564 O 0.59376 0.72012 0.30305 0.0
O565 O 0.60137 0.74144 0.07093 0.0
O566 O 0.6503 0.74793 0.07805 0.0
O567 O 0.64658 0.70395 0.28047 0.0
O568 O 0.65039 0.74883 0.23008 0.0
O569 O 0.59709 0.64197 0.19123 0.0
O570 O 0.63555 0.68695 0.13752 0.0
O571 O 0.60255 0.64298 0.34261 0.0
O572 O 0.56092 0.65028 0.3575 0.0
C573 C 0.58338 0.73639 0.26662 0.0
O574 O 0.56641 0.67034 0.12211 0.0
O575 O 0.54497 0.65504 0.22352 0.0
C576 C 0.62729 0.74082 0.97376 0.0
C577 C 0.62461 0.71988 0.84474 0.0
C578 C 0.60277 0.69821 0.8913 0.0
C579 C 0.60406 0.70859 0.95505 0.0
C580 C 0.64903 0.76262 0.92741 0.0
C581 C 0.64758 0.7523 0.86331 0.0
C582 C 0.62938 0.75129 0.04172 0.0
C583 C 0.66151 0.73584 0.27356 0.0
C584 C 0.61884 0.65503 0.14378 0.0
C585 C 0.59055 0.65088 0.44962 0.0
C586 C 0.60735 0.67323 0.57833 0.0
C587 C 0.62421 0.69421 0.52634 0.0
C588 C 0.6159 0.68314 0.46259 0.0
C589 C 0.57407 0.62969 0.5012 0.0
C590 C 0.58235 0.64075 0.56499 0.0
C591 C 0.57981 0.64009 0.38269 0.0
H592 H 0.5844 0.67329 0.87825 0.0
H593 H 0.587 0.69129 0.98992 0.0
H594 H 0.66719 0.78756 0.94084 0.0
H595 H 0.66469 0.76952 0.82841 0.0
H596 H 0.64361 0.71931 0.53499 0.0
H597 H 0.6288 0.69997 0.42336 0.0
H598 H 0.55424 0.60484 0.49215 0.0
H599 H 0.56839 0.6242 0.60381 0.0
Dy600 Dy 0.35396 0.45893 0.14816 0.0
Dy601 Dy 0.40008 0.48452 0.27314 0.0
C602 C 0.41809 0.45403 0.14955 0.0
O603 O 0.32485 0.42389 0.2327 0.0
O604 O 0.37139 0.43027 0.27762 0.0
O605 O 0.32462 0.41962 0.08097 0.0
O606 O 0.33183 0.46839 0.0651 0.0
O607 O 0.35065 0.48129 0.2994 0.0
O608 O 0.33705 0.48961 0.19815 0.0
O609 O 0.41402 0.53014 0.21897 0.0
O610 O 0.40215 0.50597 0.11987 0.0
O611 O 0.42159 0.51875 0.35248 0.0
O612 O 0.42964 0.47736 0.34513 0.0
C613 C 0.33938 0.41502 0.27724 0.0
O614 O 0.38624 0.43727 0.14168 0.0
O615 O 0.43098 0.47814 0.19302 0.0
C616 C 0.33257 0.4392 0.97361 0.0
C617 C 0.35607 0.44598 0.84578 0.0
C618 C 0.37551 0.44647 0.89821 0.0
C619 C 0.36394 0.4433 0.96153 0.0
C620 C 0.31263 0.43746 0.92142 0.0
C621 C 0.32422 0.44072 0.85804 0.0
C622 C 0.3217 0.43931 1.04034 0.0
C623 C 0.33304 0.48913 0.26054 0.0
C624 C 0.41842 0.53247 0.15674 0.0
C625 C 0.42206 0.49255 0.44961 0.0
C626 C 0.40245 0.47518 0.57937 0.0
C627 C 0.38059 0.47608 0.53379 0.0
C628 C 0.39028 0.48469 0.46962 0.0
C629 C 0.44381 0.49126 0.49468 0.0
C630 C 0.43411 0.48263 0.55901 0.0
C631 C 0.4322 0.50114 0.38165 0.0
H632 H 0.39986 0.44979 0.89033 0.0
H633 H 0.37978 0.44477 1.00117 0.0
H634 H 0.28844 0.43448 0.92976 0.0
H635 H 0.30871 0.44031 0.81873 0.0
H636 H 0.35607 0.47048 0.54797 0.0
H637 H 0.37286 0.48504 0.43552 0.0
H638 H 0.46825 0.49677 0.48006 0.0
H639 H 0.45127 0.48151 0.59269 0.0
Dy640 Dy 0.6125 0.90475 0.14595 0.0
Dy641 Dy 0.59304 0.93175 0.27022 0.0
C642 C 0.62117 0.97425 0.13957 0.0
O643 O 0.64918 0.90992 0.2263 0.0
O644 O 0.64676 0.95117 0.27986 0.0
O645 O 0.6489 0.91197 0.07371 0.0
O646 O 0.59939 0.87087 0.06591 0.0
O647 O 0.59313 0.8844 0.3009 0.0
O648 O 0.5831 0.8593 0.20221 0.0
O649 O 0.54504 0.89802 0.22425 0.0
O650 O 0.56508 0.90603 0.12197 0.0
O651 O 0.56115 0.92391 0.35172 0.0
O652 O 0.60397 0.97174 0.33638 0.0
C653 C 0.66075 0.93338 0.27112 0.0
O654 O 0.63806 0.95907 0.14087 0.0
O655 O 0.59778 0.96554 0.18373 0.0
C656 C 0.62582 0.89757 0.96917 0.0
C657 C 0.62296 0.91529 0.8397 0.0
C658 C 0.60059 0.91454 0.88582 0.0
C659 C 0.60201 0.9058 0.94984 0.0
C660 C 0.6486 0.89889 0.92371 0.0
C661 C 0.64725 0.90774 0.85959 0.0
C662 C 0.62751 0.88849 1.03681 0.0
C663 C 0.58408 0.85774 0.26497 0.0
C664 C 0.54008 0.89722 0.16213 0.0
C665 C 0.59076 0.95264 0.44404 0.0
C666 C 0.60579 0.94506 0.57301 0.0
C667 C 0.62641 0.94669 0.52219 0.0
C668 C 0.61886 0.95022 0.45829 0.0
C669 C 0.57082 0.95229 0.49481 0.0
C670 C 0.57831 0.94864 0.55877 0.0
C671 C 0.58072 0.95281 0.37645 0.0
H672 H 0.58162 0.92024 0.87216 0.0
H673 H 0.58448 0.90551 0.98429 0.0
H674 H 0.66751 0.89319 0.93785 0.0
H675 H 0.66538 0.9089 0.82569 0.0
H676 H 0.64817 0.94481 0.53187 0.0
H677 H 0.6346 0.95038 0.41989 0.0
H678 H 0.54894 0.95394 0.48485 0.0
H679 H 0.56197 0.94746 0.59691 0.0
Dy680 Dy 0.1618 0.71643 0.14284 0.0
Dy681 Dy 0.13832 0.66921 0.26619 0.0
C682 C 0.09274 0.65268 0.1377 0.0
O683 O 0.15623 0.74576 0.22809 0.0
O684 O 0.11424 0.69955 0.26859 0.0
O685 O 0.1519 0.74466 0.0722 0.0
O686 O 0.19624 0.74148 0.06554 0.0
O687 O 0.18572 0.71723 0.29322 0.0
O688 O 0.20842 0.72899 0.19316 0.0
O689 O 0.16781 0.65217 0.21258 0.0
O690 O 0.16028 0.66815 0.11279 0.0
O691 O 0.1496 0.64663 0.34573 0.0
O692 O 0.10126 0.64151 0.33847 0.0
C693 C 0.13196 0.73149 0.27078 0.0
O694 O 0.10788 0.68464 0.13227 0.0
O695 O 0.1022 0.63926 0.18364 0.0
C696 C 0.16883 0.73874 0.96821 0.0
C697 C 0.15341 0.71704 0.83858 0.0
C698 C 0.15122 0.6953 0.88772 0.0
C699 C 0.15907 0.70608 0.95156 0.0
C700 C 0.17075 0.76054 0.91973 0.0
C701 C 0.16331 0.74987 0.85539 0.0
C702 C 0.17675 0.74969 1.03607 0.0
C703 C 0.21181 0.73318 0.25549 0.0
C704 C 0.16788 0.64974 0.14987 0.0
C705 C 0.12487 0.6492 0.44248 0.0
C706 C 0.13104 0.67121 0.57124 0.0
C707 C 0.14668 0.69385 0.52111 0.0
C708 C 0.14392 0.68291 0.45733 0.0
C709 C 0.10905 0.62657 0.49249 0.0
C710 C 0.11234 0.63747 0.55654 0.0
C711 C 0.12186 0.63778 0.3751 0.0
H712 H 0.14342 0.66982 0.87682 0.0
H713 H 0.15741 0.68879 0.98812 0.0
H714 H 0.17833 0.78589 0.93149 0.0
H715 H 0.16603 0.76752 0.81873 0.0
H716 H 0.16142 0.71994 0.53146 0.0
H717 H 0.15642 0.70079 0.41945 0.0
H718 H 0.09439 0.60049 0.48207 0.0
H719 H 0.10025 0.61961 0.59463 0.0
C720 C 0.13991 0.37711 0.35423 0.0
C721 C 0.12007 0.37812 0.30344 0.0
C722 C 0.12605 0.35475 0.40714 0.0
C723 C 0.09163 0.33317 0.41255 0.0
H724 H 0.16599 0.39496 0.35511 0.0
H725 H 0.14222 0.35545 0.44534 0.0
S726 S 1.02933 0.32597 0.2904 0.0
N727 N 0.06481 0.35439 0.26067 0.0
N728 N 0.03866 0.31438 0.35865 0.0
C729 C 0.07202 0.33363 0.36042 0.0
C730 C 0.0862 0.35547 0.3066 0.0
C731 C 0.71487 0.78426 0.41989 0.0
C732 C 0.7386 0.77392 0.42199 0.0
C733 C 0.69141 0.77469 0.36845 0.0
C734 C 0.69127 0.75518 0.316 0.0
H735 H 0.71339 0.79851 0.45956 0.0
H736 H 0.67216 0.78104 0.37173 0.0
S737 S 0.74884 0.72323 0.29429 0.0
N738 N 0.76041 0.74373 0.36297 0.0
N739 N 0.71778 0.72736 0.2684 0.0
C740 C 0.71574 0.74626 0.31609 0.0
C741 C 0.73894 0.75521 0.36816 0.0
C742 C 0.29533 0.94964 0.42626 0.0
C743 C 0.29806 0.98035 0.41289 0.0
C744 C 0.30514 0.9337 0.38058 0.0
C745 C 0.31765 0.94734 0.31888 0.0
H746 H 0.28692 0.93848 0.47325 0.0
H747 H 0.30396 0.91087 0.39473 0.0
S748 S 0.32764 0.02596 0.25737 0.0
N749 N 0.31237 0.02263 0.33048 0.0
N750 N 0.33073 0.99272 0.24656 0.0
C751 C 0.31895 0.97711 0.30378 0.0
C752 C 0.30926 0.99353 0.35017 0.0
C753 C 0.37711 0.08043 0.65917 0.0
C754 C 0.35938 0.09624 0.64165 0.0
C755 C 0.39584 0.08816 0.71583 0.0
C756 C 0.39945 0.11324 0.75873 0.0
H757 H 0.37543 0.06048 0.62983 0.0
H758 H 0.40764 0.07374 0.7256 0.0
S759 S 0.36194 0.16602 0.73225 0.0
N760 N 0.34878 0.14051 0.66988 0.0
N761 N 0.38544 0.15618 0.77589 0.0
C762 C 0.38361 0.13101 0.74028 0.0
C763 C 0.36354 0.12246 0.68201 0.0
C764 C 0.95123 0.2754 0.75174 0.0
C765 C 0.95687 0.30789 0.74755 0.0
C766 C 0.96111 0.26141 0.7015 0.0
C767 C 0.97547 0.27857 0.64343 0.0
H768 H 0.94104 0.26144 0.7956 0.0
H769 H 0.95952 0.23792 0.71036 0.0
S770 S 0.99611 0.36405 0.60715 0.0
N771 N 0.97862 0.35666 0.67886 0.0
N772 N 0.99518 0.32971 0.58586 0.0
C773 C 0.98007 0.31036 0.63794 0.0
C774 C 0.97115 0.32503 0.68918 0.0
C775 C 0.80972 0.71228 0.70276 0.0
C776 C 0.79179 0.71281 0.64799 0.0
C777 C 0.79458 0.68896 0.75357 0.0
C778 C 0.76046 0.66587 0.75308 0.0
H779 H 0.83509 0.73129 0.70863 0.0
H780 H 0.80935 0.6902 0.79493 0.0
S781 S 0.70246 0.65743 0.62036 0.0
N782 N 0.73842 0.68763 0.59629 0.0
N783 N 0.7097 0.64526 0.69016 0.0
C784 C 0.74265 0.66589 0.69736 0.0
C785 C 0.75827 0.6889 0.64564 0.0
C786 C 1.00749 0.72976 0.71789 0.0
C787 C 0.99186 0.7256 0.65715 0.0
C788 C 0.99352 0.7064 0.76798 0.0
C789 C 0.96315 0.67726 0.76028 0.0
H790 H 1.03161 0.7509 0.72635 0.0
H791 H 1.00763 0.71034 0.81192 0.0
S792 S 0.91207 0.65334 0.6108 0.0
N793 N 0.94355 0.69 0.59336 0.0
N794 N 0.91855 0.64499 0.68513 0.0
C795 C 0.94699 0.67283 0.70009 0.0
C796 C 0.96086 0.69722 0.64944 0.0
C797 C 0.36734 0.26986 0.66853 0.0
C798 C 0.34468 0.28154 0.66585 0.0
C799 C 0.39027 0.27836 0.72058 0.0
C800 C 0.39077 0.29799 0.77309 0.0
H801 H 0.36852 0.25547 0.62879 0.0
H802 H 0.40895 0.27121 0.71765 0.0
S803 S 0.33593 0.33325 0.79318 0.0
N804 N 0.32421 0.31311 0.72414 0.0
N805 N 0.36567 0.32728 0.82022 0.0
C806 C 0.36712 0.30802 0.7726 0.0
C807 C 0.34459 0.30028 0.71976 0.0
C808 C 0.75034 0.10372 0.69161 0.0
C809 C 0.76353 0.1109 0.75504 0.0
C810 C 0.76372 0.09317 0.64225 0.0
C811 C 0.79105 0.08901 0.65345 0.0
H812 H 0.72832 0.10485 0.68046 0.0
H813 H 0.75118 0.08617 0.59602 0.0
S814 S 0.83599 0.1052 0.80972 0.0
N815 N 0.80697 0.11462 0.82469 0.0
N816 N 0.83104 0.09312 0.73355 0.0
C817 C 0.80522 0.09704 0.71604 0.0
C818 C 0.79194 0.10854 0.76616 0.0
C819 C 0.71848 0.96874 0.31072 0.0
C820 C 0.68798 0.93972 0.31757 0.0
C821 C 0.74095 0.98209 0.36254 0.0
C822 C 0.73433 0.96724 0.42433 0.0
H823 H 0.72415 0.98257 0.2661 0.0
H824 H 0.76326 1.00533 0.35473 0.0
S825 S 0.65803 0.89056 0.46838 0.0
N826 N 0.65221 0.89662 0.39204 0.0
N827 N 0.69512 0.92082 0.48808 0.0
C828 C 0.70464 0.93731 0.43122 0.0
C829 C 0.68134 0.92394 0.37843 0.0
C830 C 0.12937 0.79757 0.38202 0.0
C831 C 0.10931 0.77856 0.43408 0.0
C832 C 0.13795 0.78304 0.33034 0.0
C833 C 0.12585 0.74869 0.32735 0.0
H834 H 0.13694 0.82347 0.37926 0.0
H835 H 0.15282 0.79859 0.29114 0.0
S836 S 0.07307 0.68848 0.45368 0.0
N837 N 0.0793 0.72423 0.48064 0.0
N838 N 0.09322 0.69673 0.38483 0.0
C839 C 0.10649 0.72992 0.38066 0.0
C840 C 0.0988 0.74483 0.43331 0.0
C841 C 0.28823 0.36769 0.33228 0.0
C842 C 0.32199 0.39183 0.33326 0.0
C843 C 0.27368 0.34445 0.38328 0.0
C844 C 0.29185 0.34498 0.43846 0.0
H845 H 0.27338 0.36558 0.29044 0.0
H846 H 0.24869 0.3247 0.37732 0.0
S847 S 0.38029 0.40355 0.46776 0.0
N848 N 0.37262 0.41483 0.39738 0.0
N849 N 0.34491 0.37228 0.49136 0.0
C850 C 0.32494 0.36989 0.44132 0.0
C851 C 0.33998 0.39294 0.38957 0.0
C852 C 1.01617 0.43741 1.03353 0.0
C853 C 1.01865 0.42388 0.97397 0.0
C854 C 0.04059 0.44707 0.08279 0.0
C855 C 0.06779 0.44206 0.07606 0.0
H856 H 0.99413 0.43847 0.04422 0.0
H857 H 0.03699 0.45654 0.12786 0.0
S858 S 0.08431 0.40525 0.93098 0.0
N859 N 0.05021 0.40558 0.91239 0.0
N860 N 0.09497 0.42205 1.00336 0.0
C861 C 0.07041 0.42871 1.01621 0.0
C862 C 0.04617 0.41991 0.96603 0.0
C863 C 0.63774 0.63516 0.97557 0.0
C864 C 0.64205 0.60785 0.98495 0.0
C865 C 0.62841 0.64866 1.02668 0.0
C866 C 0.62258 0.6355 0.08992 0.0
H867 H 0.64393 0.64771 0.92949 0.0
H868 H 0.62725 0.67076 1.01709 0.0
S869 S 0.62963 0.56343 0.14027 0.0
N870 N 0.64036 0.56848 0.06347 0.0
N871 N 0.62018 0.59218 0.15762 0.0
C872 C 0.62504 0.60711 0.09932 0.0
C873 C 0.63559 0.59391 0.04755 0.0
C874 C 0.45992 0.02972 0.99715 0.0
C875 C 0.45141 0.05452 1.00257 0.0
C876 C 0.45074 1.00509 0.04508 0.0
C877 C 0.4336 1.00459 0.10179 0.0
H878 H 0.47262 0.02853 0.95452 0.0
H879 H 0.45629 0.98557 1.03662 0.0
S880 S 0.4059 0.06403 0.14151 0.0
N881 N 0.42472 0.07682 0.07142 0.0
N882 N 0.40897 0.03146 0.16055 0.0
C883 C 0.42613 0.02988 0.10915 0.0
C884 C 0.43463 0.05448 0.05995 0.0
C885 C 0.6255 0.04421 1.0302 0.0
C886 C 0.64461 0.04436 0.9771 0.0
C887 C 0.61664 1.021 0.08164 0.0
C888 C 0.62731 0.99753 0.08306 0.0
H889 H 0.61902 0.06335 1.03401 0.0
H890 H 0.60273 0.02252 0.12186 0.0
S891 S 0.67712 0.98737 0.9537 0.0
N892 N 0.67247 1.01816 0.92831 0.0
N893 N 0.65713 0.97575 1.02277 0.0
C894 C 0.64548 0.99705 1.02855 0.0
C895 C 0.6538 1.02008 0.97651 0.0
C896 C 0.07508 0.64728 1.02147 0.0
C897 C 0.06838 0.6338 0.08452 0.0
C898 C 0.05133 0.63512 0.97153 0.0
C899 C 1.01926 0.60893 0.98198 0.0
H900 H 0.09862 0.66877 1.0113 0.0
H901 H 0.05749 0.64791 0.92566 0.0
S902 S 0.98857 0.5639 0.13713 0.0
N903 N 1.02741 0.59129 0.15296 0.0
N904 N 0.98205 0.56974 0.06109 0.0
C905 C 1.01236 0.5945 0.04426 0.0
C906 C 0.03702 0.6064 0.09478 0.0
C907 C 0.45675 0.46212 0.05538 0.0
C908 C 0.43722 0.44311 0.10794 0.0
C909 C 0.46514 0.44766 1.00336 0.0
C910 C 0.45357 0.41339 1.00078 0.0
H911 H 0.4639 0.48791 0.05238 0.0
H912 H 0.47944 0.46316 0.96361 0.0
S913 S 0.40173 0.35309 0.12777 0.0
N914 N 0.40777 0.38876 0.15477 0.0
N915 N 0.42188 0.36147 0.05889 0.0
C916 C 0.43478 0.39462 0.05457 0.0
C917 C 0.42708 0.40944 0.10733 0.0
C918 C 0.11171 0.20448 0.49785 0.0
C919 C 0.10756 0.22887 0.46649 0.0
C920 C 0.14208 0.2051 0.49769 0.0
C921 C 0.17004 0.23023 0.46638 0.0
H922 H 0.09198 0.18613 0.52727 0.0
H923 H 0.14442 0.18724 0.52714 0.0
S924 S 0.17135 0.29764 0.36982 0.0
N925 N 0.13319 0.27699 0.39723 0.0
N926 N 0.19024 0.27808 0.39681 0.0
C927 C 0.16541 0.25295 0.42954 0.0
C928 C 0.13423 0.25231 0.42965 0.0
C929 C 0.81413 0.92699 0.44377 0.0
C930 C 0.83936 0.95586 0.47318 0.0
C931 C 0.81531 0.89721 0.44272 0.0
C932 C 0.84181 0.89522 0.47095 0.0
H933 H 0.79201 0.92657 0.42668 0.0
H934 H 0.79402 0.875 0.42506 0.0
S935 S 0.91582 0.96473 0.54638 0.0
N936 N 0.89292 0.98097 0.52516 0.0
N937 N 0.89523 0.92586 0.52295 0.0
C938 C 0.86821 0.92463 0.4955 0.0
C939 C 0.86696 0.95463 0.49672 0.0
C940 C 0.14816 0.90527 0.43556 0.0
C941 C 0.11939 0.90186 0.46488 0.0
C942 C 0.17802 0.93602 0.43472 0.0
C943 C 0.18018 0.96451 0.46293 0.0
H944 H 0.14849 0.88355 0.41867 0.0
H945 H 0.20018 0.93674 0.41731 0.0
S946 S 0.11116 0.96955 0.53891 0.0
N947 N 0.09461 0.93054 0.51717 0.0
N948 N 0.15 0.98756 0.51547 0.0
C949 C 0.15092 0.96177 0.4875 0.0
C950 C 0.1208 0.93074 0.48848 0.0
C951 C 0.26701 0.16084 0.64761 0.0
C952 C 0.24146 0.16327 0.61629 0.0
C953 C 0.26803 0.13102 0.64694 0.0
C954 C 0.2438 0.10279 0.61434 0.0
H955 H 0.28788 0.18277 0.66732 0.0
H956 H 0.28939 0.13104 0.6667 0.0
S957 S 0.16882 0.09471 0.53553 0.0
N958 N 0.18907 0.13337 0.56034 0.0
N959 N 0.19116 0.07815 0.55866 0.0
C960 C 0.21658 0.10419 0.58902 0.0
C961 C 0.21543 0.13419 0.58998 0.0
C962 C 0.93691 0.10132 0.60986 0.0
C963 C 0.90617 0.09939 0.61972 0.0
C964 C 0.96666 0.13189 0.6086 0.0
C965 C 0.96708 0.16198 0.61722 0.0
H966 H 0.93773 0.0792 0.59796 0.0
H967 H 0.9892 0.13212 0.59571 0.0
S968 S 0.89339 0.17091 0.64101 0.0
N969 N 0.87838 0.13073 0.63659 0.0
N970 N 0.93375 0.18755 0.63474 0.0
C971 C 0.93672 0.16025 0.6298 0.0
C972 C 0.90647 0.12919 0.63092 0.0
C973 C 0.97402 0.85462 0.59019 0.0
C974 C 0.97821 0.82904 0.61571 0.0
C975 C 0.94335 0.85351 0.59185 0.0
C976 C 0.91506 0.82666 0.61879 0.0
H977 H 0.99408 0.87462 0.56422 0.0
H978 H 0.94113 0.87265 0.56683 0.0
S979 S 0.91297 0.75409 0.69605 0.0
N980 N 0.95171 0.77694 0.67292 0.0
N981 N 0.89414 0.7747 0.67542 0.0
C982 C 0.91945 0.80205 0.64886 0.0
C983 C 0.95093 0.80327 0.64746 0.0
C984 C 0.81088 0.53913 0.82477 0.0
C985 C 0.83963 0.56704 0.80216 0.0
C986 C 0.78006 0.53775 0.82529 0.0
C987 C 0.7763 0.56408 0.80262 0.0
H988 H 0.81267 0.51906 0.8467 0.0
H989 H 0.7594 0.51676 0.84782 0.0
S990 S 0.84337 0.64308 0.73903 0.0
N991 N 0.86185 0.62188 0.75738 0.0
N992 N 0.80394 0.61864 0.75536 0.0
C993 C 0.80429 0.59131 0.77628 0.0
C994 C 0.8359 0.59297 0.77686 0.0
C995 C 0.47658 0.26068 0.77088 0.0
C996 C 0.50308 0.28981 0.79662 0.0
C997 C 0.47699 0.23056 0.77072 0.0
C998 C 0.50388 0.22851 0.7965 0.0
H999 H 0.4541 0.26034 0.75687 0.0
H1000 H 0.45482 0.20825 0.75652 0.0
S1001 S 0.58101 0.29845 0.86122 0.0
N1002 N 0.55825 0.31507 0.84163 0.0
N1003 N 0.55899 0.25913 0.84144 0.0
C1004 C 0.53155 0.25808 0.81662 0.0
C1005 C 0.53115 0.28849 0.81671 0.0
C1006 C 0.80284 0.23102 0.77191 0.0
C1007 C 0.77426 0.22781 0.80178 0.0
C1008 C 0.83294 0.26158 0.77138 0.0
C1009 C 0.83555 0.29003 0.80077 0.0
H1010 H 0.80279 0.20925 0.75406 0.0
H1011 H 0.85489 0.26216 0.75312 0.0
S1012 S 0.76701 0.29562 0.87787 0.0
N1013 N 0.75007 0.2567 0.85535 0.0
N1014 N 0.80584 0.31333 0.85445 0.0
C1015 C 0.80645 0.2875 0.82592 0.0
C1016 C 0.7761 0.25669 0.8264 0.0
C1017 C 0.88343 0.46723 0.93751 0.0
C1018 C 0.9131 0.49717 0.94668 0.0
C1019 C 0.88242 0.43651 0.93878 0.0
C1020 C 0.91102 0.43421 0.94949 0.0
H1021 H 0.86122 0.46768 0.92443 0.0
H1022 H 0.8595 0.41455 0.92635 0.0
S1023 S 0.99531 0.50517 0.97233 0.0
N1024 N 0.97194 0.5222 0.96457 0.0
N1025 N 0.96992 0.46504 0.96836 0.0
C1026 C 0.94051 0.46385 0.96144 0.0
C1027 C 0.94159 0.4951 0.95959 0.0
C1028 C 0.60202 0.43229 0.93447 0.0
C1029 C 0.57179 0.43008 0.95113 0.0
C1030 C 0.63182 0.46272 0.93436 0.0
C1031 C 0.63281 0.4925 0.95012 0.0
H1032 H 0.60228 0.41065 0.91676 0.0
H1033 H 0.65388 0.46328 0.91674 0.0
S1034 S 0.56018 0.50035 0.99468 0.0
N1035 N 0.54488 0.46032 0.98512 0.0
N1036 N 0.60011 0.51737 0.9809 0.0
C1037 C 0.60288 0.49038 0.96911 0.0
C1038 C 0.57265 0.45925 0.9707 0.0
C1039 C 0.60496 0.13065 0.97863 0.0
C1040 C 0.63371 0.15676 0.95104 0.0
C1041 C 0.57466 0.13083 0.97922 0.0
C1042 C 0.57199 0.15719 0.9525 0.0
H1043 H 0.60505 0.10861 0.99422 0.0
H1044 H 0.55262 0.1089 0.99515 0.0
S1045 S 0.64068 0.23305 0.88168 0.0
N1046 N 0.65786 0.21093 0.90227 0.0
N1047 N 0.60165 0.21122 0.90341 0.0
C1048 C 0.60116 0.1844 0.92979 0.0
C1049 C 0.63175 0.18421 0.92911 0.0
C1050 C 0.47878 0.86732 0.17554 0.0
C1051 C 0.5067 0.89103 0.14159 0.0
C1052 C 0.44865 0.86733 0.17455 0.0
C1053 C 0.44491 0.89102 0.13953 0.0
H1054 H 0.48099 0.85016 0.20739 0.0
H1055 H 0.42909 0.85055 0.20632 0.0
S1056 S 0.50932 0.95693 1.0383 0.0
N1057 N 0.52764 0.93732 0.06782 0.0
N1058 N 0.47124 0.9375 0.06646 0.0
C1059 C 0.47179 0.91325 0.1014 0.0
C1060 C 0.50255 0.91316 0.10211 0.0
C1061 C 0.14625 0.59376 0.09784 0.0
C1062 C 0.17279 0.62242 0.12498 0.0
C1063 C 0.1459 0.56323 0.09764 0.0
C1064 C 0.17207 0.56026 0.12461 0.0
H1065 H 0.12428 0.59412 0.08247 0.0
H1066 H 0.1237 0.54131 0.08199 0.0
S1067 S 0.24883 0.62856 0.19439 0.0
N1068 N 0.22711 0.64614 0.17348 0.0
N1069 N 0.22642 0.58948 0.17319 0.0
C1070 C 0.19971 0.58931 0.14677 0.0
C1071 C 0.20009 0.62013 0.1469 0.0
C1072 C 0.50555 0.59666 0.10845 0.0
C1073 C 0.50862 0.62547 0.1369 0.0
C1074 C 0.47486 0.5668 0.10686 0.0
C1075 C 0.44615 0.56473 0.13359 0.0
H1076 H 0.52747 0.59632 0.09289 0.0
H1077 H 0.47437 0.5446 0.09045 0.0
S1078 S 0.44025 0.63417 0.20555 0.0
N1079 N 0.47952 0.65057 0.18599 0.0
N1080 N 0.42247 0.59524 0.18264 0.0
C1081 C 0.44857 0.59414 0.15671 0.0
C1082 C 0.47958 0.62423 0.15855 0.0
C1083 C 0.60734 0.79363 0.31149 0.0
C1084 C 0.57944 0.7642 0.29121 0.0
C1085 C 0.60762 0.82399 0.31072 0.0
C1086 C 0.57981 0.82606 0.29094 0.0
H1087 H 0.63021 0.79386 0.32125 0.0
H1088 H 0.63085 0.84625 0.3187 0.0
S1089 S 0.49962 0.75562 0.23934 0.0
N1090 N 0.52263 0.7388 0.25523 0.0
N1091 N 0.5229 0.7953 0.25531 0.0
C1092 C 0.55105 0.79634 0.27561 0.0
C1093 C 0.5509 0.76563 0.27553 0.0
C1094 C 0.30335 0.7951 0.25169 0.0
C1095 C 0.30551 0.82292 0.28236 0.0
C1096 C 0.2735 0.76478 0.24966 0.0
C1097 C 0.24438 0.76075 0.27838 0.0
H1098 H 0.32401 0.79759 0.22376 0.0
H1099 H 0.27258 0.74502 0.22085 0.0
S1100 S 0.23728 0.82531 0.36854 0.0
N1101 N 0.27621 0.84385 0.34526 0.0
N1102 N 0.22049 0.78692 0.34246 0.0
C1103 C 0.24686 0.78758 0.31365 0.0
C1104 C 0.27725 0.81862 0.31518 0.0
C1105 C 0.27618 0.46663 0.30903 0.0
C1106 C 0.3049 0.49336 0.28276 0.0
C1107 C 0.2454 0.4658 0.30759 0.0
C1108 C 0.24224 0.49165 0.27979 0.0
H1109 H 0.27678 0.44492 0.3251 0.0
H1110 H 0.22352 0.44348 0.32259 0.0
S1111 S 0.31064 0.56889 0.21244 0.0
N1112 N 0.32847 0.54757 0.23454 0.0
N1113 N 0.27138 0.54606 0.23195 0.0
C1114 C 0.27134 0.51953 0.2587 0.0
C1115 C 0.30239 0.52036 0.26012 0.0
C1116 C 0.04966 0.2516 0.07454 0.0
C1117 C 1.03203 0.26569 0.10189 0.0
C1118 C 0.06084 0.25819 1.01059 0.0
C1119 C 0.0549 0.27917 0.9711 0.0
H1120 H 0.05435 0.2348 0.10247 0.0
H1121 H 0.0737 0.24617 0.99149 0.0
S1122 S 1.01257 0.32478 1.02114 0.0
N1123 N 1.0109 0.30326 0.08567 0.0
N1124 N 1.03188 0.31561 0.96532 0.0
C1125 C 0.03782 0.29395 0.9981 0.0
C1126 C 1.02641 0.28723 0.06343 0.0
C1127 C 0.79749 0.76459 0.06768 0.0
C1128 C 0.8174 0.7914 0.10827 0.0
C1129 C 0.79116 0.76952 1.00346 0.0
C1130 C 0.80449 0.80143 0.9775 0.0
H1131 H 0.78641 0.73964 0.08592 0.0
H1132 H 0.77545 0.7482 0.97408 0.0
S1133 S 0.86081 0.87963 0.06184 0.0
N1134 N 0.85209 0.85083 0.11658 0.0
N1135 N 0.84026 0.86006 0.99628 0.0
C1136 C 0.82489 0.82837 1.01732 0.0
C1137 C 0.83132 0.82336 0.08253 0.0
C1138 C 0.28907 0.02639 0.08487 0.0
C1139 C 0.29748 0.05907 0.09897 0.0
C1140 C 0.28605 1.01527 1.02095 0.0
C1141 C 0.29116 0.03632 0.96829 0.0
H1142 H 0.2844 1.00909 0.12366 0.0
H1143 H 0.27922 0.9898 1.01274 0.0
S1144 S 0.31369 0.12427 0.97915 0.0
N1145 N 0.31133 0.11253 0.05504 0.0
N1146 N 0.30528 0.09164 0.93496 0.0
C1147 C 0.3004 0.06933 0.98174 0.0
C1148 C 0.30363 0.08068 0.04696 0.0
C1149 C 0.06338 0.78227 1.01567 0.0
C1150 C 0.05641 0.80198 0.97451 0.0
C1151 C 0.05205 0.7762 0.07974 0.0
C1152 C 1.03332 0.78959 0.10496 0.0
H1153 H 0.07741 0.7712 0.99804 0.0
H1154 H 0.05778 0.7607 0.1096 0.0
S1155 S 1.01108 0.84536 1.01897 0.0
N1156 N 1.03137 0.8365 0.96494 0.0
N1157 N 1.01014 0.8251 0.08488 0.0
C1158 C 1.02664 0.80972 0.06455 0.0
C1159 C 0.03817 0.81591 0.99953 0.0
C1160 C 0.30655 0.27148 0.06119 0.0
C1161 C 0.28498 0.2684 0.11145 0.0
C1162 C 0.30002 0.27609 0.99691 0.0
C1163 C 0.27167 0.27778 0.98036 0.0
H1164 H 0.3286 0.27022 0.07162 0.0
H1165 H 0.31725 0.27823 0.95981 0.0
S1166 S 0.20659 0.26953 0.09336 0.0
N1167 N 0.23366 0.26647 0.13982 0.0
N1168 N 0.22147 0.27513 1.01941 0.0
C1169 C 0.25006 0.27497 1.0302 0.0
C1170 C 0.25668 0.27027 0.09556 0.0
C1171 C 0.82209 0.05505 0.05725 0.0
C1172 C 0.80251 0.03544 0.10861 0.0
C1173 C 0.81529 0.04371 0.99326 0.0
C1174 C 0.78871 1.01231 0.97821 0.0
H1175 H 0.84348 0.0789 0.06677 0.0
H1176 H 0.83162 0.05922 0.95548 0.0
S1177 S 0.72752 0.95323 0.09384 0.0
N1178 N 0.75357 0.98443 0.13925 0.0
N1179 N 0.74105 0.96303 1.01905 0.0
C1180 C 0.76819 0.99301 1.0287 0.0
C1181 C 0.77502 1.00459 0.09382 0.0
C1182 C 0.73772 0.62788 0.35878 0.0
C1183 C 0.71779 0.6088 0.3071 0.0
C1184 C 0.72617 0.62132 0.42269 0.0
C1185 C 0.69432 0.59533 0.4373 0.0
H1186 H 0.76244 0.64793 0.34973 0.0
H1187 H 0.74237 0.6366 0.46102 0.0
S1188 S 0.63334 0.53697 0.31942 0.0
N1189 N 0.66525 0.56226 0.27497 0.0
N1190 N 0.64357 0.54985 0.39456 0.0
C1191 C 0.67418 0.57621 0.38588 0.0
C1192 C 0.68592 0.58294 0.32099 0.0
C1193 C 0.49807 0.13613 0.40315 0.0
C1194 C 0.47078 0.11834 0.44372 0.0
C1195 C 0.49404 0.14341 0.33916 0.0
C1196 C 0.46252 0.13296 0.31281 0.0
H1197 H 0.52281 0.14504 0.4214 0.0
H1198 H 0.51591 0.1578 0.31037 0.0
S1199 S 0.383 0.08283 0.39765 0.0
N1200 N 0.41116 0.08895 0.45247 0.0
N1201 N 0.40339 0.10186 0.33176 0.0
C1202 C 0.43496 0.11449 0.35265 0.0
C1203 C 0.43914 0.10736 0.41808 0.0
C1204 C 0.96209 0.36372 0.33455 0.0
C1205 C 0.93088 0.34666 0.30481 0.0
C1206 C 0.96563 0.37525 0.39841 0.0
C1207 C 0.93809 0.37025 0.43476 0.0
H1208 H 0.98389 0.36789 0.30849 0.0
H1209 H 0.99003 0.38781 0.41974 0.0
S1210 S 0.85147 0.32983 0.37692 0.0
N1211 N 0.87229 0.32714 0.31526 0.0
N1212 N 0.87891 0.34889 0.43464 0.0
C1213 C 0.90688 0.35375 0.40505 0.0
C1214 C 0.90329 0.34196 0.34031 0.0
C1215 C 0.73 0.12131 0.35682 0.0
C1216 C 0.71185 0.12518 0.30668 0.0
C1217 C 0.71887 0.11657 0.42092 0.0
C1218 C 0.68917 0.11554 0.43735 0.0
H1219 H 0.75299 0.12195 0.34642 0.0
H1220 H 0.73364 0.11371 0.45796 0.0
S1221 S 0.63358 0.12646 0.32466 0.0
N1222 N 0.66335 0.1289 0.27826 0.0
N1223 N 0.6425 0.12002 0.39848 0.0
C1224 C 0.6708 0.11936 0.38766 0.0
C1225 C 0.68212 0.12418 0.32246 0.0
C1226 C 0.92283 0.57681 0.33298 0.0
C1227 C 0.93811 0.60859 0.30604 0.0
C1228 C 0.92945 0.5715 0.39641 0.0
C1229 C 0.95167 0.59773 0.43585 0.0
H1230 H 0.90537 0.55576 0.30485 0.0
H1231 H 0.91665 0.54657 0.41495 0.0
S1232 S 0.99882 0.6858 0.38801 0.0
N1233 N 0.97688 0.66675 0.32331 0.0
N1234 N 0.98928 0.65685 0.44291 0.0
C1235 C 0.96702 0.62977 0.40974 0.0
C1236 C 0.96025 0.63517 0.34485 0.0
C1237 C 0.46576 0.33064 0.36336 0.0
C1238 C 0.45998 0.34755 0.31345 0.0
C1239 C 0.4701 0.34177 0.42751 0.0
C1240 C 0.46878 0.37023 0.44445 0.0
H1241 H 0.46783 0.30911 0.3525 0.0
H1242 H 0.47541 0.32843 0.46388 0.0
S1243 S 0.45039 0.42106 0.33295 0.0
N1244 N 0.45054 0.39264 0.28607 0.0
N1245 N 0.45858 0.41351 0.40654 0.0
C1246 C 0.46194 0.38675 0.3953 0.0
C1247 C 0.45757 0.37542 0.32994 0.0
C1248 C 0.39519 0.92028 0.6857 0.0
C1249 C 0.39086 0.94252 0.647 0.0
C1250 C 0.3841 0.91417 0.74959 0.0
C1251 C 0.3683 0.93007 0.77713 0.0
H1252 H 0.40661 0.90696 0.66601 0.0
H1253 H 0.38742 0.8964 0.77731 0.0
S1254 S 0.35373 0.99277 0.69808 0.0
N1255 N 0.37153 0.98201 0.64184 0.0
N1256 N 0.35073 0.97054 0.76228 0.0
C1257 C 0.36442 0.95289 0.73944 0.0
C1258 C 0.37571 0.95912 0.67429 0.0
C1259 C 0.1224 0.4552 0.74722 0.0
C1260 C 0.14921 0.45054 0.76195 0.0
C1261 C 0.115 0.45915 0.68321 0.0
C1262 C 0.13412 0.45864 0.63129 0.0
H1263 H 0.10702 0.45582 0.78557 0.0
H1264 H 0.09414 0.46269 0.67431 0.0
S1265 S 0.20787 0.44869 0.64426 0.0
N1266 N 0.19533 0.44637 0.71948 0.0
N1267 N 0.18165 0.45401 0.59944 0.0
C1268 C 0.16088 0.45381 0.6454 0.0
C1269 C 0.16836 0.44971 0.71057 0.0
C1270 C 0.62031 0.72721 0.72562 0.0
C1271 C 0.62275 0.70873 0.77671 0.0
C1272 C 0.61613 0.71593 0.66157 0.0
C1273 C 0.61435 0.68578 0.64604 0.0
H1274 H 0.62059 0.75008 0.73543 0.0
H1275 H 0.61326 0.73049 0.62416 0.0
S1276 S 0.62376 0.63034 0.76129 0.0
N1277 N 0.62597 0.66029 0.80687 0.0
N1278 N 0.61842 0.63921 0.68666 0.0
C1279 C 0.6181 0.66775 0.69644 0.0
C1280 C 0.62224 0.67919 0.76163 0.0
C1281 C 0.35023 0.43233 0.72726 0.0
C1282 C 0.36937 0.4525 0.77872 0.0
C1283 C 0.36139 0.43939 0.66321 0.0
C1284 C 0.39214 0.4669 0.64802 0.0
H1285 H 0.32633 0.41099 0.73656 0.0
H1286 H 0.34573 0.42325 0.62517 0.0
S1287 S 0.45117 0.52818 0.76461 0.0
N1288 N 0.42034 0.50156 0.80978 0.0
N1289 N 0.44126 0.51471 0.68971 0.0
C1290 C 0.41168 0.48703 0.69905 0.0
C1291 C 0.40032 0.47987 0.76423 0.0
C1292 C 0.61612 0.95048 0.75607 0.0
C1293 C 0.62044 0.9235 0.77104 0.0
C1294 C 0.61188 0.95761 0.69201 0.0
C1295 C 0.61196 0.93815 0.64032 0.0
H1296 H 0.61594 0.96621 0.79423 0.0
H1297 H 0.60851 0.97853 0.68286 0.0
S1298 S 0.62067 0.86379 0.65348 0.0
N1299 N 0.62345 0.87665 0.72864 0.0
N1300 N 0.61572 0.89017 0.60863 0.0
C1301 C 0.61643 0.91124 0.65454 0.0
C1302 C 0.62064 0.90391 0.71971 0.0
C1303 C 0.15368 0.67443 0.68191 0.0
C1304 C 0.13561 0.68268 0.63915 0.0
C1305 C 0.15933 0.68578 0.74589 0.0
C1306 C 0.14681 0.70554 0.76998 0.0
H1307 H 0.16398 0.65951 0.66541 0.0
H1308 H 0.17407 0.67933 0.7765 0.0
S1309 S 0.09542 0.73162 0.67782 0.0
N1310 N 0.10409 0.71059 0.62505 0.0
N1311 N 0.11365 0.73113 0.74593 0.0
C1312 C 0.12809 0.71342 0.72764 0.0
C1313 C 0.12272 0.70215 0.66215 0.0
loop_
_geom_bond_atom_site_label_1
_geom_bond_atom_site_label_2
_geom_bond_distance
_geom_bond_site_symmetry_2
_ccdc_geom_bond_type
Dy0 O3 2.307 . S
Dy0 O5 2.395 1_655 S
Dy0 O6 2.379 . S
Dy0 O8 2.339 . S
Dy0 O10 2.298 1_655 S
Dy0 O14 2.275 1_655 S
Dy0 C22 2.738 . S
Dy1 O4 2.298 1_455 S
Dy1 O7 2.275 1_455 S
Dy1 O9 2.307 . S
Dy1 O11 2.383 1_455 S
Dy1 O12 2.379 . S
Dy1 O15 2.339 . S
Dy1 C31 2.738 . S
C2 O14 1.254 . S
C2 O15 1.257 . S
O3 Dy0 2.307 . S
O3 C13 1.266 . S
O4 Dy1 2.298 1_655 S
O4 C13 1.236 . S
O5 Dy0 2.395 1_455 S
O5 C22 1.255 1_455 S
O6 Dy0 2.379 . S
O6 C22 1.249 . S
O7 Dy1 2.275 1_655 S
O7 C23 1.254 . S
O8 Dy0 2.339 . S
O8 C23 1.257 . S
O9 Dy1 2.307 . S
O9 C24 1.266 . S
O10 Dy0 2.298 1_455 S
O10 C24 1.236 . S
O11 Dy1 2.383 1_655 S
O11 C31 1.234 1_655 S
O12 Dy1 2.379 . S
O12 C31 1.249 . S
C13 O3 1.266 . S
C13 O4 1.236 . S
O14 Dy0 2.275 1_455 S
O14 C2 1.254 . S
O15 Dy1 2.339 . S
O15 C2 1.257 . S
C16 C19 1.344 1_655 S
C16 C20 1.328 . S
C16 C22 1.516 . S
C17 C18 1.304 . S
C17 C21 1.323 1_455 S
C18 C17 1.304 . S
C18 C19 1.371 . S
C18 H32 0.930 . S
C19 C16 1.344 1_455 S
C19 C18 1.371 . S
C19 H33 0.931 . S
C20 C16 1.328 . S
C20 C21 1.433 . S
C20 H34 0.931 . S
C21 C17 1.323 1_655 S
C21 C20 1.433 . S
C21 H35 0.933 . S
C22 Dy0 2.738 . S
C22 O5 1.255 1_655 S
C22 O6 1.249 . S
C22 C16 1.516 . S
C23 O7 1.254 . S
C23 O8 1.257 . S
C24 O9 1.266 . S
C24 O10 1.236 . S
C25 C28 1.344 1_455 S
C25 C29 1.328 . S
C25 C31 1.516 . S
C26 C27 1.304 1_455 S
C26 C30 1.323 . S
C27 C26 1.304 1_655 S
C27 C28 1.371 . S
C27 H36 0.930 . S
C28 C25 1.344 1_655 S
C28 C27 1.371 . S
C28 H37 0.931 . S
C29 C25 1.328 . S
C29 C30 1.433 . S
C29 H38 0.931 . S
C30 C26 1.323 . S
C30 C29 1.433 . S
C30 H39 0.933 . S
C31 Dy1 2.738 . S
C31 O11 1.234 1_455 S
C31 O12 1.249 . S
C31 C25 1.516 . S
H32 C18 0.930 . S
H33 C19 0.931 . S
H34 C20 0.931 . S
H35 C21 0.933 . S
H36 C27 0.930 . S
H37 C28 0.931 . S
H38 C29 0.931 . S
H39 C30 0.933 . S
Dy40 O43 2.307 . S
Dy40 O45 2.395 . S
Dy40 O46 2.379 . S
Dy40 O48 2.339 . S
Dy40 O50 2.298 . S
Dy40 O54 2.275 . S
Dy40 C62 2.738 . S
Dy41 O44 2.298 . S
Dy41 O47 2.275 . S
Dy41 O49 2.307 . S
Dy41 O51 2.395 . S
Dy41 O52 2.379 . S
Dy41 O55 2.339 . S
Dy41 C71 2.738 . S
C42 O54 1.254 . S
C42 O55 1.257 . S
O43 Dy40 2.307 . S
O43 C53 1.266 . S
O44 Dy41 2.298 . S
O44 C53 1.236 . S
O45 Dy40 2.395 . S
O45 C62 1.255 . S
O46 Dy40 2.379 . S
O46 C62 1.249 . S
O47 Dy41 2.275 . S
O47 C63 1.254 . S
O48 Dy40 2.339 . S
O48 C63 1.257 . S
O49 Dy41 2.307 . S
O49 C64 1.266 . S
O50 Dy40 2.298 . S
O50 C64 1.236 . S
O51 Dy41 2.395 . S
O51 C71 1.255 . S
O52 Dy41 2.379 . S
O52 C71 1.249 . S
C53 O43 1.266 . S
C53 O44 1.236 . S
O54 Dy40 2.275 . S
O54 C42 1.254 . S
O55 Dy41 2.339 . S
O55 C42 1.257 . S
C56 C59 1.344 . S
C56 C60 1.328 . S
C56 C62 1.516 . S
C57 C58 1.304 . S
C57 C61 1.323 . S
C58 C57 1.304 . S
C58 C59 1.371 . S
C58 H72 0.930 . S
C59 C56 1.344 . S
C59 C58 1.371 . S
C59 H73 0.931 . S
C60 C56 1.328 . S
C60 C61 1.433 . S
C60 H74 0.931 . S
C61 C57 1.323 . S
C61 C60 1.433 . S
C61 H75 0.933 . S
C62 Dy40 2.738 . S
C62 O45 1.255 . S
C62 O46 1.249 . S
C62 C56 1.516 . S
C63 O47 1.254 . S
C63 O48 1.257 . S
C64 O49 1.266 . S
C64 O50 1.236 . S
C65 C68 1.344 . S
C65 C69 1.328 . S
C65 C71 1.516 . S
C66 C67 1.304 . S
C66 C70 1.323 . S
C67 C66 1.304 . S
C67 C68 1.371 . S
C67 H76 0.930 . S
C68 C65 1.344 . S
C68 C67 1.371 . S
C68 H77 0.931 . S
C69 C65 1.328 . S
C69 C70 1.433 . S
C69 H78 0.931 . S
C70 C66 1.323 . S
C70 C69 1.433 . S
C70 H79 0.933 . S
C71 Dy41 2.738 . S
C71 O51 1.255 . S
C71 O52 1.249 . S
C71 C65 1.516 . S
H72 C58 0.930 . S
H73 C59 0.931 . S
H74 C60 0.931 . S
H75 C61 0.933 . S
H76 C67 0.930 . S
H77 C68 0.931 . S
H78 C69 0.931 . S
H79 C70 0.933 . S
Dy80 O83 2.307 . S
Dy80 O85 2.395 . S
Dy80 O86 2.379 . S
Dy80 O88 2.339 . S
Dy80 O90 2.298 1_545 S
Dy80 O94 2.275 1_545 S
Dy80 C102 2.738 . S
Dy81 O84 2.298 1_565 S
Dy81 O87 2.275 1_565 S
Dy81 O89 2.307 . S
Dy81 O91 2.395 1_565 S
Dy81 O92 2.379 . S
Dy81 O95 2.339 . S
Dy81 C111 2.738 . S
C82 O94 1.254 . S
C82 O95 1.257 . S
O83 Dy80 2.307 . S
O83 C93 1.266 . S
O84 Dy81 2.298 1_545 S
O84 C93 1.236 . S
O85 Dy80 2.395 . S
O85 C102 1.255 . S
O86 Dy80 2.379 . S
O86 C102 1.249 . S
O87 Dy81 2.275 1_545 S
O87 C103 1.254 . S
O88 Dy80 2.339 . S
O88 C103 1.257 . S
O89 Dy81 2.307 . S
O89 C104 1.266 . S
O90 Dy80 2.298 1_565 S
O90 C104 1.236 . S
O91 Dy81 2.395 1_545 S
O91 C111 1.255 1_545 S
O92 Dy81 2.379 . S
O92 C111 1.249 . S
C93 O83 1.266 . S
C93 O84 1.236 . S
O94 Dy80 2.275 1_565 S
O94 C82 1.254 . S
O95 Dy81 2.339 . S
O95 C82 1.257 . S
C96 C99 1.344 1_545 S
C96 C100 1.328 . S
C96 C102 1.516 . S
C97 C98 1.304 1_545 S
C97 C101 1.323 . S
C98 C97 1.304 1_565 S
C98 C99 1.371 . S
C98 H112 0.930 . S
C99 C96 1.344 1_565 S
C99 C98 1.371 . S
C99 H113 0.931 . S
C100 C96 1.328 . S
C100 C101 1.433 . S
C100 H114 0.931 . S
C101 C97 1.323 . S
C101 C100 1.433 . S
C101 H115 0.933 . S
C102 Dy80 2.738 . S
C102 O85 1.255 . S
C102 O86 1.249 . S
C102 C96 1.516 . S
C103 O87 1.254 . S
C103 O88 1.257 . S
C104 O89 1.266 . S
C104 O90 1.236 . S
C105 C108 1.366 . S
C105 C109 1.314 1_545 S
C105 C111 1.510 1_545 S
C106 C107 1.304 . S
C106 C110 1.323 1_545 S
C107 C106 1.304 . S
C107 C108 1.371 . S
C107 H116 0.930 . S
C108 C105 1.366 . S
C108 C107 1.371 . S
C108 H117 0.931 . S
C109 C105 1.314 1_565 S
C109 C110 1.433 . S
C109 H118 0.931 . S
C110 C106 1.323 1_565 S
C110 C109 1.433 . S
C110 H119 0.933 . S
C111 Dy81 2.738 . S
C111 O91 1.255 1_565 S
C111 O92 1.249 . S
C111 C105 1.510 1_565 S
H112 C98 0.930 . S
H113 C99 0.931 . S
H114 C100 0.931 . S
H115 C101 0.933 . S
H116 C107 0.930 . S
H117 C108 0.931 . S
H118 C109 0.931 . S
H119 C110 0.933 . S
Dy120 O123 2.307 . S
Dy120 O125 2.395 1_655 S
Dy120 O126 2.379 . S
Dy120 O128 2.339 . S
Dy120 O130 2.298 1_655 S
Dy120 O134 2.275 1_655 S
Dy120 C142 2.738 . S
Dy121 O124 2.298 1_455 S
Dy121 O127 2.275 1_455 S
Dy121 O129 2.307 . S
Dy121 O131 2.395 . S
Dy121 O132 2.379 . S
Dy121 O135 2.339 . S
Dy121 C151 2.738 . S
C122 O134 1.254 . S
C122 O135 1.257 . S
O123 Dy120 2.307 . S
O123 C133 1.266 . S
O124 Dy121 2.298 1_655 S
O124 C133 1.236 . S
O125 Dy120 2.395 1_455 S
O125 C142 1.255 1_455 S
O126 Dy120 2.379 . S
O126 C142 1.249 . S
O127 Dy121 2.275 1_655 S
O127 C143 1.254 . S
O128 Dy120 2.339 . S
O128 C143 1.257 . S
O129 Dy121 2.307 . S
O129 C144 1.266 . S
O130 Dy120 2.298 1_455 S
O130 C144 1.236 . S
O131 Dy121 2.395 . S
O131 C151 1.255 . S
O132 Dy121 2.379 . S
O132 C151 1.249 . S
C133 O123 1.266 . S
C133 O124 1.236 . S
O134 Dy120 2.275 1_455 S
O134 C122 1.254 . S
O135 Dy121 2.339 . S
O135 C122 1.257 . S
C136 C139 1.344 . S
C136 C140 1.328 1_455 S
C136 C142 1.516 1_455 S
C137 C138 1.304 . S
C137 C141 1.323 1_455 S
C138 C137 1.304 . S
C138 C139 1.371 . S
C138 H152 0.930 . S
C139 C136 1.344 . S
C139 C138 1.371 . S
C139 H153 0.931 . S
C140 C136 1.328 1_655 S
C140 C141 1.433 . S
C140 H154 0.931 . S
C141 C137 1.323 1_655 S
C141 C140 1.433 . S
C141 H155 0.933 . S
C142 Dy120 2.738 . S
C142 O125 1.255 1_655 S
C142 O126 1.249 . S
C142 C136 1.516 1_655 S
C143 O127 1.254 . S
C143 O128 1.257 . S
C144 O129 1.266 . S
C144 O130 1.236 . S
C145 C148 1.344 1_455 S
C145 C149 1.328 . S
C145 C151 1.516 . S
C146 C147 1.304 1_455 S
C146 C150 1.323 . S
C147 C146 1.304 1_655 S
C147 C148 1.371 . S
C147 H156 0.930 . S
C148 C145 1.344 1_655 S
C148 C147 1.371 . S
C148 H157 0.931 . S
C149 C145 1.328 . S
C149 C150 1.433 . S
C149 H158 0.931 . S
C150 C146 1.323 . S
C150 C149 1.433 . S
C150 H159 0.933 . S
C151 Dy121 2.738 . S
C151 O131 1.255 . S
C151 O132 1.249 . S
C151 C145 1.516 . S
H152 C138 0.930 . S
H153 C139 0.931 . S
H154 C140 0.931 . S
H155 C141 0.933 . S
H156 C147 0.930 . S
H157 C148 0.931 . S
H158 C149 0.931 . S
H159 C150 0.933 . S
Dy160 O163 2.307 . S
Dy160 O165 2.395 . S
Dy160 O166 2.379 . S
Dy160 O168 2.339 . S
Dy160 O170 2.298 . S
Dy160 O174 2.275 . S
Dy160 C182 2.738 . S
Dy161 O164 2.298 . S
Dy161 O167 2.275 . S
Dy161 O169 2.307 . S
Dy161 O171 2.395 . S
Dy161 O172 2.379 . S
Dy161 O175 2.339 . S
Dy161 C191 2.738 . S
C162 O174 1.254 . S
C162 O175 1.257 . S
O163 Dy160 2.307 . S
O163 C173 1.266 . S
O164 Dy161 2.298 . S
O164 C173 1.236 . S
O165 Dy160 2.395 . S
O165 C182 1.255 . S
O166 Dy160 2.379 . S
O166 C182 1.249 . S
O167 Dy161 2.275 . S
O167 C183 1.254 . S
O168 Dy160 2.339 . S
O168 C183 1.257 . S
O169 Dy161 2.307 . S
O169 C184 1.266 . S
O170 Dy160 2.298 . S
O170 C184 1.236 . S
O171 Dy161 2.395 . S
O171 C191 1.255 . S
O172 Dy161 2.379 . S
O172 C191 1.249 . S
C173 O163 1.266 . S
C173 O164 1.236 . S
O174 Dy160 2.275 . S
O174 C162 1.254 . S
O175 Dy161 2.339 . S
O175 C162 1.257 . S
C176 C179 1.344 . S
C176 C180 1.328 . S
C176 C182 1.516 . S
C177 C178 1.304 . S
C177 C181 1.323 . S
C178 C177 1.304 . S
C178 C179 1.371 . S
C178 H192 0.930 . S
C179 C176 1.344 . S
C179 C178 1.371 . S
C179 H193 0.931 . S
C180 C176 1.328 . S
C180 C181 1.433 . S
C180 H194 0.931 . S
C181 C177 1.323 . S
C181 C180 1.433 . S
C181 H195 0.933 . S
C182 Dy160 2.738 . S
C182 O165 1.255 . S
C182 O166 1.249 . S
C182 C176 1.516 . S
C183 O167 1.254 . S
C183 O168 1.257 . S
C184 O169 1.266 . S
C184 O170 1.236 . S
C185 C188 1.344 . S
C185 C189 1.328 . S
C185 C191 1.516 . S
C186 C187 1.304 . S
C186 C190 1.323 . S
C187 C186 1.304 . S
C187 C188 1.371 . S
C187 H196 0.930 . S
C188 C185 1.344 . S
C188 C187 1.371 . S
C188 H197 0.931 . S
C189 C185 1.328 . S
C189 C190 1.433 . S
C189 H198 0.931 . S
C190 C186 1.323 . S
C190 C189 1.433 . S
C190 H199 0.933 . S
C191 Dy161 2.738 . S
C191 O171 1.255 . S
C191 O172 1.249 . S
C191 C185 1.516 . S
H192 C178 0.930 . S
H193 C179 0.931 . S
H194 C180 0.931 . S
H195 C181 0.933 . S
H196 C187 0.930 . S
H197 C188 0.931 . S
H198 C189 0.931 . S
H199 C190 0.933 . S
Dy200 O203 2.307 . S
Dy200 O205 2.395 1_545 S
Dy200 O206 2.379 . S
Dy200 O208 2.339 . S
Dy200 O210 2.298 1_545 S
Dy200 O214 2.275 1_545 S
Dy200 C222 2.738 . S
Dy201 O204 2.298 1_565 S
Dy201 O207 2.275 1_565 S
Dy201 O209 2.307 . S
Dy201 O211 2.395 1_565 S
Dy201 O212 2.379 . S
Dy201 O215 2.339 . S
Dy201 C231 2.738 . S
C202 O214 1.254 . S
C202 O215 1.257 . S
O203 Dy200 2.307 . S
O203 C213 1.266 . S
O204 Dy201 2.298 1_545 S
O204 C213 1.236 . S
O205 Dy200 2.395 1_565 S
O205 C222 1.255 1_565 S
O206 Dy200 2.379 . S
O206 C222 1.249 . S
O207 Dy201 2.275 1_545 S
O207 C223 1.254 . S
O208 Dy200 2.339 . S
O208 C223 1.257 . S
O209 Dy201 2.307 . S
O209 C224 1.266 . S
O210 Dy200 2.298 1_565 S
O210 C224 1.236 . S
O211 Dy201 2.395 1_545 S
O211 C231 1.255 1_545 S
O212 Dy201 2.379 . S
O212 C231 1.249 . S
C213 O203 1.266 . S
C213 O204 1.236 . S
O214 Dy200 2.275 1_565 S
O214 C202 1.254 . S
O215 Dy201 2.339 . S
O215 C202 1.257 . S
C216 C219 1.344 1_545 S
C216 C220 1.328 . S
C216 C222 1.516 . S
C217 C218 1.304 1_545 S
C217 C221 1.323 . S
C218 C217 1.304 1_565 S
C218 C219 1.371 . S
C218 H232 0.930 . S
C219 C216 1.344 1_565 S
C219 C218 1.371 . S
C219 H233 0.931 . S
C220 C216 1.328 . S
C220 C221 1.433 . S
C220 H234 0.931 . S
C221 C217 1.323 . S
C221 C220 1.433 . S
C221 H235 0.933 . S
C222 Dy200 2.738 . S
C222 O205 1.255 1_545 S
C222 O206 1.249 . S
C222 C216 1.516 . S
C223 O207 1.254 . S
C223 O208 1.257 . S
C224 O209 1.266 . S
C224 O210 1.236 . S
C225 C228 1.344 1_565 S
C225 C229 1.328 . S
C225 C231 1.516 . S
C226 C227 1.304 . S
C226 C230 1.323 1_545 S
C227 C226 1.304 . S
C227 C228 1.371 . S
C227 H236 0.930 . S
C228 C225 1.344 1_545 S
C228 C227 1.371 . S
C228 H237 0.931 . S
C229 C225 1.328 . S
C229 C230 1.433 . S
C229 H238 0.931 . S
C230 C226 1.323 1_565 S
C230 C229 1.433 . S
C230 H239 0.933 . S
C231 Dy201 2.738 . S
C231 O211 1.255 1_565 S
C231 O212 1.249 . S
C231 C225 1.516 . S
H232 C218 0.930 . S
H233 C219 0.931 . S
H234 C220 0.931 . S
H235 C221 0.933 . S
H236 C227 0.930 . S
H237 C228 0.931 . S
H238 C229 0.931 . S
H239 C230 0.933 . S
Dy240 O243 2.307 . S
Dy240 O245 2.395 . S
Dy240 O246 2.379 . S
Dy240 O248 2.339 . S
Dy240 O250 2.298 . S
Dy240 O254 2.275 . S
Dy240 C262 2.738 . S
Dy241 O244 2.298 . S
Dy241 O247 2.275 . S
Dy241 O249 2.307 . S
Dy241 O251 2.395 . S
Dy241 O252 2.379 . S
Dy241 O255 2.339 . S
Dy241 C271 2.738 . S
C242 O254 1.254 . S
C242 O255 1.257 . S
O243 Dy240 2.307 . S
O243 C253 1.266 . S
O244 Dy241 2.298 . S
O244 C253 1.236 . S
O245 Dy240 2.395 . S
O245 C262 1.255 . S
O246 Dy240 2.379 . S
O246 C262 1.249 . S
O247 Dy241 2.275 . S
O247 C263 1.254 . S
O248 Dy240 2.339 . S
O248 C263 1.257 . S
O249 Dy241 2.307 . S
O249 C264 1.266 . S
O250 Dy240 2.298 . S
O250 C264 1.236 . S
O251 Dy241 2.395 . S
O251 C271 1.255 . S
O252 Dy241 2.379 . S
O252 C271 1.249 . S
C253 O243 1.266 . S
C253 O244 1.236 . S
O254 Dy240 2.275 . S
O254 C242 1.254 . S
O255 Dy241 2.339 . S
O255 C242 1.257 . S
C256 C259 1.344 . S
C256 C260 1.328 . S
C256 C262 1.516 . S
C257 C258 1.304 . S
C257 C261 1.323 . S
C258 C257 1.304 . S
C258 C259 1.371 . S
C258 H272 0.930 . S
C259 C256 1.344 . S
C259 C258 1.371 . S
C259 H273 0.931 . S
C260 C256 1.328 . S
C260 C261 1.433 . S
C260 H274 0.931 . S
C261 C257 1.323 . S
C261 C260 1.433 . S
C261 H275 0.933 . S
C262 Dy240 2.738 . S
C262 O245 1.255 . S
C262 O246 1.249 . S
C262 C256 1.516 . S
C263 O247 1.254 . S
C263 O248 1.257 . S
C264 O249 1.266 . S
C264 O250 1.236 . S
C265 C268 1.344 . S
C265 C269 1.328 . S
C265 C271 1.516 1_554 S
C266 C267 1.304 . S
C266 C270 1.323 . S
C267 C266 1.304 . S
C267 C268 1.371 . S
C267 H276 0.930 . S
C268 C265 1.344 . S
C268 C267 1.371 . S
C268 H277 0.931 . S
C269 C265 1.328 . S
C269 C270 1.433 . S
C269 H278 0.931 . S
C270 C266 1.323 . S
C270 C269 1.433 . S
C270 H279 0.933 . S
C271 Dy241 2.738 . S
C271 O251 1.255 . S
C271 O252 1.249 . S
C271 C265 1.516 1_556 S
H272 C258 0.930 . S
H273 C259 0.931 . S
H274 C260 0.931 . S
H275 C261 0.933 . S
H276 C267 0.930 . S
H277 C268 0.931 . S
H278 C269 0.931 . S
H279 C270 0.933 . S
Dy280 O283 2.307 . S
Dy280 O285 2.395 . S
Dy280 O286 2.379 . S
Dy280 O288 2.339 . S
Dy280 O290 2.298 . S
Dy280 O294 2.275 . S
Dy280 C302 2.738 . S
Dy281 O284 2.298 . S
Dy281 O287 2.275 . S
Dy281 O289 2.307 . S
Dy281 O291 2.395 . S
Dy281 O292 2.379 . S
Dy281 O295 2.339 . S
Dy281 C311 2.738 . S
C282 O294 1.254 . S
C282 O295 1.257 . S
O283 Dy280 2.307 . S
O283 C293 1.266 . S
O284 Dy281 2.298 . S
O284 C293 1.236 . S
O285 Dy280 2.395 . S
O285 C302 1.255 . S
O286 Dy280 2.379 . S
O286 C302 1.249 . S
O287 Dy281 2.275 . S
O287 C303 1.254 . S
O288 Dy280 2.339 . S
O288 C303 1.257 . S
O289 Dy281 2.307 . S
O289 C304 1.266 . S
O290 Dy280 2.298 . S
O290 C304 1.236 . S
O291 Dy281 2.395 . S
O291 C311 1.255 . S
O292 Dy281 2.379 . S
O292 C311 1.249 . S
C293 O283 1.266 . S
C293 O284 1.236 . S
O294 Dy280 2.275 . S
O294 C282 1.254 . S
O295 Dy281 2.339 . S
O295 C282 1.257 . S
C296 C299 1.344 . S
C296 C300 1.328 . S
C296 C302 1.516 . S
C297 C298 1.304 . S
C297 C301 1.323 . S
C298 C297 1.304 . S
C298 C299 1.371 . S
C298 H312 0.930 . S
C299 C296 1.344 . S
C299 C298 1.371 . S
C299 H313 0.931 . S
C300 C296 1.328 . S
C300 C301 1.433 . S
C300 H314 0.931 . S
C301 C297 1.323 . S
C301 C300 1.433 . S
C301 H315 0.933 . S
C302 Dy280 2.738 . S
C302 O285 1.255 . S
C302 O286 1.249 . S
C302 C296 1.516 . S
C303 O287 1.254 . S
C303 O288 1.257 . S
C304 O289 1.266 . S
C304 O290 1.236 . S
C305 C308 1.344 . S
C305 C309 1.328 . S
C305 C311 1.516 1_554 S
C306 C307 1.304 . S
C306 C310 1.323 . S
C307 C306 1.304 . S
C307 C308 1.371 . S
C307 H316 0.930 . S
C308 C305 1.344 . S
C308 C307 1.371 . S
C308 H317 0.931 . S
C309 C305 1.328 . S
C309 C310 1.433 . S
C309 H318 0.931 . S
C310 C306 1.323 . S
C310 C309 1.433 . S
C310 H319 0.933 . S
C311 Dy281 2.738 . S
C311 O291 1.255 . S
C311 O292 1.249 . S
C311 C305 1.516 1_556 S
H312 C298 0.930 . S
H313 C299 0.931 . S
H314 C300 0.931 . S
H315 C301 0.933 . S
H316 C307 0.930 . S
H317 C308 0.931 . S
H318 C309 0.931 . S
H319 C310 0.933 . S
Dy320 O323 2.307 . S
Dy320 O325 2.395 . S
Dy320 O326 2.379 . S
Dy320 O328 2.339 . S
Dy320 O330 2.298 . S
Dy320 O334 2.275 . S
Dy320 C342 2.738 . S
Dy321 O324 2.298 . S
Dy321 O327 2.275 . S
Dy321 O329 2.307 . S
Dy321 O331 2.395 . S
Dy321 O332 2.379 . S
Dy321 O335 2.339 . S
Dy321 C351 2.738 . S
C322 O334 1.254 . S
C322 O335 1.257 . S
O323 Dy320 2.307 . S
O323 C333 1.266 . S
O324 Dy321 2.298 . S
O324 C333 1.236 . S
O325 Dy320 2.395 . S
O325 C342 1.255 . S
O326 Dy320 2.379 . S
O326 C342 1.249 . S
O327 Dy321 2.275 . S
O327 C343 1.254 . S
O328 Dy320 2.339 . S
O328 C343 1.257 . S
O329 Dy321 2.307 . S
O329 C344 1.266 . S
O330 Dy320 2.298 . S
O330 C344 1.236 . S
O331 Dy321 2.395 . S
O331 C351 1.255 . S
O332 Dy321 2.379 . S
O332 C351 1.249 . S
C333 O323 1.266 . S
C333 O324 1.236 . S
O334 Dy320 2.275 . S
O334 C322 1.254 . S
O335 Dy321 2.339 . S
O335 C322 1.257 . S
C336 C339 1.344 . S
C336 C340 1.328 . S
C336 C342 1.516 . S
C337 C338 1.304 . S
C337 C341 1.323 . S
C338 C337 1.304 . S
C338 C339 1.371 . S
C338 H352 0.930 . S
C339 C336 1.344 . S
C339 C338 1.371 . S
C339 H353 0.931 . S
C340 C336 1.328 . S
C340 C341 1.433 . S
C340 H354 0.931 . S
C341 C337 1.323 . S
C341 C340 1.433 . S
C341 H355 0.933 . S
C342 Dy320 2.738 . S
C342 O325 1.255 . S
C342 O326 1.249 . S
C342 C336 1.516 . S
C343 O327 1.254 . S
C343 O328 1.257 . S
C344 O329 1.266 . S
C344 O330 1.236 . S
C345 C348 1.344 . S
C345 C349 1.328 . S
C345 C351 1.516 1_554 S
C346 C347 1.304 . S
C346 C350 1.323 . S
C347 C346 1.304 . S
C347 C348 1.371 . S
C347 H356 0.930 . S
C348 C345 1.344 . S
C348 C347 1.371 . S
C348 H357 0.931 . S
C349 C345 1.328 . S
C349 C350 1.433 . S
C349 H358 0.931 . S
C350 C346 1.323 . S
C350 C349 1.433 . S
C350 H359 0.933 . S
C351 Dy321 2.738 . S
C351 O331 1.255 . S
C351 O332 1.249 . S
C351 C345 1.516 1_556 S
H352 C338 0.930 . S
H353 C339 0.931 . S
H354 C340 0.931 . S
H355 C341 0.933 . S
H356 C347 0.930 . S
H357 C348 0.931 . S
H358 C349 0.931 . S
H359 C350 0.933 . S
Dy360 O363 2.307 . S
Dy360 O365 2.395 . S
Dy360 O366 2.379 . S
Dy360 O368 2.339 . S
Dy360 O370 2.298 . S
Dy360 O374 2.275 . S
Dy360 C382 2.738 . S
Dy361 O364 2.298 . S
Dy361 O367 2.275 . S
Dy361 O369 2.307 . S
Dy361 O371 2.395 1_556 S
Dy361 O372 2.379 1_556 S
Dy361 O375 2.339 . S
Dy361 C391 2.738 1_556 S
C362 O374 1.254 . S
C362 O375 1.257 . S
O363 Dy360 2.307 . S
O363 C373 1.266 . S
O364 Dy361 2.298 . S
O364 C373 1.236 . S
O365 Dy360 2.395 . S
O365 C382 1.255 . S
O366 Dy360 2.379 . S
O366 C382 1.249 . S
O367 Dy361 2.275 . S
O367 C383 1.254 . S
O368 Dy360 2.339 . S
O368 C383 1.257 . S
O369 Dy361 2.307 . S
O369 C384 1.266 . S
O370 Dy360 2.298 . S
O370 C384 1.236 . S
O371 Dy361 2.395 1_554 S
O371 C391 1.255 . S
O372 Dy361 2.379 1_554 S
O372 C391 1.249 . S
C373 O363 1.266 . S
C373 O364 1.236 . S
O374 Dy360 2.275 . S
O374 C362 1.254 . S
O375 Dy361 2.339 . S
O375 C362 1.257 . S
C376 C379 1.344 . S
C376 C380 1.328 . S
C376 C382 1.516 . S
C377 C378 1.304 . S
C377 C381 1.323 . S
C378 C377 1.304 . S
C378 C379 1.371 . S
C378 H392 0.930 . S
C379 C376 1.344 . S
C379 C378 1.371 . S
C379 H393 0.931 . S
C380 C376 1.328 . S
C380 C381 1.433 . S
C380 H394 0.931 . S
C381 C377 1.323 . S
C381 C380 1.433 . S
C381 H395 0.933 . S
C382 Dy360 2.738 . S
C382 O365 1.255 . S
C382 O366 1.249 . S
C382 C376 1.516 . S
C383 O367 1.254 . S
C383 O368 1.257 . S
C384 O369 1.266 . S
C384 O370 1.236 . S
C385 C388 1.344 . S
C385 C389 1.328 . S
C385 C391 1.516 . S
C386 C387 1.304 . S
C386 C390 1.323 . S
C387 C386 1.304 . S
C387 C388 1.371 . S
C387 H396 0.930 . S
C388 C385 1.344 . S
C388 C387 1.371 . S
C388 H397 0.931 . S
C389 C385 1.328 . S
C389 C390 1.433 . S
C389 H398 0.931 . S
C390 C386 1.323 . S
C390 C389 1.433 . S
C390 H399 0.933 . S
C391 Dy361 2.738 1_554 S
C391 O371 1.255 . S
C391 O372 1.249 . S
C391 C385 1.516 . S
H392 C378 0.930 . S
H393 C379 0.931 . S
H394 C380 0.931 . S
H395 C381 0.933 . S
H396 C387 0.930 . S
H397 C388 0.931 . S
H398 C389 0.931 . S
H399 C390 0.933 . S
Dy400 O403 2.307 . S
Dy400 O405 2.395 . S
Dy400 O406 2.379 . S
Dy400 O408 2.339 . S
Dy400 O410 2.298 . S
Dy400 O414 2.275 . S
Dy400 C422 2.738 . S
Dy401 O404 2.298 . S
Dy401 O407 2.275 . S
Dy401 O409 2.307 . S
Dy401 O411 2.395 1_556 S
Dy401 O412 2.379 1_556 S
Dy401 O415 2.339 . S
Dy401 C431 2.738 1_556 S
C402 O414 1.254 . S
C402 O415 1.257 . S
O403 Dy400 2.307 . S
O403 C413 1.266 . S
O404 Dy401 2.298 . S
O404 C413 1.236 . S
O405 Dy400 2.395 . S
O405 C422 1.255 . S
O406 Dy400 2.379 . S
O406 C422 1.249 . S
O407 Dy401 2.275 . S
O407 C423 1.254 . S
O408 Dy400 2.339 . S
O408 C423 1.257 . S
O409 Dy401 2.307 . S
O409 C424 1.266 . S
O410 Dy400 2.298 . S
O410 C424 1.236 . S
O411 Dy401 2.395 1_554 S
O411 C431 1.255 . S
O412 Dy401 2.379 1_554 S
O412 C431 1.249 . S
C413 O403 1.266 . S
C413 O404 1.236 . S
O414 Dy400 2.275 . S
O414 C402 1.254 . S
O415 Dy401 2.339 . S
O415 C402 1.257 . S
C416 C419 1.344 . S
C416 C420 1.328 . S
C416 C422 1.516 . S
C417 C418 1.304 . S
C417 C421 1.323 . S
C418 C417 1.304 . S
C418 C419 1.371 . S
C418 H432 0.930 . S
C419 C416 1.344 . S
C419 C418 1.371 . S
C419 H433 0.931 . S
C420 C416 1.328 . S
C420 C421 1.433 . S
C420 H434 0.931 . S
C421 C417 1.323 . S
C421 C420 1.433 . S
C421 H435 0.933 . S
C422 Dy400 2.738 . S
C422 O405 1.255 . S
C422 O406 1.249 . S
C422 C416 1.516 . S
C423 O407 1.254 . S
C423 O408 1.257 . S
C424 O409 1.266 . S
C424 O410 1.236 . S
C425 C428 1.344 . S
C425 C429 1.328 . S
C425 C431 1.516 . S
C426 C427 1.304 . S
C426 C430 1.323 . S
C427 C426 1.304 . S
C427 C428 1.371 . S
C427 H436 0.930 . S
C428 C425 1.344 . S
C428 C427 1.371 . S
C428 H437 0.931 . S
C429 C425 1.328 . S
C429 C430 1.433 . S
C429 H438 0.931 . S
C430 C426 1.323 . S
C430 C429 1.433 . S
C430 H439 0.933 . S
C431 Dy401 2.738 1_554 S
C431 O411 1.255 . S
C431 O412 1.249 . S
C431 C425 1.516 . S
H432 C418 0.930 . S
H433 C419 0.931 . S
H434 C420 0.931 . S
H435 C421 0.933 . S
H436 C427 0.930 . S
H437 C428 0.931 . S
H438 C429 0.931 . S
H439 C430 0.933 . S
Dy440 O443 2.307 . S
Dy440 O445 2.395 . S
Dy440 O446 2.379 . S
Dy440 O448 2.339 . S
Dy440 O450 2.298 . S
Dy440 O454 2.275 . S
Dy440 C462 2.738 . S
Dy441 O444 2.298 . S
Dy441 O447 2.275 . S
Dy441 O449 2.307 . S
Dy441 O451 2.395 1_556 S
Dy441 O452 2.379 1_556 S
Dy441 O455 2.339 . S
Dy441 C471 2.738 1_556 S
C442 O454 1.254 . S
C442 O455 1.257 . S
O443 Dy440 2.307 . S
O443 C453 1.266 . S
O444 Dy441 2.298 . S
O444 C453 1.236 . S
O445 Dy440 2.395 . S
O445 C462 1.255 . S
O446 Dy440 2.379 . S
O446 C462 1.249 . S
O447 Dy441 2.275 . S
O447 C463 1.254 . S
O448 Dy440 2.339 . S
O448 C463 1.257 . S
O449 Dy441 2.307 . S
O449 C464 1.266 . S
O450 Dy440 2.298 . S
O450 C464 1.236 . S
O451 Dy441 2.395 1_554 S
O451 C471 1.255 . S
O452 Dy441 2.379 1_554 S
O452 C471 1.249 . S
C453 O443 1.266 . S
C453 O444 1.236 . S
O454 Dy440 2.275 . S
O454 C442 1.254 . S
O455 Dy441 2.339 . S
O455 C442 1.257 . S
C456 C459 1.344 . S
C456 C460 1.328 . S
C456 C462 1.516 . S
C457 C458 1.304 . S
C457 C461 1.323 . S
C458 C457 1.304 . S
C458 C459 1.371 . S
C458 H472 0.930 . S
C459 C456 1.344 . S
C459 C458 1.371 . S
C459 H473 0.931 . S
C460 C456 1.328 . S
C460 C461 1.433 . S
C460 H474 0.931 . S
C461 C457 1.323 . S
C461 C460 1.433 . S
C461 H475 0.933 . S
C462 Dy440 2.738 . S
C462 O445 1.255 . S
C462 O446 1.249 . S
C462 C456 1.516 . S
C463 O447 1.254 . S
C463 O448 1.257 . S
C464 O449 1.266 . S
C464 O450 1.236 . S
C465 C468 1.344 . S
C465 C469 1.328 . S
C465 C471 1.516 . S
C466 C467 1.304 . S
C466 C470 1.323 . S
C467 C466 1.304 . S
C467 C468 1.371 . S
C467 H476 0.930 . S
C468 C465 1.344 . S
C468 C467 1.371 . S
C468 H477 0.931 . S
C469 C465 1.328 . S
C469 C470 1.433 . S
C469 H478 0.931 . S
C470 C466 1.323 . S
C470 C469 1.433 . S
C470 H479 0.933 . S
C471 Dy441 2.738 1_554 S
C471 O451 1.255 . S
C471 O452 1.249 . S
C471 C465 1.516 . S
H472 C458 0.930 . S
H473 C459 0.931 . S
H474 C460 0.931 . S
H475 C461 0.933 . S
H476 C467 0.930 . S
H477 C468 0.931 . S
H478 C469 0.931 . S
H479 C470 0.933 . S
Dy480 O483 2.307 . S
Dy480 O485 2.395 1_554 S
Dy480 O486 2.379 1_554 S
Dy480 O488 2.339 . S
Dy480 O490 2.298 . S
Dy480 O494 2.275 . S
Dy480 C502 2.738 1_554 S
Dy481 O484 2.298 . S
Dy481 O487 2.275 . S
Dy481 O489 2.307 . S
Dy481 O491 2.395 . S
Dy481 O492 2.379 . S
Dy481 O495 2.339 . S
Dy481 C511 2.738 . S
C482 O494 1.254 . S
C482 O495 1.257 . S
O483 Dy480 2.307 . S
O483 C493 1.266 . S
O484 Dy481 2.298 . S
O484 C493 1.236 . S
O485 Dy480 2.395 1_556 S
O485 C502 1.255 . S
O486 Dy480 2.379 1_556 S
O486 C502 1.249 . S
O487 Dy481 2.275 . S
O487 C503 1.254 . S
O488 Dy480 2.339 . S
O488 C503 1.257 . S
O489 Dy481 2.307 . S
O489 C504 1.266 . S
O490 Dy480 2.298 . S
O490 C504 1.236 . S
O491 Dy481 2.395 . S
O491 C511 1.255 . S
O492 Dy481 2.379 . S
O492 C511 1.249 . S
C493 O483 1.266 . S
C493 O484 1.236 . S
O494 Dy480 2.275 . S
O494 C482 1.254 . S
O495 Dy481 2.339 . S
O495 C482 1.257 . S
C496 C499 1.344 . S
C496 C500 1.328 . S
C496 C502 1.516 . S
C497 C498 1.304 . S
C497 C501 1.323 . S
C498 C497 1.304 . S
C498 C499 1.371 . S
C498 H512 0.930 . S
C499 C496 1.344 . S
C499 C498 1.371 . S
C499 H513 0.931 . S
C500 C496 1.328 . S
C500 C501 1.433 . S
C500 H514 0.931 . S
C501 C497 1.323 . S
C501 C500 1.433 . S
C501 H515 0.933 . S
C502 Dy480 2.738 1_556 S
C502 O485 1.255 . S
C502 O486 1.249 . S
C502 C496 1.516 . S
C503 O487 1.254 . S
C503 O488 1.257 . S
C504 O489 1.266 . S
C504 O490 1.236 . S
C505 C508 1.344 . S
C505 C509 1.328 . S
C505 C511 1.516 . S
C506 C507 1.304 . S
C506 C510 1.323 . S
C507 C506 1.304 . S
C507 C508 1.371 . S
C507 H516 0.930 . S
C508 C505 1.344 . S
C508 C507 1.371 . S
C508 H517 0.931 . S
C509 C505 1.328 . S
C509 C510 1.433 . S
C509 H518 0.931 . S
C510 C506 1.323 . S
C510 C509 1.433 . S
C510 H519 0.933 . S
C511 Dy481 2.738 . S
C511 O491 1.255 . S
C511 O492 1.249 . S
C511 C505 1.516 . S
H512 C498 0.930 . S
H513 C499 0.931 . S
H514 C500 0.931 . S
H515 C501 0.933 . S
H516 C507 0.930 . S
H517 C508 0.931 . S
H518 C509 0.931 . S
H519 C510 0.933 . S
Dy520 O523 2.307 . S
Dy520 O525 2.395 1_554 S
Dy520 O526 2.379 1_554 S
Dy520 O528 2.339 . S
Dy520 O530 2.298 . S
Dy520 O534 2.275 . S
Dy520 C542 2.738 1_554 S
Dy521 O524 2.298 . S
Dy521 O527 2.275 . S
Dy521 O529 2.307 . S
Dy521 O531 2.395 . S
Dy521 O532 2.379 . S
Dy521 O535 2.339 . S
Dy521 C551 2.738 . S
C522 O534 1.254 . S
C522 O535 1.257 . S
O523 Dy520 2.307 . S
O523 C533 1.266 . S
O524 Dy521 2.298 . S
O524 C533 1.236 . S
O525 Dy520 2.395 1_556 S
O525 C542 1.255 . S
O526 Dy520 2.379 1_556 S
O526 C542 1.249 . S
O527 Dy521 2.275 . S
O527 C543 1.254 . S
O528 Dy520 2.339 . S
O528 C543 1.257 . S
O529 Dy521 2.307 . S
O529 C544 1.266 . S
O530 Dy520 2.298 . S
O530 C544 1.236 . S
O531 Dy521 2.395 . S
O531 C551 1.255 . S
O532 Dy521 2.379 . S
O532 C551 1.249 . S
C533 O523 1.266 . S
C533 O524 1.236 . S
O534 Dy520 2.275 . S
O534 C522 1.254 . S
O535 Dy521 2.339 . S
O535 C522 1.257 . S
C536 C539 1.344 . S
C536 C540 1.328 . S
C536 C542 1.516 . S
C537 C538 1.304 . S
C537 C541 1.323 . S
C538 C537 1.304 . S
C538 C539 1.371 . S
C538 H552 0.930 . S
C539 C536 1.344 . S
C539 C538 1.371 . S
C539 H553 0.931 . S
C540 C536 1.328 . S
C540 C541 1.433 . S
C540 H554 0.931 . S
C541 C537 1.323 . S
C541 C540 1.433 . S
C541 H555 0.933 . S
C542 Dy520 2.738 1_556 S
C542 O525 1.255 . S
C542 O526 1.249 . S
C542 C536 1.516 . S
C543 O527 1.254 . S
C543 O528 1.257 . S
C544 O529 1.266 . S
C544 O530 1.236 . S
C545 C548 1.344 . S
C545 C549 1.328 . S
C545 C551 1.516 . S
C546 C547 1.304 . S
C546 C550 1.323 . S
C547 C546 1.304 . S
C547 C548 1.371 . S
C547 H556 0.930 . S
C548 C545 1.344 . S
C548 C547 1.371 . S
C548 H557 0.931 . S
C549 C545 1.328 . S
C549 C550 1.433 . S
C549 H558 0.931 . S
C550 C546 1.323 . S
C550 C549 1.433 . S
C550 H559 0.933 . S
C551 Dy521 2.738 . S
C551 O531 1.255 . S
C551 O532 1.249 . S
C551 C545 1.516 . S
H552 C538 0.930 . S
H553 C539 0.931 . S
H554 C540 0.931 . S
H555 C541 0.933 . S
H556 C547 0.930 . S
H557 C548 0.931 . S
H558 C549 0.931 . S
H559 C550 0.933 . S
Dy560 O563 2.307 . S
Dy560 O565 2.395 1_554 S
Dy560 O566 2.379 1_554 S
Dy560 O568 2.339 . S
Dy560 O570 2.298 . S
Dy560 O574 2.275 . S
Dy560 C582 2.738 1_554 S
Dy561 O564 2.298 . S
Dy561 O567 2.275 . S
Dy561 O569 2.307 . S
Dy561 O571 2.395 . S
Dy561 O572 2.379 . S
Dy561 O575 2.339 . S
Dy561 C591 2.738 . S
C562 O574 1.254 . S
C562 O575 1.257 . S
O563 Dy560 2.307 . S
O563 C573 1.266 . S
O564 Dy561 2.298 . S
O564 C573 1.236 . S
O565 Dy560 2.395 1_556 S
O565 C582 1.255 . S
O566 Dy560 2.379 1_556 S
O566 C582 1.249 . S
O567 Dy561 2.275 . S
O567 C583 1.254 . S
O568 Dy560 2.339 . S
O568 C583 1.257 . S
O569 Dy561 2.307 . S
O569 C584 1.266 . S
O570 Dy560 2.298 . S
O570 C584 1.236 . S
O571 Dy561 2.395 . S
O571 C591 1.255 . S
O572 Dy561 2.379 . S
O572 C591 1.249 . S
C573 O563 1.266 . S
C573 O564 1.236 . S
O574 Dy560 2.275 . S
O574 C562 1.254 . S
O575 Dy561 2.339 . S
O575 C562 1.257 . S
C576 C579 1.344 . S
C576 C580 1.328 . S
C576 C582 1.516 . S
C577 C578 1.304 . S
C577 C581 1.323 . S
C578 C577 1.304 . S
C578 C579 1.371 . S
C578 H592 0.930 . S
C579 C576 1.344 . S
C579 C578 1.371 . S
C579 H593 0.931 . S
C580 C576 1.328 . S
C580 C581 1.433 . S
C580 H594 0.931 . S
C581 C577 1.323 . S
C581 C580 1.433 . S
C581 H595 0.933 . S
C582 Dy560 2.738 1_556 S
C582 O565 1.255 . S
C582 O566 1.249 . S
C582 C576 1.516 . S
C583 O567 1.254 . S
C583 O568 1.257 . S
C584 O569 1.266 . S
C584 O570 1.236 . S
C585 C588 1.344 . S
C585 C589 1.328 . S
C585 C591 1.516 . S
C586 C587 1.304 . S
C586 C590 1.323 . S
C587 C586 1.304 . S
C587 C588 1.371 . S
C587 H596 0.930 . S
C588 C585 1.344 . S
C588 C587 1.371 . S
C588 H597 0.931 . S
C589 C585 1.328 . S
C589 C590 1.433 . S
C589 H598 0.931 . S
C590 C586 1.323 . S
C590 C589 1.433 . S
C590 H599 0.933 . S
C591 Dy561 2.738 . S
C591 O571 1.255 . S
C591 O572 1.249 . S
C591 C585 1.516 . S
H592 C578 0.930 . S
H593 C579 0.931 . S
H594 C580 0.931 . S
H595 C581 0.933 . S
H596 C587 0.930 . S
H597 C588 0.931 . S
H598 C589 0.931 . S
H599 C590 0.933 . S
Dy600 O603 2.307 . S
Dy600 O605 2.395 . S
Dy600 O606 2.379 . S
Dy600 O608 2.339 . S
Dy600 O610 2.298 . S
Dy600 O614 2.275 . S
Dy600 C622 2.738 . S
Dy601 O604 2.298 . S
Dy601 O607 2.275 . S
Dy601 O609 2.307 . S
Dy601 O611 2.395 . S
Dy601 O612 2.379 . S
Dy601 O615 2.339 . S
Dy601 C631 2.738 . S
C602 O614 1.254 . S
C602 O615 1.257 . S
O603 Dy600 2.307 . S
O603 C613 1.266 . S
O604 Dy601 2.298 . S
O604 C613 1.236 . S
O605 Dy600 2.395 . S
O605 C622 1.255 . S
O606 Dy600 2.379 . S
O606 C622 1.249 . S
O607 Dy601 2.275 . S
O607 C623 1.254 . S
O608 Dy600 2.339 . S
O608 C623 1.257 . S
O609 Dy601 2.307 . S
O609 C624 1.266 . S
O610 Dy600 2.298 . S
O610 C624 1.236 . S
O611 Dy601 2.395 . S
O611 C631 1.255 . S
O612 Dy601 2.379 . S
O612 C631 1.249 . S
C613 O603 1.266 . S
C613 O604 1.236 . S
O614 Dy600 2.275 . S
O614 C602 1.254 . S
O615 Dy601 2.339 . S
O615 C602 1.257 . S
C616 C619 1.344 . S
C616 C620 1.328 . S
C616 C622 1.516 1_556 S
C617 C618 1.304 . S
C617 C621 1.323 . S
C618 C617 1.304 . S
C618 C619 1.371 . S
C618 H632 0.930 . S
C619 C616 1.344 . S
C619 C618 1.371 . S
C619 H633 0.931 . S
C620 C616 1.328 . S
C620 C621 1.433 . S
C620 H634 0.931 . S
C621 C617 1.323 . S
C621 C620 1.433 . S
C621 H635 0.933 . S
C622 Dy600 2.738 . S
C622 O605 1.255 . S
C622 O606 1.249 . S
C622 C616 1.516 1_554 S
C623 O607 1.254 . S
C623 O608 1.257 . S
C624 O609 1.266 . S
C624 O610 1.236 . S
C625 C628 1.344 . S
C625 C629 1.328 . S
C625 C631 1.516 . S
C626 C627 1.304 . S
C626 C630 1.323 . S
C627 C626 1.304 . S
C627 C628 1.371 . S
C627 H636 0.930 . S
C628 C625 1.344 . S
C628 C627 1.371 . S
C628 H637 0.931 . S
C629 C625 1.328 . S
C629 C630 1.433 . S
C629 H638 0.931 . S
C630 C626 1.323 . S
C630 C629 1.433 . S
C630 H639 0.933 . S
C631 Dy601 2.738 . S
C631 O611 1.255 . S
C631 O612 1.249 . S
C631 C625 1.516 . S
H632 C618 0.930 . S
H633 C619 0.931 . S
H634 C620 0.931 . S
H635 C621 0.933 . S
H636 C627 0.930 . S
H637 C628 0.931 . S
H638 C629 0.931 . S
H639 C630 0.933 . S
Dy640 O643 2.307 . S
Dy640 O645 2.395 . S
Dy640 O646 2.379 . S
Dy640 O648 2.339 . S
Dy640 O650 2.298 . S
Dy640 O654 2.275 . S
Dy640 C662 2.738 . S
Dy641 O644 2.298 . S
Dy641 O647 2.275 . S
Dy641 O649 2.307 . S
Dy641 O651 2.395 . S
Dy641 O652 2.379 . S
Dy641 O655 2.339 . S
Dy641 C671 2.738 . S
C642 O654 1.254 . S
C642 O655 1.257 . S
O643 Dy640 2.307 . S
O643 C653 1.266 . S
O644 Dy641 2.298 . S
O644 C653 1.236 . S
O645 Dy640 2.395 . S
O645 C662 1.255 . S
O646 Dy640 2.379 . S
O646 C662 1.249 . S
O647 Dy641 2.275 . S
O647 C663 1.254 . S
O648 Dy640 2.339 . S
O648 C663 1.257 . S
O649 Dy641 2.307 . S
O649 C664 1.266 . S
O650 Dy640 2.298 . S
O650 C664 1.236 . S
O651 Dy641 2.395 . S
O651 C671 1.255 . S
O652 Dy641 2.379 . S
O652 C671 1.249 . S
C653 O643 1.266 . S
C653 O644 1.236 . S
O654 Dy640 2.275 . S
O654 C642 1.254 . S
O655 Dy641 2.339 . S
O655 C642 1.257 . S
C656 C659 1.344 . S
C656 C660 1.328 . S
C656 C662 1.516 1_556 S
C657 C658 1.304 . S
C657 C661 1.323 . S
C658 C657 1.304 . S
C658 C659 1.371 . S
C658 H672 0.930 . S
C659 C656 1.344 . S
C659 C658 1.371 . S
C659 H673 0.931 . S
C660 C656 1.328 . S
C660 C661 1.433 . S
C660 H674 0.931 . S
C661 C657 1.323 . S
C661 C660 1.433 . S
C661 H675 0.933 . S
C662 Dy640 2.738 . S
C662 O645 1.255 . S
C662 O646 1.249 . S
C662 C656 1.516 1_554 S
C663 O647 1.254 . S
C663 O648 1.257 . S
C664 O649 1.266 . S
C664 O650 1.236 . S
C665 C668 1.344 . S
C665 C669 1.328 . S
C665 C671 1.516 . S
C666 C667 1.304 . S
C666 C670 1.323 . S
C667 C666 1.304 . S
C667 C668 1.371 . S
C667 H676 0.930 . S
C668 C665 1.344 . S
C668 C667 1.371 . S
C668 H677 0.931 . S
C669 C665 1.328 . S
C669 C670 1.433 . S
C669 H678 0.931 . S
C670 C666 1.323 . S
C670 C669 1.433 . S
C670 H679 0.933 . S
C671 Dy641 2.738 . S
C671 O651 1.255 . S
C671 O652 1.249 . S
C671 C665 1.516 . S
H672 C658 0.930 . S
H673 C659 0.931 . S
H674 C660 0.931 . S
H675 C661 0.933 . S
H676 C667 0.930 . S
H677 C668 0.931 . S
H678 C669 0.931 . S
H679 C670 0.933 . S
Dy680 O683 2.307 . S
Dy680 O685 2.395 . S
Dy680 O686 2.379 . S
Dy680 O688 2.339 . S
Dy680 O690 2.298 . S
Dy680 O694 2.275 . S
Dy680 C702 2.738 . S
Dy681 O684 2.298 . S
Dy681 O687 2.275 . S
Dy681 O689 2.307 . S
Dy681 O691 2.395 . S
Dy681 O692 2.379 . S
Dy681 O695 2.339 . S
Dy681 C711 2.738 . S
C682 O694 1.254 . S
C682 O695 1.257 . S
O683 Dy680 2.307 . S
O683 C693 1.266 . S
O684 Dy681 2.298 . S
O684 C693 1.236 . S
O685 Dy680 2.395 . S
O685 C702 1.255 . S
O686 Dy680 2.379 . S
O686 C702 1.249 . S
O687 Dy681 2.275 . S
O687 C703 1.254 . S
O688 Dy680 2.339 . S
O688 C703 1.257 . S
O689 Dy681 2.307 . S
O689 C704 1.266 . S
O690 Dy680 2.298 . S
O690 C704 1.236 . S
O691 Dy681 2.395 . S
O691 C711 1.255 . S
O692 Dy681 2.379 . S
O692 C711 1.249 . S
C693 O683 1.266 . S
C693 O684 1.236 . S
O694 Dy680 2.275 . S
O694 C682 1.254 . S
O695 Dy681 2.339 . S
O695 C682 1.257 . S
C696 C699 1.344 . S
C696 C700 1.328 . S
C696 C702 1.516 1_556 S
C697 C698 1.304 . S
C697 C701 1.323 . S
C698 C697 1.304 . S
C698 C699 1.371 . S
C698 H712 0.930 . S
C699 C696 1.344 . S
C699 C698 1.371 . S
C699 H713 0.931 . S
C700 C696 1.328 . S
C700 C701 1.433 . S
C700 H714 0.931 . S
C701 C697 1.323 . S
C701 C700 1.433 . S
C701 H715 0.933 . S
C702 Dy680 2.738 . S
C702 O685 1.255 . S
C702 O686 1.249 . S
C702 C696 1.516 1_554 S
C703 O687 1.254 . S
C703 O688 1.257 . S
C704 O689 1.266 . S
C704 O690 1.236 . S
C705 C708 1.344 . S
C705 C709 1.328 . S
C705 C711 1.516 . S
C706 C707 1.304 . S
C706 C710 1.323 . S
C707 C706 1.304 . S
C707 C708 1.371 . S
C707 H716 0.930 . S
C708 C705 1.344 . S
C708 C707 1.371 . S
C708 H717 0.931 . S
C709 C705 1.328 . S
C709 C710 1.433 . S
C709 H718 0.931 . S
C710 C706 1.323 . S
C710 C709 1.433 . S
C710 H719 0.933 . S
C711 Dy681 2.738 . S
C711 O691 1.255 . S
C711 O692 1.249 . S
C711 C705 1.516 . S
H712 C698 0.930 . S
H713 C699 0.931 . S
H714 C700 0.931 . S
H715 C701 0.933 . S
H716 C707 0.930 . S
H717 C708 0.931 . S
H718 C709 0.931 . S
H719 C710 0.933 . S
C720 C721 1.369 . S
C720 C722 1.419 . S
C720 H724 0.930 . S
C721 C720 1.369 . S
C721 C730 1.429 . S
C722 C720 1.419 . S
C722 C723 1.363 . S
C722 H725 0.929 . S
C723 C722 1.363 . S
C723 C729 1.428 . S
H724 C720 0.930 . S
H725 C722 0.929 . S
S726 N727 1.613 . S
S726 N728 1.610 . S
N727 S726 1.613 . S
N727 C730 1.350 . S
N728 S726 1.610 . S
N728 C729 1.351 . S
C729 C723 1.428 . S
C729 N728 1.351 . S
C729 C730 1.434 . S
C730 C721 1.429 . S
C730 N727 1.350 . S
C730 C729 1.434 . S
C731 C732 1.369 . S
C731 C733 1.419 . S
C731 H735 0.930 . S
C732 C731 1.369 . S
C732 C741 1.429 . S
C733 C731 1.419 . S
C733 C734 1.363 . S
C733 H736 0.929 . S
C734 C733 1.363 . S
C734 C740 1.428 . S
H735 C731 0.930 . S
H736 C733 0.929 . S
S737 N738 1.613 . S
S737 N739 1.610 . S
N738 S737 1.613 . S
N738 C741 1.350 . S
N739 S737 1.610 . S
N739 C740 1.351 . S
C740 C734 1.428 . S
C740 N739 1.351 . S
C740 C741 1.434 . S
C741 C732 1.429 . S
C741 N738 1.350 . S
C741 C740 1.434 . S
C742 C743 1.369 . S
C742 C744 1.419 . S
C742 H746 0.930 . S
C743 C742 1.369 . S
C743 C752 1.429 . S
C744 C742 1.419 . S
C744 C745 1.363 . S
C744 H747 0.929 . S
C745 C744 1.363 . S
C745 C751 1.428 . S
H746 C742 0.930 . S
H747 C744 0.929 . S
S748 N749 1.613 . S
S748 N750 1.610 . S
N749 S748 1.613 . S
N749 C752 1.350 . S
N750 S748 1.610 . S
N750 C751 1.351 . S
C751 C745 1.428 . S
C751 N750 1.351 . S
C751 C752 1.434 . S
C752 C743 1.429 . S
C752 N749 1.350 . S
C752 C751 1.434 . S
C753 C754 1.369 . S
C753 C755 1.419 . S
C753 H757 0.930 . S
C754 C753 1.369 . S
C754 C763 1.429 . S
C755 C753 1.419 . S
C755 C756 1.363 . S
C755 H758 0.929 . S
C756 C755 1.363 . S
C756 C762 1.428 . S
H757 C753 0.930 . S
H758 C755 0.929 . S
S759 N760 1.613 . S
S759 N761 1.610 . S
N760 S759 1.613 . S
N760 C763 1.350 . S
N761 S759 1.610 . S
N761 C762 1.351 . S
C762 C756 1.428 . S
C762 N761 1.351 . S
C762 C763 1.434 . S
C763 C754 1.429 . S
C763 N760 1.350 . S
C763 C762 1.434 . S
C764 C765 1.369 . S
C764 C766 1.419 . S
C764 H768 0.930 . S
C765 C764 1.369 . S
C765 C774 1.429 . S
C766 C764 1.419 . S
C766 C767 1.363 . S
C766 H769 0.929 . S
C767 C766 1.363 . S
C767 C773 1.428 . S
H768 C764 0.930 . S
H769 C766 0.929 . S
S770 N771 1.613 . S
S770 N772 1.610 . S
N771 S770 1.613 . S
N771 C774 1.350 . S
N772 S770 1.610 . S
N772 C773 1.351 . S
C773 C767 1.428 . S
C773 N772 1.351 . S
C773 C774 1.434 . S
C774 C765 1.429 . S
C774 N771 1.350 . S
C774 C773 1.434 . S
C775 C776 1.369 . S
C775 C777 1.419 . S
C775 H779 0.930 . S
C776 C775 1.369 . S
C776 C785 1.429 . S
C777 C775 1.419 . S
C777 C778 1.363 . S
C777 H780 0.929 . S
C778 C777 1.363 . S
C778 C784 1.428 . S
H779 C775 0.930 . S
H780 C777 0.929 . S
S781 N782 1.613 . S
S781 N783 1.610 . S
N782 S781 1.613 . S
N782 C785 1.350 . S
N783 S781 1.610 . S
N783 C784 1.351 . S
C784 C778 1.428 . S
C784 N783 1.351 . S
C784 C785 1.434 . S
C785 C776 1.429 . S
C785 N782 1.350 . S
C785 C784 1.434 . S
C786 C787 1.369 . S
C786 C788 1.419 . S
C786 H790 0.930 . S
C787 C786 1.369 . S
C787 C796 1.429 . S
C788 C786 1.419 . S
C788 C789 1.363 . S
C788 H791 0.929 . S
C789 C788 1.363 . S
C789 C795 1.428 . S
H790 C786 0.930 . S
H791 C788 0.929 . S
S792 N793 1.613 . S
S792 N794 1.610 . S
N793 S792 1.613 . S
N793 C796 1.350 . S
N794 S792 1.610 . S
N794 C795 1.351 . S
C795 C789 1.428 . S
C795 N794 1.351 . S
C795 C796 1.434 . S
C796 C787 1.429 . S
C796 N793 1.350 . S
C796 C795 1.434 . S
C797 C798 1.369 . S
C797 C799 1.419 . S
C797 H801 0.930 . S
C798 C797 1.369 . S
C798 C807 1.429 . S
C799 C797 1.419 . S
C799 C800 1.363 . S
C799 H802 0.929 . S
C800 C799 1.363 . S
C800 C806 1.428 . S
H801 C797 0.930 . S
H802 C799 0.929 . S
S803 N804 1.613 . S
S803 N805 1.610 . S
N804 S803 1.613 . S
N804 C807 1.350 . S
N805 S803 1.610 . S
N805 C806 1.351 . S
C806 C800 1.428 . S
C806 N805 1.351 . S
C806 C807 1.434 . S
C807 C798 1.429 . S
C807 N804 1.350 . S
C807 C806 1.434 . S
C808 C809 1.369 . S
C808 C810 1.419 . S
C808 H812 0.930 . S
C809 C808 1.369 . S
C809 C818 1.429 . S
C810 C808 1.419 . S
C810 C811 1.363 . S
C810 H813 0.929 . S
C811 C810 1.363 . S
C811 C817 1.428 . S
H812 C808 0.930 . S
H813 C810 0.929 . S
S814 N815 1.613 . S
S814 N816 1.610 . S
N815 S814 1.613 . S
N815 C818 1.350 . S
N816 S814 1.610 . S
N816 C817 1.351 . S
C817 C811 1.428 . S
C817 N816 1.351 . S
C817 C818 1.434 . S
C818 C809 1.429 . S
C818 N815 1.350 . S
C818 C817 1.434 . S
C819 C820 1.369 . S
C819 C821 1.419 . S
C819 H823 0.930 . S
C820 C819 1.369 . S
C820 C829 1.429 . S
C821 C819 1.419 . S
C821 C822 1.363 . S
C821 H824 0.929 . S
C822 C821 1.363 . S
C822 C828 1.428 . S
H823 C819 0.930 . S
H824 C821 0.929 . S
S825 N826 1.613 . S
S825 N827 1.610 . S
N826 S825 1.613 . S
N826 C829 1.350 . S
N827 S825 1.610 . S
N827 C828 1.351 . S
C828 C822 1.428 . S
C828 N827 1.351 . S
C828 C829 1.434 . S
C829 C820 1.429 . S
C829 N826 1.350 . S
C829 C828 1.434 . S
C830 C831 1.369 . S
C830 C832 1.419 . S
C830 H834 0.930 . S
C831 C830 1.369 . S
C831 C840 1.429 . S
C832 C830 1.419 . S
C832 C833 1.363 . S
C832 H835 0.929 . S
C833 C832 1.363 . S
C833 C839 1.428 . S
H834 C830 0.930 . S
H835 C832 0.929 . S
S836 N837 1.613 . S
S836 N838 1.610 . S
N837 S836 1.613 . S
N837 C840 1.350 . S
N838 S836 1.610 . S
N838 C839 1.351 . S
C839 C833 1.428 . S
C839 N838 1.351 . S
C839 C840 1.434 . S
C840 C831 1.429 . S
C840 N837 1.350 . S
C840 C839 1.434 . S
C841 C842 1.369 . S
C841 C843 1.419 . S
C841 H845 0.930 . S
C842 C841 1.369 . S
C842 C851 1.429 . S
C843 C841 1.419 . S
C843 C844 1.363 . S
C843 H846 0.929 . S
C844 C843 1.363 . S
C844 C850 1.428 . S
H845 C841 0.930 . S
H846 C843 0.929 . S
S847 N848 1.613 . S
S847 N849 1.610 . S
N848 S847 1.613 . S
N848 C851 1.350 . S
N849 S847 1.610 . S
N849 C850 1.351 . S
C850 C844 1.428 . S
C850 N849 1.351 . S
C850 C851 1.434 . S
C851 C842 1.429 . S
C851 N848 1.350 . S
C851 C850 1.434 . S
C852 C853 1.369 . S
C852 C854 1.419 . S
C852 H856 0.930 . S
C853 C852 1.369 . S
C853 C862 1.429 1_655 S
C854 C852 1.419 . S
C854 C855 1.363 1_655 S
C854 H857 0.929 1_556 S
C855 C854 1.363 1_455 S
C855 C861 1.428 . S
H856 C852 0.930 . S
H857 C854 0.929 1_554 S
S858 N859 1.613 . S
S858 N860 1.610 . S
N859 S858 1.613 . S
N859 C862 1.350 . S
N860 S858 1.610 . S
N860 C861 1.351 . S
C861 C855 1.428 . S
C861 N860 1.351 . S
C861 C862 1.434 . S
C862 C853 1.429 1_455 S
C862 N859 1.350 . S
C862 C861 1.434 . S
C863 C864 1.369 . S
C863 C865 1.419 . S
C863 H867 0.930 . S
C864 C863 1.369 . S
C864 C873 1.429 . S
C865 C863 1.419 . S
C865 C866 1.363 . S
C865 H868 0.929 . S
C866 C865 1.363 . S
C866 C872 1.428 . S
H867 C863 0.930 . S
H868 C865 0.929 . S
S869 N870 1.613 1_554 S
S869 N871 1.610 . S
N870 S869 1.613 1_556 S
N870 C873 1.350 . S
N871 S869 1.610 . S
N871 C872 1.351 1_554 S
C872 C866 1.428 . S
C872 N871 1.351 1_556 S
C872 C873 1.434 . S
C873 C864 1.429 . S
C873 N870 1.350 . S
C873 C872 1.434 . S
C874 C875 1.369 1_565 S
C874 C876 1.419 . S
C874 H878 0.930 . S
C875 C874 1.369 1_545 S
C875 C884 1.429 . S
C876 C874 1.419 . S
C876 C877 1.363 . S
C876 H879 0.929 . S
C877 C876 1.363 . S
C877 C883 1.428 1_565 S
H878 C874 0.930 . S
H879 C876 0.929 . S
S880 N881 1.613 1_554 S
S880 N882 1.610 . S
N881 S880 1.613 1_556 S
N881 C884 1.350 . S
N882 S880 1.610 . S
N882 C883 1.351 1_554 S
C883 C877 1.428 1_545 S
C883 N882 1.351 1_556 S
C883 C884 1.434 . S
C884 C875 1.429 . S
C884 N881 1.350 . S
C884 C883 1.434 . S
C885 C886 1.369 . S
C885 C887 1.419 . S
C885 H889 0.930 . S
C886 C885 1.369 . S
C886 C895 1.429 1_545 S
C887 C885 1.419 . S
C887 C888 1.363 1_545 S
C887 H890 0.929 . S
C888 C887 1.363 1_565 S
C888 C894 1.428 . S
H889 C885 0.930 . S
H890 C887 0.929 . S
S891 N892 1.613 . S
S891 N893 1.610 1_556 S
N892 S891 1.613 . S
N892 C895 1.350 1_556 S
N893 S891 1.610 1_554 S
N893 C894 1.351 . S
C894 C888 1.428 . S
C894 N893 1.351 . S
C894 C895 1.434 . S
C895 C886 1.429 1_565 S
C895 N892 1.350 1_554 S
C895 C894 1.434 . S
C896 C897 1.369 . S
C896 C898 1.419 . S
C896 H900 0.930 . S
C897 C896 1.369 . S
C897 C906 1.429 1_455 S
C898 C896 1.419 . S
C898 C899 1.363 1_455 S
C898 H901 0.929 1_554 S
C899 C898 1.363 1_655 S
C899 C905 1.428 . S
H900 C896 0.930 . S
H901 C898 0.929 1_556 S
S902 N903 1.613 . S
S902 N904 1.610 . S
N903 S902 1.613 . S
N903 C906 1.350 . S
N904 S902 1.610 . S
N904 C905 1.351 . S
C905 C899 1.428 . S
C905 N904 1.351 . S
C905 C906 1.434 . S
C906 C897 1.429 1_655 S
C906 N903 1.350 . S
C906 C905 1.434 . S
C907 C908 1.369 . S
C907 C909 1.419 . S
C907 H911 0.930 . S
C908 C907 1.369 . S
C908 C917 1.429 . S
C909 C907 1.419 . S
C909 C910 1.363 . S
C909 H912 0.929 . S
C910 C909 1.363 . S
C910 C916 1.428 . S
H911 C907 0.930 . S
H912 C909 0.929 . S
S913 N914 1.613 . S
S913 N915 1.610 . S
N914 S913 1.613 . S
N914 C917 1.350 . S
N915 S913 1.610 . S
N915 C916 1.351 . S
C916 C910 1.428 . S
C916 N915 1.351 . S
C916 C917 1.434 . S
C917 C908 1.429 . S
C917 N914 1.350 . S
C917 C916 1.434 . S
C918 C919 1.369 . S
C918 C920 1.419 . S
C918 H922 0.930 . S
C919 C918 1.369 . S
C919 C928 1.429 . S
C920 C918 1.419 . S
C920 C921 1.363 . S
C920 H923 0.929 . S
C921 C920 1.363 . S
C921 C927 1.428 . S
H922 C918 0.930 . S
H923 C920 0.929 . S
S924 N925 1.613 . S
S924 N926 1.610 . S
N925 S924 1.613 . S
N925 C928 1.350 . S
N926 S924 1.610 . S
N926 C927 1.351 . S
C927 C921 1.428 . S
C927 N926 1.351 . S
C927 C928 1.434 . S
C928 C919 1.429 . S
C928 N925 1.350 . S
C928 C927 1.434 . S
C929 C930 1.369 . S
C929 C931 1.419 . S
C929 H933 0.930 . S
C930 C929 1.369 . S
C930 C939 1.429 . S
C931 C929 1.419 . S
C931 C932 1.363 . S
C931 H934 0.929 . S
C932 C931 1.363 . S
C932 C938 1.428 . S
H933 C929 0.930 . S
H934 C931 0.929 . S
S935 N936 1.613 . S
S935 N937 1.610 . S
N936 S935 1.613 . S
N936 C939 1.350 . S
N937 S935 1.610 . S
N937 C938 1.351 . S
C938 C932 1.428 . S
C938 N937 1.351 . S
C938 C939 1.434 . S
C939 C930 1.429 . S
C939 N936 1.350 . S
C939 C938 1.434 . S
C940 C941 1.369 . S
C940 C942 1.419 . S
C940 H944 0.930 . S
C941 C940 1.369 . S
C941 C950 1.429 . S
C942 C940 1.419 . S
C942 C943 1.363 . S
C942 H945 0.929 . S
C943 C942 1.363 . S
C943 C949 1.428 . S
H944 C940 0.930 . S
H945 C942 0.929 . S
S946 N947 1.613 . S
S946 N948 1.610 . S
N947 S946 1.613 . S
N947 C950 1.350 . S
N948 S946 1.610 . S
N948 C949 1.351 . S
C949 C943 1.428 . S
C949 N948 1.351 . S
C949 C950 1.434 . S
C950 C941 1.429 . S
C950 N947 1.350 . S
C950 C949 1.434 . S
C951 C952 1.369 . S
C951 C953 1.419 . S
C951 H955 0.930 . S
C952 C951 1.369 . S
C952 C961 1.429 . S
C953 C951 1.419 . S
C953 C954 1.363 . S
C953 H956 0.929 . S
C954 C953 1.363 . S
C954 C960 1.428 . S
H955 C951 0.930 . S
H956 C953 0.929 . S
S957 N958 1.613 . S
S957 N959 1.610 . S
N958 S957 1.613 . S
N958 C961 1.350 . S
N959 S957 1.610 . S
N959 C960 1.351 . S
C960 C954 1.428 . S
C960 N959 1.351 . S
C960 C961 1.434 . S
C961 C952 1.429 . S
C961 N958 1.350 . S
C961 C960 1.434 . S
C962 C963 1.369 . S
C962 C964 1.419 . S
C962 H966 0.930 . S
C963 C962 1.369 . S
C963 C972 1.429 . S
C964 C962 1.419 . S
C964 C965 1.363 . S
C964 H967 0.929 . S
C965 C964 1.363 . S
C965 C971 1.428 . S
H966 C962 0.930 . S
H967 C964 0.929 . S
S968 N969 1.613 . S
S968 N970 1.610 . S
N969 S968 1.613 . S
N969 C972 1.350 . S
N970 S968 1.610 . S
N970 C971 1.351 . S
C971 C965 1.428 . S
C971 N970 1.351 . S
C971 C972 1.434 . S
C972 C963 1.429 . S
C972 N969 1.350 . S
C972 C971 1.434 . S
C973 C974 1.369 . S
C973 C975 1.419 . S
C973 H977 0.930 . S
C974 C973 1.369 . S
C974 C983 1.429 . S
C975 C973 1.419 . S
C975 C976 1.363 . S
C975 H978 0.929 . S
C976 C975 1.363 . S
C976 C982 1.428 . S
H977 C973 0.930 . S
H978 C975 0.929 . S
S979 N980 1.613 . S
S979 N981 1.610 . S
N980 S979 1.613 . S
N980 C983 1.350 . S
N981 S979 1.610 . S
N981 C982 1.351 . S
C982 C976 1.428 . S
C982 N981 1.351 . S
C982 C983 1.434 . S
C983 C974 1.429 . S
C983 N980 1.350 . S
C983 C982 1.434 . S
C984 C985 1.369 . S
C984 C986 1.419 . S
C984 H988 0.930 . S
C985 C984 1.369 . S
C985 C994 1.429 . S
C986 C984 1.419 . S
C986 C987 1.363 . S
C986 H989 0.929 . S
C987 C986 1.363 . S
C987 C993 1.428 . S
H988 C984 0.930 . S
H989 C986 0.929 . S
S990 N991 1.613 . S
S990 N992 1.610 . S
N991 S990 1.613 . S
N991 C994 1.350 . S
N992 S990 1.610 . S
N992 C993 1.351 . S
C993 C987 1.428 . S
C993 N992 1.351 . S
C993 C994 1.434 . S
C994 C985 1.429 . S
C994 N991 1.350 . S
C994 C993 1.434 . S
C995 C996 1.369 . S
C995 C997 1.419 . S
C995 H999 0.930 . S
C996 C995 1.369 . S
C996 C1005 1.429 . S
C997 C995 1.419 . S
C997 C998 1.363 . S
C997 H1000 0.929 . S
C998 C997 1.363 . S
C998 C1004 1.428 . S
H999 C995 0.930 . S
H1000 C997 0.929 . S
S1001 N1002 1.613 . S
S1001 N1003 1.610 . S
N1002 S1001 1.613 . S
N1002 C1005 1.350 . S
N1003 S1001 1.610 . S
N1003 C1004 1.351 . S
C1004 C998 1.428 . S
C1004 N1003 1.351 . S
C1004 C1005 1.434 . S
C1005 C996 1.429 . S
C1005 N1002 1.350 . S
C1005 C1004 1.434 . S
C1006 C1007 1.369 . S
C1006 C1008 1.419 . S
C1006 H1010 0.930 . S
C1007 C1006 1.369 . S
C1007 C1016 1.429 . S
C1008 C1006 1.419 . S
C1008 C1009 1.363 . S
C1008 H1011 0.929 . S
C1009 C1008 1.363 . S
C1009 C1015 1.428 . S
H1010 C1006 0.930 . S
H1011 C1008 0.929 . S
S1012 N1013 1.613 . S
S1012 N1014 1.610 . S
N1013 S1012 1.613 . S
N1013 C1016 1.350 . S
N1014 S1012 1.610 . S
N1014 C1015 1.351 . S
C1015 C1009 1.428 . S
C1015 N1014 1.351 . S
C1015 C1016 1.434 . S
C1016 C1007 1.429 . S
C1016 N1013 1.350 . S
C1016 C1015 1.434 . S
C1017 C1018 1.369 . S
C1017 C1019 1.419 . S
C1017 H1021 0.930 . S
C1018 C1017 1.369 . S
C1018 C1027 1.429 . S
C1019 C1017 1.419 . S
C1019 C1020 1.363 . S
C1019 H1022 0.929 . S
C1020 C1019 1.363 . S
C1020 C1026 1.428 . S
H1021 C1017 0.930 . S
H1022 C1019 0.929 . S
S1023 N1024 1.613 . S
S1023 N1025 1.610 . S
N1024 S1023 1.613 . S
N1024 C1027 1.350 . S
N1025 S1023 1.610 . S
N1025 C1026 1.351 . S
C1026 C1020 1.428 . S
C1026 N1025 1.351 . S
C1026 C1027 1.434 . S
C1027 C1018 1.429 . S
C1027 N1024 1.350 . S
C1027 C1026 1.434 . S
C1028 C1029 1.369 . S
C1028 C1030 1.419 . S
C1028 H1032 0.930 . S
C1029 C1028 1.369 . S
C1029 C1038 1.429 . S
C1030 C1028 1.419 . S
C1030 C1031 1.363 . S
C1030 H1033 0.929 . S
C1031 C1030 1.363 . S
C1031 C1037 1.428 . S
H1032 C1028 0.930 . S
H1033 C1030 0.929 . S
S1034 N1035 1.613 . S
S1034 N1036 1.610 . S
N1035 S1034 1.613 . S
N1035 C1038 1.350 . S
N1036 S1034 1.610 . S
N1036 C1037 1.351 . S
C1037 C1031 1.428 . S
C1037 N1036 1.351 . S
C1037 C1038 1.434 . S
C1038 C1029 1.429 . S
C1038 N1035 1.350 . S
C1038 C1037 1.434 . S
C1039 C1040 1.369 . S
C1039 C1041 1.419 . S
C1039 H1043 0.930 . S
C1040 C1039 1.369 . S
C1040 C1049 1.429 . S
C1041 C1039 1.419 . S
C1041 C1042 1.363 . S
C1041 H1044 0.929 . S
C1042 C1041 1.363 . S
C1042 C1048 1.428 . S
H1043 C1039 0.930 . S
H1044 C1041 0.929 . S
S1045 N1046 1.613 . S
S1045 N1047 1.610 . S
N1046 S1045 1.613 . S
N1046 C1049 1.350 . S
N1047 S1045 1.610 . S
N1047 C1048 1.351 . S
C1048 C1042 1.428 . S
C1048 N1047 1.351 . S
C1048 C1049 1.434 . S
C1049 C1040 1.429 . S
C1049 N1046 1.350 . S
C1049 C1048 1.434 . S
C1050 C1051 1.369 . S
C1050 C1052 1.419 . S
C1050 H1054 0.930 . S
C1051 C1050 1.369 . S
C1051 C1060 1.429 . S
C1052 C1050 1.419 . S
C1052 C1053 1.363 . S
C1052 H1055 0.929 . S
C1053 C1052 1.363 . S
C1053 C1059 1.428 . S
H1054 C1050 0.930 . S
H1055 C1052 0.929 . S
S1056 N1057 1.613 . S
S1056 N1058 1.610 . S
N1057 S1056 1.613 . S
N1057 C1060 1.350 . S
N1058 S1056 1.610 . S
N1058 C1059 1.351 . S
C1059 C1053 1.428 . S
C1059 N1058 1.351 . S
C1059 C1060 1.434 . S
C1060 C1051 1.429 . S
C1060 N1057 1.350 . S
C1060 C1059 1.434 . S
C1061 C1062 1.369 . S
C1061 C1063 1.419 . S
C1061 H1065 0.930 . S
C1062 C1061 1.369 . S
C1062 C1071 1.429 . S
C1063 C1061 1.419 . S
C1063 C1064 1.363 . S
C1063 H1066 0.929 . S
C1064 C1063 1.363 . S
C1064 C1070 1.428 . S
H1065 C1061 0.930 . S
H1066 C1063 0.929 . S
S1067 N1068 1.613 . S
S1067 N1069 1.610 . S
N1068 S1067 1.613 . S
N1068 C1071 1.350 . S
N1069 S1067 1.610 . S
N1069 C1070 1.351 . S
C1070 C1064 1.428 . S
C1070 N1069 1.351 . S
C1070 C1071 1.434 . S
C1071 C1062 1.429 . S
C1071 N1068 1.350 . S
C1071 C1070 1.434 . S
C1072 C1073 1.369 . S
C1072 C1074 1.419 . S
C1072 H1076 0.930 . S
C1073 C1072 1.369 . S
C1073 C1082 1.429 . S
C1074 C1072 1.419 . S
C1074 C1075 1.363 . S
C1074 H1077 0.929 . S
C1075 C1074 1.363 . S
C1075 C1081 1.428 . S
H1076 C1072 0.930 . S
H1077 C1074 0.929 . S
S1078 N1079 1.613 . S
S1078 N1080 1.610 . S
N1079 S1078 1.613 . S
N1079 C1082 1.350 . S
N1080 S1078 1.610 . S
N1080 C1081 1.351 . S
C1081 C1075 1.428 . S
C1081 N1080 1.351 . S
C1081 C1082 1.434 . S
C1082 C1073 1.429 . S
C1082 N1079 1.350 . S
C1082 C1081 1.434 . S
C1083 C1084 1.369 . S
C1083 C1085 1.419 . S
C1083 H1087 0.930 . S
C1084 C1083 1.369 . S
C1084 C1093 1.429 . S
C1085 C1083 1.419 . S
C1085 C1086 1.363 . S
C1085 H1088 0.929 . S
C1086 C1085 1.363 . S
C1086 C1092 1.428 . S
H1087 C1083 0.930 . S
H1088 C1085 0.929 . S
S1089 N1090 1.613 . S
S1089 N1091 1.610 . S
N1090 S1089 1.613 . S
N1090 C1093 1.350 . S
N1091 S1089 1.610 . S
N1091 C1092 1.351 . S
C1092 C1086 1.428 . S
C1092 N1091 1.351 . S
C1092 C1093 1.434 . S
C1093 C1084 1.429 . S
C1093 N1090 1.350 . S
C1093 C1092 1.434 . S
C1094 C1095 1.369 . S
C1094 C1096 1.419 . S
C1094 H1098 0.930 . S
C1095 C1094 1.369 . S
C1095 C1104 1.429 . S
C1096 C1094 1.419 . S
C1096 C1097 1.363 . S
C1096 H1099 0.929 . S
C1097 C1096 1.363 . S
C1097 C1103 1.428 . S
H1098 C1094 0.930 . S
H1099 C1096 0.929 . S
S1100 N1101 1.613 . S
S1100 N1102 1.610 . S
N1101 S1100 1.613 . S
N1101 C1104 1.350 . S
N1102 S1100 1.610 . S
N1102 C1103 1.351 . S
C1103 C1097 1.428 . S
C1103 N1102 1.351 . S
C1103 C1104 1.434 . S
C1104 C1095 1.429 . S
C1104 N1101 1.350 . S
C1104 C1103 1.434 . S
C1105 C1106 1.369 . S
C1105 C1107 1.419 . S
C1105 H1109 0.930 . S
C1106 C1105 1.369 . S
C1106 C1115 1.429 . S
C1107 C1105 1.419 . S
C1107 C1108 1.363 . S
C1107 H1110 0.929 . S
C1108 C1107 1.363 . S
C1108 C1114 1.428 . S
H1109 C1105 0.930 . S
H1110 C1107 0.929 . S
S1111 N1112 1.613 . S
S1111 N1113 1.610 . S
N1112 S1111 1.613 . S
N1112 C1115 1.350 . S
N1113 S1111 1.610 . S
N1113 C1114 1.351 . S
C1114 C1108 1.428 . S
C1114 N1113 1.351 . S
C1114 C1115 1.434 . S
C1115 C1106 1.429 . S
C1115 N1112 1.350 . S
C1115 C1114 1.434 . S
C1116 C1117 1.379 . S
C1116 C1118 1.419 1_554 S
C1116 H1120 0.936 1_455 S
C1117 C1116 1.379 . S
C1117 C1126 1.424 1_554 S
C1118 C1116 1.419 1_556 S
C1118 C1119 1.363 . S
C1118 H1121 0.929 . S
C1119 C1118 1.363 . S
C1119 C1125 1.428 . S
H1120 C1116 0.936 1_655 S
H1121 C1118 0.929 . S
S1122 N1123 1.613 . S
S1122 N1124 1.610 . S
N1123 S1122 1.613 . S
N1123 C1126 1.350 . S
N1124 S1122 1.610 . S
N1124 C1125 1.351 . S
C1125 C1119 1.428 . S
C1125 N1124 1.351 . S
C1125 C1126 1.434 . S
C1126 C1117 1.424 1_556 S
C1126 N1123 1.350 . S
C1126 C1125 1.434 . S
C1127 C1128 1.369 1_556 S
C1127 C1129 1.419 . S
C1127 H1131 0.930 . S
C1128 C1127 1.369 1_554 S
C1128 C1137 1.429 . S
C1129 C1127 1.419 . S
C1129 C1130 1.363 . S
C1129 H1132 0.929 . S
C1130 C1129 1.363 . S
C1130 C1136 1.428 . S
H1131 C1127 0.930 . S
H1132 C1129 0.929 . S
S1133 N1134 1.613 . S
S1133 N1135 1.610 1_554 S
N1134 S1133 1.613 . S
N1134 C1137 1.350 . S
N1135 S1133 1.610 1_556 S
N1135 C1136 1.351 . S
C1136 C1130 1.428 . S
C1136 N1135 1.351 . S
C1136 C1137 1.434 1_556 S
C1137 C1128 1.429 . S
C1137 N1134 1.350 . S
C1137 C1136 1.434 1_554 S
C1138 C1139 1.369 1_566 S
C1138 C1140 1.419 . S
C1138 H1142 0.930 1_556 S
C1139 C1138 1.369 1_544 S
C1139 C1148 1.429 1_554 S
C1140 C1138 1.419 . S
C1140 C1141 1.363 1_565 S
C1140 H1143 0.929 . S
C1141 C1140 1.363 1_545 S
C1141 C1147 1.428 . S
H1142 C1138 0.930 1_554 S
H1143 C1140 0.929 . S
S1144 N1145 1.613 1_556 S
S1144 N1146 1.610 . S
N1145 S1144 1.613 1_554 S
N1145 C1148 1.350 1_554 S
N1146 S1144 1.610 . S
N1146 C1147 1.351 . S
C1147 C1141 1.428 . S
C1147 N1146 1.351 . S
C1147 C1148 1.434 . S
C1148 C1139 1.429 1_556 S
C1148 N1145 1.350 1_556 S
C1148 C1147 1.434 . S
C1149 C1150 1.369 1_554 S
C1149 C1151 1.419 . S
C1149 H1153 0.930 . S
C1150 C1149 1.369 1_556 S
C1150 C1159 1.429 1_455 S
C1151 C1149 1.419 . S
C1151 C1152 1.363 . S
C1151 H1154 0.929 . S
C1152 C1151 1.363 . S
C1152 C1158 1.428 1_455 S
H1153 C1149 0.930 . S
H1154 C1151 0.929 . S
S1155 N1156 1.613 . S
S1155 N1157 1.610 1_556 S
N1156 S1155 1.613 . S
N1156 C1159 1.350 . S
N1157 S1155 1.610 1_554 S
N1157 C1158 1.351 . S
C1158 C1152 1.428 1_655 S
C1158 N1157 1.351 . S
C1158 C1159 1.434 1_554 S
C1159 C1150 1.429 1_655 S
C1159 N1156 1.350 . S
C1159 C1158 1.434 1_556 S
C1160 C1161 1.369 . S
C1160 C1162 1.419 . S
C1160 H1164 0.930 . S
C1161 C1160 1.369 . S
C1161 C1170 1.429 . S
C1162 C1160 1.419 . S
C1162 C1163 1.363 1_554 S
C1162 H1165 0.929 . S
C1163 C1162 1.363 1_556 S
C1163 C1169 1.428 1_556 S
H1164 C1160 0.930 . S
H1165 C1162 0.929 . S
S1166 N1167 1.613 . S
S1166 N1168 1.610 1_554 S
N1167 S1166 1.613 . S
N1167 C1170 1.350 . S
N1168 S1166 1.610 1_556 S
N1168 C1169 1.351 1_556 S
C1169 C1163 1.428 1_554 S
C1169 N1168 1.351 1_554 S
C1169 C1170 1.434 . S
C1170 C1161 1.429 . S
C1170 N1167 1.350 . S
C1170 C1169 1.434 . S
C1171 C1172 1.369 . S
C1171 C1173 1.419 1_554 S
C1171 H1175 0.930 . S
C1172 C1171 1.369 . S
C1172 C1181 1.429 1_545 S
C1173 C1171 1.419 1_556 S
C1173 C1174 1.363 1_545 S
C1173 H1176 0.929 . S
C1174 C1173 1.363 1_565 S
C1174 C1180 1.428 1_556 S
H1175 C1171 0.930 . S
H1176 C1173 0.929 . S
S1177 N1178 1.613 . S
S1177 N1179 1.610 . S
N1178 S1177 1.613 . S
N1178 C1181 1.350 . S
N1179 S1177 1.610 . S
N1179 C1180 1.351 . S
C1180 C1174 1.428 1_554 S
C1180 N1179 1.351 . S
C1180 C1181 1.434 . S
C1181 C1172 1.429 1_565 S
C1181 N1178 1.350 . S
C1181 C1180 1.434 . S
C1182 C1183 1.369 . S
C1182 C1184 1.419 . S
C1182 H1186 0.930 . S
C1183 C1182 1.369 . S
C1183 C1192 1.429 . S
C1184 C1182 1.419 . S
C1184 C1185 1.363 . S
C1184 H1187 0.929 . S
C1185 C1184 1.363 . S
C1185 C1191 1.428 . S
H1186 C1182 0.930 . S
H1187 C1184 0.929 . S
S1188 N1189 1.613 . S
S1188 N1190 1.610 . S
N1189 S1188 1.613 . S
N1189 C1192 1.350 . S
N1190 S1188 1.610 . S
N1190 C1191 1.351 . S
C1191 C1185 1.428 . S
C1191 N1190 1.351 . S
C1191 C1192 1.434 . S
C1192 C1183 1.429 . S
C1192 N1189 1.350 . S
C1192 C1191 1.434 . S
C1193 C1194 1.369 . S
C1193 C1195 1.419 . S
C1193 H1197 0.930 . S
C1194 C1193 1.369 . S
C1194 C1203 1.429 . S
C1195 C1193 1.419 . S
C1195 C1196 1.363 . S
C1195 H1198 0.929 . S
C1196 C1195 1.363 . S
C1196 C1202 1.428 . S
H1197 C1193 0.930 . S
H1198 C1195 0.929 . S
S1199 N1200 1.613 . S
S1199 N1201 1.610 . S
N1200 S1199 1.613 . S
N1200 C1203 1.350 . S
N1201 S1199 1.610 . S
N1201 C1202 1.351 . S
C1202 C1196 1.428 . S
C1202 N1201 1.351 . S
C1202 C1203 1.434 . S
C1203 C1194 1.429 . S
C1203 N1200 1.350 . S
C1203 C1202 1.434 . S
C1204 C1205 1.369 . S
C1204 C1206 1.419 . S
C1204 H1208 0.930 . S
C1205 C1204 1.369 . S
C1205 C1214 1.429 . S
C1206 C1204 1.419 . S
C1206 C1207 1.363 . S
C1206 H1209 0.929 . S
C1207 C1206 1.363 . S
C1207 C1213 1.428 . S
H1208 C1204 0.930 . S
H1209 C1206 0.929 . S
S1210 N1211 1.613 . S
S1210 N1212 1.610 . S
N1211 S1210 1.613 . S
N1211 C1214 1.350 . S
N1212 S1210 1.610 . S
N1212 C1213 1.351 . S
C1213 C1207 1.428 . S
C1213 N1212 1.351 . S
C1213 C1214 1.434 . S
C1214 C1205 1.429 . S
C1214 N1211 1.350 . S
C1214 C1213 1.434 . S
C1215 C1216 1.369 . S
C1215 C1217 1.419 . S
C1215 H1219 0.930 . S
C1216 C1215 1.369 . S
C1216 C1225 1.429 . S
C1217 C1215 1.419 . S
C1217 C1218 1.363 . S
C1217 H1220 0.929 . S
C1218 C1217 1.363 . S
C1218 C1224 1.428 . S
H1219 C1215 0.930 . S
H1220 C1217 0.929 . S
S1221 N1222 1.613 . S
S1221 N1223 1.610 . S
N1222 S1221 1.613 . S
N1222 C1225 1.350 . S
N1223 S1221 1.610 . S
N1223 C1224 1.351 . S
C1224 C1218 1.428 . S
C1224 N1223 1.351 . S
C1224 C1225 1.434 . S
C1225 C1216 1.429 . S
C1225 N1222 1.350 . S
C1225 C1224 1.434 . S
C1226 C1227 1.369 . S
C1226 C1228 1.419 . S
C1226 H1230 0.930 . S
C1227 C1226 1.369 . S
C1227 C1236 1.429 . S
C1228 C1226 1.419 . S
C1228 C1229 1.363 . S
C1228 H1231 0.929 . S
C1229 C1228 1.363 . S
C1229 C1235 1.428 . S
H1230 C1226 0.930 . S
H1231 C1228 0.929 . S
S1232 N1233 1.613 . S
S1232 N1234 1.610 . S
N1233 S1232 1.613 . S
N1233 C1236 1.350 . S
N1234 S1232 1.610 . S
N1234 C1235 1.351 . S
C1235 C1229 1.428 . S
C1235 N1234 1.351 . S
C1235 C1236 1.434 . S
C1236 C1227 1.429 . S
C1236 N1233 1.350 . S
C1236 C1235 1.434 . S
C1237 C1238 1.369 . S
C1237 C1239 1.419 . S
C1237 H1241 0.930 . S
C1238 C1237 1.369 . S
C1238 C1247 1.429 . S
C1239 C1237 1.419 . S
C1239 C1240 1.363 . S
C1239 H1242 0.929 . S
C1240 C1239 1.363 . S
C1240 C1246 1.428 . S
H1241 C1237 0.930 . S
H1242 C1239 0.929 . S
S1243 N1244 1.613 . S
S1243 N1245 1.610 . S
N1244 S1243 1.613 . S
N1244 C1247 1.350 . S
N1245 S1243 1.610 . S
N1245 C1246 1.351 . S
C1246 C1240 1.428 . S
C1246 N1245 1.351 . S
C1246 C1247 1.434 . S
C1247 C1238 1.429 . S
C1247 N1244 1.350 . S
C1247 C1246 1.434 . S
C1248 C1249 1.369 . S
C1248 C1250 1.419 . S
C1248 H1252 0.930 . S
C1249 C1248 1.369 . S
C1249 C1258 1.429 . S
C1250 C1248 1.419 . S
C1250 C1251 1.363 . S
C1250 H1253 0.929 . S
C1251 C1250 1.363 . S
C1251 C1257 1.428 . S
H1252 C1248 0.930 . S
H1253 C1250 0.929 . S
S1254 N1255 1.613 . S
S1254 N1256 1.610 . S
N1255 S1254 1.613 . S
N1255 C1258 1.350 . S
N1256 S1254 1.610 . S
N1256 C1257 1.351 . S
C1257 C1251 1.428 . S
C1257 N1256 1.351 . S
C1257 C1258 1.434 . S
C1258 C1249 1.429 . S
C1258 N1255 1.350 . S
C1258 C1257 1.434 . S
C1259 C1260 1.369 . S
C1259 C1261 1.419 . S
C1259 H1263 0.930 . S
C1260 C1259 1.369 . S
C1260 C1269 1.429 . S
C1261 C1259 1.419 . S
C1261 C1262 1.363 . S
C1261 H1264 0.929 . S
C1262 C1261 1.363 . S
C1262 C1268 1.428 . S
H1263 C1259 0.930 . S
H1264 C1261 0.929 . S
S1265 N1266 1.613 . S
S1265 N1267 1.610 . S
N1266 S1265 1.613 . S
N1266 C1269 1.350 . S
N1267 S1265 1.610 . S
N1267 C1268 1.351 . S
C1268 C1262 1.428 . S
C1268 N1267 1.351 . S
C1268 C1269 1.434 . S
C1269 C1260 1.429 . S
C1269 N1266 1.350 . S
C1269 C1268 1.434 . S
C1270 C1271 1.369 . S
C1270 C1272 1.419 . S
C1270 H1274 0.930 . S
C1271 C1270 1.369 . S
C1271 C1280 1.429 . S
C1272 C1270 1.419 . S
C1272 C1273 1.363 . S
C1272 H1275 0.929 . S
C1273 C1272 1.363 . S
C1273 C1279 1.428 . S
H1274 C1270 0.930 . S
H1275 C1272 0.929 . S
S1276 N1277 1.613 . S
S1276 N1278 1.610 . S
N1277 S1276 1.613 . S
N1277 C1280 1.350 . S
N1278 S1276 1.610 . S
N1278 C1279 1.351 . S
C1279 C1273 1.428 . S
C1279 N1278 1.351 . S
C1279 C1280 1.434 . S
C1280 C1271 1.429 . S
C1280 N1277 1.350 . S
C1280 C1279 1.434 . S
C1281 C1282 1.369 . S
C1281 C1283 1.419 . S
C1281 H1285 0.930 . S
C1282 C1281 1.369 . S
C1282 C1291 1.429 . S
C1283 C1281 1.419 . S
C1283 C1284 1.363 . S
C1283 H1286 0.929 . S
C1284 C1283 1.363 . S
C1284 C1290 1.428 . S
H1285 C1281 0.930 . S
H1286 C1283 0.929 . S
S1287 N1288 1.613 . S
S1287 N1289 1.610 . S
N1288 S1287 1.613 . S
N1288 C1291 1.350 . S
N1289 S1287 1.610 . S
N1289 C1290 1.351 . S
C1290 C1284 1.428 . S
C1290 N1289 1.351 . S
C1290 C1291 1.434 . S
C1291 C1282 1.429 . S
C1291 N1288 1.350 . S
C1291 C1290 1.434 . S
C1292 C1293 1.369 . S
C1292 C1294 1.419 . S
C1292 H1296 0.930 . S
C1293 C1292 1.369 . S
C1293 C1302 1.429 . S
C1294 C1292 1.419 . S
C1294 C1295 1.363 . S
C1294 H1297 0.929 . S
C1295 C1294 1.363 . S
C1295 C1301 1.428 . S
H1296 C1292 0.930 . S
H1297 C1294 0.929 . S
S1298 N1299 1.613 . S
S1298 N1300 1.610 . S
N1299 S1298 1.613 . S
N1299 C1302 1.350 . S
N1300 S1298 1.610 . S
N1300 C1301 1.351 . S
C1301 C1295 1.428 . S
C1301 N1300 1.351 . S
C1301 C1302 1.434 . S
C1302 C1293 1.429 . S
C1302 N1299 1.350 . S
C1302 C1301 1.434 . S
C1303 C1304 1.369 . S
C1303 C1305 1.419 . S
C1303 H1307 0.930 . S
C1304 C1303 1.369 . S
C1304 C1313 1.429 . S
C1305 C1303 1.419 . S
C1305 C1306 1.363 . S
C1305 H1308 0.929 . S
C1306 C1305 1.363 . S
C1306 C1312 1.428 . S
H1307 C1303 0.930 . S
H1308 C1305 0.929 . S
S1309 N1310 1.613 . S
S1309 N1311 1.610 . S
N1310 S1309 1.613 . S
N1310 C1313 1.350 . S
N1311 S1309 1.610 . S
N1311 C1312 1.351 . S
C1312 C1306 1.428 . S
C1312 N1311 1.351 . S
C1312 C1313 1.434 . S
C1313 C1304 1.429 . S
C1313 N1310 1.350 . S
C1313 C1312 1.434 . S
C721 C543 2.304 . S
C723 C24 2.270 . S
C732 C64 2.268 . S
C734 C583 2.307 . S
C743 C104 2.268 . S
C745 C503 2.305 . S
C754 C103 2.308 . S
C756 C304 2.270 . S
C765 C344 2.267 . S
C767 C23 2.306 . S
C776 C63 2.307 . S
C778 C264 2.268 . S
C787 C133 2.273 . S
C789 C402 2.305 . S
C798 C173 2.268 . S
C800 C442 2.305 . S
C809 C362 2.308 . S
C811 C213 2.270 . S
C820 C653 2.271 . S
C822 C202 2.307 . S
C831 C122 2.306 . S
C833 C693 2.268 . S
C842 C613 2.267 . S
C844 C162 2.306 . S
C853 C343 2.307 . S
C855 C544 2.268 1_556 S
C864 C263 2.304 . S
C866 C584 2.272 1_556 S
C875 C303 2.304 . S
C877 C504 2.272 1_556 S
C886 C373 2.273 1_554 S
C888 C642 2.304 . S
C897 C682 2.308 . S
C899 C413 2.269 1_554 S
C908 C602 2.306 . S
C910 C453 2.268 1_554 S
C919 C2 1.673 . S
C921 C184 1.822 . S
C930 C224 1.823 . S
C932 C42 1.673 . S
C941 C144 1.819 . S
C943 C82 1.667 . S
C952 C183 1.668 . S
C954 C93 1.820 . S
C963 C223 1.669 . S
C965 C13 1.822 . S
C974 C143 1.672 . S
C976 C53 1.823 . S
C985 C424 1.824 . S
C987 C242 1.675 . S
C996 C464 1.819 . S
C998 C282 1.667 . S
C1007 C384 1.824 . S
C1009 C322 1.676 . S
C1018 C423 1.665 . S
C1020 C333 1.820 . S
C1029 C463 1.666 . S
C1031 C253 1.821 . S
C1040 C383 1.676 . S
C1042 C293 1.823 . S
C1051 C664 1.820 . S
C1053 C482 1.668 . S
C1062 C704 1.821 . S
C1064 C522 1.670 . S
C1073 C562 1.676 . S
C1075 C624 1.823 . S
C1084 C573 1.823 . S
C1086 C663 1.675 . S
C1095 C493 1.821 . S
C1097 C703 1.669 . S
C1106 C623 1.677 . S
C1108 C533 1.823 . S
C1117 C17 1.194 . S
C1119 C26 1.185 . S
C1128 C57 1.184 . S
C1130 C66 1.193 . S
C1139 C97 1.189 . S
C1141 C106 1.188 . S
C1150 C146 1.184 . S
C1152 C137 1.193 . S
C1161 C177 1.192 . S
C1163 C186 1.187 . S
C1172 C217 1.184 . S
C1174 C226 1.193 1_565 S
C1183 C266 1.188 . S
C1185 C257 1.189 . S
C1194 C297 1.193 . S
C1196 C306 1.186 . S
C1205 C346 1.194 . S
C1207 C337 1.185 . S
C1216 C386 1.185 . S
C1218 C377 1.193 . S
C1227 C426 1.192 . S
C1229 C417 1.187 . S
C1238 C466 1.185 . S
C1240 C457 1.191 . S
C1249 C506 1.184 . S
C1251 C497 1.193 . S
C1260 C537 1.185 . S
C1262 C546 1.192 . S
C1271 C577 1.193 . S
C1273 C586 1.186 . S
C1282 C617 1.192 . S
C1284 C626 1.187 . S
C1293 C657 1.194 . S
C1295 C666 1.185 . S
C1304 C706 1.190 . S
C1306 C697 1.188 . S
