# Generated by pormake.
# Topology sqp, (5)-cn, num edge types: 1
# Building blocks:
#     Node 0, Type 0, BuildingBlock: XOMCOT_clean_sbu_1, # of connection points: 5
#     Node 1, Type 0, BuildingBlock: XOMCOT_clean_sbu_1, # of connection points: 5
#     Node 2, Type 0, BuildingBlock: XOMCOT_clean_sbu_1, # of connection points: 5
#     Node 3, Type 0, BuildingBlock: XOMCOT_clean_sbu_1, # of connection points: 5
#     Edge 4, Type (0, 0), BuildingBlock: XUDNAN_clean_linker_2, # of connection points: 2
#     Edge 5, Type (0, 0), BuildingBlock: XUDNAN_clean_linker_2, # of connection points: 2
#     Edge 6, Type (0, 0), BuildingBlock: XUDNAN_clean_linker_2, # of connection points: 2
#     Edge 7, Type (0, 0), BuildingBlock: XUDNAN_clean_linker_2, # of connection points: 2
#     Edge 8, Type (0, 0), BuildingBlock: XUDNAN_clean_linker_2, # of connection points: 2
#     Edge 9, Type (0, 0), BuildingBlock: XUDNAN_clean_linker_2, # of connection points: 2
#     Edge 10, Type (0, 0), BuildingBlock: XUDNAN_clean_linker_2, # of connection points: 2
#     Edge 11, Type (0, 0), BuildingBlock: XUDNAN_clean_linker_2, # of connection points: 2
#     Edge 12, Type (0, 0), BuildingBlock: XUDNAN_clean_linker_2, # of connection points: 2
#     Edge 13, Type (0, 0), BuildingBlock: XUDNAN_clean_linker_2, # of connection points: 2
# Relax obj value: 0.083
# Max RMSD: 0.168
# Mean RMSD: 0.168
data_MOF--net-sqp--node1-XOMCOT_clean_sbu_1--edge1-XUDNAN_clean_linker_2
_symmetry_space_group_name_H-M    P1
_symmetry_Int_Tables_number       1
_symmetry_cell_setting            triclinic
loop_
_symmetry_equiv_pos_as_xyz
'x, y, z'
_cell_length_a     23.506325
_cell_length_b     19.670394
_cell_length_c     47.221311
_cell_angle_alpha  89.586303
_cell_angle_beta   94.99027
_cell_angle_gamma 90.162963
loop_
_atom_site_label
_atom_site_type_symbol
_atom_site_fract_x
_atom_site_fract_y
_atom_site_fract_z
_atom_type_partial_charge
C0 C 1.02319 0.19058 0.31552 0.0
C1 C 0.98963 0.24707 0.30964 0.0
N2 N 0.95515 0.23462 0.28604 0.0
N3 N 1.00951 0.14241 0.29584 0.0
C4 C 0.96884 0.17175 0.27769 0.0
H5 H 0.0552 0.18488 0.33324 0.0
Co6 Co 0.04392 0.05638 0.29463 0.0
C7 C 0.91756 1.0186 0.28024 0.0
O8 O 0.89473 0.06979 0.29287 0.0
N9 N 0.07884 0.97011 0.29369 0.0
C10 C 0.09369 0.86027 0.30325 0.0
C11 C 0.05507 0.91243 0.30303 0.0
C12 C 0.13222 0.95132 0.28818 0.0
N13 N 0.14228 0.88472 0.294 0.0
O14 O 0.06156 0.07603 0.25665 0.0
H15 H 1.01291 0.909 0.31045 0.0
H16 H 0.16405 0.98605 0.28128 0.0
O17 O 0.97182 1.01272 0.28078 0.0
C18 C 0.10956 0.10668 0.25986 0.0
O19 O 0.13419 0.11416 0.28571 0.0
N20 N 0.03389 0.04162 0.33291 0.0
C21 C 0.04531 0.03804 0.39203 0.0
C22 C 0.99183 1.02667 0.37706 0.0
C23 C 0.98694 0.02868 0.34721 0.0
C24 C 0.08617 0.04975 0.34727 0.0
C25 C 0.09294 0.04771 0.37666 0.0
H26 H 0.94568 1.02093 0.33605 0.0
H27 H 0.123 0.05944 0.33565 0.0
H28 H 0.94906 0.14732 0.25885 0.0
H29 H 0.98924 0.29289 0.32219 0.0
H30 H 0.08677 0.80838 0.30998 0.0
H31 H 0.95407 1.01853 0.38826 0.0
H32 H 0.13526 0.0548 0.38728 0.0
C33 C 0.0525 0.1503 0.66877 0.0
C34 C 0.08923 0.20505 0.6707 0.0
N35 N 0.13036 0.19281 0.69183 0.0
N36 N 0.07035 0.10338 0.68847 0.0
C37 C 0.11761 0.13091 0.70236 0.0
H38 H 1.01549 0.14448 0.65369 0.0
Co39 Co 0.03574 1.01845 0.69275 0.0
C40 C 0.12382 0.96009 0.73514 0.0
O41 O 0.09042 0.96419 0.75596 0.0
N42 N 1.00086 0.93248 0.69678 0.0
C43 C 0.98706 0.8207 0.69325 0.0
C44 C 0.02612 0.87249 0.69205 0.0
C45 C 0.94627 0.91549 0.70108 0.0
N46 N 0.9368 0.84775 0.69887 0.0
O47 O 1.01076 0.04828 0.72789 0.0
H48 H 0.06983 0.86687 0.68695 0.0
H49 H 0.91331 0.95196 0.70453 0.0
O50 O 0.10654 0.98162 0.71037 0.0
C51 C 0.96328 0.07769 0.72105 0.0
O52 O 0.94258 0.07699 0.69428 0.0
N53 N 0.05568 0.9941 0.65703 0.0
C54 C 0.0731 0.98889 0.59968 0.0
C55 C 0.11967 0.99383 0.62031 0.0
C56 C 0.11001 0.99679 0.64901 0.0
C57 C 1.01025 0.98565 0.63744 0.0
C58 C 1.01802 0.98228 0.6086 0.0
H59 H 0.14569 1.0064 0.66447 0.0
H60 H 0.96739 0.98593 0.64412 0.0
H61 H 0.143 0.10535 0.71941 0.0
H62 H 0.08563 0.25046 0.65761 0.0
H63 H 0.99487 0.76723 0.69 0.0
H64 H 0.16284 0.99912 0.61422 0.0
H65 H 0.98085 0.97974 0.59338 0.0
C66 C 0.53214 0.64996 0.82601 0.0
C67 C 0.49362 0.70225 0.82076 0.0
N68 N 0.46207 0.68909 0.79623 0.0
N69 N 0.52396 0.60349 0.80514 0.0
C70 C 0.48153 0.62927 0.78715 0.0
H71 H 0.56379 0.64569 0.84399 0.0
Co72 Co 0.56327 0.52174 0.80115 0.0
C73 C 0.45339 0.43855 0.78971 0.0
O74 O 0.45635 0.41497 0.81582 0.0
N75 N 0.60276 0.43914 0.79625 0.0
C76 C 0.62433 0.32907 0.79622 0.0
C77 C 0.5835 0.37567 0.80113 0.0
C78 C 0.65654 0.42929 0.78872 0.0
N79 N 0.67032 0.36254 0.7884 0.0
O80 O 0.58679 0.55471 0.76539 0.0
H81 H 0.54359 0.36288 0.80914 0.0
H82 H 0.68508 0.47003 0.7837 0.0
O83 O 0.49195 0.47962 0.782 0.0
C84 C 0.62722 0.59691 0.77208 0.0
O85 O 0.64286 0.60613 0.7992 0.0
N86 N 0.54819 0.49537 0.83848 0.0
C87 C 0.54474 0.46862 0.89647 0.0
C88 C 0.4968 0.49526 0.88039 0.0
C89 C 0.49978 0.50959 0.85146 0.0
C90 C 0.59602 0.47393 0.85451 0.0
C91 C 0.59484 0.4586 0.88318 0.0
H92 H 0.4632 0.53213 0.83948 0.0
H93 H 0.63645 0.4707 0.84536 0.0
H94 H 0.46487 0.60436 0.76781 0.0
H95 H 0.48974 0.74696 0.83368 0.0
H96 H 0.62114 0.27457 0.79912 0.0
H97 H 0.45768 0.50561 0.8901 0.0
H98 H 0.6338 0.4419 0.89512 0.0
C99 C 0.53444 0.685 0.17639 0.0
C100 C 0.57343 0.73691 0.18173 0.0
N101 N 0.61255 0.71588 0.2024 0.0
N102 N 0.5489 0.63192 0.19379 0.0
C103 C 0.59649 0.65264 0.20948 0.0
H104 H 0.4984 0.68545 0.16051 0.0
Co105 Co 0.51129 0.54808 0.19487 0.0
C106 C 0.59149 0.46541 0.23444 0.0
O107 O 0.55009 0.43847 0.24781 0.0
N108 N 0.47366 0.4636 0.19541 0.0
C109 C 0.45627 0.35319 0.18957 0.0
C110 C 0.49685 0.40331 0.18924 0.0
C111 C 0.41838 0.44884 0.19889 0.0
N112 N 0.40681 0.38173 0.1956 0.0
O113 O 0.48123 0.57437 0.22974 0.0
H114 H 0.54048 0.39626 0.18427 0.0
H115 H 0.38719 0.48647 0.20361 0.0
O116 O 0.58004 0.50816 0.21432 0.0
C117 C 0.43914 0.61303 0.22176 0.0
O118 O 0.42477 0.61979 0.19436 0.0
N119 N 0.53511 0.5273 0.15967 0.0
C120 C 0.55221 0.49934 0.10354 0.0
C121 C 0.59772 0.49463 0.12481 0.0
C122 C 0.58839 0.50964 0.15297 0.0
C123 C 0.49088 0.53291 0.13925 0.0
C124 C 0.49838 0.51897 0.11107 0.0
H125 H 0.62373 0.50696 0.16916 0.0
H126 H 0.44921 0.54769 0.14509 0.0
H127 H 0.61915 0.62233 0.22595 0.0
H128 H 0.57419 0.78522 0.17064 0.0
H129 H 0.46241 0.3 0.185 0.0
H130 H 0.64006 0.48034 0.11966 0.0
H131 H 0.46204 0.5225 0.09537 0.0
H132 H 0.99999 0.95447 0.43166 0.0
H133 H 0.1072 0.13239 0.42325 0.0
H134 H 0.12935 0.13463 0.47509 0.0
H135 H 0.94188 1.00949 0.49708 0.0
H136 H 0.94066 0.92477 0.51182 0.0
H137 H 0.93268 0.93721 0.47385 0.0
H138 H 1.01804 0.85636 0.46887 0.0
H139 H 0.02681 0.84447 0.50686 0.0
H140 H 0.08592 0.8742 0.48821 0.0
H141 H 0.14326 0.11614 0.52691 0.0
H142 H 0.13934 0.08567 0.57734 0.0
H143 H 1.02164 0.92117 0.55335 0.0
C144 C 0.02743 0.99436 0.44082 0.0
C145 C 0.05261 0.04259 0.42342 0.0
C146 C 0.08846 0.09402 0.43615 0.0
C147 C 0.10122 0.09587 0.46556 0.0
C148 C 0.07732 0.0464 0.48204 0.0
C149 C 0.04047 0.99725 0.47032 0.0
C150 C 1.02008 0.95094 0.49318 0.0
C151 C 0.95496 0.95593 0.49403 0.0
C152 C 0.03885 0.87712 0.48902 0.0
C153 C 0.05144 0.98184 0.51943 0.0
C154 C 0.08457 0.03644 0.51238 0.0
C155 C 0.11752 0.07345 0.53278 0.0
C156 C 0.11551 0.05525 0.56135 0.0
C157 C 0.08059 1.0007 0.56924 0.0
C158 C 0.04871 0.96307 0.54791 0.0
H159 H 0.51329 0.57273 0.05664 0.0
H160 H 0.60707 0.38998 0.08287 0.0
H161 H 0.61152 0.35903 0.03235 0.0
H162 H 0.428 0.50003 0.99823 0.0
H163 H 0.43043 0.57463 0.97597 0.0
H164 H 0.43577 0.58303 0.01407 0.0
H165 H 0.53163 0.64803 0.01265 0.0
H166 H 0.52613 0.64074 0.97454 0.0
H167 H 0.58892 0.61002 0.9953 0.0
H168 H 0.60305 0.3471 0.97909 0.0
H169 H 0.59021 0.35986 0.92684 0.0
H170 H 0.50204 0.55092 0.93603 0.0
C171 C 0.53478 0.52617 0.05175 0.0
C172 C 0.55967 0.48348 0.07355 0.0
C173 C 0.58817 0.42355 0.06639 0.0
C174 C 0.59043 0.40534 0.03783 0.0
C175 C 0.56417 0.44785 0.01687 0.0
C176 C 0.53746 0.5074 0.02349 0.0
C177 C 0.51335 0.54487 0.99707 0.0
C178 C 0.44801 0.55097 0.9963 0.0
C179 C 0.54172 0.61505 0.99476 0.0
C180 C 0.53064 0.4971 0.97444 0.0
C181 C 0.55959 0.44123 0.98629 0.0
C182 C 0.58059 0.39068 0.96958 0.0
C183 C 0.57311 0.3984 0.93998 0.0
C184 C 0.54513 0.45637 0.92744 0.0
C185 C 0.52275 0.50556 0.94498 0.0
H186 H 0.21572 0.08287 0.24601 0.0
H187 H 0.06776 0.20945 0.22506 0.0
H188 H 0.12774 0.29133 0.20066 0.0
H189 H 0.3058 0.20647 0.26593 0.0
H190 H 0.36891 0.17289 0.25203 0.0
H191 H 0.31315 0.11618 0.26099 0.0
H192 H 0.30377 0.06739 0.21006 0.0
H193 H 0.36096 0.12249 0.20098 0.0
H194 H 0.29317 0.12431 0.17998 0.0
H195 H 0.20825 0.37041 0.18853 0.0
H196 H 0.29923 0.43194 0.18394 0.0
H197 H 0.39336 0.25196 0.21319 0.0
C198 C 0.1955 0.1258 0.23473 0.0
C199 C 0.13712 0.13922 0.23656 0.0
C200 C 0.11209 0.19731 0.22287 0.0
C201 C 0.14606 0.24438 0.2093 0.0
C202 C 0.20457 0.23174 0.20937 0.0
C203 C 0.22871 0.1727 0.22108 0.0
C204 C 0.29313 0.17405 0.22142 0.0
C205 C 0.32187 0.16702 0.25189 0.0
C206 C 0.31397 0.11879 0.20194 0.0
C207 C 0.3019 0.24433 0.20938 0.0
C208 C 0.25051 0.27688 0.20233 0.0
C209 C 0.24861 0.34468 0.19331 0.0
C210 C 0.30045 0.37952 0.19108 0.0
C211 C 0.35343 0.34655 0.19791 0.0
C212 C 0.35368 0.27805 0.20708 0.0
H213 H 0.84294 0.20204 0.28159 0.0
H214 H 0.96275 0.36284 0.26654 0.0
H215 H 0.8823 0.43917 0.25027 0.0
H216 H 0.73545 0.24124 0.22303 0.0
H217 H 0.67621 0.22276 0.24367 0.0
H218 H 0.74326 0.17947 0.25148 0.0
H219 H 0.74653 0.21992 0.30365 0.0
H220 H 0.67976 0.26378 0.29598 0.0
H221 H 0.7417 0.30947 0.31094 0.0
H222 H 0.78878 0.49695 0.23542 0.0
H223 H 0.68917 0.53572 0.22625 0.0
H224 H 0.62906 0.341 0.25559 0.0
C225 C 0.85188 0.25294 0.27429 0.0
C226 C 0.9087 0.27666 0.27462 0.0
C227 C 0.91933 0.34404 0.26594 0.0
C228 C 0.87399 0.38745 0.25674 0.0
C229 C 0.81825 0.36292 0.25693 0.0
C230 C 0.80697 0.29742 0.26572 0.0
C231 C 0.74316 0.28525 0.26575 0.0
C232 C 0.72337 0.22884 0.24473 0.0
C233 C 0.72685 0.26864 0.29588 0.0
C234 C 0.7203 0.35416 0.25564 0.0
C235 C 0.76436 0.3978 0.25026 0.0
C236 C 0.75399 0.46345 0.23983 0.0
C237 C 0.69718 0.48513 0.23476 0.0
C238 C 0.65127 0.442 0.24071 0.0
C239 C 0.66324 0.37566 0.25138 0.0
H240 H 0.62379 0.84895 0.21675 0.0
H241 H 0.7172 0.66051 0.21178 0.0
H242 H 0.80646 0.71887 0.22952 0.0
H243 H 0.73488 0.96335 0.19649 0.0
H244 H 0.71948 0.02816 0.2215 0.0
H245 H 0.66343 0.97249 0.20705 0.0
H246 H 0.64191 0.93721 0.25802 0.0
H247 H 0.69781 0.99288 0.27256 0.0
H248 H 0.6987 0.90409 0.28231 0.0
H249 H 0.88553 0.79799 0.24649 0.0
H250 H 0.94818 0.8898 0.26626 0.0
H251 H 0.80263 1.02583 0.26377 0.0
C252 C 0.66325 0.82044 0.21926 0.0
C253 C 0.66401 0.75045 0.21284 0.0
C254 C 0.71599 0.71409 0.21676 0.0
C255 C 0.7668 0.74688 0.22664 0.0
C256 C 0.76472 0.81591 0.23286 0.0
C257 C 0.71424 0.85219 0.22967 0.0
C258 C 0.72342 0.92506 0.23937 0.0
C259 C 0.70948 0.97521 0.21462 0.0
C260 C 0.68838 0.9407 0.26457 0.0
C261 C 0.78689 0.92397 0.24843 0.0
C262 C 0.80995 0.86076 0.24409 0.0
C263 C 0.86791 0.84757 0.25022 0.0
C264 C 0.90319 0.90014 0.26144 0.0
C265 C 0.88027 0.9648 0.26692 0.0
C266 C 0.82133 0.97674 0.26013 0.0
H267 H 0.21433 0.89553 0.2524 0.0
H268 H 0.18576 0.78614 0.32981 0.0
H269 H 0.26827 0.71198 0.3232 0.0
H270 H 0.24372 0.75363 0.21348 0.0
H271 H 0.29751 0.79324 0.19389 0.0
H272 H 0.24246 0.84416 0.20719 0.0
H273 H 0.31929 0.92029 0.23397 0.0
H274 H 0.37474 0.86947 0.2207 0.0
H275 H 0.37327 0.88189 0.2584 0.0
H276 H 0.34903 0.64243 0.30552 0.0
H277 H 0.41587 0.58098 0.27671 0.0
H278 H 0.38871 0.73446 0.21062 0.0
C279 C 0.22662 0.85724 0.26833 0.0
C280 C 0.19401 0.84677 0.29168 0.0
C281 C 0.2102 0.79481 0.31172 0.0
C282 C 0.25722 0.75277 0.30824 0.0
C283 C 0.28775 0.76321 0.28458 0.0
C284 C 0.27302 0.81428 0.26497 0.0
C285 C 0.3087 0.81055 0.23988 0.0
C286 C 0.27083 0.79972 0.21198 0.0
C287 C 0.34623 0.87434 0.23815 0.0
C288 C 0.34444 0.74831 0.24799 0.0
C289 C 0.33281 0.72232 0.2741 0.0
C290 C 0.35895 0.66283 0.28518 0.0
C291 C 0.39693 0.62831 0.26879 0.0
C292 C 0.40725 0.65294 0.24152 0.0
C293 C 0.38156 0.7144 0.23145 0.0
H294 H 0.38331 0.7635 0.82132 0.0
H295 H 0.43919 0.70716 0.73962 0.0
H296 H 0.36123 0.77547 0.71532 0.0
H297 H 0.23412 0.7534 0.80036 0.0
H298 H 0.21503 0.82461 0.82137 0.0
H299 H 0.27739 0.77501 0.83246 0.0
H300 H 0.3397 0.88399 0.83349 0.0
H301 H 0.27747 0.93395 0.82239 0.0
H302 H 0.33898 0.93693 0.80213 0.0
H303 H 0.27712 0.84786 0.69992 0.0
H304 H 0.18843 0.91428 0.69393 0.0
H305 H 0.18391 0.92183 0.78561 0.0
C306 C 0.37945 0.76642 0.79834 0.0
C307 C 0.41735 0.73036 0.78229 0.0
C308 C 0.41037 0.73409 0.75224 0.0
C309 C 0.36648 0.77307 0.7383 0.0
C310 C 0.32963 0.80766 0.7547 0.0
C311 C 0.33531 0.80446 0.78405 0.0
C312 C 0.28799 0.84367 0.79652 0.0
C313 C 0.25147 0.79634 0.81369 0.0
C314 C 0.31251 0.90317 0.81471 0.0
C315 C 0.25464 0.86898 0.76957 0.0
C316 C 0.27993 0.84821 0.74575 0.0
C317 C 0.25703 0.86465 0.71841 0.0
C318 C 0.20663 0.90277 0.71525 0.0
C319 C 0.17915 0.92373 0.73929 0.0
C320 C 0.20385 0.90673 0.76682 0.0
H321 H 0.18884 0.19734 0.74418 0.0
H322 H 0.18135 0.28716 0.65979 0.0
H323 H 0.26281 0.36175 0.67514 0.0
H324 H 0.22393 0.35006 0.7827 0.0
H325 H 0.2711 0.30802 0.80939 0.0
H326 H 0.2123 0.26206 0.7915 0.0
H327 H 0.2823 0.17054 0.77607 0.0
H328 H 0.34128 0.21614 0.79398 0.0
H329 H 0.34188 0.19606 0.75683 0.0
H330 H 0.34777 0.42667 0.7004 0.0
H331 H 0.42578 0.47481 0.73324 0.0
H332 H 0.37519 0.34115 0.80023 0.0
C333 C 0.2045 0.2322 0.72881 0.0
C334 C 0.17837 0.23617 0.70075 0.0
C335 C 0.19997 0.28354 0.68151 0.0
C336 C 0.24655 0.32598 0.69 0.0
C337 C 0.27119 0.32076 0.71786 0.0
C338 C 0.25072 0.27501 0.73694 0.0
C339 C 0.2842 0.27929 0.76569 0.0
C340 C 0.24557 0.30118 0.78867 0.0
C341 C 0.31419 0.21149 0.77359 0.0
C342 C 0.32681 0.3344 0.75985 0.0
C343 C 0.319 0.35789 0.73219 0.0
C344 C 0.35413 0.4086 0.72215 0.0
C345 C 0.39834 0.4357 0.74091 0.0
C346 C 0.40679 0.4121 0.76937 0.0
C347 C 0.37014 0.36087 0.7787 0.0
H348 H 0.85097 0.07063 0.72655 0.0
H349 H 1.0052 0.17588 0.75824 0.0
H350 H 0.94671 0.2618 0.78089 0.0
H351 H 0.77201 0.2105 0.70686 0.0
H352 H 0.70477 0.17849 0.71705 0.0
H353 H 0.75856 0.12023 0.70749 0.0
H354 H 0.75727 0.05764 0.75591 0.0
H355 H 0.70211 0.11444 0.76538 0.0
H356 H 0.767 0.10554 0.78839 0.0
H357 H 0.86834 0.34535 0.79367 0.0
H358 H 0.77915 0.40801 0.8013 0.0
H359 H 0.67932 0.2448 0.76074 0.0
C360 C 0.87241 0.11033 0.73924 0.0
C361 C 0.93225 0.11647 0.74118 0.0
C362 C 0.95926 0.1697 0.75725 0.0
C363 C 0.92633 0.21899 0.76985 0.0
C364 C 0.86685 0.21326 0.76636 0.0
C365 C 0.8404 0.15908 0.75201 0.0
C366 C 0.77621 0.16558 0.74969 0.0
C367 C 0.75149 0.16892 0.71842 0.0
C368 C 0.74906 0.10736 0.76582 0.0
C369 C 0.77032 0.23282 0.76429 0.0
C370 C 0.82275 0.26003 0.7738 0.0
C371 C 0.82711 0.3238 0.7867 0.0
C372 C 0.77647 0.35941 0.79066 0.0
C373 C 0.72257 0.3308 0.78181 0.0
C374 C 0.71996 0.26726 0.76816 0.0
H375 H 0.67392 0.72206 0.77843 0.0
H376 H 0.65584 0.5536 0.71972 0.0
H377 H 0.72723 0.60756 0.6908 0.0
H378 H 0.69915 0.85798 0.72447 0.0
H379 H 0.7496 0.90099 0.74915 0.0
H380 H 0.69069 0.85464 0.76203 0.0
H381 H 0.76184 0.7845 0.79541 0.0
H382 H 0.82088 0.82979 0.78243 0.0
H383 H 0.81822 0.73833 0.78055 0.0
H384 H 0.81241 0.67056 0.67353 0.0
H385 H 0.8978 0.74082 0.66701 0.0
H386 H 0.85783 0.86993 0.73642 0.0
C387 C 0.68365 0.69755 0.75896 0.0
C388 C 0.65921 0.63389 0.75113 0.0
C389 C 0.67339 0.60289 0.72577 0.0
C390 C 0.7141 0.6331 0.70937 0.0
C391 C 0.73917 0.69476 0.7184 0.0
C392 C 0.72349 0.72729 0.74234 0.0
C393 C 0.75945 0.79034 0.74888 0.0
C394 C 0.72251 0.8548 0.74595 0.0
C395 C 0.79201 0.78538 0.77857 0.0
C396 C 0.79971 0.78691 0.72562 0.0
C397 C 0.78714 0.73169 0.70812 0.0
C398 C 0.82173 0.71463 0.68673 0.0
C399 C 0.87036 0.75452 0.68331 0.0
C400 C 0.88409 0.81107 0.70107 0.0
C401 C 0.84758 0.82798 0.72214 0.0
loop_
_geom_bond_atom_site_label_1
_geom_bond_atom_site_label_2
_geom_bond_distance
_geom_bond_site_symmetry_2
_ccdc_geom_bond_type
C0 C1 1.351 . S
C0 N3 1.368 . S
C0 H5 0.931 1_655 S
C1 C0 1.351 . S
C1 N2 1.373 . S
C1 H29 0.930 . S
N2 C1 1.373 . S
N2 C4 1.340 . S
N3 C0 1.368 . S
N3 C4 1.321 . S
N3 Co6 2.135 1_655 S
C4 N2 1.340 . S
C4 N3 1.321 . S
C4 H28 0.930 . S
H5 C0 0.931 1_455 S
Co6 N3 2.135 1_455 S
Co6 N9 2.121 1_545 S
Co6 O14 2.055 . S
Co6 O17 2.039 1_445 S
Co6 N20 2.140 . S
C7 O8 1.227 . S
C7 O17 1.265 . S
O8 C7 1.227 . S
N9 Co6 2.121 1_565 S
N9 C11 1.375 . S
N9 C12 1.313 . S
C10 C11 1.338 . S
C10 N13 1.377 . S
C10 H30 0.930 . S
C11 N9 1.375 . S
C11 C10 1.338 . S
C11 H15 0.931 . S
C12 N9 1.313 . S
C12 N13 1.344 . S
C12 H16 0.930 . S
N13 C10 1.377 . S
N13 C12 1.344 . S
O14 Co6 2.055 . S
O14 C18 1.253 . S
H15 C11 0.931 . S
H16 C12 0.930 . S
O17 Co6 2.039 1_665 S
O17 C7 1.265 . S
C18 O14 1.253 . S
C18 O19 1.227 . S
O19 C18 1.227 . S
N20 Co6 2.140 . S
N20 C23 1.346 1_455 S
N20 C24 1.345 1_545 S
C21 C22 1.387 1_465 S
C21 C25 1.391 . S
C22 C21 1.387 1_645 S
C22 C23 1.369 . S
C22 H31 0.929 . S
C23 N20 1.346 1_655 S
C23 C22 1.369 . S
C23 H26 0.928 . S
C24 N20 1.345 1_565 S
C24 C25 1.371 . S
C24 H27 0.931 . S
C25 C21 1.391 . S
C25 C24 1.371 . S
C25 H32 0.930 . S
H26 C23 0.928 . S
H27 C24 0.931 . S
H28 C4 0.930 . S
H29 C1 0.930 . S
H30 C10 0.930 . S
H31 C22 0.929 . S
H32 C25 0.930 . S
C33 C34 1.351 . S
C33 N36 1.368 . S
C33 H38 0.931 . S
C34 C33 1.351 . S
C34 N35 1.373 . S
C34 H62 0.930 . S
N35 C34 1.373 . S
N35 C37 1.340 . S
N36 C33 1.368 . S
N36 C37 1.321 . S
N36 Co39 2.135 . S
C37 N35 1.340 . S
C37 N36 1.321 . S
C37 H61 0.930 . S
H38 C33 0.931 . S
Co39 N36 2.135 . S
Co39 N42 2.121 1_445 S
Co39 O47 2.055 1_455 S
Co39 O50 2.039 1_545 S
Co39 N53 2.140 . S
C40 O41 1.227 . S
C40 O50 1.265 . S
O41 C40 1.227 . S
N42 Co39 2.121 1_665 S
N42 C44 1.375 . S
N42 C45 1.313 . S
C43 C44 1.338 . S
C43 N46 1.377 . S
C43 H63 0.930 . S
C44 N42 1.375 . S
C44 C43 1.338 . S
C44 H48 0.931 1_655 S
C45 N42 1.313 . S
C45 N46 1.344 . S
C45 H49 0.930 . S
N46 C43 1.377 . S
N46 C45 1.344 . S
O47 Co39 2.055 1_655 S
O47 C51 1.253 . S
H48 C44 0.931 1_455 S
H49 C45 0.930 . S
O50 Co39 2.039 1_565 S
O50 C40 1.265 . S
C51 O47 1.253 . S
C51 O52 1.227 . S
O52 C51 1.227 . S
N53 Co39 2.140 . S
N53 C56 1.346 . S
N53 C57 1.345 1_445 S
C54 C55 1.387 1_565 S
C54 C58 1.391 1_455 S
C55 C54 1.387 1_545 S
C55 C56 1.369 . S
C55 H64 0.929 . S
C56 N53 1.346 . S
C56 C55 1.369 . S
C56 H59 0.928 . S
C57 N53 1.345 1_665 S
C57 C58 1.371 . S
C57 H60 0.931 . S
C58 C54 1.391 1_655 S
C58 C57 1.371 . S
C58 H65 0.930 . S
H59 C56 0.928 . S
H60 C57 0.931 . S
H61 C37 0.930 . S
H62 C34 0.930 . S
H63 C43 0.930 . S
H64 C55 0.929 . S
H65 C58 0.930 . S
C66 C67 1.351 . S
C66 N69 1.368 . S
C66 H71 0.931 . S
C67 C66 1.351 . S
C67 N68 1.373 . S
C67 H95 0.930 . S
N68 C67 1.373 . S
N68 C70 1.340 . S
N69 C66 1.368 . S
N69 C70 1.321 . S
N69 Co72 2.135 . S
C70 N68 1.340 . S
C70 N69 1.321 . S
C70 H94 0.930 . S
H71 C66 0.931 . S
Co72 N69 2.135 . S
Co72 N75 2.121 . S
Co72 O80 2.055 . S
Co72 O83 2.039 . S
Co72 N86 2.140 . S
C73 O74 1.227 . S
C73 O83 1.265 . S
O74 C73 1.227 . S
N75 Co72 2.121 . S
N75 C77 1.375 . S
N75 C78 1.313 . S
C76 C77 1.338 . S
C76 N79 1.377 . S
C76 H96 0.930 . S
C77 N75 1.375 . S
C77 C76 1.338 . S
C77 H81 0.931 . S
C78 N75 1.313 . S
C78 N79 1.344 . S
C78 H82 0.930 . S
N79 C76 1.377 . S
N79 C78 1.344 . S
O80 Co72 2.055 . S
O80 C84 1.253 . S
H81 C77 0.931 . S
H82 C78 0.930 . S
O83 Co72 2.039 . S
O83 C73 1.265 . S
C84 O80 1.253 . S
C84 O85 1.227 . S
O85 C84 1.227 . S
N86 Co72 2.140 . S
N86 C89 1.346 . S
N86 C90 1.345 . S
C87 C88 1.387 . S
C87 C91 1.391 . S
C88 C87 1.387 . S
C88 C89 1.369 . S
C88 H97 0.929 . S
C89 N86 1.346 . S
C89 C88 1.369 . S
C89 H92 0.928 . S
C90 N86 1.345 . S
C90 C91 1.371 . S
C90 H93 0.931 . S
C91 C87 1.391 . S
C91 C90 1.371 . S
C91 H98 0.930 . S
H92 C89 0.928 . S
H93 C90 0.931 . S
H94 C70 0.930 . S
H95 C67 0.930 . S
H96 C76 0.930 . S
H97 C88 0.929 . S
H98 C91 0.930 . S
C99 C100 1.351 . S
C99 N102 1.368 . S
C99 H104 0.931 . S
C100 C99 1.351 . S
C100 N101 1.373 . S
C100 H128 0.930 . S
N101 C100 1.373 . S
N101 C103 1.340 . S
N102 C99 1.368 . S
N102 C103 1.321 . S
N102 Co105 2.135 . S
C103 N101 1.340 . S
C103 N102 1.321 . S
C103 H127 0.930 . S
H104 C99 0.931 . S
Co105 N102 2.135 . S
Co105 N108 2.121 . S
Co105 O113 2.055 . S
Co105 O116 2.039 . S
Co105 N119 2.140 . S
C106 O107 1.227 . S
C106 O116 1.265 . S
O107 C106 1.227 . S
N108 Co105 2.121 . S
N108 C110 1.375 . S
N108 C111 1.313 . S
C109 C110 1.338 . S
C109 N112 1.377 . S
C109 H129 0.930 . S
C110 N108 1.375 . S
C110 C109 1.338 . S
C110 H114 0.931 . S
C111 N108 1.313 . S
C111 N112 1.344 . S
C111 H115 0.930 . S
N112 C109 1.377 . S
N112 C111 1.344 . S
O113 Co105 2.055 . S
O113 C117 1.253 . S
H114 C110 0.931 . S
H115 C111 0.930 . S
O116 Co105 2.039 . S
O116 C106 1.265 . S
C117 O113 1.253 . S
C117 O118 1.227 . S
O118 C117 1.227 . S
N119 Co105 2.140 . S
N119 C122 1.346 . S
N119 C123 1.345 . S
C120 C121 1.387 . S
C120 C124 1.391 . S
C121 C120 1.387 . S
C121 C122 1.369 . S
C121 H130 0.929 . S
C122 N119 1.346 . S
C122 C121 1.369 . S
C122 H125 0.928 . S
C123 N119 1.345 . S
C123 C124 1.371 . S
C123 H126 0.931 . S
C124 C120 1.391 . S
C124 C123 1.371 . S
C124 H131 0.930 . S
H125 C122 0.928 . S
H126 C123 0.931 . S
H127 C103 0.930 . S
H128 C100 0.930 . S
H129 C109 0.930 . S
H130 C121 0.929 . S
H131 C124 0.930 . S
H132 C144 0.928 1_655 S
H133 C146 0.930 . S
H134 C147 0.930 . S
H135 C151 0.959 . S
H136 C151 0.959 . S
H137 C151 0.961 . S
H138 C152 0.960 . S
H139 C152 0.961 . S
H140 C152 0.959 . S
H141 C155 0.929 . S
H142 C156 0.931 . S
H143 C158 0.932 . S
C144 H132 0.928 1_455 S
C144 C145 1.401 1_565 S
C144 C149 1.399 . S
C145 C144 1.401 1_545 S
C145 C146 1.376 . S
C146 H133 0.930 . S
C146 C145 1.376 . S
C146 C147 1.388 . S
C147 H134 0.930 . S
C147 C146 1.388 . S
C147 C148 1.390 . S
C148 C147 1.390 . S
C148 C149 1.394 1_545 S
C148 C154 1.465 . S
C149 C144 1.399 . S
C149 C148 1.394 1_565 S
C149 C150 1.516 1_455 S
C150 C149 1.516 1_655 S
C150 C151 1.502 . S
C150 C152 1.561 1_655 S
C150 C153 1.526 1_655 S
C151 H135 0.959 . S
C151 H136 0.959 . S
C151 H137 0.961 . S
C151 C150 1.502 . S
C152 H138 0.960 . S
C152 H139 0.961 . S
C152 H140 0.959 . S
C152 C150 1.561 1_455 S
C153 C150 1.526 1_455 S
C153 C154 1.396 1_565 S
C153 C158 1.389 1_455 S
C154 C148 1.465 . S
C154 C153 1.396 1_545 S
C154 C155 1.399 . S
C155 H141 0.929 . S
C155 C154 1.399 . S
C155 C156 1.385 . S
C156 H142 0.931 . S
C156 C155 1.385 . S
C156 C157 1.389 . S
C157 C156 1.389 . S
C157 C158 1.385 1_445 S
C158 H143 0.932 . S
C158 C153 1.389 1_655 S
C158 C157 1.385 1_665 S
H159 C171 0.930 . S
H160 C173 0.930 . S
H161 C174 0.930 . S
H162 C178 0.959 . S
H163 C178 0.959 . S
H164 C178 0.961 1_554 S
H165 C179 0.965 . S
H166 C179 0.957 1_556 S
H167 C179 0.958 1_556 S
H168 C182 0.929 . S
H169 C183 0.931 . S
H170 C185 0.930 . S
C171 H159 0.930 . S
C171 C172 1.399 . S
C171 C176 1.399 . S
C172 C171 1.399 . S
C172 C173 1.376 . S
C173 H160 0.930 . S
C173 C172 1.376 . S
C173 C174 1.388 . S
C174 H161 0.930 . S
C174 C173 1.388 . S
C174 C175 1.390 . S
C175 C174 1.390 . S
C175 C176 1.394 . S
C175 C181 1.465 1_554 S
C176 C171 1.399 . S
C176 C175 1.394 . S
C176 C177 1.490 1_554 S
C177 C176 1.490 1_556 S
C177 C178 1.503 . S
C177 C179 1.562 1_556 S
C177 C180 1.552 . S
C178 H162 0.959 . S
C178 H163 0.959 . S
C178 H164 0.961 1_556 S
C178 C177 1.503 . S
C179 H165 0.965 . S
C179 H166 0.957 1_554 S
C179 H167 0.958 1_554 S
C179 C177 1.562 1_554 S
C180 C177 1.552 . S
C180 C181 1.396 . S
C180 C185 1.390 . S
C181 C175 1.465 1_556 S
C181 C180 1.396 . S
C181 C182 1.399 . S
C182 H168 0.929 . S
C182 C181 1.399 . S
C182 C183 1.385 . S
C183 H169 0.931 . S
C183 C182 1.385 . S
C183 C184 1.389 . S
C184 C183 1.389 . S
C184 C185 1.387 . S
C185 H170 0.930 . S
C185 C180 1.390 . S
C185 C184 1.387 . S
H186 C198 0.930 . S
H187 C200 0.930 . S
H188 C201 0.930 . S
H189 C205 0.959 . S
H190 C205 0.959 . S
H191 C205 0.961 . S
H192 C206 0.960 . S
H193 C206 0.961 . S
H194 C206 0.959 . S
H195 C209 0.929 . S
H196 C210 0.931 . S
H197 C212 0.930 . S
C198 H186 0.930 . S
C198 C199 1.399 . S
C198 C203 1.399 . S
C199 C198 1.399 . S
C199 C200 1.376 . S
C200 H187 0.930 . S
C200 C199 1.376 . S
C200 C201 1.388 . S
C201 H188 0.930 . S
C201 C200 1.388 . S
C201 C202 1.390 . S
C202 C201 1.390 . S
C202 C203 1.394 . S
C202 C208 1.465 . S
C203 C198 1.399 . S
C203 C202 1.394 . S
C203 C204 1.516 . S
C204 C203 1.516 . S
C204 C205 1.502 . S
C204 C206 1.561 . S
C204 C207 1.526 . S
C205 H189 0.959 . S
C205 H190 0.959 . S
C205 H191 0.961 . S
C205 C204 1.502 . S
C206 H192 0.960 . S
C206 H193 0.961 . S
C206 H194 0.959 . S
C206 C204 1.561 . S
C207 C204 1.526 . S
C207 C208 1.396 . S
C207 C212 1.390 . S
C208 C202 1.465 . S
C208 C207 1.396 . S
C208 C209 1.399 . S
C209 H195 0.929 . S
C209 C208 1.399 . S
C209 C210 1.385 . S
C210 H196 0.931 . S
C210 C209 1.385 . S
C210 C211 1.389 . S
C211 C210 1.389 . S
C211 C212 1.387 . S
C212 H197 0.930 . S
C212 C207 1.390 . S
C212 C211 1.387 . S
H213 C225 0.930 . S
H214 C227 0.930 . S
H215 C228 0.930 . S
H216 C232 0.959 . S
H217 C232 0.959 . S
H218 C232 0.961 . S
H219 C233 0.960 . S
H220 C233 0.961 . S
H221 C233 0.959 . S
H222 C236 0.929 . S
H223 C237 0.931 . S
H224 C239 0.930 . S
C225 H213 0.930 . S
C225 C226 1.399 . S
C225 C230 1.399 . S
C226 C225 1.399 . S
C226 C227 1.376 . S
C227 H214 0.930 . S
C227 C226 1.376 . S
C227 C228 1.388 . S
C228 H215 0.930 . S
C228 C227 1.388 . S
C228 C229 1.390 . S
C229 C228 1.390 . S
C229 C230 1.394 . S
C229 C235 1.465 . S
C230 C225 1.399 . S
C230 C229 1.394 . S
C230 C231 1.516 . S
C231 C230 1.516 . S
C231 C232 1.502 . S
C231 C233 1.561 . S
C231 C234 1.526 . S
C232 H216 0.959 . S
C232 H217 0.959 . S
C232 H218 0.961 . S
C232 C231 1.502 . S
C233 H219 0.960 . S
C233 H220 0.961 . S
C233 H221 0.959 . S
C233 C231 1.561 . S
C234 C231 1.526 . S
C234 C235 1.396 . S
C234 C239 1.390 . S
C235 C229 1.465 . S
C235 C234 1.396 . S
C235 C236 1.399 . S
C236 H222 0.929 . S
C236 C235 1.399 . S
C236 C237 1.385 . S
C237 H223 0.931 . S
C237 C236 1.385 . S
C237 C238 1.389 . S
C238 C237 1.389 . S
C238 C239 1.387 . S
C239 H224 0.930 . S
C239 C234 1.390 . S
C239 C238 1.387 . S
H240 C252 0.930 . S
H241 C254 0.930 . S
H242 C255 0.930 . S
H243 C259 0.959 . S
H244 C259 0.959 . S
H245 C259 0.961 . S
H246 C260 0.960 . S
H247 C260 0.961 . S
H248 C260 0.959 . S
H249 C263 0.929 . S
H250 C264 0.931 . S
H251 C266 0.930 . S
C252 H240 0.930 . S
C252 C253 1.399 . S
C252 C257 1.399 . S
C253 C252 1.399 . S
C253 C254 1.376 . S
C254 H241 0.930 . S
C254 C253 1.376 . S
C254 C255 1.388 . S
C255 H242 0.930 . S
C255 C254 1.388 . S
C255 C256 1.390 . S
C256 C255 1.390 . S
C256 C257 1.394 . S
C256 C262 1.465 . S
C257 C252 1.399 . S
C257 C256 1.394 . S
C257 C258 1.516 . S
C258 C257 1.516 . S
C258 C259 1.502 . S
C258 C260 1.561 . S
C258 C261 1.526 . S
C259 H243 0.959 . S
C259 H244 0.959 . S
C259 H245 0.961 . S
C259 C258 1.502 . S
C260 H246 0.960 . S
C260 H247 0.961 . S
C260 H248 0.959 . S
C260 C258 1.561 . S
C261 C258 1.526 . S
C261 C262 1.396 . S
C261 C266 1.390 . S
C262 C256 1.465 . S
C262 C261 1.396 . S
C262 C263 1.399 . S
C263 H249 0.929 . S
C263 C262 1.399 . S
C263 C264 1.385 . S
C264 H250 0.931 . S
C264 C263 1.385 . S
C264 C265 1.389 . S
C265 C264 1.389 . S
C265 C266 1.387 . S
C266 H251 0.930 . S
C266 C261 1.390 . S
C266 C265 1.387 . S
H267 C279 0.930 . S
H268 C281 0.930 . S
H269 C282 0.930 . S
H270 C286 0.959 . S
H271 C286 0.959 . S
H272 C286 0.961 . S
H273 C287 0.960 . S
H274 C287 0.961 . S
H275 C287 0.959 . S
H276 C290 0.929 . S
H277 C291 0.931 . S
H278 C293 0.930 . S
C279 H267 0.930 . S
C279 C280 1.399 . S
C279 C284 1.399 . S
C280 C279 1.399 . S
C280 C281 1.376 . S
C281 H268 0.930 . S
C281 C280 1.376 . S
C281 C282 1.388 . S
C282 H269 0.930 . S
C282 C281 1.388 . S
C282 C283 1.390 . S
C283 C282 1.390 . S
C283 C284 1.394 . S
C283 C289 1.465 . S
C284 C279 1.399 . S
C284 C283 1.394 . S
C284 C285 1.516 . S
C285 C284 1.516 . S
C285 C286 1.502 . S
C285 C287 1.561 . S
C285 C288 1.526 . S
C286 H270 0.959 . S
C286 H271 0.959 . S
C286 H272 0.961 . S
C286 C285 1.502 . S
C287 H273 0.960 . S
C287 H274 0.961 . S
C287 H275 0.959 . S
C287 C285 1.561 . S
C288 C285 1.526 . S
C288 C289 1.396 . S
C288 C293 1.390 . S
C289 C283 1.465 . S
C289 C288 1.396 . S
C289 C290 1.399 . S
C290 H276 0.929 . S
C290 C289 1.399 . S
C290 C291 1.385 . S
C291 H277 0.931 . S
C291 C290 1.385 . S
C291 C292 1.389 . S
C292 C291 1.389 . S
C292 C293 1.387 . S
C293 H278 0.930 . S
C293 C288 1.390 . S
C293 C292 1.387 . S
H294 C306 0.930 . S
H295 C308 0.930 . S
H296 C309 0.930 . S
H297 C313 0.959 . S
H298 C313 0.959 . S
H299 C313 0.961 . S
H300 C314 0.960 . S
H301 C314 0.961 . S
H302 C314 0.959 . S
H303 C317 0.929 . S
H304 C318 0.931 . S
H305 C320 0.930 . S
C306 H294 0.930 . S
C306 C307 1.399 . S
C306 C311 1.399 . S
C307 C306 1.399 . S
C307 C308 1.376 . S
C308 H295 0.930 . S
C308 C307 1.376 . S
C308 C309 1.388 . S
C309 H296 0.930 . S
C309 C308 1.388 . S
C309 C310 1.390 . S
C310 C309 1.390 . S
C310 C311 1.394 . S
C310 C316 1.465 . S
C311 C306 1.399 . S
C311 C310 1.394 . S
C311 C312 1.516 . S
C312 C311 1.516 . S
C312 C313 1.502 . S
C312 C314 1.561 . S
C312 C315 1.526 . S
C313 H297 0.959 . S
C313 H298 0.959 . S
C313 H299 0.961 . S
C313 C312 1.502 . S
C314 H300 0.960 . S
C314 H301 0.961 . S
C314 H302 0.959 . S
C314 C312 1.561 . S
C315 C312 1.526 . S
C315 C316 1.396 . S
C315 C320 1.390 . S
C316 C310 1.465 . S
C316 C315 1.396 . S
C316 C317 1.399 . S
C317 H303 0.929 . S
C317 C316 1.399 . S
C317 C318 1.385 . S
C318 H304 0.931 . S
C318 C317 1.385 . S
C318 C319 1.389 . S
C319 C318 1.389 . S
C319 C320 1.387 . S
C320 H305 0.930 . S
C320 C315 1.390 . S
C320 C319 1.387 . S
H321 C333 0.930 . S
H322 C335 0.930 . S
H323 C336 0.930 . S
H324 C340 0.959 . S
H325 C340 0.959 . S
H326 C340 0.961 . S
H327 C341 0.960 . S
H328 C341 0.961 . S
H329 C341 0.959 . S
H330 C344 0.929 . S
H331 C345 0.931 . S
H332 C347 0.930 . S
C333 H321 0.930 . S
C333 C334 1.399 . S
C333 C338 1.399 . S
C334 C333 1.399 . S
C334 C335 1.376 . S
C335 H322 0.930 . S
C335 C334 1.376 . S
C335 C336 1.388 . S
C336 H323 0.930 . S
C336 C335 1.388 . S
C336 C337 1.390 . S
C337 C336 1.390 . S
C337 C338 1.394 . S
C337 C343 1.465 . S
C338 C333 1.399 . S
C338 C337 1.394 . S
C338 C339 1.516 . S
C339 C338 1.516 . S
C339 C340 1.502 . S
C339 C341 1.561 . S
C339 C342 1.526 . S
C340 H324 0.959 . S
C340 H325 0.959 . S
C340 H326 0.961 . S
C340 C339 1.502 . S
C341 H327 0.960 . S
C341 H328 0.961 . S
C341 H329 0.959 . S
C341 C339 1.561 . S
C342 C339 1.526 . S
C342 C343 1.396 . S
C342 C347 1.390 . S
C343 C337 1.465 . S
C343 C342 1.396 . S
C343 C344 1.399 . S
C344 H330 0.929 . S
C344 C343 1.399 . S
C344 C345 1.385 . S
C345 H331 0.931 . S
C345 C344 1.385 . S
C345 C346 1.389 . S
C346 C345 1.389 . S
C346 C347 1.387 . S
C347 H332 0.930 . S
C347 C342 1.390 . S
C347 C346 1.387 . S
H348 C360 0.930 . S
H349 C362 0.930 . S
H350 C363 0.930 . S
H351 C367 0.959 . S
H352 C367 0.959 . S
H353 C367 0.961 . S
H354 C368 0.960 . S
H355 C368 0.961 . S
H356 C368 0.959 . S
H357 C371 0.929 . S
H358 C372 0.931 . S
H359 C374 0.930 . S
C360 H348 0.930 . S
C360 C361 1.399 . S
C360 C365 1.399 . S
C361 C360 1.399 . S
C361 C362 1.376 . S
C362 H349 0.930 . S
C362 C361 1.376 . S
C362 C363 1.388 . S
C363 H350 0.930 . S
C363 C362 1.388 . S
C363 C364 1.390 . S
C364 C363 1.390 . S
C364 C365 1.394 . S
C364 C370 1.465 . S
C365 C360 1.399 . S
C365 C364 1.394 . S
C365 C366 1.516 . S
C366 C365 1.516 . S
C366 C367 1.502 . S
C366 C368 1.561 . S
C366 C369 1.526 . S
C367 H351 0.959 . S
C367 H352 0.959 . S
C367 H353 0.961 . S
C367 C366 1.502 . S
C368 H354 0.960 . S
C368 H355 0.961 . S
C368 H356 0.959 . S
C368 C366 1.561 . S
C369 C366 1.526 . S
C369 C370 1.396 . S
C369 C374 1.390 . S
C370 C364 1.465 . S
C370 C369 1.396 . S
C370 C371 1.399 . S
C371 H357 0.929 . S
C371 C370 1.399 . S
C371 C372 1.385 . S
C372 H358 0.931 . S
C372 C371 1.385 . S
C372 C373 1.389 . S
C373 C372 1.389 . S
C373 C374 1.387 . S
C374 H359 0.930 . S
C374 C369 1.390 . S
C374 C373 1.387 . S
H375 C387 0.930 . S
H376 C389 0.930 . S
H377 C390 0.930 . S
H378 C394 0.959 . S
H379 C394 0.959 . S
H380 C394 0.961 . S
H381 C395 0.960 . S
H382 C395 0.961 . S
H383 C395 0.959 . S
H384 C398 0.929 . S
H385 C399 0.931 . S
H386 C401 0.930 . S
C387 H375 0.930 . S
C387 C388 1.399 . S
C387 C392 1.399 . S
C388 C387 1.399 . S
C388 C389 1.376 . S
C389 H376 0.930 . S
C389 C388 1.376 . S
C389 C390 1.388 . S
C390 H377 0.930 . S
C390 C389 1.388 . S
C390 C391 1.390 . S
C391 C390 1.390 . S
C391 C392 1.394 . S
C391 C397 1.465 . S
C392 C387 1.399 . S
C392 C391 1.394 . S
C392 C393 1.516 . S
C393 C392 1.516 . S
C393 C394 1.502 . S
C393 C395 1.561 . S
C393 C396 1.526 . S
C394 H378 0.959 . S
C394 H379 0.959 . S
C394 H380 0.961 . S
C394 C393 1.502 . S
C395 H381 0.960 . S
C395 H382 0.961 . S
C395 H383 0.959 . S
C395 C393 1.561 . S
C396 C393 1.526 . S
C396 C397 1.396 . S
C396 C401 1.390 . S
C397 C391 1.465 . S
C397 C396 1.396 . S
C397 C398 1.399 . S
C398 H384 0.929 . S
C398 C397 1.399 . S
C398 C399 1.385 . S
C399 H385 0.931 . S
C399 C398 1.385 . S
C399 C400 1.389 . S
C400 C399 1.389 . S
C400 C401 1.387 . S
C401 H386 0.930 . S
C401 C396 1.390 . S
C401 C400 1.387 . S
C145 C21 1.485 1_545 S
C157 C54 1.485 1_545 S
C172 C120 1.486 . S
C184 C87 1.487 . S
C199 C18 1.523 . S
C211 N112 1.495 . S
C226 N2 1.424 . S
C238 C106 1.447 . S
C253 N101 1.346 . S
C265 C7 1.414 . S
C280 N13 1.515 . S
C292 C117 1.540 . S
C307 N68 1.341 . S
C319 C40 1.410 . S
C334 N35 1.399 . S
C346 C73 1.433 . S
C361 C51 1.534 . S
C373 N79 1.487 . S
C388 C84 1.515 . S
C400 N46 1.450 . S
