# Generated by pormake.
# Topology ukm, (4)-cn, num edge types: 1
# Building blocks:
#     Node 0, Type 0, BuildingBlock: QUQFOY_clean_sbu_1, # of connection points: 4
#     Node 1, Type 0, BuildingBlock: QUQFOY_clean_sbu_1, # of connection points: 4
#     Node 2, Type 0, BuildingBlock: QUQFOY_clean_sbu_1, # of connection points: 4
#     Node 3, Type 0, BuildingBlock: QUQFOY_clean_sbu_1, # of connection points: 4
#     Node 4, Type 0, BuildingBlock: QUQFOY_clean_sbu_1, # of connection points: 4
#     Node 5, Type 0, BuildingBlock: QUQFOY_clean_sbu_1, # of connection points: 4
#     Node 6, Type 0, BuildingBlock: QUQFOY_clean_sbu_1, # of connection points: 4
#     Node 7, Type 0, BuildingBlock: QUQFOY_clean_sbu_1, # of connection points: 4
#     Node 8, Type 0, BuildingBlock: QUQFOY_clean_sbu_1, # of connection points: 4
#     Node 9, Type 0, BuildingBlock: QUQFOY_clean_sbu_1, # of connection points: 4
#     Node 10, Type 0, BuildingBlock: QUQFOY_clean_sbu_1, # of connection points: 4
#     Node 11, Type 0, BuildingBlock: QUQFOY_clean_sbu_1, # of connection points: 4
#     Node 12, Type 0, BuildingBlock: QUQFOY_clean_sbu_1, # of connection points: 4
#     Node 13, Type 0, BuildingBlock: QUQFOY_clean_sbu_1, # of connection points: 4
#     Node 14, Type 0, BuildingBlock: QUQFOY_clean_sbu_1, # of connection points: 4
#     Node 15, Type 0, BuildingBlock: QUQFOY_clean_sbu_1, # of connection points: 4
#     Node 16, Type 0, BuildingBlock: QUQFOY_clean_sbu_1, # of connection points: 4
#     Node 17, Type 0, BuildingBlock: QUQFOY_clean_sbu_1, # of connection points: 4
#     Node 18, Type 0, BuildingBlock: QUQFOY_clean_sbu_1, # of connection points: 4
#     Node 19, Type 0, BuildingBlock: QUQFOY_clean_sbu_1, # of connection points: 4
#     Node 20, Type 0, BuildingBlock: QUQFOY_clean_sbu_1, # of connection points: 4
#     Node 21, Type 0, BuildingBlock: QUQFOY_clean_sbu_1, # of connection points: 4
#     Node 22, Type 0, BuildingBlock: QUQFOY_clean_sbu_1, # of connection points: 4
#     Node 23, Type 0, BuildingBlock: QUQFOY_clean_sbu_1, # of connection points: 4
#     Node 24, Type 0, BuildingBlock: QUQFOY_clean_sbu_1, # of connection points: 4
#     Node 25, Type 0, BuildingBlock: QUQFOY_clean_sbu_1, # of connection points: 4
#     Node 26, Type 0, BuildingBlock: QUQFOY_clean_sbu_1, # of connection points: 4
#     Node 27, Type 0, BuildingBlock: QUQFOY_clean_sbu_1, # of connection points: 4
#     Node 28, Type 0, BuildingBlock: QUQFOY_clean_sbu_1, # of connection points: 4
#     Node 29, Type 0, BuildingBlock: QUQFOY_clean_sbu_1, # of connection points: 4
#     Node 30, Type 0, BuildingBlock: QUQFOY_clean_sbu_1, # of connection points: 4
#     Node 31, Type 0, BuildingBlock: QUQFOY_clean_sbu_1, # of connection points: 4
#     Edge 32, Type (0, 0), BuildingBlock: KIFKEQ_clean_linker_1, # of connection points: 2
#     Edge 33, Type (0, 0), BuildingBlock: KIFKEQ_clean_linker_1, # of connection points: 2
#     Edge 34, Type (0, 0), BuildingBlock: KIFKEQ_clean_linker_1, # of connection points: 2
#     Edge 35, Type (0, 0), BuildingBlock: KIFKEQ_clean_linker_1, # of connection points: 2
#     Edge 36, Type (0, 0), BuildingBlock: KIFKEQ_clean_linker_1, # of connection points: 2
#     Edge 37, Type (0, 0), BuildingBlock: KIFKEQ_clean_linker_1, # of connection points: 2
#     Edge 38, Type (0, 0), BuildingBlock: KIFKEQ_clean_linker_1, # of connection points: 2
#     Edge 39, Type (0, 0), BuildingBlock: KIFKEQ_clean_linker_1, # of connection points: 2
#     Edge 40, Type (0, 0), BuildingBlock: KIFKEQ_clean_linker_1, # of connection points: 2
#     Edge 41, Type (0, 0), BuildingBlock: KIFKEQ_clean_linker_1, # of connection points: 2
#     Edge 42, Type (0, 0), BuildingBlock: KIFKEQ_clean_linker_1, # of connection points: 2
#     Edge 43, Type (0, 0), BuildingBlock: KIFKEQ_clean_linker_1, # of connection points: 2
#     Edge 44, Type (0, 0), BuildingBlock: KIFKEQ_clean_linker_1, # of connection points: 2
#     Edge 45, Type (0, 0), BuildingBlock: KIFKEQ_clean_linker_1, # of connection points: 2
#     Edge 46, Type (0, 0), BuildingBlock: KIFKEQ_clean_linker_1, # of connection points: 2
#     Edge 47, Type (0, 0), BuildingBlock: KIFKEQ_clean_linker_1, # of connection points: 2
#     Edge 48, Type (0, 0), BuildingBlock: KIFKEQ_clean_linker_1, # of connection points: 2
#     Edge 49, Type (0, 0), BuildingBlock: KIFKEQ_clean_linker_1, # of connection points: 2
#     Edge 50, Type (0, 0), BuildingBlock: KIFKEQ_clean_linker_1, # of connection points: 2
#     Edge 51, Type (0, 0), BuildingBlock: KIFKEQ_clean_linker_1, # of connection points: 2
#     Edge 52, Type (0, 0), BuildingBlock: KIFKEQ_clean_linker_1, # of connection points: 2
#     Edge 53, Type (0, 0), BuildingBlock: KIFKEQ_clean_linker_1, # of connection points: 2
#     Edge 54, Type (0, 0), BuildingBlock: KIFKEQ_clean_linker_1, # of connection points: 2
#     Edge 55, Type (0, 0), BuildingBlock: KIFKEQ_clean_linker_1, # of connection points: 2
#     Edge 56, Type (0, 0), BuildingBlock: KIFKEQ_clean_linker_1, # of connection points: 2
#     Edge 57, Type (0, 0), BuildingBlock: KIFKEQ_clean_linker_1, # of connection points: 2
#     Edge 58, Type (0, 0), BuildingBlock: KIFKEQ_clean_linker_1, # of connection points: 2
#     Edge 59, Type (0, 0), BuildingBlock: KIFKEQ_clean_linker_1, # of connection points: 2
#     Edge 60, Type (0, 0), BuildingBlock: KIFKEQ_clean_linker_1, # of connection points: 2
#     Edge 61, Type (0, 0), BuildingBlock: KIFKEQ_clean_linker_1, # of connection points: 2
#     Edge 62, Type (0, 0), BuildingBlock: KIFKEQ_clean_linker_1, # of connection points: 2
#     Edge 63, Type (0, 0), BuildingBlock: KIFKEQ_clean_linker_1, # of connection points: 2
#     Edge 64, Type (0, 0), BuildingBlock: KIFKEQ_clean_linker_1, # of connection points: 2
#     Edge 65, Type (0, 0), BuildingBlock: KIFKEQ_clean_linker_1, # of connection points: 2
#     Edge 66, Type (0, 0), BuildingBlock: KIFKEQ_clean_linker_1, # of connection points: 2
#     Edge 67, Type (0, 0), BuildingBlock: KIFKEQ_clean_linker_1, # of connection points: 2
#     Edge 68, Type (0, 0), BuildingBlock: KIFKEQ_clean_linker_1, # of connection points: 2
#     Edge 69, Type (0, 0), BuildingBlock: KIFKEQ_clean_linker_1, # of connection points: 2
#     Edge 70, Type (0, 0), BuildingBlock: KIFKEQ_clean_linker_1, # of connection points: 2
#     Edge 71, Type (0, 0), BuildingBlock: KIFKEQ_clean_linker_1, # of connection points: 2
#     Edge 72, Type (0, 0), BuildingBlock: KIFKEQ_clean_linker_1, # of connection points: 2
#     Edge 73, Type (0, 0), BuildingBlock: KIFKEQ_clean_linker_1, # of connection points: 2
#     Edge 74, Type (0, 0), BuildingBlock: KIFKEQ_clean_linker_1, # of connection points: 2
#     Edge 75, Type (0, 0), BuildingBlock: KIFKEQ_clean_linker_1, # of connection points: 2
#     Edge 76, Type (0, 0), BuildingBlock: KIFKEQ_clean_linker_1, # of connection points: 2
#     Edge 77, Type (0, 0), BuildingBlock: KIFKEQ_clean_linker_1, # of connection points: 2
#     Edge 78, Type (0, 0), BuildingBlock: KIFKEQ_clean_linker_1, # of connection points: 2
#     Edge 79, Type (0, 0), BuildingBlock: KIFKEQ_clean_linker_1, # of connection points: 2
#     Edge 80, Type (0, 0), BuildingBlock: KIFKEQ_clean_linker_1, # of connection points: 2
#     Edge 81, Type (0, 0), BuildingBlock: KIFKEQ_clean_linker_1, # of connection points: 2
#     Edge 82, Type (0, 0), BuildingBlock: KIFKEQ_clean_linker_1, # of connection points: 2
#     Edge 83, Type (0, 0), BuildingBlock: KIFKEQ_clean_linker_1, # of connection points: 2
#     Edge 84, Type (0, 0), BuildingBlock: KIFKEQ_clean_linker_1, # of connection points: 2
#     Edge 85, Type (0, 0), BuildingBlock: KIFKEQ_clean_linker_1, # of connection points: 2
#     Edge 86, Type (0, 0), BuildingBlock: KIFKEQ_clean_linker_1, # of connection points: 2
#     Edge 87, Type (0, 0), BuildingBlock: KIFKEQ_clean_linker_1, # of connection points: 2
#     Edge 88, Type (0, 0), BuildingBlock: KIFKEQ_clean_linker_1, # of connection points: 2
#     Edge 89, Type (0, 0), BuildingBlock: KIFKEQ_clean_linker_1, # of connection points: 2
#     Edge 90, Type (0, 0), BuildingBlock: KIFKEQ_clean_linker_1, # of connection points: 2
#     Edge 91, Type (0, 0), BuildingBlock: KIFKEQ_clean_linker_1, # of connection points: 2
#     Edge 92, Type (0, 0), BuildingBlock: KIFKEQ_clean_linker_1, # of connection points: 2
#     Edge 93, Type (0, 0), BuildingBlock: KIFKEQ_clean_linker_1, # of connection points: 2
#     Edge 94, Type (0, 0), BuildingBlock: KIFKEQ_clean_linker_1, # of connection points: 2
#     Edge 95, Type (0, 0), BuildingBlock: KIFKEQ_clean_linker_1, # of connection points: 2
# Relax obj value: 0.230
# Max RMSD: 0.209
# Mean RMSD: 0.209
data_MOF--net-ukm--node1-QUQFOY_clean_sbu_1--edge1-KIFKEQ_clean_linker_1
_symmetry_space_group_name_H-M    P1
_symmetry_Int_Tables_number       1
_symmetry_cell_setting            triclinic
loop_
_symmetry_equiv_pos_as_xyz
'x, y, z'
_cell_length_a     31.353106
_cell_length_b     107.41538
_cell_length_c     41.088706
_cell_angle_alpha  90.128687
_cell_angle_beta   89.897818
_cell_angle_gamma 89.953511
loop_
_atom_site_label
_atom_site_type_symbol
_atom_site_fract_x
_atom_site_fract_y
_atom_site_fract_z
_atom_type_partial_charge
O0 O 0.1665 0.33156 0.32055 0.0
Cd1 Cd 0.18584 0.31651 0.29321 0.0
Cd2 Cd 0.10103 0.31385 0.29277 0.0
O3 O 0.09882 0.32709 0.32931 0.0
O4 O 0.24908 0.31808 0.2941 0.0
O5 O 0.21531 0.30208 0.31568 0.0
C6 C 0.25076 0.30772 0.30964 0.0
C7 C 0.08114 0.29318 0.29081 0.0
C8 C 0.13092 0.33412 0.33387 0.0
C9 C 0.13975 0.32045 0.23052 0.0
O10 O 0.10546 0.32083 0.24687 0.0
O11 O 0.17481 0.31757 0.24398 0.0
O12 O 0.05271 0.30192 0.29165 0.0
O13 O 0.12067 0.29621 0.29535 0.0
O14 O 0.11889 0.92823 0.32627 0.0
Cd15 Cd 0.09757 0.9425 0.29708 0.0
Cd16 Cd 0.18512 0.94482 0.29384 0.0
O17 O 0.18801 0.93184 0.33041 0.0
O18 O 0.03477 0.93976 0.29832 0.0
O19 O 0.06453 0.95692 0.31706 0.0
C20 C 0.03047 0.9505 0.31173 0.0
C21 C 0.21302 0.96464 0.29186 0.0
C22 C 0.1553 0.92544 0.33778 0.0
C23 C 0.14151 0.93777 0.23316 0.0
O24 O 0.17679 0.93785 0.24813 0.0
O25 O 0.10705 0.9405 0.2478 0.0
O26 O 0.23755 0.95498 0.29022 0.0
O27 O 0.17304 0.96296 0.29848 0.0
O28 O 0.13615 0.92555 0.89639 0.0
Cd29 Cd 0.1664 0.93866 0.92491 0.0
Cd30 Cd 0.07537 0.94343 0.93234 0.0
O31 O 0.0673 0.93004 0.8969 0.0
O32 O 0.22569 0.93219 0.92085 0.0
O33 O 0.20813 0.95104 0.90487 0.0
C34 C 0.23702 0.94258 0.90809 0.0
C35 C 0.04208 0.96269 0.9366 0.0
C36 C 0.09818 0.92329 0.88724 0.0
C37 C 0.1255 0.93594 -0.00906 0.0
O38 O 0.08926 0.93693 0.9776 0.0
O39 O 0.15955 0.93735 0.97461 0.0
O40 O 0.021 0.95248 0.94035 0.0
O41 O 0.08121 0.96191 0.92673 0.0
O42 O 0.12007 0.33026 0.89546 0.0
Cd43 Cd 0.09663 0.31617 0.92436 0.0
Cd44 Cd 0.18737 0.31391 0.92687 0.0
O45 O 0.18935 0.32699 0.8905 0.0
O46 O 0.03602 0.32155 0.92561 0.0
O47 O 0.05523 0.30347 0.90507 0.0
C48 C 0.02525 0.31129 0.91189 0.0
C49 C 0.22101 0.29482 0.92984 0.0
C50 C 0.15614 0.33324 0.88362 0.0
C51 C 0.14211 0.32019 -0.01209 0.0
O52 O 0.17707 0.32069 0.97249 0.0
O53 O 0.10772 0.31725 0.97359 0.0
O54 O 0.24248 0.30505 0.93166 0.0
O55 O 0.18097 0.29548 0.92239 0.0
O56 O 0.90462 0.68982 0.7265 0.0
Cd57 Cd 0.92213 0.69355 0.67973 0.0
Cd58 Cd 0.83492 0.69273 0.67459 0.0
O59 O 0.84358 0.69957 0.72092 0.0
O60 O 0.97846 0.70156 0.68615 0.0
O61 O 0.92097 0.71169 0.66913 0.0
C62 C 0.95963 0.71201 0.68015 0.0
C63 C 0.76633 0.69622 0.65329 0.0
C64 C 0.87292 0.69537 0.73904 0.0
C65 C 0.89305 0.67102 0.65234 0.0
O66 O 0.85797 0.67507 0.66387 0.0
O67 O 0.92504 0.67821 0.64985 0.0
O68 O 0.77311 0.68869 0.67695 0.0
O69 O 0.79874 0.70209 0.64152 0.0
O70 O 0.84609 0.07394 0.73998 0.0
Cd71 Cd 0.84214 0.06741 0.69342 0.0
Cd72 Cd 0.92583 0.06964 0.69466 0.0
O73 O 0.91287 0.06782 0.74363 0.0
O74 O 0.79399 0.05543 0.69284 0.0
O75 O 0.86213 0.04986 0.6892 0.0
C76 C 0.82254 0.04673 0.69294 0.0
C77 C 0.9909 0.06176 0.67525 0.0
C78 C 0.8787 0.0716 0.75712 0.0
C79 C 0.87216 0.08861 0.65772 0.0
O80 O 0.90653 0.08597 0.67264 0.0
O81 O 0.8411 0.081 0.65816 0.0
O82 O 0.98926 0.07114 0.69472 0.0
O83 O 0.95539 0.05655 0.66708 0.0
O84 O 0.91224 0.07106 0.0127 0.0
Cd85 Cd 0.92608 0.06246 0.05547 0.0
Cd86 Cd 0.83927 0.06753 0.06667 0.0
O87 O 0.8424 0.06905 0.01654 0.0
O88 O 0.97527 0.05142 0.04522 0.0
O89 O 0.91054 0.04439 0.05703 0.0
C90 C 0.94905 0.04218 0.04718 0.0
C91 C 0.77054 0.06401 0.08773 0.0
C92 C 0.87548 0.07164 -1e-05 0.0
C93 C 0.91146 0.08174 0.10313 0.0
O94 O 0.8729 0.08031 0.09432 0.0
O95 O 0.94028 0.07438 0.09294 0.0
O96 O 0.78158 0.07451 0.07548 0.0
O97 O 0.79822 0.05513 0.08757 0.0
O98 O 0.84131 0.69643 -0.00246 0.0
Cd99 Cd 0.83726 0.69947 0.04645 0.0
Cd100 Cd 0.92103 0.698 0.04178 0.0
O101 O 0.90518 0.70479 -0.00341 0.0
O102 O 0.78615 0.71014 0.05204 0.0
O103 O 0.85271 0.71689 0.05808 0.0
C104 C 0.81244 0.71935 0.05506 0.0
C105 C 0.98854 0.70351 0.06174 0.0
C106 C 0.87175 0.70131 0.98176 0.0
C107 C 0.86945 0.67611 0.06779 0.0
O108 O 0.90228 0.67999 0.05266 0.0
O109 O 0.83915 0.68359 0.07437 0.0
O110 O 0.98408 0.69626 0.03703 0.0
O111 O 0.95444 0.70785 0.07527 0.0
O112 O 0.12833 0.8314 0.80012 0.0
Cd113 Cd 0.15228 0.81402 0.78793 0.0
Cd114 Cd 0.06793 0.81154 0.78831 0.0
O115 O 0.06446 0.82673 0.81884 0.0
O116 O 0.21367 0.81828 0.78273 0.0
O117 O 0.19138 0.80471 0.81903 0.0
C118 C 0.22262 0.81068 0.80582 0.0
C119 C 0.04712 0.79114 0.79238 0.0
C120 C 0.09394 0.83465 0.81426 0.0
C121 C 0.10761 0.8109 0.7257 0.0
O122 O 0.07578 0.81566 0.74016 0.0
O123 O 0.13967 0.80734 0.74204 0.0
O124 O 0.01905 0.79991 0.78962 0.0
O125 O 0.08641 0.79422 0.79791 0.0
O126 O 0.11399 0.42722 0.80926 0.0
Cd127 Cd 0.09393 0.44514 0.79822 0.0
Cd128 Cd 0.17962 0.4459 0.79644 0.0
O129 O 0.17994 0.43051 0.82574 0.0
O130 O 0.03111 0.44282 0.79489 0.0
O131 O 0.06033 0.45528 0.83125 0.0
C132 C 0.02639 0.45058 0.81847 0.0
C133 C 0.21436 0.46468 0.80036 0.0
C134 C 0.14838 0.42323 0.822 0.0
C135 C 0.13586 0.44751 0.73489 0.0
O136 O 0.16743 0.44237 0.74856 0.0
O137 O 0.10514 0.45158 0.75197 0.0
O138 O 0.23529 0.45453 0.79469 0.0
O139 O 0.17453 0.46382 0.80848 0.0
O140 O 0.15489 0.42837 0.4153 0.0
Cd141 Cd 0.17089 0.44644 0.42806 0.0
Cd142 Cd 0.08623 0.44627 0.42885 0.0
O143 O 0.08862 0.43091 0.39881 0.0
O144 O 0.2343 0.44549 0.43002 0.0
O145 O 0.20051 0.45764 0.39538 0.0
C146 C 0.23609 0.4535 0.40685 0.0
C147 C 0.05698 0.4658 0.42413 0.0
C148 C 0.12136 0.42403 0.40206 0.0
C149 C 0.12689 0.44781 0.49131 0.0
O150 O 0.09588 0.44261 0.47696 0.0
O151 O 0.15791 0.45206 0.47488 0.0
O152 O 0.03279 0.45612 0.42747 0.0
O153 O 0.09726 0.46407 0.4186 0.0
O154 O 0.11637 0.83161 0.40719 0.0
Cd155 Cd 0.09251 0.81402 0.41685 0.0
Cd156 Cd 0.17896 0.81247 0.42316 0.0
O157 O 0.18391 0.82815 0.39509 0.0
O158 O 0.03067 0.81804 0.41503 0.0
O159 O 0.05999 0.80405 0.38275 0.0
C160 C 0.02642 0.81007 0.39194 0.0
C161 C 0.21693 0.7941 0.42101 0.0
C162 C 0.15231 0.83551 0.39708 0.0
C163 C 0.12697 0.81133 0.48245 0.0
O164 O 0.16105 0.81564 0.47027 0.0
O165 O 0.09669 0.80794 0.46406 0.0
O166 O 0.2353 0.80442 0.42892 0.0
O167 O 0.1783 0.79457 0.40999 0.0
O168 O 0.9276 0.19216 0.23018 0.0
Cd169 Cd 0.94798 0.19513 0.18364 0.0
Cd170 Cd 0.85935 0.19174 0.17581 0.0
O171 O 0.86228 0.19891 0.2221 0.0
O172 O 1.00434 0.20296 0.1921 0.0
O173 O 0.94969 0.21315 0.17087 0.0
C174 C 0.98739 0.21341 0.18361 0.0
C175 C 0.79121 0.19342 0.15202 0.0
C176 C 0.89252 0.19622 0.2413 0.0
C177 C 0.92556 0.17129 0.1586 0.0
O178 O 0.88857 0.17468 0.16789 0.0
O179 O 0.95579 0.17913 0.15656 0.0
O180 O 0.7989 0.186 0.17574 0.0
O181 O 0.82241 0.20009 0.14136 0.0
O182 O 0.83294 0.57349 0.22046 0.0
Cd183 Cd 0.83458 0.56632 0.17458 0.0
Cd184 Cd 0.92099 0.57023 0.17945 0.0
O185 O 0.90238 0.57143 0.22746 0.0
O186 O 0.7873 0.55407 0.17287 0.0
O187 O 0.85585 0.5488 0.17362 0.0
C188 C 0.81617 0.54553 0.17567 0.0
C189 C 0.99261 0.56455 0.1705 0.0
C190 C 0.86543 0.57373 0.23874 0.0
C191 C 0.86672 0.5864 0.13382 0.0
O192 O 0.90125 0.58426 0.14897 0.0
O193 O 0.8346 0.57932 0.13764 0.0
O194 O 0.9821 0.57486 0.18425 0.0
O195 O 0.96226 0.55711 0.16215 0.0
O196 O 0.89135 0.56845 0.49512 0.0
Cd197 Cd 0.90447 0.56142 0.53989 0.0
Cd198 Cd 0.81576 0.56487 0.5455 0.0
O199 O 0.82176 0.56561 0.49559 0.0
O200 O 0.96067 0.55342 0.53157 0.0
O201 O 0.90216 0.54276 0.54309 0.0
C202 C 0.9415 0.54283 0.53353 0.0
C203 C 0.74945 0.55792 0.56493 0.0
C204 C 0.85585 0.56829 0.48048 0.0
C205 C 0.87868 0.58172 0.58285 0.0
O206 O 0.84159 0.57942 0.57181 0.0
O207 O 0.90991 0.57459 0.57612 0.0
O208 O 0.75341 0.56822 0.54938 0.0
O209 O 0.78331 0.55133 0.56955 0.0
O210 O 0.8318 0.19277 0.49721 0.0
Cd211 Cd 0.81492 0.19767 0.54336 0.0
Cd212 Cd 0.90365 0.19896 0.5484 0.0
O213 O 0.88995 0.20404 0.50123 0.0
O214 O 0.75977 0.20641 0.53773 0.0
O215 O 0.82011 0.2159 0.55152 0.0
C216 C 0.78088 0.21664 0.54183 0.0
C217 C 0.97509 0.2029 0.56286 0.0
C218 C 0.862 0.19869 0.48383 0.0
C219 C 0.85002 0.17725 0.5778 0.0
O220 O 0.8842 0.18181 0.56612 0.0
O221 O 0.81539 0.18339 0.57647 0.0
O222 O 0.96474 0.19465 0.54169 0.0
O223 O 0.94469 0.2093 0.57589 0.0
O224 O 0.62787 0.33114 0.82783 0.0
Cd225 Cd 0.65912 0.31692 0.80361 0.0
Cd226 Cd 0.56905 0.31273 0.79268 0.0
O227 O 0.55885 0.32705 0.82481 0.0
O228 O 0.7184 0.32296 0.80988 0.0
O229 O 0.69731 0.30469 0.82787 0.0
C230 C 0.72734 0.31281 0.82482 0.0
C231 C 0.53194 0.29419 0.78823 0.0
C232 C 0.58935 0.33388 0.83452 0.0
C233 C 0.6251 0.31824 0.73551 0.0
O234 O 0.58784 0.31794 0.74742 0.0
O235 O 0.65768 0.31698 0.75347 0.0
O236 O 0.51362 0.30472 0.78259 0.0
O237 O 0.56992 0.29433 0.80049 0.0
O238 O 0.63153 0.9264 0.80455 0.0
Cd239 Cd 0.60366 0.94347 0.79444 0.0
Cd240 Cd 0.69141 0.94667 0.78911 0.0
O241 O 0.69785 0.93109 0.81777 0.0
O242 O 0.5429 0.93812 0.79355 0.0
O243 O 0.5661 0.9524 0.82765 0.0
C244 C 0.53484 0.94581 0.81672 0.0
C245 C 0.72816 0.96537 0.79058 0.0
C246 C 0.66787 0.92319 0.81547 0.0
C247 C 0.64023 0.94714 0.72958 0.0
O248 O 0.67459 0.94315 0.74197 0.0
O249 O 0.60906 0.95007 0.74775 0.0
O250 O 0.74723 0.9551 0.78306 0.0
O251 O 0.68946 0.96472 0.80146 0.0
O252 O 0.65681 0.92958 0.41201 0.0
Cd253 Cd 0.67365 0.94765 0.4242 0.0
Cd254 Cd 0.59021 0.94828 0.42263 0.0
O255 O 0.59201 0.93282 0.39325 0.0
O256 O 0.73697 0.94667 0.42684 0.0
O257 O 0.70379 0.95844 0.39094 0.0
C258 C 0.73913 0.95438 0.40301 0.0
C259 C 0.56564 0.96817 0.41551 0.0
C260 C 0.62349 0.92558 0.39779 0.0
C261 C 0.62714 0.94984 0.48625 0.0
O262 O 0.59631 0.94484 0.47122 0.0
O263 O 0.65934 0.95371 0.47049 0.0
O264 O 0.53921 0.95899 0.41856 0.0
O265 O 0.60578 0.96568 0.41165 0.0
O266 O 0.61177 0.33391 0.40598 0.0
Cd267 Cd 0.59594 0.31774 0.42967 0.0
Cd268 Cd 0.68065 0.31667 0.42924 0.0
O269 O 0.67964 0.33066 0.39474 0.0
O270 O 0.53241 0.31825 0.42966 0.0
O271 O 0.56897 0.30364 0.40403 0.0
C272 C 0.53255 0.30844 0.41165 0.0
C273 C 0.69841 0.2959 0.42812 0.0
C274 C 0.64631 0.33738 0.39252 0.0
C275 C 0.64236 0.32083 0.49266 0.0
O276 O 0.67615 0.32258 0.47631 0.0
O277 O 0.60812 0.31742 0.47877 0.0
O278 O 0.72784 0.30436 0.42776 0.0
O279 O 0.65914 0.29937 0.4244 0.0
O280 O 0.42179 0.68927 0.22583 0.0
Cd281 Cd 0.43722 0.69586 0.18096 0.0
Cd282 Cd 0.3501 0.69076 0.17001 0.0
O283 O 0.35195 0.68912 0.21989 0.0
O284 O 0.49085 0.70501 0.19023 0.0
O285 O 0.4311 0.71429 0.17486 0.0
C286 C 0.46973 0.71516 0.18564 0.0
C287 C 0.2831 0.69706 0.15033 0.0
C288 C 0.38476 0.68783 0.2376 0.0
C289 C 0.41996 0.67499 0.13679 0.0
O290 O 0.38098 0.67698 0.14388 0.0
O291 O 0.44901 0.6823 0.14681 0.0
O292 O 0.28897 0.68634 0.16338 0.0
O293 O 0.31568 0.70432 0.14758 0.0
O294 O 0.30954 0.07441 0.22096 0.0
Cd295 Cd 0.30466 0.06599 0.17681 0.0
Cd296 Cd 0.39194 0.07126 0.17231 0.0
O297 O 0.37998 0.07482 0.22094 0.0
O298 O 0.25939 0.05327 0.18134 0.0
O299 O 0.3283 0.04877 0.17605 0.0
C300 C 0.2897 0.04511 0.18194 0.0
C301 C 0.46371 0.06712 0.15914 0.0
C302 C 0.34452 0.07644 0.23544 0.0
C303 C 0.32624 0.08418 0.12743 0.0
O304 O 0.36372 0.0827 0.13848 0.0
O305 O 0.29549 0.07765 0.138 0.0
O306 O 0.45084 0.07794 0.16817 0.0
O307 O 0.43597 0.05827 0.15833 0.0
O308 O 0.40681 0.07165 0.48703 0.0
Cd309 Cd 0.42547 0.06505 0.53106 0.0
Cd310 Cd 0.33797 0.06931 0.54396 0.0
O311 O 0.33719 0.07052 0.49387 0.0
O312 O 0.48056 0.05711 0.51914 0.0
O313 O 0.42435 0.04647 0.53612 0.0
C314 C 0.46229 0.0465 0.52371 0.0
C315 C 0.27325 0.06271 0.56722 0.0
C316 C 0.36935 0.0724 0.47574 0.0
C317 C 0.40748 0.08586 0.57488 0.0
O318 O 0.36859 0.08358 0.56826 0.0
O319 O 0.43701 0.07866 0.56498 0.0
O320 O 0.27677 0.0732 0.55253 0.0
O321 O 0.3068 0.05579 0.56921 0.0
O322 O 0.32207 0.68588 0.49219 0.0
Cd323 Cd 0.31536 0.69386 0.5368 0.0
Cd324 Cd 0.40096 0.68825 0.54309 0.0
O325 O 0.39239 0.68577 0.49375 0.0
O326 O 0.26929 0.70629 0.53159 0.0
O327 O 0.33737 0.71126 0.53911 0.0
C328 C 0.29884 0.71467 0.53213 0.0
C329 C 0.47155 0.69269 0.55863 0.0
C330 C 0.35772 0.68421 0.47829 0.0
C331 C 0.33317 0.67447 0.58386 0.0
O332 O 0.37125 0.67581 0.57378 0.0
O333 O 0.30374 0.68166 0.57408 0.0
O334 O 0.46046 0.68203 0.54725 0.0
O335 O 0.44245 0.70115 0.56094 0.0
O336 O 0.6466 0.83262 0.31719 0.0
Cd337 Cd 0.66336 0.81775 0.28805 0.0
Cd338 Cd 0.57701 0.81643 0.29176 0.0
O339 O 0.5791 0.82916 0.32912 0.0
O340 O 0.72505 0.82156 0.28289 0.0
O341 O 0.70261 0.80437 0.30635 0.0
C342 C 0.73404 0.81134 0.2975 0.0
C343 C 0.55956 0.79565 0.2908 0.0
C344 C 0.61279 0.8356 0.33245 0.0
C345 C 0.61085 0.82229 0.22799 0.0
O346 O 0.57849 0.82382 0.2461 0.0
O347 O 0.64576 0.81837 0.23985 0.0
O348 O 0.53015 0.80408 0.29297 0.0
O349 O 0.59905 0.79908 0.2931 0.0
O350 O 0.61151 0.43117 0.30809 0.0
Cd351 Cd 0.59261 0.44822 0.28964 0.0
Cd352 Cd 0.67945 0.44786 0.28535 0.0
O353 O 0.67966 0.43384 0.31929 0.0
O354 O 0.52957 0.44584 0.28885 0.0
O355 O 0.56013 0.46036 0.31865 0.0
C356 C 0.52572 0.45489 0.30912 0.0
C357 C 0.71512 0.46667 0.28316 0.0
C358 C 0.6462 0.42717 0.3203 0.0
C359 C 0.63182 0.44605 0.22483 0.0
O360 O 0.66445 0.44201 0.23957 0.0
O361 O 0.6018 0.45118 0.24069 0.0
O362 O 0.73537 0.45626 0.27968 0.0
O363 O 0.67545 0.46626 0.29196 0.0
O364 O 0.63475 0.42708 0.89263 0.0
Cd365 Cd 0.65896 0.44267 0.9159 0.0
Cd366 Cd 0.57376 0.44568 0.92068 0.0
O367 O 0.56693 0.43202 0.88634 0.0
O368 O 0.7211 0.43889 0.9165 0.0
O369 O 0.69473 0.45519 0.89092 0.0
C370 C 0.72755 0.44871 0.8994 0.0
C371 C 0.55589 0.4664 0.92091 0.0
C372 C 0.59782 0.42457 0.88158 0.0
C373 C 0.61656 0.44148 0.98145 0.0
O374 O 0.58159 0.43946 0.96699 0.0
O375 O 0.6495 0.4445 0.9653 0.0
O376 O 0.52669 0.45792 0.92265 0.0
O377 O 0.59472 0.46299 0.91471 0.0
O378 O 0.62053 0.83257 0.89248 0.0
Cd379 Cd 0.58693 0.81956 0.91954 0.0
Cd380 Cd 0.67576 0.81687 0.93625 0.0
O381 O 0.68916 0.82839 0.89792 0.0
O382 O 0.52864 0.8259 0.91 0.0
O383 O 0.54829 0.80683 0.89737 0.0
C384 C 0.51915 0.81531 0.89746 0.0
C385 C 0.70903 0.79818 0.94945 0.0
C386 C 0.65933 0.8348 0.88542 0.0
C387 C 0.61564 0.82529 -0.01265 0.0
O388 O 0.65348 0.82582 0.97659 0.0
O389 O 0.58558 0.82128 0.96956 0.0
O390 O 0.72866 0.80868 0.95235 0.0
O391 O 0.67167 0.79821 0.93612 0.0
O392 O 0.42617 0.18969 0.7073 0.0
Cd393 Cd 0.43132 0.19673 0.66165 0.0
Cd394 Cd 0.34614 0.19187 0.65885 0.0
O395 O 0.35604 0.19109 0.70839 0.0
O396 O 0.47812 0.20899 0.66458 0.0
O397 O 0.40993 0.21414 0.65826 0.0
C398 C 0.44881 0.21746 0.66438 0.0
C399 C 0.27617 0.19697 0.64335 0.0
C400 C 0.39128 0.18925 0.72283 0.0
C401 C 0.4105 0.17616 0.61941 0.0
O402 O 0.37328 0.17798 0.63083 0.0
O403 O 0.44057 0.18367 0.62591 0.0
O404 O 0.28553 0.18652 0.65668 0.0
O405 O 0.30672 0.20483 0.63893 0.0
O406 O 0.32143 0.57251 0.73569 0.0
Cd407 Cd 0.31467 0.56546 0.69004 0.0
Cd408 Cd 0.39887 0.56952 0.68446 0.0
O409 O 0.39156 0.57104 0.7342 0.0
O410 O 0.26802 0.55312 0.69304 0.0
O411 O 0.33624 0.54809 0.68592 0.0
C412 C 0.29745 0.54468 0.69211 0.0
C413 C 0.46408 0.56139 0.66598 0.0
C414 C 0.35726 0.57312 0.74981 0.0
C415 C 0.33652 0.58587 0.6468 0.0
O416 O 0.37413 0.58386 0.65713 0.0
O417 O 0.30622 0.57856 0.6543 0.0
O418 O 0.46168 0.57199 0.68043 0.0
O419 O 0.42923 0.55519 0.66191 0.0
O420 O 0.42695 0.57098 0.00183 0.0
Cd421 Cd 0.44656 0.56451 0.04573 0.0
Cd422 Cd 0.358 0.56925 0.05972 0.0
O423 O 0.35735 0.57035 0.00959 0.0
O424 O 0.49978 0.55566 0.03339 0.0
O425 O 0.44206 0.54605 0.05169 0.0
C426 C 0.47958 0.5454 0.03865 0.0
C427 C 0.29042 0.56537 0.08277 0.0
C428 C 0.38928 0.57186 -0.00902 0.0
C429 C 0.43096 0.58504 0.09045 0.0
O430 O 0.39194 0.58275 0.08449 0.0
O431 O 0.46029 0.57807 0.07929 0.0
O432 O 0.2997 0.57571 0.06887 0.0
O433 O 0.31963 0.55691 0.0836 0.0
O434 O 0.35467 0.19004 0.98134 0.0
Cd435 Cd 0.34601 0.19481 0.0291 0.0
Cd436 Cd 0.42903 0.18736 0.03107 0.0
O437 O 0.42496 0.1903 0.982 0.0
O438 O 0.29576 0.20601 0.02717 0.0
O439 O 0.36101 0.21252 0.03911 0.0
C440 C 0.32182 0.21512 0.032 0.0
C441 C 0.49702 0.19027 0.05391 0.0
C442 C 0.39011 0.18978 0.96642 0.0
C443 C 0.35781 0.17087 0.05847 0.0
O444 O 0.39522 0.17209 0.04696 0.0
O445 O 0.33233 0.18007 0.05931 0.0
O446 O 0.48851 0.18102 0.03514 0.0
O447 O 0.46668 0.19806 0.06005 0.0
H448 H 0.17391 0.40605 0.42483 0.0
H449 H 0.06459 0.41149 0.36258 0.0
H450 H 0.17198 0.38392 0.41411 0.0
H451 H 0.0639 0.38913 0.35038 0.0
H452 H 0.05743 0.34659 0.35141 0.0
H453 H 0.05206 0.36816 0.37058 0.0
H454 H 0.18965 0.37077 0.3709 0.0
H455 H 0.19489 0.34938 0.35332 0.0
C456 C 0.14974 0.40254 0.4084 0.0
C457 C 0.11984 0.41059 0.39409 0.0
C458 C 0.14865 0.38979 0.40224 0.0
C459 C 0.11817 0.38471 0.38102 0.0
C460 C 0.08762 0.39271 0.36708 0.0
C461 C 0.08827 0.40553 0.37374 0.0
C462 C 0.08643 0.35171 0.35643 0.0
C463 C 0.12658 0.34625 0.3508 0.0
C464 C 0.08337 0.36412 0.36696 0.0
C465 C 0.1204 0.37127 0.37211 0.0
C466 C 0.16038 0.36557 0.3677 0.0
C467 C 0.16341 0.35325 0.3574 0.0
H468 H 0.2284 0.91217 0.35066 0.0
H469 H 0.09161 0.91156 0.36367 0.0
H470 H 0.2324 0.89059 0.36941 0.0
H471 H 0.09526 0.89013 0.38084 0.0
H472 H 0.10914 0.8538 0.42774 0.0
H473 H 0.1159 0.87608 0.4209 0.0
H474 H 0.21403 0.87025 0.34833 0.0
H475 H 0.20879 0.8477 0.35678 0.0
C476 C 0.19935 0.90754 0.35816 0.0
C477 C 0.15965 0.91355 0.35551 0.0
C478 C 0.20157 0.89512 0.36844 0.0
C479 C 0.16415 0.88855 0.37632 0.0
C480 C 0.12488 0.89487 0.37541 0.0
C481 C 0.12271 0.90721 0.36535 0.0
C482 C 0.1322 0.85725 0.41028 0.0
C483 C 0.15779 0.84902 0.39221 0.0
C484 C 0.13609 0.87006 0.40637 0.0
C485 C 0.16494 0.875 0.38364 0.0
C486 C 0.19167 0.86677 0.36624 0.0
C487 C 0.1884 0.85387 0.37075 0.0
H488 H 0.15622 0.91004 0.85269 0.0
H489 H 0.02362 0.90993 0.88147 0.0
H490 H 0.14952 0.88898 0.83277 0.0
H491 H 0.01633 0.88869 0.8602 0.0
H492 H 0.04487 0.84548 0.86247 0.0
H493 H 0.03978 0.86778 0.87524 0.0
H494 H 0.12055 0.87601 0.79266 0.0
H495 H 0.1273 0.85398 0.78124 0.0
C496 C 0.12522 0.90561 0.85399 0.0
C497 C 0.09053 0.91166 0.86882 0.0
C498 C 0.12127 0.89349 0.84237 0.0
C499 C 0.08237 0.88706 0.84495 0.0
C500 C 0.04688 0.89332 0.85823 0.0
C501 C 0.05089 0.90554 0.86998 0.0
C502 C 0.06136 0.85212 0.84716 0.0
C503 C 0.08737 0.848 0.82144 0.0
C504 C 0.05817 0.86488 0.85422 0.0
C505 C 0.08036 0.8737 0.83528 0.0
C506 C 0.10408 0.8695 0.80838 0.0
C507 C 0.10795 0.85684 0.80181 0.0
H508 H 0.20446 0.41132 0.86292 0.0
H509 H 0.10332 0.40468 0.7938 0.0
H510 H 0.21022 0.38887 0.87233 0.0
H511 H 0.11057 0.38246 0.80162 0.0
H512 H 0.09094 0.3467 0.85848 0.0
H513 H 0.09234 0.36817 0.84151 0.0
H514 H 0.22963 0.3687 0.85143 0.0
H515 H 0.2279 0.34708 0.87012 0.0
C516 C 0.18371 0.40506 0.84964 0.0
C517 C 0.15279 0.40976 0.82824 0.0
C518 C 0.18733 0.3922 0.85467 0.0
C519 C 0.16059 0.38382 0.83793 0.0
C520 C 0.13092 0.3886 0.81561 0.0
C521 C 0.12674 0.40138 0.81113 0.0
C522 C 0.12161 0.35128 0.85654 0.0
C523 C 0.15926 0.34519 0.86596 0.0
C524 C 0.12247 0.36364 0.84658 0.0
C525 C 0.1611 0.37026 0.84529 0.0
C526 C 0.19924 0.36395 0.85273 0.0
C527 C 0.19833 0.35151 0.86296 0.0
H528 H 0.81797 0.59689 0.60829 0.0
H529 H 0.95437 0.59387 0.59513 0.0
H530 H 0.82614 0.61806 0.6271 0.0
H531 H 0.96285 0.61522 0.61533 0.0
H532 H 0.94691 0.6589 0.60945 0.0
H533 H 0.94793 0.63651 0.59716 0.0
H534 H 0.85069 0.63052 0.67017 0.0
H535 H 0.84828 0.65265 0.68106 0.0
C536 C 0.84992 0.60066 0.61012 0.0
C537 C 0.88549 0.59368 0.60008 0.0
C538 C 0.85467 0.61284 0.62112 0.0
C539 C 0.8952 0.61839 0.62274 0.0
C540 C 0.93114 0.61126 0.61401 0.0
C541 C 0.92634 0.59899 0.60286 0.0
C542 C 0.92589 0.65273 0.62277 0.0
C543 C 0.89676 0.65754 0.64557 0.0
C544 C 0.9267 0.63991 0.61599 0.0
C545 C 0.89886 0.63172 0.63233 0.0
C546 C 0.87165 0.63656 0.65642 0.0
C547 C 0.87029 0.64928 0.66268 0.0
H548 H 0.93124 0.10706 0.65728 0.0
H549 H 0.80253 0.09881 0.62646 0.0
H550 H 0.92309 0.12828 0.63921 0.0
H551 H 0.7949 0.12025 0.60691 0.0
H552 H 0.78605 0.16376 0.60794 0.0
H553 H 0.78954 0.14199 0.62584 0.0
H554 H 0.91916 0.13962 0.59041 0.0
H555 H 0.91639 0.16113 0.57403 0.0
C556 C 0.90132 0.1097 0.64611 0.0
C557 C 0.86761 0.10116 0.64318 0.0
C558 C 0.89669 0.12193 0.6356 0.0
C559 C 0.85842 0.12599 0.62138 0.0
C560 C 0.82467 0.11745 0.61805 0.0
C561 C 0.82921 0.10514 0.62889 0.0
C562 C 0.81533 0.15858 0.60433 0.0
C563 C 0.85109 0.16427 0.58998 0.0
C564 C 0.8172 0.14608 0.61425 0.0
C565 C 0.85477 0.13907 0.60982 0.0
C566 C 0.89004 0.14477 0.59497 0.0
C567 C 0.88836 0.15718 0.58546 0.0
H568 H 0.97231 0.15885 0.11177 0.0
H569 H 0.8976 0.15346 0.19887 0.0
H570 H 0.97662 0.13616 0.10443 0.0
H571 H 0.90376 0.13105 0.19284 0.0
H572 H 0.85887 0.09586 0.14028 0.0
H573 H 0.8699 0.11717 0.15724 0.0
H574 H 0.99995 0.11559 0.12227 0.0
H575 H 0.9882 0.0941 0.10422 0.0
C576 C 0.95765 0.1528 0.12963 0.0
C577 C 0.93373 0.15783 0.15537 0.0
C578 C 0.96034 0.13983 0.12565 0.0
C579 C 0.93981 0.13176 0.14775 0.0
C580 C 0.91883 0.13694 0.17481 0.0
C581 C 0.91535 0.14979 0.17831 0.0
C582 C 0.89019 0.09993 0.13689 0.0
C583 C 0.92256 0.09331 0.12077 0.0
C584 C 0.89666 0.11219 0.14675 0.0
C585 C 0.93582 0.11818 0.14096 0.0
C586 C 0.96924 0.11131 0.12669 0.0
C587 C 0.96271 0.09894 0.1168 0.0
H588 H 0.79441 0.59956 0.11778 0.0
H589 H 0.93183 0.60029 0.11028 0.0
H590 H 0.79149 0.6211 0.09831 0.0
H591 H 0.92914 0.62166 0.09213 0.0
H592 H 0.91592 0.65748 0.04066 0.0
H593 H 0.91036 0.6353 0.04994 0.0
H594 H 0.80908 0.64171 0.11951 0.0
H595 H 0.81345 0.66413 0.10899 0.0
C596 C 0.82385 0.60421 0.11128 0.0
C597 C 0.86335 0.59823 0.11564 0.0
C598 C 0.82224 0.6166 0.10061 0.0
C599 C 0.86008 0.62318 0.09393 0.0
C600 C 0.89927 0.6169 0.09663 0.0
C601 C 0.90086 0.60461 0.10721 0.0
C602 C 0.89244 0.65421 0.05802 0.0
C603 C 0.86559 0.66261 0.07453 0.0
C604 C 0.88925 0.64145 0.06333 0.0
C605 C 0.85962 0.63668 0.08575 0.0
C606 C 0.832 0.64504 0.10182 0.0
C607 C 0.8348 0.65789 0.09611 0.0
H608 H 0.52249 0.41165 0.88006 0.0
H609 H 0.6561 0.40878 0.85525 0.0
H610 H 0.51441 0.3892 0.87183 0.0
H611 H 0.64786 0.38654 0.8464 0.0
H612 H 0.64038 0.34714 0.8749 0.0
H613 H 0.63728 0.36946 0.88468 0.0
H614 H 0.51783 0.37146 0.83271 0.0
H615 H 0.52045 0.34894 0.8236 0.0
C616 C 0.54979 0.4063 0.8719 0.0
C617 C 0.59007 0.41194 0.86865 0.0
C618 C 0.5452 0.39344 0.8674 0.0
C619 C 0.58079 0.38606 0.85949 0.0
C620 C 0.62015 0.39191 0.85362 0.0
C621 C 0.62478 0.40468 0.85828 0.0
C622 C 0.61285 0.35229 0.86637 0.0
C623 C 0.58088 0.34634 0.84826 0.0
C624 C 0.61133 0.36509 0.87157 0.0
C625 C 0.57804 0.37227 0.85846 0.0
C626 C 0.54404 0.36619 0.84286 0.0
C627 C 0.5454 0.35328 0.83787 0.0
H628 H 0.60473 0.84786 0.84746 0.0
H629 H 0.73473 0.84786 0.88215 0.0
H630 H 0.61359 0.86881 0.82746 0.0
H631 H 0.74433 0.86895 0.86079 0.0
H632 H 0.71576 0.91213 0.86362 0.0
H633 H 0.72074 0.88974 0.87505 0.0
H634 H 0.64503 0.88202 0.78948 0.0
H635 H 0.63815 0.90417 0.77951 0.0
C636 C 0.6357 0.85222 0.85 0.0
C637 C 0.66889 0.8462 0.86662 0.0
C638 C 0.64093 0.86428 0.83832 0.0
C639 C 0.67968 0.87066 0.84263 0.0
C640 C 0.71388 0.86437 0.8575 0.0
C641 C 0.70856 0.85223 0.86932 0.0
C642 C 0.70051 0.90557 0.84731 0.0
C643 C 0.67567 0.90984 0.82123 0.0
C644 C 0.7036 0.89276 0.85361 0.0
C645 C 0.68259 0.88405 0.8335 0.0
C646 C 0.66047 0.88842 0.8061 0.0
C647 C 0.65658 0.90113 0.80032 0.0
H648 H 0.68108 0.84946 0.35037 0.0
H649 H 0.54327 0.84925 0.35274 0.0
H650 H 0.68145 0.87096 0.36771 0.0
H651 H 0.54363 0.87089 0.3716 0.0
H652 H 0.56402 0.9136 0.35977 0.0
H653 H 0.55898 0.89123 0.349 0.0
H654 H 0.66866 0.88491 0.41042 0.0
H655 H 0.67481 0.90709 0.41982 0.0
C656 C 0.65077 0.85392 0.35541 0.0
C657 C 0.61213 0.84765 0.34994 0.0
C658 C 0.65097 0.86629 0.36554 0.0
C659 C 0.61254 0.87273 0.37085 0.0
C660 C 0.57379 0.86626 0.36717 0.0
C661 C 0.57358 0.85382 0.35683 0.0
C662 C 0.58716 0.9074 0.37072 0.0
C663 C 0.62023 0.91214 0.39016 0.0
C664 C 0.58398 0.89458 0.36491 0.0
C665 C 0.61353 0.88625 0.37875 0.0
C666 C 0.64589 0.89104 0.39878 0.0
C667 C 0.64942 0.9038 0.40417 0.0
H668 H 0.71532 0.34985 0.36621 0.0
H669 H 0.58083 0.35375 0.3874 0.0
H670 H 0.71732 0.37161 0.34827 0.0
H671 H 0.58331 0.37527 0.37133 0.0
H672 H 0.58563 0.40951 0.31169 0.0
H673 H 0.58857 0.38773 0.32535 0.0
H674 H 0.71298 0.39295 0.36843 0.0
H675 H 0.71094 0.415 0.353 0.0
C676 C 0.6862 0.35528 0.36678 0.0
C677 C 0.64789 0.35 0.37804 0.0
C678 C 0.68746 0.36779 0.35693 0.0
C679 C 0.65047 0.37522 0.35829 0.0
C680 C 0.61227 0.36982 0.36924 0.0
C681 C 0.61091 0.35741 0.37864 0.0
C682 C 0.61363 0.40612 0.3243 0.0
C683 C 0.64786 0.41409 0.33161 0.0
C684 C 0.61526 0.39356 0.33223 0.0
C685 C 0.65079 0.38855 0.34837 0.0
C686 C 0.68526 0.39647 0.35574 0.0
C687 C 0.6839 0.40913 0.34728 0.0
H688 H 0.50195 0.59937 0.07984 0.0
H689 H 0.38179 0.59869 0.13144 0.0
H690 H 0.50636 0.62195 0.0884 0.0
H691 H 0.38638 0.62106 0.13999 0.0
H692 H 0.36841 0.65944 0.10263 0.0
H693 H 0.37916 0.63725 0.09425 0.0
H694 H 0.50705 0.64022 0.13214 0.0
H695 H 0.49644 0.66261 0.14059 0.0
C696 C 0.47738 0.60394 0.09408 0.0
C697 C 0.4412 0.59732 0.10461 0.0
C698 C 0.47977 0.61686 0.0987 0.0
C699 C 0.44602 0.62324 0.11388 0.0
C700 C 0.41222 0.61639 0.12735 0.0
C701 C 0.40982 0.60357 0.12277 0.0
C702 C 0.39925 0.65546 0.10841 0.0
C703 C 0.43131 0.66275 0.12274 0.0
C704 C 0.40525 0.64273 0.10391 0.0
C705 C 0.44343 0.637 0.11358 0.0
C706 C 0.47715 0.64442 0.12486 0.0
C707 C 0.47112 0.65724 0.12944 0.0
H708 H 0.36913 0.15146 0.01855 0.0
H709 H 0.31017 0.16178 0.10966 0.0
H710 H 0.34938 0.12988 0.02714 0.0
H711 H 0.2922 0.13982 0.11947 0.0
H712 H 0.25614 0.09937 0.12637 0.0
H713 H 0.25409 0.12062 0.10473 0.0
H714 H 0.37925 0.11506 0.06273 0.0
H715 H 0.38066 0.09403 0.08358 0.0
C716 C 0.35196 0.14904 0.04057 0.0
C717 C 0.34208 0.15816 0.06391 0.0
C718 C 0.34059 0.13668 0.04547 0.0
C719 C 0.32003 0.13305 0.07429 0.0
C720 C 0.30787 0.14231 0.0969 0.0
C721 C 0.31848 0.15484 0.09156 0.0
C722 C 0.2823 0.10258 0.11133 0.0
C723 C 0.31862 0.0951 0.10664 0.0
C724 C 0.28144 0.11479 0.09941 0.0
C725 C 0.31668 0.11961 0.08235 0.0
C726 C 0.3513 0.11168 0.07545 0.0
C727 C 0.35222 0.09959 0.08743 0.0
H728 H 0.35673 0.10063 0.61206 0.0
H729 H 0.4808 0.09933 0.56626 0.0
H730 H 0.36418 0.12297 0.61978 0.0
H731 H 0.48797 0.12187 0.57365 0.0
H732 H 0.48458 0.1627 0.62211 0.0
H733 H 0.49055 0.14016 0.61391 0.0
H734 H 0.36185 0.13937 0.57673 0.0
H735 H 0.35568 0.16171 0.58531 0.0
C736 C 0.38606 0.10508 0.60437 0.0
C737 C 0.4179 0.09826 0.58819 0.0
C738 C 0.39012 0.11789 0.60841 0.0
C739 C 0.426 0.12419 0.59623 0.0
C740 C 0.45978 0.11725 0.58292 0.0
C741 C 0.45578 0.10434 0.57894 0.0
C742 C 0.45819 0.15776 0.61109 0.0
C743 C 0.41946 0.16391 0.60467 0.0
C744 C 0.46149 0.14485 0.60669 0.0
C745 C 0.42614 0.13799 0.59577 0.0
C746 C 0.38912 0.14438 0.58622 0.0
C747 C 0.38576 0.15719 0.59071 0.0
H748 H 0.38381 0.66209 0.62615 0.0
H749 H 0.26083 0.6604 0.57923 0.0
H750 H 0.37825 0.64015 0.64014 0.0
H751 H 0.25562 0.63824 0.59269 0.0
H752 H 0.26158 0.59903 0.64722 0.0
H753 H 0.25388 0.62131 0.63587 0.0
H754 H 0.38415 0.62241 0.60166 0.0
H755 H 0.39204 0.60037 0.61339 0.0
C756 C 0.35501 0.6571 0.61969 0.0
C757 C 0.32298 0.66289 0.60136 0.0
C758 C 0.35205 0.6445 0.62728 0.0
C759 C 0.3172 0.63741 0.61643 0.0
C760 C 0.28302 0.64347 0.60105 0.0
C761 C 0.28586 0.65617 0.59362 0.0
C762 C 0.28811 0.60398 0.63636 0.0
C763 C 0.32761 0.59801 0.63153 0.0
C764 C 0.28377 0.61674 0.63014 0.0
C765 C 0.31886 0.62365 0.61897 0.0
C766 C 0.357 0.6174 0.61137 0.0
C767 C 0.36137 0.60474 0.61767 0.0
H768 H 0.51981 0.29549 0.35507 0.0
H769 H 0.45375 0.31079 0.43835 0.0
H770 H 0.45105 0.29123 0.32889 0.0
H771 H 0.38545 0.30637 0.41256 0.0
H772 H 0.26591 0.2934 0.36342 0.0
H773 H 0.33541 0.28949 0.38883 0.0
H774 H 0.39798 0.30795 0.30869 0.0
H775 H 0.32893 0.31202 0.28372 0.0
C776 C 0.49064 0.2976 0.36814 0.0
C777 C 0.49201 0.30358 0.39855 0.0
C778 C 0.45139 0.2952 0.35316 0.0
C779 C 0.41298 0.2985 0.3687 0.0
C780 C 0.41448 0.30361 0.40015 0.0
C781 C 0.4536 0.30622 0.4148 0.0
C782 C 0.29463 0.29632 0.35089 0.0
C783 C 0.29212 0.30312 0.32181 0.0
C784 C 0.3343 0.29412 0.36545 0.0
C785 C 0.37201 0.29844 0.35074 0.0
C786 C 0.36952 0.3044 0.32042 0.0
C787 C 0.32997 0.30681 0.30626 0.0
H788 H 0.00968 0.96694 0.36039 0.0
H789 H 0.95467 0.94365 0.28569 0.0
H790 H 0.93797 0.97134 0.38162 0.0
H791 H 0.88351 0.94816 0.30649 0.0
H792 H 0.75726 0.96288 0.34171 0.0
H793 H 0.82819 0.96533 0.31726 0.0
H794 H 0.88626 0.95603 0.40925 0.0
H795 H 0.81582 0.95344 0.43346 0.0
C796 C 0.98227 0.96302 0.34807 0.0
C797 C 0.98768 0.95486 0.32163 0.0
C798 C 0.94134 0.9655 0.36024 0.0
C799 C 0.90523 0.96008 0.34569 0.0
C800 C 0.91066 0.95257 0.31799 0.0
C801 C 0.95145 0.94991 0.30626 0.0
C802 C 0.78521 0.96162 0.35681 0.0
C803 C 0.7811 0.95783 0.38935 0.0
C804 C 0.82572 0.963 0.34283 0.0
C805 C 0.86267 0.96085 0.36138 0.0
C806 C 0.85839 0.95786 0.39446 0.0
C807 C 0.81804 0.95628 0.40823 0.0
H808 H 0.46821 0.93058 0.80338 0.0
H809 H 0.5025 0.96285 0.86066 0.0
H810 H 0.39692 0.93102 0.82648 0.0
H811 H 0.43005 0.96329 0.88381 0.0
H812 H 0.27516 0.96379 0.88397 0.0
H813 H 0.34832 0.96575 0.86279 0.0
H814 H 0.37167 0.92715 0.88556 0.0
H815 H 0.29966 0.92517 0.90669 0.0
C816 C 0.46051 0.93783 0.82081 0.0
C817 C 0.49118 0.94664 0.83036 0.0
C818 C 0.41962 0.93805 0.83408 0.0
C819 C 0.40814 0.94713 0.85705 0.0
C820 C 0.43819 0.95621 0.86604 0.0
C821 C 0.47959 0.95591 0.85296 0.0
C822 C 0.29611 0.95578 0.88463 0.0
C823 C 0.28149 0.94431 0.89677 0.0
C824 C 0.33792 0.95692 0.8727 0.0
C825 C 0.36537 0.94657 0.87236 0.0
C826 C 0.35099 0.93524 0.88523 0.0
C827 C 0.30969 0.93413 0.89739 0.0
H828 H 0.79013 0.33 0.82895 0.0
H829 H 0.76248 0.29151 0.85117 0.0
H830 H 0.86071 0.32772 0.85213 0.0
H831 H 0.83442 0.28925 0.87452 0.0
H832 H 0.9911 0.29281 0.87311 0.0
H833 H 0.9171 0.29152 0.8535 0.0
H834 H 0.88425 0.32364 0.91163 0.0
H835 H 0.95713 0.32497 0.93107 0.0
C836 C 0.79913 0.32101 0.8387 0.0
C837 C 0.77054 0.31095 0.8384 0.0
C838 C 0.83959 0.31974 0.85208 0.0
C839 C 0.85277 0.30835 0.86535 0.0
C840 C 0.82486 0.29813 0.86441 0.0
C841 C 0.78379 0.29945 0.85123 0.0
C842 C 0.96781 0.29944 0.88209 0.0
C843 C 0.9801 0.30912 0.90319 0.0
C844 C 0.92556 0.29867 0.87097 0.0
C845 C 0.8953 0.30759 0.88078 0.0
C846 C 0.90714 0.31676 0.90336 0.0
C847 C 0.94896 0.31751 0.91444 0.0
H848 H 0.73761 0.71245 0.60617 0.0
H849 H 0.69655 0.68272 0.66967 0.0
H850 H 0.66588 0.71308 0.5819 0.0
H851 H 0.62607 0.68332 0.64535 0.0
H852 H 0.53455 0.67545 0.56195 0.0
H853 H 0.60581 0.67782 0.58411 0.0
H854 H 0.58145 0.71672 0.60285 0.0
H855 H 0.50894 0.71436 0.58076 0.0
C856 C 0.71334 0.70615 0.61508 0.0
C857 C 0.72287 0.69748 0.63965 0.0
C858 C 0.6724 0.70656 0.60133 0.0
C859 C 0.64078 0.69818 0.61167 0.0
C860 C 0.65006 0.6898 0.63678 0.0
C861 C 0.69048 0.68949 0.65071 0.0
C862 C 0.54422 0.68456 0.57051 0.0
C863 C 0.51587 0.6947 0.56986 0.0
C864 C 0.58508 0.68589 0.58323 0.0
C865 C 0.59886 0.69742 0.59533 0.0
C866 C 0.57143 0.70774 0.59355 0.0
C867 C 0.53002 0.70637 0.58108 0.0
H868 H 0.06969 0.0649 0.7015 0.0
H869 H 0.0054 0.05014 0.61697 0.0
H870 H 0.13852 0.06176 0.67477 0.0
H871 H 0.07452 0.04725 0.5899 0.0
H872 H 0.19473 0.0692 0.54589 0.0
H873 H 0.12624 0.06544 0.5723 0.0
H874 H 0.18952 0.04472 0.64806 0.0
H875 H 0.2585 0.04822 0.62098 0.0
C876 C 0.07036 0.06076 0.67744 0.0
C877 C 0.03223 0.05784 0.6612 0.0
C878 C 0.10976 0.05889 0.66225 0.0
C879 C 0.11176 0.05429 0.63028 0.0
C880 C 0.07376 0.05081 0.61459 0.0
C881 C 0.0343 0.05243 0.63008 0.0
C882 C 0.19397 0.06364 0.56787 0.0
C883 C 0.23188 0.05905 0.58152 0.0
C884 C 0.15474 0.06141 0.58283 0.0
C885 C 0.15263 0.05477 0.61215 0.0
C886 C 0.19038 0.04984 0.62539 0.0
C887 C 0.2297 0.05182 0.60992 0.0
H888 H 0.5115 0.04552 0.1581 0.0
H889 H 0.51699 0.08481 0.13666 0.0
H890 H 0.58732 0.04353 0.14375 0.0
H891 H 0.59087 0.08279 0.12081 0.0
H892 H 0.73 0.08091 0.12479 0.0
H893 H 0.65713 0.0804 0.14455 0.0
H894 H 0.64024 0.04397 0.10138 0.0
H895 H 0.71504 0.04425 0.08341 0.0
C896 C 0.52881 0.05368 0.15006 0.0
C897 C 0.50859 0.06536 0.149 0.0
C898 C 0.57215 0.05255 0.14171 0.0
C899 C 0.59571 0.06305 0.13175 0.0
C900 C 0.57454 0.07457 0.12953 0.0
C901 C 0.53187 0.07573 0.13839 0.0
C902 C 0.71085 0.07273 0.1199 0.0
C903 C 0.72782 0.06269 0.10232 0.0
C904 C 0.66886 0.07246 0.13094 0.0
C905 C 0.64212 0.0623 0.12374 0.0
C906 C 0.65978 0.05195 0.10739 0.0
C907 C 0.70252 0.0521 0.097 0.0
H908 H 0.06402 0.70215 0.02927 0.0
H909 H 0.01022 0.7103 0.12378 0.0
H910 H 0.13573 0.70335 0.05214 0.0
H911 H 0.08226 0.71127 0.14681 0.0
H912 H 0.20757 0.68831 0.17269 0.0
H913 H 0.13627 0.69284 0.15237 0.0
H914 H 0.18956 0.71829 0.08208 0.0
H915 H 0.26145 0.71393 0.10301 0.0
C916 C 0.06758 0.7044 0.05484 0.0
C917 C 0.03156 0.70604 0.07482 0.0
C918 C 0.10863 0.70516 0.06785 0.0
C919 C 0.11447 0.70736 0.10122 0.0
C920 C 0.07854 0.70953 0.12098 0.0
C921 C 0.0374 0.70901 0.10782 0.0
C922 C 0.2041 0.69499 0.15316 0.0
C923 C 0.24006 0.70071 0.13926 0.0
C924 C 0.16324 0.69766 0.14174 0.0
C925 C 0.15743 0.70594 0.11575 0.0
C926 C 0.19326 0.71188 0.1022 0.0
C927 C 0.23426 0.70941 0.11415 0.0
H928 H 0.46067 0.83302 0.88321 0.0
H929 H 0.48056 0.79321 0.88003 0.0
H930 H 0.39008 0.83035 0.86011 0.0
H931 H 0.40873 0.79056 0.85685 0.0
H932 H 0.25427 0.79562 0.85441 0.0
H933 H 0.32756 0.79533 0.87559 0.0
H934 H 0.36429 0.82266 0.80404 0.0
H935 H 0.29202 0.82296 0.7829 0.0
C936 C 0.44994 0.82367 0.87763 0.0
C937 C 0.4763 0.81332 0.88335 0.0
C938 C 0.40951 0.82216 0.86427 0.0
C939 C 0.39411 0.81026 0.85654 0.0
C940 C 0.41995 0.79983 0.86268 0.0
C941 C 0.461 0.80136 0.87573 0.0
C942 C 0.27818 0.80144 0.84301 0.0
C943 C 0.2672 0.80942 0.81724 0.0
C944 C 0.32007 0.80122 0.85501 0.0
C945 C 0.35135 0.80906 0.84159 0.0
C946 C 0.34065 0.81663 0.81505 0.0
C947 C 0.29918 0.81678 0.80296 0.0
H948 H 0.75299 0.46334 0.8483 0.0
H949 H 0.80112 0.44163 0.92862 0.0
H950 H 0.82633 0.46676 0.82933 0.0
H951 H 0.87388 0.44515 0.90998 0.0
H952 H 1.00314 0.45957 0.87846 0.0
H953 H 0.93032 0.46202 0.89959 0.0
H954 H 0.87978 0.45085 0.80632 0.0
H955 H 0.95201 0.44828 0.78543 0.0
C956 C 0.7792 0.4595 0.86218 0.0
C957 C 0.77139 0.45211 0.88969 0.0
C958 C 0.82106 0.46144 0.85133 0.0
C959 C 0.85572 0.45622 0.86823 0.0
C960 C 0.84787 0.4494 0.89669 0.0
C961 C 0.80616 0.44729 0.90716 0.0
C962 C 0.97641 0.45785 0.8624 0.0
C963 C 0.98316 0.45361 0.83045 0.0
C964 C 0.93485 0.45923 0.87447 0.0
C965 C 0.89948 0.45662 0.85456 0.0
C966 C 0.90639 0.45305 0.82211 0.0
C967 C 0.94777 0.45147 0.81026 0.0
H968 H 0.44916 0.44964 0.28168 0.0
H969 H 0.50592 0.46764 0.36511 0.0
H970 H 0.37861 0.4525 0.30529 0.0
H971 H 0.43478 0.47048 0.38896 0.0
H972 H 0.31376 0.45085 0.43522 0.0
H973 H 0.38351 0.45443 0.41091 0.0
H974 H 0.32324 0.46805 0.32353 0.0
H975 H 0.25296 0.46449 0.34802 0.0
C976 C 0.44648 0.45439 0.30488 0.0
C977 C 0.48309 0.4583 0.32172 0.0
C978 C 0.40598 0.45612 0.31827 0.0
C979 C 0.40116 0.46168 0.34901 0.0
C980 C 0.43762 0.4661 0.36528 0.0
C981 C 0.47826 0.46452 0.35161 0.0
C982 C 0.31532 0.4548 0.411 0.0
C983 C 0.27788 0.45726 0.39337 0.0
C984 C 0.35533 0.45695 0.3972 0.0
C985 C 0.35885 0.46149 0.36529 0.0
C986 C 0.32143 0.46448 0.34813 0.0
C987 C 0.28126 0.46247 0.36215 0.0
H988 H 0.76522 0.79196 0.33437 0.0
H989 H 0.8044 0.82438 0.27976 0.0
H990 H 0.83855 0.78965 0.35475 0.0
H991 H 0.87663 0.82209 0.30041 0.0
H992 H 0.95779 0.82522 0.39747 0.0
H993 H 0.88881 0.82327 0.37101 0.0
H994 H 0.92956 0.78918 0.32485 0.0
H995 H 0.99993 0.79119 0.3511 0.0
C996 C 0.78952 0.7984 0.32617 0.0
C997 C 0.77888 0.80845 0.3058 0.0
C998 C 0.83136 0.79704 0.33771 0.0
C999 C 0.86282 0.80572 0.32907 0.0
C1000 C 0.85275 0.81529 0.30729 0.0
C1001 C 0.81133 0.8166 0.29562 0.0
C1002 C 0.95225 0.81726 0.38184 0.0
C1003 C 0.9844 0.80838 0.37627 0.0
C1004 C 0.91275 0.81617 0.36672 0.0
C1005 C 0.90418 0.8061 0.34605 0.0
C1006 C 0.93567 0.797 0.34087 0.0
C1007 C 0.97578 0.79819 0.35571 0.0
H1008 H 0.72653 0.17712 0.16196 0.0
H1009 H 0.75798 0.21078 0.10976 0.0
H1010 H 0.65559 0.17728 0.13818 0.0
H1011 H 0.68598 0.21096 0.08605 0.0
H1012 H 0.53234 0.21072 0.0841 0.0
H1013 H 0.60437 0.21241 0.10732 0.0
H1014 H 0.63056 0.17451 0.0785 0.0
H1015 H 0.55956 0.17282 0.05518 0.0
C1016 C 0.71826 0.1846 0.1455 0.0
C1017 C 0.748 0.19391 0.1376 0.0
C1018 C 0.67762 0.18466 0.13184 0.0
C1019 C 0.66543 0.1941 0.11024 0.0
C1020 C 0.69464 0.20361 0.10279 0.0
C1021 C 0.73581 0.20345 0.11616 0.0
C1022 C 0.5536 0.20278 0.08271 0.0
C1023 C 0.54022 0.19162 0.06795 0.0
C1024 C 0.59479 0.20378 0.09577 0.0
C1025 C 0.62283 0.19357 0.09475 0.0
C1026 C 0.60945 0.18248 0.07981 0.0
C1027 C 0.56878 0.18154 0.06641 0.0
H1028 H 0.25303 0.54374 0.10517 0.0
H1029 H 0.23115 0.58322 0.09374 0.0
H1030 H 0.18163 0.54158 0.12965 0.0
H1031 H 0.16105 0.58105 0.11798 0.0
H1032 H 0.06146 0.57701 0.19347 0.0
H1033 H 0.13484 0.57551 0.17481 0.0
H1034 H 0.10072 0.5451 0.11121 0.0
H1035 H 0.02643 0.54654 0.1301 0.0
C1036 C 0.23314 0.55192 0.10794 0.0
C1037 C 0.24777 0.56365 0.09762 0.0
C1038 C 0.19235 0.55067 0.12178 0.0
C1039 C 0.16609 0.56117 0.12599 0.0
C1040 C 0.18083 0.57283 0.11551 0.0
C1041 C 0.221 0.57404 0.10143 0.0
C1042 C 0.06953 0.56986 0.17586 0.0
C1043 C 0.03797 0.56203 0.16285 0.0
C1044 C 0.11161 0.56902 0.16518 0.0
C1045 C 0.12327 0.56033 0.14121 0.0
C1046 C 0.0925 0.55188 0.12975 0.0
C1047 C 0.05005 0.55273 0.14049 0.0
H1048 H 0.73215 0.54525 0.62112 0.0
H1049 H 0.67208 0.56285 0.53872 0.0
H1050 H 0.66195 0.54274 0.64701 0.0
H1051 H 0.60225 0.56002 0.56403 0.0
H1052 H 0.4793 0.54687 0.61236 0.0
H1053 H 0.54893 0.54259 0.58715 0.0
H1054 H 0.61156 0.56162 0.66633 0.0
H1055 H 0.54234 0.56619 0.69094 0.0
C1056 C 0.70388 0.54823 0.60818 0.0
C1057 C 0.70742 0.55431 0.57807 0.0
C1058 C 0.66386 0.54683 0.62298 0.0
C1059 C 0.6268 0.55117 0.60742 0.0
C1060 C 0.63024 0.55648 0.57637 0.0
C1061 C 0.67019 0.55816 0.562 0.0
C1062 C 0.50804 0.54989 0.62466 0.0
C1063 C 0.50554 0.55694 0.65343 0.0
C1064 C 0.54775 0.54746 0.61024 0.0
C1065 C 0.58549 0.55175 0.6249 0.0
C1066 C 0.58299 0.55809 0.65473 0.0
C1067 C 0.54339 0.56078 0.66867 0.0
H1068 H 0.04254 0.18963 0.54024 0.0
H1069 H 0.00998 0.21907 0.60783 0.0
H1070 H 0.11549 0.18979 0.55993 0.0
H1071 H 0.08417 0.21926 0.62736 0.0
H1072 H 0.24089 0.21901 0.6219 0.0
H1073 H 0.16764 0.22224 0.602 0.0
H1074 H 0.13933 0.1836 0.62044 0.0
H1075 H 0.21129 0.18037 0.6405 0.0
C1076 C 0.05101 0.19627 0.55903 0.0
C1077 C 0.02025 0.20425 0.57274 0.0
C1078 C 0.09286 0.19634 0.57026 0.0
C1079 C 0.10519 0.20446 0.59526 0.0
C1080 C 0.07528 0.21293 0.60796 0.0
C1081 C 0.03294 0.21278 0.59688 0.0
C1082 C 0.21883 0.21126 0.62188 0.0
C1083 C 0.23194 0.19943 0.63259 0.0
C1084 C 0.17703 0.21313 0.61068 0.0
C1085 C 0.14818 0.20313 0.60957 0.0
C1086 C 0.16114 0.19142 0.62084 0.0
C1087 C 0.20237 0.1896 0.63238 0.0
H1088 H 0.95756 0.23712 0.17411 0.0
H1089 H 0.06096 0.21661 0.21809 0.0
H1090 H 0.98207 0.25606 0.20104 0.0
H1091 H 0.08452 0.23537 0.24586 0.0
H1092 H 0.13454 0.27445 0.27124 0.0
H1093 H 0.11518 0.25549 0.2422 0.0
H1094 H 0.98172 0.26437 0.25495 0.0
H1095 H 1.00117 0.28352 0.28303 0.0
C1096 C 0.98593 0.23669 0.18907 0.0
C1097 C 0.00718 0.22532 0.19396 0.0
C1098 C 0.99963 0.24751 0.20496 0.0
C1099 C 0.03477 0.24722 0.22627 0.0
C1100 C 0.05744 0.236 0.22963 0.0
C1101 C 0.0439 0.2252 0.2136 0.0
C1102 C 0.10104 0.27224 0.2684 0.0
C1103 C 0.06941 0.28053 0.27946 0.0
C1104 C 0.08991 0.26136 0.2516 0.0
C1105 C 0.04684 0.25847 0.24562 0.0
C1106 C 0.01522 0.26645 0.25823 0.0
C1107 C 0.02636 0.27736 0.27481 0.0
H1108 H 0.28901 0.9698 0.2626 0.0
H1109 H 0.17208 0.98713 0.2952 0.0
H1110 H 0.30866 0.98873 0.2342 0.0
H1111 H 0.19269 0.00636 0.26804 0.0
H1112 H 0.21283 0.03334 0.1859 0.0
H1113 H 0.19681 0.01407 0.21447 0.0
H1114 H 0.33067 0.00953 0.23679 0.0
H1115 H 0.34671 0.0285 0.20688 0.0
C1116 C 0.26802 0.97778 0.26451 0.0
C1117 C 0.22882 0.97693 0.28104 0.0
C1118 C 0.27933 0.98868 0.24814 0.0
C1119 C 0.25196 0.99906 0.24824 0.0
C1120 C 0.214 0.99844 0.26656 0.0
C1121 C 0.20242 0.98748 0.28259 0.0
C1122 C 0.2389 0.02808 0.19636 0.0
C1123 C 0.28102 0.03241 0.19404 0.0
C1124 C 0.22968 0.01712 0.21321 0.0
C1125 C 0.2623 0.01033 0.22861 0.0
C1126 C 0.30469 0.01444 0.22514 0.0
C1127 C 0.31396 0.02531 0.20786 0.0
H1128 H 0.89659 0.02337 0.02741 0.0
H1129 H 0.02944 0.0333 0.0363 0.0
H1130 H 0.9164 1.00464 -0.00242 0.0
H1131 H 0.04963 0.01426 0.00795 0.0
H1132 H 0.07481 0.98619 0.92915 0.0
H1133 H 0.05079 1.00521 0.95605 0.0
H1134 H 0.94653 0.98489 -0.0001 0.0
H1135 H 0.96926 0.96616 0.97173 0.0
C1136 C 0.93013 0.02138 0.02374 0.0
C1137 C 0.96144 0.02981 0.03427 0.0
C1138 C 0.94158 0.01062 0.00654 0.0
C1139 C 0.98471 0.00793 -0.00014 0.0
C1140 C 0.01605 0.01614 0.01172 0.0
C1141 C 1.00454 0.02699 0.02846 0.0
C1142 C 0.04624 0.98588 0.94398 0.0
C1143 C 0.02398 0.97466 0.94823 0.0
C1144 C 0.03275 0.99675 0.95984 0.0
C1145 C 0.99704 0.99662 0.98075 0.0
C1146 C 0.97388 0.98547 0.98386 0.0
C1147 C 0.987 0.97467 0.96765 0.0
H1148 H 0.3729 0.23444 0.01405 0.0
H1149 H 0.241 0.22443 0.0289 0.0
H1150 H 0.3508 0.25355 -0.01273 0.0
H1151 H 0.21865 0.24385 0.00363 0.0
H1152 H 0.18833 0.27126 0.92456 0.0
H1153 H 0.21414 0.25251 0.95143 0.0
H1154 H 0.32046 0.27329 -0.00937 0.0
H1155 H 0.29586 0.29176 0.96241 0.0
C1156 C 0.33915 0.23654 0.0126 0.0
C1157 C 0.30868 0.22792 0.02353 0.0
C1158 C 0.32639 0.2475 -0.00292 0.0
C1159 C 0.28282 0.25019 -0.00741 0.0
C1160 C 0.25245 0.24193 0.00562 0.0
C1161 C 0.26523 0.23088 0.02064 0.0
C1162 C 0.2177 0.27173 0.93836 0.0
C1163 C 0.24005 0.28299 0.94126 0.0
C1164 C 0.2322 0.26103 0.95424 0.0
C1165 C 0.26903 0.26138 0.97385 0.0
C1166 C 0.29221 0.27257 0.97564 0.0
C1167 C 0.27807 0.2832 0.95936 0.0
H1168 H 0.03259 0.71503 0.71542 0.0
H1169 H 0.9283 0.73568 0.6731 0.0
H1170 H 0.05425 0.73339 0.74577 0.0
H1171 H 0.95106 0.75425 0.70246 0.0
H1172 H 0.96768 0.78105 0.78527 0.0
H1173 H 0.94953 0.76189 0.75667 0.0
H1174 H 0.08362 0.75355 0.74515 0.0
H1175 H 0.10158 0.77243 0.77486 0.0
C1176 C 0.01498 0.7236 0.71182 0.0
C1177 C 0.97854 0.72385 0.69189 0.0
C1178 C 0.0274 0.73416 0.72936 0.0
C1179 C 1.00395 0.74529 0.72719 0.0
C1180 C 0.96915 0.74575 0.70557 0.0
C1181 C 0.95648 0.73515 0.68825 0.0
C1182 C 0.99325 0.77495 0.77737 0.0
C1183 C 0.03606 0.77828 0.78239 0.0
C1184 C 0.98288 0.76406 0.76044 0.0
C1185 C 0.01508 0.75628 0.74778 0.0
C1186 C 0.05789 0.75926 0.75453 0.0
C1187 C 0.06824 0.77009 0.77177 0.0
H1188 H 0.69571 0.98878 0.80043 0.0
H1189 H 0.80303 0.9693 0.75822 0.0
H1190 H 0.72027 0.00809 0.77561 0.0
H1191 H 0.82662 0.98842 0.73242 0.0
H1192 H 0.87571 0.02794 0.71196 0.0
H1193 H 0.85576 0.00856 0.73849 0.0
H1194 H 0.72264 0.0171 0.72282 0.0
H1195 H 0.74265 0.0367 0.69737 0.0
C1196 C 0.72489 0.98865 0.78627 0.0
C1197 C 0.74732 0.97748 0.78132 0.0
C1198 C 0.73865 0.99969 0.77158 0.0
C1199 C 0.775 0.99981 0.75136 0.0
C1200 C 0.79863 0.98875 0.74786 0.0
C1201 C 0.78506 0.97775 0.76276 0.0
C1202 C 0.8422 0.02557 0.71361 0.0
C1203 C 0.81077 0.03389 0.70258 0.0
C1204 C 0.83071 0.01445 0.72896 0.0
C1205 C 0.7875 0.01132 0.73341 0.0
C1206 C 0.75619 0.01935 0.72073 0.0
C1207 C 0.76767 0.03052 0.70565 0.0
H1208 H 0.77904 0.79628 -0.0115 0.0
H1209 H 0.67856 0.77431 0.94534 0.0
H1210 H 0.80319 0.77822 0.01891 0.0
H1211 H 0.70377 0.75605 0.97477 0.0
H1212 H 0.73038 0.72793 0.05206 0.0
H1213 H 0.70624 0.74735 0.02771 0.0
H1214 H 0.83736 0.75878 0.0149 0.0
H1215 H 0.86127 0.73962 0.04037 0.0
C1216 C 0.76256 0.78752 -0.015 0.0
C1217 C 0.72686 0.78675 0.96441 0.0
C1218 C 0.77645 0.77714 0.0025 0.0
C1219 C 0.75526 0.76565 -0.00033 0.0
C1220 C 0.7203 0.7648 0.97826 0.0
C1221 C 0.70614 0.77523 0.96098 0.0
C1222 C 0.754 0.73475 0.04486 0.0
C1223 C 0.79776 0.73219 0.04813 0.0
C1224 C 0.74019 0.74582 0.03039 0.0
C1225 C 0.7698 0.75456 0.01855 0.0
C1226 C 0.81351 0.75234 0.02377 0.0
C1227 C 0.8273 0.74132 0.03854 0.0
H1228 H 0.35389 0.52718 0.71354 0.0
H1229 H 0.21947 0.53368 0.69827 0.0
H1230 H 0.33735 0.50829 0.74365 0.0
H1231 H 0.20285 0.51452 0.72715 0.0
H1232 H 0.17952 0.48788 0.80823 0.0
H1233 H 0.20203 0.50696 0.78126 0.0
H1234 H 0.31169 0.48772 0.74167 0.0
H1235 H 0.29023 0.46888 0.76975 0.0
C1236 C 0.32083 0.52438 0.71577 0.0
C1237 C 0.28797 0.53194 0.70356 0.0
C1238 C 0.3113 0.51355 0.7332 0.0
C1239 C 0.26867 0.50997 0.73849 0.0
C1240 C 0.23599 0.51718 0.72452 0.0
C1241 C 0.24551 0.52806 0.70745 0.0
C1242 C 0.20905 0.48782 0.79451 0.0
C1243 C 0.23291 0.47683 0.79105 0.0
C1244 C 0.22163 0.49871 0.77856 0.0
C1245 C 0.25812 0.49882 0.7585 0.0
C1246 C 0.28347 0.48804 0.75687 0.0
C1247 C 0.27115 0.4772 0.7731 0.0
H1248 H 0.97381 0.47331 0.42917 0.0
H1249 H 0.10313 0.48621 0.44175 0.0
H1250 H 0.94729 0.49209 0.45573 0.0
H1251 H 0.07702 0.50463 0.46973 0.0
H1252 H 0.01501 0.54136 0.49831 0.0
H1253 H 0.04212 0.52363 0.46804 0.0
H1254 H 0.94181 0.50066 0.50812 0.0
H1255 H 0.91334 0.51868 0.53712 0.0
C1256 C 0.99656 0.48025 0.43715 0.0
C1257 C 0.04057 0.47827 0.43323 0.0
C1258 C 0.98141 0.49094 0.45293 0.0
C1259 C 0.00993 0.49983 0.46565 0.0
C1260 C 0.0539 0.49811 0.46016 0.0
C1261 C 0.06898 0.48751 0.44394 0.0
C1262 C 0.99904 0.53248 0.50108 0.0
C1263 C 0.96197 0.53145 0.52021 0.0
C1264 C 0.01465 0.52227 0.48362 0.0
C1265 C 0.99401 0.51066 0.48516 0.0
C1266 C 0.95798 0.5095 0.50552 0.0
C1267 C 0.94197 0.51979 0.52263 0.0
H1268 H 0.35596 0.7322 0.51161 0.0
H1269 H 0.22101 0.72545 0.52328 0.0
H1270 H 0.34033 0.75102 0.48075 0.0
H1271 H 0.20533 0.74445 0.49345 0.0
H1272 H 0.18551 0.77063 0.41107 0.0
H1273 H 0.20811 0.75166 0.43852 0.0
H1274 H 0.31269 0.77166 0.48271 0.0
H1275 H 0.29109 0.79045 0.45435 0.0
C1276 C 0.32296 0.73492 0.50835 0.0
C1277 C 0.28971 0.72732 0.51982 0.0
C1278 C 0.31398 0.74568 0.4905 0.0
C1279 C 0.27154 0.74913 0.48395 0.0
C1280 C 0.23838 0.74188 0.4971 0.0
C1281 C 0.24735 0.73108 0.51467 0.0
C1282 C 0.214 0.77089 0.42592 0.0
C1283 C 0.23626 0.78209 0.43067 0.0
C1284 C 0.2266 0.76006 0.4421 0.0
C1285 C 0.26156 0.7602 0.46357 0.0
C1286 C 0.28562 0.77118 0.46643 0.0
C1287 C 0.27321 0.78199 0.45006 0.0
H1288 H 0.7924 0.46981 0.2535 0.0
H1289 H 0.68144 0.49019 0.28621 0.0
H1290 H 0.81798 0.48821 0.22519 0.0
H1291 H 0.7078 0.50877 0.25885 0.0
H1292 H 0.73655 0.53523 0.17704 0.0
H1293 H 0.71476 0.51622 0.20459 0.0
H1294 H 0.84623 0.50863 0.22908 0.0
H1295 H 0.86808 0.52743 0.20051 0.0
C1296 C 0.77396 0.47832 0.25538 0.0
C1297 C 0.73472 0.47849 0.27205 0.0
C1298 C 0.78867 0.4889 0.23905 0.0
C1299 C 0.76465 0.49996 0.23915 0.0
C1300 C 0.7266 0.50033 0.25743 0.0
C1301 C 0.71174 0.48971 0.27356 0.0
C1302 C 0.76091 0.52937 0.18771 0.0
C1303 C 0.80406 0.53286 0.18654 0.0
C1304 C 0.74835 0.51855 0.20398 0.0
C1305 C 0.77858 0.51099 0.21977 0.0
C1306 C 0.82201 0.51417 0.21718 0.0
C1307 C 0.8346 0.52495 0.20065 0.0
H1308 H 0.81601 0.23991 0.5467 0.0
H1309 H 0.70719 0.22026 0.50785 0.0
H1310 H 0.79457 0.25854 0.51717 0.0
H1311 H 0.68676 0.23865 0.4773 0.0
H1312 H 0.64284 0.27795 0.44832 0.0
H1313 H 0.65999 0.25909 0.4782 0.0
H1314 H 0.79436 0.26598 0.46292 0.0
H1315 H 0.7771 0.28514 0.43417 0.0
C1316 C 0.78716 0.23962 0.53225 0.0
C1317 C 0.76335 0.22859 0.5297 0.0
C1318 C 0.77521 0.25024 0.51484 0.0
C1319 C 0.73939 0.25007 0.49418 0.0
C1320 C 0.71441 0.23921 0.49299 0.0
C1321 C 0.72612 0.22863 0.51064 0.0
C1322 C 0.67604 0.27531 0.45071 0.0
C1323 C 0.70861 0.28309 0.43893 0.0
C1324 C 0.68593 0.26448 0.468 0.0
C1325 C 0.72865 0.26109 0.47365 0.0
C1326 C 0.76112 0.26848 0.45997 0.0
C1327 C 0.75124 0.27937 0.44298 0.0
H1328 H 0.45881 0.29167 0.75295 0.0
H1329 H 0.56379 0.27051 0.79254 0.0
H1330 H 0.43745 0.27381 0.7205 0.0
H1331 H 0.54144 0.25244 0.76092 0.0
H1332 H 0.52711 0.22801 0.67287 0.0
H1333 H 0.54374 0.24649 0.70481 0.0
H1334 H 0.4091 0.25328 0.71911 0.0
H1335 H 0.39252 0.23503 0.68621 0.0
C1336 C 0.47666 0.28309 0.75546 0.0
C1337 C 0.51326 0.28256 0.77518 0.0
C1338 C 0.4644 0.27283 0.73674 0.0
C1339 C 0.48825 0.26175 0.73749 0.0
C1340 C 0.52309 0.26095 0.75898 0.0
C1341 C 0.53554 0.27125 0.77754 0.0
C1342 C 0.50105 0.23362 0.68219 0.0
C1343 C 0.45851 0.23004 0.67702 0.0
C1344 C 0.51057 0.2441 0.70097 0.0
C1345 C 0.47779 0.25121 0.71528 0.0
C1346 C 0.43518 0.24804 0.7085 0.0
C1347 C 0.42565 0.2376 0.68945 0.0
H1348 H 0.43323 0.02253 0.52908 0.0
H1349 H 0.53422 0.04456 0.4867 0.0
H1350 H 0.45903 1.00429 0.49959 0.0
H1351 H 0.55884 0.02654 0.45622 0.0
H1352 H 0.61535 0.98808 0.43143 0.0
H1353 H 0.59235 0.007 0.45881 0.0
H1354 H 0.46071 0.99615 0.44582 0.0
H1355 H 0.48394 0.97694 0.41959 0.0
C1356 C 0.46118 0.02345 0.51374 0.0
C1357 C 0.48166 0.035 0.51032 0.0
C1358 C 0.47562 0.01304 0.4964 0.0
C1359 C 0.51061 0.01396 0.47496 0.0
C1360 C 0.532 0.02542 0.47257 0.0
C1361 C 0.51785 0.03578 0.49014 0.0
C1362 C 0.58146 0.98988 0.43364 0.0
C1363 C 0.55148 0.98097 0.42346 0.0
C1364 C 0.56821 1.00074 0.44953 0.0
C1365 C 0.52462 1.00302 0.45525 0.0
C1366 C 0.49458 0.99453 0.4428 0.0
C1367 C 0.50786 0.9836 0.42724 0.0
H1368 H 0.61338 0.77756 0.26838 0.0
H1369 H 0.48049 0.78501 0.28844 0.0
H1370 H 0.59383 0.75835 0.24075 0.0
H1371 H 0.46094 0.76555 0.26186 0.0
H1372 H 0.43361 0.73832 0.18089 0.0
H1373 H 0.45687 0.75736 0.208 0.0
H1374 H 0.56682 0.73793 0.2459 0.0
H1375 H 0.54449 0.71912 0.21783 0.0
C1376 C 0.58005 0.77493 0.2677 0.0
C1377 C 0.54848 0.78284 0.28054 0.0
C1378 C 0.56879 0.7639 0.25174 0.0
C1379 C 0.52569 0.76047 0.2485 0.0
C1380 C 0.49434 0.76806 0.26303 0.0
C1381 C 0.50559 0.77913 0.27872 0.0
C1382 C 0.46319 0.7382 0.19447 0.0
C1383 C 0.48714 0.7272 0.19718 0.0
C1384 C 0.47624 0.74906 0.21044 0.0
C1385 C 0.51336 0.74915 0.2297 0.0
C1386 C 0.53822 0.73827 0.2312 0.0
C1387 C 0.52537 0.72745 0.21503 0.0
H1388 H 0.47768 0.47714 0.9293 0.0
H1389 H 0.61254 0.48436 0.93922 0.0
H1390 H 0.4618 0.4963 0.95873 0.0
H1391 H 0.5968 0.50326 0.96973 0.0
H1392 H 0.55035 0.54205 0.00096 0.0
H1393 H 0.56923 0.52372 0.96933 0.0
H1394 H 0.46498 0.50353 0.01348 0.0
H1395 H 0.44502 0.52209 0.04421 0.0
C1396 C 0.50394 0.48293 0.93732 0.0
C1397 C 0.54635 0.47922 0.93193 0.0
C1398 C 0.49487 0.49382 0.95467 0.0
C1399 C 0.528 0.5012 0.96735 0.0
C1400 C 0.57043 0.49785 0.96031 0.0
C1401 C 0.57949 0.48701 0.94266 0.0
C1402 C 0.53184 0.53364 0.00438 0.0
C1403 C 0.49602 0.53355 0.02505 0.0
C1404 C 0.54269 0.5231 -0.01386 0.0
C1405 C 0.51822 0.51218 -0.01166 0.0
C1406 C 0.48384 0.51189 0.01044 0.0
C1407 C 0.47275 0.52247 0.02848 0.0
H1408 H 0.07336 0.31657 0.18947 0.0
H1409 H 0.20362 0.32954 0.19268 0.0
H1410 H 0.07375 0.31826 0.13052 0.0
H1411 H 0.2034 0.33204 0.13379 0.0
H1412 H 0.20806 0.31718 0.02973 0.0
H1413 H 0.20655 0.31904 0.08854 0.0
H1414 H 0.07457 0.3308 0.08425 0.0
H1415 H 0.07564 0.32817 0.02531 0.0
C1416 C 0.10175 0.32006 0.17751 0.0
C1417 C 0.13862 0.32279 0.19539 0.0
C1418 C 0.10193 0.32113 0.14373 0.0
C1419 C 0.13874 0.32521 0.12729 0.0
C1420 C 0.17488 0.32856 0.14555 0.0
C1421 C 0.17499 0.32721 0.17926 0.0
C1422 C 0.17886 0.32027 0.04139 0.0
C1423 C 0.14187 0.32244 0.02314 0.0
C1424 C 0.17803 0.32143 0.07512 0.0
C1425 C 0.14039 0.32506 0.09125 0.0
C1426 C 0.10384 0.32773 0.07271 0.0
C1427 C 0.10445 0.3263 0.03898 0.0
H1428 H 0.06285 0.94 0.03532 0.0
H1429 H 0.19317 0.92731 0.02616 0.0
H1430 H 0.06775 0.9385 0.09396 0.0
H1431 H 0.19755 0.92515 0.08516 0.0
H1432 H 0.20603 0.94073 0.18961 0.0
H1433 H 0.20241 0.93833 0.13085 0.0
H1434 H 0.07206 0.9255 0.13936 0.0
H1435 H 0.07514 0.92861 0.19802 0.0
C1436 C 0.09231 0.93663 0.04587 0.0
C1437 C 0.12775 0.93386 0.02624 0.0
C1438 C 0.09505 0.93566 0.07955 0.0
C1439 C 0.13307 0.93169 0.09436 0.0
C1440 C 0.16804 0.92845 0.07457 0.0
C1441 C 0.16551 0.92963 0.04081 0.0
C1442 C 0.17678 0.93728 0.17887 0.0
C1443 C 0.14067 0.93501 0.19817 0.0
C1444 C 0.17476 0.93581 0.14521 0.0
C1445 C 0.13681 0.93181 0.1303 0.0
C1446 C 0.10145 0.92889 0.14995 0.0
C1447 C 0.10321 0.93061 0.18354 0.0
H1448 H 0.93477 0.68993 0.78305 0.0
H1449 H 0.80742 0.70514 0.77501 0.0
H1450 H 0.93254 0.69298 0.8416 0.0
H1451 H 0.80553 0.70832 0.83393 0.0
H1452 H 0.80551 0.69462 0.94242 0.0
H1453 H 0.80441 0.6945 0.88312 0.0
H1454 H 0.93081 0.71046 0.88136 0.0
H1455 H 0.93234 0.71046 0.94061 0.0
C1456 C 0.90633 0.69396 0.79377 0.0
C1457 C 0.87119 0.69725 0.77448 0.0
C1458 C 0.90525 0.69581 0.82726 0.0
C1459 C 0.86899 0.70096 0.84214 0.0
C1460 C 0.83379 0.70428 0.82295 0.0
C1461 C 0.83494 0.70249 0.78932 0.0
C1462 C 0.8329 0.69822 0.92939 0.0
C1463 C 0.86925 0.70239 0.94613 0.0
C1464 C 0.83211 0.69822 0.89548 0.0
C1465 C 0.86768 0.70236 0.8778 0.0
C1466 C 0.90325 0.70704 0.89452 0.0
C1467 C 0.90403 0.70707 0.92839 0.0
H1468 H 0.94117 0.06636 0.80096 0.0
H1469 H 0.81198 0.08022 0.79377 0.0
H1470 H 0.93772 0.06826 0.85978 0.0
H1471 H 0.80895 0.08239 0.85287 0.0
H1472 H 0.80778 0.0672 0.95976 0.0
H1473 H 0.8071 0.06869 0.90051 0.0
H1474 H 0.93459 0.08395 0.90224 0.0
H1475 H 0.93575 0.08215 0.9612 0.0
C1476 C 0.91216 0.06992 0.81191 0.0
C1477 C 0.87683 0.07311 0.79273 0.0
C1478 C 0.9103 0.07111 0.84562 0.0
C1479 C 0.87315 0.07557 0.86088 0.0
C1480 C 0.83788 0.07886 0.84173 0.0
C1481 C 0.8397 0.07765 0.80793 0.0
C1482 C 0.83535 0.07106 0.94748 0.0
C1483 C 0.87207 0.07436 0.965 0.0
C1484 C 0.83491 0.07195 0.91359 0.0
C1485 C 0.87108 0.07625 0.89678 0.0
C1486 C 0.90666 0.08032 0.91453 0.0
C1487 C 0.90722 0.07934 0.94829 0.0
H1488 H 0.16951 0.80038 0.6881 0.0
H1489 H 0.0465 0.81854 0.68278 0.0
H1490 H 0.1723 0.79934 0.62901 0.0
H1491 H 0.04979 0.81765 0.62348 0.0
H1492 H 0.05701 0.80405 0.51747 0.0
H1493 H 0.05059 0.80276 0.57664 0.0
H1494 H 0.18079 0.81534 0.58657 0.0
H1495 H 0.18755 0.81646 0.52779 0.0
C1496 C 0.14302 0.80413 0.67433 0.0
C1497 C 0.10798 0.80967 0.69004 0.0
C1498 C 0.14471 0.80355 0.64053 0.0
C1499 C 0.11144 0.80851 0.62179 0.0
C1500 C 0.07572 0.81368 0.63743 0.0
C1501 C 0.07399 0.81426 0.67132 0.0
C1502 C 0.08429 0.80648 0.53232 0.0
C1503 C 0.12278 0.81036 0.51802 0.0
C1504 C 0.08051 0.80579 0.56612 0.0
C1505 C 0.11524 0.8089 0.58605 0.0
C1506 C 0.15373 0.8127 0.57172 0.0
C1507 C 0.15747 0.81343 0.53806 0.0
H1508 H 0.19868 0.44143 0.69183 0.0
H1509 H 0.07026 0.45606 0.69749 0.0
H1510 H 0.19572 0.44246 0.63272 0.0
H1511 H 0.06766 0.45721 0.63824 0.0
H1512 H 0.06442 0.44072 0.5337 0.0
H1513 H 0.06646 0.44164 0.59294 0.0
H1514 H 0.19172 0.4583 0.58872 0.0
H1515 H 0.1901 0.45726 0.52952 0.0
C1516 C 0.16994 0.44494 0.68047 0.0
C1517 C 0.13462 0.44861 0.69924 0.0
C1518 C 0.16838 0.4456 0.64667 0.0
C1519 C 0.13146 0.44991 0.63105 0.0
C1520 C 0.09634 0.45374 0.64978 0.0
C1521 C 0.09794 0.45313 0.68363 0.0
C1522 C 0.09232 0.44462 0.5454 0.0
C1523 C 0.12723 0.44883 0.52701 0.0
C1524 C 0.09333 0.44522 0.57926 0.0
C1525 C 0.12929 0.45001 0.59526 0.0
C1526 C 0.16384 0.45444 0.57689 0.0
C1527 C 0.1628 0.45387 0.54305 0.0
H1528 H 0.95296 0.1932 0.28799 0.0
H1529 H 0.81986 0.20248 0.27448 0.0
H1530 H 0.94394 0.19478 0.34657 0.0
H1531 H 0.81112 0.20424 0.33341 0.0
H1532 H 0.80651 0.18898 0.43941 0.0
H1533 H 0.81276 0.18947 0.3803 0.0
H1534 H 0.92914 0.21075 0.38859 0.0
H1535 H 0.92342 0.21012 0.44766 0.0
C1536 C 0.92184 0.19565 0.29751 0.0
C1537 C 0.88706 0.19766 0.27667 0.0
C1538 C 0.91678 0.19665 0.33104 0.0
C1539 C 0.87687 0.19966 0.3444 0.0
C1540 C 0.84214 0.20181 0.32363 0.0
C1541 C 0.84722 0.20085 0.28999 0.0
C1542 C 0.83334 0.1938 0.42863 0.0
C1543 C 0.86469 0.19941 0.44815 0.0
C1544 C 0.83671 0.19416 0.39482 0.0
C1545 C 0.87149 0.20011 0.38001 0.0
C1546 C 0.90229 0.20597 0.39949 0.0
C1547 C 0.89891 0.20563 0.43326 0.0
H1548 H 0.92228 0.56682 0.43851 0.0
H1549 H 0.78778 0.57549 0.44332 0.0
H1550 H 0.92177 0.57021 0.38038 0.0
H1551 H 0.78757 0.57953 0.3848 0.0
H1552 H 0.79639 0.56804 0.27591 0.0
H1553 H 0.79196 0.56847 0.33506 0.0
H1554 H 0.91739 0.58518 0.33938 0.0
H1555 H 0.92262 0.58401 0.28033 0.0
C1556 C 0.89269 0.56967 0.42714 0.0
C1557 C 0.85503 0.57087 0.44537 0.0
C1558 C 0.89246 0.57174 0.39378 0.0
C1559 C 0.85471 0.57527 0.37788 0.0
C1560 C 0.81709 0.57669 0.39625 0.0
C1561 C 0.81719 0.57441 0.42972 0.0
C1562 C 0.8227 0.57196 0.28959 0.0
C1563 C 0.86012 0.57581 0.2738 0.0
C1564 C 0.8201 0.57228 0.32347 0.0
C1565 C 0.85461 0.57668 0.34202 0.0
C1566 C 0.89075 0.58139 0.32588 0.0
C1567 C 0.8937 0.5808 0.2921 0.0
H1568 H 0.70899 0.31715 0.53399 0.0
H1569 H 0.57651 0.3281 0.53081 0.0
H1570 H 0.7067 0.31745 0.5934 0.0
H1571 H 0.57467 0.32913 0.58988 0.0
H1572 H 0.56655 0.31245 0.68976 0.0
H1573 H 0.57318 0.31423 0.63132 0.0
H1574 H 0.70042 0.32919 0.64252 0.0
H1575 H 0.69435 0.3268 0.70156 0.0
C1576 C 0.67969 0.31987 0.54609 0.0
C1577 C 0.64273 0.32241 0.52808 0.0
C1578 C 0.6784 0.32012 0.58005 0.0
C1579 C 0.6403 0.32312 0.59639 0.0
C1580 C 0.60416 0.3264 0.57809 0.0
C1581 C 0.60521 0.32589 0.54428 0.0
C1582 C 0.5959 0.31618 0.67979 0.0
C1583 C 0.62987 0.31956 0.70012 0.0
C1584 C 0.59961 0.31729 0.64625 0.0
C1585 C 0.63709 0.32205 0.63222 0.0
C1586 C 0.67123 0.32542 0.65258 0.0
C1587 C 0.66775 0.3241 0.68631 0.0
H1588 H 0.68704 0.96052 0.52526 0.0
H1589 H 0.5655 0.9415 0.5279 0.0
H1590 H 0.68825 0.961 0.58444 0.0
H1591 H 0.56722 0.94182 0.58723 0.0
H1592 H 0.57049 0.95421 0.69418 0.0
H1593 H 0.56551 0.95613 0.63508 0.0
H1594 H 0.69712 0.94466 0.6259 0.0
H1595 H 0.70243 0.94292 0.68466 0.0
C1596 C 0.66051 0.95648 0.53845 0.0
C1597 C 0.62637 0.95085 0.52196 0.0
C1598 C 0.66131 0.95673 0.57231 0.0
C1599 C 0.62803 0.95135 0.59031 0.0
C1600 C 0.59314 0.94611 0.57388 0.0
C1601 C 0.59231 0.94586 0.53995 0.0
C1602 C 0.59837 0.95214 0.67951 0.0
C1603 C 0.63684 0.9484 0.69403 0.0
C1604 C 0.59544 0.9532 0.64575 0.0
C1605 C 0.63098 0.95059 0.62605 0.0
C1606 C 0.66942 0.94691 0.64059 0.0
C1607 C 0.67234 0.94582 0.67423 0.0
H1608 H 0.42343 0.67416 0.44357 0.0
H1609 H 0.29487 0.68822 0.43402 0.0
H1610 H 0.42856 0.67217 0.38461 0.0
H1611 H 0.30062 0.68683 0.37521 0.0
H1612 H 0.31442 0.67878 0.26899 0.0
H1613 H 0.30666 0.67476 0.32712 0.0
H1614 H 0.43663 0.68688 0.34254 0.0
H1615 H 0.44483 0.69034 0.28466 0.0
C1616 C 0.39621 0.67675 0.42884 0.0
C1617 C 0.35898 0.68149 0.44325 0.0
C1618 C 0.39918 0.67567 0.39511 0.0
C1619 C 0.36527 0.67953 0.37517 0.0
C1620 C 0.3272 0.68364 0.38979 0.0
C1621 C 0.32398 0.68452 0.42353 0.0
C1622 C 0.34136 0.68047 0.28487 0.0
C1623 C 0.38012 0.68494 0.27239 0.0
C1624 C 0.33692 0.67819 0.31813 0.0
C1625 C 0.371 0.6805 0.3395 0.0
C1626 C 0.40999 0.68474 0.32676 0.0
C1627 C 0.41458 0.68685 0.29356 0.0
H1628 H 0.42935 0.0709 0.42833 0.0
H1629 H 0.29709 0.08043 0.44483 0.0
H1630 H 0.42071 0.07469 0.37076 0.0
H1631 H 0.28873 0.08481 0.38686 0.0
H1632 H 0.28084 0.07195 0.27883 0.0
H1633 H 0.28502 0.07333 0.33771 0.0
H1634 H 0.41074 0.08963 0.32975 0.0
H1635 H 0.40732 0.0876 0.27074 0.0
C1636 C 0.39852 0.07401 0.41968 0.0
C1637 C 0.36379 0.07528 0.44102 0.0
C1638 C 0.39366 0.07633 0.38663 0.0
C1639 C 0.35408 0.08015 0.37414 0.0
C1640 C 0.31952 0.08175 0.39566 0.0
C1641 C 0.32427 0.07925 0.42881 0.0
C1642 C 0.30906 0.07603 0.28966 0.0
C1643 C 0.3441 0.07946 0.27034 0.0
C1644 C 0.31137 0.0769 0.32345 0.0
C1645 C 0.34852 0.08139 0.3385 0.0
C1646 C 0.38214 0.08579 0.31894 0.0
C1647 C 0.38014 0.0847 0.28517 0.0
H1648 H 0.66548 0.83929 0.02705 0.0
H1649 H 0.54842 0.81807 0.02527 0.0
H1650 H 0.65997 0.84118 0.08591 0.0
H1651 H 0.54356 0.81968 0.08443 0.0
H1652 H 0.54054 0.82921 0.19275 0.0
H1653 H 0.53683 0.83285 0.13406 0.0
H1654 H 0.67143 0.8247 0.12576 0.0
H1655 H 0.67539 0.82129 0.18389 0.0
C1656 C 0.63827 0.83517 0.03923 0.0
C1657 C 0.60784 0.82832 0.02176 0.0
C1658 C 0.63518 0.83624 0.07289 0.0
C1659 C 0.60185 0.83035 0.08972 0.0
C1660 C 0.56954 0.82433 0.07203 0.0
C1661 C 0.57243 0.82336 0.03821 0.0
C1662 C 0.56935 0.82831 0.17835 0.0
C1663 C 0.60823 0.82493 0.19289 0.0
C1664 C 0.56717 0.83037 0.14483 0.0
C1665 C 0.60388 0.82916 0.12546 0.0
C1666 C 0.64277 0.82596 0.14016 0.0
C1667 C 0.64493 0.82388 0.17347 0.0
H1668 H 0.68588 0.44578 0.01966 0.0
H1669 H 0.55204 0.43612 0.02398 0.0
H1670 H 0.6886 0.44629 0.07872 0.0
H1671 H 0.55515 0.43639 0.08328 0.0
H1672 H 0.56818 0.45434 0.18506 0.0
H1673 H 0.56413 0.45232 0.12605 0.0
H1674 H 0.68384 0.43235 0.12554 0.0
H1675 H 0.68847 0.43457 0.18434 0.0
C1676 C 0.65712 0.44363 0.03321 0.0
C1677 C 0.61868 0.44095 0.01718 0.0
C1678 C 0.65879 0.44386 0.06704 0.0
C1679 C 0.62208 0.44139 0.08551 0.0
C1680 C 0.58379 0.43848 0.06955 0.0
C1681 C 0.58209 0.43825 0.03565 0.0
C1682 C 0.59362 0.44951 0.17234 0.0
C1683 C 0.62878 0.44468 0.18928 0.0
C1684 C 0.5911 0.44828 0.13863 0.0
C1685 C 0.62369 0.44219 0.12131 0.0
C1686 C 0.65855 0.43723 0.13829 0.0
C1687 C 0.66112 0.43847 0.17195 0.0
H1688 H 0.45835 0.19284 0.7635 0.0
H1689 H 0.32578 0.18185 0.76198 0.0
H1690 H 0.45805 0.19207 0.82251 0.0
H1691 H 0.32594 0.18047 0.82118 0.0
H1692 H 0.32626 0.19581 0.92473 0.0
H1693 H 0.32704 0.19441 0.8657 0.0
H1694 H 0.45492 0.17929 0.86894 0.0
H1695 H 0.45476 0.18129 0.928 0.0
C1696 C 0.42937 0.19 0.77581 0.0
C1697 C 0.39198 0.18749 0.75826 0.0
C1698 C 0.42924 0.18949 0.80966 0.0
C1699 C 0.3919 0.18627 0.8266 0.0
C1700 C 0.35497 0.18325 0.80888 0.0
C1701 C 0.35492 0.18395 0.77501 0.0
C1702 C 0.35449 0.19218 0.91277 0.0
C1703 C 0.39055 0.18873 0.9308 0.0
C1704 C 0.35483 0.19127 0.87897 0.0
C1705 C 0.391 0.18669 0.86258 0.0
C1706 C 0.42681 0.18304 0.88078 0.0
C1707 C 0.42672 0.18415 0.91457 0.0
H1708 H 0.31681 0.57961 0.95981 0.0
H1709 H 0.44816 0.56906 0.94317 0.0
H1710 H 0.30728 0.58257 0.90132 0.0
H1711 H 0.43828 0.57143 0.88522 0.0
H1712 H 0.42293 0.58325 0.78377 0.0
H1713 H 0.42852 0.58557 0.84256 0.0
H1714 H 0.3018 0.5702 0.85365 0.0
H1715 H 0.2955 0.56858 0.79478 0.0
C1716 C 0.34355 0.57792 0.94366 0.0
C1717 C 0.38318 0.5741 0.95599 0.0
C1718 C 0.3381 0.57958 0.91021 0.0
C1719 C 0.37205 0.57728 0.88856 0.0
C1720 C 0.41172 0.57359 0.90113 0.0
C1721 C 0.4173 0.57212 0.93444 0.0
C1722 C 0.39613 0.58054 0.79885 0.0
C1723 C 0.35903 0.5756 0.78492 0.0
C1724 C 0.39934 0.58181 0.83249 0.0
C1725 C 0.36589 0.57787 0.85287 0.0
C1726 C 0.328 0.57345 0.83872 0.0
C1727 C 0.32448 0.57243 0.805 0.0
loop_
_geom_bond_atom_site_label_1
_geom_bond_atom_site_label_2
_geom_bond_distance
_geom_bond_site_symmetry_2
_ccdc_geom_bond_type
O0 Cd1 2.223 . S
O0 C8 1.315 . S
Cd1 O0 2.223 . S
Cd1 O4 2.297 . S
Cd1 O5 2.439 . S
Cd1 O11 2.240 . S
Cd2 O3 2.240 . S
Cd2 O10 2.223 . S
Cd2 O12 2.297 . S
Cd2 O13 2.439 . S
O3 Cd2 2.240 . S
O3 C8 1.279 . S
O4 Cd1 2.297 . S
O4 C6 1.247 . S
O5 Cd1 2.439 . S
O5 C6 1.208 . S
C6 O4 1.247 . S
C6 O5 1.208 . S
C7 O12 1.247 . S
C7 O13 1.208 . S
C8 O0 1.315 . S
C8 O3 1.279 . S
C9 O10 1.315 . S
C9 O11 1.279 . S
O10 Cd2 2.223 . S
O10 C9 1.315 . S
O11 Cd1 2.240 . S
O11 C9 1.279 . S
O12 Cd2 2.297 . S
O12 C7 1.247 . S
O13 Cd2 2.439 . S
O13 C7 1.208 . S
O14 Cd15 2.223 . S
O14 C22 1.315 . S
Cd15 O14 2.223 . S
Cd15 O18 2.297 . S
Cd15 O19 2.439 . S
Cd15 O25 2.240 . S
Cd16 O17 2.240 . S
Cd16 O24 2.223 . S
Cd16 O26 2.297 . S
Cd16 O27 2.439 . S
O17 Cd16 2.240 . S
O17 C22 1.279 . S
O18 Cd15 2.297 . S
O18 C20 1.247 . S
O19 Cd15 2.439 . S
O19 C20 1.208 . S
C20 O18 1.247 . S
C20 O19 1.208 . S
C21 O26 1.247 . S
C21 O27 1.208 . S
C22 O14 1.315 . S
C22 O17 1.279 . S
C23 O24 1.315 . S
C23 O25 1.279 . S
O24 Cd16 2.223 . S
O24 C23 1.315 . S
O25 Cd15 2.240 . S
O25 C23 1.279 . S
O26 Cd16 2.297 . S
O26 C21 1.247 . S
O27 Cd16 2.439 . S
O27 C21 1.208 . S
O28 Cd29 2.223 . S
O28 C36 1.315 . S
Cd29 O28 2.223 . S
Cd29 O32 2.297 . S
Cd29 O33 2.439 . S
Cd29 O39 2.240 . S
Cd30 O31 2.240 . S
Cd30 O38 2.223 . S
Cd30 O40 2.297 . S
Cd30 O41 2.439 . S
O31 Cd30 2.240 . S
O31 C36 1.279 . S
O32 Cd29 2.297 . S
O32 C34 1.247 . S
O33 Cd29 2.439 . S
O33 C34 1.208 . S
C34 O32 1.247 . S
C34 O33 1.208 . S
C35 O40 1.247 . S
C35 O41 1.208 . S
C36 O28 1.315 . S
C36 O31 1.279 . S
C37 O38 1.315 1_554 S
C37 O39 1.279 1_554 S
O38 Cd30 2.223 . S
O38 C37 1.315 1_556 S
O39 Cd29 2.240 . S
O39 C37 1.279 1_556 S
O40 Cd30 2.297 . S
O40 C35 1.247 . S
O41 Cd30 2.439 . S
O41 C35 1.208 . S
O42 Cd43 2.223 . S
O42 C50 1.315 . S
Cd43 O42 2.223 . S
Cd43 O46 2.297 . S
Cd43 O47 2.439 . S
Cd43 O53 2.240 . S
Cd44 O45 2.240 . S
Cd44 O52 2.223 . S
Cd44 O54 2.297 . S
Cd44 O55 2.439 . S
O45 Cd44 2.240 . S
O45 C50 1.279 . S
O46 Cd43 2.297 . S
O46 C48 1.247 . S
O47 Cd43 2.439 . S
O47 C48 1.208 . S
C48 O46 1.247 . S
C48 O47 1.208 . S
C49 O54 1.247 . S
C49 O55 1.208 . S
C50 O42 1.315 . S
C50 O45 1.279 . S
C51 O52 1.315 1_554 S
C51 O53 1.279 1_554 S
O52 Cd44 2.223 . S
O52 C51 1.315 1_556 S
O53 Cd43 2.240 . S
O53 C51 1.279 1_556 S
O54 Cd44 2.297 . S
O54 C49 1.247 . S
O55 Cd44 2.439 . S
O55 C49 1.208 . S
O56 Cd57 2.223 . S
O56 C64 1.315 . S
Cd57 O56 2.223 . S
Cd57 O60 2.297 . S
Cd57 O61 2.439 . S
Cd57 O67 2.240 . S
Cd58 O59 2.240 . S
Cd58 O66 2.223 . S
Cd58 O68 2.297 . S
Cd58 O69 2.439 . S
O59 Cd58 2.240 . S
O59 C64 1.279 . S
O60 Cd57 2.297 . S
O60 C62 1.247 . S
O61 Cd57 2.439 . S
O61 C62 1.208 . S
C62 O60 1.247 . S
C62 O61 1.208 . S
C63 O68 1.247 . S
C63 O69 1.208 . S
C64 O56 1.315 . S
C64 O59 1.279 . S
C65 O66 1.315 . S
C65 O67 1.279 . S
O66 Cd58 2.223 . S
O66 C65 1.315 . S
O67 Cd57 2.240 . S
O67 C65 1.279 . S
O68 Cd58 2.297 . S
O68 C63 1.247 . S
O69 Cd58 2.439 . S
O69 C63 1.208 . S
O70 Cd71 2.223 . S
O70 C78 1.315 . S
Cd71 O70 2.223 . S
Cd71 O74 2.297 . S
Cd71 O75 2.439 . S
Cd71 O81 2.240 . S
Cd72 O73 2.240 . S
Cd72 O80 2.223 . S
Cd72 O82 2.297 . S
Cd72 O83 2.439 . S
O73 Cd72 2.240 . S
O73 C78 1.279 . S
O74 Cd71 2.297 . S
O74 C76 1.247 . S
O75 Cd71 2.439 . S
O75 C76 1.208 . S
C76 O74 1.247 . S
C76 O75 1.208 . S
C77 O82 1.247 . S
C77 O83 1.208 . S
C78 O70 1.315 . S
C78 O73 1.279 . S
C79 O80 1.315 . S
C79 O81 1.279 . S
O80 Cd72 2.223 . S
O80 C79 1.315 . S
O81 Cd71 2.240 . S
O81 C79 1.279 . S
O82 Cd72 2.297 . S
O82 C77 1.247 . S
O83 Cd72 2.439 . S
O83 C77 1.208 . S
O84 Cd85 2.223 . S
O84 C92 1.315 1_554 S
Cd85 O84 2.223 . S
Cd85 O88 2.297 . S
Cd85 O89 2.439 . S
Cd85 O95 2.240 . S
Cd86 O87 2.240 . S
Cd86 O94 2.223 . S
Cd86 O96 2.297 . S
Cd86 O97 2.439 . S
O87 Cd86 2.240 . S
O87 C92 1.279 1_554 S
O88 Cd85 2.297 . S
O88 C90 1.247 . S
O89 Cd85 2.439 . S
O89 C90 1.208 . S
C90 O88 1.247 . S
C90 O89 1.208 . S
C91 O96 1.247 . S
C91 O97 1.208 . S
C92 O84 1.315 1_556 S
C92 O87 1.279 1_556 S
C93 O94 1.315 . S
C93 O95 1.279 . S
O94 Cd86 2.223 . S
O94 C93 1.315 . S
O95 Cd85 2.240 . S
O95 C93 1.279 . S
O96 Cd86 2.297 . S
O96 C91 1.247 . S
O97 Cd86 2.439 . S
O97 C91 1.208 . S
O98 Cd99 2.223 . S
O98 C106 1.315 1_554 S
Cd99 O98 2.223 . S
Cd99 O102 2.297 . S
Cd99 O103 2.439 . S
Cd99 O109 2.240 . S
Cd100 O101 2.240 . S
Cd100 O108 2.223 . S
Cd100 O110 2.297 . S
Cd100 O111 2.439 . S
O101 Cd100 2.240 . S
O101 C106 1.279 1_554 S
O102 Cd99 2.297 . S
O102 C104 1.247 . S
O103 Cd99 2.439 . S
O103 C104 1.208 . S
C104 O102 1.247 . S
C104 O103 1.208 . S
C105 O110 1.247 . S
C105 O111 1.208 . S
C106 O98 1.315 1_556 S
C106 O101 1.279 1_556 S
C107 O108 1.315 . S
C107 O109 1.279 . S
O108 Cd100 2.223 . S
O108 C107 1.315 . S
O109 Cd99 2.240 . S
O109 C107 1.279 . S
O110 Cd100 2.297 . S
O110 C105 1.247 . S
O111 Cd100 2.439 . S
O111 C105 1.208 . S
O112 Cd113 2.223 . S
O112 C120 1.315 . S
Cd113 O112 2.223 . S
Cd113 O116 2.297 . S
Cd113 O117 2.439 . S
Cd113 O123 2.240 . S
Cd114 O115 2.240 . S
Cd114 O122 2.223 . S
Cd114 O124 2.297 . S
Cd114 O125 2.439 . S
O115 Cd114 2.240 . S
O115 C120 1.279 . S
O116 Cd113 2.297 . S
O116 C118 1.247 . S
O117 Cd113 2.439 . S
O117 C118 1.208 . S
C118 O116 1.247 . S
C118 O117 1.208 . S
C119 O124 1.247 . S
C119 O125 1.208 . S
C120 O112 1.315 . S
C120 O115 1.279 . S
C121 O122 1.315 . S
C121 O123 1.279 . S
O122 Cd114 2.223 . S
O122 C121 1.315 . S
O123 Cd113 2.240 . S
O123 C121 1.279 . S
O124 Cd114 2.297 . S
O124 C119 1.247 . S
O125 Cd114 2.439 . S
O125 C119 1.208 . S
O126 Cd127 2.223 . S
O126 C134 1.315 . S
Cd127 O126 2.223 . S
Cd127 O130 2.297 . S
Cd127 O131 2.439 . S
Cd127 O137 2.240 . S
Cd128 O129 2.240 . S
Cd128 O136 2.223 . S
Cd128 O138 2.297 . S
Cd128 O139 2.439 . S
O129 Cd128 2.240 . S
O129 C134 1.279 . S
O130 Cd127 2.297 . S
O130 C132 1.247 . S
O131 Cd127 2.439 . S
O131 C132 1.208 . S
C132 O130 1.247 . S
C132 O131 1.208 . S
C133 O138 1.247 . S
C133 O139 1.208 . S
C134 O126 1.315 . S
C134 O129 1.279 . S
C135 O136 1.315 . S
C135 O137 1.279 . S
O136 Cd128 2.223 . S
O136 C135 1.315 . S
O137 Cd127 2.240 . S
O137 C135 1.279 . S
O138 Cd128 2.297 . S
O138 C133 1.247 . S
O139 Cd128 2.439 . S
O139 C133 1.208 . S
O140 Cd141 2.223 . S
O140 C148 1.315 . S
Cd141 O140 2.223 . S
Cd141 O144 2.297 . S
Cd141 O145 2.439 . S
Cd141 O151 2.240 . S
Cd142 O143 2.240 . S
Cd142 O150 2.223 . S
Cd142 O152 2.297 . S
Cd142 O153 2.439 . S
O143 Cd142 2.240 . S
O143 C148 1.279 . S
O144 Cd141 2.297 . S
O144 C146 1.247 . S
O145 Cd141 2.439 . S
O145 C146 1.208 . S
C146 O144 1.247 . S
C146 O145 1.208 . S
C147 O152 1.247 . S
C147 O153 1.208 . S
C148 O140 1.315 . S
C148 O143 1.279 . S
C149 O150 1.315 . S
C149 O151 1.279 . S
O150 Cd142 2.223 . S
O150 C149 1.315 . S
O151 Cd141 2.240 . S
O151 C149 1.279 . S
O152 Cd142 2.297 . S
O152 C147 1.247 . S
O153 Cd142 2.439 . S
O153 C147 1.208 . S
O154 Cd155 2.223 . S
O154 C162 1.315 . S
Cd155 O154 2.223 . S
Cd155 O158 2.297 . S
Cd155 O159 2.439 . S
Cd155 O165 2.240 . S
Cd156 O157 2.240 . S
Cd156 O164 2.223 . S
Cd156 O166 2.297 . S
Cd156 O167 2.439 . S
O157 Cd156 2.240 . S
O157 C162 1.279 . S
O158 Cd155 2.297 . S
O158 C160 1.247 . S
O159 Cd155 2.439 . S
O159 C160 1.208 . S
C160 O158 1.247 . S
C160 O159 1.208 . S
C161 O166 1.247 . S
C161 O167 1.208 . S
C162 O154 1.315 . S
C162 O157 1.279 . S
C163 O164 1.315 . S
C163 O165 1.279 . S
O164 Cd156 2.223 . S
O164 C163 1.315 . S
O165 Cd155 2.240 . S
O165 C163 1.279 . S
O166 Cd156 2.297 . S
O166 C161 1.247 . S
O167 Cd156 2.439 . S
O167 C161 1.208 . S
O168 Cd169 2.223 . S
O168 C176 1.315 . S
Cd169 O168 2.223 . S
Cd169 O172 2.297 . S
Cd169 O173 2.439 . S
Cd169 O179 2.240 . S
Cd170 O171 2.240 . S
Cd170 O178 2.223 . S
Cd170 O180 2.297 . S
Cd170 O181 2.439 . S
O171 Cd170 2.240 . S
O171 C176 1.279 . S
O172 Cd169 2.297 . S
O172 C174 1.247 . S
O173 Cd169 2.439 . S
O173 C174 1.208 . S
C174 O172 1.247 . S
C174 O173 1.208 . S
C175 O180 1.247 . S
C175 O181 1.208 . S
C176 O168 1.315 . S
C176 O171 1.279 . S
C177 O178 1.315 . S
C177 O179 1.279 . S
O178 Cd170 2.223 . S
O178 C177 1.315 . S
O179 Cd169 2.240 . S
O179 C177 1.279 . S
O180 Cd170 2.297 . S
O180 C175 1.247 . S
O181 Cd170 2.439 . S
O181 C175 1.208 . S
O182 Cd183 2.223 . S
O182 C190 1.315 . S
Cd183 O182 2.223 . S
Cd183 O186 2.297 . S
Cd183 O187 2.439 . S
Cd183 O193 2.240 . S
Cd184 O185 2.240 . S
Cd184 O192 2.223 . S
Cd184 O194 2.297 . S
Cd184 O195 2.439 . S
O185 Cd184 2.240 . S
O185 C190 1.279 . S
O186 Cd183 2.297 . S
O186 C188 1.247 . S
O187 Cd183 2.439 . S
O187 C188 1.208 . S
C188 O186 1.247 . S
C188 O187 1.208 . S
C189 O194 1.247 . S
C189 O195 1.208 . S
C190 O182 1.315 . S
C190 O185 1.279 . S
C191 O192 1.315 . S
C191 O193 1.279 . S
O192 Cd184 2.223 . S
O192 C191 1.315 . S
O193 Cd183 2.240 . S
O193 C191 1.279 . S
O194 Cd184 2.297 . S
O194 C189 1.247 . S
O195 Cd184 2.439 . S
O195 C189 1.208 . S
O196 Cd197 2.223 . S
O196 C204 1.315 . S
Cd197 O196 2.223 . S
Cd197 O200 2.297 . S
Cd197 O201 2.439 . S
Cd197 O207 2.240 . S
Cd198 O199 2.240 . S
Cd198 O206 2.223 . S
Cd198 O208 2.297 . S
Cd198 O209 2.439 . S
O199 Cd198 2.240 . S
O199 C204 1.279 . S
O200 Cd197 2.297 . S
O200 C202 1.247 . S
O201 Cd197 2.439 . S
O201 C202 1.208 . S
C202 O200 1.247 . S
C202 O201 1.208 . S
C203 O208 1.247 . S
C203 O209 1.208 . S
C204 O196 1.315 . S
C204 O199 1.279 . S
C205 O206 1.315 . S
C205 O207 1.279 . S
O206 Cd198 2.223 . S
O206 C205 1.315 . S
O207 Cd197 2.240 . S
O207 C205 1.279 . S
O208 Cd198 2.297 . S
O208 C203 1.247 . S
O209 Cd198 2.439 . S
O209 C203 1.208 . S
O210 Cd211 2.223 . S
O210 C218 1.315 . S
Cd211 O210 2.223 . S
Cd211 O214 2.297 . S
Cd211 O215 2.439 . S
Cd211 O221 2.240 . S
Cd212 O213 2.240 . S
Cd212 O220 2.223 . S
Cd212 O222 2.297 . S
Cd212 O223 2.439 . S
O213 Cd212 2.240 . S
O213 C218 1.279 . S
O214 Cd211 2.297 . S
O214 C216 1.247 . S
O215 Cd211 2.439 . S
O215 C216 1.208 . S
C216 O214 1.247 . S
C216 O215 1.208 . S
C217 O222 1.247 . S
C217 O223 1.208 . S
C218 O210 1.315 . S
C218 O213 1.279 . S
C219 O220 1.315 . S
C219 O221 1.279 . S
O220 Cd212 2.223 . S
O220 C219 1.315 . S
O221 Cd211 2.240 . S
O221 C219 1.279 . S
O222 Cd212 2.297 . S
O222 C217 1.247 . S
O223 Cd212 2.439 . S
O223 C217 1.208 . S
O224 Cd225 2.223 . S
O224 C232 1.315 . S
Cd225 O224 2.223 . S
Cd225 O228 2.297 . S
Cd225 O229 2.439 . S
Cd225 O235 2.240 . S
Cd226 O227 2.240 . S
Cd226 O234 2.223 . S
Cd226 O236 2.297 . S
Cd226 O237 2.439 . S
O227 Cd226 2.240 . S
O227 C232 1.279 . S
O228 Cd225 2.297 . S
O228 C230 1.247 . S
O229 Cd225 2.439 . S
O229 C230 1.208 . S
C230 O228 1.247 . S
C230 O229 1.208 . S
C231 O236 1.247 . S
C231 O237 1.208 . S
C232 O224 1.315 . S
C232 O227 1.279 . S
C233 O234 1.315 . S
C233 O235 1.279 . S
O234 Cd226 2.223 . S
O234 C233 1.315 . S
O235 Cd225 2.240 . S
O235 C233 1.279 . S
O236 Cd226 2.297 . S
O236 C231 1.247 . S
O237 Cd226 2.439 . S
O237 C231 1.208 . S
O238 Cd239 2.223 . S
O238 C246 1.315 . S
Cd239 O238 2.223 . S
Cd239 O242 2.297 . S
Cd239 O243 2.439 . S
Cd239 O249 2.240 . S
Cd240 O241 2.240 . S
Cd240 O248 2.223 . S
Cd240 O250 2.297 . S
Cd240 O251 2.439 . S
O241 Cd240 2.240 . S
O241 C246 1.279 . S
O242 Cd239 2.297 . S
O242 C244 1.247 . S
O243 Cd239 2.439 . S
O243 C244 1.208 . S
C244 O242 1.247 . S
C244 O243 1.208 . S
C245 O250 1.247 . S
C245 O251 1.208 . S
C246 O238 1.315 . S
C246 O241 1.279 . S
C247 O248 1.315 . S
C247 O249 1.279 . S
O248 Cd240 2.223 . S
O248 C247 1.315 . S
O249 Cd239 2.240 . S
O249 C247 1.279 . S
O250 Cd240 2.297 . S
O250 C245 1.247 . S
O251 Cd240 2.439 . S
O251 C245 1.208 . S
O252 Cd253 2.223 . S
O252 C260 1.315 . S
Cd253 O252 2.223 . S
Cd253 O256 2.297 . S
Cd253 O257 2.439 . S
Cd253 O263 2.240 . S
Cd254 O255 2.240 . S
Cd254 O262 2.223 . S
Cd254 O264 2.297 . S
Cd254 O265 2.439 . S
O255 Cd254 2.240 . S
O255 C260 1.279 . S
O256 Cd253 2.297 . S
O256 C258 1.247 . S
O257 Cd253 2.439 . S
O257 C258 1.208 . S
C258 O256 1.247 . S
C258 O257 1.208 . S
C259 O264 1.247 . S
C259 O265 1.208 . S
C260 O252 1.315 . S
C260 O255 1.279 . S
C261 O262 1.315 . S
C261 O263 1.279 . S
O262 Cd254 2.223 . S
O262 C261 1.315 . S
O263 Cd253 2.240 . S
O263 C261 1.279 . S
O264 Cd254 2.297 . S
O264 C259 1.247 . S
O265 Cd254 2.439 . S
O265 C259 1.208 . S
O266 Cd267 2.223 . S
O266 C274 1.315 . S
Cd267 O266 2.223 . S
Cd267 O270 2.297 . S
Cd267 O271 2.439 . S
Cd267 O277 2.240 . S
Cd268 O269 2.240 . S
Cd268 O276 2.223 . S
Cd268 O278 2.297 . S
Cd268 O279 2.439 . S
O269 Cd268 2.240 . S
O269 C274 1.279 . S
O270 Cd267 2.297 . S
O270 C272 1.247 . S
O271 Cd267 2.439 . S
O271 C272 1.208 . S
C272 O270 1.247 . S
C272 O271 1.208 . S
C273 O278 1.247 . S
C273 O279 1.208 . S
C274 O266 1.315 . S
C274 O269 1.279 . S
C275 O276 1.315 . S
C275 O277 1.279 . S
O276 Cd268 2.223 . S
O276 C275 1.315 . S
O277 Cd267 2.240 . S
O277 C275 1.279 . S
O278 Cd268 2.297 . S
O278 C273 1.247 . S
O279 Cd268 2.439 . S
O279 C273 1.208 . S
O280 Cd281 2.223 . S
O280 C288 1.315 . S
Cd281 O280 2.223 . S
Cd281 O284 2.297 . S
Cd281 O285 2.439 . S
Cd281 O291 2.240 . S
Cd282 O283 2.240 . S
Cd282 O290 2.223 . S
Cd282 O292 2.297 . S
Cd282 O293 2.439 . S
O283 Cd282 2.240 . S
O283 C288 1.279 . S
O284 Cd281 2.297 . S
O284 C286 1.247 . S
O285 Cd281 2.439 . S
O285 C286 1.208 . S
C286 O284 1.247 . S
C286 O285 1.208 . S
C287 O292 1.247 . S
C287 O293 1.208 . S
C288 O280 1.315 . S
C288 O283 1.279 . S
C289 O290 1.315 . S
C289 O291 1.279 . S
O290 Cd282 2.223 . S
O290 C289 1.315 . S
O291 Cd281 2.240 . S
O291 C289 1.279 . S
O292 Cd282 2.297 . S
O292 C287 1.247 . S
O293 Cd282 2.439 . S
O293 C287 1.208 . S
O294 Cd295 2.223 . S
O294 C302 1.315 . S
Cd295 O294 2.223 . S
Cd295 O298 2.297 . S
Cd295 O299 2.439 . S
Cd295 O305 2.240 . S
Cd296 O297 2.240 . S
Cd296 O304 2.223 . S
Cd296 O306 2.297 . S
Cd296 O307 2.439 . S
O297 Cd296 2.240 . S
O297 C302 1.279 . S
O298 Cd295 2.297 . S
O298 C300 1.247 . S
O299 Cd295 2.439 . S
O299 C300 1.208 . S
C300 O298 1.247 . S
C300 O299 1.208 . S
C301 O306 1.247 . S
C301 O307 1.208 . S
C302 O294 1.315 . S
C302 O297 1.279 . S
C303 O304 1.315 . S
C303 O305 1.279 . S
O304 Cd296 2.223 . S
O304 C303 1.315 . S
O305 Cd295 2.240 . S
O305 C303 1.279 . S
O306 Cd296 2.297 . S
O306 C301 1.247 . S
O307 Cd296 2.439 . S
O307 C301 1.208 . S
O308 Cd309 2.223 . S
O308 C316 1.315 . S
Cd309 O308 2.223 . S
Cd309 O312 2.297 . S
Cd309 O313 2.439 . S
Cd309 O319 2.240 . S
Cd310 O311 2.240 . S
Cd310 O318 2.223 . S
Cd310 O320 2.297 . S
Cd310 O321 2.439 . S
O311 Cd310 2.240 . S
O311 C316 1.279 . S
O312 Cd309 2.297 . S
O312 C314 1.247 . S
O313 Cd309 2.439 . S
O313 C314 1.208 . S
C314 O312 1.247 . S
C314 O313 1.208 . S
C315 O320 1.247 . S
C315 O321 1.208 . S
C316 O308 1.315 . S
C316 O311 1.279 . S
C317 O318 1.315 . S
C317 O319 1.279 . S
O318 Cd310 2.223 . S
O318 C317 1.315 . S
O319 Cd309 2.240 . S
O319 C317 1.279 . S
O320 Cd310 2.297 . S
O320 C315 1.247 . S
O321 Cd310 2.439 . S
O321 C315 1.208 . S
O322 Cd323 2.223 . S
O322 C330 1.315 . S
Cd323 O322 2.223 . S
Cd323 O326 2.297 . S
Cd323 O327 2.439 . S
Cd323 O333 2.240 . S
Cd324 O325 2.240 . S
Cd324 O332 2.223 . S
Cd324 O334 2.297 . S
Cd324 O335 2.439 . S
O325 Cd324 2.240 . S
O325 C330 1.279 . S
O326 Cd323 2.297 . S
O326 C328 1.247 . S
O327 Cd323 2.439 . S
O327 C328 1.208 . S
C328 O326 1.247 . S
C328 O327 1.208 . S
C329 O334 1.247 . S
C329 O335 1.208 . S
C330 O322 1.315 . S
C330 O325 1.279 . S
C331 O332 1.315 . S
C331 O333 1.279 . S
O332 Cd324 2.223 . S
O332 C331 1.315 . S
O333 Cd323 2.240 . S
O333 C331 1.279 . S
O334 Cd324 2.297 . S
O334 C329 1.247 . S
O335 Cd324 2.439 . S
O335 C329 1.208 . S
O336 Cd337 2.223 . S
O336 C344 1.315 . S
Cd337 O336 2.223 . S
Cd337 O340 2.297 . S
Cd337 O341 2.439 . S
Cd337 O347 2.240 . S
Cd338 O339 2.240 . S
Cd338 O346 2.223 . S
Cd338 O348 2.297 . S
Cd338 O349 2.439 . S
O339 Cd338 2.240 . S
O339 C344 1.279 . S
O340 Cd337 2.297 . S
O340 C342 1.247 . S
O341 Cd337 2.439 . S
O341 C342 1.208 . S
C342 O340 1.247 . S
C342 O341 1.208 . S
C343 O348 1.247 . S
C343 O349 1.208 . S
C344 O336 1.315 . S
C344 O339 1.279 . S
C345 O346 1.315 . S
C345 O347 1.279 . S
O346 Cd338 2.223 . S
O346 C345 1.315 . S
O347 Cd337 2.240 . S
O347 C345 1.279 . S
O348 Cd338 2.297 . S
O348 C343 1.247 . S
O349 Cd338 2.439 . S
O349 C343 1.208 . S
O350 Cd351 2.223 . S
O350 C358 1.315 . S
Cd351 O350 2.223 . S
Cd351 O354 2.297 . S
Cd351 O355 2.439 . S
Cd351 O361 2.240 . S
Cd352 O353 2.240 . S
Cd352 O360 2.223 . S
Cd352 O362 2.297 . S
Cd352 O363 2.439 . S
O353 Cd352 2.240 . S
O353 C358 1.279 . S
O354 Cd351 2.297 . S
O354 C356 1.247 . S
O355 Cd351 2.439 . S
O355 C356 1.208 . S
C356 O354 1.247 . S
C356 O355 1.208 . S
C357 O362 1.247 . S
C357 O363 1.208 . S
C358 O350 1.315 . S
C358 O353 1.279 . S
C359 O360 1.315 . S
C359 O361 1.279 . S
O360 Cd352 2.223 . S
O360 C359 1.315 . S
O361 Cd351 2.240 . S
O361 C359 1.279 . S
O362 Cd352 2.297 . S
O362 C357 1.247 . S
O363 Cd352 2.439 . S
O363 C357 1.208 . S
O364 Cd365 2.223 . S
O364 C372 1.315 . S
Cd365 O364 2.223 . S
Cd365 O368 2.297 . S
Cd365 O369 2.439 . S
Cd365 O375 2.240 . S
Cd366 O367 2.240 . S
Cd366 O374 2.223 . S
Cd366 O376 2.297 . S
Cd366 O377 2.439 . S
O367 Cd366 2.240 . S
O367 C372 1.279 . S
O368 Cd365 2.297 . S
O368 C370 1.247 . S
O369 Cd365 2.439 . S
O369 C370 1.208 . S
C370 O368 1.247 . S
C370 O369 1.208 . S
C371 O376 1.247 . S
C371 O377 1.208 . S
C372 O364 1.315 . S
C372 O367 1.279 . S
C373 O374 1.315 1_554 S
C373 O375 1.279 1_554 S
O374 Cd366 2.223 . S
O374 C373 1.315 1_556 S
O375 Cd365 2.240 . S
O375 C373 1.279 1_556 S
O376 Cd366 2.297 . S
O376 C371 1.247 . S
O377 Cd366 2.439 . S
O377 C371 1.208 . S
O378 Cd379 2.223 . S
O378 C386 1.315 . S
Cd379 O378 2.223 . S
Cd379 O382 2.297 . S
Cd379 O383 2.439 . S
Cd379 O389 2.240 . S
Cd380 O381 2.240 . S
Cd380 O388 2.223 . S
Cd380 O390 2.297 . S
Cd380 O391 2.439 . S
O381 Cd380 2.240 . S
O381 C386 1.279 . S
O382 Cd379 2.297 . S
O382 C384 1.247 . S
O383 Cd379 2.439 . S
O383 C384 1.208 . S
C384 O382 1.247 . S
C384 O383 1.208 . S
C385 O390 1.247 . S
C385 O391 1.208 . S
C386 O378 1.315 . S
C386 O381 1.279 . S
C387 O388 1.315 1_554 S
C387 O389 1.279 1_554 S
O388 Cd380 2.223 . S
O388 C387 1.315 1_556 S
O389 Cd379 2.240 . S
O389 C387 1.279 1_556 S
O390 Cd380 2.297 . S
O390 C385 1.247 . S
O391 Cd380 2.439 . S
O391 C385 1.208 . S
O392 Cd393 2.223 . S
O392 C400 1.315 . S
Cd393 O392 2.223 . S
Cd393 O396 2.297 . S
Cd393 O397 2.439 . S
Cd393 O403 2.240 . S
Cd394 O395 2.240 . S
Cd394 O402 2.223 . S
Cd394 O404 2.297 . S
Cd394 O405 2.439 . S
O395 Cd394 2.240 . S
O395 C400 1.279 . S
O396 Cd393 2.297 . S
O396 C398 1.247 . S
O397 Cd393 2.439 . S
O397 C398 1.208 . S
C398 O396 1.247 . S
C398 O397 1.208 . S
C399 O404 1.247 . S
C399 O405 1.208 . S
C400 O392 1.315 . S
C400 O395 1.279 . S
C401 O402 1.315 . S
C401 O403 1.279 . S
O402 Cd394 2.223 . S
O402 C401 1.315 . S
O403 Cd393 2.240 . S
O403 C401 1.279 . S
O404 Cd394 2.297 . S
O404 C399 1.247 . S
O405 Cd394 2.439 . S
O405 C399 1.208 . S
O406 Cd407 2.223 . S
O406 C414 1.315 . S
Cd407 O406 2.223 . S
Cd407 O410 2.297 . S
Cd407 O411 2.439 . S
Cd407 O417 2.240 . S
Cd408 O409 2.240 . S
Cd408 O416 2.223 . S
Cd408 O418 2.297 . S
Cd408 O419 2.439 . S
O409 Cd408 2.240 . S
O409 C414 1.279 . S
O410 Cd407 2.297 . S
O410 C412 1.247 . S
O411 Cd407 2.439 . S
O411 C412 1.208 . S
C412 O410 1.247 . S
C412 O411 1.208 . S
C413 O418 1.247 . S
C413 O419 1.208 . S
C414 O406 1.315 . S
C414 O409 1.279 . S
C415 O416 1.315 . S
C415 O417 1.279 . S
O416 Cd408 2.223 . S
O416 C415 1.315 . S
O417 Cd407 2.240 . S
O417 C415 1.279 . S
O418 Cd408 2.297 . S
O418 C413 1.247 . S
O419 Cd408 2.439 . S
O419 C413 1.208 . S
O420 Cd421 2.223 . S
O420 C428 1.315 1_554 S
Cd421 O420 2.223 . S
Cd421 O424 2.297 . S
Cd421 O425 2.439 . S
Cd421 O431 2.240 . S
Cd422 O423 2.240 . S
Cd422 O430 2.223 . S
Cd422 O432 2.297 . S
Cd422 O433 2.439 . S
O423 Cd422 2.240 . S
O423 C428 1.279 1_554 S
O424 Cd421 2.297 . S
O424 C426 1.247 . S
O425 Cd421 2.439 . S
O425 C426 1.208 . S
C426 O424 1.247 . S
C426 O425 1.208 . S
C427 O432 1.247 . S
C427 O433 1.208 . S
C428 O420 1.315 1_556 S
C428 O423 1.279 1_556 S
C429 O430 1.315 . S
C429 O431 1.279 . S
O430 Cd422 2.223 . S
O430 C429 1.315 . S
O431 Cd421 2.240 . S
O431 C429 1.279 . S
O432 Cd422 2.297 . S
O432 C427 1.247 . S
O433 Cd422 2.439 . S
O433 C427 1.208 . S
O434 Cd435 2.223 . S
O434 C442 1.315 1_554 S
Cd435 O434 2.223 . S
Cd435 O438 2.297 . S
Cd435 O439 2.439 . S
Cd435 O445 2.240 . S
Cd436 O437 2.240 . S
Cd436 O444 2.223 . S
Cd436 O446 2.297 . S
Cd436 O447 2.439 . S
O437 Cd436 2.240 . S
O437 C442 1.279 1_554 S
O438 Cd435 2.297 . S
O438 C440 1.247 . S
O439 Cd435 2.439 . S
O439 C440 1.208 . S
C440 O438 1.247 . S
C440 O439 1.208 . S
C441 O446 1.247 . S
C441 O447 1.208 . S
C442 O434 1.315 1_556 S
C442 O437 1.279 1_556 S
C443 O444 1.315 . S
C443 O445 1.279 . S
O444 Cd436 2.223 . S
O444 C443 1.315 . S
O445 Cd435 2.240 . S
O445 C443 1.279 . S
O446 Cd436 2.297 . S
O446 C441 1.247 . S
O447 Cd436 2.439 . S
O447 C441 1.208 . S
H448 C456 0.950 . S
H449 C461 0.950 . S
H450 C458 0.950 . S
H451 C460 0.950 . S
H452 C462 0.950 . S
H453 C464 0.950 . S
H454 C466 0.950 . S
H455 C467 0.950 . S
C456 H448 0.950 . S
C456 C457 1.386 . S
C456 C458 1.391 . S
C457 C456 1.386 . S
C457 C461 1.393 . S
C458 H450 0.950 . S
C458 C456 1.391 . S
C458 C459 1.400 . S
C459 C458 1.400 . S
C459 C460 1.398 . S
C459 C465 1.491 . S
C460 H451 0.950 . S
C460 C459 1.398 . S
C460 C461 1.391 . S
C461 H449 0.950 . S
C461 C457 1.393 . S
C461 C460 1.391 . S
C462 H452 0.950 . S
C462 C463 1.386 . S
C462 C464 1.391 . S
C463 C462 1.386 . S
C463 C467 1.393 . S
C464 H453 0.950 . S
C464 C462 1.391 . S
C464 C465 1.400 . S
C465 C459 1.491 . S
C465 C464 1.400 . S
C465 C466 1.398 . S
C466 H454 0.950 . S
C466 C465 1.398 . S
C466 C467 1.391 . S
C467 H455 0.950 . S
C467 C463 1.393 . S
C467 C466 1.391 . S
H468 C476 0.950 . S
H469 C481 0.950 . S
H470 C478 0.950 . S
H471 C480 0.950 . S
H472 C482 0.950 . S
H473 C484 0.950 . S
H474 C486 0.950 . S
H475 C487 0.950 . S
C476 H468 0.950 . S
C476 C477 1.386 . S
C476 C478 1.391 . S
C477 C476 1.386 . S
C477 C481 1.393 . S
C478 H470 0.950 . S
C478 C476 1.391 . S
C478 C479 1.400 . S
C479 C478 1.400 . S
C479 C480 1.398 . S
C479 C485 1.491 . S
C480 H471 0.950 . S
C480 C479 1.398 . S
C480 C481 1.391 . S
C481 H469 0.950 . S
C481 C477 1.393 . S
C481 C480 1.391 . S
C482 H472 0.950 . S
C482 C483 1.386 . S
C482 C484 1.391 . S
C483 C482 1.386 . S
C483 C487 1.393 . S
C484 H473 0.950 . S
C484 C482 1.391 . S
C484 C485 1.400 . S
C485 C479 1.491 . S
C485 C484 1.400 . S
C485 C486 1.398 . S
C486 H474 0.950 . S
C486 C485 1.398 . S
C486 C487 1.391 . S
C487 H475 0.950 . S
C487 C483 1.393 . S
C487 C486 1.391 . S
H488 C496 0.950 . S
H489 C501 0.950 . S
H490 C498 0.950 . S
H491 C500 0.950 . S
H492 C502 0.950 . S
H493 C504 0.950 . S
H494 C506 0.950 . S
H495 C507 0.950 . S
C496 H488 0.950 . S
C496 C497 1.386 . S
C496 C498 1.391 . S
C497 C496 1.386 . S
C497 C501 1.393 . S
C498 H490 0.950 . S
C498 C496 1.391 . S
C498 C499 1.400 . S
C499 C498 1.400 . S
C499 C500 1.398 . S
C499 C505 1.491 . S
C500 H491 0.950 . S
C500 C499 1.398 . S
C500 C501 1.391 . S
C501 H489 0.950 . S
C501 C497 1.393 . S
C501 C500 1.391 . S
C502 H492 0.950 . S
C502 C503 1.386 . S
C502 C504 1.391 . S
C503 C502 1.386 . S
C503 C507 1.393 . S
C504 H493 0.950 . S
C504 C502 1.391 . S
C504 C505 1.400 . S
C505 C499 1.491 . S
C505 C504 1.400 . S
C505 C506 1.398 . S
C506 H494 0.950 . S
C506 C505 1.398 . S
C506 C507 1.391 . S
C507 H495 0.950 . S
C507 C503 1.393 . S
C507 C506 1.391 . S
H508 C516 0.950 . S
H509 C521 0.950 . S
H510 C518 0.950 . S
H511 C520 0.950 . S
H512 C522 0.950 . S
H513 C524 0.950 . S
H514 C526 0.950 . S
H515 C527 0.950 . S
C516 H508 0.950 . S
C516 C517 1.386 . S
C516 C518 1.391 . S
C517 C516 1.386 . S
C517 C521 1.393 . S
C518 H510 0.950 . S
C518 C516 1.391 . S
C518 C519 1.400 . S
C519 C518 1.400 . S
C519 C520 1.398 . S
C519 C525 1.491 . S
C520 H511 0.950 . S
C520 C519 1.398 . S
C520 C521 1.391 . S
C521 H509 0.950 . S
C521 C517 1.393 . S
C521 C520 1.391 . S
C522 H512 0.950 . S
C522 C523 1.386 . S
C522 C524 1.391 . S
C523 C522 1.386 . S
C523 C527 1.393 . S
C524 H513 0.950 . S
C524 C522 1.391 . S
C524 C525 1.400 . S
C525 C519 1.491 . S
C525 C524 1.400 . S
C525 C526 1.398 . S
C526 H514 0.950 . S
C526 C525 1.398 . S
C526 C527 1.391 . S
C527 H515 0.950 . S
C527 C523 1.393 . S
C527 C526 1.391 . S
H528 C536 0.950 . S
H529 C541 0.950 . S
H530 C538 0.950 . S
H531 C540 0.950 . S
H532 C542 0.950 . S
H533 C544 0.950 . S
H534 C546 0.950 . S
H535 C547 0.950 . S
C536 H528 0.950 . S
C536 C537 1.386 . S
C536 C538 1.391 . S
C537 C536 1.386 . S
C537 C541 1.393 . S
C538 H530 0.950 . S
C538 C536 1.391 . S
C538 C539 1.400 . S
C539 C538 1.400 . S
C539 C540 1.398 . S
C539 C545 1.491 . S
C540 H531 0.950 . S
C540 C539 1.398 . S
C540 C541 1.391 . S
C541 H529 0.950 . S
C541 C537 1.393 . S
C541 C540 1.391 . S
C542 H532 0.950 . S
C542 C543 1.386 . S
C542 C544 1.391 . S
C543 C542 1.386 . S
C543 C547 1.393 . S
C544 H533 0.950 . S
C544 C542 1.391 . S
C544 C545 1.400 . S
C545 C539 1.491 . S
C545 C544 1.400 . S
C545 C546 1.398 . S
C546 H534 0.950 . S
C546 C545 1.398 . S
C546 C547 1.391 . S
C547 H535 0.950 . S
C547 C543 1.393 . S
C547 C546 1.391 . S
H548 C556 0.950 . S
H549 C561 0.950 . S
H550 C558 0.950 . S
H551 C560 0.950 . S
H552 C562 0.950 . S
H553 C564 0.950 . S
H554 C566 0.950 . S
H555 C567 0.950 . S
C556 H548 0.950 . S
C556 C557 1.386 . S
C556 C558 1.391 . S
C557 C556 1.386 . S
C557 C561 1.393 . S
C558 H550 0.950 . S
C558 C556 1.391 . S
C558 C559 1.400 . S
C559 C558 1.400 . S
C559 C560 1.398 . S
C559 C565 1.491 . S
C560 H551 0.950 . S
C560 C559 1.398 . S
C560 C561 1.391 . S
C561 H549 0.950 . S
C561 C557 1.393 . S
C561 C560 1.391 . S
C562 H552 0.950 . S
C562 C563 1.386 . S
C562 C564 1.391 . S
C563 C562 1.386 . S
C563 C567 1.393 . S
C564 H553 0.950 . S
C564 C562 1.391 . S
C564 C565 1.400 . S
C565 C559 1.491 . S
C565 C564 1.400 . S
C565 C566 1.398 . S
C566 H554 0.950 . S
C566 C565 1.398 . S
C566 C567 1.391 . S
C567 H555 0.950 . S
C567 C563 1.393 . S
C567 C566 1.391 . S
H568 C576 0.950 . S
H569 C581 0.950 . S
H570 C578 0.950 . S
H571 C580 0.950 . S
H572 C582 0.950 . S
H573 C584 0.950 . S
H574 C586 0.950 . S
H575 C587 0.950 . S
C576 H568 0.950 . S
C576 C577 1.386 . S
C576 C578 1.391 . S
C577 C576 1.386 . S
C577 C581 1.393 . S
C578 H570 0.950 . S
C578 C576 1.391 . S
C578 C579 1.400 . S
C579 C578 1.400 . S
C579 C580 1.398 . S
C579 C585 1.491 . S
C580 H571 0.950 . S
C580 C579 1.398 . S
C580 C581 1.391 . S
C581 H569 0.950 . S
C581 C577 1.393 . S
C581 C580 1.391 . S
C582 H572 0.950 . S
C582 C583 1.386 . S
C582 C584 1.391 . S
C583 C582 1.386 . S
C583 C587 1.393 . S
C584 H573 0.950 . S
C584 C582 1.391 . S
C584 C585 1.400 . S
C585 C579 1.491 . S
C585 C584 1.400 . S
C585 C586 1.398 . S
C586 H574 0.950 . S
C586 C585 1.398 . S
C586 C587 1.391 . S
C587 H575 0.950 . S
C587 C583 1.393 . S
C587 C586 1.391 . S
H588 C596 0.950 . S
H589 C601 0.950 . S
H590 C598 0.950 . S
H591 C600 0.950 . S
H592 C602 0.950 . S
H593 C604 0.950 . S
H594 C606 0.950 . S
H595 C607 0.950 . S
C596 H588 0.950 . S
C596 C597 1.386 . S
C596 C598 1.391 . S
C597 C596 1.386 . S
C597 C601 1.393 . S
C598 H590 0.950 . S
C598 C596 1.391 . S
C598 C599 1.400 . S
C599 C598 1.400 . S
C599 C600 1.398 . S
C599 C605 1.491 . S
C600 H591 0.950 . S
C600 C599 1.398 . S
C600 C601 1.391 . S
C601 H589 0.950 . S
C601 C597 1.393 . S
C601 C600 1.391 . S
C602 H592 0.950 . S
C602 C603 1.386 . S
C602 C604 1.391 . S
C603 C602 1.386 . S
C603 C607 1.393 . S
C604 H593 0.950 . S
C604 C602 1.391 . S
C604 C605 1.400 . S
C605 C599 1.491 . S
C605 C604 1.400 . S
C605 C606 1.398 . S
C606 H594 0.950 . S
C606 C605 1.398 . S
C606 C607 1.391 . S
C607 H595 0.950 . S
C607 C603 1.393 . S
C607 C606 1.391 . S
H608 C616 0.950 . S
H609 C621 0.950 . S
H610 C618 0.950 . S
H611 C620 0.950 . S
H612 C622 0.950 . S
H613 C624 0.950 . S
H614 C626 0.950 . S
H615 C627 0.950 . S
C616 H608 0.950 . S
C616 C617 1.386 . S
C616 C618 1.391 . S
C617 C616 1.386 . S
C617 C621 1.393 . S
C618 H610 0.950 . S
C618 C616 1.391 . S
C618 C619 1.400 . S
C619 C618 1.400 . S
C619 C620 1.398 . S
C619 C625 1.491 . S
C620 H611 0.950 . S
C620 C619 1.398 . S
C620 C621 1.391 . S
C621 H609 0.950 . S
C621 C617 1.393 . S
C621 C620 1.391 . S
C622 H612 0.950 . S
C622 C623 1.386 . S
C622 C624 1.391 . S
C623 C622 1.386 . S
C623 C627 1.393 . S
C624 H613 0.950 . S
C624 C622 1.391 . S
C624 C625 1.400 . S
C625 C619 1.491 . S
C625 C624 1.400 . S
C625 C626 1.398 . S
C626 H614 0.950 . S
C626 C625 1.398 . S
C626 C627 1.391 . S
C627 H615 0.950 . S
C627 C623 1.393 . S
C627 C626 1.391 . S
H628 C636 0.950 . S
H629 C641 0.950 . S
H630 C638 0.950 . S
H631 C640 0.950 . S
H632 C642 0.950 . S
H633 C644 0.950 . S
H634 C646 0.950 . S
H635 C647 0.950 . S
C636 H628 0.950 . S
C636 C637 1.386 . S
C636 C638 1.391 . S
C637 C636 1.386 . S
C637 C641 1.393 . S
C638 H630 0.950 . S
C638 C636 1.391 . S
C638 C639 1.400 . S
C639 C638 1.400 . S
C639 C640 1.398 . S
C639 C645 1.491 . S
C640 H631 0.950 . S
C640 C639 1.398 . S
C640 C641 1.391 . S
C641 H629 0.950 . S
C641 C637 1.393 . S
C641 C640 1.391 . S
C642 H632 0.950 . S
C642 C643 1.386 . S
C642 C644 1.391 . S
C643 C642 1.386 . S
C643 C647 1.393 . S
C644 H633 0.950 . S
C644 C642 1.391 . S
C644 C645 1.400 . S
C645 C639 1.491 . S
C645 C644 1.400 . S
C645 C646 1.398 . S
C646 H634 0.950 . S
C646 C645 1.398 . S
C646 C647 1.391 . S
C647 H635 0.950 . S
C647 C643 1.393 . S
C647 C646 1.391 . S
H648 C656 0.950 . S
H649 C661 0.950 . S
H650 C658 0.950 . S
H651 C660 0.950 . S
H652 C662 0.950 . S
H653 C664 0.950 . S
H654 C666 0.950 . S
H655 C667 0.950 . S
C656 H648 0.950 . S
C656 C657 1.386 . S
C656 C658 1.391 . S
C657 C656 1.386 . S
C657 C661 1.393 . S
C658 H650 0.950 . S
C658 C656 1.391 . S
C658 C659 1.400 . S
C659 C658 1.400 . S
C659 C660 1.398 . S
C659 C665 1.491 . S
C660 H651 0.950 . S
C660 C659 1.398 . S
C660 C661 1.391 . S
C661 H649 0.950 . S
C661 C657 1.393 . S
C661 C660 1.391 . S
C662 H652 0.950 . S
C662 C663 1.386 . S
C662 C664 1.391 . S
C663 C662 1.386 . S
C663 C667 1.393 . S
C664 H653 0.950 . S
C664 C662 1.391 . S
C664 C665 1.400 . S
C665 C659 1.491 . S
C665 C664 1.400 . S
C665 C666 1.398 . S
C666 H654 0.950 . S
C666 C665 1.398 . S
C666 C667 1.391 . S
C667 H655 0.950 . S
C667 C663 1.393 . S
C667 C666 1.391 . S
H668 C676 0.950 . S
H669 C681 0.950 . S
H670 C678 0.950 . S
H671 C680 0.950 . S
H672 C682 0.950 . S
H673 C684 0.950 . S
H674 C686 0.950 . S
H675 C687 0.950 . S
C676 H668 0.950 . S
C676 C677 1.386 . S
C676 C678 1.391 . S
C677 C676 1.386 . S
C677 C681 1.393 . S
C678 H670 0.950 . S
C678 C676 1.391 . S
C678 C679 1.400 . S
C679 C678 1.400 . S
C679 C680 1.398 . S
C679 C685 1.491 . S
C680 H671 0.950 . S
C680 C679 1.398 . S
C680 C681 1.391 . S
C681 H669 0.950 . S
C681 C677 1.393 . S
C681 C680 1.391 . S
C682 H672 0.950 . S
C682 C683 1.386 . S
C682 C684 1.391 . S
C683 C682 1.386 . S
C683 C687 1.393 . S
C684 H673 0.950 . S
C684 C682 1.391 . S
C684 C685 1.400 . S
C685 C679 1.491 . S
C685 C684 1.400 . S
C685 C686 1.398 . S
C686 H674 0.950 . S
C686 C685 1.398 . S
C686 C687 1.391 . S
C687 H675 0.950 . S
C687 C683 1.393 . S
C687 C686 1.391 . S
H688 C696 0.950 . S
H689 C701 0.950 . S
H690 C698 0.950 . S
H691 C700 0.950 . S
H692 C702 0.950 . S
H693 C704 0.950 . S
H694 C706 0.950 . S
H695 C707 0.950 . S
C696 H688 0.950 . S
C696 C697 1.386 . S
C696 C698 1.391 . S
C697 C696 1.386 . S
C697 C701 1.393 . S
C698 H690 0.950 . S
C698 C696 1.391 . S
C698 C699 1.400 . S
C699 C698 1.400 . S
C699 C700 1.398 . S
C699 C705 1.491 . S
C700 H691 0.950 . S
C700 C699 1.398 . S
C700 C701 1.391 . S
C701 H689 0.950 . S
C701 C697 1.393 . S
C701 C700 1.391 . S
C702 H692 0.950 . S
C702 C703 1.386 . S
C702 C704 1.391 . S
C703 C702 1.386 . S
C703 C707 1.393 . S
C704 H693 0.950 . S
C704 C702 1.391 . S
C704 C705 1.400 . S
C705 C699 1.491 . S
C705 C704 1.400 . S
C705 C706 1.398 . S
C706 H694 0.950 . S
C706 C705 1.398 . S
C706 C707 1.391 . S
C707 H695 0.950 . S
C707 C703 1.393 . S
C707 C706 1.391 . S
H708 C716 0.950 . S
H709 C721 0.950 . S
H710 C718 0.950 . S
H711 C720 0.950 . S
H712 C722 0.950 . S
H713 C724 0.950 . S
H714 C726 0.950 . S
H715 C727 0.950 . S
C716 H708 0.950 . S
C716 C717 1.386 . S
C716 C718 1.391 . S
C717 C716 1.386 . S
C717 C721 1.393 . S
C718 H710 0.950 . S
C718 C716 1.391 . S
C718 C719 1.400 . S
C719 C718 1.400 . S
C719 C720 1.398 . S
C719 C725 1.491 . S
C720 H711 0.950 . S
C720 C719 1.398 . S
C720 C721 1.391 . S
C721 H709 0.950 . S
C721 C717 1.393 . S
C721 C720 1.391 . S
C722 H712 0.950 . S
C722 C723 1.386 . S
C722 C724 1.391 . S
C723 C722 1.386 . S
C723 C727 1.393 . S
C724 H713 0.950 . S
C724 C722 1.391 . S
C724 C725 1.400 . S
C725 C719 1.491 . S
C725 C724 1.400 . S
C725 C726 1.398 . S
C726 H714 0.950 . S
C726 C725 1.398 . S
C726 C727 1.391 . S
C727 H715 0.950 . S
C727 C723 1.393 . S
C727 C726 1.391 . S
H728 C736 0.950 . S
H729 C741 0.950 . S
H730 C738 0.950 . S
H731 C740 0.950 . S
H732 C742 0.950 . S
H733 C744 0.950 . S
H734 C746 0.950 . S
H735 C747 0.950 . S
C736 H728 0.950 . S
C736 C737 1.386 . S
C736 C738 1.391 . S
C737 C736 1.386 . S
C737 C741 1.393 . S
C738 H730 0.950 . S
C738 C736 1.391 . S
C738 C739 1.400 . S
C739 C738 1.400 . S
C739 C740 1.398 . S
C739 C745 1.491 . S
C740 H731 0.950 . S
C740 C739 1.398 . S
C740 C741 1.391 . S
C741 H729 0.950 . S
C741 C737 1.393 . S
C741 C740 1.391 . S
C742 H732 0.950 . S
C742 C743 1.386 . S
C742 C744 1.391 . S
C743 C742 1.386 . S
C743 C747 1.393 . S
C744 H733 0.950 . S
C744 C742 1.391 . S
C744 C745 1.400 . S
C745 C739 1.491 . S
C745 C744 1.400 . S
C745 C746 1.398 . S
C746 H734 0.950 . S
C746 C745 1.398 . S
C746 C747 1.391 . S
C747 H735 0.950 . S
C747 C743 1.393 . S
C747 C746 1.391 . S
H748 C756 0.950 . S
H749 C761 0.950 . S
H750 C758 0.950 . S
H751 C760 0.950 . S
H752 C762 0.950 . S
H753 C764 0.950 . S
H754 C766 0.950 . S
H755 C767 0.950 . S
C756 H748 0.950 . S
C756 C757 1.386 . S
C756 C758 1.391 . S
C757 C756 1.386 . S
C757 C761 1.393 . S
C758 H750 0.950 . S
C758 C756 1.391 . S
C758 C759 1.400 . S
C759 C758 1.400 . S
C759 C760 1.398 . S
C759 C765 1.491 . S
C760 H751 0.950 . S
C760 C759 1.398 . S
C760 C761 1.391 . S
C761 H749 0.950 . S
C761 C757 1.393 . S
C761 C760 1.391 . S
C762 H752 0.950 . S
C762 C763 1.386 . S
C762 C764 1.391 . S
C763 C762 1.386 . S
C763 C767 1.393 . S
C764 H753 0.950 . S
C764 C762 1.391 . S
C764 C765 1.400 . S
C765 C759 1.491 . S
C765 C764 1.400 . S
C765 C766 1.398 . S
C766 H754 0.950 . S
C766 C765 1.398 . S
C766 C767 1.391 . S
C767 H755 0.950 . S
C767 C763 1.393 . S
C767 C766 1.391 . S
H768 C776 0.950 . S
H769 C781 0.950 . S
H770 C778 0.950 . S
H771 C780 0.950 . S
H772 C782 0.950 . S
H773 C784 0.950 . S
H774 C786 0.950 . S
H775 C787 0.950 . S
C776 H768 0.950 . S
C776 C777 1.386 . S
C776 C778 1.391 . S
C777 C776 1.386 . S
C777 C781 1.393 . S
C778 H770 0.950 . S
C778 C776 1.391 . S
C778 C779 1.400 . S
C779 C778 1.400 . S
C779 C780 1.398 . S
C779 C785 1.491 . S
C780 H771 0.950 . S
C780 C779 1.398 . S
C780 C781 1.391 . S
C781 H769 0.950 . S
C781 C777 1.393 . S
C781 C780 1.391 . S
C782 H772 0.950 . S
C782 C783 1.386 . S
C782 C784 1.391 . S
C783 C782 1.386 . S
C783 C787 1.393 . S
C784 H773 0.950 . S
C784 C782 1.391 . S
C784 C785 1.400 . S
C785 C779 1.491 . S
C785 C784 1.400 . S
C785 C786 1.398 . S
C786 H774 0.950 . S
C786 C785 1.398 . S
C786 C787 1.391 . S
C787 H775 0.950 . S
C787 C783 1.393 . S
C787 C786 1.391 . S
H788 C796 0.950 . S
H789 C801 0.950 . S
H790 C798 0.950 . S
H791 C800 0.950 . S
H792 C802 0.950 . S
H793 C804 0.950 . S
H794 C806 0.950 . S
H795 C807 0.950 . S
C796 H788 0.950 . S
C796 C797 1.386 . S
C796 C798 1.391 . S
C797 C796 1.386 . S
C797 C801 1.393 . S
C798 H790 0.950 . S
C798 C796 1.391 . S
C798 C799 1.400 . S
C799 C798 1.400 . S
C799 C800 1.398 . S
C799 C805 1.491 . S
C800 H791 0.950 . S
C800 C799 1.398 . S
C800 C801 1.391 . S
C801 H789 0.950 . S
C801 C797 1.393 . S
C801 C800 1.391 . S
C802 H792 0.950 . S
C802 C803 1.386 . S
C802 C804 1.391 . S
C803 C802 1.386 . S
C803 C807 1.393 . S
C804 H793 0.950 . S
C804 C802 1.391 . S
C804 C805 1.400 . S
C805 C799 1.491 . S
C805 C804 1.400 . S
C805 C806 1.398 . S
C806 H794 0.950 . S
C806 C805 1.398 . S
C806 C807 1.391 . S
C807 H795 0.950 . S
C807 C803 1.393 . S
C807 C806 1.391 . S
H808 C816 0.950 . S
H809 C821 0.950 . S
H810 C818 0.950 . S
H811 C820 0.950 . S
H812 C822 0.950 . S
H813 C824 0.950 . S
H814 C826 0.950 . S
H815 C827 0.950 . S
C816 H808 0.950 . S
C816 C817 1.386 . S
C816 C818 1.391 . S
C817 C816 1.386 . S
C817 C821 1.393 . S
C818 H810 0.950 . S
C818 C816 1.391 . S
C818 C819 1.400 . S
C819 C818 1.400 . S
C819 C820 1.398 . S
C819 C825 1.491 . S
C820 H811 0.950 . S
C820 C819 1.398 . S
C820 C821 1.391 . S
C821 H809 0.950 . S
C821 C817 1.393 . S
C821 C820 1.391 . S
C822 H812 0.950 . S
C822 C823 1.386 . S
C822 C824 1.391 . S
C823 C822 1.386 . S
C823 C827 1.393 . S
C824 H813 0.950 . S
C824 C822 1.391 . S
C824 C825 1.400 . S
C825 C819 1.491 . S
C825 C824 1.400 . S
C825 C826 1.398 . S
C826 H814 0.950 . S
C826 C825 1.398 . S
C826 C827 1.391 . S
C827 H815 0.950 . S
C827 C823 1.393 . S
C827 C826 1.391 . S
H828 C836 0.950 . S
H829 C841 0.950 . S
H830 C838 0.950 . S
H831 C840 0.950 . S
H832 C842 0.950 . S
H833 C844 0.950 . S
H834 C846 0.950 . S
H835 C847 0.950 . S
C836 H828 0.950 . S
C836 C837 1.386 . S
C836 C838 1.391 . S
C837 C836 1.386 . S
C837 C841 1.393 . S
C838 H830 0.950 . S
C838 C836 1.391 . S
C838 C839 1.400 . S
C839 C838 1.400 . S
C839 C840 1.398 . S
C839 C845 1.491 . S
C840 H831 0.950 . S
C840 C839 1.398 . S
C840 C841 1.391 . S
C841 H829 0.950 . S
C841 C837 1.393 . S
C841 C840 1.391 . S
C842 H832 0.950 . S
C842 C843 1.386 . S
C842 C844 1.391 . S
C843 C842 1.386 . S
C843 C847 1.393 . S
C844 H833 0.950 . S
C844 C842 1.391 . S
C844 C845 1.400 . S
C845 C839 1.491 . S
C845 C844 1.400 . S
C845 C846 1.398 . S
C846 H834 0.950 . S
C846 C845 1.398 . S
C846 C847 1.391 . S
C847 H835 0.950 . S
C847 C843 1.393 . S
C847 C846 1.391 . S
H848 C856 0.950 . S
H849 C861 0.950 . S
H850 C858 0.950 . S
H851 C860 0.950 . S
H852 C862 0.950 . S
H853 C864 0.950 . S
H854 C866 0.950 . S
H855 C867 0.950 . S
C856 H848 0.950 . S
C856 C857 1.386 . S
C856 C858 1.391 . S
C857 C856 1.386 . S
C857 C861 1.393 . S
C858 H850 0.950 . S
C858 C856 1.391 . S
C858 C859 1.400 . S
C859 C858 1.400 . S
C859 C860 1.398 . S
C859 C865 1.491 . S
C860 H851 0.950 . S
C860 C859 1.398 . S
C860 C861 1.391 . S
C861 H849 0.950 . S
C861 C857 1.393 . S
C861 C860 1.391 . S
C862 H852 0.950 . S
C862 C863 1.386 . S
C862 C864 1.391 . S
C863 C862 1.386 . S
C863 C867 1.393 . S
C864 H853 0.950 . S
C864 C862 1.391 . S
C864 C865 1.400 . S
C865 C859 1.491 . S
C865 C864 1.400 . S
C865 C866 1.398 . S
C866 H854 0.950 . S
C866 C865 1.398 . S
C866 C867 1.391 . S
C867 H855 0.950 . S
C867 C863 1.393 . S
C867 C866 1.391 . S
H868 C876 0.950 . S
H869 C881 0.950 . S
H870 C878 0.950 . S
H871 C880 0.950 . S
H872 C882 0.950 . S
H873 C884 0.950 . S
H874 C886 0.950 . S
H875 C887 0.950 . S
C876 H868 0.950 . S
C876 C877 1.386 . S
C876 C878 1.391 . S
C877 C876 1.386 . S
C877 C881 1.393 . S
C878 H870 0.950 . S
C878 C876 1.391 . S
C878 C879 1.400 . S
C879 C878 1.400 . S
C879 C880 1.398 . S
C879 C885 1.491 . S
C880 H871 0.950 . S
C880 C879 1.398 . S
C880 C881 1.391 . S
C881 H869 0.950 . S
C881 C877 1.393 . S
C881 C880 1.391 . S
C882 H872 0.950 . S
C882 C883 1.386 . S
C882 C884 1.391 . S
C883 C882 1.386 . S
C883 C887 1.393 . S
C884 H873 0.950 . S
C884 C882 1.391 . S
C884 C885 1.400 . S
C885 C879 1.491 . S
C885 C884 1.400 . S
C885 C886 1.398 . S
C886 H874 0.950 . S
C886 C885 1.398 . S
C886 C887 1.391 . S
C887 H875 0.950 . S
C887 C883 1.393 . S
C887 C886 1.391 . S
H888 C896 0.950 . S
H889 C901 0.950 . S
H890 C898 0.950 . S
H891 C900 0.950 . S
H892 C902 0.950 . S
H893 C904 0.950 . S
H894 C906 0.950 . S
H895 C907 0.950 . S
C896 H888 0.950 . S
C896 C897 1.386 . S
C896 C898 1.391 . S
C897 C896 1.386 . S
C897 C901 1.393 . S
C898 H890 0.950 . S
C898 C896 1.391 . S
C898 C899 1.400 . S
C899 C898 1.400 . S
C899 C900 1.398 . S
C899 C905 1.491 . S
C900 H891 0.950 . S
C900 C899 1.398 . S
C900 C901 1.391 . S
C901 H889 0.950 . S
C901 C897 1.393 . S
C901 C900 1.391 . S
C902 H892 0.950 . S
C902 C903 1.386 . S
C902 C904 1.391 . S
C903 C902 1.386 . S
C903 C907 1.393 . S
C904 H893 0.950 . S
C904 C902 1.391 . S
C904 C905 1.400 . S
C905 C899 1.491 . S
C905 C904 1.400 . S
C905 C906 1.398 . S
C906 H894 0.950 . S
C906 C905 1.398 . S
C906 C907 1.391 . S
C907 H895 0.950 . S
C907 C903 1.393 . S
C907 C906 1.391 . S
H908 C916 0.950 . S
H909 C921 0.950 . S
H910 C918 0.950 . S
H911 C920 0.950 . S
H912 C922 0.950 . S
H913 C924 0.950 . S
H914 C926 0.950 . S
H915 C927 0.950 . S
C916 H908 0.950 . S
C916 C917 1.386 . S
C916 C918 1.391 . S
C917 C916 1.386 . S
C917 C921 1.393 . S
C918 H910 0.950 . S
C918 C916 1.391 . S
C918 C919 1.400 . S
C919 C918 1.400 . S
C919 C920 1.398 . S
C919 C925 1.491 . S
C920 H911 0.950 . S
C920 C919 1.398 . S
C920 C921 1.391 . S
C921 H909 0.950 . S
C921 C917 1.393 . S
C921 C920 1.391 . S
C922 H912 0.950 . S
C922 C923 1.386 . S
C922 C924 1.391 . S
C923 C922 1.386 . S
C923 C927 1.393 . S
C924 H913 0.950 . S
C924 C922 1.391 . S
C924 C925 1.400 . S
C925 C919 1.491 . S
C925 C924 1.400 . S
C925 C926 1.398 . S
C926 H914 0.950 . S
C926 C925 1.398 . S
C926 C927 1.391 . S
C927 H915 0.950 . S
C927 C923 1.393 . S
C927 C926 1.391 . S
H928 C936 0.950 . S
H929 C941 0.950 . S
H930 C938 0.950 . S
H931 C940 0.950 . S
H932 C942 0.950 . S
H933 C944 0.950 . S
H934 C946 0.950 . S
H935 C947 0.950 . S
C936 H928 0.950 . S
C936 C937 1.386 . S
C936 C938 1.391 . S
C937 C936 1.386 . S
C937 C941 1.393 . S
C938 H930 0.950 . S
C938 C936 1.391 . S
C938 C939 1.400 . S
C939 C938 1.400 . S
C939 C940 1.398 . S
C939 C945 1.491 . S
C940 H931 0.950 . S
C940 C939 1.398 . S
C940 C941 1.391 . S
C941 H929 0.950 . S
C941 C937 1.393 . S
C941 C940 1.391 . S
C942 H932 0.950 . S
C942 C943 1.386 . S
C942 C944 1.391 . S
C943 C942 1.386 . S
C943 C947 1.393 . S
C944 H933 0.950 . S
C944 C942 1.391 . S
C944 C945 1.400 . S
C945 C939 1.491 . S
C945 C944 1.400 . S
C945 C946 1.398 . S
C946 H934 0.950 . S
C946 C945 1.398 . S
C946 C947 1.391 . S
C947 H935 0.950 . S
C947 C943 1.393 . S
C947 C946 1.391 . S
H948 C956 0.950 . S
H949 C961 0.950 . S
H950 C958 0.950 . S
H951 C960 0.950 . S
H952 C962 0.950 . S
H953 C964 0.950 . S
H954 C966 0.950 . S
H955 C967 0.950 . S
C956 H948 0.950 . S
C956 C957 1.386 . S
C956 C958 1.391 . S
C957 C956 1.386 . S
C957 C961 1.393 . S
C958 H950 0.950 . S
C958 C956 1.391 . S
C958 C959 1.400 . S
C959 C958 1.400 . S
C959 C960 1.398 . S
C959 C965 1.491 . S
C960 H951 0.950 . S
C960 C959 1.398 . S
C960 C961 1.391 . S
C961 H949 0.950 . S
C961 C957 1.393 . S
C961 C960 1.391 . S
C962 H952 0.950 . S
C962 C963 1.386 . S
C962 C964 1.391 . S
C963 C962 1.386 . S
C963 C967 1.393 . S
C964 H953 0.950 . S
C964 C962 1.391 . S
C964 C965 1.400 . S
C965 C959 1.491 . S
C965 C964 1.400 . S
C965 C966 1.398 . S
C966 H954 0.950 . S
C966 C965 1.398 . S
C966 C967 1.391 . S
C967 H955 0.950 . S
C967 C963 1.393 . S
C967 C966 1.391 . S
H968 C976 0.950 . S
H969 C981 0.950 . S
H970 C978 0.950 . S
H971 C980 0.950 . S
H972 C982 0.950 . S
H973 C984 0.950 . S
H974 C986 0.950 . S
H975 C987 0.950 . S
C976 H968 0.950 . S
C976 C977 1.386 . S
C976 C978 1.391 . S
C977 C976 1.386 . S
C977 C981 1.393 . S
C978 H970 0.950 . S
C978 C976 1.391 . S
C978 C979 1.400 . S
C979 C978 1.400 . S
C979 C980 1.398 . S
C979 C985 1.491 . S
C980 H971 0.950 . S
C980 C979 1.398 . S
C980 C981 1.391 . S
C981 H969 0.950 . S
C981 C977 1.393 . S
C981 C980 1.391 . S
C982 H972 0.950 . S
C982 C983 1.386 . S
C982 C984 1.391 . S
C983 C982 1.386 . S
C983 C987 1.393 . S
C984 H973 0.950 . S
C984 C982 1.391 . S
C984 C985 1.400 . S
C985 C979 1.491 . S
C985 C984 1.400 . S
C985 C986 1.398 . S
C986 H974 0.950 . S
C986 C985 1.398 . S
C986 C987 1.391 . S
C987 H975 0.950 . S
C987 C983 1.393 . S
C987 C986 1.391 . S
H988 C996 0.950 . S
H989 C1001 0.950 . S
H990 C998 0.950 . S
H991 C1000 0.950 . S
H992 C1002 0.950 . S
H993 C1004 0.950 . S
H994 C1006 0.950 . S
H995 C1007 0.950 . S
C996 H988 0.950 . S
C996 C997 1.386 . S
C996 C998 1.391 . S
C997 C996 1.386 . S
C997 C1001 1.393 . S
C998 H990 0.950 . S
C998 C996 1.391 . S
C998 C999 1.400 . S
C999 C998 1.400 . S
C999 C1000 1.398 . S
C999 C1005 1.491 . S
C1000 H991 0.950 . S
C1000 C999 1.398 . S
C1000 C1001 1.391 . S
C1001 H989 0.950 . S
C1001 C997 1.393 . S
C1001 C1000 1.391 . S
C1002 H992 0.950 . S
C1002 C1003 1.386 . S
C1002 C1004 1.391 . S
C1003 C1002 1.386 . S
C1003 C1007 1.393 . S
C1004 H993 0.950 . S
C1004 C1002 1.391 . S
C1004 C1005 1.400 . S
C1005 C999 1.491 . S
C1005 C1004 1.400 . S
C1005 C1006 1.398 . S
C1006 H994 0.950 . S
C1006 C1005 1.398 . S
C1006 C1007 1.391 . S
C1007 H995 0.950 . S
C1007 C1003 1.393 . S
C1007 C1006 1.391 . S
H1008 C1016 0.950 . S
H1009 C1021 0.950 . S
H1010 C1018 0.950 . S
H1011 C1020 0.950 . S
H1012 C1022 0.950 . S
H1013 C1024 0.950 . S
H1014 C1026 0.950 . S
H1015 C1027 0.950 . S
C1016 H1008 0.950 . S
C1016 C1017 1.386 . S
C1016 C1018 1.391 . S
C1017 C1016 1.386 . S
C1017 C1021 1.393 . S
C1018 H1010 0.950 . S
C1018 C1016 1.391 . S
C1018 C1019 1.400 . S
C1019 C1018 1.400 . S
C1019 C1020 1.398 . S
C1019 C1025 1.491 . S
C1020 H1011 0.950 . S
C1020 C1019 1.398 . S
C1020 C1021 1.391 . S
C1021 H1009 0.950 . S
C1021 C1017 1.393 . S
C1021 C1020 1.391 . S
C1022 H1012 0.950 . S
C1022 C1023 1.386 . S
C1022 C1024 1.391 . S
C1023 C1022 1.386 . S
C1023 C1027 1.393 . S
C1024 H1013 0.950 . S
C1024 C1022 1.391 . S
C1024 C1025 1.400 . S
C1025 C1019 1.491 . S
C1025 C1024 1.400 . S
C1025 C1026 1.398 . S
C1026 H1014 0.950 . S
C1026 C1025 1.398 . S
C1026 C1027 1.391 . S
C1027 H1015 0.950 . S
C1027 C1023 1.393 . S
C1027 C1026 1.391 . S
H1028 C1036 0.950 . S
H1029 C1041 0.950 . S
H1030 C1038 0.950 . S
H1031 C1040 0.950 . S
H1032 C1042 0.950 . S
H1033 C1044 0.950 . S
H1034 C1046 0.950 . S
H1035 C1047 0.950 . S
C1036 H1028 0.950 . S
C1036 C1037 1.386 . S
C1036 C1038 1.391 . S
C1037 C1036 1.386 . S
C1037 C1041 1.393 . S
C1038 H1030 0.950 . S
C1038 C1036 1.391 . S
C1038 C1039 1.400 . S
C1039 C1038 1.400 . S
C1039 C1040 1.398 . S
C1039 C1045 1.491 . S
C1040 H1031 0.950 . S
C1040 C1039 1.398 . S
C1040 C1041 1.391 . S
C1041 H1029 0.950 . S
C1041 C1037 1.393 . S
C1041 C1040 1.391 . S
C1042 H1032 0.950 . S
C1042 C1043 1.386 . S
C1042 C1044 1.391 . S
C1043 C1042 1.386 . S
C1043 C1047 1.393 . S
C1044 H1033 0.950 . S
C1044 C1042 1.391 . S
C1044 C1045 1.400 . S
C1045 C1039 1.491 . S
C1045 C1044 1.400 . S
C1045 C1046 1.398 . S
C1046 H1034 0.950 . S
C1046 C1045 1.398 . S
C1046 C1047 1.391 . S
C1047 H1035 0.950 . S
C1047 C1043 1.393 . S
C1047 C1046 1.391 . S
H1048 C1056 0.950 . S
H1049 C1061 0.950 . S
H1050 C1058 0.950 . S
H1051 C1060 0.950 . S
H1052 C1062 0.950 . S
H1053 C1064 0.950 . S
H1054 C1066 0.950 . S
H1055 C1067 0.950 . S
C1056 H1048 0.950 . S
C1056 C1057 1.386 . S
C1056 C1058 1.391 . S
C1057 C1056 1.386 . S
C1057 C1061 1.393 . S
C1058 H1050 0.950 . S
C1058 C1056 1.391 . S
C1058 C1059 1.400 . S
C1059 C1058 1.400 . S
C1059 C1060 1.398 . S
C1059 C1065 1.491 . S
C1060 H1051 0.950 . S
C1060 C1059 1.398 . S
C1060 C1061 1.391 . S
C1061 H1049 0.950 . S
C1061 C1057 1.393 . S
C1061 C1060 1.391 . S
C1062 H1052 0.950 . S
C1062 C1063 1.386 . S
C1062 C1064 1.391 . S
C1063 C1062 1.386 . S
C1063 C1067 1.393 . S
C1064 H1053 0.950 . S
C1064 C1062 1.391 . S
C1064 C1065 1.400 . S
C1065 C1059 1.491 . S
C1065 C1064 1.400 . S
C1065 C1066 1.398 . S
C1066 H1054 0.950 . S
C1066 C1065 1.398 . S
C1066 C1067 1.391 . S
C1067 H1055 0.950 . S
C1067 C1063 1.393 . S
C1067 C1066 1.391 . S
H1068 C1076 0.950 . S
H1069 C1081 0.950 . S
H1070 C1078 0.950 . S
H1071 C1080 0.950 . S
H1072 C1082 0.950 . S
H1073 C1084 0.950 . S
H1074 C1086 0.950 . S
H1075 C1087 0.950 . S
C1076 H1068 0.950 . S
C1076 C1077 1.386 . S
C1076 C1078 1.391 . S
C1077 C1076 1.386 . S
C1077 C1081 1.393 . S
C1078 H1070 0.950 . S
C1078 C1076 1.391 . S
C1078 C1079 1.400 . S
C1079 C1078 1.400 . S
C1079 C1080 1.398 . S
C1079 C1085 1.491 . S
C1080 H1071 0.950 . S
C1080 C1079 1.398 . S
C1080 C1081 1.391 . S
C1081 H1069 0.950 . S
C1081 C1077 1.393 . S
C1081 C1080 1.391 . S
C1082 H1072 0.950 . S
C1082 C1083 1.386 . S
C1082 C1084 1.391 . S
C1083 C1082 1.386 . S
C1083 C1087 1.393 . S
C1084 H1073 0.950 . S
C1084 C1082 1.391 . S
C1084 C1085 1.400 . S
C1085 C1079 1.491 . S
C1085 C1084 1.400 . S
C1085 C1086 1.398 . S
C1086 H1074 0.950 . S
C1086 C1085 1.398 . S
C1086 C1087 1.391 . S
C1087 H1075 0.950 . S
C1087 C1083 1.393 . S
C1087 C1086 1.391 . S
H1088 C1096 0.950 . S
H1089 C1101 0.950 . S
H1090 C1098 0.950 . S
H1091 C1100 0.950 . S
H1092 C1102 0.950 . S
H1093 C1104 0.950 . S
H1094 C1106 0.950 . S
H1095 C1107 0.950 . S
C1096 H1088 0.950 . S
C1096 C1097 1.386 . S
C1096 C1098 1.391 . S
C1097 C1096 1.386 . S
C1097 C1101 1.393 . S
C1098 H1090 0.950 . S
C1098 C1096 1.391 . S
C1098 C1099 1.400 . S
C1099 C1098 1.400 . S
C1099 C1100 1.398 . S
C1099 C1105 1.491 1_655 S
C1100 H1091 0.950 . S
C1100 C1099 1.398 . S
C1100 C1101 1.391 . S
C1101 H1089 0.950 . S
C1101 C1097 1.393 . S
C1101 C1100 1.391 . S
C1102 H1092 0.950 . S
C1102 C1103 1.386 . S
C1102 C1104 1.391 . S
C1103 C1102 1.386 . S
C1103 C1107 1.393 . S
C1104 H1093 0.950 . S
C1104 C1102 1.391 . S
C1104 C1105 1.400 . S
C1105 C1099 1.491 1_455 S
C1105 C1104 1.400 . S
C1105 C1106 1.398 . S
C1106 H1094 0.950 . S
C1106 C1105 1.398 . S
C1106 C1107 1.391 . S
C1107 H1095 0.950 . S
C1107 C1103 1.393 . S
C1107 C1106 1.391 . S
H1108 C1116 0.950 . S
H1109 C1121 0.950 . S
H1110 C1118 0.950 . S
H1111 C1120 0.950 1_545 S
H1112 C1122 0.950 . S
H1113 C1124 0.950 . S
H1114 C1126 0.950 1_565 S
H1115 C1127 0.950 . S
C1116 H1108 0.950 . S
C1116 C1117 1.386 . S
C1116 C1118 1.391 . S
C1117 C1116 1.386 . S
C1117 C1121 1.393 . S
C1118 H1110 0.950 . S
C1118 C1116 1.391 . S
C1118 C1119 1.400 . S
C1119 C1118 1.400 . S
C1119 C1120 1.398 . S
C1119 C1125 1.491 1_565 S
C1120 H1111 0.950 1_565 S
C1120 C1119 1.398 . S
C1120 C1121 1.391 . S
C1121 H1109 0.950 . S
C1121 C1117 1.393 . S
C1121 C1120 1.391 . S
C1122 H1112 0.950 . S
C1122 C1123 1.386 . S
C1122 C1124 1.391 . S
C1123 C1122 1.386 . S
C1123 C1127 1.393 . S
C1124 H1113 0.950 . S
C1124 C1122 1.391 . S
C1124 C1125 1.400 . S
C1125 C1119 1.491 1_545 S
C1125 C1124 1.400 . S
C1125 C1126 1.398 . S
C1126 H1114 0.950 1_545 S
C1126 C1125 1.398 . S
C1126 C1127 1.391 . S
C1127 H1115 0.950 . S
C1127 C1123 1.393 . S
C1127 C1126 1.391 . S
H1128 C1136 0.950 . S
H1129 C1141 0.950 . S
H1130 C1138 0.950 1_565 S
H1131 C1140 0.950 1_556 S
H1132 C1142 0.950 . S
H1133 C1144 0.950 1_545 S
H1134 C1146 0.950 1_554 S
H1135 C1147 0.950 . S
C1136 H1128 0.950 . S
C1136 C1137 1.386 . S
C1136 C1138 1.391 . S
C1137 C1136 1.386 . S
C1137 C1141 1.393 . S
C1138 H1130 0.950 1_545 S
C1138 C1136 1.391 . S
C1138 C1139 1.400 . S
C1139 C1138 1.400 . S
C1139 C1140 1.398 1_655 S
C1139 C1145 1.491 1_644 S
C1140 H1131 0.950 1_554 S
C1140 C1139 1.398 1_455 S
C1140 C1141 1.391 1_455 S
C1141 H1129 0.950 . S
C1141 C1137 1.393 . S
C1141 C1140 1.391 1_655 S
C1142 H1132 0.950 . S
C1142 C1143 1.386 . S
C1142 C1144 1.391 . S
C1143 C1142 1.386 . S
C1143 C1147 1.393 . S
C1144 H1133 0.950 1_565 S
C1144 C1142 1.391 . S
C1144 C1145 1.400 . S
C1145 C1139 1.491 1_466 S
C1145 C1144 1.400 . S
C1145 C1146 1.398 1_455 S
C1146 H1134 0.950 1_556 S
C1146 C1145 1.398 1_655 S
C1146 C1147 1.391 1_655 S
C1147 H1135 0.950 . S
C1147 C1143 1.393 . S
C1147 C1146 1.391 1_455 S
H1148 C1156 0.950 1_556 S
H1149 C1161 0.950 . S
H1150 C1158 0.950 . S
H1151 C1160 0.950 . S
H1152 C1162 0.950 1_554 S
H1153 C1164 0.950 . S
H1154 C1166 0.950 . S
H1155 C1167 0.950 . S
C1156 H1148 0.950 1_554 S
C1156 C1157 1.386 . S
C1156 C1158 1.391 1_554 S
C1157 C1156 1.386 . S
C1157 C1161 1.393 . S
C1158 H1150 0.950 . S
C1158 C1156 1.391 1_556 S
C1158 C1159 1.400 1_556 S
C1159 C1158 1.400 1_554 S
C1159 C1160 1.398 . S
C1159 C1165 1.491 1_554 S
C1160 H1151 0.950 . S
C1160 C1159 1.398 . S
C1160 C1161 1.391 . S
C1161 H1149 0.950 . S
C1161 C1157 1.393 . S
C1161 C1160 1.391 . S
C1162 H1152 0.950 1_556 S
C1162 C1163 1.386 . S
C1162 C1164 1.391 1_556 S
C1163 C1162 1.386 . S
C1163 C1167 1.393 . S
C1164 H1153 0.950 . S
C1164 C1162 1.391 1_554 S
C1164 C1165 1.400 1_554 S
C1165 C1159 1.491 1_556 S
C1165 C1164 1.400 1_556 S
C1165 C1166 1.398 . S
C1166 H1154 0.950 . S
C1166 C1165 1.398 . S
C1166 C1167 1.391 . S
C1167 H1155 0.950 . S
C1167 C1163 1.393 . S
C1167 C1166 1.391 . S
H1168 C1176 0.950 1_455 S
H1169 C1181 0.950 . S
H1170 C1178 0.950 . S
H1171 C1180 0.950 . S
H1172 C1182 0.950 1_655 S
H1173 C1184 0.950 . S
H1174 C1186 0.950 . S
H1175 C1187 0.950 . S
C1176 H1168 0.950 1_655 S
C1176 C1177 1.386 . S
C1176 C1178 1.391 1_655 S
C1177 C1176 1.386 . S
C1177 C1181 1.393 . S
C1178 H1170 0.950 . S
C1178 C1176 1.391 1_455 S
C1178 C1179 1.400 1_455 S
C1179 C1178 1.400 1_655 S
C1179 C1180 1.398 . S
C1179 C1185 1.491 1_655 S
C1180 H1171 0.950 . S
C1180 C1179 1.398 . S
C1180 C1181 1.391 . S
C1181 H1169 0.950 . S
C1181 C1177 1.393 . S
C1181 C1180 1.391 . S
C1182 H1172 0.950 1_455 S
C1182 C1183 1.386 . S
C1182 C1184 1.391 1_455 S
C1183 C1182 1.386 . S
C1183 C1187 1.393 . S
C1184 H1173 0.950 . S
C1184 C1182 1.391 1_655 S
C1184 C1185 1.400 1_655 S
C1185 C1179 1.491 1_455 S
C1185 C1184 1.400 1_455 S
C1185 C1186 1.398 . S
C1186 H1174 0.950 . S
C1186 C1185 1.398 . S
C1186 C1187 1.391 . S
C1187 H1175 0.950 . S
C1187 C1183 1.393 . S
C1187 C1186 1.391 . S
H1188 C1196 0.950 . S
H1189 C1201 0.950 . S
H1190 C1198 0.950 1_545 S
H1191 C1200 0.950 . S
H1192 C1202 0.950 . S
H1193 C1204 0.950 1_565 S
H1194 C1206 0.950 . S
H1195 C1207 0.950 . S
C1196 H1188 0.950 . S
C1196 C1197 1.386 . S
C1196 C1198 1.391 . S
C1197 C1196 1.386 . S
C1197 C1201 1.393 . S
C1198 H1190 0.950 1_565 S
C1198 C1196 1.391 . S
C1198 C1199 1.400 . S
C1199 C1198 1.400 . S
C1199 C1200 1.398 . S
C1199 C1205 1.491 1_565 S
C1200 H1191 0.950 . S
C1200 C1199 1.398 . S
C1200 C1201 1.391 . S
C1201 H1189 0.950 . S
C1201 C1197 1.393 . S
C1201 C1200 1.391 . S
C1202 H1192 0.950 . S
C1202 C1203 1.386 . S
C1202 C1204 1.391 . S
C1203 C1202 1.386 . S
C1203 C1207 1.393 . S
C1204 H1193 0.950 1_545 S
C1204 C1202 1.391 . S
C1204 C1205 1.400 . S
C1205 C1199 1.491 1_545 S
C1205 C1204 1.400 . S
C1205 C1206 1.398 . S
C1206 H1194 0.950 . S
C1206 C1205 1.398 . S
C1206 C1207 1.391 . S
C1207 H1195 0.950 . S
C1207 C1203 1.393 . S
C1207 C1206 1.391 . S
H1208 C1216 0.950 . S
H1209 C1221 0.961 . S
H1210 C1218 0.950 . S
H1211 C1220 0.950 . S
H1212 C1222 0.950 . S
H1213 C1224 0.950 . S
H1214 C1226 0.950 . S
H1215 C1227 0.961 . S
C1216 H1208 0.950 . S
C1216 C1217 1.386 . S
C1216 C1218 1.391 . S
C1217 C1216 1.386 . S
C1217 C1221 1.393 . S
C1218 H1210 0.950 . S
C1218 C1216 1.391 . S
C1218 C1219 1.400 . S
C1219 C1218 1.400 . S
C1219 C1220 1.398 1_556 S
C1219 C1225 1.491 1_556 S
C1220 H1211 0.950 . S
C1220 C1219 1.398 1_554 S
C1220 C1221 1.391 1_554 S
C1221 H1209 0.961 . S
C1221 C1217 1.393 . S
C1221 C1220 1.391 1_556 S
C1222 H1212 0.950 . S
C1222 C1223 1.386 . S
C1222 C1224 1.391 . S
C1223 C1222 1.386 . S
C1223 C1227 1.393 . S
C1224 H1213 0.950 . S
C1224 C1222 1.391 . S
C1224 C1225 1.400 . S
C1225 C1219 1.491 1_554 S
C1225 C1224 1.400 . S
C1225 C1226 1.398 1_554 S
C1226 H1214 0.950 . S
C1226 C1225 1.398 1_556 S
C1226 C1227 1.391 1_556 S
C1227 H1215 0.961 . S
C1227 C1223 1.393 . S
C1227 C1226 1.391 1_554 S
H1228 C1236 0.950 . S
H1229 C1241 0.950 . S
H1230 C1238 0.950 . S
H1231 C1240 0.950 . S
H1232 C1242 0.950 . S
H1233 C1244 0.950 . S
H1234 C1246 0.950 . S
H1235 C1247 0.950 . S
C1236 H1228 0.950 . S
C1236 C1237 1.386 . S
C1236 C1238 1.391 . S
C1237 C1236 1.386 . S
C1237 C1241 1.393 . S
C1238 H1230 0.950 . S
C1238 C1236 1.391 . S
C1238 C1239 1.400 . S
C1239 C1238 1.400 . S
C1239 C1240 1.398 . S
C1239 C1245 1.491 . S
C1240 H1231 0.950 . S
C1240 C1239 1.398 . S
C1240 C1241 1.391 . S
C1241 H1229 0.950 . S
C1241 C1237 1.393 . S
C1241 C1240 1.391 . S
C1242 H1232 0.950 . S
C1242 C1243 1.386 . S
C1242 C1244 1.391 . S
C1243 C1242 1.386 . S
C1243 C1247 1.393 . S
C1244 H1233 0.950 . S
C1244 C1242 1.391 . S
C1244 C1245 1.400 . S
C1245 C1239 1.491 . S
C1245 C1244 1.400 . S
C1245 C1246 1.398 . S
C1246 H1234 0.950 . S
C1246 C1245 1.398 . S
C1246 C1247 1.391 . S
C1247 H1235 0.950 . S
C1247 C1243 1.393 . S
C1247 C1246 1.391 . S
H1248 C1256 0.950 1_655 S
H1249 C1261 0.950 . S
H1250 C1258 0.950 . S
H1251 C1260 0.950 . S
H1252 C1262 0.950 1_455 S
H1253 C1264 0.950 . S
H1254 C1266 0.950 . S
H1255 C1267 0.950 . S
C1256 H1248 0.950 1_455 S
C1256 C1257 1.386 . S
C1256 C1258 1.391 1_455 S
C1257 C1256 1.386 . S
C1257 C1261 1.393 . S
C1258 H1250 0.950 . S
C1258 C1256 1.391 1_655 S
C1258 C1259 1.400 1_655 S
C1259 C1258 1.400 1_455 S
C1259 C1260 1.398 . S
C1259 C1265 1.491 1_455 S
C1260 H1251 0.950 . S
C1260 C1259 1.398 . S
C1260 C1261 1.391 . S
C1261 H1249 0.950 . S
C1261 C1257 1.393 . S
C1261 C1260 1.391 . S
C1262 H1252 0.950 1_655 S
C1262 C1263 1.386 . S
C1262 C1264 1.391 1_655 S
C1263 C1262 1.386 . S
C1263 C1267 1.393 . S
C1264 H1253 0.950 . S
C1264 C1262 1.391 1_455 S
C1264 C1265 1.400 1_455 S
C1265 C1259 1.491 1_655 S
C1265 C1264 1.400 1_655 S
C1265 C1266 1.398 . S
C1266 H1254 0.950 . S
C1266 C1265 1.398 . S
C1266 C1267 1.391 . S
C1267 H1255 0.950 . S
C1267 C1263 1.393 . S
C1267 C1266 1.391 . S
H1268 C1276 0.950 . S
H1269 C1281 0.950 . S
H1270 C1278 0.950 . S
H1271 C1280 0.950 . S
H1272 C1282 0.950 . S
H1273 C1284 0.950 . S
H1274 C1286 0.950 . S
H1275 C1287 0.950 . S
C1276 H1268 0.950 . S
C1276 C1277 1.386 . S
C1276 C1278 1.391 . S
C1277 C1276 1.386 . S
C1277 C1281 1.393 . S
C1278 H1270 0.950 . S
C1278 C1276 1.391 . S
C1278 C1279 1.400 . S
C1279 C1278 1.400 . S
C1279 C1280 1.398 . S
C1279 C1285 1.491 . S
C1280 H1271 0.950 . S
C1280 C1279 1.398 . S
C1280 C1281 1.391 . S
C1281 H1269 0.950 . S
C1281 C1277 1.393 . S
C1281 C1280 1.391 . S
C1282 H1272 0.950 . S
C1282 C1283 1.386 . S
C1282 C1284 1.391 . S
C1283 C1282 1.386 . S
C1283 C1287 1.393 . S
C1284 H1273 0.950 . S
C1284 C1282 1.391 . S
C1284 C1285 1.400 . S
C1285 C1279 1.491 . S
C1285 C1284 1.400 . S
C1285 C1286 1.398 . S
C1286 H1274 0.950 . S
C1286 C1285 1.398 . S
C1286 C1287 1.391 . S
C1287 H1275 0.950 . S
C1287 C1283 1.393 . S
C1287 C1286 1.391 . S
H1288 C1296 0.950 . S
H1289 C1301 0.950 . S
H1290 C1298 0.950 . S
H1291 C1300 0.950 . S
H1292 C1302 0.950 . S
H1293 C1304 0.950 . S
H1294 C1306 0.950 . S
H1295 C1307 0.950 . S
C1296 H1288 0.950 . S
C1296 C1297 1.386 . S
C1296 C1298 1.391 . S
C1297 C1296 1.386 . S
C1297 C1301 1.393 . S
C1298 H1290 0.950 . S
C1298 C1296 1.391 . S
C1298 C1299 1.400 . S
C1299 C1298 1.400 . S
C1299 C1300 1.398 . S
C1299 C1305 1.491 . S
C1300 H1291 0.950 . S
C1300 C1299 1.398 . S
C1300 C1301 1.391 . S
C1301 H1289 0.950 . S
C1301 C1297 1.393 . S
C1301 C1300 1.391 . S
C1302 H1292 0.950 . S
C1302 C1303 1.386 . S
C1302 C1304 1.391 . S
C1303 C1302 1.386 . S
C1303 C1307 1.393 . S
C1304 H1293 0.950 . S
C1304 C1302 1.391 . S
C1304 C1305 1.400 . S
C1305 C1299 1.491 . S
C1305 C1304 1.400 . S
C1305 C1306 1.398 . S
C1306 H1294 0.950 . S
C1306 C1305 1.398 . S
C1306 C1307 1.391 . S
C1307 H1295 0.950 . S
C1307 C1303 1.393 . S
C1307 C1306 1.391 . S
H1308 C1316 0.950 . S
H1309 C1321 0.950 . S
H1310 C1318 0.950 . S
H1311 C1320 0.950 . S
H1312 C1322 0.950 . S
H1313 C1324 0.950 . S
H1314 C1326 0.950 . S
H1315 C1327 0.950 . S
C1316 H1308 0.950 . S
C1316 C1317 1.386 . S
C1316 C1318 1.391 . S
C1317 C1316 1.386 . S
C1317 C1321 1.393 . S
C1318 H1310 0.950 . S
C1318 C1316 1.391 . S
C1318 C1319 1.400 . S
C1319 C1318 1.400 . S
C1319 C1320 1.398 . S
C1319 C1325 1.491 . S
C1320 H1311 0.950 . S
C1320 C1319 1.398 . S
C1320 C1321 1.391 . S
C1321 H1309 0.950 . S
C1321 C1317 1.393 . S
C1321 C1320 1.391 . S
C1322 H1312 0.950 . S
C1322 C1323 1.386 . S
C1322 C1324 1.391 . S
C1323 C1322 1.386 . S
C1323 C1327 1.393 . S
C1324 H1313 0.950 . S
C1324 C1322 1.391 . S
C1324 C1325 1.400 . S
C1325 C1319 1.491 . S
C1325 C1324 1.400 . S
C1325 C1326 1.398 . S
C1326 H1314 0.950 . S
C1326 C1325 1.398 . S
C1326 C1327 1.391 . S
C1327 H1315 0.950 . S
C1327 C1323 1.393 . S
C1327 C1326 1.391 . S
H1328 C1336 0.950 . S
H1329 C1341 0.950 . S
H1330 C1338 0.950 . S
H1331 C1340 0.950 . S
H1332 C1342 0.950 . S
H1333 C1344 0.950 . S
H1334 C1346 0.950 . S
H1335 C1347 0.950 . S
C1336 H1328 0.950 . S
C1336 C1337 1.386 . S
C1336 C1338 1.391 . S
C1337 C1336 1.386 . S
C1337 C1341 1.393 . S
C1338 H1330 0.950 . S
C1338 C1336 1.391 . S
C1338 C1339 1.400 . S
C1339 C1338 1.400 . S
C1339 C1340 1.398 . S
C1339 C1345 1.491 . S
C1340 H1331 0.950 . S
C1340 C1339 1.398 . S
C1340 C1341 1.391 . S
C1341 H1329 0.950 . S
C1341 C1337 1.393 . S
C1341 C1340 1.391 . S
C1342 H1332 0.950 . S
C1342 C1343 1.386 . S
C1342 C1344 1.391 . S
C1343 C1342 1.386 . S
C1343 C1347 1.393 . S
C1344 H1333 0.950 . S
C1344 C1342 1.391 . S
C1344 C1345 1.400 . S
C1345 C1339 1.491 . S
C1345 C1344 1.400 . S
C1345 C1346 1.398 . S
C1346 H1334 0.950 . S
C1346 C1345 1.398 . S
C1346 C1347 1.391 . S
C1347 H1335 0.950 . S
C1347 C1343 1.393 . S
C1347 C1346 1.391 . S
H1348 C1356 0.950 . S
H1349 C1361 0.950 . S
H1350 C1358 0.950 . S
H1351 C1360 0.950 . S
H1352 C1362 0.950 . S
H1353 C1364 0.950 . S
H1354 C1366 0.950 . S
H1355 C1367 0.950 . S
C1356 H1348 0.950 . S
C1356 C1357 1.386 . S
C1356 C1358 1.391 . S
C1357 C1356 1.386 . S
C1357 C1361 1.393 . S
C1358 H1350 0.950 . S
C1358 C1356 1.391 . S
C1358 C1359 1.400 . S
C1359 C1358 1.400 . S
C1359 C1360 1.398 . S
C1359 C1365 1.491 1_545 S
C1360 H1351 0.950 . S
C1360 C1359 1.398 . S
C1360 C1361 1.391 . S
C1361 H1349 0.950 . S
C1361 C1357 1.393 . S
C1361 C1360 1.391 . S
C1362 H1352 0.950 . S
C1362 C1363 1.386 . S
C1362 C1364 1.391 . S
C1363 C1362 1.386 . S
C1363 C1367 1.393 . S
C1364 H1353 0.950 . S
C1364 C1362 1.391 . S
C1364 C1365 1.400 . S
C1365 C1359 1.491 1_565 S
C1365 C1364 1.400 . S
C1365 C1366 1.398 . S
C1366 H1354 0.950 . S
C1366 C1365 1.398 . S
C1366 C1367 1.391 . S
C1367 H1355 0.950 . S
C1367 C1363 1.393 . S
C1367 C1366 1.391 . S
H1368 C1376 0.950 . S
H1369 C1381 0.950 . S
H1370 C1378 0.950 . S
H1371 C1380 0.950 . S
H1372 C1382 0.950 . S
H1373 C1384 0.950 . S
H1374 C1386 0.950 . S
H1375 C1387 0.950 . S
C1376 H1368 0.950 . S
C1376 C1377 1.386 . S
C1376 C1378 1.391 . S
C1377 C1376 1.386 . S
C1377 C1381 1.393 . S
C1378 H1370 0.950 . S
C1378 C1376 1.391 . S
C1378 C1379 1.400 . S
C1379 C1378 1.400 . S
C1379 C1380 1.398 . S
C1379 C1385 1.491 . S
C1380 H1371 0.950 . S
C1380 C1379 1.398 . S
C1380 C1381 1.391 . S
C1381 H1369 0.950 . S
C1381 C1377 1.393 . S
C1381 C1380 1.391 . S
C1382 H1372 0.950 . S
C1382 C1383 1.386 . S
C1382 C1384 1.391 . S
C1383 C1382 1.386 . S
C1383 C1387 1.393 . S
C1384 H1373 0.950 . S
C1384 C1382 1.391 . S
C1384 C1385 1.400 . S
C1385 C1379 1.491 . S
C1385 C1384 1.400 . S
C1385 C1386 1.398 . S
C1386 H1374 0.950 . S
C1386 C1385 1.398 . S
C1386 C1387 1.391 . S
C1387 H1375 0.950 . S
C1387 C1383 1.393 . S
C1387 C1386 1.391 . S
H1388 C1396 0.950 . S
H1389 C1401 0.950 . S
H1390 C1398 0.950 . S
H1391 C1400 0.950 . S
H1392 C1402 0.950 . S
H1393 C1404 0.950 . S
H1394 C1406 0.950 . S
H1395 C1407 0.950 . S
C1396 H1388 0.950 . S
C1396 C1397 1.386 . S
C1396 C1398 1.391 . S
C1397 C1396 1.386 . S
C1397 C1401 1.393 . S
C1398 H1390 0.950 . S
C1398 C1396 1.391 . S
C1398 C1399 1.400 . S
C1399 C1398 1.400 . S
C1399 C1400 1.398 . S
C1399 C1405 1.491 1_556 S
C1400 H1391 0.950 . S
C1400 C1399 1.398 . S
C1400 C1401 1.391 . S
C1401 H1389 0.950 . S
C1401 C1397 1.393 . S
C1401 C1400 1.391 . S
C1402 H1392 0.950 . S
C1402 C1403 1.386 . S
C1402 C1404 1.391 . S
C1403 C1402 1.386 . S
C1403 C1407 1.393 . S
C1404 H1393 0.950 . S
C1404 C1402 1.391 . S
C1404 C1405 1.400 . S
C1405 C1399 1.491 1_554 S
C1405 C1404 1.400 . S
C1405 C1406 1.398 . S
C1406 H1394 0.950 . S
C1406 C1405 1.398 . S
C1406 C1407 1.391 . S
C1407 H1395 0.950 . S
C1407 C1403 1.393 . S
C1407 C1406 1.391 . S
H1408 C1416 0.950 . S
H1409 C1421 0.950 . S
H1410 C1418 0.950 . S
H1411 C1420 0.950 . S
H1412 C1422 0.950 . S
H1413 C1424 0.950 . S
H1414 C1426 0.950 . S
H1415 C1427 0.950 . S
C1416 H1408 0.950 . S
C1416 C1417 1.386 . S
C1416 C1418 1.391 . S
C1417 C1416 1.386 . S
C1417 C1421 1.393 . S
C1418 H1410 0.950 . S
C1418 C1416 1.391 . S
C1418 C1419 1.400 . S
C1419 C1418 1.400 . S
C1419 C1420 1.398 . S
C1419 C1425 1.491 . S
C1420 H1411 0.950 . S
C1420 C1419 1.398 . S
C1420 C1421 1.391 . S
C1421 H1409 0.950 . S
C1421 C1417 1.393 . S
C1421 C1420 1.391 . S
C1422 H1412 0.950 . S
C1422 C1423 1.386 . S
C1422 C1424 1.391 . S
C1423 C1422 1.386 . S
C1423 C1427 1.393 . S
C1424 H1413 0.950 . S
C1424 C1422 1.391 . S
C1424 C1425 1.400 . S
C1425 C1419 1.491 . S
C1425 C1424 1.400 . S
C1425 C1426 1.398 . S
C1426 H1414 0.950 . S
C1426 C1425 1.398 . S
C1426 C1427 1.391 . S
C1427 H1415 0.950 . S
C1427 C1423 1.393 . S
C1427 C1426 1.391 . S
H1428 C1436 0.950 . S
H1429 C1441 0.950 . S
H1430 C1438 0.950 . S
H1431 C1440 0.950 . S
H1432 C1442 0.950 . S
H1433 C1444 0.950 . S
H1434 C1446 0.950 . S
H1435 C1447 0.950 . S
C1436 H1428 0.950 . S
C1436 C1437 1.386 . S
C1436 C1438 1.391 . S
C1437 C1436 1.386 . S
C1437 C1441 1.393 . S
C1438 H1430 0.950 . S
C1438 C1436 1.391 . S
C1438 C1439 1.400 . S
C1439 C1438 1.400 . S
C1439 C1440 1.398 . S
C1439 C1445 1.491 . S
C1440 H1431 0.950 . S
C1440 C1439 1.398 . S
C1440 C1441 1.391 . S
C1441 H1429 0.950 . S
C1441 C1437 1.393 . S
C1441 C1440 1.391 . S
C1442 H1432 0.950 . S
C1442 C1443 1.386 . S
C1442 C1444 1.391 . S
C1443 C1442 1.386 . S
C1443 C1447 1.393 . S
C1444 H1433 0.950 . S
C1444 C1442 1.391 . S
C1444 C1445 1.400 . S
C1445 C1439 1.491 . S
C1445 C1444 1.400 . S
C1445 C1446 1.398 . S
C1446 H1434 0.950 . S
C1446 C1445 1.398 . S
C1446 C1447 1.391 . S
C1447 H1435 0.950 . S
C1447 C1443 1.393 . S
C1447 C1446 1.391 . S
H1448 C1456 0.950 . S
H1449 C1461 0.950 . S
H1450 C1458 0.950 . S
H1451 C1460 0.950 . S
H1452 C1462 0.950 . S
H1453 C1464 0.950 . S
H1454 C1466 0.950 . S
H1455 C1467 0.950 . S
C1456 H1448 0.950 . S
C1456 C1457 1.386 . S
C1456 C1458 1.391 . S
C1457 C1456 1.386 . S
C1457 C1461 1.393 . S
C1458 H1450 0.950 . S
C1458 C1456 1.391 . S
C1458 C1459 1.400 . S
C1459 C1458 1.400 . S
C1459 C1460 1.398 . S
C1459 C1465 1.491 . S
C1460 H1451 0.950 . S
C1460 C1459 1.398 . S
C1460 C1461 1.391 . S
C1461 H1449 0.950 . S
C1461 C1457 1.393 . S
C1461 C1460 1.391 . S
C1462 H1452 0.950 . S
C1462 C1463 1.386 . S
C1462 C1464 1.391 . S
C1463 C1462 1.386 . S
C1463 C1467 1.393 . S
C1464 H1453 0.950 . S
C1464 C1462 1.391 . S
C1464 C1465 1.400 . S
C1465 C1459 1.491 . S
C1465 C1464 1.400 . S
C1465 C1466 1.398 . S
C1466 H1454 0.950 . S
C1466 C1465 1.398 . S
C1466 C1467 1.391 . S
C1467 H1455 0.950 . S
C1467 C1463 1.393 . S
C1467 C1466 1.391 . S
H1468 C1476 0.950 . S
H1469 C1481 0.950 . S
H1470 C1478 0.950 . S
H1471 C1480 0.950 . S
H1472 C1482 0.950 . S
H1473 C1484 0.950 . S
H1474 C1486 0.950 . S
H1475 C1487 0.950 . S
C1476 H1468 0.950 . S
C1476 C1477 1.386 . S
C1476 C1478 1.391 . S
C1477 C1476 1.386 . S
C1477 C1481 1.393 . S
C1478 H1470 0.950 . S
C1478 C1476 1.391 . S
C1478 C1479 1.400 . S
C1479 C1478 1.400 . S
C1479 C1480 1.398 . S
C1479 C1485 1.491 . S
C1480 H1471 0.950 . S
C1480 C1479 1.398 . S
C1480 C1481 1.391 . S
C1481 H1469 0.950 . S
C1481 C1477 1.393 . S
C1481 C1480 1.391 . S
C1482 H1472 0.950 . S
C1482 C1483 1.386 . S
C1482 C1484 1.391 . S
C1483 C1482 1.386 . S
C1483 C1487 1.393 . S
C1484 H1473 0.950 . S
C1484 C1482 1.391 . S
C1484 C1485 1.400 . S
C1485 C1479 1.491 . S
C1485 C1484 1.400 . S
C1485 C1486 1.398 . S
C1486 H1474 0.950 . S
C1486 C1485 1.398 . S
C1486 C1487 1.391 . S
C1487 H1475 0.950 . S
C1487 C1483 1.393 . S
C1487 C1486 1.391 . S
H1488 C1496 0.950 . S
H1489 C1501 0.950 . S
H1490 C1498 0.950 . S
H1491 C1500 0.950 . S
H1492 C1502 0.950 . S
H1493 C1504 0.950 . S
H1494 C1506 0.950 . S
H1495 C1507 0.950 . S
C1496 H1488 0.950 . S
C1496 C1497 1.386 . S
C1496 C1498 1.391 . S
C1497 C1496 1.386 . S
C1497 C1501 1.393 . S
C1498 H1490 0.950 . S
C1498 C1496 1.391 . S
C1498 C1499 1.400 . S
C1499 C1498 1.400 . S
C1499 C1500 1.398 . S
C1499 C1505 1.491 . S
C1500 H1491 0.950 . S
C1500 C1499 1.398 . S
C1500 C1501 1.391 . S
C1501 H1489 0.950 . S
C1501 C1497 1.393 . S
C1501 C1500 1.391 . S
C1502 H1492 0.950 . S
C1502 C1503 1.386 . S
C1502 C1504 1.391 . S
C1503 C1502 1.386 . S
C1503 C1507 1.393 . S
C1504 H1493 0.950 . S
C1504 C1502 1.391 . S
C1504 C1505 1.400 . S
C1505 C1499 1.491 . S
C1505 C1504 1.400 . S
C1505 C1506 1.398 . S
C1506 H1494 0.950 . S
C1506 C1505 1.398 . S
C1506 C1507 1.391 . S
C1507 H1495 0.950 . S
C1507 C1503 1.393 . S
C1507 C1506 1.391 . S
H1508 C1516 0.950 . S
H1509 C1521 0.950 . S
H1510 C1518 0.950 . S
H1511 C1520 0.950 . S
H1512 C1522 0.950 . S
H1513 C1524 0.950 . S
H1514 C1526 0.950 . S
H1515 C1527 0.950 . S
C1516 H1508 0.950 . S
C1516 C1517 1.386 . S
C1516 C1518 1.391 . S
C1517 C1516 1.386 . S
C1517 C1521 1.393 . S
C1518 H1510 0.950 . S
C1518 C1516 1.391 . S
C1518 C1519 1.400 . S
C1519 C1518 1.400 . S
C1519 C1520 1.398 . S
C1519 C1525 1.491 . S
C1520 H1511 0.950 . S
C1520 C1519 1.398 . S
C1520 C1521 1.391 . S
C1521 H1509 0.950 . S
C1521 C1517 1.393 . S
C1521 C1520 1.391 . S
C1522 H1512 0.950 . S
C1522 C1523 1.386 . S
C1522 C1524 1.391 . S
C1523 C1522 1.386 . S
C1523 C1527 1.393 . S
C1524 H1513 0.950 . S
C1524 C1522 1.391 . S
C1524 C1525 1.400 . S
C1525 C1519 1.491 . S
C1525 C1524 1.400 . S
C1525 C1526 1.398 . S
C1526 H1514 0.950 . S
C1526 C1525 1.398 . S
C1526 C1527 1.391 . S
C1527 H1515 0.950 . S
C1527 C1523 1.393 . S
C1527 C1526 1.391 . S
H1528 C1536 0.950 . S
H1529 C1541 0.950 . S
H1530 C1538 0.950 . S
H1531 C1540 0.950 . S
H1532 C1542 0.950 . S
H1533 C1544 0.950 . S
H1534 C1546 0.950 . S
H1535 C1547 0.950 . S
C1536 H1528 0.950 . S
C1536 C1537 1.386 . S
C1536 C1538 1.391 . S
C1537 C1536 1.386 . S
C1537 C1541 1.393 . S
C1538 H1530 0.950 . S
C1538 C1536 1.391 . S
C1538 C1539 1.400 . S
C1539 C1538 1.400 . S
C1539 C1540 1.398 . S
C1539 C1545 1.491 . S
C1540 H1531 0.950 . S
C1540 C1539 1.398 . S
C1540 C1541 1.391 . S
C1541 H1529 0.950 . S
C1541 C1537 1.393 . S
C1541 C1540 1.391 . S
C1542 H1532 0.950 . S
C1542 C1543 1.386 . S
C1542 C1544 1.391 . S
C1543 C1542 1.386 . S
C1543 C1547 1.393 . S
C1544 H1533 0.950 . S
C1544 C1542 1.391 . S
C1544 C1545 1.400 . S
C1545 C1539 1.491 . S
C1545 C1544 1.400 . S
C1545 C1546 1.398 . S
C1546 H1534 0.950 . S
C1546 C1545 1.398 . S
C1546 C1547 1.391 . S
C1547 H1535 0.950 . S
C1547 C1543 1.393 . S
C1547 C1546 1.391 . S
H1548 C1556 0.950 . S
H1549 C1561 0.950 . S
H1550 C1558 0.950 . S
H1551 C1560 0.950 . S
H1552 C1562 0.950 . S
H1553 C1564 0.950 . S
H1554 C1566 0.950 . S
H1555 C1567 0.950 . S
C1556 H1548 0.950 . S
C1556 C1557 1.386 . S
C1556 C1558 1.391 . S
C1557 C1556 1.386 . S
C1557 C1561 1.393 . S
C1558 H1550 0.950 . S
C1558 C1556 1.391 . S
C1558 C1559 1.400 . S
C1559 C1558 1.400 . S
C1559 C1560 1.398 . S
C1559 C1565 1.491 . S
C1560 H1551 0.950 . S
C1560 C1559 1.398 . S
C1560 C1561 1.391 . S
C1561 H1549 0.950 . S
C1561 C1557 1.393 . S
C1561 C1560 1.391 . S
C1562 H1552 0.950 . S
C1562 C1563 1.386 . S
C1562 C1564 1.391 . S
C1563 C1562 1.386 . S
C1563 C1567 1.393 . S
C1564 H1553 0.950 . S
C1564 C1562 1.391 . S
C1564 C1565 1.400 . S
C1565 C1559 1.491 . S
C1565 C1564 1.400 . S
C1565 C1566 1.398 . S
C1566 H1554 0.950 . S
C1566 C1565 1.398 . S
C1566 C1567 1.391 . S
C1567 H1555 0.950 . S
C1567 C1563 1.393 . S
C1567 C1566 1.391 . S
H1568 C1576 0.950 . S
H1569 C1581 0.950 . S
H1570 C1578 0.950 . S
H1571 C1580 0.950 . S
H1572 C1582 0.950 . S
H1573 C1584 0.950 . S
H1574 C1586 0.950 . S
H1575 C1587 0.950 . S
C1576 H1568 0.950 . S
C1576 C1577 1.386 . S
C1576 C1578 1.391 . S
C1577 C1576 1.386 . S
C1577 C1581 1.393 . S
C1578 H1570 0.950 . S
C1578 C1576 1.391 . S
C1578 C1579 1.400 . S
C1579 C1578 1.400 . S
C1579 C1580 1.398 . S
C1579 C1585 1.491 . S
C1580 H1571 0.950 . S
C1580 C1579 1.398 . S
C1580 C1581 1.391 . S
C1581 H1569 0.950 . S
C1581 C1577 1.393 . S
C1581 C1580 1.391 . S
C1582 H1572 0.950 . S
C1582 C1583 1.386 . S
C1582 C1584 1.391 . S
C1583 C1582 1.386 . S
C1583 C1587 1.393 . S
C1584 H1573 0.950 . S
C1584 C1582 1.391 . S
C1584 C1585 1.400 . S
C1585 C1579 1.491 . S
C1585 C1584 1.400 . S
C1585 C1586 1.398 . S
C1586 H1574 0.950 . S
C1586 C1585 1.398 . S
C1586 C1587 1.391 . S
C1587 H1575 0.950 . S
C1587 C1583 1.393 . S
C1587 C1586 1.391 . S
H1588 C1596 0.950 . S
H1589 C1601 0.950 . S
H1590 C1598 0.950 . S
H1591 C1600 0.950 . S
H1592 C1602 0.950 . S
H1593 C1604 0.950 . S
H1594 C1606 0.950 . S
H1595 C1607 0.950 . S
C1596 H1588 0.950 . S
C1596 C1597 1.386 . S
C1596 C1598 1.391 . S
C1597 C1596 1.386 . S
C1597 C1601 1.393 . S
C1598 H1590 0.950 . S
C1598 C1596 1.391 . S
C1598 C1599 1.400 . S
C1599 C1598 1.400 . S
C1599 C1600 1.398 . S
C1599 C1605 1.491 . S
C1600 H1591 0.950 . S
C1600 C1599 1.398 . S
C1600 C1601 1.391 . S
C1601 H1589 0.950 . S
C1601 C1597 1.393 . S
C1601 C1600 1.391 . S
C1602 H1592 0.950 . S
C1602 C1603 1.386 . S
C1602 C1604 1.391 . S
C1603 C1602 1.386 . S
C1603 C1607 1.393 . S
C1604 H1593 0.950 . S
C1604 C1602 1.391 . S
C1604 C1605 1.400 . S
C1605 C1599 1.491 . S
C1605 C1604 1.400 . S
C1605 C1606 1.398 . S
C1606 H1594 0.950 . S
C1606 C1605 1.398 . S
C1606 C1607 1.391 . S
C1607 H1595 0.950 . S
C1607 C1603 1.393 . S
C1607 C1606 1.391 . S
H1608 C1616 0.950 . S
H1609 C1621 0.950 . S
H1610 C1618 0.950 . S
H1611 C1620 0.950 . S
H1612 C1622 0.950 . S
H1613 C1624 0.950 . S
H1614 C1626 0.950 . S
H1615 C1627 0.950 . S
C1616 H1608 0.950 . S
C1616 C1617 1.386 . S
C1616 C1618 1.391 . S
C1617 C1616 1.386 . S
C1617 C1621 1.393 . S
C1618 H1610 0.950 . S
C1618 C1616 1.391 . S
C1618 C1619 1.400 . S
C1619 C1618 1.400 . S
C1619 C1620 1.398 . S
C1619 C1625 1.491 . S
C1620 H1611 0.950 . S
C1620 C1619 1.398 . S
C1620 C1621 1.391 . S
C1621 H1609 0.950 . S
C1621 C1617 1.393 . S
C1621 C1620 1.391 . S
C1622 H1612 0.950 . S
C1622 C1623 1.386 . S
C1622 C1624 1.391 . S
C1623 C1622 1.386 . S
C1623 C1627 1.393 . S
C1624 H1613 0.950 . S
C1624 C1622 1.391 . S
C1624 C1625 1.400 . S
C1625 C1619 1.491 . S
C1625 C1624 1.400 . S
C1625 C1626 1.398 . S
C1626 H1614 0.950 . S
C1626 C1625 1.398 . S
C1626 C1627 1.391 . S
C1627 H1615 0.950 . S
C1627 C1623 1.393 . S
C1627 C1626 1.391 . S
H1628 C1636 0.950 . S
H1629 C1641 0.950 . S
H1630 C1638 0.950 . S
H1631 C1640 0.950 . S
H1632 C1642 0.950 . S
H1633 C1644 0.950 . S
H1634 C1646 0.950 . S
H1635 C1647 0.950 . S
C1636 H1628 0.950 . S
C1636 C1637 1.386 . S
C1636 C1638 1.391 . S
C1637 C1636 1.386 . S
C1637 C1641 1.393 . S
C1638 H1630 0.950 . S
C1638 C1636 1.391 . S
C1638 C1639 1.400 . S
C1639 C1638 1.400 . S
C1639 C1640 1.398 . S
C1639 C1645 1.491 . S
C1640 H1631 0.950 . S
C1640 C1639 1.398 . S
C1640 C1641 1.391 . S
C1641 H1629 0.950 . S
C1641 C1637 1.393 . S
C1641 C1640 1.391 . S
C1642 H1632 0.950 . S
C1642 C1643 1.386 . S
C1642 C1644 1.391 . S
C1643 C1642 1.386 . S
C1643 C1647 1.393 . S
C1644 H1633 0.950 . S
C1644 C1642 1.391 . S
C1644 C1645 1.400 . S
C1645 C1639 1.491 . S
C1645 C1644 1.400 . S
C1645 C1646 1.398 . S
C1646 H1634 0.950 . S
C1646 C1645 1.398 . S
C1646 C1647 1.391 . S
C1647 H1635 0.950 . S
C1647 C1643 1.393 . S
C1647 C1646 1.391 . S
H1648 C1656 0.950 . S
H1649 C1661 0.950 . S
H1650 C1658 0.950 . S
H1651 C1660 0.950 . S
H1652 C1662 0.950 . S
H1653 C1664 0.950 . S
H1654 C1666 0.950 . S
H1655 C1667 0.950 . S
C1656 H1648 0.950 . S
C1656 C1657 1.386 . S
C1656 C1658 1.391 . S
C1657 C1656 1.386 . S
C1657 C1661 1.393 . S
C1658 H1650 0.950 . S
C1658 C1656 1.391 . S
C1658 C1659 1.400 . S
C1659 C1658 1.400 . S
C1659 C1660 1.398 . S
C1659 C1665 1.491 . S
C1660 H1651 0.950 . S
C1660 C1659 1.398 . S
C1660 C1661 1.391 . S
C1661 H1649 0.950 . S
C1661 C1657 1.393 . S
C1661 C1660 1.391 . S
C1662 H1652 0.950 . S
C1662 C1663 1.386 . S
C1662 C1664 1.391 . S
C1663 C1662 1.386 . S
C1663 C1667 1.393 . S
C1664 H1653 0.950 . S
C1664 C1662 1.391 . S
C1664 C1665 1.400 . S
C1665 C1659 1.491 . S
C1665 C1664 1.400 . S
C1665 C1666 1.398 . S
C1666 H1654 0.950 . S
C1666 C1665 1.398 . S
C1666 C1667 1.391 . S
C1667 H1655 0.950 . S
C1667 C1663 1.393 . S
C1667 C1666 1.391 . S
H1668 C1676 0.950 . S
H1669 C1681 0.950 . S
H1670 C1678 0.950 . S
H1671 C1680 0.950 . S
H1672 C1682 0.950 . S
H1673 C1684 0.950 . S
H1674 C1686 0.950 . S
H1675 C1687 0.950 . S
C1676 H1668 0.950 . S
C1676 C1677 1.386 . S
C1676 C1678 1.391 . S
C1677 C1676 1.386 . S
C1677 C1681 1.393 . S
C1678 H1670 0.950 . S
C1678 C1676 1.391 . S
C1678 C1679 1.400 . S
C1679 C1678 1.400 . S
C1679 C1680 1.398 . S
C1679 C1685 1.491 . S
C1680 H1671 0.950 . S
C1680 C1679 1.398 . S
C1680 C1681 1.391 . S
C1681 H1669 0.950 . S
C1681 C1677 1.393 . S
C1681 C1680 1.391 . S
C1682 H1672 0.950 . S
C1682 C1683 1.386 . S
C1682 C1684 1.391 . S
C1683 C1682 1.386 . S
C1683 C1687 1.393 . S
C1684 H1673 0.950 . S
C1684 C1682 1.391 . S
C1684 C1685 1.400 . S
C1685 C1679 1.491 . S
C1685 C1684 1.400 . S
C1685 C1686 1.398 . S
C1686 H1674 0.950 . S
C1686 C1685 1.398 . S
C1686 C1687 1.391 . S
C1687 H1675 0.950 . S
C1687 C1683 1.393 . S
C1687 C1686 1.391 . S
H1688 C1696 0.950 . S
H1689 C1701 0.950 . S
H1690 C1698 0.950 . S
H1691 C1700 0.950 . S
H1692 C1702 0.950 . S
H1693 C1704 0.950 . S
H1694 C1706 0.950 . S
H1695 C1707 0.950 . S
C1696 H1688 0.950 . S
C1696 C1697 1.386 . S
C1696 C1698 1.391 . S
C1697 C1696 1.386 . S
C1697 C1701 1.393 . S
C1698 H1690 0.950 . S
C1698 C1696 1.391 . S
C1698 C1699 1.400 . S
C1699 C1698 1.400 . S
C1699 C1700 1.398 . S
C1699 C1705 1.491 . S
C1700 H1691 0.950 . S
C1700 C1699 1.398 . S
C1700 C1701 1.391 . S
C1701 H1689 0.950 . S
C1701 C1697 1.393 . S
C1701 C1700 1.391 . S
C1702 H1692 0.950 . S
C1702 C1703 1.386 . S
C1702 C1704 1.391 . S
C1703 C1702 1.386 . S
C1703 C1707 1.393 . S
C1704 H1693 0.950 . S
C1704 C1702 1.391 . S
C1704 C1705 1.400 . S
C1705 C1699 1.491 . S
C1705 C1704 1.400 . S
C1705 C1706 1.398 . S
C1706 H1694 0.950 . S
C1706 C1705 1.398 . S
C1706 C1707 1.391 . S
C1707 H1695 0.950 . S
C1707 C1703 1.393 . S
C1707 C1706 1.391 . S
H1708 C1716 0.950 . S
H1709 C1721 0.950 . S
H1710 C1718 0.950 . S
H1711 C1720 0.950 . S
H1712 C1722 0.950 . S
H1713 C1724 0.950 . S
H1714 C1726 0.950 . S
H1715 C1727 0.950 . S
C1716 H1708 0.950 . S
C1716 C1717 1.386 . S
C1716 C1718 1.391 . S
C1717 C1716 1.386 . S
C1717 C1721 1.393 . S
C1718 H1710 0.950 . S
C1718 C1716 1.391 . S
C1718 C1719 1.400 . S
C1719 C1718 1.400 . S
C1719 C1720 1.398 . S
C1719 C1725 1.491 . S
C1720 H1711 0.950 . S
C1720 C1719 1.398 . S
C1720 C1721 1.391 . S
C1721 H1709 0.950 . S
C1721 C1717 1.393 . S
C1721 C1720 1.391 . S
C1722 H1712 0.950 . S
C1722 C1723 1.386 . S
C1722 C1724 1.391 . S
C1723 C1722 1.386 . S
C1723 C1727 1.393 . S
C1724 H1713 0.950 . S
C1724 C1722 1.391 . S
C1724 C1725 1.400 . S
C1725 C1719 1.491 . S
C1725 C1724 1.400 . S
C1725 C1726 1.398 . S
C1726 H1714 0.950 . S
C1726 C1725 1.398 . S
C1726 C1727 1.391 . S
C1727 H1715 0.950 . S
C1727 C1723 1.393 . S
C1727 C1726 1.391 . S
C457 C148 1.380 . S
C463 C8 1.384 . S
C477 C22 1.374 . S
C483 C162 1.373 . S
C497 C36 1.372 . S
C503 C120 1.390 . S
C517 C134 1.374 . S
C523 C50 1.372 . S
C537 C205 1.384 . S
C543 C65 1.365 . S
C557 C79 1.369 . S
C563 C219 1.378 . S
C577 C177 1.391 . S
C583 C93 1.371 . S
C597 C191 1.383 . S
C603 C107 1.382 . S
C617 C372 1.367 . S
C623 C232 1.392 . S
C637 C386 1.372 . S
C643 C246 1.390 . S
C657 C344 1.391 . S
C663 C260 1.369 . S
C677 C274 1.366 . S
C683 C358 1.382 . S
C697 C429 1.365 . S
C703 C289 1.391 . S
C717 C443 1.372 . S
C723 C303 1.374 . S
C737 C317 1.389 . S
C743 C401 1.364 . S
C757 C331 1.384 . S
C763 C415 1.365 . S
C777 C272 1.308 . S
C783 C6 1.300 . S
C797 C20 1.305 1_655 S
C803 C258 1.290 . S
C817 C244 1.293 . S
C823 C34 1.306 . S
C837 C230 1.294 . S
C843 C48 1.277 1_655 S
C857 C63 1.307 . S
C863 C329 1.294 . S
C877 C77 1.276 1_455 S
C883 C315 1.269 . S
C897 C301 1.302 . S
C903 C91 1.308 . S
C917 C105 1.308 1_455 S
C923 C287 1.297 . S
C937 C384 1.301 . S
C943 C118 1.284 . S
C957 C370 1.308 . S
C963 C132 1.297 1_655 S
C977 C356 1.296 . S
C983 C146 1.307 . S
C997 C342 1.288 . S
C1003 C160 1.272 1_655 S
C1017 C175 1.272 . S
C1023 C441 1.287 . S
C1037 C427 1.307 . S
C1043 C189 1.294 1_455 S
C1057 C203 1.269 . S
C1063 C413 1.277 . S
C1077 C217 1.273 1_455 S
C1083 C399 1.290 . S
C1097 C174 1.453 . S
C1103 C7 1.453 . S
C1117 C21 1.440 . S
C1123 C300 1.440 . S
C1137 C90 1.441 . S
C1143 C35 1.441 . S
C1157 C440 1.434 . S
C1163 C49 1.434 . S
C1177 C62 1.459 . S
C1183 C119 1.459 . S
C1197 C245 1.439 . S
C1203 C76 1.439 . S
C1217 C385 1.434 . S
C1223 C104 1.434 . S
C1237 C412 1.438 . S
C1243 C133 1.438 . S
C1257 C147 1.438 . S
C1263 C202 1.438 . S
C1277 C328 1.445 . S
C1283 C161 1.445 . S
C1297 C357 1.436 . S
C1303 C188 1.436 . S
C1317 C216 1.435 . S
C1323 C273 1.435 . S
C1337 C231 1.438 . S
C1343 C398 1.438 . S
C1357 C314 1.434 . S
C1363 C259 1.434 . S
C1377 C343 1.459 . S
C1383 C286 1.459 . S
C1397 C371 1.439 . S
C1403 C426 1.439 . S
C1417 C9 1.101 . S
C1423 C51 1.078 . S
C1437 C37 1.101 . S
C1443 C23 1.078 . S
C1457 C64 1.077 . S
C1463 C106 1.101 . S
C1477 C78 1.092 . S
C1483 C92 1.087 . S
C1497 C121 1.087 . S
C1503 C163 1.092 . S
C1517 C135 1.089 . S
C1523 C149 1.091 . S
C1537 C176 1.089 . S
C1543 C218 1.090 . S
C1557 C204 1.078 . S
C1563 C190 1.101 . S
C1577 C275 1.100 . S
C1583 C233 1.079 . S
C1597 C261 1.077 . S
C1603 C247 1.101 . S
C1617 C330 1.101 . S
C1623 C288 1.078 . S
C1637 C316 1.077 . S
C1643 C302 1.101 . S
C1657 C387 1.098 . S
C1663 C345 1.081 . S
C1677 C373 1.082 . S
C1683 C359 1.097 . S
C1697 C400 1.079 . S
C1703 C442 1.100 . S
C1717 C428 1.101 . S
C1723 C414 1.077 . S
