# Generated by pormake.
# Topology uol, (4)-cn, num edge types: 1
# Building blocks:
#     Node 0, Type 0, BuildingBlock: QUQFOY_clean_sbu_3, # of connection points: 4
#     Node 1, Type 0, BuildingBlock: QUQFOY_clean_sbu_3, # of connection points: 4
#     Node 2, Type 0, BuildingBlock: QUQFOY_clean_sbu_3, # of connection points: 4
#     Node 3, Type 0, BuildingBlock: QUQFOY_clean_sbu_3, # of connection points: 4
#     Node 4, Type 0, BuildingBlock: QUQFOY_clean_sbu_3, # of connection points: 4
#     Node 5, Type 0, BuildingBlock: QUQFOY_clean_sbu_3, # of connection points: 4
#     Node 6, Type 0, BuildingBlock: QUQFOY_clean_sbu_3, # of connection points: 4
#     Node 7, Type 0, BuildingBlock: QUQFOY_clean_sbu_3, # of connection points: 4
#     Node 8, Type 0, BuildingBlock: QUQFOY_clean_sbu_3, # of connection points: 4
#     Node 9, Type 0, BuildingBlock: QUQFOY_clean_sbu_3, # of connection points: 4
#     Node 10, Type 0, BuildingBlock: QUQFOY_clean_sbu_3, # of connection points: 4
#     Node 11, Type 0, BuildingBlock: QUQFOY_clean_sbu_3, # of connection points: 4
#     Edge 12, Type (0, 0), BuildingBlock: KIFKEQ_clean_linker_1, # of connection points: 2
#     Edge 13, Type (0, 0), BuildingBlock: KIFKEQ_clean_linker_1, # of connection points: 2
#     Edge 14, Type (0, 0), BuildingBlock: KIFKEQ_clean_linker_1, # of connection points: 2
#     Edge 15, Type (0, 0), BuildingBlock: KIFKEQ_clean_linker_1, # of connection points: 2
#     Edge 16, Type (0, 0), BuildingBlock: KIFKEQ_clean_linker_1, # of connection points: 2
#     Edge 17, Type (0, 0), BuildingBlock: KIFKEQ_clean_linker_1, # of connection points: 2
#     Edge 18, Type (0, 0), BuildingBlock: KIFKEQ_clean_linker_1, # of connection points: 2
#     Edge 19, Type (0, 0), BuildingBlock: KIFKEQ_clean_linker_1, # of connection points: 2
#     Edge 20, Type (0, 0), BuildingBlock: KIFKEQ_clean_linker_1, # of connection points: 2
#     Edge 21, Type (0, 0), BuildingBlock: KIFKEQ_clean_linker_1, # of connection points: 2
#     Edge 22, Type (0, 0), BuildingBlock: KIFKEQ_clean_linker_1, # of connection points: 2
#     Edge 23, Type (0, 0), BuildingBlock: KIFKEQ_clean_linker_1, # of connection points: 2
#     Edge 24, Type (0, 0), BuildingBlock: KIFKEQ_clean_linker_1, # of connection points: 2
#     Edge 25, Type (0, 0), BuildingBlock: KIFKEQ_clean_linker_1, # of connection points: 2
#     Edge 26, Type (0, 0), BuildingBlock: KIFKEQ_clean_linker_1, # of connection points: 2
#     Edge 27, Type (0, 0), BuildingBlock: KIFKEQ_clean_linker_1, # of connection points: 2
#     Edge 28, Type (0, 0), BuildingBlock: KIFKEQ_clean_linker_1, # of connection points: 2
#     Edge 29, Type (0, 0), BuildingBlock: KIFKEQ_clean_linker_1, # of connection points: 2
#     Edge 30, Type (0, 0), BuildingBlock: KIFKEQ_clean_linker_1, # of connection points: 2
#     Edge 31, Type (0, 0), BuildingBlock: KIFKEQ_clean_linker_1, # of connection points: 2
#     Edge 32, Type (0, 0), BuildingBlock: KIFKEQ_clean_linker_1, # of connection points: 2
#     Edge 33, Type (0, 0), BuildingBlock: KIFKEQ_clean_linker_1, # of connection points: 2
#     Edge 34, Type (0, 0), BuildingBlock: KIFKEQ_clean_linker_1, # of connection points: 2
#     Edge 35, Type (0, 0), BuildingBlock: KIFKEQ_clean_linker_1, # of connection points: 2
# Relax obj value: 0.116
# Max RMSD: 0.171
# Mean RMSD: 0.171
data_MOF--net-uol--node1-QUQFOY_clean_sbu_3--edge1-KIFKEQ_clean_linker_1
_symmetry_space_group_name_H-M    P1
_symmetry_Int_Tables_number       1
_symmetry_cell_setting            triclinic
loop_
_symmetry_equiv_pos_as_xyz
'x, y, z'
_cell_length_a     35.213131
_cell_length_b     35.480567
_cell_length_c     70.402698
_cell_angle_alpha  89.982522
_cell_angle_beta   90.175254
_cell_angle_gamma 120.04004
loop_
_atom_site_label
_atom_site_type_symbol
_atom_site_fract_x
_atom_site_fract_y
_atom_site_fract_z
_atom_type_partial_charge
C0 C 0.09852 0.26393 0.0355 0.0
O1 O 0.07032 0.22728 0.04224 0.0
Cd2 Cd 0.04685 0.21763 0.0747 0.0
O3 O 0.11171 0.29858 0.04527 0.0
Cd4 Cd 0.09605 0.32245 0.07621 0.0
C5 C 0.14736 0.27521 0.09775 0.0
O6 O 0.01969 0.26536 0.08216 0.0
O7 O 0.05564 0.30725 0.10574 0.0
O8 O 0.08029 0.37477 0.0612 0.0
C9 C 0.01995 0.27603 0.09942 0.0
O10 O 0.11396 0.23938 0.09276 0.0
C11 C 0.11129 0.40834 0.06907 0.0
O12 O 0.15065 0.31169 0.09355 0.0
O13 O 0.13647 0.40235 0.08008 0.0
C14 C 0.81117 0.10146 0.20295 0.0
O15 O 0.81567 0.0703 0.20916 0.0
Cd16 Cd 0.79273 0.03857 0.24025 0.0
O17 O 0.78997 0.11533 0.21253 0.0
Cd18 Cd 0.74633 0.09804 0.24225 0.0
C19 C 0.83904 0.13289 0.26788 0.0
O20 O 0.71903 0.01954 0.246 0.0
O21 O 0.71381 0.05409 0.27022 0.0
O22 O 0.68324 0.09006 0.22499 0.0
C23 C 0.70704 0.01842 0.26311 0.0
O24 O 0.83607 0.09729 0.26235 0.0
C25 C 0.67976 0.11928 0.23388 0.0
O26 O 0.81215 0.1445 0.26187 0.0
O27 O 0.7088 0.14064 0.24644 0.0
C28 C 0.67859 0.82223 0.36938 0.0
O29 O 0.71574 0.83159 0.37618 0.0
Cd30 Cd 0.72578 0.81801 0.40868 0.0
O31 O 0.6439 0.80059 0.37921 0.0
Cd32 Cd 0.62071 0.76213 0.41035 0.0
C33 C 0.66881 0.86038 0.43206 0.0
O34 O 0.67805 0.74291 0.41591 0.0
O35 O 0.63613 0.73608 0.43959 0.0
O36 O 0.56826 0.69477 0.39487 0.0
C37 C 0.66723 0.73169 0.43308 0.0
O38 O 0.70476 0.86307 0.42696 0.0
C39 C 0.53434 0.69117 0.40287 0.0
O40 O 0.63195 0.82716 0.42785 0.0
O41 O 0.54016 0.72149 0.41423 0.0
C42 C 0.83657 0.6914 0.5369 0.0
O43 O 0.86546 0.72757 0.54387 0.0
Cd44 Cd 0.88959 0.73587 0.57624 0.0
O45 O 0.82284 0.65629 0.54637 0.0
Cd46 Cd 0.83844 0.63075 0.57697 0.0
C47 C 0.78918 0.67914 0.59921 0.0
O48 O 0.91531 0.68659 0.58283 0.0
O49 O 0.87968 0.64449 0.60629 0.0
O50 O 0.85286 0.57861 0.56096 0.0
C51 C 0.91546 0.67535 0.59996 0.0
O52 O 0.82296 0.71471 0.59436 0.0
C53 C 0.82258 0.54493 0.56899 0.0
O54 O 0.78494 0.64238 0.59474 0.0
O55 O 0.79818 0.55074 0.58048 0.0
C56 C 0.12143 0.84562 0.70483 0.0
O57 O 0.11475 0.87526 0.71123 0.0
Cd58 Cd 0.13188 0.90163 0.74324 0.0
O59 O 0.1426 0.83199 0.71468 0.0
Cd60 Cd 0.18424 0.84833 0.74522 0.0
C61 C 0.0862 0.80312 0.76738 0.0
O62 O 0.20738 0.92585 0.74925 0.0
O63 O 0.21554 0.8929 0.77334 0.0
O64 O 0.24513 0.85198 0.7273 0.0
C65 C 0.22015 0.9278 0.76631 0.0
O66 O 0.08525 0.83704 0.76217 0.0
C67 C 0.25046 0.82604 0.73792 0.0
O68 O 0.11822 0.7976 0.76306 0.0
O69 O 0.22419 0.80945 0.75179 0.0
C70 C 0.25375 0.13469 0.86911 0.0
O71 O 0.21757 0.13063 0.8746 0.0
Cd72 Cd 0.20651 0.14529 0.90675 0.0
O73 O 0.28737 0.15232 0.87994 0.0
Cd74 Cd 0.31199 0.19053 0.91113 0.0
C75 C 0.25262 0.09097 0.93033 0.0
O76 O 0.2604 0.21773 0.91506 0.0
O77 O 0.29797 0.21967 0.93972 0.0
O78 O 0.37028 0.25003 0.89345 0.0
C79 C 0.26973 0.22759 0.93247 0.0
O80 O 0.22004 0.09432 0.92463 0.0
C81 C 0.40137 0.25493 0.90425 0.0
O82 O 0.29192 0.1213 0.92734 0.0
O83 O 0.39119 0.2289 0.91821 0.0
C84 C 0.67964 0.84231 0.75428 0.0
O85 O 0.71644 0.87142 0.74787 0.0
Cd86 Cd 0.72606 0.89712 0.71574 0.0
O87 O 0.64487 0.82897 0.74434 0.0
Cd88 Cd 0.62051 0.84522 0.71358 0.0
C89 C 0.67188 0.7985 0.69167 0.0
O90 O 0.6761 0.92267 0.70938 0.0
O91 O 0.6345 0.88932 0.68534 0.0
O92 O 0.56372 0.84991 0.73135 0.0
C93 C 0.66515 0.92434 0.69232 0.0
O94 O 0.70722 0.83226 0.69688 0.0
C95 C 0.53209 0.82409 0.72073 0.0
O96 O 0.63446 0.79352 0.69593 0.0
O97 O 0.54134 0.80708 0.70691 0.0
C98 C 0.80569 0.68462 0.9213 0.0
O99 O 0.81292 0.72121 0.91506 0.0
Cd100 Cd 0.79758 0.73179 0.88285 0.0
O101 O 0.78523 0.65047 0.91109 0.0
Cd102 Cd 0.74599 0.62637 0.88006 0.0
C103 C 0.84527 0.68046 0.85888 0.0
O104 O 0.72262 0.68069 0.87578 0.0
O105 O 0.71507 0.63964 0.85176 0.0
O106 O 0.68486 0.56888 0.89756 0.0
C107 C 0.71049 0.6701 0.85865 0.0
O108 O 0.84562 0.71494 0.86423 0.0
C109 C 0.68067 0.53784 0.88711 0.0
O110 O 0.81324 0.64281 0.86282 0.0
O111 O 0.70749 0.5478 0.87342 0.0
C112 C 0.08913 0.81863 0.08704 0.0
O113 O 0.05686 0.8218 0.08094 0.0
Cd114 Cd 0.0247 0.79841 0.04987 0.0
O115 O 0.10393 0.79841 0.07737 0.0
Cd116 Cd 0.08712 0.75476 0.04768 0.0
C117 C 0.11985 0.84661 0.02239 0.0
O118 O 0.00778 0.72602 0.04397 0.0
O119 O 0.04282 0.72173 0.01967 0.0
O120 O 0.08055 0.69322 0.0652 0.0
C121 C 0.00671 0.71431 0.02681 0.0
O122 O 0.08361 0.84257 0.028 0.0
C123 C 0.10986 0.68974 0.05623 0.0
O124 O 0.13256 0.82056 0.02819 0.0
O125 O 0.13074 0.71818 0.04351 0.0
C126 C 0.25099 0.10962 0.25338 0.0
O127 O 0.21413 0.08151 0.24654 0.0
Cd128 Cd 0.20489 0.05806 0.21408 0.0
O129 O 0.28599 0.12264 0.24375 0.0
Cd130 Cd 0.31024 0.10658 0.21299 0.0
C131 C 0.26323 0.15763 0.19114 0.0
O132 O 0.25283 0.03066 0.20705 0.0
O133 O 0.29495 0.06601 0.18351 0.0
O134 O 0.36268 0.09109 0.22842 0.0
C135 C 0.26368 0.03061 0.18985 0.0
O136 O 0.22704 0.12457 0.19601 0.0
C137 C 0.39658 0.12149 0.22053 0.0
O138 O 0.29989 0.16081 0.19551 0.0
O139 O 0.39072 0.14624 0.20932 0.0
C140 C 0.12451 0.26186 0.42241 0.0
O141 O 0.11988 0.22604 0.41642 0.0
Cd142 Cd 0.13362 0.2161 0.384 0.0
O143 O 0.14282 0.29581 0.41202 0.0
Cd144 Cd 0.18179 0.32095 0.381 0.0
C145 C 0.08146 0.26563 0.36136 0.0
O146 O 0.20662 0.2683 0.37546 0.0
O147 O 0.20753 0.3067 0.35143 0.0
O148 O 0.24777 0.37456 0.397 0.0
C149 C 0.21539 0.27804 0.35802 0.0
O150 O 0.0836 0.23243 0.36671 0.0
C151 C 0.25093 0.40767 0.38861 0.0
O152 O 0.11288 0.30415 0.36461 0.0
O153 O 0.22067 0.40092 0.37683 0.0
C154 C 0.83442 0.1297 0.58851 0.0
O155 O 0.86264 0.12125 0.58164 0.0
Cd156 Cd 0.88653 0.13601 0.54928 0.0
O157 O 0.82112 0.15137 0.57889 0.0
Cd158 Cd 0.83693 0.19123 0.548 0.0
C159 C 0.78655 0.09358 0.52581 0.0
O160 O 0.91378 0.2111 0.54256 0.0
O161 O 0.87844 0.21751 0.51879 0.0
O162 O 0.85216 0.25849 0.56354 0.0
C163 C 0.91415 0.22234 0.52538 0.0
O164 O 0.82002 0.09112 0.53085 0.0
C165 C 0.82193 0.26209 0.55538 0.0
O166 O 0.78284 0.12648 0.53019 0.0
O167 O 0.7972 0.23171 0.54401 0.0
H168 H 0.175 0.67594 0.04244 0.0
H169 H 0.05827 0.61761 0.07713 0.0
H170 H 0.17972 0.60935 0.04557 0.0
H171 H 0.06269 0.5515 0.07982 0.0
H172 H 0.05118 0.42634 0.05381 0.0
H173 H 0.05545 0.49689 0.05133 0.0
H174 H 0.18584 0.5596 0.07529 0.0
H175 H 0.18141 0.48844 0.07822 0.0
C176 C 0.15072 0.64922 0.05086 0.0
C177 C 0.11618 0.65198 0.05947 0.0
C178 C 0.15349 0.61128 0.05266 0.0
C179 C 0.12134 0.57538 0.06279 0.0
C180 C 0.08766 0.57867 0.07182 0.0
C181 C 0.0853 0.61663 0.07031 0.0
C182 C 0.08095 0.4551 0.05844 0.0
C183 C 0.11589 0.4518 0.0663 0.0
C184 C 0.08328 0.49543 0.05706 0.0
C185 C 0.12087 0.53346 0.0632 0.0
C186 C 0.15657 0.53063 0.07043 0.0
C187 C 0.15393 0.49 0.07215 0.0
H188 H 0.6665 0.18484 0.24703 0.0
H189 H 0.60598 0.06646 0.21376 0.0
H190 H 0.59942 0.18952 0.24386 0.0
H191 H 0.53936 0.07087 0.21102 0.0
H192 H 0.4143 0.06213 0.23639 0.0
H193 H 0.48514 0.06587 0.23909 0.0
H194 H 0.54885 0.19419 0.21428 0.0
H195 H 0.47742 0.1903 0.21115 0.0
C196 C 0.63916 0.16014 0.23892 0.0
C197 C 0.64149 0.12521 0.2307 0.0
C198 C 0.60094 0.16289 0.23709 0.0
C199 C 0.56431 0.13034 0.22734 0.0
C200 C 0.5671 0.09616 0.21874 0.0
C201 C 0.60534 0.0938 0.22026 0.0
C202 C 0.44336 0.09134 0.23163 0.0
C203 C 0.44025 0.12585 0.22347 0.0
C204 C 0.48384 0.09336 0.23313 0.0
C205 C 0.52224 0.13021 0.22681 0.0
C206 C 0.51961 0.1655 0.21929 0.0
C207 C 0.47882 0.16317 0.21745 0.0
H208 H 0.51688 0.61538 0.38589 0.0
H209 H 0.4534 0.67837 0.41305 0.0
H210 H 0.4463 0.54866 0.38279 0.0
H211 H 0.38219 0.61117 0.40957 0.0
H212 H 0.2635 0.48722 0.37705 0.0
H213 H 0.33072 0.55839 0.38041 0.0
H214 H 0.39319 0.49715 0.40985 0.0
H215 H 0.3265 0.4267 0.40688 0.0
C216 C 0.4878 0.61517 0.39101 0.0
C217 C 0.49075 0.6521 0.39981 0.0
C218 C 0.44744 0.5769 0.38928 0.0
C219 C 0.40899 0.57483 0.39604 0.0
C220 C 0.41146 0.6121 0.40422 0.0
C221 C 0.45213 0.65037 0.40626 0.0
C222 C 0.29147 0.48913 0.38441 0.0
C223 C 0.28975 0.45134 0.39164 0.0
C224 C 0.32976 0.52977 0.38636 0.0
C225 C 0.36706 0.533 0.39525 0.0
C226 C 0.36496 0.49541 0.40279 0.0
C227 C 0.32667 0.45512 0.40114 0.0
H228 H 0.75483 0.46475 0.57959 0.0
H229 H 0.88076 0.52729 0.55158 0.0
H230 H 0.75119 0.39409 0.57627 0.0
H231 H 0.87727 0.4572 0.54862 0.0
H232 H 0.88104 0.33816 0.57224 0.0
H233 H 0.87782 0.40496 0.57499 0.0
H234 H 0.75062 0.3421 0.54792 0.0
H235 H 0.754 0.27486 0.54481 0.0
C236 C 0.78151 0.46339 0.57263 0.0
C237 C 0.81814 0.50161 0.5659 0.0
C238 C 0.77933 0.42301 0.5707 0.0
C239 C 0.81412 0.4204 0.56233 0.0
C240 C 0.85022 0.45844 0.55528 0.0
C241 C 0.85207 0.49852 0.55691 0.0
C242 C 0.85218 0.33833 0.56697 0.0
C243 C 0.81783 0.30125 0.55823 0.0
C244 C 0.85048 0.37666 0.56848 0.0
C245 C 0.81412 0.37867 0.56156 0.0
C246 C 0.77898 0.34127 0.5534 0.0
C247 C 0.781 0.30294 0.55158 0.0
H248 H 0.46251 0.78725 0.69612 0.0
H249 H 0.50039 0.84403 0.75212 0.0
H250 H 0.39062 0.78116 0.70009 0.0
H251 H 0.42857 0.83767 0.75609 0.0
H252 H 0.28215 0.78844 0.76243 0.0
H253 H 0.34733 0.78141 0.75842 0.0
H254 H 0.36695 0.83807 0.7025 0.0
H255 H 0.3021 0.84538 0.70651 0.0
C256 C 0.45528 0.79785 0.70937 0.0
C257 C 0.48716 0.81631 0.72378 0.0
C258 C 0.41424 0.79455 0.71159 0.0
C259 C 0.40407 0.80902 0.72838 0.0
C260 C 0.43535 0.82589 0.74307 0.0
C261 C 0.47655 0.82975 0.74075 0.0
C262 C 0.30007 0.79888 0.7492 0.0
C263 C 0.28714 0.81766 0.73482 0.0
C264 C 0.33745 0.79503 0.74695 0.0
C265 C 0.36223 0.80928 0.73017 0.0
C266 C 0.34828 0.82646 0.71552 0.0
C267 C 0.31128 0.83086 0.71786 0.0
H268 H 0.43454 0.3045 0.87248 0.0
H269 H 0.47019 0.28772 0.92933 0.0
H270 H 0.5063 0.36948 0.86862 0.0
H271 H 0.54216 0.35311 0.92545 0.0
H272 H 0.6283 0.50549 0.91827 0.0
H273 H 0.5647 0.43297 0.92236 0.0
H274 H 0.58767 0.3956 0.86711 0.0
H275 H 0.6516 0.46825 0.86301 0.0
C276 C 0.45794 0.31437 0.88406 0.0
C277 C 0.44665 0.29114 0.90125 0.0
C278 C 0.49913 0.35145 0.8818 0.0
C279 C 0.52975 0.36642 0.89675 0.0
C280 C 0.51904 0.34243 0.91374 0.0
C281 C 0.47797 0.30492 0.91591 0.0
C282 C 0.62013 0.48165 0.90709 0.0
C283 C 0.64479 0.49265 0.89027 0.0
C284 C 0.58388 0.44004 0.90949 0.0
C285 C 0.5712 0.40868 0.89504 0.0
C286 C 0.59657 0.41925 0.87843 0.0
C287 C 0.63322 0.46075 0.87612 0.0
H288 H 0.20796 0.1894 0.19482 0.0
H289 H 0.31338 0.19908 0.16018 0.0
H290 H 0.19431 0.23251 0.17164 0.0
H291 H 0.29869 0.24124 0.13655 0.0
H292 H 0.17926 0.2203 0.09384 0.0
H293 H 0.22208 0.20597 0.11709 0.0
H294 H 0.23077 0.30902 0.15268 0.0
H295 H 0.18891 0.32438 0.129 0.0
C296 C 0.22891 0.20176 0.18245 0.0
C297 C 0.26157 0.19089 0.1792 0.0
C298 C 0.22129 0.22662 0.16926 0.0
C299 C 0.24549 0.24014 0.15235 0.0
C300 C 0.27981 0.23133 0.14956 0.0
C301 C 0.28823 0.20737 0.16305 0.0
C302 C 0.1916 0.24082 0.10633 0.0
C303 C 0.18076 0.2733 0.10971 0.0
C304 C 0.21628 0.23281 0.11957 0.0
C305 C 0.22964 0.25642 0.13664 0.0
C306 C 0.22097 0.29059 0.13956 0.0
C307 C 0.19719 0.29939 0.12603 0.0
H308 H 0.88619 0.10678 0.28886 0.0
H309 H 0.86937 0.21804 0.27944 0.0
H310 H 0.94106 0.14681 0.31282 0.0
H311 H 0.92572 0.2588 0.30386 0.0
H312 H 0.07595 0.31091 0.33075 0.0
H313 H 0.01341 0.28483 0.30866 0.0
H314 H 0.93633 0.17635 0.34587 0.0
H315 H -0.00164 0.20167 0.36754 0.0
C316 C 0.89425 0.13994 0.29183 0.0
C317 C 0.8732 0.15913 0.28219 0.0
C318 C 0.9256 0.16279 0.30571 0.0
C319 C 0.93719 0.20567 0.31036 0.0
C320 C 0.91711 0.22564 0.30055 0.0
C321 C 0.88491 0.20232 0.28667 0.0
C322 C 0.04511 0.28235 0.33444 0.0
C323 C 0.04208 0.25779 0.35063 0.0
C324 C 0.00941 0.2675 0.32184 0.0
C325 C -0.02957 0.22821 0.32546 0.0
C326 C -0.03374 0.20638 0.34263 0.0
C327 C 0.00174 0.22085 0.35501 0.0
H328 H 0.74527 0.10151 0.49443 0.0
H329 H 0.75501 0.00699 0.52955 0.0
H330 H 0.70354 0.04461 0.4707 0.0
H331 H 0.71231 0.95016 0.50626 0.0
H332 H 0.61975 0.85243 0.46338 0.0
H333 H 0.6355 0.90934 0.48706 0.0
H334 H 0.73908 0.00388 0.45151 0.0
H335 H 0.72437 0.94703 0.42826 0.0
C336 C 0.73709 0.06832 0.49737 0.0
C337 C 0.75344 0.05852 0.51371 0.0
C338 C 0.71339 0.0359 0.48381 0.0
C339 C 0.7047 -0.00691 0.48672 0.0
C340 C 0.71812 -0.01723 0.50378 0.0
C341 C 0.74273 0.01529 0.51704 0.0
C342 C 0.64496 0.88565 0.46043 0.0
C343 C 0.67105 0.89545 0.4441 0.0
C344 C 0.65401 0.91807 0.47395 0.0
C345 C 0.68841 0.96091 0.47104 0.0
C346 C 0.71207 0.97124 0.45399 0.0
C347 C 0.70383 0.93871 0.44075 0.0
H348 H 0.75665 0.73334 0.59461 0.0
H349 H 0.74957 0.63232 0.63112 0.0
H350 H 0.71462 0.74901 0.61766 0.0
H351 H 0.70863 0.64913 0.65461 0.0
H352 H 0.73065 0.77089 0.69526 0.0
H353 H 0.74552 0.72802 0.67246 0.0
H354 H 0.63787 0.713 0.63754 0.0
H355 H 0.62194 0.75486 0.6608 0.0
C356 C 0.74504 0.71376 0.60737 0.0
C357 C 0.75627 0.6817 0.61116 0.0
C358 C 0.72085 0.72256 0.6205 0.0
C359 C 0.70846 0.70024 0.63786 0.0
C360 C 0.71767 0.66656 0.64124 0.0
C361 C 0.7409 0.6569 0.62783 0.0
C362 C 0.70938 0.75733 0.68299 0.0
C363 C 0.67529 0.76623 0.67971 0.0
C364 C 0.71769 0.7326 0.67003 0.0
C365 C 0.69276 0.71722 0.6533 0.0
C366 C 0.65732 0.72434 0.65042 0.0
C367 C 0.64822 0.74816 0.66369 0.0
H368 H 0.93162 0.73912 0.86336 0.0
H369 H 0.84083 0.63371 0.82733 0.0
H370 H -0.00938 0.75643 0.84072 0.0
H371 H 0.89983 0.65217 0.80424 0.0
H372 H -0.00043 0.77486 0.76329 0.0
H373 H 0.94107 0.73225 0.78596 0.0
H374 H 0.03348 0.71956 0.82191 0.0
H375 H 0.09201 0.76103 0.79877 0.0
C376 C 0.92461 0.71908 0.85078 0.0
C377 C 0.8818 0.68519 0.84701 0.0
C378 C 0.95835 0.72881 0.8379 0.0
C379 C 0.94963 0.70554 0.82081 0.0
C380 C 0.90728 0.67032 0.81742 0.0
C381 C 0.87369 0.65977 0.83059 0.0
C382 C 0.00707 0.76186 0.77577 0.0
C383 C 0.05016 0.7712 0.77936 0.0
C384 C -0.02639 0.73732 0.78865 0.0
C385 C -0.0171 0.72265 0.80559 0.0
C386 C 0.0256 0.73034 0.80885 0.0
C387 C 0.05892 0.75391 0.79565 0.0
H388 H 0.09269 0.89457 0.00284 0.0
H389 H 0.20507 0.87725 0.00996 0.0
H390 H 0.13183 0.9501 -0.0207 0.0
H391 H 0.24489 0.93418 -0.01409 0.0
H392 H 0.29882 0.08293 0.96017 0.0
H393 H 0.27225 0.02031 -0.01817 0.0
H394 H 0.15881 0.94771 0.94591 0.0
H395 H 0.18458 0.00982 0.92471 0.0
C396 C 0.1259 0.90262 -0.00056 0.0
C397 C 0.14564 0.88121 0.00832 0.0
C398 C 0.14825 0.93438 -0.01421 0.0
C399 C 0.19115 0.94601 -0.01942 0.0
C400 C 0.2117 0.92558 -0.01035 0.0
C401 C 0.18891 0.89303 0.00332 0.0
C402 C 0.26888 0.05309 0.95669 0.0
C403 C 0.24324 0.05141 0.94101 0.0
C404 C 0.25378 0.01732 0.96903 0.0
C405 C 0.2131 -0.02043 0.96568 0.0
C406 C 0.18987 -0.02329 0.949 0.0
C407 C 0.20461 0.01228 0.93688 0.0
H408 H 0.1739 0.33134 0.02083 0.0
H409 H 0.07111 0.19989 0.00856 0.0
H410 H 0.21463 0.3294 -0.00682 0.0
H411 H 0.11187 0.19818 -0.01907 0.0
H412 H 0.18804 0.21695 0.92619 0.0
H413 H 0.14399 0.23194 0.94861 0.0
H414 H 0.2518 0.28468 -0.01146 0.0
H415 H 0.2954 0.26943 0.96636 0.0
C416 C 0.15952 0.30238 0.01203 0.0
C417 C 0.11947 0.26557 0.01704 0.0
C418 C 0.18296 0.30126 -0.00376 0.0
C419 C 0.16657 0.26354 -0.015 0.0
C420 C 0.12519 0.2278 -0.01074 0.0
C421 C 0.10198 0.22871 0.00517 0.0
C422 C 0.2025 0.23249 0.93962 0.0
C423 C 0.24503 0.24183 0.94459 0.0
C424 C 0.17726 0.24085 0.95246 0.0
C425 C 0.19448 0.25947 0.97031 0.0
C426 C 0.2378 0.27077 0.97482 0.0
C427 C 0.26267 0.26177 0.96217 0.0
H428 H 0.85114 0.07584 0.17675 0.0
H429 H 0.82261 0.17848 0.18901 0.0
H430 H 0.89564 0.11733 0.14969 0.0
H431 H 0.86718 0.21983 0.16195 0.0
H432 H 0.00557 0.30085 0.1339 0.0
H433 H 0.94877 0.25691 0.15683 0.0
H434 H 0.89369 0.14897 0.11747 0.0
H435 H 0.95072 0.19326 0.09433 0.0
C436 C 0.85382 0.10694 0.17353 0.0
C437 C 0.83361 0.12399 0.18518 0.0
C438 C 0.87911 0.13057 0.15795 0.0
C439 C 0.8851 0.17193 0.15379 0.0
C440 C 0.86347 0.1882 0.16494 0.0
C441 C 0.8378 0.1644 0.1804 0.0
C442 C -0.01897 0.26793 0.13002 0.0
C443 C -0.01731 0.25044 0.11235 0.0
C444 C 0.94833 0.24285 0.14312 0.0
C445 C 0.91679 0.19949 0.13895 0.0
C446 C 0.91773 0.18224 0.12109 0.0
C447 C 0.95019 0.20763 0.10783 0.0
H448 H 0.66136 0.00039 0.296 0.0
H449 H 0.72266 0.95066 0.25836 0.0
H450 H 0.64821 0.94398 0.31905 0.0
H451 H 0.70965 0.89397 0.28163 0.0
H452 H 0.74344 0.86092 0.34279 0.0
H453 H 0.74297 0.89979 0.31431 0.0
H454 H 0.60822 0.86334 0.32506 0.0
H455 H 0.60853 0.82438 0.35361 0.0
C456 C 0.6713 -0.02316 0.29252 0.0
C457 C 0.69322 -0.01997 0.27544 0.0
C458 C 0.66352 0.94435 0.30567 0.0
C459 C 0.67801 0.91463 0.30217 0.0
C460 C 0.69833 0.91662 0.28473 0.0
C461 C 0.70553 0.94884 0.27138 0.0
C462 C 0.71344 0.8605 0.33892 0.0
C463 C 0.67619 0.83998 0.35062 0.0
C464 C 0.71309 0.88253 0.32251 0.0
C465 C 0.67565 0.88484 0.31753 0.0
C466 C 0.63767 0.8624 0.32866 0.0
C467 C 0.63785 0.83999 0.34497 0.0
H468 H 0.76057 0.62542 0.52173 0.0
H469 H 0.86482 0.75671 0.51062 0.0
H470 H 0.72043 0.6292 0.49412 0.0
H471 H 0.82463 0.76031 0.48306 0.0
H472 H 0.74982 0.74401 0.42782 0.0
H473 H 0.7932 0.72856 0.45055 0.0
H474 H 0.68395 0.67422 0.48943 0.0
H475 H 0.64094 0.68978 0.46692 0.0
C476 C 0.77536 0.65475 0.5132 0.0
C477 C 0.8157 0.69095 0.51851 0.0
C478 C 0.75225 0.65695 0.49744 0.0
C479 C 0.76924 0.69516 0.48654 0.0
C480 C 0.81082 0.73033 0.49113 0.0
C481 C 0.83371 0.72833 0.507 0.0
C482 C 0.73495 0.72817 0.44111 0.0
C483 C 0.69211 0.71833 0.44566 0.0
C484 C 0.75979 0.71951 0.45413 0.0
C485 C 0.74193 0.70017 0.47175 0.0
C486 C 0.69845 0.68868 0.47589 0.0
C487 C 0.67393 0.69789 0.46305 0.0
H488 H 0.11218 0.76981 0.6904 0.0
H489 H 0.08378 0.87251 0.67799 0.0
H490 H 0.06923 0.72938 0.66269 0.0
H491 H 0.04092 0.832 0.65034 0.0
H492 H -0.01449 0.75757 0.595 0.0
H493 H 0.04322 0.80097 0.61818 0.0
H494 H -0.01223 0.69242 0.65708 0.0
H495 H 0.93031 0.64934 0.6341 0.0
C496 C 0.09748 0.78415 0.6816 0.0
C497 C 0.10103 0.8242 0.68654 0.0
C498 C 0.07274 0.76089 0.66577 0.0
C499 C 0.05148 0.7774 0.65444 0.0
C500 C 0.05717 0.81858 0.65873 0.0
C501 C 0.08151 0.84165 0.67465 0.0
C502 C -0.01385 0.74284 0.60839 0.0
C503 C 0.95329 0.70017 0.6128 0.0
C504 C 0.01901 0.76772 0.62166 0.0
C505 C 0.01997 0.75008 0.63943 0.0
C506 C -0.0118 0.70676 0.64344 0.0
C507 C 0.95511 0.68219 0.63032 0.0
H508 H 0.32147 0.12593 0.85521 0.0
H509 H 0.1901 0.09813 0.84167 0.0
H510 H 0.32015 0.08358 0.82767 0.0
H511 H 0.18884 0.05562 0.81424 0.0
H512 H 0.2072 -0.00307 0.76018 0.0
H513 H 0.22156 0.05558 0.78257 0.0
H514 H 0.27728 0.00366 0.82231 0.0
H515 H 0.26305 0.94549 0.8001 0.0
C516 C 0.2926 0.11146 0.8462 0.0
C517 C 0.25566 0.11497 0.85082 0.0
C518 C 0.29182 0.08706 0.83046 0.0
C519 C 0.25425 0.06593 0.8189 0.0
C520 C 0.21839 0.07174 0.8228 0.0
C521 C 0.21903 0.0959 0.83861 0.0
C522 C 0.22324 -0.00138 0.77356 0.0
C523 C 0.23376 0.96651 0.77845 0.0
C524 C 0.23123 0.032 0.7864 0.0
C525 C 0.25048 0.03418 0.80421 0.0
C526 C 0.26288 0.00322 0.80864 0.0
C527 C 0.25443 0.96968 0.79595 0.0
H528 H 0.74472 0.86786 0.78095 0.0
H529 H 0.61088 0.76835 0.76916 0.0
H530 H 0.74553 0.82727 0.80875 0.0
H531 H 0.61183 0.72788 0.79704 0.0
H532 H 0.6664 0.64431 0.82516 0.0
H533 H 0.65315 0.6883 0.80249 0.0
H534 H 0.71275 0.79762 0.84107 0.0
H535 H 0.72595 0.75323 0.86396 0.0
C536 C 0.71521 0.83773 0.78446 0.0
C537 C 0.67791 0.82112 0.77268 0.0
C538 C 0.7156 0.81462 0.80049 0.0
C539 C 0.67885 0.77424 0.80499 0.0
C540 C 0.64079 0.75872 0.79379 0.0
C541 C 0.64023 0.78202 0.77786 0.0
C542 C 0.67604 0.67751 0.82896 0.0
C543 C 0.69742 0.6954 0.84628 0.0
C544 C 0.66818 0.70264 0.81602 0.0
C545 C 0.68198 0.74644 0.81998 0.0
C546 C 0.70197 0.76399 0.83761 0.0
C547 C 0.7093 0.73855 0.85073 0.0
H548 H 0.81064 0.61591 0.93618 0.0
H549 H 0.84388 0.7484 0.94835 0.0
H550 H 0.85097 0.61591 0.96444 0.0
H551 H 0.88419 0.74823 0.97655 0.0
H552 H 0.93729 0.72782 0.032 0.0
H553 H 0.8797 0.71451 0.00883 0.0
H554 H 0.93207 0.65695 0.97052 0.0
H555 H -0.01065 0.67035 -0.00651 0.0
C556 C 0.82585 0.64477 0.94504 0.0
C557 C 0.82448 0.68236 0.93986 0.0
C558 C 0.84905 0.64476 0.9612 0.0
C559 C 0.87097 0.68215 0.97262 0.0
C560 C 0.86735 0.71881 0.96811 0.0
C561 C 0.8445 0.71898 0.95186 0.0
C562 C 0.93582 0.71148 0.01879 0.0
C563 C -0.03211 0.70032 0.01448 0.0
C564 C 0.90308 0.70412 0.00551 0.0
C565 C 0.90148 0.6848 -0.01215 0.0
C566 C 0.93214 0.67148 -0.01594 0.0
C567 C -0.03488 0.67939 -0.00283 0.0
H568 H 0.06221 0.85731 0.11325 0.0
H569 H 0.1679 0.83253 0.10083 0.0
H570 H 0.1039 0.9028 0.14013 0.0
H571 H 0.20944 0.87803 0.12774 0.0
H572 H 0.28871 0.0163 0.15539 0.0
H573 H 0.24498 0.95883 0.13266 0.0
H574 H 0.13708 0.90303 0.17223 0.0
H575 H 0.18114 0.96078 0.19515 0.0
C576 C 0.09403 0.86102 0.1164 0.0
C577 C 0.11186 0.84158 0.10475 0.0
C578 C 0.11779 0.88688 0.13189 0.0
C579 C 0.16004 0.89419 0.13596 0.0
C580 C 0.17712 0.87331 0.12481 0.0
C581 C 0.1532 0.8471 0.10944 0.0
C582 C 0.25585 -0.00851 0.15936 0.0
C583 C 0.23829 -0.00686 0.17702 0.0
C584 C 0.2309 0.9584 0.14638 0.0
C585 C 0.1876 0.92643 0.15066 0.0
C586 C 0.1703 0.9274 0.16852 0.0
C587 C 0.19556 0.96028 0.18166 0.0
H588 H 0.31821 0.18532 0.26792 0.0
H589 H 0.18678 0.08178 0.28035 0.0
H590 H 0.31596 0.22553 0.29565 0.0
H591 H 0.1848 0.12199 0.30809 0.0
H592 H 0.2057 0.1972 0.3635 0.0
H593 H 0.22021 0.15412 0.34044 0.0
H594 H 0.26932 0.26103 0.30076 0.0
H595 H 0.2545 0.30369 0.32357 0.0
C596 C 0.28921 0.17069 0.27677 0.0
C597 C 0.25248 0.13053 0.27181 0.0
C598 C 0.2879 0.19384 0.2926 0.0
C599 C 0.25011 0.17701 0.30393 0.0
C600 C 0.21447 0.13563 0.29968 0.0
C601 C 0.21554 0.11274 0.28372 0.0
C602 C 0.22026 0.21166 0.34996 0.0
C603 C 0.22878 0.2537 0.34527 0.0
C604 C 0.22836 0.18698 0.33677 0.0
C605 C 0.24591 0.20426 0.31883 0.0
C606 C 0.25624 0.24702 0.31454 0.0
C607 C 0.24748 0.27134 0.32756 0.0
H608 H 0.11257 0.32715 0.43641 0.0
H609 H 0.08963 0.19845 0.44967 0.0
H610 H 0.06854 0.32373 0.46375 0.0
H611 H 0.04556 0.19516 0.47695 0.0
H612 H -0.01443 0.21221 0.53127 0.0
H613 H 0.04462 0.22775 0.50876 0.0
H614 H -0.0125 0.27761 0.46871 0.0
H615 H 0.9288 0.26209 0.49104 0.0
C616 C 0.09888 0.29848 0.44534 0.0
C617 C 0.10421 0.26285 0.4407 0.0
C618 C 0.07349 0.29648 0.46095 0.0
C619 C 0.05326 0.25902 0.47237 0.0
C620 C 0.06093 0.22456 0.46848 0.0
C621 C 0.086 0.22638 0.45277 0.0
C622 C -0.01391 0.22708 0.51777 0.0
C623 C 0.95245 0.23571 0.51286 0.0
C624 C 0.01973 0.23579 0.50487 0.0
C625 C 0.02069 0.25391 0.48698 0.0
C626 C -0.012 0.26414 0.48246 0.0
C627 C 0.95417 0.25494 0.4952 0.0
H628 H 0.63817 0.94254 0.65919 0.0
H629 H 0.74846 -0.00701 0.69778 0.0
H630 H 0.68149 0.00075 0.63684 0.0
H631 H 0.79219 0.05154 0.67522 0.0
H632 H 0.86175 0.09165 0.61488 0.0
H633 H 0.82183 0.04983 0.64271 0.0
H634 H 0.72035 0.0816 0.63187 0.0
H635 H 0.7602 0.1235 0.60396 0.0
C636 C 0.67152 0.96653 0.66302 0.0
C637 C 0.69002 0.96307 0.68017 0.0
C638 C 0.69625 7e-05 0.65026 0.0
C639 C 0.74027 0.03069 0.65426 0.0
C640 C 0.75838 0.02824 0.67174 0.0
C641 C 0.73334 -0.00509 0.68467 0.0
C642 C 0.83132 0.09042 0.61861 0.0
C643 C 0.81391 0.11049 0.60704 0.0
C644 C 0.8086 0.06668 0.63464 0.0
C645 C 0.7678 0.06216 0.63938 0.0
C646 C 0.75154 0.08419 0.62844 0.0
C647 C 0.77448 0.10832 0.6125 0.0
loop_
_geom_bond_atom_site_label_1
_geom_bond_atom_site_label_2
_geom_bond_distance
_geom_bond_site_symmetry_2
_ccdc_geom_bond_type
C0 O1 1.306 . S
C0 O3 1.160 . S
O1 C0 1.306 . S
O1 Cd2 2.228 . S
Cd2 O1 2.228 . S
Cd2 O6 2.273 . S
Cd2 O10 2.277 . S
O3 C0 1.160 . S
O3 Cd4 2.203 . S
Cd4 O3 2.203 . S
Cd4 O6 2.411 . S
Cd4 O7 2.333 . S
Cd4 O8 2.352 . S
Cd4 O12 2.277 . S
Cd4 O13 2.356 . S
C5 O10 1.209 . S
C5 O12 1.226 . S
O6 Cd2 2.273 . S
O6 Cd4 2.411 . S
O6 C9 1.320 . S
O7 Cd4 2.333 . S
O7 C9 1.214 . S
O8 Cd4 2.352 . S
O8 C11 1.258 . S
C9 O6 1.320 . S
C9 O7 1.214 . S
O10 Cd2 2.277 . S
O10 C5 1.209 . S
C11 O8 1.258 . S
C11 O13 1.282 . S
O12 Cd4 2.277 . S
O12 C5 1.226 . S
O13 Cd4 2.356 . S
O13 C11 1.282 . S
C14 O15 1.306 . S
C14 O17 1.160 . S
O15 C14 1.306 . S
O15 Cd16 2.228 . S
Cd16 O15 2.228 . S
Cd16 O20 2.273 . S
Cd16 O24 2.277 . S
O17 C14 1.160 . S
O17 Cd18 2.203 . S
Cd18 O17 2.203 . S
Cd18 O20 2.411 . S
Cd18 O21 2.333 . S
Cd18 O22 2.352 . S
Cd18 O26 2.277 . S
Cd18 O27 2.356 . S
C19 O24 1.209 . S
C19 O26 1.226 . S
O20 Cd16 2.273 . S
O20 Cd18 2.411 . S
O20 C23 1.320 . S
O21 Cd18 2.333 . S
O21 C23 1.214 . S
O22 Cd18 2.352 . S
O22 C25 1.258 . S
C23 O20 1.320 . S
C23 O21 1.214 . S
O24 Cd16 2.277 . S
O24 C19 1.209 . S
C25 O22 1.258 . S
C25 O27 1.282 . S
O26 Cd18 2.277 . S
O26 C19 1.226 . S
O27 Cd18 2.356 . S
O27 C25 1.282 . S
C28 O29 1.306 . S
C28 O31 1.160 . S
O29 C28 1.306 . S
O29 Cd30 2.228 . S
Cd30 O29 2.228 . S
Cd30 O34 2.273 . S
Cd30 O38 2.277 . S
O31 C28 1.160 . S
O31 Cd32 2.203 . S
Cd32 O31 2.203 . S
Cd32 O34 2.411 . S
Cd32 O35 2.333 . S
Cd32 O36 2.352 . S
Cd32 O40 2.277 . S
Cd32 O41 2.356 . S
C33 O38 1.209 . S
C33 O40 1.226 . S
O34 Cd30 2.273 . S
O34 Cd32 2.411 . S
O34 C37 1.320 . S
O35 Cd32 2.333 . S
O35 C37 1.214 . S
O36 Cd32 2.352 . S
O36 C39 1.258 . S
C37 O34 1.320 . S
C37 O35 1.214 . S
O38 Cd30 2.277 . S
O38 C33 1.209 . S
C39 O36 1.258 . S
C39 O41 1.282 . S
O40 Cd32 2.277 . S
O40 C33 1.226 . S
O41 Cd32 2.356 . S
O41 C39 1.282 . S
C42 O43 1.306 . S
C42 O45 1.160 . S
O43 C42 1.306 . S
O43 Cd44 2.228 . S
Cd44 O43 2.228 . S
Cd44 O48 2.273 . S
Cd44 O52 2.277 . S
O45 C42 1.160 . S
O45 Cd46 2.203 . S
Cd46 O45 2.203 . S
Cd46 O48 2.411 . S
Cd46 O49 2.333 . S
Cd46 O50 2.352 . S
Cd46 O54 2.277 . S
Cd46 O55 2.356 . S
C47 O52 1.209 . S
C47 O54 1.226 . S
O48 Cd44 2.273 . S
O48 Cd46 2.411 . S
O48 C51 1.320 . S
O49 Cd46 2.333 . S
O49 C51 1.214 . S
O50 Cd46 2.352 . S
O50 C53 1.258 . S
C51 O48 1.320 . S
C51 O49 1.214 . S
O52 Cd44 2.277 . S
O52 C47 1.209 . S
C53 O50 1.258 . S
C53 O55 1.282 . S
O54 Cd46 2.277 . S
O54 C47 1.226 . S
O55 Cd46 2.356 . S
O55 C53 1.282 . S
C56 O57 1.306 . S
C56 O59 1.160 . S
O57 C56 1.306 . S
O57 Cd58 2.228 . S
Cd58 O57 2.228 . S
Cd58 O62 2.273 . S
Cd58 O66 2.277 . S
O59 C56 1.160 . S
O59 Cd60 2.203 . S
Cd60 O59 2.203 . S
Cd60 O62 2.411 . S
Cd60 O63 2.333 . S
Cd60 O64 2.352 . S
Cd60 O68 2.277 . S
Cd60 O69 2.356 . S
C61 O66 1.209 . S
C61 O68 1.226 . S
O62 Cd58 2.273 . S
O62 Cd60 2.411 . S
O62 C65 1.320 . S
O63 Cd60 2.333 . S
O63 C65 1.214 . S
O64 Cd60 2.352 . S
O64 C67 1.258 . S
C65 O62 1.320 . S
C65 O63 1.214 . S
O66 Cd58 2.277 . S
O66 C61 1.209 . S
C67 O64 1.258 . S
C67 O69 1.282 . S
O68 Cd60 2.277 . S
O68 C61 1.226 . S
O69 Cd60 2.356 . S
O69 C67 1.282 . S
C70 O71 1.306 . S
C70 O73 1.160 . S
O71 C70 1.306 . S
O71 Cd72 2.228 . S
Cd72 O71 2.228 . S
Cd72 O76 2.273 . S
Cd72 O80 2.277 . S
O73 C70 1.160 . S
O73 Cd74 2.203 . S
Cd74 O73 2.203 . S
Cd74 O76 2.411 . S
Cd74 O77 2.333 . S
Cd74 O78 2.352 . S
Cd74 O82 2.277 . S
Cd74 O83 2.356 . S
C75 O80 1.209 . S
C75 O82 1.226 . S
O76 Cd72 2.273 . S
O76 Cd74 2.411 . S
O76 C79 1.320 . S
O77 Cd74 2.333 . S
O77 C79 1.214 . S
O78 Cd74 2.352 . S
O78 C81 1.258 . S
C79 O76 1.320 . S
C79 O77 1.214 . S
O80 Cd72 2.277 . S
O80 C75 1.209 . S
C81 O78 1.258 . S
C81 O83 1.282 . S
O82 Cd74 2.277 . S
O82 C75 1.226 . S
O83 Cd74 2.356 . S
O83 C81 1.282 . S
C84 O85 1.306 . S
C84 O87 1.160 . S
O85 C84 1.306 . S
O85 Cd86 2.228 . S
Cd86 O85 2.228 . S
Cd86 O90 2.273 . S
Cd86 O94 2.277 . S
O87 C84 1.160 . S
O87 Cd88 2.203 . S
Cd88 O87 2.203 . S
Cd88 O90 2.411 . S
Cd88 O91 2.333 . S
Cd88 O92 2.352 . S
Cd88 O96 2.277 . S
Cd88 O97 2.356 . S
C89 O94 1.209 . S
C89 O96 1.226 . S
O90 Cd86 2.273 . S
O90 Cd88 2.411 . S
O90 C93 1.320 . S
O91 Cd88 2.333 . S
O91 C93 1.214 . S
O92 Cd88 2.352 . S
O92 C95 1.258 . S
C93 O90 1.320 . S
C93 O91 1.214 . S
O94 Cd86 2.277 . S
O94 C89 1.209 . S
C95 O92 1.258 . S
C95 O97 1.282 . S
O96 Cd88 2.277 . S
O96 C89 1.226 . S
O97 Cd88 2.356 . S
O97 C95 1.282 . S
C98 O99 1.306 . S
C98 O101 1.160 . S
O99 C98 1.306 . S
O99 Cd100 2.228 . S
Cd100 O99 2.228 . S
Cd100 O104 2.273 . S
Cd100 O108 2.277 . S
O101 C98 1.160 . S
O101 Cd102 2.203 . S
Cd102 O101 2.203 . S
Cd102 O104 2.411 . S
Cd102 O105 2.333 . S
Cd102 O106 2.352 . S
Cd102 O110 2.277 . S
Cd102 O111 2.356 . S
C103 O108 1.209 . S
C103 O110 1.226 . S
O104 Cd100 2.273 . S
O104 Cd102 2.411 . S
O104 C107 1.320 . S
O105 Cd102 2.333 . S
O105 C107 1.214 . S
O106 Cd102 2.352 . S
O106 C109 1.258 . S
C107 O104 1.320 . S
C107 O105 1.214 . S
O108 Cd100 2.277 . S
O108 C103 1.209 . S
C109 O106 1.258 . S
C109 O111 1.282 . S
O110 Cd102 2.277 . S
O110 C103 1.226 . S
O111 Cd102 2.356 . S
O111 C109 1.282 . S
C112 O113 1.306 . S
C112 O115 1.160 . S
O113 C112 1.306 . S
O113 Cd114 2.228 . S
Cd114 O113 2.228 . S
Cd114 O118 2.273 . S
Cd114 O122 2.277 . S
O115 C112 1.160 . S
O115 Cd116 2.203 . S
Cd116 O115 2.203 . S
Cd116 O118 2.411 . S
Cd116 O119 2.333 . S
Cd116 O120 2.352 . S
Cd116 O124 2.277 . S
Cd116 O125 2.356 . S
C117 O122 1.209 . S
C117 O124 1.226 . S
O118 Cd114 2.273 . S
O118 Cd116 2.411 . S
O118 C121 1.320 . S
O119 Cd116 2.333 . S
O119 C121 1.214 . S
O120 Cd116 2.352 . S
O120 C123 1.258 . S
C121 O118 1.320 . S
C121 O119 1.214 . S
O122 Cd114 2.277 . S
O122 C117 1.209 . S
C123 O120 1.258 . S
C123 O125 1.282 . S
O124 Cd116 2.277 . S
O124 C117 1.226 . S
O125 Cd116 2.356 . S
O125 C123 1.282 . S
C126 O127 1.306 . S
C126 O129 1.160 . S
O127 C126 1.306 . S
O127 Cd128 2.228 . S
Cd128 O127 2.228 . S
Cd128 O132 2.273 . S
Cd128 O136 2.277 . S
O129 C126 1.160 . S
O129 Cd130 2.203 . S
Cd130 O129 2.203 . S
Cd130 O132 2.411 . S
Cd130 O133 2.333 . S
Cd130 O134 2.352 . S
Cd130 O138 2.277 . S
Cd130 O139 2.356 . S
C131 O136 1.209 . S
C131 O138 1.226 . S
O132 Cd128 2.273 . S
O132 Cd130 2.411 . S
O132 C135 1.320 . S
O133 Cd130 2.333 . S
O133 C135 1.214 . S
O134 Cd130 2.352 . S
O134 C137 1.258 . S
C135 O132 1.320 . S
C135 O133 1.214 . S
O136 Cd128 2.277 . S
O136 C131 1.209 . S
C137 O134 1.258 . S
C137 O139 1.282 . S
O138 Cd130 2.277 . S
O138 C131 1.226 . S
O139 Cd130 2.356 . S
O139 C137 1.282 . S
C140 O141 1.306 . S
C140 O143 1.160 . S
O141 C140 1.306 . S
O141 Cd142 2.228 . S
Cd142 O141 2.228 . S
Cd142 O146 2.273 . S
Cd142 O150 2.277 . S
O143 C140 1.160 . S
O143 Cd144 2.203 . S
Cd144 O143 2.203 . S
Cd144 O146 2.411 . S
Cd144 O147 2.333 . S
Cd144 O148 2.352 . S
Cd144 O152 2.277 . S
Cd144 O153 2.356 . S
C145 O150 1.209 . S
C145 O152 1.226 . S
O146 Cd142 2.273 . S
O146 Cd144 2.411 . S
O146 C149 1.320 . S
O147 Cd144 2.333 . S
O147 C149 1.214 . S
O148 Cd144 2.352 . S
O148 C151 1.258 . S
C149 O146 1.320 . S
C149 O147 1.214 . S
O150 Cd142 2.277 . S
O150 C145 1.209 . S
C151 O148 1.258 . S
C151 O153 1.282 . S
O152 Cd144 2.277 . S
O152 C145 1.226 . S
O153 Cd144 2.356 . S
O153 C151 1.282 . S
C154 O155 1.306 . S
C154 O157 1.160 . S
O155 C154 1.306 . S
O155 Cd156 2.228 . S
Cd156 O155 2.228 . S
Cd156 O160 2.273 . S
Cd156 O164 2.277 . S
O157 C154 1.160 . S
O157 Cd158 2.203 . S
Cd158 O157 2.203 . S
Cd158 O160 2.411 . S
Cd158 O161 2.333 . S
Cd158 O162 2.352 . S
Cd158 O166 2.277 . S
Cd158 O167 2.356 . S
C159 O164 1.209 . S
C159 O166 1.226 . S
O160 Cd156 2.273 . S
O160 Cd158 2.411 . S
O160 C163 1.320 . S
O161 Cd158 2.333 . S
O161 C163 1.214 . S
O162 Cd158 2.352 . S
O162 C165 1.258 . S
C163 O160 1.320 . S
C163 O161 1.214 . S
O164 Cd156 2.277 . S
O164 C159 1.209 . S
C165 O162 1.258 . S
C165 O167 1.282 . S
O166 Cd158 2.277 . S
O166 C159 1.226 . S
O167 Cd158 2.356 . S
O167 C165 1.282 . S
H168 C176 0.950 . S
H169 C181 0.950 . S
H170 C178 0.950 . S
H171 C180 0.950 . S
H172 C182 0.950 . S
H173 C184 0.950 . S
H174 C186 0.950 . S
H175 C187 0.950 . S
C176 H168 0.950 . S
C176 C177 1.386 . S
C176 C178 1.391 . S
C177 C176 1.386 . S
C177 C181 1.393 . S
C178 H170 0.950 . S
C178 C176 1.391 . S
C178 C179 1.400 . S
C179 C178 1.400 . S
C179 C180 1.398 . S
C179 C185 1.491 . S
C180 H171 0.950 . S
C180 C179 1.398 . S
C180 C181 1.391 . S
C181 H169 0.950 . S
C181 C177 1.393 . S
C181 C180 1.391 . S
C182 H172 0.950 . S
C182 C183 1.386 . S
C182 C184 1.391 . S
C183 C182 1.386 . S
C183 C187 1.393 . S
C184 H173 0.950 . S
C184 C182 1.391 . S
C184 C185 1.400 . S
C185 C179 1.491 . S
C185 C184 1.400 . S
C185 C186 1.398 . S
C186 H174 0.950 . S
C186 C185 1.398 . S
C186 C187 1.391 . S
C187 H175 0.950 . S
C187 C183 1.393 . S
C187 C186 1.391 . S
H188 C196 0.950 . S
H189 C201 0.950 . S
H190 C198 0.950 . S
H191 C200 0.950 . S
H192 C202 0.950 . S
H193 C204 0.950 . S
H194 C206 0.950 . S
H195 C207 0.950 . S
C196 H188 0.950 . S
C196 C197 1.386 . S
C196 C198 1.391 . S
C197 C196 1.386 . S
C197 C201 1.393 . S
C198 H190 0.950 . S
C198 C196 1.391 . S
C198 C199 1.400 . S
C199 C198 1.400 . S
C199 C200 1.398 . S
C199 C205 1.491 . S
C200 H191 0.950 . S
C200 C199 1.398 . S
C200 C201 1.391 . S
C201 H189 0.950 . S
C201 C197 1.393 . S
C201 C200 1.391 . S
C202 H192 0.950 . S
C202 C203 1.386 . S
C202 C204 1.391 . S
C203 C202 1.386 . S
C203 C207 1.393 . S
C204 H193 0.950 . S
C204 C202 1.391 . S
C204 C205 1.400 . S
C205 C199 1.491 . S
C205 C204 1.400 . S
C205 C206 1.398 . S
C206 H194 0.950 . S
C206 C205 1.398 . S
C206 C207 1.391 . S
C207 H195 0.950 . S
C207 C203 1.393 . S
C207 C206 1.391 . S
H208 C216 0.950 . S
H209 C221 0.950 . S
H210 C218 0.950 . S
H211 C220 0.950 . S
H212 C222 0.950 . S
H213 C224 0.950 . S
H214 C226 0.950 . S
H215 C227 0.950 . S
C216 H208 0.950 . S
C216 C217 1.386 . S
C216 C218 1.391 . S
C217 C216 1.386 . S
C217 C221 1.393 . S
C218 H210 0.950 . S
C218 C216 1.391 . S
C218 C219 1.400 . S
C219 C218 1.400 . S
C219 C220 1.398 . S
C219 C225 1.491 . S
C220 H211 0.950 . S
C220 C219 1.398 . S
C220 C221 1.391 . S
C221 H209 0.950 . S
C221 C217 1.393 . S
C221 C220 1.391 . S
C222 H212 0.950 . S
C222 C223 1.386 . S
C222 C224 1.391 . S
C223 C222 1.386 . S
C223 C227 1.393 . S
C224 H213 0.950 . S
C224 C222 1.391 . S
C224 C225 1.400 . S
C225 C219 1.491 . S
C225 C224 1.400 . S
C225 C226 1.398 . S
C226 H214 0.950 . S
C226 C225 1.398 . S
C226 C227 1.391 . S
C227 H215 0.950 . S
C227 C223 1.393 . S
C227 C226 1.391 . S
H228 C236 0.950 . S
H229 C241 0.950 . S
H230 C238 0.950 . S
H231 C240 0.950 . S
H232 C242 0.950 . S
H233 C244 0.950 . S
H234 C246 0.950 . S
H235 C247 0.950 . S
C236 H228 0.950 . S
C236 C237 1.386 . S
C236 C238 1.391 . S
C237 C236 1.386 . S
C237 C241 1.393 . S
C238 H230 0.950 . S
C238 C236 1.391 . S
C238 C239 1.400 . S
C239 C238 1.400 . S
C239 C240 1.398 . S
C239 C245 1.491 . S
C240 H231 0.950 . S
C240 C239 1.398 . S
C240 C241 1.391 . S
C241 H229 0.950 . S
C241 C237 1.393 . S
C241 C240 1.391 . S
C242 H232 0.950 . S
C242 C243 1.386 . S
C242 C244 1.391 . S
C243 C242 1.386 . S
C243 C247 1.393 . S
C244 H233 0.950 . S
C244 C242 1.391 . S
C244 C245 1.400 . S
C245 C239 1.491 . S
C245 C244 1.400 . S
C245 C246 1.398 . S
C246 H234 0.950 . S
C246 C245 1.398 . S
C246 C247 1.391 . S
C247 H235 0.950 . S
C247 C243 1.393 . S
C247 C246 1.391 . S
H248 C256 0.950 . S
H249 C261 0.950 . S
H250 C258 0.950 . S
H251 C260 0.950 . S
H252 C262 0.950 . S
H253 C264 0.950 . S
H254 C266 0.950 . S
H255 C267 0.950 . S
C256 H248 0.950 . S
C256 C257 1.386 . S
C256 C258 1.391 . S
C257 C256 1.386 . S
C257 C261 1.393 . S
C258 H250 0.950 . S
C258 C256 1.391 . S
C258 C259 1.400 . S
C259 C258 1.400 . S
C259 C260 1.398 . S
C259 C265 1.491 . S
C260 H251 0.950 . S
C260 C259 1.398 . S
C260 C261 1.391 . S
C261 H249 0.950 . S
C261 C257 1.393 . S
C261 C260 1.391 . S
C262 H252 0.950 . S
C262 C263 1.386 . S
C262 C264 1.391 . S
C263 C262 1.386 . S
C263 C267 1.393 . S
C264 H253 0.950 . S
C264 C262 1.391 . S
C264 C265 1.400 . S
C265 C259 1.491 . S
C265 C264 1.400 . S
C265 C266 1.398 . S
C266 H254 0.950 . S
C266 C265 1.398 . S
C266 C267 1.391 . S
C267 H255 0.950 . S
C267 C263 1.393 . S
C267 C266 1.391 . S
H268 C276 0.950 . S
H269 C281 0.950 . S
H270 C278 0.950 . S
H271 C280 0.950 . S
H272 C282 0.950 . S
H273 C284 0.950 . S
H274 C286 0.950 . S
H275 C287 0.950 . S
C276 H268 0.950 . S
C276 C277 1.386 . S
C276 C278 1.391 . S
C277 C276 1.386 . S
C277 C281 1.393 . S
C278 H270 0.950 . S
C278 C276 1.391 . S
C278 C279 1.400 . S
C279 C278 1.400 . S
C279 C280 1.398 . S
C279 C285 1.491 . S
C280 H271 0.950 . S
C280 C279 1.398 . S
C280 C281 1.391 . S
C281 H269 0.950 . S
C281 C277 1.393 . S
C281 C280 1.391 . S
C282 H272 0.950 . S
C282 C283 1.386 . S
C282 C284 1.391 . S
C283 C282 1.386 . S
C283 C287 1.393 . S
C284 H273 0.950 . S
C284 C282 1.391 . S
C284 C285 1.400 . S
C285 C279 1.491 . S
C285 C284 1.400 . S
C285 C286 1.398 . S
C286 H274 0.950 . S
C286 C285 1.398 . S
C286 C287 1.391 . S
C287 H275 0.950 . S
C287 C283 1.393 . S
C287 C286 1.391 . S
H288 C296 0.950 . S
H289 C301 0.950 . S
H290 C298 0.950 . S
H291 C300 0.950 . S
H292 C302 0.950 . S
H293 C304 0.950 . S
H294 C306 0.950 . S
H295 C307 0.950 . S
C296 H288 0.950 . S
C296 C297 1.386 . S
C296 C298 1.391 . S
C297 C296 1.386 . S
C297 C301 1.393 . S
C298 H290 0.950 . S
C298 C296 1.391 . S
C298 C299 1.400 . S
C299 C298 1.400 . S
C299 C300 1.398 . S
C299 C305 1.491 . S
C300 H291 0.950 . S
C300 C299 1.398 . S
C300 C301 1.391 . S
C301 H289 0.950 . S
C301 C297 1.393 . S
C301 C300 1.391 . S
C302 H292 0.950 . S
C302 C303 1.386 . S
C302 C304 1.391 . S
C303 C302 1.386 . S
C303 C307 1.393 . S
C304 H293 0.950 . S
C304 C302 1.391 . S
C304 C305 1.400 . S
C305 C299 1.491 . S
C305 C304 1.400 . S
C305 C306 1.398 . S
C306 H294 0.950 . S
C306 C305 1.398 . S
C306 C307 1.391 . S
C307 H295 0.950 . S
C307 C303 1.393 . S
C307 C306 1.391 . S
H308 C316 0.950 . S
H309 C321 0.950 . S
H310 C318 0.950 . S
H311 C320 0.953 . S
H312 C322 0.950 . S
H313 C324 0.950 . S
H314 C326 0.953 . S
H315 C327 0.950 . S
C316 H308 0.950 . S
C316 C317 1.386 . S
C316 C318 1.391 . S
C317 C316 1.386 . S
C317 C321 1.393 . S
C318 H310 0.950 . S
C318 C316 1.391 . S
C318 C319 1.400 . S
C319 C318 1.400 . S
C319 C320 1.398 . S
C319 C325 1.491 1_655 S
C320 H311 0.953 . S
C320 C319 1.398 . S
C320 C321 1.391 . S
C321 H309 0.950 . S
C321 C317 1.393 . S
C321 C320 1.391 . S
C322 H312 0.950 . S
C322 C323 1.386 . S
C322 C324 1.391 . S
C323 C322 1.386 . S
C323 C327 1.393 . S
C324 H313 0.950 . S
C324 C322 1.391 . S
C324 C325 1.400 . S
C325 C319 1.491 1_455 S
C325 C324 1.400 . S
C325 C326 1.398 . S
C326 H314 0.953 . S
C326 C325 1.398 . S
C326 C327 1.391 . S
C327 H315 0.950 . S
C327 C323 1.393 . S
C327 C326 1.391 . S
H328 C336 0.950 . S
H329 C341 0.950 . S
H330 C338 0.950 . S
H331 C340 0.950 1_565 S
H332 C342 0.950 . S
H333 C344 0.950 . S
H334 C346 0.950 1_545 S
H335 C347 0.950 . S
C336 H328 0.950 . S
C336 C337 1.386 . S
C336 C338 1.391 . S
C337 C336 1.386 . S
C337 C341 1.393 . S
C338 H330 0.950 . S
C338 C336 1.391 . S
C338 C339 1.400 . S
C339 C338 1.400 . S
C339 C340 1.398 . S
C339 C345 1.491 1_545 S
C340 H331 0.950 1_545 S
C340 C339 1.398 . S
C340 C341 1.391 . S
C341 H329 0.950 . S
C341 C337 1.393 . S
C341 C340 1.391 . S
C342 H332 0.950 . S
C342 C343 1.386 . S
C342 C344 1.391 . S
C343 C342 1.386 . S
C343 C347 1.393 . S
C344 H333 0.950 . S
C344 C342 1.391 . S
C344 C345 1.400 . S
C345 C339 1.491 1_565 S
C345 C344 1.400 . S
C345 C346 1.398 . S
C346 H334 0.950 1_565 S
C346 C345 1.398 . S
C346 C347 1.391 . S
C347 H335 0.950 . S
C347 C343 1.393 . S
C347 C346 1.391 . S
H348 C356 0.950 . S
H349 C361 0.950 . S
H350 C358 0.950 . S
H351 C360 0.950 . S
H352 C362 0.950 . S
H353 C364 0.950 . S
H354 C366 0.950 . S
H355 C367 0.950 . S
C356 H348 0.950 . S
C356 C357 1.386 . S
C356 C358 1.391 . S
C357 C356 1.386 . S
C357 C361 1.393 . S
C358 H350 0.950 . S
C358 C356 1.391 . S
C358 C359 1.400 . S
C359 C358 1.400 . S
C359 C360 1.398 . S
C359 C365 1.491 . S
C360 H351 0.950 . S
C360 C359 1.398 . S
C360 C361 1.391 . S
C361 H349 0.950 . S
C361 C357 1.393 . S
C361 C360 1.391 . S
C362 H352 0.950 . S
C362 C363 1.386 . S
C362 C364 1.391 . S
C363 C362 1.386 . S
C363 C367 1.393 . S
C364 H353 0.950 . S
C364 C362 1.391 . S
C364 C365 1.400 . S
C365 C359 1.491 . S
C365 C364 1.400 . S
C365 C366 1.398 . S
C366 H354 0.950 . S
C366 C365 1.398 . S
C366 C367 1.391 . S
C367 H355 0.950 . S
C367 C363 1.393 . S
C367 C366 1.391 . S
H368 C376 0.950 . S
H369 C381 0.950 . S
H370 C378 0.950 1_455 S
H371 C380 0.950 . S
H372 C382 0.950 . S
H373 C384 0.950 1_655 S
H374 C386 0.950 . S
H375 C387 0.950 . S
C376 H368 0.950 . S
C376 C377 1.386 . S
C376 C378 1.391 . S
C377 C376 1.386 . S
C377 C381 1.393 . S
C378 H370 0.950 1_655 S
C378 C376 1.391 . S
C378 C379 1.400 . S
C379 C378 1.400 . S
C379 C380 1.398 . S
C379 C385 1.491 1_655 S
C380 H371 0.950 . S
C380 C379 1.398 . S
C380 C381 1.391 . S
C381 H369 0.950 . S
C381 C377 1.393 . S
C381 C380 1.391 . S
C382 H372 0.950 . S
C382 C383 1.386 . S
C382 C384 1.391 . S
C383 C382 1.386 . S
C383 C387 1.393 . S
C384 H373 0.950 1_455 S
C384 C382 1.391 . S
C384 C385 1.400 . S
C385 C379 1.491 1_455 S
C385 C384 1.400 . S
C385 C386 1.398 . S
C386 H374 0.950 . S
C386 C385 1.398 . S
C386 C387 1.391 . S
C387 H375 0.950 . S
C387 C383 1.393 . S
C387 C386 1.391 . S
H388 C396 0.950 . S
H389 C401 0.950 . S
H390 C398 0.950 1_556 S
H391 C400 0.944 1_545 S
H392 C402 0.950 . S
H393 C404 0.950 1_554 S
H394 C406 0.945 1_565 S
H395 C407 0.950 . S
C396 H388 0.950 . S
C396 C397 1.386 . S
C396 C398 1.391 . S
C397 C396 1.386 . S
C397 C401 1.393 . S
C398 H390 0.950 1_554 S
C398 C396 1.391 . S
C398 C399 1.400 . S
C399 C398 1.400 . S
C399 C400 1.398 . S
C399 C405 1.491 1_564 S
C400 H391 0.944 1_565 S
C400 C399 1.398 . S
C400 C401 1.391 . S
C401 H389 0.950 . S
C401 C397 1.393 . S
C401 C400 1.391 . S
C402 H392 0.950 . S
C402 C403 1.386 . S
C402 C404 1.391 . S
C403 C402 1.386 . S
C403 C407 1.393 . S
C404 H393 0.950 1_556 S
C404 C402 1.391 . S
C404 C405 1.400 . S
C405 C399 1.491 1_546 S
C405 C404 1.400 . S
C405 C406 1.398 . S
C406 H394 0.945 1_545 S
C406 C405 1.398 . S
C406 C407 1.391 . S
C407 H395 0.950 . S
C407 C403 1.393 . S
C407 C406 1.391 . S
H408 C416 0.950 . S
H409 C421 0.950 . S
H410 C418 0.950 . S
H411 C420 0.950 . S
H412 C422 0.950 . S
H413 C424 0.950 . S
H414 C426 0.950 . S
H415 C427 0.950 . S
C416 H408 0.950 . S
C416 C417 1.386 . S
C416 C418 1.391 . S
C417 C416 1.386 . S
C417 C421 1.393 . S
C418 H410 0.950 . S
C418 C416 1.391 . S
C418 C419 1.400 . S
C419 C418 1.400 . S
C419 C420 1.398 . S
C419 C425 1.491 . S
C420 H411 0.950 . S
C420 C419 1.398 . S
C420 C421 1.391 . S
C421 H409 0.950 . S
C421 C417 1.393 . S
C421 C420 1.391 . S
C422 H412 0.950 . S
C422 C423 1.386 . S
C422 C424 1.391 . S
C423 C422 1.386 . S
C423 C427 1.393 . S
C424 H413 0.950 . S
C424 C422 1.391 . S
C424 C425 1.400 1_556 S
C425 C419 1.491 . S
C425 C424 1.400 1_554 S
C425 C426 1.398 . S
C426 H414 0.950 . S
C426 C425 1.398 . S
C426 C427 1.391 1_554 S
C427 H415 0.950 . S
C427 C423 1.393 . S
C427 C426 1.391 1_556 S
H428 C436 0.950 . S
H429 C441 0.950 . S
H430 C438 0.950 . S
H431 C440 0.950 . S
H432 C442 0.950 . S
H433 C444 0.950 . S
H434 C446 0.950 . S
H435 C447 0.950 . S
C436 H428 0.950 . S
C436 C437 1.386 . S
C436 C438 1.391 . S
C437 C436 1.386 . S
C437 C441 1.393 . S
C438 H430 0.950 . S
C438 C436 1.391 . S
C438 C439 1.400 . S
C439 C438 1.400 . S
C439 C440 1.398 . S
C439 C445 1.491 . S
C440 H431 0.950 . S
C440 C439 1.398 . S
C440 C441 1.391 . S
C441 H429 0.950 . S
C441 C437 1.393 . S
C441 C440 1.391 . S
C442 H432 0.950 . S
C442 C443 1.386 . S
C442 C444 1.391 . S
C443 C442 1.386 . S
C443 C447 1.393 1_455 S
C444 H433 0.950 . S
C444 C442 1.391 . S
C444 C445 1.400 1_455 S
C445 C439 1.491 . S
C445 C444 1.400 1_655 S
C445 C446 1.398 . S
C446 H434 0.950 . S
C446 C445 1.398 . S
C446 C447 1.391 . S
C447 H435 0.950 . S
C447 C443 1.393 1_655 S
C447 C446 1.391 . S
H448 C456 0.950 . S
H449 C461 0.950 . S
H450 C458 0.950 . S
H451 C460 0.950 . S
H452 C462 0.950 . S
H453 C464 0.950 . S
H454 C466 0.950 . S
H455 C467 0.950 . S
C456 H448 0.950 . S
C456 C457 1.386 1_565 S
C456 C458 1.391 . S
C457 C456 1.386 1_545 S
C457 C461 1.393 . S
C458 H450 0.950 . S
C458 C456 1.391 . S
C458 C459 1.400 . S
C459 C458 1.400 . S
C459 C460 1.398 1_565 S
C459 C465 1.491 . S
C460 H451 0.950 . S
C460 C459 1.398 1_545 S
C460 C461 1.391 . S
C461 H449 0.950 . S
C461 C457 1.393 . S
C461 C460 1.391 . S
C462 H452 0.950 . S
C462 C463 1.386 . S
C462 C464 1.391 . S
C463 C462 1.386 . S
C463 C467 1.393 . S
C464 H453 0.950 . S
C464 C462 1.391 . S
C464 C465 1.400 . S
C465 C459 1.491 . S
C465 C464 1.400 . S
C465 C466 1.398 . S
C466 H454 0.950 . S
C466 C465 1.398 . S
C466 C467 1.391 . S
C467 H455 0.950 . S
C467 C463 1.393 . S
C467 C466 1.391 . S
H468 C476 0.950 . S
H469 C481 0.950 . S
H470 C478 0.950 . S
H471 C480 0.950 . S
H472 C482 0.950 . S
H473 C484 0.950 . S
H474 C486 0.950 . S
H475 C487 0.950 . S
C476 H468 0.950 . S
C476 C477 1.386 . S
C476 C478 1.391 . S
C477 C476 1.386 . S
C477 C481 1.393 . S
C478 H470 0.950 . S
C478 C476 1.391 . S
C478 C479 1.400 . S
C479 C478 1.400 . S
C479 C480 1.398 . S
C479 C485 1.491 . S
C480 H471 0.950 . S
C480 C479 1.398 . S
C480 C481 1.391 . S
C481 H469 0.950 . S
C481 C477 1.393 . S
C481 C480 1.391 . S
C482 H472 0.950 . S
C482 C483 1.386 . S
C482 C484 1.391 . S
C483 C482 1.386 . S
C483 C487 1.393 . S
C484 H473 0.950 . S
C484 C482 1.391 . S
C484 C485 1.400 . S
C485 C479 1.491 . S
C485 C484 1.400 . S
C485 C486 1.398 . S
C486 H474 0.950 . S
C486 C485 1.398 . S
C486 C487 1.391 . S
C487 H475 0.950 . S
C487 C483 1.393 . S
C487 C486 1.391 . S
H488 C496 0.950 . S
H489 C501 0.950 . S
H490 C498 0.950 . S
H491 C500 0.950 . S
H492 C502 0.950 . S
H493 C504 0.950 . S
H494 C506 0.950 . S
H495 C507 0.950 . S
C496 H488 0.950 . S
C496 C497 1.386 . S
C496 C498 1.391 . S
C497 C496 1.386 . S
C497 C501 1.393 . S
C498 H490 0.950 . S
C498 C496 1.391 . S
C498 C499 1.400 . S
C499 C498 1.400 . S
C499 C500 1.398 . S
C499 C505 1.491 . S
C500 H491 0.950 . S
C500 C499 1.398 . S
C500 C501 1.391 . S
C501 H489 0.950 . S
C501 C497 1.393 . S
C501 C500 1.391 . S
C502 H492 0.950 . S
C502 C503 1.386 . S
C502 C504 1.391 . S
C503 C502 1.386 . S
C503 C507 1.393 1_655 S
C504 H493 0.950 . S
C504 C502 1.391 . S
C504 C505 1.400 1_655 S
C505 C499 1.491 . S
C505 C504 1.400 1_455 S
C505 C506 1.398 . S
C506 H494 0.950 . S
C506 C505 1.398 . S
C506 C507 1.391 . S
C507 H495 0.950 . S
C507 C503 1.393 1_455 S
C507 C506 1.391 . S
H508 C516 0.950 . S
H509 C521 0.950 . S
H510 C518 0.950 . S
H511 C520 0.950 . S
H512 C522 0.950 . S
H513 C524 0.950 . S
H514 C526 0.950 . S
H515 C527 0.950 . S
C516 H508 0.950 . S
C516 C517 1.386 . S
C516 C518 1.391 . S
C517 C516 1.386 . S
C517 C521 1.393 . S
C518 H510 0.950 . S
C518 C516 1.391 . S
C518 C519 1.400 . S
C519 C518 1.400 . S
C519 C520 1.398 . S
C519 C525 1.491 . S
C520 H511 0.950 . S
C520 C519 1.398 . S
C520 C521 1.391 . S
C521 H509 0.950 . S
C521 C517 1.393 . S
C521 C520 1.391 . S
C522 H512 0.950 . S
C522 C523 1.386 . S
C522 C524 1.391 1_565 S
C523 C522 1.386 . S
C523 C527 1.393 . S
C524 H513 0.950 . S
C524 C522 1.391 1_545 S
C524 C525 1.400 . S
C525 C519 1.491 . S
C525 C524 1.400 . S
C525 C526 1.398 . S
C526 H514 0.950 . S
C526 C525 1.398 . S
C526 C527 1.391 1_545 S
C527 H515 0.950 . S
C527 C523 1.393 . S
C527 C526 1.391 1_565 S
H528 C536 0.950 . S
H529 C541 0.950 . S
H530 C538 0.950 . S
H531 C540 0.950 . S
H532 C542 0.950 . S
H533 C544 0.950 . S
H534 C546 0.950 . S
H535 C547 0.950 . S
C536 H528 0.950 . S
C536 C537 1.386 . S
C536 C538 1.391 . S
C537 C536 1.386 . S
C537 C541 1.393 . S
C538 H530 0.950 . S
C538 C536 1.391 . S
C538 C539 1.400 . S
C539 C538 1.400 . S
C539 C540 1.398 . S
C539 C545 1.491 . S
C540 H531 0.950 . S
C540 C539 1.398 . S
C540 C541 1.391 . S
C541 H529 0.950 . S
C541 C537 1.393 . S
C541 C540 1.391 . S
C542 H532 0.950 . S
C542 C543 1.386 . S
C542 C544 1.391 . S
C543 C542 1.386 . S
C543 C547 1.393 . S
C544 H533 0.950 . S
C544 C542 1.391 . S
C544 C545 1.400 . S
C545 C539 1.491 . S
C545 C544 1.400 . S
C545 C546 1.398 . S
C546 H534 0.950 . S
C546 C545 1.398 . S
C546 C547 1.391 . S
C547 H535 0.950 . S
C547 C543 1.393 . S
C547 C546 1.391 . S
H548 C556 0.950 . S
H549 C561 0.950 . S
H550 C558 0.950 . S
H551 C560 0.950 . S
H552 C562 0.950 . S
H553 C564 0.950 . S
H554 C566 0.953 . S
H555 C567 0.950 . S
C556 H548 0.950 . S
C556 C557 1.386 . S
C556 C558 1.391 . S
C557 C556 1.386 . S
C557 C561 1.393 . S
C558 H550 0.950 . S
C558 C556 1.391 . S
C558 C559 1.400 . S
C559 C558 1.400 . S
C559 C560 1.398 . S
C559 C565 1.491 . S
C560 H551 0.950 . S
C560 C559 1.398 . S
C560 C561 1.391 . S
C561 H549 0.950 . S
C561 C557 1.393 . S
C561 C560 1.391 . S
C562 H552 0.950 . S
C562 C563 1.386 1_655 S
C562 C564 1.391 . S
C563 C562 1.386 1_455 S
C563 C567 1.393 . S
C564 H553 0.950 . S
C564 C562 1.391 . S
C564 C565 1.400 1_554 S
C565 C559 1.491 . S
C565 C564 1.400 1_556 S
C565 C566 1.398 . S
C566 H554 0.953 . S
C566 C565 1.398 . S
C566 C567 1.391 1_656 S
C567 H555 0.950 . S
C567 C563 1.393 . S
C567 C566 1.391 1_454 S
H568 C576 0.950 . S
H569 C581 0.950 . S
H570 C578 0.950 . S
H571 C580 0.950 . S
H572 C582 0.950 . S
H573 C584 0.949 . S
H574 C586 0.950 . S
H575 C587 0.950 . S
C576 H568 0.950 . S
C576 C577 1.386 . S
C576 C578 1.391 . S
C577 C576 1.386 . S
C577 C581 1.393 . S
C578 H570 0.950 . S
C578 C576 1.391 . S
C578 C579 1.400 . S
C579 C578 1.400 . S
C579 C580 1.398 . S
C579 C585 1.491 . S
C580 H571 0.950 . S
C580 C579 1.398 . S
C580 C581 1.391 . S
C581 H569 0.950 . S
C581 C577 1.393 . S
C581 C580 1.391 . S
C582 H572 0.950 . S
C582 C583 1.386 . S
C582 C584 1.398 . S
C583 C582 1.386 . S
C583 C587 1.393 1_545 S
C584 H573 0.949 . S
C584 C582 1.398 . S
C584 C585 1.394 1_545 S
C585 C579 1.491 . S
C585 C584 1.394 1_565 S
C585 C586 1.398 . S
C586 H574 0.950 . S
C586 C585 1.398 . S
C586 C587 1.391 . S
C587 H575 0.950 . S
C587 C583 1.393 1_565 S
C587 C586 1.391 . S
H588 C596 0.950 . S
H589 C601 0.950 . S
H590 C598 0.950 . S
H591 C600 0.950 . S
H592 C602 0.950 . S
H593 C604 0.950 . S
H594 C606 0.950 . S
H595 C607 0.950 . S
C596 H588 0.950 . S
C596 C597 1.386 . S
C596 C598 1.391 . S
C597 C596 1.386 . S
C597 C601 1.393 . S
C598 H590 0.950 . S
C598 C596 1.391 . S
C598 C599 1.400 . S
C599 C598 1.400 . S
C599 C600 1.398 . S
C599 C605 1.491 . S
C600 H591 0.950 . S
C600 C599 1.398 . S
C600 C601 1.391 . S
C601 H589 0.950 . S
C601 C597 1.393 . S
C601 C600 1.391 . S
C602 H592 0.950 . S
C602 C603 1.386 . S
C602 C604 1.391 . S
C603 C602 1.386 . S
C603 C607 1.393 . S
C604 H593 0.950 . S
C604 C602 1.391 . S
C604 C605 1.400 . S
C605 C599 1.491 . S
C605 C604 1.400 . S
C605 C606 1.398 . S
C606 H594 0.950 . S
C606 C605 1.398 . S
C606 C607 1.391 . S
C607 H595 0.950 . S
C607 C603 1.393 . S
C607 C606 1.391 . S
H608 C616 0.950 . S
H609 C621 0.950 . S
H610 C618 0.950 . S
H611 C620 0.950 . S
H612 C622 0.950 . S
H613 C624 0.950 . S
H614 C626 0.953 . S
H615 C627 0.950 . S
C616 H608 0.950 . S
C616 C617 1.386 . S
C616 C618 1.391 . S
C617 C616 1.386 . S
C617 C621 1.393 . S
C618 H610 0.950 . S
C618 C616 1.391 . S
C618 C619 1.400 . S
C619 C618 1.400 . S
C619 C620 1.398 . S
C619 C625 1.491 . S
C620 H611 0.950 . S
C620 C619 1.398 . S
C620 C621 1.391 . S
C621 H609 0.950 . S
C621 C617 1.393 . S
C621 C620 1.391 . S
C622 H612 0.950 . S
C622 C623 1.386 1_455 S
C622 C624 1.391 . S
C623 C622 1.386 1_655 S
C623 C627 1.393 . S
C624 H613 0.950 . S
C624 C622 1.391 . S
C624 C625 1.400 . S
C625 C619 1.491 . S
C625 C624 1.400 . S
C625 C626 1.391 1_455 S
C626 H614 0.953 . S
C626 C625 1.391 1_655 S
C626 C627 1.395 . S
C627 H615 0.950 . S
C627 C623 1.393 . S
C627 C626 1.395 . S
H628 C636 0.950 . S
H629 C641 0.950 . S
H630 C638 0.950 . S
H631 C640 0.950 . S
H632 C642 0.950 . S
H633 C644 0.950 . S
H634 C646 0.950 . S
H635 C647 0.950 . S
C636 H628 0.950 . S
C636 C637 1.386 . S
C636 C638 1.391 1_565 S
C637 C636 1.386 . S
C637 C641 1.393 . S
C638 H630 0.950 . S
C638 C636 1.391 1_545 S
C638 C639 1.400 . S
C639 C638 1.400 . S
C639 C640 1.398 . S
C639 C645 1.491 . S
C640 H631 0.950 . S
C640 C639 1.398 . S
C640 C641 1.391 1_545 S
C641 H629 0.950 . S
C641 C637 1.393 . S
C641 C640 1.391 1_565 S
C642 H632 0.950 . S
C642 C643 1.386 . S
C642 C644 1.391 . S
C643 C642 1.386 . S
C643 C647 1.393 . S
C644 H633 0.950 . S
C644 C642 1.391 . S
C644 C645 1.400 . S
C645 C639 1.491 . S
C645 C644 1.400 . S
C645 C646 1.398 . S
C646 H634 0.950 . S
C646 C645 1.398 . S
C646 C647 1.391 . S
C647 H635 0.950 . S
C647 C643 1.393 . S
C647 C646 1.391 . S
C177 C123 1.302 . S
C183 C11 1.302 . S
C197 C25 1.302 . S
C203 C137 1.301 . S
C217 C39 1.295 . S
C223 C151 1.294 . S
C237 C53 1.302 . S
C243 C165 1.302 . S
C257 C95 1.299 . S
C263 C67 1.298 . S
C277 C81 1.299 . S
C283 C109 1.300 . S
C297 C131 0.984 . S
C303 C5 0.971 . S
C317 C19 0.970 . S
C323 C145 0.981 . S
C337 C159 0.968 . S
C343 C33 0.985 . S
C357 C47 0.985 . S
C363 C89 0.970 . S
C377 C103 0.985 . S
C383 C61 0.970 . S
C397 C117 0.970 . S
C403 C75 0.981 . S
C417 C0 1.418 . S
C423 C79 1.417 . S
C437 C14 1.420 . S
C443 C9 1.412 . S
C457 C23 1.420 . S
C463 C28 1.413 . S
C477 C42 1.409 . S
C483 C37 1.425 . S
C497 C56 1.410 . S
C503 C51 1.423 . S
C517 C70 1.410 . S
C523 C65 1.424 . S
C537 C84 1.413 . S
C543 C107 1.419 . S
C557 C98 1.415 . S
C563 C121 1.421 . S
C577 C112 1.420 . S
C583 C135 1.412 . S
C597 C126 1.409 . S
C603 C149 1.425 . S
C617 C140 1.416 . S
C623 C163 1.420 . S
C637 C93 1.425 . S
C643 C154 1.409 . S
