# Generated by pormake.
# Topology wmt, (6)-cn, num edge types: 1
# Building blocks:
#     Node 0, Type 0, BuildingBlock: GEDQOX_clean_sbu_0, # of connection points: 6
#     Node 1, Type 0, BuildingBlock: GEDQOX_clean_sbu_0, # of connection points: 6
#     Node 2, Type 0, BuildingBlock: GEDQOX_clean_sbu_0, # of connection points: 6
#     Node 3, Type 0, BuildingBlock: GEDQOX_clean_sbu_0, # of connection points: 6
#     Node 4, Type 0, BuildingBlock: GEDQOX_clean_sbu_0, # of connection points: 6
#     Node 5, Type 0, BuildingBlock: GEDQOX_clean_sbu_0, # of connection points: 6
#     Node 6, Type 0, BuildingBlock: GEDQOX_clean_sbu_0, # of connection points: 6
#     Node 7, Type 0, BuildingBlock: GEDQOX_clean_sbu_0, # of connection points: 6
#     Node 8, Type 0, BuildingBlock: GEDQOX_clean_sbu_0, # of connection points: 6
#     Node 9, Type 0, BuildingBlock: GEDQOX_clean_sbu_0, # of connection points: 6
#     Node 10, Type 0, BuildingBlock: GEDQOX_clean_sbu_0, # of connection points: 6
#     Node 11, Type 0, BuildingBlock: GEDQOX_clean_sbu_0, # of connection points: 6
#     Node 12, Type 0, BuildingBlock: GEDQOX_clean_sbu_0, # of connection points: 6
#     Node 13, Type 0, BuildingBlock: GEDQOX_clean_sbu_0, # of connection points: 6
#     Node 14, Type 0, BuildingBlock: GEDQOX_clean_sbu_0, # of connection points: 6
#     Node 15, Type 0, BuildingBlock: GEDQOX_clean_sbu_0, # of connection points: 6
#     Node 16, Type 0, BuildingBlock: GEDQOX_clean_sbu_0, # of connection points: 6
#     Node 17, Type 0, BuildingBlock: GEDQOX_clean_sbu_0, # of connection points: 6
#     Node 18, Type 0, BuildingBlock: GEDQOX_clean_sbu_0, # of connection points: 6
#     Node 19, Type 0, BuildingBlock: GEDQOX_clean_sbu_0, # of connection points: 6
#     Node 20, Type 0, BuildingBlock: GEDQOX_clean_sbu_0, # of connection points: 6
#     Node 21, Type 0, BuildingBlock: GEDQOX_clean_sbu_0, # of connection points: 6
#     Node 22, Type 0, BuildingBlock: GEDQOX_clean_sbu_0, # of connection points: 6
#     Node 23, Type 0, BuildingBlock: GEDQOX_clean_sbu_0, # of connection points: 6
#     Node 24, Type 0, BuildingBlock: GEDQOX_clean_sbu_0, # of connection points: 6
#     Node 25, Type 0, BuildingBlock: GEDQOX_clean_sbu_0, # of connection points: 6
#     Node 26, Type 0, BuildingBlock: GEDQOX_clean_sbu_0, # of connection points: 6
#     Node 27, Type 0, BuildingBlock: GEDQOX_clean_sbu_0, # of connection points: 6
#     Node 28, Type 0, BuildingBlock: GEDQOX_clean_sbu_0, # of connection points: 6
#     Node 29, Type 0, BuildingBlock: GEDQOX_clean_sbu_0, # of connection points: 6
#     Node 30, Type 0, BuildingBlock: GEDQOX_clean_sbu_0, # of connection points: 6
#     Node 31, Type 0, BuildingBlock: GEDQOX_clean_sbu_0, # of connection points: 6
#     Node 32, Type 0, BuildingBlock: GEDQOX_clean_sbu_0, # of connection points: 6
#     Node 33, Type 0, BuildingBlock: GEDQOX_clean_sbu_0, # of connection points: 6
#     Node 34, Type 0, BuildingBlock: GEDQOX_clean_sbu_0, # of connection points: 6
#     Node 35, Type 0, BuildingBlock: GEDQOX_clean_sbu_0, # of connection points: 6
#     Edge 36, Type (0, 0), None
#     Edge 37, Type (0, 0), None
#     Edge 38, Type (0, 0), None
#     Edge 39, Type (0, 0), None
#     Edge 40, Type (0, 0), None
#     Edge 41, Type (0, 0), None
#     Edge 42, Type (0, 0), None
#     Edge 43, Type (0, 0), None
#     Edge 44, Type (0, 0), None
#     Edge 45, Type (0, 0), None
#     Edge 46, Type (0, 0), None
#     Edge 47, Type (0, 0), None
#     Edge 48, Type (0, 0), None
#     Edge 49, Type (0, 0), None
#     Edge 50, Type (0, 0), None
#     Edge 51, Type (0, 0), None
#     Edge 52, Type (0, 0), None
#     Edge 53, Type (0, 0), None
#     Edge 54, Type (0, 0), None
#     Edge 55, Type (0, 0), None
#     Edge 56, Type (0, 0), None
#     Edge 57, Type (0, 0), None
#     Edge 58, Type (0, 0), None
#     Edge 59, Type (0, 0), None
#     Edge 60, Type (0, 0), None
#     Edge 61, Type (0, 0), None
#     Edge 62, Type (0, 0), None
#     Edge 63, Type (0, 0), None
#     Edge 64, Type (0, 0), None
#     Edge 65, Type (0, 0), None
#     Edge 66, Type (0, 0), None
#     Edge 67, Type (0, 0), None
#     Edge 68, Type (0, 0), None
#     Edge 69, Type (0, 0), None
#     Edge 70, Type (0, 0), None
#     Edge 71, Type (0, 0), None
#     Edge 72, Type (0, 0), None
#     Edge 73, Type (0, 0), None
#     Edge 74, Type (0, 0), None
#     Edge 75, Type (0, 0), None
#     Edge 76, Type (0, 0), None
#     Edge 77, Type (0, 0), None
#     Edge 78, Type (0, 0), None
#     Edge 79, Type (0, 0), None
#     Edge 80, Type (0, 0), None
#     Edge 81, Type (0, 0), None
#     Edge 82, Type (0, 0), None
#     Edge 83, Type (0, 0), None
#     Edge 84, Type (0, 0), None
#     Edge 85, Type (0, 0), None
#     Edge 86, Type (0, 0), None
#     Edge 87, Type (0, 0), None
#     Edge 88, Type (0, 0), None
#     Edge 89, Type (0, 0), None
#     Edge 90, Type (0, 0), None
#     Edge 91, Type (0, 0), None
#     Edge 92, Type (0, 0), None
#     Edge 93, Type (0, 0), None
#     Edge 94, Type (0, 0), None
#     Edge 95, Type (0, 0), None
#     Edge 96, Type (0, 0), None
#     Edge 97, Type (0, 0), None
#     Edge 98, Type (0, 0), None
#     Edge 99, Type (0, 0), None
#     Edge 100, Type (0, 0), None
#     Edge 101, Type (0, 0), None
#     Edge 102, Type (0, 0), None
#     Edge 103, Type (0, 0), None
#     Edge 104, Type (0, 0), None
#     Edge 105, Type (0, 0), None
#     Edge 106, Type (0, 0), None
#     Edge 107, Type (0, 0), None
#     Edge 108, Type (0, 0), None
#     Edge 109, Type (0, 0), None
#     Edge 110, Type (0, 0), None
#     Edge 111, Type (0, 0), None
#     Edge 112, Type (0, 0), None
#     Edge 113, Type (0, 0), None
#     Edge 114, Type (0, 0), None
#     Edge 115, Type (0, 0), None
#     Edge 116, Type (0, 0), None
#     Edge 117, Type (0, 0), None
#     Edge 118, Type (0, 0), None
#     Edge 119, Type (0, 0), None
#     Edge 120, Type (0, 0), None
#     Edge 121, Type (0, 0), None
#     Edge 122, Type (0, 0), None
#     Edge 123, Type (0, 0), None
#     Edge 124, Type (0, 0), None
#     Edge 125, Type (0, 0), None
#     Edge 126, Type (0, 0), None
#     Edge 127, Type (0, 0), None
#     Edge 128, Type (0, 0), None
#     Edge 129, Type (0, 0), None
#     Edge 130, Type (0, 0), None
#     Edge 131, Type (0, 0), None
#     Edge 132, Type (0, 0), None
#     Edge 133, Type (0, 0), None
#     Edge 134, Type (0, 0), None
#     Edge 135, Type (0, 0), None
#     Edge 136, Type (0, 0), None
#     Edge 137, Type (0, 0), None
#     Edge 138, Type (0, 0), None
#     Edge 139, Type (0, 0), None
#     Edge 140, Type (0, 0), None
#     Edge 141, Type (0, 0), None
#     Edge 142, Type (0, 0), None
#     Edge 143, Type (0, 0), None
# Relax obj value: 0.298
# Max RMSD: 0.249
# Mean RMSD: 0.245
data_MOF--net-wmt--node1-GEDQOX_clean_sbu_0--edge1-none
_symmetry_space_group_name_H-M    P1
_symmetry_Int_Tables_number       1
_symmetry_cell_setting            triclinic
loop_
_symmetry_equiv_pos_as_xyz
'x, y, z'
_cell_length_a     40.469873
_cell_length_b     40.485742
_cell_length_c     20.412566
_cell_angle_alpha  90.004833
_cell_angle_beta   90.004587
_cell_angle_gamma 120.0252
loop_
_atom_site_label
_atom_site_type_symbol
_atom_site_fract_x
_atom_site_fract_y
_atom_site_fract_z
_atom_type_partial_charge
Nd0 Nd -0.00688 0.41599 0.10654 0.0
Nd1 Nd 0.04503 0.49538 1.053 0.0
C2 C 0.94124 0.36402 0.18158 0.0
C3 C 0.94874 0.35953 0.24994 0.0
C4 C 0.92331 0.35727 0.29852 0.0
C5 C 0.93362 0.36007 0.36426 0.0
C6 C 0.96957 0.36571 0.38187 0.0
C7 C -0.00531 0.36716 0.33334 0.0
C8 C -0.01562 0.36414 0.26778 0.0
C9 C 0.06171 0.41959 0.09253 0.0
C10 C 0.05877 0.48386 0.20322 0.0
C11 C 0.0877 0.55413 0.97569 0.0
C12 C 0.08722 0.56005 0.90389 0.0
C13 C 0.08075 0.53097 0.85904 0.0
C14 C 0.07453 0.53465 0.79248 0.0
C15 C 0.07388 0.56706 0.76977 0.0
C16 C 0.08148 0.59659 0.814 0.0
C17 C 0.08893 0.59345 0.88016 0.0
C18 C -0.01291 0.48739 0.13493 0.0
C19 C -0.01474 0.42727 0.94939 0.0
O20 O 0.9429 0.39639 0.17028 0.0
O21 O 0.95921 0.35548 0.13731 0.0
O22 O 0.03063 0.39003 0.11166 0.0
O23 O 0.05675 0.44744 1.07754 0.0
O24 O 0.02612 0.45111 0.19841 0.0
O25 O 0.07566 0.50561 0.15157 0.0
O26 O 0.09818 0.52991 0.99553 0.0
O27 O 0.05811 0.5505 1.00786 0.0
O28 O 0.02066 0.5177 0.13326 0.0
O29 O -0.01566 0.46492 0.08911 0.0
O30 O 0.01228 0.46288 0.95934 0.0
O31 O 0.97148 0.40268 0.99858 0.0
H32 H 0.896 0.35431 0.28548 0.0
H33 H 0.91417 0.35909 0.40135 0.0
H34 H 0.02255 0.37139 0.34607 0.0
H35 H 0.00485 0.36669 0.23116 0.0
H36 H 0.07892 0.50472 0.87575 0.0
H37 H 0.0679 0.51113 0.75957 0.0
H38 H 0.08057 0.6216 0.79775 0.0
H39 H 0.09422 0.6164 0.91351 0.0
Nd40 Nd 0.53633 0.57022 0.10597 0.0
Nd41 Nd 0.46164 0.54187 1.05257 0.0
C42 C 0.59617 0.58299 0.17143 0.0
C43 C 0.59899 0.59196 0.24168 0.0
C44 C 0.59802 0.56552 0.28715 0.0
C45 C 0.59346 0.56989 0.3536 0.0
C46 C 0.58941 0.60046 0.37562 0.0
C47 C 0.59109 0.62737 0.33056 0.0
C48 C 0.59593 0.62323 0.26406 0.0
C49 C 0.52401 0.63008 0.08843 0.0
C50 C 0.46869 0.56348 0.20397 0.0
C51 C 0.40194 0.52254 0.97552 0.0
C52 C 0.39607 0.51726 0.90378 0.0
C53 C 0.42551 0.53999 0.85968 0.0
C54 C 0.42217 0.53039 0.79304 0.0
C55 C 0.38973 0.49753 0.76972 0.0
C56 C 0.35981 0.47555 0.81323 0.0
C57 C 0.36266 0.4858 0.87946 0.0
C58 C 0.46907 0.49162 0.13657 0.0
C59 C 0.52769 0.54983 0.94873 0.0
O60 O 0.5694 0.54827 0.15735 0.0
O61 O 0.59721 0.60867 0.13098 0.0
O62 O 0.5307 0.61989 0.14435 0.0
O63 O 0.51465 0.60273 1.04763 0.0
O64 O 0.50057 0.56204 0.19985 0.0
O65 O 0.44955 0.56213 0.15059 0.0
O66 O 0.4238 0.55734 0.99745 0.0
O67 O 0.40873 0.49781 1.00453 0.0
O68 O 0.43957 0.49617 0.13549 0.0
O69 O 0.49142 0.51077 0.09077 0.0
O70 O 0.49099 0.53464 0.96079 0.0
O71 O 0.55276 0.56711 0.99652 0.0
H72 H 0.59972 0.54093 0.27098 0.0
H73 H 0.59179 0.54874 0.38769 0.0
H74 H 0.58812 0.65125 0.34666 0.0
H75 H 0.59597 0.64384 0.23019 0.0
H76 H 0.45182 0.5641 0.87714 0.0
H77 H 0.44598 0.54724 0.76062 0.0
H78 H 0.33481 0.44975 0.79644 0.0
H79 H 0.33956 0.46793 0.91244 0.0
Nd80 Nd 0.39077 0.96528 0.1072 0.0
Nd81 Nd 0.41733 0.91266 1.05342 0.0
C82 C 0.39119 0.01724 0.18279 0.0
C83 C 0.37879 0.00961 0.25093 0.0
C84 C 0.40156 0.03502 0.29989 0.0
C85 C 0.39365 0.02456 0.36553 0.0
C86 C 0.36334 -0.0115 0.38266 0.0
C87 C 0.34006 0.96342 0.33371 0.0
C88 C 0.34776 0.97387 0.26827 0.0
C89 C 0.32516 0.89715 0.09218 0.0
C90 C 0.39208 0.8991 0.20353 0.0
C91 C 0.43303 0.86969 0.97617 0.0
C92 C 0.43908 0.86984 0.90433 0.0
C93 C 0.41677 0.87689 0.85972 0.0
C94 C 0.42657 0.88297 0.79312 0.0
C95 C 0.45923 0.88288 0.77014 0.0
C96 C 0.4808 0.87465 0.81413 0.0
C97 C 0.47031 0.86736 0.88034 0.0
C98 C 0.46799 0.97045 0.13508 0.0
C99 C 0.40949 0.97277 0.94999 0.0
O100 O 0.42161 0.01499 0.17192 0.0
O101 O 0.36483 -0.00023 0.13806 0.0
O102 O 0.32706 0.9284 0.11133 0.0
O103 O 0.35789 0.9018 1.07756 0.0
O104 O 0.3925 0.93198 0.19883 0.0
O105 O 0.39658 0.88202 0.15184 0.0
O106 O 0.39842 0.85928 0.99647 0.0
O107 O 0.45916 0.89947 1.00773 0.0
O108 O 0.4642 0.93668 0.13358 0.0
O109 O 0.44829 0.97339 0.08941 0.0
O110 O 0.41705 0.94502 0.95959 0.0
O111 O 0.39979 -0.01268 0.99952 0.0
H112 H 0.42589 0.06241 0.28724 0.0
H113 H 0.41183 0.044 0.40293 0.0
H114 H 0.31644 0.93549 0.34603 0.0
H115 H 0.33016 0.95343 0.23135 0.0
H116 H 0.3927 0.8793 0.87667 0.0
H117 H 0.41 0.89012 0.7604 0.0
H118 H 0.50644 0.87501 0.79768 0.0
H119 H 0.48773 0.86162 0.91351 0.0
Nd120 Nd 0.40753 -0.00128 0.72638 0.0
Nd121 Nd 0.48598 0.05214 0.7801 0.0
C122 C 0.35615 0.94675 0.65082 0.0
C123 C 0.35121 0.95435 0.5827 0.0
C124 C 0.35124 0.93029 0.5336 0.0
C125 C 0.35437 0.9412 0.46821 0.0
C126 C 0.3575 0.97622 0.45128 0.0
C127 C 0.35649 -0.0001 0.50025 0.0
C128 C 0.35342 -0.01093 0.5656 0.0
C129 C 0.40822 0.06578 0.74 0.0
C130 C 0.4744 0.06523 0.62981 0.0
C131 C 0.54442 0.09583 0.85736 0.0
C132 C 0.55048 0.09561 0.92913 0.0
C133 C 0.52107 0.08804 0.97397 0.0
C134 C 0.52506 0.082 1.04047 0.0
C135 C 0.55815 0.08265 1.06311 0.0
C136 C 0.58798 0.09138 1.01891 0.0
C137 C 0.58449 0.09863 0.95281 0.0
C138 C 0.48005 -0.00533 0.69902 0.0
C139 C 0.41868 -0.0086 0.88363 0.0
O140 O 0.38886 0.94905 0.66167 0.0
O141 O 0.34714 0.96397 0.69575 0.0
O142 O 0.37945 0.03411 0.72098 0.0
O143 O 0.43694 0.06235 0.75554 0.0
O144 O 0.44234 0.03197 0.63455 0.0
O145 O 0.49569 0.08268 0.68161 0.0
O146 O 0.51962 0.10552 0.83746 0.0
O147 O 0.54146 0.06648 0.82538 0.0
O148 O 0.50957 0.02876 0.70022 0.0
O149 O 0.45726 -0.00867 0.74464 0.0
O150 O 0.4538 0.01957 0.87408 0.0
O151 O 0.39453 0.97655 0.83403 0.0
H152 H 0.34985 0.90363 0.5461 0.0
H153 H 0.35539 0.92289 0.43086 0.0
H154 H 0.35872 0.02699 0.48803 0.0
H155 H 0.35405 0.00848 0.60265 0.0
H156 H 0.49437 0.08522 0.95728 0.0
H157 H 0.50132 0.07449 1.07339 0.0
H158 H 0.61353 0.09147 1.03512 0.0
H159 H 0.6077 0.1048 0.91946 0.0
Nd160 Nd 0.9589 0.3988 0.72606 0.0
Nd161 Nd 0.90549 0.42377 0.77943 0.0
C162 C 0.01094 0.39972 0.65037 0.0
C163 C 0.00332 0.3875 0.58209 0.0
C164 C 0.02744 0.41176 0.5332 0.0
C165 C 0.01662 0.40412 0.46774 0.0
C166 C -0.01837 0.37221 0.45057 0.0
C167 C 0.95783 0.34744 0.49936 0.0
C168 C 0.96858 0.35505 0.56476 0.0
C169 C 0.89188 0.33234 0.74022 0.0
C170 C 0.89237 0.39894 0.62924 0.0
C171 C 0.86134 0.43786 0.85649 0.0
C172 C 0.86139 0.44367 0.92831 0.0
C173 C 0.86955 0.422 0.97255 0.0
C174 C 0.87565 0.43179 1.03912 0.0
C175 C 0.87437 0.46376 1.06239 0.0
C176 C 0.86498 0.48462 1.01882 0.0
C177 C 0.85777 0.47416 0.95262 0.0
C178 C 0.9628 0.47528 0.69805 0.0
C179 C 0.9665 0.41767 0.88311 0.0
O180 O 0.0088 0.43015 0.66184 0.0
O181 O -0.0064 0.37327 0.69491 0.0
O182 O 0.92355 0.33523 0.72118 0.0
O183 O 0.89533 0.36453 0.75541 0.0
O184 O 0.92558 0.40006 0.63407 0.0
O185 O 0.87498 0.40292 0.68095 0.0
O186 O 0.85183 0.40351 0.83608 0.0
O187 O 0.89077 0.46453 0.82498 0.0
O188 O 0.92865 0.47059 0.6993 0.0
O189 O 0.96626 0.45596 0.74378 0.0
O190 O 0.93857 0.42496 0.87331 0.0
O191 O -0.01898 0.40785 0.83372 0.0
H192 H 0.05412 0.437 0.5459 0.0
H193 H 0.03502 0.4235 0.43051 0.0
H194 H 0.93074 0.32258 0.48693 0.0
H195 H 0.9491 0.33618 0.60167 0.0
H196 H 0.87285 0.39851 0.9553 0.0
H197 H 0.88374 0.41584 1.07155 0.0
H198 H 0.86447 0.50977 1.03554 0.0
H199 H 0.85116 0.49103 0.91971 0.0
Nd200 Nd 0.55996 0.55438 0.72608 0.0
Nd201 Nd 0.53537 0.47541 0.77914 0.0
C202 C 0.5569 0.60358 0.64782 0.0
C203 C 0.5675 0.60698 0.57859 0.0
C204 C 0.54404 0.60961 0.53094 0.0
C205 C 0.55158 0.60808 0.46463 0.0
C206 C 0.58231 0.60342 0.44541 0.0
C207 C 0.60571 0.60073 0.49315 0.0
C208 C 0.59835 0.60245 0.55924 0.0
C209 C 0.62658 0.55375 0.74029 0.0
C210 C 0.56058 0.48783 0.62932 0.0
C211 C 0.52349 0.41835 0.85721 0.0
C212 C 0.517 0.41277 0.92894 0.0
C213 C 0.53854 0.44261 0.9733 0.0
C214 C 0.52843 0.43898 1.0397 0.0
C215 C 0.49624 0.40582 1.06264 0.0
C216 C 0.47539 0.3756 1.01895 0.0
C217 C 0.48618 0.37877 0.95296 0.0
C218 C 0.48376 0.48059 0.6975 0.0
C219 C 0.53895 0.5416 0.88288 0.0
O220 O 0.52694 0.57118 0.66222 0.0
O221 O 0.58447 0.61375 0.69054 0.0
O222 O 0.62392 0.58287 0.72221 0.0
O223 O 0.59412 0.52515 0.75478 0.0
O224 O 0.55959 0.51995 0.63455 0.0
O225 O 0.55622 0.46606 0.68059 0.0
O226 O 0.55759 0.4445 0.83778 0.0
O227 O 0.49623 0.41908 0.82388 0.0
O228 O 0.48843 0.4511 0.69929 0.0
O229 O 0.50306 0.50363 0.74306 0.0
O230 O 0.53038 0.50608 0.87172 0.0
O231 O 0.55112 0.56701 0.83465 0.0
H232 H 0.51985 0.61256 0.54508 0.0
H233 H 0.53326 0.61004 0.42828 0.0
H234 H 0.62959 0.59715 0.47932 0.0
H235 H 0.61639 0.59949 0.59515 0.0
H236 H 0.56223 0.46935 0.9563 0.0
H237 H 0.54439 0.46298 1.07226 0.0
H238 H 0.4501 0.34999 1.03548 0.0
H239 H 0.46936 0.3553 0.91995 0.0
Nd240 Nd 0.90487 0.47207 0.2788 0.0
Nd241 Nd 0.95287 0.54606 0.22496 0.0
C242 C 0.86404 0.41323 0.35756 0.0
C243 C 0.86439 0.40746 0.42932 0.0
C244 C 0.87427 0.43768 0.47345 0.0
C245 C 0.88075 0.43377 0.53976 0.0
C246 C 0.87831 0.39992 0.56286 0.0
C247 C 0.86737 0.36935 0.51934 0.0
C248 C 0.85966 0.37283 0.45344 0.0
C249 C 0.96113 0.47703 0.19315 0.0
C250 C 0.96483 0.53687 0.38227 0.0
C251 C 0.00031 0.60385 0.1556 0.0
C252 C -0.00647 0.60543 0.085 0.0
C253 C 0.0194 0.60534 1.03938 0.0
C254 C 0.01086 0.60161 0.97261 0.0
C255 C -0.02382 0.59744 0.9503 0.0
C256 C 0.95026 0.59755 0.99575 0.0
C257 C 0.95885 0.60157 1.06252 0.0
C258 C 0.88153 0.53602 0.24304 0.0
C259 C 0.88947 0.47911 0.12804 0.0
O260 O 0.85209 0.43611 0.33679 0.0
O261 O 0.8946 0.41863 0.3267 0.0
O262 O 0.92627 0.44891 0.19417 0.0
O263 O 0.96552 0.49969 0.23919 0.0
O264 O 0.94309 0.50036 0.36925 0.0
O265 O 0.97274 0.56233 0.33494 0.0
O266 O 0.00762 0.5769 0.17156 0.0
O267 O -0.02337 0.60658 0.19614 0.0
O268 O 0.89823 0.54214 0.18709 0.0
O269 O 0.89917 0.52629 0.2839 0.0
O270 O 0.92339 0.51031 0.13179 0.0
O271 O 0.87173 0.46024 0.18165 0.0
H272 H 0.87851 0.46484 0.45624 0.0
H273 H 0.88984 0.458 0.57219 0.0
H274 H 0.86576 0.34315 0.5359 0.0
H275 H 0.85185 0.34907 0.42048 0.0
H276 H 0.046 0.60772 1.05556 0.0
H277 H 0.03096 0.60123 0.93834 0.0
H278 H 0.92337 0.59452 0.97963 0.0
H279 H 0.93797 0.60092 0.09645 0.0
Nd280 Nd 0.48783 0.42715 0.2794 0.0
Nd281 Nd 0.41278 0.39883 0.22555 0.0
C282 C 0.54734 0.44668 0.35721 0.0
C283 C 0.55351 0.45295 0.42886 0.0
C284 C 0.52483 0.42992 0.47392 0.0
C285 C 0.52859 0.43991 0.54042 0.0
C286 C 0.56057 0.47358 0.5627 0.0
C287 C 0.58968 0.49602 0.51816 0.0
C288 C 0.58654 0.48529 0.45212 0.0
C289 C 0.48045 0.4774 0.19519 0.0
C290 C 0.42194 0.41958 0.38332 0.0
C291 C 0.35408 0.38699 0.15703 0.0
C292 C 0.35186 0.37837 0.08645 0.0
C293 C 0.35091 0.40383 1.04089 0.0
C294 C 0.35434 0.39902 0.97399 0.0
C295 C 0.35944 0.36912 0.95159 0.0
C296 C 0.36026 0.34352 0.99693 0.0
C297 C 0.35639 0.34801 1.06377 0.0
C298 C 0.42552 0.33911 0.24244 0.0
C299 C 0.48094 0.40541 0.12837 0.0
O300 O 0.52507 0.41168 0.3365 0.0
O301 O 0.541 0.47131 0.32673 0.0
O302 O 0.51004 0.47299 0.19652 0.0
O303 O 0.45803 0.45813 0.24082 0.0
O304 O 0.45858 0.43497 0.37058 0.0
O305 O 0.3966 0.40199 0.33576 0.0
O306 O 0.38088 0.42151 0.17214 0.0
O307 O 0.35222 0.36096 0.1976 0.0
O308 O 0.41846 0.34927 0.18684 0.0
O309 O 0.43459 0.36629 0.28353 0.0
O310 O 0.44904 0.40683 0.13237 0.0
O311 O 0.50014 0.40692 0.18174 0.0
H312 H 0.49881 0.40509 0.4574 0.0
H313 H 0.5054 0.4226 0.57366 0.0
H314 H 0.61438 0.52233 0.53412 0.0
H315 H 0.60916 0.50331 0.4185 0.0
H316 H 0.34808 0.42777 1.0572 0.0
H317 H 0.35394 0.41914 0.93974 0.0
H318 H 0.36411 0.32019 0.98069 0.0
H319 H 0.35789 0.32821 0.09761 0.0
Nd320 Nd 0.53461 0.05271 0.27938 0.0
Nd321 Nd 0.56175 0.00466 0.22714 0.0
C322 C 0.51652 0.09353 0.3579 0.0
C323 C 0.51048 0.0931 0.42971 0.0
C324 C 0.53087 0.08313 0.4736 0.0
C325 C 0.52065 0.07672 0.54 0.0
C326 C 0.4894 0.07934 0.56343 0.0
C327 C 0.46973 0.09037 0.52014 0.0
C328 C 0.48075 0.09801 0.45415 0.0
C329 C 0.48439 -0.00324 0.19276 0.0
C330 C 0.54002 -0.00694 0.38376 0.0
C331 C 0.57008 0.9559 0.15813 0.0
C332 C 0.57804 0.96232 0.08737 0.0
C333 C 0.55187 0.93628 1.04212 0.0
C334 C 0.55652 0.9445 0.97519 0.0
C335 C 0.587 0.97905 0.95245 0.0
C336 C 0.61315 0.00519 0.99753 0.0
C337 C 0.60879 -0.00312 1.06436 0.0
C338 C 0.62155 0.07769 0.24056 0.0
C339 C 0.55867 0.06801 0.12913 0.0
O340 O 0.55136 0.10549 0.33715 0.0
O341 O 0.49134 0.06303 0.32689 0.0
O342 O 0.49073 0.03146 0.19394 0.0
O343 O 0.50247 -0.00771 0.23921 0.0
O344 O 0.52449 0.01401 0.36953 0.0
O345 O 0.55864 -0.01416 0.33747 0.0
O346 O 0.5362 0.94954 0.17464 0.0
O347 O 0.59708 0.9793 0.19823 0.0
O348 O 0.61391 0.05734 0.1882 0.0
O349 O 0.59501 0.06019 0.28299 0.0
O350 O 0.55626 0.03426 0.13348 0.0
O351 O 0.55633 0.0855 0.18214 0.0
H352 H 0.55369 0.07878 0.45615 0.0
H353 H 0.53579 0.06753 0.57223 0.0
H354 H 0.44525 0.09211 0.53696 0.0
H355 H 0.46481 0.10592 0.42139 0.0
H356 H 0.52768 0.90977 1.05871 0.0
H357 H 0.536 0.92424 0.94112 0.0
H358 H 0.63698 0.032 0.98103 0.0
H359 H 0.62923 0.01785 0.09793 0.0
Nd360 Nd 0.46492 0.91316 0.55392 0.0
Nd361 Nd 0.54032 0.96196 0.60654 0.0
C362 C 0.40598 0.87188 0.47567 0.0
C363 C 0.40028 0.87173 0.40383 0.0
C364 C 0.4307 0.88169 0.36006 0.0
C365 C 0.42689 0.88787 0.29356 0.0
C366 C 0.39294 0.88502 0.26993 0.0
C367 C 0.36217 0.87392 0.31309 0.0
C368 C 0.36556 0.86651 0.37919 0.0
C369 C 0.47027 0.96861 0.64111 0.0
C370 C 0.53018 0.97332 0.44982 0.0
C371 C 0.59701 0.011 0.6761 0.0
C372 C 0.59863 0.00455 0.74684 0.0
C373 C 0.59887 0.0307 0.79222 0.0
C374 C 0.59558 0.02253 0.85918 0.0
C375 C 0.59132 -0.01212 0.88177 0.0
C376 C 0.59093 0.96164 0.83653 0.0
C377 C 0.59468 0.96992 0.7697 0.0
C378 C 0.52738 0.88918 0.59176 0.0
C379 C 0.4742 0.8978 0.70412 0.0
O380 O 0.42877 0.85997 0.4971 0.0
O381 O 0.41154 0.90273 0.50569 0.0
O382 O 0.44207 0.9338 0.63977 0.0
O383 O 0.49283 0.97343 0.59454 0.0
O384 O 0.49365 0.95185 0.4637 0.0
O385 O 0.55602 0.98105 0.49636 0.0
O386 O 0.5692 0.01692 0.65963 0.0
O387 O 0.60101 -0.01209 0.63588 0.0
O388 O 0.54036 0.90937 0.64425 0.0
O389 O 0.51826 0.90678 0.54983 0.0
O390 O 0.50539 0.93171 0.69996 0.0
O391 O 0.45435 0.88032 0.65107 0.0
H392 H 0.45793 0.88631 0.37771 0.0
H393 H 0.45126 0.89712 0.26142 0.0
H394 H 0.3359 0.87203 0.29612 0.0
H395 H 0.34169 0.8587 0.4119 0.0
H396 H 0.60128 0.05725 0.77575 0.0
H397 H 0.59566 0.04289 0.89339 0.0
H398 H 0.5878 0.93475 0.8529 0.0
H399 H 0.59387 0.94888 0.73602 0.0
Nd400 Nd 0.04436 0.54218 0.55336 0.0
Nd401 Nd -0.00546 0.56799 0.60537 0.0
C402 C 0.08613 0.52507 0.47542 0.0
C403 C 0.08633 0.51956 0.40354 0.0
C404 C 0.07641 0.54002 0.35975 0.0
C405 C 0.07014 0.52998 0.29326 0.0
C406 C 0.07284 0.49881 0.26966 0.0
C407 C 0.08393 0.47914 0.31284 0.0
C408 C 0.09143 0.49001 0.37891 0.0
C409 C -0.01108 0.49173 0.64022 0.0
C410 C -0.01555 0.54701 0.44836 0.0
C411 C 0.94444 0.57455 0.67396 0.0
C412 C 0.9507 0.58286 0.74463 0.0
C413 C 0.92399 0.55771 0.79018 0.0
C414 C 0.93207 0.56285 0.85721 0.0
C415 C 0.96715 0.59275 0.87965 0.0
C416 C -0.00612 0.61786 0.83418 0.0
C417 C -0.01425 0.613 0.76736 0.0
C418 C 0.06726 0.62825 0.59121 0.0
C419 C 0.05904 0.56699 0.70359 0.0
O420 O 0.09779 0.55971 0.49692 0.0
O421 O 0.05536 0.49958 0.50538 0.0
O422 O 0.02383 0.49863 0.6391 0.0
O423 O -0.016 0.50935 0.59351 0.0
O424 O 0.00619 0.53232 0.46249 0.0
O425 O -0.02405 0.5645 0.49492 0.0
O426 O 0.9394 0.54108 0.65805 0.0
O427 O 0.96735 0.60175 0.63372 0.0
O428 O 0.04667 0.62111 0.64319 0.0
O429 O 0.04994 0.60152 0.54922 0.0
O430 O 0.02495 0.56386 0.69909 0.0
O431 O 0.07681 0.56482 0.65076 0.0
H432 H 0.07188 0.56269 0.37736 0.0
H433 H 0.06093 0.54513 0.26111 0.0
H434 H 0.08574 0.45473 0.2959 0.0
H435 H 0.09921 0.47393 0.41162 0.0
H436 H 0.89713 0.53391 0.77381 0.0
H437 H 0.91129 0.54313 0.89157 0.0
H438 H 0.02107 0.64127 0.85033 0.0
H439 H 0.00717 0.63269 0.73361 0.0
Nd440 Nd 0.41467 0.49287 0.5539 0.0
Nd441 Nd 0.39042 0.41783 0.6064 0.0
C442 C 0.42965 0.5511 0.476 0.0
C443 C 0.43394 0.55615 0.40401 0.0
C444 C 0.41412 0.52492 0.36148 0.0
C445 C 0.42352 0.52827 0.29475 0.0
C446 C 0.4532 0.56269 0.26971 0.0
C447 C 0.472 0.59427 0.31156 0.0
C448 C 0.46195 0.59119 0.37795 0.0
C449 C 0.46632 0.48946 0.64016 0.0
C450 C 0.41142 0.42873 0.44932 0.0
C451 C 0.38436 0.36167 0.6757 0.0
C452 C 0.37554 0.35915 0.74625 0.0
C453 C 0.40154 0.35956 0.79218 0.0
C454 C 0.39595 0.36227 0.85906 0.0
C455 C 0.36464 0.36518 0.88103 0.0
C456 C 0.33861 0.36476 0.83526 0.0
C457 C 0.34393 0.36168 0.76851 0.0
C458 C 0.32909 0.42854 0.59183 0.0
C459 C 0.39021 0.48282 0.70386 0.0
O460 O 0.39543 0.52771 0.49882 0.0
O461 O 0.45601 0.54672 0.50488 0.0
O462 O 0.45867 0.51695 0.63907 0.0
O463 O 0.44873 0.46659 0.59383 0.0
O464 O 0.42505 0.46507 0.46295 0.0
O465 O 0.39467 0.40277 0.49621 0.0
O466 O 0.41775 0.39044 0.66027 0.0
O467 O 0.35723 0.35691 0.63487 0.0
O468 O 0.33669 0.41569 0.64406 0.0
O469 O 0.35589 0.43832 0.54987 0.0
O470 O 0.39436 0.45248 0.6997 0.0
O471 O 0.39158 0.50223 0.65091 0.0
H472 H 0.39262 0.49745 0.38031 0.0
H473 H 0.4092 0.50331 0.26362 0.0
H474 H 0.49541 0.62089 0.29344 0.0
H475 H 0.47753 0.61563 0.40974 0.0
H476 H 0.42637 0.35823 0.77619 0.0
H477 H 0.41637 0.36279 0.89368 0.0
H478 H 0.31416 0.36683 0.85116 0.0
H479 H 0.32357 0.36191 0.73442 0.0
Nd480 Nd 0.65693 0.74952 0.43761 0.0
Nd481 Nd 0.71075 0.82816 0.38371 0.0
C482 C 0.60514 0.69835 0.51366 0.0
C483 C 0.61303 0.6936 0.58171 0.0
C484 C 0.58889 0.69323 0.63105 0.0
C485 C 0.59994 0.69633 0.69637 0.0
C486 C 0.6352 0.69985 0.71298 0.0
C487 C 0.65899 0.69932 0.66373 0.0
C488 C 0.64801 0.69627 0.59846 0.0
C489 C 0.72401 0.75024 0.42357 0.0
C490 C 0.72381 0.81639 0.53391 0.0
C491 C 0.75453 0.88654 0.30652 0.0
C492 C 0.75446 0.89254 0.23472 0.0
C493 C 0.7469 0.86308 0.19003 0.0
C494 C 0.74089 0.86697 0.12347 0.0
C495 C 0.74158 0.90004 0.10065 0.0
C496 C 0.75033 0.92993 0.14471 0.0
C497 C 0.75754 0.92652 0.21086 0.0
C498 C 0.65323 0.82221 0.46472 0.0
C499 C 0.6499 0.76072 0.28031 0.0
O500 O 0.60743 0.73102 0.5027 0.0
O501 O 0.6222 0.68923 0.4686 0.0
O502 O 0.69231 0.72134 0.44218 0.0
O503 O 0.72045 0.7789 0.40835 0.0
O504 O 0.69045 0.78442 0.52923 0.0
O505 O 0.74132 0.83764 0.48212 0.0
O506 O 0.76428 0.86185 0.32673 0.0
O507 O 0.72502 0.88349 0.33815 0.0
O508 O 0.68733 0.85174 0.46353 0.0
O509 O 0.64992 0.79943 0.41912 0.0
O510 O 0.6784 0.79569 0.28973 0.0
O511 O 0.63467 0.73673 0.33004 0.0
H512 H 0.56202 0.6915 0.61881 0.0
H513 H 0.58153 0.69697 0.73393 0.0
H514 H 0.68626 0.70186 0.67567 0.0
H515 H 0.66748 0.69724 0.56122 0.0
H516 H 0.74403 0.83639 0.20687 0.0
H517 H 0.73335 0.8432 0.09066 0.0
H518 H 0.75046 0.95546 0.12835 0.0
H519 H 0.76371 0.94976 0.2441 0.0
Nd520 Nd 0.21168 0.89884 0.4378 0.0
Nd521 Nd 0.13243 0.87427 0.38415 0.0
C522 C 0.26108 0.89623 0.5163 0.0
C523 C 0.26461 0.90722 0.58536 0.0
C524 C 0.2677 0.88425 0.63341 0.0
C525 C 0.26615 0.89205 0.69958 0.0
C526 C 0.26103 0.92256 0.71831 0.0
C527 C 0.25798 0.94554 0.67015 0.0
C528 C 0.25969 0.9379 0.60418 0.0
C529 C 0.21079 0.96526 0.42377 0.0
C530 C 0.14487 0.89945 0.53401 0.0
C531 C 0.07523 0.86194 0.3059 0.0
C532 C 0.06941 0.85512 0.2342 0.0
C533 C 0.0988 0.87705 0.18933 0.0
C534 C 0.09499 0.86683 0.12295 0.0
C535 C 0.06215 0.83409 0.1005 0.0
C536 C 0.03237 0.8128 0.14472 0.0
C537 C 0.03566 0.82373 0.21068 0.0
C538 C 0.13782 0.82265 0.46535 0.0
C539 C 0.19905 0.8785 0.2807 0.0
O540 O 0.22862 0.86623 0.50234 0.0
O541 O 0.27117 0.92354 0.4731 0.0
O542 O 0.24001 0.96273 0.44171 0.0
O543 O 0.1823 0.93279 0.40914 0.0
O544 O 0.17691 0.89824 0.52898 0.0
O545 O 0.12322 0.89531 0.48263 0.0
O546 O 0.10132 0.89613 0.32503 0.0
O547 O 0.07613 0.83488 0.33951 0.0
O548 O 0.10819 0.82709 0.46355 0.0
O549 O 0.16089 0.84213 0.41998 0.0
O550 O 0.1636 0.87031 0.29146 0.0
O551 O 0.22424 0.88993 0.32927 0.0
H552 H 0.27095 0.86018 0.61967 0.0
H553 H 0.2684 0.87404 0.73622 0.0
H554 H 0.25407 0.96926 0.68355 0.0
H555 H 0.2564 0.95558 0.56798 0.0
H556 H 0.12535 0.9012 0.20588 0.0
H557 H 0.11866 0.88319 0.08999 0.0
H558 H 0.00699 0.78715 0.12859 0.0
H559 H 0.0125 0.80659 0.24404 0.0
Nd560 Nd 0.05851 0.30387 0.43805 0.0
Nd561 Nd 0.08283 0.24894 0.38479 0.0
C562 C 0.06165 0.35605 0.51664 0.0
C563 C 0.05098 0.34866 0.58582 0.0
C564 C 0.07406 0.37484 0.63367 0.0
C565 C 0.06635 0.36565 0.69993 0.0
C566 C 0.03583 0.33005 0.71889 0.0
C567 C 0.01282 0.30385 0.67091 0.0
C568 C 0.02035 0.31306 0.6049 0.0
C569 C -0.00806 0.23659 0.42339 0.0
C570 C 0.05741 0.23629 0.53453 0.0
C571 C 0.0944 0.20353 0.30684 0.0
C572 C 0.10055 0.20422 0.23505 0.0
C573 C 0.07898 0.21263 0.19099 0.0
C574 C 0.08889 0.21906 0.12451 0.0
C575 C 0.12092 0.21791 0.10122 0.0
C576 C 0.14176 0.20838 0.14461 0.0
C577 C 0.13117 0.20083 0.21068 0.0
C578 C 0.13446 0.30572 0.46641 0.0
C579 C 0.0792 0.31164 0.28116 0.0
O580 O 0.09158 0.35359 0.50213 0.0
O581 O 0.03409 0.33875 0.47385 0.0
O582 O -0.00554 0.26836 0.44122 0.0
O583 O 0.02447 0.24062 0.40922 0.0
O584 O 0.05865 0.26953 0.52936 0.0
O585 O 0.06167 0.21879 0.48327 0.0
O586 O 0.06037 0.19557 0.3267 0.0
O587 O 0.12181 0.23168 0.3397 0.0
O588 O 0.12981 0.27157 0.46456 0.0
O589 O 0.11517 0.30948 0.42088 0.0
O590 O 0.08742 0.28442 0.29217 0.0
O591 O 0.06754 0.3253 0.32951 0.0
H592 H 0.09809 0.40216 0.61974 0.0
H593 H 0.08436 0.38603 0.73644 0.0
H594 H -0.0109 0.27624 0.68451 0.0
H595 H 0.0026 0.292 0.56883 0.0
H596 H 0.05544 0.21585 0.20828 0.0
H597 H 0.07296 0.22724 0.09219 0.0
H598 H 0.16693 0.20792 0.1278 0.0
H599 H 0.14802 0.19409 0.24346 0.0
Nd600 Nd 0.08169 0.34266 1.05797 0.0
Nd601 Nd 0.15641 0.38896 0.11141 0.0
C602 C 0.02161 0.29562 0.9928 0.0
C603 C 0.01864 0.30169 0.92255 0.0
C604 C 0.01976 0.27629 0.87709 0.0
C605 C 0.02446 0.28528 0.81066 0.0
C606 C 0.02848 0.31988 0.78863 0.0
C607 C 0.02654 0.34499 0.83366 0.0
C608 C 0.02158 0.33596 0.90014 0.0
C609 C 0.09404 0.41473 1.07532 0.0
C610 C 0.14943 0.40344 0.95999 0.0
C611 C 0.21617 0.42925 0.18847 0.0
C612 C 0.22207 0.42981 0.26022 0.0
C613 C 0.19273 0.42331 0.30441 0.0
C614 C 0.19608 0.41706 0.37105 0.0
C615 C 0.22842 0.41644 0.39431 0.0
C616 C 0.25824 0.42416 0.35072 0.0
C617 C 0.25539 0.43155 0.28448 0.0
C618 C 0.1488 0.33108 1.02752 0.0
C619 C 0.09043 0.33102 0.21527 0.0
O620 O 0.04834 0.2876 1.00671 0.0
O621 O 0.02077 0.32036 1.03324 0.0
O622 O 0.08751 0.39798 1.01931 0.0
O623 O 0.10345 0.39685 0.11626 0.0
O624 O 0.1175 0.37014 0.96411 0.0
O625 O 0.16857 0.42125 1.01336 0.0
O626 O 0.19435 0.44224 0.1666 0.0
O627 O 0.20931 0.39772 0.15939 0.0
O628 O 0.17836 0.36512 1.02856 0.0
O629 O 0.12655 0.32805 1.07334 0.0
O630 O 0.12712 0.35253 0.20323 0.0
O631 O 0.06535 0.32318 0.16747 0.0
H632 H 0.01813 0.25003 0.89326 0.0
H633 H 0.02632 0.26588 0.77664 0.0
H634 H 0.02946 0.37182 0.81755 0.0
H635 H 0.0214 0.35647 0.934 0.0
H636 H 0.16648 0.42126 0.287 0.0
H637 H 0.17233 0.41027 0.40353 0.0
H638 H 0.28316 0.4232 0.36745 0.0
H639 H 0.27841 0.43661 0.25145 0.0
Nd640 Nd 0.62421 0.73305 1.05658 0.0
Nd641 Nd 0.57139 0.75948 0.11033 0.0
C642 C 0.67629 0.73334 0.98143 0.0
C643 C 0.66875 0.72086 0.91331 0.0
C644 C 0.69409 0.74376 0.86438 0.0
C645 C 0.6836 0.73593 0.79874 0.0
C646 C 0.64757 0.70555 0.78157 0.0
C647 C 0.62262 0.68207 0.83047 0.0
C648 C 0.6331 0.68971 0.89591 0.0
C649 C 0.55608 0.66747 1.07112 0.0
C650 C 0.55803 0.73433 0.96016 0.0
C651 C 0.52836 0.77514 0.18753 0.0
C652 C 0.52849 0.7812 0.25939 0.0
C653 C 0.53542 0.75884 0.30405 0.0
C654 C 0.54147 0.76862 0.37068 0.0
C655 C 0.54145 0.80132 0.39363 0.0
C656 C 0.53333 0.82294 0.34958 0.0
C657 C 0.52608 0.81246 0.28335 0.0
C658 C 0.62928 0.81019 1.02889 0.0
C659 C 0.63139 0.75157 0.21389 0.0
O660 O 0.67402 0.76377 0.99205 0.0
O661 O 0.65876 0.70706 1.02623 0.0
O662 O 0.58735 0.66942 1.052 0.0
O663 O 0.56065 0.70014 0.0859 0.0
O664 O 0.59099 0.73489 0.96489 0.0
O665 O 0.54083 0.73869 1.01184 0.0
O666 O 0.51797 0.74055 0.16721 0.0
O667 O 0.55815 0.80126 0.156 0.0
O668 O 0.5955 0.80642 1.03035 0.0
O669 O 0.63218 0.79046 1.07454 0.0
O670 O 0.60351 0.75894 0.20428 0.0
O671 O 0.64615 0.74211 0.16434 0.0
H672 H 0.72143 0.76817 0.87707 0.0
H673 H 0.70295 0.75426 0.76141 0.0
H674 H 0.59473 0.65838 0.81811 0.0
H675 H 0.61272 0.67198 0.9328 0.0
H676 H 0.53778 0.73474 0.28714 0.0
H677 H 0.54853 0.75201 0.40344 0.0
H678 H 0.53375 0.84861 0.366 0.0
H679 H 0.52042 0.82992 0.25015 0.0
Nd680 Nd 0.2272 0.87629 1.05731 0.0
Nd681 Nd 0.19994 0.80175 0.11079 0.0
C682 C 0.23926 0.93591 0.9919 0.0
C683 C 0.24865 0.93905 0.92181 0.0
C684 C 0.22245 0.9382 0.87593 0.0
C685 C 0.22716 0.93379 0.80954 0.0
C686 C 0.25785 0.92979 0.78799 0.0
C687 C 0.2846 0.93148 0.83349 0.0
C688 C 0.2801 0.93614 0.89991 0.0
C689 C 0.28779 0.86505 1.07464 0.0
C690 C 0.22142 0.80909 0.95946 0.0
C691 C 0.18142 0.74223 0.18778 0.0
C692 C 0.17636 0.73639 0.25955 0.0
C693 C 0.19872 0.76607 0.30353 0.0
C694 C 0.18915 0.76265 0.37018 0.0
C695 C 0.1567 0.72986 0.39365 0.0
C696 C 0.13514 0.69971 0.35028 0.0
C697 C 0.14536 0.70267 0.28403 0.0
C698 C 0.14882 0.80824 1.02735 0.0
C699 C 0.20734 0.86748 0.21477 0.0
O700 O 0.20465 0.90868 1.00541 0.0
O701 O 0.26495 0.93734 1.03277 0.0
O702 O 0.27749 0.87173 1.01881 0.0
O703 O 0.26043 0.85534 0.11554 0.0
O704 O 0.21921 0.84054 0.96359 0.0
O705 O 0.22064 0.79023 1.01282 0.0
O706 O 0.21611 0.76435 0.1656 0.0
O707 O 0.15638 0.74868 0.15904 0.0
O708 O 0.15393 0.7791 1.02819 0.0
O709 O 0.16798 0.83076 1.07301 0.0
O710 O 0.19292 0.83087 0.20299 0.0
O711 O 0.22375 0.89253 0.16667 0.0
H712 H 0.19775 0.93983 0.89173 0.0
H713 H 0.20614 0.93213 0.77514 0.0
H714 H 0.3086 0.92859 0.81779 0.0
H715 H 0.30056 0.93615 0.93411 0.0
H716 H 0.22247 0.7926 0.28593 0.0
H717 H 0.20565 0.78662 0.40249 0.0
H718 H 0.10963 0.67445 0.36717 0.0
H719 H 0.12778 0.6794 0.25115 0.0
Nd720 Nd 0.57174 0.80694 0.60991 0.0
Nd721 Nd 0.62044 0.88231 0.5575 0.0
C722 C 0.53049 0.74801 0.68811 0.0
C723 C 0.53044 0.74238 0.75994 0.0
C724 C 0.54051 0.77283 0.80364 0.0
C725 C 0.54678 0.76909 0.87011 0.0
C726 C 0.54392 0.73517 0.89377 0.0
C727 C 0.53273 0.70435 0.85068 0.0
C728 C 0.52523 0.70769 0.78461 0.0
C729 C 0.62718 0.81238 0.52264 0.0
C730 C 0.63202 0.87212 0.71405 0.0
C731 C 0.66952 0.93891 0.48795 0.0
C732 C 0.66313 0.94036 0.41714 0.0
C733 C 0.6893 0.94048 0.37196 0.0
C734 C 0.68124 0.93716 0.30496 0.0
C735 C 0.64666 0.933 0.28214 0.0
C736 C 0.62035 0.93266 0.32718 0.0
C737 C 0.62854 0.93644 0.39405 0.0
C738 C 0.54762 0.86925 0.5722 0.0
C739 C 0.55633 0.81626 0.4597 0.0
O740 O 0.51856 0.7708 0.66677 0.0
O741 O 0.56131 0.75354 0.65798 0.0
O742 O 0.59235 0.78421 0.52391 0.0
O743 O 0.63201 0.8349 0.56929 0.0
O744 O 0.61064 0.83561 0.69999 0.0
O745 O 0.63955 0.89799 0.66768 0.0
O746 O 0.67552 0.9112 0.50473 0.0
O747 O 0.64634 0.94293 0.52795 0.0
O748 O 0.56783 0.88236 0.51976 0.0
O749 O 0.56521 0.86016 0.61417 0.0
O750 O 0.59022 0.84747 0.46395 0.0
O751 O 0.53888 0.79635 0.51271 0.0
H752 H 0.54512 0.80005 0.78596 0.0
H753 H 0.5561 0.79349 0.90221 0.0
H754 H 0.53083 0.6781 0.86769 0.0
H755 H 0.51737 0.68379 0.75194 0.0
H756 H 0.71583 0.94287 0.38862 0.0
H757 H 0.70164 0.9372 0.2709 0.0
H758 H 0.5935 0.92957 0.31063 0.0
H759 H 0.60746 0.93571 0.42758 0.0
Nd760 Nd 0.151 0.75445 0.60944 0.0
Nd761 Nd 0.07608 0.72899 0.55657 0.0
C762 C 0.20937 0.77016 0.68756 0.0
C763 C 0.21433 0.7745 0.75951 0.0
C764 C 0.18301 0.75473 0.80186 0.0
C765 C 0.18628 0.76409 0.86857 0.0
C766 C 0.22072 0.79366 0.89377 0.0
C767 C 0.25239 0.81243 0.85211 0.0
C768 C 0.24938 0.80245 0.7857 0.0
C769 C 0.14689 0.80549 0.52278 0.0
C770 C 0.08639 0.75098 0.71318 0.0
C771 C 0.01965 0.72152 0.48657 0.0
C772 C 0.0177 0.71326 0.41581 0.0
C773 C 0.01986 0.74032 0.37047 0.0
C774 C 0.02326 0.73537 0.30362 0.0
C775 C 0.02503 0.70358 0.28103 0.0
C776 C 0.02301 0.67652 0.32614 0.0
C777 C 0.0192 0.6812 0.39296 0.0
C778 C 0.08779 0.66842 0.57171 0.0
C779 C 0.14176 0.73011 0.45941 0.0
O780 O 0.18625 0.73586 0.66484 0.0
O781 O 0.20463 0.79626 0.65859 0.0
O782 O 0.17467 0.79825 0.52409 0.0
O783 O 0.12403 0.78775 0.569 0.0
O784 O 0.12284 0.76524 0.69956 0.0
O785 O 0.0605 0.73317 0.66655 0.0
O786 O 0.04758 0.75524 0.50293 0.0
O787 O 0.01544 0.69444 0.52698 0.0
O788 O 0.07523 0.6759 0.51898 0.0
O789 O 0.09712 0.69516 0.61363 0.0
O790 O 0.11106 0.73364 0.46337 0.0
O791 O 0.16123 0.73187 0.51254 0.0
H792 H 0.15553 0.73331 0.78289 0.0
H793 H 0.16126 0.74982 0.89957 0.0
H794 H 0.27902 0.83579 0.87037 0.0
H795 H 0.27388 0.81801 0.75401 0.0
H796 H 0.01928 0.76546 0.38693 0.0
H797 H 0.02508 0.75657 0.26947 0.0
H798 H 0.02431 0.65175 0.30967 0.0
H799 H 0.01824 0.66008 0.42665 0.0
Nd800 Nd 0.20336 0.38697 0.61023 0.0
Nd801 Nd 0.22761 0.33615 0.55794 0.0
C802 C 0.18849 0.43031 0.68804 0.0
C803 C 0.18419 0.431 0.76002 0.0
C804 C 0.20396 0.4195 0.80246 0.0
C805 C 0.19455 0.41339 0.86917 0.0
C806 C 0.1649 0.41815 0.89427 0.0
C807 C 0.14615 0.43101 0.85252 0.0
C808 C 0.15621 0.43804 0.78615 0.0
C809 C 0.1518 0.33197 0.52384 0.0
C810 C 0.20624 0.32587 0.71482 0.0
C811 C 0.23344 0.28589 0.48874 0.0
C812 C 0.24203 0.29204 0.4181 0.0
C813 C 0.21588 0.26636 0.37243 0.0
C814 C 0.22129 0.27451 0.30548 0.0
C815 C 0.25257 0.30866 0.28321 0.0
C816 C 0.27872 0.33438 0.32873 0.0
C817 C 0.27359 0.32613 0.39553 0.0
C818 C 0.28888 0.40821 0.57241 0.0
C819 C 0.22792 0.4013 0.46023 0.0
O820 O 0.2227 0.44107 0.66528 0.0
O821 O 0.16208 0.39962 0.65908 0.0
O822 O 0.15951 0.36713 0.52491 0.0
O823 O 0.16931 0.32665 0.57024 0.0
O824 O 0.19257 0.34853 0.701 0.0
O825 O 0.22325 0.31684 0.66814 0.0
O826 O 0.20011 0.28129 0.50446 0.0
O827 O 0.2607 0.30835 0.5293 0.0
O828 O 0.28142 0.38768 0.52029 0.0
O829 O 0.26211 0.39123 0.61441 0.0
O830 O 0.2238 0.36682 0.46449 0.0
O831 O 0.22646 0.41934 0.51313 0.0
H832 H 0.22542 0.4135 0.78357 0.0
H833 H 0.20882 0.40268 0.90023 0.0
H834 H 0.12276 0.43425 0.8707 0.0
H835 H 0.14067 0.44698 0.75442 0.0
H836 H 0.19108 0.24023 0.38867 0.0
H837 H 0.20077 0.25452 0.27104 0.0
H838 H 0.30314 0.36087 0.31259 0.0
H839 H 0.29405 0.34681 0.42943 0.0
Nd840 Nd 0.12941 0.24787 0.88447 0.0
Nd841 Nd 0.20454 0.29416 0.9384 0.0
C842 C 0.06988 0.20809 0.80664 0.0
C843 C 0.06384 0.20818 0.73497 0.0
C844 C 0.09262 0.21383 0.69015 0.0
C845 C 0.08906 0.22016 0.62363 0.0
C846 C 0.05719 0.22194 0.60111 0.0
C847 C 0.02796 0.21523 0.64539 0.0
C848 C 0.0309 0.20756 0.71145 0.0
C849 C 0.13722 0.30558 0.96881 0.0
C850 C 0.19556 0.30611 0.78076 0.0
C851 C 0.26335 0.34067 1.00703 0.0
C852 C 0.2654 0.33428 1.07767 0.0
C853 C 0.26614 0.36069 0.12306 0.0
C854 C 0.26263 0.35252 0.18997 0.0
C855 C 0.25767 0.31762 0.2126 0.0
C856 C 0.257 0.29118 0.16744 0.0
C857 C 0.26096 0.29946 0.10057 0.0
C858 C 0.19123 0.22154 0.92131 0.0
C859 C 0.13615 0.23285 1.03551 0.0
O860 O 0.09193 0.19515 0.82752 0.0
O861 O 0.07641 0.23917 0.83698 0.0
O862 O 0.10746 0.27168 0.96741 0.0
O863 O 0.15958 0.30861 0.92318 0.0
O864 O 0.15888 0.28508 0.79349 0.0
O865 O 0.22086 0.31353 0.82825 0.0
O866 O 0.23684 0.34875 0.99167 0.0
O867 O 0.26497 0.31629 0.96661 0.0
O868 O 0.19829 0.23867 0.97699 0.0
O869 O 0.18235 0.23982 0.88029 0.0
O870 O 0.16821 0.26605 1.03155 0.0
O871 O 0.11687 0.21527 0.98212 0.0
H872 H 0.11857 0.21496 0.70689 0.0
H873 H 0.11233 0.22604 0.59057 0.0
H874 H 0.00333 0.2169 0.62921 0.0
H875 H 0.00821 0.20297 0.7449 0.0
H876 H 0.26891 0.3874 0.10658 0.0
H877 H 0.2629 0.37304 0.22408 0.0
H878 H 0.25323 0.26406 0.18387 0.0
H879 H 0.25959 0.27816 1.06686 0.0
Nd880 Nd 0.71149 0.87636 0.88436 0.0
Nd881 Nd 0.66368 0.90381 0.93659 0.0
C882 C 0.75224 0.85816 0.80584 0.0
C883 C 0.75184 0.85227 0.73401 0.0
C884 C 0.74167 0.87258 0.69035 0.0
C885 C 0.7352 0.86244 0.62394 0.0
C886 C 0.738 0.83135 0.60026 0.0
C887 C 0.74927 0.81177 0.6433 0.0
C888 C 0.75694 0.82272 0.70932 0.0
C889 C 0.65552 0.8264 0.97112 0.0
C890 C 0.65184 0.88194 0.78007 0.0
C891 C 0.61507 0.91237 1.00559 0.0
C892 C 0.62143 0.92015 1.07642 0.0
C893 C 0.59537 0.89384 0.12145 0.0
C894 C 0.6035 0.89833 0.18842 0.0
C895 C 0.63799 0.9288 0.2114 0.0
C896 C 0.66416 0.9551 0.16655 0.0
C897 C 0.65594 0.95089 0.09967 0.0
C898 C 0.73689 0.96329 0.92324 0.0
C899 C 0.7269 0.90047 1.03462 0.0
O900 O 0.76432 0.89298 0.82677 0.0
O901 O 0.72164 0.83303 0.83668 0.0
O902 O 0.69019 0.83259 0.96987 0.0
O903 O 0.65109 0.84447 0.92464 0.0
O904 O 0.67264 0.86624 0.79435 0.0
O905 O 0.64487 0.90078 0.82626 0.0
O906 O 0.60849 0.87845 0.98886 0.0
O907 O 0.63862 0.93937 0.96568 0.0
O908 O 0.71652 0.9558 0.97555 0.0
O909 O 0.71927 0.93682 0.88078 0.0
O910 O 0.69322 0.89825 1.03027 0.0
O911 O 0.74432 0.89796 0.98163 0.0
H912 H 0.73718 0.89527 0.70801 0.0
H913 H 0.72584 0.8775 0.59189 0.0
H914 H 0.75114 0.78741 0.62628 0.0
H915 H 0.76501 0.80683 0.74191 0.0
H916 H 0.56891 0.86965 0.10467 0.0
H917 H 0.58322 0.8777 0.22231 0.0
H918 H 0.69093 0.97891 0.18326 0.0
H919 H 0.67694 0.97143 1.06626 0.0
Nd920 Nd 0.08498 0.82757 0.88383 0.0
Nd921 Nd 0.05531 0.75133 0.93606 0.0
C922 C 0.10445 0.8871 0.80626 0.0
C923 C 0.11049 0.89301 0.73454 0.0
C924 C 0.08754 0.86398 0.68993 0.0
C925 C 0.09731 0.86751 0.62335 0.0
C926 C 0.13068 0.89963 0.60057 0.0
C927 C 0.15301 0.92908 0.64464 0.0
C928 C 0.14249 0.92615 0.71076 0.0
C929 C 0.13403 0.81931 0.96909 0.0
C930 C 0.07685 0.76134 0.7791 0.0
C931 C 0.04545 0.69336 1.00438 0.0
C932 C 0.03748 0.69138 1.07521 0.0
C933 C 0.06342 0.69074 0.12014 0.0
C934 C 0.05892 0.69404 0.18724 0.0
C935 C 0.02891 0.69875 0.21038 0.0
C936 C 0.00298 0.69945 0.16567 0.0
C937 C 0.00711 0.69566 0.0987 0.0
C938 C -0.00262 0.76757 0.92398 0.0
C939 C 0.06163 0.81907 1.03439 0.0
O940 O 0.06948 0.86487 0.8271 0.0
O941 O 0.12916 0.88084 0.83676 0.0
O942 O 0.13018 0.84925 0.96746 0.0
O943 O 0.11492 0.79702 0.92305 0.0
O944 O 0.09313 0.79795 0.7931 0.0
O945 O 0.05795 0.73566 0.82551 0.0
O946 O 0.07961 0.72057 0.98836 0.0
O947 O 0.01873 0.69067 0.96447 0.0
O948 O 0.00432 0.75382 0.97577 0.0
O949 O 0.02366 0.77583 0.88127 0.0
O950 O 0.06258 0.78695 1.02976 0.0
O951 O 0.06447 0.83927 0.98165 0.0
H952 H 0.06296 0.83789 0.70687 0.0
H953 H 0.08011 0.84407 0.59047 0.0
H954 H 0.1791 0.9539 0.62827 0.0
H955 H 0.16042 0.94903 0.74404 0.0
H956 H 0.08738 0.68813 0.10319 0.0
H957 H 0.07926 0.69371 0.22109 0.0
H958 H -0.02041 0.70304 0.18257 0.0
H959 H -0.01308 0.69687 1.06541 0.0
Nd960 Nd 0.32954 0.0862 0.7727 0.0
Nd961 Nd 0.37821 0.1605 0.71926 0.0
C962 C 0.28084 0.02806 0.84068 0.0
C963 C 0.28699 0.02507 0.9111 0.0
C964 C 0.26019 0.02304 0.95692 0.0
C965 C 0.26819 0.02552 1.02391 0.0
C966 C 0.30333 0.03079 1.04608 0.0
C967 C 0.33009 0.03266 1.00041 0.0
C968 C 0.322 0.02975 0.93355 0.0
C969 C 0.40151 0.0969 0.75707 0.0
C970 C 0.39287 0.15279 0.87042 0.0
C971 C 0.41966 0.21947 0.64115 0.0
C972 C 0.41974 0.22538 0.56937 0.0
C973 C 0.40984 0.19516 0.52522 0.0
C974 C 0.40349 0.19915 0.45887 0.0
C975 C 0.40607 0.23305 0.43578 0.0
C976 C 0.4171 0.26365 0.4793 0.0
C977 C 0.42472 0.26009 0.54522 0.0
C978 C 0.32206 0.1557 0.80462 0.0
C979 C 0.31881 0.09575 0.61473 0.0
O980 O 0.27484 0.05607 0.82639 0.0
O981 O 0.30434 0.0252 0.79982 0.0
O982 O 0.38357 0.08936 0.81202 0.0
O983 O 0.38411 0.10648 0.71547 0.0
O984 O 0.35899 0.12153 0.86629 0.0
O985 O 0.41075 0.17193 0.81706 0.0
O986 O 0.43141 0.1965 0.66226 0.0
O987 O 0.38892 0.21405 0.67137 0.0
O988 O 0.35694 0.18376 0.80362 0.0
O989 O 0.31748 0.133 0.75844 0.0
O990 O 0.34064 0.13224 0.62797 0.0
O991 O 0.31033 0.07027 0.66226 0.0
H992 H 0.23334 0.02011 0.9408 0.0
H993 H 0.24739 0.02426 1.05845 0.0
H994 H 0.35738 0.03665 1.01643 0.0
H995 H 0.34354 0.03199 0.89954 0.0
H996 H 0.40544 0.16794 0.54244 0.0
H997 H 0.39435 0.17492 0.42643 0.0
H998 H 0.41885 0.2899 0.46273 0.0
H999 H 0.43254 0.28385 0.57821 0.0
Nd1000 Nd 0.87127 0.23326 0.77274 0.0
Nd1001 Nd 0.79674 0.20772 0.71854 0.0
C1002 C 0.92946 0.24277 0.84079 0.0
C1003 C 0.93261 0.25209 0.91113 0.0
C1004 C 0.93486 0.22751 0.95709 0.0
C1005 C 0.93224 0.23303 1.02404 0.0
C1006 C 0.92667 0.26274 1.04601 0.0
C1007 C 0.9247 0.2875 1.00019 0.0
C1008 C 0.9277 0.28229 0.93339 0.0
C1009 C 0.8606 0.29452 0.75725 0.0
C1010 C 0.80417 0.22897 0.86976 0.0
C1011 C 0.73783 0.19091 0.64102 0.0
C1012 C 0.73213 0.18583 0.56923 0.0
C1013 C 0.76211 0.20769 0.52543 0.0
C1014 C 0.75867 0.19803 0.45882 0.0
C1015 C 0.72556 0.16596 0.43525 0.0
C1016 C 0.69515 0.14491 0.47843 0.0
C1017 C 0.69815 0.15524 0.54462 0.0
C1018 C 0.80186 0.15572 0.80168 0.0
C1019 C 0.86197 0.21378 0.6145 0.0
O1020 O 0.9013 0.20875 0.82682 0.0
O1021 O 0.93233 0.26906 0.79977 0.0
O1022 O 0.86796 0.28402 0.81225 0.0
O1023 O 0.85103 0.26757 0.71561 0.0
O1024 O 0.83527 0.22612 0.86577 0.0
O1025 O 0.78544 0.22852 0.81644 0.0
O1026 O 0.76076 0.22544 0.66307 0.0
O1027 O 0.74314 0.16525 0.67021 0.0
O1028 O 0.77314 0.16153 0.80076 0.0
O1029 O 0.82458 0.17468 0.75619 0.0
O1030 O 0.82545 0.19989 0.62666 0.0
O1031 O 0.88723 0.22974 0.66268 0.0
H1032 H 0.93795 0.20369 0.94109 0.0
H1033 H 0.93359 0.21356 1.05867 0.0
H1034 H 0.92055 0.31071 1.01604 0.0
H1035 H 0.92534 0.30147 0.89926 0.0
H1036 H 0.78884 0.23112 0.54313 0.0
H1037 H 0.78281 0.21415 0.42662 0.0
H1038 H 0.6696 0.11971 0.46142 0.0
H1039 H 0.67466 0.13804 0.57737 0.0
Nd1040 Nd 0.72578 0.63113 0.77331 0.0
Nd1041 Nd 0.75179 0.58301 0.71946 0.0
C1042 C 0.71551 0.67883 0.84231 0.0
C1043 C 0.70633 0.67235 0.91274 0.0
C1044 C 0.73226 0.69788 0.95883 0.0
C1045 C 0.72673 0.68941 1.02559 0.0
C1046 C 0.69546 0.65513 1.04742 0.0
C1047 C 0.66933 0.62965 1.00156 0.0
C1048 C 0.67466 0.63818 0.9348 0.0
C1049 C 0.66431 0.55953 0.75698 0.0
C1050 C 0.7302 0.56851 0.87046 0.0
C1051 C 0.7698 0.54186 0.64164 0.0
C1052 C 0.7761 0.54192 0.56999 0.0
C1053 C 0.75367 0.54844 0.52491 0.0
C1054 C 0.76389 0.55476 0.4585 0.0
C1055 C 0.79719 0.55565 0.43633 0.0
C1056 C 0.81898 0.54806 0.48086 0.0
C1057 C 0.80803 0.54043 0.5468 0.0
C1058 C 0.80361 0.64012 0.80322 0.0
C1059 C 0.74595 0.64215 0.61525 0.0
O1060 O 0.74976 0.68554 0.8277 0.0
O1061 O 0.68932 0.65542 0.80114 0.0
O1062 O 0.67502 0.57688 0.81239 0.0
O1063 O 0.69148 0.57684 0.71556 0.0
O1064 O 0.73296 0.60241 0.86645 0.0
O1065 O 0.73085 0.55043 0.81703 0.0
O1066 O 0.73494 0.52999 0.66223 0.0
O1067 O 0.79497 0.57248 0.67231 0.0
O1068 O 0.79779 0.60559 0.8023 0.0
O1069 O 0.78472 0.64387 0.75757 0.0
O1070 O 0.76015 0.61985 0.62775 0.0
O1071 O 0.72944 0.65095 0.66323 0.0
H1072 H 0.7571 0.7241 0.94302 0.0
H1073 H 0.74731 0.7092 1.06021 0.0
H1074 H 0.64491 0.60308 1.01736 0.0
H1075 H 0.65441 0.61758 0.90052 0.0
H1076 H 0.72918 0.55026 0.54136 0.0
H1077 H 0.74707 0.56131 0.42527 0.0
H1078 H 0.84499 0.54901 0.46499 0.0
H1079 H 0.82562 0.53521 0.58045 0.0
Nd1080 Nd 0.7458 0.67233 0.39132 0.0
Nd1081 Nd 0.81987 0.72213 0.44513 0.0
C1082 C 0.68801 0.62309 0.32319 0.0
C1083 C 0.68495 0.62926 0.25283 0.0
C1084 C 0.68297 0.60256 0.20686 0.0
C1085 C 0.68545 0.61066 0.1399 0.0
C1086 C 0.69066 0.64581 0.11794 0.0
C1087 C 0.69246 0.67245 0.16377 0.0
C1088 C 0.68955 0.66425 0.23057 0.0
C1089 C 0.75535 0.74386 0.40672 0.0
C1090 C 0.81205 0.73629 0.29399 0.0
C1091 C 0.87838 0.76463 0.52326 0.0
C1092 C 0.88388 0.76481 0.59509 0.0
C1093 C 0.8531 0.75379 0.63848 0.0
C1094 C 0.85682 0.74737 0.70487 0.0
C1095 C 0.89112 0.75123 0.72875 0.0
C1096 C 0.92226 0.76347 0.68604 0.0
C1097 C 0.91886 0.77091 0.62001 0.0
C1098 C 0.81619 0.66625 0.36048 0.0
C1099 C 0.75563 0.66191 0.54927 0.0
O1100 O 0.7164 0.61767 0.33743 0.0
O1101 O 0.68468 0.64626 0.36417 0.0
O1102 O 0.74804 0.72589 0.35185 0.0
O1103 O 0.76515 0.72676 0.44848 0.0
O1104 O 0.78122 0.70207 0.29798 0.0
O1105 O 0.83083 0.75447 0.34739 0.0
O1106 O 0.85493 0.77567 0.50165 0.0
O1107 O 0.8738 0.73413 0.49329 0.0
O1108 O 0.84383 0.70132 0.36128 0.0
O1109 O 0.79328 0.6614 0.40641 0.0
O1110 O 0.79205 0.68449 0.53637 0.0
O1111 O 0.7301 0.65285 0.50161 0.0
H1112 H 0.6801 0.57573 0.22284 0.0
H1113 H 0.68422 0.58993 0.10524 0.0
H1114 H 0.69636 0.69972 0.14792 0.0
H1115 H 0.69169 0.6857 0.26469 0.0
H1116 H 0.82568 0.74851 0.62058 0.0
H1117 H 0.8322 0.73725 0.7367 0.0
H1118 H 0.94881 0.76611 0.70327 0.0
H1119 H 0.94298 0.7795 0.58755 0.0
Nd1120 Nd 0.28775 0.06489 0.39085 0.0
Nd1121 Nd 0.23898 0.08983 0.44438 0.0
C1122 C 0.33598 0.05547 0.32187 0.0
C1123 C 0.32958 0.04642 0.25139 0.0
C1124 C 0.35504 0.07251 0.20544 0.0
C1125 C 0.34664 0.067 0.13865 0.0
C1126 C 0.31252 0.03559 0.11664 0.0
C1127 C 0.28708 0.00934 0.16237 0.0
C1128 C 0.29553 0.01464 0.22917 0.0
C1129 C 0.21646 0.00286 0.40717 0.0
C1130 C 0.22412 0.06757 0.2934 0.0
C1131 C 0.19742 0.10702 0.52287 0.0
C1132 C 0.19767 0.11328 0.5946 0.0
C1133 C 0.2077 0.09319 0.63902 0.0
C1134 C 0.21411 0.10377 0.70527 0.0
C1135 C 0.21149 0.13514 0.72801 0.0
C1136 C 0.2004 0.15452 0.68419 0.0
C1137 C 0.19273 0.1431 0.61837 0.0
C1138 C 0.29499 0.14175 0.35917 0.0
C1139 C 0.29908 0.08577 0.54859 0.0
O1140 O 0.34231 0.08954 0.33674 0.0
O1141 O 0.31273 0.02908 0.36289 0.0
O1142 O 0.23388 0.01366 0.35185 0.0
O1143 O 0.23359 0.02999 0.44867 0.0
O1144 O 0.25822 0.07074 0.29742 0.0
O1145 O 0.20615 0.06845 0.3469 0.0
O1146 O 0.18601 0.07226 0.5023 0.0
O1147 O 0.22778 0.13245 0.49192 0.0
O1148 O 0.25997 0.13448 0.36002 0.0
O1149 O 0.29972 0.12369 0.40526 0.0
O1150 O 0.27686 0.09996 0.53543 0.0
O1151 O 0.30761 0.06877 0.50109 0.0
H1152 H 0.38114 0.09745 0.22138 0.0
H1153 H 0.36637 0.08766 0.10411 0.0
H1154 H 0.26061 -0.01517 0.14644 0.0
H1155 H 0.27498 -0.00574 0.26334 0.0
H1156 H 0.2121 0.07032 0.6221 0.0
H1157 H 0.22329 0.08881 0.73793 0.0
H1158 H 0.19861 0.17905 0.70046 0.0
H1159 H 0.18482 0.15887 0.58518 0.0
Nd1160 Nd 0.89209 0.21327 0.39075 0.0
Nd1161 Nd 0.86762 0.13949 0.44508 0.0
C1162 C 0.90128 0.27074 0.32146 0.0
C1163 C 0.91053 0.27342 0.25108 0.0
C1164 C 0.88464 0.27295 0.20486 0.0
C1165 C 0.89029 0.27004 0.13813 0.0
C1166 C 0.92166 0.26713 0.1165 0.0
C1167 C 0.94773 0.26783 0.16252 0.0
C1168 C 0.94227 0.271 0.22923 0.0
C1169 C 0.95436 0.20444 0.40692 0.0
C1170 C 0.88872 0.14657 0.29409 0.0
C1171 C 0.85137 0.08086 0.52296 0.0
C1172 C 0.84585 0.07503 0.5947 0.0
C1173 C 0.86743 0.10489 0.63888 0.0
C1174 C 0.85748 0.10119 0.70538 0.0
C1175 C 0.82537 0.06795 0.72847 0.0
C1176 C 0.80455 0.0377 0.68489 0.0
C1177 C 0.81518 0.04095 0.61882 0.0
C1178 C 0.81481 0.14356 0.36212 0.0
C1179 C 0.87206 0.204 0.54876 0.0
O1180 O 0.86725 0.24278 0.33607 0.0
O1181 O 0.92765 0.2741 0.36276 0.0
O1182 O 0.94336 0.21078 0.35157 0.0
O1183 O 0.92727 0.19437 0.4485 0.0
O1184 O 0.8851 0.1772 0.29794 0.0
O1185 O 0.88883 0.12827 0.34757 0.0
O1186 O 0.88592 0.10428 0.50153 0.0
O1187 O 0.82551 0.08555 0.493 0.0
O1188 O 0.82131 0.11529 0.36283 0.0
O1189 O 0.83365 0.16641 0.40753 0.0
O1190 O 0.85886 0.16761 0.53676 0.0
O1191 O 0.88785 0.22927 0.50056 0.0
H1192 H 0.85974 0.27425 0.22054 0.0
H1193 H 0.86977 0.26923 0.1034 0.0
H1194 H 0.97223 0.26578 0.14689 0.0
H1195 H 0.96251 0.27075 0.26362 0.0
H1196 H 0.8909 0.1317 0.62158 0.0
H1197 H 0.87342 0.12521 0.73789 0.0
H1198 H 0.77933 0.01204 0.70151 0.0
H1199 H 0.7982 0.01754 0.58579 0.0
Nd1200 Nd 0.23875 0.13901 0.94469 0.0
Nd1201 Nd 0.29073 0.21755 0.89203 0.0
C1202 C 0.19514 0.08064 1.02191 0.0
C1203 C 0.19573 0.07477 0.09365 0.0
C1204 C 0.20265 0.10402 0.13845 0.0
C1205 C 0.20889 0.10029 0.20496 0.0
C1206 C 0.20905 0.06763 0.2276 0.0
C1207 C 0.20101 0.03796 0.18343 0.0
C1208 C 0.19361 0.04119 0.11732 0.0
C1209 C 0.29609 0.14575 0.86276 0.0
C1210 C 0.29898 0.20627 1.04898 0.0
C1211 C 0.343 0.26914 0.81728 0.0
C1212 C 0.33548 0.27323 0.74873 0.0
C1213 C 0.36056 0.27453 0.70032 0.0
C1214 C 0.35017 0.27141 0.63461 0.0
C1215 C 0.31454 0.26657 0.61678 0.0
C1216 C 0.28977 0.26603 0.66513 0.0
C1217 C 0.30012 0.26927 0.73069 0.0
C1218 C 0.22284 0.21539 0.90444 0.0
C1219 C 0.22529 0.15032 0.79447 0.0
O1220 O 0.18553 0.10554 1.00236 0.0
O1221 O 0.22422 0.08332 0.98933 0.0
O1222 O 0.26226 0.11581 0.86448 0.0
O1223 O 0.2994 0.16848 0.90853 0.0
O1224 O 0.27251 0.17052 1.03836 0.0
O1225 O 0.31202 0.23119 1.00024 0.0
O1226 O 0.34137 0.23686 0.82938 0.0
O1227 O 0.32505 0.27795 0.86111 0.0
O1228 O 0.25425 0.24437 0.88499 0.0
O1229 O 0.22679 0.187 0.92039 0.0
O1230 O 0.25805 0.18289 0.79954 0.0
O1231 O 0.20823 0.12868 0.84607 0.0
H1232 H 0.20483 0.13043 0.12174 0.0
H1233 H 0.21594 0.12393 0.23785 0.0
H1234 H 0.20161 0.01278 0.19966 0.0
H1235 H 0.18792 0.01813 0.08399 0.0
H1236 H 0.38766 0.27707 0.71352 0.0
H1237 H 0.36935 0.27165 0.59771 0.0
H1238 H 0.2622 0.26252 0.65226 0.0
H1239 H 0.27994 0.26755 0.76715 0.0
Nd1240 Nd 0.81887 0.09045 0.94497 0.0
Nd1241 Nd 0.74308 0.06302 0.89208 0.0
C1242 C 0.87775 0.10747 1.02253 0.0
C1243 C 0.88307 0.11239 0.09435 0.0
C1244 C 0.85285 0.09036 0.13765 0.0
C1245 C 0.85596 0.09973 0.20435 0.0
C1246 C 0.88902 0.13159 0.2285 0.0
C1247 C 0.91966 0.15281 0.18582 0.0
C1248 C 0.91694 0.14284 0.11949 0.0
C1249 C 0.81249 0.14074 0.86012 0.0
C1250 C 0.75319 0.08439 1.04909 0.0
C1251 C 0.68602 0.05475 0.82303 0.0
C1252 C 0.68433 0.04672 0.75229 0.0
C1253 C 0.68452 0.0729 0.70704 0.0
C1254 C 0.68802 0.0682 0.64011 0.0
C1255 C 0.69205 0.0377 0.61744 0.0
C1256 C 0.69193 0.01151 0.6625 0.0
C1257 C 0.68796 0.01587 0.72931 0.0
C1258 C 0.75706 0.00373 0.90464 0.0
C1259 C 0.81022 0.06748 0.79437 0.0
O1260 O 0.85493 0.07293 1.00046 0.0
O1261 O 0.87253 0.13314 0.99308 0.0
O1262 O 0.8418 0.13584 0.86173 0.0
O1263 O 0.7899 0.12194 0.90596 0.0
O1264 O 0.78978 0.09942 1.03566 0.0
O1265 O 0.72745 0.06633 1.00233 0.0
O1266 O 0.71367 0.08862 0.83934 0.0
O1267 O 0.68236 0.02776 0.86318 0.0
O1268 O 0.74401 0.01119 0.85252 0.0
O1269 O 0.7659 0.03009 0.94731 0.0
O1270 O 0.77872 0.06961 0.79872 0.0
O1271 O 0.82992 0.0694 0.84725 0.0
H1272 H 0.82618 0.06705 0.11949 0.0
H1273 H 0.83163 0.08357 0.23616 0.0
H1274 H 0.94514 0.17792 0.20328 0.0
H1275 H 0.94059 0.16015 0.08711 0.0
H1276 H 0.68236 0.09717 0.72362 0.0
H1277 H 0.68831 0.08873 0.60601 0.0
H1278 H 0.69487 -0.01233 0.646 0.0
H1279 H 0.68843 -0.00458 0.76289 0.0
Nd1280 Nd 0.86969 0.72319 0.94557 0.0
Nd1281 Nd 0.89716 0.67533 0.89403 0.0
C1282 C 0.85213 0.76487 1.02254 0.0
C1283 C 0.84677 0.76517 0.09431 0.0
C1284 C 0.86934 0.75815 0.13831 0.0
C1285 C 0.85969 0.75175 0.20492 0.0
C1286 C 0.82697 0.75157 0.22829 0.0
C1287 C 0.80517 0.7598 0.18489 0.0
C1288 C 0.81543 0.76727 0.1187 0.0
C1289 C 0.81906 0.66607 0.86132 0.0
C1290 C 0.87633 0.66469 1.05077 0.0
C1291 C 0.90665 0.62625 0.82887 0.0
C1292 C 0.91525 0.63241 0.75848 0.0
C1293 C 0.88792 0.60791 0.7131 0.0
C1294 C 0.89233 0.61714 0.64674 0.0
C1295 C 0.92391 0.65105 0.62473 0.0
C1296 C 0.95164 0.67529 0.6697 0.0
C1297 C 0.94739 0.66607 0.73608 0.0
C1298 C 0.95682 0.74842 0.90561 0.0
C1299 C 0.89226 0.73695 0.79472 0.0
O1300 O 0.8868 0.77676 1.00094 0.0
O1301 O 0.82669 0.73396 0.99281 0.0
O1302 O 0.82414 0.70034 0.86246 0.0
O1303 O 0.83789 0.66241 0.9073 0.0
O1304 O 0.86105 0.68596 1.03726 0.0
O1305 O 0.89428 0.657 1.0041 0.0
O1306 O 0.87246 0.61966 0.8438 0.0
O1307 O 0.93317 0.65013 0.86915 0.0
O1308 O 0.94875 0.72793 0.85331 0.0
O1309 O 0.93045 0.73125 0.94851 0.0
O1310 O 0.89013 0.70333 0.79956 0.0
O1311 O 0.89063 0.75498 0.84749 0.0
H1312 H 0.89335 0.7558 0.12079 0.0
H1313 H 0.87636 0.74453 0.23727 0.0
H1314 H 0.77944 0.75914 0.20172 0.0
H1315 H 0.79765 0.77266 0.0858 0.0
H1316 H 0.86267 0.58216 0.72929 0.0
H1317 H 0.87052 0.59845 0.61275 0.0
H1318 H -0.02364 0.70152 0.65357 0.0
H1319 H 0.96878 0.68586 0.76985 0.0
Nd1320 Nd 0.79997 0.58342 0.22005 0.0
Nd1321 Nd 0.87961 0.63667 0.27381 0.0
C1322 C 0.74255 0.53906 0.14186 0.0
C1323 C 0.73699 0.53991 1.07012 0.0
C1324 C 0.7666 0.54743 1.02573 0.0
C1325 C 0.76307 0.5538 0.95924 0.0
C1326 C 0.73024 0.55347 0.93622 0.0
C1327 C 0.70022 0.54486 0.97995 0.0
C1328 C 0.70328 0.53737 1.04606 0.0
C1329 C 0.80657 0.64037 0.30237 0.0
C1330 C 0.86743 0.64531 0.11682 0.0
C1331 C 0.92926 0.68811 0.3527 0.0
C1332 C 0.93178 0.68032 0.42196 0.0
C1333 C 0.9361 0.70697 0.46981 0.0
C1334 C 0.93427 0.69763 0.53606 0.0
C1335 C 0.92731 0.66136 0.555 0.0
C1336 C 0.92278 0.63467 0.50704 0.0
C1337 C 0.92504 0.64408 0.44104 0.0
C1338 C 0.87685 0.56852 0.25971 0.0
C1339 C 0.81179 0.56989 0.36986 0.0
O1340 O 0.76817 0.5304 0.16141 0.0
O1341 O 0.74398 0.56744 0.17498 0.0
O1342 O 0.77641 0.60667 0.29991 0.0
O1343 O 0.82954 0.64383 0.25691 0.0
O1344 O 0.83156 0.61908 0.12786 0.0
O1345 O 0.89284 0.6579 0.16512 0.0
O1346 O 0.89747 0.68678 0.3375 0.0
O1347 O 0.93897 0.67022 0.31024 0.0
O1348 O 0.90651 0.59984 0.27803 0.0
O1349 O 0.84888 0.57333 0.24506 0.0
O1350 O 0.84437 0.60267 0.36494 0.0
O1351 O 0.78994 0.5529 0.31841 0.0
H1352 H 0.79313 0.54998 1.04276 0.0
H1353 H 0.78694 0.56129 0.92665 0.0
H1354 H 0.67489 0.54508 0.96338 0.0
H1355 H 0.67995 0.53124 1.07907 0.0
H1356 H 0.94074 0.73479 0.4559 0.0
H1357 H 0.93777 0.7184 0.5726 0.0
H1358 H 0.91747 0.60655 0.52061 0.0
H1359 H 0.92081 0.6227 0.40498 0.0
Nd1360 Nd 0.37842 0.2091 0.21938 0.0
Nd1361 Nd 0.32621 0.23528 0.27213 0.0
C1362 C 0.42211 0.19457 0.142 0.0
C1363 C 0.42151 0.18815 1.07025 0.0
C1364 C 0.41503 0.21079 1.02547 0.0
C1365 C 0.40868 0.20085 0.95895 0.0
C1366 C 0.40796 0.16776 0.9363 0.0
C1367 C 0.41558 0.14582 0.98044 0.0
C1368 C 0.42309 0.1564 1.04655 0.0
C1369 C 0.32116 0.15825 0.30132 0.0
C1370 C 0.31793 0.21579 0.11522 0.0
C1371 C 0.27394 0.23405 0.34761 0.0
C1372 C 0.28161 0.24572 0.4161 0.0
C1373 C 0.2566 0.22206 0.46469 0.0
C1374 C 0.26705 0.22956 0.53036 0.0
C1375 C 0.30267 0.26047 0.54795 0.0
C1376 C 0.32742 0.28451 0.49939 0.0
C1377 C 0.317 0.27716 0.43389 0.0
C1378 C 0.39391 0.30129 0.25931 0.0
C1379 C 0.39209 0.23413 0.36936 0.0
O1380 O 0.43166 0.22905 0.16166 0.0
O1381 O 0.39308 0.1681 0.17457 0.0
O1382 O 0.3551 0.16242 0.29969 0.0
O1383 O 0.31775 0.17761 0.25555 0.0
O1384 O 0.34464 0.20684 0.12572 0.0
O1385 O 0.30469 0.2274 0.16405 0.0
O1386 O 0.27588 0.20359 0.33535 0.0
O1387 O 0.29156 0.26084 0.30369 0.0
O1388 O 0.36241 0.29872 0.27863 0.0
O1389 O 0.39008 0.26897 0.24353 0.0
O1390 O 0.35921 0.23369 0.36439 0.0
O1391 O 0.40914 0.22958 0.31774 0.0
H1392 H 0.41325 0.23524 1.0422 0.0
H1393 H 0.40198 0.2177 0.92606 0.0
H1394 H 0.41457 0.11985 0.96418 0.0
H1395 H 0.42837 0.13873 1.07987 0.0
H1396 H 0.22949 0.19744 0.45168 0.0
H1397 H 0.2479 0.21076 0.56743 0.0
H1398 H 0.35499 0.30863 0.51207 0.0
H1399 H 0.33714 0.29551 0.39727 0.0
Nd1400 Nd 0.74867 0.15975 0.21903 0.0
Nd1401 Nd 0.72173 0.08417 0.27184 0.0
C1402 C 0.76532 0.21846 0.14139 0.0
C1403 C 0.7702 0.22373 1.06957 0.0
C1404 C 0.74788 0.19361 1.02626 0.0
C1405 C 0.75721 0.1966 0.95956 0.0
C1406 C 0.78935 0.22941 0.93544 0.0
C1407 C 0.81086 0.25996 0.97812 0.0
C1408 C 0.80093 0.25739 1.04442 0.0
C1409 C 0.79927 0.15383 0.30394 0.0
C1410 C 0.74312 0.09431 0.11489 0.0
C1411 C 0.71415 0.02757 0.34134 0.0
C1412 C 0.70607 0.02596 0.41205 0.0
C1413 C 0.73222 0.02618 0.45746 0.0
C1414 C 0.72732 0.02953 0.52438 0.0
C1415 C 0.69666 0.03339 0.54685 0.0
C1416 C 0.67057 0.03332 0.50161 0.0
C1417 C 0.67513 0.0295 0.43483 0.0
C1418 C 0.66202 0.09762 0.25917 0.0
C1419 C 0.72546 0.151 0.36938 0.0
O1420 O 0.73081 0.19554 0.16352 0.0
O1421 O 0.79112 0.21345 0.17087 0.0
O1422 O 0.79404 0.18292 0.30241 0.0
O1423 O 0.78059 0.13119 0.25807 0.0
O1424 O 0.75788 0.13086 0.1283 0.0
O1425 O 0.72522 0.06855 0.16166 0.0
O1426 O 0.7479 0.05543 0.32497 0.0
O1427 O 0.68702 0.0235 0.30108 0.0
O1428 O 0.6695 0.08448 0.31117 0.0
O1429 O 0.68844 0.1066 0.21654 0.0
O1430 O 0.72797 0.11972 0.36509 0.0
O1431 O 0.72728 0.17062 0.31649 0.0
H1432 H 0.72435 0.1671 1.04443 0.0
H1433 H 0.7408 0.17234 0.92774 0.0
H1434 H 0.83616 0.28524 0.96066 0.0
H1435 H 0.81851 0.28094 1.07681 0.0
H1436 H 0.75658 0.02412 0.44104 0.0
H1437 H 0.74779 0.02981 0.55862 0.0
H1438 H 0.64662 0.03613 0.51795 0.0
H1439 H 0.6547 0.02992 0.40112 0.0
loop_
_geom_bond_atom_site_label_1
_geom_bond_atom_site_label_2
_geom_bond_distance
_geom_bond_site_symmetry_2
_ccdc_geom_bond_type
Nd0 C2 2.836 . S
Nd0 O20 2.500 . S
Nd0 O21 2.492 . S
Nd0 O22 2.487 . S
Nd0 O23 2.682 1_554 S
Nd0 O24 2.410 . S
Nd0 O29 2.414 . S
Nd0 O31 2.424 1_554 S
Nd1 C11 2.836 . S
Nd1 O23 2.414 . S
Nd1 O25 2.424 1_556 S
Nd1 O26 2.500 . S
Nd1 O27 2.492 . S
Nd1 O28 2.487 . S
Nd1 O29 2.682 1_556 S
Nd1 O30 2.410 . S
C2 Nd0 2.836 . S
C2 C3 1.498 . S
C2 O20 1.258 . S
C2 O21 1.239 . S
C3 C2 1.498 . S
C3 C4 1.366 . S
C3 C8 1.407 . S
C4 C3 1.366 . S
C4 C5 1.392 1_455 S
C4 H32 0.930 1_455 S
C5 C4 1.392 1_655 S
C5 C6 1.398 1_655 S
C5 H33 0.929 . S
C6 C5 1.398 1_455 S
C6 C7 1.352 . S
C7 C6 1.352 . S
C7 C8 1.384 . S
C7 H34 0.930 . S
C8 C3 1.407 . S
C8 C7 1.384 . S
C8 H35 0.929 . S
C9 O22 1.241 1_556 S
C9 O23 1.273 . S
C10 O24 1.251 . S
C10 O25 1.268 . S
C11 Nd1 2.836 . S
C11 C12 1.498 . S
C11 O26 1.258 . S
C11 O27 1.239 . S
C12 C11 1.498 . S
C12 C13 1.366 . S
C12 C17 1.407 . S
C13 C12 1.366 . S
C13 C14 1.392 . S
C13 H36 0.930 . S
C14 C13 1.392 . S
C14 C15 1.398 . S
C14 H37 0.929 . S
C15 C14 1.398 . S
C15 C16 1.352 . S
C16 C15 1.352 . S
C16 C17 1.384 . S
C16 H38 0.930 . S
C17 C12 1.407 . S
C17 C16 1.384 . S
C17 H39 0.929 . S
C18 O28 1.241 1_554 S
C18 O29 1.273 . S
C19 O30 1.251 . S
C19 O31 1.268 . S
O20 Nd0 2.500 . S
O20 C2 1.258 . S
O21 Nd0 2.492 . S
O21 C2 1.239 . S
O22 Nd0 2.487 . S
O22 C9 1.241 1_554 S
O23 Nd0 2.682 1_556 S
O23 Nd1 2.414 . S
O23 C9 1.273 . S
O24 Nd0 2.410 . S
O24 C10 1.251 . S
O25 Nd1 2.424 1_554 S
O25 C10 1.268 . S
O26 Nd1 2.500 . S
O26 C11 1.258 . S
O27 Nd1 2.492 . S
O27 C11 1.239 . S
O28 Nd1 2.487 . S
O28 C18 1.241 1_556 S
O29 Nd0 2.414 . S
O29 Nd1 2.682 1_554 S
O29 C18 1.273 . S
O30 Nd1 2.410 . S
O30 C19 1.251 . S
O31 Nd0 2.424 1_556 S
O31 C19 1.268 . S
H32 C4 0.930 1_655 S
H33 C5 0.929 . S
H34 C7 0.930 . S
H35 C8 0.929 . S
H36 C13 0.930 . S
H37 C14 0.929 . S
H38 C16 0.930 . S
H39 C17 0.929 . S
Nd40 C42 2.836 . S
Nd40 O60 2.500 . S
Nd40 O61 2.492 . S
Nd40 O62 2.487 . S
Nd40 O63 2.682 1_554 S
Nd40 O64 2.410 . S
Nd40 O69 2.414 . S
Nd40 O71 2.424 1_554 S
Nd41 C51 2.836 . S
Nd41 O63 2.414 . S
Nd41 O65 2.424 1_556 S
Nd41 O66 2.500 . S
Nd41 O67 2.492 . S
Nd41 O68 2.487 . S
Nd41 O69 2.682 1_556 S
Nd41 O70 2.410 . S
C42 Nd40 2.836 . S
C42 C43 1.498 . S
C42 O60 1.258 . S
C42 O61 1.239 . S
C43 C42 1.498 . S
C43 C44 1.366 . S
C43 C48 1.407 . S
C44 C43 1.366 . S
C44 C45 1.392 . S
C44 H72 0.930 . S
C45 C44 1.392 . S
C45 C46 1.398 . S
C45 H73 0.929 . S
C46 C45 1.398 . S
C46 C47 1.352 . S
C47 C46 1.352 . S
C47 C48 1.384 . S
C47 H74 0.930 . S
C48 C43 1.407 . S
C48 C47 1.384 . S
C48 H75 0.929 . S
C49 O62 1.241 1_556 S
C49 O63 1.273 . S
C50 O64 1.251 . S
C50 O65 1.268 . S
C51 Nd41 2.836 . S
C51 C52 1.498 . S
C51 O66 1.258 . S
C51 O67 1.239 . S
C52 C51 1.498 . S
C52 C53 1.366 . S
C52 C57 1.407 . S
C53 C52 1.366 . S
C53 C54 1.392 . S
C53 H76 0.930 . S
C54 C53 1.392 . S
C54 C55 1.398 . S
C54 H77 0.929 . S
C55 C54 1.398 . S
C55 C56 1.352 . S
C56 C55 1.352 . S
C56 C57 1.384 . S
C56 H78 0.930 . S
C57 C52 1.407 . S
C57 C56 1.384 . S
C57 H79 0.929 . S
C58 O68 1.241 1_554 S
C58 O69 1.273 . S
C59 O70 1.251 . S
C59 O71 1.268 . S
O60 Nd40 2.500 . S
O60 C42 1.258 . S
O61 Nd40 2.492 . S
O61 C42 1.239 . S
O62 Nd40 2.487 . S
O62 C49 1.241 1_554 S
O63 Nd40 2.682 1_556 S
O63 Nd41 2.414 . S
O63 C49 1.273 . S
O64 Nd40 2.410 . S
O64 C50 1.251 . S
O65 Nd41 2.424 1_554 S
O65 C50 1.268 . S
O66 Nd41 2.500 . S
O66 C51 1.258 . S
O67 Nd41 2.492 . S
O67 C51 1.239 . S
O68 Nd41 2.487 . S
O68 C58 1.241 1_556 S
O69 Nd40 2.414 . S
O69 Nd41 2.682 1_554 S
O69 C58 1.273 . S
O70 Nd41 2.410 . S
O70 C59 1.251 . S
O71 Nd40 2.424 1_556 S
O71 C59 1.268 . S
H72 C44 0.930 . S
H73 C45 0.929 . S
H74 C47 0.930 . S
H75 C48 0.929 . S
H76 C53 0.930 . S
H77 C54 0.929 . S
H78 C56 0.930 . S
H79 C57 0.929 . S
Nd80 C82 2.836 . S
Nd80 O100 2.500 . S
Nd80 O101 2.492 . S
Nd80 O102 2.487 . S
Nd80 O103 2.682 1_554 S
Nd80 O104 2.410 . S
Nd80 O109 2.414 . S
Nd80 O111 2.424 1_554 S
Nd81 C91 2.836 . S
Nd81 O103 2.414 . S
Nd81 O105 2.424 1_556 S
Nd81 O106 2.500 . S
Nd81 O107 2.492 . S
Nd81 O108 2.487 . S
Nd81 O109 2.682 1_556 S
Nd81 O110 2.410 . S
C82 Nd80 2.836 . S
C82 C83 1.498 . S
C82 O100 1.258 . S
C82 O101 1.239 . S
C83 C82 1.498 . S
C83 C84 1.366 . S
C83 C88 1.407 . S
C84 C83 1.366 . S
C84 C85 1.392 1_565 S
C84 H112 0.930 1_565 S
C85 C84 1.392 1_545 S
C85 C86 1.398 1_545 S
C85 H113 0.929 . S
C86 C85 1.398 1_565 S
C86 C87 1.352 . S
C87 C86 1.352 . S
C87 C88 1.384 . S
C87 H114 0.930 . S
C88 C83 1.407 . S
C88 C87 1.384 . S
C88 H115 0.929 . S
C89 O102 1.241 1_556 S
C89 O103 1.273 . S
C90 O104 1.251 . S
C90 O105 1.268 . S
C91 Nd81 2.836 . S
C91 C92 1.498 . S
C91 O106 1.258 . S
C91 O107 1.239 . S
C92 C91 1.498 . S
C92 C93 1.366 . S
C92 C97 1.407 . S
C93 C92 1.366 . S
C93 C94 1.392 . S
C93 H116 0.930 . S
C94 C93 1.392 . S
C94 C95 1.398 . S
C94 H117 0.929 . S
C95 C94 1.398 . S
C95 C96 1.352 . S
C96 C95 1.352 . S
C96 C97 1.384 . S
C96 H118 0.930 . S
C97 C92 1.407 . S
C97 C96 1.384 . S
C97 H119 0.929 . S
C98 O108 1.241 1_554 S
C98 O109 1.273 . S
C99 O110 1.251 . S
C99 O111 1.268 . S
O100 Nd80 2.500 . S
O100 C82 1.258 . S
O101 Nd80 2.492 . S
O101 C82 1.239 . S
O102 Nd80 2.487 . S
O102 C89 1.241 1_554 S
O103 Nd80 2.682 1_556 S
O103 Nd81 2.414 . S
O103 C89 1.273 . S
O104 Nd80 2.410 . S
O104 C90 1.251 . S
O105 Nd81 2.424 1_554 S
O105 C90 1.268 . S
O106 Nd81 2.500 . S
O106 C91 1.258 . S
O107 Nd81 2.492 . S
O107 C91 1.239 . S
O108 Nd81 2.487 . S
O108 C98 1.241 1_556 S
O109 Nd80 2.414 . S
O109 Nd81 2.682 1_554 S
O109 C98 1.273 . S
O110 Nd81 2.410 . S
O110 C99 1.251 . S
O111 Nd80 2.424 1_556 S
O111 C99 1.268 . S
H112 C84 0.930 1_545 S
H113 C85 0.929 . S
H114 C87 0.930 . S
H115 C88 0.929 . S
H116 C93 0.930 . S
H117 C94 0.929 . S
H118 C96 0.930 . S
H119 C97 0.929 . S
Nd120 C122 2.836 . S
Nd120 O140 2.500 1_545 S
Nd120 O141 2.492 . S
Nd120 O142 2.487 . S
Nd120 O143 2.682 . S
Nd120 O144 2.410 . S
Nd120 O149 2.414 . S
Nd120 O151 2.424 . S
Nd121 C131 2.836 . S
Nd121 O143 2.414 . S
Nd121 O145 2.424 . S
Nd121 O146 2.500 . S
Nd121 O147 2.492 . S
Nd121 O148 2.487 . S
Nd121 O149 2.682 . S
Nd121 O150 2.410 . S
C122 Nd120 2.836 . S
C122 C123 1.498 . S
C122 O140 1.258 1_545 S
C122 O141 1.239 . S
C123 C122 1.498 . S
C123 C124 1.366 1_545 S
C123 C128 1.407 . S
C124 C123 1.366 1_565 S
C124 C125 1.392 . S
C124 H152 0.930 . S
C125 C124 1.392 . S
C125 C126 1.398 . S
C125 H153 0.929 . S
C126 C125 1.398 . S
C126 C127 1.352 1_565 S
C127 C126 1.352 1_545 S
C127 C128 1.384 . S
C127 H154 0.930 . S
C128 C123 1.407 . S
C128 C127 1.384 . S
C128 H155 0.929 . S
C129 O142 1.241 . S
C129 O143 1.273 . S
C130 O144 1.251 . S
C130 O145 1.268 . S
C131 Nd121 2.836 . S
C131 C132 1.498 . S
C131 O146 1.258 . S
C131 O147 1.239 . S
C132 C131 1.498 . S
C132 C133 1.366 . S
C132 C137 1.407 . S
C133 C132 1.366 . S
C133 C134 1.392 . S
C133 H156 0.930 . S
C134 C133 1.392 . S
C134 C135 1.398 1_556 S
C134 H157 0.929 1_556 S
C135 C134 1.398 1_554 S
C135 C136 1.352 1_554 S
C136 C135 1.352 1_556 S
C136 C137 1.384 . S
C136 H158 0.930 . S
C137 C132 1.407 . S
C137 C136 1.384 . S
C137 H159 0.929 . S
C138 O148 1.241 . S
C138 O149 1.273 . S
C139 O150 1.251 . S
C139 O151 1.268 . S
O140 Nd120 2.500 1_565 S
O140 C122 1.258 1_565 S
O141 Nd120 2.492 . S
O141 C122 1.239 . S
O142 Nd120 2.487 . S
O142 C129 1.241 . S
O143 Nd120 2.682 . S
O143 Nd121 2.414 . S
O143 C129 1.273 . S
O144 Nd120 2.410 . S
O144 C130 1.251 . S
O145 Nd121 2.424 . S
O145 C130 1.268 . S
O146 Nd121 2.500 . S
O146 C131 1.258 . S
O147 Nd121 2.492 . S
O147 C131 1.239 . S
O148 Nd121 2.487 . S
O148 C138 1.241 . S
O149 Nd120 2.414 . S
O149 Nd121 2.682 . S
O149 C138 1.273 . S
O150 Nd121 2.410 . S
O150 C139 1.251 . S
O151 Nd120 2.424 . S
O151 C139 1.268 . S
H152 C124 0.930 . S
H153 C125 0.929 . S
H154 C127 0.930 . S
H155 C128 0.929 . S
H156 C133 0.930 . S
H157 C134 0.929 1_554 S
H158 C136 0.930 . S
H159 C137 0.929 . S
Nd160 C162 2.836 . S
Nd160 O180 2.500 1_655 S
Nd160 O181 2.492 . S
Nd160 O182 2.487 . S
Nd160 O183 2.682 . S
Nd160 O184 2.410 . S
Nd160 O189 2.414 . S
Nd160 O191 2.424 . S
Nd161 C171 2.836 . S
Nd161 O183 2.414 . S
Nd161 O185 2.424 . S
Nd161 O186 2.500 . S
Nd161 O187 2.492 . S
Nd161 O188 2.487 . S
Nd161 O189 2.682 . S
Nd161 O190 2.410 . S
C162 Nd160 2.836 . S
C162 C163 1.498 . S
C162 O180 1.258 1_655 S
C162 O181 1.239 . S
C163 C162 1.498 . S
C163 C164 1.366 1_655 S
C163 C168 1.407 . S
C164 C163 1.366 1_455 S
C164 C165 1.392 . S
C164 H192 0.930 . S
C165 C164 1.392 . S
C165 C166 1.398 . S
C165 H193 0.929 . S
C166 C165 1.398 . S
C166 C167 1.352 1_455 S
C167 C166 1.352 1_655 S
C167 C168 1.384 . S
C167 H194 0.930 . S
C168 C163 1.407 . S
C168 C167 1.384 . S
C168 H195 0.929 . S
C169 O182 1.241 . S
C169 O183 1.273 . S
C170 O184 1.251 . S
C170 O185 1.268 . S
C171 Nd161 2.836 . S
C171 C172 1.498 . S
C171 O186 1.258 . S
C171 O187 1.239 . S
C172 C171 1.498 . S
C172 C173 1.366 . S
C172 C177 1.407 . S
C173 C172 1.366 . S
C173 C174 1.392 . S
C173 H196 0.930 . S
C174 C173 1.392 . S
C174 C175 1.398 1_556 S
C174 H197 0.929 1_556 S
C175 C174 1.398 1_554 S
C175 C176 1.352 1_554 S
C176 C175 1.352 1_556 S
C176 C177 1.384 . S
C176 H198 0.930 . S
C177 C172 1.407 . S
C177 C176 1.384 . S
C177 H199 0.929 . S
C178 O188 1.241 . S
C178 O189 1.273 . S
C179 O190 1.251 . S
C179 O191 1.268 . S
O180 Nd160 2.500 1_455 S
O180 C162 1.258 1_455 S
O181 Nd160 2.492 . S
O181 C162 1.239 . S
O182 Nd160 2.487 . S
O182 C169 1.241 . S
O183 Nd160 2.682 . S
O183 Nd161 2.414 . S
O183 C169 1.273 . S
O184 Nd160 2.410 . S
O184 C170 1.251 . S
O185 Nd161 2.424 . S
O185 C170 1.268 . S
O186 Nd161 2.500 . S
O186 C171 1.258 . S
O187 Nd161 2.492 . S
O187 C171 1.239 . S
O188 Nd161 2.487 . S
O188 C178 1.241 . S
O189 Nd160 2.414 . S
O189 Nd161 2.682 . S
O189 C178 1.273 . S
O190 Nd161 2.410 . S
O190 C179 1.251 . S
O191 Nd160 2.424 . S
O191 C179 1.268 . S
H192 C164 0.930 . S
H193 C165 0.929 . S
H194 C167 0.930 . S
H195 C168 0.929 . S
H196 C173 0.930 . S
H197 C174 0.929 1_554 S
H198 C176 0.930 . S
H199 C177 0.929 . S
Nd200 C202 2.836 . S
Nd200 O220 2.500 . S
Nd200 O221 2.492 . S
Nd200 O222 2.487 . S
Nd200 O223 2.682 . S
Nd200 O224 2.410 . S
Nd200 O229 2.414 . S
Nd200 O231 2.424 . S
Nd201 C211 2.836 . S
Nd201 O223 2.414 . S
Nd201 O225 2.424 . S
Nd201 O226 2.500 . S
Nd201 O227 2.492 . S
Nd201 O228 2.487 . S
Nd201 O229 2.682 . S
Nd201 O230 2.410 . S
C202 Nd200 2.836 . S
C202 C203 1.498 . S
C202 O220 1.258 . S
C202 O221 1.239 . S
C203 C202 1.498 . S
C203 C204 1.366 . S
C203 C208 1.407 . S
C204 C203 1.366 . S
C204 C205 1.392 . S
C204 H232 0.930 . S
C205 C204 1.392 . S
C205 C206 1.398 . S
C205 H233 0.929 . S
C206 C205 1.398 . S
C206 C207 1.352 . S
C207 C206 1.352 . S
C207 C208 1.384 . S
C207 H234 0.930 . S
C208 C203 1.407 . S
C208 C207 1.384 . S
C208 H235 0.929 . S
C209 O222 1.241 . S
C209 O223 1.273 . S
C210 O224 1.251 . S
C210 O225 1.268 . S
C211 Nd201 2.836 . S
C211 C212 1.498 . S
C211 O226 1.258 . S
C211 O227 1.239 . S
C212 C211 1.498 . S
C212 C213 1.366 . S
C212 C217 1.407 . S
C213 C212 1.366 . S
C213 C214 1.392 . S
C213 H236 0.930 . S
C214 C213 1.392 . S
C214 C215 1.398 1_556 S
C214 H237 0.929 1_556 S
C215 C214 1.398 1_554 S
C215 C216 1.352 1_554 S
C216 C215 1.352 1_556 S
C216 C217 1.384 . S
C216 H238 0.930 . S
C217 C212 1.407 . S
C217 C216 1.384 . S
C217 H239 0.929 . S
C218 O228 1.241 . S
C218 O229 1.273 . S
C219 O230 1.251 . S
C219 O231 1.268 . S
O220 Nd200 2.500 . S
O220 C202 1.258 . S
O221 Nd200 2.492 . S
O221 C202 1.239 . S
O222 Nd200 2.487 . S
O222 C209 1.241 . S
O223 Nd200 2.682 . S
O223 Nd201 2.414 . S
O223 C209 1.273 . S
O224 Nd200 2.410 . S
O224 C210 1.251 . S
O225 Nd201 2.424 . S
O225 C210 1.268 . S
O226 Nd201 2.500 . S
O226 C211 1.258 . S
O227 Nd201 2.492 . S
O227 C211 1.239 . S
O228 Nd201 2.487 . S
O228 C218 1.241 . S
O229 Nd200 2.414 . S
O229 Nd201 2.682 . S
O229 C218 1.273 . S
O230 Nd201 2.410 . S
O230 C219 1.251 . S
O231 Nd200 2.424 . S
O231 C219 1.268 . S
H232 C204 0.930 . S
H233 C205 0.929 . S
H234 C207 0.930 . S
H235 C208 0.929 . S
H236 C213 0.930 . S
H237 C214 0.929 1_554 S
H238 C216 0.930 . S
H239 C217 0.929 . S
Nd240 C242 2.836 . S
Nd240 O260 2.500 . S
Nd240 O261 2.492 . S
Nd240 O262 2.487 . S
Nd240 O263 2.682 . S
Nd240 O264 2.410 . S
Nd240 O269 2.414 . S
Nd240 O271 2.424 . S
Nd241 C251 2.836 . S
Nd241 O263 2.414 . S
Nd241 O265 2.424 . S
Nd241 O266 2.511 . S
Nd241 O267 2.492 . S
Nd241 O268 2.487 . S
Nd241 O269 2.682 . S
Nd241 O270 2.410 . S
C242 Nd240 2.836 . S
C242 C243 1.498 . S
C242 O260 1.258 . S
C242 O261 1.239 . S
C243 C242 1.498 . S
C243 C244 1.366 . S
C243 C248 1.407 . S
C244 C243 1.366 . S
C244 C245 1.392 . S
C244 H272 0.930 . S
C245 C244 1.392 . S
C245 C246 1.398 . S
C245 H273 0.929 . S
C246 C245 1.398 . S
C246 C247 1.352 . S
C247 C246 1.352 . S
C247 C248 1.384 . S
C247 H274 0.930 . S
C248 C243 1.407 . S
C248 C247 1.384 . S
C248 H275 0.929 . S
C249 O262 1.241 . S
C249 O263 1.273 . S
C250 O264 1.251 . S
C250 O265 1.268 . S
C251 Nd241 2.836 . S
C251 C252 1.498 1_554 S
C251 O266 1.277 . S
C251 O267 1.239 . S
C252 C251 1.498 1_556 S
C252 C253 1.366 1_655 S
C252 C257 1.407 . S
C253 C252 1.366 1_455 S
C253 C254 1.392 . S
C253 H276 0.930 . S
C254 C253 1.392 . S
C254 C255 1.398 . S
C254 H277 0.929 . S
C255 C254 1.398 . S
C255 C256 1.352 1_455 S
C256 C255 1.352 1_655 S
C256 C257 1.384 . S
C256 H278 0.930 . S
C257 C252 1.407 . S
C257 C256 1.384 . S
C257 H279 0.929 . S
C258 O268 1.241 . S
C258 O269 1.273 . S
C259 O270 1.251 . S
C259 O271 1.268 . S
O260 Nd240 2.500 . S
O260 C242 1.258 . S
O261 Nd240 2.492 . S
O261 C242 1.239 . S
O262 Nd240 2.487 . S
O262 C249 1.241 . S
O263 Nd240 2.682 . S
O263 Nd241 2.414 . S
O263 C249 1.273 . S
O264 Nd240 2.410 . S
O264 C250 1.251 . S
O265 Nd241 2.424 . S
O265 C250 1.268 . S
O266 Nd241 2.511 . S
O266 C251 1.277 . S
O267 Nd241 2.492 . S
O267 C251 1.239 . S
O268 Nd241 2.487 . S
O268 C258 1.241 . S
O269 Nd240 2.414 . S
O269 Nd241 2.682 . S
O269 C258 1.273 . S
O270 Nd241 2.410 . S
O270 C259 1.251 . S
O271 Nd240 2.424 . S
O271 C259 1.268 . S
H272 C244 0.930 . S
H273 C245 0.929 . S
H274 C247 0.930 . S
H275 C248 0.929 . S
H276 C253 0.930 . S
H277 C254 0.929 . S
H278 C256 0.930 . S
H279 C257 0.929 . S
Nd280 C282 2.836 . S
Nd280 O300 2.500 . S
Nd280 O301 2.492 . S
Nd280 O302 2.487 . S
Nd280 O303 2.682 . S
Nd280 O304 2.410 . S
Nd280 O309 2.414 . S
Nd280 O311 2.424 . S
Nd281 C291 2.836 . S
Nd281 O303 2.414 . S
Nd281 O305 2.424 . S
Nd281 O306 2.500 . S
Nd281 O307 2.492 . S
Nd281 O308 2.487 . S
Nd281 O309 2.682 . S
Nd281 O310 2.410 . S
C282 Nd280 2.836 . S
C282 C283 1.498 . S
C282 O300 1.258 . S
C282 O301 1.239 . S
C283 C282 1.498 . S
C283 C284 1.366 . S
C283 C288 1.407 . S
C284 C283 1.366 . S
C284 C285 1.392 . S
C284 H312 0.930 . S
C285 C284 1.392 . S
C285 C286 1.398 . S
C285 H313 0.929 . S
C286 C285 1.398 . S
C286 C287 1.352 . S
C287 C286 1.352 . S
C287 C288 1.384 . S
C287 H314 0.930 . S
C288 C283 1.407 . S
C288 C287 1.384 . S
C288 H315 0.929 . S
C289 O302 1.241 . S
C289 O303 1.273 . S
C290 O304 1.251 . S
C290 O305 1.268 . S
C291 Nd281 2.836 . S
C291 C292 1.498 1_554 S
C291 O306 1.258 . S
C291 O307 1.239 . S
C292 C291 1.498 1_556 S
C292 C293 1.366 . S
C292 C297 1.407 . S
C293 C292 1.366 . S
C293 C294 1.392 . S
C293 H316 0.930 . S
C294 C293 1.392 . S
C294 C295 1.398 . S
C294 H317 0.929 . S
C295 C294 1.398 . S
C295 C296 1.352 . S
C296 C295 1.352 . S
C296 C297 1.384 . S
C296 H318 0.930 . S
C297 C292 1.407 . S
C297 C296 1.384 . S
C297 H319 0.929 . S
C298 O308 1.241 . S
C298 O309 1.273 . S
C299 O310 1.251 . S
C299 O311 1.268 . S
O300 Nd280 2.500 . S
O300 C282 1.258 . S
O301 Nd280 2.492 . S
O301 C282 1.239 . S
O302 Nd280 2.487 . S
O302 C289 1.241 . S
O303 Nd280 2.682 . S
O303 Nd281 2.414 . S
O303 C289 1.273 . S
O304 Nd280 2.410 . S
O304 C290 1.251 . S
O305 Nd281 2.424 . S
O305 C290 1.268 . S
O306 Nd281 2.500 . S
O306 C291 1.258 . S
O307 Nd281 2.492 . S
O307 C291 1.239 . S
O308 Nd281 2.487 . S
O308 C298 1.241 . S
O309 Nd280 2.414 . S
O309 Nd281 2.682 . S
O309 C298 1.273 . S
O310 Nd281 2.410 . S
O310 C299 1.251 . S
O311 Nd280 2.424 . S
O311 C299 1.268 . S
H312 C284 0.930 . S
H313 C285 0.929 . S
H314 C287 0.930 . S
H315 C288 0.929 . S
H316 C293 0.930 . S
H317 C294 0.929 . S
H318 C296 0.930 . S
H319 C297 0.929 . S
Nd320 C322 2.836 . S
Nd320 O340 2.500 . S
Nd320 O341 2.492 . S
Nd320 O342 2.487 . S
Nd320 O343 2.682 . S
Nd320 O344 2.410 . S
Nd320 O349 2.414 . S
Nd320 O351 2.424 . S
Nd321 C331 2.836 . S
Nd321 O343 2.414 . S
Nd321 O345 2.424 . S
Nd321 O346 2.505 . S
Nd321 O347 2.492 . S
Nd321 O348 2.487 . S
Nd321 O349 2.682 . S
Nd321 O350 2.410 . S
C322 Nd320 2.836 . S
C322 C323 1.498 . S
C322 O340 1.258 . S
C322 O341 1.239 . S
C323 C322 1.498 . S
C323 C324 1.366 . S
C323 C328 1.407 . S
C324 C323 1.366 . S
C324 C325 1.392 . S
C324 H352 0.930 . S
C325 C324 1.392 . S
C325 C326 1.398 . S
C325 H353 0.929 . S
C326 C325 1.398 . S
C326 C327 1.352 . S
C327 C326 1.352 . S
C327 C328 1.384 . S
C327 H354 0.930 . S
C328 C323 1.407 . S
C328 C327 1.384 . S
C328 H355 0.929 . S
C329 O342 1.241 . S
C329 O343 1.273 . S
C330 O344 1.251 . S
C330 O345 1.268 . S
C331 Nd321 2.836 . S
C331 C332 1.498 1_554 S
C331 O346 1.256 . S
C331 O347 1.239 . S
C332 C331 1.498 1_556 S
C332 C333 1.366 1_545 S
C332 C337 1.407 . S
C333 C332 1.366 1_565 S
C333 C334 1.392 . S
C333 H356 0.930 . S
C334 C333 1.392 . S
C334 C335 1.398 . S
C334 H357 0.929 . S
C335 C334 1.398 . S
C335 C336 1.352 1_565 S
C336 C335 1.352 1_545 S
C336 C337 1.384 . S
C336 H358 0.930 . S
C337 C332 1.407 . S
C337 C336 1.384 . S
C337 H359 0.929 . S
C338 O348 1.241 . S
C338 O349 1.273 . S
C339 O350 1.251 . S
C339 O351 1.268 . S
O340 Nd320 2.500 . S
O340 C322 1.258 . S
O341 Nd320 2.492 . S
O341 C322 1.239 . S
O342 Nd320 2.487 . S
O342 C329 1.241 . S
O343 Nd320 2.682 . S
O343 Nd321 2.414 . S
O343 C329 1.273 . S
O344 Nd320 2.410 . S
O344 C330 1.251 . S
O345 Nd321 2.424 . S
O345 C330 1.268 . S
O346 Nd321 2.505 . S
O346 C331 1.256 . S
O347 Nd321 2.492 . S
O347 C331 1.239 . S
O348 Nd321 2.487 . S
O348 C338 1.241 . S
O349 Nd320 2.414 . S
O349 Nd321 2.682 . S
O349 C338 1.273 . S
O350 Nd321 2.410 . S
O350 C339 1.251 . S
O351 Nd320 2.424 . S
O351 C339 1.268 . S
H352 C324 0.930 . S
H353 C325 0.929 . S
H354 C327 0.930 . S
H355 C328 0.929 . S
H356 C333 0.930 . S
H357 C334 0.929 . S
H358 C336 0.930 . S
H359 C337 0.929 . S
Nd360 C362 2.836 . S
Nd360 O380 2.500 . S
Nd360 O381 2.492 . S
Nd360 O382 2.487 . S
Nd360 O383 2.682 . S
Nd360 O384 2.410 . S
Nd360 O389 2.414 . S
Nd360 O391 2.424 . S
Nd361 C371 2.836 . S
Nd361 O383 2.414 . S
Nd361 O385 2.424 . S
Nd361 O386 2.500 . S
Nd361 O387 2.492 . S
Nd361 O388 2.487 . S
Nd361 O389 2.682 . S
Nd361 O390 2.410 . S
C362 Nd360 2.836 . S
C362 C363 1.498 . S
C362 O380 1.258 . S
C362 O381 1.239 . S
C363 C362 1.498 . S
C363 C364 1.366 . S
C363 C368 1.407 . S
C364 C363 1.366 . S
C364 C365 1.392 . S
C364 H392 0.930 . S
C365 C364 1.392 . S
C365 C366 1.398 . S
C365 H393 0.929 . S
C366 C365 1.398 . S
C366 C367 1.352 . S
C367 C366 1.352 . S
C367 C368 1.384 . S
C367 H394 0.930 . S
C368 C363 1.407 . S
C368 C367 1.384 . S
C368 H395 0.929 . S
C369 O382 1.241 . S
C369 O383 1.273 . S
C370 O384 1.251 . S
C370 O385 1.268 . S
C371 Nd361 2.836 . S
C371 C372 1.498 . S
C371 O386 1.258 . S
C371 O387 1.239 . S
C372 C371 1.498 . S
C372 C373 1.366 1_565 S
C372 C377 1.407 . S
C373 C372 1.366 1_545 S
C373 C374 1.392 . S
C373 H396 0.930 . S
C374 C373 1.392 . S
C374 C375 1.398 . S
C374 H397 0.929 . S
C375 C374 1.398 . S
C375 C376 1.352 1_545 S
C376 C375 1.352 1_565 S
C376 C377 1.384 . S
C376 H398 0.930 . S
C377 C372 1.407 . S
C377 C376 1.384 . S
C377 H399 0.929 . S
C378 O388 1.241 . S
C378 O389 1.273 . S
C379 O390 1.251 . S
C379 O391 1.268 . S
O380 Nd360 2.500 . S
O380 C362 1.258 . S
O381 Nd360 2.492 . S
O381 C362 1.239 . S
O382 Nd360 2.487 . S
O382 C369 1.241 . S
O383 Nd360 2.682 . S
O383 Nd361 2.414 . S
O383 C369 1.273 . S
O384 Nd360 2.410 . S
O384 C370 1.251 . S
O385 Nd361 2.424 . S
O385 C370 1.268 . S
O386 Nd361 2.500 . S
O386 C371 1.258 . S
O387 Nd361 2.492 . S
O387 C371 1.239 . S
O388 Nd361 2.487 . S
O388 C378 1.241 . S
O389 Nd360 2.414 . S
O389 Nd361 2.682 . S
O389 C378 1.273 . S
O390 Nd361 2.410 . S
O390 C379 1.251 . S
O391 Nd360 2.424 . S
O391 C379 1.268 . S
H392 C364 0.930 . S
H393 C365 0.929 . S
H394 C367 0.930 . S
H395 C368 0.929 . S
H396 C373 0.930 . S
H397 C374 0.929 . S
H398 C376 0.930 . S
H399 C377 0.929 . S
Nd400 C402 2.836 . S
Nd400 O420 2.500 . S
Nd400 O421 2.492 . S
Nd400 O422 2.487 . S
Nd400 O423 2.682 . S
Nd400 O424 2.410 . S
Nd400 O429 2.414 . S
Nd400 O431 2.424 . S
Nd401 C411 2.836 . S
Nd401 O423 2.414 . S
Nd401 O425 2.424 . S
Nd401 O426 2.500 . S
Nd401 O427 2.492 . S
Nd401 O428 2.487 . S
Nd401 O429 2.682 . S
Nd401 O430 2.410 . S
C402 Nd400 2.836 . S
C402 C403 1.498 . S
C402 O420 1.258 . S
C402 O421 1.239 . S
C403 C402 1.498 . S
C403 C404 1.366 . S
C403 C408 1.407 . S
C404 C403 1.366 . S
C404 C405 1.392 . S
C404 H432 0.930 . S
C405 C404 1.392 . S
C405 C406 1.398 . S
C405 H433 0.929 . S
C406 C405 1.398 . S
C406 C407 1.352 . S
C407 C406 1.352 . S
C407 C408 1.384 . S
C407 H434 0.930 . S
C408 C403 1.407 . S
C408 C407 1.384 . S
C408 H435 0.929 . S
C409 O422 1.241 . S
C409 O423 1.273 . S
C410 O424 1.251 . S
C410 O425 1.268 . S
C411 Nd401 2.836 . S
C411 C412 1.498 . S
C411 O426 1.258 . S
C411 O427 1.239 . S
C412 C411 1.498 . S
C412 C413 1.366 1_455 S
C412 C417 1.407 . S
C413 C412 1.366 1_655 S
C413 C414 1.392 . S
C413 H436 0.930 . S
C414 C413 1.392 . S
C414 C415 1.398 . S
C414 H437 0.929 . S
C415 C414 1.398 . S
C415 C416 1.352 1_655 S
C416 C415 1.352 1_455 S
C416 C417 1.384 . S
C416 H438 0.930 . S
C417 C412 1.407 . S
C417 C416 1.384 . S
C417 H439 0.929 . S
C418 O428 1.241 . S
C418 O429 1.273 . S
C419 O430 1.251 . S
C419 O431 1.268 . S
O420 Nd400 2.500 . S
O420 C402 1.258 . S
O421 Nd400 2.492 . S
O421 C402 1.239 . S
O422 Nd400 2.487 . S
O422 C409 1.241 . S
O423 Nd400 2.682 . S
O423 Nd401 2.414 . S
O423 C409 1.273 . S
O424 Nd400 2.410 . S
O424 C410 1.251 . S
O425 Nd401 2.424 . S
O425 C410 1.268 . S
O426 Nd401 2.500 . S
O426 C411 1.258 . S
O427 Nd401 2.492 . S
O427 C411 1.239 . S
O428 Nd401 2.487 . S
O428 C418 1.241 . S
O429 Nd400 2.414 . S
O429 Nd401 2.682 . S
O429 C418 1.273 . S
O430 Nd401 2.410 . S
O430 C419 1.251 . S
O431 Nd400 2.424 . S
O431 C419 1.268 . S
H432 C404 0.930 . S
H433 C405 0.929 . S
H434 C407 0.930 . S
H435 C408 0.929 . S
H436 C413 0.930 . S
H437 C414 0.929 . S
H438 C416 0.930 . S
H439 C417 0.929 . S
Nd440 C442 2.836 . S
Nd440 O460 2.500 . S
Nd440 O461 2.492 . S
Nd440 O462 2.487 . S
Nd440 O463 2.682 . S
Nd440 O464 2.410 . S
Nd440 O469 2.414 . S
Nd440 O471 2.424 . S
Nd441 C451 2.836 . S
Nd441 O463 2.414 . S
Nd441 O465 2.424 . S
Nd441 O466 2.500 . S
Nd441 O467 2.492 . S
Nd441 O468 2.487 . S
Nd441 O469 2.682 . S
Nd441 O470 2.410 . S
C442 Nd440 2.836 . S
C442 C443 1.498 . S
C442 O460 1.258 . S
C442 O461 1.239 . S
C443 C442 1.498 . S
C443 C444 1.366 . S
C443 C448 1.407 . S
C444 C443 1.366 . S
C444 C445 1.392 . S
C444 H472 0.930 . S
C445 C444 1.392 . S
C445 C446 1.398 . S
C445 H473 0.929 . S
C446 C445 1.398 . S
C446 C447 1.352 . S
C447 C446 1.352 . S
C447 C448 1.384 . S
C447 H474 0.930 . S
C448 C443 1.407 . S
C448 C447 1.384 . S
C448 H475 0.929 . S
C449 O462 1.241 . S
C449 O463 1.273 . S
C450 O464 1.251 . S
C450 O465 1.268 . S
C451 Nd441 2.836 . S
C451 C452 1.498 . S
C451 O466 1.258 . S
C451 O467 1.239 . S
C452 C451 1.498 . S
C452 C453 1.366 . S
C452 C457 1.407 . S
C453 C452 1.366 . S
C453 C454 1.392 . S
C453 H476 0.930 . S
C454 C453 1.392 . S
C454 C455 1.398 . S
C454 H477 0.929 . S
C455 C454 1.398 . S
C455 C456 1.352 . S
C456 C455 1.352 . S
C456 C457 1.384 . S
C456 H478 0.930 . S
C457 C452 1.407 . S
C457 C456 1.384 . S
C457 H479 0.929 . S
C458 O468 1.241 . S
C458 O469 1.273 . S
C459 O470 1.251 . S
C459 O471 1.268 . S
O460 Nd440 2.500 . S
O460 C442 1.258 . S
O461 Nd440 2.492 . S
O461 C442 1.239 . S
O462 Nd440 2.487 . S
O462 C449 1.241 . S
O463 Nd440 2.682 . S
O463 Nd441 2.414 . S
O463 C449 1.273 . S
O464 Nd440 2.410 . S
O464 C450 1.251 . S
O465 Nd441 2.424 . S
O465 C450 1.268 . S
O466 Nd441 2.500 . S
O466 C451 1.258 . S
O467 Nd441 2.492 . S
O467 C451 1.239 . S
O468 Nd441 2.487 . S
O468 C458 1.241 . S
O469 Nd440 2.414 . S
O469 Nd441 2.682 . S
O469 C458 1.273 . S
O470 Nd441 2.410 . S
O470 C459 1.251 . S
O471 Nd440 2.424 . S
O471 C459 1.268 . S
H472 C444 0.930 . S
H473 C445 0.929 . S
H474 C447 0.930 . S
H475 C448 0.929 . S
H476 C453 0.930 . S
H477 C454 0.929 . S
H478 C456 0.930 . S
H479 C457 0.929 . S
Nd480 C482 2.836 . S
Nd480 O500 2.500 . S
Nd480 O501 2.492 . S
Nd480 O502 2.487 . S
Nd480 O503 2.682 . S
Nd480 O504 2.410 . S
Nd480 O509 2.414 . S
Nd480 O511 2.424 . S
Nd481 C491 2.836 . S
Nd481 O503 2.414 . S
Nd481 O505 2.424 . S
Nd481 O506 2.500 . S
Nd481 O507 2.492 . S
Nd481 O508 2.487 . S
Nd481 O509 2.682 . S
Nd481 O510 2.410 . S
C482 Nd480 2.836 . S
C482 C483 1.498 . S
C482 O500 1.258 . S
C482 O501 1.239 . S
C483 C482 1.498 . S
C483 C484 1.366 . S
C483 C488 1.407 . S
C484 C483 1.366 . S
C484 C485 1.392 . S
C484 H512 0.930 . S
C485 C484 1.392 . S
C485 C486 1.398 . S
C485 H513 0.929 . S
C486 C485 1.398 . S
C486 C487 1.352 . S
C487 C486 1.352 . S
C487 C488 1.384 . S
C487 H514 0.930 . S
C488 C483 1.407 . S
C488 C487 1.384 . S
C488 H515 0.929 . S
C489 O502 1.241 . S
C489 O503 1.273 . S
C490 O504 1.251 . S
C490 O505 1.268 . S
C491 Nd481 2.836 . S
C491 C492 1.498 . S
C491 O506 1.258 . S
C491 O507 1.239 . S
C492 C491 1.498 . S
C492 C493 1.366 . S
C492 C497 1.407 . S
C493 C492 1.366 . S
C493 C494 1.392 . S
C493 H516 0.930 . S
C494 C493 1.392 . S
C494 C495 1.398 1_554 S
C494 H517 0.929 1_554 S
C495 C494 1.398 1_556 S
C495 C496 1.352 1_556 S
C496 C495 1.352 1_554 S
C496 C497 1.384 . S
C496 H518 0.930 . S
C497 C492 1.407 . S
C497 C496 1.384 . S
C497 H519 0.929 . S
C498 O508 1.241 . S
C498 O509 1.273 . S
C499 O510 1.251 . S
C499 O511 1.268 . S
O500 Nd480 2.500 . S
O500 C482 1.258 . S
O501 Nd480 2.492 . S
O501 C482 1.239 . S
O502 Nd480 2.487 . S
O502 C489 1.241 . S
O503 Nd480 2.682 . S
O503 Nd481 2.414 . S
O503 C489 1.273 . S
O504 Nd480 2.410 . S
O504 C490 1.251 . S
O505 Nd481 2.424 . S
O505 C490 1.268 . S
O506 Nd481 2.500 . S
O506 C491 1.258 . S
O507 Nd481 2.492 . S
O507 C491 1.239 . S
O508 Nd481 2.487 . S
O508 C498 1.241 . S
O509 Nd480 2.414 . S
O509 Nd481 2.682 . S
O509 C498 1.273 . S
O510 Nd481 2.410 . S
O510 C499 1.251 . S
O511 Nd480 2.424 . S
O511 C499 1.268 . S
H512 C484 0.930 . S
H513 C485 0.929 . S
H514 C487 0.930 . S
H515 C488 0.929 . S
H516 C493 0.930 . S
H517 C494 0.929 1_556 S
H518 C496 0.930 . S
H519 C497 0.929 . S
Nd520 C522 2.836 . S
Nd520 O540 2.500 . S
Nd520 O541 2.492 . S
Nd520 O542 2.487 . S
Nd520 O543 2.682 . S
Nd520 O544 2.410 . S
Nd520 O549 2.414 . S
Nd520 O551 2.424 . S
Nd521 C531 2.836 . S
Nd521 O543 2.414 . S
Nd521 O545 2.424 . S
Nd521 O546 2.500 . S
Nd521 O547 2.492 . S
Nd521 O548 2.487 . S
Nd521 O549 2.682 . S
Nd521 O550 2.410 . S
C522 Nd520 2.836 . S
C522 C523 1.498 . S
C522 O540 1.258 . S
C522 O541 1.239 . S
C523 C522 1.498 . S
C523 C524 1.366 . S
C523 C528 1.407 . S
C524 C523 1.366 . S
C524 C525 1.392 . S
C524 H552 0.930 . S
C525 C524 1.392 . S
C525 C526 1.398 . S
C525 H553 0.929 . S
C526 C525 1.398 . S
C526 C527 1.352 . S
C527 C526 1.352 . S
C527 C528 1.384 . S
C527 H554 0.930 1_565 S
C528 C523 1.407 . S
C528 C527 1.384 . S
C528 H555 0.929 1_565 S
C529 O542 1.241 . S
C529 O543 1.273 . S
C530 O544 1.251 . S
C530 O545 1.268 . S
C531 Nd521 2.836 . S
C531 C532 1.498 . S
C531 O546 1.258 . S
C531 O547 1.239 . S
C532 C531 1.498 . S
C532 C533 1.366 . S
C532 C537 1.407 . S
C533 C532 1.366 . S
C533 C534 1.392 . S
C533 H556 0.930 . S
C534 C533 1.392 . S
C534 C535 1.398 1_554 S
C534 H557 0.929 1_554 S
C535 C534 1.398 1_556 S
C535 C536 1.352 1_556 S
C536 C535 1.352 1_554 S
C536 C537 1.384 . S
C536 H558 0.930 . S
C537 C532 1.407 . S
C537 C536 1.384 . S
C537 H559 0.929 . S
C538 O548 1.241 . S
C538 O549 1.273 . S
C539 O550 1.251 . S
C539 O551 1.268 . S
O540 Nd520 2.500 . S
O540 C522 1.258 . S
O541 Nd520 2.492 . S
O541 C522 1.239 . S
O542 Nd520 2.487 . S
O542 C529 1.241 . S
O543 Nd520 2.682 . S
O543 Nd521 2.414 . S
O543 C529 1.273 . S
O544 Nd520 2.410 . S
O544 C530 1.251 . S
O545 Nd521 2.424 . S
O545 C530 1.268 . S
O546 Nd521 2.500 . S
O546 C531 1.258 . S
O547 Nd521 2.492 . S
O547 C531 1.239 . S
O548 Nd521 2.487 . S
O548 C538 1.241 . S
O549 Nd520 2.414 . S
O549 Nd521 2.682 . S
O549 C538 1.273 . S
O550 Nd521 2.410 . S
O550 C539 1.251 . S
O551 Nd520 2.424 . S
O551 C539 1.268 . S
H552 C524 0.930 . S
H553 C525 0.929 . S
H554 C527 0.930 1_545 S
H555 C528 0.929 1_545 S
H556 C533 0.930 . S
H557 C534 0.929 1_556 S
H558 C536 0.930 . S
H559 C537 0.929 . S
Nd560 C562 2.836 . S
Nd560 O580 2.500 . S
Nd560 O581 2.492 . S
Nd560 O582 2.487 . S
Nd560 O583 2.682 . S
Nd560 O584 2.410 . S
Nd560 O589 2.414 . S
Nd560 O591 2.424 . S
Nd561 C571 2.836 . S
Nd561 O583 2.414 . S
Nd561 O585 2.424 . S
Nd561 O586 2.500 . S
Nd561 O587 2.492 . S
Nd561 O588 2.487 . S
Nd561 O589 2.682 . S
Nd561 O590 2.410 . S
C562 Nd560 2.836 . S
C562 C563 1.498 . S
C562 O580 1.258 . S
C562 O581 1.239 . S
C563 C562 1.498 . S
C563 C564 1.366 . S
C563 C568 1.407 . S
C564 C563 1.366 . S
C564 C565 1.392 . S
C564 H592 0.930 . S
C565 C564 1.392 . S
C565 C566 1.398 . S
C565 H593 0.929 . S
C566 C565 1.398 . S
C566 C567 1.352 . S
C567 C566 1.352 . S
C567 C568 1.384 . S
C567 H594 0.930 1_455 S
C568 C563 1.407 . S
C568 C567 1.384 . S
C568 H595 0.929 1_455 S
C569 O582 1.241 . S
C569 O583 1.273 . S
C570 O584 1.251 . S
C570 O585 1.268 . S
C571 Nd561 2.836 . S
C571 C572 1.498 . S
C571 O586 1.258 . S
C571 O587 1.239 . S
C572 C571 1.498 . S
C572 C573 1.366 . S
C572 C577 1.407 . S
C573 C572 1.366 . S
C573 C574 1.392 . S
C573 H596 0.930 . S
C574 C573 1.392 . S
C574 C575 1.398 1_554 S
C574 H597 0.929 1_554 S
C575 C574 1.398 1_556 S
C575 C576 1.352 1_556 S
C576 C575 1.352 1_554 S
C576 C577 1.384 . S
C576 H598 0.930 . S
C577 C572 1.407 . S
C577 C576 1.384 . S
C577 H599 0.929 . S
C578 O588 1.241 . S
C578 O589 1.273 . S
C579 O590 1.251 . S
C579 O591 1.268 . S
O580 Nd560 2.500 . S
O580 C562 1.258 . S
O581 Nd560 2.492 . S
O581 C562 1.239 . S
O582 Nd560 2.487 . S
O582 C569 1.241 . S
O583 Nd560 2.682 . S
O583 Nd561 2.414 . S
O583 C569 1.273 . S
O584 Nd560 2.410 . S
O584 C570 1.251 . S
O585 Nd561 2.424 . S
O585 C570 1.268 . S
O586 Nd561 2.500 . S
O586 C571 1.258 . S
O587 Nd561 2.492 . S
O587 C571 1.239 . S
O588 Nd561 2.487 . S
O588 C578 1.241 . S
O589 Nd560 2.414 . S
O589 Nd561 2.682 . S
O589 C578 1.273 . S
O590 Nd561 2.410 . S
O590 C579 1.251 . S
O591 Nd560 2.424 . S
O591 C579 1.268 . S
H592 C564 0.930 . S
H593 C565 0.929 . S
H594 C567 0.930 1_655 S
H595 C568 0.929 1_655 S
H596 C573 0.930 . S
H597 C574 0.929 1_556 S
H598 C576 0.930 . S
H599 C577 0.929 . S
Nd600 C602 2.836 . S
Nd600 O620 2.500 . S
Nd600 O621 2.492 . S
Nd600 O622 2.487 . S
Nd600 O623 2.682 1_556 S
Nd600 O624 2.410 . S
Nd600 O629 2.414 . S
Nd600 O631 2.424 1_556 S
Nd601 C611 2.836 . S
Nd601 O623 2.414 . S
Nd601 O625 2.424 1_554 S
Nd601 O626 2.500 . S
Nd601 O627 2.492 . S
Nd601 O628 2.487 . S
Nd601 O629 2.682 1_554 S
Nd601 O630 2.410 . S
C602 Nd600 2.836 . S
C602 C603 1.498 . S
C602 O620 1.258 . S
C602 O621 1.239 . S
C603 C602 1.498 . S
C603 C604 1.366 . S
C603 C608 1.407 . S
C604 C603 1.366 . S
C604 C605 1.392 . S
C604 H632 0.930 . S
C605 C604 1.392 . S
C605 C606 1.398 . S
C605 H633 0.929 . S
C606 C605 1.398 . S
C606 C607 1.352 . S
C607 C606 1.352 . S
C607 C608 1.384 . S
C607 H634 0.930 . S
C608 C603 1.407 . S
C608 C607 1.384 . S
C608 H635 0.929 . S
C609 O622 1.241 1_554 S
C609 O623 1.273 . S
C610 O624 1.251 . S
C610 O625 1.268 . S
C611 Nd601 2.836 . S
C611 C612 1.498 . S
C611 O626 1.258 . S
C611 O627 1.239 . S
C612 C611 1.498 . S
C612 C613 1.366 . S
C612 C617 1.407 . S
C613 C612 1.366 . S
C613 C614 1.392 . S
C613 H636 0.930 . S
C614 C613 1.392 . S
C614 C615 1.398 . S
C614 H637 0.929 . S
C615 C614 1.398 . S
C615 C616 1.352 . S
C616 C615 1.352 . S
C616 C617 1.384 . S
C616 H638 0.930 . S
C617 C612 1.407 . S
C617 C616 1.384 . S
C617 H639 0.929 . S
C618 O628 1.241 1_556 S
C618 O629 1.273 . S
C619 O630 1.251 . S
C619 O631 1.268 . S
O620 Nd600 2.500 . S
O620 C602 1.258 . S
O621 Nd600 2.492 . S
O621 C602 1.239 . S
O622 Nd600 2.487 . S
O622 C609 1.241 1_556 S
O623 Nd600 2.682 1_554 S
O623 Nd601 2.414 . S
O623 C609 1.273 . S
O624 Nd600 2.410 . S
O624 C610 1.251 . S
O625 Nd601 2.424 1_556 S
O625 C610 1.268 . S
O626 Nd601 2.500 . S
O626 C611 1.258 . S
O627 Nd601 2.492 . S
O627 C611 1.239 . S
O628 Nd601 2.487 . S
O628 C618 1.241 1_554 S
O629 Nd600 2.414 . S
O629 Nd601 2.682 1_556 S
O629 C618 1.273 . S
O630 Nd601 2.410 . S
O630 C619 1.251 . S
O631 Nd600 2.424 1_554 S
O631 C619 1.268 . S
H632 C604 0.930 . S
H633 C605 0.929 . S
H634 C607 0.930 . S
H635 C608 0.929 . S
H636 C613 0.930 . S
H637 C614 0.929 . S
H638 C616 0.930 . S
H639 C617 0.929 . S
Nd640 C642 2.836 . S
Nd640 O660 2.500 . S
Nd640 O661 2.492 . S
Nd640 O662 2.487 . S
Nd640 O663 2.682 1_556 S
Nd640 O664 2.410 . S
Nd640 O669 2.414 . S
Nd640 O671 2.424 1_556 S
Nd641 C651 2.836 . S
Nd641 O663 2.414 . S
Nd641 O665 2.424 1_554 S
Nd641 O666 2.500 . S
Nd641 O667 2.492 . S
Nd641 O668 2.487 . S
Nd641 O669 2.682 1_554 S
Nd641 O670 2.410 . S
C642 Nd640 2.836 . S
C642 C643 1.498 . S
C642 O660 1.258 . S
C642 O661 1.239 . S
C643 C642 1.498 . S
C643 C644 1.366 . S
C643 C648 1.407 . S
C644 C643 1.366 . S
C644 C645 1.392 . S
C644 H672 0.930 . S
C645 C644 1.392 . S
C645 C646 1.398 . S
C645 H673 0.929 . S
C646 C645 1.398 . S
C646 C647 1.352 . S
C647 C646 1.352 . S
C647 C648 1.384 . S
C647 H674 0.930 . S
C648 C643 1.407 . S
C648 C647 1.384 . S
C648 H675 0.929 . S
C649 O662 1.241 1_554 S
C649 O663 1.273 . S
C650 O664 1.251 . S
C650 O665 1.268 . S
C651 Nd641 2.836 . S
C651 C652 1.498 . S
C651 O666 1.258 . S
C651 O667 1.239 . S
C652 C651 1.498 . S
C652 C653 1.366 . S
C652 C657 1.407 . S
C653 C652 1.366 . S
C653 C654 1.392 . S
C653 H676 0.930 . S
C654 C653 1.392 . S
C654 C655 1.398 . S
C654 H677 0.929 . S
C655 C654 1.398 . S
C655 C656 1.352 . S
C656 C655 1.352 . S
C656 C657 1.384 . S
C656 H678 0.930 . S
C657 C652 1.407 . S
C657 C656 1.384 . S
C657 H679 0.929 . S
C658 O668 1.241 1_556 S
C658 O669 1.273 . S
C659 O670 1.251 . S
C659 O671 1.268 . S
O660 Nd640 2.500 . S
O660 C642 1.258 . S
O661 Nd640 2.492 . S
O661 C642 1.239 . S
O662 Nd640 2.487 . S
O662 C649 1.241 1_556 S
O663 Nd640 2.682 1_554 S
O663 Nd641 2.414 . S
O663 C649 1.273 . S
O664 Nd640 2.410 . S
O664 C650 1.251 . S
O665 Nd641 2.424 1_556 S
O665 C650 1.268 . S
O666 Nd641 2.500 . S
O666 C651 1.258 . S
O667 Nd641 2.492 . S
O667 C651 1.239 . S
O668 Nd641 2.487 . S
O668 C658 1.241 1_554 S
O669 Nd640 2.414 . S
O669 Nd641 2.682 1_556 S
O669 C658 1.273 . S
O670 Nd641 2.410 . S
O670 C659 1.251 . S
O671 Nd640 2.424 1_554 S
O671 C659 1.268 . S
H672 C644 0.930 . S
H673 C645 0.929 . S
H674 C647 0.930 . S
H675 C648 0.929 . S
H676 C653 0.930 . S
H677 C654 0.929 . S
H678 C656 0.930 . S
H679 C657 0.929 . S
Nd680 C682 2.836 . S
Nd680 O700 2.500 . S
Nd680 O701 2.492 . S
Nd680 O702 2.487 . S
Nd680 O703 2.682 1_556 S
Nd680 O704 2.410 . S
Nd680 O709 2.414 . S
Nd680 O711 2.424 1_556 S
Nd681 C691 2.836 . S
Nd681 O703 2.414 . S
Nd681 O705 2.424 1_554 S
Nd681 O706 2.500 . S
Nd681 O707 2.492 . S
Nd681 O708 2.487 . S
Nd681 O709 2.682 1_554 S
Nd681 O710 2.410 . S
C682 Nd680 2.836 . S
C682 C683 1.498 . S
C682 O700 1.258 . S
C682 O701 1.239 . S
C683 C682 1.498 . S
C683 C684 1.366 . S
C683 C688 1.407 . S
C684 C683 1.366 . S
C684 C685 1.392 . S
C684 H712 0.930 . S
C685 C684 1.392 . S
C685 C686 1.398 . S
C685 H713 0.929 . S
C686 C685 1.398 . S
C686 C687 1.352 . S
C687 C686 1.352 . S
C687 C688 1.384 . S
C687 H714 0.930 . S
C688 C683 1.407 . S
C688 C687 1.384 . S
C688 H715 0.929 . S
C689 O702 1.241 1_554 S
C689 O703 1.273 . S
C690 O704 1.251 . S
C690 O705 1.268 . S
C691 Nd681 2.836 . S
C691 C692 1.498 . S
C691 O706 1.258 . S
C691 O707 1.239 . S
C692 C691 1.498 . S
C692 C693 1.366 . S
C692 C697 1.407 . S
C693 C692 1.366 . S
C693 C694 1.392 . S
C693 H716 0.930 . S
C694 C693 1.392 . S
C694 C695 1.398 . S
C694 H717 0.929 . S
C695 C694 1.398 . S
C695 C696 1.352 . S
C696 C695 1.352 . S
C696 C697 1.384 . S
C696 H718 0.930 . S
C697 C692 1.407 . S
C697 C696 1.384 . S
C697 H719 0.929 . S
C698 O708 1.241 1_556 S
C698 O709 1.273 . S
C699 O710 1.251 . S
C699 O711 1.268 . S
O700 Nd680 2.500 . S
O700 C682 1.258 . S
O701 Nd680 2.492 . S
O701 C682 1.239 . S
O702 Nd680 2.487 . S
O702 C689 1.241 1_556 S
O703 Nd680 2.682 1_554 S
O703 Nd681 2.414 . S
O703 C689 1.273 . S
O704 Nd680 2.410 . S
O704 C690 1.251 . S
O705 Nd681 2.424 1_556 S
O705 C690 1.268 . S
O706 Nd681 2.500 . S
O706 C691 1.258 . S
O707 Nd681 2.492 . S
O707 C691 1.239 . S
O708 Nd681 2.487 . S
O708 C698 1.241 1_554 S
O709 Nd680 2.414 . S
O709 Nd681 2.682 1_556 S
O709 C698 1.273 . S
O710 Nd681 2.410 . S
O710 C699 1.251 . S
O711 Nd680 2.424 1_554 S
O711 C699 1.268 . S
H712 C684 0.930 . S
H713 C685 0.929 . S
H714 C687 0.930 . S
H715 C688 0.929 . S
H716 C693 0.930 . S
H717 C694 0.929 . S
H718 C696 0.930 . S
H719 C697 0.929 . S
Nd720 C722 2.836 . S
Nd720 O740 2.500 . S
Nd720 O741 2.492 . S
Nd720 O742 2.487 . S
Nd720 O743 2.682 . S
Nd720 O744 2.410 . S
Nd720 O749 2.414 . S
Nd720 O751 2.424 . S
Nd721 C731 2.836 . S
Nd721 O743 2.414 . S
Nd721 O745 2.424 . S
Nd721 O746 2.500 . S
Nd721 O747 2.492 . S
Nd721 O748 2.487 . S
Nd721 O749 2.682 . S
Nd721 O750 2.410 . S
C722 Nd720 2.836 . S
C722 C723 1.498 . S
C722 O740 1.258 . S
C722 O741 1.239 . S
C723 C722 1.498 . S
C723 C724 1.366 . S
C723 C728 1.407 . S
C724 C723 1.366 . S
C724 C725 1.392 . S
C724 H752 0.930 . S
C725 C724 1.392 . S
C725 C726 1.398 . S
C725 H753 0.929 . S
C726 C725 1.398 . S
C726 C727 1.352 . S
C727 C726 1.352 . S
C727 C728 1.384 . S
C727 H754 0.930 . S
C728 C723 1.407 . S
C728 C727 1.384 . S
C728 H755 0.929 . S
C729 O742 1.241 . S
C729 O743 1.273 . S
C730 O744 1.251 . S
C730 O745 1.268 . S
C731 Nd721 2.836 . S
C731 C732 1.498 . S
C731 O746 1.258 . S
C731 O747 1.239 . S
C732 C731 1.498 . S
C732 C733 1.366 . S
C732 C737 1.407 . S
C733 C732 1.366 . S
C733 C734 1.392 . S
C733 H756 0.930 . S
C734 C733 1.392 . S
C734 C735 1.398 . S
C734 H757 0.929 . S
C735 C734 1.398 . S
C735 C736 1.352 . S
C736 C735 1.352 . S
C736 C737 1.384 . S
C736 H758 0.930 . S
C737 C732 1.407 . S
C737 C736 1.384 . S
C737 H759 0.929 . S
C738 O748 1.241 . S
C738 O749 1.273 . S
C739 O750 1.251 . S
C739 O751 1.268 . S
O740 Nd720 2.500 . S
O740 C722 1.258 . S
O741 Nd720 2.492 . S
O741 C722 1.239 . S
O742 Nd720 2.487 . S
O742 C729 1.241 . S
O743 Nd720 2.682 . S
O743 Nd721 2.414 . S
O743 C729 1.273 . S
O744 Nd720 2.410 . S
O744 C730 1.251 . S
O745 Nd721 2.424 . S
O745 C730 1.268 . S
O746 Nd721 2.500 . S
O746 C731 1.258 . S
O747 Nd721 2.492 . S
O747 C731 1.239 . S
O748 Nd721 2.487 . S
O748 C738 1.241 . S
O749 Nd720 2.414 . S
O749 Nd721 2.682 . S
O749 C738 1.273 . S
O750 Nd721 2.410 . S
O750 C739 1.251 . S
O751 Nd720 2.424 . S
O751 C739 1.268 . S
H752 C724 0.930 . S
H753 C725 0.929 . S
H754 C727 0.930 . S
H755 C728 0.929 . S
H756 C733 0.930 . S
H757 C734 0.929 . S
H758 C736 0.930 . S
H759 C737 0.929 . S
Nd760 C762 2.836 . S
Nd760 O780 2.500 . S
Nd760 O781 2.492 . S
Nd760 O782 2.487 . S
Nd760 O783 2.682 . S
Nd760 O784 2.410 . S
Nd760 O789 2.414 . S
Nd760 O791 2.424 . S
Nd761 C771 2.836 . S
Nd761 O783 2.414 . S
Nd761 O785 2.424 . S
Nd761 O786 2.500 . S
Nd761 O787 2.492 . S
Nd761 O788 2.487 . S
Nd761 O789 2.682 . S
Nd761 O790 2.410 . S
C762 Nd760 2.836 . S
C762 C763 1.498 . S
C762 O780 1.258 . S
C762 O781 1.239 . S
C763 C762 1.498 . S
C763 C764 1.366 . S
C763 C768 1.407 . S
C764 C763 1.366 . S
C764 C765 1.392 . S
C764 H792 0.930 . S
C765 C764 1.392 . S
C765 C766 1.398 . S
C765 H793 0.929 . S
C766 C765 1.398 . S
C766 C767 1.352 . S
C767 C766 1.352 . S
C767 C768 1.384 . S
C767 H794 0.930 . S
C768 C763 1.407 . S
C768 C767 1.384 . S
C768 H795 0.929 . S
C769 O782 1.241 . S
C769 O783 1.273 . S
C770 O784 1.251 . S
C770 O785 1.268 . S
C771 Nd761 2.836 . S
C771 C772 1.498 . S
C771 O786 1.258 . S
C771 O787 1.239 . S
C772 C771 1.498 . S
C772 C773 1.366 . S
C772 C777 1.407 . S
C773 C772 1.366 . S
C773 C774 1.392 . S
C773 H796 0.930 . S
C774 C773 1.392 . S
C774 C775 1.398 . S
C774 H797 0.929 . S
C775 C774 1.398 . S
C775 C776 1.352 . S
C776 C775 1.352 . S
C776 C777 1.384 . S
C776 H798 0.930 . S
C777 C772 1.407 . S
C777 C776 1.384 . S
C777 H799 0.929 . S
C778 O788 1.241 . S
C778 O789 1.273 . S
C779 O790 1.251 . S
C779 O791 1.268 . S
O780 Nd760 2.500 . S
O780 C762 1.258 . S
O781 Nd760 2.492 . S
O781 C762 1.239 . S
O782 Nd760 2.487 . S
O782 C769 1.241 . S
O783 Nd760 2.682 . S
O783 Nd761 2.414 . S
O783 C769 1.273 . S
O784 Nd760 2.410 . S
O784 C770 1.251 . S
O785 Nd761 2.424 . S
O785 C770 1.268 . S
O786 Nd761 2.500 . S
O786 C771 1.258 . S
O787 Nd761 2.492 . S
O787 C771 1.239 . S
O788 Nd761 2.487 . S
O788 C778 1.241 . S
O789 Nd760 2.414 . S
O789 Nd761 2.682 . S
O789 C778 1.273 . S
O790 Nd761 2.410 . S
O790 C779 1.251 . S
O791 Nd760 2.424 . S
O791 C779 1.268 . S
H792 C764 0.930 . S
H793 C765 0.929 . S
H794 C767 0.930 . S
H795 C768 0.929 . S
H796 C773 0.930 . S
H797 C774 0.929 . S
H798 C776 0.930 . S
H799 C777 0.929 . S
Nd800 C802 2.836 . S
Nd800 O820 2.500 . S
Nd800 O821 2.492 . S
Nd800 O822 2.487 . S
Nd800 O823 2.682 . S
Nd800 O824 2.410 . S
Nd800 O829 2.414 . S
Nd800 O831 2.424 . S
Nd801 C811 2.836 . S
Nd801 O823 2.414 . S
Nd801 O825 2.424 . S
Nd801 O826 2.500 . S
Nd801 O827 2.492 . S
Nd801 O828 2.487 . S
Nd801 O829 2.682 . S
Nd801 O830 2.410 . S
C802 Nd800 2.836 . S
C802 C803 1.498 . S
C802 O820 1.258 . S
C802 O821 1.239 . S
C803 C802 1.498 . S
C803 C804 1.366 . S
C803 C808 1.407 . S
C804 C803 1.366 . S
C804 C805 1.392 . S
C804 H832 0.930 . S
C805 C804 1.392 . S
C805 C806 1.398 . S
C805 H833 0.929 . S
C806 C805 1.398 . S
C806 C807 1.352 . S
C807 C806 1.352 . S
C807 C808 1.384 . S
C807 H834 0.930 . S
C808 C803 1.407 . S
C808 C807 1.384 . S
C808 H835 0.929 . S
C809 O822 1.241 . S
C809 O823 1.273 . S
C810 O824 1.251 . S
C810 O825 1.268 . S
C811 Nd801 2.836 . S
C811 C812 1.498 . S
C811 O826 1.258 . S
C811 O827 1.239 . S
C812 C811 1.498 . S
C812 C813 1.366 . S
C812 C817 1.407 . S
C813 C812 1.366 . S
C813 C814 1.392 . S
C813 H836 0.930 . S
C814 C813 1.392 . S
C814 C815 1.398 . S
C814 H837 0.929 . S
C815 C814 1.398 . S
C815 C816 1.352 . S
C816 C815 1.352 . S
C816 C817 1.384 . S
C816 H838 0.930 . S
C817 C812 1.407 . S
C817 C816 1.384 . S
C817 H839 0.929 . S
C818 O828 1.241 . S
C818 O829 1.273 . S
C819 O830 1.251 . S
C819 O831 1.268 . S
O820 Nd800 2.500 . S
O820 C802 1.258 . S
O821 Nd800 2.492 . S
O821 C802 1.239 . S
O822 Nd800 2.487 . S
O822 C809 1.241 . S
O823 Nd800 2.682 . S
O823 Nd801 2.414 . S
O823 C809 1.273 . S
O824 Nd800 2.410 . S
O824 C810 1.251 . S
O825 Nd801 2.424 . S
O825 C810 1.268 . S
O826 Nd801 2.500 . S
O826 C811 1.258 . S
O827 Nd801 2.492 . S
O827 C811 1.239 . S
O828 Nd801 2.487 . S
O828 C818 1.241 . S
O829 Nd800 2.414 . S
O829 Nd801 2.682 . S
O829 C818 1.273 . S
O830 Nd801 2.410 . S
O830 C819 1.251 . S
O831 Nd800 2.424 . S
O831 C819 1.268 . S
H832 C804 0.930 . S
H833 C805 0.929 . S
H834 C807 0.930 . S
H835 C808 0.929 . S
H836 C813 0.930 . S
H837 C814 0.929 . S
H838 C816 0.930 . S
H839 C817 0.929 . S
Nd840 C842 2.836 . S
Nd840 O860 2.500 . S
Nd840 O861 2.492 . S
Nd840 O862 2.487 . S
Nd840 O863 2.682 . S
Nd840 O864 2.410 . S
Nd840 O869 2.414 . S
Nd840 O871 2.424 . S
Nd841 C851 2.836 . S
Nd841 O863 2.414 . S
Nd841 O865 2.424 . S
Nd841 O866 2.500 . S
Nd841 O867 2.492 . S
Nd841 O868 2.487 . S
Nd841 O869 2.682 . S
Nd841 O870 2.410 . S
C842 Nd840 2.836 . S
C842 C843 1.498 . S
C842 O860 1.258 . S
C842 O861 1.239 . S
C843 C842 1.498 . S
C843 C844 1.366 . S
C843 C848 1.407 . S
C844 C843 1.366 . S
C844 C845 1.392 . S
C844 H872 0.930 . S
C845 C844 1.392 . S
C845 C846 1.398 . S
C845 H873 0.929 . S
C846 C845 1.398 . S
C846 C847 1.352 . S
C847 C846 1.352 . S
C847 C848 1.384 . S
C847 H874 0.930 . S
C848 C843 1.407 . S
C848 C847 1.384 . S
C848 H875 0.929 . S
C849 O862 1.241 . S
C849 O863 1.273 . S
C850 O864 1.251 . S
C850 O865 1.268 . S
C851 Nd841 2.836 . S
C851 C852 1.498 1_556 S
C851 O866 1.258 . S
C851 O867 1.239 . S
C852 C851 1.498 1_554 S
C852 C853 1.366 . S
C852 C857 1.407 . S
C853 C852 1.366 . S
C853 C854 1.392 . S
C853 H876 0.930 . S
C854 C853 1.392 . S
C854 C855 1.398 . S
C854 H877 0.929 . S
C855 C854 1.398 . S
C855 C856 1.352 . S
C856 C855 1.352 . S
C856 C857 1.384 . S
C856 H878 0.930 . S
C857 C852 1.407 . S
C857 C856 1.384 . S
C857 H879 0.929 . S
C858 O868 1.241 . S
C858 O869 1.273 . S
C859 O870 1.251 . S
C859 O871 1.268 . S
O860 Nd840 2.500 . S
O860 C842 1.258 . S
O861 Nd840 2.492 . S
O861 C842 1.239 . S
O862 Nd840 2.487 . S
O862 C849 1.241 . S
O863 Nd840 2.682 . S
O863 Nd841 2.414 . S
O863 C849 1.273 . S
O864 Nd840 2.410 . S
O864 C850 1.251 . S
O865 Nd841 2.424 . S
O865 C850 1.268 . S
O866 Nd841 2.500 . S
O866 C851 1.258 . S
O867 Nd841 2.492 . S
O867 C851 1.239 . S
O868 Nd841 2.487 . S
O868 C858 1.241 . S
O869 Nd840 2.414 . S
O869 Nd841 2.682 . S
O869 C858 1.273 . S
O870 Nd841 2.410 . S
O870 C859 1.251 . S
O871 Nd840 2.424 . S
O871 C859 1.268 . S
H872 C844 0.930 . S
H873 C845 0.929 . S
H874 C847 0.930 . S
H875 C848 0.929 . S
H876 C853 0.930 . S
H877 C854 0.929 . S
H878 C856 0.930 . S
H879 C857 0.929 . S
Nd880 C882 2.836 . S
Nd880 O900 2.500 . S
Nd880 O901 2.492 . S
Nd880 O902 2.487 . S
Nd880 O903 2.682 . S
Nd880 O904 2.410 . S
Nd880 O909 2.414 . S
Nd880 O911 2.424 . S
Nd881 C891 2.836 . S
Nd881 O903 2.414 . S
Nd881 O905 2.424 . S
Nd881 O906 2.500 . S
Nd881 O907 2.492 . S
Nd881 O908 2.487 . S
Nd881 O909 2.682 . S
Nd881 O910 2.410 . S
C882 Nd880 2.836 . S
C882 C883 1.498 . S
C882 O900 1.258 . S
C882 O901 1.239 . S
C883 C882 1.498 . S
C883 C884 1.366 . S
C883 C888 1.407 . S
C884 C883 1.366 . S
C884 C885 1.392 . S
C884 H912 0.930 . S
C885 C884 1.392 . S
C885 C886 1.398 . S
C885 H913 0.929 . S
C886 C885 1.398 . S
C886 C887 1.352 . S
C887 C886 1.352 . S
C887 C888 1.384 . S
C887 H914 0.930 . S
C888 C883 1.407 . S
C888 C887 1.384 . S
C888 H915 0.929 . S
C889 O902 1.241 . S
C889 O903 1.273 . S
C890 O904 1.251 . S
C890 O905 1.268 . S
C891 Nd881 2.836 . S
C891 C892 1.498 1_556 S
C891 O906 1.258 . S
C891 O907 1.239 . S
C892 C891 1.498 1_554 S
C892 C893 1.366 . S
C892 C897 1.407 . S
C893 C892 1.366 . S
C893 C894 1.392 . S
C893 H916 0.930 . S
C894 C893 1.392 . S
C894 C895 1.398 . S
C894 H917 0.929 . S
C895 C894 1.398 . S
C895 C896 1.352 . S
C896 C895 1.352 . S
C896 C897 1.384 . S
C896 H918 0.930 1_565 S
C897 C892 1.407 . S
C897 C896 1.384 . S
C897 H919 0.929 1_565 S
C898 O908 1.241 . S
C898 O909 1.273 . S
C899 O910 1.251 . S
C899 O911 1.268 . S
O900 Nd880 2.500 . S
O900 C882 1.258 . S
O901 Nd880 2.492 . S
O901 C882 1.239 . S
O902 Nd880 2.487 . S
O902 C889 1.241 . S
O903 Nd880 2.682 . S
O903 Nd881 2.414 . S
O903 C889 1.273 . S
O904 Nd880 2.410 . S
O904 C890 1.251 . S
O905 Nd881 2.424 . S
O905 C890 1.268 . S
O906 Nd881 2.500 . S
O906 C891 1.258 . S
O907 Nd881 2.492 . S
O907 C891 1.239 . S
O908 Nd881 2.487 . S
O908 C898 1.241 . S
O909 Nd880 2.414 . S
O909 Nd881 2.682 . S
O909 C898 1.273 . S
O910 Nd881 2.410 . S
O910 C899 1.251 . S
O911 Nd880 2.424 . S
O911 C899 1.268 . S
H912 C884 0.930 . S
H913 C885 0.929 . S
H914 C887 0.930 . S
H915 C888 0.929 . S
H916 C893 0.930 . S
H917 C894 0.929 . S
H918 C896 0.930 1_545 S
H919 C897 0.929 1_545 S
Nd920 C922 2.836 . S
Nd920 O940 2.500 . S
Nd920 O941 2.492 . S
Nd920 O942 2.487 . S
Nd920 O943 2.682 . S
Nd920 O944 2.410 . S
Nd920 O949 2.414 . S
Nd920 O951 2.424 . S
Nd921 C931 2.836 . S
Nd921 O943 2.414 . S
Nd921 O945 2.424 . S
Nd921 O946 2.500 . S
Nd921 O947 2.492 . S
Nd921 O948 2.487 . S
Nd921 O949 2.682 . S
Nd921 O950 2.410 . S
C922 Nd920 2.836 . S
C922 C923 1.498 . S
C922 O940 1.258 . S
C922 O941 1.239 . S
C923 C922 1.498 . S
C923 C924 1.366 . S
C923 C928 1.407 . S
C924 C923 1.366 . S
C924 C925 1.392 . S
C924 H952 0.930 . S
C925 C924 1.392 . S
C925 C926 1.398 . S
C925 H953 0.929 . S
C926 C925 1.398 . S
C926 C927 1.352 . S
C927 C926 1.352 . S
C927 C928 1.384 . S
C927 H954 0.930 . S
C928 C923 1.407 . S
C928 C927 1.384 . S
C928 H955 0.929 . S
C929 O942 1.241 . S
C929 O943 1.273 . S
C930 O944 1.251 . S
C930 O945 1.268 . S
C931 Nd921 2.836 . S
C931 C932 1.498 1_556 S
C931 O946 1.258 . S
C931 O947 1.239 . S
C932 C931 1.498 1_554 S
C932 C933 1.366 . S
C932 C937 1.407 . S
C933 C932 1.366 . S
C933 C934 1.392 . S
C933 H956 0.930 . S
C934 C933 1.392 . S
C934 C935 1.398 . S
C934 H957 0.929 . S
C935 C934 1.398 . S
C935 C936 1.352 . S
C936 C935 1.352 . S
C936 C937 1.384 . S
C936 H958 0.930 1_455 S
C937 C932 1.407 . S
C937 C936 1.384 . S
C937 H959 0.929 1_455 S
C938 O948 1.241 . S
C938 O949 1.273 . S
C939 O950 1.251 . S
C939 O951 1.268 . S
O940 Nd920 2.500 . S
O940 C922 1.258 . S
O941 Nd920 2.492 . S
O941 C922 1.239 . S
O942 Nd920 2.487 . S
O942 C929 1.241 . S
O943 Nd920 2.682 . S
O943 Nd921 2.414 . S
O943 C929 1.273 . S
O944 Nd920 2.410 . S
O944 C930 1.251 . S
O945 Nd921 2.424 . S
O945 C930 1.268 . S
O946 Nd921 2.500 . S
O946 C931 1.258 . S
O947 Nd921 2.492 . S
O947 C931 1.239 . S
O948 Nd921 2.487 . S
O948 C938 1.241 . S
O949 Nd920 2.414 . S
O949 Nd921 2.682 . S
O949 C938 1.273 . S
O950 Nd921 2.410 . S
O950 C939 1.251 . S
O951 Nd920 2.424 . S
O951 C939 1.268 . S
H952 C924 0.930 . S
H953 C925 0.929 . S
H954 C927 0.930 . S
H955 C928 0.929 . S
H956 C933 0.930 . S
H957 C934 0.929 . S
H958 C936 0.930 1_655 S
H959 C937 0.929 1_655 S
Nd960 C962 2.836 . S
Nd960 O980 2.500 . S
Nd960 O981 2.492 . S
Nd960 O982 2.487 . S
Nd960 O983 2.682 . S
Nd960 O984 2.410 . S
Nd960 O989 2.414 . S
Nd960 O991 2.424 . S
Nd961 C971 2.836 . S
Nd961 O983 2.414 . S
Nd961 O985 2.424 . S
Nd961 O986 2.500 . S
Nd961 O987 2.492 . S
Nd961 O988 2.487 . S
Nd961 O989 2.682 . S
Nd961 O990 2.410 . S
C962 Nd960 2.836 . S
C962 C963 1.498 . S
C962 O980 1.258 . S
C962 O981 1.239 . S
C963 C962 1.498 . S
C963 C964 1.366 . S
C963 C968 1.407 . S
C964 C963 1.366 . S
C964 C965 1.392 . S
C964 H992 0.930 . S
C965 C964 1.392 . S
C965 C966 1.398 . S
C965 H993 0.929 . S
C966 C965 1.398 . S
C966 C967 1.352 . S
C967 C966 1.352 . S
C967 C968 1.384 . S
C967 H994 0.930 . S
C968 C963 1.407 . S
C968 C967 1.384 . S
C968 H995 0.929 . S
C969 O982 1.241 . S
C969 O983 1.273 . S
C970 O984 1.251 . S
C970 O985 1.268 . S
C971 Nd961 2.836 . S
C971 C972 1.498 . S
C971 O986 1.258 . S
C971 O987 1.239 . S
C972 C971 1.498 . S
C972 C973 1.366 . S
C972 C977 1.407 . S
C973 C972 1.366 . S
C973 C974 1.392 . S
C973 H996 0.930 . S
C974 C973 1.392 . S
C974 C975 1.398 . S
C974 H997 0.929 . S
C975 C974 1.398 . S
C975 C976 1.352 . S
C976 C975 1.352 . S
C976 C977 1.384 . S
C976 H998 0.930 . S
C977 C972 1.407 . S
C977 C976 1.384 . S
C977 H999 0.929 . S
C978 O988 1.241 . S
C978 O989 1.273 . S
C979 O990 1.251 . S
C979 O991 1.268 . S
O980 Nd960 2.500 . S
O980 C962 1.258 . S
O981 Nd960 2.492 . S
O981 C962 1.239 . S
O982 Nd960 2.487 . S
O982 C969 1.241 . S
O983 Nd960 2.682 . S
O983 Nd961 2.414 . S
O983 C969 1.273 . S
O984 Nd960 2.410 . S
O984 C970 1.251 . S
O985 Nd961 2.424 . S
O985 C970 1.268 . S
O986 Nd961 2.500 . S
O986 C971 1.258 . S
O987 Nd961 2.492 . S
O987 C971 1.239 . S
O988 Nd961 2.487 . S
O988 C978 1.241 . S
O989 Nd960 2.414 . S
O989 Nd961 2.682 . S
O989 C978 1.273 . S
O990 Nd961 2.410 . S
O990 C979 1.251 . S
O991 Nd960 2.424 . S
O991 C979 1.268 . S
H992 C964 0.930 . S
H993 C965 0.929 . S
H994 C967 0.930 . S
H995 C968 0.929 . S
H996 C973 0.930 . S
H997 C974 0.929 . S
H998 C976 0.930 . S
H999 C977 0.929 . S
Nd1000 C1002 2.836 . S
Nd1000 O1020 2.500 . S
Nd1000 O1021 2.492 . S
Nd1000 O1022 2.487 . S
Nd1000 O1023 2.682 . S
Nd1000 O1024 2.410 . S
Nd1000 O1029 2.414 . S
Nd1000 O1031 2.424 . S
Nd1001 C1011 2.836 . S
Nd1001 O1023 2.414 . S
Nd1001 O1025 2.424 . S
Nd1001 O1026 2.500 . S
Nd1001 O1027 2.492 . S
Nd1001 O1028 2.487 . S
Nd1001 O1029 2.682 . S
Nd1001 O1030 2.410 . S
C1002 Nd1000 2.836 . S
C1002 C1003 1.498 . S
C1002 O1020 1.258 . S
C1002 O1021 1.239 . S
C1003 C1002 1.498 . S
C1003 C1004 1.366 . S
C1003 C1008 1.407 . S
C1004 C1003 1.366 . S
C1004 C1005 1.392 . S
C1004 H1032 0.930 . S
C1005 C1004 1.392 . S
C1005 C1006 1.398 . S
C1005 H1033 0.929 . S
C1006 C1005 1.398 . S
C1006 C1007 1.352 . S
C1007 C1006 1.352 . S
C1007 C1008 1.384 . S
C1007 H1034 0.930 . S
C1008 C1003 1.407 . S
C1008 C1007 1.384 . S
C1008 H1035 0.929 . S
C1009 O1022 1.241 . S
C1009 O1023 1.273 . S
C1010 O1024 1.251 . S
C1010 O1025 1.268 . S
C1011 Nd1001 2.836 . S
C1011 C1012 1.498 . S
C1011 O1026 1.258 . S
C1011 O1027 1.239 . S
C1012 C1011 1.498 . S
C1012 C1013 1.366 . S
C1012 C1017 1.407 . S
C1013 C1012 1.366 . S
C1013 C1014 1.392 . S
C1013 H1036 0.930 . S
C1014 C1013 1.392 . S
C1014 C1015 1.398 . S
C1014 H1037 0.929 . S
C1015 C1014 1.398 . S
C1015 C1016 1.352 . S
C1016 C1015 1.352 . S
C1016 C1017 1.384 . S
C1016 H1038 0.930 . S
C1017 C1012 1.407 . S
C1017 C1016 1.384 . S
C1017 H1039 0.929 . S
C1018 O1028 1.241 . S
C1018 O1029 1.273 . S
C1019 O1030 1.251 . S
C1019 O1031 1.268 . S
O1020 Nd1000 2.500 . S
O1020 C1002 1.258 . S
O1021 Nd1000 2.492 . S
O1021 C1002 1.239 . S
O1022 Nd1000 2.487 . S
O1022 C1009 1.241 . S
O1023 Nd1000 2.682 . S
O1023 Nd1001 2.414 . S
O1023 C1009 1.273 . S
O1024 Nd1000 2.410 . S
O1024 C1010 1.251 . S
O1025 Nd1001 2.424 . S
O1025 C1010 1.268 . S
O1026 Nd1001 2.500 . S
O1026 C1011 1.258 . S
O1027 Nd1001 2.492 . S
O1027 C1011 1.239 . S
O1028 Nd1001 2.487 . S
O1028 C1018 1.241 . S
O1029 Nd1000 2.414 . S
O1029 Nd1001 2.682 . S
O1029 C1018 1.273 . S
O1030 Nd1001 2.410 . S
O1030 C1019 1.251 . S
O1031 Nd1000 2.424 . S
O1031 C1019 1.268 . S
H1032 C1004 0.930 . S
H1033 C1005 0.929 . S
H1034 C1007 0.930 . S
H1035 C1008 0.929 . S
H1036 C1013 0.930 . S
H1037 C1014 0.929 . S
H1038 C1016 0.930 . S
H1039 C1017 0.929 . S
Nd1040 C1042 2.836 . S
Nd1040 O1060 2.500 . S
Nd1040 O1061 2.492 . S
Nd1040 O1062 2.487 . S
Nd1040 O1063 2.682 . S
Nd1040 O1064 2.410 . S
Nd1040 O1069 2.414 . S
Nd1040 O1071 2.424 . S
Nd1041 C1051 2.836 . S
Nd1041 O1063 2.414 . S
Nd1041 O1065 2.424 . S
Nd1041 O1066 2.500 . S
Nd1041 O1067 2.492 . S
Nd1041 O1068 2.487 . S
Nd1041 O1069 2.682 . S
Nd1041 O1070 2.410 . S
C1042 Nd1040 2.836 . S
C1042 C1043 1.498 . S
C1042 O1060 1.258 . S
C1042 O1061 1.239 . S
C1043 C1042 1.498 . S
C1043 C1044 1.366 . S
C1043 C1048 1.407 . S
C1044 C1043 1.366 . S
C1044 C1045 1.392 . S
C1044 H1072 0.930 . S
C1045 C1044 1.392 . S
C1045 C1046 1.398 . S
C1045 H1073 0.929 . S
C1046 C1045 1.398 . S
C1046 C1047 1.352 . S
C1047 C1046 1.352 . S
C1047 C1048 1.384 . S
C1047 H1074 0.930 . S
C1048 C1043 1.407 . S
C1048 C1047 1.384 . S
C1048 H1075 0.929 . S
C1049 O1062 1.241 . S
C1049 O1063 1.273 . S
C1050 O1064 1.251 . S
C1050 O1065 1.268 . S
C1051 Nd1041 2.836 . S
C1051 C1052 1.498 . S
C1051 O1066 1.258 . S
C1051 O1067 1.239 . S
C1052 C1051 1.498 . S
C1052 C1053 1.366 . S
C1052 C1057 1.407 . S
C1053 C1052 1.366 . S
C1053 C1054 1.392 . S
C1053 H1076 0.930 . S
C1054 C1053 1.392 . S
C1054 C1055 1.398 . S
C1054 H1077 0.929 . S
C1055 C1054 1.398 . S
C1055 C1056 1.352 . S
C1056 C1055 1.352 . S
C1056 C1057 1.384 . S
C1056 H1078 0.930 . S
C1057 C1052 1.407 . S
C1057 C1056 1.384 . S
C1057 H1079 0.929 . S
C1058 O1068 1.241 . S
C1058 O1069 1.273 . S
C1059 O1070 1.251 . S
C1059 O1071 1.268 . S
O1060 Nd1040 2.500 . S
O1060 C1042 1.258 . S
O1061 Nd1040 2.492 . S
O1061 C1042 1.239 . S
O1062 Nd1040 2.487 . S
O1062 C1049 1.241 . S
O1063 Nd1040 2.682 . S
O1063 Nd1041 2.414 . S
O1063 C1049 1.273 . S
O1064 Nd1040 2.410 . S
O1064 C1050 1.251 . S
O1065 Nd1041 2.424 . S
O1065 C1050 1.268 . S
O1066 Nd1041 2.500 . S
O1066 C1051 1.258 . S
O1067 Nd1041 2.492 . S
O1067 C1051 1.239 . S
O1068 Nd1041 2.487 . S
O1068 C1058 1.241 . S
O1069 Nd1040 2.414 . S
O1069 Nd1041 2.682 . S
O1069 C1058 1.273 . S
O1070 Nd1041 2.410 . S
O1070 C1059 1.251 . S
O1071 Nd1040 2.424 . S
O1071 C1059 1.268 . S
H1072 C1044 0.930 . S
H1073 C1045 0.929 . S
H1074 C1047 0.930 . S
H1075 C1048 0.929 . S
H1076 C1053 0.930 . S
H1077 C1054 0.929 . S
H1078 C1056 0.930 . S
H1079 C1057 0.929 . S
Nd1080 C1082 2.836 . S
Nd1080 O1100 2.500 . S
Nd1080 O1101 2.492 . S
Nd1080 O1102 2.487 . S
Nd1080 O1103 2.682 . S
Nd1080 O1104 2.410 . S
Nd1080 O1109 2.414 . S
Nd1080 O1111 2.424 . S
Nd1081 C1091 2.836 . S
Nd1081 O1103 2.414 . S
Nd1081 O1105 2.424 . S
Nd1081 O1106 2.500 . S
Nd1081 O1107 2.492 . S
Nd1081 O1108 2.487 . S
Nd1081 O1109 2.682 . S
Nd1081 O1110 2.410 . S
C1082 Nd1080 2.836 . S
C1082 C1083 1.498 . S
C1082 O1100 1.258 . S
C1082 O1101 1.239 . S
C1083 C1082 1.498 . S
C1083 C1084 1.366 . S
C1083 C1088 1.407 . S
C1084 C1083 1.366 . S
C1084 C1085 1.392 . S
C1084 H1112 0.930 . S
C1085 C1084 1.392 . S
C1085 C1086 1.398 . S
C1085 H1113 0.929 . S
C1086 C1085 1.398 . S
C1086 C1087 1.352 . S
C1087 C1086 1.352 . S
C1087 C1088 1.384 . S
C1087 H1114 0.930 . S
C1088 C1083 1.407 . S
C1088 C1087 1.384 . S
C1088 H1115 0.929 . S
C1089 O1102 1.241 . S
C1089 O1103 1.273 . S
C1090 O1104 1.251 . S
C1090 O1105 1.268 . S
C1091 Nd1081 2.836 . S
C1091 C1092 1.498 . S
C1091 O1106 1.258 . S
C1091 O1107 1.239 . S
C1092 C1091 1.498 . S
C1092 C1093 1.366 . S
C1092 C1097 1.407 . S
C1093 C1092 1.366 . S
C1093 C1094 1.392 . S
C1093 H1116 0.930 . S
C1094 C1093 1.392 . S
C1094 C1095 1.398 . S
C1094 H1117 0.929 . S
C1095 C1094 1.398 . S
C1095 C1096 1.352 . S
C1096 C1095 1.352 . S
C1096 C1097 1.384 . S
C1096 H1118 0.930 . S
C1097 C1092 1.407 . S
C1097 C1096 1.384 . S
C1097 H1119 0.929 . S
C1098 O1108 1.241 . S
C1098 O1109 1.273 . S
C1099 O1110 1.251 . S
C1099 O1111 1.268 . S
O1100 Nd1080 2.500 . S
O1100 C1082 1.258 . S
O1101 Nd1080 2.492 . S
O1101 C1082 1.239 . S
O1102 Nd1080 2.487 . S
O1102 C1089 1.241 . S
O1103 Nd1080 2.682 . S
O1103 Nd1081 2.414 . S
O1103 C1089 1.273 . S
O1104 Nd1080 2.410 . S
O1104 C1090 1.251 . S
O1105 Nd1081 2.424 . S
O1105 C1090 1.268 . S
O1106 Nd1081 2.500 . S
O1106 C1091 1.258 . S
O1107 Nd1081 2.492 . S
O1107 C1091 1.239 . S
O1108 Nd1081 2.487 . S
O1108 C1098 1.241 . S
O1109 Nd1080 2.414 . S
O1109 Nd1081 2.682 . S
O1109 C1098 1.273 . S
O1110 Nd1081 2.410 . S
O1110 C1099 1.251 . S
O1111 Nd1080 2.424 . S
O1111 C1099 1.268 . S
H1112 C1084 0.930 . S
H1113 C1085 0.929 . S
H1114 C1087 0.930 . S
H1115 C1088 0.929 . S
H1116 C1093 0.930 . S
H1117 C1094 0.929 . S
H1118 C1096 0.930 . S
H1119 C1097 0.929 . S
Nd1120 C1122 2.836 . S
Nd1120 O1140 2.500 . S
Nd1120 O1141 2.492 . S
Nd1120 O1142 2.487 . S
Nd1120 O1143 2.682 . S
Nd1120 O1144 2.410 . S
Nd1120 O1149 2.414 . S
Nd1120 O1151 2.424 . S
Nd1121 C1131 2.836 . S
Nd1121 O1143 2.414 . S
Nd1121 O1145 2.424 . S
Nd1121 O1146 2.500 . S
Nd1121 O1147 2.492 . S
Nd1121 O1148 2.487 . S
Nd1121 O1149 2.682 . S
Nd1121 O1150 2.410 . S
C1122 Nd1120 2.836 . S
C1122 C1123 1.498 . S
C1122 O1140 1.258 . S
C1122 O1141 1.239 . S
C1123 C1122 1.498 . S
C1123 C1124 1.366 . S
C1123 C1128 1.407 . S
C1124 C1123 1.366 . S
C1124 C1125 1.392 . S
C1124 H1152 0.930 . S
C1125 C1124 1.392 . S
C1125 C1126 1.398 . S
C1125 H1153 0.929 . S
C1126 C1125 1.398 . S
C1126 C1127 1.352 . S
C1127 C1126 1.352 . S
C1127 C1128 1.384 . S
C1127 H1154 0.930 1_545 S
C1128 C1123 1.407 . S
C1128 C1127 1.384 . S
C1128 H1155 0.929 1_545 S
C1129 O1142 1.241 . S
C1129 O1143 1.273 . S
C1130 O1144 1.251 . S
C1130 O1145 1.268 . S
C1131 Nd1121 2.836 . S
C1131 C1132 1.498 . S
C1131 O1146 1.258 . S
C1131 O1147 1.239 . S
C1132 C1131 1.498 . S
C1132 C1133 1.366 . S
C1132 C1137 1.407 . S
C1133 C1132 1.366 . S
C1133 C1134 1.392 . S
C1133 H1156 0.930 . S
C1134 C1133 1.392 . S
C1134 C1135 1.398 . S
C1134 H1157 0.929 . S
C1135 C1134 1.398 . S
C1135 C1136 1.352 . S
C1136 C1135 1.352 . S
C1136 C1137 1.384 . S
C1136 H1158 0.930 . S
C1137 C1132 1.407 . S
C1137 C1136 1.384 . S
C1137 H1159 0.929 . S
C1138 O1148 1.241 . S
C1138 O1149 1.273 . S
C1139 O1150 1.251 . S
C1139 O1151 1.268 . S
O1140 Nd1120 2.500 . S
O1140 C1122 1.258 . S
O1141 Nd1120 2.492 . S
O1141 C1122 1.239 . S
O1142 Nd1120 2.487 . S
O1142 C1129 1.241 . S
O1143 Nd1120 2.682 . S
O1143 Nd1121 2.414 . S
O1143 C1129 1.273 . S
O1144 Nd1120 2.410 . S
O1144 C1130 1.251 . S
O1145 Nd1121 2.424 . S
O1145 C1130 1.268 . S
O1146 Nd1121 2.500 . S
O1146 C1131 1.258 . S
O1147 Nd1121 2.492 . S
O1147 C1131 1.239 . S
O1148 Nd1121 2.487 . S
O1148 C1138 1.241 . S
O1149 Nd1120 2.414 . S
O1149 Nd1121 2.682 . S
O1149 C1138 1.273 . S
O1150 Nd1121 2.410 . S
O1150 C1139 1.251 . S
O1151 Nd1120 2.424 . S
O1151 C1139 1.268 . S
H1152 C1124 0.930 . S
H1153 C1125 0.929 . S
H1154 C1127 0.930 1_565 S
H1155 C1128 0.929 1_565 S
H1156 C1133 0.930 . S
H1157 C1134 0.929 . S
H1158 C1136 0.930 . S
H1159 C1137 0.929 . S
Nd1160 C1162 2.836 . S
Nd1160 O1180 2.500 . S
Nd1160 O1181 2.492 . S
Nd1160 O1182 2.487 . S
Nd1160 O1183 2.682 . S
Nd1160 O1184 2.410 . S
Nd1160 O1189 2.414 . S
Nd1160 O1191 2.424 . S
Nd1161 C1171 2.836 . S
Nd1161 O1183 2.414 . S
Nd1161 O1185 2.424 . S
Nd1161 O1186 2.500 . S
Nd1161 O1187 2.492 . S
Nd1161 O1188 2.487 . S
Nd1161 O1189 2.682 . S
Nd1161 O1190 2.410 . S
C1162 Nd1160 2.836 . S
C1162 C1163 1.498 . S
C1162 O1180 1.258 . S
C1162 O1181 1.239 . S
C1163 C1162 1.498 . S
C1163 C1164 1.366 . S
C1163 C1168 1.407 . S
C1164 C1163 1.366 . S
C1164 C1165 1.392 . S
C1164 H1192 0.930 . S
C1165 C1164 1.392 . S
C1165 C1166 1.398 . S
C1165 H1193 0.929 . S
C1166 C1165 1.398 . S
C1166 C1167 1.352 . S
C1167 C1166 1.352 . S
C1167 C1168 1.384 . S
C1167 H1194 0.930 1_655 S
C1168 C1163 1.407 . S
C1168 C1167 1.384 . S
C1168 H1195 0.929 1_655 S
C1169 O1182 1.241 . S
C1169 O1183 1.273 . S
C1170 O1184 1.251 . S
C1170 O1185 1.268 . S
C1171 Nd1161 2.836 . S
C1171 C1172 1.498 . S
C1171 O1186 1.258 . S
C1171 O1187 1.239 . S
C1172 C1171 1.498 . S
C1172 C1173 1.366 . S
C1172 C1177 1.407 . S
C1173 C1172 1.366 . S
C1173 C1174 1.392 . S
C1173 H1196 0.930 . S
C1174 C1173 1.392 . S
C1174 C1175 1.398 . S
C1174 H1197 0.929 . S
C1175 C1174 1.398 . S
C1175 C1176 1.352 . S
C1176 C1175 1.352 . S
C1176 C1177 1.384 . S
C1176 H1198 0.930 . S
C1177 C1172 1.407 . S
C1177 C1176 1.384 . S
C1177 H1199 0.929 . S
C1178 O1188 1.241 . S
C1178 O1189 1.273 . S
C1179 O1190 1.251 . S
C1179 O1191 1.268 . S
O1180 Nd1160 2.500 . S
O1180 C1162 1.258 . S
O1181 Nd1160 2.492 . S
O1181 C1162 1.239 . S
O1182 Nd1160 2.487 . S
O1182 C1169 1.241 . S
O1183 Nd1160 2.682 . S
O1183 Nd1161 2.414 . S
O1183 C1169 1.273 . S
O1184 Nd1160 2.410 . S
O1184 C1170 1.251 . S
O1185 Nd1161 2.424 . S
O1185 C1170 1.268 . S
O1186 Nd1161 2.500 . S
O1186 C1171 1.258 . S
O1187 Nd1161 2.492 . S
O1187 C1171 1.239 . S
O1188 Nd1161 2.487 . S
O1188 C1178 1.241 . S
O1189 Nd1160 2.414 . S
O1189 Nd1161 2.682 . S
O1189 C1178 1.273 . S
O1190 Nd1161 2.410 . S
O1190 C1179 1.251 . S
O1191 Nd1160 2.424 . S
O1191 C1179 1.268 . S
H1192 C1164 0.930 . S
H1193 C1165 0.929 . S
H1194 C1167 0.930 1_455 S
H1195 C1168 0.929 1_455 S
H1196 C1173 0.930 . S
H1197 C1174 0.929 . S
H1198 C1176 0.930 . S
H1199 C1177 0.929 . S
Nd1200 C1202 2.836 . S
Nd1200 O1220 2.500 . S
Nd1200 O1221 2.492 . S
Nd1200 O1222 2.487 . S
Nd1200 O1223 2.682 . S
Nd1200 O1224 2.410 . S
Nd1200 O1229 2.414 . S
Nd1200 O1231 2.424 . S
Nd1201 C1211 2.836 . S
Nd1201 O1223 2.414 . S
Nd1201 O1225 2.424 . S
Nd1201 O1226 2.500 . S
Nd1201 O1227 2.492 . S
Nd1201 O1228 2.487 . S
Nd1201 O1229 2.682 . S
Nd1201 O1230 2.410 . S
C1202 Nd1200 2.836 . S
C1202 C1203 1.498 1_556 S
C1202 O1220 1.258 . S
C1202 O1221 1.239 . S
C1203 C1202 1.498 1_554 S
C1203 C1204 1.366 . S
C1203 C1208 1.407 . S
C1204 C1203 1.366 . S
C1204 C1205 1.392 . S
C1204 H1232 0.930 . S
C1205 C1204 1.392 . S
C1205 C1206 1.398 . S
C1205 H1233 0.929 . S
C1206 C1205 1.398 . S
C1206 C1207 1.352 . S
C1207 C1206 1.352 . S
C1207 C1208 1.384 . S
C1207 H1234 0.930 . S
C1208 C1203 1.407 . S
C1208 C1207 1.384 . S
C1208 H1235 0.929 . S
C1209 O1222 1.241 . S
C1209 O1223 1.273 . S
C1210 O1224 1.251 . S
C1210 O1225 1.268 . S
C1211 Nd1201 2.836 . S
C1211 C1212 1.498 . S
C1211 O1226 1.258 . S
C1211 O1227 1.239 . S
C1212 C1211 1.498 . S
C1212 C1213 1.366 . S
C1212 C1217 1.407 . S
C1213 C1212 1.366 . S
C1213 C1214 1.392 . S
C1213 H1236 0.930 . S
C1214 C1213 1.392 . S
C1214 C1215 1.398 . S
C1214 H1237 0.929 . S
C1215 C1214 1.398 . S
C1215 C1216 1.352 . S
C1216 C1215 1.352 . S
C1216 C1217 1.384 . S
C1216 H1238 0.930 . S
C1217 C1212 1.407 . S
C1217 C1216 1.384 . S
C1217 H1239 0.929 . S
C1218 O1228 1.241 . S
C1218 O1229 1.273 . S
C1219 O1230 1.251 . S
C1219 O1231 1.268 . S
O1220 Nd1200 2.500 . S
O1220 C1202 1.258 . S
O1221 Nd1200 2.492 . S
O1221 C1202 1.239 . S
O1222 Nd1200 2.487 . S
O1222 C1209 1.241 . S
O1223 Nd1200 2.682 . S
O1223 Nd1201 2.414 . S
O1223 C1209 1.273 . S
O1224 Nd1200 2.410 . S
O1224 C1210 1.251 . S
O1225 Nd1201 2.424 . S
O1225 C1210 1.268 . S
O1226 Nd1201 2.500 . S
O1226 C1211 1.258 . S
O1227 Nd1201 2.492 . S
O1227 C1211 1.239 . S
O1228 Nd1201 2.487 . S
O1228 C1218 1.241 . S
O1229 Nd1200 2.414 . S
O1229 Nd1201 2.682 . S
O1229 C1218 1.273 . S
O1230 Nd1201 2.410 . S
O1230 C1219 1.251 . S
O1231 Nd1200 2.424 . S
O1231 C1219 1.268 . S
H1232 C1204 0.930 . S
H1233 C1205 0.929 . S
H1234 C1207 0.930 . S
H1235 C1208 0.929 . S
H1236 C1213 0.930 . S
H1237 C1214 0.929 . S
H1238 C1216 0.930 . S
H1239 C1217 0.929 . S
Nd1240 C1242 2.836 . S
Nd1240 O1260 2.500 . S
Nd1240 O1261 2.492 . S
Nd1240 O1262 2.487 . S
Nd1240 O1263 2.682 . S
Nd1240 O1264 2.410 . S
Nd1240 O1269 2.414 . S
Nd1240 O1271 2.424 . S
Nd1241 C1251 2.836 . S
Nd1241 O1263 2.414 . S
Nd1241 O1265 2.424 . S
Nd1241 O1266 2.500 . S
Nd1241 O1267 2.492 . S
Nd1241 O1268 2.487 . S
Nd1241 O1269 2.682 . S
Nd1241 O1270 2.410 . S
C1242 Nd1240 2.836 . S
C1242 C1243 1.498 1_556 S
C1242 O1260 1.258 . S
C1242 O1261 1.239 . S
C1243 C1242 1.498 1_554 S
C1243 C1244 1.366 . S
C1243 C1248 1.407 . S
C1244 C1243 1.366 . S
C1244 C1245 1.392 . S
C1244 H1272 0.930 . S
C1245 C1244 1.392 . S
C1245 C1246 1.398 . S
C1245 H1273 0.929 . S
C1246 C1245 1.398 . S
C1246 C1247 1.352 . S
C1247 C1246 1.352 . S
C1247 C1248 1.384 . S
C1247 H1274 0.930 . S
C1248 C1243 1.407 . S
C1248 C1247 1.384 . S
C1248 H1275 0.929 . S
C1249 O1262 1.241 . S
C1249 O1263 1.273 . S
C1250 O1264 1.251 . S
C1250 O1265 1.268 . S
C1251 Nd1241 2.836 . S
C1251 C1252 1.498 . S
C1251 O1266 1.258 . S
C1251 O1267 1.239 . S
C1252 C1251 1.498 . S
C1252 C1253 1.366 . S
C1252 C1257 1.407 . S
C1253 C1252 1.366 . S
C1253 C1254 1.392 . S
C1253 H1276 0.930 . S
C1254 C1253 1.392 . S
C1254 C1255 1.398 . S
C1254 H1277 0.929 . S
C1255 C1254 1.398 . S
C1255 C1256 1.352 . S
C1256 C1255 1.352 . S
C1256 C1257 1.384 . S
C1256 H1278 0.930 1_545 S
C1257 C1252 1.407 . S
C1257 C1256 1.384 . S
C1257 H1279 0.929 1_545 S
C1258 O1268 1.241 . S
C1258 O1269 1.273 . S
C1259 O1270 1.251 . S
C1259 O1271 1.268 . S
O1260 Nd1240 2.500 . S
O1260 C1242 1.258 . S
O1261 Nd1240 2.492 . S
O1261 C1242 1.239 . S
O1262 Nd1240 2.487 . S
O1262 C1249 1.241 . S
O1263 Nd1240 2.682 . S
O1263 Nd1241 2.414 . S
O1263 C1249 1.273 . S
O1264 Nd1240 2.410 . S
O1264 C1250 1.251 . S
O1265 Nd1241 2.424 . S
O1265 C1250 1.268 . S
O1266 Nd1241 2.500 . S
O1266 C1251 1.258 . S
O1267 Nd1241 2.492 . S
O1267 C1251 1.239 . S
O1268 Nd1241 2.487 . S
O1268 C1258 1.241 . S
O1269 Nd1240 2.414 . S
O1269 Nd1241 2.682 . S
O1269 C1258 1.273 . S
O1270 Nd1241 2.410 . S
O1270 C1259 1.251 . S
O1271 Nd1240 2.424 . S
O1271 C1259 1.268 . S
H1272 C1244 0.930 . S
H1273 C1245 0.929 . S
H1274 C1247 0.930 . S
H1275 C1248 0.929 . S
H1276 C1253 0.930 . S
H1277 C1254 0.929 . S
H1278 C1256 0.930 1_565 S
H1279 C1257 0.929 1_565 S
Nd1280 C1282 2.836 . S
Nd1280 O1300 2.500 . S
Nd1280 O1301 2.492 . S
Nd1280 O1302 2.487 . S
Nd1280 O1303 2.682 . S
Nd1280 O1304 2.410 . S
Nd1280 O1309 2.414 . S
Nd1280 O1311 2.424 . S
Nd1281 C1291 2.836 . S
Nd1281 O1303 2.414 . S
Nd1281 O1305 2.424 . S
Nd1281 O1306 2.500 . S
Nd1281 O1307 2.492 . S
Nd1281 O1308 2.487 . S
Nd1281 O1309 2.682 . S
Nd1281 O1310 2.410 . S
C1282 Nd1280 2.836 . S
C1282 C1283 1.498 1_556 S
C1282 O1300 1.258 . S
C1282 O1301 1.239 . S
C1283 C1282 1.498 1_554 S
C1283 C1284 1.366 . S
C1283 C1288 1.407 . S
C1284 C1283 1.366 . S
C1284 C1285 1.392 . S
C1284 H1312 0.930 . S
C1285 C1284 1.392 . S
C1285 C1286 1.398 . S
C1285 H1313 0.929 . S
C1286 C1285 1.398 . S
C1286 C1287 1.352 . S
C1287 C1286 1.352 . S
C1287 C1288 1.384 . S
C1287 H1314 0.930 . S
C1288 C1283 1.407 . S
C1288 C1287 1.384 . S
C1288 H1315 0.929 . S
C1289 O1302 1.241 . S
C1289 O1303 1.273 . S
C1290 O1304 1.251 . S
C1290 O1305 1.268 . S
C1291 Nd1281 2.836 . S
C1291 C1292 1.498 . S
C1291 O1306 1.258 . S
C1291 O1307 1.239 . S
C1292 C1291 1.498 . S
C1292 C1293 1.366 . S
C1292 C1297 1.407 . S
C1293 C1292 1.366 . S
C1293 C1294 1.392 . S
C1293 H1316 0.930 . S
C1294 C1293 1.392 . S
C1294 C1295 1.398 . S
C1294 H1317 0.929 . S
C1295 C1294 1.398 . S
C1295 C1296 1.352 . S
C1296 C1295 1.352 . S
C1296 C1297 1.384 . S
C1296 H1318 0.930 1_655 S
C1297 C1292 1.407 . S
C1297 C1296 1.384 . S
C1297 H1319 0.929 1_655 S
C1298 O1308 1.241 . S
C1298 O1309 1.273 . S
C1299 O1310 1.251 . S
C1299 O1311 1.268 . S
O1300 Nd1280 2.500 . S
O1300 C1282 1.258 . S
O1301 Nd1280 2.492 . S
O1301 C1282 1.239 . S
O1302 Nd1280 2.487 . S
O1302 C1289 1.241 . S
O1303 Nd1280 2.682 . S
O1303 Nd1281 2.414 . S
O1303 C1289 1.273 . S
O1304 Nd1280 2.410 . S
O1304 C1290 1.251 . S
O1305 Nd1281 2.424 . S
O1305 C1290 1.268 . S
O1306 Nd1281 2.500 . S
O1306 C1291 1.258 . S
O1307 Nd1281 2.492 . S
O1307 C1291 1.239 . S
O1308 Nd1281 2.487 . S
O1308 C1298 1.241 . S
O1309 Nd1280 2.414 . S
O1309 Nd1281 2.682 . S
O1309 C1298 1.273 . S
O1310 Nd1281 2.410 . S
O1310 C1299 1.251 . S
O1311 Nd1280 2.424 . S
O1311 C1299 1.268 . S
H1312 C1284 0.930 . S
H1313 C1285 0.929 . S
H1314 C1287 0.930 . S
H1315 C1288 0.929 . S
H1316 C1293 0.930 . S
H1317 C1294 0.929 . S
H1318 C1296 0.930 1_455 S
H1319 C1297 0.929 1_455 S
Nd1320 C1322 2.836 . S
Nd1320 O1340 2.500 . S
Nd1320 O1341 2.492 . S
Nd1320 O1342 2.487 . S
Nd1320 O1343 2.682 . S
Nd1320 O1344 2.410 . S
Nd1320 O1349 2.414 . S
Nd1320 O1351 2.424 . S
Nd1321 C1331 2.836 . S
Nd1321 O1343 2.414 . S
Nd1321 O1345 2.424 . S
Nd1321 O1346 2.500 . S
Nd1321 O1347 2.492 . S
Nd1321 O1348 2.487 . S
Nd1321 O1349 2.682 . S
Nd1321 O1350 2.410 . S
C1322 Nd1320 2.836 . S
C1322 C1323 1.498 1_554 S
C1322 O1340 1.258 . S
C1322 O1341 1.239 . S
C1323 C1322 1.498 1_556 S
C1323 C1324 1.366 . S
C1323 C1328 1.407 . S
C1324 C1323 1.366 . S
C1324 C1325 1.392 . S
C1324 H1352 0.930 . S
C1325 C1324 1.392 . S
C1325 C1326 1.398 . S
C1325 H1353 0.929 . S
C1326 C1325 1.398 . S
C1326 C1327 1.352 . S
C1327 C1326 1.352 . S
C1327 C1328 1.384 . S
C1327 H1354 0.930 . S
C1328 C1323 1.407 . S
C1328 C1327 1.384 . S
C1328 H1355 0.929 . S
C1329 O1342 1.241 . S
C1329 O1343 1.273 . S
C1330 O1344 1.251 . S
C1330 O1345 1.268 . S
C1331 Nd1321 2.836 . S
C1331 C1332 1.498 . S
C1331 O1346 1.258 . S
C1331 O1347 1.239 . S
C1332 C1331 1.498 . S
C1332 C1333 1.366 . S
C1332 C1337 1.407 . S
C1333 C1332 1.366 . S
C1333 C1334 1.392 . S
C1333 H1356 0.930 . S
C1334 C1333 1.392 . S
C1334 C1335 1.398 . S
C1334 H1357 0.929 . S
C1335 C1334 1.398 . S
C1335 C1336 1.352 . S
C1336 C1335 1.352 . S
C1336 C1337 1.384 . S
C1336 H1358 0.930 . S
C1337 C1332 1.407 . S
C1337 C1336 1.384 . S
C1337 H1359 0.929 . S
C1338 O1348 1.241 . S
C1338 O1349 1.273 . S
C1339 O1350 1.251 . S
C1339 O1351 1.268 . S
O1340 Nd1320 2.500 . S
O1340 C1322 1.258 . S
O1341 Nd1320 2.492 . S
O1341 C1322 1.239 . S
O1342 Nd1320 2.487 . S
O1342 C1329 1.241 . S
O1343 Nd1320 2.682 . S
O1343 Nd1321 2.414 . S
O1343 C1329 1.273 . S
O1344 Nd1320 2.410 . S
O1344 C1330 1.251 . S
O1345 Nd1321 2.424 . S
O1345 C1330 1.268 . S
O1346 Nd1321 2.500 . S
O1346 C1331 1.258 . S
O1347 Nd1321 2.492 . S
O1347 C1331 1.239 . S
O1348 Nd1321 2.487 . S
O1348 C1338 1.241 . S
O1349 Nd1320 2.414 . S
O1349 Nd1321 2.682 . S
O1349 C1338 1.273 . S
O1350 Nd1321 2.410 . S
O1350 C1339 1.251 . S
O1351 Nd1320 2.424 . S
O1351 C1339 1.268 . S
H1352 C1324 0.930 . S
H1353 C1325 0.929 . S
H1354 C1327 0.930 . S
H1355 C1328 0.929 . S
H1356 C1333 0.930 . S
H1357 C1334 0.929 . S
H1358 C1336 0.930 . S
H1359 C1337 0.929 . S
Nd1360 C1362 2.836 . S
Nd1360 O1380 2.500 . S
Nd1360 O1381 2.492 . S
Nd1360 O1382 2.487 . S
Nd1360 O1383 2.682 . S
Nd1360 O1384 2.410 . S
Nd1360 O1389 2.414 . S
Nd1360 O1391 2.424 . S
Nd1361 C1371 2.836 . S
Nd1361 O1383 2.414 . S
Nd1361 O1385 2.424 . S
Nd1361 O1386 2.500 . S
Nd1361 O1387 2.492 . S
Nd1361 O1388 2.487 . S
Nd1361 O1389 2.682 . S
Nd1361 O1390 2.410 . S
C1362 Nd1360 2.836 . S
C1362 C1363 1.498 1_554 S
C1362 O1380 1.258 . S
C1362 O1381 1.239 . S
C1363 C1362 1.498 1_556 S
C1363 C1364 1.366 . S
C1363 C1368 1.407 . S
C1364 C1363 1.366 . S
C1364 C1365 1.392 . S
C1364 H1392 0.930 . S
C1365 C1364 1.392 . S
C1365 C1366 1.398 . S
C1365 H1393 0.929 . S
C1366 C1365 1.398 . S
C1366 C1367 1.352 . S
C1367 C1366 1.352 . S
C1367 C1368 1.384 . S
C1367 H1394 0.930 . S
C1368 C1363 1.407 . S
C1368 C1367 1.384 . S
C1368 H1395 0.929 . S
C1369 O1382 1.241 . S
C1369 O1383 1.273 . S
C1370 O1384 1.251 . S
C1370 O1385 1.268 . S
C1371 Nd1361 2.836 . S
C1371 C1372 1.498 . S
C1371 O1386 1.258 . S
C1371 O1387 1.239 . S
C1372 C1371 1.498 . S
C1372 C1373 1.366 . S
C1372 C1377 1.407 . S
C1373 C1372 1.366 . S
C1373 C1374 1.392 . S
C1373 H1396 0.930 . S
C1374 C1373 1.392 . S
C1374 C1375 1.398 . S
C1374 H1397 0.929 . S
C1375 C1374 1.398 . S
C1375 C1376 1.352 . S
C1376 C1375 1.352 . S
C1376 C1377 1.384 . S
C1376 H1398 0.930 . S
C1377 C1372 1.407 . S
C1377 C1376 1.384 . S
C1377 H1399 0.929 . S
C1378 O1388 1.241 . S
C1378 O1389 1.273 . S
C1379 O1390 1.251 . S
C1379 O1391 1.268 . S
O1380 Nd1360 2.500 . S
O1380 C1362 1.258 . S
O1381 Nd1360 2.492 . S
O1381 C1362 1.239 . S
O1382 Nd1360 2.487 . S
O1382 C1369 1.241 . S
O1383 Nd1360 2.682 . S
O1383 Nd1361 2.414 . S
O1383 C1369 1.273 . S
O1384 Nd1360 2.410 . S
O1384 C1370 1.251 . S
O1385 Nd1361 2.424 . S
O1385 C1370 1.268 . S
O1386 Nd1361 2.500 . S
O1386 C1371 1.258 . S
O1387 Nd1361 2.492 . S
O1387 C1371 1.239 . S
O1388 Nd1361 2.487 . S
O1388 C1378 1.241 . S
O1389 Nd1360 2.414 . S
O1389 Nd1361 2.682 . S
O1389 C1378 1.273 . S
O1390 Nd1361 2.410 . S
O1390 C1379 1.251 . S
O1391 Nd1360 2.424 . S
O1391 C1379 1.268 . S
H1392 C1364 0.930 . S
H1393 C1365 0.929 . S
H1394 C1367 0.930 . S
H1395 C1368 0.929 . S
H1396 C1373 0.930 . S
H1397 C1374 0.929 . S
H1398 C1376 0.930 . S
H1399 C1377 0.929 . S
Nd1400 C1402 2.836 . S
Nd1400 O1420 2.500 . S
Nd1400 O1421 2.492 . S
Nd1400 O1422 2.487 . S
Nd1400 O1423 2.682 . S
Nd1400 O1424 2.410 . S
Nd1400 O1429 2.414 . S
Nd1400 O1431 2.424 . S
Nd1401 C1411 2.836 . S
Nd1401 O1423 2.414 . S
Nd1401 O1425 2.424 . S
Nd1401 O1426 2.500 . S
Nd1401 O1427 2.492 . S
Nd1401 O1428 2.487 . S
Nd1401 O1429 2.682 . S
Nd1401 O1430 2.410 . S
C1402 Nd1400 2.836 . S
C1402 C1403 1.498 1_554 S
C1402 O1420 1.258 . S
C1402 O1421 1.239 . S
C1403 C1402 1.498 1_556 S
C1403 C1404 1.366 . S
C1403 C1408 1.407 . S
C1404 C1403 1.366 . S
C1404 C1405 1.392 . S
C1404 H1432 0.930 . S
C1405 C1404 1.392 . S
C1405 C1406 1.398 . S
C1405 H1433 0.929 . S
C1406 C1405 1.398 . S
C1406 C1407 1.352 . S
C1407 C1406 1.352 . S
C1407 C1408 1.384 . S
C1407 H1434 0.930 . S
C1408 C1403 1.407 . S
C1408 C1407 1.384 . S
C1408 H1435 0.929 . S
C1409 O1422 1.241 . S
C1409 O1423 1.273 . S
C1410 O1424 1.251 . S
C1410 O1425 1.268 . S
C1411 Nd1401 2.836 . S
C1411 C1412 1.498 . S
C1411 O1426 1.258 . S
C1411 O1427 1.239 . S
C1412 C1411 1.498 . S
C1412 C1413 1.366 . S
C1412 C1417 1.407 . S
C1413 C1412 1.366 . S
C1413 C1414 1.392 . S
C1413 H1436 0.930 . S
C1414 C1413 1.392 . S
C1414 C1415 1.398 . S
C1414 H1437 0.929 . S
C1415 C1414 1.398 . S
C1415 C1416 1.352 . S
C1416 C1415 1.352 . S
C1416 C1417 1.384 . S
C1416 H1438 0.930 . S
C1417 C1412 1.407 . S
C1417 C1416 1.384 . S
C1417 H1439 0.929 . S
C1418 O1428 1.241 . S
C1418 O1429 1.273 . S
C1419 O1430 1.251 . S
C1419 O1431 1.268 . S
O1420 Nd1400 2.500 . S
O1420 C1402 1.258 . S
O1421 Nd1400 2.492 . S
O1421 C1402 1.239 . S
O1422 Nd1400 2.487 . S
O1422 C1409 1.241 . S
O1423 Nd1400 2.682 . S
O1423 Nd1401 2.414 . S
O1423 C1409 1.273 . S
O1424 Nd1400 2.410 . S
O1424 C1410 1.251 . S
O1425 Nd1401 2.424 . S
O1425 C1410 1.268 . S
O1426 Nd1401 2.500 . S
O1426 C1411 1.258 . S
O1427 Nd1401 2.492 . S
O1427 C1411 1.239 . S
O1428 Nd1401 2.487 . S
O1428 C1418 1.241 . S
O1429 Nd1400 2.414 . S
O1429 Nd1401 2.682 . S
O1429 C1418 1.273 . S
O1430 Nd1401 2.410 . S
O1430 C1419 1.251 . S
O1431 Nd1400 2.424 . S
O1431 C1419 1.268 . S
H1432 C1404 0.930 . S
H1433 C1405 0.929 . S
H1434 C1407 0.930 . S
H1435 C1408 0.929 . S
H1436 C1413 0.930 . S
H1437 C1414 0.929 . S
H1438 C1416 0.930 . S
H1439 C1417 0.929 . S
C609 C9 1.010 1_554 S
C649 C49 1.012 1_554 S
C89 C689 1.011 1_556 S
C129 C969 1.446 . S
C169 C1009 1.446 . S
C209 C1049 1.447 . S
C1338 C258 1.423 . S
C1378 C298 1.425 . S
C338 C1418 1.424 . S
C738 C378 1.170 . S
C418 C778 1.171 . S
C458 C818 1.171 . S
C1089 C489 1.445 . S
C529 C1129 1.446 1_565 S
C1169 C569 1.447 1_655 S
C1218 C858 1.423 . S
C1258 C898 1.424 1_545 S
C938 C1298 1.424 1_455 S
C19 C179 3.283 1_455 S
C59 C219 3.283 . S
C99 C139 3.283 1_565 S
C250 C410 3.195 1_655 S
C290 C450 3.195 . S
C330 C370 3.195 1_545 S
C499 C659 3.283 . S
C699 C539 3.283 . S
C579 C619 3.283 . S
C730 C890 3.195 . S
C770 C930 3.195 . S
C850 C810 3.195 . S
C979 C1139 3.256 . S
C1179 C1019 3.256 . S
C1059 C1099 3.256 . S
C1210 C1370 3.255 1_556 S
C1250 C1410 3.255 1_556 S
C1290 C1330 3.255 1_556 S
C419 C15 2.049 . S
C55 C459 2.049 . S
C95 C379 2.048 . S
C135 C339 1.932 . S
C175 C259 1.931 . S
C299 C215 1.932 . S
C246 C170 1.990 . S
C210 C286 1.990 . S
C326 C130 1.989 . S
C366 C90 1.826 . S
C10 C406 1.825 . S
C50 C446 1.825 . S
C899 C495 1.931 . S
C939 C535 1.931 . S
C859 C575 1.931 . S
C819 C615 2.049 . S
C655 C739 2.049 . S
C779 C695 2.049 . S
C650 C726 1.825 . S
C766 C690 1.826 . S
C806 C610 1.825 . S
C570 C846 1.989 . S
C886 C490 1.989 . S
C926 C530 1.989 . S
C975 C1379 1.973 . S
C1015 C1419 1.974 . S
C1339 C1055 1.973 . S
C1299 C1095 1.973 . S
C1135 C1219 1.974 . S
C1259 C1175 1.973 . S
C1206 C1130 1.963 . S
C1170 C1246 1.964 . S
C1286 C1090 1.963 . S
C1326 C1050 1.962 . S
C970 C1366 1.963 . S
C1010 C1406 1.963 . S
C6 C166 0.612 . S
C206 C46 0.612 . S
C86 C126 0.612 . S
C255 C415 0.710 1_455 S
C455 C295 0.710 . S
C335 C375 0.710 1_565 S
C646 C486 0.612 . S
C686 C526 0.612 . S
C606 C566 0.612 . S
C895 C735 0.709 . S
C775 C935 0.710 . S
C855 C815 0.710 . S
C1126 C966 0.679 1_554 S
C1006 C1166 0.679 1_556 S
C1046 C1086 0.679 1_556 S
C1375 C1215 0.671 . S
C1255 C1415 0.671 . S
C1295 C1335 0.671 . S
C18 C249 3.869 1_455 S
C58 C289 3.870 . S
C329 C98 3.869 1_545 S
C369 C138 3.926 1_565 S
C178 C409 3.925 1_655 S
C218 C449 3.926 . S
C729 C498 3.925 . S
C538 C769 3.926 . S
C809 C578 3.925 . S
C849 C618 3.869 . S
C889 C658 3.869 . S
C929 C698 3.869 . S
C1209 C978 3.943 . S
C1018 C1249 3.943 . S
C1289 C1058 3.942 . S
C1329 C1098 3.942 . S
C1369 C1138 3.943 . S
C1178 C1409 3.943 . S
