# Generated by pormake.
# Topology sma, (6)-cn, num edge types: 1
# Building blocks:
#     Node 0, Type 0, BuildingBlock: NUHQIS_clean_sbu_0, # of connection points: 6
#     Node 1, Type 0, BuildingBlock: NUHQIS_clean_sbu_0, # of connection points: 6
#     Node 2, Type 0, BuildingBlock: NUHQIS_clean_sbu_0, # of connection points: 6
#     Edge 3, Type (0, 0), BuildingBlock: MIFKUJ_clean_linker_0, # of connection points: 2
#     Edge 4, Type (0, 0), BuildingBlock: MIFKUJ_clean_linker_0, # of connection points: 2
#     Edge 5, Type (0, 0), BuildingBlock: MIFKUJ_clean_linker_0, # of connection points: 2
#     Edge 6, Type (0, 0), BuildingBlock: MIFKUJ_clean_linker_0, # of connection points: 2
#     Edge 7, Type (0, 0), BuildingBlock: MIFKUJ_clean_linker_0, # of connection points: 2
#     Edge 8, Type (0, 0), BuildingBlock: MIFKUJ_clean_linker_0, # of connection points: 2
#     Edge 9, Type (0, 0), BuildingBlock: MIFKUJ_clean_linker_0, # of connection points: 2
#     Edge 10, Type (0, 0), BuildingBlock: MIFKUJ_clean_linker_0, # of connection points: 2
#     Edge 11, Type (0, 0), BuildingBlock: MIFKUJ_clean_linker_0, # of connection points: 2
# Relax obj value: 0.086
# Max RMSD: 0.189
# Mean RMSD: 0.185
data_MOF--net-sma--node1-NUHQIS_clean_sbu_0--edge1-MIFKUJ_clean_linker_0
_symmetry_space_group_name_H-M    P1
_symmetry_Int_Tables_number       1
_symmetry_cell_setting            triclinic
loop_
_symmetry_equiv_pos_as_xyz
'x, y, z'
_cell_length_a     48.507582
_cell_length_b     48.377518
_cell_length_c     18.094562
_cell_angle_alpha  92.663779
_cell_angle_beta   91.906962
_cell_angle_gamma 120.12586
loop_
_atom_site_label
_atom_site_type_symbol
_atom_site_fract_x
_atom_site_fract_y
_atom_site_fract_z
_atom_type_partial_charge
Tb0 Tb 0.07519 0.52864 0.13933 0.0
Eu1 Eu 1.03387 0.56608 0.17579 0.0
C2 C 0.0543 0.5341 0.29871 0.0
C3 C 0.99961 0.48815 0.1606 0.0
C4 C 0.13978 0.51307 0.07248 0.0
C5 C 0.19699 0.53381 0.09356 0.0
C6 C 0.16788 0.52819 0.11948 0.0
C7 C 0.14167 0.5042 -0.00144 0.0
C8 C 0.17084 0.50986 -0.02747 0.0
C9 C 0.19885 0.5244 0.01998 0.0
C10 C 0.10824 0.5038 0.10183 0.0
O11 O 0.07018 0.55312 0.04746 0.0
O12 O 1.0198 0.5419 0.06213 0.0
O13 O 0.08491 0.60388 0.16102 0.0
O14 O 0.11068 0.57613 0.18703 0.0
C15 C 1.04154 0.5439 0.01891 0.0
O16 O 1.02295 0.60252 0.14379 0.0
O17 O 1.00094 0.57524 0.23801 0.0
O18 O 0.05405 0.56038 0.2839 0.0
O19 O 0.05786 0.51619 0.24768 0.0
O20 O 1.02512 0.48928 0.13299 0.0
O21 O 0.99883 0.51394 0.18379 0.0
C22 C 0.11097 0.60319 0.17984 0.0
O23 O 0.10831 0.51474 0.16916 0.0
O24 O 0.08661 0.50416 0.05752 0.0
C25 C 0.97059 0.59103 0.16424 0.0
C26 C 0.91284 0.58521 0.10622 0.0
C27 C 0.92633 0.56876 0.07032 0.0
C28 C 0.95487 0.5716 0.09913 0.0
C29 C 0.95705 0.60702 0.20094 0.0
C30 C 0.92845 0.60412 0.17237 0.0
C31 C 1.00164 0.59578 0.19265 0.0
H32 H 0.21784 0.54458 0.13215 0.0
H33 H 0.16735 0.53501 0.17704 0.0
H34 H 0.12044 0.4923 0.96116 0.0
H35 H 0.17136 0.50263 0.91529 0.0
H36 H 0.91526 0.55426 0.01895 0.0
H37 H 0.96495 0.55903 0.06989 0.0
H38 H 0.96877 0.62204 0.2514 0.0
H39 H 0.91854 0.61666 0.20232 0.0
Tb40 Tb 0.61225 0.08738 0.52496 0.0
Eu41 Eu 0.53335 0.04008 0.48377 0.0
C42 C 0.5619 0.07922 0.63909 0.0
C43 C 0.57495 1.01348 0.56389 0.0
C44 C 0.69695 0.15031 0.50418 0.0
C45 C 0.74365 0.20395 0.51289 0.0
C46 C 0.71989 0.17784 0.54689 0.0
C47 C 0.69813 0.14939 0.42656 0.0
C48 C 0.72208 0.17539 0.39259 0.0
C49 C 0.74513 0.20298 0.43535 0.0
C50 C 0.67227 0.12287 0.54153 0.0
O51 O 0.60092 0.07939 0.40684 0.0
O52 O 0.56244 1.02793 0.41099 0.0
O53 O 0.54619 0.0893 0.44917 0.0
O54 O 0.59592 0.12128 0.51014 0.0
C55 C 0.58402 0.05052 0.37457 0.0
O56 O 0.49503 1.01997 0.39576 0.0
O57 O 0.4842 1.00813 0.50987 0.0
O58 O 0.53912 0.06985 0.58669 0.0
O59 O 0.5892 0.08036 0.62857 0.0
O60 O 0.60178 0.03911 0.54842 0.0
O61 O 0.54675 1.01091 0.55336 0.0
C62 C 0.56992 0.11755 0.47516 0.0
O63 O 0.6524 0.128 0.57828 0.0
O64 O 0.65774 0.09511 0.50362 0.0
C65 C 0.44898 0.96967 0.41381 0.0
C66 C 0.39775 0.90772 0.36739 0.0
C67 C 0.40488 0.93402 0.32545 0.0
C68 C 0.43013 0.96461 0.34854 0.0
C69 C 0.44271 0.9433 0.45462 0.0
C70 C 0.41735 0.91263 0.43158 0.0
C71 C 0.47311 1.00287 0.44064 0.0
H72 H 0.76119 0.22473 0.54744 0.0
H73 H 0.71949 0.1791 0.60676 0.0
H74 H 0.68059 0.1286 0.392 0.0
H75 H 0.72231 0.17405 0.33271 0.0
H76 H 0.39071 0.93105 0.27502 0.0
H77 H 0.43448 0.98454 0.31614 0.0
H78 H 0.45683 0.94646 0.50528 0.0
H79 H 0.41243 0.893 0.46553 0.0
Tb80 Tb 0.57569 0.59781 0.84007 0.0
Eu81 Eu 0.54028 0.5166 0.8292 0.0
C82 C 0.57229 0.55954 -0.02198 0.0
C83 C 0.61808 0.56312 0.84214 0.0
C84 C 0.59417 0.6837 0.82218 0.0
C85 C 0.60527 0.73824 0.84821 0.0
C86 C 0.60858 0.71236 0.86741 0.0
C87 C 0.57563 0.68099 0.75796 0.0
C88 C 0.57224 0.70697 0.73866 0.0
C89 C 0.58744 0.7361 0.78307 0.0
C90 C 0.60048 0.65803 0.84209 0.0
O91 O 0.55601 0.57697 0.72933 0.0
O92 O 0.56621 0.53612 0.72839 0.0
O93 O 0.50169 0.52944 0.81502 0.0
O94 O 0.52727 0.58015 0.87345 0.0
C95 C 0.56616 0.55957 0.69588 0.0
O96 O 0.50808 0.47153 0.76553 0.0
O97 O 0.52981 0.47094 0.87185 0.0
O98 O 0.54615 0.53407 0.94901 0.0
O99 O 0.58907 0.58494 0.94149 0.0
O100 O 0.61608 0.58926 0.83583 0.0
O101 O 0.59293 0.53416 0.84352 0.0
C102 C 0.50103 0.5539 0.84799 0.0
O103 O 0.58508 0.64103 0.89624 0.0
O104 O 0.60274 0.6405 0.78817 0.0
C105 C 0.51899 0.42939 0.7802 0.0
C106 C 0.52869 0.38045 0.7171 0.0
C107 C 0.54475 0.41155 0.69207 0.0
C108 C 0.53996 0.43579 0.72329 0.0
C109 C 0.50334 0.39864 0.80607 0.0
C110 C 0.50813 0.37445 0.77502 0.0
C111 C 0.51251 0.45407 0.81217 0.0
H112 H 0.61681 0.76003 0.88444 0.0
H113 H 0.62291 0.71493 0.91731 0.0
H114 H 0.56427 0.65907 0.72216 0.0
H115 H 0.5585 0.70454 0.68791 0.0
H116 H 0.56053 0.417 0.64733 0.0
H117 H 0.55236 0.45941 0.70245 0.0
H118 H 0.48719 0.39324 0.85017 0.0
H119 H 0.49582 0.35105 0.79682 0.0
H120 H 0.25967 0.57502 0.05375 0.0
H121 H 0.31006 0.58006 0.01855 0.0
H122 H 0.2585 0.48899 0.89101 0.0
H123 H 0.208 0.4831 0.92862 0.0
H124 H 0.3066 0.49212 -0.02839 0.0
H125 H 0.29539 0.56158 0.80777 0.0
H126 H 0.28707 0.60588 0.7749 0.0
H127 H 0.3714 0.67279 0.90927 0.0
H128 H 0.38 0.62881 0.94374 0.0
H129 H 0.44128 0.50543 0.79687 0.0
H130 H 0.38979 0.50098 0.81882 0.0
H131 H 0.43789 0.59197 0.94729 0.0
H132 H 0.48946 0.59698 0.92424 0.0
H133 H 0.39083 0.58828 0.86178 0.0
H134 H 0.40104 0.51935 0.02968 0.0
H135 H 0.40956 0.47543 0.06503 0.0
H136 H 0.32725 0.408 0.92558 0.0
H137 H 0.31849 0.45161 0.88863 0.0
C138 C 0.25897 0.55596 0.01842 0.0
C139 C 0.22961 0.52862 -0.00583 0.0
C140 C 0.28788 0.55906 -0.00238 0.0
C141 C 0.2882 0.53508 0.95135 0.0
C142 C 0.25895 0.50789 0.92652 0.0
C143 C 0.23002 0.50472 0.94751 0.0
C144 C 0.319 0.53784 0.93097 0.0
C145 C 0.32478 0.51293 0.94644 0.0
C146 C 0.34319 0.56533 0.89988 0.0
C147 C 0.33818 0.59185 0.87883 0.0
C148 C 0.31204 0.5857 0.83072 0.0
C149 C 0.30729 0.61076 0.81173 0.0
C150 C 0.32865 0.64212 0.84011 0.0
C151 C 0.35486 0.64849 0.88738 0.0
C152 C 0.3597 0.62351 0.90659 0.0
C153 C 0.44097 0.52458 0.82962 0.0
C154 C 0.46963 0.5515 0.85907 0.0
C155 C 0.41143 0.52192 0.84243 0.0
C156 C 0.40982 0.54591 0.88573 0.0
C157 C 0.43842 0.5731 0.91383 0.0
C158 C 0.46796 0.57587 0.90071 0.0
C159 C 0.37841 0.54258 0.90252 0.0
C160 C 0.37256 0.56739 0.88654 0.0
C161 C 0.35418 0.51506 0.93341 0.0
C162 C 0.35931 0.48879 0.95582 0.0
C163 C 0.3849 0.49519 0.00614 0.0
C164 C 0.38975 0.47035 0.02653 0.0
C165 C 0.36901 0.43896 -0.00259 0.0
C166 C 0.34333 0.43233 0.948 0.0
C167 C 0.33839 0.45709 0.92736 0.0
H168 H 0.37281 0.41976 0.01325 0.0
H169 H 0.32493 0.66148 0.82536 0.0
H170 H 0.76632 0.26675 0.46513 0.0
H171 H 0.80836 0.31225 0.40635 0.0
H172 H 0.82364 0.24752 0.26519 0.0
H173 H 0.78169 0.20182 0.32425 0.0
H174 H 0.88058 0.30012 0.32734 0.0
H175 H 0.78471 0.28044 0.19327 0.0
H176 H 0.73007 0.27164 0.17987 0.0
H177 H 0.76225 0.36447 0.28894 0.0
H178 H 0.81702 0.37365 0.30399 0.0
H179 H 0.98666 0.42744 0.11307 0.0
H180 H 0.9421 0.37613 0.14588 0.0
H181 H 0.90555 0.42658 0.2746 0.0
H182 H 0.94887 0.47734 0.24045 0.0
H183 H 0.85802 0.37713 0.20581 0.0
H184 H 0.95194 0.39555 0.3511 0.0
H185 H 1.00671 0.40496 0.36953 0.0
H186 H 0.97864 0.31579 0.24665 0.0
H187 H 0.92383 0.30607 0.22623 0.0
C188 C 0.77872 0.2622 0.42184 0.0
C189 C 0.77061 0.23066 0.39929 0.0
C190 C 0.80261 0.28821 0.38795 0.0
C191 C 0.81898 0.28328 0.33094 0.0
C192 C 0.81125 0.25187 0.30889 0.0
C193 C 0.78714 0.22579 0.34232 0.0
C194 C 0.84421 0.31103 0.29475 0.0
C195 C 0.8756 0.31671 0.29965 0.0
C196 C 0.83781 0.33296 0.25981 0.0
C197 C 0.80493 0.32762 0.25028 0.0
C198 C 0.7801 0.29889 0.21489 0.0
C199 C 0.74911 0.29384 0.20692 0.0
C200 C 0.74268 0.31745 0.23368 0.0
C201 C 0.76726 0.34619 0.26829 0.0
C202 C 0.79829 0.35134 0.27648 0.0
C203 C 0.9689 0.42754 0.14761 0.0
C204 C 0.97147 0.45662 0.17392 0.0
C205 C 0.94352 0.39818 0.1668 0.0
C206 C 0.92061 0.39739 0.21379 0.0
C207 C 0.92278 0.42639 0.23828 0.0
C208 C 0.94775 0.45555 0.21853 0.0
C209 C 0.89471 0.36675 0.23963 0.0
C210 C 0.86308 0.36045 0.23281 0.0
C211 C 0.90099 0.34447 0.2736 0.0
C212 C 0.93388 0.35025 0.2864 0.0
C213 C 0.9575 0.37806 0.32755 0.0
C214 C 0.98854 0.38344 0.33841 0.0
C215 C 0.99615 0.36104 0.30919 0.0
C216 C 0.97272 0.33316 0.26914 0.0
C217 C 0.94168 0.32769 0.25786 0.0
H218 H 1.02019 0.36527 0.31772 0.0
H219 H 0.71866 0.31349 0.22749 0.0
H220 H 0.52538 0.95216 0.57072 0.0
H221 H 0.52765 0.90565 0.60892 0.0
H222 H 0.62947 0.96453 0.65627 0.0
H223 H 0.62755 1.01114 0.61575 0.0
H224 H 0.61661 0.91034 0.58693 0.0
H225 H 0.57509 0.93868 0.79402 0.0
H226 H 0.53841 0.95248 0.8546 0.0
H227 H 0.45919 0.8591 0.78637 0.0
H228 H 0.4953 0.84506 0.72331 0.0
H229 H 0.63558 0.79876 0.79131 0.0
H230 H 0.63287 0.84558 0.75696 0.0
H231 H 0.53299 0.78509 0.68883 0.0
H232 H 0.53532 0.738 0.7249 0.0
H233 H 0.54495 0.84009 0.77048 0.0
H234 H 0.58788 0.81318 0.56079 0.0
H235 H 0.62545 0.80108 0.4985 0.0
H236 H 0.70376 0.89343 0.57738 0.0
H237 H 0.66669 0.90592 0.64102 0.0
C238 C 0.54828 0.95537 0.58972 0.0
C239 C 0.57628 0.98553 0.5905 0.0
C240 C 0.54952 0.92866 0.61179 0.0
C241 C 0.57867 0.93155 0.63665 0.0
C242 C 0.60668 0.96163 0.63744 0.0
C243 C 0.60552 0.98832 0.6145 0.0
C244 C 0.57995 0.90309 0.66066 0.0
C245 C 0.60126 0.8953 0.62791 0.0
C246 C 0.55952 0.88298 0.71316 0.0
C247 C 0.53789 0.89093 0.75328 0.0
C248 C 0.54983 0.92114 0.79155 0.0
C249 C 0.52912 0.92902 0.82628 0.0
C250 C 0.49647 0.90669 0.82428 0.0
C251 C 0.48448 0.87638 0.78777 0.0
C252 C 0.50506 0.86847 0.75242 0.0
C253 C 0.61291 0.79536 0.76967 0.0
C254 C 0.58563 0.76453 0.76101 0.0
C255 C 0.61148 0.82218 0.74945 0.0
C256 C 0.5828 0.81888 0.71967 0.0
C257 C 0.55541 0.78823 0.71155 0.0
C258 C 0.55684 0.7613 0.7316 0.0
C259 C 0.58157 0.84744 0.69663 0.0
C260 C 0.56031 0.85523 0.72963 0.0
C261 C 0.60226 0.86775 0.64492 0.0
C262 C 0.62454 0.86036 0.60622 0.0
C263 C 0.61314 0.83082 0.5653 0.0
C264 C 0.63434 0.8239 0.52967 0.0
C265 C 0.66698 0.84644 0.53412 0.0
C266 C 0.67848 0.87598 0.57404 0.0
C267 C 0.65738 0.883 0.60984 0.0
H268 H 0.68336 0.84104 0.50652 0.0
H269 H 0.48045 0.91285 0.85102 0.0
H270 H 0.67441 0.61746 0.88851 0.0
H271 H 0.72528 0.62149 0.92553 0.0
H272 H 0.68517 0.52078 0.8634 0.0
H273 H 0.63403 0.51642 0.82802 0.0
H274 H 0.71485 0.53444 -0.00569 0.0
H275 H 0.74191 0.58136 0.76095 0.0
H276 H 0.74719 0.61876 0.66696 0.0
H277 H 0.81098 0.69865 0.81805 0.0
H278 H 0.80573 0.66175 0.91337 0.0
H279 H 0.85979 0.53257 0.03749 0.0
H280 H 0.81122 0.52939 -0.01549 0.0
H281 H 0.84883 0.62925 0.05155 0.0
H282 H 0.89808 0.63302 0.10174 0.0
H283 H 0.8207 0.61569 0.91548 0.0
H284 H 0.79213 0.56861 0.14959 0.0
H285 H 0.78651 0.53114 0.24373 0.0
H286 H 0.72518 0.45125 0.08994 0.0
H287 H 0.73077 0.48825 -0.00546 0.0
C288 C 0.67656 0.59628 0.88141 0.0
C289 C 0.6501 0.56662 0.85521 0.0
C290 C 0.70574 0.59862 0.90262 0.0
C291 C 0.70926 0.57148 0.8969 0.0
C292 C 0.68311 0.54206 0.86864 0.0
C293 C 0.65387 0.53963 0.84815 0.0
C294 C 0.73953 0.57327 0.92408 0.0
C295 C 0.73793 0.55188 -0.02399 0.0
C296 C 0.76983 0.59655 0.90195 0.0
C297 C 0.7732 0.61879 0.84453 0.0
C298 C 0.75689 0.60692 0.77433 0.0
C299 C 0.7599 0.62802 0.72078 0.0
C300 C 0.77935 0.66106 0.73658 0.0
C301 C 0.7959 0.67306 0.80591 0.0
C302 C 0.79294 0.65205 0.85969 0.0
C303 C 0.85794 0.55398 0.04035 0.0
C304 C 0.88293 0.58303 0.07438 0.0
C305 C 0.82995 0.55204 0.01062 0.0
C306 C 0.82609 0.57897 0.01486 0.0
C307 C 0.85113 0.60809 0.04782 0.0
C308 C 0.87918 0.6101 0.07729 0.0
C309 C 0.79593 0.57679 -0.01457 0.0
C310 C 0.79757 0.59815 0.93334 0.0
C311 C 0.76563 0.55346 0.00729 0.0
C312 C 0.76213 0.53119 0.06472 0.0
C313 C 0.77763 0.54305 0.13569 0.0
C314 C 0.77442 0.5219 0.1893 0.0
C315 C 0.75557 0.48884 0.17277 0.0
C316 C 0.73981 0.47686 0.10264 0.0
C317 C 0.74297 0.49791 0.0488 0.0
H318 H 0.75311 0.4725 0.21435 0.0
H319 H 0.78164 0.67737 0.69506 0.0
H320 H 0.39187 0.84821 0.37242 0.0
H321 H 0.3442 0.79588 0.33996 0.0
H322 H 0.2915 0.84242 0.27998 0.0
H323 H 0.33856 0.8946 0.31467 0.0
H324 H 0.25712 0.79368 0.36129 0.0
H325 H 0.31871 0.80971 0.14813 0.0
H326 H 0.36635 0.82055 0.08182 0.0
H327 H 0.36242 0.73664 0.16251 0.0
H328 H 0.31499 0.72554 0.23019 0.0
H329 H 0.12162 0.66405 0.16853 0.0
H330 H 0.17121 0.71465 0.19867 0.0
H331 H 0.21904 0.66317 0.25753 0.0
H332 H 0.16961 0.6123 0.22624 0.0
H333 H 0.25655 0.71329 0.17976 0.0
H334 H 0.19446 0.69677 0.39118 0.0
H335 H 0.14661 0.68573 0.45681 0.0
H336 H 0.15155 0.77058 0.37945 0.0
H337 H 0.19919 0.7819 0.31247 0.0
C338 C 0.37009 0.8473 0.35268 0.0
C339 C 0.36916 0.8757 0.34583 0.0
C340 C 0.34292 0.81736 0.33347 0.0
C341 C 0.3143 0.81517 0.30671 0.0
C342 C 0.31329 0.84345 0.30021 0.0
C343 C 0.34037 0.87334 0.31941 0.0
C344 C 0.28514 0.7835 0.28678 0.0
C345 C 0.25693 0.77628 0.3209 0.0
C346 C 0.28501 0.76037 0.23556 0.0
C347 C 0.31351 0.76699 0.19488 0.0
C348 C 0.32816 0.79372 0.15225 0.0
C349 C 0.3551 0.79988 0.11432 0.0
C350 C 0.36746 0.77935 0.11813 0.0
C351 C 0.35285 0.75255 0.15972 0.0
C352 C 0.32593 0.74631 0.19784 0.0
C353 C 0.14266 0.66338 0.18764 0.0
C354 C 0.14147 0.634 0.1954 0.0
C355 C 0.17102 0.69241 0.20516 0.0
C356 C 0.19877 0.69276 0.23155 0.0
C357 C 0.19792 0.66351 0.23755 0.0
C358 C 0.16956 0.63443 0.21981 0.0
C359 C 0.2285 0.72366 0.25373 0.0
C360 C 0.25679 0.73068 0.22024 0.0
C361 C 0.22875 0.74664 0.30559 0.0
C362 C 0.20023 0.74003 0.34628 0.0
C363 C 0.18521 0.71296 0.38774 0.0
C364 C 0.15815 0.70666 0.42525 0.0
C365 C 0.146 0.7274 0.42216 0.0
C366 C 0.16096 0.75452 0.38173 0.0
C367 C 0.18802 0.76091 0.34404 0.0
H368 H 0.12504 0.72248 0.45122 0.0
H369 H 0.3883 0.78415 0.0887 0.0
H370 H 0.48327 0.31723 0.68518 0.0
H371 H 0.49046 0.27399 0.63322 0.0
H372 H 0.5908 0.34066 0.61753 0.0
H373 H 0.58386 0.38415 0.6703 0.0
H374 H 0.56687 0.30013 0.4951 0.0
H375 H 0.56569 0.29022 0.75557 0.0
H376 H 0.54598 0.2856 0.88083 0.0
H377 H 0.46077 0.19767 0.8066 0.0
H378 H 0.47975 0.20201 0.6805 0.0
H379 H 0.61593 0.18112 0.48834 0.0
H380 H 0.60813 0.22682 0.51415 0.0
H381 H 0.50609 0.16347 0.49449 0.0
H382 H 0.51361 0.11773 0.46726 0.0
H383 H 0.53123 0.20247 0.63194 0.0
H384 H 0.53587 0.21306 0.36944 0.0
H385 H 0.55945 0.21809 0.24869 0.0
H386 H 0.64291 0.30569 0.33287 0.0
H387 H 0.62001 0.30095 0.45456 0.0
C388 C 0.50697 0.32275 0.67138 0.0
C389 C 0.53304 0.35425 0.68285 0.0
C390 C 0.51102 0.29794 0.64133 0.0
C391 C 0.54127 0.30389 0.62225 0.0
C392 C 0.56722 0.33542 0.63175 0.0
C393 C 0.56318 0.36031 0.66187 0.0
C394 C 0.54577 0.27704 0.59382 0.0
C395 C 0.55939 0.27894 0.52547 0.0
C396 C 0.53573 0.24914 0.63283 0.0
C397 C 0.52398 0.24665 0.70833 0.0
C398 C 0.54259 0.27008 0.76573 0.0
C399 C 0.53158 0.26747 0.83693 0.0
C400 C 0.5021 0.24141 0.85161 0.0
C401 C 0.48357 0.21788 0.79511 0.0
C402 C 0.49444 0.2204 0.72375 0.0
C403 C 0.59181 0.17701 0.4876 0.0
C404 C 0.5654 0.14574 0.47563 0.0
C405 C 0.5874 0.20317 0.50242 0.0
C406 C 0.55653 0.19853 0.50655 0.0
C407 C 0.53012 0.16757 0.49154 0.0
C408 C 0.53448 0.14147 0.47541 0.0
C409 C 0.55191 0.22542 0.53304 0.0
C410 C 0.53846 0.22358 0.60138 0.0
C411 C 0.56257 0.25348 0.49457 0.0
C412 C 0.57636 0.25647 0.42139 0.0
C413 C 0.55938 0.23324 0.36245 0.0
C414 C 0.57259 0.23608 0.29377 0.0
C415 C 0.6027 0.26214 0.28317 0.0
C416 C 0.61961 0.28548 0.34119 0.0
C417 C 0.60651 0.28275 0.41002 0.0
H418 H 0.61289 0.26429 0.22996 0.0
H419 H 0.49365 0.2394 0.90681 0.0
H420 H 0.98189 0.49877 0.96312 0.0
H421 H 0.96729 0.46988 0.84051 0.0
H422 H 0.06535 0.52612 0.78379 0.0
H423 H 0.08016 0.55385 0.90664 0.0
H424 H 0.96757 0.48861 0.71232 0.0
H425 H 0.09026 0.49185 0.6778 0.0
H426 H 0.12541 0.47949 0.75299 0.0
H427 H 1.04743 0.42034 0.8834 0.0
H428 H 1.01155 0.43185 0.80829 0.0
H429 H 1.04538 0.56287 0.42151 0.0
H430 H 1.02476 0.53876 0.5371 0.0
H431 H 1.01948 0.45108 0.45406 0.0
H432 H 1.04062 0.47504 0.33849 0.0
H433 H 1.04481 0.46628 0.58858 0.0
H434 H 0.94996 0.44823 0.48023 0.0
H435 H 0.91219 0.45672 0.40404 0.0
H436 H 0.92758 0.53448 0.55682 0.0
H437 H 0.9659 0.52694 0.63336 0.0
C438 C 1.00025 0.50489 0.9242 0.0
C439 C 1.03215 0.52856 0.94372 0.0
C440 C 0.99193 0.48816 0.8547 0.0
C441 C 1.01537 0.49512 0.80398 0.0
C442 C 1.04706 0.51936 0.82316 0.0
C443 C 0.05547 0.53563 0.89281 0.0
C444 C 1.00689 0.48007 0.72777 0.0
C445 C 0.98389 0.48294 0.68514 0.0
C446 C 1.02658 0.47029 0.69289 0.0
C447 C 1.04805 0.46258 0.73683 0.0
C448 C 0.08039 0.47581 0.72172 0.0
C449 C 0.10053 0.46906 0.76461 0.0
C450 C 0.08864 0.44905 0.82274 0.0
C451 C 0.0566 0.43579 0.83824 0.0
C452 C 1.03635 0.44244 0.79555 0.0
C453 C 1.03998 0.53853 0.42785 0.0
C454 C 1.04478 0.52099 0.37111 0.0
C455 C 1.02773 0.52458 0.49338 0.0
C456 C 1.01974 0.49279 0.50282 0.0
C457 C 1.02506 0.47541 0.44698 0.0
C458 C 1.03745 0.48936 0.38147 0.0
C459 C 1.00864 0.47933 0.57433 0.0
C460 C 1.02746 0.47039 0.61572 0.0
C461 C 0.98427 0.48225 0.60783 0.0
C462 C 0.96079 0.48686 0.56295 0.0
C463 C 0.94539 0.46721 0.49762 0.0
C464 C 0.92388 0.47188 0.45425 0.0
C465 C 0.91745 0.49608 0.47564 0.0
C466 C 0.9325 0.51566 0.54048 0.0
C467 C 0.95407 0.51113 0.58404 0.0
H468 H 0.90081 0.49969 0.44195 0.0
H469 H 0.10429 0.44392 0.85594 0.0
H470 H 0.53466 1.00278 0.28768 0.0
H471 H 0.5218 1.00604 0.15876 0.0
H472 H 0.61361 0.09183 0.1491 0.0
H473 H 0.6262 0.08951 0.27961 0.0
H474 H 0.56544 0.10205 0.11662 0.0
H475 H 0.59364 1.02177 0.04011 0.0
H476 H 0.59066 0.96948 0.04636 0.0
H477 H 0.4891 0.92099 -0.00086 0.0
H478 H 0.49156 0.97303 -0.00815 0.0
H479 H 0.60404 0.11763 0.7515 0.0
H480 H 0.59379 0.11504 0.88267 0.0
H481 H 0.49366 0.04865 0.82724 0.0
H482 H 0.50359 0.05174 0.69561 0.0
H483 H 0.52869 1.02362 0.89801 0.0
H484 H 0.50707 0.10745 0.93701 0.0
H485 H 0.51296 0.16079 0.92765 0.0
H486 H 0.60529 0.20465 0.04425 0.0
H487 H 0.6003 0.15168 0.05316 0.0
C488 C 0.55258 1.02179 0.25757 0.0
C489 C 0.58109 0.04646 0.29374 0.0
C490 C 0.54516 1.02355 0.18382 0.0
C491 C 0.56658 0.04947 0.14534 0.0
C492 C 0.59664 0.07196 0.17886 0.0
C493 C 0.60386 0.07053 0.25297 0.0
C494 C 0.55618 0.05555 0.0741 0.0
C495 C 0.5577 0.08512 0.06836 0.0
C496 C 0.54419 1.0325 0.01327 0.0
C497 C 0.54274 1.00123 0.01614 0.0
C498 C 0.57067 0.99993 0.03124 0.0
C499 C 0.56909 0.97036 0.03476 0.0
C500 C 0.53969 0.94194 0.02341 0.0
C501 C 0.51184 0.94303 0.00805 0.0
C502 C 0.51334 0.97254 0.00376 0.0
C503 C 0.57969 0.10347 0.76733 0.0
C504 C 0.55474 0.08426 0.71437 0.0
C505 C 0.57377 0.10231 0.84195 0.0
C506 C 0.543 0.08153 0.86386 0.0
C507 C 0.51745 0.06494 0.81071 0.0
C508 C 0.52325 0.0666 0.73587 0.0
C509 C 0.54008 0.07107 0.93905 0.0
C510 C 0.5357 0.04038 0.94646 0.0
C511 C 0.54995 0.09334 0.00103 0.0
C512 C 0.55329 0.12546 -0.00437 0.0
C513 C 0.52876 0.12847 0.96016 0.0
C514 C 0.53192 0.15866 0.95501 0.0
C515 C 0.55948 0.18609 -0.01468 0.0
C516 C 0.58394 0.18338 0.02086 0.0
C517 C 0.58092 0.15324 0.02609 0.0
H518 H 0.56187 0.20944 -0.0187 0.0
H519 H 0.5385 0.91907 0.02619 0.0
H520 H 0.55412 0.58575 0.5786 0.0
H521 H 0.58124 0.59689 0.46287 0.0
H522 H 0.64889 0.57267 0.55612 0.0
H523 H 0.62087 0.56002 0.67033 0.0
H524 H 0.63872 0.63111 0.40667 0.0
H525 H 0.65704 0.5264 0.42434 0.0
H526 H 0.64319 0.48006 0.49847 0.0
H527 H 0.55176 0.47043 0.53406 0.0
H528 H 0.565 0.5165 0.45936 0.0
H529 H 0.63467 0.59275 0.02596 0.0
H530 H 0.65735 0.59742 0.15122 0.0
H531 H 0.5638 0.52968 0.21872 0.0
H532 H 0.54087 0.52453 0.09277 0.0
H533 H 0.61326 0.52512 0.29103 0.0
H534 H 0.58602 0.60764 0.22489 0.0
H535 H 0.59298 0.65145 0.14864 0.0
H536 H 0.69369 0.70278 0.20926 0.0
H537 H 0.68728 0.65902 0.28519 0.0
C538 C 0.57504 0.58333 0.57441 0.0
C539 C 0.58479 0.57094 0.63126 0.0
C540 C 0.59079 0.59007 0.50902 0.0
C541 C 0.61669 0.58499 0.50091 0.0
C542 C 0.62864 0.57617 0.56115 0.0
C543 C 0.61241 0.56864 0.62571 0.0
C544 C 0.62629 0.5827 0.42585 0.0
C545 C 0.63429 0.60831 0.38154 0.0
C546 C 0.6207 0.55296 0.39344 0.0
C547 C 0.61214 0.52496 0.43712 0.0
C548 C 0.63397 0.51429 0.44788 0.0
C549 C 0.62623 0.48812 0.48992 0.0
C550 C 0.59665 0.47238 0.52107 0.0
C551 C 0.57467 0.48268 0.50996 0.0
C552 C 0.58225 0.50877 0.46771 0.0
C553 C 0.61896 0.57857 0.06738 0.0
C554 C 0.58582 0.55904 0.05093 0.0
C555 C 0.63208 0.58099 0.13837 0.0
C556 C 0.61215 0.5642 0.19374 0.0
C557 C 0.57949 0.54272 0.17609 0.0
C558 C 0.56635 0.54004 0.1047 0.0
C559 C 0.62359 0.57287 0.27191 0.0
C560 C 0.61983 0.54855 0.31653 0.0
C561 C 0.6325 0.6036 0.3045 0.0
C562 C 0.63625 0.63001 0.25987 0.0
C563 C 0.60965 0.62823 0.22161 0.0
C564 C 0.61349 0.65302 0.1785 0.0
C565 C 0.64378 0.67984 0.17394 0.0
C566 C 0.67026 0.68196 0.2127 0.0
C567 C 0.66655 0.65718 0.25575 0.0
H568 H 0.64671 0.69901 0.14051 0.0
H569 H 0.59077 0.45217 0.55358 0.0
loop_
_geom_bond_atom_site_label_1
_geom_bond_atom_site_label_2
_geom_bond_distance
_geom_bond_site_symmetry_2
_ccdc_geom_bond_type
Tb0 C10 2.825 . S
Tb0 O11 2.347 . S
Tb0 O14 2.366 . S
Tb0 O19 2.418 . S
Tb0 O20 2.384 1_455 S
Tb0 O23 2.479 . S
Tb0 O24 2.471 . S
Eu1 O12 2.418 . S
Eu1 O13 2.384 1_655 S
Eu1 O16 2.479 . S
Eu1 O17 2.471 . S
Eu1 O18 2.347 1_655 S
Eu1 O21 2.366 . S
Eu1 C31 2.825 . S
C2 O18 1.259 . S
C2 O19 1.265 . S
C3 O20 1.255 . S
C3 O21 1.265 . S
C4 C6 1.380 . S
C4 C7 1.374 . S
C4 C10 1.507 . S
C5 C6 1.384 . S
C5 C9 1.387 . S
C5 H32 0.930 . S
C6 C4 1.380 . S
C6 C5 1.384 . S
C6 H33 0.931 . S
C7 C4 1.374 . S
C7 C8 1.390 . S
C7 H34 0.930 . S
C8 C7 1.390 . S
C8 C9 1.391 . S
C8 H35 0.930 . S
C9 C5 1.387 . S
C9 C8 1.391 . S
C10 Tb0 2.825 . S
C10 C4 1.507 . S
C10 O23 1.238 . S
C10 O24 1.247 . S
O11 Tb0 2.347 . S
O11 C15 1.259 . S
O12 Eu1 2.418 . S
O12 C15 1.265 1_655 S
O13 Eu1 2.384 1_455 S
O13 C22 1.255 . S
O14 Tb0 2.366 . S
O14 C22 1.265 . S
C15 O11 1.259 . S
C15 O12 1.265 1_455 S
O16 Eu1 2.479 . S
O16 C31 1.238 . S
O17 Eu1 2.471 . S
O17 C31 1.247 . S
O18 Eu1 2.347 1_455 S
O18 C2 1.259 . S
O19 Tb0 2.418 . S
O19 C2 1.265 . S
O20 Tb0 2.384 1_655 S
O20 C3 1.255 . S
O21 Eu1 2.366 . S
O21 C3 1.265 . S
C22 O13 1.255 . S
C22 O14 1.265 . S
O23 Tb0 2.479 . S
O23 C10 1.238 . S
O24 Tb0 2.471 . S
O24 C10 1.247 . S
C25 C28 1.380 . S
C25 C29 1.374 . S
C25 C31 1.507 . S
C26 C27 1.387 . S
C26 C30 1.391 . S
C27 C26 1.387 . S
C27 C28 1.384 . S
C27 H36 0.930 . S
C28 C25 1.380 . S
C28 C27 1.384 . S
C28 H37 0.931 . S
C29 C25 1.374 . S
C29 C30 1.390 . S
C29 H38 0.930 . S
C30 C26 1.391 . S
C30 C29 1.390 . S
C30 H39 0.930 . S
C31 Eu1 2.825 . S
C31 O16 1.238 . S
C31 O17 1.247 . S
C31 C25 1.507 . S
H32 C5 0.930 . S
H33 C6 0.931 . S
H34 C7 0.930 . S
H35 C8 0.930 . S
H36 C27 0.930 . S
H37 C28 0.931 . S
H38 C29 0.930 . S
H39 C30 0.930 . S
Tb40 C50 2.825 . S
Tb40 O51 2.347 . S
Tb40 O54 2.366 . S
Tb40 O59 2.418 . S
Tb40 O60 2.384 1_545 S
Tb40 O63 2.479 . S
Tb40 O64 2.471 . S
Eu41 O52 2.421 1_565 S
Eu41 O53 2.357 1_565 S
Eu41 O56 2.495 . S
Eu41 O57 2.489 . S
Eu41 O58 2.350 1_565 S
Eu41 O61 2.394 . S
Eu41 C71 2.844 . S
C42 O58 1.259 . S
C42 O59 1.265 . S
C43 O60 1.255 . S
C43 O61 1.265 . S
C44 C46 1.380 . S
C44 C47 1.374 . S
C44 C50 1.507 . S
C45 C46 1.384 . S
C45 C49 1.387 . S
C45 H72 0.930 . S
C46 C44 1.380 . S
C46 C45 1.384 . S
C46 H73 0.931 . S
C47 C44 1.374 . S
C47 C48 1.390 . S
C47 H74 0.930 . S
C48 C47 1.390 . S
C48 C49 1.391 . S
C48 H75 0.930 . S
C49 C45 1.387 . S
C49 C48 1.391 . S
C50 Tb40 2.825 . S
C50 C44 1.507 . S
C50 O63 1.238 . S
C50 O64 1.247 . S
O51 Tb40 2.347 . S
O51 C55 1.259 . S
O52 Eu41 2.421 1_545 S
O52 C55 1.266 . S
O53 Eu41 2.357 1_545 S
O53 C62 1.255 . S
O54 Tb40 2.366 . S
O54 C62 1.265 . S
C55 O51 1.259 . S
C55 O52 1.266 . S
O56 Eu41 2.495 . S
O56 C71 1.238 . S
O57 Eu41 2.489 . S
O57 C71 1.247 . S
O58 Eu41 2.350 1_545 S
O58 C42 1.259 . S
O59 Tb40 2.418 . S
O59 C42 1.265 . S
O60 Tb40 2.384 1_565 S
O60 C43 1.255 . S
O61 Eu41 2.394 . S
O61 C43 1.265 . S
C62 O53 1.255 . S
C62 O54 1.265 . S
O63 Tb40 2.479 . S
O63 C50 1.238 . S
O64 Tb40 2.471 . S
O64 C50 1.247 . S
C65 C68 1.380 . S
C65 C69 1.374 . S
C65 C71 1.507 . S
C66 C67 1.387 . S
C66 C70 1.391 . S
C67 C66 1.387 . S
C67 C68 1.384 . S
C67 H76 0.930 . S
C68 C65 1.380 . S
C68 C67 1.384 . S
C68 H77 0.931 . S
C69 C65 1.374 . S
C69 C70 1.390 . S
C69 H78 0.930 . S
C70 C66 1.391 . S
C70 C69 1.390 . S
C70 H79 0.930 . S
C71 Eu41 2.844 . S
C71 O56 1.238 . S
C71 O57 1.247 . S
C71 C65 1.507 . S
H72 C45 0.930 . S
H73 C46 0.931 . S
H74 C47 0.930 . S
H75 C48 0.930 . S
H76 C67 0.930 . S
H77 C68 0.931 . S
H78 C69 0.930 . S
H79 C70 0.930 . S
Tb80 C90 2.825 . S
Tb80 O91 2.347 . S
Tb80 O94 2.366 . S
Tb80 O99 2.418 . S
Tb80 O100 2.384 . S
Tb80 O103 2.479 . S
Tb80 O104 2.471 . S
Eu81 O92 2.418 . S
Eu81 O93 2.384 . S
Eu81 O96 2.479 . S
Eu81 O97 2.471 . S
Eu81 O98 2.347 . S
Eu81 O101 2.366 . S
Eu81 C111 2.825 . S
C82 O98 1.259 . S
C82 O99 1.265 . S
C83 O100 1.255 . S
C83 O101 1.265 . S
C84 C86 1.380 . S
C84 C87 1.374 . S
C84 C90 1.507 . S
C85 C86 1.384 . S
C85 C89 1.387 . S
C85 H112 0.930 . S
C86 C84 1.380 . S
C86 C85 1.384 . S
C86 H113 0.931 . S
C87 C84 1.374 . S
C87 C88 1.390 . S
C87 H114 0.930 . S
C88 C87 1.390 . S
C88 C89 1.391 . S
C88 H115 0.930 . S
C89 C85 1.387 . S
C89 C88 1.391 . S
C90 Tb80 2.825 . S
C90 C84 1.507 . S
C90 O103 1.238 . S
C90 O104 1.247 . S
O91 Tb80 2.347 . S
O91 C95 1.259 . S
O92 Eu81 2.418 . S
O92 C95 1.265 . S
O93 Eu81 2.384 . S
O93 C102 1.255 . S
O94 Tb80 2.366 . S
O94 C102 1.265 . S
C95 O91 1.259 . S
C95 O92 1.265 . S
O96 Eu81 2.479 . S
O96 C111 1.238 . S
O97 Eu81 2.471 . S
O97 C111 1.247 . S
O98 Eu81 2.347 . S
O98 C82 1.259 . S
O99 Tb80 2.418 . S
O99 C82 1.265 . S
O100 Tb80 2.384 . S
O100 C83 1.255 . S
O101 Eu81 2.366 . S
O101 C83 1.265 . S
C102 O93 1.255 . S
C102 O94 1.265 . S
O103 Tb80 2.479 . S
O103 C90 1.238 . S
O104 Tb80 2.471 . S
O104 C90 1.247 . S
C105 C108 1.380 . S
C105 C109 1.374 . S
C105 C111 1.507 . S
C106 C107 1.387 . S
C106 C110 1.391 . S
C107 C106 1.387 . S
C107 C108 1.384 . S
C107 H116 0.930 . S
C108 C105 1.380 . S
C108 C107 1.384 . S
C108 H117 0.931 . S
C109 C105 1.374 . S
C109 C110 1.390 . S
C109 H118 0.930 . S
C110 C106 1.391 . S
C110 C109 1.390 . S
C110 H119 0.930 . S
C111 Eu81 2.825 . S
C111 O96 1.238 . S
C111 O97 1.247 . S
C111 C105 1.507 . S
H112 C85 0.930 . S
H113 C86 0.931 . S
H114 C87 0.930 . S
H115 C88 0.930 . S
H116 C107 0.930 . S
H117 C108 0.931 . S
H118 C109 0.930 . S
H119 C110 0.930 . S
H120 C138 0.951 . S
H121 C140 0.951 . S
H122 C142 0.950 . S
H123 C143 0.944 1_556 S
H124 C145 0.950 . S
H125 C148 0.950 . S
H126 C149 0.944 1_556 S
H127 C151 0.950 . S
H128 C152 0.950 . S
H129 C153 0.951 . S
H130 C155 0.951 . S
H131 C157 0.950 1_554 S
H132 C158 0.950 . S
H133 C160 0.950 . S
H134 C163 0.950 1_554 S
H135 C164 0.950 . S
H136 C166 0.950 . S
H137 C167 0.950 . S
C138 H120 0.951 . S
C138 C139 1.366 . S
C138 C140 1.388 . S
C139 C138 1.366 . S
C139 C143 1.385 . S
C140 H121 0.951 . S
C140 C138 1.388 . S
C140 C141 1.366 . S
C141 C140 1.366 . S
C141 C142 1.414 1_554 S
C141 C144 1.499 . S
C142 H122 0.950 . S
C142 C141 1.414 1_556 S
C142 C143 1.374 1_556 S
C143 H123 0.944 1_554 S
C143 C139 1.385 . S
C143 C142 1.374 1_554 S
C144 C141 1.499 . S
C144 C145 1.373 1_554 S
C144 C146 1.389 . S
C145 H124 0.950 . S
C145 C144 1.373 1_556 S
C145 C161 1.377 . S
C146 C144 1.389 . S
C146 C147 1.524 . S
C146 C160 1.377 1_554 S
C147 C146 1.524 . S
C147 C148 1.397 1_554 S
C147 C152 1.363 . S
C148 H125 0.950 . S
C148 C147 1.397 1_556 S
C148 C149 1.332 1_556 S
C149 H126 0.944 1_554 S
C149 C148 1.332 1_554 S
C149 C150 1.295 . S
C150 C149 1.295 . S
C150 C151 1.524 . S
C150 H169 0.913 . S
C151 H127 0.950 . S
C151 C150 1.524 . S
C151 C152 1.415 . S
C152 H128 0.950 . S
C152 C147 1.363 . S
C152 C151 1.415 . S
C153 H129 0.951 . S
C153 C154 1.366 . S
C153 C155 1.388 . S
C154 C153 1.366 . S
C154 C158 1.385 . S
C155 H130 0.951 . S
C155 C153 1.388 . S
C155 C156 1.366 . S
C156 C155 1.366 . S
C156 C157 1.414 . S
C156 C159 1.499 . S
C157 H131 0.950 1_556 S
C157 C156 1.414 . S
C157 C158 1.374 . S
C158 H132 0.950 . S
C158 C154 1.385 . S
C158 C157 1.374 . S
C159 C156 1.499 . S
C159 C160 1.373 . S
C159 C161 1.389 . S
C160 H133 0.950 . S
C160 C146 1.377 1_556 S
C160 C159 1.373 . S
C161 C145 1.377 . S
C161 C159 1.389 . S
C161 C162 1.524 . S
C162 C161 1.524 . S
C162 C163 1.397 . S
C162 C167 1.363 . S
C163 H134 0.950 1_556 S
C163 C162 1.397 . S
C163 C164 1.334 . S
C164 H135 0.950 . S
C164 C163 1.334 . S
C164 C165 1.287 . S
C165 C164 1.287 . S
C165 C166 1.524 . S
C165 H168 0.999 . S
C166 H136 0.950 . S
C166 C165 1.524 . S
C166 C167 1.415 . S
C167 H137 0.950 . S
C167 C162 1.363 . S
C167 C166 1.415 . S
H168 C165 0.999 . S
H169 C150 0.913 . S
H170 C188 0.951 . S
H171 C190 0.951 . S
H172 C192 0.950 . S
H173 C193 0.950 . S
H174 C195 0.950 . S
H175 C198 0.950 . S
H176 C199 0.950 . S
H177 C201 0.950 . S
H178 C202 0.950 . S
H179 C203 0.951 . S
H180 C205 0.951 . S
H181 C207 0.950 . S
H182 C208 0.950 . S
H183 C210 0.950 . S
H184 C213 0.950 . S
H185 C214 0.950 . S
H186 C216 0.950 . S
H187 C217 0.950 . S
C188 H170 0.951 . S
C188 C189 1.366 . S
C188 C190 1.388 . S
C189 C188 1.366 . S
C189 C193 1.385 . S
C190 H171 0.951 . S
C190 C188 1.388 . S
C190 C191 1.366 . S
C191 C190 1.366 . S
C191 C192 1.414 . S
C191 C194 1.499 . S
C192 H172 0.950 . S
C192 C191 1.414 . S
C192 C193 1.374 . S
C193 H173 0.950 . S
C193 C189 1.385 . S
C193 C192 1.374 . S
C194 C191 1.499 . S
C194 C195 1.373 . S
C194 C196 1.389 . S
C195 H174 0.950 . S
C195 C194 1.373 . S
C195 C211 1.377 . S
C196 C194 1.389 . S
C196 C197 1.524 . S
C196 C210 1.377 . S
C197 C196 1.524 . S
C197 C198 1.397 . S
C197 C202 1.363 . S
C198 H175 0.950 . S
C198 C197 1.397 . S
C198 C199 1.334 . S
C199 H176 0.950 . S
C199 C198 1.334 . S
C199 C200 1.287 . S
C200 C199 1.287 . S
C200 C201 1.524 . S
C200 H219 0.913 . S
C201 H177 0.950 . S
C201 C200 1.524 . S
C201 C202 1.415 . S
C202 H178 0.950 . S
C202 C197 1.363 . S
C202 C201 1.415 . S
C203 H179 0.951 . S
C203 C204 1.366 . S
C203 C205 1.388 . S
C204 C203 1.366 . S
C204 C208 1.385 . S
C205 H180 0.951 . S
C205 C203 1.388 . S
C205 C206 1.366 . S
C206 C205 1.366 . S
C206 C207 1.414 . S
C206 C209 1.499 . S
C207 H181 0.950 . S
C207 C206 1.414 . S
C207 C208 1.374 . S
C208 H182 0.950 . S
C208 C204 1.385 . S
C208 C207 1.374 . S
C209 C206 1.499 . S
C209 C210 1.373 . S
C209 C211 1.389 . S
C210 H183 0.950 . S
C210 C196 1.377 . S
C210 C209 1.373 . S
C211 C195 1.377 . S
C211 C209 1.389 . S
C211 C212 1.524 . S
C212 C211 1.524 . S
C212 C213 1.397 . S
C212 C217 1.363 . S
C213 H184 0.950 . S
C213 C212 1.397 . S
C213 C214 1.334 . S
C214 H185 0.950 . S
C214 C213 1.334 . S
C214 C215 1.287 . S
C215 C214 1.287 . S
C215 C216 1.524 . S
C215 H218 0.999 . S
C216 H186 0.950 . S
C216 C215 1.524 . S
C216 C217 1.415 . S
C217 H187 0.950 . S
C217 C212 1.363 . S
C217 C216 1.415 . S
H218 C215 0.999 . S
H219 C200 0.913 . S
H220 C238 0.951 . S
H221 C240 0.951 . S
H222 C242 0.950 . S
H223 C243 0.950 . S
H224 C245 0.950 . S
H225 C248 0.950 . S
H226 C249 0.950 . S
H227 C251 0.950 . S
H228 C252 0.950 . S
H229 C253 0.951 . S
H230 C255 0.951 . S
H231 C257 0.950 . S
H232 C258 0.950 . S
H233 C260 0.950 . S
H234 C263 0.950 . S
H235 C264 0.950 . S
H236 C266 0.950 . S
H237 C267 0.950 . S
C238 H220 0.951 . S
C238 C239 1.366 . S
C238 C240 1.388 . S
C239 C238 1.366 . S
C239 C243 1.385 . S
C240 H221 0.951 . S
C240 C238 1.388 . S
C240 C241 1.366 . S
C241 C240 1.366 . S
C241 C242 1.414 . S
C241 C244 1.499 . S
C242 H222 0.950 . S
C242 C241 1.414 . S
C242 C243 1.374 . S
C243 H223 0.950 . S
C243 C239 1.385 . S
C243 C242 1.374 . S
C244 C241 1.499 . S
C244 C245 1.373 . S
C244 C246 1.389 . S
C245 H224 0.950 . S
C245 C244 1.373 . S
C245 C261 1.377 . S
C246 C244 1.389 . S
C246 C247 1.524 . S
C246 C260 1.377 . S
C247 C246 1.524 . S
C247 C248 1.397 . S
C247 C252 1.363 . S
C248 H225 0.950 . S
C248 C247 1.397 . S
C248 C249 1.334 . S
C249 H226 0.950 . S
C249 C248 1.334 . S
C249 C250 1.287 . S
C250 C249 1.287 . S
C250 C251 1.524 . S
C250 H269 0.913 . S
C251 H227 0.950 . S
C251 C250 1.524 . S
C251 C252 1.415 . S
C252 H228 0.950 . S
C252 C247 1.363 . S
C252 C251 1.415 . S
C253 H229 0.951 . S
C253 C254 1.366 . S
C253 C255 1.388 . S
C254 C253 1.366 . S
C254 C258 1.385 . S
C255 H230 0.951 . S
C255 C253 1.388 . S
C255 C256 1.366 . S
C256 C255 1.366 . S
C256 C257 1.414 . S
C256 C259 1.499 . S
C257 H231 0.950 . S
C257 C256 1.414 . S
C257 C258 1.374 . S
C258 H232 0.950 . S
C258 C254 1.385 . S
C258 C257 1.374 . S
C259 C256 1.499 . S
C259 C260 1.373 . S
C259 C261 1.389 . S
C260 H233 0.950 . S
C260 C246 1.377 . S
C260 C259 1.373 . S
C261 C245 1.377 . S
C261 C259 1.389 . S
C261 C262 1.524 . S
C262 C261 1.524 . S
C262 C263 1.397 . S
C262 C267 1.363 . S
C263 H234 0.950 . S
C263 C262 1.397 . S
C263 C264 1.334 . S
C264 H235 0.950 . S
C264 C263 1.334 . S
C264 C265 1.287 . S
C265 C264 1.287 . S
C265 C266 1.524 . S
C265 H268 0.999 . S
C266 H236 0.950 . S
C266 C265 1.524 . S
C266 C267 1.415 . S
C267 H237 0.950 . S
C267 C262 1.363 . S
C267 C266 1.415 . S
H268 C265 0.999 . S
H269 C250 0.913 . S
H270 C288 0.951 . S
H271 C290 0.951 1_554 S
H272 C292 0.950 . S
H273 C293 0.950 . S
H274 C295 0.950 . S
H275 C298 0.950 1_556 S
H276 C299 0.950 1_556 S
H277 C301 0.950 . S
H278 C302 0.950 . S
H279 C303 0.951 . S
H280 C305 0.951 1_556 S
H281 C307 0.950 . S
H282 C308 0.950 . S
H283 C310 0.950 . S
H284 C313 0.950 . S
H285 C314 0.950 . S
H286 C316 0.950 . S
H287 C317 0.950 . S
C288 H270 0.951 . S
C288 C289 1.366 . S
C288 C290 1.388 . S
C289 C288 1.366 . S
C289 C293 1.385 . S
C290 H271 0.951 1_556 S
C290 C288 1.388 . S
C290 C291 1.366 . S
C291 C290 1.366 . S
C291 C292 1.414 . S
C291 C294 1.499 . S
C292 H272 0.950 . S
C292 C291 1.414 . S
C292 C293 1.374 . S
C293 H273 0.950 . S
C293 C289 1.385 . S
C293 C292 1.374 . S
C294 C291 1.499 . S
C294 C295 1.373 . S
C294 C296 1.389 1_556 S
C295 H274 0.950 . S
C295 C294 1.373 . S
C295 C311 1.377 . S
C296 C294 1.389 1_554 S
C296 C297 1.524 . S
C296 C310 1.377 . S
C297 C296 1.524 . S
C297 C298 1.397 . S
C297 C302 1.363 . S
C298 H275 0.950 1_554 S
C298 C297 1.397 . S
C298 C299 1.334 . S
C299 H276 0.950 1_554 S
C299 C298 1.334 . S
C299 C300 1.287 . S
C300 C299 1.287 . S
C300 C301 1.524 . S
C300 H319 0.913 . S
C301 H277 0.950 . S
C301 C300 1.524 . S
C301 C302 1.415 . S
C302 H278 0.950 . S
C302 C297 1.363 . S
C302 C301 1.415 . S
C303 H279 0.951 . S
C303 C304 1.366 . S
C303 C305 1.388 . S
C304 C303 1.366 . S
C304 C308 1.385 . S
C305 H280 0.951 1_554 S
C305 C303 1.388 . S
C305 C306 1.366 . S
C306 C305 1.366 . S
C306 C307 1.414 . S
C306 C309 1.499 . S
C307 H281 0.950 . S
C307 C306 1.414 . S
C307 C308 1.374 . S
C308 H282 0.950 . S
C308 C304 1.385 . S
C308 C307 1.374 . S
C309 C306 1.499 . S
C309 C310 1.373 . S
C309 C311 1.389 1_554 S
C310 H283 0.950 . S
C310 C296 1.377 . S
C310 C309 1.373 . S
C311 C295 1.377 . S
C311 C309 1.389 1_556 S
C311 C312 1.524 . S
C312 C311 1.524 . S
C312 C313 1.397 1_556 S
C312 C317 1.363 . S
C313 H284 0.950 . S
C313 C312 1.397 1_554 S
C313 C314 1.334 . S
C314 H285 0.950 . S
C314 C313 1.334 . S
C314 C315 1.287 1_554 S
C315 C314 1.287 1_556 S
C315 C316 1.524 . S
C315 H318 0.999 . S
C316 H286 0.950 . S
C316 C315 1.524 . S
C316 C317 1.415 . S
C317 H287 0.950 . S
C317 C312 1.363 . S
C317 C316 1.415 . S
H318 C315 0.999 . S
H319 C300 0.913 . S
H320 C338 0.951 . S
H321 C340 0.951 . S
H322 C342 0.950 . S
H323 C343 0.950 . S
H324 C345 0.950 . S
H325 C348 0.950 . S
H326 C349 0.950 . S
H327 C351 0.950 . S
H328 C352 0.950 . S
H329 C353 0.951 . S
H330 C355 0.951 . S
H331 C357 0.950 . S
H332 C358 0.950 . S
H333 C360 0.950 . S
H334 C363 0.950 . S
H335 C364 0.950 . S
H336 C366 0.950 . S
H337 C367 0.950 . S
C338 H320 0.951 . S
C338 C339 1.366 . S
C338 C340 1.388 . S
C339 C338 1.366 . S
C339 C343 1.385 . S
C340 H321 0.951 . S
C340 C338 1.388 . S
C340 C341 1.366 . S
C341 C340 1.366 . S
C341 C342 1.414 . S
C341 C344 1.499 . S
C342 H322 0.950 . S
C342 C341 1.414 . S
C342 C343 1.374 . S
C343 H323 0.950 . S
C343 C339 1.385 . S
C343 C342 1.374 . S
C344 C341 1.499 . S
C344 C345 1.373 . S
C344 C346 1.389 . S
C345 H324 0.950 . S
C345 C344 1.373 . S
C345 C361 1.377 . S
C346 C344 1.389 . S
C346 C347 1.524 . S
C346 C360 1.377 . S
C347 C346 1.524 . S
C347 C348 1.397 . S
C347 C352 1.363 . S
C348 H325 0.950 . S
C348 C347 1.397 . S
C348 C349 1.334 . S
C349 H326 0.950 . S
C349 C348 1.334 . S
C349 C350 1.287 . S
C350 C349 1.287 . S
C350 C351 1.524 . S
C350 H369 0.913 . S
C351 H327 0.950 . S
C351 C350 1.524 . S
C351 C352 1.415 . S
C352 H328 0.950 . S
C352 C347 1.363 . S
C352 C351 1.415 . S
C353 H329 0.951 . S
C353 C354 1.366 . S
C353 C355 1.388 . S
C354 C353 1.366 . S
C354 C358 1.385 . S
C355 H330 0.951 . S
C355 C353 1.388 . S
C355 C356 1.366 . S
C356 C355 1.366 . S
C356 C357 1.414 . S
C356 C359 1.499 . S
C357 H331 0.950 . S
C357 C356 1.414 . S
C357 C358 1.374 . S
C358 H332 0.950 . S
C358 C354 1.385 . S
C358 C357 1.374 . S
C359 C356 1.499 . S
C359 C360 1.373 . S
C359 C361 1.389 . S
C360 H333 0.950 . S
C360 C346 1.377 . S
C360 C359 1.373 . S
C361 C345 1.377 . S
C361 C359 1.389 . S
C361 C362 1.524 . S
C362 C361 1.524 . S
C362 C363 1.397 . S
C362 C367 1.363 . S
C363 H334 0.950 . S
C363 C362 1.397 . S
C363 C364 1.334 . S
C364 H335 0.950 . S
C364 C363 1.334 . S
C364 C365 1.287 . S
C365 C364 1.287 . S
C365 C366 1.524 . S
C365 H368 0.999 . S
C366 H336 0.950 . S
C366 C365 1.524 . S
C366 C367 1.415 . S
C367 H337 0.950 . S
C367 C362 1.363 . S
C367 C366 1.415 . S
H368 C365 0.999 . S
H369 C350 0.913 . S
H370 C388 0.951 . S
H371 C390 0.951 . S
H372 C392 0.950 . S
H373 C393 0.950 . S
H374 C395 0.950 . S
H375 C398 0.950 . S
H376 C399 0.950 . S
H377 C401 0.950 1_554 S
H378 C402 0.950 . S
H379 C403 0.951 . S
H380 C405 0.951 . S
H381 C407 0.950 . S
H382 C408 0.950 . S
H383 C410 0.950 . S
H384 C413 0.950 . S
H385 C414 0.950 . S
H386 C416 0.950 . S
H387 C417 0.950 . S
C388 H370 0.951 . S
C388 C389 1.366 . S
C388 C390 1.388 . S
C389 C388 1.366 . S
C389 C393 1.385 . S
C390 H371 0.951 . S
C390 C388 1.388 . S
C390 C391 1.366 . S
C391 C390 1.366 . S
C391 C392 1.414 . S
C391 C394 1.499 . S
C392 H372 0.950 . S
C392 C391 1.414 . S
C392 C393 1.374 . S
C393 H373 0.950 . S
C393 C389 1.385 . S
C393 C392 1.374 . S
C394 C391 1.499 . S
C394 C395 1.373 . S
C394 C396 1.389 . S
C395 H374 0.950 . S
C395 C394 1.373 . S
C395 C411 1.377 . S
C396 C394 1.389 . S
C396 C397 1.524 . S
C396 C410 1.377 . S
C397 C396 1.524 . S
C397 C398 1.397 . S
C397 C402 1.363 . S
C398 H375 0.950 . S
C398 C397 1.397 . S
C398 C399 1.334 . S
C399 H376 0.950 . S
C399 C398 1.334 . S
C399 C400 1.287 . S
C400 C399 1.287 . S
C400 C401 1.524 . S
C400 H419 0.913 1_556 S
C401 H377 0.950 1_556 S
C401 C400 1.524 . S
C401 C402 1.415 . S
C402 H378 0.950 . S
C402 C397 1.363 . S
C402 C401 1.415 . S
C403 H379 0.951 . S
C403 C404 1.366 . S
C403 C405 1.388 . S
C404 C403 1.366 . S
C404 C408 1.385 . S
C405 H380 0.951 . S
C405 C403 1.388 . S
C405 C406 1.366 . S
C406 C405 1.366 . S
C406 C407 1.414 . S
C406 C409 1.499 . S
C407 H381 0.950 . S
C407 C406 1.414 . S
C407 C408 1.374 . S
C408 H382 0.950 . S
C408 C404 1.385 . S
C408 C407 1.374 . S
C409 C406 1.499 . S
C409 C410 1.373 . S
C409 C411 1.389 . S
C410 H383 0.950 . S
C410 C396 1.377 . S
C410 C409 1.373 . S
C411 C395 1.377 . S
C411 C409 1.389 . S
C411 C412 1.524 . S
C412 C411 1.524 . S
C412 C413 1.397 . S
C412 C417 1.363 . S
C413 H384 0.950 . S
C413 C412 1.397 . S
C413 C414 1.334 . S
C414 H385 0.950 . S
C414 C413 1.334 . S
C414 C415 1.287 . S
C415 C414 1.287 . S
C415 C416 1.524 . S
C415 H418 0.999 . S
C416 H386 0.950 . S
C416 C415 1.524 . S
C416 C417 1.415 . S
C417 H387 0.950 . S
C417 C412 1.363 . S
C417 C416 1.415 . S
H418 C415 0.999 . S
H419 C400 0.913 1_554 S
H420 C438 0.951 . S
H421 C440 0.951 . S
H422 C442 0.950 . S
H423 C443 0.950 1_554 S
H424 C445 0.950 1_655 S
H425 C448 0.950 . S
H426 C449 0.950 . S
H427 C451 0.950 . S
H428 C452 0.950 . S
H429 C453 0.951 . S
H430 C455 0.951 . S
H431 C457 0.950 . S
H432 C458 0.950 . S
H433 C460 0.950 . S
H434 C463 0.950 . S
H435 C464 0.950 . S
H436 C466 0.950 . S
H437 C467 0.929 1_455 S
C438 H420 0.951 . S
C438 C439 1.366 1_656 S
C438 C440 1.388 . S
C439 C438 1.366 1_454 S
C439 C443 1.385 1_554 S
C440 H421 0.951 . S
C440 C438 1.388 . S
C440 C441 1.366 1_655 S
C441 C440 1.366 1_455 S
C441 C442 1.414 . S
C441 C444 1.499 . S
C442 H422 0.950 . S
C442 C441 1.414 . S
C442 C443 1.374 . S
C443 H423 0.950 1_556 S
C443 C439 1.385 1_556 S
C443 C442 1.374 . S
C444 C441 1.499 . S
C444 C445 1.373 . S
C444 C446 1.389 . S
C445 H424 0.950 1_455 S
C445 C444 1.373 . S
C445 C461 1.377 . S
C446 C444 1.389 . S
C446 C447 1.524 . S
C446 C460 1.377 . S
C447 C446 1.524 . S
C447 C448 1.397 . S
C447 C452 1.363 . S
C448 H425 0.950 . S
C448 C447 1.397 . S
C448 C449 1.334 . S
C449 H426 0.950 . S
C449 C448 1.334 . S
C449 C450 1.287 . S
C450 C449 1.287 . S
C450 C451 1.524 . S
C450 H469 0.913 . S
C451 H427 0.950 . S
C451 C450 1.524 . S
C451 C452 1.415 . S
C452 H428 0.950 . S
C452 C447 1.363 . S
C452 C451 1.415 . S
C453 H429 0.951 . S
C453 C454 1.366 . S
C453 C455 1.388 . S
C454 C453 1.366 . S
C454 C458 1.385 1_455 S
C455 H430 0.951 . S
C455 C453 1.388 . S
C455 C456 1.366 . S
C456 C455 1.366 . S
C456 C457 1.414 1_455 S
C456 C459 1.499 . S
C457 H431 0.950 . S
C457 C456 1.414 1_655 S
C457 C458 1.374 . S
C458 H432 0.950 . S
C458 C454 1.385 1_655 S
C458 C457 1.374 . S
C459 C456 1.499 . S
C459 C460 1.373 . S
C459 C461 1.389 . S
C460 H433 0.950 . S
C460 C446 1.377 . S
C460 C459 1.373 . S
C461 C445 1.377 . S
C461 C459 1.389 . S
C461 C462 1.524 1_455 S
C462 C461 1.524 1_655 S
C462 C463 1.397 . S
C462 C467 1.358 . S
C463 H434 0.950 . S
C463 C462 1.397 . S
C463 C464 1.334 . S
C464 H435 0.950 . S
C464 C463 1.334 . S
C464 C465 1.287 . S
C465 C464 1.287 . S
C465 C466 1.524 . S
C465 H468 0.999 . S
C466 H436 0.950 . S
C466 C465 1.524 . S
C466 C467 1.442 . S
C467 H437 0.929 1_655 S
C467 C462 1.358 . S
C467 C466 1.442 . S
H468 C465 0.999 . S
H469 C450 0.913 . S
H470 C488 0.951 . S
H471 C490 0.951 . S
H472 C492 0.950 . S
H473 C493 0.950 . S
H474 C495 0.950 . S
H475 C498 0.950 . S
H476 C499 0.950 1_545 S
H477 C501 0.950 . S
H478 C502 0.950 . S
H479 C503 0.951 . S
H480 C505 0.951 . S
H481 C507 0.950 . S
H482 C508 0.950 . S
H483 C510 0.950 1_565 S
H484 C513 0.950 . S
H485 C514 0.950 . S
H486 C516 0.950 . S
H487 C517 0.950 . S
C488 H470 0.951 . S
C488 C489 1.366 1_565 S
C488 C490 1.388 . S
C489 C488 1.366 1_545 S
C489 C493 1.385 . S
C490 H471 0.951 . S
C490 C488 1.388 . S
C490 C491 1.366 1_565 S
C491 C490 1.366 1_545 S
C491 C492 1.414 . S
C491 C494 1.499 . S
C492 H472 0.950 . S
C492 C491 1.414 . S
C492 C493 1.374 . S
C493 H473 0.950 . S
C493 C489 1.385 . S
C493 C492 1.374 . S
C494 C491 1.499 . S
C494 C495 1.373 . S
C494 C496 1.389 . S
C495 H474 0.950 . S
C495 C494 1.373 . S
C495 C511 1.377 1_554 S
C496 C494 1.389 . S
C496 C497 1.524 1_545 S
C496 C510 1.377 1_554 S
C497 C496 1.524 1_565 S
C497 C498 1.397 1_565 S
C497 C502 1.363 . S
C498 H475 0.950 . S
C498 C497 1.397 1_545 S
C498 C499 1.334 1_545 S
C499 H476 0.950 1_565 S
C499 C498 1.334 1_565 S
C499 C500 1.287 . S
C500 C499 1.287 . S
C500 C501 1.524 . S
C500 H519 0.913 . S
C501 H477 0.950 . S
C501 C500 1.524 . S
C501 C502 1.415 . S
C502 H478 0.950 . S
C502 C497 1.363 . S
C502 C501 1.415 . S
C503 H479 0.951 . S
C503 C504 1.366 . S
C503 C505 1.388 . S
C504 C503 1.366 . S
C504 C508 1.385 1_545 S
C505 H480 0.951 . S
C505 C503 1.388 . S
C505 C506 1.366 . S
C506 C505 1.366 . S
C506 C507 1.414 1_545 S
C506 C509 1.499 . S
C507 H481 0.950 . S
C507 C506 1.414 1_565 S
C507 C508 1.374 . S
C508 H482 0.950 . S
C508 C504 1.385 1_565 S
C508 C507 1.374 . S
C509 C506 1.499 . S
C509 C510 1.373 . S
C509 C511 1.389 . S
C510 H483 0.950 1_545 S
C510 C496 1.377 1_556 S
C510 C509 1.373 . S
C511 C495 1.377 1_556 S
C511 C509 1.389 . S
C511 C512 1.524 . S
C512 C511 1.524 . S
C512 C513 1.397 . S
C512 C517 1.363 . S
C513 H484 0.950 . S
C513 C512 1.397 . S
C513 C514 1.334 . S
C514 H485 0.950 . S
C514 C513 1.334 . S
C514 C515 1.287 . S
C515 C514 1.287 . S
C515 C516 1.524 . S
C515 H518 0.999 . S
C516 H486 0.950 . S
C516 C515 1.524 . S
C516 C517 1.415 . S
C517 H487 0.950 . S
C517 C512 1.363 . S
C517 C516 1.415 . S
H518 C515 0.999 . S
H519 C500 0.913 . S
H520 C538 0.951 . S
H521 C540 0.951 . S
H522 C542 0.950 . S
H523 C543 0.950 . S
H524 C545 0.950 . S
H525 C548 0.950 . S
H526 C549 0.950 . S
H527 C551 0.950 . S
H528 C552 0.950 . S
H529 C553 0.951 . S
H530 C555 0.951 . S
H531 C557 0.950 . S
H532 C558 0.950 1_556 S
H533 C560 0.950 . S
H534 C563 0.950 . S
H535 C564 0.950 . S
H536 C566 0.950 . S
H537 C567 0.950 . S
C538 H520 0.951 . S
C538 C539 1.366 . S
C538 C540 1.388 . S
C539 C538 1.366 . S
C539 C543 1.385 . S
C540 H521 0.951 . S
C540 C538 1.388 . S
C540 C541 1.366 . S
C541 C540 1.366 . S
C541 C542 1.414 . S
C541 C544 1.499 . S
C542 H522 0.950 . S
C542 C541 1.414 . S
C542 C543 1.374 . S
C543 H523 0.950 . S
C543 C539 1.385 . S
C543 C542 1.374 . S
C544 C541 1.499 . S
C544 C545 1.373 . S
C544 C546 1.389 . S
C545 H524 0.950 . S
C545 C544 1.373 . S
C545 C561 1.377 . S
C546 C544 1.389 . S
C546 C547 1.524 . S
C546 C560 1.377 . S
C547 C546 1.524 . S
C547 C548 1.397 . S
C547 C552 1.363 . S
C548 H525 0.950 . S
C548 C547 1.397 . S
C548 C549 1.334 . S
C549 H526 0.950 . S
C549 C548 1.334 . S
C549 C550 1.287 . S
C550 C549 1.287 . S
C550 C551 1.524 . S
C550 H569 0.913 . S
C551 H527 0.950 . S
C551 C550 1.524 . S
C551 C552 1.415 . S
C552 H528 0.950 . S
C552 C547 1.363 . S
C552 C551 1.415 . S
C553 H529 0.951 . S
C553 C554 1.366 1_554 S
C553 C555 1.388 . S
C554 C553 1.366 1_556 S
C554 C558 1.385 1_556 S
C555 H530 0.951 . S
C555 C553 1.388 . S
C555 C556 1.366 . S
C556 C555 1.366 . S
C556 C557 1.414 . S
C556 C559 1.499 . S
C557 H531 0.950 . S
C557 C556 1.414 . S
C557 C558 1.374 . S
C558 H532 0.950 1_554 S
C558 C554 1.385 1_554 S
C558 C557 1.374 . S
C559 C556 1.499 . S
C559 C560 1.373 . S
C559 C561 1.389 . S
C560 H533 0.950 . S
C560 C546 1.377 . S
C560 C559 1.373 . S
C561 C545 1.377 . S
C561 C559 1.389 . S
C561 C562 1.524 . S
C562 C561 1.524 . S
C562 C563 1.397 . S
C562 C567 1.363 . S
C563 H534 0.950 . S
C563 C562 1.397 . S
C563 C564 1.334 . S
C564 H535 0.950 . S
C564 C563 1.334 . S
C564 C565 1.287 . S
C565 C564 1.287 . S
C565 C566 1.524 . S
C565 H568 0.999 . S
C566 H536 0.950 . S
C566 C565 1.524 . S
C566 C567 1.415 . S
C567 H537 0.950 . S
C567 C562 1.363 . S
C567 C566 1.415 . S
H568 C565 0.999 . S
H569 C550 0.913 . S
C139 C9 2.078 . S
C154 C102 2.068 . S
C189 C49 2.196 . S
C204 C3 2.180 . S
C239 C43 2.083 . S
C254 C89 2.090 . S
C289 C83 2.168 . S
C304 C26 2.118 . S
C339 C66 1.992 . S
C354 C22 2.038 . S
C389 C106 2.100 . S
C404 C62 2.143 . S
C439 C15 0.367 . S
C454 C2 0.367 . S
C489 C55 0.350 . S
C504 C42 0.350 . S
C539 C95 0.368 . S
C554 C82 0.368 . S
