# Generated by pormake.
# Topology wiv, (6)-cn, num edge types: 1
# Building blocks:
#     Node 0, Type 0, BuildingBlock: INOVEN_clean_sbu_0, # of connection points: 6
#     Node 1, Type 0, BuildingBlock: INOVEN_clean_sbu_0, # of connection points: 6
#     Node 2, Type 0, BuildingBlock: INOVEN_clean_sbu_0, # of connection points: 6
#     Node 3, Type 0, BuildingBlock: INOVEN_clean_sbu_0, # of connection points: 6
#     Node 4, Type 0, BuildingBlock: INOVEN_clean_sbu_0, # of connection points: 6
#     Node 5, Type 0, BuildingBlock: INOVEN_clean_sbu_0, # of connection points: 6
#     Node 6, Type 0, BuildingBlock: INOVEN_clean_sbu_0, # of connection points: 6
#     Node 7, Type 0, BuildingBlock: INOVEN_clean_sbu_0, # of connection points: 6
#     Node 8, Type 0, BuildingBlock: INOVEN_clean_sbu_0, # of connection points: 6
#     Node 9, Type 0, BuildingBlock: INOVEN_clean_sbu_0, # of connection points: 6
#     Node 10, Type 0, BuildingBlock: INOVEN_clean_sbu_0, # of connection points: 6
#     Node 11, Type 0, BuildingBlock: INOVEN_clean_sbu_0, # of connection points: 6
#     Node 12, Type 0, BuildingBlock: INOVEN_clean_sbu_0, # of connection points: 6
#     Node 13, Type 0, BuildingBlock: INOVEN_clean_sbu_0, # of connection points: 6
#     Node 14, Type 0, BuildingBlock: INOVEN_clean_sbu_0, # of connection points: 6
#     Node 15, Type 0, BuildingBlock: INOVEN_clean_sbu_0, # of connection points: 6
#     Edge 16, Type (0, 0), BuildingBlock: UVAHIK_clean_linker_0, # of connection points: 2
#     Edge 17, Type (0, 0), BuildingBlock: UVAHIK_clean_linker_0, # of connection points: 2
#     Edge 18, Type (0, 0), BuildingBlock: UVAHIK_clean_linker_0, # of connection points: 2
#     Edge 19, Type (0, 0), BuildingBlock: UVAHIK_clean_linker_0, # of connection points: 2
#     Edge 20, Type (0, 0), BuildingBlock: UVAHIK_clean_linker_0, # of connection points: 2
#     Edge 21, Type (0, 0), BuildingBlock: UVAHIK_clean_linker_0, # of connection points: 2
#     Edge 22, Type (0, 0), BuildingBlock: UVAHIK_clean_linker_0, # of connection points: 2
#     Edge 23, Type (0, 0), BuildingBlock: UVAHIK_clean_linker_0, # of connection points: 2
#     Edge 24, Type (0, 0), BuildingBlock: UVAHIK_clean_linker_0, # of connection points: 2
#     Edge 25, Type (0, 0), BuildingBlock: UVAHIK_clean_linker_0, # of connection points: 2
#     Edge 26, Type (0, 0), BuildingBlock: UVAHIK_clean_linker_0, # of connection points: 2
#     Edge 27, Type (0, 0), BuildingBlock: UVAHIK_clean_linker_0, # of connection points: 2
#     Edge 28, Type (0, 0), BuildingBlock: UVAHIK_clean_linker_0, # of connection points: 2
#     Edge 29, Type (0, 0), BuildingBlock: UVAHIK_clean_linker_0, # of connection points: 2
#     Edge 30, Type (0, 0), BuildingBlock: UVAHIK_clean_linker_0, # of connection points: 2
#     Edge 31, Type (0, 0), BuildingBlock: UVAHIK_clean_linker_0, # of connection points: 2
#     Edge 32, Type (0, 0), BuildingBlock: UVAHIK_clean_linker_0, # of connection points: 2
#     Edge 33, Type (0, 0), BuildingBlock: UVAHIK_clean_linker_0, # of connection points: 2
#     Edge 34, Type (0, 0), BuildingBlock: UVAHIK_clean_linker_0, # of connection points: 2
#     Edge 35, Type (0, 0), BuildingBlock: UVAHIK_clean_linker_0, # of connection points: 2
#     Edge 36, Type (0, 0), BuildingBlock: UVAHIK_clean_linker_0, # of connection points: 2
#     Edge 37, Type (0, 0), BuildingBlock: UVAHIK_clean_linker_0, # of connection points: 2
#     Edge 38, Type (0, 0), BuildingBlock: UVAHIK_clean_linker_0, # of connection points: 2
#     Edge 39, Type (0, 0), BuildingBlock: UVAHIK_clean_linker_0, # of connection points: 2
#     Edge 40, Type (0, 0), BuildingBlock: UVAHIK_clean_linker_0, # of connection points: 2
#     Edge 41, Type (0, 0), BuildingBlock: UVAHIK_clean_linker_0, # of connection points: 2
#     Edge 42, Type (0, 0), BuildingBlock: UVAHIK_clean_linker_0, # of connection points: 2
#     Edge 43, Type (0, 0), BuildingBlock: UVAHIK_clean_linker_0, # of connection points: 2
#     Edge 44, Type (0, 0), BuildingBlock: UVAHIK_clean_linker_0, # of connection points: 2
#     Edge 45, Type (0, 0), BuildingBlock: UVAHIK_clean_linker_0, # of connection points: 2
#     Edge 46, Type (0, 0), BuildingBlock: UVAHIK_clean_linker_0, # of connection points: 2
#     Edge 47, Type (0, 0), BuildingBlock: UVAHIK_clean_linker_0, # of connection points: 2
#     Edge 48, Type (0, 0), BuildingBlock: UVAHIK_clean_linker_0, # of connection points: 2
#     Edge 49, Type (0, 0), BuildingBlock: UVAHIK_clean_linker_0, # of connection points: 2
#     Edge 50, Type (0, 0), BuildingBlock: UVAHIK_clean_linker_0, # of connection points: 2
#     Edge 51, Type (0, 0), BuildingBlock: UVAHIK_clean_linker_0, # of connection points: 2
#     Edge 52, Type (0, 0), BuildingBlock: UVAHIK_clean_linker_0, # of connection points: 2
#     Edge 53, Type (0, 0), BuildingBlock: UVAHIK_clean_linker_0, # of connection points: 2
#     Edge 54, Type (0, 0), BuildingBlock: UVAHIK_clean_linker_0, # of connection points: 2
#     Edge 55, Type (0, 0), BuildingBlock: UVAHIK_clean_linker_0, # of connection points: 2
#     Edge 56, Type (0, 0), BuildingBlock: UVAHIK_clean_linker_0, # of connection points: 2
#     Edge 57, Type (0, 0), BuildingBlock: UVAHIK_clean_linker_0, # of connection points: 2
#     Edge 58, Type (0, 0), BuildingBlock: UVAHIK_clean_linker_0, # of connection points: 2
#     Edge 59, Type (0, 0), BuildingBlock: UVAHIK_clean_linker_0, # of connection points: 2
#     Edge 60, Type (0, 0), BuildingBlock: UVAHIK_clean_linker_0, # of connection points: 2
#     Edge 61, Type (0, 0), BuildingBlock: UVAHIK_clean_linker_0, # of connection points: 2
#     Edge 62, Type (0, 0), BuildingBlock: UVAHIK_clean_linker_0, # of connection points: 2
#     Edge 63, Type (0, 0), BuildingBlock: UVAHIK_clean_linker_0, # of connection points: 2
# Relax obj value: 0.091
# Max RMSD: 0.160
# Mean RMSD: 0.160
data_MOF--net-wiv--node1-INOVEN_clean_sbu_0--edge1-UVAHIK_clean_linker_0
_symmetry_space_group_name_H-M    P1
_symmetry_Int_Tables_number       1
_symmetry_cell_setting            triclinic
loop_
_symmetry_equiv_pos_as_xyz
'x, y, z'
_cell_length_a     68.200821
_cell_length_b     68.288171
_cell_length_c     29.694439
_cell_angle_alpha  90.057636
_cell_angle_beta   89.951619
_cell_angle_gamma 90.06888
loop_
_atom_site_label
_atom_site_type_symbol
_atom_site_fract_x
_atom_site_fract_y
_atom_site_fract_z
_atom_type_partial_charge
Gd0 Gd 0.35588 0.11033 0.1465 0.0
Gd1 Gd 0.38251 0.11444 0.06755 0.0
C2 C 0.40308 0.11915 0.16163 0.0
C3 C 0.34071 0.1006 0.22352 0.0
C4 C 0.34542 0.10265 0.27223 0.0
C5 C 0.34158 0.12016 0.29562 0.0
C6 C 0.35307 0.08667 0.29632 0.0
C7 C 0.35283 0.10562 0.3661 0.0
C8 C 0.3568 0.08816 0.3426 0.0
C9 C 0.34525 0.12163 0.34191 0.0
C10 C 0.35816 0.14746 0.11493 0.0
C11 C 0.33573 0.10672 0.05021 0.0
C12 C 0.39812 0.12301 0.99034 0.0
C13 C 0.39314 0.12092 0.94175 0.0
C14 C 0.39721 0.10347 0.91829 0.0
C15 C 0.38502 0.13671 0.91782 0.0
C16 C 0.38522 0.1177 0.84812 0.0
C17 C 0.38104 0.1351 0.87167 0.0
C18 C 0.39326 0.10188 0.87214 0.0
C19 C 0.38092 0.07804 0.10363 0.0
O20 O 0.38642 0.11219 0.17839 0.0
O21 O 0.40448 0.12403 0.11876 0.0
O22 O 0.33588 0.11646 0.20154 0.0
O23 O 0.35183 0.08891 0.19972 0.0
O24 O 0.34219 0.13918 0.12909 0.0
O25 O 0.37243 0.13578 0.11885 0.0
O26 O 0.35263 0.11339 0.03484 0.0
O27 O 0.33358 0.10204 0.09322 0.0
O28 O 0.40213 0.107 1.01268 0.0
O29 O 0.38774 0.13544 1.01401 0.0
O30 O 0.39685 0.08612 0.08865 0.0
O31 O 0.36648 0.08919 0.09688 0.0
H32 H 0.33558 0.13275 0.27831 0.0
H33 H 0.35598 0.07289 0.27949 0.0
H34 H 0.36238 0.07544 0.36016 0.0
H35 H 0.34223 0.13538 0.35872 0.0
H36 H 0.40358 0.09103 0.93545 0.0
H37 H 0.38193 0.15045 0.93465 0.0
H38 H 0.37511 0.14769 0.85424 0.0
H39 H 0.39646 0.08817 0.85532 0.0
Gd40 Gd 0.1169 0.62644 0.96422 0.0
Gd41 Gd 0.11165 0.65254 0.88443 0.0
C42 C 0.1082 0.67312 0.98033 0.0
C43 C 0.12665 0.61095 0.04075 0.0
C44 C 0.12449 0.61523 0.08948 0.0
C45 C 0.11861 0.60022 0.11878 0.0
C46 C 0.12844 0.63389 0.10738 0.0
C47 C 0.1209 0.62231 0.18331 0.0
C48 C 0.12662 0.6374 0.15374 0.0
C49 C 0.11684 0.60369 0.1651 0.0
C50 C 0.08006 0.62737 0.93029 0.0
C51 C 0.12082 0.60567 0.87017 0.0
C52 C 0.1017 0.66776 0.80763 0.0
C53 C 0.10344 0.66327 0.75897 0.0
C54 C 0.10805 0.6784 0.72887 0.0
C55 C 0.10043 0.64428 0.74196 0.0
C56 C 0.10626 0.65582 0.66515 0.0
C57 C 0.10181 0.6406 0.69557 0.0
C58 C 0.10948 0.67474 0.68259 0.0
C59 C 0.14911 0.65086 0.91498 0.0
O60 O 0.11534 0.65651 0.99617 0.0
O61 O 0.1032 0.67483 0.93741 0.0
O62 O 0.11067 0.60625 0.01897 0.0
O63 O 0.13825 0.62238 0.01738 0.0
O64 O 0.08838 0.61167 0.94562 0.0
O65 O 0.0912 0.64194 0.93557 0.0
O66 O 0.11257 0.62176 0.85393 0.0
O67 O 0.12697 0.60491 0.91226 0.0
O68 O 0.11793 0.67218 0.82866 0.0
O69 O 0.09008 0.65667 0.83167 0.0
O70 O 0.14052 0.66665 0.90105 0.0
O71 O 0.13751 0.63651 0.91141 0.0
H72 H 0.11544 0.58572 0.10582 0.0
H73 H 0.13311 0.64574 0.08564 0.0
H74 H 0.13008 0.65186 0.1665 0.0
H75 H 0.11211 0.59179 0.18661 0.0
H76 H 0.11053 0.69313 0.7412 0.0
H77 H 0.09689 0.6323 0.76443 0.0
H78 H 0.09904 0.62589 0.68349 0.0
H79 H 0.11329 0.68677 0.6605 0.0
Gd80 Gd 0.65246 0.8946 0.14805 0.0
Gd81 Gd 0.62592 0.89155 0.06867 0.0
C82 C 0.60512 0.88702 0.16276 0.0
C83 C 0.66829 0.90295 0.22525 0.0
C84 C 0.66374 0.90089 0.27384 0.0
C85 C 0.67784 0.89281 0.30272 0.0
C86 C 0.64581 0.90726 0.29212 0.0
C87 C 0.65646 0.89794 0.36768 0.0
C88 C 0.64223 0.90582 0.3385 0.0
C89 C 0.67425 0.89131 0.34902 0.0
C90 C 0.6495 0.85782 0.11466 0.0
C91 C 0.67281 0.89847 0.05193 0.0
C92 C 0.60986 0.88338 0.99174 0.0
C93 C 0.61458 0.88506 0.94316 0.0
C94 C 0.60079 0.89344 0.91395 0.0
C95 C 0.6324 0.87821 0.92527 0.0
C96 C 0.62229 0.88776 0.84947 0.0
C97 C 0.63622 0.87956 0.87897 0.0
C98 C 0.60459 0.89481 0.86773 0.0
C99 C 0.6283 0.92785 0.1053 0.0
O100 O 0.6219 0.89351 0.17983 0.0
O101 O 0.60366 0.88245 0.11972 0.0
O102 O 0.67201 0.88685 0.20306 0.0
O103 O 0.65772 0.9153 0.20204 0.0
O104 O 0.66565 0.86576 0.12867 0.0
O105 O 0.63544 0.86971 0.11929 0.0
O106 O 0.65588 0.89205 0.03619 0.0
O107 O 0.67489 0.90296 0.09509 0.0
O108 O 0.60675 0.89975 1.01342 0.0
O109 O 0.61986 0.87068 1.01542 0.0
O110 O 0.61229 0.9203 0.08934 0.0
O111 O 0.64248 0.91629 0.09903 0.0
H112 H 0.69174 0.88774 0.28946 0.0
H113 H 0.63463 0.91357 0.27071 0.0
H114 H 0.62845 0.91128 0.35156 0.0
H115 H 0.68542 0.88483 0.37015 0.0
H116 H 0.58697 0.89889 0.92691 0.0
H117 H 0.64333 0.87165 0.94694 0.0
H118 H 0.64992 0.8738 0.86619 0.0
H119 H 0.59366 0.90153 0.84632 0.0
Gd120 Gd 0.89025 0.37965 0.96478 0.0
Gd121 Gd 0.89681 0.35378 0.88469 0.0
C122 C 0.89834 0.33301 0.98035 0.0
C123 C 0.8797 0.39469 0.04145 0.0
C124 C 0.88134 0.38995 0.08991 0.0
C125 C 0.89612 0.37754 0.10626 0.0
C126 C 0.86803 0.39822 0.12046 0.0
C127 C 0.88461 0.38236 0.18358 0.0
C128 C 0.86961 0.39447 0.16668 0.0
C129 C 0.89776 0.37381 0.15259 0.0
C130 C 0.92764 0.37868 0.93348 0.0
C131 C 0.88716 0.40071 0.87105 0.0
C132 C 0.90838 0.33914 0.8083 0.0
C133 C 0.90635 0.34341 0.75971 0.0
C134 C 0.89109 0.3552 0.74325 0.0
C135 C 0.91985 0.33543 0.7292 0.0
C136 C 0.90261 0.35044 0.66593 0.0
C137 C 0.91803 0.33889 0.6829 0.0
C138 C 0.88922 0.35865 0.69685 0.0
C139 C 0.85892 0.35524 0.91235 0.0
O140 O 0.89012 0.34931 0.995 0.0
O141 O 0.90516 0.33176 0.93862 0.0
O142 O 0.89595 0.39932 0.02059 0.0
O143 O 0.86833 0.38337 0.01731 0.0
O144 O 0.91911 0.39436 0.94839 0.0
O145 O 0.91635 0.36417 0.93776 0.0
O146 O 0.89569 0.3847 0.85489 0.0
O147 O 0.8806 0.40132 0.91287 0.0
O148 O 0.89257 0.33341 0.82946 0.0
O149 O 0.9188 0.3515 0.83191 0.0
O150 O 0.8676 0.33958 0.89783 0.0
O151 O 0.87053 0.36962 0.91021 0.0
H152 H 0.90652 0.37091 0.08326 0.0
H153 H 0.85642 0.40771 0.10855 0.0
H154 H 0.85895 0.401 0.18916 0.0
H155 H 0.90961 0.36456 0.16417 0.0
H156 H 0.88053 0.36158 0.76623 0.0
H157 H 0.93182 0.32643 0.74121 0.0
H158 H 0.92885 0.33262 0.66043 0.0
H159 H 0.87706 0.36747 0.68517 0.0
Gd160 Gd 0.35334 0.39428 0.13218 0.0
Gd161 Gd 0.37949 0.39091 0.21195 0.0
C162 C 0.40072 0.38677 0.11817 0.0
C163 C 0.33773 0.40295 0.05496 0.0
C164 C 0.34232 0.40086 1.00644 0.0
C165 C 0.32764 0.39447 0.9768 0.0
C166 C 0.36094 0.40547 0.98904 0.0
C167 C 0.34996 0.39753 0.91289 0.0
C168 C 0.36471 0.40383 0.94277 0.0
C169 C 0.33139 0.3928 0.9306 0.0
C170 C 0.35617 0.35726 0.16432 0.0
C171 C 0.33253 0.39791 0.22797 0.0
C172 C 0.39534 0.38224 0.28879 0.0
C173 C 0.39065 0.38391 0.33735 0.0
C174 C 0.40513 0.39055 0.36723 0.0
C175 C 0.3721 0.37884 0.35448 0.0
C176 C 0.38272 0.38694 0.43084 0.0
C177 C 0.36818 0.38035 0.40071 0.0
C178 C 0.40123 0.39205 0.4134 0.0
C179 C 0.37747 0.42737 0.17622 0.0
O180 O 0.38401 0.3933 0.10089 0.0
O181 O 0.40196 0.38203 0.16112 0.0
O182 O 0.33374 0.38688 0.07693 0.0
O183 O 0.34853 0.41509 0.07831 0.0
O184 O 0.34008 0.36531 0.15037 0.0
O185 O 0.37023 0.36924 0.16047 0.0
O186 O 0.34942 0.39158 0.24408 0.0
O187 O 0.33063 0.40237 0.18478 0.0
O188 O 0.39879 0.39861 0.26741 0.0
O189 O 0.385 0.36983 0.26495 0.0
O190 O 0.39334 0.41971 0.19247 0.0
O191 O 0.36319 0.41583 0.18185 0.0
H192 H 0.31315 0.39092 0.98939 0.0
H193 H 0.37256 0.41043 1.01111 0.0
H194 H 0.37924 0.40736 0.93047 0.0
H195 H 0.3196 0.38816 0.90863 0.0
H196 H 0.41956 0.39446 0.35486 0.0
H197 H 0.36064 0.37367 0.33221 0.0
H198 H 0.35369 0.37652 0.41278 0.0
H199 H 0.41288 0.3969 0.43554 0.0
Gd200 Gd 0.39172 0.62652 0.82056 0.0
Gd201 Gd 0.39656 0.65275 0.90049 0.0
C202 C 0.40007 0.6733 0.8046 0.0
C203 C 0.38227 0.61085 0.74393 0.0
C204 C 0.38433 0.61517 0.69523 0.0
C205 C 0.39029 0.60024 0.66579 0.0
C206 C 0.38019 0.6338 0.67749 0.0
C207 C 0.38772 0.62232 0.60142 0.0
C208 C 0.38192 0.63734 0.63113 0.0
C209 C 0.39197 0.60375 0.61948 0.0
C210 C 0.42839 0.62761 0.85538 0.0
C211 C 0.38753 0.60583 0.91462 0.0
C212 C 0.4062 0.66815 0.9774 0.0
C213 C 0.40456 0.66361 0.02602 0.0
C214 C 0.39979 0.67866 0.05624 0.0
C215 C 0.40778 0.64465 0.04287 0.0
C216 C 0.40185 0.65608 0.11978 0.0
C217 C 0.40646 0.64094 0.08925 0.0
C218 C 0.39842 0.67497 0.10249 0.0
C219 C 0.35928 0.65081 0.86898 0.0
O220 O 0.39319 0.65658 0.78861 0.0
O221 O 0.40489 0.67512 0.84761 0.0
O222 O 0.39834 0.6065 0.76566 0.0
O223 O 0.37045 0.62203 0.76736 0.0
O224 O 0.42015 0.61188 0.83981 0.0
O225 O 0.41727 0.64216 0.84985 0.0
O226 O 0.39562 0.622 0.93105 0.0
O227 O 0.38157 0.60497 0.87238 0.0
O228 O 0.38988 0.6722 0.95642 0.0
O229 O 0.41805 0.65733 0.95328 0.0
O230 O 0.36769 0.66668 0.88323 0.0
O231 O 0.37091 0.63654 0.87291 0.0
H232 H 0.3936 0.58577 0.67864 0.0
H233 H 0.37546 0.64559 0.69934 0.0
H234 H 0.37832 0.65177 0.61849 0.0
H235 H 0.39677 0.5919 0.59786 0.0
H236 H 0.39714 0.69337 0.04402 0.0
H237 H 0.41145 0.63274 0.0203 0.0
H238 H 0.40939 0.62626 0.10121 0.0
H239 H 0.39448 0.68693 0.12467 0.0
Gd240 Gd 0.65406 0.61138 0.13359 0.0
Gd241 Gd 0.62781 0.61475 0.21331 0.0
C242 C 0.60672 0.61887 0.1195 0.0
C243 C 0.66973 0.60271 0.05635 0.0
C244 C 0.66523 0.60483 1.00779 0.0
C245 C 0.67969 0.61211 0.97865 0.0
C246 C 0.64697 0.59929 0.98981 0.0
C247 C 0.65798 0.60789 0.91402 0.0
C248 C 0.6434 0.6008 0.94346 0.0
C249 C 0.67613 0.61366 0.93237 0.0
C250 C 0.6511 0.64842 0.16574 0.0
C251 C 0.67475 0.60793 0.22937 0.0
C252 C 0.61186 0.6233 0.29019 0.0
C253 C 0.61646 0.6216 0.33878 0.0
C254 C 0.60222 0.6141 0.3682 0.0
C255 C 0.63464 0.62755 0.35646 0.0
C256 C 0.62402 0.61885 0.43247 0.0
C257 C 0.63838 0.62617 0.40277 0.0
C258 C 0.60593 0.61272 0.41444 0.0
C259 C 0.62997 0.57828 0.17754 0.0
O260 O 0.62343 0.61231 0.10225 0.0
O261 O 0.60542 0.62365 0.16245 0.0
O262 O 0.67375 0.61877 0.07846 0.0
O263 O 0.65889 0.59058 0.07961 0.0
O264 O 0.66722 0.6404 0.1518 0.0
O265 O 0.63708 0.6364 0.16188 0.0
O266 O 0.65785 0.6143 0.2454 0.0
O267 O 0.67669 0.60335 0.18623 0.0
O268 O 0.60845 0.60695 0.26863 0.0
O269 O 0.62219 0.63577 0.26649 0.0
O270 O 0.61405 0.58591 0.19369 0.0
O271 O 0.64422 0.58985 0.18323 0.0
H272 H 0.69386 0.61652 0.9917 0.0
H273 H 0.63552 0.59359 1.01144 0.0
H274 H 0.62933 0.59602 0.93061 0.0
H275 H 0.68759 0.61951 0.91101 0.0
H276 H 0.58812 0.60936 0.35538 0.0
H277 H 0.64592 0.63343 0.3346 0.0
H278 H 0.6524 0.63122 0.41539 0.0
H279 H 0.59464 0.60669 0.43602 0.0
Gd280 Gd 0.61645 0.37924 0.82091 0.0
Gd281 Gd 0.61078 0.35306 0.90078 0.0
C282 C 0.60774 0.33254 0.8046 0.0
C283 C 0.6268 0.39454 0.74445 0.0
C284 C 0.62475 0.39017 0.69587 0.0
C285 C 0.6096 0.37816 0.67953 0.0
C286 C 0.63814 0.39827 0.66527 0.0
C287 C 0.62107 0.38283 0.60218 0.0
C288 C 0.63635 0.39466 0.61901 0.0
C289 C 0.60779 0.37451 0.63318 0.0
C290 C 0.57947 0.37834 0.85431 0.0
C291 C 0.62029 0.39995 0.91504 0.0
C292 C 0.60006 0.33811 0.97747 0.0
C293 C 0.60147 0.34286 0.02598 0.0
C294 C 0.61617 0.3553 0.04276 0.0
C295 C 0.58805 0.3345 0.05615 0.0
C296 C 0.60437 0.35034 0.11976 0.0
C297 C 0.58945 0.33819 0.10245 0.0
C298 C 0.61762 0.35898 0.08916 0.0
C299 C 0.64834 0.35467 0.87084 0.0
O300 O 0.61483 0.34922 0.78897 0.0
O301 O 0.60269 0.33068 0.8475 0.0
O302 O 0.61082 0.3994 0.76611 0.0
O303 O 0.63804 0.38277 0.76767 0.0
O304 O 0.58786 0.394 0.83885 0.0
O305 O 0.59061 0.36376 0.84926 0.0
O306 O 0.61195 0.38386 0.93123 0.0
O307 O 0.62651 0.40073 0.87297 0.0
O308 O 0.61641 0.33362 0.95695 0.0
O309 O 0.58875 0.34931 0.95311 0.0
O310 O 0.63971 0.33893 0.88509 0.0
O311 O 0.63677 0.36903 0.87409 0.0
H312 H 0.59908 0.37174 0.70256 0.0
H313 H 0.65001 0.40747 0.67716 0.0
H314 H 0.64708 0.40103 0.59644 0.0
H315 H 0.59574 0.36548 0.62159 0.0
H316 H 0.62666 0.36198 0.02005 0.0
H317 H 0.5765 0.32497 0.0439 0.0
H318 H 0.57873 0.33158 0.12467 0.0
H319 H 0.6294 0.36827 0.10109 0.0
Gd320 Gd 0.85436 0.6128 0.6516 0.0
Gd321 Gd 0.88093 0.61513 0.57198 0.0
C322 C 0.90183 0.61948 0.666 0.0
C323 C 0.83823 0.60503 0.72886 0.0
C324 C 0.8428 0.60684 0.77743 0.0
C325 C 0.82831 0.61375 0.80698 0.0
C326 C 0.86114 0.60142 0.795 0.0
C327 C 0.8502 0.6094 0.87122 0.0
C328 C 0.8648 0.60269 0.84137 0.0
C329 C 0.83195 0.61504 0.85328 0.0
C330 C 0.85817 0.64941 0.61764 0.0
C331 C 0.83389 0.60878 0.55563 0.0
C332 C 0.89714 0.62314 0.49508 0.0
C333 C 0.89248 0.62155 0.4465 0.0
C334 C 0.90684 0.61459 0.41672 0.0
C335 C 0.87411 0.62707 0.42923 0.0
C336 C 0.88479 0.61904 0.35283 0.0
C337 C 0.8703 0.62581 0.38291 0.0
C338 C 0.90306 0.61333 0.37048 0.0
C339 C 0.87827 0.57905 0.60924 0.0
O340 O 0.88494 0.61335 0.68324 0.0
O341 O 0.90334 0.62395 0.62292 0.0
O342 O 0.8352 0.6213 0.70687 0.0
O343 O 0.84838 0.59232 0.70557 0.0
O344 O 0.84178 0.64189 0.63153 0.0
O345 O 0.87191 0.63721 0.62258 0.0
O346 O 0.85097 0.61463 0.53952 0.0
O347 O 0.83168 0.60479 0.59898 0.0
O348 O 0.90003 0.60672 0.51664 0.0
O349 O 0.88718 0.63591 0.51875 0.0
O350 O 0.89428 0.58634 0.59264 0.0
O351 O 0.86414 0.59069 0.60304 0.0
H352 H 0.81408 0.61806 0.79423 0.0
H353 H 0.87259 0.59599 0.773 0.0
H354 H 0.87895 0.59804 0.8539 0.0
H355 H 0.82046 0.62059 0.87499 0.0
H356 H 0.92109 0.61017 0.42925 0.0
H357 H 0.86275 0.63253 0.45141 0.0
H358 H 0.85613 0.63051 0.3706 0.0
H359 H 0.91446 0.60772 0.34859 0.0
Gd360 Gd 0.61801 0.12741 0.46083 0.0
Gd361 Gd 0.61241 0.15347 0.38085 0.0
C362 C 0.60936 0.1741 0.47691 0.0
C363 C 0.62835 0.11212 0.53723 0.0
C364 C 0.62633 0.11649 0.58581 0.0
C365 C 0.61152 0.1289 0.60209 0.0
C366 C 0.6394 0.10799 0.61647 0.0
C367 C 0.62266 0.12383 0.67949 0.0
C368 C 0.63761 0.1116 0.66273 0.0
C369 C 0.60971 0.13255 0.64844 0.0
C370 C 0.58101 0.12832 0.42769 0.0
C371 C 0.62153 0.10655 0.3668 0.0
C372 C 0.60173 0.16844 0.30421 0.0
C373 C 0.60317 0.16376 0.25569 0.0
C374 C 0.61758 0.15098 0.23898 0.0
C375 C 0.59007 0.17249 0.22545 0.0
C376 C 0.60611 0.15633 0.1619 0.0
C377 C 0.59149 0.16883 0.17914 0.0
C378 C 0.61905 0.14732 0.19257 0.0
C379 C 0.65002 0.15175 0.41042 0.0
O380 O 0.61653 0.15749 0.4926 0.0
O381 O 0.60422 0.17582 0.43406 0.0
O382 O 0.61234 0.10727 0.5157 0.0
O383 O 0.63961 0.12388 0.51394 0.0
O384 O 0.58935 0.11266 0.44321 0.0
O385 O 0.59221 0.14288 0.43256 0.0
O386 O 0.61326 0.12265 0.35062 0.0
O387 O 0.62785 0.10582 0.40877 0.0
O388 O 0.61805 0.17297 0.32475 0.0
O389 O 0.59043 0.15714 0.32849 0.0
O390 O 0.64146 0.16751 0.39618 0.0
O391 O 0.63835 0.13743 0.4074 0.0
H392 H 0.60126 0.13564 0.57899 0.0
H393 H 0.65101 0.09847 0.60461 0.0
H394 H 0.64808 0.1049 0.68534 0.0
H395 H 0.59792 0.14191 0.65998 0.0
H396 H 0.62782 0.14402 0.26176 0.0
H397 H 0.57875 0.18228 0.23765 0.0
H398 H 0.58101 0.17573 0.15687 0.0
H399 H 0.6306 0.13775 0.18068 0.0
Gd400 Gd 0.1527 0.39339 0.65076 0.0
Gd401 Gd 0.1261 0.39101 0.57119 0.0
C402 C 0.10518 0.38674 0.66535 0.0
C403 C 0.16876 0.4012 0.72805 0.0
C404 C 0.16408 0.39936 0.77658 0.0
C405 C 0.17855 0.39263 0.8063 0.0
C406 C 0.14561 0.40453 0.79391 0.0
C407 C 0.15631 0.39645 0.87017 0.0
C408 C 0.14177 0.40309 0.84019 0.0
C409 C 0.17474 0.39118 0.85251 0.0
C410 C 0.14893 0.35681 0.61661 0.0
C411 C 0.17319 0.39738 0.55471 0.0
C412 C 0.10998 0.38293 0.49425 0.0
C413 C 0.11479 0.38451 0.44573 0.0
C414 C 0.10048 0.39133 0.4157 0.0
C415 C 0.13328 0.37917 0.42876 0.0
C416 C 0.12293 0.38734 0.35229 0.0
C417 C 0.13731 0.38057 0.38256 0.0
C418 C 0.10448 0.39274 0.36957 0.0
C419 C 0.12883 0.42712 0.60843 0.0
O420 O 0.1221 0.39282 0.68251 0.0
O421 O 0.10363 0.38231 0.62224 0.0
O422 O 0.17184 0.38494 0.70599 0.0
O423 O 0.15863 0.4139 0.70478 0.0
O424 O 0.1653 0.36432 0.63052 0.0
O425 O 0.13516 0.36898 0.62171 0.0
O426 O 0.15609 0.39153 0.53866 0.0
O427 O 0.1754 0.40138 0.59808 0.0
O428 O 0.10706 0.39937 0.5158 0.0
O429 O 0.11988 0.37017 0.51799 0.0
O430 O 0.11281 0.41986 0.59188 0.0
O431 O 0.14293 0.41543 0.60219 0.0
H432 H 0.19294 0.38865 0.79377 0.0
H433 H 0.13415 0.40976 0.77176 0.0
H434 H 0.12735 0.40705 0.85243 0.0
H435 H 0.18638 0.38627 0.87453 0.0
H436 H 0.08609 0.39546 0.42795 0.0
H437 H 0.14461 0.37386 0.45114 0.0
H438 H 0.15175 0.37652 0.37062 0.0
H439 H 0.09296 0.39774 0.34732 0.0
Gd440 Gd 0.39104 0.88028 0.46594 0.0
Gd441 Gd 0.39464 0.85403 0.38584 0.0
C442 C 0.39868 0.83345 0.4817 0.0
C443 C 0.38226 0.89616 0.54276 0.0
C444 C 0.38383 0.89163 0.59137 0.0
C445 C 0.38953 0.90645 0.62136 0.0
C446 C 0.37959 0.8729 0.60845 0.0
C447 C 0.38649 0.88407 0.68504 0.0
C448 C 0.38095 0.86915 0.65478 0.0
C449 C 0.39086 0.90274 0.6676 0.0
C450 C 0.42734 0.87876 0.42928 0.0
C451 C 0.38657 0.9013 0.37204 0.0
C452 C 0.40376 0.83841 0.30886 0.0
C453 C 0.40197 0.84284 0.26025 0.0
C454 C 0.3968 0.82778 0.23037 0.0
C455 C 0.40556 0.86168 0.24304 0.0
C456 C 0.39916 0.85014 0.16648 0.0
C457 C 0.40416 0.86529 0.19666 0.0
C458 C 0.39538 0.83137 0.18409 0.0
C459 C 0.35769 0.85648 0.41898 0.0
O460 O 0.39232 0.85029 0.49802 0.0
O461 O 0.40294 0.8315 0.43839 0.0
O462 O 0.3987 0.89955 0.52148 0.0
O463 O 0.36987 0.88578 0.51894 0.0
O464 O 0.41951 0.89455 0.4455 0.0
O465 O 0.41605 0.86432 0.43527 0.0
O466 O 0.39307 0.88463 0.35449 0.0
O467 O 0.38198 0.90258 0.41511 0.0
O468 O 0.3875 0.83451 0.33035 0.0
O469 O 0.41581 0.84922 0.33249 0.0
O470 O 0.36577 0.84049 0.4045 0.0
O471 O 0.36951 0.87062 0.41463 0.0
H472 H 0.39295 0.92098 0.60897 0.0
H473 H 0.37508 0.8612 0.58609 0.0
H474 H 0.37729 0.85465 0.66695 0.0
H475 H 0.39549 0.9145 0.68967 0.0
H476 H 0.39389 0.81316 0.24288 0.0
H477 H 0.4096 0.87357 0.26534 0.0
H478 H 0.40736 0.87987 0.18441 0.0
H479 H 0.39116 0.81942 0.16214 0.0
Gd480 Gd 0.85184 0.89873 0.62536 0.0
Gd481 Gd 0.87848 0.89072 0.71131 0.0
C482 C 0.89829 0.88572 0.61551 0.0
C483 C 0.83889 0.9158 0.55356 0.0
C484 C 0.84067 0.91232 0.50462 0.0
C485 C 0.85183 0.89663 0.48794 0.0
C486 C 0.83186 0.92525 0.47413 0.0
C487 C 0.84556 0.90706 0.41054 0.0
C488 C 0.83426 0.92266 0.42761 0.0
C489 C 0.85422 0.89401 0.4414 0.0
C490 C 0.85513 0.85949 0.63888 0.0
C491 C 0.8314 0.9004 0.72411 0.0
C492 C 0.89228 0.87939 0.78836 0.0
C493 C 0.88681 0.88115 0.83644 0.0
C494 C 0.87504 0.89662 0.85191 0.0
C495 C 0.89385 0.86742 0.86755 0.0
C496 C 0.87779 0.88482 0.92938 0.0
C497 C 0.88942 0.86922 0.91347 0.0
C498 C 0.87056 0.89843 0.89784 0.0
C499 C 0.87896 0.92734 0.67634 0.0
O500 O 0.88295 0.89514 0.59836 0.0
O501 O 0.89876 0.87969 0.65786 0.0
O502 O 0.82855 0.90301 0.57654 0.0
O503 O 0.85515 0.9209 0.57396 0.0
O504 O 0.84456 0.86732 0.60741 0.0
O505 O 0.86277 0.87306 0.66171 0.0
O506 O 0.84852 0.89534 0.74169 0.0
O507 O 0.829 0.90352 0.6802 0.0
O508 O 0.8977 0.89556 0.76821 0.0
O509 O 0.88102 0.86836 0.76312 0.0
O510 O 0.89422 0.91894 0.69393 0.0
O511 O 0.86417 0.91636 0.68029 0.0
H512 H 0.85891 0.88657 0.51096 0.0
H513 H 0.82324 0.93748 0.48632 0.0
H514 H 0.82715 0.93285 0.405 0.0
H515 H 0.86322 0.88199 0.42966 0.0
H516 H 0.86945 0.90741 0.82851 0.0
H517 H 0.90302 0.85541 0.85639 0.0
H518 H 0.89548 0.8586 0.93663 0.0
H519 H 0.86134 0.91046 0.90859 0.0
Gd520 Gd 0.8934 0.12843 0.32353 0.0
Gd521 Gd 0.89831 0.15424 0.40398 0.0
C522 C 0.89994 0.17525 0.30851 0.0
C523 C 0.88365 0.11303 0.24671 0.0
C524 C 0.88455 0.11807 0.19836 0.0
C525 C 0.89792 0.13199 0.18186 0.0
C526 C 0.87208 0.10845 0.16806 0.0
C527 C 0.88679 0.12598 0.10478 0.0
C528 C 0.87314 0.11237 0.12185 0.0
C529 C 0.89905 0.13588 0.13553 0.0
C530 C 0.93055 0.1306 0.35591 0.0
C531 C 0.8903 0.10685 0.41697 0.0
C532 C 0.9089 0.16939 0.48055 0.0
C533 C 0.90646 0.16546 0.52911 0.0
C534 C 0.89231 0.1522 0.54502 0.0
C535 C 0.91861 0.17508 0.56008 0.0
C536 C 0.90231 0.1586 0.62276 0.0
C537 C 0.91659 0.1717 0.60634 0.0
C538 C 0.89024 0.14882 0.5914 0.0
C539 C 0.86078 0.15171 0.37465 0.0
O540 O 0.89235 0.15872 0.29342 0.0
O541 O 0.90644 0.1766 0.35047 0.0
O542 O 0.90037 0.10973 0.26677 0.0
O543 O 0.87156 0.12324 0.27156 0.0
O544 O 0.92269 0.11475 0.34001 0.0
O545 O 0.9188 0.14474 0.35184 0.0
O546 O 0.89717 0.12341 0.43435 0.0
O547 O 0.88502 0.10581 0.37429 0.0
O548 O 0.89327 0.17484 0.45845 0.0
O549 O 0.91957 0.15688 0.45803 0.0
O550 O 0.86894 0.16759 0.38956 0.0
O551 O 0.87273 0.13761 0.37721 0.0
H552 H 0.90765 0.13964 0.20471 0.0
H553 H 0.86156 0.09777 0.18013 0.0
H554 H 0.86318 0.10474 0.0995 0.0
H555 H 0.90984 0.14634 0.12377 0.0
H556 H 0.88282 0.14456 0.52161 0.0
H557 H 0.92974 0.18523 0.54845 0.0
H558 H 0.92641 0.17922 0.62921 0.0
H559 H 0.87898 0.13876 0.60269 0.0
Gd560 Gd 0.1566 0.10731 0.62371 0.0
Gd561 Gd 0.13012 0.11632 0.70968 0.0
C562 C 0.11028 0.12036 0.61399 0.0
C563 C 0.16939 0.08998 0.55192 0.0
C564 C 0.1675 0.09352 0.503 0.0
C565 C 0.15679 0.10957 0.48675 0.0
C566 C 0.17577 0.08036 0.47212 0.0
C567 C 0.16246 0.09911 0.40901 0.0
C568 C 0.17331 0.08312 0.42566 0.0
C569 C 0.15431 0.11235 0.4403 0.0
C570 C 0.15333 0.14673 0.63565 0.0
C571 C 0.17712 0.10613 0.7224 0.0
C572 C 0.11649 0.12831 0.7865 0.0
C573 C 0.12162 0.12636 0.83473 0.0
C574 C 0.13311 0.11071 0.85036 0.0
C575 C 0.11454 0.1401 0.86584 0.0
C576 C 0.12984 0.12231 0.92799 0.0
C577 C 0.11858 0.13812 0.91188 0.0
C578 C 0.1372 0.10872 0.89646 0.0
C579 C 0.12934 0.0794 0.67615 0.0
O580 O 0.12524 0.11003 0.59783 0.0
O581 O 0.11022 0.1275 0.65549 0.0
O582 O 0.17984 0.10271 0.57481 0.0
O583 O 0.15316 0.08496 0.57259 0.0
O584 O 0.16379 0.13862 0.6043 0.0
O585 O 0.14578 0.13332 0.65902 0.0
O586 O 0.1601 0.1116 0.73995 0.0
O587 O 0.1794 0.10258 0.67859 0.0
O588 O 0.11043 0.11239 0.76619 0.0
O589 O 0.12838 0.13878 0.76152 0.0
O590 O 0.11415 0.08809 0.69341 0.0
O591 O 0.14421 0.09029 0.67958 0.0
H592 H 0.15022 0.11989 0.51005 0.0
H593 H 0.18394 0.06779 0.48396 0.0
H594 H 0.17957 0.07244 0.40282 0.0
H595 H 0.14609 0.12496 0.42893 0.0
H596 H 0.13869 0.09988 0.82698 0.0
H597 H 0.10572 0.15232 0.85453 0.0
H598 H 0.11293 0.14907 0.93487 0.0
H599 H 0.14575 0.09627 0.90746 0.0
Gd600 Gd 0.11459 0.87974 0.32025 0.0
Gd601 Gd 0.11084 0.85361 0.40011 0.0
C602 C 0.10711 0.83291 0.30429 0.0
C603 C 0.12335 0.89562 0.24346 0.0
C604 C 0.12176 0.89109 0.19482 0.0
C605 C 0.11592 0.90588 0.16498 0.0
C606 C 0.1261 0.87241 0.17757 0.0
C607 C 0.11905 0.88356 0.1011 0.0
C608 C 0.12472 0.86868 0.13122 0.0
C609 C 0.11457 0.90218 0.11871 0.0
C610 C 0.07817 0.87801 0.35638 0.0
C611 C 0.1188 0.90091 0.41397 0.0
C612 C 0.10162 0.83801 0.477 0.0
C613 C 0.10341 0.84245 0.52564 0.0
C614 C 0.10869 0.82743 0.55541 0.0
C615 C 0.09976 0.86126 0.54297 0.0
C616 C 0.10627 0.84975 0.61944 0.0
C617 C 0.10117 0.86487 0.58937 0.0
C618 C 0.11012 0.83101 0.6017 0.0
C619 C 0.14793 0.85612 0.36768 0.0
O620 O 0.11355 0.84975 0.28812 0.0
O621 O 0.10267 0.831 0.3475 0.0
O622 O 0.10693 0.899 0.26481 0.0
O623 O 0.13573 0.88525 0.2672 0.0
O624 O 0.08603 0.89387 0.34056 0.0
O625 O 0.08951 0.86366 0.35041 0.0
O626 O 0.11224 0.88426 0.43145 0.0
O627 O 0.12357 0.90212 0.37101 0.0
O628 O 0.11786 0.83407 0.45553 0.0
O629 O 0.08961 0.84884 0.45339 0.0
O630 O 0.13971 0.84012 0.38174 0.0
O631 O 0.1361 0.87025 0.3718 0.0
H632 H 0.11242 0.92037 0.1775 0.0
H633 H 0.13071 0.86074 0.19982 0.0
H634 H 0.12847 0.85422 0.11892 0.0
H635 H 0.10984 0.91391 0.09677 0.0
H636 H 0.11166 0.81283 0.54281 0.0
H637 H 0.09565 0.87313 0.52076 0.0
H638 H 0.09791 0.87943 0.60172 0.0
H639 H 0.11443 0.81909 0.62357 0.0
C640 C 0.38561 0.91778 0.29587 0.0
C641 C 0.38454 0.91902 0.34314 0.0
C642 C 0.38417 0.9347 0.26919 0.0
C643 C 0.39232 0.98801 0.27377 0.0
H644 H 0.35999 0.99011 0.16649 0.0
C645 C 0.39804 0.05105 0.14458 0.0
C646 C 0.38043 0.05945 0.12952 0.0
C647 C 0.39791 0.03384 0.17016 0.0
C648 C 0.36902 0.98977 0.19646 0.0
H649 H 0.38104 0.93914 0.39918 0.0
H650 H 0.37881 0.96847 0.35283 0.0
H651 H 0.3609 0.96009 0.21175 0.0
H652 H 0.34884 0.05624 0.12898 0.0
H653 H 0.3486 0.02585 0.17323 0.0
H654 H 0.40059 0.01755 0.25844 0.0
C655 C 0.38074 0.95445 0.33636 0.0
C656 C 0.36967 0.97252 0.22216 0.0
C657 C 0.38191 0.93757 0.36294 0.0
C658 C 0.36264 0.05009 0.14011 0.0
C659 C 0.36252 0.03267 0.16527 0.0
C660 C 0.39188 0.00511 0.24778 0.0
C661 C 0.38193 0.95327 0.28916 0.0
C662 C 0.38129 0.97146 0.26124 0.0
C663 C 0.38017 0.02443 0.18091 0.0
C664 C 0.38023 0.00623 0.20881 0.0
H665 H 0.38756 0.90376 0.27944 0.0
H666 H 0.38526 0.93329 0.23294 0.0
H667 H 0.40153 0.98766 0.30345 0.0
H668 H 0.41199 0.05791 0.13704 0.0
H669 H 0.41176 0.02781 0.18127 0.0
C670 C 0.91817 0.61851 0.74222 0.0
C671 C 0.91939 0.62154 0.69545 0.0
C672 C 0.93489 0.62011 0.7695 0.0
C673 C 0.97426 0.61292 0.81543 0.0
H674 H 0.01435 0.65133 0.78741 0.0
C675 C 0.05145 0.60993 0.89589 0.0
C676 C 0.061 0.62761 0.90624 0.0
C677 C 0.03375 0.60989 0.87202 0.0
C678 C 1.00325 0.64064 0.79613 0.0
H679 H 0.93934 0.62865 0.64087 0.0
H680 H 0.96836 0.63108 0.68799 0.0
H681 H 0.98423 0.65049 0.74351 0.0
H682 H 0.05934 0.65916 0.90023 0.0
H683 H 0.02827 0.65918 0.85908 0.0
H684 H 0.9931 0.60333 0.86863 0.0
C685 C 0.95445 0.62784 0.70394 0.0
C686 C 0.98602 0.63998 0.77046 0.0
C687 C 0.93775 0.6263 0.67675 0.0
C688 C 0.05236 0.64529 0.89256 0.0
C689 C 0.0346 0.64527 0.86873 0.0
C690 C 0.99146 0.61362 0.84118 0.0
C691 C 0.95331 0.62473 0.75072 0.0
C692 C 0.97133 0.62599 0.77944 0.0
C693 C 0.02505 0.62755 0.85798 0.0
C694 C 0.00631 0.62737 0.83168 0.0
H695 H 0.90428 0.61492 0.75789 0.0
H696 H 0.93332 0.61787 0.80542 0.0
H697 H 0.96343 0.60182 0.82323 0.0
H698 H 0.0578 0.59605 0.90572 0.0
H699 H 0.0271 0.59593 0.8638 0.0
C700 C 0.64677 0.95369 0.14878 0.0
C701 C 0.62934 0.9471 0.1285 0.0
C702 C 0.64712 0.97134 0.17309 0.0
C703 C 0.62376 0.01915 0.1837 0.0
H704 H 0.63918 0.01791 0.3092 0.0
C705 C 0.61133 0.08617 0.30028 0.0
C706 C 0.6238 0.08909 0.33733 0.0
C707 C 0.61287 0.06923 0.27377 0.0
C708 C 0.63521 0.01878 0.27399 0.0
H709 H 0.59886 0.9543 0.11616 0.0
H710 H 0.59973 0.98542 0.15696 0.0
H711 H 0.64109 0.98817 0.26403 0.0
H712 H 0.64813 0.07683 0.3746 0.0
H713 H 0.65158 0.04794 0.32728 0.0
H714 H 0.61849 0.04974 0.19259 0.0
C715 C 0.61299 0.97675 0.15484 0.0
C716 C 0.63622 1.0016 0.24819 0.0
C717 C 0.61251 0.95891 0.13155 0.0
C718 C 0.63815 0.07492 0.34658 0.0
C719 C 0.63999 0.05819 0.31949 0.0
C720 C 0.62317 0.03644 0.20915 0.0
C721 C 0.63021 0.98303 0.17639 0.0
C722 C 0.63029 1.00155 0.20294 0.0
C723 C 0.62722 0.0549 0.28289 0.0
C724 C 0.62865 0.03654 0.25497 0.0
H725 H 0.66006 0.94512 0.1463 0.0
H726 H 0.66064 0.97593 0.18906 0.0
H727 H 0.61925 0.01956 0.14874 0.0
H728 H 0.6 0.09674 0.29246 0.0
H729 H 0.60244 0.06726 0.24671 0.0
C730 C 0.95623 0.39622 0.89908 0.0
C731 C 0.94671 0.37852 0.90931 0.0
C732 C 0.97383 0.39634 0.87473 0.0
C733 C 0.00395 0.36579 0.79721 0.0
H734 H 0.04396 0.40448 0.82381 0.0
C735 C 0.06921 0.38005 0.67655 0.0
C736 C 0.08763 0.38473 0.695 0.0
C737 C 0.05255 0.37857 0.70398 0.0
C738 C 0.03307 0.39342 0.81611 0.0
H739 H 0.94838 0.34699 0.9027 0.0
H740 H 0.97926 0.34709 0.8607 0.0
H741 H 0.01449 0.40293 0.87001 0.0
H742 H 0.10288 0.3912 0.75731 0.0
H743 H 0.07394 0.38835 0.80522 0.0
H744 H 0.0227 0.35603 0.74387 0.0
C745 C 0.97298 0.36097 0.8708 0.0
C746 C 0.01598 0.3927 0.84234 0.0
C747 C 0.95533 0.36088 0.89514 0.0
C748 C 0.08895 0.3877 0.7418 0.0
C749 C 0.07228 0.38616 0.76931 0.0
C750 C 0.02106 0.36649 0.77104 0.0
C751 C 0.98247 0.37872 0.86005 0.0
C752 C 1.00107 0.37898 0.8331 0.0
C753 C 0.05379 0.38163 0.75079 0.0
C754 C 0.03583 0.38041 0.77985 0.0
H755 H 0.94991 0.41008 0.9093 0.0
H756 H 0.98044 0.41032 0.86659 0.0
H757 H 0.99278 0.35514 0.78865 0.0
H758 H 0.06755 0.37775 0.64066 0.0
H759 H 0.0386 0.37539 0.68822 0.0
C760 C 0.3595 0.45336 0.13223 0.0
C761 C 0.37672 0.44665 0.15313 0.0
C762 C 0.35949 0.471 0.10792 0.0
C763 C 0.38352 0.51863 0.09796 0.0
H764 H 0.36867 0.51738 0.9721 0.0
C765 C 0.39724 0.58545 0.98149 0.0
C766 C 0.38499 0.58841 0.94411 0.0
C767 C 0.39541 0.56856 1.00803 0.0
C768 C 0.37249 0.51826 1.0074 0.0
H769 H 0.40717 0.45366 0.16661 0.0
H770 H 0.40689 0.48476 0.12584 0.0
H771 H 0.36614 0.48774 0.0173 0.0
H772 H 0.36073 0.57626 0.90624 0.0
H773 H 0.35677 0.54746 0.95353 0.0
H774 H 0.38927 0.54915 0.08909 0.0
C775 C 0.39353 0.47618 0.12745 0.0
C776 C 0.37112 0.50113 0.03323 0.0
C777 C 0.39368 0.45835 0.15074 0.0
C778 C 0.37055 0.57432 0.93453 0.0
C779 C 0.36842 0.55764 0.96161 0.0
C780 C 0.38448 0.53588 0.07246 0.0
C781 C 0.37653 0.48258 0.10525 0.0
C782 C 0.37683 0.50107 0.07864 0.0
C783 C 0.38096 0.5543 0.99856 0.0
C784 C 0.3792 0.53598 0.02651 0.0
H785 H 0.34611 0.44488 0.13418 0.0
H786 H 0.34613 0.47567 0.09145 0.0
H787 H 0.38788 0.51904 0.13302 0.0
H788 H 0.40863 0.59594 0.98956 0.0
H789 H 0.40568 0.56656 0.03537 0.0
C790 C 0.59023 0.61781 0.04344 0.0
C791 C 0.58913 0.62107 0.09016 0.0
C792 C 0.5735 0.61955 0.01625 0.0
C793 C 0.53401 0.61278 0.97055 0.0
H794 H 0.49438 0.65161 0.99844 0.0
C795 C 0.45683 0.61017 0.89018 0.0
C796 C 0.4474 0.62786 0.87973 0.0
C797 C 0.4745 0.61009 0.91412 0.0
C798 C 0.50536 0.64081 0.98975 0.0
H799 H 0.5694 0.62874 0.14474 0.0
H800 H 0.54035 0.6314 0.09779 0.0
H801 H 0.52454 0.65062 0.04219 0.0
H802 H 0.44922 0.6594 0.88575 0.0
H803 H 0.48028 0.65937 0.92702 0.0
H804 H 0.51503 0.60324 0.91751 0.0
C805 C 0.55418 0.62788 0.08179 0.0
C806 C 0.52261 0.64005 1.01535 0.0
C807 C 0.57089 0.62621 0.10889 0.0
C808 C 0.45611 0.64553 0.89348 0.0
C809 C 0.47387 0.64547 0.91737 0.0
C810 C 0.51679 0.61358 0.94488 0.0
C811 C 0.55518 0.62454 0.03506 0.0
C812 C 0.53713 0.62591 1.00643 0.0
C813 C 0.48332 0.62772 0.92814 0.0
C814 C 0.5021 0.62748 0.95434 0.0
H815 H 0.60402 0.61392 0.02774 0.0
H816 H 0.57498 0.61713 0.98037 0.0
H817 H 0.54469 0.60155 0.96279 0.0
H818 H 0.45042 0.59629 0.88033 0.0
H819 H 0.48105 0.59611 0.92238 0.0
C820 C 0.64806 0.55234 0.13353 0.0
C821 C 0.6308 0.559 0.1544 0.0
C822 C 0.64815 0.5347 0.10916 0.0
C823 C 0.62427 0.48702 0.09894 0.0
H824 H 0.63914 0.48833 0.97305 0.0
C825 C 0.61058 0.42029 0.98206 0.0
C826 C 0.62285 0.41734 0.94465 0.0
C827 C 0.61241 0.43717 1.00871 0.0
C828 C 0.63532 0.48744 1.00835 0.0
H829 H 0.60035 0.55192 0.16775 0.0
H830 H 0.60076 0.52083 0.12685 0.0
H831 H 0.6416 0.51797 0.01841 0.0
H832 H 0.64716 0.42947 0.90688 0.0
H833 H 0.65112 0.45824 0.95437 0.0
H834 H 0.61858 0.45649 0.08992 0.0
C835 C 0.6141 0.52943 0.12855 0.0
C836 C 0.63665 0.50457 0.03428 0.0
C837 C 0.61387 0.54726 0.15191 0.0
C838 C 0.63731 0.43141 0.93517 0.0
C839 C 0.63945 0.44807 0.96237 0.0
C840 C 0.62335 0.46978 0.07335 0.0
C841 C 0.63114 0.52308 0.10638 0.0
C842 C 0.63092 0.5046 0.07969 0.0
C843 C 0.62688 0.4514 0.99934 0.0
C844 C 0.62863 0.4697 0.02738 0.0
H845 H 0.66143 0.56085 0.13556 0.0
H846 H 0.66155 0.53006 0.09271 0.0
H847 H 0.6199 0.4866 0.13401 0.0
H848 H 0.59918 0.4098 0.99009 0.0
H849 H 0.60212 0.43917 0.03608 0.0
C850 C 0.41735 0.38785 0.04218 0.0
C851 C 0.41838 0.38465 0.08891 0.0
C852 C 0.43415 0.38623 1.01509 0.0
C853 C 0.47368 0.39325 0.96956 0.0
H854 H 0.51343 0.35458 0.99734 0.0
C855 C 0.55094 0.39587 0.8888 0.0
C856 C 0.56038 0.37816 0.87841 0.0
C857 C 0.53324 0.39599 0.91277 0.0
C858 C 0.50242 0.36534 0.98868 0.0
H859 H 0.43807 0.37717 0.14359 0.0
H860 H 0.46723 0.37468 0.0968 0.0
H861 H 0.48326 0.35551 0.04117 0.0
H862 H 0.5585 0.34663 0.88442 0.0
H863 H 0.52743 0.34673 0.92573 0.0
H864 H 0.49266 0.40282 0.91648 0.0
C865 C 0.45341 0.3781 0.08073 0.0
C866 C 0.48516 0.36606 1.01432 0.0
C867 C 0.43663 0.37965 0.10773 0.0
C868 C 0.55161 0.36052 0.89213 0.0
C869 C 0.53385 0.36062 0.91606 0.0
C870 C 0.49092 0.3925 0.94385 0.0
C871 C 0.45247 0.3814 0.03398 0.0
C872 C 0.47058 0.38013 1.00542 0.0
C873 C 0.52441 0.37838 0.92687 0.0
C874 C 0.50564 0.37864 0.95323 0.0
H875 H 0.40356 0.3916 0.02639 0.0
H876 H 0.43271 0.38861 0.9792 0.0
H877 H 0.46295 0.40442 0.9618 0.0
H878 H 0.55738 0.40973 0.87896 0.0
H879 H 0.52669 0.40998 0.92101 0.0
C880 C 0.87014 0.43212 0.85101 0.0
C881 C 0.88468 0.41814 0.84162 0.0
C882 C 0.86802 0.44879 0.82393 0.0
C883 C 0.88423 0.47061 0.71326 0.0
H884 H 0.86588 0.51874 0.76834 0.0
C885 C 0.89403 0.54794 0.63491 0.0
C886 C 0.87723 0.55982 0.63253 0.0
C887 C 0.89365 0.53014 0.65823 0.0
C888 C 0.87085 0.50536 0.75242 0.0
H889 H 0.9085 0.41077 0.79645 0.0
H890 H 0.90556 0.44016 0.75065 0.0
H891 H 0.86828 0.48909 0.81354 0.0
H892 H 0.84665 0.56195 0.6516 0.0
H893 H 0.84626 0.53117 0.69442 0.0
H894 H 0.88776 0.48745 0.65272 0.0
C895 C 0.89521 0.43808 0.77787 0.0
C896 C 0.87215 0.48822 0.77826 0.0
C897 C 0.89704 0.4212 0.80442 0.0
C898 C 0.85993 0.55333 0.65355 0.0
C899 C 0.85968 0.53569 0.6779 0.0
C900 C 0.88333 0.48786 0.68776 0.0
C901 C 0.88067 0.45222 0.78715 0.0
C902 C 0.8789 0.47052 0.75919 0.0
C903 C 0.87657 0.52392 0.6805 0.0
C904 C 0.87666 0.50542 0.70705 0.0
H905 H 0.86022 0.43011 0.87914 0.0
H906 H 0.8563 0.45889 0.83186 0.0
H907 H 0.88905 0.45735 0.69667 0.0
H908 H 0.90758 0.55247 0.61896 0.0
H909 H 0.9069 0.52143 0.65981 0.0
C910 C 0.55315 0.14609 0.39 0.0
C911 C 0.56196 0.12846 0.40348 0.0
C912 C 0.53542 0.14596 0.36602 0.0
C913 C 0.49272 0.11378 0.33712 0.0
H914 H 0.48487 0.15137 0.24121 0.0
C915 C 0.41942 0.11778 0.23786 0.0
C916 C 0.42055 0.12151 0.19133 0.0
C917 C 0.43609 0.11953 0.26531 0.0
C918 C 0.48683 0.14064 0.26764 0.0
H919 H 0.55907 0.09687 0.40239 0.0
H920 H 0.52848 0.09657 0.36014 0.0
H921 H 0.51494 0.15236 0.28522 0.0
H922 H 0.44028 0.13 0.1374 0.0
H923 H 0.46921 0.13265 0.18474 0.0
H924 H 0.46495 0.10159 0.31846 0.0
C925 C 0.53494 0.11057 0.36868 0.0
C926 C 0.50404 0.14139 0.29341 0.0
C927 C 0.5526 0.11073 0.39275 0.0
C928 C 0.43876 0.12712 0.17309 0.0
C929 C 0.45541 0.12877 0.20043 0.0
C930 C 0.47555 0.11298 0.31123 0.0
C931 C 0.52606 0.12818 0.35484 0.0
C932 C 0.50733 0.12788 0.32838 0.0
C933 C 0.45438 0.12497 0.24697 0.0
C934 C 0.47238 0.12631 0.27584 0.0
H935 H 0.55998 0.16 0.39796 0.0
H936 H 0.52897 0.15984 0.35658 0.0
H937 H 0.49451 0.10329 0.36412 0.0
H938 H 0.40566 0.11349 0.25318 0.0
H939 H 0.43457 0.11674 0.30103 0.0
C940 C 0.13772 0.57418 0.8501 0.0
C941 C 0.12329 0.58825 0.84066 0.0
C942 C 0.13978 0.55749 0.82299 0.0
C943 C 0.12355 0.5357 0.71227 0.0
H944 H 0.14143 0.48747 0.76744 0.0
C945 C 0.11321 0.45831 0.63419 0.0
C946 C 0.12995 0.44636 0.63169 0.0
C947 C 0.11368 0.47614 0.65748 0.0
C948 C 0.13658 0.50088 0.7515 0.0
H949 H 0.09956 0.59572 0.79547 0.0
H950 H 0.10239 0.56631 0.74959 0.0
H951 H 0.13922 0.51719 0.81262 0.0
H952 H 0.16054 0.44412 0.65051 0.0
H953 H 0.1611 0.47495 0.69329 0.0
H954 H 0.11995 0.51883 0.65174 0.0
C955 C 0.11272 0.56835 0.77684 0.0
C956 C 0.1354 0.51805 0.77732 0.0
C957 C 0.11096 0.58525 0.80341 0.0
C958 C 0.1473 0.45281 0.65255 0.0
C959 C 0.14764 0.47046 0.67687 0.0
C960 C 0.12433 0.51842 0.68679 0.0
C961 C 0.12716 0.55412 0.78616 0.0
C962 C 0.12882 0.53579 0.75821 0.0
C963 C 0.13081 0.4823 0.6796 0.0
C964 C 0.13083 0.50083 0.70613 0.0
H965 H 0.1476 0.57615 0.87829 0.0
H966 H 0.15141 0.54731 0.83095 0.0
H967 H 0.11887 0.54898 0.69566 0.0
H968 H 0.09962 0.45382 0.61835 0.0
H969 H 0.10047 0.48491 0.65915 0.0
C970 C 0.58889 0.8878 0.23917 0.0
C971 C 0.58763 0.88472 0.19241 0.0
C972 C 0.57223 0.88598 0.26665 0.0
C973 C 0.53294 0.89274 0.31322 0.0
H974 H 0.49286 0.85433 0.28512 0.0
C975 C 0.45596 0.8959 0.39435 0.0
C976 C 0.44627 0.87829 0.40461 0.0
C977 C 0.4736 0.89583 0.37024 0.0
C978 C 0.50397 0.86501 0.29387 0.0
H979 H 0.5677 0.87729 0.13807 0.0
H980 H 0.53879 0.87452 0.18553 0.0
H981 H 0.52296 0.85524 0.241 0.0
H982 H 0.44759 0.84675 0.39805 0.0
H983 H 0.47862 0.84652 0.35646 0.0
H984 H 0.51416 0.90223 0.36671 0.0
C985 C 0.55267 0.87795 0.20133 0.0
C986 C 0.52118 0.86572 0.26807 0.0
C987 C 0.56931 0.87968 0.17394 0.0
C988 C 0.45469 0.86056 0.39047 0.0
C989 C 0.47243 0.86047 0.36641 0.0
C990 C 0.51577 0.89198 0.33912 0.0
C991 C 0.55384 0.88111 0.24811 0.0
C992 C 0.53586 0.87973 0.27704 0.0
C993 C 0.48214 0.87813 0.35587 0.0
C994 C 0.50091 0.87825 0.32956 0.0
H995 H 0.60275 0.89161 0.25466 0.0
H996 H 0.57384 0.88826 0.30255 0.0
H997 H 0.54375 0.90386 0.32105 0.0
H998 H 0.44978 0.90983 0.4045 0.0
H999 H 0.48034 0.90975 0.36215 0.0
C1000 C 0.89733 0.95537 0.64181 0.0
C1001 C 0.87935 0.94637 0.6522 0.0
C1002 C 0.89789 0.97314 0.61829 0.0
C1003 C 0.89549 0.01566 0.58831 0.0
H1004 H 0.85798 0.02481 0.4927 0.0
C1005 C 0.89196 0.08984 0.49242 0.0
C1006 C 0.88822 0.08911 0.44585 0.0
C1007 C 0.89022 0.07295 0.5191 0.0
C1008 C 0.86869 0.02249 0.51905 0.0
H1009 H 0.84783 0.94915 0.64685 0.0
H1010 H 0.84871 0.98032 0.60639 0.0
H1011 H 0.85656 0.99444 0.53538 0.0
H1012 H 0.87978 0.06985 0.39101 0.0
H1013 H 0.87714 0.04057 0.43699 0.0
H1014 H 0.90804 0.04341 0.57092 0.0
C1015 C 0.86245 0.9735 0.61559 0.0
C1016 C 0.8677 0.00511 0.54406 0.0
C1017 C 0.86191 0.95567 0.63903 0.0
C1018 C 0.88267 0.07107 0.42676 0.0
C1019 C 0.88102 0.05422 0.45332 0.0
C1020 C 0.89652 0.03302 0.5632 0.0
C1021 C 0.88047 0.98249 0.60473 0.0
C1022 C 0.88115 1.00135 0.57891 0.0
C1023 C 0.88476 0.05486 0.49991 0.0
C1024 C 0.88322 0.03665 0.52795 0.0
H1025 H 0.91103 0.94853 0.65135 0.0
H1026 H 0.91205 0.97935 0.61002 0.0
H1027 H 0.90595 0.0135 0.61524 0.0
H1028 H 0.89619 0.10348 0.50838 0.0
H1029 H 0.89298 0.07416 0.55489 0.0
C1030 C 0.07925 0.13833 0.59373 0.0
C1031 C 0.09265 0.12315 0.58515 0.0
C1032 C 0.0624 0.14057 0.56711 0.0
C1033 C 0.03937 0.12328 0.45854 0.0
H1034 H 0.99193 0.14364 0.51322 0.0
C1035 C 0.96165 0.11447 0.38102 0.0
C1036 C 0.94993 0.13136 0.37874 0.0
C1037 C 0.97954 0.11468 0.40417 0.0
C1038 C 0.00512 0.13809 0.49739 0.0
H1039 H 0.09867 0.09826 0.542 0.0
H1040 H 0.06909 0.10151 0.49715 0.0
H1041 H 0.02184 0.14134 0.55781 0.0
H1042 H 0.94814 0.16193 0.39786 0.0
H1043 H 0.9791 0.16208 0.44006 0.0
H1044 H 0.02215 0.1192 0.39875 0.0
C1045 C 0.07177 0.11225 0.52325 0.0
C1046 C 0.02239 0.13684 0.52288 0.0
C1047 C 0.08878 0.11026 0.5493 0.0
C1048 C 0.95668 0.14859 0.39962 0.0
C1049 C 0.97439 0.14869 0.42371 0.0
C1050 C 0.02199 0.12417 0.4334 0.0
C1051 C 0.05824 0.12744 0.53162 0.0
C1052 C 0.03984 0.12934 0.50398 0.0
C1053 C 0.98601 0.13171 0.4263 0.0
C1054 C 0.00466 0.13153 0.45254 0.0
H1055 H 0.08186 0.14863 0.62085 0.0
H1056 H 0.05274 0.15273 0.57433 0.0
H1057 H 0.05244 0.11789 0.44203 0.0
H1058 H 0.95692 0.10097 0.36519 0.0
H1059 H 0.98812 0.10136 0.40571 0.0
C1060 C 0.12327 0.93721 0.42274 0.0
C1061 C 0.12069 0.91871 0.44273 0.0
C1062 C 0.12441 0.95416 0.44914 0.0
C1063 C 0.13592 0.97249 0.56272 0.0
H1064 H 0.10552 0.01773 0.52614 0.0
C1065 C 0.14592 0.05039 0.64043 0.0
C1066 C 0.12864 0.06057 0.65124 0.0
C1067 C 0.1451 0.0327 0.61636 0.0
C1068 C 0.11405 0.00522 0.53693 0.0
H1069 H 0.11764 0.9036 0.50655 0.0
H1070 H 0.1199 0.93328 0.55277 0.0
H1071 H 0.10377 0.98755 0.4821 0.0
H1072 H 0.09699 0.06022 0.64539 0.0
H1073 H 0.09557 0.02955 0.60296 0.0
H1074 H 0.14631 0.9903 0.61741 0.0
C1075 C 0.12097 0.93459 0.51651 0.0
C1076 C 0.11316 0.98796 0.51149 0.0
C1077 C 0.11957 0.91759 0.48999 0.0
C1078 C 0.11055 0.0527 0.63759 0.0
C1079 C 0.10975 0.03518 0.61306 0.0
C1080 C 0.13703 0.98988 0.58785 0.0
C1081 C 0.12322 0.95311 0.49633 0.0
C1082 C 0.12407 0.97136 0.52405 0.0
C1083 C 0.127 0.02495 0.6021 0.0
C1084 C 0.12606 0.00645 0.57532 0.0
H1085 H 0.12417 0.93869 0.38649 0.0
H1086 H 0.12635 0.96815 0.43253 0.0
H1087 H 0.1446 0.96002 0.57314 0.0
H1088 H 0.16007 0.05612 0.65053 0.0
H1089 H 0.15867 0.02528 0.60816 0.0
C1090 C 0.04959 0.89492 0.392 0.0
C1091 C 0.05919 0.87739 0.38083 0.0
C1092 C 0.03187 0.89468 0.41577 0.0
C1093 C 1.00052 0.86299 0.48856 0.0
H1094 H 0.96161 0.90278 0.46301 0.0
C1095 C 0.93375 0.87638 0.60572 0.0
C1096 C 0.91594 0.88265 0.58672 0.0
C1097 C 0.95068 0.87458 0.57925 0.0
C1098 C 0.97214 0.89137 0.47035 0.0
H1099 H 0.05766 0.8458 0.38557 0.0
H1100 H 0.02644 0.84526 0.42631 0.0
H1101 H 0.99155 0.90154 0.4188 0.0
H1102 H 0.90195 0.89136 0.52432 0.0
H1103 H 0.93124 0.88774 0.47802 0.0
H1104 H 0.98082 0.8525 0.53931 0.0
C1105 C 0.03277 0.85928 0.41744 0.0
C1106 C 0.98955 0.89085 0.44532 0.0
C1107 C 0.05062 0.85955 0.39382 0.0
C1108 C 0.91542 0.88664 0.54026 0.0
C1109 C 0.93232 0.88468 0.51369 0.0
C1110 C 0.98302 0.86344 0.51343 0.0
C1111 C 0.02311 0.87687 0.42879 0.0
C1112 C 0.00412 0.87679 0.45432 0.0
C1113 C 0.95028 0.87884 0.53285 0.0
C1114 C 0.96862 0.87775 0.505 0.0
H1115 H 0.05591 0.90892 0.38281 0.0
H1116 H 0.02521 0.90855 0.42457 0.0
H1117 H 0.01138 0.85204 0.49689 0.0
H1118 H 0.93479 0.87327 0.6414 0.0
H1119 H 0.96421 0.87034 0.59557 0.0
C1120 C 0.34317 0.18076 0.11306 0.0
C1121 C 0.36011 0.16909 0.113 0.0
C1122 C 0.34451 0.20114 0.11624 0.0
C1123 C 0.37732 0.24085 0.15555 0.0
H1124 H 0.33995 0.27357 0.09251 0.0
C1125 C 0.37705 0.32677 0.16246 0.0
C1126 C 0.35848 0.33565 0.16466 0.0
C1127 C 0.37874 0.30641 0.15647 0.0
C1128 C 0.3504 0.26466 0.11071 0.0
H1129 H 0.39185 0.16972 0.11499 0.0
H1130 H 0.39427 0.20551 0.12011 0.0
H1131 H 0.3405 0.23851 0.07816 0.0
H1132 H 0.32719 0.33005 0.16483 0.0
H1133 H 0.33011 0.2948 0.15491 0.0
H1134 H 0.38714 0.26721 0.18815 0.0
C1135 C 0.37989 0.19882 0.11824 0.0
C1136 C 0.35073 0.2445 0.10244 0.0
C1137 C 0.37853 0.17833 0.11488 0.0
C1138 C 0.34172 0.3237 0.16285 0.0
C1139 C 0.34339 0.30348 0.15678 0.0
C1140 C 0.37704 0.26112 0.16374 0.0
C1141 C 0.36286 0.21049 0.11943 0.0
C1142 C 0.36393 0.23223 0.12533 0.0
C1143 C 0.36189 0.29459 0.1524 0.0
C1144 C 0.36329 0.27321 0.14205 0.0
H1145 H 0.32875 0.17409 0.11177 0.0
H1146 H 0.33105 0.20952 0.11767 0.0
H1147 H 0.38759 0.23187 0.1741 0.0
H1148 H 0.39024 0.3356 0.16369 0.0
H1149 H 0.39322 0.30005 0.15326 0.0
C1150 C 0.32841 0.63053 0.86812 0.0
C1151 C 0.33765 0.64894 0.86674 0.0
C1152 C 0.3079 0.62916 0.87114 0.0
C1153 C 0.26219 0.65812 0.85495 0.0
H1154 H 0.23948 0.62167 0.94049 0.0
C1155 C 0.18237 0.66606 0.91295 0.0
C1156 C 0.17077 0.64909 0.91529 0.0
C1157 C 0.20267 0.66476 0.90725 0.0
C1158 C 0.24557 0.63178 0.91611 0.0
H1159 H 0.33268 0.68026 0.86596 0.0
H1160 H 0.29716 0.67793 0.8712 0.0
H1161 H 0.27489 0.62148 0.92705 0.0
H1162 H 0.17147 0.61737 0.9155 0.0
H1163 H 0.2071 0.61506 0.90558 0.0
H1164 H 0.23303 0.6686 0.84432 0.0
C1165 C 0.30558 0.66451 0.8697 0.0
C1166 C 0.26587 0.63165 0.90829 0.0
C1167 C 0.32599 0.66586 0.86689 0.0
C1168 C 0.18004 0.63071 0.91385 0.0
C1169 C 0.20045 0.6294 0.90818 0.0
C1170 C 0.24198 0.65828 0.86281 0.0
C1171 C 0.29623 0.64616 0.87246 0.0
C1172 C 0.27448 0.64504 0.87811 0.0
C1173 C 0.21195 0.64644 0.90374 0.0
C1174 C 0.23341 0.64535 0.89403 0.0
H1175 H 0.33703 0.61722 0.86813 0.0
H1176 H 0.3012 0.61479 0.87266 0.0
H1177 H 0.2682 0.66835 0.83075 0.0
H1178 H 0.17569 0.68044 0.91433 0.0
H1179 H 0.21109 0.67819 0.90507 0.0
C1180 C 0.66404 0.82438 0.11106 0.0
C1181 C 0.64724 0.83623 0.11228 0.0
C1182 C 0.66251 0.80403 0.11418 0.0
C1183 C 0.6298 0.76474 0.15585 0.0
H1184 H 0.66633 0.73158 0.0911 0.0
C1185 C 0.63009 0.67881 0.16405 0.0
C1186 C 0.64872 0.67001 0.16585 0.0
C1187 C 0.62829 0.69913 0.15774 0.0
C1188 C 0.65611 0.74063 0.10974 0.0
H1189 H 0.61553 0.83598 0.11637 0.0
H1190 H 0.61277 0.8002 0.12134 0.0
H1191 H 0.66573 0.76658 0.07607 0.0
H1192 H 0.67998 0.67573 0.16503 0.0
H1193 H 0.67687 0.71092 0.15443 0.0
H1194 H 0.62026 0.73856 0.18954 0.0
C1195 C 0.62719 0.80673 0.11853 0.0
C1196 C 0.65575 0.76074 0.10109 0.0
C1197 C 0.62874 0.82721 0.11524 0.0
C1198 C 0.66542 0.68202 0.16336 0.0
C1199 C 0.66363 0.7022 0.15692 0.0
C1200 C 0.63009 0.74451 0.16438 0.0
C1201 C 0.64411 0.79488 0.11856 0.0
C1202 C 0.6429 0.77317 0.12465 0.0
C1203 C 0.64508 0.71098 0.1529 0.0
C1204 C 0.64356 0.73228 0.14208 0.0
H1205 H 0.67851 0.83089 0.10891 0.0
H1206 H 0.67589 0.7955 0.1147 0.0
H1207 H 0.6198 0.77385 0.17492 0.0
H1208 H 0.61694 0.66993 0.16582 0.0
H1209 H 0.61378 0.70543 0.15485 0.0
C1210 C 0.8257 0.33989 0.91264 0.0
C1211 C 0.83725 0.35691 0.91402 0.0
C1212 C 0.80527 0.3411 0.90996 0.0
C1213 C 0.7652 0.37401 0.8743 0.0
H1214 H 0.73283 0.33633 0.93767 0.0
C1215 C 0.67937 0.37478 0.87144 0.0
C1216 C 0.67002 0.35642 0.87007 0.0
C1217 C 0.69981 0.37605 0.87646 0.0
C1218 C 0.74164 0.34685 0.91931 0.0
H1219 H 0.83643 0.38862 0.91473 0.0
H1220 H 0.80057 0.39079 0.91033 0.0
H1221 H 0.76809 0.33659 0.94987 0.0
H1222 H 0.67482 0.32507 0.8705 0.0
H1223 H 0.71028 0.32725 0.87847 0.0
H1224 H 0.73861 0.38416 0.84354 0.0
C1225 C 0.80737 0.37647 0.91086 0.0
C1226 C 0.7619 0.34702 0.9264 0.0
C1227 C 0.82789 0.37524 0.91378 0.0
C1228 C 0.68157 0.33943 0.87185 0.0
C1229 C 0.7019 0.34069 0.87682 0.0
C1230 C 0.74485 0.37385 0.8672 0.0
C1231 C 0.79581 0.35939 0.90854 0.0
C1232 C 0.77402 0.36039 0.90351 0.0
C1233 C 0.71129 0.35899 0.88023 0.0
C1234 C 0.73284 0.36003 0.88908 0.0
H1235 H 0.83248 0.32555 0.91268 0.0
H1236 H 0.79693 0.32763 0.90767 0.0
H1237 H 0.77408 0.38441 0.85577 0.0
H1238 H 0.67084 0.38814 0.87023 0.0
H1239 H 0.70652 0.39039 0.87902 0.0
C1240 C 0.87911 0.67965 0.62523 0.0
C1241 C 0.86098 0.6709 0.61481 0.0
C1242 C 0.88082 0.70013 0.62784 0.0
C1243 C 0.85762 0.74585 0.58955 0.0
H1244 H 0.87909 0.76982 0.6973 0.0
C1245 C 0.8421 0.82608 0.62737 0.0
C1246 C 0.85699 0.83806 0.64484 0.0
C1247 C 0.84429 0.80581 0.62567 0.0
C1248 C 0.87332 0.76341 0.6667 0.0
H1249 H 0.83069 0.67663 0.59764 0.0
H1250 H 0.83378 0.71222 0.60086 0.0
H1251 H 0.8805 0.73415 0.68777 0.0
H1252 H 0.88568 0.83817 0.67587 0.0
H1253 H 0.88981 0.80235 0.6722 0.0
H1254 H 0.85052 0.77478 0.56799 0.0
C1255 C 0.84663 0.70336 0.60738 0.0
C1256 C 0.87412 0.74296 0.66126 0.0
C1257 C 0.84485 0.68297 0.60557 0.0
C1258 C 0.87392 0.82923 0.6625 0.0
C1259 C 0.87626 0.80874 0.66026 0.0
C1260 C 0.85699 0.76617 0.59472 0.0
C1261 C 0.86455 0.7122 0.61917 0.0
C1262 C 0.86584 0.73394 0.62307 0.0
C1263 C 0.86164 0.79683 0.6406 0.0
C1264 C 0.86431 0.77525 0.63391 0.0
H1265 H 0.89177 0.67069 0.63285 0.0
H1266 H 0.89483 0.70653 0.63673 0.0
H1267 H 0.85146 0.73939 0.55937 0.0
H1268 H 0.82879 0.83245 0.61393 0.0
H1269 H 0.8324 0.79718 0.61181 0.0
C1270 C 0.8274 0.16647 0.37154 0.0
C1271 C 0.83917 0.14961 0.37187 0.0
C1272 C 0.80697 0.16501 0.3733 0.0
C1273 C 0.76687 0.13216 0.40952 0.0
H1274 H 0.73483 0.1689 0.34275 0.0
C1275 C 0.68094 0.1315 0.41087 0.0
C1276 C 0.6717 0.14991 0.41117 0.0
C1277 C 0.70139 0.13009 0.40609 0.0
C1278 C 0.74354 0.15864 0.36202 0.0
H1279 H 0.83871 0.1179 0.37326 0.0
H1280 H 0.80281 0.11529 0.37611 0.0
H1281 H 0.77016 0.16859 0.33149 0.0
H1282 H 0.67673 0.18123 0.40896 0.0
H1283 H 0.71218 0.17882 0.40131 0.0
H1284 H 0.74009 0.12234 0.44027 0.0
C1285 C 0.80946 0.12968 0.3749 0.0
C1286 C 0.76385 0.15844 0.35548 0.0
C1287 C 0.83001 0.13116 0.37287 0.0
C1288 C 0.68337 0.16682 0.40845 0.0
C1289 C 0.70371 0.16543 0.40368 0.0
C1290 C 0.74646 0.13235 0.41606 0.0
C1291 C 0.79768 0.14663 0.37551 0.0
C1292 C 0.77586 0.14545 0.37968 0.0
C1293 C 0.71299 0.14706 0.40144 0.0
C1294 C 0.73458 0.14585 0.39297 0.0
H1295 H 0.83401 0.1809 0.37087 0.0
H1296 H 0.79848 0.1784 0.37431 0.0
H1297 H 0.77565 0.12206 0.42902 0.0
H1298 H 0.67232 0.1182 0.41283 0.0
H1299 H 0.70802 0.11571 0.40445 0.0
C1300 C 0.16226 0.32335 0.60306 0.0
C1301 C 0.14616 0.33533 0.61335 0.0
C1302 C 0.16056 0.30296 0.60444 0.0
C1303 C 0.13395 0.26314 0.65913 0.0
H1304 H 0.15621 0.23165 0.56333 0.0
C1305 C 0.13467 0.17697 0.66003 0.0
C1306 C 0.15131 0.16819 0.64076 0.0
C1307 C 0.13215 0.19743 0.65779 0.0
C1308 C 0.15013 0.24016 0.59076 0.0
H1309 H 0.11553 0.33537 0.63282 0.0
H1310 H 0.11263 0.2995 0.63604 0.0
H1311 H 0.15506 0.26706 0.5555 0.0
H1312 H 0.17883 0.17386 0.60673 0.0
H1313 H 0.17495 0.20909 0.60459 0.0
H1314 H 0.12967 0.23619 0.69513 0.0
C1315 C 0.12654 0.30599 0.62661 0.0
C1316 C 0.14936 0.2605 0.58604 0.0
C1317 C 0.12815 0.32648 0.62438 0.0
C1318 C 0.16574 0.18019 0.62145 0.0
C1319 C 0.16339 0.20045 0.61975 0.0
C1320 C 0.13492 0.24269 0.66415 0.0
C1321 C 0.14278 0.29401 0.61689 0.0
C1322 C 0.14161 0.27228 0.62044 0.0
C1323 C 0.14631 0.20938 0.63654 0.0
C1324 C 0.14346 0.23096 0.6304 0.0
H1325 H 0.17633 0.32978 0.59464 0.0
H1326 H 0.17338 0.29416 0.59709 0.0
H1327 H 0.12795 0.27186 0.68632 0.0
H1328 H 0.12326 0.16801 0.67488 0.0
H1329 H 0.11881 0.20376 0.67117 0.0
C1330 C 0.32421 0.84179 0.42129 0.0
C1331 C 0.33607 0.85861 0.42119 0.0
C1332 C 0.30383 0.8433 0.41802 0.0
C1333 C 0.26461 0.87635 0.37786 0.0
H1334 H 0.23118 0.83938 0.44058 0.0
C1335 C 0.17864 0.87675 0.36974 0.0
C1336 C 0.16958 0.85826 0.36738 0.0
C1337 C 0.19901 0.87829 0.37598 0.0
C1338 C 0.2403 0.84972 0.42248 0.0
H1339 H 0.3358 0.89032 0.41896 0.0
H1340 H 0.30001 0.89303 0.41373 0.0
H1341 H 0.26623 0.83969 0.45561 0.0
H1342 H 0.17488 0.82698 0.36709 0.0
H1343 H 0.21018 0.82963 0.37746 0.0
H1344 H 0.23847 0.8863 0.34468 0.0
C1345 C 0.30654 0.87861 0.41576 0.0
C1346 C 0.26044 0.84991 0.43114 0.0
C1347 C 0.32703 0.87708 0.41919 0.0
C1348 C 0.18138 0.84143 0.3692 0.0
C1349 C 0.20161 0.84296 0.37552 0.0
C1350 C 0.24436 0.87621 0.3693 0.0
C1351 C 0.29469 0.8617 0.4146 0.0
C1352 C 0.27296 0.86295 0.40836 0.0
C1353 C 0.21066 0.86136 0.38013 0.0
C1354 C 0.23202 0.86261 0.39087 0.0
H1355 H 0.33073 0.82734 0.42268 0.0
H1356 H 0.29529 0.82993 0.41664 0.0
H1357 H 0.27379 0.88649 0.35938 0.0
H1358 H 0.16992 0.88998 0.3685 0.0
H1359 H 0.20551 0.89269 0.37935 0.0
C1360 C 0.21351 0.10271 0.73965 0.0
C1361 C 0.19393 0.10385 0.75445 0.0
C1362 C 0.22905 0.1018 0.77087 0.0
C1363 C 0.24036 0.09023 0.89122 0.0
H1364 H 0.28613 0.12277 0.8719 0.0
C1365 C 0.29969 0.10196 0.03088 0.0
C1366 C 0.31928 0.10455 0.0172 0.0
C1367 C 0.28446 0.10104 0.99887 0.0
C1368 C 0.27364 0.11331 0.87775 0.0
H1369 H 0.17557 0.10441 0.81426 0.0
H1370 H 0.20232 0.1027 0.86784 0.0
H1371 H 0.26026 0.12195 0.81549 0.0
H1372 H 0.33809 0.10752 0.95853 0.0
H1373 H 0.31199 0.10536 0.90354 0.0
H1374 H 0.25374 0.08145 0.9533 0.0
C1375 C 0.20579 0.10247 0.83224 0.0
C1376 C 0.25873 0.11287 0.84517 0.0
C1377 C 0.19037 0.10359 0.80124 0.0
C1378 C 0.32321 0.10574 0.97068 0.0
C1379 C 0.3081 0.10465 0.93886 0.0
C1380 C 0.25534 0.09054 0.92368 0.0
C1381 C 0.22539 0.10173 0.81769 0.0
C1382 C 0.2418 0.10141 0.85146 0.0
C1383 C 0.28841 0.10254 0.95225 0.0
C1384 C 0.27225 0.10213 0.91761 0.0
H1385 H 0.21687 0.10292 0.704 0.0
H1386 H 0.24394 0.10108 0.75832 0.0
H1387 H 0.22766 0.08104 0.89713 0.0
H1388 H 0.29607 0.10106 0.06634 0.0
H1389 H 0.26953 0.09959 1.01084 0.0
C1390 C 0.10342 0.70921 0.99766 0.0
C1391 C 0.10578 0.6898 1.01252 0.0
C1392 C 0.1023 0.72475 0.02878 0.0
C1393 C 0.09246 0.73592 0.15004 0.0
H1394 H 0.12188 0.78332 0.12603 0.0
C1395 C 0.10382 0.79666 0.28656 0.0
C1396 C 0.10487 0.81623 0.27204 0.0
C1397 C 0.10303 0.78121 0.25511 0.0
C1398 C 0.11329 0.77035 0.1332 0.0
H1399 H 0.10813 0.67163 0.07218 0.0
H1400 H 0.10625 0.69844 0.1258 0.0
H1401 H 0.12152 0.75709 0.07046 0.0
H1402 H 0.10496 0.83478 0.21276 0.0
H1403 H 0.10316 0.80825 0.15869 0.0
H1404 H 0.08413 0.74918 0.21267 0.0
C1405 C 0.10523 0.70178 0.09023 0.0
C1406 C 0.11312 0.75523 0.10113 0.0
C1407 C 0.1065 0.68635 0.05927 0.0
C1408 C 0.10454 0.81992 0.2254 0.0
C1409 C 0.1036 0.80459 0.19414 0.0
C1410 C 0.09253 0.75109 0.18204 0.0
C1411 C 0.10329 0.72126 0.07557 0.0
C1412 C 0.10277 0.73774 0.10908 0.0
C1413 C 0.10312 0.78493 0.20831 0.0
C1414 C 0.10298 0.76857 0.17423 0.0
H1415 H 0.1028 0.71245 0.962 0.0
H1416 H 0.10061 0.73952 0.01617 0.0
H1417 H 0.08412 0.72278 0.15724 0.0
H1418 H 0.10411 0.79324 0.32216 0.0
H1419 H 0.10284 0.76632 0.26759 0.0
C1420 C 0.68571 0.89921 0.97263 0.0
C1421 C 0.68938 0.90069 0.01924 0.0
C1422 C 0.70096 0.90051 0.94116 0.0
C1423 C 0.75466 0.89441 0.92907 0.0
H1424 H 0.74688 0.92147 0.81573 0.0
C1425 C 0.81842 0.90396 0.80286 0.0
C1426 C 0.81465 0.90266 0.7563 0.0
C1427 C 0.80314 0.90477 0.83426 0.0
C1428 C 0.74928 0.91362 0.84689 0.0
H1429 H 0.71224 0.90497 0.06888 0.0
H1430 H 0.73899 0.90723 1.01378 0.0
H1431 H 0.7208 0.92126 0.87204 0.0
H1432 H 0.79147 0.90157 0.70658 0.0
H1433 H 0.76463 0.90262 0.76153 0.0
H1434 H 0.78294 0.88643 0.90388 0.0
C1435 C 0.72419 0.90492 1.00172 0.0
C1436 C 0.73429 0.91355 0.87939 0.0
C1437 C 0.70883 0.90375 0.03337 0.0
C1438 C 0.79498 0.90263 0.74206 0.0
C1439 C 0.77957 0.90329 0.77371 0.0
C1440 C 0.7696 0.89437 0.89653 0.0
C1441 C 0.72046 0.90326 0.9551 0.0
C1442 C 0.73674 0.90393 0.921 0.0
C1443 C 0.78343 0.90412 0.82043 0.0
C1444 C 0.76721 0.90402 0.85488 0.0
H1445 H 0.67097 0.89695 0.96017 0.0
H1446 H 0.69745 0.89891 0.90578 0.0
H1447 H 0.75702 0.88653 0.96024 0.0
H1448 H 0.83331 0.90429 0.81539 0.0
H1449 H 0.80689 0.90595 0.86958 0.0
C1450 C 0.91234 0.30027 1.00592 0.0
C1451 C 0.89964 0.31625 1.01267 0.0
C1452 C 0.91356 0.28511 0.03809 0.0
C1453 C 0.88472 0.26141 0.12826 0.0
H1454 H 0.93423 0.24189 0.17397 0.0
C1455 C 0.8896 0.19151 0.23671 0.0
C1456 C 0.90089 0.19212 0.27643 0.0
C1457 C 0.89028 0.20676 0.20535 0.0
C1458 C 0.92029 0.24727 0.16167 0.0
H1459 H 0.87819 0.32856 0.05879 0.0
H1460 H 0.88004 0.30226 0.11352 0.0
H1461 H 0.93398 0.26768 0.11615 0.0
H1462 H 0.92202 0.20944 0.31362 0.0
H1463 H 0.92343 0.23618 0.25801 0.0
H1464 H 0.87098 0.241 0.17309 0.0
C1465 C 0.88913 0.30138 0.08366 0.0
C1466 C 0.92015 0.26189 0.12822 0.0
C1467 C 0.88814 0.31656 0.05213 0.0
C1468 C 0.91305 0.2085 0.28362 0.0
C1469 C 0.91396 0.22375 0.25161 0.0
C1470 C 0.88486 0.24665 0.16099 0.0
C1471 C 0.90183 0.28544 0.07725 0.0
C1472 C 0.90233 0.26923 0.11126 0.0
C1473 C 0.90244 0.2231 0.21218 0.0
C1474 C 0.90262 0.23937 0.17829 0.0
H1475 H 0.92148 0.29957 0.97612 0.0
H1476 H 0.92343 0.27299 0.032 0.0
H1477 H 0.87073 0.26662 0.1159 0.0
H1478 H 0.88005 0.17919 0.22971 0.0
H1479 H 0.88136 0.20564 0.17527 0.0
C1480 C 0.29624 0.40175 0.24559 0.0
C1481 C 0.31578 0.4 0.26024 0.0
C1482 C 0.28072 0.40259 0.27691 0.0
C1483 C 0.2697 0.41257 0.39844 0.0
H1484 H 0.22257 0.38252 0.37542 0.0
C1485 C 0.20948 0.40063 0.53624 0.0
C1486 C 0.18982 0.39947 0.5221 0.0
C1487 C 0.22485 0.40146 0.50449 0.0
C1488 C 0.23547 0.39127 0.38234 0.0
H1489 H 0.33414 0.39841 0.3198 0.0
H1490 H 0.30739 0.39977 0.37366 0.0
H1491 H 0.24864 0.3832 0.31936 0.0
H1492 H 0.17108 0.39916 0.46308 0.0
H1493 H 0.19746 0.40097 0.40856 0.0
H1494 H 0.25653 0.42072 0.46134 0.0
C1495 C 0.30392 0.40055 0.33812 0.0
C1496 C 0.2505 0.39164 0.34996 0.0
C1497 C 0.31934 0.39957 0.30698 0.0
C1498 C 0.18599 0.39967 0.47549 0.0
C1499 C 0.20124 0.40062 0.44395 0.0
C1500 C 0.25463 0.41229 0.43076 0.0
C1501 C 0.28434 0.40193 0.32371 0.0
C1502 C 0.2679 0.40223 0.35753 0.0
C1503 C 0.22097 0.40128 0.45774 0.0
C1504 C 0.23724 0.4016 0.42333 0.0
H1505 H 0.2929 0.40213 0.20996 0.0
H1506 H 0.26586 0.40385 0.26443 0.0
H1507 H 0.28274 0.42112 0.40539 0.0
H1508 H 0.21303 0.40045 0.57177 0.0
H1509 H 0.23979 0.40179 0.51671 0.0
C1510 C 0.40429 0.7095 0.78749 0.0
C1511 C 0.40227 0.69005 0.7725 0.0
C1512 C 0.40512 0.72508 0.75648 0.0
C1513 C 0.41463 0.73652 0.63515 0.0
H1514 H 0.38464 0.78343 0.65991 0.0
C1515 C 0.40233 0.79721 0.49923 0.0
C1516 C 0.40105 0.81677 0.51389 0.0
C1517 C 0.40332 0.78175 0.53055 0.0
C1518 C 0.39338 0.77061 0.65251 0.0
H1519 H 0.4002 0.67187 0.71269 0.0
H1520 H 0.40159 0.69876 0.65927 0.0
H1521 H 0.38546 0.75717 0.71522 0.0
H1522 H 0.40072 0.83527 0.57334 0.0
H1523 H 0.40286 0.80872 0.62719 0.0
H1524 H 0.42265 0.74997 0.57254 0.0
C1525 C 0.40257 0.7021 0.69486 0.0
C1526 C 0.39382 0.75546 0.68446 0.0
C1527 C 0.40159 0.68662 0.72572 0.0
C1528 C 0.40133 0.82042 0.56057 0.0
C1529 C 0.40246 0.80508 0.59171 0.0
C1530 C 0.41429 0.75172 0.60328 0.0
C1531 C 0.40417 0.72161 0.70965 0.0
C1532 C 0.40438 0.73813 0.67624 0.0
C1533 C 0.4032 0.78543 0.5774 0.0
C1534 C 0.40363 0.76904 0.61135 0.0
H1535 H 0.40486 0.71273 0.82317 0.0
H1536 H 0.40656 0.73988 0.76921 0.0
H1537 H 0.42313 0.72353 0.62773 0.0
H1538 H 0.40209 0.79381 0.46361 0.0
H1539 H 0.4037 0.76688 0.51794 0.0
C1540 C 0.71097 0.60379 0.247 0.0
C1541 C 0.69147 0.60594 0.26166 0.0
C1542 C 0.72648 0.60298 0.27829 0.0
C1543 C 0.73737 0.59361 0.39987 0.0
H1544 H 0.78472 0.62322 0.37619 0.0
C1545 C 0.79762 0.60559 0.53727 0.0
C1546 C 0.81727 0.60665 0.52308 0.0
C1547 C 0.78226 0.60473 0.50557 0.0
C1548 C 0.77176 0.61459 0.3833 0.0
H1549 H 0.67312 0.60835 0.32121 0.0
H1550 H 0.69985 0.60698 0.37502 0.0
H1551 H 0.75867 0.62249 0.32021 0.0
H1552 H 0.83605 0.6068 0.46404 0.0
H1553 H 0.8097 0.60488 0.40958 0.0
H1554 H 0.75046 0.5856 0.46284 0.0
C1555 C 0.7033 0.60586 0.3395 0.0
C1556 C 0.75675 0.61419 0.35097 0.0
C1557 C 0.68791 0.60683 0.30839 0.0
C1558 C 0.82113 0.60633 0.47647 0.0
C1559 C 0.8059 0.60534 0.44497 0.0
C1560 C 0.75244 0.5939 0.43212 0.0
C1561 C 0.72285 0.60407 0.32505 0.0
C1562 C 0.73927 0.60378 0.35879 0.0
C1563 C 0.78616 0.60477 0.45882 0.0
C1564 C 0.7699 0.60443 0.42446 0.0
H1565 H 0.71431 0.60306 0.21138 0.0
H1566 H 0.74132 0.60141 0.26583 0.0
H1567 H 0.72425 0.58521 0.407 0.0
H1568 H 0.79406 0.60586 0.57281 0.0
H1569 H 0.76731 0.60448 0.51782 0.0
C1570 C 0.60394 0.21008 0.49491 0.0
C1571 C 0.60696 0.1907 0.50938 0.0
C1572 C 0.60273 0.22552 0.52631 0.0
C1573 C 0.59318 0.23623 0.64762 0.0
H1574 H 0.6226 0.28375 0.625 0.0
C1575 C 0.60378 0.29641 0.78588 0.0
C1576 C 0.60545 0.31602 0.7719 0.0
C1577 C 0.60302 0.28111 0.75401 0.0
C1578 C 0.61397 0.27077 0.6318 0.0
H1579 H 0.6106 0.1725 0.56872 0.0
H1580 H 0.60827 0.19912 0.62277 0.0
H1581 H 0.62225 0.25783 0.56872 0.0
H1582 H 0.60677 0.33479 0.71305 0.0
H1583 H 0.60472 0.3086 0.65832 0.0
H1584 H 0.58467 0.24919 0.71044 0.0
C1585 C 0.60684 0.20249 0.58728 0.0
C1586 C 0.61383 0.25582 0.59931 0.0
C1587 C 0.6083 0.18718 0.55605 0.0
C1588 C 0.60574 0.3199 0.72533 0.0
C1589 C 0.60473 0.30474 0.69367 0.0
C1590 C 0.59314 0.25127 0.67997 0.0
C1591 C 0.6042 0.22192 0.57299 0.0
C1592 C 0.60353 0.23828 0.60679 0.0
C1593 C 0.60368 0.28502 0.70728 0.0
C1594 C 0.60359 0.26881 0.67273 0.0
H1595 H 0.60287 0.21338 0.45933 0.0
H1596 H 0.60056 0.24028 0.51404 0.0
H1597 H 0.58491 0.22301 0.65444 0.0
H1598 H 0.60361 0.29284 0.8214 0.0
H1599 H 0.6024 0.26619 0.76616 0.0
C1600 C 0.34278 0.11678 0.44375 0.0
C1601 C 0.35625 0.10703 0.41571 0.0
C1602 C 0.34583 0.11792 0.49032 0.0
C1603 C 0.37322 0.09436 0.58383 0.0
H1604 H 0.36069 0.14222 0.64798 0.0
C1605 C 0.39505 0.10657 0.77029 0.0
C1606 C 0.38158 0.11619 0.79859 0.0
C1607 C 0.39181 0.10535 0.7238 0.0
C1608 C 0.36406 0.12865 0.63073 0.0
H1609 H 0.38373 0.0911 0.41499 0.0
H1610 H 0.38909 0.09312 0.49607 0.0
H1611 H 0.35551 0.14041 0.56687 0.0
H1612 H 0.3539 0.13179 0.79983 0.0
H1613 H 0.34826 0.12968 0.71885 0.0
H1614 H 0.38181 0.08262 0.64769 0.0
C1615 C 0.37595 0.09962 0.48214 0.0
C1616 C 0.36109 0.12761 0.58411 0.0
C1617 C 0.37289 0.09847 0.43556 0.0
C1618 C 0.36475 0.12452 0.77907 0.0
C1619 C 0.36151 0.12331 0.73255 0.0
C1620 C 0.37621 0.09541 0.63044 0.0
C1621 C 0.36245 0.10933 0.51021 0.0
C1622 C 0.36564 0.11046 0.55997 0.0
C1623 C 0.37502 0.11373 0.70425 0.0
C1624 C 0.37168 0.11257 0.65456 0.0
H1625 H 0.32963 0.12326 0.42982 0.0
H1626 H 0.33493 0.12523 0.51085 0.0
H1627 H 0.37659 0.08079 0.5666 0.0
H1628 H 0.40834 0.10026 0.78393 0.0
H1629 H 0.4027 0.09814 0.70306 0.0
C1630 C 0.10051 0.66606 0.58455 0.0
C1631 C 0.10746 0.6521 0.61552 0.0
C1632 C 0.10188 0.6628 0.53808 0.0
C1633 C 0.10799 0.62349 0.45281 0.0
H1634 H 0.12292 0.6664 0.37448 0.0
C1635 C 0.12565 0.61157 0.26386 0.0
C1636 C 0.11936 0.62585 0.23293 0.0
C1637 C 0.12416 0.61478 0.31034 0.0
C1638 C 0.11849 0.65429 0.39572 0.0
H1639 H 0.12144 0.62369 0.62122 0.0
H1640 H 0.12371 0.61796 0.54028 0.0
H1641 H 0.12035 0.67184 0.45542 0.0
H1642 H 0.10634 0.65469 0.22714 0.0
H1643 H 0.10369 0.66026 0.30807 0.0
H1644 H 0.10606 0.60595 0.39315 0.0
C1645 C 0.11699 0.63138 0.55204 0.0
C1646 C 0.11703 0.65742 0.44226 0.0
C1647 C 0.11567 0.63468 0.59856 0.0
C1648 C 0.11159 0.64346 0.24986 0.0
C1649 C 0.11008 0.64667 0.29638 0.0
C1650 C 0.10941 0.62037 0.40627 0.0
C1651 C 0.11019 0.64544 0.52113 0.0
C1652 C 0.11177 0.64207 0.47148 0.0
C1653 C 0.11632 0.63236 0.32732 0.0
C1654 C 0.1147 0.63572 0.37701 0.0
H1655 H 0.09374 0.67948 0.59617 0.0
H1656 H 0.09617 0.6738 0.51539 0.0
H1657 H 0.10361 0.61139 0.47412 0.0
H1658 H 0.13204 0.59797 0.25219 0.0
H1659 H 0.12946 0.60355 0.33298 0.0
C1660 C 0.63428 0.89221 0.43464 0.0
C1661 C 0.65294 0.89687 0.41736 0.0
C1662 C 0.63104 0.89125 0.4812 0.0
C1663 C 0.65702 0.88552 0.59027 0.0
H1664 H 0.60898 0.90651 0.64064 0.0
C1665 C 0.6448 0.89323 0.78296 0.0
C1666 C 0.62604 0.88877 0.79989 0.0
C1667 C 0.6482 0.89423 0.73645 0.0
C1668 C 0.62239 0.90037 0.62714 0.0
H1669 H 0.68271 0.90456 0.43616 0.0
H1670 H 0.67709 0.90276 0.51704 0.0
H1671 H 0.61456 0.90813 0.55963 0.0
H1672 H 0.59624 0.88142 0.78058 0.0
H1673 H 0.60213 0.88324 0.69983 0.0
H1674 H 0.66484 0.87773 0.65778 0.0
C1675 C 0.66501 0.89955 0.49456 0.0
C1676 C 0.62559 0.9013 0.58059 0.0
C1677 C 0.66824 0.90056 0.44804 0.0
C1678 C 0.6108 0.88527 0.76895 0.0
C1679 C 0.61418 0.8863 0.72251 0.0
C1680 C 0.65382 0.88458 0.63683 0.0
C1681 C 0.64637 0.89489 0.51181 0.0
C1682 C 0.64295 0.89387 0.56148 0.0
C1683 C 0.63291 0.89083 0.70556 0.0
C1684 C 0.63644 0.89197 0.65593 0.0
H1685 H 0.6222 0.88898 0.41219 0.0
H1686 H 0.61656 0.88735 0.49321 0.0
H1687 H 0.67043 0.87939 0.57674 0.0
H1688 H 0.65685 0.89628 0.80567 0.0
H1689 H 0.66275 0.89802 0.72471 0.0
C1690 C 0.88283 0.39409 0.26424 0.0
C1691 C 0.88661 0.37893 0.23324 0.0
C1692 C 0.88457 0.39096 0.31069 0.0
C1693 C 0.88607 0.35144 0.39702 0.0
H1694 H 0.90721 0.39253 0.47304 0.0
C1695 C 0.90454 0.33857 0.5854 0.0
C1696 C 0.90049 0.35372 0.61626 0.0
C1697 C 0.90276 0.34161 0.53891 0.0
C1698 C 0.90105 0.38097 0.45246 0.0
H1699 H 0.89515 0.34843 0.22759 0.0
H1700 H 0.89863 0.34311 0.30838 0.0
H1701 H 0.90455 0.39778 0.39214 0.0
H1702 H 0.89142 0.38406 0.62171 0.0
H1703 H 0.88795 0.38924 0.54084 0.0
H1704 H 0.88262 0.33462 0.45738 0.0
C1705 C 0.89404 0.35741 0.29674 0.0
C1706 C 0.89952 0.38398 0.4059 0.0
C1707 C 0.89228 0.36054 0.25021 0.0
C1708 C 0.8945 0.37198 0.59916 0.0
C1709 C 0.89274 0.37502 0.55262 0.0
C1710 C 0.88763 0.34843 0.44359 0.0
C1711 C 0.8902 0.37257 0.3277 0.0
C1712 C 0.89199 0.36927 0.37744 0.0
C1713 C 0.89687 0.35989 0.52178 0.0
C1714 C 0.89513 0.36315 0.47204 0.0
H1715 H 0.8787 0.40854 0.25265 0.0
H1716 H 0.88125 0.40295 0.33331 0.0
H1717 H 0.8799 0.33988 0.37646 0.0
H1718 H 0.90894 0.32423 0.59713 0.0
H1719 H 0.90627 0.32965 0.51634 0.0
C1720 C 0.36779 0.37372 0.50247 0.0
C1721 C 0.37874 0.38829 0.48026 0.0
C1722 C 0.36454 0.37473 0.54901 0.0
C1723 C 0.36506 0.40925 0.64595 0.0
H1724 H 0.36815 0.36175 0.71698 0.0
C1725 C 0.36478 0.41062 0.84107 0.0
C1726 C 0.35376 0.39615 0.86341 0.0
C1727 C 0.36789 0.4096 0.79448 0.0
C1728 C 0.36702 0.37513 0.69763 0.0
H1729 H 0.39446 0.41561 0.48989 0.0
H1730 H 0.3891 0.41718 0.57094 0.0
H1731 H 0.37311 0.3602 0.63573 0.0
H1732 H 0.33771 0.36902 0.854 0.0
H1733 H 0.34287 0.3674 0.77283 0.0
H1734 H 0.359 0.42419 0.70787 0.0
C1735 C 0.38288 0.40502 0.55235 0.0
C1736 C 0.36984 0.37424 0.65094 0.0
C1737 C 0.38616 0.404 0.50584 0.0
C1738 C 0.34609 0.38054 0.83793 0.0
C1739 C 0.34924 0.37949 0.79137 0.0
C1740 C 0.36224 0.41014 0.69264 0.0
C1741 C 0.3721 0.39035 0.57465 0.0
C1742 C 0.36892 0.39129 0.62443 0.0
C1743 C 0.36011 0.39406 0.76895 0.0
C1744 C 0.36319 0.3931 0.71915 0.0
H1745 H 0.362 0.36132 0.48402 0.0
H1746 H 0.35598 0.36329 0.56487 0.0
H1747 H 0.36392 0.42264 0.62662 0.0
H1748 H 0.37076 0.42296 0.85947 0.0
H1749 H 0.37652 0.42097 0.77851 0.0
C1750 C 0.39266 0.63479 0.18623 0.0
C1751 C 0.4007 0.65232 0.16938 0.0
C1752 C 0.39137 0.63147 0.23273 0.0
C1753 C 0.39108 0.6575 0.34265 0.0
H1754 H 0.40256 0.60616 0.3915 0.0
C1755 C 0.39677 0.6436 0.53495 0.0
C1756 C 0.38917 0.62589 0.55183 0.0
C1757 C 0.39821 0.64682 0.48844 0.0
C1758 C 0.39906 0.62054 0.37845 0.0
H1759 H 0.41416 0.67986 0.18889 0.0
H1760 H 0.41178 0.67413 0.26963 0.0
H1761 H 0.40494 0.61163 0.31055 0.0
H1762 H 0.37671 0.59788 0.53248 0.0
H1763 H 0.37917 0.6035 0.4517 0.0
H1764 H 0.38512 0.6664 0.41047 0.0
C1765 C 0.40617 0.66307 0.24688 0.0
C1766 C 0.40044 0.62368 0.33192 0.0
C1767 C 0.40752 0.66636 0.20044 0.0
C1768 C 0.38297 0.61155 0.52084 0.0
C1769 C 0.38439 0.61478 0.47438 0.0
C1770 C 0.38966 0.65435 0.38917 0.0
C1771 C 0.39804 0.6456 0.26372 0.0
C1772 C 0.39648 0.64221 0.31335 0.0
C1773 C 0.39207 0.63244 0.45746 0.0
C1774 C 0.39363 0.63583 0.40778 0.0
H1775 H 0.387 0.62375 0.1635 0.0
H1776 H 0.38479 0.61796 0.24441 0.0
H1777 H 0.38761 0.67188 0.32956 0.0
H1778 H 0.40194 0.65487 0.5577 0.0
H1779 H 0.40447 0.66049 0.47679 0.0
C1780 C 0.63607 0.61473 0.84728 0.0
C1781 C 0.65444 0.60904 0.86439 0.0
C1782 C 0.63282 0.61578 0.80075 0.0
C1783 C 0.65899 0.61976 0.69136 0.0
H1784 H 0.60966 0.60161 0.64166 0.0
C1785 C 0.64618 0.61228 0.49892 0.0
C1786 C 0.62771 0.6178 0.48204 0.0
C1787 C 0.64952 0.61121 0.54543 0.0
C1788 C 0.62344 0.60696 0.65497 0.0
H1789 H 0.68367 0.59959 0.84536 0.0
H1790 H 0.67804 0.60153 0.76453 0.0
H1791 H 0.61521 0.59984 0.72265 0.0
H1792 H 0.59844 0.62698 0.50137 0.0
H1793 H 0.60425 0.62507 0.58213 0.0
H1794 H 0.66721 0.6269 0.62369 0.0
C1795 C 0.66621 0.60549 0.7871 0.0
C1796 C 0.62662 0.60594 0.70151 0.0
C1797 C 0.66944 0.60439 0.83359 0.0
C1798 C 0.61274 0.62231 0.513 0.0
C1799 C 0.61607 0.62122 0.55944 0.0
C1800 C 0.6558 0.62079 0.64482 0.0
C1801 C 0.64786 0.6112 0.77001 0.0
C1802 C 0.64444 0.61233 0.72037 0.0
C1803 C 0.63449 0.61562 0.57634 0.0
C1804 C 0.63797 0.61442 0.62596 0.0
H1805 H 0.62424 0.6187 0.86985 0.0
H1806 H 0.61859 0.62051 0.78887 0.0
H1807 H 0.67277 0.6251 0.70469 0.0
H1808 H 0.65799 0.60844 0.4762 0.0
H1809 H 0.66381 0.60659 0.55714 0.0
C1810 C 0.62274 0.39456 0.52161 0.0
C1811 C 0.61899 0.37939 0.55256 0.0
C1812 C 0.62101 0.39139 0.47516 0.0
C1813 C 0.62007 0.35188 0.38886 0.0
H1814 H 0.59825 0.39248 0.31279 0.0
C1815 C 0.60246 0.33849 0.20025 0.0
C1816 C 0.60616 0.35374 0.16947 0.0
C1817 C 0.60401 0.3416 0.24676 0.0
C1818 C 0.60461 0.38105 0.33337 0.0
H1819 H 0.61051 0.34887 0.55824 0.0
H1820 H 0.60714 0.34345 0.47737 0.0
H1821 H 0.60073 0.39781 0.39374 0.0
H1822 H 0.61436 0.38435 0.16423 0.0
H1823 H 0.61748 0.38966 0.24514 0.0
H1824 H 0.62398 0.33513 0.3285 0.0
C1825 C 0.61165 0.35779 0.48907 0.0
C1826 C 0.60602 0.38412 0.37996 0.0
C1827 C 0.61336 0.36097 0.53559 0.0
C1828 C 0.61156 0.37219 0.1867 0.0
C1829 C 0.61311 0.3753 0.23327 0.0
C1830 C 0.61867 0.34882 0.34227 0.0
C1831 C 0.61547 0.37295 0.45814 0.0
C1832 C 0.61379 0.36959 0.40842 0.0
C1833 C 0.60935 0.36006 0.26402 0.0
C1834 C 0.61092 0.36336 0.3138 0.0
H1835 H 0.62686 0.40902 0.53326 0.0
H1836 H 0.62429 0.40338 0.45253 0.0
H1837 H 0.62642 0.34046 0.40947 0.0
H1838 H 0.59853 0.324 0.18843 0.0
H1839 H 0.60078 0.32954 0.26923 0.0
C1840 C 0.83898 0.60519 0.95163 0.0
C1841 C 0.85383 0.61032 0.92085 0.0
C1842 C 0.84227 0.60611 0.99812 0.0
C1843 C 0.88201 0.60723 0.08345 0.0
H1844 H 0.84101 0.62666 0.16218 0.0
C1845 C 0.8958 0.6232 0.27229 0.0
C1846 C 0.88101 0.61812 0.30326 0.0
C1847 C 0.89241 0.62222 0.22585 0.0
C1848 C 0.85255 0.62097 0.14079 0.0
H1849 H 0.88382 0.62066 0.91539 0.0
H1850 H 0.88958 0.62223 0.99639 0.0
H1851 H 0.83537 0.62505 0.08118 0.0
H1852 H 0.85101 0.60786 0.30913 0.0
H1853 H 0.84508 0.60619 0.22819 0.0
H1854 H 0.8992 0.60315 0.14303 0.0
C1855 C 0.87542 0.61723 0.9845 0.0
C1856 C 0.84931 0.62005 0.09424 0.0
C1857 C 0.87212 0.61632 0.93796 0.0
C1858 C 0.86267 0.61214 0.2864 0.0
C1859 C 0.85927 0.61118 0.23989 0.0
C1860 C 0.88525 0.60815 0.12999 0.0
C1861 C 0.86053 0.61217 1.01524 0.0
C1862 C 0.864 0.61318 0.0649 0.0
C1863 C 0.87411 0.61616 0.20895 0.0
C1864 C 0.87058 0.61505 0.15933 0.0
H1865 H 0.82483 0.60014 0.93982 0.0
H1866 H 0.83057 0.60177 0.02067 0.0
H1867 H 0.89355 0.60155 0.06206 0.0
H1868 H 0.90998 0.62823 0.2839 0.0
H1869 H 0.90408 0.62651 0.20315 0.0
C1870 C 0.61548 0.14583 0.74613 0.0
C1871 C 0.62057 0.12727 0.7291 0.0
C1872 C 0.61378 0.14902 0.79266 0.0
C1873 C 0.60715 0.12277 0.90161 0.0
H1874 H 0.62659 0.17115 0.95337 0.0
C1875 C 0.61279 0.13436 0.09492 0.0
C1876 C 0.60792 0.15294 0.1122 0.0
C1877 C 0.61433 0.13124 0.04834 0.0
C1878 C 0.62087 0.15764 0.93951 0.0
H1879 H 0.62748 0.09742 0.74829 0.0
H1880 H 0.62493 0.10305 0.82903 0.0
H1881 H 0.62899 0.16583 0.87239 0.0
H1882 H 0.60123 0.18288 0.09336 0.0
H1883 H 0.60345 0.17736 1.01254 0.0
H1884 H 0.59903 0.11458 0.96871 0.0
C1885 C 0.62207 0.11515 0.80645 0.0
C1886 C 0.62224 0.15458 0.89291 0.0
C1887 C 0.62378 0.11197 0.75999 0.0
C1888 C 0.60474 0.16831 0.08149 0.0
C1889 C 0.60628 0.16519 0.03497 0.0
C1890 C 0.60577 0.12583 0.9482 0.0
C1891 C 0.61708 0.13372 0.82353 0.0
C1892 C 0.61542 0.13709 0.87325 0.0
C1893 C 0.61108 0.14661 0.01765 0.0
C1894 C 0.61262 0.14331 0.96788 0.0
H1895 H 0.61306 0.15803 0.72353 0.0
H1896 H 0.6097 0.16346 0.80441 0.0
H1897 H 0.60145 0.10924 0.88774 0.0
H1898 H 0.61518 0.1221 0.11735 0.0
H1899 H 0.61827 0.11678 0.03643 0.0
C1900 C 0.1199 0.40433 0.27718 0.0
C1901 C 0.12701 0.38856 0.30288 0.0
C1902 C 0.12325 0.40523 0.23068 0.0
C1903 C 0.13579 0.37407 0.13227 0.0
H1904 H 0.14764 0.42372 0.07512 0.0
C1905 C 0.15971 0.37953 0.94527 0.0
C1906 C 0.15245 0.39526 0.91966 0.0
C1907 C 0.15652 0.37865 0.99183 0.0
C1908 C 0.14412 0.40976 0.09041 0.0
H1909 H 0.14327 0.36132 0.29932 0.0
H1910 H 0.1494 0.36306 0.21849 0.0
H1911 H 0.14263 0.4224 0.15636 0.0
H1912 H 0.13612 0.42245 0.92342 0.0
H1913 H 0.13026 0.42074 1.00437 0.0
H1914 H 0.13727 0.36143 0.06631 0.0
C1915 C 0.14103 0.37466 0.23425 0.0
C1916 C 0.14125 0.409 0.1371 0.0
C1917 C 0.13772 0.37379 0.28079 0.0
C1918 C 0.14178 0.41002 0.9419 0.0
C1919 C 0.13862 0.40916 0.9885 0.0
C1920 C 0.13866 0.37483 0.08558 0.0
C1921 C 0.13378 0.39036 0.2085 0.0
C1922 C 0.13703 0.39115 0.15871 0.0
C1923 C 0.146 0.39349 1.01416 0.0
C1924 C 0.14286 0.39269 0.06397 0.0
H1925 H 0.1118 0.4161 0.29304 0.0
H1926 H 0.11728 0.41745 0.212 0.0
H1927 H 0.13224 0.36012 0.14755 0.0
H1928 H 0.16781 0.36779 0.9293 0.0
H1929 H 0.16258 0.36645 1.01045 0.0
C1930 C 0.4047 0.83963 0.08598 0.0
C1931 C 0.39801 0.85378 0.11688 0.0
C1932 C 0.40345 0.84286 0.03951 0.0
C1933 C 0.39824 0.88226 0.95438 0.0
H1934 H 0.38289 0.83959 0.87565 0.0
C1935 C 0.38117 0.89453 0.7656 0.0
C1936 C 0.38759 0.88031 0.73458 0.0
C1937 C 0.3824 0.89121 0.81203 0.0
C1938 C 0.38743 0.85162 0.89703 0.0
H1939 H 0.38459 0.88246 0.12256 0.0
H1940 H 0.38249 0.88813 0.0416 0.0
H1941 H 0.38513 0.8341 0.9566 0.0
H1942 H 0.40046 0.8514 0.72857 0.0
H1943 H 0.40263 0.84561 0.80949 0.0
H1944 H 0.40058 0.89977 0.89484 0.0
C1945 C 0.38893 0.87458 0.05339 0.0
C1946 C 0.38871 0.84847 0.94355 0.0
C1947 C 0.39015 0.87133 0.09991 0.0
C1948 C 0.39514 0.86259 0.75136 0.0
C1949 C 0.39638 0.85927 0.79786 0.0
C1950 C 0.39698 0.8854 0.90786 0.0
C1951 C 0.39552 0.86037 0.02253 0.0
C1952 C 0.39412 0.86375 0.9729 0.0
C1953 C 0.39008 0.87356 0.82887 0.0
C1954 C 0.39154 0.87014 0.8785 0.0
H1955 H 0.41118 0.82609 0.09767 0.0
H1956 H 0.40899 0.83172 0.01687 0.0
H1957 H 0.40276 0.89429 0.97578 0.0
H1958 H 0.37493 0.9082 0.75401 0.0
H1959 H 0.37706 0.90241 0.83475 0.0
C1960 C 0.85137 0.92096 0.33286 0.0
C1961 C 0.84848 0.90459 0.36086 0.0
C1962 C 0.85416 0.9187 0.28638 0.0
C1963 C 0.86833 0.88198 0.19949 0.0
H1964 H 0.84518 0.91935 0.11703 0.0
C1965 C 0.86999 0.87052 1.00587 0.0
C1966 C 0.87356 0.88702 0.97865 0.0
C1967 C 0.86655 0.87255 0.0522 0.0
C1968 C 0.85194 0.90888 0.13954 0.0
H1969 H 0.846 0.87293 0.36125 0.0
H1970 H 0.85079 0.86898 0.28033 0.0
H1971 H 0.83997 0.92302 0.19782 0.0
H1972 H 0.8764 0.91866 0.97953 0.0
H1973 H 0.87036 0.92219 0.06004 0.0
H1974 H 0.8803 0.86785 0.14119 0.0
C1975 C 0.85123 0.8836 0.29443 0.0
C1976 C 0.84896 0.91099 0.18602 0.0
C1977 C 0.84847 0.88587 0.34096 0.0
C1978 C 0.87341 0.90563 0.99912 0.0
C1979 C 0.86995 0.90766 0.04544 0.0
C1980 C 0.8713 0.87986 0.15301 0.0
C1981 C 0.85412 0.89999 0.26642 0.0
C1982 C 0.85714 0.8976 0.21673 0.0
C1983 C 0.86655 0.89115 0.07272 0.0
C1984 C 0.86318 0.8933 0.12234 0.0
H1985 H 0.85183 0.93559 0.34697 0.0
H1986 H 0.85669 0.93165 0.26618 0.0
H1987 H 0.87515 0.87154 0.22199 0.0
H1988 H 0.86965 0.85598 0.99132 0.0
H1989 H 0.86366 0.85952 0.07186 0.0
C1990 C 0.8863 0.11395 0.02436 0.0
C1991 C 0.88837 0.12952 0.05514 0.0
C1992 C 0.88768 0.11716 0.9779 0.0
C1993 C 0.88468 0.15631 0.89117 0.0
H1994 H 0.91075 0.11792 0.81584 0.0
C1995 C 0.90215 0.17086 0.70301 0.0
C1996 C 0.90009 0.15526 0.67233 0.0
C1997 C 0.90048 0.16775 0.74947 0.0
C1998 C 0.9032 0.12869 0.83623 0.0
H1999 H 0.89347 0.1608 0.06049 0.0
H2000 H 0.89632 0.16631 0.97959 0.0
H2001 H 0.9086 0.1126 0.89681 0.0
H2002 H 0.89462 0.12404 0.66709 0.0
H2003 H 0.89131 0.11869 0.74795 0.0
H2004 H 0.87933 0.17242 0.83056 0.0
C2005 C 0.89336 0.15161 0.99144 0.0
C2006 C 0.90197 0.12564 0.88281 0.0
C2007 C 0.89196 0.1484 0.03798 0.0
C2008 C 0.89613 0.13646 0.68953 0.0
C2009 C 0.89447 0.13334 0.73605 0.0
C2010 C 0.88592 0.15937 0.84458 0.0
C2011 C 0.89123 0.13603 0.9607 0.0
C2012 C 0.89267 0.13939 0.91099 0.0
C2013 C 0.89669 0.14893 0.76671 0.0
C2014 C 0.8952 0.1456 0.81642 0.0
H2015 H 0.8838 0.09916 0.03614 0.0
H2016 H 0.88573 0.10482 0.95541 0.0
H2017 H 0.87713 0.16708 0.91156 0.0
H2018 H 0.90494 0.18559 0.69114 0.0
H2019 H 0.90248 0.18009 0.77193 0.0
C2020 C 0.15179 0.11327 0.9935 0.0
C2021 C 0.13354 0.11989 0.97743 0.0
C2022 C 0.15515 0.111 0.03984 0.0
C2023 C 0.12898 0.10539 0.14932 0.0
H2024 H 0.17908 0.12015 0.20078 0.0
C2025 C 0.14133 0.10835 0.3424 0.0
C2026 C 0.15943 0.10178 0.35939 0.0
C2027 C 0.13838 0.11056 0.29596 0.0
C2028 C 0.16507 0.11573 0.18697 0.0
H2029 H 0.10444 0.12901 0.99817 0.0
H2030 H 0.1104 0.12546 0.07856 0.0
H2031 H 0.17364 0.12382 0.12005 0.0
H2032 H 0.18874 0.09269 0.34012 0.0
H2033 H 0.18348 0.09618 0.25932 0.0
H2034 H 0.12039 0.09729 0.21616 0.0
C2035 C 0.12211 0.12183 0.05536 0.0
C2036 C 0.16194 0.11784 0.14053 0.0
C2037 C 0.11876 0.12412 1.00911 0.0
C2038 C 0.17452 0.09758 0.32845 0.0
C2039 C 0.17158 0.09982 0.28198 0.0
C2040 C 0.1321 0.10328 0.19572 0.0
C2041 C 0.14034 0.11522 0.07148 0.0
C2042 C 0.14382 0.11275 0.121 0.0
C2043 C 0.15344 0.10628 0.265 0.0
C2044 C 0.15018 0.10846 0.21531 0.0
H2045 H 0.1636 0.11002 0.97028 0.0
H2046 H 0.16932 0.1057 0.0508 0.0
H2047 H 0.11496 0.10097 0.13556 0.0
H2048 H 0.12927 0.11153 0.36497 0.0
H2049 H 0.12428 0.1158 0.28436 0.0
C2050 C 0.10087 0.83916 0.6999 0.0
C2051 C 0.10744 0.85338 0.66907 0.0
C2052 C 0.10214 0.84239 0.74639 0.0
C2053 C 0.10713 0.88179 0.83177 0.0
H2054 H 0.12287 0.83924 0.91013 0.0
C2055 C 0.12422 0.89413 0.0206 0.0
C2056 C 0.11794 0.87983 0.05153 0.0
C2057 C 0.12298 0.89083 0.97415 0.0
C2058 C 0.11822 0.85124 0.88886 0.0
H2059 H 0.12066 0.88219 0.66352 0.0
H2060 H 0.12278 0.88785 0.74451 0.0
H2061 H 0.12061 0.83377 0.82914 0.0
H2062 H 0.10531 0.85078 0.05735 0.0
H2063 H 0.10313 0.84502 0.97639 0.0
H2064 H 0.1047 0.89925 0.89144 0.0
C2065 C 0.11643 0.87425 0.73266 0.0
C2066 C 0.11693 0.8481 0.84231 0.0
C2067 C 0.11519 0.871 0.68612 0.0
C2068 C 0.11052 0.86204 0.03463 0.0
C2069 C 0.10927 0.85873 0.98811 0.0
C2070 C 0.1084 0.88493 0.87831 0.0
C2071 C 0.10997 0.85996 0.76345 0.0
C2072 C 0.11138 0.86333 0.8131 0.0
C2073 C 0.11543 0.87311 0.9572 0.0
C2074 C 0.11398 0.8697 0.90754 0.0
H2075 H 0.09447 0.82557 0.68816 0.0
H2076 H 0.0967 0.83119 0.76899 0.0
H2077 H 0.1025 0.89379 0.81047 0.0
H2078 H 0.13037 0.90786 0.03227 0.0
H2079 H 0.12822 0.9021 0.95149 0.0
loop_
_geom_bond_atom_site_label_1
_geom_bond_atom_site_label_2
_geom_bond_distance
_geom_bond_site_symmetry_2
_ccdc_geom_bond_type
Gd0 C3 2.818 . S
Gd0 O20 2.377 . S
Gd0 O22 2.448 . S
Gd0 O23 2.506 . S
Gd0 O24 2.435 . S
Gd0 O25 2.717 . S
Gd0 O27 2.395 . S
Gd0 O31 2.327 . S
Gd1 C12 2.818 1_554 S
Gd1 O21 2.395 . S
Gd1 O25 2.327 . S
Gd1 O26 2.377 . S
Gd1 O28 2.448 . S
Gd1 O29 2.506 . S
Gd1 O30 2.435 . S
Gd1 O31 2.717 . S
C2 O20 1.240 . S
C2 O21 1.240 . S
C3 Gd0 2.818 . S
C3 C4 1.510 . S
C3 O22 1.249 . S
C3 O23 1.252 . S
C4 C3 1.510 . S
C4 C5 1.404 . S
C4 C6 1.352 . S
C5 C4 1.404 . S
C5 C9 1.389 . S
C5 H32 0.930 . S
C6 C4 1.352 . S
C6 C8 1.374 . S
C6 H33 0.931 . S
C7 C8 1.359 . S
C7 C9 1.364 . S
C8 C6 1.374 . S
C8 C7 1.359 . S
C8 H34 0.931 . S
C9 C5 1.389 . S
C9 C7 1.364 . S
C9 H35 0.931 . S
C10 O24 1.256 . S
C10 O25 1.257 . S
C11 O26 1.240 . S
C11 O27 1.240 . S
C12 Gd1 2.818 1_556 S
C12 C13 1.510 . S
C12 O28 1.249 1_556 S
C12 O29 1.252 1_556 S
C13 C12 1.510 . S
C13 C14 1.404 . S
C13 C15 1.352 . S
C14 C13 1.404 . S
C14 C18 1.389 . S
C14 H36 0.930 . S
C15 C13 1.352 . S
C15 C17 1.374 . S
C15 H37 0.931 . S
C16 C17 1.359 . S
C16 C18 1.364 . S
C17 C15 1.374 . S
C17 C16 1.359 . S
C17 H38 0.931 . S
C18 C14 1.389 . S
C18 C16 1.364 . S
C18 H39 0.931 . S
C19 O30 1.256 . S
C19 O31 1.257 . S
O20 Gd0 2.377 . S
O20 C2 1.240 . S
O21 Gd1 2.395 . S
O21 C2 1.240 . S
O22 Gd0 2.448 . S
O22 C3 1.249 . S
O23 Gd0 2.506 . S
O23 C3 1.252 . S
O24 Gd0 2.435 . S
O24 C10 1.256 . S
O25 Gd0 2.717 . S
O25 Gd1 2.327 . S
O25 C10 1.257 . S
O26 Gd1 2.377 . S
O26 C11 1.240 . S
O27 Gd0 2.395 . S
O27 C11 1.240 . S
O28 Gd1 2.448 . S
O28 C12 1.249 1_554 S
O29 Gd1 2.506 . S
O29 C12 1.252 1_554 S
O30 Gd1 2.435 . S
O30 C19 1.256 . S
O31 Gd0 2.327 . S
O31 Gd1 2.717 . S
O31 C19 1.257 . S
H32 C5 0.930 . S
H33 C6 0.931 . S
H34 C8 0.931 . S
H35 C9 0.931 . S
H36 C14 0.930 . S
H37 C15 0.931 . S
H38 C17 0.931 . S
H39 C18 0.931 . S
Gd40 C43 2.818 1_556 S
Gd40 O60 2.377 . S
Gd40 O62 2.448 . S
Gd40 O63 2.506 . S
Gd40 O64 2.435 . S
Gd40 O65 2.717 . S
Gd40 O67 2.395 . S
Gd40 O71 2.327 . S
Gd41 C52 2.818 . S
Gd41 O61 2.395 . S
Gd41 O65 2.327 . S
Gd41 O66 2.377 . S
Gd41 O68 2.448 . S
Gd41 O69 2.506 . S
Gd41 O70 2.435 . S
Gd41 O71 2.717 . S
C42 O60 1.240 . S
C42 O61 1.240 . S
C43 Gd40 2.818 1_554 S
C43 C44 1.510 . S
C43 O62 1.249 1_554 S
C43 O63 1.252 1_554 S
C44 C43 1.510 . S
C44 C45 1.404 . S
C44 C46 1.352 . S
C45 C44 1.404 . S
C45 C49 1.389 . S
C45 H72 0.930 . S
C46 C44 1.352 . S
C46 C48 1.374 . S
C46 H73 0.931 . S
C47 C48 1.359 . S
C47 C49 1.364 . S
C48 C46 1.374 . S
C48 C47 1.359 . S
C48 H74 0.931 . S
C49 C45 1.389 . S
C49 C47 1.364 . S
C49 H75 0.931 . S
C50 O64 1.256 . S
C50 O65 1.257 . S
C51 O66 1.240 . S
C51 O67 1.240 . S
C52 Gd41 2.818 . S
C52 C53 1.510 . S
C52 O68 1.249 . S
C52 O69 1.252 . S
C53 C52 1.510 . S
C53 C54 1.404 . S
C53 C55 1.352 . S
C54 C53 1.404 . S
C54 C58 1.389 . S
C54 H76 0.930 . S
C55 C53 1.352 . S
C55 C57 1.374 . S
C55 H77 0.931 . S
C56 C57 1.359 . S
C56 C58 1.364 . S
C57 C55 1.374 . S
C57 C56 1.359 . S
C57 H78 0.931 . S
C58 C54 1.389 . S
C58 C56 1.364 . S
C58 H79 0.931 . S
C59 O70 1.256 . S
C59 O71 1.257 . S
O60 Gd40 2.377 . S
O60 C42 1.240 . S
O61 Gd41 2.395 . S
O61 C42 1.240 . S
O62 Gd40 2.448 . S
O62 C43 1.249 1_556 S
O63 Gd40 2.506 . S
O63 C43 1.252 1_556 S
O64 Gd40 2.435 . S
O64 C50 1.256 . S
O65 Gd40 2.717 . S
O65 Gd41 2.327 . S
O65 C50 1.257 . S
O66 Gd41 2.377 . S
O66 C51 1.240 . S
O67 Gd40 2.395 . S
O67 C51 1.240 . S
O68 Gd41 2.448 . S
O68 C52 1.249 . S
O69 Gd41 2.506 . S
O69 C52 1.252 . S
O70 Gd41 2.435 . S
O70 C59 1.256 . S
O71 Gd40 2.327 . S
O71 Gd41 2.717 . S
O71 C59 1.257 . S
H72 C45 0.930 . S
H73 C46 0.931 . S
H74 C48 0.931 . S
H75 C49 0.931 . S
H76 C54 0.930 . S
H77 C55 0.931 . S
H78 C57 0.931 . S
H79 C58 0.931 . S
Gd80 C83 2.818 . S
Gd80 O100 2.377 . S
Gd80 O102 2.448 . S
Gd80 O103 2.506 . S
Gd80 O104 2.435 . S
Gd80 O105 2.717 . S
Gd80 O107 2.395 . S
Gd80 O111 2.327 . S
Gd81 C92 2.818 1_554 S
Gd81 O101 2.395 . S
Gd81 O105 2.327 . S
Gd81 O106 2.377 . S
Gd81 O108 2.448 . S
Gd81 O109 2.506 . S
Gd81 O110 2.435 . S
Gd81 O111 2.717 . S
C82 O100 1.240 . S
C82 O101 1.240 . S
C83 Gd80 2.818 . S
C83 C84 1.510 . S
C83 O102 1.249 . S
C83 O103 1.252 . S
C84 C83 1.510 . S
C84 C85 1.404 . S
C84 C86 1.352 . S
C85 C84 1.404 . S
C85 C89 1.389 . S
C85 H112 0.930 . S
C86 C84 1.352 . S
C86 C88 1.374 . S
C86 H113 0.931 . S
C87 C88 1.359 . S
C87 C89 1.364 . S
C88 C86 1.374 . S
C88 C87 1.359 . S
C88 H114 0.931 . S
C89 C85 1.389 . S
C89 C87 1.364 . S
C89 H115 0.931 . S
C90 O104 1.256 . S
C90 O105 1.257 . S
C91 O106 1.240 . S
C91 O107 1.240 . S
C92 Gd81 2.818 1_556 S
C92 C93 1.510 . S
C92 O108 1.249 1_556 S
C92 O109 1.252 1_556 S
C93 C92 1.510 . S
C93 C94 1.404 . S
C93 C95 1.352 . S
C94 C93 1.404 . S
C94 C98 1.389 . S
C94 H116 0.930 . S
C95 C93 1.352 . S
C95 C97 1.374 . S
C95 H117 0.931 . S
C96 C97 1.359 . S
C96 C98 1.364 . S
C97 C95 1.374 . S
C97 C96 1.359 . S
C97 H118 0.931 . S
C98 C94 1.389 . S
C98 C96 1.364 . S
C98 H119 0.931 . S
C99 O110 1.256 . S
C99 O111 1.257 . S
O100 Gd80 2.377 . S
O100 C82 1.240 . S
O101 Gd81 2.395 . S
O101 C82 1.240 . S
O102 Gd80 2.448 . S
O102 C83 1.249 . S
O103 Gd80 2.506 . S
O103 C83 1.252 . S
O104 Gd80 2.435 . S
O104 C90 1.256 . S
O105 Gd80 2.717 . S
O105 Gd81 2.327 . S
O105 C90 1.257 . S
O106 Gd81 2.377 . S
O106 C91 1.240 . S
O107 Gd80 2.395 . S
O107 C91 1.240 . S
O108 Gd81 2.448 . S
O108 C92 1.249 1_554 S
O109 Gd81 2.506 . S
O109 C92 1.252 1_554 S
O110 Gd81 2.435 . S
O110 C99 1.256 . S
O111 Gd80 2.327 . S
O111 Gd81 2.717 . S
O111 C99 1.257 . S
H112 C85 0.930 . S
H113 C86 0.931 . S
H114 C88 0.931 . S
H115 C89 0.931 . S
H116 C94 0.930 . S
H117 C95 0.931 . S
H118 C97 0.931 . S
H119 C98 0.931 . S
Gd120 C123 2.818 1_556 S
Gd120 O140 2.377 . S
Gd120 O142 2.448 . S
Gd120 O143 2.506 . S
Gd120 O144 2.435 . S
Gd120 O145 2.717 . S
Gd120 O147 2.395 . S
Gd120 O151 2.327 . S
Gd121 C132 2.818 . S
Gd121 O141 2.395 . S
Gd121 O145 2.327 . S
Gd121 O146 2.377 . S
Gd121 O148 2.448 . S
Gd121 O149 2.506 . S
Gd121 O150 2.435 . S
Gd121 O151 2.717 . S
C122 O140 1.240 . S
C122 O141 1.240 . S
C123 Gd120 2.818 1_554 S
C123 C124 1.510 . S
C123 O142 1.249 1_554 S
C123 O143 1.252 1_554 S
C124 C123 1.510 . S
C124 C125 1.404 . S
C124 C126 1.352 . S
C125 C124 1.404 . S
C125 C129 1.389 . S
C125 H152 0.930 . S
C126 C124 1.352 . S
C126 C128 1.374 . S
C126 H153 0.931 . S
C127 C128 1.359 . S
C127 C129 1.364 . S
C128 C126 1.374 . S
C128 C127 1.359 . S
C128 H154 0.931 . S
C129 C125 1.389 . S
C129 C127 1.364 . S
C129 H155 0.931 . S
C130 O144 1.256 . S
C130 O145 1.257 . S
C131 O146 1.240 . S
C131 O147 1.240 . S
C132 Gd121 2.818 . S
C132 C133 1.510 . S
C132 O148 1.249 . S
C132 O149 1.252 . S
C133 C132 1.510 . S
C133 C134 1.404 . S
C133 C135 1.352 . S
C134 C133 1.404 . S
C134 C138 1.389 . S
C134 H156 0.930 . S
C135 C133 1.352 . S
C135 C137 1.374 . S
C135 H157 0.931 . S
C136 C137 1.359 . S
C136 C138 1.364 . S
C137 C135 1.374 . S
C137 C136 1.359 . S
C137 H158 0.931 . S
C138 C134 1.389 . S
C138 C136 1.364 . S
C138 H159 0.931 . S
C139 O150 1.256 . S
C139 O151 1.257 . S
O140 Gd120 2.377 . S
O140 C122 1.240 . S
O141 Gd121 2.395 . S
O141 C122 1.240 . S
O142 Gd120 2.448 . S
O142 C123 1.249 1_556 S
O143 Gd120 2.506 . S
O143 C123 1.252 1_556 S
O144 Gd120 2.435 . S
O144 C130 1.256 . S
O145 Gd120 2.717 . S
O145 Gd121 2.327 . S
O145 C130 1.257 . S
O146 Gd121 2.377 . S
O146 C131 1.240 . S
O147 Gd120 2.395 . S
O147 C131 1.240 . S
O148 Gd121 2.448 . S
O148 C132 1.249 . S
O149 Gd121 2.506 . S
O149 C132 1.252 . S
O150 Gd121 2.435 . S
O150 C139 1.256 . S
O151 Gd120 2.327 . S
O151 Gd121 2.717 . S
O151 C139 1.257 . S
H152 C125 0.930 . S
H153 C126 0.931 . S
H154 C128 0.931 . S
H155 C129 0.931 . S
H156 C134 0.930 . S
H157 C135 0.931 . S
H158 C137 0.931 . S
H159 C138 0.931 . S
Gd160 C163 2.818 1_554 S
Gd160 O180 2.377 . S
Gd160 O182 2.448 1_554 S
Gd160 O183 2.486 1_554 S
Gd160 O184 2.435 . S
Gd160 O185 2.717 . S
Gd160 O187 2.395 . S
Gd160 O191 2.327 . S
Gd161 C172 2.818 . S
Gd161 O181 2.395 . S
Gd161 O185 2.327 . S
Gd161 O186 2.377 . S
Gd161 O188 2.448 . S
Gd161 O189 2.506 . S
Gd161 O190 2.435 . S
Gd161 O191 2.717 . S
C162 O180 1.240 . S
C162 O181 1.240 . S
C163 Gd160 2.818 1_556 S
C163 C164 1.510 . S
C163 O182 1.249 . S
C163 O183 1.264 . S
C164 C163 1.510 . S
C164 C165 1.404 . S
C164 C166 1.352 . S
C165 C164 1.404 . S
C165 C169 1.389 . S
C165 H192 0.930 . S
C166 C164 1.352 . S
C166 C168 1.374 . S
C166 H193 0.931 . S
C167 C168 1.359 . S
C167 C169 1.364 . S
C168 C166 1.374 . S
C168 C167 1.359 . S
C168 H194 0.931 . S
C169 C165 1.389 . S
C169 C167 1.364 . S
C169 H195 0.931 . S
C170 O184 1.256 . S
C170 O185 1.257 . S
C171 O186 1.240 . S
C171 O187 1.240 . S
C172 Gd161 2.818 . S
C172 C173 1.510 . S
C172 O188 1.249 . S
C172 O189 1.252 . S
C173 C172 1.510 . S
C173 C174 1.404 . S
C173 C175 1.352 . S
C174 C173 1.404 . S
C174 C178 1.389 . S
C174 H196 0.930 . S
C175 C173 1.352 . S
C175 C177 1.374 . S
C175 H197 0.931 . S
C176 C177 1.359 . S
C176 C178 1.364 . S
C177 C175 1.374 . S
C177 C176 1.359 . S
C177 H198 0.931 . S
C178 C174 1.389 . S
C178 C176 1.364 . S
C178 H199 0.931 . S
C179 O190 1.256 . S
C179 O191 1.257 . S
O180 Gd160 2.377 . S
O180 C162 1.240 . S
O181 Gd161 2.395 . S
O181 C162 1.240 . S
O182 Gd160 2.448 1_556 S
O182 C163 1.249 . S
O183 Gd160 2.486 1_556 S
O183 C163 1.264 . S
O184 Gd160 2.435 . S
O184 C170 1.256 . S
O185 Gd160 2.717 . S
O185 Gd161 2.327 . S
O185 C170 1.257 . S
O186 Gd161 2.377 . S
O186 C171 1.240 . S
O187 Gd160 2.395 . S
O187 C171 1.240 . S
O188 Gd161 2.448 . S
O188 C172 1.249 . S
O189 Gd161 2.506 . S
O189 C172 1.252 . S
O190 Gd161 2.435 . S
O190 C179 1.256 . S
O191 Gd160 2.327 . S
O191 Gd161 2.717 . S
O191 C179 1.257 . S
H192 C165 0.930 . S
H193 C166 0.931 . S
H194 C168 0.931 . S
H195 C169 0.931 . S
H196 C174 0.930 . S
H197 C175 0.931 . S
H198 C177 0.931 . S
H199 C178 0.931 . S
Gd200 C203 2.818 . S
Gd200 O220 2.377 . S
Gd200 O222 2.448 . S
Gd200 O223 2.506 . S
Gd200 O224 2.435 . S
Gd200 O225 2.717 . S
Gd200 O227 2.395 . S
Gd200 O231 2.327 . S
Gd201 C212 2.818 1_556 S
Gd201 O221 2.395 . S
Gd201 O225 2.327 . S
Gd201 O226 2.377 . S
Gd201 O228 2.448 1_556 S
Gd201 O229 2.486 1_556 S
Gd201 O230 2.435 . S
Gd201 O231 2.717 . S
C202 O220 1.240 . S
C202 O221 1.240 . S
C203 Gd200 2.818 . S
C203 C204 1.510 . S
C203 O222 1.249 . S
C203 O223 1.252 . S
C204 C203 1.510 . S
C204 C205 1.404 . S
C204 C206 1.352 . S
C205 C204 1.404 . S
C205 C209 1.389 . S
C205 H232 0.930 . S
C206 C204 1.352 . S
C206 C208 1.374 . S
C206 H233 0.931 . S
C207 C208 1.359 . S
C207 C209 1.364 . S
C208 C206 1.374 . S
C208 C207 1.359 . S
C208 H234 0.931 . S
C209 C205 1.389 . S
C209 C207 1.364 . S
C209 H235 0.931 . S
C210 O224 1.256 . S
C210 O225 1.257 . S
C211 O226 1.240 . S
C211 O227 1.240 . S
C212 Gd201 2.818 1_554 S
C212 C213 1.510 . S
C212 O228 1.249 . S
C212 O229 1.264 . S
C213 C212 1.510 . S
C213 C214 1.404 . S
C213 C215 1.352 . S
C214 C213 1.404 . S
C214 C218 1.389 . S
C214 H236 0.930 . S
C215 C213 1.352 . S
C215 C217 1.374 . S
C215 H237 0.931 . S
C216 C217 1.359 . S
C216 C218 1.364 . S
C217 C215 1.374 . S
C217 C216 1.359 . S
C217 H238 0.931 . S
C218 C214 1.389 . S
C218 C216 1.364 . S
C218 H239 0.931 . S
C219 O230 1.256 . S
C219 O231 1.257 . S
O220 Gd200 2.377 . S
O220 C202 1.240 . S
O221 Gd201 2.395 . S
O221 C202 1.240 . S
O222 Gd200 2.448 . S
O222 C203 1.249 . S
O223 Gd200 2.506 . S
O223 C203 1.252 . S
O224 Gd200 2.435 . S
O224 C210 1.256 . S
O225 Gd200 2.717 . S
O225 Gd201 2.327 . S
O225 C210 1.257 . S
O226 Gd201 2.377 . S
O226 C211 1.240 . S
O227 Gd200 2.395 . S
O227 C211 1.240 . S
O228 Gd201 2.448 1_554 S
O228 C212 1.249 . S
O229 Gd201 2.486 1_554 S
O229 C212 1.264 . S
O230 Gd201 2.435 . S
O230 C219 1.256 . S
O231 Gd200 2.327 . S
O231 Gd201 2.717 . S
O231 C219 1.257 . S
H232 C205 0.930 . S
H233 C206 0.931 . S
H234 C208 0.931 . S
H235 C209 0.931 . S
H236 C214 0.930 . S
H237 C215 0.931 . S
H238 C217 0.931 . S
H239 C218 0.931 . S
Gd240 C243 2.818 1_554 S
Gd240 O260 2.377 . S
Gd240 O262 2.448 1_554 S
Gd240 O263 2.486 1_554 S
Gd240 O264 2.435 . S
Gd240 O265 2.717 . S
Gd240 O267 2.395 . S
Gd240 O271 2.327 . S
Gd241 C252 2.818 . S
Gd241 O261 2.395 . S
Gd241 O265 2.327 . S
Gd241 O266 2.377 . S
Gd241 O268 2.448 . S
Gd241 O269 2.506 . S
Gd241 O270 2.435 . S
Gd241 O271 2.717 . S
C242 O260 1.240 . S
C242 O261 1.240 . S
C243 Gd240 2.818 1_556 S
C243 C244 1.510 . S
C243 O262 1.249 . S
C243 O263 1.264 . S
C244 C243 1.510 . S
C244 C245 1.404 . S
C244 C246 1.352 . S
C245 C244 1.404 . S
C245 C249 1.389 . S
C245 H272 0.930 . S
C246 C244 1.352 . S
C246 C248 1.374 . S
C246 H273 0.931 . S
C247 C248 1.359 . S
C247 C249 1.364 . S
C248 C246 1.374 . S
C248 C247 1.359 . S
C248 H274 0.931 . S
C249 C245 1.389 . S
C249 C247 1.364 . S
C249 H275 0.931 . S
C250 O264 1.256 . S
C250 O265 1.257 . S
C251 O266 1.240 . S
C251 O267 1.240 . S
C252 Gd241 2.818 . S
C252 C253 1.510 . S
C252 O268 1.249 . S
C252 O269 1.252 . S
C253 C252 1.510 . S
C253 C254 1.404 . S
C253 C255 1.352 . S
C254 C253 1.404 . S
C254 C258 1.389 . S
C254 H276 0.930 . S
C255 C253 1.352 . S
C255 C257 1.374 . S
C255 H277 0.931 . S
C256 C257 1.359 . S
C256 C258 1.364 . S
C257 C255 1.374 . S
C257 C256 1.359 . S
C257 H278 0.931 . S
C258 C254 1.389 . S
C258 C256 1.364 . S
C258 H279 0.931 . S
C259 O270 1.256 . S
C259 O271 1.257 . S
O260 Gd240 2.377 . S
O260 C242 1.240 . S
O261 Gd241 2.395 . S
O261 C242 1.240 . S
O262 Gd240 2.448 1_556 S
O262 C243 1.249 . S
O263 Gd240 2.486 1_556 S
O263 C243 1.264 . S
O264 Gd240 2.435 . S
O264 C250 1.256 . S
O265 Gd240 2.717 . S
O265 Gd241 2.327 . S
O265 C250 1.257 . S
O266 Gd241 2.377 . S
O266 C251 1.240 . S
O267 Gd240 2.395 . S
O267 C251 1.240 . S
O268 Gd241 2.448 . S
O268 C252 1.249 . S
O269 Gd241 2.506 . S
O269 C252 1.252 . S
O270 Gd241 2.435 . S
O270 C259 1.256 . S
O271 Gd240 2.327 . S
O271 Gd241 2.717 . S
O271 C259 1.257 . S
H272 C245 0.930 . S
H273 C246 0.931 . S
H274 C248 0.931 . S
H275 C249 0.931 . S
H276 C254 0.930 . S
H277 C255 0.931 . S
H278 C257 0.931 . S
H279 C258 0.931 . S
Gd280 C283 2.818 . S
Gd280 O300 2.377 . S
Gd280 O302 2.448 . S
Gd280 O303 2.506 . S
Gd280 O304 2.435 . S
Gd280 O305 2.717 . S
Gd280 O307 2.395 . S
Gd280 O311 2.327 . S
Gd281 C292 2.818 1_556 S
Gd281 O301 2.395 . S
Gd281 O305 2.327 . S
Gd281 O306 2.377 . S
Gd281 O308 2.448 1_556 S
Gd281 O309 2.486 1_556 S
Gd281 O310 2.435 . S
Gd281 O311 2.717 . S
C282 O300 1.240 . S
C282 O301 1.240 . S
C283 Gd280 2.818 . S
C283 C284 1.510 . S
C283 O302 1.249 . S
C283 O303 1.252 . S
C284 C283 1.510 . S
C284 C285 1.404 . S
C284 C286 1.352 . S
C285 C284 1.404 . S
C285 C289 1.389 . S
C285 H312 0.930 . S
C286 C284 1.352 . S
C286 C288 1.374 . S
C286 H313 0.931 . S
C287 C288 1.359 . S
C287 C289 1.364 . S
C288 C286 1.374 . S
C288 C287 1.359 . S
C288 H314 0.931 . S
C289 C285 1.389 . S
C289 C287 1.364 . S
C289 H315 0.931 . S
C290 O304 1.256 . S
C290 O305 1.257 . S
C291 O306 1.240 . S
C291 O307 1.240 . S
C292 Gd281 2.818 1_554 S
C292 C293 1.510 . S
C292 O308 1.249 . S
C292 O309 1.264 . S
C293 C292 1.510 . S
C293 C294 1.404 . S
C293 C295 1.352 . S
C294 C293 1.404 . S
C294 C298 1.389 . S
C294 H316 0.930 . S
C295 C293 1.352 . S
C295 C297 1.374 . S
C295 H317 0.931 . S
C296 C297 1.359 . S
C296 C298 1.364 . S
C297 C295 1.374 . S
C297 C296 1.359 . S
C297 H318 0.931 . S
C298 C294 1.389 . S
C298 C296 1.364 . S
C298 H319 0.931 . S
C299 O310 1.256 . S
C299 O311 1.257 . S
O300 Gd280 2.377 . S
O300 C282 1.240 . S
O301 Gd281 2.395 . S
O301 C282 1.240 . S
O302 Gd280 2.448 . S
O302 C283 1.249 . S
O303 Gd280 2.506 . S
O303 C283 1.252 . S
O304 Gd280 2.435 . S
O304 C290 1.256 . S
O305 Gd280 2.717 . S
O305 Gd281 2.327 . S
O305 C290 1.257 . S
O306 Gd281 2.377 . S
O306 C291 1.240 . S
O307 Gd280 2.395 . S
O307 C291 1.240 . S
O308 Gd281 2.448 1_554 S
O308 C292 1.249 . S
O309 Gd281 2.486 1_554 S
O309 C292 1.264 . S
O310 Gd281 2.435 . S
O310 C299 1.256 . S
O311 Gd280 2.327 . S
O311 Gd281 2.717 . S
O311 C299 1.257 . S
H312 C285 0.930 . S
H313 C286 0.931 . S
H314 C288 0.931 . S
H315 C289 0.931 . S
H316 C294 0.930 . S
H317 C295 0.931 . S
H318 C297 0.931 . S
H319 C298 0.931 . S
Gd320 C323 2.818 . S
Gd320 O340 2.377 . S
Gd320 O342 2.448 . S
Gd320 O343 2.506 . S
Gd320 O344 2.435 . S
Gd320 O345 2.717 . S
Gd320 O347 2.395 . S
Gd320 O351 2.327 . S
Gd321 C332 2.818 . S
Gd321 O341 2.395 . S
Gd321 O345 2.327 . S
Gd321 O346 2.377 . S
Gd321 O348 2.448 . S
Gd321 O349 2.506 . S
Gd321 O350 2.435 . S
Gd321 O351 2.717 . S
C322 O340 1.240 . S
C322 O341 1.240 . S
C323 Gd320 2.818 . S
C323 C324 1.510 . S
C323 O342 1.249 . S
C323 O343 1.252 . S
C324 C323 1.510 . S
C324 C325 1.404 . S
C324 C326 1.352 . S
C325 C324 1.404 . S
C325 C329 1.389 . S
C325 H352 0.930 . S
C326 C324 1.352 . S
C326 C328 1.374 . S
C326 H353 0.931 . S
C327 C328 1.359 . S
C327 C329 1.364 . S
C328 C326 1.374 . S
C328 C327 1.359 . S
C328 H354 0.931 . S
C329 C325 1.389 . S
C329 C327 1.364 . S
C329 H355 0.931 . S
C330 O344 1.256 . S
C330 O345 1.257 . S
C331 O346 1.240 . S
C331 O347 1.240 . S
C332 Gd321 2.818 . S
C332 C333 1.510 . S
C332 O348 1.249 . S
C332 O349 1.252 . S
C333 C332 1.510 . S
C333 C334 1.404 . S
C333 C335 1.352 . S
C334 C333 1.404 . S
C334 C338 1.389 . S
C334 H356 0.930 . S
C335 C333 1.352 . S
C335 C337 1.374 . S
C335 H357 0.931 . S
C336 C337 1.359 . S
C336 C338 1.364 . S
C337 C335 1.374 . S
C337 C336 1.359 . S
C337 H358 0.931 . S
C338 C334 1.389 . S
C338 C336 1.364 . S
C338 H359 0.931 . S
C339 O350 1.256 . S
C339 O351 1.257 . S
O340 Gd320 2.377 . S
O340 C322 1.240 . S
O341 Gd321 2.395 . S
O341 C322 1.240 . S
O342 Gd320 2.448 . S
O342 C323 1.249 . S
O343 Gd320 2.506 . S
O343 C323 1.252 . S
O344 Gd320 2.435 . S
O344 C330 1.256 . S
O345 Gd320 2.717 . S
O345 Gd321 2.327 . S
O345 C330 1.257 . S
O346 Gd321 2.377 . S
O346 C331 1.240 . S
O347 Gd320 2.395 . S
O347 C331 1.240 . S
O348 Gd321 2.448 . S
O348 C332 1.249 . S
O349 Gd321 2.506 . S
O349 C332 1.252 . S
O350 Gd321 2.435 . S
O350 C339 1.256 . S
O351 Gd320 2.327 . S
O351 Gd321 2.717 . S
O351 C339 1.257 . S
H352 C325 0.930 . S
H353 C326 0.931 . S
H354 C328 0.931 . S
H355 C329 0.931 . S
H356 C334 0.930 . S
H357 C335 0.931 . S
H358 C337 0.931 . S
H359 C338 0.931 . S
Gd360 C363 2.818 . S
Gd360 O380 2.377 . S
Gd360 O382 2.448 . S
Gd360 O383 2.506 . S
Gd360 O384 2.435 . S
Gd360 O385 2.717 . S
Gd360 O387 2.395 . S
Gd360 O391 2.327 . S
Gd361 C372 2.818 . S
Gd361 O381 2.395 . S
Gd361 O385 2.327 . S
Gd361 O386 2.377 . S
Gd361 O388 2.448 . S
Gd361 O389 2.506 . S
Gd361 O390 2.435 . S
Gd361 O391 2.717 . S
C362 O380 1.240 . S
C362 O381 1.240 . S
C363 Gd360 2.818 . S
C363 C364 1.510 . S
C363 O382 1.249 . S
C363 O383 1.252 . S
C364 C363 1.510 . S
C364 C365 1.404 . S
C364 C366 1.352 . S
C365 C364 1.404 . S
C365 C369 1.389 . S
C365 H392 0.930 . S
C366 C364 1.352 . S
C366 C368 1.374 . S
C366 H393 0.931 . S
C367 C368 1.359 . S
C367 C369 1.364 . S
C368 C366 1.374 . S
C368 C367 1.359 . S
C368 H394 0.931 . S
C369 C365 1.389 . S
C369 C367 1.364 . S
C369 H395 0.931 . S
C370 O384 1.256 . S
C370 O385 1.257 . S
C371 O386 1.240 . S
C371 O387 1.240 . S
C372 Gd361 2.818 . S
C372 C373 1.510 . S
C372 O388 1.249 . S
C372 O389 1.252 . S
C373 C372 1.510 . S
C373 C374 1.404 . S
C373 C375 1.352 . S
C374 C373 1.404 . S
C374 C378 1.389 . S
C374 H396 0.930 . S
C375 C373 1.352 . S
C375 C377 1.374 . S
C375 H397 0.931 . S
C376 C377 1.359 . S
C376 C378 1.364 . S
C377 C375 1.374 . S
C377 C376 1.359 . S
C377 H398 0.931 . S
C378 C374 1.389 . S
C378 C376 1.364 . S
C378 H399 0.931 . S
C379 O390 1.256 . S
C379 O391 1.257 . S
O380 Gd360 2.377 . S
O380 C362 1.240 . S
O381 Gd361 2.395 . S
O381 C362 1.240 . S
O382 Gd360 2.448 . S
O382 C363 1.249 . S
O383 Gd360 2.506 . S
O383 C363 1.252 . S
O384 Gd360 2.435 . S
O384 C370 1.256 . S
O385 Gd360 2.717 . S
O385 Gd361 2.327 . S
O385 C370 1.257 . S
O386 Gd361 2.377 . S
O386 C371 1.240 . S
O387 Gd360 2.395 . S
O387 C371 1.240 . S
O388 Gd361 2.448 . S
O388 C372 1.249 . S
O389 Gd361 2.506 . S
O389 C372 1.252 . S
O390 Gd361 2.435 . S
O390 C379 1.256 . S
O391 Gd360 2.327 . S
O391 Gd361 2.717 . S
O391 C379 1.257 . S
H392 C365 0.930 . S
H393 C366 0.931 . S
H394 C368 0.931 . S
H395 C369 0.931 . S
H396 C374 0.930 . S
H397 C375 0.931 . S
H398 C377 0.931 . S
H399 C378 0.931 . S
Gd400 C403 2.818 . S
Gd400 O420 2.377 . S
Gd400 O422 2.448 . S
Gd400 O423 2.506 . S
Gd400 O424 2.435 . S
Gd400 O425 2.717 . S
Gd400 O427 2.395 . S
Gd400 O431 2.327 . S
Gd401 C412 2.818 . S
Gd401 O421 2.395 . S
Gd401 O425 2.327 . S
Gd401 O426 2.377 . S
Gd401 O428 2.448 . S
Gd401 O429 2.506 . S
Gd401 O430 2.435 . S
Gd401 O431 2.717 . S
C402 O420 1.240 . S
C402 O421 1.240 . S
C403 Gd400 2.818 . S
C403 C404 1.510 . S
C403 O422 1.249 . S
C403 O423 1.252 . S
C404 C403 1.510 . S
C404 C405 1.404 . S
C404 C406 1.352 . S
C405 C404 1.404 . S
C405 C409 1.389 . S
C405 H432 0.930 . S
C406 C404 1.352 . S
C406 C408 1.374 . S
C406 H433 0.931 . S
C407 C408 1.359 . S
C407 C409 1.364 . S
C408 C406 1.374 . S
C408 C407 1.359 . S
C408 H434 0.931 . S
C409 C405 1.389 . S
C409 C407 1.364 . S
C409 H435 0.931 . S
C410 O424 1.256 . S
C410 O425 1.257 . S
C411 O426 1.240 . S
C411 O427 1.240 . S
C412 Gd401 2.818 . S
C412 C413 1.510 . S
C412 O428 1.249 . S
C412 O429 1.252 . S
C413 C412 1.510 . S
C413 C414 1.404 . S
C413 C415 1.352 . S
C414 C413 1.404 . S
C414 C418 1.389 . S
C414 H436 0.930 . S
C415 C413 1.352 . S
C415 C417 1.374 . S
C415 H437 0.931 . S
C416 C417 1.359 . S
C416 C418 1.364 . S
C417 C415 1.374 . S
C417 C416 1.359 . S
C417 H438 0.931 . S
C418 C414 1.389 . S
C418 C416 1.364 . S
C418 H439 0.931 . S
C419 O430 1.256 . S
C419 O431 1.257 . S
O420 Gd400 2.377 . S
O420 C402 1.240 . S
O421 Gd401 2.395 . S
O421 C402 1.240 . S
O422 Gd400 2.448 . S
O422 C403 1.249 . S
O423 Gd400 2.506 . S
O423 C403 1.252 . S
O424 Gd400 2.435 . S
O424 C410 1.256 . S
O425 Gd400 2.717 . S
O425 Gd401 2.327 . S
O425 C410 1.257 . S
O426 Gd401 2.377 . S
O426 C411 1.240 . S
O427 Gd400 2.395 . S
O427 C411 1.240 . S
O428 Gd401 2.448 . S
O428 C412 1.249 . S
O429 Gd401 2.506 . S
O429 C412 1.252 . S
O430 Gd401 2.435 . S
O430 C419 1.256 . S
O431 Gd400 2.327 . S
O431 Gd401 2.717 . S
O431 C419 1.257 . S
H432 C405 0.930 . S
H433 C406 0.931 . S
H434 C408 0.931 . S
H435 C409 0.931 . S
H436 C414 0.930 . S
H437 C415 0.931 . S
H438 C417 0.931 . S
H439 C418 0.931 . S
Gd440 C443 2.818 . S
Gd440 O460 2.377 . S
Gd440 O462 2.448 . S
Gd440 O463 2.506 . S
Gd440 O464 2.435 . S
Gd440 O465 2.717 . S
Gd440 O467 2.395 . S
Gd440 O471 2.327 . S
Gd441 C452 2.818 . S
Gd441 O461 2.395 . S
Gd441 O465 2.327 . S
Gd441 O466 2.377 . S
Gd441 O468 2.448 . S
Gd441 O469 2.506 . S
Gd441 O470 2.435 . S
Gd441 O471 2.717 . S
C442 O460 1.240 . S
C442 O461 1.240 . S
C443 Gd440 2.818 . S
C443 C444 1.510 . S
C443 O462 1.249 . S
C443 O463 1.252 . S
C444 C443 1.510 . S
C444 C445 1.404 . S
C444 C446 1.352 . S
C445 C444 1.404 . S
C445 C449 1.389 . S
C445 H472 0.930 . S
C446 C444 1.352 . S
C446 C448 1.374 . S
C446 H473 0.931 . S
C447 C448 1.359 . S
C447 C449 1.364 . S
C448 C446 1.374 . S
C448 C447 1.359 . S
C448 H474 0.931 . S
C449 C445 1.389 . S
C449 C447 1.364 . S
C449 H475 0.931 . S
C450 O464 1.256 . S
C450 O465 1.257 . S
C451 O466 1.240 . S
C451 O467 1.240 . S
C452 Gd441 2.818 . S
C452 C453 1.510 . S
C452 O468 1.249 . S
C452 O469 1.252 . S
C453 C452 1.510 . S
C453 C454 1.404 . S
C453 C455 1.352 . S
C454 C453 1.404 . S
C454 C458 1.389 . S
C454 H476 0.930 . S
C455 C453 1.352 . S
C455 C457 1.374 . S
C455 H477 0.931 . S
C456 C457 1.359 . S
C456 C458 1.364 . S
C457 C455 1.374 . S
C457 C456 1.359 . S
C457 H478 0.931 . S
C458 C454 1.389 . S
C458 C456 1.364 . S
C458 H479 0.931 . S
C459 O470 1.256 . S
C459 O471 1.257 . S
O460 Gd440 2.377 . S
O460 C442 1.240 . S
O461 Gd441 2.395 . S
O461 C442 1.240 . S
O462 Gd440 2.448 . S
O462 C443 1.249 . S
O463 Gd440 2.506 . S
O463 C443 1.252 . S
O464 Gd440 2.435 . S
O464 C450 1.256 . S
O465 Gd440 2.717 . S
O465 Gd441 2.327 . S
O465 C450 1.257 . S
O466 Gd441 2.377 . S
O466 C451 1.240 . S
O467 Gd440 2.395 . S
O467 C451 1.240 . S
O468 Gd441 2.448 . S
O468 C452 1.249 . S
O469 Gd441 2.506 . S
O469 C452 1.252 . S
O470 Gd441 2.435 . S
O470 C459 1.256 . S
O471 Gd440 2.327 . S
O471 Gd441 2.717 . S
O471 C459 1.257 . S
H472 C445 0.930 . S
H473 C446 0.931 . S
H474 C448 0.931 . S
H475 C449 0.931 . S
H476 C454 0.930 . S
H477 C455 0.931 . S
H478 C457 0.931 . S
H479 C458 0.931 . S
Gd480 C483 2.818 . S
Gd480 O500 2.377 . S
Gd480 O502 2.448 . S
Gd480 O503 2.506 . S
Gd480 O504 2.435 . S
Gd480 O505 2.717 . S
Gd480 O507 2.395 . S
Gd480 O511 2.327 . S
Gd481 C492 2.818 . S
Gd481 O501 2.395 . S
Gd481 O505 2.327 . S
Gd481 O506 2.377 . S
Gd481 O508 2.448 . S
Gd481 O509 2.506 . S
Gd481 O510 2.435 . S
Gd481 O511 2.717 . S
C482 O500 1.240 . S
C482 O501 1.240 . S
C483 Gd480 2.818 . S
C483 C484 1.510 . S
C483 O502 1.249 . S
C483 O503 1.252 . S
C484 C483 1.510 . S
C484 C485 1.404 . S
C484 C486 1.352 . S
C485 C484 1.404 . S
C485 C489 1.389 . S
C485 H512 0.930 . S
C486 C484 1.352 . S
C486 C488 1.374 . S
C486 H513 0.931 . S
C487 C488 1.359 . S
C487 C489 1.364 . S
C488 C486 1.374 . S
C488 C487 1.359 . S
C488 H514 0.931 . S
C489 C485 1.389 . S
C489 C487 1.364 . S
C489 H515 0.931 . S
C490 O504 1.256 . S
C490 O505 1.257 . S
C491 O506 1.240 . S
C491 O507 1.240 . S
C492 Gd481 2.818 . S
C492 C493 1.510 . S
C492 O508 1.249 . S
C492 O509 1.252 . S
C493 C492 1.510 . S
C493 C494 1.404 . S
C493 C495 1.352 . S
C494 C493 1.404 . S
C494 C498 1.389 . S
C494 H516 0.930 . S
C495 C493 1.352 . S
C495 C497 1.374 . S
C495 H517 0.931 . S
C496 C497 1.359 . S
C496 C498 1.364 . S
C497 C495 1.374 . S
C497 C496 1.359 . S
C497 H518 0.931 . S
C498 C494 1.389 . S
C498 C496 1.364 . S
C498 H519 0.931 . S
C499 O510 1.256 . S
C499 O511 1.257 . S
O500 Gd480 2.377 . S
O500 C482 1.240 . S
O501 Gd481 2.395 . S
O501 C482 1.240 . S
O502 Gd480 2.448 . S
O502 C483 1.249 . S
O503 Gd480 2.506 . S
O503 C483 1.252 . S
O504 Gd480 2.435 . S
O504 C490 1.256 . S
O505 Gd480 2.717 . S
O505 Gd481 2.327 . S
O505 C490 1.257 . S
O506 Gd481 2.377 . S
O506 C491 1.240 . S
O507 Gd480 2.395 . S
O507 C491 1.240 . S
O508 Gd481 2.448 . S
O508 C492 1.249 . S
O509 Gd481 2.506 . S
O509 C492 1.252 . S
O510 Gd481 2.435 . S
O510 C499 1.256 . S
O511 Gd480 2.327 . S
O511 Gd481 2.717 . S
O511 C499 1.257 . S
H512 C485 0.930 . S
H513 C486 0.931 . S
H514 C488 0.931 . S
H515 C489 0.931 . S
H516 C494 0.930 . S
H517 C495 0.931 . S
H518 C497 0.931 . S
H519 C498 0.931 . S
Gd520 C523 2.818 . S
Gd520 O540 2.377 . S
Gd520 O542 2.448 . S
Gd520 O543 2.506 . S
Gd520 O544 2.435 . S
Gd520 O545 2.717 . S
Gd520 O547 2.395 . S
Gd520 O551 2.327 . S
Gd521 C532 2.818 . S
Gd521 O541 2.395 . S
Gd521 O545 2.327 . S
Gd521 O546 2.377 . S
Gd521 O548 2.448 . S
Gd521 O549 2.506 . S
Gd521 O550 2.435 . S
Gd521 O551 2.717 . S
C522 O540 1.240 . S
C522 O541 1.240 . S
C523 Gd520 2.818 . S
C523 C524 1.510 . S
C523 O542 1.249 . S
C523 O543 1.252 . S
C524 C523 1.510 . S
C524 C525 1.404 . S
C524 C526 1.352 . S
C525 C524 1.404 . S
C525 C529 1.389 . S
C525 H552 0.930 . S
C526 C524 1.352 . S
C526 C528 1.374 . S
C526 H553 0.931 . S
C527 C528 1.359 . S
C527 C529 1.364 . S
C528 C526 1.374 . S
C528 C527 1.359 . S
C528 H554 0.931 . S
C529 C525 1.389 . S
C529 C527 1.364 . S
C529 H555 0.931 . S
C530 O544 1.256 . S
C530 O545 1.257 . S
C531 O546 1.240 . S
C531 O547 1.240 . S
C532 Gd521 2.818 . S
C532 C533 1.510 . S
C532 O548 1.249 . S
C532 O549 1.252 . S
C533 C532 1.510 . S
C533 C534 1.404 . S
C533 C535 1.352 . S
C534 C533 1.404 . S
C534 C538 1.389 . S
C534 H556 0.930 . S
C535 C533 1.352 . S
C535 C537 1.374 . S
C535 H557 0.931 . S
C536 C537 1.359 . S
C536 C538 1.364 . S
C537 C535 1.374 . S
C537 C536 1.359 . S
C537 H558 0.931 . S
C538 C534 1.389 . S
C538 C536 1.364 . S
C538 H559 0.931 . S
C539 O550 1.256 . S
C539 O551 1.257 . S
O540 Gd520 2.377 . S
O540 C522 1.240 . S
O541 Gd521 2.395 . S
O541 C522 1.240 . S
O542 Gd520 2.448 . S
O542 C523 1.249 . S
O543 Gd520 2.506 . S
O543 C523 1.252 . S
O544 Gd520 2.435 . S
O544 C530 1.256 . S
O545 Gd520 2.717 . S
O545 Gd521 2.327 . S
O545 C530 1.257 . S
O546 Gd521 2.377 . S
O546 C531 1.240 . S
O547 Gd520 2.395 . S
O547 C531 1.240 . S
O548 Gd521 2.448 . S
O548 C532 1.249 . S
O549 Gd521 2.506 . S
O549 C532 1.252 . S
O550 Gd521 2.435 . S
O550 C539 1.256 . S
O551 Gd520 2.327 . S
O551 Gd521 2.717 . S
O551 C539 1.257 . S
H552 C525 0.930 . S
H553 C526 0.931 . S
H554 C528 0.931 . S
H555 C529 0.931 . S
H556 C534 0.930 . S
H557 C535 0.931 . S
H558 C537 0.931 . S
H559 C538 0.931 . S
Gd560 C563 2.818 . S
Gd560 O580 2.377 . S
Gd560 O582 2.448 . S
Gd560 O583 2.506 . S
Gd560 O584 2.435 . S
Gd560 O585 2.717 . S
Gd560 O587 2.395 . S
Gd560 O591 2.327 . S
Gd561 C572 2.818 . S
Gd561 O581 2.395 . S
Gd561 O585 2.327 . S
Gd561 O586 2.377 . S
Gd561 O588 2.448 . S
Gd561 O589 2.506 . S
Gd561 O590 2.435 . S
Gd561 O591 2.717 . S
C562 O580 1.240 . S
C562 O581 1.240 . S
C563 Gd560 2.818 . S
C563 C564 1.510 . S
C563 O582 1.249 . S
C563 O583 1.252 . S
C564 C563 1.510 . S
C564 C565 1.404 . S
C564 C566 1.352 . S
C565 C564 1.404 . S
C565 C569 1.389 . S
C565 H592 0.930 . S
C566 C564 1.352 . S
C566 C568 1.374 . S
C566 H593 0.931 . S
C567 C568 1.359 . S
C567 C569 1.364 . S
C568 C566 1.374 . S
C568 C567 1.359 . S
C568 H594 0.931 . S
C569 C565 1.389 . S
C569 C567 1.364 . S
C569 H595 0.931 . S
C570 O584 1.256 . S
C570 O585 1.257 . S
C571 O586 1.240 . S
C571 O587 1.240 . S
C572 Gd561 2.818 . S
C572 C573 1.510 . S
C572 O588 1.249 . S
C572 O589 1.252 . S
C573 C572 1.510 . S
C573 C574 1.404 . S
C573 C575 1.352 . S
C574 C573 1.404 . S
C574 C578 1.389 . S
C574 H596 0.930 . S
C575 C573 1.352 . S
C575 C577 1.374 . S
C575 H597 0.931 . S
C576 C577 1.359 . S
C576 C578 1.364 . S
C577 C575 1.374 . S
C577 C576 1.359 . S
C577 H598 0.931 . S
C578 C574 1.389 . S
C578 C576 1.364 . S
C578 H599 0.931 . S
C579 O590 1.256 . S
C579 O591 1.257 . S
O580 Gd560 2.377 . S
O580 C562 1.240 . S
O581 Gd561 2.395 . S
O581 C562 1.240 . S
O582 Gd560 2.448 . S
O582 C563 1.249 . S
O583 Gd560 2.506 . S
O583 C563 1.252 . S
O584 Gd560 2.435 . S
O584 C570 1.256 . S
O585 Gd560 2.717 . S
O585 Gd561 2.327 . S
O585 C570 1.257 . S
O586 Gd561 2.377 . S
O586 C571 1.240 . S
O587 Gd560 2.395 . S
O587 C571 1.240 . S
O588 Gd561 2.448 . S
O588 C572 1.249 . S
O589 Gd561 2.506 . S
O589 C572 1.252 . S
O590 Gd561 2.435 . S
O590 C579 1.256 . S
O591 Gd560 2.327 . S
O591 Gd561 2.717 . S
O591 C579 1.257 . S
H592 C565 0.930 . S
H593 C566 0.931 . S
H594 C568 0.931 . S
H595 C569 0.931 . S
H596 C574 0.930 . S
H597 C575 0.931 . S
H598 C577 0.931 . S
H599 C578 0.931 . S
Gd600 C603 2.818 . S
Gd600 O620 2.377 . S
Gd600 O622 2.448 . S
Gd600 O623 2.506 . S
Gd600 O624 2.435 . S
Gd600 O625 2.717 . S
Gd600 O627 2.395 . S
Gd600 O631 2.327 . S
Gd601 C612 2.818 . S
Gd601 O621 2.395 . S
Gd601 O625 2.327 . S
Gd601 O626 2.377 . S
Gd601 O628 2.448 . S
Gd601 O629 2.506 . S
Gd601 O630 2.435 . S
Gd601 O631 2.717 . S
C602 O620 1.240 . S
C602 O621 1.240 . S
C603 Gd600 2.818 . S
C603 C604 1.510 . S
C603 O622 1.249 . S
C603 O623 1.252 . S
C604 C603 1.510 . S
C604 C605 1.404 . S
C604 C606 1.352 . S
C605 C604 1.404 . S
C605 C609 1.389 . S
C605 H632 0.930 . S
C606 C604 1.352 . S
C606 C608 1.374 . S
C606 H633 0.931 . S
C607 C608 1.359 . S
C607 C609 1.364 . S
C608 C606 1.374 . S
C608 C607 1.359 . S
C608 H634 0.931 . S
C609 C605 1.389 . S
C609 C607 1.364 . S
C609 H635 0.931 . S
C610 O624 1.256 . S
C610 O625 1.257 . S
C611 O626 1.240 . S
C611 O627 1.240 . S
C612 Gd601 2.818 . S
C612 C613 1.510 . S
C612 O628 1.249 . S
C612 O629 1.252 . S
C613 C612 1.510 . S
C613 C614 1.404 . S
C613 C615 1.352 . S
C614 C613 1.404 . S
C614 C618 1.389 . S
C614 H636 0.930 . S
C615 C613 1.352 . S
C615 C617 1.374 . S
C615 H637 0.931 . S
C616 C617 1.359 . S
C616 C618 1.364 . S
C617 C615 1.374 . S
C617 C616 1.359 . S
C617 H638 0.931 . S
C618 C614 1.389 . S
C618 C616 1.364 . S
C618 H639 0.931 . S
C619 O630 1.256 . S
C619 O631 1.257 . S
O620 Gd600 2.377 . S
O620 C602 1.240 . S
O621 Gd601 2.395 . S
O621 C602 1.240 . S
O622 Gd600 2.448 . S
O622 C603 1.249 . S
O623 Gd600 2.506 . S
O623 C603 1.252 . S
O624 Gd600 2.435 . S
O624 C610 1.256 . S
O625 Gd600 2.717 . S
O625 Gd601 2.327 . S
O625 C610 1.257 . S
O626 Gd601 2.377 . S
O626 C611 1.240 . S
O627 Gd600 2.395 . S
O627 C611 1.240 . S
O628 Gd601 2.448 . S
O628 C612 1.249 . S
O629 Gd601 2.506 . S
O629 C612 1.252 . S
O630 Gd601 2.435 . S
O630 C619 1.256 . S
O631 Gd600 2.327 . S
O631 Gd601 2.717 . S
O631 C619 1.257 . S
H632 C605 0.930 . S
H633 C606 0.931 . S
H634 C608 0.931 . S
H635 C609 0.931 . S
H636 C614 0.930 . S
H637 C615 0.931 . S
H638 C617 0.931 . S
H639 C618 0.931 . S
C640 C641 1.349 . S
C640 C642 1.327 . S
C640 H665 0.950 . S
C641 C640 1.349 . S
C641 C657 1.349 . S
C642 C640 1.327 . S
C642 C661 1.429 . S
C642 H666 0.950 . S
C643 C660 1.574 . S
C643 C662 1.368 . S
C643 H667 0.949 . S
H644 C648 0.949 . S
C645 C646 1.349 . S
C645 C647 1.327 . S
C645 H668 0.950 . S
C646 C645 1.349 . S
C646 C658 1.349 . S
C647 C645 1.327 . S
C647 C663 1.429 . S
C647 H669 0.950 . S
C648 H644 0.949 . S
C648 C656 1.574 . S
C648 C664 1.405 . S
H649 C657 0.950 . S
H650 C655 0.950 . S
H651 C656 0.949 . S
H652 C658 0.950 . S
H653 C659 0.950 . S
H654 C660 0.949 1_545 S
C655 H650 0.950 . S
C655 C657 1.327 . S
C655 C661 1.429 . S
C656 C648 1.574 . S
C656 H651 0.949 . S
C656 C662 1.368 . S
C657 C641 1.349 . S
C657 H649 0.950 . S
C657 C655 1.327 . S
C658 C646 1.349 . S
C658 H652 0.950 . S
C658 C659 1.327 . S
C659 H653 0.950 . S
C659 C658 1.327 . S
C659 C663 1.429 . S
C660 C643 1.574 . S
C660 H654 0.949 1_565 S
C660 C664 1.370 . S
C661 C642 1.429 . S
C661 C655 1.429 . S
C661 C662 1.523 . S
C662 C643 1.368 . S
C662 C656 1.368 . S
C662 C661 1.523 . S
C663 C647 1.429 . S
C663 C659 1.429 . S
C663 C664 1.475 1_545 S
C664 C648 1.405 . S
C664 C660 1.370 . S
C664 C663 1.475 1_565 S
H665 C640 0.950 . S
H666 C642 0.950 . S
H667 C643 0.949 . S
H668 C645 0.950 . S
H669 C647 0.950 . S
C670 C671 1.349 . S
C670 C672 1.327 . S
C670 H695 0.950 . S
C671 C670 1.349 . S
C671 C687 1.349 . S
C672 C670 1.327 . S
C672 C691 1.429 . S
C672 H696 0.950 . S
C673 C690 1.574 . S
C673 C692 1.368 . S
C673 H697 0.949 . S
H674 C678 0.949 . S
C675 C676 1.349 . S
C675 C677 1.327 . S
C675 H698 0.950 . S
C676 C675 1.349 . S
C676 C688 1.349 . S
C677 C675 1.327 . S
C677 C693 1.429 . S
C677 H699 0.950 . S
C678 H674 0.949 . S
C678 C686 1.574 . S
C678 C694 1.399 . S
H679 C687 0.950 . S
H680 C685 0.950 . S
H681 C686 0.949 . S
H682 C688 0.950 . S
H683 C689 0.950 . S
H684 C690 0.949 1_455 S
C685 H680 0.950 . S
C685 C687 1.327 . S
C685 C691 1.429 . S
C686 C678 1.574 . S
C686 H681 0.949 . S
C686 C692 1.368 . S
C687 C671 1.349 . S
C687 H679 0.950 . S
C687 C685 1.327 . S
C688 C676 1.349 . S
C688 H682 0.950 . S
C688 C689 1.327 . S
C689 H683 0.950 . S
C689 C688 1.327 . S
C689 C693 1.429 . S
C690 C673 1.574 . S
C690 H684 0.949 1_655 S
C690 C694 1.376 . S
C691 C672 1.429 . S
C691 C685 1.429 . S
C691 C692 1.523 . S
C692 C673 1.368 . S
C692 C686 1.368 . S
C692 C691 1.523 . S
C693 C677 1.429 . S
C693 C689 1.429 . S
C693 C694 1.475 1_455 S
C694 C678 1.399 . S
C694 C690 1.376 . S
C694 C693 1.475 1_655 S
H695 C670 0.950 . S
H696 C672 0.950 . S
H697 C673 0.949 . S
H698 C675 0.950 . S
H699 C677 0.950 . S
C700 C701 1.349 . S
C700 C702 1.327 . S
C700 H725 0.950 . S
C701 C700 1.349 . S
C701 C717 1.349 . S
C702 C700 1.327 . S
C702 C721 1.429 . S
C702 H726 0.950 . S
C703 C720 1.574 . S
C703 C722 1.400 . S
C703 H727 0.949 . S
H704 C708 0.949 . S
C705 C706 1.349 . S
C705 C707 1.327 . S
C705 H728 0.950 . S
C706 C705 1.349 . S
C706 C718 1.349 . S
C707 C705 1.327 . S
C707 C723 1.429 . S
C707 H729 0.950 . S
C708 H704 0.949 . S
C708 C716 1.574 . S
C708 C724 1.368 . S
H709 C717 0.950 . S
H710 C715 0.950 . S
H711 C716 0.949 1_565 S
H712 C718 0.950 . S
H713 C719 0.950 . S
H714 C720 0.949 . S
C715 H710 0.950 . S
C715 C717 1.327 . S
C715 C721 1.429 . S
C716 C708 1.574 . S
C716 H711 0.949 1_545 S
C716 C722 1.375 . S
C717 C701 1.349 . S
C717 H709 0.950 . S
C717 C715 1.327 . S
C718 C706 1.349 . S
C718 H712 0.950 . S
C718 C719 1.327 . S
C719 H713 0.950 . S
C719 C718 1.327 . S
C719 C723 1.429 . S
C720 C703 1.574 . S
C720 H714 0.949 . S
C720 C724 1.368 . S
C721 C702 1.429 . S
C721 C715 1.429 . S
C721 C722 1.475 1_565 S
C722 C703 1.400 . S
C722 C716 1.375 . S
C722 C721 1.475 1_545 S
C723 C707 1.429 . S
C723 C719 1.429 . S
C723 C724 1.523 . S
C724 C708 1.368 . S
C724 C720 1.368 . S
C724 C723 1.523 . S
H725 C700 0.950 . S
H726 C702 0.950 . S
H727 C703 0.949 . S
H728 C705 0.950 . S
H729 C707 0.950 . S
C730 C731 1.349 . S
C730 C732 1.327 . S
C730 H755 0.950 . S
C731 C730 1.349 . S
C731 C747 1.349 . S
C732 C730 1.327 . S
C732 C751 1.429 . S
C732 H756 0.950 . S
C733 C750 1.574 . S
C733 C752 1.375 . S
C733 H757 0.949 1_455 S
H734 C738 0.949 . S
C735 C736 1.349 . S
C735 C737 1.327 . S
C735 H758 0.950 . S
C736 C735 1.349 . S
C736 C748 1.349 . S
C737 C735 1.327 . S
C737 C753 1.429 . S
C737 H759 0.950 . S
C738 H734 0.949 . S
C738 C746 1.574 . S
C738 C754 1.368 . S
H739 C747 0.950 . S
H740 C745 0.950 . S
H741 C746 0.949 . S
H742 C748 0.950 . S
H743 C749 0.950 . S
H744 C750 0.949 . S
C745 H740 0.950 . S
C745 C747 1.327 . S
C745 C751 1.429 . S
C746 C738 1.574 . S
C746 H741 0.949 . S
C746 C752 1.400 . S
C747 C731 1.349 . S
C747 H739 0.950 . S
C747 C745 1.327 . S
C748 C736 1.349 . S
C748 H742 0.950 . S
C748 C749 1.327 . S
C749 H743 0.950 . S
C749 C748 1.327 . S
C749 C753 1.429 . S
C750 C733 1.574 . S
C750 H744 0.949 . S
C750 C754 1.368 . S
C751 C732 1.429 . S
C751 C745 1.429 . S
C751 C752 1.475 1_655 S
C752 C733 1.375 . S
C752 C746 1.400 . S
C752 C751 1.475 1_455 S
C753 C737 1.429 . S
C753 C749 1.429 . S
C753 C754 1.523 . S
C754 C738 1.368 . S
C754 C750 1.368 . S
C754 C753 1.523 . S
H755 C730 0.950 . S
H756 C732 0.950 . S
H757 C733 0.949 1_655 S
H758 C735 0.950 . S
H759 C737 0.950 . S
C760 C761 1.349 . S
C760 C762 1.327 . S
C760 H785 0.950 . S
C761 C760 1.349 . S
C761 C777 1.349 . S
C762 C760 1.327 . S
C762 C781 1.429 . S
C762 H786 0.950 . S
C763 C780 1.574 . S
C763 C782 1.368 . S
C763 H787 0.949 . S
H764 C768 0.949 . S
C765 C766 1.349 . S
C765 C767 1.327 1_556 S
C765 H788 0.950 1_556 S
C766 C765 1.349 . S
C766 C778 1.349 . S
C767 C765 1.327 1_554 S
C767 C783 1.429 1_554 S
C767 H789 0.950 . S
C768 H764 0.949 . S
C768 C776 1.574 1_556 S
C768 C784 1.368 1_556 S
H769 C777 0.950 . S
H770 C775 0.950 . S
H771 C776 0.949 1_556 S
H772 C778 0.950 . S
H773 C779 0.950 . S
H774 C780 0.949 . S
C775 H770 0.950 . S
C775 C777 1.327 . S
C775 C781 1.429 . S
C776 C768 1.574 1_554 S
C776 H771 0.949 1_554 S
C776 C782 1.368 . S
C777 C761 1.349 . S
C777 H769 0.950 . S
C777 C775 1.327 . S
C778 C766 1.349 . S
C778 H772 0.950 . S
C778 C779 1.327 . S
C779 H773 0.950 . S
C779 C778 1.327 . S
C779 C783 1.429 . S
C780 C763 1.574 . S
C780 H774 0.949 . S
C780 C784 1.368 . S
C781 C762 1.429 . S
C781 C775 1.429 . S
C781 C782 1.523 . S
C782 C763 1.368 . S
C782 C776 1.368 . S
C782 C781 1.523 . S
C783 C767 1.429 1_556 S
C783 C779 1.429 . S
C783 C784 1.523 1_556 S
C784 C768 1.368 1_554 S
C784 C780 1.368 . S
C784 C783 1.523 1_554 S
H785 C760 0.950 . S
H786 C762 0.950 . S
H787 C763 0.949 . S
H788 C765 0.950 1_554 S
H789 C767 0.950 . S
C790 C791 1.349 . S
C790 C792 1.327 . S
C790 H815 0.950 . S
C791 C790 1.349 . S
C791 C807 1.349 . S
C792 C790 1.327 . S
C792 C811 1.429 . S
C792 H816 0.950 1_554 S
C793 C810 1.581 . S
C793 C812 1.372 . S
C793 H817 0.940 1_556 S
H794 C798 0.949 . S
C795 C796 1.349 . S
C795 C797 1.327 . S
C795 H818 0.950 . S
C796 C795 1.349 . S
C796 C808 1.349 . S
C797 C795 1.327 . S
C797 C813 1.429 . S
C797 H819 0.950 . S
C798 H794 0.949 . S
C798 C806 1.574 . S
C798 C814 1.368 . S
H799 C807 0.950 . S
H800 C805 0.950 . S
H801 C806 0.949 . S
H802 C808 0.950 . S
H803 C809 0.950 . S
H804 C810 0.949 . S
C805 H800 0.950 . S
C805 C807 1.327 . S
C805 C811 1.429 . S
C806 C798 1.574 . S
C806 H801 0.949 . S
C806 C812 1.368 . S
C807 C791 1.349 . S
C807 H799 0.950 . S
C807 C805 1.327 . S
C808 C796 1.349 . S
C808 H802 0.950 . S
C808 C809 1.327 . S
C809 H803 0.950 . S
C809 C808 1.327 . S
C809 C813 1.429 . S
C810 C793 1.581 . S
C810 H804 0.949 . S
C810 C814 1.368 . S
C811 C792 1.429 . S
C811 C805 1.429 . S
C811 C812 1.523 1_554 S
C812 C793 1.372 . S
C812 C806 1.368 . S
C812 C811 1.523 1_556 S
C813 C797 1.429 . S
C813 C809 1.429 . S
C813 C814 1.523 . S
C814 C798 1.368 . S
C814 C810 1.368 . S
C814 C813 1.523 . S
H815 C790 0.950 . S
H816 C792 0.950 1_556 S
H817 C793 0.940 1_554 S
H818 C795 0.950 . S
H819 C797 0.950 . S
C820 C821 1.349 . S
C820 C822 1.327 . S
C820 H845 0.950 . S
C821 C820 1.349 . S
C821 C837 1.349 . S
C822 C820 1.327 . S
C822 C841 1.429 . S
C822 H846 0.950 . S
C823 C840 1.574 . S
C823 C842 1.368 . S
C823 H847 0.949 . S
H824 C828 0.949 . S
C825 C826 1.349 . S
C825 C827 1.327 1_556 S
C825 H848 0.950 1_556 S
C826 C825 1.349 . S
C826 C838 1.349 . S
C827 C825 1.327 1_554 S
C827 C843 1.429 1_554 S
C827 H849 0.950 . S
C828 H824 0.949 . S
C828 C836 1.574 . S
C828 C844 1.368 1_556 S
H829 C837 0.950 . S
H830 C835 0.950 . S
H831 C836 0.949 . S
H832 C838 0.950 . S
H833 C839 0.950 . S
H834 C840 0.949 . S
C835 H830 0.950 . S
C835 C837 1.327 . S
C835 C841 1.429 . S
C836 C828 1.574 . S
C836 H831 0.949 . S
C836 C842 1.368 1_556 S
C837 C821 1.349 . S
C837 H829 0.950 . S
C837 C835 1.327 . S
C838 C826 1.349 . S
C838 H832 0.950 . S
C838 C839 1.327 . S
C839 H833 0.950 . S
C839 C838 1.327 . S
C839 C843 1.429 . S
C840 C823 1.574 . S
C840 H834 0.949 . S
C840 C844 1.368 . S
C841 C822 1.429 . S
C841 C835 1.429 . S
C841 C842 1.523 . S
C842 C823 1.368 . S
C842 C836 1.368 1_554 S
C842 C841 1.523 . S
C843 C827 1.429 1_556 S
C843 C839 1.429 . S
C843 C844 1.523 1_556 S
C844 C828 1.368 1_554 S
C844 C840 1.368 . S
C844 C843 1.523 1_554 S
H845 C820 0.950 . S
H846 C822 0.950 . S
H847 C823 0.949 . S
H848 C825 0.950 1_554 S
H849 C827 0.950 . S
C850 C851 1.349 . S
C850 C852 1.327 . S
C850 H875 0.950 . S
C851 C850 1.349 . S
C851 C867 1.349 . S
C852 C850 1.327 . S
C852 C871 1.429 . S
C852 H876 0.950 . S
C853 C870 1.574 . S
C853 C872 1.368 . S
C853 H877 0.949 . S
H854 C858 0.949 . S
C855 C856 1.349 . S
C855 C857 1.327 . S
C855 H878 0.950 . S
C856 C855 1.349 . S
C856 C868 1.349 . S
C857 C855 1.327 . S
C857 C873 1.429 . S
C857 H879 0.950 . S
C858 H854 0.949 . S
C858 C866 1.574 . S
C858 C874 1.368 . S
H859 C867 0.950 . S
H860 C865 0.950 . S
H861 C866 0.949 . S
H862 C868 0.950 . S
H863 C869 0.950 . S
H864 C870 0.949 . S
C865 H860 0.950 . S
C865 C867 1.327 . S
C865 C871 1.429 . S
C866 C858 1.574 . S
C866 H861 0.949 . S
C866 C872 1.368 . S
C867 C851 1.349 . S
C867 H859 0.950 . S
C867 C865 1.327 . S
C868 C856 1.349 . S
C868 H862 0.950 . S
C868 C869 1.327 . S
C869 H863 0.950 . S
C869 C868 1.327 . S
C869 C873 1.429 . S
C870 C853 1.574 . S
C870 H864 0.949 . S
C870 C874 1.368 . S
C871 C852 1.429 . S
C871 C865 1.429 . S
C871 C872 1.523 1_554 S
C872 C853 1.368 . S
C872 C866 1.368 . S
C872 C871 1.523 1_556 S
C873 C857 1.429 . S
C873 C869 1.429 . S
C873 C874 1.523 . S
C874 C858 1.368 . S
C874 C870 1.368 . S
C874 C873 1.523 . S
H875 C850 0.950 . S
H876 C852 0.950 . S
H877 C853 0.949 . S
H878 C855 0.950 . S
H879 C857 0.950 . S
C880 C881 1.349 . S
C880 C882 1.327 . S
C880 H905 0.950 . S
C881 C880 1.349 . S
C881 C897 1.349 . S
C882 C880 1.327 . S
C882 C901 1.429 . S
C882 H906 0.950 . S
C883 C900 1.574 . S
C883 C902 1.368 . S
C883 H907 0.949 . S
H884 C888 0.949 . S
C885 C886 1.349 . S
C885 C887 1.327 . S
C885 H908 0.950 . S
C886 C885 1.349 . S
C886 C898 1.349 . S
C887 C885 1.327 . S
C887 C903 1.429 . S
C887 H909 0.950 . S
C888 H884 0.949 . S
C888 C896 1.574 . S
C888 C904 1.368 . S
H889 C897 0.950 . S
H890 C895 0.950 . S
H891 C896 0.949 . S
H892 C898 0.950 . S
H893 C899 0.950 . S
H894 C900 0.949 . S
C895 H890 0.950 . S
C895 C897 1.327 . S
C895 C901 1.429 . S
C896 C888 1.574 . S
C896 H891 0.949 . S
C896 C902 1.368 . S
C897 C881 1.349 . S
C897 H889 0.950 . S
C897 C895 1.327 . S
C898 C886 1.349 . S
C898 H892 0.950 . S
C898 C899 1.327 . S
C899 H893 0.950 . S
C899 C898 1.327 . S
C899 C903 1.429 . S
C900 C883 1.574 . S
C900 H894 0.949 . S
C900 C904 1.368 . S
C901 C882 1.429 . S
C901 C895 1.429 . S
C901 C902 1.523 . S
C902 C883 1.368 . S
C902 C896 1.368 . S
C902 C901 1.523 . S
C903 C887 1.429 . S
C903 C899 1.429 . S
C903 C904 1.523 . S
C904 C888 1.368 . S
C904 C900 1.368 . S
C904 C903 1.523 . S
H905 C880 0.950 . S
H906 C882 0.950 . S
H907 C883 0.949 . S
H908 C885 0.950 . S
H909 C887 0.950 . S
C910 C911 1.349 . S
C910 C912 1.327 . S
C910 H935 0.950 . S
C911 C910 1.349 . S
C911 C927 1.349 . S
C912 C910 1.327 . S
C912 C931 1.429 . S
C912 H936 0.950 . S
C913 C930 1.574 . S
C913 C932 1.368 . S
C913 H937 0.949 . S
H914 C918 0.949 . S
C915 C916 1.349 . S
C915 C917 1.327 . S
C915 H938 0.950 . S
C916 C915 1.349 . S
C916 C928 1.349 . S
C917 C915 1.327 . S
C917 C933 1.429 . S
C917 H939 0.950 . S
C918 H914 0.949 . S
C918 C926 1.574 . S
C918 C934 1.368 . S
H919 C927 0.950 . S
H920 C925 0.950 . S
H921 C926 0.949 . S
H922 C928 0.950 . S
H923 C929 0.950 . S
H924 C930 0.949 . S
C925 H920 0.950 . S
C925 C927 1.327 . S
C925 C931 1.429 . S
C926 C918 1.574 . S
C926 H921 0.949 . S
C926 C932 1.368 . S
C927 C911 1.349 . S
C927 H919 0.950 . S
C927 C925 1.327 . S
C928 C916 1.349 . S
C928 H922 0.950 . S
C928 C929 1.327 . S
C929 H923 0.950 . S
C929 C928 1.327 . S
C929 C933 1.429 . S
C930 C913 1.574 . S
C930 H924 0.949 . S
C930 C934 1.368 . S
C931 C912 1.429 . S
C931 C925 1.429 . S
C931 C932 1.523 . S
C932 C913 1.368 . S
C932 C926 1.368 . S
C932 C931 1.523 . S
C933 C917 1.429 . S
C933 C929 1.429 . S
C933 C934 1.523 . S
C934 C918 1.368 . S
C934 C930 1.368 . S
C934 C933 1.523 . S
H935 C910 0.950 . S
H936 C912 0.950 . S
H937 C913 0.949 . S
H938 C915 0.950 . S
H939 C917 0.950 . S
C940 C941 1.349 . S
C940 C942 1.327 . S
C940 H965 0.950 . S
C941 C940 1.349 . S
C941 C957 1.349 . S
C942 C940 1.327 . S
C942 C961 1.429 . S
C942 H966 0.950 . S
C943 C960 1.574 . S
C943 C962 1.368 . S
C943 H967 0.949 . S
H944 C948 0.949 . S
C945 C946 1.349 . S
C945 C947 1.327 . S
C945 H968 0.950 . S
C946 C945 1.349 . S
C946 C958 1.349 . S
C947 C945 1.327 . S
C947 C963 1.429 . S
C947 H969 0.950 . S
C948 H944 0.949 . S
C948 C956 1.574 . S
C948 C964 1.368 . S
H949 C957 0.950 . S
H950 C955 0.950 . S
H951 C956 0.949 . S
H952 C958 0.950 . S
H953 C959 0.950 . S
H954 C960 0.949 . S
C955 H950 0.950 . S
C955 C957 1.327 . S
C955 C961 1.429 . S
C956 C948 1.574 . S
C956 H951 0.949 . S
C956 C962 1.368 . S
C957 C941 1.349 . S
C957 H949 0.950 . S
C957 C955 1.327 . S
C958 C946 1.349 . S
C958 H952 0.950 . S
C958 C959 1.327 . S
C959 H953 0.950 . S
C959 C958 1.327 . S
C959 C963 1.429 . S
C960 C943 1.574 . S
C960 H954 0.949 . S
C960 C964 1.368 . S
C961 C942 1.429 . S
C961 C955 1.429 . S
C961 C962 1.523 . S
C962 C943 1.368 . S
C962 C956 1.368 . S
C962 C961 1.523 . S
C963 C947 1.429 . S
C963 C959 1.429 . S
C963 C964 1.523 . S
C964 C948 1.368 . S
C964 C960 1.368 . S
C964 C963 1.523 . S
H965 C940 0.950 . S
H966 C942 0.950 . S
H967 C943 0.949 . S
H968 C945 0.950 . S
H969 C947 0.950 . S
C970 C971 1.349 . S
C970 C972 1.327 . S
C970 H995 0.950 . S
C971 C970 1.349 . S
C971 C987 1.349 . S
C972 C970 1.327 . S
C972 C991 1.429 . S
C972 H996 0.950 . S
C973 C990 1.574 . S
C973 C992 1.368 . S
C973 H997 0.949 . S
H974 C978 0.949 . S
C975 C976 1.349 . S
C975 C977 1.327 . S
C975 H998 0.950 . S
C976 C975 1.349 . S
C976 C988 1.349 . S
C977 C975 1.327 . S
C977 C993 1.429 . S
C977 H999 0.950 . S
C978 H974 0.949 . S
C978 C986 1.574 . S
C978 C994 1.368 . S
H979 C987 0.950 . S
H980 C985 0.950 . S
H981 C986 0.949 . S
H982 C988 0.950 . S
H983 C989 0.950 . S
H984 C990 0.949 . S
C985 H980 0.950 . S
C985 C987 1.327 . S
C985 C991 1.429 . S
C986 C978 1.574 . S
C986 H981 0.949 . S
C986 C992 1.368 . S
C987 C971 1.349 . S
C987 H979 0.950 . S
C987 C985 1.327 . S
C988 C976 1.349 . S
C988 H982 0.950 . S
C988 C989 1.327 . S
C989 H983 0.950 . S
C989 C988 1.327 . S
C989 C993 1.429 . S
C990 C973 1.574 . S
C990 H984 0.949 . S
C990 C994 1.368 . S
C991 C972 1.429 . S
C991 C985 1.429 . S
C991 C992 1.523 . S
C992 C973 1.368 . S
C992 C986 1.368 . S
C992 C991 1.523 . S
C993 C977 1.429 . S
C993 C989 1.429 . S
C993 C994 1.523 . S
C994 C978 1.368 . S
C994 C990 1.368 . S
C994 C993 1.523 . S
H995 C970 0.950 . S
H996 C972 0.950 . S
H997 C973 0.949 . S
H998 C975 0.950 . S
H999 C977 0.950 . S
C1000 C1001 1.349 . S
C1000 C1002 1.327 . S
C1000 H1025 0.950 . S
C1001 C1000 1.349 . S
C1001 C1017 1.349 . S
C1002 C1000 1.327 . S
C1002 C1021 1.429 . S
C1002 H1026 0.950 . S
C1003 C1020 1.574 . S
C1003 C1022 1.403 . S
C1003 H1027 0.949 . S
H1004 C1008 0.949 . S
C1005 C1006 1.349 . S
C1005 C1007 1.327 . S
C1005 H1028 0.950 . S
C1006 C1005 1.349 . S
C1006 C1018 1.349 . S
C1007 C1005 1.327 . S
C1007 C1023 1.429 . S
C1007 H1029 0.950 . S
C1008 H1004 0.949 . S
C1008 C1016 1.574 . S
C1008 C1024 1.368 . S
H1009 C1017 0.950 . S
H1010 C1015 0.950 . S
H1011 C1016 0.949 1_565 S
H1012 C1018 0.950 . S
H1013 C1019 0.950 . S
H1014 C1020 0.949 . S
C1015 H1010 0.950 . S
C1015 C1017 1.327 . S
C1015 C1021 1.429 . S
C1016 C1008 1.574 . S
C1016 H1011 0.949 1_545 S
C1016 C1022 1.372 . S
C1017 C1001 1.349 . S
C1017 H1009 0.950 . S
C1017 C1015 1.327 . S
C1018 C1006 1.349 . S
C1018 H1012 0.950 . S
C1018 C1019 1.327 . S
C1019 H1013 0.950 . S
C1019 C1018 1.327 . S
C1019 C1023 1.429 . S
C1020 C1003 1.574 . S
C1020 H1014 0.949 . S
C1020 C1024 1.368 . S
C1021 C1002 1.429 . S
C1021 C1015 1.429 . S
C1021 C1022 1.475 1_565 S
C1022 C1003 1.403 . S
C1022 C1016 1.372 . S
C1022 C1021 1.475 1_545 S
C1023 C1007 1.429 . S
C1023 C1019 1.429 . S
C1023 C1024 1.523 . S
C1024 C1008 1.368 . S
C1024 C1020 1.368 . S
C1024 C1023 1.523 . S
H1025 C1000 0.950 . S
H1026 C1002 0.950 . S
H1027 C1003 0.949 . S
H1028 C1005 0.950 . S
H1029 C1007 0.950 . S
C1030 C1031 1.349 . S
C1030 C1032 1.327 . S
C1030 H1055 0.950 . S
C1031 C1030 1.349 . S
C1031 C1047 1.349 . S
C1032 C1030 1.327 . S
C1032 C1051 1.429 . S
C1032 H1056 0.950 . S
C1033 C1050 1.574 . S
C1033 C1052 1.368 . S
C1033 H1057 0.949 . S
H1034 C1038 0.920 1_655 S
C1035 C1036 1.349 . S
C1035 C1037 1.327 . S
C1035 H1058 0.950 . S
C1036 C1035 1.349 . S
C1036 C1048 1.349 . S
C1037 C1035 1.327 . S
C1037 C1053 1.429 . S
C1037 H1059 0.950 . S
C1038 H1034 0.920 1_455 S
C1038 C1046 1.606 . S
C1038 C1054 1.368 . S
H1039 C1047 0.950 . S
H1040 C1045 0.950 . S
H1041 C1046 0.949 . S
H1042 C1048 0.950 . S
H1043 C1049 0.950 . S
H1044 C1050 0.949 . S
C1045 H1040 0.950 . S
C1045 C1047 1.327 . S
C1045 C1051 1.429 . S
C1046 C1038 1.606 . S
C1046 H1041 0.949 . S
C1046 C1052 1.368 . S
C1047 C1031 1.349 . S
C1047 H1039 0.950 . S
C1047 C1045 1.327 . S
C1048 C1036 1.349 . S
C1048 H1042 0.950 . S
C1048 C1049 1.327 . S
C1049 H1043 0.950 . S
C1049 C1048 1.327 . S
C1049 C1053 1.429 . S
C1050 C1033 1.574 . S
C1050 H1044 0.949 . S
C1050 C1054 1.406 . S
C1051 C1032 1.429 . S
C1051 C1045 1.429 . S
C1051 C1052 1.523 . S
C1052 C1033 1.368 . S
C1052 C1046 1.368 . S
C1052 C1051 1.523 . S
C1053 C1037 1.429 . S
C1053 C1049 1.429 . S
C1053 C1054 1.475 1_655 S
C1054 C1038 1.368 . S
C1054 C1050 1.406 . S
C1054 C1053 1.475 1_455 S
H1055 C1030 0.950 . S
H1056 C1032 0.950 . S
H1057 C1033 0.949 . S
H1058 C1035 0.950 . S
H1059 C1037 0.950 . S
C1060 C1061 1.349 . S
C1060 C1062 1.327 . S
C1060 H1085 0.950 . S
C1061 C1060 1.349 . S
C1061 C1077 1.349 . S
C1062 C1060 1.327 . S
C1062 C1081 1.429 . S
C1062 H1086 0.950 . S
C1063 C1080 1.574 . S
C1063 C1082 1.368 . S
C1063 H1087 0.949 . S
H1064 C1068 0.919 1_545 S
C1065 C1066 1.349 . S
C1065 C1067 1.327 . S
C1065 H1088 0.950 . S
C1066 C1065 1.349 . S
C1066 C1078 1.349 . S
C1067 C1065 1.327 . S
C1067 C1083 1.429 . S
C1067 H1089 0.950 . S
C1068 H1064 0.919 1_565 S
C1068 C1076 1.607 . S
C1068 C1084 1.368 . S
H1069 C1077 0.950 . S
H1070 C1075 0.950 . S
H1071 C1076 0.949 . S
H1072 C1078 0.950 . S
H1073 C1079 0.950 . S
H1074 C1080 0.949 . S
C1075 H1070 0.950 . S
C1075 C1077 1.327 . S
C1075 C1081 1.429 . S
C1076 C1068 1.607 . S
C1076 H1071 0.949 . S
C1076 C1082 1.368 . S
C1077 C1061 1.349 . S
C1077 H1069 0.950 . S
C1077 C1075 1.327 . S
C1078 C1066 1.349 . S
C1078 H1072 0.950 . S
C1078 C1079 1.327 . S
C1079 H1073 0.950 . S
C1079 C1078 1.327 . S
C1079 C1083 1.429 . S
C1080 C1063 1.574 . S
C1080 H1074 0.949 . S
C1080 C1084 1.406 . S
C1081 C1062 1.429 . S
C1081 C1075 1.429 . S
C1081 C1082 1.523 . S
C1082 C1063 1.368 . S
C1082 C1076 1.368 . S
C1082 C1081 1.523 . S
C1083 C1067 1.429 . S
C1083 C1079 1.429 . S
C1083 C1084 1.475 1_545 S
C1084 C1068 1.368 . S
C1084 C1080 1.406 . S
C1084 C1083 1.475 1_565 S
H1085 C1060 0.950 . S
H1086 C1062 0.950 . S
H1087 C1063 0.949 . S
H1088 C1065 0.950 . S
H1089 C1067 0.950 . S
C1090 C1091 1.349 . S
C1090 C1092 1.327 . S
C1090 H1115 0.950 . S
C1091 C1090 1.349 . S
C1091 C1107 1.349 . S
C1092 C1090 1.327 . S
C1092 C1111 1.429 . S
C1092 H1116 0.950 . S
C1093 C1110 1.574 . S
C1093 C1112 1.379 . S
C1093 H1117 0.949 1_655 S
H1094 C1098 0.949 . S
C1095 C1096 1.349 . S
C1095 C1097 1.327 . S
C1095 H1118 0.950 . S
C1096 C1095 1.349 . S
C1096 C1108 1.349 . S
C1097 C1095 1.327 . S
C1097 C1113 1.429 . S
C1097 H1119 0.950 . S
C1098 H1094 0.949 . S
C1098 C1106 1.574 . S
C1098 C1114 1.368 . S
H1099 C1107 0.950 . S
H1100 C1105 0.950 . S
H1101 C1106 0.949 . S
H1102 C1108 0.950 . S
H1103 C1109 0.950 . S
H1104 C1110 0.949 . S
C1105 H1100 0.950 . S
C1105 C1107 1.327 . S
C1105 C1111 1.429 . S
C1106 C1098 1.574 . S
C1106 H1101 0.949 . S
C1106 C1112 1.396 . S
C1107 C1091 1.349 . S
C1107 H1099 0.950 . S
C1107 C1105 1.327 . S
C1108 C1096 1.349 . S
C1108 H1102 0.950 . S
C1108 C1109 1.327 . S
C1109 H1103 0.950 . S
C1109 C1108 1.327 . S
C1109 C1113 1.429 . S
C1110 C1093 1.574 . S
C1110 H1104 0.949 . S
C1110 C1114 1.368 . S
C1111 C1092 1.429 . S
C1111 C1105 1.429 . S
C1111 C1112 1.475 1_455 S
C1112 C1093 1.379 . S
C1112 C1106 1.396 . S
C1112 C1111 1.475 1_655 S
C1113 C1097 1.429 . S
C1113 C1109 1.429 . S
C1113 C1114 1.523 . S
C1114 C1098 1.368 . S
C1114 C1110 1.368 . S
C1114 C1113 1.523 . S
H1115 C1090 0.950 . S
H1116 C1092 0.950 . S
H1117 C1093 0.949 1_455 S
H1118 C1095 0.950 . S
H1119 C1097 0.950 . S
C1120 C1121 1.349 . S
C1120 C1122 1.327 . S
C1120 H1145 0.950 . S
C1121 C1120 1.349 . S
C1121 C1137 1.349 . S
C1122 C1120 1.327 . S
C1122 C1141 1.429 . S
C1122 H1146 0.950 . S
C1123 C1140 1.574 . S
C1123 C1142 1.368 . S
C1123 H1147 0.949 . S
H1124 C1128 0.949 . S
C1125 C1126 1.349 . S
C1125 C1127 1.327 . S
C1125 H1148 0.950 . S
C1126 C1125 1.349 . S
C1126 C1138 1.349 . S
C1127 C1125 1.327 . S
C1127 C1143 1.429 . S
C1127 H1149 0.950 . S
C1128 H1124 0.949 . S
C1128 C1136 1.574 . S
C1128 C1144 1.368 . S
H1129 C1137 0.950 . S
H1130 C1135 0.950 . S
H1131 C1136 0.949 . S
H1132 C1138 0.950 . S
H1133 C1139 0.950 . S
H1134 C1140 0.949 . S
C1135 H1130 0.950 . S
C1135 C1137 1.327 . S
C1135 C1141 1.429 . S
C1136 C1128 1.574 . S
C1136 H1131 0.949 . S
C1136 C1142 1.368 . S
C1137 C1121 1.349 . S
C1137 H1129 0.950 . S
C1137 C1135 1.327 . S
C1138 C1126 1.349 . S
C1138 H1132 0.950 . S
C1138 C1139 1.327 . S
C1139 H1133 0.950 . S
C1139 C1138 1.327 . S
C1139 C1143 1.429 . S
C1140 C1123 1.574 . S
C1140 H1134 0.949 . S
C1140 C1144 1.368 . S
C1141 C1122 1.429 . S
C1141 C1135 1.429 . S
C1141 C1142 1.523 . S
C1142 C1123 1.368 . S
C1142 C1136 1.368 . S
C1142 C1141 1.523 . S
C1143 C1127 1.429 . S
C1143 C1139 1.429 . S
C1143 C1144 1.523 . S
C1144 C1128 1.368 . S
C1144 C1140 1.368 . S
C1144 C1143 1.523 . S
H1145 C1120 0.950 . S
H1146 C1122 0.950 . S
H1147 C1123 0.949 . S
H1148 C1125 0.950 . S
H1149 C1127 0.950 . S
C1150 C1151 1.349 . S
C1150 C1152 1.327 . S
C1150 H1175 0.950 . S
C1151 C1150 1.349 . S
C1151 C1167 1.349 . S
C1152 C1150 1.327 . S
C1152 C1171 1.429 . S
C1152 H1176 0.950 . S
C1153 C1170 1.574 . S
C1153 C1172 1.368 . S
C1153 H1177 0.949 . S
H1154 C1158 0.949 . S
C1155 C1156 1.349 . S
C1155 C1157 1.327 . S
C1155 H1178 0.950 . S
C1156 C1155 1.349 . S
C1156 C1168 1.349 . S
C1157 C1155 1.327 . S
C1157 C1173 1.429 . S
C1157 H1179 0.950 . S
C1158 H1154 0.949 . S
C1158 C1166 1.574 . S
C1158 C1174 1.368 . S
H1159 C1167 0.950 . S
H1160 C1165 0.950 . S
H1161 C1166 0.949 . S
H1162 C1168 0.950 . S
H1163 C1169 0.950 . S
H1164 C1170 0.949 . S
C1165 H1160 0.950 . S
C1165 C1167 1.327 . S
C1165 C1171 1.429 . S
C1166 C1158 1.574 . S
C1166 H1161 0.949 . S
C1166 C1172 1.368 . S
C1167 C1151 1.349 . S
C1167 H1159 0.950 . S
C1167 C1165 1.327 . S
C1168 C1156 1.349 . S
C1168 H1162 0.950 . S
C1168 C1169 1.327 . S
C1169 H1163 0.950 . S
C1169 C1168 1.327 . S
C1169 C1173 1.429 . S
C1170 C1153 1.574 . S
C1170 H1164 0.949 . S
C1170 C1174 1.368 . S
C1171 C1152 1.429 . S
C1171 C1165 1.429 . S
C1171 C1172 1.523 . S
C1172 C1153 1.368 . S
C1172 C1166 1.368 . S
C1172 C1171 1.523 . S
C1173 C1157 1.429 . S
C1173 C1169 1.429 . S
C1173 C1174 1.523 . S
C1174 C1158 1.368 . S
C1174 C1170 1.368 . S
C1174 C1173 1.523 . S
H1175 C1150 0.950 . S
H1176 C1152 0.950 . S
H1177 C1153 0.949 . S
H1178 C1155 0.950 . S
H1179 C1157 0.950 . S
C1180 C1181 1.349 . S
C1180 C1182 1.327 . S
C1180 H1205 0.950 . S
C1181 C1180 1.349 . S
C1181 C1197 1.349 . S
C1182 C1180 1.327 . S
C1182 C1201 1.429 . S
C1182 H1206 0.950 . S
C1183 C1200 1.574 . S
C1183 C1202 1.368 . S
C1183 H1207 0.949 . S
H1184 C1188 0.949 . S
C1185 C1186 1.349 . S
C1185 C1187 1.327 . S
C1185 H1208 0.950 . S
C1186 C1185 1.349 . S
C1186 C1198 1.349 . S
C1187 C1185 1.327 . S
C1187 C1203 1.429 . S
C1187 H1209 0.950 . S
C1188 H1184 0.949 . S
C1188 C1196 1.574 . S
C1188 C1204 1.368 . S
H1189 C1197 0.950 . S
H1190 C1195 0.950 . S
H1191 C1196 0.949 . S
H1192 C1198 0.950 . S
H1193 C1199 0.950 . S
H1194 C1200 0.949 . S
C1195 H1190 0.950 . S
C1195 C1197 1.327 . S
C1195 C1201 1.429 . S
C1196 C1188 1.574 . S
C1196 H1191 0.949 . S
C1196 C1202 1.368 . S
C1197 C1181 1.349 . S
C1197 H1189 0.950 . S
C1197 C1195 1.327 . S
C1198 C1186 1.349 . S
C1198 H1192 0.950 . S
C1198 C1199 1.327 . S
C1199 H1193 0.950 . S
C1199 C1198 1.327 . S
C1199 C1203 1.429 . S
C1200 C1183 1.574 . S
C1200 H1194 0.949 . S
C1200 C1204 1.368 . S
C1201 C1182 1.429 . S
C1201 C1195 1.429 . S
C1201 C1202 1.523 . S
C1202 C1183 1.368 . S
C1202 C1196 1.368 . S
C1202 C1201 1.523 . S
C1203 C1187 1.429 . S
C1203 C1199 1.429 . S
C1203 C1204 1.523 . S
C1204 C1188 1.368 . S
C1204 C1200 1.368 . S
C1204 C1203 1.523 . S
H1205 C1180 0.950 . S
H1206 C1182 0.950 . S
H1207 C1183 0.949 . S
H1208 C1185 0.950 . S
H1209 C1187 0.950 . S
C1210 C1211 1.349 . S
C1210 C1212 1.327 . S
C1210 H1235 0.950 . S
C1211 C1210 1.349 . S
C1211 C1227 1.349 . S
C1212 C1210 1.327 . S
C1212 C1231 1.429 . S
C1212 H1236 0.950 . S
C1213 C1230 1.574 . S
C1213 C1232 1.368 . S
C1213 H1237 0.949 . S
H1214 C1218 0.949 . S
C1215 C1216 1.349 . S
C1215 C1217 1.327 . S
C1215 H1238 0.950 . S
C1216 C1215 1.349 . S
C1216 C1228 1.349 . S
C1217 C1215 1.327 . S
C1217 C1233 1.429 . S
C1217 H1239 0.950 . S
C1218 H1214 0.949 . S
C1218 C1226 1.574 . S
C1218 C1234 1.368 . S
H1219 C1227 0.950 . S
H1220 C1225 0.950 . S
H1221 C1226 0.949 . S
H1222 C1228 0.950 . S
H1223 C1229 0.950 . S
H1224 C1230 0.949 . S
C1225 H1220 0.950 . S
C1225 C1227 1.327 . S
C1225 C1231 1.429 . S
C1226 C1218 1.574 . S
C1226 H1221 0.949 . S
C1226 C1232 1.368 . S
C1227 C1211 1.349 . S
C1227 H1219 0.950 . S
C1227 C1225 1.327 . S
C1228 C1216 1.349 . S
C1228 H1222 0.950 . S
C1228 C1229 1.327 . S
C1229 H1223 0.950 . S
C1229 C1228 1.327 . S
C1229 C1233 1.429 . S
C1230 C1213 1.574 . S
C1230 H1224 0.949 . S
C1230 C1234 1.368 . S
C1231 C1212 1.429 . S
C1231 C1225 1.429 . S
C1231 C1232 1.523 . S
C1232 C1213 1.368 . S
C1232 C1226 1.368 . S
C1232 C1231 1.523 . S
C1233 C1217 1.429 . S
C1233 C1229 1.429 . S
C1233 C1234 1.523 . S
C1234 C1218 1.368 . S
C1234 C1230 1.368 . S
C1234 C1233 1.523 . S
H1235 C1210 0.950 . S
H1236 C1212 0.950 . S
H1237 C1213 0.949 . S
H1238 C1215 0.950 . S
H1239 C1217 0.950 . S
C1240 C1241 1.349 . S
C1240 C1242 1.327 . S
C1240 H1265 0.950 . S
C1241 C1240 1.349 . S
C1241 C1257 1.349 . S
C1242 C1240 1.327 . S
C1242 C1261 1.429 . S
C1242 H1266 0.950 . S
C1243 C1260 1.574 . S
C1243 C1262 1.368 . S
C1243 H1267 0.949 . S
H1244 C1248 0.949 . S
C1245 C1246 1.349 . S
C1245 C1247 1.327 . S
C1245 H1268 0.950 . S
C1246 C1245 1.349 . S
C1246 C1258 1.349 . S
C1247 C1245 1.327 . S
C1247 C1263 1.429 . S
C1247 H1269 0.950 . S
C1248 H1244 0.949 . S
C1248 C1256 1.574 . S
C1248 C1264 1.368 . S
H1249 C1257 0.950 . S
H1250 C1255 0.950 . S
H1251 C1256 0.949 . S
H1252 C1258 0.950 . S
H1253 C1259 0.950 . S
H1254 C1260 0.949 . S
C1255 H1250 0.950 . S
C1255 C1257 1.327 . S
C1255 C1261 1.429 . S
C1256 C1248 1.574 . S
C1256 H1251 0.949 . S
C1256 C1262 1.368 . S
C1257 C1241 1.349 . S
C1257 H1249 0.950 . S
C1257 C1255 1.327 . S
C1258 C1246 1.349 . S
C1258 H1252 0.950 . S
C1258 C1259 1.327 . S
C1259 H1253 0.950 . S
C1259 C1258 1.327 . S
C1259 C1263 1.429 . S
C1260 C1243 1.574 . S
C1260 H1254 0.949 . S
C1260 C1264 1.368 . S
C1261 C1242 1.429 . S
C1261 C1255 1.429 . S
C1261 C1262 1.523 . S
C1262 C1243 1.368 . S
C1262 C1256 1.368 . S
C1262 C1261 1.523 . S
C1263 C1247 1.429 . S
C1263 C1259 1.429 . S
C1263 C1264 1.523 . S
C1264 C1248 1.368 . S
C1264 C1260 1.368 . S
C1264 C1263 1.523 . S
H1265 C1240 0.950 . S
H1266 C1242 0.950 . S
H1267 C1243 0.949 . S
H1268 C1245 0.950 . S
H1269 C1247 0.950 . S
C1270 C1271 1.349 . S
C1270 C1272 1.327 . S
C1270 H1295 0.950 . S
C1271 C1270 1.349 . S
C1271 C1287 1.349 . S
C1272 C1270 1.327 . S
C1272 C1291 1.429 . S
C1272 H1296 0.950 . S
C1273 C1290 1.574 . S
C1273 C1292 1.368 . S
C1273 H1297 0.949 . S
H1274 C1278 0.949 . S
C1275 C1276 1.349 . S
C1275 C1277 1.327 . S
C1275 H1298 0.950 . S
C1276 C1275 1.349 . S
C1276 C1288 1.349 . S
C1277 C1275 1.327 . S
C1277 C1293 1.429 . S
C1277 H1299 0.950 . S
C1278 H1274 0.949 . S
C1278 C1286 1.574 . S
C1278 C1294 1.368 . S
H1279 C1287 0.950 . S
H1280 C1285 0.950 . S
H1281 C1286 0.949 . S
H1282 C1288 0.950 . S
H1283 C1289 0.950 . S
H1284 C1290 0.949 . S
C1285 H1280 0.950 . S
C1285 C1287 1.327 . S
C1285 C1291 1.429 . S
C1286 C1278 1.574 . S
C1286 H1281 0.949 . S
C1286 C1292 1.368 . S
C1287 C1271 1.349 . S
C1287 H1279 0.950 . S
C1287 C1285 1.327 . S
C1288 C1276 1.349 . S
C1288 H1282 0.950 . S
C1288 C1289 1.327 . S
C1289 H1283 0.950 . S
C1289 C1288 1.327 . S
C1289 C1293 1.429 . S
C1290 C1273 1.574 . S
C1290 H1284 0.949 . S
C1290 C1294 1.368 . S
C1291 C1272 1.429 . S
C1291 C1285 1.429 . S
C1291 C1292 1.523 . S
C1292 C1273 1.368 . S
C1292 C1286 1.368 . S
C1292 C1291 1.523 . S
C1293 C1277 1.429 . S
C1293 C1289 1.429 . S
C1293 C1294 1.523 . S
C1294 C1278 1.368 . S
C1294 C1290 1.368 . S
C1294 C1293 1.523 . S
H1295 C1270 0.950 . S
H1296 C1272 0.950 . S
H1297 C1273 0.949 . S
H1298 C1275 0.950 . S
H1299 C1277 0.950 . S
C1300 C1301 1.349 . S
C1300 C1302 1.327 . S
C1300 H1325 0.950 . S
C1301 C1300 1.349 . S
C1301 C1317 1.349 . S
C1302 C1300 1.327 . S
C1302 C1321 1.429 . S
C1302 H1326 0.950 . S
C1303 C1320 1.574 . S
C1303 C1322 1.368 . S
C1303 H1327 0.949 . S
H1304 C1308 0.949 . S
C1305 C1306 1.349 . S
C1305 C1307 1.327 . S
C1305 H1328 0.950 . S
C1306 C1305 1.349 . S
C1306 C1318 1.349 . S
C1307 C1305 1.327 . S
C1307 C1323 1.429 . S
C1307 H1329 0.950 . S
C1308 H1304 0.949 . S
C1308 C1316 1.574 . S
C1308 C1324 1.368 . S
H1309 C1317 0.950 . S
H1310 C1315 0.950 . S
H1311 C1316 0.949 . S
H1312 C1318 0.950 . S
H1313 C1319 0.950 . S
H1314 C1320 0.949 . S
C1315 H1310 0.950 . S
C1315 C1317 1.327 . S
C1315 C1321 1.429 . S
C1316 C1308 1.574 . S
C1316 H1311 0.949 . S
C1316 C1322 1.368 . S
C1317 C1301 1.349 . S
C1317 H1309 0.950 . S
C1317 C1315 1.327 . S
C1318 C1306 1.349 . S
C1318 H1312 0.950 . S
C1318 C1319 1.327 . S
C1319 H1313 0.950 . S
C1319 C1318 1.327 . S
C1319 C1323 1.429 . S
C1320 C1303 1.574 . S
C1320 H1314 0.949 . S
C1320 C1324 1.368 . S
C1321 C1302 1.429 . S
C1321 C1315 1.429 . S
C1321 C1322 1.523 . S
C1322 C1303 1.368 . S
C1322 C1316 1.368 . S
C1322 C1321 1.523 . S
C1323 C1307 1.429 . S
C1323 C1319 1.429 . S
C1323 C1324 1.523 . S
C1324 C1308 1.368 . S
C1324 C1320 1.368 . S
C1324 C1323 1.523 . S
H1325 C1300 0.950 . S
H1326 C1302 0.950 . S
H1327 C1303 0.949 . S
H1328 C1305 0.950 . S
H1329 C1307 0.950 . S
C1330 C1331 1.349 . S
C1330 C1332 1.327 . S
C1330 H1355 0.950 . S
C1331 C1330 1.349 . S
C1331 C1347 1.349 . S
C1332 C1330 1.327 . S
C1332 C1351 1.429 . S
C1332 H1356 0.950 . S
C1333 C1350 1.574 . S
C1333 C1352 1.368 . S
C1333 H1357 0.949 . S
H1334 C1338 0.949 . S
C1335 C1336 1.349 . S
C1335 C1337 1.327 . S
C1335 H1358 0.950 . S
C1336 C1335 1.349 . S
C1336 C1348 1.349 . S
C1337 C1335 1.327 . S
C1337 C1353 1.429 . S
C1337 H1359 0.950 . S
C1338 H1334 0.949 . S
C1338 C1346 1.574 . S
C1338 C1354 1.368 . S
H1339 C1347 0.950 . S
H1340 C1345 0.950 . S
H1341 C1346 0.949 . S
H1342 C1348 0.950 . S
H1343 C1349 0.950 . S
H1344 C1350 0.949 . S
C1345 H1340 0.950 . S
C1345 C1347 1.327 . S
C1345 C1351 1.429 . S
C1346 C1338 1.574 . S
C1346 H1341 0.949 . S
C1346 C1352 1.368 . S
C1347 C1331 1.349 . S
C1347 H1339 0.950 . S
C1347 C1345 1.327 . S
C1348 C1336 1.349 . S
C1348 H1342 0.950 . S
C1348 C1349 1.327 . S
C1349 H1343 0.950 . S
C1349 C1348 1.327 . S
C1349 C1353 1.429 . S
C1350 C1333 1.574 . S
C1350 H1344 0.949 . S
C1350 C1354 1.368 . S
C1351 C1332 1.429 . S
C1351 C1345 1.429 . S
C1351 C1352 1.523 . S
C1352 C1333 1.368 . S
C1352 C1346 1.368 . S
C1352 C1351 1.523 . S
C1353 C1337 1.429 . S
C1353 C1349 1.429 . S
C1353 C1354 1.523 . S
C1354 C1338 1.368 . S
C1354 C1350 1.368 . S
C1354 C1353 1.523 . S
H1355 C1330 0.950 . S
H1356 C1332 0.950 . S
H1357 C1333 0.949 . S
H1358 C1335 0.950 . S
H1359 C1337 0.950 . S
C1360 C1361 1.349 . S
C1360 C1362 1.327 . S
C1360 H1385 0.950 . S
C1361 C1360 1.349 . S
C1361 C1377 1.349 . S
C1362 C1360 1.327 . S
C1362 C1381 1.429 . S
C1362 H1386 0.950 . S
C1363 C1380 1.574 . S
C1363 C1382 1.368 . S
C1363 H1387 0.949 . S
H1364 C1368 0.949 . S
C1365 C1366 1.349 . S
C1365 C1367 1.327 1_554 S
C1365 H1388 0.950 . S
C1366 C1365 1.349 . S
C1366 C1378 1.349 1_554 S
C1367 C1365 1.327 1_556 S
C1367 C1383 1.429 . S
C1367 H1389 0.950 . S
C1368 H1364 0.949 . S
C1368 C1376 1.574 . S
C1368 C1384 1.368 . S
H1369 C1377 0.950 . S
H1370 C1375 0.950 . S
H1371 C1376 0.949 . S
H1372 C1378 0.950 . S
H1373 C1379 0.950 . S
H1374 C1380 0.949 . S
C1375 H1370 0.950 . S
C1375 C1377 1.327 . S
C1375 C1381 1.429 . S
C1376 C1368 1.574 . S
C1376 H1371 0.949 . S
C1376 C1382 1.368 . S
C1377 C1361 1.349 . S
C1377 H1369 0.950 . S
C1377 C1375 1.327 . S
C1378 C1366 1.349 1_556 S
C1378 H1372 0.950 . S
C1378 C1379 1.327 . S
C1379 H1373 0.950 . S
C1379 C1378 1.327 . S
C1379 C1383 1.429 . S
C1380 C1363 1.574 . S
C1380 H1374 0.949 . S
C1380 C1384 1.368 . S
C1381 C1362 1.429 . S
C1381 C1375 1.429 . S
C1381 C1382 1.523 . S
C1382 C1363 1.368 . S
C1382 C1376 1.368 . S
C1382 C1381 1.523 . S
C1383 C1367 1.429 . S
C1383 C1379 1.429 . S
C1383 C1384 1.523 . S
C1384 C1368 1.368 . S
C1384 C1380 1.368 . S
C1384 C1383 1.523 . S
H1385 C1360 0.950 . S
H1386 C1362 0.950 . S
H1387 C1363 0.949 . S
H1388 C1365 0.950 . S
H1389 C1367 0.950 . S
C1390 C1391 1.349 . S
C1390 C1392 1.327 1_556 S
C1390 H1415 0.950 . S
C1391 C1390 1.349 . S
C1391 C1407 1.349 1_556 S
C1392 C1390 1.327 1_554 S
C1392 C1411 1.429 . S
C1392 H1416 0.950 . S
C1393 C1410 1.574 . S
C1393 C1412 1.368 . S
C1393 H1417 0.949 . S
H1394 C1398 0.949 . S
C1395 C1396 1.349 . S
C1395 C1397 1.327 . S
C1395 H1418 0.950 . S
C1396 C1395 1.349 . S
C1396 C1408 1.349 . S
C1397 C1395 1.327 . S
C1397 C1413 1.429 . S
C1397 H1419 0.950 . S
C1398 H1394 0.949 . S
C1398 C1406 1.574 . S
C1398 C1414 1.368 . S
H1399 C1407 0.950 . S
H1400 C1405 0.950 . S
H1401 C1406 0.949 . S
H1402 C1408 0.950 . S
H1403 C1409 0.950 . S
H1404 C1410 0.949 . S
C1405 H1400 0.950 . S
C1405 C1407 1.327 . S
C1405 C1411 1.429 . S
C1406 C1398 1.574 . S
C1406 H1401 0.949 . S
C1406 C1412 1.368 . S
C1407 C1391 1.349 1_554 S
C1407 H1399 0.950 . S
C1407 C1405 1.327 . S
C1408 C1396 1.349 . S
C1408 H1402 0.950 . S
C1408 C1409 1.327 . S
C1409 H1403 0.950 . S
C1409 C1408 1.327 . S
C1409 C1413 1.429 . S
C1410 C1393 1.574 . S
C1410 H1404 0.949 . S
C1410 C1414 1.368 . S
C1411 C1392 1.429 . S
C1411 C1405 1.429 . S
C1411 C1412 1.523 . S
C1412 C1393 1.368 . S
C1412 C1406 1.368 . S
C1412 C1411 1.523 . S
C1413 C1397 1.429 . S
C1413 C1409 1.429 . S
C1413 C1414 1.523 . S
C1414 C1398 1.368 . S
C1414 C1410 1.368 . S
C1414 C1413 1.523 . S
H1415 C1390 0.950 . S
H1416 C1392 0.950 . S
H1417 C1393 0.949 . S
H1418 C1395 0.950 . S
H1419 C1397 0.950 . S
C1420 C1421 1.349 1_556 S
C1420 C1422 1.327 . S
C1420 H1445 0.950 . S
C1421 C1420 1.349 1_554 S
C1421 C1437 1.349 . S
C1422 C1420 1.327 . S
C1422 C1441 1.429 . S
C1422 H1446 0.950 . S
C1423 C1440 1.574 . S
C1423 C1442 1.368 . S
C1423 H1447 0.949 . S
H1424 C1428 0.949 . S
C1425 C1426 1.349 . S
C1425 C1427 1.327 . S
C1425 H1448 0.950 . S
C1426 C1425 1.349 . S
C1426 C1438 1.349 . S
C1427 C1425 1.327 . S
C1427 C1443 1.429 . S
C1427 H1449 0.950 . S
C1428 H1424 0.949 . S
C1428 C1436 1.574 . S
C1428 C1444 1.368 . S
H1429 C1437 0.950 . S
H1430 C1435 0.950 . S
H1431 C1436 0.949 . S
H1432 C1438 0.950 . S
H1433 C1439 0.950 . S
H1434 C1440 0.949 . S
C1435 H1430 0.950 . S
C1435 C1437 1.327 1_556 S
C1435 C1441 1.429 . S
C1436 C1428 1.574 . S
C1436 H1431 0.949 . S
C1436 C1442 1.368 . S
C1437 C1421 1.349 . S
C1437 H1429 0.950 . S
C1437 C1435 1.327 1_554 S
C1438 C1426 1.349 . S
C1438 H1432 0.950 . S
C1438 C1439 1.327 . S
C1439 H1433 0.950 . S
C1439 C1438 1.327 . S
C1439 C1443 1.429 . S
C1440 C1423 1.574 . S
C1440 H1434 0.949 . S
C1440 C1444 1.368 . S
C1441 C1422 1.429 . S
C1441 C1435 1.429 . S
C1441 C1442 1.523 . S
C1442 C1423 1.368 . S
C1442 C1436 1.368 . S
C1442 C1441 1.523 . S
C1443 C1427 1.429 . S
C1443 C1439 1.429 . S
C1443 C1444 1.523 . S
C1444 C1428 1.368 . S
C1444 C1440 1.368 . S
C1444 C1443 1.523 . S
H1445 C1420 0.950 . S
H1446 C1422 0.950 . S
H1447 C1423 0.949 . S
H1448 C1425 0.950 . S
H1449 C1427 0.950 . S
C1450 C1451 1.349 . S
C1450 C1452 1.327 1_556 S
C1450 H1475 0.950 . S
C1451 C1450 1.349 . S
C1451 C1467 1.349 . S
C1452 C1450 1.327 1_554 S
C1452 C1471 1.429 . S
C1452 H1476 0.950 . S
C1453 C1470 1.574 . S
C1453 C1472 1.368 . S
C1453 H1477 0.949 . S
H1454 C1458 0.949 . S
C1455 C1456 1.349 . S
C1455 C1457 1.327 . S
C1455 H1478 0.950 . S
C1456 C1455 1.349 . S
C1456 C1468 1.349 . S
C1457 C1455 1.327 . S
C1457 C1473 1.429 . S
C1457 H1479 0.950 . S
C1458 H1454 0.949 . S
C1458 C1466 1.574 . S
C1458 C1474 1.368 . S
H1459 C1467 0.950 . S
H1460 C1465 0.950 . S
H1461 C1466 0.949 . S
H1462 C1468 0.950 . S
H1463 C1469 0.950 . S
H1464 C1470 0.949 . S
C1465 H1460 0.950 . S
C1465 C1467 1.327 1_554 S
C1465 C1471 1.429 . S
C1466 C1458 1.574 . S
C1466 H1461 0.949 . S
C1466 C1472 1.368 . S
C1467 C1451 1.349 . S
C1467 H1459 0.950 . S
C1467 C1465 1.327 1_556 S
C1468 C1456 1.349 . S
C1468 H1462 0.950 . S
C1468 C1469 1.327 . S
C1469 H1463 0.950 . S
C1469 C1468 1.327 . S
C1469 C1473 1.429 . S
C1470 C1453 1.574 . S
C1470 H1464 0.949 . S
C1470 C1474 1.368 . S
C1471 C1452 1.429 . S
C1471 C1465 1.429 . S
C1471 C1472 1.523 . S
C1472 C1453 1.368 . S
C1472 C1466 1.368 . S
C1472 C1471 1.523 . S
C1473 C1457 1.429 . S
C1473 C1469 1.429 . S
C1473 C1474 1.523 . S
C1474 C1458 1.368 . S
C1474 C1470 1.368 . S
C1474 C1473 1.523 . S
H1475 C1450 0.950 . S
H1476 C1452 0.950 . S
H1477 C1453 0.949 . S
H1478 C1455 0.950 . S
H1479 C1457 0.950 . S
C1480 C1481 1.349 . S
C1480 C1482 1.327 . S
C1480 H1505 0.950 . S
C1481 C1480 1.349 . S
C1481 C1497 1.349 . S
C1482 C1480 1.327 . S
C1482 C1501 1.429 . S
C1482 H1506 0.950 . S
C1483 C1500 1.574 . S
C1483 C1502 1.368 . S
C1483 H1507 0.949 . S
H1484 C1488 0.949 . S
C1485 C1486 1.349 . S
C1485 C1487 1.327 . S
C1485 H1508 0.950 . S
C1486 C1485 1.349 . S
C1486 C1498 1.349 . S
C1487 C1485 1.327 . S
C1487 C1503 1.429 . S
C1487 H1509 0.950 . S
C1488 H1484 0.949 . S
C1488 C1496 1.574 . S
C1488 C1504 1.368 . S
H1489 C1497 0.950 . S
H1490 C1495 0.950 . S
H1491 C1496 0.949 . S
H1492 C1498 0.950 . S
H1493 C1499 0.950 . S
H1494 C1500 0.949 . S
C1495 H1490 0.950 . S
C1495 C1497 1.327 . S
C1495 C1501 1.429 . S
C1496 C1488 1.574 . S
C1496 H1491 0.949 . S
C1496 C1502 1.368 . S
C1497 C1481 1.349 . S
C1497 H1489 0.950 . S
C1497 C1495 1.327 . S
C1498 C1486 1.349 . S
C1498 H1492 0.950 . S
C1498 C1499 1.327 . S
C1499 H1493 0.950 . S
C1499 C1498 1.327 . S
C1499 C1503 1.429 . S
C1500 C1483 1.574 . S
C1500 H1494 0.949 . S
C1500 C1504 1.368 . S
C1501 C1482 1.429 . S
C1501 C1495 1.429 . S
C1501 C1502 1.523 . S
C1502 C1483 1.368 . S
C1502 C1496 1.368 . S
C1502 C1501 1.523 . S
C1503 C1487 1.429 . S
C1503 C1499 1.429 . S
C1503 C1504 1.523 . S
C1504 C1488 1.368 . S
C1504 C1500 1.368 . S
C1504 C1503 1.523 . S
H1505 C1480 0.950 . S
H1506 C1482 0.950 . S
H1507 C1483 0.949 . S
H1508 C1485 0.950 . S
H1509 C1487 0.950 . S
C1510 C1511 1.349 . S
C1510 C1512 1.327 . S
C1510 H1535 0.950 . S
C1511 C1510 1.349 . S
C1511 C1527 1.349 . S
C1512 C1510 1.327 . S
C1512 C1531 1.429 . S
C1512 H1536 0.950 . S
C1513 C1530 1.574 . S
C1513 C1532 1.368 . S
C1513 H1537 0.949 . S
H1514 C1518 0.949 . S
C1515 C1516 1.349 . S
C1515 C1517 1.327 . S
C1515 H1538 0.950 . S
C1516 C1515 1.349 . S
C1516 C1528 1.349 . S
C1517 C1515 1.327 . S
C1517 C1533 1.429 . S
C1517 H1539 0.950 . S
C1518 H1514 0.949 . S
C1518 C1526 1.574 . S
C1518 C1534 1.368 . S
H1519 C1527 0.950 . S
H1520 C1525 0.950 . S
H1521 C1526 0.949 . S
H1522 C1528 0.950 . S
H1523 C1529 0.950 . S
H1524 C1530 0.949 . S
C1525 H1520 0.950 . S
C1525 C1527 1.327 . S
C1525 C1531 1.429 . S
C1526 C1518 1.574 . S
C1526 H1521 0.949 . S
C1526 C1532 1.368 . S
C1527 C1511 1.349 . S
C1527 H1519 0.950 . S
C1527 C1525 1.327 . S
C1528 C1516 1.349 . S
C1528 H1522 0.950 . S
C1528 C1529 1.327 . S
C1529 H1523 0.950 . S
C1529 C1528 1.327 . S
C1529 C1533 1.429 . S
C1530 C1513 1.574 . S
C1530 H1524 0.949 . S
C1530 C1534 1.368 . S
C1531 C1512 1.429 . S
C1531 C1525 1.429 . S
C1531 C1532 1.523 . S
C1532 C1513 1.368 . S
C1532 C1526 1.368 . S
C1532 C1531 1.523 . S
C1533 C1517 1.429 . S
C1533 C1529 1.429 . S
C1533 C1534 1.523 . S
C1534 C1518 1.368 . S
C1534 C1530 1.368 . S
C1534 C1533 1.523 . S
H1535 C1510 0.950 . S
H1536 C1512 0.950 . S
H1537 C1513 0.949 . S
H1538 C1515 0.950 . S
H1539 C1517 0.950 . S
C1540 C1541 1.349 . S
C1540 C1542 1.327 . S
C1540 H1565 0.950 . S
C1541 C1540 1.349 . S
C1541 C1557 1.349 . S
C1542 C1540 1.327 . S
C1542 C1561 1.429 . S
C1542 H1566 0.950 . S
C1543 C1560 1.574 . S
C1543 C1562 1.368 . S
C1543 H1567 0.949 . S
H1544 C1548 0.949 . S
C1545 C1546 1.349 . S
C1545 C1547 1.327 . S
C1545 H1568 0.950 . S
C1546 C1545 1.349 . S
C1546 C1558 1.349 . S
C1547 C1545 1.327 . S
C1547 C1563 1.429 . S
C1547 H1569 0.950 . S
C1548 H1544 0.949 . S
C1548 C1556 1.574 . S
C1548 C1564 1.368 . S
H1549 C1557 0.950 . S
H1550 C1555 0.950 . S
H1551 C1556 0.949 . S
H1552 C1558 0.950 . S
H1553 C1559 0.950 . S
H1554 C1560 0.949 . S
C1555 H1550 0.950 . S
C1555 C1557 1.327 . S
C1555 C1561 1.429 . S
C1556 C1548 1.574 . S
C1556 H1551 0.949 . S
C1556 C1562 1.368 . S
C1557 C1541 1.349 . S
C1557 H1549 0.950 . S
C1557 C1555 1.327 . S
C1558 C1546 1.349 . S
C1558 H1552 0.950 . S
C1558 C1559 1.327 . S
C1559 H1553 0.950 . S
C1559 C1558 1.327 . S
C1559 C1563 1.429 . S
C1560 C1543 1.574 . S
C1560 H1554 0.949 . S
C1560 C1564 1.368 . S
C1561 C1542 1.429 . S
C1561 C1555 1.429 . S
C1561 C1562 1.523 . S
C1562 C1543 1.368 . S
C1562 C1556 1.368 . S
C1562 C1561 1.523 . S
C1563 C1547 1.429 . S
C1563 C1559 1.429 . S
C1563 C1564 1.523 . S
C1564 C1548 1.368 . S
C1564 C1560 1.368 . S
C1564 C1563 1.523 . S
H1565 C1540 0.950 . S
H1566 C1542 0.950 . S
H1567 C1543 0.949 . S
H1568 C1545 0.950 . S
H1569 C1547 0.950 . S
C1570 C1571 1.349 . S
C1570 C1572 1.327 . S
C1570 H1595 0.950 . S
C1571 C1570 1.349 . S
C1571 C1587 1.349 . S
C1572 C1570 1.327 . S
C1572 C1591 1.429 . S
C1572 H1596 0.950 . S
C1573 C1590 1.574 . S
C1573 C1592 1.368 . S
C1573 H1597 0.949 . S
H1574 C1578 0.949 . S
C1575 C1576 1.349 . S
C1575 C1577 1.327 . S
C1575 H1598 0.950 . S
C1576 C1575 1.349 . S
C1576 C1588 1.349 . S
C1577 C1575 1.327 . S
C1577 C1593 1.429 . S
C1577 H1599 0.950 . S
C1578 H1574 0.949 . S
C1578 C1586 1.574 . S
C1578 C1594 1.368 . S
H1579 C1587 0.950 . S
H1580 C1585 0.950 . S
H1581 C1586 0.949 . S
H1582 C1588 0.950 . S
H1583 C1589 0.950 . S
H1584 C1590 0.949 . S
C1585 H1580 0.950 . S
C1585 C1587 1.327 . S
C1585 C1591 1.429 . S
C1586 C1578 1.574 . S
C1586 H1581 0.949 . S
C1586 C1592 1.368 . S
C1587 C1571 1.349 . S
C1587 H1579 0.950 . S
C1587 C1585 1.327 . S
C1588 C1576 1.349 . S
C1588 H1582 0.950 . S
C1588 C1589 1.327 . S
C1589 H1583 0.950 . S
C1589 C1588 1.327 . S
C1589 C1593 1.429 . S
C1590 C1573 1.574 . S
C1590 H1584 0.949 . S
C1590 C1594 1.368 . S
C1591 C1572 1.429 . S
C1591 C1585 1.429 . S
C1591 C1592 1.523 . S
C1592 C1573 1.368 . S
C1592 C1586 1.368 . S
C1592 C1591 1.523 . S
C1593 C1577 1.429 . S
C1593 C1589 1.429 . S
C1593 C1594 1.523 . S
C1594 C1578 1.368 . S
C1594 C1590 1.368 . S
C1594 C1593 1.523 . S
H1595 C1570 0.950 . S
H1596 C1572 0.950 . S
H1597 C1573 0.949 . S
H1598 C1575 0.950 . S
H1599 C1577 0.950 . S
C1600 C1601 1.349 . S
C1600 C1602 1.327 . S
C1600 H1625 0.950 . S
C1601 C1600 1.349 . S
C1601 C1617 1.349 . S
C1602 C1600 1.327 . S
C1602 C1621 1.429 . S
C1602 H1626 0.950 . S
C1603 C1620 1.574 . S
C1603 C1622 1.368 . S
C1603 H1627 0.949 . S
H1604 C1608 0.949 . S
C1605 C1606 1.349 . S
C1605 C1607 1.327 . S
C1605 H1628 0.950 . S
C1606 C1605 1.349 . S
C1606 C1618 1.349 . S
C1607 C1605 1.327 . S
C1607 C1623 1.429 . S
C1607 H1629 0.950 . S
C1608 H1604 0.949 . S
C1608 C1616 1.574 . S
C1608 C1624 1.368 . S
H1609 C1617 0.950 . S
H1610 C1615 0.950 . S
H1611 C1616 0.949 . S
H1612 C1618 0.950 . S
H1613 C1619 0.950 . S
H1614 C1620 0.949 . S
C1615 H1610 0.950 . S
C1615 C1617 1.327 . S
C1615 C1621 1.429 . S
C1616 C1608 1.574 . S
C1616 H1611 0.949 . S
C1616 C1622 1.368 . S
C1617 C1601 1.349 . S
C1617 H1609 0.950 . S
C1617 C1615 1.327 . S
C1618 C1606 1.349 . S
C1618 H1612 0.950 . S
C1618 C1619 1.327 . S
C1619 H1613 0.950 . S
C1619 C1618 1.327 . S
C1619 C1623 1.429 . S
C1620 C1603 1.574 . S
C1620 H1614 0.949 . S
C1620 C1624 1.368 . S
C1621 C1602 1.429 . S
C1621 C1615 1.429 . S
C1621 C1622 1.523 . S
C1622 C1603 1.368 . S
C1622 C1616 1.368 . S
C1622 C1621 1.523 . S
C1623 C1607 1.429 . S
C1623 C1619 1.429 . S
C1623 C1624 1.523 . S
C1624 C1608 1.368 . S
C1624 C1620 1.368 . S
C1624 C1623 1.523 . S
H1625 C1600 0.950 . S
H1626 C1602 0.950 . S
H1627 C1603 0.949 . S
H1628 C1605 0.950 . S
H1629 C1607 0.950 . S
C1630 C1631 1.349 . S
C1630 C1632 1.327 . S
C1630 H1655 0.950 . S
C1631 C1630 1.349 . S
C1631 C1647 1.349 . S
C1632 C1630 1.327 . S
C1632 C1651 1.429 . S
C1632 H1656 0.950 . S
C1633 C1650 1.574 . S
C1633 C1652 1.368 . S
C1633 H1657 0.949 . S
H1634 C1638 0.949 . S
C1635 C1636 1.349 . S
C1635 C1637 1.327 . S
C1635 H1658 0.950 . S
C1636 C1635 1.349 . S
C1636 C1648 1.349 . S
C1637 C1635 1.327 . S
C1637 C1653 1.429 . S
C1637 H1659 0.950 . S
C1638 H1634 0.949 . S
C1638 C1646 1.574 . S
C1638 C1654 1.368 . S
H1639 C1647 0.950 . S
H1640 C1645 0.950 . S
H1641 C1646 0.949 . S
H1642 C1648 0.950 . S
H1643 C1649 0.950 . S
H1644 C1650 0.949 . S
C1645 H1640 0.950 . S
C1645 C1647 1.327 . S
C1645 C1651 1.429 . S
C1646 C1638 1.574 . S
C1646 H1641 0.949 . S
C1646 C1652 1.368 . S
C1647 C1631 1.349 . S
C1647 H1639 0.950 . S
C1647 C1645 1.327 . S
C1648 C1636 1.349 . S
C1648 H1642 0.950 . S
C1648 C1649 1.327 . S
C1649 H1643 0.950 . S
C1649 C1648 1.327 . S
C1649 C1653 1.429 . S
C1650 C1633 1.574 . S
C1650 H1644 0.949 . S
C1650 C1654 1.368 . S
C1651 C1632 1.429 . S
C1651 C1645 1.429 . S
C1651 C1652 1.523 . S
C1652 C1633 1.368 . S
C1652 C1646 1.368 . S
C1652 C1651 1.523 . S
C1653 C1637 1.429 . S
C1653 C1649 1.429 . S
C1653 C1654 1.523 . S
C1654 C1638 1.368 . S
C1654 C1650 1.368 . S
C1654 C1653 1.523 . S
H1655 C1630 0.950 . S
H1656 C1632 0.950 . S
H1657 C1633 0.949 . S
H1658 C1635 0.950 . S
H1659 C1637 0.950 . S
C1660 C1661 1.349 . S
C1660 C1662 1.327 . S
C1660 H1685 0.950 . S
C1661 C1660 1.349 . S
C1661 C1677 1.349 . S
C1662 C1660 1.327 . S
C1662 C1681 1.429 . S
C1662 H1686 0.950 . S
C1663 C1680 1.574 . S
C1663 C1682 1.368 . S
C1663 H1687 0.949 . S
H1664 C1668 0.949 . S
C1665 C1666 1.349 . S
C1665 C1667 1.327 . S
C1665 H1688 0.950 . S
C1666 C1665 1.349 . S
C1666 C1678 1.349 . S
C1667 C1665 1.327 . S
C1667 C1683 1.429 . S
C1667 H1689 0.950 . S
C1668 H1664 0.949 . S
C1668 C1676 1.574 . S
C1668 C1684 1.368 . S
H1669 C1677 0.950 . S
H1670 C1675 0.950 . S
H1671 C1676 0.949 . S
H1672 C1678 0.950 . S
H1673 C1679 0.950 . S
H1674 C1680 0.949 . S
C1675 H1670 0.950 . S
C1675 C1677 1.327 . S
C1675 C1681 1.429 . S
C1676 C1668 1.574 . S
C1676 H1671 0.949 . S
C1676 C1682 1.368 . S
C1677 C1661 1.349 . S
C1677 H1669 0.950 . S
C1677 C1675 1.327 . S
C1678 C1666 1.349 . S
C1678 H1672 0.950 . S
C1678 C1679 1.327 . S
C1679 H1673 0.950 . S
C1679 C1678 1.327 . S
C1679 C1683 1.429 . S
C1680 C1663 1.574 . S
C1680 H1674 0.949 . S
C1680 C1684 1.368 . S
C1681 C1662 1.429 . S
C1681 C1675 1.429 . S
C1681 C1682 1.523 . S
C1682 C1663 1.368 . S
C1682 C1676 1.368 . S
C1682 C1681 1.523 . S
C1683 C1667 1.429 . S
C1683 C1679 1.429 . S
C1683 C1684 1.523 . S
C1684 C1668 1.368 . S
C1684 C1680 1.368 . S
C1684 C1683 1.523 . S
H1685 C1660 0.950 . S
H1686 C1662 0.950 . S
H1687 C1663 0.949 . S
H1688 C1665 0.950 . S
H1689 C1667 0.950 . S
C1690 C1691 1.349 . S
C1690 C1692 1.327 . S
C1690 H1715 0.950 . S
C1691 C1690 1.349 . S
C1691 C1707 1.349 . S
C1692 C1690 1.327 . S
C1692 C1711 1.429 . S
C1692 H1716 0.950 . S
C1693 C1710 1.574 . S
C1693 C1712 1.368 . S
C1693 H1717 0.949 . S
H1694 C1698 0.949 . S
C1695 C1696 1.349 . S
C1695 C1697 1.327 . S
C1695 H1718 0.950 . S
C1696 C1695 1.349 . S
C1696 C1708 1.349 . S
C1697 C1695 1.327 . S
C1697 C1713 1.429 . S
C1697 H1719 0.950 . S
C1698 H1694 0.949 . S
C1698 C1706 1.574 . S
C1698 C1714 1.368 . S
H1699 C1707 0.950 . S
H1700 C1705 0.950 . S
H1701 C1706 0.949 . S
H1702 C1708 0.950 . S
H1703 C1709 0.950 . S
H1704 C1710 0.949 . S
C1705 H1700 0.950 . S
C1705 C1707 1.327 . S
C1705 C1711 1.429 . S
C1706 C1698 1.574 . S
C1706 H1701 0.949 . S
C1706 C1712 1.368 . S
C1707 C1691 1.349 . S
C1707 H1699 0.950 . S
C1707 C1705 1.327 . S
C1708 C1696 1.349 . S
C1708 H1702 0.950 . S
C1708 C1709 1.327 . S
C1709 H1703 0.950 . S
C1709 C1708 1.327 . S
C1709 C1713 1.429 . S
C1710 C1693 1.574 . S
C1710 H1704 0.949 . S
C1710 C1714 1.368 . S
C1711 C1692 1.429 . S
C1711 C1705 1.429 . S
C1711 C1712 1.523 . S
C1712 C1693 1.368 . S
C1712 C1706 1.368 . S
C1712 C1711 1.523 . S
C1713 C1697 1.429 . S
C1713 C1709 1.429 . S
C1713 C1714 1.523 . S
C1714 C1698 1.368 . S
C1714 C1710 1.368 . S
C1714 C1713 1.523 . S
H1715 C1690 0.950 . S
H1716 C1692 0.950 . S
H1717 C1693 0.949 . S
H1718 C1695 0.950 . S
H1719 C1697 0.950 . S
C1720 C1721 1.349 . S
C1720 C1722 1.327 . S
C1720 H1745 0.950 . S
C1721 C1720 1.349 . S
C1721 C1737 1.349 . S
C1722 C1720 1.327 . S
C1722 C1741 1.429 . S
C1722 H1746 0.950 . S
C1723 C1740 1.574 . S
C1723 C1742 1.368 . S
C1723 H1747 0.949 . S
H1724 C1728 0.949 . S
C1725 C1726 1.349 . S
C1725 C1727 1.327 . S
C1725 H1748 0.950 . S
C1726 C1725 1.349 . S
C1726 C1738 1.349 . S
C1727 C1725 1.327 . S
C1727 C1743 1.429 . S
C1727 H1749 0.950 . S
C1728 H1724 0.949 . S
C1728 C1736 1.574 . S
C1728 C1744 1.368 . S
H1729 C1737 0.950 . S
H1730 C1735 0.950 . S
H1731 C1736 0.949 . S
H1732 C1738 0.950 . S
H1733 C1739 0.950 . S
H1734 C1740 0.949 . S
C1735 H1730 0.950 . S
C1735 C1737 1.327 . S
C1735 C1741 1.429 . S
C1736 C1728 1.574 . S
C1736 H1731 0.949 . S
C1736 C1742 1.368 . S
C1737 C1721 1.349 . S
C1737 H1729 0.950 . S
C1737 C1735 1.327 . S
C1738 C1726 1.349 . S
C1738 H1732 0.950 . S
C1738 C1739 1.327 . S
C1739 H1733 0.950 . S
C1739 C1738 1.327 . S
C1739 C1743 1.429 . S
C1740 C1723 1.574 . S
C1740 H1734 0.949 . S
C1740 C1744 1.368 . S
C1741 C1722 1.429 . S
C1741 C1735 1.429 . S
C1741 C1742 1.523 . S
C1742 C1723 1.368 . S
C1742 C1736 1.368 . S
C1742 C1741 1.523 . S
C1743 C1727 1.429 . S
C1743 C1739 1.429 . S
C1743 C1744 1.523 . S
C1744 C1728 1.368 . S
C1744 C1740 1.368 . S
C1744 C1743 1.523 . S
H1745 C1720 0.950 . S
H1746 C1722 0.950 . S
H1747 C1723 0.949 . S
H1748 C1725 0.950 . S
H1749 C1727 0.950 . S
C1750 C1751 1.349 . S
C1750 C1752 1.327 . S
C1750 H1775 0.950 . S
C1751 C1750 1.349 . S
C1751 C1767 1.349 . S
C1752 C1750 1.327 . S
C1752 C1771 1.429 . S
C1752 H1776 0.950 . S
C1753 C1770 1.574 . S
C1753 C1772 1.368 . S
C1753 H1777 0.949 . S
H1754 C1758 0.949 . S
C1755 C1756 1.349 . S
C1755 C1757 1.327 . S
C1755 H1778 0.950 . S
C1756 C1755 1.349 . S
C1756 C1768 1.349 . S
C1757 C1755 1.327 . S
C1757 C1773 1.429 . S
C1757 H1779 0.950 . S
C1758 H1754 0.949 . S
C1758 C1766 1.574 . S
C1758 C1774 1.368 . S
H1759 C1767 0.950 . S
H1760 C1765 0.950 . S
H1761 C1766 0.949 . S
H1762 C1768 0.950 . S
H1763 C1769 0.950 . S
H1764 C1770 0.949 . S
C1765 H1760 0.950 . S
C1765 C1767 1.327 . S
C1765 C1771 1.429 . S
C1766 C1758 1.574 . S
C1766 H1761 0.949 . S
C1766 C1772 1.368 . S
C1767 C1751 1.349 . S
C1767 H1759 0.950 . S
C1767 C1765 1.327 . S
C1768 C1756 1.349 . S
C1768 H1762 0.950 . S
C1768 C1769 1.327 . S
C1769 H1763 0.950 . S
C1769 C1768 1.327 . S
C1769 C1773 1.429 . S
C1770 C1753 1.574 . S
C1770 H1764 0.949 . S
C1770 C1774 1.368 . S
C1771 C1752 1.429 . S
C1771 C1765 1.429 . S
C1771 C1772 1.523 . S
C1772 C1753 1.368 . S
C1772 C1766 1.368 . S
C1772 C1771 1.523 . S
C1773 C1757 1.429 . S
C1773 C1769 1.429 . S
C1773 C1774 1.523 . S
C1774 C1758 1.368 . S
C1774 C1770 1.368 . S
C1774 C1773 1.523 . S
H1775 C1750 0.950 . S
H1776 C1752 0.950 . S
H1777 C1753 0.949 . S
H1778 C1755 0.950 . S
H1779 C1757 0.950 . S
C1780 C1781 1.349 . S
C1780 C1782 1.327 . S
C1780 H1805 0.950 . S
C1781 C1780 1.349 . S
C1781 C1797 1.349 . S
C1782 C1780 1.327 . S
C1782 C1801 1.429 . S
C1782 H1806 0.950 . S
C1783 C1800 1.574 . S
C1783 C1802 1.368 . S
C1783 H1807 0.949 . S
H1784 C1788 0.949 . S
C1785 C1786 1.349 . S
C1785 C1787 1.327 . S
C1785 H1808 0.950 . S
C1786 C1785 1.349 . S
C1786 C1798 1.349 . S
C1787 C1785 1.327 . S
C1787 C1803 1.429 . S
C1787 H1809 0.950 . S
C1788 H1784 0.949 . S
C1788 C1796 1.574 . S
C1788 C1804 1.368 . S
H1789 C1797 0.950 . S
H1790 C1795 0.950 . S
H1791 C1796 0.949 . S
H1792 C1798 0.950 . S
H1793 C1799 0.950 . S
H1794 C1800 0.949 . S
C1795 H1790 0.950 . S
C1795 C1797 1.327 . S
C1795 C1801 1.429 . S
C1796 C1788 1.574 . S
C1796 H1791 0.949 . S
C1796 C1802 1.368 . S
C1797 C1781 1.349 . S
C1797 H1789 0.950 . S
C1797 C1795 1.327 . S
C1798 C1786 1.349 . S
C1798 H1792 0.950 . S
C1798 C1799 1.327 . S
C1799 H1793 0.950 . S
C1799 C1798 1.327 . S
C1799 C1803 1.429 . S
C1800 C1783 1.574 . S
C1800 H1794 0.949 . S
C1800 C1804 1.368 . S
C1801 C1782 1.429 . S
C1801 C1795 1.429 . S
C1801 C1802 1.523 . S
C1802 C1783 1.368 . S
C1802 C1796 1.368 . S
C1802 C1801 1.523 . S
C1803 C1787 1.429 . S
C1803 C1799 1.429 . S
C1803 C1804 1.523 . S
C1804 C1788 1.368 . S
C1804 C1800 1.368 . S
C1804 C1803 1.523 . S
H1805 C1780 0.950 . S
H1806 C1782 0.950 . S
H1807 C1783 0.949 . S
H1808 C1785 0.950 . S
H1809 C1787 0.950 . S
C1810 C1811 1.349 . S
C1810 C1812 1.327 . S
C1810 H1835 0.950 . S
C1811 C1810 1.349 . S
C1811 C1827 1.349 . S
C1812 C1810 1.327 . S
C1812 C1831 1.429 . S
C1812 H1836 0.950 . S
C1813 C1830 1.574 . S
C1813 C1832 1.368 . S
C1813 H1837 0.949 . S
H1814 C1818 0.949 . S
C1815 C1816 1.349 . S
C1815 C1817 1.327 . S
C1815 H1838 0.950 . S
C1816 C1815 1.349 . S
C1816 C1828 1.349 . S
C1817 C1815 1.327 . S
C1817 C1833 1.429 . S
C1817 H1839 0.950 . S
C1818 H1814 0.949 . S
C1818 C1826 1.574 . S
C1818 C1834 1.368 . S
H1819 C1827 0.950 . S
H1820 C1825 0.950 . S
H1821 C1826 0.949 . S
H1822 C1828 0.950 . S
H1823 C1829 0.950 . S
H1824 C1830 0.949 . S
C1825 H1820 0.950 . S
C1825 C1827 1.327 . S
C1825 C1831 1.429 . S
C1826 C1818 1.574 . S
C1826 H1821 0.949 . S
C1826 C1832 1.368 . S
C1827 C1811 1.349 . S
C1827 H1819 0.950 . S
C1827 C1825 1.327 . S
C1828 C1816 1.349 . S
C1828 H1822 0.950 . S
C1828 C1829 1.327 . S
C1829 H1823 0.950 . S
C1829 C1828 1.327 . S
C1829 C1833 1.429 . S
C1830 C1813 1.574 . S
C1830 H1824 0.949 . S
C1830 C1834 1.368 . S
C1831 C1812 1.429 . S
C1831 C1825 1.429 . S
C1831 C1832 1.523 . S
C1832 C1813 1.368 . S
C1832 C1826 1.368 . S
C1832 C1831 1.523 . S
C1833 C1817 1.429 . S
C1833 C1829 1.429 . S
C1833 C1834 1.523 . S
C1834 C1818 1.368 . S
C1834 C1830 1.368 . S
C1834 C1833 1.523 . S
H1835 C1810 0.950 . S
H1836 C1812 0.950 . S
H1837 C1813 0.949 . S
H1838 C1815 0.950 . S
H1839 C1817 0.950 . S
C1840 C1841 1.349 . S
C1840 C1842 1.327 1_556 S
C1840 H1865 0.950 . S
C1841 C1840 1.349 . S
C1841 C1857 1.349 . S
C1842 C1840 1.327 1_554 S
C1842 C1861 1.429 . S
C1842 H1866 0.950 . S
C1843 C1860 1.574 . S
C1843 C1862 1.368 . S
C1843 H1867 0.949 . S
H1844 C1848 0.949 . S
C1845 C1846 1.349 . S
C1845 C1847 1.327 . S
C1845 H1868 0.950 . S
C1846 C1845 1.349 . S
C1846 C1858 1.349 . S
C1847 C1845 1.327 . S
C1847 C1863 1.429 . S
C1847 H1869 0.950 . S
C1848 H1844 0.949 . S
C1848 C1856 1.574 . S
C1848 C1864 1.368 . S
H1849 C1857 0.950 . S
H1850 C1855 0.950 . S
H1851 C1856 0.949 . S
H1852 C1858 0.950 . S
H1853 C1859 0.950 . S
H1854 C1860 0.949 . S
C1855 H1850 0.950 . S
C1855 C1857 1.327 1_554 S
C1855 C1861 1.429 . S
C1856 C1848 1.574 . S
C1856 H1851 0.949 . S
C1856 C1862 1.368 . S
C1857 C1841 1.349 . S
C1857 H1849 0.950 . S
C1857 C1855 1.327 1_556 S
C1858 C1846 1.349 . S
C1858 H1852 0.950 . S
C1858 C1859 1.327 . S
C1859 H1853 0.950 . S
C1859 C1858 1.327 . S
C1859 C1863 1.429 . S
C1860 C1843 1.574 . S
C1860 H1854 0.949 . S
C1860 C1864 1.368 . S
C1861 C1842 1.429 . S
C1861 C1855 1.429 . S
C1861 C1862 1.523 . S
C1862 C1843 1.368 . S
C1862 C1856 1.368 . S
C1862 C1861 1.523 . S
C1863 C1847 1.429 . S
C1863 C1859 1.429 . S
C1863 C1864 1.523 . S
C1864 C1848 1.368 . S
C1864 C1860 1.368 . S
C1864 C1863 1.523 . S
H1865 C1840 0.950 . S
H1866 C1842 0.950 . S
H1867 C1843 0.949 . S
H1868 C1845 0.950 . S
H1869 C1847 0.950 . S
C1870 C1871 1.349 . S
C1870 C1872 1.327 . S
C1870 H1895 0.950 . S
C1871 C1870 1.349 . S
C1871 C1887 1.349 . S
C1872 C1870 1.327 . S
C1872 C1891 1.429 . S
C1872 H1896 0.950 . S
C1873 C1890 1.574 . S
C1873 C1892 1.368 . S
C1873 H1897 0.949 . S
H1874 C1878 0.949 . S
C1875 C1876 1.349 . S
C1875 C1877 1.327 1_554 S
C1875 H1898 0.950 . S
C1876 C1875 1.349 . S
C1876 C1888 1.349 . S
C1877 C1875 1.327 1_556 S
C1877 C1893 1.429 . S
C1877 H1899 0.950 . S
C1878 H1874 0.949 . S
C1878 C1886 1.574 . S
C1878 C1894 1.368 . S
H1879 C1887 0.950 . S
H1880 C1885 0.950 . S
H1881 C1886 0.949 . S
H1882 C1888 0.950 . S
H1883 C1889 0.950 . S
H1884 C1890 0.949 . S
C1885 H1880 0.950 . S
C1885 C1887 1.327 . S
C1885 C1891 1.429 . S
C1886 C1878 1.574 . S
C1886 H1881 0.949 . S
C1886 C1892 1.368 . S
C1887 C1871 1.349 . S
C1887 H1879 0.950 . S
C1887 C1885 1.327 . S
C1888 C1876 1.349 . S
C1888 H1882 0.950 . S
C1888 C1889 1.327 1_554 S
C1889 H1883 0.950 . S
C1889 C1888 1.327 1_556 S
C1889 C1893 1.429 . S
C1890 C1873 1.574 . S
C1890 H1884 0.949 . S
C1890 C1894 1.368 . S
C1891 C1872 1.429 . S
C1891 C1885 1.429 . S
C1891 C1892 1.523 . S
C1892 C1873 1.368 . S
C1892 C1886 1.368 . S
C1892 C1891 1.523 . S
C1893 C1877 1.429 . S
C1893 C1889 1.429 . S
C1893 C1894 1.523 . S
C1894 C1878 1.368 . S
C1894 C1890 1.368 . S
C1894 C1893 1.523 . S
H1895 C1870 0.950 . S
H1896 C1872 0.950 . S
H1897 C1873 0.949 . S
H1898 C1875 0.950 . S
H1899 C1877 0.950 . S
C1900 C1901 1.349 . S
C1900 C1902 1.327 . S
C1900 H1925 0.950 . S
C1901 C1900 1.349 . S
C1901 C1917 1.349 . S
C1902 C1900 1.327 . S
C1902 C1921 1.429 . S
C1902 H1926 0.950 . S
C1903 C1920 1.574 . S
C1903 C1922 1.368 . S
C1903 H1927 0.949 . S
H1904 C1908 0.949 . S
C1905 C1906 1.349 . S
C1905 C1907 1.327 1_556 S
C1905 H1928 0.950 . S
C1906 C1905 1.349 . S
C1906 C1918 1.349 . S
C1907 C1905 1.327 1_554 S
C1907 C1923 1.429 . S
C1907 H1929 0.950 . S
C1908 H1904 0.949 . S
C1908 C1916 1.574 . S
C1908 C1924 1.368 . S
H1909 C1917 0.950 . S
H1910 C1915 0.950 . S
H1911 C1916 0.949 . S
H1912 C1918 0.950 . S
H1913 C1919 0.950 . S
H1914 C1920 0.949 . S
C1915 H1910 0.950 . S
C1915 C1917 1.327 . S
C1915 C1921 1.429 . S
C1916 C1908 1.574 . S
C1916 H1911 0.949 . S
C1916 C1922 1.368 . S
C1917 C1901 1.349 . S
C1917 H1909 0.950 . S
C1917 C1915 1.327 . S
C1918 C1906 1.349 . S
C1918 H1912 0.950 . S
C1918 C1919 1.327 1_556 S
C1919 H1913 0.950 . S
C1919 C1918 1.327 1_554 S
C1919 C1923 1.429 . S
C1920 C1903 1.574 . S
C1920 H1914 0.949 . S
C1920 C1924 1.368 . S
C1921 C1902 1.429 . S
C1921 C1915 1.429 . S
C1921 C1922 1.523 . S
C1922 C1903 1.368 . S
C1922 C1916 1.368 . S
C1922 C1921 1.523 . S
C1923 C1907 1.429 . S
C1923 C1919 1.429 . S
C1923 C1924 1.523 . S
C1924 C1908 1.368 . S
C1924 C1920 1.368 . S
C1924 C1923 1.523 . S
H1925 C1900 0.950 . S
H1926 C1902 0.950 . S
H1927 C1903 0.949 . S
H1928 C1905 0.950 . S
H1929 C1907 0.950 . S
C1930 C1931 1.349 . S
C1930 C1932 1.327 1_554 S
C1930 H1955 0.950 . S
C1931 C1930 1.349 . S
C1931 C1947 1.349 . S
C1932 C1930 1.327 1_556 S
C1932 C1951 1.429 . S
C1932 H1956 0.950 . S
C1933 C1950 1.574 . S
C1933 C1952 1.368 . S
C1933 H1957 0.949 . S
H1934 C1938 0.949 . S
C1935 C1936 1.349 . S
C1935 C1937 1.327 . S
C1935 H1958 0.950 . S
C1936 C1935 1.349 . S
C1936 C1948 1.349 . S
C1937 C1935 1.327 . S
C1937 C1953 1.429 . S
C1937 H1959 0.950 . S
C1938 H1934 0.949 . S
C1938 C1946 1.574 . S
C1938 C1954 1.368 . S
H1939 C1947 0.950 . S
H1940 C1945 0.950 . S
H1941 C1946 0.949 . S
H1942 C1948 0.950 . S
H1943 C1949 0.950 . S
H1944 C1950 0.949 . S
C1945 H1940 0.950 . S
C1945 C1947 1.327 1_556 S
C1945 C1951 1.429 . S
C1946 C1938 1.574 . S
C1946 H1941 0.949 . S
C1946 C1952 1.368 . S
C1947 C1931 1.349 . S
C1947 H1939 0.950 . S
C1947 C1945 1.327 1_554 S
C1948 C1936 1.349 . S
C1948 H1942 0.950 . S
C1948 C1949 1.327 . S
C1949 H1943 0.950 . S
C1949 C1948 1.327 . S
C1949 C1953 1.429 . S
C1950 C1933 1.574 . S
C1950 H1944 0.949 . S
C1950 C1954 1.368 . S
C1951 C1932 1.429 . S
C1951 C1945 1.429 . S
C1951 C1952 1.523 . S
C1952 C1933 1.368 . S
C1952 C1946 1.368 . S
C1952 C1951 1.523 . S
C1953 C1937 1.429 . S
C1953 C1949 1.429 . S
C1953 C1954 1.523 . S
C1954 C1938 1.368 . S
C1954 C1950 1.368 . S
C1954 C1953 1.523 . S
H1955 C1930 0.950 . S
H1956 C1932 0.950 . S
H1957 C1933 0.949 . S
H1958 C1935 0.950 . S
H1959 C1937 0.950 . S
C1960 C1961 1.349 . S
C1960 C1962 1.327 . S
C1960 H1985 0.950 . S
C1961 C1960 1.349 . S
C1961 C1977 1.349 . S
C1962 C1960 1.327 . S
C1962 C1981 1.429 . S
C1962 H1986 0.950 . S
C1963 C1980 1.574 . S
C1963 C1982 1.368 . S
C1963 H1987 0.949 . S
H1964 C1968 0.949 . S
C1965 C1966 1.349 . S
C1965 C1967 1.327 1_556 S
C1965 H1988 0.950 . S
C1966 C1965 1.349 . S
C1966 C1978 1.349 . S
C1967 C1965 1.327 1_554 S
C1967 C1983 1.429 . S
C1967 H1989 0.950 . S
C1968 H1964 0.949 . S
C1968 C1976 1.574 . S
C1968 C1984 1.368 . S
H1969 C1977 0.950 . S
H1970 C1975 0.950 . S
H1971 C1976 0.949 . S
H1972 C1978 0.950 . S
H1973 C1979 0.950 . S
H1974 C1980 0.949 . S
C1975 H1970 0.950 . S
C1975 C1977 1.327 . S
C1975 C1981 1.429 . S
C1976 C1968 1.574 . S
C1976 H1971 0.949 . S
C1976 C1982 1.368 . S
C1977 C1961 1.349 . S
C1977 H1969 0.950 . S
C1977 C1975 1.327 . S
C1978 C1966 1.349 . S
C1978 H1972 0.950 . S
C1978 C1979 1.327 1_556 S
C1979 H1973 0.950 . S
C1979 C1978 1.327 1_554 S
C1979 C1983 1.429 . S
C1980 C1963 1.574 . S
C1980 H1974 0.949 . S
C1980 C1984 1.368 . S
C1981 C1962 1.429 . S
C1981 C1975 1.429 . S
C1981 C1982 1.523 . S
C1982 C1963 1.368 . S
C1982 C1976 1.368 . S
C1982 C1981 1.523 . S
C1983 C1967 1.429 . S
C1983 C1979 1.429 . S
C1983 C1984 1.523 . S
C1984 C1968 1.368 . S
C1984 C1980 1.368 . S
C1984 C1983 1.523 . S
H1985 C1960 0.950 . S
H1986 C1962 0.950 . S
H1987 C1963 0.949 . S
H1988 C1965 0.950 . S
H1989 C1967 0.950 . S
C1990 C1991 1.349 . S
C1990 C1992 1.327 1_554 S
C1990 H2015 0.950 . S
C1991 C1990 1.349 . S
C1991 C2007 1.349 . S
C1992 C1990 1.327 1_556 S
C1992 C2011 1.429 . S
C1992 H2016 0.950 . S
C1993 C2010 1.574 . S
C1993 C2012 1.368 . S
C1993 H2017 0.949 . S
H1994 C1998 0.949 . S
C1995 C1996 1.349 . S
C1995 C1997 1.327 . S
C1995 H2018 0.950 . S
C1996 C1995 1.349 . S
C1996 C2008 1.349 . S
C1997 C1995 1.327 . S
C1997 C2013 1.429 . S
C1997 H2019 0.950 . S
C1998 H1994 0.949 . S
C1998 C2006 1.574 . S
C1998 C2014 1.368 . S
H1999 C2007 0.950 . S
H2000 C2005 0.950 . S
H2001 C2006 0.949 . S
H2002 C2008 0.950 . S
H2003 C2009 0.950 . S
H2004 C2010 0.949 . S
C2005 H2000 0.950 . S
C2005 C2007 1.327 1_556 S
C2005 C2011 1.429 . S
C2006 C1998 1.574 . S
C2006 H2001 0.949 . S
C2006 C2012 1.368 . S
C2007 C1991 1.349 . S
C2007 H1999 0.950 . S
C2007 C2005 1.327 1_554 S
C2008 C1996 1.349 . S
C2008 H2002 0.950 . S
C2008 C2009 1.327 . S
C2009 H2003 0.950 . S
C2009 C2008 1.327 . S
C2009 C2013 1.429 . S
C2010 C1993 1.574 . S
C2010 H2004 0.949 . S
C2010 C2014 1.368 . S
C2011 C1992 1.429 . S
C2011 C2005 1.429 . S
C2011 C2012 1.523 . S
C2012 C1993 1.368 . S
C2012 C2006 1.368 . S
C2012 C2011 1.523 . S
C2013 C1997 1.429 . S
C2013 C2009 1.429 . S
C2013 C2014 1.523 . S
C2014 C1998 1.368 . S
C2014 C2010 1.368 . S
C2014 C2013 1.523 . S
H2015 C1990 0.950 . S
H2016 C1992 0.950 . S
H2017 C1993 0.949 . S
H2018 C1995 0.950 . S
H2019 C1997 0.950 . S
C2020 C2021 1.349 . S
C2020 C2022 1.327 1_556 S
C2020 H2045 0.950 . S
C2021 C2020 1.349 . S
C2021 C2037 1.349 . S
C2022 C2020 1.327 1_554 S
C2022 C2041 1.429 . S
C2022 H2046 0.950 . S
C2023 C2040 1.574 . S
C2023 C2042 1.368 . S
C2023 H2047 0.949 . S
H2024 C2028 0.949 . S
C2025 C2026 1.349 . S
C2025 C2027 1.327 . S
C2025 H2048 0.950 . S
C2026 C2025 1.349 . S
C2026 C2038 1.349 . S
C2027 C2025 1.327 . S
C2027 C2043 1.429 . S
C2027 H2049 0.950 . S
C2028 H2024 0.949 . S
C2028 C2036 1.574 . S
C2028 C2044 1.368 . S
H2029 C2037 0.950 . S
H2030 C2035 0.950 . S
H2031 C2036 0.949 . S
H2032 C2038 0.950 . S
H2033 C2039 0.950 . S
H2034 C2040 0.949 . S
C2035 H2030 0.950 . S
C2035 C2037 1.327 1_554 S
C2035 C2041 1.429 . S
C2036 C2028 1.574 . S
C2036 H2031 0.949 . S
C2036 C2042 1.368 . S
C2037 C2021 1.349 . S
C2037 H2029 0.950 . S
C2037 C2035 1.327 1_556 S
C2038 C2026 1.349 . S
C2038 H2032 0.950 . S
C2038 C2039 1.327 . S
C2039 H2033 0.950 . S
C2039 C2038 1.327 . S
C2039 C2043 1.429 . S
C2040 C2023 1.574 . S
C2040 H2034 0.949 . S
C2040 C2044 1.368 . S
C2041 C2022 1.429 . S
C2041 C2035 1.429 . S
C2041 C2042 1.523 . S
C2042 C2023 1.368 . S
C2042 C2036 1.368 . S
C2042 C2041 1.523 . S
C2043 C2027 1.429 . S
C2043 C2039 1.429 . S
C2043 C2044 1.523 . S
C2044 C2028 1.368 . S
C2044 C2040 1.368 . S
C2044 C2043 1.523 . S
H2045 C2020 0.950 . S
H2046 C2022 0.950 . S
H2047 C2023 0.949 . S
H2048 C2025 0.950 . S
H2049 C2027 0.950 . S
C2050 C2051 1.349 . S
C2050 C2052 1.327 . S
C2050 H2075 0.950 . S
C2051 C2050 1.349 . S
C2051 C2067 1.349 . S
C2052 C2050 1.327 . S
C2052 C2071 1.429 . S
C2052 H2076 0.950 . S
C2053 C2070 1.574 . S
C2053 C2072 1.368 . S
C2053 H2077 0.949 . S
H2054 C2058 0.949 . S
C2055 C2056 1.349 . S
C2055 C2057 1.327 1_554 S
C2055 H2078 0.950 . S
C2056 C2055 1.349 . S
C2056 C2068 1.349 . S
C2057 C2055 1.327 1_556 S
C2057 C2073 1.429 . S
C2057 H2079 0.950 . S
C2058 H2054 0.949 . S
C2058 C2066 1.574 . S
C2058 C2074 1.368 . S
H2059 C2067 0.950 . S
H2060 C2065 0.950 . S
H2061 C2066 0.949 . S
H2062 C2068 0.950 . S
H2063 C2069 0.950 . S
H2064 C2070 0.949 . S
C2065 H2060 0.950 . S
C2065 C2067 1.327 . S
C2065 C2071 1.429 . S
C2066 C2058 1.574 . S
C2066 H2061 0.949 . S
C2066 C2072 1.368 . S
C2067 C2051 1.349 . S
C2067 H2059 0.950 . S
C2067 C2065 1.327 . S
C2068 C2056 1.349 . S
C2068 H2062 0.950 . S
C2068 C2069 1.327 1_554 S
C2069 H2063 0.950 . S
C2069 C2068 1.327 1_556 S
C2069 C2073 1.429 . S
C2070 C2053 1.574 . S
C2070 H2064 0.949 . S
C2070 C2074 1.368 . S
C2071 C2052 1.429 . S
C2071 C2065 1.429 . S
C2071 C2072 1.523 . S
C2072 C2053 1.368 . S
C2072 C2066 1.368 . S
C2072 C2071 1.523 . S
C2073 C2057 1.429 . S
C2073 C2069 1.429 . S
C2073 C2074 1.523 . S
C2074 C2058 1.368 . S
C2074 C2070 1.368 . S
C2074 C2073 1.523 . S
H2075 C2050 0.950 . S
H2076 C2052 0.950 . S
H2077 C2053 0.949 . S
H2078 C2055 0.950 . S
H2079 C2057 0.950 . S
C641 C451 1.710 . S
C646 C19 1.713 . S
C671 C322 1.710 . S
C676 C50 1.713 . S
C701 C99 1.713 . S
C706 C371 1.710 . S
C731 C130 1.713 . S
C736 C402 1.710 . S
C761 C179 1.713 . S
C766 C211 1.710 . S
C791 C242 1.710 . S
C796 C210 1.713 . S
C821 C259 1.713 . S
C826 C291 1.710 . S
C851 C162 1.710 . S
C856 C290 1.713 . S
C881 C131 1.710 . S
C886 C339 1.713 . S
C911 C370 1.713 . S
C916 C2 1.710 . S
C941 C51 1.710 . S
C946 C419 1.713 . S
C971 C82 1.710 . S
C976 C450 1.713 . S
C1001 C499 1.713 . S
C1006 C531 1.710 . S
C1031 C562 1.710 . S
C1036 C530 1.713 . S
C1061 C611 1.710 . S
C1066 C579 1.713 . S
C1091 C610 1.713 . S
C1096 C482 1.710 . S
C1121 C10 1.142 . S
C1126 C170 1.142 . S
C1151 C219 1.142 . S
C1156 C59 1.142 . S
C1181 C90 1.142 . S
C1186 C250 1.142 . S
C1211 C139 1.142 . S
C1216 C299 1.142 . S
C1241 C330 1.142 . S
C1246 C490 1.142 . S
C1271 C539 1.142 . S
C1276 C379 1.142 . S
C1301 C410 1.142 . S
C1306 C570 1.142 . S
C1331 C459 1.142 . S
C1336 C619 1.142 . S
C1361 C571 2.244 . S
C1366 C11 2.244 . S
C1391 C42 2.244 . S
C1396 C602 2.244 . S
C1421 C91 2.244 . S
C1426 C491 2.244 . S
C1451 C122 2.244 . S
C1456 C522 2.244 . S
C1481 C171 2.244 . S
C1486 C411 2.244 . S
C1511 C202 2.244 . S
C1516 C442 2.244 . S
C1541 C251 2.244 . S
C1546 C331 2.244 . S
C1571 C362 2.244 . S
C1576 C282 2.244 . S
C1601 C7 1.118 . S
C1606 C16 1.118 . S
C1631 C56 1.118 . S
C1636 C47 1.118 . S
C1661 C87 1.118 . S
C1666 C96 1.118 . S
C1691 C127 1.118 . S
C1696 C136 1.118 . S
C1721 C176 1.118 . S
C1726 C167 1.118 . S
C1751 C216 1.118 . S
C1756 C207 1.118 . S
C1781 C247 1.118 . S
C1786 C256 1.118 . S
C1811 C287 1.118 . S
C1816 C296 1.118 . S
C1841 C327 1.118 . S
C1846 C336 1.118 . S
C1871 C367 1.118 . S
C1876 C376 1.118 . S
C1901 C416 1.118 . S
C1906 C407 1.118 . S
C1931 C456 1.118 . S
C1936 C447 1.118 . S
C1961 C487 1.118 . S
C1966 C496 1.118 . S
C1991 C527 1.118 . S
C1996 C536 1.118 . S
C2021 C576 1.118 . S
C2026 C567 1.118 . S
C2051 C616 1.118 . S
C2056 C607 1.118 . S
