# Generated by pormake.
# Topology nbo, (4)-cn, num edge types: 1
# Building blocks:
#     Node 0, Type 0, BuildingBlock: KOZSID_clean_sbu_0, # of connection points: 4
#     Node 1, Type 0, BuildingBlock: KOZSID_clean_sbu_0, # of connection points: 4
#     Node 2, Type 0, BuildingBlock: KOZSID_clean_sbu_0, # of connection points: 4
#     Node 3, Type 0, BuildingBlock: KOZSID_clean_sbu_0, # of connection points: 4
#     Node 4, Type 0, BuildingBlock: KOZSID_clean_sbu_0, # of connection points: 4
#     Node 5, Type 0, BuildingBlock: KOZSID_clean_sbu_0, # of connection points: 4
#     Edge 6, Type (0, 0), BuildingBlock: XUDNAN_clean_linker_2, # of connection points: 2
#     Edge 7, Type (0, 0), BuildingBlock: XUDNAN_clean_linker_2, # of connection points: 2
#     Edge 8, Type (0, 0), BuildingBlock: XUDNAN_clean_linker_2, # of connection points: 2
#     Edge 9, Type (0, 0), BuildingBlock: XUDNAN_clean_linker_2, # of connection points: 2
#     Edge 10, Type (0, 0), BuildingBlock: XUDNAN_clean_linker_2, # of connection points: 2
#     Edge 11, Type (0, 0), BuildingBlock: XUDNAN_clean_linker_2, # of connection points: 2
#     Edge 12, Type (0, 0), BuildingBlock: XUDNAN_clean_linker_2, # of connection points: 2
#     Edge 13, Type (0, 0), BuildingBlock: XUDNAN_clean_linker_2, # of connection points: 2
#     Edge 14, Type (0, 0), BuildingBlock: XUDNAN_clean_linker_2, # of connection points: 2
#     Edge 15, Type (0, 0), BuildingBlock: XUDNAN_clean_linker_2, # of connection points: 2
#     Edge 16, Type (0, 0), BuildingBlock: XUDNAN_clean_linker_2, # of connection points: 2
#     Edge 17, Type (0, 0), BuildingBlock: XUDNAN_clean_linker_2, # of connection points: 2
# Relax obj value: 0.000
# Max RMSD: 0.000
# Mean RMSD: 0.000
data_MOF--net-nbo--node1-KOZSID_clean_sbu_0--edge1-XUDNAN_clean_linker_2
_symmetry_space_group_name_H-M    P1
_symmetry_Int_Tables_number       1
_symmetry_cell_setting            triclinic
loop_
_symmetry_equiv_pos_as_xyz
'x, y, z'
_cell_length_a     33.38978
_cell_length_b     38.962661
_cell_length_c     36.257409
_cell_angle_alpha  106.55607
_cell_angle_beta   107.49951
_cell_angle_gamma 106.67362
loop_
_atom_site_label
_atom_site_type_symbol
_atom_site_fract_x
_atom_site_fract_y
_atom_site_fract_z
_atom_type_partial_charge
C0 C 0.8969 0.98946 0.47159 0.0
C1 C 0.85813 0.97221 0.43359 0.0
C2 C 0.87293 0.96457 0.40215 0.0
C3 C 0.91962 0.97727 0.42271 0.0
N4 N 0.93537 0.99166 0.46534 0.0
Co5 Co 1.0007 0.01408 0.50767 0.0
N6 N 0.02353 1.00798 0.46185 0.0
C7 C 0.99792 0.99423 0.41976 0.0
C8 C 0.02269 0.99103 0.39593 0.0
C9 C 0.06663 1.00279 0.4243 0.0
C10 C 0.06622 0.01283 0.46412 0.0
N11 N 0.06604 0.03628 0.55003 0.0
C12 C 0.10474 0.03942 0.54388 0.0
C13 C 0.14339 0.05632 0.58196 0.0
C14 C 0.12832 0.06271 0.61328 0.0
C15 C 0.08162 0.04972 0.59262 0.0
N16 N 0.97792 0.02055 0.55353 0.0
C17 C 1.00348 0.03439 0.59563 0.0
C18 C 0.97891 0.03856 0.61952 0.0
C19 C 0.93521 0.02756 0.59117 0.0
C20 C 0.93554 0.01691 0.55131 0.0
N21 N 0.99529 0.96056 0.50322 0.0
C22 C 0.99763 0.88721 0.49668 0.0
C23 C 0.01138 0.91693 0.53606 0.0
C24 C 0.01018 0.95317 0.53861 0.0
C25 C 0.98064 0.89413 0.46061 0.0
C26 C 0.97926 0.93045 0.46453 0.0
N27 N 0.00632 0.06758 0.51209 0.0
C28 C 0.03057 0.13618 0.55509 0.0
C29 C 0.01505 0.14392 0.51926 0.0
C30 C 0.99402 0.11239 0.47966 0.0
C31 C 0.98997 0.07478 0.47683 0.0
C32 C 0.02611 0.09836 0.55084 0.0
H33 H 0.97363 0.05202 0.44577 0.0
H34 H 0.03891 0.09479 0.57948 0.0
H35 H 0.02261 0.97504 0.56961 0.0
H36 H 0.96605 0.93371 0.43576 0.0
C37 C 0.94998 0.97988 0.40323 0.0
C38 C 0.89604 1.00653 0.51257 0.0
C39 C 0.10615 0.02394 0.50284 0.0
C40 C 0.0513 0.04771 0.61212 0.0
H41 H 0.82309 0.96726 0.42918 0.0
H42 H 0.85242 0.95287 0.36843 0.0
H43 H 0.00988 0.97949 0.36178 0.0
H44 H 0.0951 1.00239 0.41612 0.0
H45 H 0.17863 0.06212 0.5865 0.0
H46 H 0.14878 0.07427 0.647 0.0
H47 H 0.99177 0.05031 0.65368 0.0
H48 H 0.90709 0.02898 0.5995 0.0
H49 H 0.02483 0.91283 0.56489 0.0
H50 H 0.96889 0.87167 0.42936 0.0
H51 H 0.0461 0.15922 0.58662 0.0
H52 H 0.98157 0.11673 0.45084 0.0
C53 C 0.55694 0.04437 0.10258 0.0
C54 C 0.60016 0.05374 0.13274 0.0
C55 C 0.62637 0.04664 0.11132 0.0
C56 C 0.5979 0.03325 0.06944 0.0
N57 N 0.55547 0.03189 0.06297 0.0
Co58 Co 0.50336 1.01128 0.00656 0.0
N59 N 0.54519 0.01428 0.97714 0.0
C60 C 0.58859 0.01716 0.99316 0.0
C61 C 0.60889 0.01703 0.96543 0.0
C62 C 0.57615 0.01352 0.92944 0.0
C63 C 0.53754 1.01188 0.93731 0.0
N64 N 0.45142 0.99087 0.95012 0.0
C65 C 0.45172 0.99205 0.9131 0.0
C66 C 0.40715 0.97717 0.88237 0.0
C67 C 0.37819 0.96498 0.90025 0.0
C68 C 0.4064 0.97362 0.94096 0.0
N69 N 0.4614 1.00778 0.03585 0.0
C70 C 0.41526 0.98844 0.0169 0.0
C71 C 0.39494 0.99218 0.04466 0.0
C72 C 0.43045 0.01482 0.08371 0.0
C73 C 0.47076 0.02316 0.07766 0.0
N74 N 0.51025 0.06511 0.01432 0.0
C75 C 0.51951 0.13986 0.01626 0.0
C76 C 0.47667 0.11138 0.00655 0.0
C77 C 0.47275 0.07424 0.00557 0.0
C78 C 0.55788 0.1306 0.0269 0.0
C79 C 0.5526 0.09338 0.02609 0.0
N80 N 0.49687 0.95739 0.99858 0.0
C81 C 0.50303 0.90948 0.02765 0.0
C82 C 0.49848 0.88338 0.98926 0.0
C83 C 0.49057 0.89462 0.95509 0.0
C84 C 0.49016 0.93151 0.96042 0.0
C85 C 0.50174 0.94599 0.03151 0.0
H86 H 0.48552 0.93936 0.93373 0.0
H87 H 0.50606 0.96539 0.06167 0.0
H88 H 0.43907 0.05261 0.99648 0.0
H89 H 0.58276 0.08717 0.03386 0.0
C90 C 0.61085 0.02499 0.03582 0.0
C91 C 0.51703 0.04292 0.11251 0.0
C92 C 0.49311 1.00401 0.90488 0.0
C93 C 0.39187 0.97239 0.97297 0.0
H94 H 0.61132 0.06341 0.16662 0.0
H95 H 0.66199 0.05089 0.12474 0.0
H96 H 0.64366 0.01995 0.97097 0.0
H97 H 0.5801 1.01162 0.90047 0.0
H98 H 0.39647 0.97522 0.8503 0.0
H99 H 0.34099 0.95293 0.88583 0.0
H100 H 0.35855 0.981 0.03728 0.0
H101 H 0.42689 0.02388 0.11323 0.0
H102 H 0.44602 0.11711 0.99798 0.0
H103 H 0.59182 0.15184 0.03526 0.0
H104 H 0.50919 0.90252 0.05514 0.0
H105 H 0.48526 0.87528 0.92427 0.0
C106 C 0.10913 0.55549 0.04391 0.0
C107 C 0.14496 0.59193 0.07034 0.0
C108 C 0.12533 0.61739 0.0806 0.0
C109 C 0.07888 0.59507 0.06014 0.0
N110 N 0.06762 0.55674 0.03807 0.0
Co111 Co 0.00429 0.51415 0.00304 0.0
N112 N 0.97522 0.55237 0.01436 0.0
C113 C 0.99726 0.59158 0.03762 0.0
C114 C 0.96845 0.60975 0.04213 0.0
C115 C 0.9254 0.58039 0.02114 0.0
C116 C 0.93041 0.54579 0.00464 0.0
N117 N 0.94096 0.47155 0.96804 0.0
C118 C 0.89945 0.47283 0.96208 0.0
C119 C 0.86362 0.43639 0.93561 0.0
C120 C 0.88323 0.4109 0.92551 0.0
C121 C 0.92968 0.4332 0.94607 0.0
N122 N 0.03332 0.47593 0.99162 0.0
C123 C 0.01124 0.43674 0.96827 0.0
C124 C 0.03998 0.41854 0.96361 0.0
C125 C 0.08303 0.44786 0.98459 0.0
C126 C 0.0781 0.48248 1.00129 0.0
N127 N 1.0025 0.50507 0.05413 0.0
C128 C 0.99606 0.49155 0.12562 0.0
C129 C 0.98903 0.46116 0.08909 0.0
C130 C 0.99148 0.46833 0.05396 0.0
C131 C 0.00716 0.52903 0.12546 0.0
C132 C 0.01104 0.53516 0.09024 0.0
N133 N 0.00623 0.52329 0.95202 0.0
C134 C 1.0028 0.4996 0.88111 0.0
C135 C 0.01583 0.53742 0.88178 0.0
C136 C 0.02253 0.56772 0.91817 0.0
C137 C 0.01841 0.56022 0.95266 0.0
C138 C 0.99741 0.4932 0.91577 0.0
H139 H 0.02575 0.58498 0.97969 0.0
H140 H 0.98678 0.46364 0.91263 0.0
H141 H 0.98405 0.44352 0.02693 0.0
H142 H 0.0205 0.56456 0.09296 0.0
C143 C 0.04518 0.60976 0.05843 0.0
C144 C 0.1163 0.52116 0.02326 0.0
C145 C 0.89227 0.5071 0.9828 0.0
C146 C 0.96335 0.41854 0.94767 0.0
H147 H 0.18145 0.59948 0.08018 0.0
H148 H 0.14281 0.64867 0.09954 0.0
H149 H 0.97778 0.64041 0.06026 0.0
H150 H 0.89425 0.58417 0.01976 0.0
H151 H 0.82712 0.42886 0.92567 0.0
H152 H 0.86576 0.37962 0.90654 0.0
H153 H 0.0306 0.38789 0.94541 0.0
H154 H 0.11408 0.44398 0.98578 0.0
H155 H 0.98169 0.43164 0.08711 0.0
H156 H 0.01229 0.5539 0.15201 0.0
H157 H 0.9975 0.47476 0.85444 0.0
H158 H 0.03107 0.59745 0.92055 0.0
C159 C 0.56377 0.50101 0.95398 0.0
C160 C 0.56268 0.48617 0.91386 0.0
C161 C 0.51792 0.47135 0.88575 0.0
C162 C 0.49425 0.4777 0.91013 0.0
N163 N 0.52131 0.49647 0.95219 0.0
Co164 Co 0.50071 0.50831 0.99929 0.0
N165 N 0.43446 0.48218 0.95817 0.0
C166 C 0.41729 0.46389 0.91555 0.0
C167 C 0.37035 0.44998 0.89581 0.0
C168 C 0.35681 0.46087 0.92765 0.0
C169 C 0.3965 0.48104 0.96503 0.0
N170 N 0.48013 0.51986 0.04635 0.0
C171 C 0.43773 0.51541 0.04465 0.0
C172 C 0.43886 0.52968 0.08487 0.0
C173 C 0.48355 0.54398 0.1129 0.0
C174 C 0.50716 0.53793 0.0884 0.0
N175 N 0.56694 0.53474 0.04034 0.0
C176 C 0.58407 0.5535 0.08287 0.0
C177 C 0.63108 0.56824 0.10262 0.0
C178 C 0.64474 0.55751 0.07084 0.0
C179 C 0.60503 0.53656 0.03351 0.0
N180 N 0.50289 0.55919 0.99603 0.0
C181 C 0.50627 0.63101 0.99038 0.0
C182 C 0.5216 0.62877 0.02965 0.0
C183 C 0.51995 0.59295 0.03175 0.0
C184 C 0.48837 0.59651 0.95411 0.0
C185 C 0.48667 0.56132 0.95759 0.0
N186 N 0.4988 0.45743 1.00244 0.0
C187 C 0.52229 0.4206 0.04235 0.0
C188 C 0.50618 0.38747 0.00507 0.0
C189 C 0.48441 0.38935 0.96676 0.0
C190 C 0.48052 0.424 0.9662 0.0
C191 C 0.51851 0.45514 0.04033 0.0
H192 H 0.46361 0.42323 0.93585 0.0
H193 H 0.53291 0.47992 0.06972 0.0
H194 H 0.53288 0.59334 0.06264 0.0
H195 H 0.47203 0.53622 0.92862 0.0
C196 C 0.44634 0.463 0.8948 0.0
C197 C 0.60503 0.51635 0.99295 0.0
C198 C 0.39669 0.5011 0.00575 0.0
C199 C 0.555 0.55348 0.10358 0.0
H200 H 0.59086 0.48474 0.90558 0.0
H201 H 0.50401 0.45607 0.8517 0.0
H202 H 0.34874 0.43508 0.86218 0.0
H203 H 0.32189 0.45582 0.92376 0.0
H204 H 0.41088 0.5313 0.09338 0.0
H205 H 0.49752 0.55906 0.14698 0.0
H206 H 0.65268 0.5835 0.13624 0.0
H207 H 0.67979 0.56315 0.07478 0.0
H208 H 0.53596 0.65476 0.05868 0.0
H209 H 0.47542 0.59655 0.92291 0.0
H210 H 0.53947 0.42043 0.0728 0.0
H211 H 0.471 0.36421 0.9371 0.0
C212 C 0.06566 0.5483 0.60265 0.0
C213 C 0.11019 0.56332 0.63352 0.0
C214 C 0.13889 0.56789 0.6137 0.0
C215 C 0.11055 0.55497 0.57194 0.0
N216 N 0.06532 0.54258 0.56373 0.0
Co217 Co 0.01243 0.51712 0.50635 0.0
N218 N 0.05499 0.52278 0.47709 0.0
C219 C 0.10154 0.53931 0.49584 0.0
C220 C 0.12162 0.5389 0.468 0.0
C221 C 0.08586 0.52155 0.42904 0.0
C222 C 0.04573 0.51264 0.43538 0.0
N223 N 0.95959 0.49081 0.44895 0.0
C224 C 0.95909 0.48419 0.40988 0.0
C225 C 0.91437 0.46693 0.37876 0.0
C226 C 0.8858 0.46179 0.39861 0.0
C227 C 0.91436 0.47649 0.44061 0.0
N228 N 0.96996 0.51245 0.53565 0.0
C229 C 0.92351 0.49758 0.51703 0.0
C230 C 0.90344 0.49968 0.54495 0.0
C231 C 0.93916 0.51662 0.58389 0.0
C232 C 0.97918 0.52338 0.5774 0.0
N233 N 0.01288 0.5692 0.5097 0.0
C234 C 0.01416 0.64091 0.50613 0.0
C235 C 0.97279 0.60999 0.49475 0.0
C236 C 0.97289 0.57451 0.49654 0.0
C237 C 0.05491 0.63608 0.5213 0.0
C238 C 0.05354 0.60054 0.52338 0.0
N239 N 0.01226 0.46508 0.50314 0.0
C240 C 0.97538 0.40013 0.50007 0.0
C241 C 0.0168 0.39545 0.50939 0.0
C242 C 0.05479 0.42507 0.51264 0.0
C243 C 0.05184 0.45914 0.5095 0.0
C244 C 0.97383 0.43492 0.4969 0.0
H245 H 0.08255 0.48051 0.51329 0.0
H246 H 0.9415 0.43715 0.49032 0.0
H247 H 0.94018 0.55157 0.48622 0.0
H248 H 0.08586 0.59892 0.5354 0.0
C249 C 0.12539 0.55325 0.53961 0.0
C250 C 0.0249 0.53934 0.61183 0.0
C251 C 0.99978 0.49458 0.40076 0.0
C252 C 0.8997 0.48069 0.47314 0.0
H253 H 0.12104 0.56978 0.66689 0.0
H254 H 0.17601 0.57863 0.62794 0.0
H255 H 0.15795 0.54955 0.47515 0.0
H256 H 0.08918 0.51597 0.39937 0.0
H257 H 0.90326 0.45958 0.3452 0.0
H258 H 0.8486 0.45001 0.3843 0.0
H259 H 0.86713 0.48978 0.53782 0.0
H260 H 0.93587 0.52293 0.61362 0.0
H261 H 0.94038 0.61257 0.4829 0.0
H262 H 0.08783 0.65957 0.53112 0.0
H263 H 0.94477 0.37779 0.49677 0.0
H264 H 0.0873 0.42238 0.5184 0.0
C265 C 0.61054 0.06565 0.55021 0.0
C266 C 0.64664 0.10198 0.57656 0.0
C267 C 0.62738 0.12786 0.5863 0.0
C268 C 0.58087 0.10589 0.56569 0.0
N269 N 0.56921 0.06739 0.54405 0.0
Co270 Co 0.50563 0.02517 0.5092 0.0
N271 N 0.47711 0.06379 0.52061 0.0
C272 C 0.49953 0.10298 0.54383 0.0
C273 C 0.47111 0.1214 0.54901 0.0
C274 C 0.42793 0.09224 0.52857 0.0
C275 C 0.43245 0.05748 0.5116 0.0
N276 N 0.44208 0.98296 0.47416 0.0
C277 C 0.40077 0.98465 0.46817 0.0
C278 C 0.36463 0.94851 0.44111 0.0
C279 C 0.38384 0.92274 0.4308 0.0
C280 C 0.43036 0.94462 0.45177 0.0
N281 N 0.53403 0.98643 0.49796 0.0
C282 C 0.51151 0.94722 0.47474 0.0
C283 C 0.53983 0.92859 0.4701 0.0
C284 C 0.58308 0.95758 0.491 0.0
C285 C 0.57871 0.9925 0.50772 0.0
N286 N 0.50363 0.01639 0.56042 0.0
C287 C 0.49633 1.00335 0.63193 0.0
C288 C 0.48754 0.9725 0.59493 0.0
C289 C 0.49055 0.97948 0.55984 0.0
C290 C 0.50989 0.04105 0.63233 0.0
C291 C 0.514 0.04689 0.59701 0.0
N292 N 0.50777 0.03403 0.458 0.0
C293 C 0.50388 1.00984 0.38691 0.0
C294 C 0.5163 0.04743 0.38699 0.0
C295 C 0.52338 0.07798 0.42337 0.0
C296 C 0.51967 0.07083 0.45821 0.0
C297 C 0.49911 1.0038 0.42193 0.0
H298 H 0.52699 0.09572 0.4851 0.0
H299 H 0.48897 0.97436 0.41914 0.0
H300 H 0.48178 0.95442 0.53243 0.0
H301 H 0.52507 0.0764 0.59997 0.0
C302 C 0.54747 0.1209 0.56413 0.0
C303 C 0.61734 0.03098 0.52986 0.0
C304 C 0.39405 0.0189 0.48978 0.0
C305 C 0.46364 0.92948 0.45369 0.0
H306 H 0.68309 0.10918 0.58671 0.0
H307 H 0.64516 0.15915 0.60516 0.0
H308 H 0.48081 0.1521 0.56731 0.0
H309 H 0.3971 0.09631 0.52791 0.0
H310 H 0.32818 0.9413 0.43106 0.0
H311 H 0.36604 0.89152 0.41154 0.0
H312 H 0.53006 0.89787 0.45182 0.0
H313 H 0.61384 0.95323 0.49202 0.0
H314 H 0.47831 0.94274 0.59256 0.0
H315 H 0.51665 0.06627 0.65939 0.0
H316 H 0.49852 0.98486 0.36034 0.0
H317 H 0.53175 0.1076 0.42539 0.0
H318 H 0.95699 0.16933 0.47205 0.0
H319 H 0.09025 0.21149 0.57596 0.0
H320 H 0.10258 0.27932 0.58577 0.0
H321 H 0.99328 0.23994 0.42901 0.0
H322 H 0.93986 0.2458 0.41422 0.0
H323 H 0.94037 0.2001 0.41572 0.0
H324 H 0.9007 0.20526 0.4672 0.0
H325 H 0.90033 0.25112 0.46607 0.0
H326 H 0.92666 0.24847 0.51589 0.0
H327 H 0.10123 0.34228 0.58537 0.0
H328 H 0.08817 0.39751 0.5723 0.0
H329 H 0.95733 0.31641 0.4666 0.0
C330 C 0.98889 0.19279 0.49669 0.0
C331 C 0.02233 0.18482 0.52365 0.0
C332 C 0.06351 0.2166 0.55557 0.0
C333 C 0.07103 0.25535 0.56127 0.0
C334 C 0.03727 0.26215 0.53464 0.0
C335 C 0.99715 0.2319 0.50276 0.0
C336 C 0.96708 0.2477 0.47812 0.0
C337 C 0.95973 0.23248 0.43151 0.0
C338 C 0.92096 0.23753 0.48207 0.0
C339 C 0.99675 0.2915 0.50117 0.0
C340 C 0.03694 0.29896 0.53377 0.0
C341 C 0.07006 0.33684 0.55974 0.0
C342 C 0.06239 0.36803 0.55187 0.0
C343 C 0.02204 0.3614 0.51804 0.0
C344 C 0.98845 0.32251 0.49275 0.0
H345 H 0.8341 0.97918 0.54393 0.0
H346 H 0.8705 0.05754 0.48393 0.0
H347 H 0.80435 0.07441 0.48378 0.0
H348 H 0.71333 0.94372 0.49239 0.0
H349 H 0.70319 0.94346 0.53842 0.0
H350 H 0.75316 0.93754 0.53358 0.0
H351 H 0.8058 0.99674 0.60575 0.0
H352 H 0.75592 1.00273 0.6109 0.0
H353 H 0.80166 0.04323 0.61397 0.0
H354 H 0.73101 0.07845 0.48539 0.0
H355 H 0.65843 0.07296 0.49306 0.0
H356 H 0.67649 0.99943 0.56109 0.0
C357 C 0.82855 1.00045 0.53155 0.0
C358 C 0.85741 0.0175 0.51438 0.0
C359 C 0.84863 0.04441 0.49737 0.0
C360 C 0.81134 0.05417 0.49725 0.0
C361 C 0.78379 0.03722 0.51493 0.0
C362 C 0.79233 1.01137 0.53233 0.0
C363 C 0.75787 0.99767 0.54981 0.0
C364 C 0.73026 0.95295 0.52719 0.0
C365 C 0.78174 1.0109 0.59797 0.0
C366 C 0.72801 0.01918 0.53871 0.0
C367 C 0.74325 0.04153 0.51822 0.0
C368 C 0.71917 0.06161 0.50202 0.0
C369 C 0.67817 0.05839 0.50653 0.0
C370 C 0.66214 0.03571 0.5275 0.0
C371 C 0.68806 0.01679 0.54475 0.0
H372 H 0.97669 0.69124 0.53643 0.0
H373 H 0.05412 0.67201 0.4615 0.0
H374 H 0.05715 0.73218 0.45027 0.0
H375 H 0.90981 0.73102 0.47627 0.0
H376 H 0.91285 0.76727 0.52214 0.0
H377 H 0.91528 0.72195 0.52324 0.0
H378 H 0.9924 0.76087 0.59 0.0
H379 H 0.99023 0.8063 0.58909 0.0
H380 H 0.03971 0.79651 0.58869 0.0
H381 H 0.05075 0.79329 0.44593 0.0
H382 H 0.03933 0.85423 0.45219 0.0
H383 H 0.96968 0.83689 0.53315 0.0
C384 C 0.994 0.69972 0.51749 0.0
C385 C 0.0151 0.67703 0.49968 0.0
C386 C 0.03795 0.68915 0.47552 0.0
C387 C 0.03971 0.72316 0.46887 0.0
C388 C 0.01887 0.74506 0.48701 0.0
C389 C 0.99678 0.73411 0.51114 0.0
C390 C 0.97871 0.76385 0.52824 0.0
C391 C 0.92603 0.74488 0.51146 0.0
C392 C 1.00164 0.78301 0.57689 0.0
C393 C 0.99388 0.79302 0.50974 0.0
C394 C 0.01662 0.78132 0.48575 0.0
C395 C 0.03312 0.80283 0.46471 0.0
C396 C 0.0263 0.83729 0.4683 0.0
C397 C 1.00361 0.85021 0.49308 0.0
C398 C 0.9874 0.8278 0.51422 0.0
H399 H 0.33259 0.04957 0.46089 0.0
H400 H 0.35581 0.97513 0.52649 0.0
H401 H 0.28192 0.96485 0.53289 0.0
H402 H 0.28869 0.09866 0.52825 0.0
H403 H 0.24787 0.10339 0.48644 0.0
H404 H 0.30019 0.10168 0.48351 0.0
H405 H 0.25255 0.04295 0.41031 0.0
H406 H 0.20003 0.04427 0.41317 0.0
H407 H 0.20885 0.99967 0.40513 0.0
H408 H 0.20577 0.96274 0.53193 0.0
H409 H 0.13585 0.97384 0.52982 0.0
H410 H 0.16735 0.0562 0.473 0.0
C411 C 0.3221 0.03132 0.4768 0.0
C412 C 0.34972 0.01328 0.49348 0.0
C413 C 0.33486 0.98913 0.51357 0.0
C414 C 0.29307 0.98313 0.51727 0.0
C415 C 0.26694 1.0019 0.50115 0.0
C416 C 0.28114 0.02594 0.48184 0.0
C417 C 0.24833 0.0449 0.46997 0.0
C418 C 0.27273 0.08982 0.49345 0.0
C419 C 0.22613 0.03217 0.42178 0.0
C420 C 0.21349 0.0278 0.48567 0.0
C421 C 0.22442 1.00249 0.50282 0.0
C422 C 0.19695 0.9826 0.51875 0.0
C423 C 0.15747 0.98904 0.51744 0.0
C424 C 0.14635 0.01559 0.50099 0.0
C425 C 0.17484 0.03531 0.48511 0.0
H426 H 0.47506 0.99577 0.30186 0.0
H427 H 0.57223 0.11567 0.38699 0.0
H428 H 0.58069 0.12808 0.32649 0.0
H429 H 0.5395 0.98178 0.23872 0.0
H430 H 0.48865 0.95099 0.1902 0.0
H431 H 0.48776 0.95217 0.23996 0.0
H432 H 0.41774 0.9707 0.224 0.0
H433 H 0.41866 0.9699 0.17434 0.0
H434 H 0.42181 0.01326 0.21234 0.0
H435 H 0.57714 0.12818 0.25541 0.0
H436 H 0.56642 0.11363 0.18097 0.0
H437 H 0.48072 0.99206 0.1448 0.0
C438 C 0.4987 0.02461 0.30839 0.0
C439 C 0.52227 0.05477 0.34995 0.0
C440 C 0.55228 0.09211 0.35582 0.0
C441 C 0.55782 0.09948 0.32151 0.0
C442 C 0.534 0.06911 0.28128 0.0
C443 C 0.50562 0.03224 0.27471 0.0
C444 C 0.48558 1.00408 0.22867 0.0
C445 C 0.50133 0.97026 0.22414 0.0
C446 C 0.43282 0.98858 0.20868 0.0
C447 C 0.50684 0.03097 0.21033 0.0
C448 C 0.5342 0.06853 0.24104 0.0
C449 C 0.55606 0.09877 0.23121 0.0
C450 C 0.5498 0.09033 0.18895 0.0
C451 C 0.52246 0.05191 0.15718 0.0
C452 C 0.5013 0.02185 0.16834 0.0
H453 H 0.03571 0.5441 0.2105 0.0
H454 H 0.94455 0.42216 0.12689 0.0
H455 H 0.93888 0.40953 0.18792 0.0
H456 H 0.09331 0.53038 0.30149 0.0
H457 H 0.09322 0.57248 0.33859 0.0
H458 H 0.09344 0.5719 0.2888 0.0
H459 H 0.0199 0.58551 0.27148 0.0
H460 H 0.01966 0.58643 0.32136 0.0
H461 H 0.96966 0.55354 0.27279 0.0
H462 H 0.94572 0.40908 0.25907 0.0
H463 H 0.95672 0.42321 0.33335 0.0
H464 H 0.03198 0.5468 0.36816 0.0
C465 C 0.01391 0.51473 0.20433 0.0
C466 C 0.99145 0.48411 0.16303 0.0
C467 C 0.96386 0.44615 0.15779 0.0
C468 C 0.95987 0.4386 0.19243 0.0
C469 C 0.98259 0.4694 0.23232 0.0
C470 C 0.00829 0.50688 0.23831 0.0
C471 C 0.02699 0.53531 0.28409 0.0
C472 C 0.07988 0.55359 0.30443 0.0
C473 C 0.0079 0.56707 0.28762 0.0
C474 C 0.00797 0.50784 0.30289 0.0
C475 C 0.98316 0.4698 0.27263 0.0
C476 C 0.96436 0.43887 0.28286 0.0
C477 C 0.97067 0.44714 0.32502 0.0
C478 C 0.99442 0.48611 0.3562 0.0
C479 C 0.01328 0.51678 0.34483 0.0
H480 H 0.53891 0.05466 0.71763 0.0
H481 H 0.43917 0.93567 0.63165 0.0
H482 H 0.43086 0.92288 0.69182 0.0
H483 H 0.59108 0.03511 0.80662 0.0
H484 H 0.59527 0.07858 0.84531 0.0
H485 H 0.59654 0.07825 0.79588 0.0
H486 H 0.52788 0.09854 0.78095 0.0
H487 H 0.52655 0.09911 0.83042 0.0
H488 H 0.47558 0.06941 0.78175 0.0
H489 H 0.43532 0.92149 0.76166 0.0
H490 H 0.44523 0.93438 0.83533 0.0
H491 H 0.53257 0.05636 0.87511 0.0
C492 C 0.51483 0.02594 0.71091 0.0
C493 C 0.49057 0.99607 0.66909 0.0
C494 C 0.45983 0.95893 0.66293 0.0
C495 C 0.45434 0.95134 0.69708 0.0
C496 C 0.47888 0.98131 0.7375 0.0
C497 C 0.50789 0.01809 0.74454 0.0
C498 C 0.52827 0.04574 0.79095 0.0
C499 C 0.58092 0.06027 0.81085 0.0
C500 C 0.51369 0.08024 0.79632 0.0
C501 C 0.50618 0.01865 0.8088 0.0
C502 C 0.47842 0.98143 0.77743 0.0
C503 C 0.45613 0.95072 0.7863 0.0
C504 C 0.46174 0.95835 0.82815 0.0
C505 C 0.48823 0.99664 0.86055 0.0
C506 C 0.51118 0.02705 0.85072 0.0
H507 H 0.98797 0.48642 0.64171 0.0
H508 H 0.07148 0.60933 0.68133 0.0
H509 H 0.08025 0.62191 0.75485 0.0
H510 H 0.926 0.50489 0.7065 0.0
H511 H 0.92143 0.46191 0.71737 0.0
H512 H 0.92452 0.4623 0.66873 0.0
H513 H 0.99486 0.44427 0.68615 0.0
H514 H 0.99216 0.44406 0.73496 0.0
H515 H 0.04458 0.47474 0.73567 0.0
H516 H 0.08289 0.61999 0.82453 0.0
H517 H 0.07262 0.6063 0.88373 0.0
H518 H 0.97688 0.4865 0.7964 0.0
C519 C 0.00813 0.51595 0.66597 0.0
C520 C 0.02982 0.54684 0.65614 0.0
C521 C 0.05538 0.58519 0.68848 0.0
C522 C 0.0604 0.59258 0.73021 0.0
C523 C 0.03862 0.56147 0.73887 0.0
C524 C 0.01227 0.52407 0.70752 0.0
C525 C 0.99013 0.49639 0.72471 0.0
C526 C 0.93739 0.48044 0.70305 0.0
C527 C 0.00642 0.46289 0.7201 0.0
C528 C 0.00869 0.52395 0.7708 0.0
C529 C 0.03707 0.56117 0.77836 0.0
C530 C 0.0599 0.59114 0.81879 0.0
C531 C 0.05328 0.58303 0.85234 0.0
C532 C 0.02304 0.54537 0.84546 0.0
C533 C 1.00056 0.51558 0.80369 0.0
H534 H 0.17764 0.49205 0.05585 0.0
H535 H 0.15471 0.56175 0.98402 0.0
H536 H 0.22679 0.56755 0.97514 0.0
H537 H 0.30304 0.53958 0.10744 0.0
H538 H 0.30923 0.49415 0.10189 0.0
H539 H 0.2589 0.49939 0.10667 0.0
H540 H 0.20681 0.43781 0.03649 0.0
H541 H 0.25691 0.43239 0.03144 0.0
H542 H 0.21525 0.436 0.98926 0.0
H543 H 0.2997 0.56364 0.97212 0.0
H544 H 0.36683 0.54815 0.97271 0.0
H545 H 0.33735 0.47529 0.04001 0.0
C546 C 0.18815 0.50872 0.03853 0.0
C547 C 0.16094 0.52639 0.02044 0.0
C548 C 0.17545 0.54813 0.9981 0.0
C549 C 0.21616 0.55152 0.99291 0.0
C550 C 0.2416 0.53272 0.01004 0.0
C551 C 0.22804 0.51155 0.0322 0.0
C552 C 0.25955 0.49168 0.04463 0.0
C553 C 0.28414 0.50714 0.09304 0.0
C554 C 0.23305 0.44681 0.02423 0.0
C555 C 0.29283 0.50479 0.02583 0.0
C556 C 0.2823 0.52892 0.00657 0.0
C557 C 0.30831 0.54483 0.98715 0.0
C558 C 0.34616 0.53586 0.98753 0.0
C559 C 0.35716 0.51093 0.00675 0.0
C560 C 0.32989 0.49492 0.02572 0.0
H561 H 0.47698 0.33761 0.04192 0.0
H562 H 0.55465 0.35737 0.96771 0.0
H563 H 0.56821 0.29768 0.96453 0.0
H564 H 0.5452 0.29757 0.102 0.0
H565 H 0.4961 0.26119 0.10018 0.0
H566 H 0.49455 0.30669 0.09883 0.0
H567 H 0.42054 0.26815 0.02909 0.0
H568 H 0.42192 0.22256 0.03018 0.0
H569 H 0.42061 0.23277 0.98447 0.0
H570 H 0.57322 0.23602 0.96886 0.0
H571 H 0.56631 0.17427 0.97734 0.0
H572 H 0.48221 0.19123 0.04591 0.0
C573 C 0.49723 0.32945 0.02544 0.0
C574 C 0.5151 0.35219 0.00525 0.0
C575 C 0.54075 0.34034 0.98337 0.0
C576 C 0.54868 0.30654 0.98148 0.0
C577 C 0.53032 0.28449 1.00127 0.0
C578 C 0.50485 0.29522 0.02263 0.0
C579 C 0.48733 0.26511 0.03941 0.0
C580 C 0.50697 0.28376 0.088 0.0
C581 C 0.43446 0.24602 0.0196 0.0
C582 C 0.50689 0.23589 0.02413 0.0
C583 C 0.53195 0.24798 1.00258 0.0
C584 C 0.55373 0.22629 0.98573 0.0
C585 C 0.5498 0.1913 0.99091 0.0
C586 C 0.52393 0.17787 0.01245 0.0
C587 C 0.50207 0.20058 0.02913 0.0
H588 H 0.82998 0.53548 0.95012 0.0
H589 H 0.85467 0.46631 0.02222 0.0
H590 H 0.78124 0.45783 0.02917 0.0
H591 H 0.78629 0.58802 0.01413 0.0
H592 H 0.74463 0.59016 0.97065 0.0
H593 H 0.79678 0.5876 0.96808 0.0
H594 H 0.7488 0.5258 0.8975 0.0
H595 H 0.69646 0.52809 0.89993 0.0
H596 H 0.70567 0.48397 0.89537 0.0
H597 H 0.70626 0.45817 0.02942 0.0
H598 H 0.63663 0.47026 0.02632 0.0
H599 H 0.66439 0.54398 0.95949 0.0
C600 C 0.81971 0.51855 0.96729 0.0
C601 C 0.84769 0.50163 0.98585 0.0
C602 C 0.83338 0.4794 0.00785 0.0
C603 C 0.79188 0.47446 0.0119 0.0
C604 C 0.76541 0.4922 0.99397 0.0
C605 C 0.77889 0.51405 0.97238 0.0
C606 C 0.74567 0.53208 0.95845 0.0
C607 C 0.76978 0.57713 0.97907 0.0
C608 C 0.7228 0.51654 0.90993 0.0
C609 C 0.71147 0.51707 0.97568 0.0
C610 C 0.72315 0.49368 0.99556 0.0
C611 C 0.69674 0.4764 0.01392 0.0
C612 C 0.65744 0.48339 0.01206 0.0
C613 C 0.64534 0.50769 0.99238 0.0
C614 C 0.67277 0.52484 0.97415 0.0
H615 H 0.48119 0.68769 0.03105 0.0
H616 H 0.54051 0.66009 0.94111 0.0
H617 H 0.54594 0.72154 0.93234 0.0
H618 H 0.41212 0.72859 0.97639 0.0
H619 H 0.42041 0.76653 0.02382 0.0
H620 H 0.42284 0.72117 0.0247 0.0
H621 H 0.50398 0.75967 0.0864 0.0
H622 H 0.50177 0.80516 0.08572 0.0
H623 H 0.54875 0.79348 0.08035 0.0
H624 H 0.54549 0.78574 0.93324 0.0
H625 H 0.53699 0.8477 0.94169 0.0
H626 H 0.47378 0.83342 0.02819 0.0
C627 C 0.49571 0.69485 0.00985 0.0
C628 C 0.51044 0.66899 0.98672 0.0
C629 C 0.52867 0.67919 0.95887 0.0
C630 C 0.53208 0.71415 0.95381 0.0
C631 C 0.51688 0.73875 0.97664 0.0
C632 C 0.49888 0.7296 0.004 0.0
C633 C 0.4837 0.7608 0.02356 0.0
C634 C 0.43168 0.74321 0.01138 0.0
C635 C 0.5112 0.78097 0.07188 0.0
C636 C 0.49595 0.78878 1.00285 0.0
C637 C 0.51532 0.77549 0.97615 0.0
C638 C 0.52993 0.79625 0.95375 0.0
C639 C 0.52445 0.8314 0.95849 0.0
C640 C 0.50394 0.84565 0.98509 0.0
C641 C 0.48976 0.82381 0.00771 0.0
loop_
_geom_bond_atom_site_label_1
_geom_bond_atom_site_label_2
_geom_bond_distance
_geom_bond_site_symmetry_2
_ccdc_geom_bond_type
C0 C1 1.443 . S
C0 N4 1.376 . S
C0 C38 1.389 1_565 S
C1 C0 1.443 . S
C1 C2 1.340 . S
C1 H41 0.951 . S
C2 C1 1.340 . S
C2 C3 1.439 . S
C2 H42 0.950 . S
C3 C2 1.439 . S
C3 N4 1.374 . S
C3 C37 1.395 . S
N4 C0 1.376 . S
N4 C3 1.374 . S
N4 Co5 1.993 1_665 S
Co5 N4 1.993 1_445 S
Co5 N6 2.010 1_545 S
Co5 N11 2.023 . S
Co5 N16 1.979 1_455 S
Co5 N21 2.287 1_445 S
Co5 N27 2.278 . S
N6 Co5 2.010 1_565 S
N6 C7 1.377 . S
N6 C10 1.383 . S
C7 N6 1.377 . S
C7 C8 1.454 . S
C7 C37 1.383 1_455 S
C8 C7 1.454 . S
C8 C9 1.339 . S
C8 H43 0.949 . S
C9 C8 1.339 . S
C9 C10 1.439 . S
C9 H44 0.950 . S
C10 N6 1.383 . S
C10 C9 1.439 . S
C10 C39 1.392 1_565 S
N11 Co5 2.023 . S
N11 C12 1.376 . S
N11 C15 1.374 . S
C12 N11 1.376 . S
C12 C13 1.443 . S
C12 C39 1.389 . S
C13 C12 1.443 . S
C13 C14 1.340 . S
C13 H45 0.951 . S
C14 C13 1.340 . S
C14 C15 1.439 . S
C14 H46 0.950 . S
C15 N11 1.374 . S
C15 C14 1.439 . S
C15 C40 1.395 . S
N16 Co5 1.979 1_655 S
N16 C17 1.376 1_655 S
N16 C20 1.383 . S
C17 N16 1.376 1_455 S
C17 C18 1.446 1_455 S
C17 C40 1.391 . S
C18 C17 1.446 1_655 S
C18 C19 1.339 . S
C18 H47 0.949 . S
C19 C18 1.339 . S
C19 C20 1.439 . S
C19 H48 0.950 . S
C20 N16 1.383 . S
C20 C19 1.439 . S
C20 C38 1.392 . S
N21 Co5 2.287 1_665 S
N21 C24 1.332 1_655 S
N21 C26 1.332 . S
C22 C23 1.390 1_655 S
C22 C25 1.388 . S
C23 C22 1.390 1_455 S
C23 C24 1.383 . S
C23 H49 0.950 . S
C24 N21 1.332 1_455 S
C24 C23 1.383 . S
C24 H35 0.949 . S
C25 C22 1.388 . S
C25 C26 1.382 . S
C25 H50 0.950 . S
C26 N21 1.332 . S
C26 C25 1.382 . S
C26 H36 0.948 . S
N27 Co5 2.278 . S
N27 C31 1.332 . S
N27 C32 1.332 . S
C28 C29 1.388 . S
C28 C32 1.382 . S
C28 H51 0.950 . S
C29 C28 1.388 . S
C29 C30 1.386 1_455 S
C30 C29 1.386 1_655 S
C30 C31 1.382 1_655 S
C30 H52 0.950 . S
C31 N27 1.332 . S
C31 C30 1.382 1_455 S
C31 H33 0.952 1_455 S
C32 N27 1.332 . S
C32 C28 1.382 . S
C32 H34 0.948 . S
H33 C31 0.952 1_655 S
H34 C32 0.948 . S
H35 C24 0.949 . S
H36 C26 0.948 . S
C37 C3 1.395 . S
C37 C7 1.383 1_655 S
C38 C0 1.389 1_545 S
C38 C20 1.392 . S
C39 C10 1.392 1_545 S
C39 C12 1.389 . S
C40 C15 1.395 . S
C40 C17 1.391 . S
H41 C1 0.951 . S
H42 C2 0.950 . S
H43 C8 0.949 . S
H44 C9 0.950 . S
H45 C13 0.951 . S
H46 C14 0.950 . S
H47 C18 0.949 . S
H48 C19 0.950 . S
H49 C23 0.950 . S
H50 C25 0.950 . S
H51 C28 0.950 . S
H52 C30 0.950 . S
C53 C54 1.443 . S
C53 N57 1.376 . S
C53 C91 1.389 . S
C54 C53 1.443 . S
C54 C55 1.340 . S
C54 H94 0.951 . S
C55 C54 1.340 . S
C55 C56 1.439 . S
C55 H95 0.950 . S
C56 C55 1.439 . S
C56 N57 1.374 . S
C56 C90 1.395 . S
N57 C53 1.376 . S
N57 C56 1.374 . S
N57 Co58 2.028 . S
Co58 N57 2.028 . S
Co58 N59 1.975 1_554 S
Co58 N64 1.988 1_544 S
Co58 N69 2.015 1_545 S
Co58 N74 2.277 . S
Co58 N80 2.288 1_544 S
N59 Co58 1.975 1_556 S
N59 C60 1.376 1_556 S
N59 C63 1.383 . S
C60 N59 1.376 1_554 S
C60 C61 1.446 1_554 S
C60 C90 1.391 . S
C61 C60 1.446 1_556 S
C61 C62 1.339 . S
C61 H96 0.949 . S
C62 C61 1.339 . S
C62 C63 1.439 . S
C62 H97 0.950 . S
C63 N59 1.383 . S
C63 C62 1.439 . S
C63 C92 1.392 . S
N64 Co58 1.988 1_566 S
N64 C65 1.376 . S
N64 C68 1.374 . S
C65 N64 1.376 . S
C65 C66 1.443 . S
C65 C92 1.389 1_565 S
C66 C65 1.443 . S
C66 C67 1.340 . S
C66 H98 0.951 . S
C67 C66 1.340 . S
C67 C68 1.439 . S
C67 H99 0.950 . S
C68 N64 1.374 . S
C68 C67 1.439 . S
C68 C93 1.395 . S
N69 Co58 2.015 1_565 S
N69 C70 1.378 . S
N69 C73 1.383 . S
C70 N69 1.378 . S
C70 C71 1.460 . S
C70 C93 1.377 1_554 S
C71 C70 1.460 . S
C71 C72 1.339 . S
C71 H100 0.949 . S
C72 C71 1.339 . S
C72 C73 1.439 . S
C72 H101 0.950 . S
C73 N69 1.383 . S
C73 C72 1.439 . S
C73 C91 1.392 1_565 S
N74 Co58 2.277 . S
N74 C77 1.332 . S
N74 C79 1.332 . S
C75 C76 1.386 1_554 S
C75 C78 1.388 . S
C76 C75 1.386 1_556 S
C76 C77 1.382 1_556 S
C76 H102 0.950 . S
C77 N74 1.332 . S
C77 C76 1.382 1_554 S
C77 H88 0.952 1_554 S
C78 C75 1.388 . S
C78 C79 1.382 . S
C78 H103 0.950 . S
C79 N74 1.332 . S
C79 C78 1.382 . S
C79 H89 0.948 . S
N80 Co58 2.288 1_566 S
N80 C84 1.332 1_556 S
N80 C85 1.332 . S
C81 C82 1.388 . S
C81 C85 1.382 . S
C81 H104 0.950 . S
C82 C81 1.388 . S
C82 C83 1.387 1_556 S
C83 C82 1.387 1_554 S
C83 C84 1.386 . S
C83 H105 0.950 . S
C84 N80 1.332 1_554 S
C84 C83 1.386 . S
C84 H86 0.947 . S
C85 N80 1.332 . S
C85 C81 1.382 . S
C85 H87 0.948 . S
H86 C84 0.947 . S
H87 C85 0.948 . S
H88 C77 0.952 1_556 S
H89 C79 0.948 . S
C90 C56 1.395 . S
C90 C60 1.391 . S
C91 C53 1.389 . S
C91 C73 1.392 1_545 S
C92 C63 1.392 . S
C92 C65 1.389 1_545 S
C93 C68 1.395 . S
C93 C70 1.377 1_556 S
H94 C54 0.951 . S
H95 C55 0.950 . S
H96 C61 0.949 . S
H97 C62 0.950 . S
H98 C66 0.951 . S
H99 C67 0.950 . S
H100 C71 0.949 . S
H101 C72 0.950 . S
H102 C76 0.950 . S
H103 C78 0.950 . S
H104 C81 0.950 . S
H105 C83 0.950 . S
C106 C107 1.443 . S
C106 N110 1.376 . S
C106 C144 1.389 . S
C107 C106 1.443 . S
C107 C108 1.340 . S
C107 H147 0.951 . S
C108 C107 1.340 . S
C108 C109 1.439 . S
C108 H148 0.950 . S
C109 C108 1.439 . S
C109 N110 1.374 . S
C109 C143 1.395 . S
N110 C106 1.376 . S
N110 C109 1.374 . S
N110 Co111 2.017 . S
Co111 N110 2.017 . S
Co111 N112 1.982 1_455 S
Co111 N117 1.999 1_454 S
Co111 N122 2.007 1_554 S
Co111 N127 2.308 . S
Co111 N133 2.257 1_454 S
N112 Co111 1.982 1_655 S
N112 C113 1.376 1_655 S
N112 C116 1.383 . S
C113 N112 1.376 1_455 S
C113 C114 1.446 1_455 S
C113 C143 1.391 . S
C114 C113 1.446 1_655 S
C114 C115 1.339 . S
C114 H149 0.949 . S
C115 C114 1.339 . S
C115 C116 1.439 . S
C115 H150 0.950 . S
C116 N112 1.383 . S
C116 C115 1.439 . S
C116 C145 1.396 1_554 S
N117 Co111 1.999 1_656 S
N117 C118 1.376 . S
N117 C121 1.374 . S
C118 N117 1.376 . S
C118 C119 1.443 . S
C118 C145 1.390 . S
C119 C118 1.443 . S
C119 C120 1.340 . S
C119 H151 0.951 . S
C120 C119 1.340 . S
C120 C121 1.439 . S
C120 H152 0.950 . S
C121 N117 1.374 . S
C121 C120 1.439 . S
C121 C146 1.395 . S
N122 Co111 2.007 1_556 S
N122 C123 1.377 . S
N122 C126 1.383 . S
C123 N122 1.377 . S
C123 C124 1.454 . S
C123 C146 1.383 1_455 S
C124 C123 1.454 . S
C124 C125 1.339 . S
C124 H153 0.949 . S
C125 C124 1.339 . S
C125 C126 1.439 . S
C125 H154 0.950 . S
C126 N122 1.383 . S
C126 C125 1.439 . S
C126 C144 1.392 1_556 S
N127 Co111 2.308 . S
N127 C130 1.332 . S
N127 C132 1.332 . S
C128 C129 1.386 1_455 S
C128 C131 1.388 . S
C129 C128 1.386 1_655 S
C129 C130 1.382 1_655 S
C129 H155 0.950 . S
C130 N127 1.332 . S
C130 C129 1.382 1_455 S
C130 H141 0.952 1_455 S
C131 C128 1.388 . S
C131 C132 1.382 . S
C131 H156 0.950 . S
C132 N127 1.332 . S
C132 C131 1.382 . S
C132 H142 0.948 . S
N133 Co111 2.257 1_656 S
N133 C137 1.332 1_655 S
N133 C138 1.332 . S
C134 C135 1.388 . S
C134 C138 1.382 . S
C134 H157 0.950 . S
C135 C134 1.388 . S
C135 C136 1.390 1_655 S
C136 C135 1.390 1_455 S
C136 C137 1.384 . S
C136 H158 0.950 . S
C137 N133 1.332 1_455 S
C137 C136 1.384 . S
C137 H139 0.949 . S
C138 N133 1.332 . S
C138 C134 1.382 . S
C138 H140 0.948 . S
H139 C137 0.949 . S
H140 C138 0.948 . S
H141 C130 0.952 1_655 S
H142 C132 0.948 . S
C143 C109 1.395 . S
C143 C113 1.391 . S
C144 C106 1.389 . S
C144 C126 1.392 1_554 S
C145 C116 1.396 1_556 S
C145 C118 1.390 . S
C146 C121 1.395 . S
C146 C123 1.383 1_655 S
H147 C107 0.951 . S
H148 C108 0.950 . S
H149 C114 0.949 . S
H150 C115 0.950 . S
H151 C119 0.951 . S
H152 C120 0.950 . S
H153 C124 0.949 . S
H154 C125 0.950 . S
H155 C129 0.950 . S
H156 C131 0.950 . S
H157 C134 0.950 . S
H158 C136 0.950 . S
C159 C160 1.443 . S
C159 N163 1.376 . S
C159 C197 1.383 1_556 S
C160 C159 1.443 . S
C160 C161 1.340 . S
C160 H200 0.951 . S
C161 C160 1.340 . S
C161 C162 1.439 . S
C161 H201 0.950 . S
C162 C161 1.439 . S
C162 N163 1.374 . S
C162 C196 1.395 . S
N163 C159 1.376 . S
N163 C162 1.374 . S
N163 Co164 1.984 1_556 S
Co164 N163 1.984 1_554 S
Co164 N165 1.984 1_554 S
Co164 N170 2.032 . S
Co164 N175 2.005 . S
Co164 N180 2.272 1_554 S
Co164 N186 2.293 . S
N165 Co164 1.984 1_556 S
N165 C166 1.376 . S
N165 C169 1.383 . S
C166 N165 1.376 . S
C166 C167 1.446 . S
C166 C196 1.391 . S
C167 C166 1.446 . S
C167 C168 1.339 . S
C167 H202 0.949 . S
C168 C167 1.339 . S
C168 C169 1.439 . S
C168 H203 0.950 . S
C169 N165 1.383 . S
C169 C168 1.439 . S
C169 C198 1.392 1_556 S
N170 Co164 2.032 . S
N170 C171 1.376 . S
N170 C174 1.374 . S
C171 N170 1.376 . S
C171 C172 1.443 . S
C171 C198 1.389 . S
C172 C171 1.443 . S
C172 C173 1.340 . S
C172 H204 0.951 . S
C173 C172 1.340 . S
C173 C174 1.439 . S
C173 H205 0.950 . S
C174 N170 1.374 . S
C174 C173 1.439 . S
C174 C199 1.395 . S
N175 Co164 2.005 . S
N175 C176 1.376 . S
N175 C179 1.383 . S
C176 N175 1.376 . S
C176 C177 1.446 . S
C176 C199 1.391 . S
C177 C176 1.446 . S
C177 C178 1.339 . S
C177 H206 0.949 . S
C178 C177 1.339 . S
C178 C179 1.439 . S
C178 H207 0.950 . S
C179 N175 1.383 . S
C179 C178 1.439 . S
C179 C197 1.400 . S
N180 Co164 2.272 1_556 S
N180 C183 1.332 1_556 S
N180 C185 1.332 . S
C181 C182 1.396 . S
C181 C184 1.382 1_554 S
C182 C181 1.396 . S
C182 C183 1.382 . S
C182 H208 0.950 . S
C183 N180 1.332 1_554 S
C183 C182 1.382 . S
C183 H194 0.952 . S
C184 C181 1.382 1_556 S
C184 C185 1.382 . S
C184 H209 0.950 . S
C185 N180 1.332 . S
C185 C184 1.382 . S
C185 H195 0.948 . S
N186 Co164 2.293 . S
N186 C190 1.332 1_554 S
N186 C191 1.332 . S
C187 C188 1.388 . S
C187 C191 1.382 . S
C187 H210 0.950 . S
C188 C187 1.388 . S
C188 C189 1.386 1_554 S
C189 C188 1.386 1_556 S
C189 C190 1.382 . S
C189 H211 0.950 . S
C190 N186 1.332 1_556 S
C190 C189 1.382 . S
C190 H192 0.952 . S
C191 N186 1.332 . S
C191 C187 1.382 . S
C191 H193 0.948 . S
H192 C190 0.952 . S
H193 C191 0.948 . S
H194 C183 0.952 . S
H195 C185 0.948 . S
C196 C162 1.395 . S
C196 C166 1.391 . S
C197 C159 1.383 1_554 S
C197 C179 1.400 . S
C198 C169 1.392 1_554 S
C198 C171 1.389 . S
C199 C174 1.395 . S
C199 C176 1.391 . S
H200 C160 0.951 . S
H201 C161 0.950 . S
H202 C167 0.949 . S
H203 C168 0.950 . S
H204 C172 0.951 . S
H205 C173 0.950 . S
H206 C177 0.949 . S
H207 C178 0.950 . S
H208 C182 0.950 . S
H209 C184 0.950 . S
H210 C187 0.950 . S
H211 C189 0.950 . S
C212 C213 1.443 . S
C212 N216 1.376 . S
C212 C250 1.389 . S
C213 C212 1.443 . S
C213 C214 1.340 . S
C213 H253 0.951 . S
C214 C213 1.340 . S
C214 C215 1.439 . S
C214 H254 0.950 . S
C215 C214 1.439 . S
C215 N216 1.374 . S
C215 C249 1.395 . S
N216 C212 1.376 . S
N216 C215 1.374 . S
N216 Co217 2.017 . S
Co217 N216 2.017 . S
Co217 N218 2.013 . S
Co217 N223 1.999 1_455 S
Co217 N228 1.976 1_455 S
Co217 N233 2.276 . S
Co217 N239 2.289 1_455 S
N218 Co217 2.013 . S
N218 C219 1.376 . S
N218 C222 1.383 . S
C219 N218 1.376 . S
C219 C220 1.446 . S
C219 C249 1.391 . S
C220 C219 1.446 . S
C220 C221 1.339 . S
C220 H255 0.949 . S
C221 C220 1.339 . S
C221 C222 1.439 . S
C221 H256 0.950 . S
C222 N218 1.383 . S
C222 C221 1.439 . S
C222 C251 1.394 . S
N223 Co217 1.999 1_655 S
N223 C224 1.376 . S
N223 C227 1.374 . S
C224 N223 1.376 . S
C224 C225 1.443 . S
C224 C251 1.386 1_655 S
C225 C224 1.443 . S
C225 C226 1.340 . S
C225 H257 0.951 . S
C226 C225 1.340 . S
C226 C227 1.439 . S
C226 H258 0.950 . S
C227 N223 1.374 . S
C227 C226 1.439 . S
C227 C252 1.395 . S
N228 Co217 1.976 1_655 S
N228 C229 1.376 . S
N228 C232 1.383 . S
C229 N228 1.376 . S
C229 C230 1.446 . S
C229 C252 1.391 . S
C230 C229 1.446 . S
C230 C231 1.339 . S
C230 H259 0.949 . S
C231 C230 1.339 . S
C231 C232 1.439 . S
C231 H260 0.950 . S
C232 N228 1.383 . S
C232 C231 1.439 . S
C232 C250 1.392 1_655 S
N233 Co217 2.276 . S
N233 C236 1.332 1_455 S
N233 C238 1.332 . S
C234 C235 1.386 1_455 S
C234 C237 1.388 . S
C235 C234 1.386 1_655 S
C235 C236 1.382 . S
C235 H261 0.950 . S
C236 N233 1.332 1_655 S
C236 C235 1.382 . S
C236 H247 0.952 . S
C237 C234 1.388 . S
C237 C238 1.382 . S
C237 H262 0.950 . S
C238 N233 1.332 . S
C238 C237 1.382 . S
C238 H248 0.948 . S
N239 Co217 2.289 1_655 S
N239 C243 1.332 1_655 S
N239 C244 1.332 . S
C240 C241 1.382 1_655 S
C240 C244 1.382 . S
C240 H263 0.950 . S
C241 C240 1.382 1_455 S
C241 C242 1.390 . S
C242 C241 1.390 . S
C242 C243 1.382 . S
C242 H264 0.950 . S
C243 N239 1.332 1_455 S
C243 C242 1.382 . S
C243 H245 0.952 . S
C244 N239 1.332 . S
C244 C240 1.382 . S
C244 H246 0.948 . S
H245 C243 0.952 . S
H246 C244 0.948 . S
H247 C236 0.952 . S
H248 C238 0.948 . S
C249 C215 1.395 . S
C249 C219 1.391 . S
C250 C212 1.389 . S
C250 C232 1.392 1_455 S
C251 C222 1.394 . S
C251 C224 1.386 1_455 S
C252 C227 1.395 . S
C252 C229 1.391 . S
H253 C213 0.951 . S
H254 C214 0.950 . S
H255 C220 0.949 . S
H256 C221 0.950 . S
H257 C225 0.951 . S
H258 C226 0.950 . S
H259 C230 0.949 . S
H260 C231 0.950 . S
H261 C235 0.950 . S
H262 C237 0.950 . S
H263 C240 0.950 . S
H264 C242 0.950 . S
C265 C266 1.443 . S
C265 N269 1.376 . S
C265 C303 1.389 . S
C266 C265 1.443 . S
C266 C267 1.340 . S
C266 H306 0.951 . S
C267 C266 1.340 . S
C267 C268 1.439 . S
C267 H307 0.950 . S
C268 C267 1.439 . S
C268 N269 1.374 . S
C268 C302 1.395 . S
N269 C265 1.376 . S
N269 C268 1.374 . S
N269 Co270 2.008 . S
Co270 N269 2.008 . S
Co270 N271 1.995 . S
Co270 N276 2.008 1_545 S
Co270 N281 1.995 1_545 S
Co270 N286 2.282 . S
Co270 N292 2.282 1_545 S
N271 Co270 1.995 . S
N271 C272 1.376 . S
N271 C275 1.383 . S
C272 N271 1.376 . S
C272 C273 1.446 . S
C272 C302 1.391 . S
C273 C272 1.446 . S
C273 C274 1.339 . S
C273 H308 0.949 . S
C274 C273 1.339 . S
C274 C275 1.439 . S
C274 H309 0.950 . S
C275 N271 1.383 . S
C275 C274 1.439 . S
C275 C304 1.414 . S
N276 Co270 2.008 1_565 S
N276 C277 1.376 . S
N276 C280 1.374 . S
C277 N276 1.376 . S
C277 C278 1.443 . S
C277 C304 1.358 1_565 S
C278 C277 1.443 . S
C278 C279 1.340 . S
C278 H310 0.951 . S
C279 C278 1.340 . S
C279 C280 1.439 . S
C279 H311 0.950 . S
C280 N276 1.374 . S
C280 C279 1.439 . S
C280 C305 1.395 . S
N281 Co270 1.995 1_565 S
N281 C282 1.376 . S
N281 C285 1.383 . S
C282 N281 1.376 . S
C282 C283 1.446 . S
C282 C305 1.391 . S
C283 C282 1.446 . S
C283 C284 1.339 . S
C283 H312 0.949 . S
C284 C283 1.339 . S
C284 C285 1.439 . S
C284 H313 0.950 . S
C285 N281 1.383 . S
C285 C284 1.439 . S
C285 C303 1.392 1_565 S
N286 Co270 2.282 . S
N286 C289 1.332 1_545 S
N286 C291 1.332 . S
C287 C288 1.386 1_545 S
C287 C290 1.388 . S
C288 C287 1.386 1_565 S
C288 C289 1.382 . S
C288 H314 0.950 . S
C289 N286 1.332 1_565 S
C289 C288 1.382 . S
C289 H300 0.952 . S
C290 C287 1.388 . S
C290 C291 1.382 . S
C290 H315 0.950 . S
C291 N286 1.332 . S
C291 C290 1.382 . S
C291 H301 0.948 . S
N292 Co270 2.282 1_565 S
N292 C296 1.332 1_565 S
N292 C297 1.332 . S
C293 C294 1.388 1_565 S
C293 C297 1.382 . S
C293 H316 0.950 . S
C294 C293 1.388 1_545 S
C294 C295 1.386 . S
C295 C294 1.386 . S
C295 C296 1.382 . S
C295 H317 0.950 . S
C296 N292 1.332 1_545 S
C296 C295 1.382 . S
C296 H298 0.952 . S
C297 N292 1.332 . S
C297 C293 1.382 . S
C297 H299 0.948 . S
H298 C296 0.952 . S
H299 C297 0.948 . S
H300 C289 0.952 . S
H301 C291 0.948 . S
C302 C268 1.395 . S
C302 C272 1.391 . S
C303 C265 1.389 . S
C303 C285 1.392 1_545 S
C304 C275 1.414 . S
C304 C277 1.358 1_545 S
C305 C280 1.395 . S
C305 C282 1.391 . S
H306 C266 0.951 . S
H307 C267 0.950 . S
H308 C273 0.949 . S
H309 C274 0.950 . S
H310 C278 0.951 . S
H311 C279 0.950 . S
H312 C283 0.949 . S
H313 C284 0.950 . S
H314 C288 0.950 . S
H315 C290 0.950 . S
H316 C293 0.950 . S
H317 C295 0.950 . S
H318 C330 0.930 . S
H319 C332 0.930 . S
H320 C333 0.930 . S
H321 C337 0.959 . S
H322 C337 0.959 . S
H323 C337 0.961 . S
H324 C338 0.960 . S
H325 C338 0.961 . S
H326 C338 0.959 . S
H327 C341 0.929 . S
H328 C342 0.931 . S
H329 C344 0.930 . S
C330 H318 0.930 . S
C330 C331 1.399 1_655 S
C330 C335 1.399 . S
C331 C330 1.399 1_455 S
C331 C332 1.376 . S
C332 H319 0.930 . S
C332 C331 1.376 . S
C332 C333 1.388 . S
C333 H320 0.930 . S
C333 C332 1.388 . S
C333 C334 1.390 . S
C334 C333 1.390 . S
C334 C335 1.394 1_455 S
C334 C340 1.465 . S
C335 C330 1.399 . S
C335 C334 1.394 1_655 S
C335 C336 1.516 . S
C336 C335 1.516 . S
C336 C337 1.502 . S
C336 C338 1.561 . S
C336 C339 1.526 . S
C337 H321 0.959 . S
C337 H322 0.959 . S
C337 H323 0.961 . S
C337 C336 1.502 . S
C338 H324 0.960 . S
C338 H325 0.961 . S
C338 H326 0.959 . S
C338 C336 1.561 . S
C339 C336 1.526 . S
C339 C340 1.396 1_655 S
C339 C344 1.390 . S
C340 C334 1.465 . S
C340 C339 1.396 1_455 S
C340 C341 1.399 . S
C341 H327 0.929 . S
C341 C340 1.399 . S
C341 C342 1.385 . S
C342 H328 0.931 . S
C342 C341 1.385 . S
C342 C343 1.389 . S
C343 C342 1.389 . S
C343 C344 1.387 1_455 S
C344 H329 0.930 . S
C344 C339 1.390 . S
C344 C343 1.387 1_655 S
H345 C357 0.930 . S
H346 C359 0.930 . S
H347 C360 0.930 . S
H348 C364 0.959 . S
H349 C364 0.959 . S
H350 C364 0.961 . S
H351 C365 0.960 . S
H352 C365 0.961 . S
H353 C365 0.959 . S
H354 C368 0.929 . S
H355 C369 0.931 . S
H356 C371 0.930 . S
C357 H345 0.930 . S
C357 C358 1.399 . S
C357 C362 1.399 . S
C358 C357 1.399 . S
C358 C359 1.376 1_545 S
C359 H346 0.930 . S
C359 C358 1.376 1_565 S
C359 C360 1.388 . S
C360 H347 0.930 . S
C360 C359 1.388 . S
C360 C361 1.390 1_565 S
C361 C360 1.390 1_545 S
C361 C362 1.394 . S
C361 C367 1.465 . S
C362 C357 1.399 . S
C362 C361 1.394 . S
C362 C363 1.516 . S
C363 C362 1.516 . S
C363 C364 1.502 1_545 S
C363 C365 1.561 . S
C363 C366 1.526 . S
C364 H348 0.959 . S
C364 H349 0.959 . S
C364 H350 0.961 . S
C364 C363 1.502 1_565 S
C365 H351 0.960 . S
C365 H352 0.961 . S
C365 H353 0.959 . S
C365 C363 1.561 . S
C366 C363 1.526 . S
C366 C367 1.396 . S
C366 C371 1.390 . S
C367 C361 1.465 . S
C367 C366 1.396 . S
C367 C368 1.399 1_545 S
C368 H354 0.929 . S
C368 C367 1.399 1_565 S
C368 C369 1.385 . S
C369 H355 0.931 . S
C369 C368 1.385 . S
C369 C370 1.389 1_565 S
C370 C369 1.389 1_545 S
C370 C371 1.387 . S
C371 H356 0.930 . S
C371 C366 1.390 . S
C371 C370 1.387 . S
H372 C384 0.930 . S
H373 C386 0.930 . S
H374 C387 0.930 . S
H375 C391 0.959 . S
H376 C391 0.959 . S
H377 C391 0.961 . S
H378 C392 0.960 . S
H379 C392 0.961 . S
H380 C392 0.959 . S
H381 C395 0.929 . S
H382 C396 0.931 . S
H383 C398 0.930 . S
C384 H372 0.930 . S
C384 C385 1.399 1_655 S
C384 C389 1.402 1_655 S
C385 C384 1.399 1_455 S
C385 C386 1.376 . S
C386 H373 0.930 . S
C386 C385 1.376 . S
C386 C387 1.388 . S
C387 H374 0.930 . S
C387 C386 1.388 . S
C387 C388 1.390 . S
C388 C387 1.390 . S
C388 C389 1.403 . S
C388 C394 1.465 . S
C389 C384 1.402 1_455 S
C389 C388 1.403 . S
C389 C390 1.505 1_455 S
C390 C389 1.505 1_655 S
C390 C391 1.502 . S
C390 C392 1.561 1_655 S
C390 C393 1.524 1_655 S
C391 H375 0.959 . S
C391 H376 0.959 . S
C391 H377 0.961 . S
C391 C390 1.502 . S
C392 H378 0.960 . S
C392 H379 0.961 . S
C392 H380 0.959 . S
C392 C390 1.561 1_455 S
C393 C390 1.524 1_455 S
C393 C394 1.408 . S
C393 C398 1.382 1_455 S
C394 C388 1.465 . S
C394 C393 1.408 . S
C394 C395 1.399 . S
C395 H381 0.929 . S
C395 C394 1.399 . S
C395 C396 1.385 . S
C396 H382 0.931 . S
C396 C395 1.385 . S
C396 C397 1.389 . S
C397 C396 1.389 . S
C397 C398 1.387 1_455 S
C398 H383 0.930 . S
C398 C393 1.382 1_655 S
C398 C397 1.387 1_655 S
H399 C411 0.930 . S
H400 C413 0.930 . S
H401 C414 0.930 . S
H402 C418 0.959 . S
H403 C418 0.959 . S
H404 C418 0.961 . S
H405 C419 0.960 . S
H406 C419 0.961 . S
H407 C419 0.959 . S
H408 C422 0.929 . S
H409 C423 0.931 . S
H410 C425 0.930 . S
C411 H399 0.930 . S
C411 C412 1.399 1_545 S
C411 C416 1.399 . S
C412 C411 1.399 1_565 S
C412 C413 1.376 . S
C413 H400 0.930 . S
C413 C412 1.376 . S
C413 C414 1.388 . S
C414 H401 0.930 . S
C414 C413 1.388 . S
C414 C415 1.390 . S
C415 C414 1.390 . S
C415 C416 1.394 1_565 S
C415 C421 1.465 . S
C416 C411 1.399 . S
C416 C415 1.394 1_545 S
C416 C417 1.516 . S
C417 C416 1.516 . S
C417 C418 1.502 . S
C417 C419 1.561 . S
C417 C420 1.526 . S
C418 H402 0.959 . S
C418 H403 0.959 . S
C418 H404 0.961 . S
C418 C417 1.502 . S
C419 H405 0.960 . S
C419 H406 0.961 . S
C419 H407 0.959 . S
C419 C417 1.561 . S
C420 C417 1.526 . S
C420 C421 1.396 1_545 S
C420 C425 1.390 . S
C421 C415 1.465 . S
C421 C420 1.396 1_565 S
C421 C422 1.399 . S
C422 H408 0.929 . S
C422 C421 1.399 . S
C422 C423 1.385 . S
C423 H409 0.931 . S
C423 C422 1.385 . S
C423 C424 1.389 . S
C424 C423 1.389 . S
C424 C425 1.387 1_565 S
C425 H410 0.930 . S
C425 C420 1.390 . S
C425 C424 1.387 1_545 S
H426 C438 0.930 . S
H427 C440 0.930 . S
H428 C441 0.930 . S
H429 C445 0.959 . S
H430 C445 0.959 . S
H431 C445 0.961 . S
H432 C446 0.960 . S
H433 C446 0.961 . S
H434 C446 0.959 . S
H435 C449 0.929 . S
H436 C450 0.931 . S
H437 C452 0.930 . S
C438 H426 0.930 . S
C438 C439 1.399 1_565 S
C438 C443 1.399 . S
C439 C438 1.399 1_545 S
C439 C440 1.376 . S
C440 H427 0.930 . S
C440 C439 1.376 . S
C440 C441 1.388 . S
C441 H428 0.930 . S
C441 C440 1.388 . S
C441 C442 1.390 . S
C442 C441 1.390 . S
C442 C443 1.394 1_545 S
C442 C448 1.465 . S
C443 C438 1.399 . S
C443 C442 1.394 1_565 S
C443 C444 1.516 . S
C444 C443 1.516 . S
C444 C445 1.502 . S
C444 C446 1.561 1_565 S
C444 C447 1.526 . S
C445 H429 0.959 . S
C445 H430 0.959 . S
C445 H431 0.961 . S
C445 C444 1.502 . S
C446 H432 0.960 . S
C446 H433 0.961 . S
C446 H434 0.959 . S
C446 C444 1.561 1_545 S
C447 C444 1.526 . S
C447 C448 1.396 1_565 S
C447 C452 1.390 . S
C448 C442 1.465 . S
C448 C447 1.396 1_545 S
C448 C449 1.399 . S
C449 H435 0.929 . S
C449 C448 1.399 . S
C449 C450 1.385 . S
C450 H436 0.931 . S
C450 C449 1.385 . S
C450 C451 1.389 . S
C451 C450 1.389 . S
C451 C452 1.387 1_545 S
C452 H437 0.930 . S
C452 C447 1.390 . S
C452 C451 1.387 1_565 S
H453 C465 0.930 . S
H454 C467 0.930 . S
H455 C468 0.930 . S
H456 C472 0.959 . S
H457 C472 0.959 . S
H458 C472 0.961 . S
H459 C473 0.960 . S
H460 C473 0.961 . S
H461 C473 0.959 1_655 S
H462 C476 0.929 . S
H463 C477 0.931 . S
H464 C479 0.930 . S
C465 H453 0.930 . S
C465 C466 1.399 1_455 S
C465 C470 1.399 . S
C466 C465 1.399 1_655 S
C466 C467 1.376 . S
C467 H454 0.930 . S
C467 C466 1.376 . S
C467 C468 1.388 . S
C468 H455 0.930 . S
C468 C467 1.388 . S
C468 C469 1.390 . S
C469 C468 1.390 . S
C469 C470 1.394 1_655 S
C469 C475 1.465 . S
C470 C465 1.399 . S
C470 C469 1.394 1_455 S
C470 C471 1.516 . S
C471 C470 1.516 . S
C471 C472 1.502 . S
C471 C473 1.561 . S
C471 C474 1.526 . S
C472 H456 0.959 . S
C472 H457 0.959 . S
C472 H458 0.961 . S
C472 C471 1.502 . S
C473 H459 0.960 . S
C473 H460 0.961 . S
C473 H461 0.959 1_455 S
C473 C471 1.561 . S
C474 C471 1.526 . S
C474 C475 1.396 1_455 S
C474 C479 1.390 . S
C475 C469 1.465 . S
C475 C474 1.396 1_655 S
C475 C476 1.399 . S
C476 H462 0.929 . S
C476 C475 1.399 . S
C476 C477 1.385 . S
C477 H463 0.931 . S
C477 C476 1.385 . S
C477 C478 1.389 . S
C478 C477 1.389 . S
C478 C479 1.387 1_655 S
C479 H464 0.930 . S
C479 C474 1.390 . S
C479 C478 1.387 1_455 S
H480 C492 0.930 . S
H481 C494 0.930 . S
H482 C495 0.930 . S
H483 C499 0.959 . S
H484 C499 0.959 . S
H485 C499 0.961 . S
H486 C500 0.960 . S
H487 C500 0.961 . S
H488 C500 0.959 . S
H489 C503 0.929 . S
H490 C504 0.931 . S
H491 C506 0.930 . S
C492 H480 0.930 . S
C492 C493 1.399 . S
C492 C497 1.399 . S
C493 C492 1.399 . S
C493 C494 1.376 1_545 S
C494 H481 0.930 . S
C494 C493 1.376 1_565 S
C494 C495 1.388 . S
C495 H482 0.930 . S
C495 C494 1.388 . S
C495 C496 1.390 . S
C496 C495 1.390 . S
C496 C497 1.394 1_565 S
C496 C502 1.465 . S
C497 C492 1.399 . S
C497 C496 1.394 1_545 S
C497 C498 1.516 . S
C498 C497 1.516 . S
C498 C499 1.502 . S
C498 C500 1.561 . S
C498 C501 1.526 . S
C499 H483 0.959 . S
C499 H484 0.959 . S
C499 H485 0.961 . S
C499 C498 1.502 . S
C500 H486 0.960 . S
C500 H487 0.961 . S
C500 H488 0.959 . S
C500 C498 1.561 . S
C501 C498 1.526 . S
C501 C502 1.396 1_545 S
C501 C506 1.390 . S
C502 C496 1.465 . S
C502 C501 1.396 1_565 S
C502 C503 1.399 . S
C503 H489 0.929 . S
C503 C502 1.399 . S
C503 C504 1.385 . S
C504 H490 0.931 . S
C504 C503 1.385 . S
C504 C505 1.389 . S
C505 C504 1.389 . S
C505 C506 1.387 1_565 S
C506 H491 0.930 . S
C506 C501 1.390 . S
C506 C505 1.387 1_545 S
H507 C519 0.930 . S
H508 C521 0.930 . S
H509 C522 0.930 . S
H510 C526 0.959 . S
H511 C526 0.959 . S
H512 C526 0.961 . S
H513 C527 0.951 . S
H514 C527 0.961 1_655 S
H515 C527 0.959 . S
H516 C530 0.929 . S
H517 C531 0.931 . S
H518 C533 0.930 . S
C519 H507 0.930 . S
C519 C520 1.399 1_655 S
C519 C524 1.399 . S
C520 C519 1.399 1_455 S
C520 C521 1.376 . S
C521 H508 0.930 . S
C521 C520 1.376 . S
C521 C522 1.388 . S
C522 H509 0.930 . S
C522 C521 1.388 . S
C522 C523 1.390 . S
C523 C522 1.390 . S
C523 C524 1.394 1_455 S
C523 C529 1.465 . S
C524 C519 1.399 . S
C524 C523 1.394 1_655 S
C524 C525 1.516 . S
C525 C524 1.516 . S
C525 C526 1.502 . S
C525 C527 1.561 1_655 S
C525 C528 1.526 . S
C526 H510 0.959 . S
C526 H511 0.959 . S
C526 H512 0.961 . S
C526 C525 1.502 . S
C527 H513 0.951 . S
C527 H514 0.961 1_455 S
C527 H515 0.959 . S
C527 C525 1.561 1_455 S
C528 C525 1.526 . S
C528 C529 1.396 1_655 S
C528 C533 1.390 . S
C529 C523 1.465 . S
C529 C528 1.396 1_455 S
C529 C530 1.399 . S
C530 H516 0.929 . S
C530 C529 1.399 . S
C530 C531 1.385 . S
C531 H517 0.931 . S
C531 C530 1.385 . S
C531 C532 1.389 . S
C532 C531 1.389 . S
C532 C533 1.387 1_455 S
C533 H518 0.930 . S
C533 C528 1.390 . S
C533 C532 1.387 1_655 S
H534 C546 0.930 . S
H535 C548 0.930 . S
H536 C549 0.930 . S
H537 C553 0.959 . S
H538 C553 0.959 . S
H539 C553 0.961 . S
H540 C554 0.960 . S
H541 C554 0.961 . S
H542 C554 0.959 . S
H543 C557 0.929 . S
H544 C558 0.931 . S
H545 C560 0.930 . S
C546 H534 0.930 . S
C546 C547 1.399 1_554 S
C546 C551 1.399 . S
C547 C546 1.399 1_556 S
C547 C548 1.376 . S
C548 H535 0.930 . S
C548 C547 1.376 . S
C548 C549 1.388 . S
C549 H536 0.930 . S
C549 C548 1.388 . S
C549 C550 1.390 . S
C550 C549 1.390 . S
C550 C551 1.394 1_556 S
C550 C556 1.465 . S
C551 C546 1.399 . S
C551 C550 1.394 1_554 S
C551 C552 1.516 . S
C552 C551 1.516 . S
C552 C553 1.502 . S
C552 C554 1.561 . S
C552 C555 1.526 . S
C553 H537 0.959 . S
C553 H538 0.959 . S
C553 H539 0.961 . S
C553 C552 1.502 . S
C554 H540 0.960 . S
C554 H541 0.961 . S
C554 H542 0.959 . S
C554 C552 1.561 . S
C555 C552 1.526 . S
C555 C556 1.396 1_554 S
C555 C560 1.390 . S
C556 C550 1.465 . S
C556 C555 1.396 1_556 S
C556 C557 1.399 . S
C557 H543 0.929 . S
C557 C556 1.399 . S
C557 C558 1.385 . S
C558 H544 0.931 . S
C558 C557 1.385 . S
C558 C559 1.389 . S
C559 C558 1.389 . S
C559 C560 1.387 1_556 S
C560 H545 0.930 . S
C560 C555 1.390 . S
C560 C559 1.387 1_554 S
H561 C573 0.930 . S
H562 C575 0.930 . S
H563 C576 0.930 . S
H564 C580 0.959 . S
H565 C580 0.959 . S
H566 C580 0.961 . S
H567 C581 0.960 . S
H568 C581 0.961 . S
H569 C581 0.959 . S
H570 C584 0.929 . S
H571 C585 0.931 . S
H572 C587 0.930 . S
C573 H561 0.930 . S
C573 C574 1.399 1_554 S
C573 C578 1.399 . S
C574 C573 1.399 1_556 S
C574 C575 1.376 . S
C575 H562 0.930 . S
C575 C574 1.376 . S
C575 C576 1.388 . S
C576 H563 0.930 . S
C576 C575 1.388 . S
C576 C577 1.390 . S
C577 C576 1.390 . S
C577 C578 1.394 1_556 S
C577 C583 1.465 . S
C578 C573 1.399 . S
C578 C577 1.394 1_554 S
C578 C579 1.516 . S
C579 C578 1.516 . S
C579 C580 1.502 . S
C579 C581 1.561 . S
C579 C582 1.526 . S
C580 H564 0.959 . S
C580 H565 0.959 . S
C580 H566 0.961 . S
C580 C579 1.502 . S
C581 H567 0.960 . S
C581 H568 0.961 . S
C581 H569 0.959 . S
C581 C579 1.561 . S
C582 C579 1.526 . S
C582 C583 1.396 1_554 S
C582 C587 1.390 . S
C583 C577 1.465 . S
C583 C582 1.396 1_556 S
C583 C584 1.399 . S
C584 H570 0.929 . S
C584 C583 1.399 . S
C584 C585 1.385 . S
C585 H571 0.931 . S
C585 C584 1.385 . S
C585 C586 1.389 . S
C586 C585 1.389 . S
C586 C587 1.387 1_556 S
C587 H572 0.930 . S
C587 C582 1.390 . S
C587 C586 1.387 1_554 S
H588 C600 0.930 . S
H589 C602 0.930 . S
H590 C603 0.930 . S
H591 C607 0.959 . S
H592 C607 0.959 . S
H593 C607 0.961 . S
H594 C608 0.960 . S
H595 C608 0.961 . S
H596 C608 0.959 . S
H597 C611 0.929 . S
H598 C612 0.931 . S
H599 C614 0.930 . S
C600 H588 0.930 . S
C600 C601 1.399 . S
C600 C605 1.399 . S
C601 C600 1.399 . S
C601 C602 1.376 1_556 S
C602 H589 0.930 . S
C602 C601 1.376 1_554 S
C602 C603 1.388 . S
C603 H590 0.930 . S
C603 C602 1.388 . S
C603 C604 1.395 . S
C604 C603 1.395 . S
C604 C605 1.381 1_554 S
C604 C610 1.472 . S
C605 C600 1.399 . S
C605 C604 1.381 1_556 S
C605 C606 1.516 . S
C606 C605 1.516 . S
C606 C607 1.502 1_556 S
C606 C608 1.561 . S
C606 C609 1.526 . S
C607 H591 0.959 . S
C607 H592 0.959 . S
C607 H593 0.961 . S
C607 C606 1.502 1_554 S
C608 H594 0.960 . S
C608 H595 0.961 . S
C608 H596 0.959 . S
C608 C606 1.561 . S
C609 C606 1.526 . S
C609 C610 1.396 1_556 S
C609 C614 1.390 . S
C610 C604 1.472 . S
C610 C609 1.396 1_554 S
C610 C611 1.399 . S
C611 H597 0.929 . S
C611 C610 1.399 . S
C611 C612 1.385 . S
C612 H598 0.931 . S
C612 C611 1.385 . S
C612 C613 1.389 . S
C613 C612 1.389 . S
C613 C614 1.387 1_554 S
C614 H599 0.930 . S
C614 C609 1.390 . S
C614 C613 1.387 1_556 S
H615 C627 0.930 . S
H616 C629 0.930 . S
H617 C630 0.930 . S
H618 C634 0.959 . S
H619 C634 0.959 . S
H620 C634 0.961 . S
H621 C635 0.960 . S
H622 C635 0.961 . S
H623 C635 0.959 . S
H624 C638 0.929 . S
H625 C639 0.931 . S
H626 C641 0.930 . S
C627 H615 0.930 . S
C627 C628 1.399 1_554 S
C627 C632 1.399 . S
C628 C627 1.399 1_556 S
C628 C629 1.376 . S
C629 H616 0.930 . S
C629 C628 1.376 . S
C629 C630 1.388 . S
C630 H617 0.930 . S
C630 C629 1.388 . S
C630 C631 1.390 . S
C631 C630 1.390 . S
C631 C632 1.394 1_556 S
C631 C637 1.465 . S
C632 C627 1.399 . S
C632 C631 1.394 1_554 S
C632 C633 1.516 . S
C633 C632 1.516 . S
C633 C634 1.502 . S
C633 C635 1.561 . S
C633 C636 1.526 . S
C634 H618 0.959 . S
C634 H619 0.959 . S
C634 H620 0.961 . S
C634 C633 1.502 . S
C635 H621 0.960 . S
C635 H622 0.961 . S
C635 H623 0.959 . S
C635 C633 1.561 . S
C636 C633 1.526 . S
C636 C637 1.396 1_554 S
C636 C641 1.390 . S
C637 C631 1.465 . S
C637 C636 1.396 1_556 S
C637 C638 1.399 . S
C638 H624 0.929 . S
C638 C637 1.399 . S
C638 C639 1.385 . S
C639 H625 0.931 . S
C639 C638 1.385 . S
C639 C640 1.389 . S
C640 C639 1.389 . S
C640 C641 1.387 1_556 S
C641 H626 0.930 . S
C641 C636 1.390 . S
C641 C640 1.387 1_554 S
C331 C29 1.490 . S
C343 C241 1.497 . S
C358 C38 1.494 . S
C370 C303 1.497 . S
C385 C234 1.494 . S
C397 C22 1.490 1_455 S
C412 C304 1.497 1_565 S
C424 C39 1.496 1_565 S
C439 C294 1.496 . S
C451 C91 1.491 . S
C466 C128 1.496 1_655 S
C478 C251 1.490 1_655 S
C493 C287 1.496 . S
C505 C92 1.490 1_565 S
C520 C250 1.488 . S
C532 C135 1.491 1_455 S
C547 C144 1.496 1_556 S
C559 C198 1.493 1_556 S
C574 C188 1.493 1_556 S
C586 C75 1.496 1_556 S
C601 C145 1.487 . S
C613 C197 1.495 . S
C628 C181 1.484 1_556 S
C640 C82 1.489 . S
