# Generated by pormake.
# Topology dei, (4)-cn, num edge types: 1
# Building blocks:
#     Node 0, Type 0, BuildingBlock: QUQFOY_clean_sbu_1, # of connection points: 4
#     Node 1, Type 0, BuildingBlock: QUQFOY_clean_sbu_1, # of connection points: 4
#     Node 2, Type 0, BuildingBlock: QUQFOY_clean_sbu_1, # of connection points: 4
#     Node 3, Type 0, BuildingBlock: QUQFOY_clean_sbu_1, # of connection points: 4
#     Node 4, Type 0, BuildingBlock: QUQFOY_clean_sbu_1, # of connection points: 4
#     Node 5, Type 0, BuildingBlock: QUQFOY_clean_sbu_1, # of connection points: 4
#     Node 6, Type 0, BuildingBlock: QUQFOY_clean_sbu_1, # of connection points: 4
#     Node 7, Type 0, BuildingBlock: QUQFOY_clean_sbu_1, # of connection points: 4
#     Node 8, Type 0, BuildingBlock: QUQFOY_clean_sbu_1, # of connection points: 4
#     Node 9, Type 0, BuildingBlock: QUQFOY_clean_sbu_1, # of connection points: 4
#     Node 10, Type 0, BuildingBlock: QUQFOY_clean_sbu_1, # of connection points: 4
#     Node 11, Type 0, BuildingBlock: QUQFOY_clean_sbu_1, # of connection points: 4
#     Node 12, Type 0, BuildingBlock: QUQFOY_clean_sbu_1, # of connection points: 4
#     Node 13, Type 0, BuildingBlock: QUQFOY_clean_sbu_1, # of connection points: 4
#     Node 14, Type 0, BuildingBlock: QUQFOY_clean_sbu_1, # of connection points: 4
#     Node 15, Type 0, BuildingBlock: QUQFOY_clean_sbu_1, # of connection points: 4
#     Node 16, Type 0, BuildingBlock: QUQFOY_clean_sbu_1, # of connection points: 4
#     Node 17, Type 0, BuildingBlock: QUQFOY_clean_sbu_1, # of connection points: 4
#     Node 18, Type 0, BuildingBlock: QUQFOY_clean_sbu_1, # of connection points: 4
#     Node 19, Type 0, BuildingBlock: QUQFOY_clean_sbu_1, # of connection points: 4
#     Node 20, Type 0, BuildingBlock: QUQFOY_clean_sbu_1, # of connection points: 4
#     Node 21, Type 0, BuildingBlock: QUQFOY_clean_sbu_1, # of connection points: 4
#     Node 22, Type 0, BuildingBlock: QUQFOY_clean_sbu_1, # of connection points: 4
#     Node 23, Type 0, BuildingBlock: QUQFOY_clean_sbu_1, # of connection points: 4
#     Node 24, Type 0, BuildingBlock: QUQFOY_clean_sbu_1, # of connection points: 4
#     Node 25, Type 0, BuildingBlock: QUQFOY_clean_sbu_1, # of connection points: 4
#     Node 26, Type 0, BuildingBlock: QUQFOY_clean_sbu_1, # of connection points: 4
#     Node 27, Type 0, BuildingBlock: QUQFOY_clean_sbu_1, # of connection points: 4
#     Node 28, Type 0, BuildingBlock: QUQFOY_clean_sbu_1, # of connection points: 4
#     Node 29, Type 0, BuildingBlock: QUQFOY_clean_sbu_1, # of connection points: 4
#     Node 30, Type 0, BuildingBlock: QUQFOY_clean_sbu_1, # of connection points: 4
#     Node 31, Type 0, BuildingBlock: QUQFOY_clean_sbu_1, # of connection points: 4
#     Edge 32, Type (0, 0), BuildingBlock: OJICUG_clean_linker_0, # of connection points: 2
#     Edge 33, Type (0, 0), BuildingBlock: OJICUG_clean_linker_0, # of connection points: 2
#     Edge 34, Type (0, 0), BuildingBlock: OJICUG_clean_linker_0, # of connection points: 2
#     Edge 35, Type (0, 0), BuildingBlock: OJICUG_clean_linker_0, # of connection points: 2
#     Edge 36, Type (0, 0), BuildingBlock: OJICUG_clean_linker_0, # of connection points: 2
#     Edge 37, Type (0, 0), BuildingBlock: OJICUG_clean_linker_0, # of connection points: 2
#     Edge 38, Type (0, 0), BuildingBlock: OJICUG_clean_linker_0, # of connection points: 2
#     Edge 39, Type (0, 0), BuildingBlock: OJICUG_clean_linker_0, # of connection points: 2
#     Edge 40, Type (0, 0), BuildingBlock: OJICUG_clean_linker_0, # of connection points: 2
#     Edge 41, Type (0, 0), BuildingBlock: OJICUG_clean_linker_0, # of connection points: 2
#     Edge 42, Type (0, 0), BuildingBlock: OJICUG_clean_linker_0, # of connection points: 2
#     Edge 43, Type (0, 0), BuildingBlock: OJICUG_clean_linker_0, # of connection points: 2
#     Edge 44, Type (0, 0), BuildingBlock: OJICUG_clean_linker_0, # of connection points: 2
#     Edge 45, Type (0, 0), BuildingBlock: OJICUG_clean_linker_0, # of connection points: 2
#     Edge 46, Type (0, 0), BuildingBlock: OJICUG_clean_linker_0, # of connection points: 2
#     Edge 47, Type (0, 0), BuildingBlock: OJICUG_clean_linker_0, # of connection points: 2
#     Edge 48, Type (0, 0), BuildingBlock: OJICUG_clean_linker_0, # of connection points: 2
#     Edge 49, Type (0, 0), BuildingBlock: OJICUG_clean_linker_0, # of connection points: 2
#     Edge 50, Type (0, 0), BuildingBlock: OJICUG_clean_linker_0, # of connection points: 2
#     Edge 51, Type (0, 0), BuildingBlock: OJICUG_clean_linker_0, # of connection points: 2
#     Edge 52, Type (0, 0), BuildingBlock: OJICUG_clean_linker_0, # of connection points: 2
#     Edge 53, Type (0, 0), BuildingBlock: OJICUG_clean_linker_0, # of connection points: 2
#     Edge 54, Type (0, 0), BuildingBlock: OJICUG_clean_linker_0, # of connection points: 2
#     Edge 55, Type (0, 0), BuildingBlock: OJICUG_clean_linker_0, # of connection points: 2
#     Edge 56, Type (0, 0), BuildingBlock: OJICUG_clean_linker_0, # of connection points: 2
#     Edge 57, Type (0, 0), BuildingBlock: OJICUG_clean_linker_0, # of connection points: 2
#     Edge 58, Type (0, 0), BuildingBlock: OJICUG_clean_linker_0, # of connection points: 2
#     Edge 59, Type (0, 0), BuildingBlock: OJICUG_clean_linker_0, # of connection points: 2
#     Edge 60, Type (0, 0), BuildingBlock: OJICUG_clean_linker_0, # of connection points: 2
#     Edge 61, Type (0, 0), BuildingBlock: OJICUG_clean_linker_0, # of connection points: 2
#     Edge 62, Type (0, 0), BuildingBlock: OJICUG_clean_linker_0, # of connection points: 2
#     Edge 63, Type (0, 0), BuildingBlock: OJICUG_clean_linker_0, # of connection points: 2
#     Edge 64, Type (0, 0), BuildingBlock: OJICUG_clean_linker_0, # of connection points: 2
#     Edge 65, Type (0, 0), BuildingBlock: OJICUG_clean_linker_0, # of connection points: 2
#     Edge 66, Type (0, 0), BuildingBlock: OJICUG_clean_linker_0, # of connection points: 2
#     Edge 67, Type (0, 0), BuildingBlock: OJICUG_clean_linker_0, # of connection points: 2
#     Edge 68, Type (0, 0), BuildingBlock: OJICUG_clean_linker_0, # of connection points: 2
#     Edge 69, Type (0, 0), BuildingBlock: OJICUG_clean_linker_0, # of connection points: 2
#     Edge 70, Type (0, 0), BuildingBlock: OJICUG_clean_linker_0, # of connection points: 2
#     Edge 71, Type (0, 0), BuildingBlock: OJICUG_clean_linker_0, # of connection points: 2
#     Edge 72, Type (0, 0), BuildingBlock: OJICUG_clean_linker_0, # of connection points: 2
#     Edge 73, Type (0, 0), BuildingBlock: OJICUG_clean_linker_0, # of connection points: 2
#     Edge 74, Type (0, 0), BuildingBlock: OJICUG_clean_linker_0, # of connection points: 2
#     Edge 75, Type (0, 0), BuildingBlock: OJICUG_clean_linker_0, # of connection points: 2
#     Edge 76, Type (0, 0), BuildingBlock: OJICUG_clean_linker_0, # of connection points: 2
#     Edge 77, Type (0, 0), BuildingBlock: OJICUG_clean_linker_0, # of connection points: 2
#     Edge 78, Type (0, 0), BuildingBlock: OJICUG_clean_linker_0, # of connection points: 2
#     Edge 79, Type (0, 0), BuildingBlock: OJICUG_clean_linker_0, # of connection points: 2
#     Edge 80, Type (0, 0), BuildingBlock: OJICUG_clean_linker_0, # of connection points: 2
#     Edge 81, Type (0, 0), BuildingBlock: OJICUG_clean_linker_0, # of connection points: 2
#     Edge 82, Type (0, 0), BuildingBlock: OJICUG_clean_linker_0, # of connection points: 2
#     Edge 83, Type (0, 0), BuildingBlock: OJICUG_clean_linker_0, # of connection points: 2
#     Edge 84, Type (0, 0), BuildingBlock: OJICUG_clean_linker_0, # of connection points: 2
#     Edge 85, Type (0, 0), BuildingBlock: OJICUG_clean_linker_0, # of connection points: 2
#     Edge 86, Type (0, 0), BuildingBlock: OJICUG_clean_linker_0, # of connection points: 2
#     Edge 87, Type (0, 0), BuildingBlock: OJICUG_clean_linker_0, # of connection points: 2
#     Edge 88, Type (0, 0), BuildingBlock: OJICUG_clean_linker_0, # of connection points: 2
#     Edge 89, Type (0, 0), BuildingBlock: OJICUG_clean_linker_0, # of connection points: 2
#     Edge 90, Type (0, 0), BuildingBlock: OJICUG_clean_linker_0, # of connection points: 2
#     Edge 91, Type (0, 0), BuildingBlock: OJICUG_clean_linker_0, # of connection points: 2
#     Edge 92, Type (0, 0), BuildingBlock: OJICUG_clean_linker_0, # of connection points: 2
#     Edge 93, Type (0, 0), BuildingBlock: OJICUG_clean_linker_0, # of connection points: 2
#     Edge 94, Type (0, 0), BuildingBlock: OJICUG_clean_linker_0, # of connection points: 2
#     Edge 95, Type (0, 0), BuildingBlock: OJICUG_clean_linker_0, # of connection points: 2
# Relax obj value: 0.259
# Max RMSD: 0.141
# Mean RMSD: 0.141
data_MOF--net-dei--node1-QUQFOY_clean_sbu_1--edge1-OJICUG_clean_linker_0
_symmetry_space_group_name_H-M    P1
_symmetry_Int_Tables_number       1
_symmetry_cell_setting            triclinic
loop_
_symmetry_equiv_pos_as_xyz
'x, y, z'
_cell_length_a     41.677116
_cell_length_b     41.679981
_cell_length_c     69.884155
_cell_angle_alpha  89.983919
_cell_angle_beta   90.006263
_cell_angle_gamma 89.9936
loop_
_atom_site_label
_atom_site_type_symbol
_atom_site_fract_x
_atom_site_fract_y
_atom_site_fract_z
_atom_type_partial_charge
O0 O 0.11236 0.64661 0.01734 0.0
Cd1 Cd 0.16172 0.64583 0.01773 0.0
Cd2 Cd 0.15552 0.65711 0.05791 0.0
O3 O 0.10959 0.64602 0.04884 0.0
O4 O 0.17706 0.61323 0.99886 0.0
O5 O 0.18049 0.60686 0.0303 0.0
C6 C 0.18384 0.59499 0.01329 0.0
C7 C 0.15868 0.65228 0.0916 0.0
C8 C 0.09595 0.64459 0.03259 0.0
C9 C 0.18684 0.70827 0.03148 0.0
O10 O 0.17726 0.6985 0.04777 0.0
O11 O 0.1843 0.69031 0.01682 0.0
O12 O 0.14242 0.67434 0.08326 0.0
O13 O 0.17431 0.63264 0.08082 0.0
O14 O 0.60462 0.92659 0.2977 0.0
Cd15 Cd 0.64634 0.90522 0.30768 0.0
Cd16 Cd 0.65709 0.91177 0.26751 0.0
O17 O 0.61253 0.93421 0.26678 0.0
O18 O 0.62944 0.89169 0.33303 0.0
O19 O 0.67069 0.92417 0.33057 0.0
C20 C 0.65131 0.90821 0.34135 0.0
C21 C 0.70786 0.93407 0.2632 0.0
C22 C 0.59465 0.93636 0.2815 0.0
C23 C 0.65912 0.84597 0.28218 0.0
O24 O 0.65649 0.86242 0.26697 0.0
O25 O 0.65798 0.85951 0.29846 0.0
O26 O 0.68968 0.92744 0.24872 0.0
O27 O 0.69595 0.9305 0.28019 0.0
O28 O 0.44096 0.40667 0.51657 0.0
Cd29 Cd 0.39161 0.40735 0.51711 0.0
Cd30 Cd 0.39805 0.39648 0.55726 0.0
O31 O 0.44382 0.40791 0.54806 0.0
O32 O 0.37594 0.44009 0.49842 0.0
O33 O 0.37295 0.44614 0.5299 0.0
C34 C 0.36935 0.45817 0.51294 0.0
C35 C 0.3951 0.40145 0.59093 0.0
C36 C 0.4574 0.40913 0.53179 0.0
C37 C 0.3668 0.34496 0.53104 0.0
O38 O 0.37652 0.35487 0.54727 0.0
O39 O 0.36909 0.36285 0.51633 0.0
O40 O 0.4115 0.37949 0.58261 0.0
O41 O 0.3792 0.42089 0.58015 0.0
O42 O 0.94846 0.12607 0.79757 0.0
Cd43 Cd 0.90693 0.14769 0.80761 0.0
Cd44 Cd 0.89587 0.14127 0.76746 0.0
O45 O 0.94036 0.1187 0.76664 0.0
O46 O 0.92402 0.16097 0.83297 0.0
O47 O 0.88248 0.12886 0.83051 0.0
C48 C 0.90202 0.14462 0.84129 0.0
C49 C 0.84502 0.11912 0.76314 0.0
C50 C 0.9583 0.11636 0.78133 0.0
C51 C 0.89438 0.20709 0.78217 0.0
O52 O 0.89663 0.19062 0.76695 0.0
O53 O 0.89567 0.19353 0.79845 0.0
O54 O 0.86321 0.12577 0.74867 0.0
O55 O 0.85695 0.12261 0.78013 0.0
O56 O 0.11245 0.40674 0.9981 0.0
Cd57 Cd 0.16181 0.40745 0.9976 0.0
Cd58 Cd 0.15535 0.39655 0.95743 0.0
O59 O 0.10958 0.40805 0.96661 0.0
O60 O 0.17733 0.44002 0.01644 0.0
O61 O 0.18048 0.44641 0.98499 0.0
C62 C 0.18396 0.45827 1.00199 0.0
C63 C 0.15836 0.4015 0.92375 0.0
C64 C 0.09601 0.40924 0.98288 0.0
C65 C 0.18652 0.34499 0.98367 0.0
O66 O 0.17678 0.3549 0.96745 0.0
O67 O 0.18432 0.36292 0.99837 0.0
O68 O 0.1419 0.37959 0.93207 0.0
O69 O 0.17427 0.42092 0.93453 0.0
O70 O 0.94784 0.92643 0.21767 0.0
Cd71 Cd 0.90606 0.90509 0.20777 0.0
Cd72 Cd 0.89541 0.9118 0.24792 0.0
O73 O 0.93996 0.93425 0.24857 0.0
O74 O 0.92286 0.89135 0.18244 0.0
O75 O 0.88172 0.92398 0.18485 0.0
C76 C 0.90101 0.90787 0.17409 0.0
C77 C 0.84462 0.9341 0.25217 0.0
C78 C 0.95783 0.93629 0.23384 0.0
C79 C 0.89329 0.84596 0.23339 0.0
O80 O 0.89603 0.86246 0.24856 0.0
O81 O 0.89436 0.85945 0.21709 0.0
O82 O 0.86281 0.92757 0.26667 0.0
O83 O 0.85653 0.93043 0.2352 0.0
O84 O 0.44096 0.64643 0.49865 0.0
Cd85 Cd 0.39161 0.6458 0.49809 0.0
Cd86 Cd 0.39812 0.65658 0.45796 0.0
O87 O 0.44385 0.64495 0.46716 0.0
O88 O 0.37591 0.61307 0.51678 0.0
O89 O 0.37295 0.60703 0.48529 0.0
C90 C 0.36933 0.595 0.50224 0.0
C91 C 0.39507 0.65166 0.42428 0.0
C92 C 0.45741 0.64381 0.48344 0.0
C93 C 0.36696 0.70822 0.48414 0.0
O94 O 0.37674 0.69828 0.46793 0.0
O95 O 0.36913 0.69033 0.49885 0.0
O96 O 0.41161 0.67352 0.4326 0.0
O97 O 0.37913 0.63226 0.43507 0.0
O98 O 0.60493 0.12629 0.71752 0.0
Cd99 Cd 0.64653 0.14781 0.70751 0.0
Cd100 Cd 0.65743 0.14136 0.74769 0.0
O101 O 0.61292 0.11883 0.74846 0.0
O102 O 0.62952 0.16125 0.68216 0.0
O103 O 0.67091 0.12894 0.6846 0.0
C104 C 0.65145 0.14483 0.67383 0.0
C105 C 0.70825 0.11915 0.75203 0.0
C106 C 0.59502 0.11656 0.73375 0.0
C107 C 0.65921 0.20715 0.73297 0.0
O108 O 0.65674 0.19071 0.74819 0.0
O109 O 0.658 0.19358 0.7167 0.0
O110 O 0.69006 0.12579 0.76649 0.0
O111 O 0.69634 0.12267 0.73504 0.0
O112 O 0.94088 0.40673 0.99809 0.0
Cd113 Cd 0.89152 0.40743 0.99756 0.0
Cd114 Cd 0.89801 0.39653 0.95739 0.0
O115 O 0.94376 0.40802 0.9666 0.0
O116 O 0.87597 0.44002 0.01638 0.0
O117 O 0.87286 0.44639 0.98493 0.0
C118 C 0.86934 0.45825 1.00192 0.0
C119 C 0.89508 0.40149 0.92371 0.0
C120 C 0.95733 0.40922 0.98288 0.0
C121 C 0.86679 0.34499 0.98362 0.0
O122 O 0.87654 0.35489 0.9674 0.0
O123 O 0.86901 0.36291 0.99832 0.0
O124 O 0.9115 0.37956 0.93205 0.0
O125 O 0.87915 0.42091 0.93447 0.0
O126 O 0.39657 0.19074 0.74796 0.0
Cd127 Cd 0.39584 0.14139 0.7475 0.0
Cd128 Cd 0.40687 0.14774 0.70733 0.0
O129 O 0.39556 0.19358 0.71647 0.0
O130 O 0.36323 0.1259 0.76633 0.0
O131 O 0.35691 0.12267 0.73488 0.0
C132 C 0.34502 0.11921 0.75187 0.0
C133 C 0.40194 0.14469 0.67365 0.0
C134 C 0.39427 0.20717 0.73273 0.0
C135 C 0.45828 0.1165 0.73364 0.0
O136 O 0.44843 0.12618 0.71739 0.0
O137 O 0.44035 0.11885 0.74832 0.0
O138 O 0.42393 0.16105 0.68198 0.0
O139 O 0.38243 0.1289 0.68444 0.0
O140 O 0.61257 0.64641 0.49856 0.0
Cd141 Cd 0.66192 0.64576 0.49797 0.0
Cd142 Cd 0.65527 0.65656 0.45782 0.0
O143 O 0.60958 0.64492 0.46708 0.0
O144 O 0.67763 0.61309 0.51669 0.0
O145 O 0.68057 0.60693 0.48522 0.0
C146 C 0.6842 0.59496 0.50218 0.0
C147 C 0.6582 0.65167 0.42414 0.0
C148 C 0.59607 0.64378 0.48337 0.0
C149 C 0.6865 0.70819 0.48398 0.0
O150 O 0.67668 0.69825 0.46779 0.0
O151 O 0.68439 0.6903 0.4987 0.0
O152 O 0.64169 0.67352 0.43249 0.0
O153 O 0.67418 0.63226 0.4349 0.0
O154 O 0.15645 0.86246 0.24865 0.0
Cd155 Cd 0.15706 0.91181 0.248 0.0
Cd156 Cd 0.14647 0.90511 0.20785 0.0
O157 O 0.15815 0.85946 0.21717 0.0
O158 O 0.18966 0.92758 0.26675 0.0
O159 O 0.19594 0.93042 0.23528 0.0
C160 C 0.20785 0.9341 0.25226 0.0
C161 C 0.15162 0.90791 0.17418 0.0
C162 C 0.1592 0.84596 0.23347 0.0
C163 C 0.09466 0.9363 0.23389 0.0
O164 O 0.10467 0.92645 0.21772 0.0
O165 O 0.11251 0.93426 0.24863 0.0
O166 O 0.12974 0.89139 0.1825 0.0
O167 O 0.17088 0.92401 0.18496 0.0
O168 O 0.94083 0.64662 0.01728 0.0
Cd169 Cd 0.89147 0.64583 0.01763 0.0
Cd170 Cd 0.89759 0.65712 0.05782 0.0
O171 O 0.94354 0.64604 0.04878 0.0
O172 O 0.87617 0.61321 0.99875 0.0
O173 O 0.87268 0.60686 0.03019 0.0
C174 C 0.86937 0.59499 0.01318 0.0
C175 C 0.89433 0.6523 0.09149 0.0
C176 C 0.95721 0.6446 0.03255 0.0
C177 C 0.86629 0.70826 0.03135 0.0
O178 O 0.87585 0.6985 0.04764 0.0
O179 O 0.86886 0.6903 0.01669 0.0
O180 O 0.91061 0.67436 0.08318 0.0
O181 O 0.87875 0.63265 0.0807 0.0
O182 O 0.15671 0.19064 0.76693 0.0
Cd183 Cd 0.15744 0.14129 0.76743 0.0
Cd184 Cd 0.1464 0.14774 0.80761 0.0
O185 O 0.15777 0.19354 0.79842 0.0
O186 O 0.19005 0.12579 0.74861 0.0
O187 O 0.19638 0.12261 0.78006 0.0
C188 C 0.20827 0.11913 0.76307 0.0
C189 C 0.15128 0.1447 0.84129 0.0
C190 C 0.15905 0.2071 0.78214 0.0
C191 C 0.09502 0.11642 0.78132 0.0
O192 O 0.10487 0.12614 0.79755 0.0
O193 O 0.11294 0.11874 0.76663 0.0
O194 O 0.12932 0.16109 0.83295 0.0
O195 O 0.1708 0.1289 0.83052 0.0
O196 O 0.61257 0.40667 0.51669 0.0
Cd197 Cd 0.66193 0.40734 0.51726 0.0
Cd198 Cd 0.65539 0.39646 0.5574 0.0
O199 O 0.60962 0.40793 0.54818 0.0
O200 O 0.67758 0.44004 0.49853 0.0
O201 O 0.68058 0.44618 0.53 0.0
C202 C 0.68418 0.45816 0.51304 0.0
C203 C 0.65839 0.4014 0.59107 0.0
C204 C 0.59609 0.40914 0.53189 0.0
C205 C 0.68665 0.34492 0.5312 0.0
O206 O 0.67688 0.35483 0.54741 0.0
O207 O 0.68443 0.36283 0.51649 0.0
O208 O 0.64194 0.37949 0.58275 0.0
O209 O 0.67428 0.42084 0.58029 0.0
O210 O 0.39601 0.86242 0.26712 0.0
Cd211 Cd 0.39539 0.91177 0.26763 0.0
Cd212 Cd 0.40627 0.90525 0.3078 0.0
O213 O 0.39463 0.85952 0.29861 0.0
O214 O 0.36278 0.92739 0.24884 0.0
O215 O 0.35652 0.93052 0.2803 0.0
C216 C 0.34461 0.93406 0.26331 0.0
C217 C 0.40145 0.90827 0.34148 0.0
C218 C 0.39344 0.84597 0.28233 0.0
C219 C 0.45786 0.93638 0.28156 0.0
O220 O 0.44794 0.92663 0.29777 0.0
O221 O 0.43994 0.93421 0.26685 0.0
O222 O 0.42329 0.89175 0.33313 0.0
O223 O 0.38201 0.92421 0.33073 0.0
O224 O 0.61247 0.14646 0.51674 0.0
Cd225 Cd 0.66183 0.14577 0.51731 0.0
Cd226 Cd 0.65527 0.15668 0.55746 0.0
O227 O 0.60951 0.14523 0.54823 0.0
O228 O 0.67747 0.11312 0.49856 0.0
O229 O 0.68049 0.10691 0.53003 0.0
C230 C 0.68408 0.09496 0.51306 0.0
C231 C 0.65825 0.1517 0.59113 0.0
C232 C 0.59599 0.14401 0.53194 0.0
C233 C 0.68657 0.20818 0.53124 0.0
O234 O 0.6768 0.19829 0.54745 0.0
O235 O 0.68434 0.19028 0.51654 0.0
O236 O 0.64182 0.17364 0.58281 0.0
O237 O 0.67414 0.13227 0.58036 0.0
O238 O 0.10512 0.42686 0.7973 0.0
Cd239 Cd 0.14665 0.40528 0.80737 0.0
Cd240 Cd 0.15767 0.41155 0.76719 0.0
O241 O 0.11317 0.4341 0.76635 0.0
O242 O 0.12956 0.39199 0.83273 0.0
O243 O 0.17107 0.42413 0.83027 0.0
C244 C 0.15154 0.40835 0.84105 0.0
C245 C 0.20849 0.43373 0.76284 0.0
C246 C 0.09525 0.4365 0.78104 0.0
C247 C 0.15923 0.3458 0.782 0.0
O248 O 0.15694 0.3622 0.76676 0.0
O249 O 0.15795 0.35942 0.79826 0.0
O250 O 0.19031 0.42702 0.74838 0.0
O251 O 0.19658 0.43028 0.77983 0.0
O252 O 0.94076 0.90656 0.01719 0.0
Cd253 Cd 0.8914 0.90735 0.01756 0.0
Cd254 Cd 0.89754 0.89609 0.05773 0.0
O255 O 0.94349 0.90717 0.04869 0.0
O256 O 0.87606 0.94003 0.99873 0.0
O257 O 0.87264 0.94626 0.03018 0.0
C258 C 0.86929 0.95821 0.01318 0.0
C259 C 0.89428 0.90092 0.0914 0.0
C260 C 0.95715 0.9086 0.03245 0.0
C261 C 0.86626 0.84492 0.0313 0.0
O262 O 0.87582 0.85469 0.04758 0.0
O263 O 0.86881 0.86287 0.01663 0.0
O264 O 0.91057 0.87886 0.0831 0.0
O265 O 0.87869 0.92057 0.0806 0.0
O266 O 0.44803 0.6267 0.29788 0.0
Cd267 Cd 0.40634 0.64806 0.30789 0.0
Cd268 Cd 0.39547 0.6415 0.26774 0.0
O269 O 0.44002 0.61905 0.26697 0.0
O270 O 0.42334 0.66158 0.33322 0.0
O271 O 0.38209 0.62909 0.33082 0.0
C272 C 0.40151 0.64505 0.34157 0.0
C273 C 0.34469 0.61921 0.26344 0.0
C274 C 0.45795 0.61691 0.28168 0.0
C275 C 0.39349 0.70731 0.28239 0.0
O276 O 0.39607 0.69085 0.26719 0.0
O277 O 0.39467 0.69378 0.29868 0.0
O278 O 0.36286 0.62586 0.24896 0.0
O279 O 0.35661 0.62277 0.28043 0.0
O280 O 0.6125 0.90676 0.49846 0.0
Cd281 Cd 0.66185 0.9074 0.49788 0.0
Cd282 Cd 0.65523 0.89657 0.45773 0.0
O283 O 0.60952 0.90819 0.46697 0.0
O284 O 0.67753 0.94004 0.51663 0.0
O285 O 0.68051 0.94625 0.48516 0.0
C286 C 0.68412 0.95819 0.50213 0.0
C287 C 0.65817 0.90149 0.42405 0.0
C288 C 0.59601 0.90936 0.48327 0.0
C289 C 0.68646 0.84496 0.48393 0.0
O290 O 0.67665 0.85489 0.46772 0.0
O291 O 0.68433 0.86287 0.49863 0.0
O292 O 0.64168 0.87962 0.4324 0.0
O293 O 0.67413 0.9209 0.43481 0.0
O294 O 0.44866 0.42681 0.71732 0.0
Cd295 Cd 0.40708 0.40528 0.70729 0.0
Cd296 Cd 0.39609 0.41165 0.74743 0.0
O297 O 0.4406 0.43418 0.74825 0.0
O298 O 0.4241 0.39195 0.68193 0.0
O299 O 0.38265 0.42417 0.6844 0.0
C300 C 0.40213 0.40835 0.67361 0.0
C301 C 0.34526 0.43382 0.75175 0.0
C302 C 0.45853 0.4365 0.73356 0.0
C303 C 0.39445 0.34586 0.73271 0.0
O304 O 0.3968 0.3623 0.74793 0.0
O305 O 0.39571 0.35946 0.71644 0.0
O306 O 0.36344 0.42717 0.76622 0.0
O307 O 0.35719 0.43034 0.73476 0.0
O308 O 0.94077 0.14651 0.9984 0.0
Cd309 Cd 0.89142 0.14582 0.99782 0.0
Cd310 Cd 0.89799 0.15653 0.95765 0.0
O311 O 0.9437 0.14497 0.96692 0.0
O312 O 0.87576 0.11318 0.01658 0.0
O313 O 0.87283 0.10691 0.98512 0.0
C314 C 0.86923 0.09499 1.0021 0.0
C315 C 0.8951 0.1515 0.92398 0.0
C316 C 0.95724 0.14388 0.98321 0.0
C317 C 0.86676 0.20822 0.98377 0.0
O318 O 0.87656 0.19825 0.96758 0.0
O319 O 0.86891 0.19035 0.9985 0.0
O320 O 0.91158 0.1734 0.9323 0.0
O321 O 0.87911 0.13214 0.93476 0.0
O322 O 0.10475 0.62679 0.21784 0.0
Cd323 Cd 0.14653 0.64814 0.20795 0.0
Cd324 Cd 0.15714 0.64149 0.24812 0.0
O325 O 0.11259 0.61904 0.24876 0.0
O326 O 0.12977 0.66182 0.18259 0.0
O327 O 0.17094 0.62924 0.18507 0.0
C328 C 0.15166 0.64531 0.17428 0.0
C329 C 0.20792 0.6192 0.2524 0.0
C330 C 0.09474 0.61696 0.23403 0.0
C331 C 0.15924 0.70732 0.23353 0.0
O332 O 0.15651 0.69084 0.24872 0.0
O333 O 0.15818 0.6938 0.21724 0.0
O334 O 0.18973 0.62575 0.26688 0.0
O335 O 0.19602 0.62285 0.23542 0.0
O336 O 0.4409 0.9068 0.49854 0.0
Cd337 Cd 0.39155 0.90743 0.498 0.0
Cd338 Cd 0.39804 0.89661 0.45786 0.0
O339 O 0.44378 0.90823 0.46706 0.0
O340 O 0.37586 0.94012 0.5167 0.0
O341 O 0.37285 0.94622 0.48522 0.0
C342 C 0.36925 0.95822 0.50218 0.0
C343 C 0.39498 0.90156 0.42419 0.0
C344 C 0.45734 0.90939 0.48333 0.0
C345 C 0.36692 0.84499 0.48408 0.0
O346 O 0.37667 0.85492 0.46787 0.0
O347 O 0.36909 0.8629 0.49878 0.0
O348 O 0.41151 0.87969 0.43251 0.0
O349 O 0.37905 0.92095 0.43497 0.0
O350 O 0.89609 0.69084 0.24863 0.0
Cd351 Cd 0.89549 0.64149 0.24803 0.0
Cd352 Cd 0.90616 0.64815 0.20787 0.0
O353 O 0.89444 0.6938 0.21715 0.0
O354 O 0.8629 0.62575 0.2668 0.0
O355 O 0.85661 0.62283 0.23533 0.0
C356 C 0.84471 0.61918 0.25231 0.0
C357 C 0.90112 0.64534 0.17419 0.0
C358 C 0.89335 0.70732 0.23345 0.0
C359 C 0.95792 0.61698 0.23398 0.0
O360 O 0.94794 0.62682 0.21779 0.0
O361 O 0.94004 0.61905 0.24871 0.0
O362 O 0.92297 0.66187 0.18252 0.0
O363 O 0.88183 0.62925 0.18495 0.0
O364 O 0.11239 0.14654 0.9984 0.0
Cd365 Cd 0.16174 0.14582 0.99783 0.0
Cd366 Cd 0.15516 0.15659 0.95766 0.0
O367 O 0.10944 0.14503 0.96691 0.0
O368 O 0.17736 0.11319 0.01661 0.0
O369 O 0.18033 0.10689 0.98515 0.0
C370 C 0.18391 0.09498 1.00213 0.0
C371 C 0.15808 0.15158 0.92398 0.0
C372 C 0.09591 0.14392 0.9832 0.0
C373 C 0.18642 0.20822 0.9838 0.0
O374 O 0.1766 0.19828 0.96761 0.0
O375 O 0.18426 0.19034 0.99852 0.0
O376 O 0.1416 0.17348 0.9323 0.0
O377 O 0.17405 0.1322 0.93476 0.0
O378 O 0.65692 0.36229 0.74814 0.0
Cd379 Cd 0.65766 0.41164 0.7476 0.0
Cd380 Cd 0.64676 0.40517 0.70744 0.0
O381 O 0.65817 0.35939 0.71665 0.0
O382 O 0.69034 0.42721 0.76635 0.0
O383 O 0.69655 0.43026 0.73488 0.0
C384 C 0.7085 0.4338 0.75186 0.0
C385 C 0.65169 0.40817 0.67377 0.0
C386 C 0.65936 0.34583 0.73293 0.0
C387 C 0.59526 0.43647 0.73366 0.0
O388 O 0.60516 0.42672 0.71744 0.0
O389 O 0.61316 0.4342 0.74837 0.0
O390 O 0.62975 0.39175 0.6821 0.0
O391 O 0.67115 0.42403 0.68454 0.0
O392 O 0.44087 0.14648 0.51662 0.0
Cd393 Cd 0.39151 0.14582 0.51715 0.0
Cd394 Cd 0.39794 0.15667 0.5573 0.0
O395 O 0.44372 0.14522 0.54811 0.0
O396 O 0.37586 0.11312 0.49843 0.0
O397 O 0.37283 0.10701 0.52991 0.0
C398 C 0.36925 0.09502 0.51295 0.0
C399 C 0.39497 0.15167 0.59097 0.0
C400 C 0.4573 0.14401 0.53184 0.0
C401 C 0.36673 0.20823 0.53107 0.0
O402 O 0.37644 0.19831 0.54729 0.0
O403 O 0.36901 0.19033 0.51636 0.0
O404 O 0.41139 0.17362 0.58265 0.0
O405 O 0.37907 0.13225 0.58019 0.0
O406 O 0.65654 0.69084 0.26704 0.0
Cd407 Cd 0.65716 0.64149 0.26761 0.0
Cd408 Cd 0.64642 0.64808 0.30776 0.0
O409 O 0.65805 0.69379 0.29852 0.0
O410 O 0.68977 0.62581 0.24885 0.0
O411 O 0.69604 0.62279 0.28031 0.0
C412 C 0.70795 0.6192 0.26333 0.0
C413 C 0.65141 0.64508 0.34144 0.0
C414 C 0.65917 0.70731 0.28223 0.0
C415 C 0.59474 0.61691 0.28161 0.0
O416 O 0.6047 0.62671 0.29781 0.0
O417 O 0.61262 0.61904 0.26689 0.0
O418 O 0.62954 0.66161 0.33312 0.0
O419 O 0.67078 0.62912 0.33066 0.0
O420 O 0.11231 0.90657 0.01724 0.0
Cd421 Cd 0.16167 0.90736 0.01765 0.0
Cd422 Cd 0.15546 0.89611 0.05782 0.0
O423 O 0.10953 0.90719 0.04874 0.0
O424 O 0.17704 0.94002 0.99881 0.0
O425 O 0.18041 0.94628 0.03026 0.0
C426 C 0.18379 0.95821 0.01327 0.0
C427 C 0.15863 0.90094 0.0915 0.0
C428 C 0.09589 0.90861 0.03249 0.0
C429 C 0.18681 0.84493 0.03143 0.0
O430 O 0.17721 0.85472 0.0477 0.0
O431 O 0.18427 0.86288 0.01675 0.0
O432 O 0.14236 0.87888 0.08318 0.0
O433 O 0.17424 0.92059 0.08071 0.0
O434 O 0.89682 0.36218 0.76676 0.0
Cd435 Cd 0.89612 0.41153 0.76719 0.0
Cd436 Cd 0.90713 0.40529 0.80736 0.0
O437 O 0.89583 0.35943 0.79825 0.0
O438 O 0.86345 0.42702 0.74839 0.0
O439 O 0.85724 0.43027 0.77985 0.0
C440 C 0.84529 0.43373 0.76286 0.0
C441 C 0.90218 0.4084 0.84103 0.0
C442 C 0.89453 0.34579 0.78201 0.0
C443 C 0.95854 0.43649 0.78104 0.0
O444 O 0.94867 0.42686 0.79729 0.0
O445 O 0.94062 0.43407 0.76634 0.0
O446 O 0.92419 0.39203 0.83273 0.0
O447 O 0.88267 0.42416 0.83023 0.0
C448 C 0.17562 0.62612 0.14298 0.0
C449 C 0.15438 0.64611 0.15313 0.0
H450 H 0.19368 0.6121 0.11534 0.0
C451 C 0.13522 0.66785 0.14287 0.0
H452 H 0.19071 0.60915 0.15051 0.0
C453 C 0.1371 0.66971 0.12305 0.0
C454 C 0.15805 0.64975 0.11275 0.0
H455 H 0.11868 0.68375 0.15016 0.0
H456 H 0.1218 0.68684 0.11579 0.0
C457 C 0.17732 0.62782 0.12289 0.0
C458 C 0.63618 0.88442 0.39263 0.0
C459 C 0.65747 0.90404 0.40289 0.0
H460 H 0.61754 0.87057 0.36553 0.0
C461 C 0.67711 0.92561 0.39273 0.0
H462 H 0.62058 0.86759 0.39991 0.0
C463 C 0.67545 0.92724 0.37264 0.0
C464 C 0.65391 0.90755 0.3625 0.0
H465 H 0.69375 0.94106 0.40027 0.0
H466 H 0.69084 0.94391 0.36509 0.0
C467 C 0.63435 0.88622 0.3728 0.0
C468 C 0.41914 0.38641 0.64217 0.0
C469 C 0.39951 0.40767 0.65246 0.0
H470 H 0.43291 0.36778 0.61506 0.0
C471 C 0.37786 0.42726 0.64233 0.0
H472 H 0.43603 0.37084 0.64944 0.0
C473 C 0.37615 0.42559 0.62224 0.0
C474 C 0.39584 0.40407 0.61208 0.0
H475 H 0.36241 0.44387 0.64987 0.0
H476 H 0.35943 0.44095 0.6147 0.0
C477 C 0.41726 0.38456 0.62235 0.0
C478 C 0.87599 0.1275 0.89267 0.0
C479 C 0.89587 0.14884 0.90283 0.0
H480 H 0.86206 0.10938 0.86503 0.0
C481 C 0.91745 0.16816 0.89257 0.0
H482 H 0.85913 0.11229 0.9002 0.0
C483 C 0.91929 0.16633 0.87274 0.0
C484 C 0.89947 0.14526 0.86245 0.0
H485 H 0.93325 0.1848 0.89986 0.0
H486 H 0.93632 0.18175 0.86548 0.0
C487 C 0.87767 0.12584 0.87258 0.0
C488 C 0.17741 0.42559 0.89244 0.0
C489 C 0.15766 0.40411 0.90259 0.0
H490 H 0.19124 0.44384 0.8648 0.0
C491 C 0.13625 0.38462 0.89232 0.0
H492 H 0.19413 0.44094 0.89998 0.0
C493 C 0.13443 0.38646 0.87249 0.0
C494 C 0.15411 0.40768 0.86221 0.0
H495 H 0.12057 0.36787 0.8996 0.0
H496 H 0.11754 0.37091 0.86522 0.0
C497 C 0.17575 0.42725 0.87235 0.0
C498 C 0.91564 0.88338 0.12289 0.0
C499 C 0.89482 0.90343 0.11256 0.0
H500 H 0.93389 0.86927 0.15004 0.0
C501 C 0.87558 0.92543 0.12266 0.0
H502 H 0.9309 0.86619 0.11566 0.0
C503 C 0.87721 0.92712 0.14275 0.0
C504 C 0.89833 0.90705 0.15294 0.0
H505 H 0.85932 0.94122 0.11507 0.0
H506 H 0.86216 0.94416 0.15025 0.0
C507 C 0.91744 0.88523 0.14272 0.0
C508 C 0.37594 0.6276 0.39299 0.0
C509 C 0.39567 0.64912 0.40313 0.0
H510 H 0.36204 0.60938 0.36537 0.0
C511 C 0.41696 0.66871 0.39283 0.0
H512 H 0.35931 0.61217 0.40055 0.0
C513 C 0.41868 0.66695 0.373 0.0
C514 C 0.39903 0.64567 0.36273 0.0
H515 H 0.43262 0.6855 0.40009 0.0
H516 H 0.43548 0.68257 0.36571 0.0
C517 C 0.37751 0.626 0.3729 0.0
C518 C 0.63441 0.16683 0.6424 0.0
C519 C 0.65402 0.14552 0.65267 0.0
H520 H 0.6206 0.18548 0.61529 0.0
C521 C 0.67559 0.12587 0.64252 0.0
H522 H 0.61758 0.18243 0.64967 0.0
C523 C 0.67724 0.12754 0.62243 0.0
C524 C 0.65756 0.1491 0.61229 0.0
H525 H 0.69102 0.10923 0.65007 0.0
H526 H 0.6939 0.11214 0.61489 0.0
C527 C 0.63623 0.16867 0.62257 0.0
C528 C 0.87784 0.42726 0.8723 0.0
C529 C 0.89956 0.40773 0.86218 0.0
H530 H 0.85934 0.4409 0.89991 0.0
C531 C 0.91924 0.38653 0.87249 0.0
H532 H 0.86235 0.44383 0.86473 0.0
C533 C 0.91734 0.38468 0.89231 0.0
C534 C 0.89586 0.40412 0.90256 0.0
H535 H 0.93618 0.37102 0.86524 0.0
H536 H 0.93303 0.36794 0.89961 0.0
C537 C 0.87612 0.42558 0.89239 0.0
C538 C 0.41905 0.16657 0.64221 0.0
C539 C 0.39935 0.14537 0.6525 0.0
H540 H 0.43289 0.18517 0.6151 0.0
C541 C 0.37765 0.12586 0.64236 0.0
H542 H 0.43599 0.18207 0.64948 0.0
C543 C 0.37595 0.12755 0.62227 0.0
C544 C 0.39572 0.14902 0.61212 0.0
H545 H 0.36214 0.1093 0.64991 0.0
H546 H 0.35918 0.11226 0.61474 0.0
C547 C 0.41719 0.16844 0.62239 0.0
C548 C 0.63623 0.66878 0.39272 0.0
C549 C 0.65753 0.64914 0.40298 0.0
H550 H 0.61762 0.68268 0.36562 0.0
C551 C 0.67718 0.6276 0.39282 0.0
H552 H 0.62063 0.6856 0.4 0.0
C553 C 0.67553 0.626 0.37273 0.0
C554 C 0.65399 0.64571 0.36259 0.0
H555 H 0.69381 0.61213 0.40036 0.0
H556 H 0.69094 0.60935 0.36518 0.0
C557 C 0.63442 0.66702 0.37288 0.0
C558 C 0.13526 0.8853 0.14279 0.0
C559 C 0.15435 0.90709 0.15304 0.0
H560 H 0.12189 0.86626 0.11571 0.0
C561 C 0.17552 0.92714 0.14287 0.0
H562 H 0.11878 0.86935 0.15008 0.0
C563 C 0.17722 0.92545 0.12278 0.0
C564 C 0.15801 0.90346 0.11266 0.0
H565 H 0.19056 0.94417 0.15039 0.0
H566 H 0.19353 0.94121 0.11522 0.0
C567 C 0.13714 0.88344 0.12296 0.0
C568 C 0.87565 0.6278 0.12276 0.0
C569 C 0.8949 0.64978 0.11265 0.0
H570 H 0.86224 0.60909 0.15037 0.0
C571 C 0.91574 0.66981 0.12297 0.0
H572 H 0.85936 0.61204 0.11519 0.0
C573 C 0.91756 0.66795 0.1428 0.0
C574 C 0.89844 0.64616 0.15304 0.0
H575 H 0.93102 0.68698 0.11573 0.0
H576 H 0.93403 0.68389 0.15011 0.0
C577 C 0.8773 0.62611 0.14286 0.0
C578 C 0.13406 0.16652 0.87272 0.0
C579 C 0.15382 0.14536 0.86244 0.0
H580 H 0.12013 0.18506 0.89983 0.0
C581 C 0.17552 0.12586 0.87259 0.0
H582 H 0.11712 0.18201 0.86545 0.0
C583 C 0.17717 0.12752 0.89269 0.0
C584 C 0.15736 0.14894 0.90283 0.0
H585 H 0.19107 0.10932 0.86505 0.0
H586 H 0.19395 0.11223 0.90023 0.0
C587 C 0.13588 0.16836 0.89255 0.0
C588 C 0.63644 0.38437 0.62251 0.0
C589 C 0.65774 0.40397 0.61222 0.0
H590 H 0.61785 0.37055 0.64962 0.0
C591 C 0.67741 0.42553 0.62236 0.0
H592 H 0.62082 0.36755 0.61524 0.0
C593 C 0.67579 0.42717 0.64246 0.0
C594 C 0.65425 0.40749 0.65261 0.0
H595 H 0.69405 0.44096 0.61482 0.0
H596 H 0.69121 0.44382 0.64999 0.0
C597 C 0.63465 0.38618 0.64234 0.0
C598 C 0.37741 0.92726 0.3728 0.0
C599 C 0.39897 0.90762 0.36264 0.0
H600 H 0.35918 0.94103 0.40045 0.0
C601 C 0.41865 0.88636 0.37291 0.0
H602 H 0.36192 0.94387 0.36527 0.0
C603 C 0.41691 0.88457 0.39274 0.0
C604 C 0.39559 0.90413 0.40303 0.0
H605 H 0.43547 0.87077 0.36562 0.0
H606 H 0.43259 0.8678 0.40001 0.0
C607 C 0.37584 0.92564 0.3929 0.0
C608 C 0.04327 0.63742 0.04896 0.0
C609 C 0.06051 0.64192 0.03189 0.0
H610 H 0.99756 0.63446 0.06248 0.0
C611 C 0.04343 0.64527 0.01463 0.0
H612 H 0.05555 0.63445 0.0625 0.0
C613 C 1.00976 0.64527 0.01462 0.0
C614 C 0.99265 0.64192 0.03186 0.0
H615 H 0.05601 0.6487 1.00123 0.0
H616 H 0.9972 0.64871 1.00121 0.0
C617 C 1.00987 0.63742 0.04894 0.0
C618 C 0.65769 0.7598 0.26425 0.0
C619 C 0.66211 0.74272 0.28142 0.0
H620 H 0.65331 0.80602 0.25092 0.0
C621 C 0.66779 0.75995 0.29836 0.0
H622 H 0.65334 0.74721 0.25094 0.0
C623 C 0.66778 0.79335 0.29835 0.0
C624 C 0.66208 0.81056 0.2814 0.0
H625 H 0.67164 0.74767 0.31183 0.0
H626 H 0.67162 0.80566 0.31181 0.0
C627 C 0.65768 0.79346 0.26424 0.0
C628 C 0.51002 0.41736 0.54804 0.0
C629 C 0.49282 0.412 0.53104 0.0
H630 H 0.55568 0.42097 0.56156 0.0
C631 C 0.50994 0.40788 0.51386 0.0
H632 H 0.4977 0.42096 0.56152 0.0
C633 C 0.54361 0.40788 0.51389 0.0
C634 C 0.56067 0.412 0.53109 0.0
H635 H 0.4974 0.40377 0.50052 0.0
H636 H 0.55621 0.40377 0.50056 0.0
C637 C 0.54342 0.41737 0.54806 0.0
C638 C 0.89548 0.29322 0.76411 0.0
C639 C 0.89172 0.31036 0.78131 0.0
H640 H 0.89924 0.24694 0.75079 0.0
C641 C 0.88671 0.29319 0.79836 0.0
H642 H 0.89931 0.30575 0.75073 0.0
C643 C 0.88667 0.2598 0.79839 0.0
C644 C 0.89163 0.24252 0.78139 0.0
H645 H 0.8834 0.30553 0.81186 0.0
H646 H 0.88333 0.24755 0.81192 0.0
C647 C 0.89544 0.25956 0.76415 0.0
C648 C 1.00997 0.41744 0.96666 0.0
C649 C 0.99275 0.41208 0.98364 0.0
H650 H 0.05566 0.42103 0.95317 0.0
C651 C 1.00984 0.40798 1.00084 0.0
H652 H 0.99767 0.42102 0.95317 0.0
C653 C 0.0435 0.40799 1.00084 0.0
C654 C 0.06059 0.4121 0.98365 0.0
H655 H 0.99726 0.40389 0.01418 0.0
H656 H 0.05607 0.4039 0.01418 0.0
C657 C 0.04336 0.41744 0.96666 0.0
C658 C 0.89489 0.79348 0.25138 0.0
C659 C 0.89033 0.81055 0.23422 0.0
H660 H 0.8994 0.74725 0.26469 0.0
C661 C 0.88448 0.79332 0.2173 0.0
H662 H 0.89937 0.80607 0.26467 0.0
C663 C 0.8845 0.75993 0.21731 0.0
C664 C 0.89036 0.74272 0.23425 0.0
H665 H 0.88052 0.80561 0.20384 0.0
H666 H 0.88054 0.74762 0.20386 0.0
C667 C 0.89491 0.75982 0.25139 0.0
C668 C 0.51001 0.63517 0.46726 0.0
C669 C 0.49282 0.64086 0.48422 0.0
H670 H 0.55569 0.63133 0.45378 0.0
C671 C 0.50994 0.64526 0.50138 0.0
H672 H 0.49769 0.63134 0.45381 0.0
C673 C 0.5436 0.64525 0.50136 0.0
C674 C 0.56066 0.64085 0.48419 0.0
H675 H 0.49739 0.64961 0.5147 0.0
H676 H 0.5562 0.6496 0.51467 0.0
C677 C 0.54341 0.63517 0.46725 0.0
C678 C 0.658 0.25967 0.75092 0.0
C679 C 0.66209 0.24257 0.73373 0.0
H680 H 0.65396 0.30591 0.76424 0.0
C681 C 0.66746 0.25978 0.71674 0.0
H682 H 0.65389 0.2471 0.76426 0.0
C683 C 0.66751 0.29317 0.71673 0.0
C684 C 0.66218 0.31041 0.73371 0.0
H685 H 0.67104 0.24747 0.70325 0.0
H686 H 0.67111 0.30546 0.70323 0.0
C687 C 0.65804 0.29333 0.75091 0.0
C688 C 0.38652 0.29323 0.71644 0.0
C689 C 0.39161 0.31044 0.73345 0.0
H690 H 0.38308 0.24754 0.70294 0.0
C691 C 0.39544 0.29335 0.75067 0.0
H692 H 0.38316 0.30553 0.70293 0.0
C693 C 0.39539 0.25969 0.75068 0.0
C694 C 0.39151 0.2426 0.73347 0.0
H695 H 0.39932 0.30592 0.76403 0.0
H696 H 0.39924 0.24711 0.76404 0.0
C697 C 0.38647 0.25983 0.71644 0.0
C698 C 0.15764 0.75982 0.25148 0.0
C699 C 0.16219 0.74272 0.23433 0.0
H700 H 0.15315 0.80607 0.26476 0.0
C701 C 0.16803 0.75993 0.21739 0.0
H702 H 0.15317 0.74725 0.26478 0.0
C703 C 0.16802 0.79333 0.21738 0.0
C704 C 0.16218 0.81056 0.2343 0.0
H705 H 0.17199 0.74763 0.20395 0.0
H706 H 0.17197 0.80561 0.20392 0.0
C707 C 0.15763 0.79348 0.25146 0.0
C708 C 0.16698 0.25978 0.79837 0.0
C709 C 0.16188 0.24252 0.78136 0.0
H710 H 0.17043 0.30549 0.81183 0.0
C711 C 0.15805 0.25958 0.76413 0.0
H712 H 0.17034 0.24751 0.81189 0.0
C713 C 0.1581 0.29324 0.7641 0.0
C714 C 0.16199 0.31037 0.7813 0.0
H715 H 0.15416 0.24698 0.75078 0.0
H716 H 0.15425 0.30579 0.75072 0.0
C717 C 0.16703 0.29317 0.79833 0.0
C718 C 0.39483 0.7598 0.26441 0.0
C719 C 0.39054 0.74272 0.28159 0.0
H720 H 0.39907 0.80602 0.25107 0.0
C721 C 0.38497 0.75995 0.29855 0.0
H722 H 0.39909 0.74722 0.25109 0.0
C723 C 0.38495 0.79335 0.29854 0.0
C724 C 0.39052 0.81056 0.28157 0.0
H725 H 0.38123 0.74766 0.31203 0.0
H726 H 0.38121 0.80566 0.312 0.0
C727 C 0.39481 0.79346 0.2644 0.0
C728 C 0.50991 0.13577 0.54809 0.0
C729 C 0.49272 0.14114 0.53109 0.0
H730 H 0.55558 0.13216 0.56161 0.0
C731 C 0.50984 0.14527 0.51391 0.0
H732 H 0.49759 0.13216 0.56157 0.0
C733 C 0.54351 0.14527 0.51394 0.0
C734 C 0.56057 0.14114 0.53114 0.0
H735 H 0.4973 0.14938 0.50056 0.0
H736 H 0.55611 0.14938 0.50061 0.0
C737 C 0.54331 0.13577 0.54812 0.0
C738 C 1.00981 0.91582 0.04883 0.0
C739 C 0.99259 0.91128 0.03176 0.0
H740 H 0.05549 0.91882 0.06239 0.0
C741 C 1.0097 0.9079 0.01452 0.0
H742 H 0.99751 0.91881 0.06237 0.0
C743 C 0.04337 0.9079 0.01453 0.0
C744 C 0.06045 0.91129 0.03178 0.0
H745 H 0.99714 0.90443 1.00111 0.0
H746 H 0.05595 0.90444 1.00113 0.0
C747 C 0.04321 0.91583 0.04884 0.0
C748 C 0.50987 0.90796 0.50127 0.0
C749 C 0.49276 0.91231 0.48411 0.0
H750 H 0.55613 0.90364 0.51457 0.0
C751 C 0.50995 0.91794 0.46714 0.0
H752 H 0.49732 0.90365 0.5146 0.0
C753 C 0.54335 0.91793 0.46712 0.0
C754 C 0.5606 0.9123 0.48407 0.0
H755 H 0.49763 0.92173 0.45368 0.0
H756 H 0.55563 0.92172 0.45365 0.0
C757 C 0.54354 0.90795 0.50125 0.0
C758 C 0.04327 0.13536 0.96704 0.0
C759 C 0.0605 0.14101 0.98399 0.0
H760 H 0.99758 0.13153 0.95358 0.0
C761 C 0.04341 0.14538 1.00116 0.0
H762 H 0.05557 0.13155 0.95358 0.0
C763 C 1.00975 0.14536 1.00117 0.0
C764 C 0.99266 0.14098 0.984 0.0
H765 H 0.05599 0.1497 0.01448 0.0
H766 H 0.99718 0.14968 0.01448 0.0
C767 C 1.00988 0.13534 0.96704 0.0
C768 C 0.19235 0.50601 0.02339 0.0
C769 C 0.19107 0.49293 1.00484 0.0
H770 H 0.19158 0.54849 0.04064 0.0
C771 C 0.19226 0.51397 0.98911 0.0
H772 H 0.1916 0.49055 0.03584 0.0
C773 C 0.19217 0.54727 0.99187 0.0
C774 C 0.191 0.56034 0.01043 0.0
H775 H 0.1914 0.50478 0.97462 0.0
H776 H 0.1913 0.56273 0.97942 0.0
C777 C 0.19236 0.53931 0.02615 0.0
C778 C 0.78902 0.94252 0.23918 0.0
C779 C 0.80996 0.94129 0.25495 0.0
H780 H 0.74031 0.94161 0.2294 0.0
C781 C 0.79678 0.94258 0.27348 0.0
H782 H 0.79828 0.94165 0.22471 0.0
C783 C 0.76346 0.94262 0.27617 0.0
C784 C 0.74252 0.94127 0.26041 0.0
H785 H 0.81216 0.94182 0.28596 0.0
H786 H 0.75419 0.94183 0.29064 0.0
C787 C 0.75569 0.94247 0.24188 0.0
C788 C 0.36085 0.51367 0.52606 0.0
C789 C 0.36216 0.49285 0.51024 0.0
H790 H 0.36168 0.5623 0.53596 0.0
C791 C 0.36092 0.50616 0.49174 0.0
H792 H 0.36166 0.5043 0.5405 0.0
C793 C 0.36087 0.5395 0.48913 0.0
C794 C 0.36214 0.56032 0.50495 0.0
H795 H 0.36175 0.49087 0.47922 0.0
H796 H 0.36171 0.54887 0.47468 0.0
C797 C 0.36088 0.54701 0.52344 0.0
C798 C 0.78939 0.11071 0.77609 0.0
C799 C 0.81036 0.11199 0.76033 0.0
H800 H 0.74068 0.11158 0.78585 0.0
C801 C 0.7972 0.11076 0.7418 0.0
H802 H 0.79864 0.11153 0.79056 0.0
C803 C 0.76388 0.11071 0.73908 0.0
C804 C 0.74292 0.112 0.75484 0.0
H805 H 0.8126 0.11156 0.72932 0.0
H806 H 0.75463 0.11154 0.72461 0.0
C807 C 0.75607 0.11076 0.77337 0.0
C808 C 0.86086 0.53931 0.02605 0.0
C809 C 0.86224 0.56033 0.01032 0.0
H810 H 0.86162 0.49056 0.03576 0.0
C811 C 0.86111 0.54725 0.99177 0.0
H812 H 0.8616 0.54851 0.04054 0.0
C813 C 0.86104 0.51394 0.98902 0.0
C814 C 0.86221 0.49292 1.00476 0.0
H815 H 0.862 0.56269 0.97932 0.0
H816 H 0.86194 0.50475 0.97454 0.0
C817 C 0.86089 0.506 0.0233 0.0
C818 C 0.25605 0.11077 0.7417 0.0
C819 C 0.24294 0.11201 0.76024 0.0
H820 H 0.29858 0.11157 0.72448 0.0
C821 C 0.26393 0.11075 0.77598 0.0
H822 H 0.24063 0.11157 0.72924 0.0
C823 C 0.29725 0.11082 0.77325 0.0
C824 C 0.31036 0.11205 0.7547 0.0
H825 H 0.25472 0.11158 0.79047 0.0
H826 H 0.31267 0.11165 0.78571 0.0
C827 C 0.28937 0.11075 0.73896 0.0
C828 C 0.69259 0.50608 0.49178 0.0
C829 C 0.69136 0.49283 0.51029 0.0
H830 H 0.6918 0.54873 0.47467 0.0
C831 C 0.69267 0.5137 0.52609 0.0
H832 H 0.69177 0.49075 0.47928 0.0
C833 C 0.69263 0.54703 0.52343 0.0
C834 C 0.69138 0.56029 0.50492 0.0
H835 H 0.69185 0.50437 0.54055 0.0
H836 H 0.69183 0.56236 0.53593 0.0
C837 C 0.69264 0.53941 0.48913 0.0
C838 C 0.25569 0.94259 0.27357 0.0
C839 C 0.24251 0.94128 0.25504 0.0
H840 H 0.29827 0.94184 0.29074 0.0
C841 C 0.26345 0.94249 0.23927 0.0
H842 H 0.2403 0.94183 0.28605 0.0
C843 C 0.29678 0.94244 0.24198 0.0
C844 C 0.30995 0.94125 0.26051 0.0
H845 H 0.25419 0.94161 0.2248 0.0
H846 H 0.31216 0.94156 0.2295 0.0
C847 C 0.28901 0.94262 0.27627 0.0
C848 C 0.6925 0.04709 0.49178 0.0
C849 C 0.69127 0.0603 0.5103 0.0
H850 H 0.69173 1.00448 0.47464 0.0
C851 C 0.69257 0.03939 0.52608 0.0
H852 H 0.69168 0.06246 0.47929 0.0
C853 C 0.69254 1.00606 0.52341 0.0
C854 C 0.69129 0.99286 0.50489 0.0
H855 H 0.69175 0.04868 0.54054 0.0
H856 H 0.69174 0.9907 0.5359 0.0
C857 C 0.69256 1.01377 0.48911 0.0
C858 C 0.26411 0.44224 0.77578 0.0
C859 C 0.24315 0.4409 0.76003 0.0
H860 H 0.31283 0.44145 0.78555 0.0
C861 C 0.25631 0.44211 0.74149 0.0
H862 H 0.25486 0.44144 0.79026 0.0
C863 C 0.28963 0.44218 0.73878 0.0
C864 C 0.31059 0.44095 0.75454 0.0
H865 H 0.24091 0.44126 0.72902 0.0
H866 H 0.29887 0.44134 0.72431 0.0
C867 C 0.29743 0.44222 0.77307 0.0
C868 C 0.86073 1.01382 0.02612 0.0
C869 C 0.86214 0.99287 0.01036 0.0
H870 H 0.86147 0.06253 0.03589 0.0
C871 C 0.86102 1.00604 0.99183 0.0
H872 H 0.86147 1.00456 0.0406 0.0
C873 C 0.86095 0.03936 0.98912 0.0
C874 C 0.8621 0.06031 1.00488 0.0
H875 H 0.86193 0.99066 0.97935 0.0
H876 H 0.86187 0.04862 0.97465 0.0
C877 C 0.86076 0.04714 0.02341 0.0
C878 C 0.28909 0.61071 0.27642 0.0
C879 C 0.31003 0.61202 0.26065 0.0
H880 H 0.24038 0.61154 0.2862 0.0
C881 C 0.29685 0.6108 0.24212 0.0
H882 H 0.29836 0.61152 0.29089 0.0
C883 C 0.26353 0.61075 0.23942 0.0
C884 C 0.24259 0.61201 0.25519 0.0
H885 H 0.31223 0.61163 0.22964 0.0
H886 H 0.25426 0.61159 0.22495 0.0
C887 C 0.25576 0.61074 0.27372 0.0
C888 C 0.36082 0.04708 0.49172 0.0
C889 C 0.36206 0.06035 0.51023 0.0
H890 H 0.36162 1.00441 0.47464 0.0
C891 C 0.36075 0.03949 0.52603 0.0
H892 H 0.36165 0.0624 0.47921 0.0
C893 C 0.36079 1.00616 0.5234 0.0
C894 C 0.36205 0.99289 0.5049 0.0
H895 H 0.36156 0.04883 0.54049 0.0
H896 H 0.36159 0.99084 0.53591 0.0
C897 C 0.36078 1.01375 0.48909 0.0
C898 C 0.76355 0.6107 0.27631 0.0
C899 C 0.74261 0.612 0.26055 0.0
H900 H 0.81225 0.61154 0.2861 0.0
C901 C 0.75579 0.61077 0.24202 0.0
H902 H 0.75428 0.61152 0.29079 0.0
C903 C 0.78911 0.61072 0.23933 0.0
C904 C 0.81005 0.61199 0.25509 0.0
H905 H 0.74041 0.61159 0.22954 0.0
H906 H 0.79838 0.61156 0.22485 0.0
C907 C 0.79687 0.61074 0.27362 0.0
C908 C 0.19234 1.01383 0.02619 0.0
C909 C 0.19094 0.99287 0.01044 0.0
H910 H 0.19161 0.06255 0.03594 0.0
C911 C 0.19208 1.00602 0.9919 0.0
H912 H 0.19159 1.00458 0.04067 0.0
C913 C 0.19217 0.03934 0.98918 0.0
C914 C 0.19101 0.0603 1.00493 0.0
H915 H 0.19118 0.99062 0.97943 0.0
H916 H 0.19127 0.04858 0.9747 0.0
C917 C 0.19233 0.04715 0.02347 0.0
C918 C 0.79743 0.44207 0.74154 0.0
C919 C 0.81063 0.4409 0.76007 0.0
H920 H 0.75483 0.44127 0.72439 0.0
C921 C 0.7897 0.44226 0.77584 0.0
H922 H 0.8128 0.4412 0.72906 0.0
C923 C 0.75637 0.44223 0.77315 0.0
C924 C 0.74318 0.44094 0.75463 0.0
H925 H 0.79898 0.44149 0.79031 0.0
H926 H 0.741 0.44149 0.78564 0.0
C927 C 0.76411 0.44214 0.73885 0.0
C928 C 0.20459 0.79337 0.0462 0.0
C929 C 0.19615 0.8106 0.02965 0.0
H930 H 0.20906 0.74749 0.0596 0.0
C931 C 0.19107 0.79347 0.01255 0.0
H932 H 0.20905 0.80576 0.05957 0.0
C933 C 0.19108 0.75971 0.01257 0.0
C934 C 0.19616 0.74261 0.02968 0.0
H935 H 0.18446 0.80599 0.99955 0.0
H936 H 0.18448 0.74717 0.99958 0.0
C937 C 0.20459 0.75986 0.04622 0.0
C938 C 0.54311 0.94094 0.26269 0.0
C939 C 0.56025 0.94554 0.27984 0.0
H940 H 0.4968 0.93476 0.24965 0.0
C941 C 0.54303 0.95346 0.29648 0.0
H942 H 0.55563 0.93475 0.24963 0.0
C943 C 0.50952 0.95347 0.29649 0.0
C944 C 0.49225 0.94556 0.27987 0.0
H945 H 0.55543 0.95755 0.30989 0.0
H946 H 0.49716 0.95757 0.30991 0.0
C947 C 0.50935 0.94095 0.26271 0.0
C948 C 0.34949 0.25985 0.54598 0.0
C949 C 0.35751 0.2426 0.52937 0.0
H950 H 0.34534 0.30573 0.55938 0.0
C951 C 0.36221 0.25972 0.51222 0.0
H952 H 0.34531 0.24747 0.55939 0.0
C953 C 0.36223 0.29348 0.51221 0.0
C954 C 0.35754 0.31059 0.52936 0.0
H955 H 0.36849 0.24718 0.49917 0.0
H956 H 0.36852 0.306 0.49916 0.0
C957 C 0.3495 0.29335 0.54597 0.0
C958 C 1.00992 0.09893 0.79619 0.0
C959 C 0.99266 0.10709 0.7796 0.0
H960 H 0.05581 0.0947 0.80959 0.0
C961 C 1.00977 0.11192 0.76247 0.0
H962 H 0.99755 0.09466 0.80959 0.0
C963 C 0.04353 0.11194 0.76246 0.0
C964 C 0.06066 0.10713 0.7796 0.0
H965 H 0.99723 0.1183 0.74944 0.0
H966 H 0.05606 0.11834 0.74943 0.0
C967 C 0.04343 0.09895 0.79619 0.0
C968 C 0.2036 0.25981 0.9688 0.0
C969 C 0.19565 0.2426 0.98545 0.0
H970 H 0.20775 0.30565 0.95535 0.0
C971 C 0.19104 0.25976 1.00258 0.0
H972 H 0.2077 0.24739 0.9554 0.0
C973 C 0.19107 0.29352 1.00255 0.0
C974 C 0.1957 0.3106 0.98538 0.0
H975 H 0.18481 0.24726 0.01565 0.0
H976 H 0.18486 0.30609 0.0156 0.0
C977 C 0.20364 0.29331 0.96877 0.0
C978 C 1.00935 0.94106 0.25265 0.0
C979 C 0.99224 0.94545 0.23547 0.0
H980 H 0.05563 0.93504 0.26576 0.0
C981 C 1.0095 0.95314 0.21881 0.0
H982 H 0.9968 0.93504 0.26574 0.0
C983 C 0.043 0.95315 0.21882 0.0
C984 C 0.06024 0.94545 0.23549 0.0
H985 H 0.99713 0.95707 0.20537 0.0
H986 H 0.05539 0.95708 0.20539 0.0
C987 C 0.04311 0.94106 0.25267 0.0
C988 C 0.34982 0.75984 0.46915 0.0
C989 C 0.35776 0.74261 0.48579 0.0
H990 H 0.34571 0.80571 0.45572 0.0
C991 C 0.36237 0.75974 0.50294 0.0
H992 H 0.34573 0.74745 0.45575 0.0
C993 C 0.36235 0.7935 0.50293 0.0
C994 C 0.35774 0.8106 0.48576 0.0
H995 H 0.36858 0.74722 0.51601 0.0
H996 H 0.36856 0.80604 0.51598 0.0
C997 C 0.34981 0.79334 0.46914 0.0
C998 C 0.50994 0.09917 0.71879 0.0
C999 C 0.49265 0.10726 0.73538 0.0
H1000 H 0.55585 0.09497 0.70543 0.0
C1001 C 0.50974 0.11204 0.75253 0.0
H1002 H 0.49759 0.09494 0.70538 0.0
C1003 C 0.5435 0.11206 0.75256 0.0
C1004 C 0.56065 0.1073 0.73543 0.0
H1005 H 0.49717 0.11838 0.76556 0.0
H1006 H 0.556 0.11841 0.7656 0.0
C1007 C 0.54345 0.09919 0.71882 0.0
C1008 C 0.84965 0.29332 0.96872 0.0
C1009 C 0.85758 0.31061 0.98533 0.0
H1010 H 0.84555 0.24741 0.95535 0.0
C1011 C 0.86218 0.29353 1.0025 0.0
H1012 H 0.84556 0.30567 0.95529 0.0
C1013 C 0.86217 0.25977 1.00254 0.0
C1014 C 0.85757 0.24261 0.9854 0.0
H1015 H 0.86838 0.3061 0.01555 0.0
H1016 H 0.86837 0.24727 0.01562 0.0
C1017 C 0.84965 0.25982 0.96875 0.0
C1018 C 0.70355 0.79332 0.46897 0.0
C1019 C 0.69567 0.81058 0.4856 0.0
H1020 H 0.70762 0.74744 0.45557 0.0
C1021 C 0.69111 0.79347 0.50277 0.0
H1022 H 0.70761 0.80569 0.45555 0.0
C1023 C 0.69113 0.75971 0.50278 0.0
C1024 C 0.69569 0.74258 0.48563 0.0
H1025 H 0.68495 0.80601 0.51583 0.0
H1026 H 0.68496 0.74718 0.51586 0.0
C1027 C 0.70356 0.75982 0.46898 0.0
C1028 C 0.84846 0.75984 0.04607 0.0
C1029 C 0.85695 0.74259 0.02954 0.0
H1030 H 0.84395 0.80573 0.05942 0.0
C1031 C 0.86207 0.7597 0.01243 0.0
H1032 H 0.84397 0.74747 0.05944 0.0
C1033 C 0.86206 0.79346 0.01242 0.0
C1034 C 0.85693 0.81058 0.02952 0.0
H1035 H 0.86871 0.74716 0.99945 0.0
H1036 H 0.8687 0.80599 0.99943 0.0
C1037 C 0.84845 0.79335 0.04606 0.0
C1038 C 0.69119 0.29342 0.51238 0.0
C1039 C 0.69587 0.31054 0.52952 0.0
H1040 H 0.6849 0.24713 0.49934 0.0
C1041 C 0.70386 0.2933 0.54615 0.0
H1042 H 0.68493 0.30596 0.49932 0.0
C1043 C 0.70384 0.25979 0.54616 0.0
C1044 C 0.69583 0.24255 0.52954 0.0
H1045 H 0.70801 0.30568 0.55955 0.0
H1046 H 0.70798 0.24742 0.55957 0.0
C1047 C 0.69117 0.25966 0.51239 0.0
C1048 C 1.01014 0.45398 0.79588 0.0
C1049 C 0.99289 0.44576 0.7793 0.0
H1050 H 0.05602 0.45829 0.80928 0.0
C1051 C 1.01001 0.44088 0.76217 0.0
H1052 H 0.99776 0.45829 0.80927 0.0
C1053 C 0.04378 0.44089 0.76218 0.0
C1054 C 0.06089 0.44577 0.77931 0.0
H1055 H 0.99748 0.43445 0.74915 0.0
H1056 H 0.05631 0.43446 0.74916 0.0
C1057 C 0.04365 0.45399 0.79588 0.0
C1058 C 0.50943 0.61231 0.26283 0.0
C1059 C 0.49234 0.60774 0.28 0.0
H1060 H 0.55571 0.61849 0.24974 0.0
C1061 C 0.50961 0.59984 0.29663 0.0
H1062 H 0.49687 0.61849 0.24977 0.0
C1063 C 0.54312 0.59984 0.29661 0.0
C1064 C 0.56034 0.60773 0.27996 0.0
H1065 H 0.49726 0.59577 0.31005 0.0
H1066 H 0.55552 0.59577 0.31002 0.0
C1067 C 0.54319 0.61231 0.26281 0.0
C1068 C 0.50998 0.44099 0.75245 0.0
C1069 C 0.49289 0.44574 0.73529 0.0
H1070 H 0.55625 0.43465 0.76552 0.0
C1071 C 0.51017 0.45383 0.7187 0.0
H1072 H 0.49742 0.43466 0.76548 0.0
C1073 C 0.54368 0.45382 0.71872 0.0
C1074 C 0.56089 0.44573 0.73534 0.0
H1075 H 0.49782 0.45805 0.70529 0.0
H1076 H 0.55608 0.45803 0.70533 0.0
C1077 C 0.54374 0.44098 0.75247 0.0
C1078 C 1.00959 0.60008 0.21896 0.0
C1079 C 0.99233 0.60782 0.23562 0.0
H1080 H 0.05548 0.59612 0.20555 0.0
C1081 C 1.00943 0.61225 0.2528 0.0
H1082 H 0.99722 0.59613 0.20553 0.0
C1083 C 0.0432 0.61224 0.25281 0.0
C1084 C 0.06033 0.60781 0.23564 0.0
H1085 H 0.99689 0.6183 0.26588 0.0
H1086 H 0.05572 0.61829 0.2659 0.0
C1087 C 0.04309 0.60007 0.21897 0.0
loop_
_geom_bond_atom_site_label_1
_geom_bond_atom_site_label_2
_geom_bond_distance
_geom_bond_site_symmetry_2
_ccdc_geom_bond_type
O0 Cd1 2.223 . S
O0 C8 1.315 . S
Cd1 O0 2.223 . S
Cd1 O4 2.297 1_554 S
Cd1 O5 2.439 . S
Cd1 O11 2.240 . S
Cd2 O3 2.240 . S
Cd2 O10 2.223 . S
Cd2 O12 2.297 . S
Cd2 O13 2.439 . S
O3 Cd2 2.240 . S
O3 C8 1.279 . S
O4 Cd1 2.297 1_556 S
O4 C6 1.247 1_556 S
O5 Cd1 2.439 . S
O5 C6 1.208 . S
C6 O4 1.247 1_554 S
C6 O5 1.208 . S
C7 O12 1.247 . S
C7 O13 1.208 . S
C8 O0 1.315 . S
C8 O3 1.279 . S
C9 O10 1.315 . S
C9 O11 1.279 . S
O10 Cd2 2.223 . S
O10 C9 1.315 . S
O11 Cd1 2.240 . S
O11 C9 1.279 . S
O12 Cd2 2.297 . S
O12 C7 1.247 . S
O13 Cd2 2.439 . S
O13 C7 1.208 . S
O14 Cd15 2.223 . S
O14 C22 1.315 . S
Cd15 O14 2.223 . S
Cd15 O18 2.297 . S
Cd15 O19 2.439 . S
Cd15 O25 2.240 . S
Cd16 O17 2.240 . S
Cd16 O24 2.223 . S
Cd16 O26 2.297 . S
Cd16 O27 2.439 . S
O17 Cd16 2.240 . S
O17 C22 1.279 . S
O18 Cd15 2.297 . S
O18 C20 1.247 . S
O19 Cd15 2.439 . S
O19 C20 1.208 . S
C20 O18 1.247 . S
C20 O19 1.208 . S
C21 O26 1.247 . S
C21 O27 1.208 . S
C22 O14 1.315 . S
C22 O17 1.279 . S
C23 O24 1.315 . S
C23 O25 1.279 . S
O24 Cd16 2.223 . S
O24 C23 1.315 . S
O25 Cd15 2.240 . S
O25 C23 1.279 . S
O26 Cd16 2.297 . S
O26 C21 1.247 . S
O27 Cd16 2.439 . S
O27 C21 1.208 . S
O28 Cd29 2.223 . S
O28 C36 1.315 . S
Cd29 O28 2.223 . S
Cd29 O32 2.297 . S
Cd29 O33 2.439 . S
Cd29 O39 2.240 . S
Cd30 O31 2.240 . S
Cd30 O38 2.223 . S
Cd30 O40 2.297 . S
Cd30 O41 2.439 . S
O31 Cd30 2.240 . S
O31 C36 1.279 . S
O32 Cd29 2.297 . S
O32 C34 1.247 . S
O33 Cd29 2.439 . S
O33 C34 1.208 . S
C34 O32 1.247 . S
C34 O33 1.208 . S
C35 O40 1.247 . S
C35 O41 1.208 . S
C36 O28 1.315 . S
C36 O31 1.279 . S
C37 O38 1.315 . S
C37 O39 1.279 . S
O38 Cd30 2.223 . S
O38 C37 1.315 . S
O39 Cd29 2.240 . S
O39 C37 1.279 . S
O40 Cd30 2.297 . S
O40 C35 1.247 . S
O41 Cd30 2.439 . S
O41 C35 1.208 . S
O42 Cd43 2.223 . S
O42 C50 1.315 . S
Cd43 O42 2.223 . S
Cd43 O46 2.297 . S
Cd43 O47 2.439 . S
Cd43 O53 2.240 . S
Cd44 O45 2.240 . S
Cd44 O52 2.223 . S
Cd44 O54 2.297 . S
Cd44 O55 2.439 . S
O45 Cd44 2.240 . S
O45 C50 1.279 . S
O46 Cd43 2.297 . S
O46 C48 1.247 . S
O47 Cd43 2.439 . S
O47 C48 1.208 . S
C48 O46 1.247 . S
C48 O47 1.208 . S
C49 O54 1.247 . S
C49 O55 1.208 . S
C50 O42 1.315 . S
C50 O45 1.279 . S
C51 O52 1.315 . S
C51 O53 1.279 . S
O52 Cd44 2.223 . S
O52 C51 1.315 . S
O53 Cd43 2.240 . S
O53 C51 1.279 . S
O54 Cd44 2.297 . S
O54 C49 1.247 . S
O55 Cd44 2.439 . S
O55 C49 1.208 . S
O56 Cd57 2.223 . S
O56 C64 1.315 . S
Cd57 O56 2.223 . S
Cd57 O60 2.297 1_556 S
Cd57 O61 2.439 . S
Cd57 O67 2.240 . S
Cd58 O59 2.240 . S
Cd58 O66 2.223 . S
Cd58 O68 2.297 . S
Cd58 O69 2.439 . S
O59 Cd58 2.240 . S
O59 C64 1.279 . S
O60 Cd57 2.297 1_554 S
O60 C62 1.247 1_554 S
O61 Cd57 2.439 . S
O61 C62 1.208 . S
C62 O60 1.247 1_556 S
C62 O61 1.208 . S
C63 O68 1.247 . S
C63 O69 1.208 . S
C64 O56 1.315 . S
C64 O59 1.279 . S
C65 O66 1.315 . S
C65 O67 1.279 . S
O66 Cd58 2.223 . S
O66 C65 1.315 . S
O67 Cd57 2.240 . S
O67 C65 1.279 . S
O68 Cd58 2.297 . S
O68 C63 1.247 . S
O69 Cd58 2.439 . S
O69 C63 1.208 . S
O70 Cd71 2.223 . S
O70 C78 1.315 . S
Cd71 O70 2.223 . S
Cd71 O74 2.297 . S
Cd71 O75 2.439 . S
Cd71 O81 2.240 . S
Cd72 O73 2.240 . S
Cd72 O80 2.223 . S
Cd72 O82 2.297 . S
Cd72 O83 2.439 . S
O73 Cd72 2.240 . S
O73 C78 1.279 . S
O74 Cd71 2.297 . S
O74 C76 1.247 . S
O75 Cd71 2.439 . S
O75 C76 1.208 . S
C76 O74 1.247 . S
C76 O75 1.208 . S
C77 O82 1.247 . S
C77 O83 1.208 . S
C78 O70 1.315 . S
C78 O73 1.279 . S
C79 O80 1.315 . S
C79 O81 1.279 . S
O80 Cd72 2.223 . S
O80 C79 1.315 . S
O81 Cd71 2.240 . S
O81 C79 1.279 . S
O82 Cd72 2.297 . S
O82 C77 1.247 . S
O83 Cd72 2.439 . S
O83 C77 1.208 . S
O84 Cd85 2.223 . S
O84 C92 1.315 . S
Cd85 O84 2.223 . S
Cd85 O88 2.297 . S
Cd85 O89 2.439 . S
Cd85 O95 2.240 . S
Cd86 O87 2.240 . S
Cd86 O94 2.223 . S
Cd86 O96 2.297 . S
Cd86 O97 2.439 . S
O87 Cd86 2.240 . S
O87 C92 1.279 . S
O88 Cd85 2.297 . S
O88 C90 1.247 . S
O89 Cd85 2.439 . S
O89 C90 1.208 . S
C90 O88 1.247 . S
C90 O89 1.208 . S
C91 O96 1.247 . S
C91 O97 1.208 . S
C92 O84 1.315 . S
C92 O87 1.279 . S
C93 O94 1.315 . S
C93 O95 1.279 . S
O94 Cd86 2.223 . S
O94 C93 1.315 . S
O95 Cd85 2.240 . S
O95 C93 1.279 . S
O96 Cd86 2.297 . S
O96 C91 1.247 . S
O97 Cd86 2.439 . S
O97 C91 1.208 . S
O98 Cd99 2.223 . S
O98 C106 1.315 . S
Cd99 O98 2.223 . S
Cd99 O102 2.297 . S
Cd99 O103 2.439 . S
Cd99 O109 2.240 . S
Cd100 O101 2.240 . S
Cd100 O108 2.223 . S
Cd100 O110 2.297 . S
Cd100 O111 2.439 . S
O101 Cd100 2.240 . S
O101 C106 1.279 . S
O102 Cd99 2.297 . S
O102 C104 1.247 . S
O103 Cd99 2.439 . S
O103 C104 1.208 . S
C104 O102 1.247 . S
C104 O103 1.208 . S
C105 O110 1.247 . S
C105 O111 1.208 . S
C106 O98 1.315 . S
C106 O101 1.279 . S
C107 O108 1.315 . S
C107 O109 1.279 . S
O108 Cd100 2.223 . S
O108 C107 1.315 . S
O109 Cd99 2.240 . S
O109 C107 1.279 . S
O110 Cd100 2.297 . S
O110 C105 1.247 . S
O111 Cd100 2.439 . S
O111 C105 1.208 . S
O112 Cd113 2.223 . S
O112 C120 1.315 . S
Cd113 O112 2.223 . S
Cd113 O116 2.297 1_556 S
Cd113 O117 2.439 . S
Cd113 O123 2.240 . S
Cd114 O115 2.240 . S
Cd114 O122 2.223 . S
Cd114 O124 2.297 . S
Cd114 O125 2.439 . S
O115 Cd114 2.240 . S
O115 C120 1.279 . S
O116 Cd113 2.297 1_554 S
O116 C118 1.247 1_554 S
O117 Cd113 2.439 . S
O117 C118 1.208 . S
C118 O116 1.247 1_556 S
C118 O117 1.208 . S
C119 O124 1.247 . S
C119 O125 1.208 . S
C120 O112 1.315 . S
C120 O115 1.279 . S
C121 O122 1.315 . S
C121 O123 1.279 . S
O122 Cd114 2.223 . S
O122 C121 1.315 . S
O123 Cd113 2.240 . S
O123 C121 1.279 . S
O124 Cd114 2.297 . S
O124 C119 1.247 . S
O125 Cd114 2.439 . S
O125 C119 1.208 . S
O126 Cd127 2.223 . S
O126 C134 1.315 . S
Cd127 O126 2.223 . S
Cd127 O130 2.297 . S
Cd127 O131 2.439 . S
Cd127 O137 2.240 . S
Cd128 O129 2.240 . S
Cd128 O136 2.223 . S
Cd128 O138 2.297 . S
Cd128 O139 2.439 . S
O129 Cd128 2.240 . S
O129 C134 1.279 . S
O130 Cd127 2.297 . S
O130 C132 1.247 . S
O131 Cd127 2.439 . S
O131 C132 1.208 . S
C132 O130 1.247 . S
C132 O131 1.208 . S
C133 O138 1.247 . S
C133 O139 1.208 . S
C134 O126 1.315 . S
C134 O129 1.279 . S
C135 O136 1.315 . S
C135 O137 1.279 . S
O136 Cd128 2.223 . S
O136 C135 1.315 . S
O137 Cd127 2.240 . S
O137 C135 1.279 . S
O138 Cd128 2.297 . S
O138 C133 1.247 . S
O139 Cd128 2.439 . S
O139 C133 1.208 . S
O140 Cd141 2.223 . S
O140 C148 1.315 . S
Cd141 O140 2.223 . S
Cd141 O144 2.297 . S
Cd141 O145 2.439 . S
Cd141 O151 2.240 . S
Cd142 O143 2.240 . S
Cd142 O150 2.223 . S
Cd142 O152 2.297 . S
Cd142 O153 2.439 . S
O143 Cd142 2.240 . S
O143 C148 1.279 . S
O144 Cd141 2.297 . S
O144 C146 1.247 . S
O145 Cd141 2.439 . S
O145 C146 1.208 . S
C146 O144 1.247 . S
C146 O145 1.208 . S
C147 O152 1.247 . S
C147 O153 1.208 . S
C148 O140 1.315 . S
C148 O143 1.279 . S
C149 O150 1.315 . S
C149 O151 1.279 . S
O150 Cd142 2.223 . S
O150 C149 1.315 . S
O151 Cd141 2.240 . S
O151 C149 1.279 . S
O152 Cd142 2.297 . S
O152 C147 1.247 . S
O153 Cd142 2.439 . S
O153 C147 1.208 . S
O154 Cd155 2.223 . S
O154 C162 1.315 . S
Cd155 O154 2.223 . S
Cd155 O158 2.297 . S
Cd155 O159 2.439 . S
Cd155 O165 2.240 . S
Cd156 O157 2.240 . S
Cd156 O164 2.223 . S
Cd156 O166 2.297 . S
Cd156 O167 2.439 . S
O157 Cd156 2.240 . S
O157 C162 1.279 . S
O158 Cd155 2.297 . S
O158 C160 1.247 . S
O159 Cd155 2.439 . S
O159 C160 1.208 . S
C160 O158 1.247 . S
C160 O159 1.208 . S
C161 O166 1.247 . S
C161 O167 1.208 . S
C162 O154 1.315 . S
C162 O157 1.279 . S
C163 O164 1.315 . S
C163 O165 1.279 . S
O164 Cd156 2.223 . S
O164 C163 1.315 . S
O165 Cd155 2.240 . S
O165 C163 1.279 . S
O166 Cd156 2.297 . S
O166 C161 1.247 . S
O167 Cd156 2.439 . S
O167 C161 1.208 . S
O168 Cd169 2.223 . S
O168 C176 1.315 . S
Cd169 O168 2.223 . S
Cd169 O172 2.297 1_554 S
Cd169 O173 2.439 . S
Cd169 O179 2.240 . S
Cd170 O171 2.240 . S
Cd170 O178 2.223 . S
Cd170 O180 2.297 . S
Cd170 O181 2.439 . S
O171 Cd170 2.240 . S
O171 C176 1.279 . S
O172 Cd169 2.297 1_556 S
O172 C174 1.247 1_556 S
O173 Cd169 2.439 . S
O173 C174 1.208 . S
C174 O172 1.247 1_554 S
C174 O173 1.208 . S
C175 O180 1.247 . S
C175 O181 1.208 . S
C176 O168 1.315 . S
C176 O171 1.279 . S
C177 O178 1.315 . S
C177 O179 1.279 . S
O178 Cd170 2.223 . S
O178 C177 1.315 . S
O179 Cd169 2.240 . S
O179 C177 1.279 . S
O180 Cd170 2.297 . S
O180 C175 1.247 . S
O181 Cd170 2.439 . S
O181 C175 1.208 . S
O182 Cd183 2.223 . S
O182 C190 1.315 . S
Cd183 O182 2.223 . S
Cd183 O186 2.297 . S
Cd183 O187 2.439 . S
Cd183 O193 2.240 . S
Cd184 O185 2.240 . S
Cd184 O192 2.223 . S
Cd184 O194 2.297 . S
Cd184 O195 2.439 . S
O185 Cd184 2.240 . S
O185 C190 1.279 . S
O186 Cd183 2.297 . S
O186 C188 1.247 . S
O187 Cd183 2.439 . S
O187 C188 1.208 . S
C188 O186 1.247 . S
C188 O187 1.208 . S
C189 O194 1.247 . S
C189 O195 1.208 . S
C190 O182 1.315 . S
C190 O185 1.279 . S
C191 O192 1.315 . S
C191 O193 1.279 . S
O192 Cd184 2.223 . S
O192 C191 1.315 . S
O193 Cd183 2.240 . S
O193 C191 1.279 . S
O194 Cd184 2.297 . S
O194 C189 1.247 . S
O195 Cd184 2.439 . S
O195 C189 1.208 . S
O196 Cd197 2.223 . S
O196 C204 1.315 . S
Cd197 O196 2.223 . S
Cd197 O200 2.297 . S
Cd197 O201 2.439 . S
Cd197 O207 2.240 . S
Cd198 O199 2.240 . S
Cd198 O206 2.223 . S
Cd198 O208 2.297 . S
Cd198 O209 2.439 . S
O199 Cd198 2.240 . S
O199 C204 1.279 . S
O200 Cd197 2.297 . S
O200 C202 1.247 . S
O201 Cd197 2.439 . S
O201 C202 1.208 . S
C202 O200 1.247 . S
C202 O201 1.208 . S
C203 O208 1.247 . S
C203 O209 1.208 . S
C204 O196 1.315 . S
C204 O199 1.279 . S
C205 O206 1.315 . S
C205 O207 1.279 . S
O206 Cd198 2.223 . S
O206 C205 1.315 . S
O207 Cd197 2.240 . S
O207 C205 1.279 . S
O208 Cd198 2.297 . S
O208 C203 1.247 . S
O209 Cd198 2.439 . S
O209 C203 1.208 . S
O210 Cd211 2.223 . S
O210 C218 1.315 . S
Cd211 O210 2.223 . S
Cd211 O214 2.297 . S
Cd211 O215 2.439 . S
Cd211 O221 2.240 . S
Cd212 O213 2.240 . S
Cd212 O220 2.223 . S
Cd212 O222 2.297 . S
Cd212 O223 2.439 . S
O213 Cd212 2.240 . S
O213 C218 1.279 . S
O214 Cd211 2.297 . S
O214 C216 1.247 . S
O215 Cd211 2.439 . S
O215 C216 1.208 . S
C216 O214 1.247 . S
C216 O215 1.208 . S
C217 O222 1.247 . S
C217 O223 1.208 . S
C218 O210 1.315 . S
C218 O213 1.279 . S
C219 O220 1.315 . S
C219 O221 1.279 . S
O220 Cd212 2.223 . S
O220 C219 1.315 . S
O221 Cd211 2.240 . S
O221 C219 1.279 . S
O222 Cd212 2.297 . S
O222 C217 1.247 . S
O223 Cd212 2.439 . S
O223 C217 1.208 . S
O224 Cd225 2.223 . S
O224 C232 1.315 . S
Cd225 O224 2.223 . S
Cd225 O228 2.297 . S
Cd225 O229 2.439 . S
Cd225 O235 2.240 . S
Cd226 O227 2.240 . S
Cd226 O234 2.223 . S
Cd226 O236 2.297 . S
Cd226 O237 2.439 . S
O227 Cd226 2.240 . S
O227 C232 1.279 . S
O228 Cd225 2.297 . S
O228 C230 1.247 . S
O229 Cd225 2.439 . S
O229 C230 1.208 . S
C230 O228 1.247 . S
C230 O229 1.208 . S
C231 O236 1.247 . S
C231 O237 1.208 . S
C232 O224 1.315 . S
C232 O227 1.279 . S
C233 O234 1.315 . S
C233 O235 1.279 . S
O234 Cd226 2.223 . S
O234 C233 1.315 . S
O235 Cd225 2.240 . S
O235 C233 1.279 . S
O236 Cd226 2.297 . S
O236 C231 1.247 . S
O237 Cd226 2.439 . S
O237 C231 1.208 . S
O238 Cd239 2.223 . S
O238 C246 1.315 . S
Cd239 O238 2.223 . S
Cd239 O242 2.297 . S
Cd239 O243 2.439 . S
Cd239 O249 2.240 . S
Cd240 O241 2.240 . S
Cd240 O248 2.223 . S
Cd240 O250 2.297 . S
Cd240 O251 2.439 . S
O241 Cd240 2.240 . S
O241 C246 1.279 . S
O242 Cd239 2.297 . S
O242 C244 1.247 . S
O243 Cd239 2.439 . S
O243 C244 1.208 . S
C244 O242 1.247 . S
C244 O243 1.208 . S
C245 O250 1.247 . S
C245 O251 1.208 . S
C246 O238 1.315 . S
C246 O241 1.279 . S
C247 O248 1.315 . S
C247 O249 1.279 . S
O248 Cd240 2.223 . S
O248 C247 1.315 . S
O249 Cd239 2.240 . S
O249 C247 1.279 . S
O250 Cd240 2.297 . S
O250 C245 1.247 . S
O251 Cd240 2.439 . S
O251 C245 1.208 . S
O252 Cd253 2.223 . S
O252 C260 1.315 . S
Cd253 O252 2.223 . S
Cd253 O256 2.297 1_554 S
Cd253 O257 2.439 . S
Cd253 O263 2.240 . S
Cd254 O255 2.240 . S
Cd254 O262 2.223 . S
Cd254 O264 2.297 . S
Cd254 O265 2.439 . S
O255 Cd254 2.240 . S
O255 C260 1.279 . S
O256 Cd253 2.297 1_556 S
O256 C258 1.247 1_556 S
O257 Cd253 2.439 . S
O257 C258 1.208 . S
C258 O256 1.247 1_554 S
C258 O257 1.208 . S
C259 O264 1.247 . S
C259 O265 1.208 . S
C260 O252 1.315 . S
C260 O255 1.279 . S
C261 O262 1.315 . S
C261 O263 1.279 . S
O262 Cd254 2.223 . S
O262 C261 1.315 . S
O263 Cd253 2.240 . S
O263 C261 1.279 . S
O264 Cd254 2.297 . S
O264 C259 1.247 . S
O265 Cd254 2.439 . S
O265 C259 1.208 . S
O266 Cd267 2.223 . S
O266 C274 1.315 . S
Cd267 O266 2.223 . S
Cd267 O270 2.297 . S
Cd267 O271 2.439 . S
Cd267 O277 2.240 . S
Cd268 O269 2.240 . S
Cd268 O276 2.223 . S
Cd268 O278 2.297 . S
Cd268 O279 2.439 . S
O269 Cd268 2.240 . S
O269 C274 1.279 . S
O270 Cd267 2.297 . S
O270 C272 1.247 . S
O271 Cd267 2.439 . S
O271 C272 1.208 . S
C272 O270 1.247 . S
C272 O271 1.208 . S
C273 O278 1.247 . S
C273 O279 1.208 . S
C274 O266 1.315 . S
C274 O269 1.279 . S
C275 O276 1.315 . S
C275 O277 1.279 . S
O276 Cd268 2.223 . S
O276 C275 1.315 . S
O277 Cd267 2.240 . S
O277 C275 1.279 . S
O278 Cd268 2.297 . S
O278 C273 1.247 . S
O279 Cd268 2.439 . S
O279 C273 1.208 . S
O280 Cd281 2.223 . S
O280 C288 1.315 . S
Cd281 O280 2.223 . S
Cd281 O284 2.297 . S
Cd281 O285 2.439 . S
Cd281 O291 2.240 . S
Cd282 O283 2.240 . S
Cd282 O290 2.223 . S
Cd282 O292 2.297 . S
Cd282 O293 2.439 . S
O283 Cd282 2.240 . S
O283 C288 1.279 . S
O284 Cd281 2.297 . S
O284 C286 1.247 . S
O285 Cd281 2.439 . S
O285 C286 1.208 . S
C286 O284 1.247 . S
C286 O285 1.208 . S
C287 O292 1.247 . S
C287 O293 1.208 . S
C288 O280 1.315 . S
C288 O283 1.279 . S
C289 O290 1.315 . S
C289 O291 1.279 . S
O290 Cd282 2.223 . S
O290 C289 1.315 . S
O291 Cd281 2.240 . S
O291 C289 1.279 . S
O292 Cd282 2.297 . S
O292 C287 1.247 . S
O293 Cd282 2.439 . S
O293 C287 1.208 . S
O294 Cd295 2.223 . S
O294 C302 1.315 . S
Cd295 O294 2.223 . S
Cd295 O298 2.297 . S
Cd295 O299 2.439 . S
Cd295 O305 2.240 . S
Cd296 O297 2.240 . S
Cd296 O304 2.223 . S
Cd296 O306 2.297 . S
Cd296 O307 2.439 . S
O297 Cd296 2.240 . S
O297 C302 1.279 . S
O298 Cd295 2.297 . S
O298 C300 1.247 . S
O299 Cd295 2.439 . S
O299 C300 1.208 . S
C300 O298 1.247 . S
C300 O299 1.208 . S
C301 O306 1.247 . S
C301 O307 1.208 . S
C302 O294 1.315 . S
C302 O297 1.279 . S
C303 O304 1.315 . S
C303 O305 1.279 . S
O304 Cd296 2.223 . S
O304 C303 1.315 . S
O305 Cd295 2.240 . S
O305 C303 1.279 . S
O306 Cd296 2.297 . S
O306 C301 1.247 . S
O307 Cd296 2.439 . S
O307 C301 1.208 . S
O308 Cd309 2.223 . S
O308 C316 1.315 . S
Cd309 O308 2.223 . S
Cd309 O312 2.297 1_556 S
Cd309 O313 2.439 . S
Cd309 O319 2.240 . S
Cd310 O311 2.240 . S
Cd310 O318 2.223 . S
Cd310 O320 2.297 . S
Cd310 O321 2.439 . S
O311 Cd310 2.240 . S
O311 C316 1.279 . S
O312 Cd309 2.297 1_554 S
O312 C314 1.247 1_554 S
O313 Cd309 2.439 . S
O313 C314 1.208 . S
C314 O312 1.247 1_556 S
C314 O313 1.208 . S
C315 O320 1.247 . S
C315 O321 1.208 . S
C316 O308 1.315 . S
C316 O311 1.279 . S
C317 O318 1.315 . S
C317 O319 1.279 . S
O318 Cd310 2.223 . S
O318 C317 1.315 . S
O319 Cd309 2.240 . S
O319 C317 1.279 . S
O320 Cd310 2.297 . S
O320 C315 1.247 . S
O321 Cd310 2.439 . S
O321 C315 1.208 . S
O322 Cd323 2.223 . S
O322 C330 1.315 . S
Cd323 O322 2.223 . S
Cd323 O326 2.297 . S
Cd323 O327 2.439 . S
Cd323 O333 2.240 . S
Cd324 O325 2.240 . S
Cd324 O332 2.223 . S
Cd324 O334 2.297 . S
Cd324 O335 2.439 . S
O325 Cd324 2.240 . S
O325 C330 1.279 . S
O326 Cd323 2.297 . S
O326 C328 1.247 . S
O327 Cd323 2.439 . S
O327 C328 1.208 . S
C328 O326 1.247 . S
C328 O327 1.208 . S
C329 O334 1.247 . S
C329 O335 1.208 . S
C330 O322 1.315 . S
C330 O325 1.279 . S
C331 O332 1.315 . S
C331 O333 1.279 . S
O332 Cd324 2.223 . S
O332 C331 1.315 . S
O333 Cd323 2.240 . S
O333 C331 1.279 . S
O334 Cd324 2.297 . S
O334 C329 1.247 . S
O335 Cd324 2.439 . S
O335 C329 1.208 . S
O336 Cd337 2.223 . S
O336 C344 1.315 . S
Cd337 O336 2.223 . S
Cd337 O340 2.297 . S
Cd337 O341 2.439 . S
Cd337 O347 2.240 . S
Cd338 O339 2.240 . S
Cd338 O346 2.223 . S
Cd338 O348 2.297 . S
Cd338 O349 2.439 . S
O339 Cd338 2.240 . S
O339 C344 1.279 . S
O340 Cd337 2.297 . S
O340 C342 1.247 . S
O341 Cd337 2.439 . S
O341 C342 1.208 . S
C342 O340 1.247 . S
C342 O341 1.208 . S
C343 O348 1.247 . S
C343 O349 1.208 . S
C344 O336 1.315 . S
C344 O339 1.279 . S
C345 O346 1.315 . S
C345 O347 1.279 . S
O346 Cd338 2.223 . S
O346 C345 1.315 . S
O347 Cd337 2.240 . S
O347 C345 1.279 . S
O348 Cd338 2.297 . S
O348 C343 1.247 . S
O349 Cd338 2.439 . S
O349 C343 1.208 . S
O350 Cd351 2.223 . S
O350 C358 1.315 . S
Cd351 O350 2.223 . S
Cd351 O354 2.297 . S
Cd351 O355 2.439 . S
Cd351 O361 2.240 . S
Cd352 O353 2.240 . S
Cd352 O360 2.223 . S
Cd352 O362 2.297 . S
Cd352 O363 2.439 . S
O353 Cd352 2.240 . S
O353 C358 1.279 . S
O354 Cd351 2.297 . S
O354 C356 1.247 . S
O355 Cd351 2.439 . S
O355 C356 1.208 . S
C356 O354 1.247 . S
C356 O355 1.208 . S
C357 O362 1.247 . S
C357 O363 1.208 . S
C358 O350 1.315 . S
C358 O353 1.279 . S
C359 O360 1.315 . S
C359 O361 1.279 . S
O360 Cd352 2.223 . S
O360 C359 1.315 . S
O361 Cd351 2.240 . S
O361 C359 1.279 . S
O362 Cd352 2.297 . S
O362 C357 1.247 . S
O363 Cd352 2.439 . S
O363 C357 1.208 . S
O364 Cd365 2.223 . S
O364 C372 1.315 . S
Cd365 O364 2.223 . S
Cd365 O368 2.297 1_556 S
Cd365 O369 2.439 . S
Cd365 O375 2.240 . S
Cd366 O367 2.240 . S
Cd366 O374 2.223 . S
Cd366 O376 2.297 . S
Cd366 O377 2.439 . S
O367 Cd366 2.240 . S
O367 C372 1.279 . S
O368 Cd365 2.297 1_554 S
O368 C370 1.247 1_554 S
O369 Cd365 2.439 . S
O369 C370 1.208 . S
C370 O368 1.247 1_556 S
C370 O369 1.208 . S
C371 O376 1.247 . S
C371 O377 1.208 . S
C372 O364 1.315 . S
C372 O367 1.279 . S
C373 O374 1.315 . S
C373 O375 1.279 . S
O374 Cd366 2.223 . S
O374 C373 1.315 . S
O375 Cd365 2.240 . S
O375 C373 1.279 . S
O376 Cd366 2.297 . S
O376 C371 1.247 . S
O377 Cd366 2.439 . S
O377 C371 1.208 . S
O378 Cd379 2.223 . S
O378 C386 1.315 . S
Cd379 O378 2.223 . S
Cd379 O382 2.297 . S
Cd379 O383 2.439 . S
Cd379 O389 2.240 . S
Cd380 O381 2.240 . S
Cd380 O388 2.223 . S
Cd380 O390 2.297 . S
Cd380 O391 2.439 . S
O381 Cd380 2.240 . S
O381 C386 1.279 . S
O382 Cd379 2.297 . S
O382 C384 1.247 . S
O383 Cd379 2.439 . S
O383 C384 1.208 . S
C384 O382 1.247 . S
C384 O383 1.208 . S
C385 O390 1.247 . S
C385 O391 1.208 . S
C386 O378 1.315 . S
C386 O381 1.279 . S
C387 O388 1.315 . S
C387 O389 1.279 . S
O388 Cd380 2.223 . S
O388 C387 1.315 . S
O389 Cd379 2.240 . S
O389 C387 1.279 . S
O390 Cd380 2.297 . S
O390 C385 1.247 . S
O391 Cd380 2.439 . S
O391 C385 1.208 . S
O392 Cd393 2.223 . S
O392 C400 1.315 . S
Cd393 O392 2.223 . S
Cd393 O396 2.297 . S
Cd393 O397 2.439 . S
Cd393 O403 2.240 . S
Cd394 O395 2.240 . S
Cd394 O402 2.223 . S
Cd394 O404 2.297 . S
Cd394 O405 2.439 . S
O395 Cd394 2.240 . S
O395 C400 1.279 . S
O396 Cd393 2.297 . S
O396 C398 1.247 . S
O397 Cd393 2.439 . S
O397 C398 1.208 . S
C398 O396 1.247 . S
C398 O397 1.208 . S
C399 O404 1.247 . S
C399 O405 1.208 . S
C400 O392 1.315 . S
C400 O395 1.279 . S
C401 O402 1.315 . S
C401 O403 1.279 . S
O402 Cd394 2.223 . S
O402 C401 1.315 . S
O403 Cd393 2.240 . S
O403 C401 1.279 . S
O404 Cd394 2.297 . S
O404 C399 1.247 . S
O405 Cd394 2.439 . S
O405 C399 1.208 . S
O406 Cd407 2.223 . S
O406 C414 1.315 . S
Cd407 O406 2.223 . S
Cd407 O410 2.297 . S
Cd407 O411 2.439 . S
Cd407 O417 2.240 . S
Cd408 O409 2.240 . S
Cd408 O416 2.223 . S
Cd408 O418 2.297 . S
Cd408 O419 2.439 . S
O409 Cd408 2.240 . S
O409 C414 1.279 . S
O410 Cd407 2.297 . S
O410 C412 1.247 . S
O411 Cd407 2.439 . S
O411 C412 1.208 . S
C412 O410 1.247 . S
C412 O411 1.208 . S
C413 O418 1.247 . S
C413 O419 1.208 . S
C414 O406 1.315 . S
C414 O409 1.279 . S
C415 O416 1.315 . S
C415 O417 1.279 . S
O416 Cd408 2.223 . S
O416 C415 1.315 . S
O417 Cd407 2.240 . S
O417 C415 1.279 . S
O418 Cd408 2.297 . S
O418 C413 1.247 . S
O419 Cd408 2.439 . S
O419 C413 1.208 . S
O420 Cd421 2.223 . S
O420 C428 1.315 . S
Cd421 O420 2.223 . S
Cd421 O424 2.297 1_554 S
Cd421 O425 2.439 . S
Cd421 O431 2.240 . S
Cd422 O423 2.240 . S
Cd422 O430 2.223 . S
Cd422 O432 2.297 . S
Cd422 O433 2.439 . S
O423 Cd422 2.240 . S
O423 C428 1.279 . S
O424 Cd421 2.297 1_556 S
O424 C426 1.247 1_556 S
O425 Cd421 2.439 . S
O425 C426 1.208 . S
C426 O424 1.247 1_554 S
C426 O425 1.208 . S
C427 O432 1.247 . S
C427 O433 1.208 . S
C428 O420 1.315 . S
C428 O423 1.279 . S
C429 O430 1.315 . S
C429 O431 1.279 . S
O430 Cd422 2.223 . S
O430 C429 1.315 . S
O431 Cd421 2.240 . S
O431 C429 1.279 . S
O432 Cd422 2.297 . S
O432 C427 1.247 . S
O433 Cd422 2.439 . S
O433 C427 1.208 . S
O434 Cd435 2.223 . S
O434 C442 1.315 . S
Cd435 O434 2.223 . S
Cd435 O438 2.297 . S
Cd435 O439 2.439 . S
Cd435 O445 2.240 . S
Cd436 O437 2.240 . S
Cd436 O444 2.223 . S
Cd436 O446 2.297 . S
Cd436 O447 2.439 . S
O437 Cd436 2.240 . S
O437 C442 1.279 . S
O438 Cd435 2.297 . S
O438 C440 1.247 . S
O439 Cd435 2.439 . S
O439 C440 1.208 . S
C440 O438 1.247 . S
C440 O439 1.208 . S
C441 O446 1.247 . S
C441 O447 1.208 . S
C442 O434 1.315 . S
C442 O437 1.279 . S
C443 O444 1.315 . S
C443 O445 1.279 . S
O444 Cd436 2.223 . S
O444 C443 1.315 . S
O445 Cd435 2.240 . S
O445 C443 1.279 . S
O446 Cd436 2.297 . S
O446 C441 1.247 . S
O447 Cd436 2.439 . S
O447 C441 1.208 . S
C448 C449 1.387 . S
C448 H452 0.950 . S
C448 C457 1.390 . S
C449 C448 1.387 . S
C449 C451 1.387 . S
H450 C457 0.950 . S
C451 C449 1.387 . S
C451 C453 1.390 . S
C451 H455 0.950 . S
H452 C448 0.950 . S
C453 C451 1.390 . S
C453 C454 1.387 . S
C453 H456 0.950 . S
C454 C453 1.387 . S
C454 C457 1.387 . S
H455 C451 0.950 . S
H456 C453 0.950 . S
C457 C448 1.390 . S
C457 H450 0.950 . S
C457 C454 1.387 . S
C458 C459 1.387 . S
C458 H462 0.950 . S
C458 C467 1.390 . S
C459 C458 1.387 . S
C459 C461 1.387 . S
H460 C467 0.950 . S
C461 C459 1.387 . S
C461 C463 1.390 . S
C461 H465 0.950 . S
H462 C458 0.950 . S
C463 C461 1.390 . S
C463 C464 1.387 . S
C463 H466 0.950 . S
C464 C463 1.387 . S
C464 C467 1.387 . S
H465 C461 0.950 . S
H466 C463 0.950 . S
C467 C458 1.390 . S
C467 H460 0.950 . S
C467 C464 1.387 . S
C468 C469 1.387 . S
C468 H472 0.950 . S
C468 C477 1.390 . S
C469 C468 1.387 . S
C469 C471 1.387 . S
H470 C477 0.950 . S
C471 C469 1.387 . S
C471 C473 1.390 . S
C471 H475 0.950 . S
H472 C468 0.950 . S
C473 C471 1.390 . S
C473 C474 1.387 . S
C473 H476 0.950 . S
C474 C473 1.387 . S
C474 C477 1.387 . S
H475 C471 0.950 . S
H476 C473 0.950 . S
C477 C468 1.390 . S
C477 H470 0.950 . S
C477 C474 1.387 . S
C478 C479 1.387 . S
C478 H482 0.950 . S
C478 C487 1.390 . S
C479 C478 1.387 . S
C479 C481 1.387 . S
H480 C487 0.950 . S
C481 C479 1.387 . S
C481 C483 1.390 . S
C481 H485 0.950 . S
H482 C478 0.950 . S
C483 C481 1.390 . S
C483 C484 1.387 . S
C483 H486 0.950 . S
C484 C483 1.387 . S
C484 C487 1.387 . S
H485 C481 0.950 . S
H486 C483 0.950 . S
C487 C478 1.390 . S
C487 H480 0.950 . S
C487 C484 1.387 . S
C488 C489 1.387 . S
C488 H492 0.950 . S
C488 C497 1.390 . S
C489 C488 1.387 . S
C489 C491 1.387 . S
H490 C497 0.950 . S
C491 C489 1.387 . S
C491 C493 1.390 . S
C491 H495 0.950 . S
H492 C488 0.950 . S
C493 C491 1.390 . S
C493 C494 1.387 . S
C493 H496 0.950 . S
C494 C493 1.387 . S
C494 C497 1.387 . S
H495 C491 0.950 . S
H496 C493 0.950 . S
C497 C488 1.390 . S
C497 H490 0.950 . S
C497 C494 1.387 . S
C498 C499 1.387 . S
C498 H502 0.950 . S
C498 C507 1.390 . S
C499 C498 1.387 . S
C499 C501 1.387 . S
H500 C507 0.950 . S
C501 C499 1.387 . S
C501 C503 1.390 . S
C501 H505 0.950 . S
H502 C498 0.950 . S
C503 C501 1.390 . S
C503 C504 1.387 . S
C503 H506 0.950 . S
C504 C503 1.387 . S
C504 C507 1.387 . S
H505 C501 0.950 . S
H506 C503 0.950 . S
C507 C498 1.390 . S
C507 H500 0.950 . S
C507 C504 1.387 . S
C508 C509 1.387 . S
C508 H512 0.950 . S
C508 C517 1.390 . S
C509 C508 1.387 . S
C509 C511 1.387 . S
H510 C517 0.950 . S
C511 C509 1.387 . S
C511 C513 1.390 . S
C511 H515 0.950 . S
H512 C508 0.950 . S
C513 C511 1.390 . S
C513 C514 1.387 . S
C513 H516 0.950 . S
C514 C513 1.387 . S
C514 C517 1.387 . S
H515 C511 0.950 . S
H516 C513 0.950 . S
C517 C508 1.390 . S
C517 H510 0.950 . S
C517 C514 1.387 . S
C518 C519 1.387 . S
C518 H522 0.950 . S
C518 C527 1.390 . S
C519 C518 1.387 . S
C519 C521 1.387 . S
H520 C527 0.950 . S
C521 C519 1.387 . S
C521 C523 1.390 . S
C521 H525 0.950 . S
H522 C518 0.950 . S
C523 C521 1.390 . S
C523 C524 1.387 . S
C523 H526 0.950 . S
C524 C523 1.387 . S
C524 C527 1.387 . S
H525 C521 0.950 . S
H526 C523 0.950 . S
C527 C518 1.390 . S
C527 H520 0.950 . S
C527 C524 1.387 . S
C528 C529 1.387 . S
C528 H532 0.950 . S
C528 C537 1.390 . S
C529 C528 1.387 . S
C529 C531 1.387 . S
H530 C537 0.950 . S
C531 C529 1.387 . S
C531 C533 1.390 . S
C531 H535 0.950 . S
H532 C528 0.950 . S
C533 C531 1.390 . S
C533 C534 1.387 . S
C533 H536 0.950 . S
C534 C533 1.387 . S
C534 C537 1.387 . S
H535 C531 0.950 . S
H536 C533 0.950 . S
C537 C528 1.390 . S
C537 H530 0.950 . S
C537 C534 1.387 . S
C538 C539 1.387 . S
C538 H542 0.950 . S
C538 C547 1.390 . S
C539 C538 1.387 . S
C539 C541 1.387 . S
H540 C547 0.950 . S
C541 C539 1.387 . S
C541 C543 1.390 . S
C541 H545 0.950 . S
H542 C538 0.950 . S
C543 C541 1.390 . S
C543 C544 1.387 . S
C543 H546 0.950 . S
C544 C543 1.387 . S
C544 C547 1.387 . S
H545 C541 0.950 . S
H546 C543 0.950 . S
C547 C538 1.390 . S
C547 H540 0.950 . S
C547 C544 1.387 . S
C548 C549 1.387 . S
C548 H552 0.950 . S
C548 C557 1.390 . S
C549 C548 1.387 . S
C549 C551 1.387 . S
H550 C557 0.950 . S
C551 C549 1.387 . S
C551 C553 1.390 . S
C551 H555 0.950 . S
H552 C548 0.950 . S
C553 C551 1.390 . S
C553 C554 1.387 . S
C553 H556 0.950 . S
C554 C553 1.387 . S
C554 C557 1.387 . S
H555 C551 0.950 . S
H556 C553 0.950 . S
C557 C548 1.390 . S
C557 H550 0.950 . S
C557 C554 1.387 . S
C558 C559 1.387 . S
C558 H562 0.950 . S
C558 C567 1.390 . S
C559 C558 1.387 . S
C559 C561 1.387 . S
H560 C567 0.950 . S
C561 C559 1.387 . S
C561 C563 1.390 . S
C561 H565 0.950 . S
H562 C558 0.950 . S
C563 C561 1.390 . S
C563 C564 1.387 . S
C563 H566 0.950 . S
C564 C563 1.387 . S
C564 C567 1.387 . S
H565 C561 0.950 . S
H566 C563 0.950 . S
C567 C558 1.390 . S
C567 H560 0.950 . S
C567 C564 1.387 . S
C568 C569 1.387 . S
C568 H572 0.950 . S
C568 C577 1.390 . S
C569 C568 1.387 . S
C569 C571 1.387 . S
H570 C577 0.950 . S
C571 C569 1.387 . S
C571 C573 1.390 . S
C571 H575 0.950 . S
H572 C568 0.950 . S
C573 C571 1.390 . S
C573 C574 1.387 . S
C573 H576 0.950 . S
C574 C573 1.387 . S
C574 C577 1.387 . S
H575 C571 0.950 . S
H576 C573 0.950 . S
C577 C568 1.390 . S
C577 H570 0.950 . S
C577 C574 1.387 . S
C578 C579 1.387 . S
C578 H582 0.950 . S
C578 C587 1.390 . S
C579 C578 1.387 . S
C579 C581 1.387 . S
H580 C587 0.950 . S
C581 C579 1.387 . S
C581 C583 1.390 . S
C581 H585 0.950 . S
H582 C578 0.950 . S
C583 C581 1.390 . S
C583 C584 1.387 . S
C583 H586 0.950 . S
C584 C583 1.387 . S
C584 C587 1.387 . S
H585 C581 0.950 . S
H586 C583 0.950 . S
C587 C578 1.390 . S
C587 H580 0.950 . S
C587 C584 1.387 . S
C588 C589 1.387 . S
C588 H592 0.950 . S
C588 C597 1.390 . S
C589 C588 1.387 . S
C589 C591 1.387 . S
H590 C597 0.950 . S
C591 C589 1.387 . S
C591 C593 1.390 . S
C591 H595 0.950 . S
H592 C588 0.950 . S
C593 C591 1.390 . S
C593 C594 1.387 . S
C593 H596 0.950 . S
C594 C593 1.387 . S
C594 C597 1.387 . S
H595 C591 0.950 . S
H596 C593 0.950 . S
C597 C588 1.390 . S
C597 H590 0.950 . S
C597 C594 1.387 . S
C598 C599 1.387 . S
C598 H602 0.950 . S
C598 C607 1.390 . S
C599 C598 1.387 . S
C599 C601 1.387 . S
H600 C607 0.950 . S
C601 C599 1.387 . S
C601 C603 1.390 . S
C601 H605 0.950 . S
H602 C598 0.950 . S
C603 C601 1.390 . S
C603 C604 1.387 . S
C603 H606 0.950 . S
C604 C603 1.387 . S
C604 C607 1.387 . S
H605 C601 0.950 . S
H606 C603 0.950 . S
C607 C598 1.390 . S
C607 H600 0.950 . S
C607 C604 1.387 . S
C608 C609 1.387 . S
C608 H612 0.950 . S
C608 C617 1.390 1_455 S
C609 C608 1.387 . S
C609 C611 1.387 . S
H610 C617 0.950 . S
C611 C609 1.387 . S
C611 C613 1.390 1_455 S
C611 H615 0.950 . S
H612 C608 0.950 . S
C613 C611 1.390 1_655 S
C613 C614 1.387 . S
C613 H616 0.950 . S
C614 C613 1.387 . S
C614 C617 1.387 . S
H615 C611 0.950 . S
H616 C613 0.950 . S
C617 C608 1.390 1_655 S
C617 H610 0.950 . S
C617 C614 1.387 . S
C618 C619 1.387 . S
C618 H622 0.950 . S
C618 C627 1.390 . S
C619 C618 1.387 . S
C619 C621 1.387 . S
H620 C627 0.950 . S
C621 C619 1.387 . S
C621 C623 1.390 . S
C621 H625 0.950 . S
H622 C618 0.950 . S
C623 C621 1.390 . S
C623 C624 1.387 . S
C623 H626 0.950 . S
C624 C623 1.387 . S
C624 C627 1.387 . S
H625 C621 0.950 . S
H626 C623 0.950 . S
C627 C618 1.390 . S
C627 H620 0.950 . S
C627 C624 1.387 . S
C628 C629 1.387 . S
C628 H632 0.950 . S
C628 C637 1.390 . S
C629 C628 1.387 . S
C629 C631 1.387 . S
H630 C637 0.950 . S
C631 C629 1.387 . S
C631 C633 1.390 . S
C631 H635 0.950 . S
H632 C628 0.950 . S
C633 C631 1.390 . S
C633 C634 1.387 . S
C633 H636 0.950 . S
C634 C633 1.387 . S
C634 C637 1.387 . S
H635 C631 0.950 . S
H636 C633 0.950 . S
C637 C628 1.390 . S
C637 H630 0.950 . S
C637 C634 1.387 . S
C638 C639 1.387 . S
C638 H642 0.950 . S
C638 C647 1.390 . S
C639 C638 1.387 . S
C639 C641 1.387 . S
H640 C647 0.950 . S
C641 C639 1.387 . S
C641 C643 1.390 . S
C641 H645 0.950 . S
H642 C638 0.950 . S
C643 C641 1.390 . S
C643 C644 1.387 . S
C643 H646 0.950 . S
C644 C643 1.387 . S
C644 C647 1.387 . S
H645 C641 0.950 . S
H646 C643 0.950 . S
C647 C638 1.390 . S
C647 H640 0.950 . S
C647 C644 1.387 . S
C648 C649 1.387 . S
C648 H652 0.950 . S
C648 C657 1.390 1_655 S
C649 C648 1.387 . S
C649 C651 1.387 . S
H650 C657 0.950 . S
C651 C649 1.387 . S
C651 C653 1.390 1_655 S
C651 H655 0.950 1_556 S
H652 C648 0.950 . S
C653 C651 1.390 1_455 S
C653 C654 1.387 . S
C653 H656 0.950 1_556 S
C654 C653 1.387 . S
C654 C657 1.387 . S
H655 C651 0.950 1_554 S
H656 C653 0.950 1_554 S
C657 C648 1.390 1_455 S
C657 H650 0.950 . S
C657 C654 1.387 . S
C658 C659 1.387 . S
C658 H662 0.950 . S
C658 C667 1.390 . S
C659 C658 1.387 . S
C659 C661 1.387 . S
H660 C667 0.950 . S
C661 C659 1.387 . S
C661 C663 1.390 . S
C661 H665 0.950 . S
H662 C658 0.950 . S
C663 C661 1.390 . S
C663 C664 1.387 . S
C663 H666 0.950 . S
C664 C663 1.387 . S
C664 C667 1.387 . S
H665 C661 0.950 . S
H666 C663 0.950 . S
C667 C658 1.390 . S
C667 H660 0.950 . S
C667 C664 1.387 . S
C668 C669 1.387 . S
C668 H672 0.950 . S
C668 C677 1.390 . S
C669 C668 1.387 . S
C669 C671 1.387 . S
H670 C677 0.950 . S
C671 C669 1.387 . S
C671 C673 1.390 . S
C671 H675 0.950 . S
H672 C668 0.950 . S
C673 C671 1.390 . S
C673 C674 1.387 . S
C673 H676 0.950 . S
C674 C673 1.387 . S
C674 C677 1.387 . S
H675 C671 0.950 . S
H676 C673 0.950 . S
C677 C668 1.390 . S
C677 H670 0.950 . S
C677 C674 1.387 . S
C678 C679 1.387 . S
C678 H682 0.950 . S
C678 C687 1.390 . S
C679 C678 1.387 . S
C679 C681 1.387 . S
H680 C687 0.950 . S
C681 C679 1.387 . S
C681 C683 1.390 . S
C681 H685 0.950 . S
H682 C678 0.950 . S
C683 C681 1.390 . S
C683 C684 1.387 . S
C683 H686 0.950 . S
C684 C683 1.387 . S
C684 C687 1.387 . S
H685 C681 0.950 . S
H686 C683 0.950 . S
C687 C678 1.390 . S
C687 H680 0.950 . S
C687 C684 1.387 . S
C688 C689 1.387 . S
C688 H692 0.950 . S
C688 C697 1.390 . S
C689 C688 1.387 . S
C689 C691 1.387 . S
H690 C697 0.950 . S
C691 C689 1.387 . S
C691 C693 1.390 . S
C691 H695 0.950 . S
H692 C688 0.950 . S
C693 C691 1.390 . S
C693 C694 1.387 . S
C693 H696 0.950 . S
C694 C693 1.387 . S
C694 C697 1.387 . S
H695 C691 0.950 . S
H696 C693 0.950 . S
C697 C688 1.390 . S
C697 H690 0.950 . S
C697 C694 1.387 . S
C698 C699 1.387 . S
C698 H702 0.950 . S
C698 C707 1.390 . S
C699 C698 1.387 . S
C699 C701 1.387 . S
H700 C707 0.950 . S
C701 C699 1.387 . S
C701 C703 1.390 . S
C701 H705 0.950 . S
H702 C698 0.950 . S
C703 C701 1.390 . S
C703 C704 1.387 . S
C703 H706 0.950 . S
C704 C703 1.387 . S
C704 C707 1.387 . S
H705 C701 0.950 . S
H706 C703 0.950 . S
C707 C698 1.390 . S
C707 H700 0.950 . S
C707 C704 1.387 . S
C708 C709 1.387 . S
C708 H712 0.950 . S
C708 C717 1.390 . S
C709 C708 1.387 . S
C709 C711 1.387 . S
H710 C717 0.950 . S
C711 C709 1.387 . S
C711 C713 1.390 . S
C711 H715 0.950 . S
H712 C708 0.950 . S
C713 C711 1.390 . S
C713 C714 1.387 . S
C713 H716 0.950 . S
C714 C713 1.387 . S
C714 C717 1.387 . S
H715 C711 0.950 . S
H716 C713 0.950 . S
C717 C708 1.390 . S
C717 H710 0.950 . S
C717 C714 1.387 . S
C718 C719 1.387 . S
C718 H722 0.950 . S
C718 C727 1.390 . S
C719 C718 1.387 . S
C719 C721 1.387 . S
H720 C727 0.950 . S
C721 C719 1.387 . S
C721 C723 1.390 . S
C721 H725 0.950 . S
H722 C718 0.950 . S
C723 C721 1.390 . S
C723 C724 1.387 . S
C723 H726 0.950 . S
C724 C723 1.387 . S
C724 C727 1.387 . S
H725 C721 0.950 . S
H726 C723 0.950 . S
C727 C718 1.390 . S
C727 H720 0.950 . S
C727 C724 1.387 . S
C728 C729 1.387 . S
C728 H732 0.950 . S
C728 C737 1.390 . S
C729 C728 1.387 . S
C729 C731 1.387 . S
H730 C737 0.950 . S
C731 C729 1.387 . S
C731 C733 1.390 . S
C731 H735 0.950 . S
H732 C728 0.950 . S
C733 C731 1.390 . S
C733 C734 1.387 . S
C733 H736 0.950 . S
C734 C733 1.387 . S
C734 C737 1.387 . S
H735 C731 0.950 . S
H736 C733 0.950 . S
C737 C728 1.390 . S
C737 H730 0.950 . S
C737 C734 1.387 . S
C738 C739 1.387 . S
C738 H742 0.950 . S
C738 C747 1.390 1_655 S
C739 C738 1.387 . S
C739 C741 1.387 . S
H740 C747 0.950 . S
C741 C739 1.387 . S
C741 C743 1.390 1_655 S
C741 H745 0.950 . S
H742 C738 0.950 . S
C743 C741 1.390 1_455 S
C743 C744 1.387 . S
C743 H746 0.950 . S
C744 C743 1.387 . S
C744 C747 1.387 . S
H745 C741 0.950 . S
H746 C743 0.950 . S
C747 C738 1.390 1_455 S
C747 H740 0.950 . S
C747 C744 1.387 . S
C748 C749 1.387 . S
C748 H752 0.950 . S
C748 C757 1.390 . S
C749 C748 1.387 . S
C749 C751 1.387 . S
H750 C757 0.950 . S
C751 C749 1.387 . S
C751 C753 1.390 . S
C751 H755 0.950 . S
H752 C748 0.950 . S
C753 C751 1.390 . S
C753 C754 1.387 . S
C753 H756 0.950 . S
C754 C753 1.387 . S
C754 C757 1.387 . S
H755 C751 0.950 . S
H756 C753 0.950 . S
C757 C748 1.390 . S
C757 H750 0.950 . S
C757 C754 1.387 . S
C758 C759 1.387 . S
C758 H762 0.950 . S
C758 C767 1.390 1_455 S
C759 C758 1.387 . S
C759 C761 1.387 . S
H760 C767 0.950 . S
C761 C759 1.387 . S
C761 C763 1.390 1_455 S
C761 H765 0.950 . S
H762 C758 0.950 . S
C763 C761 1.390 1_655 S
C763 C764 1.387 . S
C763 H766 0.950 . S
C764 C763 1.387 . S
C764 C767 1.387 . S
H765 C761 0.950 . S
H766 C763 0.950 . S
C767 C758 1.390 1_655 S
C767 H760 0.950 . S
C767 C764 1.387 . S
C768 C769 1.387 . S
C768 H772 0.950 . S
C768 C777 1.390 1_556 S
C769 C768 1.387 . S
C769 C771 1.387 . S
H770 C777 0.950 . S
C771 C769 1.387 . S
C771 C773 1.390 1_556 S
C771 H775 0.950 . S
H772 C768 0.950 . S
C773 C771 1.390 1_554 S
C773 C774 1.387 . S
C773 H776 0.950 . S
C774 C773 1.387 . S
C774 C777 1.387 . S
H775 C771 0.950 . S
H776 C773 0.950 . S
C777 C768 1.390 1_554 S
C777 H770 0.950 . S
C777 C774 1.387 . S
C778 C779 1.387 . S
C778 H782 0.950 . S
C778 C787 1.390 . S
C779 C778 1.387 . S
C779 C781 1.387 . S
H780 C787 0.950 . S
C781 C779 1.387 . S
C781 C783 1.390 . S
C781 H785 0.950 . S
H782 C778 0.950 . S
C783 C781 1.390 . S
C783 C784 1.387 . S
C783 H786 0.950 . S
C784 C783 1.387 . S
C784 C787 1.387 . S
H785 C781 0.950 . S
H786 C783 0.950 . S
C787 C778 1.390 . S
C787 H780 0.950 . S
C787 C784 1.387 . S
C788 C789 1.387 . S
C788 H792 0.950 . S
C788 C797 1.390 . S
C789 C788 1.387 . S
C789 C791 1.387 . S
H790 C797 0.950 . S
C791 C789 1.387 . S
C791 C793 1.390 . S
C791 H795 0.950 . S
H792 C788 0.950 . S
C793 C791 1.390 . S
C793 C794 1.387 . S
C793 H796 0.950 . S
C794 C793 1.387 . S
C794 C797 1.387 . S
H795 C791 0.950 . S
H796 C793 0.950 . S
C797 C788 1.390 . S
C797 H790 0.950 . S
C797 C794 1.387 . S
C798 C799 1.387 . S
C798 H802 0.950 . S
C798 C807 1.390 . S
C799 C798 1.387 . S
C799 C801 1.387 . S
H800 C807 0.950 . S
C801 C799 1.387 . S
C801 C803 1.390 . S
C801 H805 0.950 . S
H802 C798 0.950 . S
C803 C801 1.390 . S
C803 C804 1.387 . S
C803 H806 0.950 . S
C804 C803 1.387 . S
C804 C807 1.387 . S
H805 C801 0.950 . S
H806 C803 0.950 . S
C807 C798 1.390 . S
C807 H800 0.950 . S
C807 C804 1.387 . S
C808 C809 1.387 . S
C808 H812 0.950 . S
C808 C817 1.390 1_554 S
C809 C808 1.387 . S
C809 C811 1.387 . S
H810 C817 0.950 . S
C811 C809 1.387 . S
C811 C813 1.390 1_554 S
C811 H815 0.950 . S
H812 C808 0.950 . S
C813 C811 1.390 1_556 S
C813 C814 1.387 . S
C813 H816 0.950 . S
C814 C813 1.387 . S
C814 C817 1.387 . S
H815 C811 0.950 . S
H816 C813 0.950 . S
C817 C808 1.390 1_556 S
C817 H810 0.950 . S
C817 C814 1.387 . S
C818 C819 1.387 . S
C818 H822 0.950 . S
C818 C827 1.390 . S
C819 C818 1.387 . S
C819 C821 1.387 . S
H820 C827 0.950 . S
C821 C819 1.387 . S
C821 C823 1.390 . S
C821 H825 0.950 . S
H822 C818 0.950 . S
C823 C821 1.390 . S
C823 C824 1.387 . S
C823 H826 0.950 . S
C824 C823 1.387 . S
C824 C827 1.387 . S
H825 C821 0.950 . S
H826 C823 0.950 . S
C827 C818 1.390 . S
C827 H820 0.950 . S
C827 C824 1.387 . S
C828 C829 1.387 . S
C828 H832 0.950 . S
C828 C837 1.390 . S
C829 C828 1.387 . S
C829 C831 1.387 . S
H830 C837 0.950 . S
C831 C829 1.387 . S
C831 C833 1.390 . S
C831 H835 0.950 . S
H832 C828 0.950 . S
C833 C831 1.390 . S
C833 C834 1.387 . S
C833 H836 0.950 . S
C834 C833 1.387 . S
C834 C837 1.387 . S
H835 C831 0.950 . S
H836 C833 0.950 . S
C837 C828 1.390 . S
C837 H830 0.950 . S
C837 C834 1.387 . S
C838 C839 1.387 . S
C838 H842 0.950 . S
C838 C847 1.390 . S
C839 C838 1.387 . S
C839 C841 1.387 . S
H840 C847 0.950 . S
C841 C839 1.387 . S
C841 C843 1.390 . S
C841 H845 0.950 . S
H842 C838 0.950 . S
C843 C841 1.390 . S
C843 C844 1.387 . S
C843 H846 0.950 . S
C844 C843 1.387 . S
C844 C847 1.387 . S
H845 C841 0.950 . S
H846 C843 0.950 . S
C847 C838 1.390 . S
C847 H840 0.950 . S
C847 C844 1.387 . S
C848 C849 1.387 . S
C848 H852 0.950 . S
C848 C857 1.390 1_545 S
C849 C848 1.387 . S
C849 C851 1.387 . S
H850 C857 0.950 . S
C851 C849 1.387 . S
C851 C853 1.390 1_545 S
C851 H855 0.950 . S
H852 C848 0.950 . S
C853 C851 1.390 1_565 S
C853 C854 1.387 . S
C853 H856 0.950 . S
C854 C853 1.387 . S
C854 C857 1.387 . S
H855 C851 0.950 . S
H856 C853 0.950 . S
C857 C848 1.390 1_565 S
C857 H850 0.950 . S
C857 C854 1.387 . S
C858 C859 1.387 . S
C858 H862 0.950 . S
C858 C867 1.390 . S
C859 C858 1.387 . S
C859 C861 1.387 . S
H860 C867 0.950 . S
C861 C859 1.387 . S
C861 C863 1.390 . S
C861 H865 0.950 . S
H862 C858 0.950 . S
C863 C861 1.390 . S
C863 C864 1.387 . S
C863 H866 0.950 . S
C864 C863 1.387 . S
C864 C867 1.387 . S
H865 C861 0.950 . S
H866 C863 0.950 . S
C867 C858 1.390 . S
C867 H860 0.950 . S
C867 C864 1.387 . S
C868 C869 1.387 . S
C868 H872 0.950 . S
C868 C877 1.390 1_564 S
C869 C868 1.387 . S
C869 C871 1.387 . S
H870 C877 0.950 . S
C871 C869 1.387 . S
C871 C873 1.390 1_564 S
C871 H875 0.950 . S
H872 C868 0.950 . S
C873 C871 1.390 1_546 S
C873 C874 1.387 . S
C873 H876 0.950 . S
C874 C873 1.387 . S
C874 C877 1.387 . S
H875 C871 0.950 . S
H876 C873 0.950 . S
C877 C868 1.390 1_546 S
C877 H870 0.950 . S
C877 C874 1.387 . S
C878 C879 1.387 . S
C878 H882 0.950 . S
C878 C887 1.390 . S
C879 C878 1.387 . S
C879 C881 1.387 . S
H880 C887 0.950 . S
C881 C879 1.387 . S
C881 C883 1.390 . S
C881 H885 0.950 . S
H882 C878 0.950 . S
C883 C881 1.390 . S
C883 C884 1.387 . S
C883 H886 0.950 . S
C884 C883 1.387 . S
C884 C887 1.387 . S
H885 C881 0.950 . S
H886 C883 0.950 . S
C887 C878 1.390 . S
C887 H880 0.950 . S
C887 C884 1.387 . S
C888 C889 1.387 . S
C888 H892 0.950 . S
C888 C897 1.390 1_545 S
C889 C888 1.387 . S
C889 C891 1.387 . S
H890 C897 0.950 . S
C891 C889 1.387 . S
C891 C893 1.390 1_545 S
C891 H895 0.950 . S
H892 C888 0.950 . S
C893 C891 1.390 1_565 S
C893 C894 1.387 . S
C893 H896 0.950 . S
C894 C893 1.387 . S
C894 C897 1.387 . S
H895 C891 0.950 . S
H896 C893 0.950 . S
C897 C888 1.390 1_565 S
C897 H890 0.950 . S
C897 C894 1.387 . S
C898 C899 1.387 . S
C898 H902 0.950 . S
C898 C907 1.390 . S
C899 C898 1.387 . S
C899 C901 1.387 . S
H900 C907 0.950 . S
C901 C899 1.387 . S
C901 C903 1.390 . S
C901 H905 0.950 . S
H902 C898 0.950 . S
C903 C901 1.390 . S
C903 C904 1.387 . S
C903 H906 0.950 . S
C904 C903 1.387 . S
C904 C907 1.387 . S
H905 C901 0.950 . S
H906 C903 0.950 . S
C907 C898 1.390 . S
C907 H900 0.950 . S
C907 C904 1.387 . S
C908 C909 1.387 . S
C908 H912 0.950 . S
C908 C917 1.390 1_564 S
C909 C908 1.387 . S
C909 C911 1.387 . S
H910 C917 0.950 . S
C911 C909 1.387 . S
C911 C913 1.390 1_564 S
C911 H915 0.950 . S
H912 C908 0.950 . S
C913 C911 1.390 1_546 S
C913 C914 1.387 . S
C913 H916 0.950 . S
C914 C913 1.387 . S
C914 C917 1.387 . S
H915 C911 0.950 . S
H916 C913 0.950 . S
C917 C908 1.390 1_546 S
C917 H910 0.950 . S
C917 C914 1.387 . S
C918 C919 1.387 . S
C918 H922 0.950 . S
C918 C927 1.390 . S
C919 C918 1.387 . S
C919 C921 1.387 . S
H920 C927 0.950 . S
C921 C919 1.387 . S
C921 C923 1.390 . S
C921 H925 0.950 . S
H922 C918 0.950 . S
C923 C921 1.390 . S
C923 C924 1.387 . S
C923 H926 0.950 . S
C924 C923 1.387 . S
C924 C927 1.387 . S
H925 C921 0.950 . S
H926 C923 0.950 . S
C927 C918 1.390 . S
C927 H920 0.950 . S
C927 C924 1.387 . S
C928 C929 1.387 . S
C928 H932 0.950 . S
C928 C937 1.390 . S
C929 C928 1.387 . S
C929 C931 1.387 . S
H930 C937 0.950 . S
C931 C929 1.387 . S
C931 C933 1.390 . S
C931 H935 0.950 . S
H932 C928 0.950 . S
C933 C931 1.390 . S
C933 C934 1.387 . S
C933 H936 0.950 . S
C934 C933 1.387 . S
C934 C937 1.387 . S
H935 C931 0.950 . S
H936 C933 0.950 . S
C937 C928 1.390 . S
C937 H930 0.950 . S
C937 C934 1.387 . S
C938 C939 1.387 . S
C938 H942 0.950 . S
C938 C947 1.390 . S
C939 C938 1.387 . S
C939 C941 1.387 . S
H940 C947 0.950 . S
C941 C939 1.387 . S
C941 C943 1.390 . S
C941 H945 0.950 . S
H942 C938 0.950 . S
C943 C941 1.390 . S
C943 C944 1.387 . S
C943 H946 0.950 . S
C944 C943 1.387 . S
C944 C947 1.387 . S
H945 C941 0.950 . S
H946 C943 0.950 . S
C947 C938 1.390 . S
C947 H940 0.950 . S
C947 C944 1.387 . S
C948 C949 1.387 . S
C948 H952 0.950 . S
C948 C957 1.390 . S
C949 C948 1.387 . S
C949 C951 1.387 . S
H950 C957 0.950 . S
C951 C949 1.387 . S
C951 C953 1.390 . S
C951 H955 0.950 . S
H952 C948 0.950 . S
C953 C951 1.390 . S
C953 C954 1.387 . S
C953 H956 0.950 . S
C954 C953 1.387 . S
C954 C957 1.387 . S
H955 C951 0.950 . S
H956 C953 0.950 . S
C957 C948 1.390 . S
C957 H950 0.950 . S
C957 C954 1.387 . S
C958 C959 1.387 . S
C958 H962 0.950 . S
C958 C967 1.390 1_655 S
C959 C958 1.387 . S
C959 C961 1.387 . S
H960 C967 0.950 . S
C961 C959 1.387 . S
C961 C963 1.390 1_655 S
C961 H965 0.950 . S
H962 C958 0.950 . S
C963 C961 1.390 1_455 S
C963 C964 1.387 . S
C963 H966 0.950 . S
C964 C963 1.387 . S
C964 C967 1.387 . S
H965 C961 0.950 . S
H966 C963 0.950 . S
C967 C958 1.390 1_455 S
C967 H960 0.950 . S
C967 C964 1.387 . S
C968 C969 1.387 . S
C968 H972 0.950 . S
C968 C977 1.390 . S
C969 C968 1.387 . S
C969 C971 1.387 . S
H970 C977 0.950 . S
C971 C969 1.387 . S
C971 C973 1.390 . S
C971 H975 0.950 . S
H972 C968 0.950 . S
C973 C971 1.390 . S
C973 C974 1.387 . S
C973 H976 0.950 . S
C974 C973 1.387 . S
C974 C977 1.387 . S
H975 C971 0.950 . S
H976 C973 0.950 . S
C977 C968 1.390 . S
C977 H970 0.950 . S
C977 C974 1.387 . S
C978 C979 1.387 . S
C978 H982 0.950 . S
C978 C987 1.390 1_655 S
C979 C978 1.387 . S
C979 C981 1.387 . S
H980 C987 0.950 . S
C981 C979 1.387 . S
C981 C983 1.390 1_655 S
C981 H985 0.950 . S
H982 C978 0.950 . S
C983 C981 1.390 1_455 S
C983 C984 1.387 . S
C983 H986 0.950 . S
C984 C983 1.387 . S
C984 C987 1.387 . S
H985 C981 0.950 . S
H986 C983 0.950 . S
C987 C978 1.390 1_455 S
C987 H980 0.950 . S
C987 C984 1.387 . S
C988 C989 1.387 . S
C988 H992 0.950 . S
C988 C997 1.390 . S
C989 C988 1.387 . S
C989 C991 1.387 . S
H990 C997 0.950 . S
C991 C989 1.387 . S
C991 C993 1.390 . S
C991 H995 0.950 . S
H992 C988 0.950 . S
C993 C991 1.390 . S
C993 C994 1.387 . S
C993 H996 0.950 . S
C994 C993 1.387 . S
C994 C997 1.387 . S
H995 C991 0.950 . S
H996 C993 0.950 . S
C997 C988 1.390 . S
C997 H990 0.950 . S
C997 C994 1.387 . S
C998 C999 1.387 . S
C998 H1002 0.950 . S
C998 C1007 1.390 . S
C999 C998 1.387 . S
C999 C1001 1.387 . S
H1000 C1007 0.950 . S
C1001 C999 1.387 . S
C1001 C1003 1.390 . S
C1001 H1005 0.950 . S
H1002 C998 0.950 . S
C1003 C1001 1.390 . S
C1003 C1004 1.387 . S
C1003 H1006 0.950 . S
C1004 C1003 1.387 . S
C1004 C1007 1.387 . S
H1005 C1001 0.950 . S
H1006 C1003 0.950 . S
C1007 C998 1.390 . S
C1007 H1000 0.950 . S
C1007 C1004 1.387 . S
C1008 C1009 1.387 . S
C1008 H1012 0.950 . S
C1008 C1017 1.390 . S
C1009 C1008 1.387 . S
C1009 C1011 1.387 . S
H1010 C1017 0.950 . S
C1011 C1009 1.387 . S
C1011 C1013 1.390 . S
C1011 H1015 0.950 . S
H1012 C1008 0.950 . S
C1013 C1011 1.390 . S
C1013 C1014 1.387 . S
C1013 H1016 0.950 . S
C1014 C1013 1.387 . S
C1014 C1017 1.387 . S
H1015 C1011 0.950 . S
H1016 C1013 0.950 . S
C1017 C1008 1.390 . S
C1017 H1010 0.950 . S
C1017 C1014 1.387 . S
C1018 C1019 1.387 . S
C1018 H1022 0.950 . S
C1018 C1027 1.390 . S
C1019 C1018 1.387 . S
C1019 C1021 1.387 . S
H1020 C1027 0.950 . S
C1021 C1019 1.387 . S
C1021 C1023 1.390 . S
C1021 H1025 0.950 . S
H1022 C1018 0.950 . S
C1023 C1021 1.390 . S
C1023 C1024 1.387 . S
C1023 H1026 0.950 . S
C1024 C1023 1.387 . S
C1024 C1027 1.387 . S
H1025 C1021 0.950 . S
H1026 C1023 0.950 . S
C1027 C1018 1.390 . S
C1027 H1020 0.950 . S
C1027 C1024 1.387 . S
C1028 C1029 1.387 . S
C1028 H1032 0.950 . S
C1028 C1037 1.390 . S
C1029 C1028 1.387 . S
C1029 C1031 1.387 . S
H1030 C1037 0.950 . S
C1031 C1029 1.387 . S
C1031 C1033 1.390 . S
C1031 H1035 0.975 . S
H1032 C1028 0.950 . S
C1033 C1031 1.390 . S
C1033 C1034 1.387 . S
C1033 H1036 0.976 . S
C1034 C1033 1.387 . S
C1034 C1037 1.387 . S
H1035 C1031 0.975 . S
H1036 C1033 0.976 . S
C1037 C1028 1.390 . S
C1037 H1030 0.950 . S
C1037 C1034 1.387 . S
C1038 C1039 1.387 . S
C1038 H1042 0.950 . S
C1038 C1047 1.390 . S
C1039 C1038 1.387 . S
C1039 C1041 1.387 . S
H1040 C1047 0.950 . S
C1041 C1039 1.387 . S
C1041 C1043 1.390 . S
C1041 H1045 0.950 . S
H1042 C1038 0.950 . S
C1043 C1041 1.390 . S
C1043 C1044 1.387 . S
C1043 H1046 0.950 . S
C1044 C1043 1.387 . S
C1044 C1047 1.387 . S
H1045 C1041 0.950 . S
H1046 C1043 0.950 . S
C1047 C1038 1.390 . S
C1047 H1040 0.950 . S
C1047 C1044 1.387 . S
C1048 C1049 1.387 . S
C1048 H1052 0.950 . S
C1048 C1057 1.390 1_655 S
C1049 C1048 1.387 . S
C1049 C1051 1.387 . S
H1050 C1057 0.950 . S
C1051 C1049 1.387 . S
C1051 C1053 1.390 1_655 S
C1051 H1055 0.950 . S
H1052 C1048 0.950 . S
C1053 C1051 1.390 1_455 S
C1053 C1054 1.387 . S
C1053 H1056 0.950 . S
C1054 C1053 1.387 . S
C1054 C1057 1.387 . S
H1055 C1051 0.950 . S
H1056 C1053 0.950 . S
C1057 C1048 1.390 1_455 S
C1057 H1050 0.950 . S
C1057 C1054 1.387 . S
C1058 C1059 1.387 . S
C1058 H1062 0.950 . S
C1058 C1067 1.390 . S
C1059 C1058 1.387 . S
C1059 C1061 1.387 . S
H1060 C1067 0.950 . S
C1061 C1059 1.387 . S
C1061 C1063 1.390 . S
C1061 H1065 0.950 . S
H1062 C1058 0.950 . S
C1063 C1061 1.390 . S
C1063 C1064 1.387 . S
C1063 H1066 0.950 . S
C1064 C1063 1.387 . S
C1064 C1067 1.387 . S
H1065 C1061 0.950 . S
H1066 C1063 0.950 . S
C1067 C1058 1.390 . S
C1067 H1060 0.950 . S
C1067 C1064 1.387 . S
C1068 C1069 1.387 . S
C1068 H1072 0.950 . S
C1068 C1077 1.390 . S
C1069 C1068 1.387 . S
C1069 C1071 1.387 . S
H1070 C1077 0.950 . S
C1071 C1069 1.387 . S
C1071 C1073 1.390 . S
C1071 H1075 0.950 . S
H1072 C1068 0.950 . S
C1073 C1071 1.390 . S
C1073 C1074 1.387 . S
C1073 H1076 0.950 . S
C1074 C1073 1.387 . S
C1074 C1077 1.387 . S
H1075 C1071 0.950 . S
H1076 C1073 0.950 . S
C1077 C1068 1.390 . S
C1077 H1070 0.950 . S
C1077 C1074 1.387 . S
C1078 C1079 1.387 . S
C1078 H1082 0.950 . S
C1078 C1087 1.390 1_655 S
C1079 C1078 1.387 . S
C1079 C1081 1.387 . S
H1080 C1087 0.950 . S
C1081 C1079 1.387 . S
C1081 C1083 1.390 1_655 S
C1081 H1085 0.950 . S
H1082 C1078 0.950 . S
C1083 C1081 1.390 1_455 S
C1083 C1084 1.387 . S
C1083 H1086 0.950 . S
C1084 C1083 1.387 . S
C1084 C1087 1.387 . S
H1085 C1081 0.950 . S
H1086 C1083 0.950 . S
C1087 C1078 1.390 1_455 S
C1087 H1080 0.950 . S
C1087 C1084 1.387 . S
C449 C328 1.775 . S
C454 C7 1.777 . S
C459 C287 1.779 . S
C464 C20 1.776 . S
C469 C300 1.776 . S
C474 C35 1.779 . S
C479 C315 1.778 . S
C484 C48 1.775 . S
C489 C63 1.775 . S
C494 C244 1.776 . S
C499 C259 1.779 . S
C504 C76 1.778 . S
C509 C91 1.774 . S
C514 C272 1.776 . S
C519 C104 1.779 . S
C524 C231 1.778 . S
C529 C441 1.777 . S
C534 C119 1.779 . S
C539 C133 1.775 . S
C544 C399 1.778 . S
C549 C147 1.775 . S
C554 C413 1.776 . S
C559 C161 1.776 . S
C564 C427 1.775 . S
C569 C175 1.779 . S
C574 C357 1.776 . S
C579 C189 1.777 . S
C584 C371 1.775 . S
C589 C203 1.775 . S
C594 C385 1.776 . S
C599 C217 1.779 . S
C604 C343 1.777 . S
C609 C8 1.409 . S
C614 C176 1.410 . S
C619 C414 1.409 . S
C624 C23 1.410 . S
C629 C36 1.410 . S
C634 C204 1.410 . S
C639 C442 1.409 . S
C644 C51 1.410 . S
C649 C120 1.410 . S
C654 C64 1.409 . S
C659 C79 1.410 . S
C664 C358 1.409 . S
C669 C92 1.410 . S
C674 C148 1.410 . S
C679 C107 1.410 . S
C684 C386 1.410 . S
C689 C303 1.409 . S
C694 C134 1.410 . S
C699 C331 1.410 . S
C704 C162 1.409 . S
C709 C190 1.410 . S
C714 C247 1.409 . S
C719 C275 1.410 . S
C724 C218 1.409 . S
C729 C400 1.410 . S
C734 C232 1.410 . S
C739 C260 1.410 . S
C744 C428 1.410 . S
C749 C344 1.410 . S
C754 C288 1.410 . S
C759 C372 1.410 . S
C764 C316 1.410 . S
C769 C62 1.404 . S
C774 C6 1.404 . S
C779 C77 1.403 . S
C784 C21 1.403 . S
C789 C34 1.404 . S
C794 C90 1.404 . S
C799 C49 1.403 . S
C804 C105 1.403 . S
C809 C174 1.404 . S
C814 C118 1.404 . S
C819 C188 1.403 . S
C824 C132 1.403 . S
C829 C202 1.404 . S
C834 C146 1.404 . S
C839 C160 1.404 . S
C844 C216 1.404 . S
C849 C230 1.404 . S
C854 C286 1.404 . S
C859 C245 1.403 . S
C864 C301 1.403 . S
C869 C258 1.404 . S
C874 C314 1.404 . S
C879 C273 1.404 . S
C884 C329 1.404 . S
C889 C398 1.404 . S
C894 C342 1.404 . S
C899 C412 1.403 . S
C904 C356 1.403 . S
C909 C426 1.404 . S
C914 C370 1.404 . S
C919 C440 1.403 . S
C924 C384 1.403 . S
C929 C429 1.597 . S
C934 C9 1.595 . S
C939 C22 1.595 . S
C944 C219 1.597 . S
C949 C401 1.597 . S
C954 C37 1.595 . S
C959 C50 1.595 . S
C964 C191 1.597 . S
C969 C373 1.597 . S
C974 C65 1.595 . S
C979 C78 1.595 . S
C984 C163 1.597 . S
C989 C93 1.597 . S
C994 C345 1.595 . S
C999 C135 1.595 . S
C1004 C106 1.596 . S
C1009 C121 1.597 . S
C1014 C317 1.594 . S
C1019 C289 1.597 . S
C1024 C149 1.595 . S
C1029 C177 1.596 . S
C1034 C261 1.595 . S
C1039 C205 1.596 . S
C1044 C233 1.596 . S
C1049 C443 1.597 . S
C1054 C246 1.595 . S
C1059 C274 1.595 . S
C1064 C415 1.597 . S
C1069 C302 1.597 . S
C1074 C387 1.594 . S
C1079 C359 1.597 . S
C1084 C330 1.594 . S
