# Generated by pormake.
# Topology sve, (7)-cn, num edge types: 1
# Building blocks:
#     Node 0, Type 0, BuildingBlock: HICVOG_clean_sbu_0, # of connection points: 7
#     Node 1, Type 0, BuildingBlock: HICVOG_clean_sbu_0, # of connection points: 7
#     Node 2, Type 0, BuildingBlock: HICVOG_clean_sbu_0, # of connection points: 7
#     Node 3, Type 0, BuildingBlock: HICVOG_clean_sbu_0, # of connection points: 7
#     Edge 4, Type (0, 0), BuildingBlock: FUNLAD_clean_linker_0, # of connection points: 2
#     Edge 5, Type (0, 0), BuildingBlock: FUNLAD_clean_linker_0, # of connection points: 2
#     Edge 6, Type (0, 0), BuildingBlock: FUNLAD_clean_linker_0, # of connection points: 2
#     Edge 7, Type (0, 0), BuildingBlock: FUNLAD_clean_linker_0, # of connection points: 2
#     Edge 8, Type (0, 0), BuildingBlock: FUNLAD_clean_linker_0, # of connection points: 2
#     Edge 9, Type (0, 0), BuildingBlock: FUNLAD_clean_linker_0, # of connection points: 2
#     Edge 10, Type (0, 0), BuildingBlock: FUNLAD_clean_linker_0, # of connection points: 2
#     Edge 11, Type (0, 0), BuildingBlock: FUNLAD_clean_linker_0, # of connection points: 2
#     Edge 12, Type (0, 0), BuildingBlock: FUNLAD_clean_linker_0, # of connection points: 2
#     Edge 13, Type (0, 0), BuildingBlock: FUNLAD_clean_linker_0, # of connection points: 2
#     Edge 14, Type (0, 0), BuildingBlock: FUNLAD_clean_linker_0, # of connection points: 2
#     Edge 15, Type (0, 0), BuildingBlock: FUNLAD_clean_linker_0, # of connection points: 2
#     Edge 16, Type (0, 0), BuildingBlock: FUNLAD_clean_linker_0, # of connection points: 2
#     Edge 17, Type (0, 0), BuildingBlock: FUNLAD_clean_linker_0, # of connection points: 2
# Relax obj value: 0.261
# Max RMSD: 0.294
# Mean RMSD: 0.257
data_MOF--net-sve--node1-HICVOG_clean_sbu_0--edge1-FUNLAD_clean_linker_0
_symmetry_space_group_name_H-M    P1
_symmetry_Int_Tables_number       1
_symmetry_cell_setting            triclinic
loop_
_symmetry_equiv_pos_as_xyz
'x, y, z'
_cell_length_a     36.300324
_cell_length_b     32.587793
_cell_length_c     22.96954
_cell_angle_alpha  97.311588
_cell_angle_beta   84.251351
_cell_angle_gamma 89.47146
loop_
_atom_site_label
_atom_site_type_symbol
_atom_site_fract_x
_atom_site_fract_y
_atom_site_fract_z
_atom_type_partial_charge
Zn0 Zn 0.16843 0.30415 0.13031 0.0
C1 C 0.10925 0.38879 0.07762 0.0
N2 N 0.08138 0.3728 0.10997 0.0
C3 C 0.09528 0.33569 0.11765 0.0
N4 N 0.13055 0.32997 0.09213 0.0
N5 N 0.13872 0.36257 0.06479 0.0
C6 C 0.19527 0.4453 0.0252 0.0
O7 O 0.19109 0.43424 0.07838 0.0
O8 O 0.15169 0.2499 0.15407 0.0
Zn9 Zn 0.17741 0.36132 0.99914 0.0
N10 N 0.17766 0.34208 0.19911 0.0
C11 C 0.20442 0.40638 0.23059 0.0
C12 C 0.19634 0.37606 0.18571 0.0
C13 C 0.16745 0.33641 0.25625 0.0
N14 N 0.19425 0.401 0.28747 0.0
C15 C 0.17622 0.36671 0.30216 0.0
O16 O 0.2263 0.33394 0.01113 0.0
C17 C 0.23925 0.30801 0.04138 0.0
O18 O 0.21919 0.29415 0.08304 0.0
H19 H 0.20503 0.37921 0.14023 0.0
H20 H 0.15261 0.30895 0.26548 0.0
C21 C 0.16471 0.33745 0.87479 0.0
C22 C 0.15264 0.30941 0.82882 0.0
C23 C 0.12985 0.26595 0.89923 0.0
C24 C 0.14237 0.29325 0.94412 0.0
N25 N 0.15935 0.32847 0.93144 0.0
N26 N 0.13547 0.27449 0.84289 0.0
H27 H 0.17924 0.36512 0.86566 0.0
C28 C 0.1509 0.22116 0.11147 0.0
O29 O 0.15976 0.22954 0.05744 0.0
O30 O 0.18934 0.419 0.98156 0.0
H31 H 0.13924 0.28603 0.98877 0.0
H32 H 0.219 0.4338 0.22041 0.0
H33 H 0.11631 0.2378 0.9089 0.0
Zn34 Zn 0.71645 0.19736 0.076 0.0
C35 C 0.64316 0.11705 0.01589 0.0
N36 N 0.66106 0.09137 0.04523 0.0
C37 C 0.69163 0.11201 0.05793 0.0
N38 N 0.69238 0.14933 0.03767 0.0
N39 N 0.66203 0.15222 0.0102 0.0
C40 C 0.57574 0.20814 0.00822 0.0
O41 O 0.59158 0.204 0.05616 0.0
O42 O 0.76836 0.18607 0.09813 0.0
Zn43 Zn 0.65221 0.19241 0.95617 0.0
N44 N 0.68476 0.21575 0.14771 0.0
C45 C 0.6307 0.25458 0.18983 0.0
C46 C 0.65501 0.23958 0.1409 0.0
C47 C 0.69125 0.206 0.2018 0.0
N48 N 0.63713 0.24513 0.24378 0.0
C49 C 0.66669 0.22112 0.25169 0.0
O50 O 0.67774 0.24778 0.96866 0.0
C51 C 0.70353 0.26552 0.99544 0.0
O52 O 0.72 0.24801 0.03242 0.0
H53 H 0.65033 0.24696 0.09763 0.0
H54 H 0.7155 0.18741 0.20564 0.0
C55 C 0.66346 0.17881 0.82644 0.0
C56 C 0.68086 0.15923 0.77204 0.0
C57 C 0.71721 0.11825 0.82414 0.0
C58 C 0.70033 0.13792 0.87745 0.0
N59 N 0.67355 0.16747 0.87789 0.0
N60 N 0.70715 0.12931 0.77303 0.0
H61 H 0.64202 0.20232 0.82819 0.0
C62 C 0.79658 0.18841 0.06109 0.0
O63 O 0.79138 0.19285 0.00643 0.0
O64 O 0.59586 0.20437 0.95892 0.0
H65 H 0.70869 0.12957 0.91824 0.0
H66 H 0.60692 0.27365 0.18506 0.0
H67 H 0.73836 0.09451 0.82329 0.0
Zn68 Zn 0.86507 0.69889 0.09936 0.0
C69 C 0.83944 0.60653 0.9802 0.0
N70 N 0.87418 0.59256 0.98278 0.0
C71 C 0.88887 0.62362 0.0165 0.0
N72 N 0.8642 0.65481 0.03485 0.0
N73 N 0.83374 0.64522 0.0096 0.0
C74 C 0.74035 0.671 0.97738 0.0
O75 O 0.74713 0.67466 0.03286 0.0
O76 O 0.9174 0.71135 0.1165 0.0
Zn77 Zn 0.81633 0.6874 0.9658 0.0
N78 N 0.83663 0.68042 0.16588 0.0
C79 C 0.77946 0.654 0.20312 0.0
C80 C 0.80185 0.6678 0.15717 0.0
C81 C 0.85006 0.68022 0.21897 0.0
N82 N 0.79262 0.65404 0.25632 0.0
C83 C 0.82731 0.66702 0.26609 0.0
O84 O 0.81117 0.7468 0.00783 0.0
C85 C 0.82186 0.76904 0.05251 0.0
O86 O 0.84153 0.75366 0.08754 0.0
H87 H 0.79167 0.66855 0.11477 0.0
H88 H 0.87811 0.68994 0.22375 0.0
C89 C 0.84338 0.68418 0.84268 0.0
C90 C 0.87108 0.68591 0.79562 0.0
C91 C 0.91591 0.69686 0.86419 0.0
C92 C 0.8884 0.69519 0.91046 0.0
N93 N 0.85276 0.68889 0.89892 0.0
N94 N 0.90664 0.69234 0.80805 0.0
H95 H 0.81464 0.68002 0.83518 0.0
C96 C 0.93365 0.73499 0.0827 0.0
O97 O 0.91589 0.74727 0.04072 0.0
O98 O 0.76702 0.67336 0.9379 0.0
H99 H 0.89534 0.69898 0.95528 0.0
H100 H 0.75174 0.64365 0.19679 0.0
H101 H 0.9444 0.70186 0.87276 0.0
Zn102 Zn 0.36945 0.84366 0.92497 0.0
C103 C 0.31967 0.94498 0.01154 0.0
N104 N 0.34331 0.96528 0.97718 0.0
C105 C 0.36702 0.93479 0.95092 0.0
N106 N 0.3579 0.89785 0.96877 0.0
N107 N 0.3288 0.90474 0.00819 0.0
C108 C 0.24356 0.86922 0.06652 0.0
O109 O 0.25839 0.85669 0.0126 0.0
O110 O 0.4238 0.83153 0.90371 0.0
Zn111 Zn 0.31819 0.87464 0.07476 0.0
N112 N 0.34226 0.83904 0.85677 0.0
C113 C 0.28408 0.82169 0.82225 0.0
C114 C 0.30652 0.82796 0.868 0.0
C115 C 0.3566 0.84474 0.80141 0.0
N116 N 0.29832 0.82679 0.76691 0.0
C117 C 0.33397 0.83828 0.75486 0.0
O118 O 0.32423 0.81344 0.05692 0.0
C119 C 0.33568 0.78602 0.01461 0.0
O120 O 0.35123 0.79544 0.96623 0.0
H121 H 0.29571 0.82352 0.91224 0.0
H122 H 0.38529 0.85315 0.79374 0.0
C123 C 0.34334 0.88448 0.18989 0.0
C124 C 0.36746 0.89793 0.23252 0.0
C125 C 0.40314 0.93186 0.16119 0.0
C126 C 0.37955 0.91789 0.11912 0.0
N127 N 0.35007 0.89463 0.13429 0.0
N128 N 0.39662 0.92155 0.2166 0.0
H129 H 0.31929 0.86645 0.20027 0.0
C130 C 0.43913 0.81971 0.94629 0.0
O131 O 0.41986 0.82173 0.9982 0.0
O132 O 0.26455 0.88176 0.10583 0.0
H133 H 0.38483 0.92553 0.07474 0.0
H134 H 0.25564 0.81259 0.83048 0.0
H135 H 0.42663 0.95053 0.14985 0.0
C136 C 0.10205 0.4646 0.09977 0.0
C137 C 0.10526 0.42939 0.05745 0.0
C138 C 0.08671 0.5015 0.08701 0.0
C139 C 0.07328 0.5034 0.03198 0.0
C140 C 0.07991 0.46917 0.98789 0.0
C141 C 0.09562 0.43232 1.00061 0.0
C142 C 0.04889 0.53811 0.02079 0.0
C143 C 0.02845 0.56295 0.06422 0.0
C144 C 0.99586 0.58839 0.0539 0.0
C145 C 0.99036 0.59917 0.99791 0.0
C146 C 0.95596 0.61463 0.98736 0.0
C147 C 0.92682 0.62069 0.03269 0.0
H148 H 0.97116 0.591 0.14432 0.0
C149 C 0.93325 0.61423 0.08994 0.0
C150 C 0.96762 0.59835 0.1005 0.0
H151 H 0.91093 0.61829 0.12535 0.0
H152 H 0.10934 0.46281 0.14401 0.0
H153 H 0.08382 0.52759 0.12142 0.0
H154 H 0.07038 0.46984 0.9448 0.0
H155 H 0.09748 0.40528 0.9676 0.0
H156 H 0.04365 0.53883 0.97528 0.0
H157 H 0.03193 0.56018 0.1099 0.0
H158 H 0.01176 0.59393 0.96133 0.0
H159 H 0.95143 0.61955 0.9428 0.0
C160 C 0.58375 0.08113 0.02577 0.0
C161 C 0.60773 0.10494 0.99257 0.0
C162 C 0.55327 0.06251 1.00212 0.0
C163 C 0.5459 0.06722 0.94448 0.0
C164 C 0.56839 0.09301 0.91228 0.0
C165 C 0.59949 0.11122 0.93585 0.0
C166 C 0.51476 0.04487 0.91861 0.0
C167 C 0.50939 1.00475 0.92533 0.0
C168 C 0.47451 0.98209 0.91673 0.0
C169 C 0.46981 0.94506 0.9417 0.0
C170 C 0.43515 0.92712 0.94752 0.0
C171 C 0.40455 0.94493 0.92684 0.0
H172 H 0.44694 0.02624 0.87107 0.0
C173 C 0.4098 0.97981 0.89695 0.0
C174 C 0.4445 0.99827 0.89176 0.0
H175 H 0.38644 0.99456 0.88143 0.0
H176 H 0.58922 0.07581 0.06977 0.0
H177 H 0.53571 0.04383 0.02873 0.0
H178 H 0.56294 0.09747 0.86797 0.0
H179 H 0.61764 0.12852 0.90872 0.0
H180 H 0.49565 0.06227 0.89728 0.0
H181 H 0.53056 0.98875 0.94486 0.0
H182 H 0.49225 0.93185 0.96156 0.0
H183 H 0.43159 0.90212 0.97406 0.0
C184 C 0.16757 0.32374 0.38654 0.0
C185 C 0.16751 0.36252 0.36578 0.0
C186 C 0.1632 0.32102 0.44724 0.0
C187 C 0.15878 0.35707 0.48855 0.0
C188 C 0.15725 0.39558 0.46762 0.0
C189 C 0.16186 0.39832 0.40712 0.0
C190 C 0.15537 0.35592 0.55356 0.0
C191 C 0.16979 0.32509 0.57874 0.0
C192 C 0.16627 0.32311 0.6435 0.0
C193 C 0.16877 0.28417 0.66282 0.0
C194 C 0.16492 0.28024 0.72287 0.0
C195 C 0.1591 0.31526 0.76552 0.0
H196 H 0.16015 0.38918 0.67303 0.0
C197 C 0.15773 0.35456 0.74652 0.0
C198 C 0.1612 0.35848 0.68605 0.0
H199 H 0.15305 0.38216 0.77817 0.0
H200 H 0.17219 0.2955 0.35618 0.0
H201 H 0.16329 0.29061 0.46139 0.0
H202 H 0.1534 0.42382 0.49824 0.0
H203 H 0.1614 0.4287 0.39273 0.0
H204 H 0.14123 0.38196 0.58129 0.0
H205 H 0.18412 0.29925 0.55084 0.0
H206 H 0.17308 0.25645 0.63123 0.0
H207 H 0.16646 0.24952 0.73592 0.0
C208 C 0.65711 0.24015 0.3613 0.0
C209 C 0.6718 0.21226 0.31245 0.0
C210 C 0.6598 0.23178 0.41894 0.0
C211 C 0.67701 0.19491 0.42941 0.0
C212 C 0.69225 0.16736 0.3806 0.0
C213 C 0.68961 0.17579 0.32285 0.0
C214 C 0.68013 0.18401 0.48997 0.0
C215 C 0.66043 0.20256 0.53961 0.0
C216 C 0.66404 0.19049 0.59929 0.0
C217 C 0.65585 0.21986 0.64945 0.0
C218 C 0.66013 0.20985 0.70602 0.0
C219 C 0.67235 0.16996 0.71364 0.0
H220 H 0.67996 0.12611 0.57015 0.0
C221 C 0.67913 0.14021 0.6635 0.0
C222 C 0.67489 0.15021 0.60719 0.0
H223 H 0.688 0.10897 0.66763 0.0
H224 H 0.64352 0.26878 0.35506 0.0
H225 H 0.64859 0.25463 0.4547 0.0
H226 H 0.7058 0.13877 0.38709 0.0
H227 H 0.7007 0.15311 0.28664 0.0
H228 H 0.69958 0.15912 0.49333 0.0
H229 H 0.64142 0.22803 0.53748 0.0
H230 H 0.64703 0.25102 0.64475 0.0
H231 H 0.65509 0.23382 0.74325 0.0
C232 C 0.82246 0.64101 0.36419 0.0
C233 C 0.8394 0.66735 0.32599 0.0
C234 C 0.83133 0.64279 0.42215 0.0
C235 C 0.85723 0.67123 0.44344 0.0
C236 C 0.87509 0.69658 0.40491 0.0
C237 C 0.8661 0.69498 0.34694 0.0
C238 C 0.86629 0.67523 0.50538 0.0
C239 C 0.84168 0.66775 0.55058 0.0
C240 C 0.84971 0.67305 0.61323 0.0
C241 C 0.82739 0.65299 0.65396 0.0
C242 C 0.83389 0.65718 0.71335 0.0
C243 C 0.86278 0.68188 0.73334 0.0
H244 H 0.89529 0.71559 0.6044 0.0
C245 C 0.88482 0.70233 0.69273 0.0
C246 C 0.87824 0.69828 0.63351 0.0
H247 H 0.90701 0.722 0.70686 0.0
H248 H 0.80213 0.61898 0.34939 0.0
H249 H 0.81797 0.62166 0.44989 0.0
H250 H 0.89532 0.7186 0.42021 0.0
H251 H 0.87931 0.71639 0.31955 0.0
H252 H 0.89369 0.68605 0.51355 0.0
H253 H 0.81426 0.65723 0.54171 0.0
H254 H 0.80508 0.63356 0.63966 0.0
H255 H 0.81675 0.64036 0.74311 0.0
C256 C 0.33375 0.81703 0.64713 0.0
C257 C 0.34734 0.84311 0.69323 0.0
C258 C 0.34248 0.82359 0.58862 0.0
C259 C 0.36445 0.85707 0.57484 0.0
C260 C 0.37957 0.88193 0.62075 0.0
C261 C 0.37107 0.87509 0.67951 0.0
C262 C 0.37161 0.86723 0.51346 0.0
C263 C 0.34881 0.85619 0.47149 0.0
C264 C 0.35464 0.86718 0.41057 0.0
C265 C 0.33917 0.84216 0.36535 0.0
C266 C 0.34317 0.85181 0.30757 0.0
C267 C 0.36225 0.8873 0.29382 0.0
H268 H 0.38506 0.92346 0.43096 0.0
C269 C 0.37755 0.91248 0.33934 0.0
C270 C 0.37373 0.90266 0.39706 0.0
H271 H 0.39221 0.9402 0.33057 0.0
H272 H 0.31595 0.79164 0.65637 0.0
H273 H 0.33171 0.80236 0.55464 0.0
H274 H 0.39697 0.9076 0.61134 0.0
H275 H 0.38178 0.89589 0.71414 0.0
H276 H 0.39572 0.88552 0.50345 0.0
H277 H 0.32457 0.83813 0.48149 0.0
H278 H 0.32424 0.8147 0.37463 0.0
H279 H 0.33181 0.8309 0.27386 0.0
C280 C 0.15329 0.1653 0.17615 0.0
C281 C 0.14585 0.1779 0.12217 0.0
C282 C 0.15777 0.12325 0.1809 0.0
C283 C 0.15463 0.09346 0.13176 0.0
C284 C 0.14241 0.106 0.0806 0.0
C285 C 0.1384 0.14794 0.07559 0.0
C286 C 0.17037 0.051 0.12759 0.0
C287 C 0.20323 0.04449 0.14799 0.0
C288 C 0.23098 1.01229 0.11943 0.0
C289 C 0.26749 1.0157 0.13492 0.0
C290 C 0.29647 0.99261 0.10103 0.0
C291 C 0.28928 0.96546 0.05149 0.0
H292 H 0.19637 0.97814 0.05811 0.0
C293 C 0.2529 0.96031 0.03734 0.0
C294 C 0.22382 0.98287 0.07153 0.0
H295 H 0.24709 0.93972 0.99862 0.0
H296 H 0.15855 0.18784 0.21312 0.0
H297 H 0.16606 0.11432 0.22159 0.0
H298 H 0.13936 0.08359 0.04236 0.0
H299 H 0.1318 0.15689 0.03392 0.0
H300 H 0.1596 0.02816 0.09558 0.0
H301 H 0.21354 0.06852 0.17911 0.0
H302 H 0.27401 0.03799 0.17142 0.0
H303 H 0.32458 0.99696 0.1123 0.0
C304 C 0.03736 0.31045 0.16806 0.0
C305 C 0.06945 0.30183 0.12858 0.0
C306 C 1.00663 0.28474 0.16492 0.0
C307 C 1.00731 0.24967 0.12188 0.0
C308 C 0.04051 0.23951 0.08558 0.0
C309 C 0.07103 0.26538 0.08857 0.0
C310 C 0.97325 0.22635 0.10756 0.0
C311 C 0.9399 0.23123 0.1399 0.0
C312 C 0.90477 0.21418 0.11863 0.0
C313 C 0.87408 0.2102 0.15988 0.0
C314 C 0.83935 0.19953 0.14137 0.0
C315 C 0.83431 0.19314 0.08098 0.0
H316 H 0.92248 0.20969 0.02466 0.0
C317 C 0.86528 0.19562 0.03965 0.0
C318 C 0.90002 0.20602 0.05812 0.0
H319 H 0.86246 0.19105 0.99278 0.0
H320 H 0.03498 0.33885 0.19849 0.0
H321 H 0.98184 0.29433 0.19366 0.0
H322 H 0.04205 0.21298 0.05175 0.0
H323 H 0.09434 0.25881 0.05555 0.0
H324 H 0.97558 0.20546 0.06652 0.0
H325 H 0.93758 0.24927 0.18319 0.0
H326 H 0.8767 0.21653 0.20673 0.0
H327 H 0.81613 0.19807 0.1745 0.0
C328 C 0.79967 0.83518 0.01895 0.0
C329 C 0.81197 0.81419 0.06362 0.0
C330 C 0.79094 0.87779 0.02953 0.0
C331 C 0.79388 0.90042 0.08533 0.0
C332 C 0.80586 0.87933 0.12996 0.0
C333 C 0.8152 0.83699 0.11913 0.0
C334 C 0.78173 0.94493 0.09993 0.0
C335 C 0.78327 0.97234 0.0602 0.0
C336 C 0.76632 1.01521 0.07207 0.0
C337 C 0.7758 0.0438 0.03215 0.0
C338 C 0.75471 0.08039 0.03364 0.0
C339 C 0.72335 0.08885 0.07463 0.0
H340 H 0.72864 1.00533 0.14859 0.0
C341 C 0.71622 0.06256 0.11827 0.0
C342 C 0.73739 0.02623 0.11718 0.0
H343 H 0.69173 0.06782 0.14959 0.0
H344 H 0.79687 0.81872 0.97564 0.0
H345 H 0.78089 0.8926 0.99441 0.0
H346 H 0.80799 0.89569 0.17357 0.0
H347 H 0.82445 0.82198 0.1547 0.0
H348 H 0.7715 0.95525 0.14551 0.0
H349 H 0.79661 0.96263 0.01605 0.0
H350 H 0.79794 0.03641 0.99697 0.0
H351 H 0.76036 0.09942 0.9985 0.0
C352 C 0.98823 0.77559 0.05197 0.0
C353 C 0.97083 0.75093 0.09196 0.0
C354 C 0.02237 0.79291 0.06132 0.0
C355 C 0.0399 0.78639 0.1114 0.0
C356 C 0.02315 0.76059 0.15045 0.0
C357 C 0.98879 0.7431 0.14101 0.0
C358 C 0.07663 0.80412 0.1214 0.0
C359 C 0.08819 0.83899 0.10014 0.0
C360 C 0.12727 0.85154 0.09695 0.0
C361 C 0.14229 0.86727 0.04589 0.0
C362 C 0.18007 0.8745 0.03716 0.0
C363 C 0.20329 0.8674 0.08023 0.0
H364 H 0.13908 0.83488 0.18181 0.0
C365 C 0.18798 0.85454 0.13334 0.0
C366 C 0.15017 0.84617 0.14143 0.0
H367 H 0.2055 0.84887 0.16711 0.0
H368 H 0.97547 0.78166 0.01317 0.0
H369 H 0.03512 0.81077 0.02844 0.0
H370 H 0.03647 0.75434 0.18866 0.0
H371 H 0.97615 0.72395 0.17238 0.0
H372 H 0.09515 0.78683 0.14413 0.0
H373 H 0.06956 0.85646 0.07788 0.0
H374 H 0.12509 0.87193 0.01125 0.0
H375 H 0.1913 0.88469 0.99603 0.0
C376 C 0.81682 0.54131 0.92787 0.0
C377 C 0.80985 0.57597 0.97091 0.0
C378 C 0.7959 0.5055 0.93044 0.0
C379 C 0.76763 0.5034 0.97663 0.0
C380 C 0.75906 0.53914 0.01721 0.0
C381 C 0.77978 0.57508 0.01425 0.0
C382 C 0.75026 0.46339 0.9885 0.0
C383 C 0.74852 0.43008 0.94738 0.0
C384 C 0.73536 0.38888 0.9619 0.0
C385 C 0.71762 0.3628 0.92035 0.0
C386 C 0.70675 0.32309 0.93155 0.0
C387 C 0.71432 0.30802 0.98397 0.0
H388 H 0.75705 0.39278 0.04707 0.0
C389 C 0.73243 0.33399 0.02533 0.0
C390 C 0.74259 0.37401 0.01466 0.0
H391 H 0.7387 0.32344 0.06617 0.0
H392 H 0.84029 0.5408 0.89467 0.0
H393 H 0.80393 0.47864 0.89881 0.0
H394 H 0.73762 0.53851 0.05345 0.0
H395 H 0.77441 0.60063 0.04921 0.0
H396 H 0.73896 0.46116 0.0336 0.0
H397 H 0.75649 0.43294 0.90126 0.0
H398 H 0.71209 0.37319 0.87905 0.0
H399 H 0.69303 0.3039 0.89858 0.0
C400 C 0.49092 0.78409 0.98417 0.0
C401 C 0.47671 0.80083 0.93742 0.0
C402 C 0.52503 0.76322 0.97569 0.0
C403 C 0.54577 0.75847 0.92012 0.0
C404 C 0.53235 0.77655 0.87388 0.0
C405 C 0.4979 0.79729 0.88226 0.0
C406 C 0.58241 0.73694 0.91105 0.0
C407 C 0.59005 0.70529 0.94071 0.0
C408 C 0.62817 0.6898 0.944 0.0
C409 C 0.63611 0.67465 0.99598 0.0
C410 C 0.67259 0.66618 0.00548 0.0
C411 C 0.70177 0.67208 0.96267 0.0
H412 H 0.65175 0.70272 0.85765 0.0
C413 C 0.69358 0.68366 0.9084 0.0
C414 C 0.65706 0.69259 0.89915 0.0
H415 H 0.71551 0.68799 0.87426 0.0
H416 H 0.47551 0.78663 0.02742 0.0
H417 H 0.53525 0.75135 0.01311 0.0
H418 H 0.54825 0.77403 0.83101 0.0
H419 H 0.48773 0.8101 0.84549 0.0
H420 H 0.60376 0.74905 0.88175 0.0
H421 H 0.56808 0.69335 0.96918 0.0
H422 H 0.61427 0.67167 0.03088 0.0
H423 H 0.67804 0.65672 0.0474 0.0
C424 C 0.21414 0.51563 0.0658 0.0
C425 C 0.20977 0.48649 0.01657 0.0
C426 C 0.23114 0.55312 0.05881 0.0
C427 C 0.24448 0.56217 1.00232 0.0
C428 C 0.23848 0.53392 0.95288 0.0
C429 C 0.22138 0.49631 0.95988 0.0
C430 C 0.264 0.60108 0.99359 0.0
C431 C 0.28307 0.62174 0.03504 0.0
C432 C 0.3001 0.66227 0.02868 0.0
C433 C 0.30223 0.69056 0.07956 0.0
C434 C 0.31519 0.73034 0.07523 0.0
C435 C 0.32693 0.74238 0.01986 0.0
H436 H 0.31351 0.65197 0.93355 0.0
C437 C 0.32695 0.71322 0.96917 0.0
C438 C 0.31356 0.67353 0.97348 0.0
H439 H 0.336 0.72148 0.92588 0.0
H440 H 0.20486 0.50932 0.11003 0.0
H441 H 0.23356 0.57488 0.09786 0.0
H442 H 0.24787 0.54049 0.90881 0.0
H443 H 0.21816 0.47456 0.92105 0.0
H444 H 0.26252 0.61283 0.95169 0.0
H445 H 0.28472 0.6099 0.07681 0.0
H446 H 0.2925 0.6824 0.12267 0.0
H447 H 0.31513 0.75197 0.11517 0.0
C448 C 0.5168 0.22318 0.96309 0.0
C449 C 0.53503 0.21694 0.01266 0.0
C450 C 0.47845 0.2321 0.96881 0.0
C451 C 0.45743 0.23498 0.02441 0.0
C452 C 0.47578 0.22811 0.07346 0.0
C453 C 0.51387 0.21939 0.0678 0.0
C454 C 0.41648 0.24415 0.03403 0.0
C455 C 0.39634 0.26042 0.99568 0.0
C456 C 0.35572 0.27127 0.00795 0.0
C457 C 0.34018 0.29927 0.97492 0.0
C458 C 0.30253 0.31086 0.98532 0.0
C459 C 0.2791 0.29458 0.02896 0.0
H460 H 0.34227 0.23158 0.07616 0.0
C461 C 0.29442 0.26587 0.06126 0.0
C462 C 0.33209 0.25425 0.05082 0.0
H463 H 0.27729 0.2523 0.09485 0.0
H464 H 0.53214 0.22123 0.91985 0.0
H465 H 0.46554 0.23617 0.92946 0.0
H466 H 0.46059 0.22975 0.11681 0.0
H467 H 0.52672 0.2146 0.10704 0.0
H468 H 0.40283 0.23907 0.07664 0.0
H469 H 0.4103 0.26835 0.95474 0.0
H470 H 0.35736 0.31272 0.94125 0.0
H471 H 0.2919 0.33292 0.95931 0.0
loop_
_geom_bond_atom_site_label_1
_geom_bond_atom_site_label_2
_geom_bond_distance
_geom_bond_site_symmetry_2
_ccdc_geom_bond_type
Zn0 N4 2.020 . S
Zn0 O8 2.019 . S
Zn0 N10 2.119 . S
Zn0 O18 1.975 . S
C1 N2 1.334 . S
C1 N5 1.336 . S
N2 C1 1.334 . S
N2 C3 1.334 . S
C3 N2 1.334 . S
C3 N4 1.336 . S
N4 Zn0 2.020 . S
N4 C3 1.336 . S
N4 N5 1.354 . S
N5 C1 1.336 . S
N5 N4 1.354 . S
N5 Zn9 2.020 . S
C6 O7 1.244 . S
C6 O30 1.257 1_554 S
O7 C6 1.244 . S
O8 Zn0 2.019 . S
O8 C28 1.257 . S
Zn9 N5 2.020 . S
Zn9 O16 1.975 . S
Zn9 N25 2.119 1_554 S
Zn9 O30 2.019 1_554 S
N10 Zn0 2.119 . S
N10 C12 1.334 . S
N10 C13 1.328 . S
C11 C12 1.391 . S
C11 N14 1.329 . S
C11 H32 0.930 . S
C12 N10 1.334 . S
C12 C11 1.391 . S
C12 H19 0.930 . S
C13 N10 1.328 . S
C13 C15 1.392 . S
C13 H20 0.930 . S
N14 C11 1.329 . S
N14 C15 1.331 . S
C15 C13 1.392 . S
C15 N14 1.331 . S
O16 Zn9 1.975 . S
O16 C17 1.252 . S
C17 O16 1.252 . S
C17 O18 1.252 . S
O18 Zn0 1.975 . S
O18 C17 1.252 . S
H19 C12 0.930 . S
H20 C13 0.930 . S
C21 C22 1.392 . S
C21 N25 1.328 . S
C21 H27 0.930 . S
C22 C21 1.392 . S
C22 N26 1.331 . S
C23 C24 1.391 . S
C23 N26 1.329 . S
C23 H33 0.930 . S
C24 C23 1.391 . S
C24 N25 1.334 . S
C24 H31 0.930 . S
N25 Zn9 2.119 1_556 S
N25 C21 1.328 . S
N25 C24 1.334 . S
N26 C22 1.331 . S
N26 C23 1.329 . S
H27 C21 0.930 . S
C28 O8 1.257 . S
C28 O29 1.244 . S
O29 C28 1.244 . S
O30 C6 1.257 1_556 S
O30 Zn9 2.019 1_556 S
H31 C24 0.930 . S
H32 C11 0.930 . S
H33 C23 0.930 . S
Zn34 N38 2.020 . S
Zn34 O42 2.019 . S
Zn34 N44 2.119 . S
Zn34 O52 1.975 . S
C35 N36 1.334 1_556 S
C35 N39 1.336 . S
N36 C35 1.334 1_554 S
N36 C37 1.334 . S
C37 N36 1.334 . S
C37 N38 1.336 . S
N38 Zn34 2.020 . S
N38 C37 1.336 . S
N38 N39 1.354 1_554 S
N39 C35 1.336 . S
N39 N38 1.354 1_556 S
N39 Zn43 2.020 . S
C40 O41 1.244 1_556 S
C40 O64 1.257 . S
O41 C40 1.244 1_554 S
O42 Zn34 2.019 . S
O42 C62 1.257 . S
Zn43 N39 2.020 . S
Zn43 O50 1.975 1_556 S
Zn43 N59 2.119 . S
Zn43 O64 2.019 . S
N44 Zn34 2.119 . S
N44 C46 1.334 . S
N44 C47 1.328 . S
C45 C46 1.391 . S
C45 N48 1.329 . S
C45 H66 0.930 . S
C46 N44 1.334 . S
C46 C45 1.391 . S
C46 H53 0.930 . S
C47 N44 1.328 . S
C47 C49 1.392 . S
C47 H54 0.930 . S
N48 C45 1.329 . S
N48 C49 1.331 . S
C49 C47 1.392 . S
C49 N48 1.331 . S
O50 Zn43 1.975 1_554 S
O50 C51 1.252 . S
C51 O50 1.252 . S
C51 O52 1.252 . S
O52 Zn34 1.975 . S
O52 C51 1.252 . S
H53 C46 0.930 . S
H54 C47 0.930 . S
C55 C56 1.392 . S
C55 N59 1.328 . S
C55 H61 0.930 . S
C56 C55 1.392 . S
C56 N60 1.331 . S
C57 C58 1.391 . S
C57 N60 1.329 . S
C57 H67 0.930 . S
C58 C57 1.391 . S
C58 N59 1.334 . S
C58 H65 0.930 . S
N59 Zn43 2.119 . S
N59 C55 1.328 . S
N59 C58 1.334 . S
N60 C56 1.331 . S
N60 C57 1.329 . S
H61 C55 0.930 . S
C62 O42 1.257 . S
C62 O63 1.244 1_554 S
O63 C62 1.244 1_556 S
O64 C40 1.257 . S
O64 Zn43 2.019 . S
H65 C58 0.930 . S
H66 C45 0.930 . S
H67 C57 0.930 . S
Zn68 N72 2.020 . S
Zn68 O76 2.019 . S
Zn68 N78 2.119 . S
Zn68 O86 1.975 . S
C69 N70 1.328 1_556 S
C69 N73 1.335 1_556 S
N70 C69 1.328 1_554 S
N70 C71 1.334 . S
C71 N70 1.334 . S
C71 N72 1.336 . S
N72 Zn68 2.020 . S
N72 C71 1.336 . S
N72 N73 1.354 . S
N73 C69 1.335 1_554 S
N73 N72 1.354 . S
N73 Zn77 2.020 1_554 S
C74 O75 1.244 . S
C74 O98 1.257 1_554 S
O75 C74 1.244 . S
O76 Zn68 2.019 . S
O76 C96 1.257 . S
Zn77 N73 2.020 1_556 S
Zn77 O84 1.975 1_556 S
Zn77 N93 2.119 . S
Zn77 O98 2.019 . S
N78 Zn68 2.119 . S
N78 C80 1.334 . S
N78 C81 1.328 . S
C79 C80 1.391 . S
C79 N82 1.329 . S
C79 H100 0.930 . S
C80 N78 1.334 . S
C80 C79 1.391 . S
C80 H87 0.930 . S
C81 N78 1.328 . S
C81 C83 1.392 . S
C81 H88 0.930 . S
N82 C79 1.329 . S
N82 C83 1.331 . S
C83 C81 1.392 . S
C83 N82 1.331 . S
O84 Zn77 1.975 1_554 S
O84 C85 1.252 . S
C85 O84 1.252 . S
C85 O86 1.252 . S
O86 Zn68 1.975 . S
O86 C85 1.252 . S
H87 C80 0.930 . S
H88 C81 0.930 . S
C89 C90 1.392 . S
C89 N93 1.328 . S
C89 H95 0.930 . S
C90 C89 1.392 . S
C90 N94 1.331 . S
C91 C92 1.391 . S
C91 N94 1.329 . S
C91 H101 0.930 . S
C92 C91 1.391 . S
C92 N93 1.334 . S
C92 H99 0.930 . S
N93 Zn77 2.119 . S
N93 C89 1.328 . S
N93 C92 1.334 . S
N94 C90 1.331 . S
N94 C91 1.329 . S
H95 C89 0.930 . S
C96 O76 1.257 . S
C96 O97 1.244 . S
O97 C96 1.244 . S
O98 C74 1.257 1_556 S
O98 Zn77 2.019 . S
H99 C92 0.930 . S
H100 C79 0.930 . S
H101 C91 0.930 . S
Zn102 N106 2.020 . S
Zn102 O110 2.019 . S
Zn102 N112 2.119 . S
Zn102 O120 1.975 . S
C103 N104 1.334 . S
C103 N107 1.336 . S
N104 C103 1.334 . S
N104 C105 1.334 1_554 S
C105 N104 1.334 1_556 S
C105 N106 1.336 . S
N106 Zn102 2.020 . S
N106 C105 1.336 . S
N106 N107 1.354 1_556 S
N107 C103 1.336 . S
N107 N106 1.354 1_554 S
N107 Zn111 2.020 . S
C108 O109 1.244 1_554 S
C108 O132 1.257 . S
O109 C108 1.244 1_556 S
O110 Zn102 2.019 . S
O110 C130 1.257 . S
Zn111 N107 2.020 . S
Zn111 O118 1.975 . S
Zn111 N127 2.119 . S
Zn111 O132 2.019 . S
N112 Zn102 2.119 . S
N112 C114 1.334 . S
N112 C115 1.328 . S
C113 C114 1.391 . S
C113 N116 1.329 . S
C113 H134 0.930 . S
C114 N112 1.334 . S
C114 C113 1.391 . S
C114 H121 0.930 . S
C115 N112 1.328 . S
C115 C117 1.392 . S
C115 H122 0.930 . S
N116 C113 1.329 . S
N116 C117 1.331 . S
C117 C115 1.392 . S
C117 N116 1.331 . S
O118 Zn111 1.975 . S
O118 C119 1.252 1_554 S
C119 O118 1.252 1_556 S
C119 O120 1.252 . S
O120 Zn102 1.975 . S
O120 C119 1.252 . S
H121 C114 0.930 . S
H122 C115 0.930 . S
C123 C124 1.392 . S
C123 N127 1.328 . S
C123 H129 0.930 . S
C124 C123 1.392 . S
C124 N128 1.331 . S
C125 C126 1.391 . S
C125 N128 1.329 . S
C125 H135 0.930 . S
C126 C125 1.391 . S
C126 N127 1.334 . S
C126 H133 0.930 . S
N127 Zn111 2.119 . S
N127 C123 1.328 . S
N127 C126 1.334 . S
N128 C124 1.331 . S
N128 C125 1.329 . S
H129 C123 0.930 . S
C130 O110 1.257 . S
C130 O131 1.244 1_556 S
O131 C130 1.244 1_554 S
O132 C108 1.257 . S
O132 Zn111 2.019 . S
H133 C126 0.930 . S
H134 C113 0.930 . S
H135 C125 0.930 . S
C136 C137 1.386 . S
C136 C138 1.383 . S
C136 H152 0.951 . S
C137 C136 1.386 . S
C137 C141 1.383 . S
C138 C136 1.383 . S
C138 C139 1.402 . S
C138 H153 0.951 . S
C139 C138 1.402 . S
C139 C140 1.375 . S
C139 C142 1.481 1_455 S
C140 C139 1.375 . S
C140 C141 1.367 . S
C140 H154 0.951 1_455 S
C141 C137 1.383 . S
C141 C140 1.367 . S
C141 H155 0.950 . S
C142 C139 1.481 1_655 S
C142 C143 1.297 . S
C142 H156 0.950 . S
C143 C142 1.297 . S
C143 C144 1.479 . S
C143 H157 0.950 1_655 S
C144 C143 1.479 . S
C144 C145 1.375 . S
C144 C150 1.404 . S
C145 C144 1.375 . S
C145 C146 1.369 . S
C145 H158 0.950 . S
C146 C145 1.369 . S
C146 C147 1.392 . S
C146 H159 0.951 . S
C147 C146 1.392 . S
C147 C149 1.384 . S
H148 C150 0.949 . S
C149 C147 1.384 . S
C149 C150 1.385 . S
C149 H151 0.950 . S
C150 C144 1.404 . S
C150 H148 0.949 . S
C150 C149 1.385 . S
H151 C149 0.950 . S
H152 C136 0.951 . S
H153 C138 0.951 . S
H154 C140 0.951 1_655 S
H155 C141 0.950 . S
H156 C142 0.950 . S
H157 C143 0.950 1_455 S
H158 C145 0.950 . S
H159 C146 0.951 . S
C160 C161 1.386 1_554 S
C160 C162 1.383 . S
C160 H176 0.951 . S
C161 C160 1.386 1_556 S
C161 C165 1.383 . S
C162 C160 1.383 . S
C162 C163 1.402 1_554 S
C162 H177 0.951 . S
C163 C162 1.402 1_556 S
C163 C164 1.375 . S
C163 C166 1.481 . S
C164 C163 1.375 . S
C164 C165 1.367 . S
C164 H178 0.951 . S
C165 C161 1.383 . S
C165 C164 1.367 . S
C165 H179 0.950 . S
C166 C163 1.481 . S
C166 C167 1.306 . S
C166 H180 0.950 . S
C167 C166 1.306 . S
C167 C168 1.463 1_545 S
C167 H181 0.959 1_556 S
C168 C167 1.463 1_565 S
C168 C169 1.375 1_556 S
C168 C174 1.404 . S
C169 C168 1.375 1_554 S
C169 C170 1.369 . S
C169 H182 0.950 . S
C170 C169 1.369 . S
C170 C171 1.392 1_554 S
C170 H183 0.951 . S
C171 C170 1.392 1_556 S
C171 C173 1.384 . S
H172 C174 0.949 . S
C173 C171 1.384 . S
C173 C174 1.385 . S
C173 H175 0.950 . S
C174 C168 1.404 . S
C174 H172 0.949 . S
C174 C173 1.385 . S
H175 C173 0.950 . S
H176 C160 0.951 . S
H177 C162 0.951 . S
H178 C164 0.951 . S
H179 C165 0.950 . S
H180 C166 0.950 . S
H181 C167 0.959 1_554 S
H182 C169 0.950 . S
H183 C170 0.951 . S
C184 C185 1.386 . S
C184 C186 1.383 . S
C184 H200 0.951 . S
C185 C184 1.386 . S
C185 C189 1.383 . S
C186 C184 1.383 . S
C186 C187 1.402 . S
C186 H201 0.951 . S
C187 C186 1.402 . S
C187 C188 1.375 . S
C187 C190 1.481 . S
C188 C187 1.375 . S
C188 C189 1.367 . S
C188 H202 0.951 . S
C189 C185 1.383 . S
C189 C188 1.367 . S
C189 H203 0.950 . S
C190 C187 1.481 . S
C190 C191 1.297 . S
C190 H204 0.950 . S
C191 C190 1.297 . S
C191 C192 1.479 . S
C191 H205 0.950 . S
C192 C191 1.479 . S
C192 C193 1.375 . S
C192 C198 1.404 . S
C193 C192 1.375 . S
C193 C194 1.369 . S
C193 H206 0.950 . S
C194 C193 1.369 . S
C194 C195 1.392 . S
C194 H207 0.951 . S
C195 C194 1.392 . S
C195 C197 1.384 . S
H196 C198 0.949 . S
C197 C195 1.384 . S
C197 C198 1.385 . S
C197 H199 0.950 . S
C198 C192 1.404 . S
C198 H196 0.949 . S
C198 C197 1.385 . S
H199 C197 0.950 . S
H200 C184 0.951 . S
H201 C186 0.951 . S
H202 C188 0.951 . S
H203 C189 0.950 . S
H204 C190 0.950 . S
H205 C191 0.950 . S
H206 C193 0.950 . S
H207 C194 0.951 . S
C208 C209 1.386 . S
C208 C210 1.383 . S
C208 H224 0.951 . S
C209 C208 1.386 . S
C209 C213 1.383 . S
C210 C208 1.383 . S
C210 C211 1.402 . S
C210 H225 0.951 . S
C211 C210 1.402 . S
C211 C212 1.375 . S
C211 C214 1.481 . S
C212 C211 1.375 . S
C212 C213 1.367 . S
C212 H226 0.951 . S
C213 C209 1.383 . S
C213 C212 1.367 . S
C213 H227 0.950 . S
C214 C211 1.481 . S
C214 C215 1.297 . S
C214 H228 0.950 . S
C215 C214 1.297 . S
C215 C216 1.479 . S
C215 H229 0.950 . S
C216 C215 1.479 . S
C216 C217 1.375 . S
C216 C222 1.404 . S
C217 C216 1.375 . S
C217 C218 1.369 . S
C217 H230 0.950 . S
C218 C217 1.369 . S
C218 C219 1.392 . S
C218 H231 0.951 . S
C219 C218 1.392 . S
C219 C221 1.384 . S
H220 C222 0.949 . S
C221 C219 1.384 . S
C221 C222 1.385 . S
C221 H223 0.950 . S
C222 C216 1.404 . S
C222 H220 0.949 . S
C222 C221 1.385 . S
H223 C221 0.950 . S
H224 C208 0.951 . S
H225 C210 0.951 . S
H226 C212 0.951 . S
H227 C213 0.950 . S
H228 C214 0.950 . S
H229 C215 0.950 . S
H230 C217 0.950 . S
H231 C218 0.951 . S
C232 C233 1.386 . S
C232 C234 1.383 . S
C232 H248 0.951 . S
C233 C232 1.386 . S
C233 C237 1.383 . S
C234 C232 1.383 . S
C234 C235 1.402 . S
C234 H249 0.951 . S
C235 C234 1.402 . S
C235 C236 1.375 . S
C235 C238 1.481 . S
C236 C235 1.375 . S
C236 C237 1.367 . S
C236 H250 0.951 . S
C237 C233 1.383 . S
C237 C236 1.367 . S
C237 H251 0.950 . S
C238 C235 1.481 . S
C238 C239 1.297 . S
C238 H252 0.950 . S
C239 C238 1.297 . S
C239 C240 1.479 . S
C239 H253 0.950 . S
C240 C239 1.479 . S
C240 C241 1.375 . S
C240 C246 1.404 . S
C241 C240 1.375 . S
C241 C242 1.369 . S
C241 H254 0.950 . S
C242 C241 1.369 . S
C242 C243 1.392 . S
C242 H255 0.951 . S
C243 C242 1.392 . S
C243 C245 1.384 . S
H244 C246 0.949 . S
C245 C243 1.384 . S
C245 C246 1.385 . S
C245 H247 0.950 . S
C246 C240 1.404 . S
C246 H244 0.949 . S
C246 C245 1.385 . S
H247 C245 0.950 . S
H248 C232 0.951 . S
H249 C234 0.951 . S
H250 C236 0.951 . S
H251 C237 0.950 . S
H252 C238 0.950 . S
H253 C239 0.950 . S
H254 C241 0.950 . S
H255 C242 0.951 . S
C256 C257 1.386 . S
C256 C258 1.383 . S
C256 H272 0.951 . S
C257 C256 1.386 . S
C257 C261 1.383 . S
C258 C256 1.383 . S
C258 C259 1.402 . S
C258 H273 0.951 . S
C259 C258 1.402 . S
C259 C260 1.375 . S
C259 C262 1.481 . S
C260 C259 1.375 . S
C260 C261 1.367 . S
C260 H274 0.951 . S
C261 C257 1.383 . S
C261 C260 1.367 . S
C261 H275 0.950 . S
C262 C259 1.481 . S
C262 C263 1.297 . S
C262 H276 0.950 . S
C263 C262 1.297 . S
C263 C264 1.479 . S
C263 H277 0.950 . S
C264 C263 1.479 . S
C264 C265 1.375 . S
C264 C270 1.404 . S
C265 C264 1.375 . S
C265 C266 1.369 . S
C265 H278 0.950 . S
C266 C265 1.369 . S
C266 C267 1.392 . S
C266 H279 0.951 . S
C267 C266 1.392 . S
C267 C269 1.384 . S
H268 C270 0.949 . S
C269 C267 1.384 . S
C269 C270 1.385 . S
C269 H271 0.950 . S
C270 C264 1.404 . S
C270 H268 0.949 . S
C270 C269 1.385 . S
H271 C269 0.950 . S
H272 C256 0.951 . S
H273 C258 0.951 . S
H274 C260 0.951 . S
H275 C261 0.950 . S
H276 C262 0.950 . S
H277 C263 0.950 . S
H278 C265 0.950 . S
H279 C266 0.951 . S
C280 C281 1.386 . S
C280 C282 1.383 . S
C280 H296 0.951 . S
C281 C280 1.386 . S
C281 C285 1.383 . S
C282 C280 1.383 . S
C282 C283 1.402 . S
C282 H297 0.951 . S
C283 C282 1.402 . S
C283 C284 1.375 . S
C283 C286 1.481 . S
C284 C283 1.375 . S
C284 C285 1.367 . S
C284 H298 0.951 1_554 S
C285 C281 1.383 . S
C285 C284 1.367 . S
C285 H299 0.950 . S
C286 C283 1.481 . S
C286 C287 1.297 . S
C286 H300 0.950 . S
C287 C286 1.297 . S
C287 C288 1.479 1_545 S
C287 H301 0.950 . S
C288 C287 1.479 1_565 S
C288 C289 1.375 . S
C288 C294 1.404 . S
C289 C288 1.375 . S
C289 C290 1.369 . S
C289 H302 0.950 . S
C290 C289 1.369 . S
C290 C291 1.392 . S
C290 H303 0.951 . S
C291 C290 1.392 . S
C291 C293 1.384 . S
H292 C294 0.949 1_556 S
C293 C291 1.384 . S
C293 C294 1.385 . S
C293 H295 0.950 1_554 S
C294 C288 1.404 . S
C294 H292 0.949 1_554 S
C294 C293 1.385 . S
H295 C293 0.950 1_556 S
H296 C280 0.951 . S
H297 C282 0.951 . S
H298 C284 0.951 1_556 S
H299 C285 0.950 . S
H300 C286 0.950 . S
H301 C287 0.950 . S
H302 C289 0.950 . S
H303 C290 0.951 . S
C304 C305 1.386 . S
C304 C306 1.383 . S
C304 H320 0.951 . S
C305 C304 1.386 . S
C305 C309 1.383 . S
C306 C304 1.383 . S
C306 C307 1.403 . S
C306 H321 0.951 1_455 S
C307 C306 1.403 . S
C307 C308 1.390 . S
C307 C310 1.465 1_455 S
C308 C307 1.390 . S
C308 C309 1.367 . S
C308 H322 0.951 . S
C309 C305 1.383 . S
C309 C308 1.367 . S
C309 H323 0.950 . S
C310 C307 1.465 1_655 S
C310 C311 1.297 . S
C310 H324 0.950 . S
C311 C310 1.297 . S
C311 C312 1.479 . S
C311 H325 0.950 . S
C312 C311 1.479 . S
C312 C313 1.375 . S
C312 C318 1.404 . S
C313 C312 1.375 . S
C313 C314 1.369 . S
C313 H326 0.950 . S
C314 C313 1.369 . S
C314 C315 1.392 . S
C314 H327 0.951 . S
C315 C314 1.392 . S
C315 C317 1.384 . S
H316 C318 0.949 . S
C317 C315 1.384 . S
C317 C318 1.385 . S
C317 H319 0.950 . S
C318 C312 1.404 . S
C318 H316 0.949 . S
C318 C317 1.385 . S
H319 C317 0.950 . S
H320 C304 0.951 . S
H321 C306 0.951 1_655 S
H322 C308 0.951 . S
H323 C309 0.950 . S
H324 C310 0.950 . S
H325 C311 0.950 . S
H326 C313 0.950 . S
H327 C314 0.951 . S
C328 C329 1.386 . S
C328 C330 1.383 . S
C328 H344 0.951 1_554 S
C329 C328 1.386 . S
C329 C333 1.383 . S
C330 C328 1.383 . S
C330 C331 1.402 . S
C330 H345 0.951 . S
C331 C330 1.402 . S
C331 C332 1.375 . S
C331 C334 1.481 . S
C332 C331 1.375 . S
C332 C333 1.367 . S
C332 H346 0.951 . S
C333 C329 1.383 . S
C333 C332 1.367 . S
C333 H347 0.950 . S
C334 C331 1.481 . S
C334 C335 1.297 . S
C334 H348 0.950 . S
C335 C334 1.297 . S
C335 C336 1.479 . S
C335 H349 0.950 . S
C336 C335 1.479 . S
C336 C337 1.375 . S
C336 C342 1.404 1_565 S
C337 C336 1.375 . S
C337 C338 1.369 1_565 S
C337 H350 0.948 1_554 S
C338 C337 1.369 1_545 S
C338 C339 1.392 . S
C338 H351 0.951 1_554 S
C339 C338 1.392 . S
C339 C341 1.384 . S
H340 C342 0.949 . S
C341 C339 1.384 . S
C341 C342 1.385 . S
C341 H343 0.950 . S
C342 C336 1.404 1_545 S
C342 H340 0.949 . S
C342 C341 1.385 . S
H343 C341 0.950 . S
H344 C328 0.951 1_556 S
H345 C330 0.951 . S
H346 C332 0.951 . S
H347 C333 0.950 . S
H348 C334 0.950 . S
H349 C335 0.950 . S
H350 C337 0.948 1_556 S
H351 C338 0.951 1_556 S
C352 C353 1.386 . S
C352 C354 1.383 1_655 S
C352 H368 0.951 1_554 S
C353 C352 1.386 . S
C353 C357 1.383 . S
C354 C352 1.383 1_455 S
C354 C355 1.402 . S
C354 H369 0.951 1_554 S
C355 C354 1.402 . S
C355 C356 1.375 1_455 S
C355 C358 1.481 . S
C356 C355 1.375 1_655 S
C356 C357 1.367 . S
C356 H370 0.951 . S
C357 C353 1.383 . S
C357 C356 1.367 . S
C357 H371 0.950 . S
C358 C355 1.481 . S
C358 C359 1.297 . S
C358 H372 0.950 . S
C359 C358 1.297 . S
C359 C360 1.479 . S
C359 H373 0.950 1_554 S
C360 C359 1.479 . S
C360 C361 1.375 1_554 S
C360 C366 1.404 . S
C361 C360 1.375 1_556 S
C361 C362 1.369 . S
C361 H374 0.950 . S
C362 C361 1.369 . S
C362 C363 1.392 1_556 S
C362 H375 0.951 . S
C363 C362 1.392 1_554 S
C363 C365 1.384 . S
H364 C366 0.949 . S
C365 C363 1.384 . S
C365 C366 1.385 . S
C365 H367 0.950 . S
C366 C360 1.404 . S
C366 H364 0.949 . S
C366 C365 1.385 . S
H367 C365 0.950 . S
H368 C352 0.951 1_556 S
H369 C354 0.951 1_556 S
H370 C356 0.951 . S
H371 C357 0.950 . S
H372 C358 0.950 . S
H373 C359 0.950 1_556 S
H374 C361 0.950 . S
H375 C362 0.951 . S
C376 C377 1.386 . S
C376 C378 1.383 . S
C376 H392 0.951 . S
C377 C376 1.386 . S
C377 C381 1.383 1_556 S
C378 C376 1.383 . S
C378 C379 1.402 1_556 S
C378 H393 0.951 . S
C379 C378 1.402 1_554 S
C379 C380 1.375 . S
C379 C382 1.481 . S
C380 C379 1.375 . S
C380 C381 1.367 . S
C380 H394 0.951 . S
C381 C377 1.383 1_554 S
C381 C380 1.367 . S
C381 H395 0.950 . S
C382 C379 1.481 . S
C382 C383 1.297 1_554 S
C382 H396 0.950 . S
C383 C382 1.297 1_556 S
C383 C384 1.479 1_556 S
C383 H397 0.950 . S
C384 C383 1.479 1_554 S
C384 C385 1.375 1_554 S
C384 C390 1.404 . S
C385 C384 1.375 1_556 S
C385 C386 1.369 . S
C385 H398 0.950 . S
C386 C385 1.369 . S
C386 C387 1.392 1_556 S
C386 H399 0.951 . S
C387 C386 1.392 1_554 S
C387 C389 1.384 . S
H388 C390 0.949 . S
C389 C387 1.384 . S
C389 C390 1.385 . S
C389 H391 0.950 . S
C390 C384 1.404 . S
C390 H388 0.949 . S
C390 C389 1.385 . S
H391 C389 0.950 . S
H392 C376 0.951 . S
H393 C378 0.951 . S
H394 C380 0.951 . S
H395 C381 0.950 . S
H396 C382 0.950 . S
H397 C383 0.950 . S
H398 C385 0.950 . S
H399 C386 0.951 . S
C400 C401 1.386 1_554 S
C400 C402 1.383 . S
C400 H416 0.951 . S
C401 C400 1.386 1_556 S
C401 C405 1.383 . S
C402 C400 1.383 . S
C402 C403 1.402 1_554 S
C402 H417 0.951 . S
C403 C402 1.402 1_556 S
C403 C404 1.375 . S
C403 C406 1.481 . S
C404 C403 1.375 . S
C404 C405 1.367 . S
C404 H418 0.951 . S
C405 C401 1.383 . S
C405 C404 1.367 . S
C405 H419 0.950 . S
C406 C403 1.481 . S
C406 C407 1.297 . S
C406 H420 0.950 . S
C407 C406 1.297 . S
C407 C408 1.482 . S
C407 H421 0.950 1_556 S
C408 C407 1.482 . S
C408 C409 1.358 1_556 S
C408 C414 1.418 . S
C409 C408 1.358 1_554 S
C409 C410 1.369 . S
C409 H422 0.950 . S
C410 C409 1.369 . S
C410 C411 1.392 . S
C410 H423 0.951 . S
C411 C410 1.392 . S
C411 C413 1.384 1_554 S
H412 C414 0.949 . S
C413 C411 1.384 1_556 S
C413 C414 1.385 . S
C413 H415 0.950 . S
C414 C408 1.418 . S
C414 H412 0.949 . S
C414 C413 1.385 . S
H415 C413 0.950 . S
H416 C400 0.951 . S
H417 C402 0.951 . S
H418 C404 0.951 . S
H419 C405 0.950 . S
H420 C406 0.950 . S
H421 C407 0.950 1_554 S
H422 C409 0.950 . S
H423 C410 0.951 . S
C424 C425 1.386 . S
C424 C426 1.383 . S
C424 H440 0.951 . S
C425 C424 1.386 . S
C425 C429 1.383 . S
C426 C424 1.383 . S
C426 C427 1.402 . S
C426 H441 0.951 . S
C427 C426 1.402 . S
C427 C428 1.375 . S
C427 C430 1.481 . S
C428 C427 1.375 . S
C428 C429 1.367 . S
C428 H442 0.951 . S
C429 C425 1.383 . S
C429 C428 1.367 . S
C429 H443 0.950 . S
C430 C427 1.481 . S
C430 C431 1.297 . S
C430 H444 0.950 . S
C431 C430 1.297 . S
C431 C432 1.479 . S
C431 H445 0.950 . S
C432 C431 1.479 . S
C432 C433 1.375 . S
C432 C438 1.404 . S
C433 C432 1.375 . S
C433 C434 1.369 . S
C433 H446 0.950 . S
C434 C433 1.369 . S
C434 C435 1.392 . S
C434 H447 0.951 . S
C435 C434 1.392 . S
C435 C437 1.384 . S
H436 C438 0.949 . S
C437 C435 1.384 . S
C437 C438 1.385 . S
C437 H439 0.950 1_554 S
C438 C432 1.404 . S
C438 H436 0.949 . S
C438 C437 1.385 . S
H439 C437 0.950 1_556 S
H440 C424 0.951 . S
H441 C426 0.951 . S
H442 C428 0.951 . S
H443 C429 0.950 . S
H444 C430 0.950 . S
H445 C431 0.950 . S
H446 C433 0.950 . S
H447 C434 0.951 . S
C448 C449 1.386 1_556 S
C448 C450 1.383 . S
C448 H464 0.951 . S
C449 C448 1.386 1_554 S
C449 C453 1.383 . S
C450 C448 1.383 . S
C450 C451 1.402 1_556 S
C450 H465 0.951 . S
C451 C450 1.402 1_554 S
C451 C452 1.375 . S
C451 C454 1.481 . S
C452 C451 1.375 . S
C452 C453 1.367 . S
C452 H466 0.951 . S
C453 C449 1.383 . S
C453 C452 1.367 . S
C453 H467 0.950 . S
C454 C451 1.481 . S
C454 C455 1.297 . S
C454 H468 0.950 . S
C455 C454 1.297 . S
C455 C456 1.479 . S
C455 H469 0.950 1_554 S
C456 C455 1.479 . S
C456 C457 1.375 1_554 S
C456 C462 1.404 . S
C457 C456 1.375 1_556 S
C457 C458 1.369 . S
C457 H470 0.950 . S
C458 C457 1.369 . S
C458 C459 1.392 1_556 S
C458 H471 0.951 . S
C459 C458 1.392 1_554 S
C459 C461 1.384 . S
H460 C462 0.949 . S
C461 C459 1.384 . S
C461 C462 1.385 . S
C461 H463 0.950 . S
C462 C456 1.404 . S
C462 H460 0.949 . S
C462 C461 1.385 . S
H463 C461 0.950 . S
H464 C448 0.951 . S
H465 C450 0.951 . S
H466 C452 0.951 . S
H467 C453 0.950 . S
H468 C454 0.950 . S
H469 C455 0.950 1_556 S
H470 C457 0.950 . S
H471 C458 0.951 . S
C137 C1 1.768 . S
C147 C71 1.733 . S
C161 C35 1.881 . S
C171 C105 1.802 . S
C185 C15 1.615 . S
C195 C22 1.681 . S
C209 C49 1.621 . S
C219 C56 1.695 . S
C233 C83 1.714 . S
C243 C90 1.625 . S
C257 C117 1.863 . S
C267 C124 1.910 . S
C281 C28 1.222 . S
C291 C103 1.199 . S
C305 C3 1.536 . S
C315 C62 1.713 . S
C329 C85 1.805 . S
C339 C37 1.657 . S
C353 C96 0.701 . S
C363 C108 0.753 . S
C377 C69 1.671 . S
C387 C51 1.859 . S
C401 C130 0.737 . S
C411 C74 0.794 . S
C425 C6 0.869 . S
C435 C119 0.859 1_554 S
C449 C40 1.475 1_554 S
C459 C17 1.466 . S
