# Generated by pormake.
# Topology ukk, (4)-cn, num edge types: 1
# Building blocks:
#     Node 0, Type 0, BuildingBlock: KOZSID_clean_sbu_0, # of connection points: 4
#     Node 1, Type 0, BuildingBlock: KOZSID_clean_sbu_0, # of connection points: 4
#     Node 2, Type 0, BuildingBlock: KOZSID_clean_sbu_0, # of connection points: 4
#     Node 3, Type 0, BuildingBlock: KOZSID_clean_sbu_0, # of connection points: 4
#     Node 4, Type 0, BuildingBlock: KOZSID_clean_sbu_0, # of connection points: 4
#     Node 5, Type 0, BuildingBlock: KOZSID_clean_sbu_0, # of connection points: 4
#     Node 6, Type 0, BuildingBlock: KOZSID_clean_sbu_0, # of connection points: 4
#     Node 7, Type 0, BuildingBlock: KOZSID_clean_sbu_0, # of connection points: 4
#     Node 8, Type 0, BuildingBlock: KOZSID_clean_sbu_0, # of connection points: 4
#     Node 9, Type 0, BuildingBlock: KOZSID_clean_sbu_0, # of connection points: 4
#     Node 10, Type 0, BuildingBlock: KOZSID_clean_sbu_0, # of connection points: 4
#     Node 11, Type 0, BuildingBlock: KOZSID_clean_sbu_0, # of connection points: 4
#     Node 12, Type 0, BuildingBlock: KOZSID_clean_sbu_0, # of connection points: 4
#     Node 13, Type 0, BuildingBlock: KOZSID_clean_sbu_0, # of connection points: 4
#     Node 14, Type 0, BuildingBlock: KOZSID_clean_sbu_0, # of connection points: 4
#     Node 15, Type 0, BuildingBlock: KOZSID_clean_sbu_0, # of connection points: 4
#     Edge 16, Type (0, 0), BuildingBlock: MIFKUJ_clean_linker_0, # of connection points: 2
#     Edge 17, Type (0, 0), BuildingBlock: MIFKUJ_clean_linker_0, # of connection points: 2
#     Edge 18, Type (0, 0), BuildingBlock: MIFKUJ_clean_linker_0, # of connection points: 2
#     Edge 19, Type (0, 0), BuildingBlock: MIFKUJ_clean_linker_0, # of connection points: 2
#     Edge 20, Type (0, 0), BuildingBlock: MIFKUJ_clean_linker_0, # of connection points: 2
#     Edge 21, Type (0, 0), BuildingBlock: MIFKUJ_clean_linker_0, # of connection points: 2
#     Edge 22, Type (0, 0), BuildingBlock: MIFKUJ_clean_linker_0, # of connection points: 2
#     Edge 23, Type (0, 0), BuildingBlock: MIFKUJ_clean_linker_0, # of connection points: 2
#     Edge 24, Type (0, 0), BuildingBlock: MIFKUJ_clean_linker_0, # of connection points: 2
#     Edge 25, Type (0, 0), BuildingBlock: MIFKUJ_clean_linker_0, # of connection points: 2
#     Edge 26, Type (0, 0), BuildingBlock: MIFKUJ_clean_linker_0, # of connection points: 2
#     Edge 27, Type (0, 0), BuildingBlock: MIFKUJ_clean_linker_0, # of connection points: 2
#     Edge 28, Type (0, 0), BuildingBlock: MIFKUJ_clean_linker_0, # of connection points: 2
#     Edge 29, Type (0, 0), BuildingBlock: MIFKUJ_clean_linker_0, # of connection points: 2
#     Edge 30, Type (0, 0), BuildingBlock: MIFKUJ_clean_linker_0, # of connection points: 2
#     Edge 31, Type (0, 0), BuildingBlock: MIFKUJ_clean_linker_0, # of connection points: 2
#     Edge 32, Type (0, 0), BuildingBlock: MIFKUJ_clean_linker_0, # of connection points: 2
#     Edge 33, Type (0, 0), BuildingBlock: MIFKUJ_clean_linker_0, # of connection points: 2
#     Edge 34, Type (0, 0), BuildingBlock: MIFKUJ_clean_linker_0, # of connection points: 2
#     Edge 35, Type (0, 0), BuildingBlock: MIFKUJ_clean_linker_0, # of connection points: 2
#     Edge 36, Type (0, 0), BuildingBlock: MIFKUJ_clean_linker_0, # of connection points: 2
#     Edge 37, Type (0, 0), BuildingBlock: MIFKUJ_clean_linker_0, # of connection points: 2
#     Edge 38, Type (0, 0), BuildingBlock: MIFKUJ_clean_linker_0, # of connection points: 2
#     Edge 39, Type (0, 0), BuildingBlock: MIFKUJ_clean_linker_0, # of connection points: 2
#     Edge 40, Type (0, 0), BuildingBlock: MIFKUJ_clean_linker_0, # of connection points: 2
#     Edge 41, Type (0, 0), BuildingBlock: MIFKUJ_clean_linker_0, # of connection points: 2
#     Edge 42, Type (0, 0), BuildingBlock: MIFKUJ_clean_linker_0, # of connection points: 2
#     Edge 43, Type (0, 0), BuildingBlock: MIFKUJ_clean_linker_0, # of connection points: 2
#     Edge 44, Type (0, 0), BuildingBlock: MIFKUJ_clean_linker_0, # of connection points: 2
#     Edge 45, Type (0, 0), BuildingBlock: MIFKUJ_clean_linker_0, # of connection points: 2
#     Edge 46, Type (0, 0), BuildingBlock: MIFKUJ_clean_linker_0, # of connection points: 2
#     Edge 47, Type (0, 0), BuildingBlock: MIFKUJ_clean_linker_0, # of connection points: 2
# Relax obj value: 0.064
# Max RMSD: 0.199
# Mean RMSD: 0.199
data_MOF--net-ukk--node1-KOZSID_clean_sbu_0--edge1-MIFKUJ_clean_linker_0
_symmetry_space_group_name_H-M    P1
_symmetry_Int_Tables_number       1
_symmetry_cell_setting            triclinic
loop_
_symmetry_equiv_pos_as_xyz
'x, y, z'
_cell_length_a     82.08435
_cell_length_b     82.108584
_cell_length_c     31.851792
_cell_angle_alpha  89.973858
_cell_angle_beta   90.007218
_cell_angle_gamma 89.948741
loop_
_atom_site_label
_atom_site_type_symbol
_atom_site_fract_x
_atom_site_fract_y
_atom_site_fract_z
_atom_type_partial_charge
C0 C 0.36691 0.09538 0.16246 0.0
C1 C 0.35737 0.08893 0.1944 0.0
C2 C 0.34785 0.10139 0.20909 0.0
C3 C 0.35203 0.1147 0.18532 0.0
N4 N 0.36361 0.11141 0.15665 0.0
Co5 Co 0.37283 0.12712 0.11562 0.0
N6 N 0.36496 0.14612 0.14861 0.0
C7 C 0.35361 0.14566 0.17914 0.0
C8 C 0.35087 0.16054 0.19734 0.0
C9 C 0.36097 0.17111 0.17668 0.0
C10 C 0.36921 0.16208 0.14648 0.0
N11 N 0.38193 0.14289 0.07446 0.0
C12 C 0.38447 0.1592 0.07782 0.0
C13 C 0.39052 0.16549 0.0405 0.0
C14 C 0.39168 0.15269 0.01292 0.0
C15 C 0.38626 0.13933 0.03475 0.0
N16 N 0.38065 0.108 0.083 0.0
C17 C 0.38521 0.10821 0.04245 0.0
C18 C 0.39022 0.0932 0.02839 0.0
C19 C 0.38861 0.08291 0.06218 0.0
C20 C 0.38262 0.09223 0.09506 0.0
N21 N 0.35214 0.12684 0.08341 0.0
C22 C 0.32481 0.12633 0.02873 0.0
C23 C 0.33125 0.1119 0.04594 0.0
C24 C 0.34476 0.11242 0.07315 0.0
C25 C 0.33211 0.14105 0.04118 0.0
C26 C 0.34562 0.14104 0.06827 0.0
N27 N 0.39364 0.12739 0.14669 0.0
C28 C 0.42305 0.12624 0.14535 0.0
C29 C 0.42391 0.12734 0.18926 0.0
C30 C 0.4091 0.12864 0.21132 0.0
C31 C 0.39415 0.12863 0.18953 0.0
C32 C 0.40796 0.12624 0.12491 0.0
H33 H 0.38301 0.12955 0.20734 0.0
H34 H 0.40794 0.12531 0.09121 0.0
H35 H 0.3495 0.10105 0.08495 0.0
H36 H 0.35101 0.15261 0.07614 0.0
C37 C 0.34761 0.13079 0.19384 0.0
C38 C 0.37806 0.08568 0.1365 0.0
C39 C 0.37979 0.1693 0.1141 0.0
C40 C 0.38715 0.12307 0.02128 0.0
H41 H 0.35726 0.07651 0.20579 0.0
H42 H 0.33938 0.10095 0.2351 0.0
H43 H 0.34289 0.16331 0.22343 0.0
H44 H 0.36197 0.18401 0.18297 0.0
H45 H 0.39352 0.17805 0.03371 0.0
H46 H 0.39628 0.15306 0.9811 0.0
H47 H 0.39509 0.0902 0.99777 0.0
H48 H 0.39152 0.07006 0.0625 0.0
H49 H 0.32626 0.10016 0.03752 0.0
H50 H 0.32749 0.15261 0.03 0.0
H51 H 0.434 0.12557 0.12649 0.0
H52 H 0.40899 0.12941 0.24524 0.0
C53 C 0.09233 0.63358 0.90828 0.0
C54 C 0.08289 0.62579 0.93831 0.0
C55 C 0.09338 0.61998 0.96808 0.0
C56 C 0.10859 0.6246 0.95482 0.0
N57 N 0.10843 0.63314 0.91849 0.0
Co58 Co 0.12796 0.64198 0.88799 0.0
N59 N 0.14359 0.63121 0.92794 0.0
C60 C 0.13961 0.62195 0.96153 0.0
C61 C 0.15283 0.61546 0.98186 0.0
C62 C 0.16607 0.62074 0.9597 0.0
C63 C 0.16016 0.63028 0.92711 0.0
N64 N 0.14739 0.65108 0.85779 0.0
C65 C 0.16359 0.64876 0.86428 0.0
C66 C 0.17292 0.65789 0.83653 0.0
C67 C 0.16229 0.66599 0.81111 0.0
C68 C 0.14715 0.66149 0.8249 0.0
N69 N 0.1124 0.65228 0.84709 0.0
C70 C 0.1164 0.6617 0.81384 0.0
C71 C 0.10342 0.66601 0.78925 0.0
C72 C 0.09029 0.65879 0.80754 0.0
C73 C 0.09601 0.65057 0.84275 0.0
N74 N 0.12729 0.66199 0.9247 0.0
C75 C 0.12637 0.68993 0.9782 0.0
C76 C 0.12681 0.69147 0.93432 0.0
C77 C 0.12718 0.67751 0.90845 0.0
C78 C 0.12651 0.67411 0.99443 0.0
C79 C 0.12699 0.66059 0.96765 0.0
N80 N 0.12861 0.62202 0.85215 0.0
C81 C 0.13279 0.60844 0.78518 0.0
C82 C 0.12918 0.59322 0.8029 0.0
C83 C 0.12548 0.59277 0.84567 0.0
C84 C 0.12538 0.60707 0.86941 0.0
C85 C 0.1323 0.62262 0.81012 0.0
H86 H 0.12266 0.60567 0.90186 0.0
H87 H 0.13489 0.63397 0.79493 0.0
H88 H 0.12733 0.6796 0.87541 0.0
H89 H 0.12718 0.64911 0.98286 0.0
C90 C 0.12329 0.61949 0.97288 0.0
C91 C 0.08543 0.64099 0.87035 0.0
C92 C 0.17073 0.63791 0.89568 0.0
C93 C 0.13256 0.66572 0.80547 0.0
H94 H 0.0698 0.62421 0.93825 0.0
H95 H 0.09033 0.61273 0.99536 0.0
H96 H 0.15284 0.60764 0.00923 0.0
H97 H 0.17864 0.61777 0.96651 0.0
H98 H 0.18606 0.65849 0.83448 0.0
H99 H 0.16525 0.67391 0.78503 0.0
H100 H 0.10356 0.6732 0.76075 0.0
H101 H 0.07796 0.65929 0.79562 0.0
H102 H 0.12661 0.7034 0.91982 0.0
H103 H 0.12652 0.67206 0.02803 0.0
H104 H 0.13571 0.60945 0.75212 0.0
H105 H 0.12289 0.5813 0.86115 0.0
C106 C 0.64953 0.92034 0.16777 0.0
C107 C 0.65895 0.92678 0.19996 0.0
C108 C 0.66834 0.91429 0.21506 0.0
C109 C 0.6642 0.90099 0.1913 0.0
N110 N 0.65276 0.90427 0.16224 0.0
Co111 Co 0.6437 0.88851 0.121 0.0
N112 N 0.6516 0.86951 0.15405 0.0
C113 C 0.66275 0.87003 0.18506 0.0
C114 C 0.66542 0.85518 0.20351 0.0
C115 C 0.65551 0.84456 0.1825 0.0
C116 C 0.64746 0.85352 0.15178 0.0
N117 N 0.63477 0.87271 0.07966 0.0
C118 C 0.6324 0.85635 0.08279 0.0
C119 C 0.62648 0.85008 0.04531 0.0
C120 C 0.62521 0.86291 0.01789 0.0
C121 C 0.63044 0.87629 0.03993 0.0
N122 N 0.63587 0.90763 0.08824 0.0
C123 C 0.63134 0.90739 0.04767 0.0
C124 C 0.6264 0.92239 0.03336 0.0
C125 C 0.62804 0.93272 0.06698 0.0
C126 C 0.63399 0.92344 0.10002 0.0
N127 N 0.66445 0.88893 0.08915 0.0
C128 C 0.69191 0.88973 0.03512 0.0
C129 C 0.6854 0.90407 0.05249 0.0
C130 C 0.67182 0.90341 0.07938 0.0
C131 C 0.6846 0.87494 0.04689 0.0
C132 C 0.67103 0.8748 0.07376 0.0
N133 N 0.62284 0.88811 0.15176 0.0
C134 C 0.59343 0.88904 0.15011 0.0
C135 C 0.59252 0.88784 0.194 0.0
C136 C 0.6073 0.88663 0.21621 0.0
C137 C 0.62227 0.8868 0.19458 0.0
C138 C 0.60855 0.8892 0.12984 0.0
H139 H 0.63338 0.88594 0.21253 0.0
H140 H 0.60861 0.89019 0.09615 0.0
H141 H 0.66707 0.91472 0.09151 0.0
H142 H 0.6656 0.86321 0.08109 0.0
C143 C 0.6686 0.88491 0.19997 0.0
C144 C 0.63864 0.93012 0.14125 0.0
C145 C 0.63719 0.84619 0.1189 0.0
C146 C 0.62948 0.89254 0.02651 0.0
H147 H 0.6591 0.93921 0.21119 0.0
H148 H 0.67672 0.91473 0.24128 0.0
H149 H 0.67323 0.85248 0.23002 0.0
H150 H 0.65448 0.83167 0.18898 0.0
H151 H 0.62366 0.8375 0.03826 0.0
H152 H 0.62069 0.86256 0.98598 0.0
H153 H 0.6216 0.92536 0.00264 0.0
H154 H 0.62522 0.9456 0.06708 0.0
H155 H 0.69071 0.91581 0.04536 0.0
H156 H 0.68897 0.86348 0.03438 0.0
H157 H 0.5825 0.88966 0.13116 0.0
H158 H 0.60737 0.8858 0.25013 0.0
C159 C 0.92205 0.38368 0.91376 0.0
C160 C 0.93178 0.38942 0.94614 0.0
C161 C 0.92183 0.39116 0.98055 0.0
C162 C 0.90662 0.38644 0.96734 0.0
N163 N 0.90638 0.38192 0.92676 0.0
Co164 Co 0.88691 0.37424 0.89544 0.0
N165 N 0.87161 0.38346 0.93757 0.0
C166 C 0.87559 0.38795 0.9769 0.0
C167 C 0.86257 0.39408 0.99889 0.0
C168 C 0.84958 0.39324 0.97186 0.0
C169 C 0.85535 0.38648 0.93477 0.0
N170 N 0.86755 0.36647 0.8639 0.0
C171 C 0.85164 0.37081 0.86718 0.0
C172 C 0.84209 0.36176 0.83977 0.0
C173 C 0.85238 0.35143 0.81883 0.0
C174 C 0.8676 0.35467 0.83456 0.0
N175 N 0.90214 0.36491 0.85339 0.0
C176 C 0.8985 0.35325 0.82525 0.0
C177 C 0.91152 0.34902 0.80047 0.0
C178 C 0.92417 0.35856 0.81401 0.0
C179 C 0.91812 0.36813 0.8464 0.0
N180 N 0.88743 0.35356 0.9276 0.0
C181 C 0.88837 0.32571 0.98026 0.0
C182 C 0.87358 0.33337 0.96998 0.0
C183 C 0.87337 0.34715 0.94383 0.0
C184 C 0.90265 0.33217 0.96241 0.0
C185 C 0.90191 0.34595 0.93619 0.0
N186 N 0.8864 0.39498 0.86427 0.0
C187 C 0.88444 0.41025 0.79951 0.0
C188 C 0.88603 0.4251 0.8212 0.0
C189 C 0.88766 0.42436 0.86502 0.0
C190 C 0.88787 0.40933 0.88572 0.0
C191 C 0.88465 0.39538 0.82155 0.0
H192 H 0.88921 0.40938 0.91933 0.0
H193 H 0.88347 0.3842 0.80403 0.0
H194 H 0.86178 0.35283 0.93757 0.0
H195 H 0.91316 0.3506 0.92346 0.0
C196 C 0.89198 0.38863 0.98938 0.0
C197 C 0.92817 0.37911 0.87192 0.0
C198 C 0.84497 0.38212 0.89863 0.0
C199 C 0.8823 0.34862 0.81865 0.0
H200 H 0.94469 0.39203 0.94504 0.0
H201 H 0.92519 0.39591 0.01103 0.0
H202 H 0.86263 0.39913 0.03027 0.0
H203 H 0.83727 0.39713 0.97881 0.0
H204 H 0.829 0.36232 0.83584 0.0
H205 H 0.84919 0.34288 0.79434 0.0
H206 H 0.91168 0.34044 0.77468 0.0
H207 H 0.93647 0.35839 0.80173 0.0
H208 H 0.86219 0.32906 0.98301 0.0
H209 H 0.91438 0.32662 0.96855 0.0
H210 H 0.88329 0.41005 0.76566 0.0
H211 H 0.88857 0.43535 0.88362 0.0
C212 C 0.36792 0.42 0.09807 0.0
C213 C 0.35834 0.42694 0.06685 0.0
C214 C 0.34859 0.41479 0.05154 0.0
C215 C 0.35266 0.40119 0.07426 0.0
N216 N 0.36439 0.40398 0.10287 0.0
Co217 Co 0.37341 0.38771 0.1428 0.0
N218 N 0.36515 0.36917 0.10875 0.0
C219 C 0.35382 0.37016 0.07826 0.0
C220 C 0.35089 0.35553 0.05893 0.0
C221 C 0.36083 0.34459 0.07881 0.0
C222 C 0.36915 0.35313 0.10978 0.0
N223 N 0.38225 0.37139 0.18293 0.0
C224 C 0.38443 0.35505 0.17865 0.0
C225 C 0.39035 0.34831 0.21561 0.0
C226 C 0.39182 0.36084 0.24387 0.0
C227 C 0.38669 0.37451 0.22281 0.0
N228 N 0.38167 0.40637 0.17641 0.0
C229 C 0.38637 0.4057 0.21683 0.0
C230 C 0.39183 0.42044 0.23159 0.0
C231 C 0.39038 0.43105 0.19843 0.0
C232 C 0.38398 0.4222 0.1652 0.0
N233 N 0.35278 0.38814 0.17524 0.0
C234 C 0.32547 0.38874 0.22975 0.0
C235 C 0.33241 0.40319 0.21433 0.0
C236 C 0.34586 0.40263 0.18698 0.0
C237 C 0.33226 0.37397 0.21592 0.0
C238 C 0.34583 0.37393 0.18901 0.0
N239 N 0.39416 0.38731 0.1115 0.0
C240 C 0.42359 0.3879 0.11257 0.0
C241 C 0.42435 0.38749 0.06857 0.0
C242 C 0.40948 0.38677 0.0466 0.0
C243 C 0.39458 0.38669 0.06857 0.0
C244 C 0.40853 0.38786 0.13319 0.0
H245 H 0.38339 0.38624 0.05082 0.0
H246 H 0.4086 0.38832 0.16695 0.0
H247 H 0.35089 0.41401 0.17607 0.0
H248 H 0.35095 0.36233 0.1803 0.0
C249 C 0.34801 0.38527 0.06468 0.0
C250 C 0.37935 0.42924 0.12429 0.0
C251 C 0.37954 0.34536 0.14181 0.0
C252 C 0.388 0.39062 0.23714 0.0
H253 H 0.35835 0.43948 0.05634 0.0
H254 H 0.34003 0.41565 0.02577 0.0
H255 H 0.34289 0.35319 0.0326 0.0
H256 H 0.36169 0.33175 0.07146 0.0
H257 H 0.39306 0.33563 0.22175 0.0
H258 H 0.39644 0.36011 0.27565 0.0
H259 H 0.3969 0.42303 0.26223 0.0
H260 H 0.39366 0.4438 0.19877 0.0
H261 H 0.3275 0.41492 0.22334 0.0
H262 H 0.32747 0.36245 0.2269 0.0
H263 H 0.43458 0.38809 0.13135 0.0
H264 H 0.40929 0.38656 0.01262 0.0
C265 C 0.42442 0.63197 0.8439 0.0
C266 C 0.43362 0.62354 0.81456 0.0
C267 C 0.42299 0.61803 0.78474 0.0
C268 C 0.40794 0.62337 0.79749 0.0
N269 N 0.40834 0.63217 0.83337 0.0
Co270 Co 0.38907 0.64128 0.86445 0.0
N271 N 0.37317 0.63138 0.82376 0.0
C272 C 0.3769 0.62304 0.7884 0.0
C273 C 0.36349 0.61741 0.76723 0.0
C274 C 0.35041 0.62236 0.79055 0.0
C275 C 0.3566 0.63078 0.82475 0.0
N276 N 0.36987 0.65009 0.89622 0.0
C277 C 0.35364 0.64765 0.89065 0.0
C278 C 0.34449 0.65601 0.92034 0.0
C279 C 0.35528 0.66376 0.94598 0.0
C280 C 0.37034 0.65977 0.93051 0.0
N281 N 0.40489 0.65125 0.90508 0.0
C282 C 0.40124 0.66106 0.93783 0.0
C283 C 0.41452 0.66577 0.96082 0.0
C284 C 0.42748 0.65839 0.94196 0.0
C285 C 0.4213 0.64955 0.90839 0.0
N286 N 0.38977 0.66164 0.82884 0.0
C287 C 0.38945 0.68993 0.77647 0.0
C288 C 0.3879 0.69113 0.82022 0.0
C289 C 0.388 0.67699 0.84551 0.0
C290 C 0.39153 0.67433 0.75983 0.0
C291 C 0.39176 0.66063 0.7861 0.0
N292 N 0.38836 0.62099 0.89911 0.0
C293 C 0.38782 0.60693 0.96631 0.0
C294 C 0.38842 0.59162 0.94659 0.0
C295 C 0.38862 0.59149 0.90267 0.0
C296 C 0.38867 0.60605 0.87996 0.0
C297 C 0.38777 0.62135 0.94217 0.0
H298 H 0.389 0.60487 0.84673 0.0
H299 H 0.38736 0.63269 0.95877 0.0
H300 H 0.38653 0.67881 0.87841 0.0
H301 H 0.39357 0.64935 0.77068 0.0
C302 C 0.39312 0.61953 0.77796 0.0
C303 C 0.43147 0.63929 0.88165 0.0
C304 C 0.3463 0.63751 0.85806 0.0
C305 C 0.38511 0.66446 0.94832 0.0
H306 H 0.44663 0.62139 0.81508 0.0
H307 H 0.42585 0.61064 0.75759 0.0
H308 H 0.36325 0.61016 0.73888 0.0
H309 H 0.33777 0.6198 0.78361 0.0
H310 H 0.33136 0.65638 0.92335 0.0
H311 H 0.35249 0.67123 0.97304 0.0
H312 H 0.41471 0.67325 0.9888 0.0
H313 H 0.44002 0.65914 0.95231 0.0
H314 H 0.38625 0.7029 0.83494 0.0
H315 H 0.39318 0.67262 0.72638 0.0
H316 H 0.38768 0.60785 1.00021 0.0
H317 H 0.38861 0.58013 0.88542 0.0
C318 C 0.65059 0.59602 0.08711 0.0
C319 C 0.66024 0.58968 0.05523 0.0
C320 C 0.66978 0.6022 0.04098 0.0
C321 C 0.66548 0.61543 0.0649 0.0
N322 N 0.65381 0.61205 0.09324 0.0
Co323 Co 0.64442 0.62766 0.13433 0.0
N324 N 0.65253 0.64677 0.10212 0.0
C325 C 0.66406 0.64637 0.07204 0.0
C326 C 0.66696 0.66132 0.05435 0.0
C327 C 0.65678 0.67186 0.07488 0.0
C328 C 0.64832 0.66274 0.1045 0.0
N329 N 0.63507 0.64331 0.17543 0.0
C330 C 0.63254 0.65964 0.17229 0.0
C331 C 0.62622 0.66581 0.20943 0.0
C332 C 0.62486 0.65293 0.23668 0.0
C333 C 0.63044 0.63963 0.21485 0.0
N334 N 0.63643 0.60844 0.16634 0.0
C335 C 0.63164 0.60855 0.20674 0.0
C336 C 0.62661 0.59351 0.22048 0.0
C337 C 0.62847 0.5833 0.18669 0.0
C338 C 0.63462 0.59268 0.15412 0.0
N339 N 0.66492 0.62718 0.16718 0.0
C340 C 0.6922 0.62633 0.22167 0.0
C341 C 0.68572 0.61199 0.20428 0.0
C342 C 0.67225 0.61268 0.17707 0.0
C343 C 0.68493 0.64113 0.20986 0.0
C344 C 0.6714 0.6413 0.18284 0.0
N345 N 0.62383 0.62813 0.10247 0.0
C346 C 0.59446 0.62638 0.10212 0.0
C347 C 0.59397 0.62855 0.0585 0.0
C348 C 0.60886 0.63063 0.03737 0.0
C349 C 0.62363 0.63025 0.05984 0.0
C350 C 0.60938 0.62631 0.12337 0.0
H351 H 0.63487 0.63163 0.04271 0.0
H352 H 0.60916 0.62479 0.15692 0.0
H353 H 0.66757 0.60139 0.16471 0.0
H354 H 0.66596 0.6529 0.17553 0.0
C355 C 0.67002 0.63153 0.05704 0.0
C356 C 0.63951 0.58616 0.1129 0.0
C357 C 0.63751 0.66987 0.13651 0.0
C358 C 0.62951 0.62335 0.22802 0.0
H359 H 0.66046 0.57729 0.04368 0.0
H360 H 0.67837 0.60183 0.01522 0.0
H361 H 0.67509 0.66415 0.02862 0.0
H362 H 0.65584 0.68479 0.06885 0.0
H363 H 0.62318 0.67835 0.21636 0.0
H364 H 0.62004 0.65319 0.2683 0.0
H365 H 0.62158 0.59045 0.25088 0.0
H366 H 0.62562 0.57044 0.18617 0.0
H367 H 0.69102 0.60025 0.21162 0.0
H368 H 0.68931 0.65257 0.22243 0.0
H369 H 0.58333 0.62498 0.12001 0.0
H370 H 0.60913 0.63226 0.00364 0.0
C371 C 0.5936 0.38479 0.84891 0.0
C372 C 0.58442 0.39135 0.81643 0.0
C373 C 0.59442 0.39198 0.78179 0.0
C374 C 0.60917 0.38592 0.79499 0.0
N375 N 0.60906 0.38172 0.83577 0.0
Co376 Co 0.62778 0.37229 0.86662 0.0
N377 N 0.64375 0.38051 0.82504 0.0
C378 C 0.64011 0.38346 0.78459 0.0
C379 C 0.65372 0.38518 0.76006 0.0
C380 C 0.66667 0.38326 0.78695 0.0
C381 C 0.66031 0.38127 0.82715 0.0
N382 N 0.64636 0.36261 0.89751 0.0
C383 C 0.66261 0.36493 0.89249 0.0
C384 C 0.67121 0.35225 0.91129 0.0
C385 C 0.66005 0.34253 0.93118 0.0
C386 C 0.64521 0.34929 0.92196 0.0
N387 N 0.61191 0.36385 0.90802 0.0
C388 C 0.61449 0.35118 0.93398 0.0
C389 C 0.60114 0.34752 0.95815 0.0
C390 C 0.58939 0.35851 0.94631 0.0
C391 C 0.59627 0.3683 0.91543 0.0
N392 N 0.6257 0.35195 0.83327 0.0
C393 C 0.62307 0.32501 0.77787 0.0
C394 C 0.63829 0.33127 0.78988 0.0
C395 C 0.63932 0.3446 0.81718 0.0
C396 C 0.60918 0.33225 0.79588 0.0
C397 C 0.61075 0.34558 0.82347 0.0
N398 N 0.62987 0.39268 0.89856 0.0
C399 C 0.63239 0.40759 0.96369 0.0
C400 C 0.63209 0.42256 0.94212 0.0
C401 C 0.63063 0.42207 0.89826 0.0
C402 C 0.62956 0.40716 0.8773 0.0
C403 C 0.63135 0.39281 0.94135 0.0
H404 H 0.62835 0.40736 0.84361 0.0
H405 H 0.63169 0.38147 0.95856 0.0
H406 H 0.65129 0.34914 0.82439 0.0
H407 H 0.5998 0.351 0.836 0.0
C408 C 0.62382 0.38572 0.77208 0.0
C409 C 0.58706 0.38029 0.89056 0.0
C410 C 0.66993 0.37773 0.86571 0.0
C411 C 0.63006 0.34431 0.93775 0.0
H412 H 0.57177 0.39503 0.81738 0.0
H413 H 0.59138 0.39664 0.75098 0.0
H414 H 0.6542 0.38723 0.72651 0.0
H415 H 0.67922 0.38231 0.77705 0.0
H416 H 0.68415 0.34985 0.90967 0.0
H417 H 0.66247 0.33173 0.94965 0.0
H418 H 0.60012 0.33816 0.98193 0.0
H419 H 0.57704 0.35893 0.9582 0.0
H420 H 0.64948 0.32597 0.77815 0.0
H421 H 0.59709 0.328 0.78785 0.0
H422 H 0.63363 0.40725 0.99752 0.0
H423 H 0.63004 0.43318 0.88001 0.0
C424 C 0.86652 0.59727 0.66392 0.0
C425 C 0.85677 0.59141 0.6962 0.0
C426 C 0.8472 0.60416 0.70907 0.0
C427 C 0.85159 0.61704 0.68401 0.0
N428 N 0.86336 0.61321 0.65633 0.0
Co429 Co 0.87298 0.62818 0.61416 0.0
N430 N 0.86516 0.6477 0.64494 0.0
C431 C 0.85321 0.64788 0.67388 0.0
C432 C 0.85009 0.66318 0.68927 0.0
C433 C 0.86067 0.67327 0.66851 0.0
C434 C 0.86971 0.66352 0.64152 0.0
N435 N 0.8825 0.64321 0.57193 0.0
C436 C 0.88554 0.65945 0.57437 0.0
C437 C 0.89221 0.66513 0.5371 0.0
C438 C 0.89311 0.65204 0.51039 0.0
C439 C 0.88703 0.63908 0.53274 0.0
N440 N 0.88069 0.60855 0.58357 0.0
C441 C 0.88538 0.60812 0.54312 0.0
C442 C 0.8902 0.59285 0.53057 0.0
C443 C 0.88832 0.58308 0.56525 0.0
C444 C 0.88238 0.59294 0.59712 0.0
N445 N 0.85248 0.62772 0.58134 0.0
C446 C 0.82523 0.62693 0.52661 0.0
C447 C 0.83137 0.61263 0.5452 0.0
C448 C 0.84486 0.61329 0.57243 0.0
C449 C 0.83279 0.64167 0.53762 0.0
C450 C 0.84627 0.6418 0.56473 0.0
N451 N 0.89356 0.62871 0.64595 0.0
C452 C 0.92296 0.62765 0.64598 0.0
C453 C 0.92353 0.63041 0.68943 0.0
C454 C 0.90859 0.63202 0.7107 0.0
C455 C 0.89379 0.63114 0.68845 0.0
C456 C 0.908 0.62688 0.62504 0.0
H457 H 0.88253 0.63257 0.70555 0.0
H458 H 0.90818 0.62486 0.59165 0.0
H459 H 0.84938 0.60202 0.58541 0.0
H460 H 0.85188 0.65337 0.57148 0.0
C461 C 0.84699 0.63329 0.69003 0.0
C462 C 0.87761 0.58706 0.63905 0.0
C463 C 0.88124 0.6699 0.61029 0.0
C464 C 0.88769 0.62265 0.52067 0.0
H465 H 0.8565 0.57918 0.70886 0.0
H466 H 0.83851 0.60416 0.73463 0.0
H467 H 0.84148 0.66656 0.7135 0.0
H468 H 0.86144 0.68635 0.67232 0.0
H469 H 0.89593 0.67745 0.52986 0.0
H470 H 0.89812 0.65189 0.47896 0.0
H471 H 0.89513 0.58936 0.50037 0.0
H472 H 0.89102 0.57019 0.56683 0.0
H473 H 0.82615 0.60087 0.53788 0.0
H474 H 0.8284 0.65316 0.5253 0.0
H475 H 0.93402 0.62594 0.62801 0.0
H476 H 0.90828 0.63428 0.74417 0.0
C477 C 0.59391 0.13191 0.40397 0.0
C478 C 0.58463 0.12543 0.43635 0.0
C479 C 0.59457 0.12473 0.47111 0.0
C480 C 0.60937 0.13069 0.45809 0.0
N481 N 0.60936 0.1349 0.41731 0.0
Co482 Co 0.62816 0.1443 0.38679 0.0
N483 N 0.64406 0.13605 0.42865 0.0
C484 C 0.64031 0.13302 0.46899 0.0
C485 C 0.65384 0.13116 0.4937 0.0
C486 C 0.66687 0.13307 0.46707 0.0
C487 C 0.66063 0.1352 0.42679 0.0
N488 N 0.64681 0.15398 0.35629 0.0
C489 C 0.66305 0.15175 0.36183 0.0
C490 C 0.67166 0.16448 0.34336 0.0
C491 C 0.66053 0.17415 0.32313 0.0
C492 C 0.6457 0.16731 0.33184 0.0
N493 N 0.6124 0.15272 0.34503 0.0
C494 C 0.61506 0.16532 0.31892 0.0
C495 C 0.60181 0.1689 0.29428 0.0
C496 C 0.59004 0.15795 0.30597 0.0
C497 C 0.59678 0.14826 0.33728 0.0
N498 N 0.62595 0.16465 0.42002 0.0
C499 C 0.62299 0.19202 0.47378 0.0
C500 C 0.63827 0.18551 0.46331 0.0
C501 C 0.63947 0.17198 0.43668 0.0
C502 C 0.6092 0.18463 0.45579 0.0
C503 C 0.61093 0.1711 0.42895 0.0
N504 N 0.63033 0.12388 0.35493 0.0
C505 C 0.63232 0.1089 0.28978 0.0
C506 C 0.63141 0.09394 0.31134 0.0
C507 C 0.63041 0.09449 0.35528 0.0
C508 C 0.62987 0.10943 0.37625 0.0
C509 C 0.63176 0.12371 0.31213 0.0
H510 H 0.62888 0.10925 0.40998 0.0
H511 H 0.63226 0.13504 0.29488 0.0
H512 H 0.65146 0.16726 0.43047 0.0
H513 H 0.60007 0.1657 0.41599 0.0
C514 C 0.62398 0.13081 0.4812 0.0
C515 C 0.58746 0.13641 0.36223 0.0
C516 C 0.67036 0.13889 0.38849 0.0
C517 C 0.63061 0.17222 0.31556 0.0
H518 H 0.57196 0.12184 0.43522 0.0
H519 H 0.59144 0.12009 0.50188 0.0
H520 H 0.65424 0.12904 0.52723 0.0
H521 H 0.67937 0.13399 0.47729 0.0
H522 H 0.68459 0.16689 0.34528 0.0
H523 H 0.66297 0.18496 0.30473 0.0
H524 H 0.60088 0.1782 0.2703 0.0
H525 H 0.57775 0.15748 0.29371 0.0
H526 H 0.64933 0.19052 0.47657 0.0
H527 H 0.59711 0.18927 0.46225 0.0
H528 H 0.63307 0.10921 0.25586 0.0
H529 H 0.63009 0.08341 0.37369 0.0
C530 C 0.1488 0.42091 0.65474 0.0
C531 C 0.15721 0.42717 0.68896 0.0
C532 C 0.16407 0.41423 0.70915 0.0
C533 C 0.15946 0.40088 0.68631 0.0
N534 N 0.15024 0.40445 0.65237 0.0
Co535 Co 0.14032 0.38845 0.61207 0.0
N536 N 0.14898 0.36934 0.6446 0.0
C537 C 0.15846 0.37 0.67928 0.0
C538 C 0.16201 0.35508 0.69612 0.0
C539 C 0.15437 0.34416 0.67071 0.0
C540 C 0.14668 0.35307 0.6393 0.0
N541 N 0.13008 0.3724 0.57235 0.0
C542 C 0.12959 0.35582 0.5735 0.0
C543 C 0.12105 0.34957 0.53952 0.0
C544 C 0.11578 0.36258 0.5165 0.0
C545 C 0.1214 0.37603 0.53744 0.0
N546 N 0.13176 0.40764 0.57955 0.0
C547 C 0.12343 0.40712 0.54294 0.0
C548 C 0.11874 0.42217 0.52863 0.0
C549 C 0.12428 0.43295 0.55802 0.0
C550 C 0.13203 0.42383 0.58875 0.0
N551 N 0.16077 0.38865 0.57689 0.0
C552 C 0.18935 0.3883 0.52557 0.0
C553 C 0.17373 0.3885 0.50811 0.0
C554 C 0.15989 0.38875 0.53384 0.0
C555 C 0.19037 0.38848 0.56956 0.0
C556 C 0.1761 0.38855 0.59436 0.0
N557 N 0.11989 0.38823 0.64639 0.0
C558 C 0.09042 0.39027 0.64981 0.0
C559 C 0.0904 0.38796 0.6933 0.0
C560 C 0.10555 0.38567 0.71291 0.0
C561 C 0.12005 0.38594 0.6891 0.0
C562 C 0.10505 0.39032 0.62734 0.0
H563 H 0.13127 0.38433 0.70574 0.0
H564 H 0.10401 0.39205 0.59437 0.0
H565 H 0.14859 0.38901 0.51776 0.0
H566 H 0.17778 0.38843 0.62757 0.0
C567 C 0.16287 0.38482 0.69713 0.0
C568 C 0.13919 0.43109 0.62643 0.0
C569 C 0.13719 0.34549 0.60561 0.0
C570 C 0.11881 0.39222 0.52513 0.0
H571 H 0.15805 0.43975 0.69882 0.0
H572 H 0.17122 0.41449 0.7377 0.0
H573 H 0.16896 0.35247 0.72422 0.0
H574 H 0.15429 0.33111 0.67539 0.0
H575 H 0.11889 0.3369 0.53204 0.0
H576 H 0.10868 0.36227 0.48787 0.0
H577 H 0.11166 0.42494 0.50086 0.0
H578 H 0.12256 0.44603 0.55738 0.0
H579 H 0.17211 0.38869 0.47437 0.0
H580 H 0.20214 0.38826 0.58494 0.0
H581 H 0.07911 0.39179 0.63276 0.0
H582 H 0.10628 0.38393 0.74656 0.0
C583 C 0.4226 0.88257 0.40843 0.0
C584 C 0.43196 0.88887 0.44084 0.0
C585 C 0.42176 0.89065 0.47475 0.0
C586 C 0.40675 0.88543 0.46123 0.0
N587 N 0.40688 0.88058 0.42091 0.0
Co588 Co 0.38775 0.87241 0.38903 0.0
N589 N 0.37203 0.88168 0.42996 0.0
C590 C 0.37562 0.88633 0.4694 0.0
C591 C 0.36229 0.89213 0.49075 0.0
C592 C 0.3495 0.89091 0.46311 0.0
C593 C 0.35574 0.88435 0.42632 0.0
N594 N 0.36874 0.86422 0.35676 0.0
C595 C 0.35279 0.86848 0.35888 0.0
C596 C 0.34353 0.85923 0.33124 0.0
C597 C 0.35407 0.84881 0.31141 0.0
C598 C 0.36912 0.85223 0.32797 0.0
N599 N 0.40338 0.86295 0.34826 0.0
C600 C 0.40009 0.85099 0.32065 0.0
C601 C 0.41336 0.84667 0.29687 0.0
C602 C 0.42578 0.85649 0.31049 0.0
C603 C 0.41936 0.86631 0.34189 0.0
N604 N 0.38825 0.85197 0.42223 0.0
C605 C 0.38901 0.82491 0.47745 0.0
C606 C 0.3742 0.83176 0.46418 0.0
C607 C 0.37408 0.84525 0.43701 0.0
C608 C 0.40342 0.83166 0.46123 0.0
C609 C 0.40277 0.84496 0.43341 0.0
N610 N 0.38725 0.89296 0.35696 0.0
C611 C 0.38579 0.90791 0.29159 0.0
C612 C 0.38713 0.92287 0.31291 0.0
C613 C 0.38831 0.92235 0.35683 0.0
C614 C 0.38839 0.90743 0.37801 0.0
C615 C 0.38589 0.89314 0.31412 0.0
H616 H 0.38939 0.90766 0.41169 0.0
H617 H 0.38496 0.88186 0.29692 0.0
H618 H 0.36246 0.85048 0.42887 0.0
H619 H 0.41411 0.84979 0.42169 0.0
C620 C 0.39192 0.88743 0.48259 0.0
C621 C 0.42906 0.87772 0.36708 0.0
C622 C 0.34578 0.87985 0.3896 0.0
C623 C 0.384 0.84616 0.3133 0.0
H624 H 0.44479 0.89186 0.44013 0.0
H625 H 0.42481 0.89576 0.50505 0.0
H626 H 0.36197 0.89718 0.52212 0.0
H627 H 0.33702 0.89437 0.46941 0.0
H628 H 0.33048 0.85972 0.32646 0.0
H629 H 0.35115 0.84008 0.2871 0.0
H630 H 0.41382 0.83786 0.27162 0.0
H631 H 0.43817 0.85632 0.2989 0.0
H632 H 0.36273 0.82707 0.47584 0.0
H633 H 0.41516 0.82667 0.46995 0.0
H634 H 0.38494 0.90757 0.25768 0.0
H635 H 0.389 0.93344 0.3751 0.0
C636 C 0.86624 0.91907 0.59286 0.0
C637 C 0.85643 0.92552 0.56143 0.0
C638 C 0.84649 0.91314 0.5481 0.0
C639 C 0.85075 0.89989 0.57204 0.0
N640 N 0.86278 0.90314 0.59947 0.0
Co641 Co 0.87229 0.88753 0.64025 0.0
N642 N 0.86396 0.86853 0.60828 0.0
C643 C 0.85183 0.86894 0.57984 0.0
C644 C 0.84822 0.85389 0.56367 0.0
C645 C 0.85865 0.84332 0.5834 0.0
C646 C 0.86814 0.85257 0.61054 0.0
N647 N 0.88167 0.87184 0.68114 0.0
C648 C 0.8845 0.8556 0.67734 0.0
C649 C 0.89157 0.84948 0.71369 0.0
C650 C 0.89278 0.86225 0.74132 0.0
C651 C 0.88656 0.87549 0.72037 0.0
N652 N 0.88053 0.90665 0.67194 0.0
C653 C 0.88537 0.90658 0.71227 0.0
C654 C 0.89051 0.92163 0.72571 0.0
C655 C 0.88869 0.93178 0.69172 0.0
C656 C 0.88249 0.92234 0.65935 0.0
N657 N 0.85192 0.88807 0.67367 0.0
C658 C 0.8248 0.88884 0.72896 0.0
C659 C 0.83129 0.90321 0.71158 0.0
C660 C 0.84468 0.90256 0.68402 0.0
C661 C 0.83199 0.87406 0.71648 0.0
C662 C 0.84543 0.87395 0.68921 0.0
N663 N 0.89275 0.88693 0.60789 0.0
C664 C 0.92216 0.88765 0.60723 0.0
C665 C 0.92255 0.88602 0.5634 0.0
C666 C 0.90751 0.88475 0.54239 0.0
C667 C 0.8928 0.88526 0.56514 0.0
C668 C 0.9073 0.88812 0.62864 0.0
H669 H 0.88146 0.88432 0.54817 0.0
H670 H 0.90763 0.88939 0.66225 0.0
H671 H 0.84943 0.91388 0.67191 0.0
H672 H 0.85076 0.86234 0.68142 0.0
C673 C 0.84579 0.88382 0.56503 0.0
C674 C 0.87774 0.92871 0.61789 0.0
C675 C 0.87968 0.84556 0.64095 0.0
C676 C 0.88756 0.89177 0.73357 0.0
H677 H 0.85637 0.93788 0.54963 0.0
H678 H 0.83765 0.91362 0.52292 0.0
H679 H 0.83935 0.85097 0.5397 0.0
H680 H 0.85897 0.83027 0.57888 0.0
H681 H 0.89544 0.83711 0.71977 0.0
H682 H 0.89816 0.86202 0.77235 0.0
H683 H 0.89561 0.92473 0.75601 0.0
H684 H 0.89157 0.94463 0.69087 0.0
H685 H 0.82641 0.91501 0.72004 0.0
H686 H 0.82735 0.86253 0.72772 0.0
H687 H 0.93332 0.88834 0.62528 0.0
H688 H 0.90705 0.8836 0.50856 0.0
C689 C 0.9228 0.13224 0.34685 0.0
C690 C 0.93288 0.12625 0.31546 0.0
C691 C 0.9233 0.12413 0.28054 0.0
C692 C 0.90791 0.12883 0.29246 0.0
N693 N 0.90722 0.13368 0.33275 0.0
Co694 Co 0.88727 0.14111 0.36255 0.0
N695 N 0.87256 0.13132 0.31991 0.0
C696 C 0.87702 0.12667 0.28104 0.0
C697 C 0.86435 0.12016 0.25847 0.0
C698 C 0.85107 0.12092 0.28462 0.0
C699 C 0.85635 0.128 0.32179 0.0
N700 N 0.86743 0.14862 0.39264 0.0
C701 C 0.85165 0.14395 0.38852 0.0
C702 C 0.84164 0.15303 0.41482 0.0
C703 C 0.85151 0.1637 0.43593 0.0
C704 C 0.86694 0.16063 0.42138 0.0
N705 N 0.9019 0.15101 0.4051 0.0
C706 C 0.89772 0.16279 0.43243 0.0
C707 C 0.91041 0.1675 0.45774 0.0
C708 C 0.9234 0.15815 0.44542 0.0
C709 C 0.91788 0.14819 0.41322 0.0
N710 N 0.88757 0.16161 0.32962 0.0
C711 C 0.88814 0.18921 0.27583 0.0
C712 C 0.90249 0.18302 0.29413 0.0
C713 C 0.90193 0.1694 0.32095 0.0
C714 C 0.87346 0.18141 0.28652 0.0
C715 C 0.87344 0.16774 0.31301 0.0
N716 N 0.88695 0.12056 0.39448 0.0
C717 C 0.88432 0.1056 0.45955 0.0
C718 C 0.88666 0.0907 0.4386 0.0
C719 C 0.88903 0.09122 0.39501 0.0
C720 C 0.88913 0.10613 0.37376 0.0
C721 C 0.88455 0.12035 0.437 0.0
H722 H 0.89096 0.10592 0.34031 0.0
H723 H 0.88283 0.1316 0.45394 0.0
H724 H 0.91323 0.16495 0.3339 0.0
H725 H 0.86192 0.16196 0.31943 0.0
C726 C 0.89353 0.12621 0.26966 0.0
C727 C 0.92846 0.13726 0.38886 0.0
C728 C 0.84551 0.13235 0.35706 0.0
C729 C 0.88136 0.1671 0.43784 0.0
H730 H 0.94578 0.12365 0.31751 0.0
H731 H 0.92699 0.11909 0.25062 0.0
H732 H 0.86481 0.11492 0.22732 0.0
H733 H 0.83892 0.11677 0.27704 0.0
H734 H 0.82853 0.15229 0.41783 0.0
H735 H 0.84789 0.17239 0.45971 0.0
H736 H 0.91012 0.17628 0.48307 0.0
H737 H 0.93558 0.15873 0.45835 0.0
H738 H 0.91422 0.18834 0.28704 0.0
H739 H 0.86191 0.18577 0.27453 0.0
H740 H 0.88256 0.10593 0.49322 0.0
H741 H 0.89058 0.08013 0.37706 0.0
C742 C 0.14857 0.09471 0.59255 0.0
C743 C 0.1576 0.0878 0.56025 0.0
C744 C 0.16721 0.09992 0.54422 0.0
C745 C 0.16351 0.1135 0.56741 0.0
N746 N 0.15212 0.11074 0.59694 0.0
Co747 Co 0.14333 0.12711 0.63699 0.0
N748 N 0.15152 0.14557 0.60252 0.0
C749 C 0.16269 0.14452 0.57165 0.0
C750 C 0.16562 0.15912 0.55219 0.0
C751 C 0.15584 0.17012 0.57231 0.0
C752 C 0.14759 0.16163 0.60352 0.0
N753 N 0.13466 0.14352 0.67712 0.0
C754 C 0.13245 0.15984 0.67259 0.0
C755 C 0.12663 0.16667 0.70953 0.0
C756 C 0.12528 0.15421 0.73807 0.0
C757 C 0.13036 0.14049 0.71716 0.0
N758 N 0.1352 0.10855 0.67118 0.0
C759 C 0.13084 0.10929 0.71185 0.0
C760 C 0.12588 0.09449 0.72742 0.0
C761 C 0.12732 0.08377 0.69451 0.0
C762 C 0.13307 0.09266 0.6606 0.0
N763 N 0.16409 0.12668 0.66888 0.0
C764 C 0.19156 0.12598 0.72304 0.0
C765 C 0.18478 0.11157 0.70674 0.0
C766 C 0.17122 0.11218 0.67976 0.0
C767 C 0.1845 0.14076 0.7101 0.0
C768 C 0.17092 0.14085 0.68321 0.0
N769 N 0.12243 0.12754 0.60626 0.0
C770 C 0.09299 0.12707 0.6082 0.0
C771 C 0.09201 0.12788 0.56426 0.0
C772 C 0.10679 0.12867 0.54186 0.0
C773 C 0.1218 0.12846 0.56337 0.0
C774 C 0.10815 0.12688 0.62835 0.0
H775 H 0.1329 0.12898 0.54529 0.0
H776 H 0.10825 0.12621 0.6621 0.0
H777 H 0.16628 0.10083 0.66847 0.0
H778 H 0.16568 0.15246 0.67501 0.0
C779 C 0.16822 0.12938 0.55767 0.0
C780 C 0.13756 0.08546 0.61992 0.0
C781 C 0.13727 0.16944 0.63554 0.0
C782 C 0.12923 0.12442 0.73192 0.0
H783 H 0.1573 0.07532 0.54939 0.0
H784 H 0.1754 0.09907 0.51767 0.0
H785 H 0.17348 0.1614 0.52554 0.0
H786 H 0.155 0.18295 0.56488 0.0
H787 H 0.12393 0.17937 0.71546 0.0
H788 H 0.12079 0.15503 0.76995 0.0
H789 H 0.12128 0.09188 0.75854 0.0
H790 H 0.12459 0.07088 0.69542 0.0
H791 H 0.18989 0.09982 0.7148 0.0
H792 H 0.18908 0.15227 0.72172 0.0
H793 H 0.08208 0.12678 0.62728 0.0
H794 H 0.10681 0.12919 0.50791 0.0
C795 C 0.0914 0.88141 0.34528 0.0
C796 C 0.08176 0.88913 0.31557 0.0
C797 C 0.09205 0.89491 0.2853 0.0
C798 C 0.10737 0.89042 0.29811 0.0
N799 N 0.10746 0.88198 0.33458 0.0
Co800 Co 0.12723 0.87367 0.36508 0.0
N801 N 0.14257 0.8849 0.32531 0.0
C802 C 0.13832 0.89418 0.29196 0.0
C803 C 0.15136 0.90106 0.27175 0.0
C804 C 0.16474 0.89603 0.29374 0.0
C805 C 0.15912 0.88621 0.32609 0.0
N806 N 0.14689 0.86497 0.39513 0.0
C807 C 0.16303 0.86761 0.38857 0.0
C808 C 0.17256 0.85853 0.41598 0.0
C809 C 0.16213 0.85009 0.44117 0.0
C810 C 0.14688 0.85436 0.4276 0.0
N811 N 0.11196 0.86306 0.40604 0.0
C812 C 0.11614 0.85345 0.43877 0.0
C813 C 0.10319 0.84851 0.46271 0.0
C814 C 0.08991 0.85564 0.4447 0.0
C815 C 0.09557 0.86458 0.4107 0.0
N816 N 0.12708 0.85367 0.32817 0.0
C817 C 0.12744 0.82581 0.27429 0.0
C818 C 0.12666 0.82421 0.31813 0.0
C819 C 0.12655 0.83813 0.34417 0.0
C820 C 0.12781 0.84166 0.25829 0.0
C821 C 0.12761 0.85514 0.28523 0.0
N822 N 0.12738 0.8936 0.40099 0.0
C823 C 0.13167 0.90729 0.46774 0.0
C824 C 0.12748 0.92241 0.45019 0.0
C825 C 0.12339 0.92274 0.40765 0.0
C826 C 0.12352 0.90845 0.38393 0.0
C827 C 0.13138 0.89309 0.44283 0.0
H828 H 0.12047 0.90976 0.35163 0.0
H829 H 0.13439 0.88179 0.45785 0.0
H830 H 0.12608 0.83594 0.37714 0.0
H831 H 0.12789 0.86663 0.27012 0.0
C832 C 0.12194 0.89604 0.28033 0.0
C833 C 0.08489 0.87446 0.38422 0.0
C834 C 0.16993 0.87863 0.35717 0.0
C835 C 0.13239 0.84968 0.44688 0.0
H836 H 0.06869 0.89087 0.31638 0.0
H837 H 0.08882 0.90224 0.2583 0.0
H838 H 0.15115 0.90892 0.24447 0.0
H839 H 0.17723 0.89931 0.28691 0.0
H840 H 0.18572 0.85812 0.41788 0.0
H841 H 0.16528 0.84207 0.4669 0.0
H842 H 0.10341 0.84088 0.49043 0.0
H843 H 0.07747 0.85455 0.45565 0.0
H844 H 0.12642 0.81226 0.33249 0.0
H845 H 0.12804 0.84378 0.22473 0.0
H846 H 0.13488 0.90637 0.50064 0.0
H847 H 0.12033 0.93412 0.3923 0.0
H848 H 0.40503 0.95025 0.3315 0.0
H849 H 0.40397 0.97698 0.29824 0.0
H850 H 0.36894 0.95908 0.20871 0.0
H851 H 0.36972 0.93221 0.24238 0.0
H852 H 0.3916 0.97888 0.17076 0.0
H853 H 0.35656 0.98222 0.29055 0.0
H854 H 0.34907 0.97943 0.36517 0.0
H855 H 0.38672 0.01319 0.39938 0.0
H856 H 0.39459 0.016 0.32498 0.0
H857 H 0.36511 0.05797 0.10189 0.0
H858 H 0.36745 0.02992 0.12792 0.0
H859 H 0.39964 0.04637 0.22622 0.0
H860 H 0.39704 0.07444 0.2004 0.0
H861 H 0.37783 0.02687 0.25842 0.0
H862 H 0.41303 0.02353 0.13867 0.0
H863 H 0.42057 0.02633 0.06409 0.0
H864 H 0.38282 0.99272 0.02964 0.0
H865 H 0.37489 0.9899 0.10401 0.0
C866 C 0.39696 0.95194 0.30496 0.0
C867 C 0.38727 0.93897 0.29021 0.0
C868 C 0.39643 0.9673 0.28579 0.0
C869 C 0.38618 0.97024 0.25125 0.0
C870 C 0.37693 0.95721 0.23535 0.0
C871 C 0.37743 0.94178 0.25464 0.0
C872 C 0.38492 0.987 0.23264 0.0
C873 C 0.38837 0.98934 0.18982 0.0
C874 C 0.38102 1.0008 0.25746 0.0
C875 C 0.37627 0.9992 0.30222 0.0
C876 C 0.36332 0.98896 0.31401 0.0
C877 C 0.359 0.98739 0.35626 0.0
C878 C 0.36744 0.9961 0.38701 0.0
C879 C 0.3802 1.00643 0.37554 0.0
C880 C 0.3846 0.00803 0.33333 0.0
C881 C 0.373 0.05549 0.12839 0.0
C882 C 0.38122 0.06831 0.14852 0.0
C883 C 0.37431 0.03944 0.1434 0.0
C884 C 0.3839 0.03583 0.17891 0.0
C885 C 0.39221 0.0487 0.19876 0.0
C886 C 0.39085 0.06473 0.18381 0.0
C887 C 0.38471 0.01885 0.19654 0.0
C888 C 0.38109 0.01645 0.23926 0.0
C889 C 0.38848 1.00503 0.17159 0.0
C890 C 0.39327 1.00663 0.12688 0.0
C891 C 0.40625 0.01683 0.11517 0.0
C892 C 0.41061 0.01841 0.07293 0.0
C893 C 0.40215 0.00974 0.04213 0.0
C894 C 0.38935 0.99944 0.05353 0.0
C895 C 0.38492 0.99784 0.09572 0.0
H896 H 0.40554 0.01097 0.00945 0.0
H897 H 0.36407 0.99487 0.4197 0.0
H898 H 0.06948 0.61326 0.84639 0.0
H899 H 0.04128 0.61066 0.82143 0.0
H900 H 0.0336 0.66193 0.84364 0.0
H901 H 0.06158 0.66432 0.87003 0.0
H902 H 1.00678 0.64669 0.86201 0.0
H903 H 0.04319 0.64587 0.74415 0.0
H904 H 0.06645 0.6359 0.70244 0.0
H905 H 0.04397 0.58885 0.69253 0.0
H906 H 0.02067 0.59848 0.73477 0.0
H907 H 0.95193 0.64436 0.66102 0.0
H908 H 0.9784 0.64555 0.69563 0.0
H909 H 0.95847 0.62089 0.80348 0.0
H910 H 0.93188 0.61943 0.76872 0.0
H911 H 0.99897 0.62283 0.7204 0.0
H912 H 0.97882 0.63404 0.89231 0.0
H913 H 0.95628 0.6471 0.93102 0.0
H914 H 0.94708 0.67868 0.82615 0.0
H915 H 0.96969 0.66597 0.78709 0.0
C916 C 0.06164 0.62388 0.84654 0.0
C917 C 0.06774 0.63902 0.85971 0.0
C918 C 0.04555 0.62244 0.83195 0.0
C919 C 0.03528 0.63617 0.82963 0.0
C920 C 0.04118 0.65114 0.84482 0.0
C921 C 0.0572 0.65253 0.8598 0.0
C922 C 0.01873 0.63519 0.80961 0.0
C923 C 1.0051 0.64136 0.83116 0.0
C924 C 0.01639 0.62859 0.76887 0.0
C925 C 0.03026 0.62285 0.74293 0.0
C926 C 0.04324 0.63338 0.73326 0.0
C927 C 0.05644 0.62779 0.70952 0.0
C928 C 0.0567 0.61174 0.69492 0.0
C929 C 0.04375 0.60127 0.70391 0.0
C930 C 0.03055 0.60679 0.72773 0.0
C931 C 0.95312 0.63903 0.69196 0.0
C932 C 0.93963 0.63169 0.71178 0.0
C933 C 0.96835 0.63978 0.71184 0.0
C934 C 0.97057 0.63336 0.75234 0.0
C935 C 0.95712 0.62613 0.77247 0.0
C936 C 0.94185 0.62535 0.75252 0.0
C937 C 0.98699 0.63415 0.773 0.0
C938 C 1.00062 0.62798 0.75147 0.0
C939 C 0.98937 0.64111 0.81328 0.0
C940 C 0.97581 0.6489 0.83662 0.0
C941 C 0.972 0.64379 0.87757 0.0
C942 C 0.95922 0.65114 0.89957 0.0
C943 C 0.95021 0.66367 0.88099 0.0
C944 C 0.95402 0.66893 0.84044 0.0
C945 C 0.9668 0.66164 0.81834 0.0
H946 H 0.94032 0.66934 0.89807 0.0
H947 H 0.06693 0.60743 0.67656 0.0
H948 H 0.61978 0.9425 0.20404 0.0
H949 H 0.61792 0.97085 0.22801 0.0
H950 H 0.65056 0.98556 0.1289 0.0
H951 H 0.65255 0.95711 0.10539 0.0
H952 H 0.65936 0.99946 0.20143 0.0
H953 H 0.60922 0.99441 0.12553 0.0
H954 H 0.58295 0.98188 0.10653 0.0
H955 H 0.56546 0.98917 0.23217 0.0
H956 H 0.59173 1.00154 0.2521 0.0
H957 H 0.64865 0.08461 0.24057 0.0
H958 H 0.6491 0.05785 0.20652 0.0
H959 H 0.61483 0.03974 0.29783 0.0
H960 H 0.61379 0.0665 0.33077 0.0
H961 H 0.60695 0.02815 0.22466 0.0
H962 H 0.6571 0.03166 0.30208 0.0
H963 H 0.68345 0.04364 0.32282 0.0
H964 H 0.70094 0.03877 0.19641 0.0
H965 H 0.67461 0.02698 0.17478 0.0
C966 C 0.62628 0.95187 0.18693 0.0
C967 C 0.63597 0.94768 0.15223 0.0
C968 C 0.62525 0.96809 0.20065 0.0
C969 C 0.63394 0.98053 0.18005 0.0
C970 C 0.64365 0.9763 0.14529 0.0
C971 C 0.64465 0.96007 0.13154 0.0
C972 C 0.63328 0.9978 0.19558 0.0
C973 C 0.64789 1.00581 0.20581 0.0
C974 C 0.61835 1.0061 0.20237 0.0
C975 C 0.6025 0.99878 0.19039 0.0
C976 C 0.59982 0.99324 0.14919 0.0
C977 C 0.58492 0.98618 0.13824 0.0
C978 C 0.57256 0.9847 0.16815 0.0
C979 C 0.57506 0.99031 0.20905 0.0
C980 C 0.58994 0.99737 0.22017 0.0
C981 C 0.64105 0.07501 0.25314 0.0
C982 C 0.63132 0.07782 0.28889 0.0
C983 C 0.64146 0.05959 0.23385 0.0
C984 C 0.63222 0.04653 0.24989 0.0
C985 C 0.62217 0.04946 0.2848 0.0
C986 C 0.62173 0.06483 0.30396 0.0
C987 C 0.63302 0.02979 0.23086 0.0
C988 C 0.61843 0.02185 0.22001 0.0
C989 C 0.64797 0.02153 0.22375 0.0
C990 C 0.66382 0.0286 0.23671 0.0
C991 C 0.66652 0.03326 0.27863 0.0
C992 C 0.68146 0.04 0.29057 0.0
C993 C 0.69384 0.042 0.26093 0.0
C994 C 0.69133 0.03724 0.21932 0.0
C995 C 0.6764 0.03052 0.20721 0.0
H996 H 0.70541 0.0472 0.27023 0.0
H997 H 0.56104 0.97922 0.15961 0.0
H998 H 0.0639 0.40794 0.68208 0.0
H999 H 0.03746 0.40684 0.71694 0.0
H1000 H 0.05432 0.36713 0.79418 0.0
H1001 H 0.08083 0.3679 0.75849 0.0
H1002 H 0.02419 0.36084 0.76492 0.0
H1003 H 0.04929 0.40575 0.83453 0.0
H1004 H 0.06388 0.43189 0.84014 0.0
H1005 H 0.02479 0.45612 0.77584 0.0
H1006 H 0.01005 0.43007 0.76931 0.0
H1007 H 0.95501 0.36276 0.90046 0.0
H1008 H 0.98321 0.36491 0.87506 0.0
H1009 H 0.96862 0.40289 0.78933 0.0
H1010 H 0.9404 0.40067 0.81482 0.0
H1011 H 0.99817 0.40986 0.82665 0.0
H1012 H 0.97356 0.36478 0.75524 0.0
H1013 H 0.95878 0.33873 0.75044 0.0
H1014 H 0.99707 0.3148 0.81866 0.0
H1015 H 0.01194 0.34081 0.82458 0.0
C1016 C 0.06204 0.39892 0.70642 0.0
C1017 C 0.0746 0.38796 0.71721 0.0
C1018 C 0.04688 0.3984 0.72669 0.0
C1019 C 0.04379 0.38699 0.75861 0.0
C1020 C 0.05633 0.37609 0.76976 0.0
C1021 C 0.07157 0.37664 0.74954 0.0
C1022 C 0.02737 0.38625 0.7794 0.0
C1023 C 0.01866 0.37151 0.77907 0.0
C1024 C 0.01984 0.40021 0.79715 0.0
C1025 C 0.02863 0.41592 0.8011 0.0
C1026 C 0.04386 0.41662 0.82129 0.0
C1027 C 0.05215 0.43143 0.82469 0.0
C1028 C 0.04529 0.44565 0.80827 0.0
C1029 C 0.0301 0.4451 0.78851 0.0
C1030 C 0.02176 0.43031 0.78499 0.0
C1031 C 0.95793 0.37174 0.8767 0.0
C1032 C 0.94561 0.38171 0.85995 0.0
C1033 C 0.97402 0.3729 0.86196 0.0
C1034 C 0.97812 0.384 0.82996 0.0
C1035 C 0.96584 0.39427 0.81406 0.0
C1036 C 0.94973 0.39302 0.82862 0.0
C1037 C 0.99502 0.38448 0.81202 0.0
C1038 C 1.00378 0.39917 0.81277 0.0
C1039 C 1.0026 0.37048 0.79469 0.0
C1040 C 0.99378 0.35479 0.79075 0.0
C1041 C 0.97877 0.354 0.76952 0.0
C1042 C 0.97038 0.33923 0.76656 0.0
C1043 C 0.97697 0.32513 0.78432 0.0
C1044 C 0.99197 0.32575 0.80498 0.0
C1045 C 1.00039 0.3405 0.80815 0.0
H1046 H 0.97046 0.3137 0.78199 0.0
H1047 H 0.05172 0.4571 0.81093 0.0
H1048 H 0.39701 0.44061 0.05809 0.0
H1049 H 0.39963 0.46879 0.03348 0.0
H1050 H 0.37122 0.4853 0.13919 0.0
H1051 H 0.36823 0.457 0.163 0.0
H1052 H 0.36079 0.49972 0.07037 0.0
H1053 H 0.41387 0.49115 0.1304 0.0
H1054 H 0.44013 0.47704 0.14029 0.0
H1055 H 0.4519 0.48473 0.01043 0.0
H1056 H 0.42559 0.49854 0.99954 0.0
H1057 H 0.37321 0.58376 0.02168 0.0
H1058 H 0.37303 0.55749 0.05812 0.0
H1059 H 0.4038 0.53711 0.96177 0.0
H1060 H 0.40485 0.56342 0.92681 0.0
H1061 H 0.4133 0.5254 0.03155 0.0
H1062 H 0.36036 0.531 0.96833 0.0
H1063 H 0.33391 0.5442 0.95436 0.0
H1064 H 0.32179 0.54137 0.08531 0.0
H1065 H 0.34828 0.52833 0.10013 0.0
C1066 C 0.39163 0.45032 0.07649 0.0
C1067 C 0.38281 0.44665 0.11309 0.0
C1068 C 0.39312 0.46646 0.06243 0.0
C1069 C 0.38585 0.47938 0.08472 0.0
C1070 C 0.37706 0.47567 0.12147 0.0
C1071 C 0.37552 0.45951 0.13542 0.0
C1072 C 0.38683 0.49658 0.06876 0.0
C1073 C 0.37232 0.50541 0.0626 0.0
C1074 C 0.40179 0.50402 0.0574 0.0
C1075 C 0.41767 0.49576 0.06408 0.0
C1076 C 0.422 0.48971 0.10387 0.0
C1077 C 0.4369 0.48175 0.10966 0.0
C1078 C 0.44766 0.47992 0.07598 0.0
C1079 C 0.44355 0.48608 0.03648 0.0
C1080 C 0.42864 0.49398 0.03048 0.0
C1081 C 0.38015 0.57378 0.00852 0.0
C1082 C 0.38885 0.57583 0.97072 0.0
C1083 C 0.37986 0.55862 0.02919 0.0
C1084 C 0.38811 0.54503 0.01242 0.0
C1085 C 0.3972 0.54723 0.97547 0.0
C1086 C 0.39762 0.56235 0.9551 0.0
C1087 C 0.38725 0.52848 0.03267 0.0
C1088 C 0.40178 0.51977 0.03964 0.0
C1089 C 0.3723 0.52106 0.04425 0.0
C1090 C 0.35637 0.52886 0.0354 0.0
C1091 C 0.3521 0.5333 0.99419 0.0
C1092 C 0.3371 0.54074 0.98611 0.0
C1093 C 0.3262 0.54367 0.01895 0.0
C1094 C 0.33026 0.53912 0.05992 0.0
C1095 C 0.34526 0.5317 0.06817 0.0
H1096 H 0.31459 0.54943 0.01263 0.0
H1097 H 0.45919 0.47376 0.08051 0.0
H1098 H 0.45775 0.65814 0.86144 0.0
H1099 H 0.48581 0.65562 0.88761 0.0
H1100 H 0.47232 0.61219 0.95553 0.0
H1101 H 0.44422 0.61495 0.92976 0.0
H1102 H 0.48934 0.63174 0.00484 0.0
H1103 H 0.4965 0.61136 0.86462 0.0
H1104 H 0.49464 0.6123 0.78739 0.0
H1105 H 0.52456 0.65517 0.78533 0.0
H1106 H 0.52641 0.65462 0.86263 0.0
H1107 H 0.56815 0.6078 0.06883 0.0
H1108 H 0.54145 0.60879 0.03508 0.0
H1109 H 0.55649 0.65077 0.96353 0.0
H1110 H 0.58347 0.64954 0.99659 0.0
H1111 H 0.53875 0.63222 0.91526 0.0
H1112 H 0.5313 0.65333 0.05409 0.0
H1113 H 0.53294 0.6533 0.1314 0.0
H1114 H 0.50331 0.61026 0.13623 0.0
H1115 H 0.50167 0.60991 0.05889 0.0
C1116 C 0.46093 0.64791 0.88133 0.0
C1117 C 0.44894 0.63661 0.89318 0.0
C1118 C 0.47696 0.64646 0.89632 0.0
C1119 C 0.48136 0.63361 0.92338 0.0
C1120 C 0.46934 0.6222 0.93472 0.0
C1121 C 0.45332 0.62368 0.91976 0.0
C1122 C 0.49825 0.63243 0.94131 0.0
C1123 C 0.50011 0.63159 0.98512 0.0
C1124 C 0.51245 0.63276 0.91594 0.0
C1125 C 0.51147 0.63303 0.86945 0.0
C1126 C 0.50259 0.62105 0.84772 0.0
C1127 C 0.50155 0.62151 0.80393 0.0
C1128 C 0.50945 0.63381 0.78147 0.0
C1129 C 0.51844 0.64565 0.80276 0.0
C1130 C 0.5195 0.64527 0.84656 0.0
C1131 C 0.56579 0.61726 0.04592 0.0
C1132 C 0.57796 0.62869 0.0358 0.0
C1133 C 0.55044 0.61786 0.02666 0.0
C1134 C 0.54665 0.6301 0.99729 0.0
C1135 C 0.55897 0.64123 0.98614 0.0
C1136 C 0.57443 0.64051 0.00506 0.0
C1137 C 0.52984 0.63139 0.97882 0.0
C1138 C 0.52798 0.63232 0.93497 0.0
C1139 C 0.51561 0.63127 0.00416 0.0
C1140 C 0.51649 0.63151 0.05068 0.0
C1141 C 0.52522 0.6438 0.07163 0.0
C1142 C 0.52614 0.64386 0.11546 0.0
C1143 C 0.51827 0.63176 0.13871 0.0
C1144 C 0.50942 0.61961 0.11818 0.0
C1145 C 0.50848 0.61948 0.07435 0.0
H1146 H 0.519 0.63183 0.17264 0.0
H1147 H 0.50863 0.63414 0.74757 0.0
H1148 H 0.6485 0.45015 0.91755 0.0
H1149 H 0.64902 0.47681 0.95123 0.0
H1150 H 0.61908 0.45844 0.05182 0.0
H1151 H 0.61807 0.43172 0.01742 0.0
H1152 H 0.60853 0.48785 0.02893 0.0
H1153 H 0.66036 0.46542 0.06522 0.0
H1154 H 0.68691 0.45228 0.05226 0.0
H1155 H 0.70136 0.49246 0.9744 0.0
H1156 H 0.6748 0.50574 0.98643 0.0
H1157 H 0.65327 0.55919 0.14921 0.0
H1158 H 0.65132 0.53072 0.12603 0.0
H1159 H 0.61924 0.54535 0.02556 0.0
H1160 H 0.62104 0.57376 0.04925 0.0
H1161 H 0.66062 0.51661 0.05578 0.0
H1162 H 0.59334 0.51423 1.00063 0.0
H1163 H 0.56687 0.52657 0.01898 0.0
H1164 H 0.58344 0.53449 0.1452 0.0
H1165 H 0.60992 0.522 0.12778 0.0
C1166 C 0.64193 0.45172 0.94674 0.0
C1167 C 0.63319 0.43865 0.96454 0.0
C1168 C 0.64237 0.46702 0.96626 0.0
C1169 C 0.63421 0.46974 0.00443 0.0
C1170 C 0.62551 0.45673 0.02245 0.0
C1171 C 0.62507 0.44137 0.00291 0.0
C1172 C 0.63466 0.4862 0.02503 0.0
C1173 C 0.61993 0.49411 0.03481 0.0
C1174 C 0.6495 0.49441 0.03355 0.0
C1175 C 0.66553 0.48651 0.02647 0.0
C1176 C 0.66916 0.4714 0.04511 0.0
C1177 C 0.68422 0.46394 0.03796 0.0
C1178 C 0.6958 0.47151 0.01245 0.0
C1179 C 0.69237 0.4866 0.99413 0.0
C1180 C 0.67732 0.49411 1.00114 0.0
C1181 C 0.64551 0.55622 0.12278 0.0
C1182 C 0.63698 0.56861 0.10163 0.0
C1183 C 0.64452 0.53997 0.10924 0.0
C1184 C 0.63499 0.53571 0.07419 0.0
C1185 C 0.62643 0.54815 0.05312 0.0
C1186 C 0.62745 0.5644 0.06665 0.0
C1187 C 0.63447 0.51842 0.05882 0.0
C1188 C 0.6492 0.51036 0.04997 0.0
C1189 C 0.61964 0.50999 0.05178 0.0
C1190 C 0.60367 0.51731 0.06274 0.0
C1191 C 0.59131 0.51854 0.03234 0.0
C1192 C 0.57631 0.52557 0.04258 0.0
C1193 C 0.5735 0.53136 0.08319 0.0
C1194 C 0.58566 0.53006 0.11371 0.0
C1195 C 0.60067 0.52302 0.10365 0.0
H1196 H 0.56188 0.53681 0.09104 0.0
H1197 H 0.70745 0.46571 0.00695 0.0
H1198 H 0.45218 0.40411 0.09105 0.0
H1199 H 0.47887 0.4036 0.05774 0.0
H1200 H 0.46031 0.37189 0.96112 0.0
H1201 H 0.43364 0.37166 0.99562 0.0
H1202 H 0.4893 0.36156 0.98434 0.0
H1203 H 0.4683 0.41393 0.94489 0.0
H1204 H 0.45611 0.441 0.95693 0.0
H1205 H 0.49691 0.4545 0.0337 0.0
H1206 H 0.50926 0.42743 0.02259 0.0
H1207 H 0.55917 0.36865 0.85395 0.0
H1208 H 0.53109 0.37118 0.87965 0.0
H1209 H 0.54795 0.4009 0.98245 0.0
H1210 H 0.57601 0.39858 0.95616 0.0
H1211 H 0.51941 0.4125 0.95306 0.0
H1212 H 0.54004 0.36035 0.99462 0.0
H1213 H 0.55264 0.33344 0.98331 0.0
H1214 H 0.51272 0.31954 0.90391 0.0
H1215 H 0.50003 0.34651 0.91412 0.0
C1216 C 0.45371 0.39687 0.06293 0.0
C1217 C 0.44057 0.38785 0.04637 0.0
C1218 C 0.46904 0.39678 0.04347 0.0
C1219 C 0.47173 0.3879 0.00635 0.0
C1220 C 0.45866 0.37892 0.98958 0.0
C1221 C 0.44329 0.37892 0.0092 0.0
C1222 C 0.48823 0.38776 0.98572 0.0
C1223 C 0.49572 0.37273 0.97686 0.0
C1224 C 0.49697 0.40227 0.97675 0.0
C1225 C 0.48964 0.4186 0.98316 0.0
C1226 C 0.47462 0.42264 0.96455 0.0
C1227 C 0.4677 0.43798 0.97118 0.0
C1228 C 0.47572 0.44944 0.99612 0.0
C1229 C 0.49071 0.4456 0.01441 0.0
C1230 C 0.49769 0.43027 0.00792 0.0
C1231 C 0.55679 0.37607 0.88138 0.0
C1232 C 0.56973 0.38371 0.90258 0.0
C1233 C 0.54075 0.37736 0.89641 0.0
C1234 C 0.53729 0.3861 0.93339 0.0
C1235 C 0.55019 0.39412 0.95386 0.0
C1236 C 0.56623 0.39283 0.9388 0.0
C1237 C 0.52042 0.38632 0.95169 0.0
C1238 C 0.5129 0.40135 0.96025 0.0
C1239 C 0.51167 0.37181 0.96051 0.0
C1240 C 0.51916 0.35551 0.95479 0.0
C1241 C 0.534 0.3516 0.97451 0.0
C1242 C 0.54116 0.33633 0.96831 0.0
C1243 C 0.5335 0.3248 0.94284 0.0
C1244 C 0.51865 0.3285 0.92359 0.0
C1245 C 0.51147 0.34377 0.92957 0.0
H1246 H 0.53905 0.31298 0.93808 0.0
H1247 H 0.47036 0.46131 1.00119 0.0
H1248 H 0.86829 0.43452 0.75135 0.0
H1249 H 0.86762 0.46126 0.71725 0.0
H1250 H 0.90267 0.47933 0.80651 0.0
H1251 H 0.9037 0.45266 0.84014 0.0
H1252 H 0.87782 0.50062 0.79729 0.0
H1253 H 0.91341 0.47084 0.70494 0.0
H1254 H 0.9212 0.44819 0.65824 0.0
H1255 H 0.88106 0.45939 0.57668 0.0
H1256 H 0.8729 0.48198 0.62324 0.0
H1257 H 0.89693 0.5761 0.70261 0.0
H1258 H 0.8992 0.54824 0.73008 0.0
H1259 H 0.86582 0.53146 0.63486 0.0
H1260 H 0.86382 0.55932 0.60704 0.0
H1261 H 0.88916 0.50928 0.64596 0.0
H1262 H 0.85349 0.53893 0.73631 0.0
H1263 H 0.84517 0.56167 0.78207 0.0
H1264 H 0.88422 0.5505 0.86708 0.0
H1265 H 0.89296 0.52786 0.8214 0.0
C1266 C 0.87605 0.44408 0.76345 0.0
C1267 C 0.88599 0.44128 0.79886 0.0
C1268 C 0.87561 0.45944 0.74391 0.0
C1269 C 0.88512 0.47242 0.75914 0.0
C1270 C 0.89511 0.46963 0.79421 0.0
C1271 C 0.89562 0.4543 0.8136 0.0
C1272 C 0.8845 0.48899 0.73923 0.0
C1273 C 0.88052 0.5025 0.76431 0.0
C1274 C 0.88753 0.49153 0.69588 0.0
C1275 C 0.89244 0.47799 0.66781 0.0
C1276 C 0.90616 0.46839 0.67723 0.0
C1277 C 0.91066 0.45558 0.65075 0.0
C1278 C 0.9016 0.45232 0.61458 0.0
C1279 C 0.88805 0.46191 0.60475 0.0
C1280 C 0.88349 0.47472 0.63115 0.0
C1281 C 0.89033 0.56637 0.68717 0.0
C1282 C 0.88041 0.56979 0.65236 0.0
C1283 C 0.89151 0.55047 0.70306 0.0
C1284 C 0.88252 0.53765 0.685 0.0
C1285 C 0.87292 0.54103 0.64941 0.0
C1286 C 0.87181 0.55694 0.63342 0.0
C1287 C 0.88265 0.52093 0.70415 0.0
C1288 C 0.88647 0.50739 0.67895 0.0
C1289 C 0.87933 0.51832 0.74735 0.0
C1290 C 0.87397 0.53179 0.77522 0.0
C1291 C 0.86037 0.54138 0.76462 0.0
C1292 C 0.85557 0.55425 0.79055 0.0
C1293 C 0.86418 0.55755 0.82742 0.0
C1294 C 0.87758 0.54795 0.83848 0.0
C1295 C 0.88246 0.53509 0.81259 0.0
H1296 H 0.86045 0.56752 0.84746 0.0
H1297 H 0.9051 0.4424 0.59411 0.0
H1298 H 0.55964 0.14883 0.39749 0.0
H1299 H 0.53158 0.14638 0.37168 0.0
H1300 H 0.54824 0.115 0.2719 0.0
H1301 H 0.57634 0.11772 0.29752 0.0
H1302 H 0.52831 0.13665 0.24076 0.0
H1303 H 0.52564 0.10086 0.35939 0.0
H1304 H 0.52874 0.09294 0.43364 0.0
H1305 H 0.4949 0.13025 0.47012 0.0
H1306 H 0.49179 0.13856 0.3961 0.0
H1307 H 0.45134 0.10971 0.16879 0.0
H1308 H 0.47826 0.11066 0.20106 0.0
H1309 H 0.46068 0.14505 0.29265 0.0
H1310 H 0.43363 0.14441 0.25997 0.0
H1311 H 0.48069 0.12223 0.32906 0.0
H1312 H 0.48347 0.15793 0.21042 0.0
H1313 H 0.48039 0.16582 0.13614 0.0
H1314 H 0.51417 0.12843 0.09982 0.0
H1315 H 0.51727 0.12016 0.17388 0.0
C1316 C 0.55721 0.14108 0.3707 0.0
C1317 C 0.57011 0.13311 0.35015 0.0
C1318 C 0.54115 0.13971 0.35581 0.0
C1319 C 0.53758 0.13031 0.31998 0.0
C1320 C 0.55053 0.12227 0.29963 0.0
C1321 C 0.56658 0.12369 0.31447 0.0
C1322 C 0.52055 0.12943 0.30261 0.0
C1323 C 0.51798 0.13324 0.26006 0.0
C1324 C 0.50682 0.12546 0.32773 0.0
C1325 C 0.50861 0.12043 0.37223 0.0
C1326 C 0.51896 0.10746 0.38327 0.0
C1327 C 0.5207 0.10288 0.42531 0.0
C1328 C 0.51206 0.11111 0.45659 0.0
C1329 C 0.50161 0.1239 0.44586 0.0
C1330 C 0.49984 0.12854 0.40387 0.0
C1331 C 0.45313 0.11763 0.19556 0.0
C1332 C 0.44018 0.12716 0.2112 0.0
C1333 C 0.46862 0.1181 0.21417 0.0
C1334 C 0.4717 0.12812 0.24904 0.0
C1335 C 0.4587 0.13723 0.26575 0.0
C1336 C 0.44317 0.1368 0.24703 0.0
C1337 C 0.48855 0.12928 0.26723 0.0
C1338 C 0.49107 0.1256 0.30986 0.0
C1339 C 0.50226 0.13334 0.24221 0.0
C1340 C 0.50048 0.13833 0.19767 0.0
C1341 C 0.49014 0.15131 0.18657 0.0
C1342 C 0.48841 0.15586 0.14451 0.0
C1343 C 0.49705 0.14761 0.11327 0.0
C1344 C 0.50747 0.1348 0.12405 0.0
C1345 C 0.50923 0.13019 0.16606 0.0
H1346 H 0.49569 0.15115 0.08072 0.0
H1347 H 0.51342 0.10755 0.48912 0.0
H1348 H 0.10646 0.56888 0.80338 0.0
H1349 H 0.1076 0.54248 0.76827 0.0
H1350 H 0.15337 0.55573 0.71129 0.0
H1351 H 0.15206 0.58246 0.74584 0.0
H1352 H 0.13597 0.53877 0.65671 0.0
H1353 H 0.15105 0.53059 0.8002 0.0
H1354 H 0.14807 0.53239 0.87709 0.0
H1355 H 0.10381 0.50466 0.87075 0.0
H1356 H 0.10641 0.50289 0.79371 0.0
H1357 H 0.16004 0.45634 0.6111 0.0
H1358 H 0.15779 0.48461 0.63577 0.0
H1359 H 0.11105 0.47359 0.69081 0.0
H1360 H 0.11349 0.44527 0.66647 0.0
H1361 H 0.12955 0.48955 0.74551 0.0
H1362 H 0.11519 0.4975 0.60068 0.0
H1363 H 0.11908 0.4955 0.5241 0.0
H1364 H 0.1632 0.52332 0.53342 0.0
H1365 H 0.15971 0.52528 0.61018 0.0
C1366 C 0.11676 0.56622 0.78325 0.0
C1367 C 0.12927 0.57776 0.77787 0.0
C1368 C 0.11743 0.55105 0.76323 0.0
C1369 C 0.13079 0.5468 0.7378 0.0
C1370 C 0.14297 0.55857 0.73088 0.0
C1371 C 0.1422 0.57389 0.75061 0.0
C1372 C 0.13217 0.52997 0.71964 0.0
C1373 C 0.13477 0.52803 0.67628 0.0
C1374 C 0.13038 0.5158 0.74478 0.0
C1375 C 0.12885 0.51674 0.79114 0.0
C1376 C 0.14063 0.52497 0.81517 0.0
C1377 C 0.13901 0.52598 0.85879 0.0
C1378 C 0.12574 0.51868 0.87878 0.0
C1379 C 0.11408 0.51033 0.85521 0.0
C1380 C 0.11562 0.50931 0.81157 0.0
C1381 C 0.14917 0.4601 0.62777 0.0
C1382 C 0.13685 0.44874 0.63653 0.0
C1383 C 0.14787 0.47625 0.6419 0.0
C1384 C 0.13417 0.4814 0.665 0.0
C1385 C 0.12173 0.47002 0.67307 0.0
C1386 C 0.12305 0.45388 0.65892 0.0
C1387 C 0.13315 0.49834 0.68253 0.0
C1388 C 0.1307 0.50029 0.72589 0.0
C1389 C 0.1352 0.51247 0.65742 0.0
C1390 C 0.13726 0.5114 0.61124 0.0
C1391 C 0.12579 0.50309 0.58645 0.0
C1392 C 0.12791 0.50198 0.54299 0.0
C1393 C 0.1414 0.50925 0.52391 0.0
C1394 C 0.15277 0.51768 0.54824 0.0
C1395 C 0.15072 0.51881 0.59172 0.0
H1396 H 0.14302 0.50838 0.49027 0.0
H1397 H 0.12451 0.51947 0.91255 0.0
H1398 H 0.45691 0.86518 0.40211 0.0
H1399 H 0.48496 0.86766 0.37617 0.0
H1400 H 0.46819 0.899 0.27634 0.0
H1401 H 0.44011 0.89625 0.30207 0.0
H1402 H 0.4882 0.87745 0.24525 0.0
H1403 H 0.4906 0.91324 0.36385 0.0
H1404 H 0.48744 0.92112 0.4381 0.0
H1405 H 0.52154 0.88404 0.47465 0.0
H1406 H 0.52473 0.87577 0.40063 0.0
H1407 H 0.56493 0.90524 0.17354 0.0
H1408 H 0.53801 0.90398 0.20574 0.0
H1409 H 0.55587 0.86957 0.297 0.0
H1410 H 0.58292 0.87051 0.2644 0.0
H1411 H 0.53571 0.89224 0.33357 0.0
H1412 H 0.53324 0.85661 0.21479 0.0
H1413 H 0.53639 0.84883 0.14047 0.0
H1414 H 0.50226 0.88595 0.10433 0.0
H1415 H 0.49909 0.8941 0.17843 0.0
C1416 C 0.45932 0.8729 0.37524 0.0
C1417 C 0.4464 0.88085 0.3547 0.0
C1418 C 0.47536 0.8743 0.36029 0.0
C1419 C 0.4789 0.88371 0.32444 0.0
C1420 C 0.46592 0.89171 0.30408 0.0
C1421 C 0.44988 0.89026 0.31896 0.0
C1422 C 0.49591 0.8847 0.30711 0.0
C1423 C 0.49851 0.88094 0.26455 0.0
C1424 C 0.5096 0.88878 0.33223 0.0
C1425 C 0.50778 0.89378 0.37673 0.0
C1426 C 0.49734 0.90668 0.38775 0.0
C1427 C 0.49555 0.91123 0.42979 0.0
C1428 C 0.50425 0.90306 0.46108 0.0
C1429 C 0.51479 0.89034 0.45038 0.0
C1430 C 0.5166 0.88573 0.40838 0.0
C1431 C 0.5632 0.89725 0.20022 0.0
C1432 C 0.57623 0.8878 0.21581 0.0
C1433 C 0.54772 0.8966 0.21879 0.0
C1434 C 0.54472 0.88649 0.25355 0.0
C1435 C 0.55779 0.87746 0.2702 0.0
C1436 C 0.57332 0.87806 0.25152 0.0
C1437 C 0.52789 0.88516 0.27173 0.0
C1438 C 0.52536 0.88879 0.31437 0.0
C1439 C 0.51423 0.88099 0.24671 0.0
C1440 C 0.51605 0.87607 0.20213 0.0
C1441 C 0.5265 0.8632 0.19097 0.0
C1442 C 0.52828 0.85871 0.14889 0.0
C1443 C 0.51956 0.86692 0.11769 0.0
C1444 C 0.50902 0.87961 0.12853 0.0
C1445 C 0.50722 0.88417 0.17057 0.0
H1446 H 0.52095 0.86342 0.08513 0.0
H1447 H 0.50286 0.9066 0.49361 0.0
H1448 H 0.86287 0.95599 0.64875 0.0
H1449 H 0.86525 0.98408 0.62274 0.0
H1450 H 0.90102 0.96838 0.53219 0.0
H1451 H 0.89859 0.94028 0.55832 0.0
H1452 H 0.90936 0.99794 0.5681 0.0
H1453 H 0.86253 0.97387 0.50304 0.0
H1454 H 0.83616 0.95953 0.50202 0.0
H1455 H 0.81426 0.99842 0.57233 0.0
H1456 H 0.84061 0.01286 0.57444 0.0
H1457 H 0.90608 0.06394 0.42453 0.0
H1458 H 0.90512 0.03738 0.45874 0.0
H1459 H 0.86659 0.05433 0.53971 0.0
H1460 H 0.86709 0.08088 0.50448 0.0
H1461 H 0.85964 0.02455 0.51188 0.0
H1462 H 0.90627 0.04906 0.57556 0.0
H1463 H 0.93273 0.06324 0.57752 0.0
H1464 H 0.95502 0.02367 0.51065 0.0
H1465 H 0.92863 0.00935 0.50776 0.0
C1466 C 0.87146 0.95865 0.62387 0.0
C1467 C 0.88074 0.94606 0.60591 0.0
C1468 C 0.87273 0.97467 0.60877 0.0
C1469 C 0.88324 0.97841 0.57521 0.0
C1470 C 0.89287 0.96587 0.55814 0.0
C1471 C 0.89151 0.94983 0.57308 0.0
C1472 C 0.88368 0.9952 0.55675 0.0
C1473 C 0.89852 1.00369 0.55542 0.0
C1474 C 0.86949 1.00293 0.54095 0.0
C1475 C 0.85359 0.99437 0.53928 0.0
C1476 C 0.85213 0.97931 0.51857 0.0
C1477 C 0.83718 0.97117 0.51776 0.0
C1478 C 0.82355 0.97805 0.53718 0.0
C1479 C 0.82484 0.9931 0.55736 0.0
C1480 C 0.83977 1.00127 0.55837 0.0
C1481 C 0.8973 0.06206 0.44945 0.0
C1482 C 0.88662 0.07468 0.46148 0.0
C1483 C 0.8969 0.04684 0.46939 0.0
C1484 C 0.8859 0.04376 0.5023 0.0
C1485 C 0.87524 0.05633 0.51455 0.0
C1486 C 0.87564 0.0716 0.49457 0.0
C1487 C 0.88536 0.02736 0.52314 0.0
C1488 C 0.87048 0.01889 0.5248 0.0
C1489 C 0.89953 0.01966 0.5393 0.0
C1490 C 0.91543 0.0282 0.54112 0.0
C1491 C 0.91679 0.04344 0.561 0.0
C1492 C 0.93178 0.05149 0.56232 0.0
C1493 C 0.94554 0.04438 0.54413 0.0
C1494 C 0.94435 0.02917 0.52468 0.0
C1495 C 0.92938 0.02108 0.52323 0.0
H1496 H 0.95713 0.05063 0.54519 0.0
H1497 H 0.81199 0.97173 0.53652 0.0
H1498 H 0.95632 0.15053 0.35568 0.0
H1499 H 0.98427 0.14838 0.38255 0.0
H1500 H 0.96742 0.11693 0.48198 0.0
H1501 H 0.93943 0.1193 0.45522 0.0
H1502 H 0.9875 0.13858 0.51336 0.0
H1503 H 0.98986 0.10269 0.39493 0.0
H1504 H 0.98667 0.09481 0.3207 0.0
H1505 H 0.02081 0.13177 0.28405 0.0
H1506 H 0.02402 0.14004 0.35804 0.0
H1507 H 0.06427 0.11099 0.58591 0.0
H1508 H 0.03731 0.11229 0.5539 0.0
H1509 H 0.05534 0.1458 0.46074 0.0
H1510 H 0.08244 0.14476 0.49304 0.0
H1511 H 0.03498 0.12354 0.42516 0.0
H1512 H 0.03259 0.15933 0.54356 0.0
H1513 H 0.03574 0.16724 0.61779 0.0
H1514 H 1.00153 0.13034 0.65436 0.0
H1515 H 0.99836 0.12204 0.58036 0.0
C1516 C 0.95868 0.1429 0.38275 0.0
C1517 C 0.94576 0.13475 0.40276 0.0
C1518 C 0.97467 0.14168 0.39822 0.0
C1519 C 0.97817 0.13228 0.43412 0.0
C1520 C 0.96519 0.12421 0.45419 0.0
C1521 C 0.9492 0.12546 0.43875 0.0
C1522 C 0.9952 0.13127 0.45155 0.0
C1523 C 0.99781 0.13504 0.49409 0.0
C1524 C 0.00889 0.12711 0.42648 0.0
C1525 C 1.00706 0.12209 0.382 0.0
C1526 C 0.9966 0.10922 0.37101 0.0
C1527 C 0.99479 0.10467 0.32898 0.0
C1528 C 1.0035 0.11281 0.29767 0.0
C1529 C 0.01405 0.12549 0.30833 0.0
C1530 C 0.01588 0.13011 0.35032 0.0
C1531 C 0.06257 0.11879 0.55883 0.0
C1532 C 0.07567 0.12795 0.54261 0.0
C1533 C 0.04705 0.11947 0.54039 0.0
C1534 C 0.04407 0.12935 0.50516 0.0
C1535 C 0.05722 0.1381 0.48793 0.0
C1536 C 0.07279 0.13744 0.50644 0.0
C1537 C 0.02721 0.13071 0.48698 0.0
C1538 C 0.02465 0.12705 0.44436 0.0
C1539 C 0.01354 0.13496 0.51195 0.0
C1540 C 0.01536 0.13996 0.55645 0.0
C1541 C 0.02584 0.15282 0.56746 0.0
C1542 C 0.02761 0.15739 0.60949 0.0
C1543 C 0.01887 0.14927 0.64078 0.0
C1544 C 0.00831 0.1366 0.63009 0.0
C1545 C 1.00651 0.13197 0.58811 0.0
H1546 H 0.02026 0.15283 0.6733 0.0
H1547 H 1.00209 0.10926 0.26514 0.0
H1548 H 0.1041 0.94615 0.45109 0.0
H1549 H 0.10498 0.97271 0.48549 0.0
H1550 H 0.15169 0.96072 0.53932 0.0
H1551 H 0.15066 0.93385 0.50548 0.0
H1552 H 0.13431 0.97756 0.59476 0.0
H1553 H 0.14779 0.98524 0.4497 0.0
H1554 H 0.14384 0.98291 0.37318 0.0
H1555 H 0.09913 0.00987 0.3823 0.0
H1556 H 0.1027 0.01216 0.45899 0.0
H1557 H 0.15773 0.05999 0.63808 0.0
H1558 H 0.15528 0.03163 0.61464 0.0
H1559 H 0.10899 0.04291 0.55729 0.0
H1560 H 0.11178 0.07141 0.57978 0.0
H1561 H 0.12641 0.02619 0.50458 0.0
H1562 H 0.1135 0.01896 0.65054 0.0
H1563 H 0.11804 0.02139 0.72682 0.0
H1564 H 0.16234 0.99386 0.71591 0.0
H1565 H 0.15818 0.99145 0.63946 0.0
C1566 C 0.11454 0.94911 0.47041 0.0
C1567 C 0.1274 0.93789 0.47509 0.0
C1568 C 0.11506 0.96437 0.49003 0.0
C1569 C 0.12859 0.96902 0.51431 0.0
C1570 C 0.14114 0.95756 0.52061 0.0
C1571 C 0.14053 0.94215 0.50129 0.0
C1572 C 0.1298 0.98597 0.5318 0.0
C1573 C 0.13277 0.98818 0.57491 0.0
C1574 C 0.12754 0.99997 0.5063 0.0
C1575 C 0.12544 0.99875 0.46013 0.0
C1576 C 0.13707 0.99059 0.43542 0.0
C1577 C 0.1349 0.98928 0.39202 0.0
C1578 C 0.12122 0.99621 0.37291 0.0
C1579 C 0.10971 1.0045 0.39715 0.0
C1580 C 0.1118 1.00581 0.44058 0.0
C1581 C 0.1469 0.05627 0.62118 0.0
C1582 C 0.13484 0.06778 0.61111 0.0
C1583 C 0.14547 0.04004 0.60779 0.0
C1584 C 0.13184 0.03491 0.58445 0.0
C1585 C 0.11962 0.04644 0.57523 0.0
C1586 C 0.12112 0.0627 0.58836 0.0
C1587 C 0.13073 0.01783 0.5677 0.0
C1588 C 0.12786 0.01559 0.52457 0.0
C1589 C 0.13316 1.00385 0.59319 0.0
C1590 C 0.13559 1.00515 0.63921 0.0
C1591 C 0.12426 0.01351 0.66437 0.0
C1592 C 0.12676 0.01488 0.70764 0.0
C1593 C 0.14049 1.00781 0.72618 0.0
C1594 C 0.15172 0.99933 0.7015 0.0
C1595 C 0.14929 0.99795 0.6582 0.0
H1596 H 0.14241 0.00889 0.75969 0.0
H1597 H 0.11957 0.99518 0.3393 0.0
H1598 H 0.9312 0.86777 0.49383 0.0
H1599 H 0.95771 0.86644 0.45876 0.0
H1600 H 0.97702 0.90142 0.5465 0.0
H1601 H 0.95046 0.90339 0.58038 0.0
H1602 H 0.98837 0.90819 0.47244 0.0
H1603 H 0.98449 0.85908 0.5537 0.0
H1604 H 0.97201 0.83333 0.57727 0.0
H1605 H 0.97528 0.81422 0.4521 0.0
H1606 H 0.98758 0.83995 0.42765 0.0
H1607 H 0.07345 0.89333 0.44811 0.0
H1608 H 0.04538 0.89568 0.474 0.0
H1609 H 0.02914 0.86308 0.37646 0.0
H1610 H 0.05734 0.86066 0.35086 0.0
H1611 H 0.01568 0.85492 0.4512 0.0
H1612 H 0.02124 0.9042 0.37171 0.0
H1613 H 0.0343 0.92995 0.35047 0.0
H1614 H 0.02847 0.94872 0.47538 0.0
H1615 H 0.01558 0.92298 0.49755 0.0
C1616 C 0.941 0.87536 0.50539 0.0
C1617 C 0.93857 0.88558 0.54041 0.0
C1618 C 0.95628 0.87444 0.48552 0.0
C1619 C 0.96961 0.8836 0.50027 0.0
C1620 C 0.96707 0.89412 0.53446 0.0
C1621 C 0.95183 0.8951 0.55419 0.0
C1622 C 0.9862 0.88223 0.48057 0.0
C1623 C 0.99437 0.89652 0.46825 0.0
C1624 C 0.99407 0.86704 0.47408 0.0
C1625 C 0.98679 0.85151 0.48875 0.0
C1626 C 0.98244 0.84943 0.53114 0.0
C1627 C 0.97541 0.83484 0.54467 0.0
C1628 C 0.97281 0.82217 0.51618 0.0
C1629 C 0.97728 0.82405 0.47412 0.0
C1630 C 0.98429 0.83864 0.46041 0.0
C1631 C 0.06382 0.88688 0.4319 0.0
C1632 C 0.0675 0.87702 0.39711 0.0
C1633 C 0.04776 0.8882 0.44668 0.0
C1634 C 0.03497 0.8797 0.42702 0.0
C1635 C 0.03869 0.86982 0.39218 0.0
C1636 C 0.05477 0.86853 0.37732 0.0
C1637 C 0.01786 0.88088 0.44343 0.0
C1638 C 0.00962 0.86656 0.45516 0.0
C1639 C 0.00997 0.89605 0.44972 0.0
C1640 C 0.01756 0.91161 0.43637 0.0
C1641 C 0.02284 0.91378 0.39472 0.0
C1642 C 0.0302 0.92838 0.38251 0.0
C1643 C 0.03225 0.94095 0.41158 0.0
C1644 C 0.02689 0.93897 0.4529 0.0
C1645 C 0.01954 0.92438 0.4653 0.0
H1646 H 0.03796 0.95224 0.40206 0.0
H1647 H 0.96736 0.81088 0.52672 0.0
H1648 H 0.40728 0.32688 0.13451 0.0
H1649 H 0.40948 0.29704 0.13156 0.0
H1650 H 0.35736 0.29314 0.14657 0.0
H1651 H 0.3554 0.3228 0.15198 0.0
H1652 H 0.36954 0.27 0.18714 0.0
H1653 H 0.37906 0.28942 0.04734 0.0
H1654 H 0.39254 0.30553 0.99201 0.0
H1655 H 0.43799 0.28174 0.01862 0.0
H1656 H 0.42482 0.26563 0.07454 0.0
H1657 H 0.35615 0.19191 0.09881 0.0
H1658 H 0.35819 0.22166 0.10384 0.0
H1659 H 0.40962 0.21748 0.12911 0.0
H1660 H 0.40747 0.18754 0.12505 0.0
H1661 H 0.39976 0.244 0.07007 0.0
H1662 H 0.38768 0.22304 0.20828 0.0
H1663 H 0.37198 0.20619 0.25793 0.0
H1664 H 0.32851 0.23287 0.22776 0.0
H1665 H 0.3439 0.24969 0.17729 0.0
C1666 C 0.39636 0.31958 0.13752 0.0
C1667 C 0.38114 0.32715 0.14258 0.0
C1668 C 0.39757 0.30251 0.13543 0.0
C1669 C 0.38353 0.29264 0.13763 0.0
C1670 C 0.36841 0.30029 0.14442 0.0
C1671 C 0.36726 0.31729 0.14726 0.0
C1672 C 0.38441 0.27443 0.13248 0.0
C1673 C 0.37607 0.26443 0.16125 0.0
C1674 C 0.39306 0.26685 0.09912 0.0
C1675 C 0.401 0.27645 0.06542 0.0
C1676 C 0.39195 0.2877 0.04158 0.0
C1677 C 0.39953 0.29682 0.01009 0.0
C1678 C 0.41612 0.29469 1.00189 0.0
C1679 C 0.42515 0.2834 0.02507 0.0
C1680 C 0.41764 0.27426 0.05665 0.0
C1681 C 0.3679 0.19737 0.10516 0.0
C1682 C 0.38161 0.18745 0.11224 0.0
C1683 C 0.36907 0.21435 0.108 0.0
C1684 C 0.38403 0.22184 0.11729 0.0
C1685 C 0.39795 0.21199 0.12202 0.0
C1686 C 0.39673 0.19492 0.11974 0.0
C1687 C 0.38479 0.23983 0.12438 0.0
C1688 C 0.39339 0.2497 0.09604 0.0
C1689 C 0.3761 0.24734 0.15756 0.0
C1690 C 0.36693 0.23754 0.18876 0.0
C1691 C 0.37476 0.22526 0.21204 0.0
C1692 C 0.36591 0.21571 0.24034 0.0
C1693 C 0.34925 0.21844 0.24594 0.0
C1694 C 0.34141 0.23076 0.22336 0.0
C1695 C 0.3502 0.24031 0.19493 0.0
H1696 H 0.34242 0.21102 0.26782 0.0
H1697 H 0.42197 0.30177 0.9775 0.0
H1698 H 0.18885 0.62147 0.83774 0.0
H1699 H 0.21863 0.61973 0.83267 0.0
H1700 H 0.22311 0.64701 0.94782 0.0
H1701 H 0.19326 0.64899 0.95229 0.0
H1702 H 0.24366 0.65869 0.89228 0.0
H1703 H 0.23122 0.60539 0.94272 0.0
H1704 H 0.21733 0.57878 0.94364 0.0
H1705 H 0.23709 0.56753 0.82224 0.0
H1706 H 0.25092 0.59419 0.82033 0.0
H1707 H 0.32889 0.618 0.91082 0.0
H1708 H 0.29913 0.61626 0.9181 0.0
H1709 H 0.29342 0.64967 0.81456 0.0
H1710 H 0.3232 0.65147 0.80764 0.0
H1711 H 0.27384 0.60708 0.86919 0.0
H1712 H 0.26158 0.67543 0.83681 0.0
H1713 H 0.27603 0.70168 0.84233 0.0
H1714 H 0.30634 0.68219 0.94012 0.0
H1715 H 0.29188 0.65595 0.93574 0.0
C1716 C 0.19624 0.62685 0.86226 0.0
C1717 C 0.18879 0.63519 0.89567 0.0
C1718 C 0.21326 0.62586 0.8594 0.0
C1719 C 0.22326 0.63311 0.89004 0.0
C1720 C 0.21576 0.64129 0.92376 0.0
C1721 C 0.19871 0.6423 0.92656 0.0
C1722 C 0.24147 0.63265 0.8861 0.0
C1723 C 0.2502 0.64738 0.88721 0.0
C1724 C 0.25022 0.61792 0.8801 0.0
C1725 C 0.24199 0.60185 0.88123 0.0
C1726 C 0.23251 0.59729 0.91609 0.0
C1727 C 0.22466 0.58219 0.91681 0.0
C1728 C 0.22629 0.57149 0.88298 0.0
C1729 C 0.23582 0.57584 0.8484 0.0
C1730 C 0.24368 0.59094 0.8475 0.0
C1731 C 0.32122 0.62472 0.88922 0.0
C1732 C 0.32828 0.63478 0.85851 0.0
C1733 C 0.30423 0.62374 0.89336 0.0
C1734 C 0.29394 0.63296 0.86719 0.0
C1735 C 0.30104 0.64258 0.83548 0.0
C1736 C 0.31804 0.64352 0.83128 0.0
C1737 C 0.2759 0.63313 0.87443 0.0
C1738 C 0.26724 0.61838 0.87405 0.0
C1739 C 0.26724 0.64779 0.88193 0.0
C1740 C 0.27574 0.66367 0.8856 0.0
C1741 C 0.27126 0.67678 0.85964 0.0
C1742 C 0.27946 0.69166 0.86257 0.0
C1743 C 0.29213 0.69359 0.89147 0.0
C1744 C 0.29656 0.68068 0.91767 0.0
C1745 C 0.28837 0.6658 0.91497 0.0
H1746 H 0.29848 0.7051 0.8936 0.0
H1747 H 0.2202 0.5598 0.88359 0.0
H1748 H 0.60944 0.82761 0.12361 0.0
H1749 H 0.60732 0.79774 0.1243 0.0
H1750 H 0.65954 0.79406 0.11119 0.0
H1751 H 0.66143 0.82376 0.1079 0.0
H1752 H 0.64778 0.77131 0.06885 0.0
H1753 H 0.63706 0.78933 0.20939 0.0
H1754 H 0.62303 0.80488 0.26489 0.0
H1755 H 0.57793 0.78123 0.23422 0.0
H1756 H 0.59167 0.76569 0.17812 0.0
H1757 H 0.66104 0.69244 0.15299 0.0
H1758 H 0.65889 0.72222 0.14924 0.0
H1759 H 0.60757 0.7181 0.12252 0.0
H1760 H 0.60982 0.68815 0.12535 0.0
H1761 H 0.61685 0.74409 0.18278 0.0
H1762 H 0.63014 0.72441 0.0442 0.0
H1763 H 0.64634 0.70809 0.9944 0.0
H1764 H 0.68935 0.7348 0.028 0.0
H1765 H 0.67346 0.75108 0.07863 0.0
C1766 C 0.6204 0.82035 0.1205 0.0
C1767 C 0.63563 0.82799 0.1166 0.0
C1768 C 0.61923 0.80326 0.12132 0.0
C1769 C 0.63332 0.79343 0.11904 0.0
C1770 C 0.64845 0.80117 0.11337 0.0
C1771 C 0.64956 0.8182 0.11175 0.0
C1772 C 0.63248 0.77517 0.123 0.0
C1773 C 0.6411 0.76547 0.09407 0.0
C1774 C 0.62362 0.76724 0.15544 0.0
C1775 C 0.61535 0.77649 0.18927 0.0
C1776 C 0.62413 0.78753 0.21431 0.0
C1777 C 0.61623 0.79633 0.24589 0.0
C1778 C 0.59959 0.79408 0.25299 0.0
C1779 C 0.59082 0.78298 0.22862 0.0
C1780 C 0.59865 0.77417 0.19694 0.0
C1781 C 0.64929 0.69792 0.14654 0.0
C1782 C 0.63565 0.68802 0.13871 0.0
C1783 C 0.64806 0.71492 0.14443 0.0
C1784 C 0.6331 0.72244 0.13514 0.0
C1785 C 0.61925 0.71259 0.12961 0.0
C1786 C 0.62053 0.69551 0.13117 0.0
C1787 C 0.63227 0.74049 0.12904 0.0
C1788 C 0.62338 0.75006 0.15749 0.0
C1789 C 0.64115 0.74834 0.09675 0.0
C1790 C 0.65063 0.73889 0.06544 0.0
C1791 C 0.64307 0.72674 0.04116 0.0
C1792 C 0.6522 0.7175 0.01277 0.0
C1793 C 0.66887 0.72039 0.00809 0.0
C1794 C 0.67644 0.73257 0.03168 0.0
C1795 C 0.66738 0.74182 0.06021 0.0
H1796 H 0.67592 0.7132 0.98614 0.0
H1797 H 0.59349 0.8009 0.27746 0.0
H1798 H 0.6899 0.39984 0.81925 0.0
H1799 H 0.71907 0.40333 0.82533 0.0
H1800 H 0.71837 0.37849 0.9442 0.0
H1801 H 0.68918 0.37523 0.93847 0.0
H1802 H 0.74021 0.40058 0.94753 0.0
H1803 H 0.72891 0.3585 0.84673 0.0
H1804 H 0.71646 0.34687 0.78299 0.0
H1805 H 0.74131 0.3822 0.707 0.0
H1806 H 0.75373 0.3942 0.77042 0.0
H1807 H 0.82204 0.37069 0.95387 0.0
H1808 H 0.79236 0.37402 0.95056 0.0
H1809 H 0.79746 0.40306 0.8385 0.0
H1810 H 0.82723 0.39982 0.84211 0.0
H1811 H 0.77385 0.38029 0.8292 0.0
H1812 H 0.78713 0.42059 0.93227 0.0
H1813 H 0.79976 0.43097 0.99719 0.0
H1814 H 0.7714 0.39744 0.07036 0.0
H1815 H 0.75878 0.38667 0.00579 0.0
C1816 C 0.69586 0.39393 0.84518 0.0
C1817 C 0.6872 0.38411 0.87407 0.0
C1818 C 0.71272 0.39649 0.84936 0.0
C1819 C 0.72135 0.38999 0.88361 0.0
C1820 C 0.71233 0.38278 0.91605 0.0
C1821 C 0.69549 0.38036 0.91187 0.0
C1822 C 0.73966 0.39033 0.88531 0.0
C1823 C 0.74752 0.39601 0.92173 0.0
C1824 C 0.74941 0.38465 0.85154 0.0
C1825 C 0.7421 0.37736 0.81334 0.0
C1826 C 0.73164 0.36385 0.81645 0.0
C1827 C 0.72459 0.35719 0.78038 0.0
C1828 C 0.72805 0.36382 0.74098 0.0
C1829 C 0.73862 0.3771 0.73756 0.0
C1830 C 0.74566 0.38383 0.77354 0.0
C1831 C 0.81683 0.37812 0.92915 0.0
C1832 C 0.82697 0.38537 0.89887 0.0
C1833 C 0.79985 0.37996 0.92713 0.0
C1834 C 0.79256 0.38898 0.89456 0.0
C1835 C 0.80271 0.39613 0.8641 0.0
C1836 C 0.81972 0.39437 0.86629 0.0
C1837 C 0.77437 0.39042 0.89149 0.0
C1838 C 0.76654 0.38501 0.85483 0.0
C1839 C 0.76466 0.39618 0.92521 0.0
C1840 C 0.77211 0.40274 0.96413 0.0
C1841 C 0.78367 0.41535 0.96217 0.0
C1842 C 0.79081 0.42131 0.99892 0.0
C1843 C 0.78641 0.41484 0.03787 0.0
C1844 C 0.77481 0.40243 0.04016 0.0
C1845 C 0.76765 0.3964 0.0035 0.0
H1846 H 0.79195 0.41947 0.06628 0.0
H1847 H 0.72259 0.35865 0.71309 0.0
H1848 H 0.90129 0.68776 0.66087 0.0
H1849 H 0.90326 0.71762 0.66559 0.0
H1850 H 0.86914 0.72226 0.56329 0.0
H1851 H 0.86714 0.69247 0.55884 0.0
H1852 H 0.91185 0.74283 0.61194 0.0
H1853 H 0.84287 0.75334 0.58709 0.0
H1854 H 0.81702 0.73846 0.59661 0.0
H1855 H 0.83863 0.70986 0.69486 0.0
H1856 H 0.8645 0.72474 0.68642 0.0
H1857 H 0.89602 0.82787 0.58183 0.0
H1858 H 0.89812 0.79814 0.57598 0.0
H1859 H 0.87146 0.79291 0.69198 0.0
H1860 H 0.86873 0.82258 0.69657 0.0
H1861 H 0.86013 0.77223 0.63974 0.0
H1862 H 0.91462 0.78601 0.68193 0.0
H1863 H 0.94071 0.80077 0.67679 0.0
H1864 H 0.94883 0.7806 0.55421 0.0
H1865 H 0.9227 0.76584 0.55844 0.0
C1866 C 0.89451 0.69521 0.63888 0.0
C1867 C 0.88425 0.68786 0.60911 0.0
C1868 C 0.89563 0.71225 0.64156 0.0
C1869 C 0.88628 0.72226 0.61497 0.0
C1870 C 0.87641 0.71486 0.58433 0.0
C1871 C 0.87535 0.69785 0.58156 0.0
C1872 C 0.88599 0.74034 0.62104 0.0
C1873 C 0.90054 0.74927 0.61793 0.0
C1874 C 0.87131 0.7488 0.62969 0.0
C1875 C 0.85567 0.74006 0.63579 0.0
C1876 C 0.84208 0.74394 0.61087 0.0
C1877 C 0.82742 0.7355 0.61607 0.0
C1878 C 0.8262 0.72319 0.64623 0.0
C1879 C 0.83961 0.71936 0.67142 0.0
C1880 C 0.85427 0.72779 0.66643 0.0
C1881 C 0.89086 0.82032 0.60635 0.0
C1882 C 0.8826 0.82754 0.64023 0.0
C1883 C 0.89207 0.80331 0.60309 0.0
C1884 C 0.8852 0.7931 0.63391 0.0
C1885 C 0.87697 0.80039 0.66784 0.0
C1886 C 0.87559 0.81738 0.6708 0.0
C1887 C 0.88598 0.77489 0.63011 0.0
C1888 C 0.87148 0.76588 0.63366 0.0
C1889 C 0.90076 0.76636 0.62259 0.0
C1890 C 0.91664 0.77492 0.62038 0.0
C1891 C 0.92194 0.78477 0.65382 0.0
C1892 C 0.93674 0.79313 0.65107 0.0
C1893 C 0.9464 0.79165 0.61515 0.0
C1894 C 0.94133 0.78174 0.582 0.0
C1895 C 0.92654 0.77335 0.58459 0.0
H1896 H 0.95783 0.79817 0.61302 0.0
H1897 H 0.81486 0.71665 0.65013 0.0
H1898 H 0.82335 0.14354 0.2995 0.0
H1899 H 0.79364 0.14083 0.3011 0.0
H1900 H 0.79714 0.11238 0.41462 0.0
H1901 H 0.82702 0.11467 0.41213 0.0
H1902 H 0.77302 0.10052 0.36599 0.0
H1903 H 0.78823 0.15304 0.41698 0.0
H1904 H 0.80211 0.17964 0.41492 0.0
H1905 H 0.77507 0.19281 0.30458 0.0
H1906 H 0.76123 0.16614 0.30551 0.0
H1907 H 0.69088 0.1172 0.43529 0.0
H1908 H 0.72008 0.11394 0.42823 0.0
H1909 H 0.71843 0.13807 0.3085 0.0
H1910 H 0.68925 0.14135 0.31537 0.0
H1911 H 0.74173 0.15221 0.36247 0.0
H1912 H 0.72605 0.09937 0.31338 0.0
H1913 H 0.71216 0.07281 0.31726 0.0
H1914 H 0.73976 0.06047 0.42732 0.0
H1915 H 0.75362 0.0871 0.42454 0.0
C1916 C 0.8178 0.13634 0.32415 0.0
C1917 C 0.82753 0.12907 0.35529 0.0
C1918 C 0.80077 0.13494 0.32536 0.0
C1919 C 0.79298 0.12656 0.35831 0.0
C1920 C 0.80275 0.11888 0.38879 0.0
C1921 C 0.81982 0.12019 0.3874 0.0
C1922 C 0.77473 0.12666 0.36215 0.0
C1923 C 0.76621 0.11185 0.36573 0.0
C1924 C 0.76567 0.14138 0.36141 0.0
C1925 C 0.7738 0.15753 0.3611 0.0
C1926 C 0.78531 0.16157 0.39212 0.0
C1927 C 0.79318 0.17665 0.39116 0.0
C1928 C 0.7895 0.18789 0.3596 0.0
C1929 C 0.77792 0.18408 0.32898 0.0
C1930 C 0.77006 0.16898 0.32971 0.0
C1931 C 0.69661 0.12298 0.40886 0.0
C1932 C 0.68767 0.13259 0.37996 0.0
C1933 C 0.71347 0.12045 0.40403 0.0
C1934 C 0.72178 0.12669 0.369 0.0
C1935 C 0.71257 0.13401 0.33712 0.0
C1936 C 0.69574 0.13633 0.34185 0.0
C1937 C 0.74 0.1261 0.36584 0.0
C1938 C 0.74853 0.14088 0.36264 0.0
C1939 C 0.749 0.11137 0.36734 0.0
C1940 C 0.74075 0.09532 0.36901 0.0
C1941 C 0.72905 0.09106 0.33865 0.0
C1942 C 0.72121 0.07597 0.3406 0.0
C1943 C 0.72505 0.06497 0.37256 0.0
C1944 C 0.73678 0.06901 0.4026 0.0
C1945 C 0.74464 0.0841 0.40084 0.0
H1946 H 0.71897 0.05329 0.374 0.0
H1947 H 0.7956 0.19957 0.35891 0.0
H1948 H 0.16163 0.32332 0.59419 0.0
H1949 H 0.16013 0.29364 0.5989 0.0
H1950 H 0.10803 0.29673 0.61587 0.0
H1951 H 0.1098 0.32661 0.61384 0.0
H1952 H 0.11819 0.27524 0.6664 0.0
H1953 H 0.12787 0.28287 0.52052 0.0
H1954 H 0.14142 0.29345 0.45705 0.0
H1955 H 0.18583 0.26946 0.49261 0.0
H1956 H 0.17261 0.25891 0.55662 0.0
H1957 H 0.10977 0.18811 0.62579 0.0
H1958 H 0.10802 0.21803 0.62046 0.0
H1959 H 0.15987 0.22148 0.64005 0.0
H1960 H 0.16152 0.19175 0.64663 0.0
H1961 H 0.14784 0.2391 0.56778 0.0
H1962 H 0.13662 0.23218 0.71582 0.0
H1963 H 0.12147 0.22103 0.77616 0.0
H1964 H 0.07744 0.24316 0.73075 0.0
H1965 H 0.09229 0.25422 0.66972 0.0
C1966 C 0.14985 0.31762 0.59864 0.0
C1967 C 0.13584 0.32726 0.60366 0.0
C1968 C 0.14895 0.3006 0.60103 0.0
C1969 C 0.13391 0.2927 0.60709 0.0
C1970 C 0.11981 0.30238 0.6112 0.0
C1971 C 0.12078 0.31946 0.60964 0.0
C1972 C 0.13303 0.27444 0.61054 0.0
C1973 C 0.12445 0.2674 0.64426 0.0
C1974 C 0.14129 0.26396 0.58214 0.0
C1975 C 0.14928 0.27021 0.54356 0.0
C1976 C 0.14056 0.27994 0.51495 0.0
C1977 C 0.14818 0.28592 0.47885 0.0
C1978 C 0.16449 0.28216 0.47085 0.0
C1979 C 0.1732 0.27237 0.49887 0.0
C1980 C 0.16565 0.26637 0.53505 0.0
C1981 C 0.12071 0.19533 0.62947 0.0
C1982 C 0.13581 0.18764 0.63602 0.0
C1983 C 0.11973 0.21239 0.62633 0.0
C1984 C 0.13385 0.22203 0.62944 0.0
C1985 C 0.14884 0.21433 0.63714 0.0
C1986 C 0.14977 0.19736 0.64098 0.0
C1987 C 0.1332 0.24009 0.62368 0.0
C1988 C 0.14149 0.24704 0.58954 0.0
C1989 C 0.12442 0.25042 0.65113 0.0
C1990 C 0.11553 0.24387 0.68795 0.0
C1991 C 0.12367 0.23454 0.71848 0.0
C1992 C 0.11515 0.22826 0.75285 0.0
C1993 C 0.09849 0.23134 0.75722 0.0
C1994 C 0.09034 0.24075 0.72728 0.0
C1995 C 0.0988 0.24704 0.69281 0.0
H1996 H 0.09191 0.22648 0.78386 0.0
H1997 H 0.17036 0.28681 0.44289 0.0
H1998 H 0.1884 0.89463 0.41527 0.0
H1999 H 0.21819 0.89659 0.41888 0.0
H2000 H 0.22202 0.87047 0.30179 0.0
H2001 H 0.19217 0.86824 0.29881 0.0
H2002 H 0.24321 0.8585 0.35501 0.0
H2003 H 0.22973 0.9123 0.3097 0.0
H2004 H 0.2155 0.93875 0.31191 0.0
H2005 H 0.23619 0.94862 0.43307 0.0
H2006 H 0.25037 0.92211 0.43185 0.0
H2007 H 0.32829 0.89957 0.33718 0.0
H2008 H 0.29848 0.90129 0.33002 0.0
H2009 H 0.29294 0.8673 0.4323 0.0
H2010 H 0.32269 0.86555 0.43918 0.0
H2011 H 0.273 0.91009 0.38074 0.0
H2012 H 0.26156 0.8413 0.40825 0.0
H2013 H 0.27629 0.81526 0.4004 0.0
H2014 H 0.30599 0.83614 0.30337 0.0
H2015 H 0.29125 0.86218 0.31007 0.0
C2016 C 0.19564 0.88954 0.39003 0.0
C2017 C 0.18799 0.88145 0.35652 0.0
C2018 C 0.21268 0.89067 0.39205 0.0
C2019 C 0.22251 0.88382 0.36042 0.0
C2020 C 0.21481 0.87589 0.32662 0.0
C2021 C 0.19774 0.87473 0.32468 0.0
C2022 C 0.24077 0.88442 0.36339 0.0
C2023 C 0.24966 0.86981 0.36064 0.0
C2024 C 0.24941 0.89916 0.37011 0.0
C2025 C 0.241 0.91516 0.37082 0.0
C2026 C 0.23116 0.92006 0.33694 0.0
C2027 C 0.22311 0.93507 0.338 0.0
C2028 C 0.22492 0.94534 0.37265 0.0
C2029 C 0.2348 0.94064 0.40627 0.0
C2030 C 0.24285 0.92563 0.40539 0.0
C2031 C 0.32064 0.89275 0.35861 0.0
C2032 C 0.32775 0.88263 0.38914 0.0
C2033 C 0.30362 0.89371 0.3545 0.0
C2034 C 0.29337 0.88434 0.38039 0.0
C2035 C 0.30052 0.87456 0.4117 0.0
C2036 C 0.31751 0.87366 0.41589 0.0
C2037 C 0.27531 0.88414 0.37335 0.0
C2038 C 0.26649 0.8988 0.37524 0.0
C2039 C 0.26675 0.8695 0.3651 0.0
C2040 C 0.27539 0.85374 0.36 0.0
C2041 C 0.27117 0.8403 0.38507 0.0
C2042 C 0.27952 0.82554 0.38083 0.0
C2043 C 0.2921 0.82406 0.3515 0.0
C2044 C 0.29628 0.83731 0.32616 0.0
C2045 C 0.28793 0.85207 0.33018 0.0
H2046 H 0.29858 0.81264 0.34834 0.0
H2047 H 0.21868 0.95696 0.37342 0.0
H2048 H 0.21754 0.14726 0.72999 0.0
H2049 H 0.23969 0.14705 0.7813 0.0
H2050 H 0.21994 0.10356 0.83736 0.0
H2051 H 0.19746 0.10396 0.78691 0.0
H2052 H 0.22924 0.12401 0.8976 0.0
H2053 H 0.25448 0.10294 0.77316 0.0
H2054 H 0.26255 0.10287 0.69859 0.0
H2055 H 0.2892 0.14729 0.71673 0.0
H2056 H 0.28111 0.14774 0.79133 0.0
H2057 H 0.2985 0.10518 0.02439 0.0
H2058 H 0.27646 0.10459 0.97289 0.0
H2059 H 0.29687 0.14658 0.91106 0.0
H2060 H 0.31938 0.14676 0.96108 0.0
H2061 H 0.28712 0.12652 0.85363 0.0
H2062 H 0.26171 0.14804 0.97728 0.0
H2063 H 0.25353 0.14854 0.05176 0.0
H2064 H 0.2271 0.10389 0.0352 0.0
H2065 H 0.2353 0.10302 0.96071 0.0
C2066 C 0.21778 0.13767 0.75331 0.0
C2067 C 0.20556 0.1256 0.75384 0.0
C2068 C 0.23063 0.13748 0.78257 0.0
C2069 C 0.23175 0.12518 0.81328 0.0
C2070 C 0.21952 0.11318 0.8141 0.0
C2071 C 0.20668 0.11334 0.78478 0.0
C2072 C 0.24552 0.12491 0.84469 0.0
C2073 C 0.24189 0.12432 0.88785 0.0
C2074 C 0.26213 0.12571 0.83253 0.0
C2075 C 0.26705 0.12545 0.78773 0.0
C2076 C 0.26196 0.11276 0.76117 0.0
C2077 C 0.26655 0.11264 0.71891 0.0
C2078 C 0.27635 0.12509 0.70291 0.0
C2079 C 0.2816 0.13767 0.72916 0.0
C2080 C 0.27702 0.13785 0.77144 0.0
C2081 C 0.29846 0.11424 0.9997 0.0
C2082 C 0.31089 0.12608 0.99753 0.0
C2083 C 0.28563 0.11401 0.97034 0.0
C2084 C 0.28467 0.12571 0.93804 0.0
C2085 C 0.29713 0.13743 0.93555 0.0
C2086 C 0.30999 0.13762 0.96474 0.0
C2087 C 0.27087 0.12567 0.90665 0.0
C2088 C 0.27448 0.12619 0.86345 0.0
C2089 C 0.25423 0.12488 0.91879 0.0
C2090 C 0.24926 0.12538 0.96353 0.0
C2091 C 0.25426 0.13827 0.9896 0.0
C2092 C 0.2496 0.13863 0.0318 0.0
C2093 C 0.23984 0.12623 0.04823 0.0
C2094 C 0.23468 0.11347 0.02245 0.0
C2095 C 0.23932 0.11304 0.98023 0.0
H2096 H 0.23624 0.12653 0.08091 0.0
H2097 H 0.27989 0.12498 0.67018 0.0
H2098 H 0.14485 0.82208 0.20099 0.0
H2099 H 0.14444 0.79941 0.15153 0.0
H2100 H 0.11071 0.7737 0.23121 0.0
H2101 H 0.11103 0.79646 0.28106 0.0
H2102 H 0.13282 0.75296 0.20133 0.0
H2103 H 0.09841 0.79349 0.13895 0.0
H2104 H 0.09125 0.82079 0.11242 0.0
H2105 H 0.13008 0.81808 0.02236 0.0
H2106 H 0.13762 0.79084 0.04875 0.0
H2107 H 0.10908 0.6935 0.0517 0.0
H2108 H 0.10933 0.71623 0.10103 0.0
H2109 H 0.14256 0.74227 0.02062 0.0
H2110 H 0.14232 0.71949 0.97083 0.0
H2111 H 0.12069 0.76287 0.05089 0.0
H2112 H 0.1552 0.72246 0.11317 0.0
H2113 H 0.16251 0.69519 0.13966 0.0
H2114 H 0.12372 0.69771 0.22988 0.0
H2115 H 0.11603 0.72492 0.20353 0.0
C2116 C 0.13721 0.81169 0.20804 0.0
C2117 C 0.12781 0.81133 0.24513 0.0
C2118 C 0.137 0.79865 0.17952 0.0
C2119 C 0.1273 0.78483 0.18687 0.0
C2120 C 0.11827 0.78418 0.22445 0.0
C2121 C 0.11851 0.79724 0.25314 0.0
C2122 C 0.12659 0.77115 0.15538 0.0
C2123 C 0.12993 0.75514 0.16858 0.0
C2124 C 0.12323 0.77385 0.11218 0.0
C2125 C 0.11867 0.79019 0.0961 0.0
C2126 C 0.10549 0.79876 0.11369 0.0
C2127 C 0.10136 0.81422 0.09865 0.0
C2128 C 0.11023 0.82118 0.0658 0.0
C2129 C 0.12323 0.81268 0.04784 0.0
C2130 C 0.12743 0.79722 0.0628 0.0
C2131 C 0.11656 0.70399 0.04446 0.0
C2132 C 0.12584 0.70444 0.00719 0.0
C2133 C 0.11669 0.71706 0.0729 0.0
C2134 C 0.12623 0.73098 0.06534 0.0
C2135 C 0.13513 0.73171 0.02756 0.0
C2136 C 0.13495 0.71864 0.99892 0.0
C2137 C 0.12692 0.74467 0.09684 0.0
C2138 C 0.12358 0.76068 0.08364 0.0
C2139 C 0.1303 0.74198 0.14004 0.0
C2140 C 0.13495 0.72566 0.1561 0.0
C2141 C 0.14815 0.71715 0.13846 0.0
C2142 C 0.15238 0.70171 0.15348 0.0
C2143 C 0.14356 0.69471 0.18636 0.0
C2144 C 0.13053 0.70314 0.20437 0.0
C2145 C 0.12624 0.71858 0.18944 0.0
H2146 H 0.14684 0.68275 0.19794 0.0
H2147 H 0.10701 0.83315 0.0542 0.0
H2148 H 0.69836 0.91248 0.97336 0.0
H2149 H 0.72071 0.91287 0.92269 0.0
H2150 H 0.73945 0.86817 0.97477 0.0
H2151 H 0.71744 0.86798 0.02652 0.0
H2152 H 0.76401 0.8883 0.95892 0.0
H2153 H 0.71777 0.86959 0.87985 0.0
H2154 H 0.68978 0.87096 0.85188 0.0
H2155 H 0.70102 0.91595 0.78954 0.0
H2156 H 0.72902 0.91496 0.81761 0.0
H2157 H 0.81899 0.86799 0.79559 0.0
H2158 H 0.79665 0.86835 0.84579 0.0
H2159 H 0.77708 0.91135 0.78665 0.0
H2160 H 0.79888 0.9105 0.73445 0.0
H2161 H 0.75289 0.89269 0.80629 0.0
H2162 H 0.79897 0.91164 0.88437 0.0
H2163 H 0.82694 0.91077 0.91257 0.0
H2164 H 0.81608 0.86618 0.97722 0.0
H2165 H 0.7881 0.86667 0.94895 0.0
C2166 C 0.70731 0.9028 0.97452 0.0
C2167 C 0.7059 0.89016 0.00436 0.0
C2168 C 0.72005 0.90294 0.945 0.0
C2169 C 0.73178 0.89042 0.94414 0.0
C2170 C 0.7306 0.87796 0.97435 0.0
C2171 C 0.71785 0.8778 0.00386 0.0
C2172 C 0.74526 0.89029 0.91198 0.0
C2173 C 0.76152 0.88905 0.92553 0.0
C2174 C 0.74224 0.89171 0.86823 0.0
C2175 C 0.72544 0.89228 0.85117 0.0
C2176 C 0.71424 0.87984 0.86042 0.0
C2177 C 0.69838 0.88053 0.84451 0.0
C2178 C 0.69361 0.89355 0.81904 0.0
C2179 C 0.70472 0.90588 0.80933 0.0
C2180 C 0.72059 0.90525 0.82519 0.0
C2181 C 0.80986 0.87744 0.79257 0.0
C2182 C 0.81097 0.88921 0.76038 0.0
C2183 C 0.79712 0.87778 0.82203 0.0
C2184 C 0.78517 0.89007 0.82097 0.0
C2185 C 0.78611 0.90175 0.78867 0.0
C2186 C 0.79878 0.90134 0.7589 0.0
C2187 C 0.77169 0.89066 0.85319 0.0
C2188 C 0.75541 0.89198 0.83967 0.0
C2189 C 0.7747 0.8894 0.89701 0.0
C2190 C 0.79149 0.88912 0.91423 0.0
C2191 C 0.80258 0.90159 0.90438 0.0
C2192 C 0.81843 0.90117 0.92041 0.0
C2193 C 0.8233 0.8884 0.94659 0.0
C2194 C 0.8123 0.87605 0.9569 0.0
C2195 C 0.79644 0.8764 0.94091 0.0
H2196 H 0.83558 0.8881 0.95896 0.0
H2197 H 0.68133 0.89407 0.80676 0.0
H2198 H 0.86773 0.19534 0.20835 0.0
H2199 H 0.86796 0.21825 0.15996 0.0
H2200 H 0.91002 0.23801 0.22287 0.0
H2201 H 0.90921 0.21566 0.27343 0.0
H2202 H 0.89138 0.26201 0.204 0.0
H2203 H 0.91132 0.21721 0.12289 0.0
H2204 H 0.91109 0.18962 0.09235 0.0
H2205 H 0.86662 0.20059 0.02718 0.0
H2206 H 0.86647 0.22819 0.05777 0.0
H2207 H 0.91132 0.31846 0.04092 0.0
H2208 H 0.91182 0.2955 0.08988 0.0
H2209 H 0.86696 0.27751 0.03712 0.0
H2210 H 0.8666 0.30021 0.9873 0.0
H2211 H 0.88768 0.25272 0.05047 0.0
H2212 H 0.86821 0.29783 0.13287 0.0
H2213 H 0.86931 0.32549 0.16291 0.0
H2214 H 0.91428 0.31382 0.22495 0.0
H2215 H 0.91356 0.28615 0.1948 0.0
C2216 C 0.87693 0.20462 0.21262 0.0
C2217 C 0.88845 0.20339 0.24541 0.0
C2218 C 0.87721 0.2177 0.18416 0.0
C2219 C 0.88922 0.22989 0.18676 0.0
C2220 C 0.90064 0.22882 0.21964 0.0
C2221 C 0.90027 0.21582 0.24847 0.0
C2222 C 0.88975 0.24376 0.15561 0.0
C2223 C 0.89082 0.25988 0.17043 0.0
C2224 C 0.88872 0.24128 0.11153 0.0
C2225 C 0.88881 0.22472 0.09294 0.0
C2226 C 0.90144 0.2137 0.10227 0.0
C2227 C 0.90138 0.19807 0.08491 0.0
C2228 C 0.88883 0.19334 0.05792 0.0
C2229 C 0.87632 0.20426 0.04813 0.0
C2230 C 0.87631 0.21991 0.06543 0.0
C2231 C 0.90162 0.30956 0.0393 0.0
C2232 C 0.88889 0.31137 0.0099 0.0
C2233 C 0.90183 0.29646 0.06778 0.0
C2234 C 0.88931 0.28475 0.06789 0.0
C2235 C 0.87676 0.28634 0.03807 0.0
C2236 C 0.8765 0.29947 0.00969 0.0
C2237 C 0.88926 0.27089 0.09893 0.0
C2238 C 0.88828 0.25479 0.08406 0.0
C2239 C 0.89051 0.27338 0.14291 0.0
C2240 C 0.89091 0.28997 0.16125 0.0
C2241 C 0.87839 0.3012 0.15268 0.0
C2242 C 0.87894 0.31687 0.16976 0.0
C2243 C 0.89188 0.32142 0.19573 0.0
C2244 C 0.90427 0.31028 0.20478 0.0
C2245 C 0.9038 0.2946 0.18773 0.0
H2246 H 0.89228 0.33356 0.20893 0.0
H2247 H 0.8888 0.18123 0.04453 0.0
H2248 H 0.19403 0.37069 0.45312 0.0
H2249 H 0.21737 0.37096 0.40554 0.0
H2250 H 0.24194 0.40508 0.48642 0.0
H2251 H 0.21842 0.40502 0.53415 0.0
H2252 H 0.24457 0.41407 0.40349 0.0
H2253 H 0.25371 0.36524 0.48287 0.0
H2254 H 0.24646 0.33858 0.51324 0.0
H2255 H 0.2383 0.31934 0.3897 0.0
H2256 H 0.24528 0.34596 0.3586 0.0
H2257 H 0.32115 0.40883 0.2981 0.0
H2258 H 0.29901 0.40878 0.34944 0.0
H2259 H 0.27583 0.36937 0.28289 0.0
H2260 H 0.29823 0.36909 0.23216 0.0
H2261 H 0.27286 0.36331 0.36091 0.0
H2262 H 0.26231 0.41158 0.28077 0.0
H2263 H 0.26851 0.43818 0.24854 0.0
H2264 H 0.27804 0.45844 0.37034 0.0
H2265 H 0.2721 0.43189 0.40326 0.0
C2266 C 0.20436 0.3783 0.46092 0.0
C2267 C 0.2042 0.38787 0.4977 0.0
C2268 C 0.21782 0.37835 0.43368 0.0
C2269 C 0.23161 0.38796 0.44222 0.0
C2270 C 0.23153 0.39752 0.47893 0.0
C2271 C 0.21809 0.39738 0.50647 0.0
C2272 C 0.2459 0.38814 0.41251 0.0
C2273 C 0.25092 0.40299 0.39471 0.0
C2274 C 0.254 0.37368 0.39983 0.0
C2275 C 0.24988 0.35764 0.41843 0.0
C2276 C 0.25025 0.35536 0.46219 0.0
C2277 C 0.24621 0.34025 0.47953 0.0
C2278 C 0.24188 0.32729 0.45342 0.0
C2279 C 0.24163 0.3294 0.40989 0.0
C2280 C 0.24565 0.34449 0.39239 0.0
C2281 C 0.31127 0.40024 0.29408 0.0
C2282 C 0.31154 0.38902 0.26061 0.0
C2283 C 0.2985 0.40024 0.32358 0.0
C2284 C 0.28538 0.38925 0.32012 0.0
C2285 C 0.28569 0.37801 0.28672 0.0
C2286 C 0.29856 0.37786 0.25754 0.0
C2287 C 0.27154 0.38926 0.35144 0.0
C2288 C 0.26658 0.37443 0.36962 0.0
C2289 C 0.26338 0.40373 0.36412 0.0
C2290 C 0.26692 0.41971 0.34443 0.0
C2291 C 0.26584 0.42168 0.30065 0.0
C2292 C 0.26929 0.43675 0.28227 0.0
C2293 C 0.27371 0.44998 0.30737 0.0
C2294 C 0.27464 0.44818 0.35093 0.0
C2295 C 0.27122 0.43312 0.36947 0.0
H2296 H 0.27637 0.46164 0.29307 0.0
H2297 H 0.23876 0.3156 0.46691 0.0
H2298 H 0.4083 0.82162 0.54751 0.0
H2299 H 0.40827 0.79973 0.59963 0.0
H2300 H 0.37084 0.77477 0.52972 0.0
H2301 H 0.37035 0.79707 0.47866 0.0
H2302 H 0.3637 0.77124 0.60572 0.0
H2303 H 0.41429 0.76323 0.5335 0.0
H2304 H 0.44121 0.77079 0.50521 0.0
H2305 H 0.45806 0.78188 0.62957 0.0
H2306 H 0.43116 0.77457 0.65855 0.0
H2307 H 0.37401 0.69303 0.7003 0.0
H2308 H 0.37404 0.71622 0.65214 0.0
H2309 H 0.40362 0.74345 0.73903 0.0
H2310 H 0.40373 0.72014 0.78748 0.0
H2311 H 0.41494 0.74611 0.65695 0.0
H2312 H 0.36366 0.75237 0.72795 0.0
H2313 H 0.33681 0.74339 0.75375 0.0
H2314 H 0.32143 0.73381 0.6273 0.0
H2315 H 0.34828 0.74251 0.60077 0.0
C2316 C 0.40014 0.8114 0.54306 0.0
C2317 C 0.38939 0.81113 0.5086 0.0
C2318 C 0.40018 0.79877 0.57293 0.0
C2319 C 0.38979 0.7852 0.56869 0.0
C2320 C 0.37902 0.78496 0.5342 0.0
C2321 C 0.37876 0.79776 0.50479 0.0
C2322 C 0.38988 0.77145 0.60034 0.0
C2323 C 0.37496 0.76566 0.61629 0.0
C2324 C 0.40447 0.76415 0.61544 0.0
C2325 C 0.42066 0.76851 0.59813 0.0
C2326 C 0.4237 0.76739 0.55477 0.0
C2327 C 0.43896 0.77161 0.53862 0.0
C2328 C 0.45132 0.77686 0.56556 0.0
C2329 C 0.44847 0.77784 0.60873 0.0
C2330 C 0.43322 0.77365 0.62504 0.0
C2331 C 0.38057 0.70392 0.7093 0.0
C2332 C 0.3889 0.70459 0.74799 0.0
C2333 C 0.38048 0.71727 0.6817 0.0
C2334 C 0.38876 0.73175 0.69177 0.0
C2335 C 0.39711 0.73249 0.73035 0.0
C2336 C 0.39706 0.71916 0.75826 0.0
C2337 C 0.38881 0.74593 0.66177 0.0
C2338 C 0.40374 0.75177 0.64624 0.0
C2339 C 0.37423 0.75309 0.64655 0.0
C2340 C 0.35804 0.74796 0.66241 0.0
C2341 C 0.3546 0.74823 0.70567 0.0
C2342 C 0.33937 0.74321 0.72042 0.0
C2343 C 0.32743 0.738 0.69219 0.0
C2344 C 0.33069 0.73784 0.64913 0.0
C2345 C 0.34591 0.74283 0.63422 0.0
H2346 H 0.31565 0.73412 0.70367 0.0
H2347 H 0.46313 0.78012 0.553 0.0
H2348 H 0.71827 0.64739 0.22837 0.0
H2349 H 0.74046 0.647 0.27965 0.0
H2350 H 0.72023 0.60384 0.33625 0.0
H2351 H 0.69781 0.60432 0.28551 0.0
H2352 H 0.72966 0.62528 0.39614 0.0
H2353 H 0.75414 0.60188 0.27345 0.0
H2354 H 0.76209 0.60068 0.19887 0.0
H2355 H 0.79011 0.64446 0.21326 0.0
H2356 H 0.78213 0.64605 0.28783 0.0
H2357 H 0.79843 0.60639 0.52449 0.0
H2358 H 0.77634 0.60561 0.47312 0.0
H2359 H 0.79784 0.64607 0.40707 0.0
H2360 H 0.82038 0.64639 0.45694 0.0
H2361 H 0.78757 0.62545 0.35185 0.0
H2362 H 0.7629 0.64954 0.47323 0.0
H2363 H 0.75477 0.65146 0.5476 0.0
H2364 H 0.72698 0.60742 0.53574 0.0
H2365 H 0.73512 0.60512 0.4614 0.0
C2366 C 0.71845 0.63783 0.25179 0.0
C2367 C 0.70614 0.62586 0.25244 0.0
C2368 C 0.73129 0.63755 0.28102 0.0
C2369 C 0.73223 0.6253 0.31188 0.0
C2370 C 0.7199 0.61341 0.31285 0.0
C2371 C 0.70711 0.61362 0.28344 0.0
C2372 C 0.74595 0.62497 0.34323 0.0
C2373 C 0.74232 0.62508 0.38639 0.0
C2374 C 0.76256 0.62512 0.33092 0.0
C2375 C 0.76741 0.62417 0.28613 0.0
C2376 C 0.76189 0.61132 0.26063 0.0
C2377 C 0.76642 0.61056 0.21837 0.0
C2378 C 0.77656 0.62251 0.20131 0.0
C2379 C 0.78223 0.63522 0.2265 0.0
C2380 C 0.77772 0.63606 0.26878 0.0
C2381 C 0.79862 0.61505 0.49889 0.0
C2382 C 0.81134 0.62652 0.49546 0.0
C2383 C 0.78577 0.61472 0.46962 0.0
C2384 C 0.78511 0.62596 0.4362 0.0
C2385 C 0.79788 0.63729 0.43246 0.0
C2386 C 0.81075 0.63757 0.46153 0.0
C2387 C 0.77131 0.62584 0.40493 0.0
C2388 C 0.77493 0.62564 0.36172 0.0
C2389 C 0.75468 0.62572 0.41721 0.0
C2390 C 0.74976 0.62707 0.46188 0.0
C2391 C 0.75516 0.6402 0.48657 0.0
C2392 C 0.75053 0.64137 0.5287 0.0
C2393 C 0.7404 0.62955 0.54641 0.0
C2394 C 0.73485 0.61656 0.52199 0.0
C2395 C 0.73945 0.61532 0.47985 0.0
H2396 H 0.73683 0.63048 0.57903 0.0
H2397 H 0.78006 0.62189 0.16858 0.0
H2398 H 0.64298 0.21885 0.48057 0.0
H2399 H 0.64186 0.24089 0.53188 0.0
H2400 H 0.59886 0.21966 0.58691 0.0
H2401 H 0.59991 0.19748 0.53547 0.0
H2402 H 0.5955 0.25189 0.58447 0.0
H2403 H 0.63714 0.2159 0.63336 0.0
H2404 H 0.66211 0.19928 0.62867 0.0
H2405 H 0.69017 0.24213 0.60151 0.0
H2406 H 0.66531 0.25898 0.60545 0.0
H2407 H 0.60078 0.29965 0.77395 0.0
H2408 H 0.59951 0.27735 0.72297 0.0
H2409 H 0.64153 0.29675 0.6592 0.0
H2410 H 0.64271 0.31916 0.70923 0.0
H2411 H 0.64472 0.26455 0.66862 0.0
H2412 H 0.60263 0.30038 0.61857 0.0
H2413 H 0.57752 0.31677 0.62396 0.0
H2414 H 0.5502 0.27385 0.65497 0.0
H2415 H 0.5752 0.25723 0.65033 0.0
C2416 C 0.63331 0.21875 0.50367 0.0
C2417 C 0.62163 0.20615 0.50383 0.0
C2418 C 0.63267 0.23144 0.53316 0.0
C2419 C 0.62045 0.23192 0.56412 0.0
C2420 C 0.60847 0.21965 0.56361 0.0
C2421 C 0.60906 0.20695 0.53395 0.0
C2422 C 0.62035 0.24506 0.59713 0.0
C2423 C 0.60621 0.25446 0.60326 0.0
C2424 C 0.63434 0.24875 0.62154 0.0
C2425 C 0.64933 0.23868 0.61931 0.0
C2426 C 0.64861 0.22176 0.62608 0.0
C2427 C 0.66275 0.2123 0.6236 0.0
C2428 C 0.67771 0.21964 0.61469 0.0
C2429 C 0.67857 0.23646 0.60835 0.0
C2430 C 0.66446 0.24597 0.61074 0.0
C2431 C 0.60965 0.29934 0.74885 0.0
C2432 C 0.62191 0.31134 0.7463 0.0
C2433 C 0.60893 0.28648 0.71961 0.0
C2434 C 0.62039 0.28527 0.68684 0.0
C2435 C 0.63258 0.29723 0.68418 0.0
C2436 C 0.63328 0.31008 0.71319 0.0
C2437 C 0.61994 0.2715 0.65564 0.0
C2438 C 0.634 0.26195 0.64991 0.0
C2439 C 0.60585 0.26764 0.6318 0.0
C2440 C 0.59082 0.2776 0.63456 0.0
C2441 C 0.59129 0.29446 0.62688 0.0
C2442 C 0.57708 0.30379 0.62974 0.0
C2443 C 0.56228 0.29636 0.63992 0.0
C2444 C 0.56167 0.27959 0.64716 0.0
C2445 C 0.57586 0.27021 0.64439 0.0
H2446 H 0.55129 0.3036 0.6421 0.0
H2447 H 0.68864 0.2123 0.61279 0.0
loop_
_geom_bond_atom_site_label_1
_geom_bond_atom_site_label_2
_geom_bond_distance
_geom_bond_site_symmetry_2
_ccdc_geom_bond_type
C0 C1 1.443 . S
C0 N4 1.376 . S
C0 C38 1.389 . S
C1 C0 1.443 . S
C1 C2 1.340 . S
C1 H41 0.951 . S
C2 C1 1.340 . S
C2 C3 1.439 . S
C2 H42 0.950 . S
C3 C2 1.439 . S
C3 N4 1.374 . S
C3 C37 1.395 . S
N4 C0 1.376 . S
N4 C3 1.374 . S
N4 Co5 2.008 . S
Co5 N4 2.008 . S
Co5 N6 1.995 . S
Co5 N11 2.008 . S
Co5 N16 1.995 . S
Co5 N21 2.282 . S
Co5 N27 2.282 . S
N6 Co5 1.995 . S
N6 C7 1.376 . S
N6 C10 1.383 . S
C7 N6 1.376 . S
C7 C8 1.446 . S
C7 C37 1.391 . S
C8 C7 1.446 . S
C8 C9 1.339 . S
C8 H43 0.949 . S
C9 C8 1.339 . S
C9 C10 1.439 . S
C9 H44 0.950 . S
C10 N6 1.383 . S
C10 C9 1.439 . S
C10 C39 1.392 . S
N11 Co5 2.008 . S
N11 C12 1.376 . S
N11 C15 1.374 . S
C12 N11 1.376 . S
C12 C13 1.443 . S
C12 C39 1.389 . S
C13 C12 1.443 . S
C13 C14 1.340 . S
C13 H45 0.951 . S
C14 C13 1.340 . S
C14 C15 1.439 . S
C14 H46 0.952 . S
C15 N11 1.374 . S
C15 C14 1.439 . S
C15 C40 1.395 . S
N16 Co5 1.995 . S
N16 C17 1.376 . S
N16 C20 1.383 . S
C17 N16 1.376 . S
C17 C18 1.446 . S
C17 C40 1.391 . S
C18 C17 1.446 . S
C18 C19 1.339 . S
C18 H47 0.949 . S
C19 C18 1.339 . S
C19 C20 1.439 . S
C19 H48 0.950 . S
C20 N16 1.383 . S
C20 C19 1.439 . S
C20 C38 1.392 . S
N21 Co5 2.282 . S
N21 C24 1.332 . S
N21 C26 1.332 . S
C22 C23 1.386 . S
C22 C25 1.388 . S
C23 C22 1.386 . S
C23 C24 1.382 . S
C23 H49 0.950 . S
C24 N21 1.332 . S
C24 C23 1.382 . S
C24 H35 0.952 . S
C25 C22 1.388 . S
C25 C26 1.382 . S
C25 H50 0.950 . S
C26 N21 1.332 . S
C26 C25 1.382 . S
C26 H36 0.948 . S
N27 Co5 2.282 . S
N27 C31 1.332 . S
N27 C32 1.332 . S
C28 C29 1.388 . S
C28 C32 1.382 . S
C28 H51 0.950 . S
C29 C28 1.388 . S
C29 C30 1.386 . S
C30 C29 1.386 . S
C30 C31 1.382 . S
C30 H52 0.950 . S
C31 N27 1.332 . S
C31 C30 1.382 . S
C31 H33 0.952 . S
C32 N27 1.332 . S
C32 C28 1.382 . S
C32 H34 0.948 . S
H33 C31 0.952 . S
H34 C32 0.948 . S
H35 C24 0.952 . S
H36 C26 0.948 . S
C37 C3 1.395 . S
C37 C7 1.391 . S
C38 C0 1.389 . S
C38 C20 1.392 . S
C39 C10 1.392 . S
C39 C12 1.389 . S
C40 C15 1.395 . S
C40 C17 1.391 . S
H41 C1 0.951 . S
H42 C2 0.950 . S
H43 C8 0.949 . S
H44 C9 0.950 . S
H45 C13 0.951 . S
H46 C14 0.952 . S
H47 C18 0.949 . S
H48 C19 0.950 . S
H49 C23 0.950 . S
H50 C25 0.950 . S
H51 C28 0.950 . S
H52 C30 0.950 . S
C53 C54 1.443 . S
C53 N57 1.376 . S
C53 C91 1.389 . S
C54 C53 1.443 . S
C54 C55 1.340 . S
C54 H94 0.951 . S
C55 C54 1.340 . S
C55 C56 1.439 . S
C55 H95 0.950 . S
C56 C55 1.439 . S
C56 N57 1.374 . S
C56 C90 1.395 . S
N57 C53 1.376 . S
N57 C56 1.374 . S
N57 Co58 2.008 . S
Co58 N57 2.008 . S
Co58 N59 1.995 . S
Co58 N64 2.008 . S
Co58 N69 1.995 . S
Co58 N74 2.282 . S
Co58 N80 2.282 . S
N59 Co58 1.995 . S
N59 C60 1.376 . S
N59 C63 1.383 . S
C60 N59 1.376 . S
C60 C61 1.446 . S
C60 C90 1.391 . S
C61 C60 1.446 . S
C61 C62 1.339 . S
C61 H96 0.949 . S
C62 C61 1.339 . S
C62 C63 1.439 . S
C62 H97 0.950 . S
C63 N59 1.383 . S
C63 C62 1.439 . S
C63 C92 1.392 . S
N64 Co58 2.008 . S
N64 C65 1.376 . S
N64 C68 1.374 . S
C65 N64 1.376 . S
C65 C66 1.443 . S
C65 C92 1.389 . S
C66 C65 1.443 . S
C66 C67 1.340 . S
C66 H98 0.951 . S
C67 C66 1.340 . S
C67 C68 1.439 . S
C67 H99 0.950 . S
C68 N64 1.374 . S
C68 C67 1.439 . S
C68 C93 1.395 . S
N69 Co58 1.995 . S
N69 C70 1.376 . S
N69 C73 1.383 . S
C70 N69 1.376 . S
C70 C71 1.446 . S
C70 C93 1.391 . S
C71 C70 1.446 . S
C71 C72 1.339 . S
C71 H100 0.949 . S
C72 C71 1.339 . S
C72 C73 1.439 . S
C72 H101 0.950 . S
C73 N69 1.383 . S
C73 C72 1.439 . S
C73 C91 1.392 . S
N74 Co58 2.282 . S
N74 C77 1.332 . S
N74 C79 1.332 . S
C75 C76 1.386 . S
C75 C78 1.388 . S
C76 C75 1.386 . S
C76 C77 1.382 . S
C76 H102 0.950 . S
C77 N74 1.332 . S
C77 C76 1.382 . S
C77 H88 0.952 . S
C78 C75 1.388 . S
C78 C79 1.382 . S
C78 H103 0.950 . S
C79 N74 1.332 . S
C79 C78 1.382 . S
C79 H89 0.948 . S
N80 Co58 2.282 . S
N80 C84 1.332 . S
N80 C85 1.332 . S
C81 C82 1.388 . S
C81 C85 1.382 . S
C81 H104 0.950 . S
C82 C81 1.388 . S
C82 C83 1.386 . S
C83 C82 1.386 . S
C83 C84 1.382 . S
C83 H105 0.950 . S
C84 N80 1.332 . S
C84 C83 1.382 . S
C84 H86 0.952 . S
C85 N80 1.332 . S
C85 C81 1.382 . S
C85 H87 0.948 . S
H86 C84 0.952 . S
H87 C85 0.948 . S
H88 C77 0.952 . S
H89 C79 0.948 . S
C90 C56 1.395 . S
C90 C60 1.391 . S
C91 C53 1.389 . S
C91 C73 1.392 . S
C92 C63 1.392 . S
C92 C65 1.389 . S
C93 C68 1.395 . S
C93 C70 1.391 . S
H94 C54 0.951 . S
H95 C55 0.950 . S
H96 C61 0.949 . S
H97 C62 0.950 . S
H98 C66 0.951 . S
H99 C67 0.950 . S
H100 C71 0.949 . S
H101 C72 0.950 . S
H102 C76 0.950 . S
H103 C78 0.950 . S
H104 C81 0.950 . S
H105 C83 0.950 . S
C106 C107 1.443 . S
C106 N110 1.376 . S
C106 C144 1.389 . S
C107 C106 1.443 . S
C107 C108 1.340 . S
C107 H147 0.951 . S
C108 C107 1.340 . S
C108 C109 1.439 . S
C108 H148 0.950 . S
C109 C108 1.439 . S
C109 N110 1.374 . S
C109 C143 1.395 . S
N110 C106 1.376 . S
N110 C109 1.374 . S
N110 Co111 2.008 . S
Co111 N110 2.008 . S
Co111 N112 1.995 . S
Co111 N117 2.008 . S
Co111 N122 1.995 . S
Co111 N127 2.282 . S
Co111 N133 2.282 . S
N112 Co111 1.995 . S
N112 C113 1.376 . S
N112 C116 1.383 . S
C113 N112 1.376 . S
C113 C114 1.446 . S
C113 C143 1.391 . S
C114 C113 1.446 . S
C114 C115 1.339 . S
C114 H149 0.949 . S
C115 C114 1.339 . S
C115 C116 1.439 . S
C115 H150 0.950 . S
C116 N112 1.383 . S
C116 C115 1.439 . S
C116 C145 1.392 . S
N117 Co111 2.008 . S
N117 C118 1.376 . S
N117 C121 1.374 . S
C118 N117 1.376 . S
C118 C119 1.443 . S
C118 C145 1.389 . S
C119 C118 1.443 . S
C119 C120 1.340 . S
C119 H151 0.951 . S
C120 C119 1.340 . S
C120 C121 1.439 . S
C120 H152 0.951 . S
C121 N117 1.374 . S
C121 C120 1.439 . S
C121 C146 1.395 . S
N122 Co111 1.995 . S
N122 C123 1.376 . S
N122 C126 1.383 . S
C123 N122 1.376 . S
C123 C124 1.446 . S
C123 C146 1.391 . S
C124 C123 1.446 . S
C124 C125 1.339 . S
C124 H153 0.949 . S
C125 C124 1.339 . S
C125 C126 1.439 . S
C125 H154 0.950 . S
C126 N122 1.383 . S
C126 C125 1.439 . S
C126 C144 1.392 . S
N127 Co111 2.282 . S
N127 C130 1.332 . S
N127 C132 1.332 . S
C128 C129 1.386 . S
C128 C131 1.388 . S
C129 C128 1.386 . S
C129 C130 1.382 . S
C129 H155 0.950 . S
C130 N127 1.332 . S
C130 C129 1.382 . S
C130 H141 0.952 . S
C131 C128 1.388 . S
C131 C132 1.382 . S
C131 H156 0.950 . S
C132 N127 1.332 . S
C132 C131 1.382 . S
C132 H142 0.948 . S
N133 Co111 2.282 . S
N133 C137 1.332 . S
N133 C138 1.332 . S
C134 C135 1.388 . S
C134 C138 1.382 . S
C134 H157 0.950 . S
C135 C134 1.388 . S
C135 C136 1.386 . S
C136 C135 1.386 . S
C136 C137 1.382 . S
C136 H158 0.950 . S
C137 N133 1.332 . S
C137 C136 1.382 . S
C137 H139 0.952 . S
C138 N133 1.332 . S
C138 C134 1.382 . S
C138 H140 0.948 . S
H139 C137 0.952 . S
H140 C138 0.948 . S
H141 C130 0.952 . S
H142 C132 0.948 . S
C143 C109 1.395 . S
C143 C113 1.391 . S
C144 C106 1.389 . S
C144 C126 1.392 . S
C145 C116 1.392 . S
C145 C118 1.389 . S
C146 C121 1.395 . S
C146 C123 1.391 . S
H147 C107 0.951 . S
H148 C108 0.950 . S
H149 C114 0.949 . S
H150 C115 0.950 . S
H151 C119 0.951 . S
H152 C120 0.951 . S
H153 C124 0.949 . S
H154 C125 0.950 . S
H155 C129 0.950 . S
H156 C131 0.950 . S
H157 C134 0.950 . S
H158 C136 0.950 . S
C159 C160 1.443 . S
C159 N163 1.376 . S
C159 C197 1.389 . S
C160 C159 1.443 . S
C160 C161 1.340 . S
C160 H200 0.951 . S
C161 C160 1.340 . S
C161 C162 1.439 . S
C161 H201 0.950 . S
C162 C161 1.439 . S
C162 N163 1.374 . S
C162 C196 1.395 . S
N163 C159 1.376 . S
N163 C162 1.374 . S
N163 Co164 2.008 . S
Co164 N163 2.008 . S
Co164 N165 1.995 . S
Co164 N170 2.008 . S
Co164 N175 1.995 . S
Co164 N180 2.282 . S
Co164 N186 2.282 . S
N165 Co164 1.995 . S
N165 C166 1.376 . S
N165 C169 1.383 . S
C166 N165 1.376 . S
C166 C167 1.446 . S
C166 C196 1.391 . S
C167 C166 1.446 . S
C167 C168 1.339 . S
C167 H202 0.949 . S
C168 C167 1.339 . S
C168 C169 1.439 . S
C168 H203 0.950 . S
C169 N165 1.383 . S
C169 C168 1.439 . S
C169 C198 1.392 . S
N170 Co164 2.008 . S
N170 C171 1.376 . S
N170 C174 1.374 . S
C171 N170 1.376 . S
C171 C172 1.443 . S
C171 C198 1.389 . S
C172 C171 1.443 . S
C172 C173 1.340 . S
C172 H204 0.951 . S
C173 C172 1.340 . S
C173 C174 1.439 . S
C173 H205 0.950 . S
C174 N170 1.374 . S
C174 C173 1.439 . S
C174 C199 1.395 . S
N175 Co164 1.995 . S
N175 C176 1.376 . S
N175 C179 1.383 . S
C176 N175 1.376 . S
C176 C177 1.446 . S
C176 C199 1.391 . S
C177 C176 1.446 . S
C177 C178 1.339 . S
C177 H206 0.949 . S
C178 C177 1.339 . S
C178 C179 1.439 . S
C178 H207 0.950 . S
C179 N175 1.383 . S
C179 C178 1.439 . S
C179 C197 1.392 . S
N180 Co164 2.282 . S
N180 C183 1.332 . S
N180 C185 1.332 . S
C181 C182 1.386 . S
C181 C184 1.388 . S
C182 C181 1.386 . S
C182 C183 1.382 . S
C182 H208 0.950 . S
C183 N180 1.332 . S
C183 C182 1.382 . S
C183 H194 0.952 . S
C184 C181 1.388 . S
C184 C185 1.382 . S
C184 H209 0.950 . S
C185 N180 1.332 . S
C185 C184 1.382 . S
C185 H195 0.948 . S
N186 Co164 2.282 . S
N186 C190 1.332 . S
N186 C191 1.332 . S
C187 C188 1.388 . S
C187 C191 1.382 . S
C187 H210 0.950 . S
C188 C187 1.388 . S
C188 C189 1.386 . S
C189 C188 1.386 . S
C189 C190 1.382 . S
C189 H211 0.950 . S
C190 N186 1.332 . S
C190 C189 1.382 . S
C190 H192 0.952 . S
C191 N186 1.332 . S
C191 C187 1.382 . S
C191 H193 0.948 . S
H192 C190 0.952 . S
H193 C191 0.948 . S
H194 C183 0.952 . S
H195 C185 0.948 . S
C196 C162 1.395 . S
C196 C166 1.391 . S
C197 C159 1.389 . S
C197 C179 1.392 . S
C198 C169 1.392 . S
C198 C171 1.389 . S
C199 C174 1.395 . S
C199 C176 1.391 . S
H200 C160 0.951 . S
H201 C161 0.950 . S
H202 C167 0.949 . S
H203 C168 0.950 . S
H204 C172 0.951 . S
H205 C173 0.950 . S
H206 C177 0.949 . S
H207 C178 0.950 . S
H208 C182 0.950 . S
H209 C184 0.950 . S
H210 C187 0.950 . S
H211 C189 0.950 . S
C212 C213 1.443 . S
C212 N216 1.376 . S
C212 C250 1.389 . S
C213 C212 1.443 . S
C213 C214 1.340 1_554 S
C213 H253 0.962 . S
C214 C213 1.340 1_556 S
C214 C215 1.439 1_556 S
C214 H254 0.950 . S
C215 C214 1.439 1_554 S
C215 N216 1.374 . S
C215 C249 1.395 . S
N216 C212 1.376 . S
N216 C215 1.374 . S
N216 Co217 2.008 . S
Co217 N216 2.008 . S
Co217 N218 1.995 . S
Co217 N223 2.008 . S
Co217 N228 1.995 . S
Co217 N233 2.282 . S
Co217 N239 2.282 . S
N218 Co217 1.995 . S
N218 C219 1.376 . S
N218 C222 1.383 . S
C219 N218 1.376 . S
C219 C220 1.446 . S
C219 C249 1.391 . S
C220 C219 1.446 . S
C220 C221 1.339 . S
C220 H255 0.949 . S
C221 C220 1.339 . S
C221 C222 1.439 . S
C221 H256 0.950 . S
C222 N218 1.383 . S
C222 C221 1.439 . S
C222 C251 1.392 . S
N223 Co217 2.008 . S
N223 C224 1.376 . S
N223 C227 1.374 . S
C224 N223 1.376 . S
C224 C225 1.443 . S
C224 C251 1.389 . S
C225 C224 1.443 . S
C225 C226 1.340 . S
C225 H257 0.951 . S
C226 C225 1.340 . S
C226 C227 1.439 . S
C226 H258 0.950 . S
C227 N223 1.374 . S
C227 C226 1.439 . S
C227 C252 1.395 . S
N228 Co217 1.995 . S
N228 C229 1.376 . S
N228 C232 1.383 . S
C229 N228 1.376 . S
C229 C230 1.446 . S
C229 C252 1.391 . S
C230 C229 1.446 . S
C230 C231 1.339 . S
C230 H259 0.949 . S
C231 C230 1.339 . S
C231 C232 1.439 . S
C231 H260 0.950 . S
C232 N228 1.383 . S
C232 C231 1.439 . S
C232 C250 1.392 . S
N233 Co217 2.282 . S
N233 C236 1.332 . S
N233 C238 1.332 . S
C234 C235 1.386 . S
C234 C237 1.388 . S
C235 C234 1.386 . S
C235 C236 1.382 . S
C235 H261 0.950 . S
C236 N233 1.332 . S
C236 C235 1.382 . S
C236 H247 0.952 . S
C237 C234 1.388 . S
C237 C238 1.382 . S
C237 H262 0.950 . S
C238 N233 1.332 . S
C238 C237 1.382 . S
C238 H248 0.948 . S
N239 Co217 2.282 . S
N239 C243 1.332 . S
N239 C244 1.332 . S
C240 C241 1.388 . S
C240 C244 1.382 . S
C240 H263 0.950 . S
C241 C240 1.388 . S
C241 C242 1.386 . S
C242 C241 1.386 . S
C242 C243 1.382 . S
C242 H264 0.950 1_554 S
C243 N239 1.332 . S
C243 C242 1.382 . S
C243 H245 0.952 . S
C244 N239 1.332 . S
C244 C240 1.382 . S
C244 H246 0.948 . S
H245 C243 0.952 . S
H246 C244 0.948 . S
H247 C236 0.952 . S
H248 C238 0.948 . S
C249 C215 1.395 . S
C249 C219 1.391 . S
C250 C212 1.389 . S
C250 C232 1.392 . S
C251 C222 1.392 . S
C251 C224 1.389 . S
C252 C227 1.395 . S
C252 C229 1.391 . S
H253 C213 0.962 . S
H254 C214 0.950 . S
H255 C220 0.949 . S
H256 C221 0.950 . S
H257 C225 0.951 . S
H258 C226 0.950 . S
H259 C230 0.949 . S
H260 C231 0.950 . S
H261 C235 0.950 . S
H262 C237 0.950 . S
H263 C240 0.950 . S
H264 C242 0.950 1_556 S
C265 C266 1.443 . S
C265 N269 1.376 . S
C265 C303 1.389 . S
C266 C265 1.443 . S
C266 C267 1.340 . S
C266 H306 0.951 . S
C267 C266 1.340 . S
C267 C268 1.439 . S
C267 H307 0.950 . S
C268 C267 1.439 . S
C268 N269 1.374 . S
C268 C302 1.395 . S
N269 C265 1.376 . S
N269 C268 1.374 . S
N269 Co270 2.008 . S
Co270 N269 2.008 . S
Co270 N271 1.995 . S
Co270 N276 2.008 . S
Co270 N281 1.995 . S
Co270 N286 2.282 . S
Co270 N292 2.282 . S
N271 Co270 1.995 . S
N271 C272 1.376 . S
N271 C275 1.383 . S
C272 N271 1.376 . S
C272 C273 1.446 . S
C272 C302 1.391 . S
C273 C272 1.446 . S
C273 C274 1.339 . S
C273 H308 0.949 . S
C274 C273 1.339 . S
C274 C275 1.439 . S
C274 H309 0.950 . S
C275 N271 1.383 . S
C275 C274 1.439 . S
C275 C304 1.392 . S
N276 Co270 2.008 . S
N276 C277 1.376 . S
N276 C280 1.374 . S
C277 N276 1.376 . S
C277 C278 1.443 . S
C277 C304 1.389 . S
C278 C277 1.443 . S
C278 C279 1.340 . S
C278 H310 0.951 . S
C279 C278 1.340 . S
C279 C280 1.439 . S
C279 H311 0.950 . S
C280 N276 1.374 . S
C280 C279 1.439 . S
C280 C305 1.395 . S
N281 Co270 1.995 . S
N281 C282 1.376 . S
N281 C285 1.383 . S
C282 N281 1.376 . S
C282 C283 1.446 . S
C282 C305 1.391 . S
C283 C282 1.446 . S
C283 C284 1.339 . S
C283 H312 0.949 1_556 S
C284 C283 1.339 . S
C284 C285 1.439 . S
C284 H313 0.950 . S
C285 N281 1.383 . S
C285 C284 1.439 . S
C285 C303 1.392 . S
N286 Co270 2.282 . S
N286 C289 1.332 . S
N286 C291 1.332 . S
C287 C288 1.386 . S
C287 C290 1.388 . S
C288 C287 1.386 . S
C288 C289 1.382 . S
C288 H314 0.950 . S
C289 N286 1.332 . S
C289 C288 1.382 . S
C289 H300 0.952 . S
C290 C287 1.388 . S
C290 C291 1.382 . S
C290 H315 0.950 . S
C291 N286 1.332 . S
C291 C290 1.382 . S
C291 H301 0.948 . S
N292 Co270 2.282 . S
N292 C296 1.332 . S
N292 C297 1.332 . S
C293 C294 1.388 . S
C293 C297 1.382 . S
C293 H316 0.950 1_556 S
C294 C293 1.388 . S
C294 C295 1.386 . S
C295 C294 1.386 . S
C295 C296 1.382 . S
C295 H317 0.950 . S
C296 N292 1.332 . S
C296 C295 1.382 . S
C296 H298 0.952 . S
C297 N292 1.332 . S
C297 C293 1.382 . S
C297 H299 0.948 . S
H298 C296 0.952 . S
H299 C297 0.948 . S
H300 C289 0.952 . S
H301 C291 0.948 . S
C302 C268 1.395 . S
C302 C272 1.391 . S
C303 C265 1.389 . S
C303 C285 1.392 . S
C304 C275 1.392 . S
C304 C277 1.389 . S
C305 C280 1.395 . S
C305 C282 1.391 . S
H306 C266 0.951 . S
H307 C267 0.950 . S
H308 C273 0.949 . S
H309 C274 0.950 . S
H310 C278 0.951 . S
H311 C279 0.950 . S
H312 C283 0.949 1_554 S
H313 C284 0.950 . S
H314 C288 0.950 . S
H315 C290 0.950 . S
H316 C293 0.950 1_554 S
H317 C295 0.950 . S
C318 C319 1.443 . S
C318 N322 1.376 . S
C318 C356 1.389 . S
C319 C318 1.443 . S
C319 C320 1.340 1_554 S
C319 H359 0.962 . S
C320 C319 1.340 1_556 S
C320 C321 1.439 1_556 S
C320 H360 0.950 . S
C321 C320 1.439 1_554 S
C321 N322 1.374 . S
C321 C355 1.395 . S
N322 C318 1.376 . S
N322 C321 1.374 . S
N322 Co323 2.008 . S
Co323 N322 2.008 . S
Co323 N324 1.995 . S
Co323 N329 2.008 . S
Co323 N334 1.995 . S
Co323 N339 2.282 . S
Co323 N345 2.282 . S
N324 Co323 1.995 . S
N324 C325 1.376 . S
N324 C328 1.383 . S
C325 N324 1.376 . S
C325 C326 1.446 . S
C325 C355 1.391 . S
C326 C325 1.446 . S
C326 C327 1.339 . S
C326 H361 0.949 . S
C327 C326 1.339 . S
C327 C328 1.439 . S
C327 H362 0.950 . S
C328 N324 1.383 . S
C328 C327 1.439 . S
C328 C357 1.392 . S
N329 Co323 2.008 . S
N329 C330 1.376 . S
N329 C333 1.374 . S
C330 N329 1.376 . S
C330 C331 1.443 . S
C330 C357 1.389 . S
C331 C330 1.443 . S
C331 C332 1.340 . S
C331 H363 0.951 . S
C332 C331 1.340 . S
C332 C333 1.439 . S
C332 H364 0.950 . S
C333 N329 1.374 . S
C333 C332 1.439 . S
C333 C358 1.395 . S
N334 Co323 1.995 . S
N334 C335 1.376 . S
N334 C338 1.383 . S
C335 N334 1.376 . S
C335 C336 1.446 . S
C335 C358 1.391 . S
C336 C335 1.446 . S
C336 C337 1.339 . S
C336 H365 0.949 . S
C337 C336 1.339 . S
C337 C338 1.439 . S
C337 H366 0.950 . S
C338 N334 1.383 . S
C338 C337 1.439 . S
C338 C356 1.392 . S
N339 Co323 2.282 . S
N339 C342 1.332 . S
N339 C344 1.332 . S
C340 C341 1.386 . S
C340 C343 1.388 . S
C341 C340 1.386 . S
C341 C342 1.382 . S
C341 H367 0.950 . S
C342 N339 1.332 . S
C342 C341 1.382 . S
C342 H353 0.952 . S
C343 C340 1.388 . S
C343 C344 1.382 . S
C343 H368 0.950 . S
C344 N339 1.332 . S
C344 C343 1.382 . S
C344 H354 0.948 . S
N345 Co323 2.282 . S
N345 C349 1.332 . S
N345 C350 1.332 . S
C346 C347 1.388 . S
C346 C350 1.382 . S
C346 H369 0.950 . S
C347 C346 1.388 . S
C347 C348 1.386 . S
C348 C347 1.386 . S
C348 C349 1.382 . S
C348 H370 0.950 1_554 S
C349 N345 1.332 . S
C349 C348 1.382 . S
C349 H351 0.952 . S
C350 N345 1.332 . S
C350 C346 1.382 . S
C350 H352 0.948 . S
H351 C349 0.952 . S
H352 C350 0.948 . S
H353 C342 0.952 . S
H354 C344 0.948 . S
C355 C321 1.395 . S
C355 C325 1.391 . S
C356 C318 1.389 . S
C356 C338 1.392 . S
C357 C328 1.392 . S
C357 C330 1.389 . S
C358 C333 1.395 . S
C358 C335 1.391 . S
H359 C319 0.962 . S
H360 C320 0.950 . S
H361 C326 0.949 . S
H362 C327 0.950 . S
H363 C331 0.951 . S
H364 C332 0.950 . S
H365 C336 0.949 . S
H366 C337 0.950 . S
H367 C341 0.950 . S
H368 C343 0.950 . S
H369 C346 0.950 . S
H370 C348 0.950 1_556 S
C371 C372 1.443 . S
C371 N375 1.376 . S
C371 C409 1.389 . S
C372 C371 1.443 . S
C372 C373 1.340 . S
C372 H412 0.951 . S
C373 C372 1.340 . S
C373 C374 1.439 . S
C373 H413 0.950 . S
C374 C373 1.439 . S
C374 N375 1.374 . S
C374 C408 1.395 . S
N375 C371 1.376 . S
N375 C374 1.374 . S
N375 Co376 2.008 . S
Co376 N375 2.008 . S
Co376 N377 1.995 . S
Co376 N382 2.008 . S
Co376 N387 1.995 . S
Co376 N392 2.282 . S
Co376 N398 2.282 . S
N377 Co376 1.995 . S
N377 C378 1.376 . S
N377 C381 1.383 . S
C378 N377 1.376 . S
C378 C379 1.446 . S
C378 C408 1.391 . S
C379 C378 1.446 . S
C379 C380 1.339 . S
C379 H414 0.949 . S
C380 C379 1.339 . S
C380 C381 1.439 . S
C380 H415 0.950 . S
C381 N377 1.383 . S
C381 C380 1.439 . S
C381 C410 1.392 . S
N382 Co376 2.008 . S
N382 C383 1.376 . S
N382 C386 1.374 . S
C383 N382 1.376 . S
C383 C384 1.443 . S
C383 C410 1.389 . S
C384 C383 1.443 . S
C384 C385 1.340 . S
C384 H416 0.951 . S
C385 C384 1.340 . S
C385 C386 1.439 . S
C385 H417 0.950 . S
C386 N382 1.374 . S
C386 C385 1.439 . S
C386 C411 1.395 . S
N387 Co376 1.995 . S
N387 C388 1.376 . S
N387 C391 1.383 . S
C388 N387 1.376 . S
C388 C389 1.446 . S
C388 C411 1.391 . S
C389 C388 1.446 . S
C389 C390 1.339 . S
C389 H418 0.949 1_556 S
C390 C389 1.339 . S
C390 C391 1.439 . S
C390 H419 0.950 . S
C391 N387 1.383 . S
C391 C390 1.439 . S
C391 C409 1.392 . S
N392 Co376 2.282 . S
N392 C395 1.332 . S
N392 C397 1.332 . S
C393 C394 1.386 . S
C393 C396 1.388 . S
C394 C393 1.386 . S
C394 C395 1.382 . S
C394 H420 0.950 . S
C395 N392 1.332 . S
C395 C394 1.382 . S
C395 H406 0.952 . S
C396 C393 1.388 . S
C396 C397 1.382 . S
C396 H421 0.950 . S
C397 N392 1.332 . S
C397 C396 1.382 . S
C397 H407 0.948 . S
N398 Co376 2.282 . S
N398 C402 1.332 . S
N398 C403 1.332 . S
C399 C400 1.388 . S
C399 C403 1.382 . S
C399 H422 0.950 1_556 S
C400 C399 1.388 . S
C400 C401 1.386 . S
C401 C400 1.386 . S
C401 C402 1.382 . S
C401 H423 0.950 . S
C402 N398 1.332 . S
C402 C401 1.382 . S
C402 H404 0.952 . S
C403 N398 1.332 . S
C403 C399 1.382 . S
C403 H405 0.948 . S
H404 C402 0.952 . S
H405 C403 0.948 . S
H406 C395 0.952 . S
H407 C397 0.948 . S
C408 C374 1.395 . S
C408 C378 1.391 . S
C409 C371 1.389 . S
C409 C391 1.392 . S
C410 C381 1.392 . S
C410 C383 1.389 . S
C411 C386 1.395 . S
C411 C388 1.391 . S
H412 C372 0.951 . S
H413 C373 0.950 . S
H414 C379 0.949 . S
H415 C380 0.950 . S
H416 C384 0.951 . S
H417 C385 0.950 . S
H418 C389 0.949 1_554 S
H419 C390 0.950 . S
H420 C394 0.950 . S
H421 C396 0.950 . S
H422 C399 0.950 1_554 S
H423 C401 0.950 . S
C424 C425 1.443 . S
C424 N428 1.376 . S
C424 C462 1.389 . S
C425 C424 1.443 . S
C425 C426 1.340 . S
C425 H465 0.951 . S
C426 C425 1.340 . S
C426 C427 1.439 . S
C426 H466 0.950 . S
C427 C426 1.439 . S
C427 N428 1.374 . S
C427 C461 1.395 . S
N428 C424 1.376 . S
N428 C427 1.374 . S
N428 Co429 2.008 . S
Co429 N428 2.008 . S
Co429 N430 1.995 . S
Co429 N435 2.008 . S
Co429 N440 1.995 . S
Co429 N445 2.282 . S
Co429 N451 2.282 . S
N430 Co429 1.995 . S
N430 C431 1.376 . S
N430 C434 1.383 . S
C431 N430 1.376 . S
C431 C432 1.446 . S
C431 C461 1.391 . S
C432 C431 1.446 . S
C432 C433 1.339 . S
C432 H467 0.949 . S
C433 C432 1.339 . S
C433 C434 1.439 . S
C433 H468 0.950 . S
C434 N430 1.383 . S
C434 C433 1.439 . S
C434 C463 1.392 . S
N435 Co429 2.008 . S
N435 C436 1.376 . S
N435 C439 1.374 . S
C436 N435 1.376 . S
C436 C437 1.443 . S
C436 C463 1.389 . S
C437 C436 1.443 . S
C437 C438 1.340 . S
C437 H469 0.951 . S
C438 C437 1.340 . S
C438 C439 1.439 . S
C438 H470 0.950 . S
C439 N435 1.374 . S
C439 C438 1.439 . S
C439 C464 1.395 . S
N440 Co429 1.995 . S
N440 C441 1.376 . S
N440 C444 1.383 . S
C441 N440 1.376 . S
C441 C442 1.446 . S
C441 C464 1.391 . S
C442 C441 1.446 . S
C442 C443 1.339 . S
C442 H471 0.949 . S
C443 C442 1.339 . S
C443 C444 1.439 . S
C443 H472 0.950 . S
C444 N440 1.383 . S
C444 C443 1.439 . S
C444 C462 1.392 . S
N445 Co429 2.282 . S
N445 C448 1.332 . S
N445 C450 1.332 . S
C446 C447 1.386 . S
C446 C449 1.388 . S
C447 C446 1.386 . S
C447 C448 1.382 . S
C447 H473 0.950 . S
C448 N445 1.332 . S
C448 C447 1.382 . S
C448 H459 0.952 . S
C449 C446 1.388 . S
C449 C450 1.382 . S
C449 H474 0.950 . S
C450 N445 1.332 . S
C450 C449 1.382 . S
C450 H460 0.948 . S
N451 Co429 2.282 . S
N451 C455 1.332 . S
N451 C456 1.332 . S
C452 C453 1.388 . S
C452 C456 1.382 . S
C452 H475 0.950 . S
C453 C452 1.388 . S
C453 C454 1.386 . S
C454 C453 1.386 . S
C454 C455 1.382 . S
C454 H476 0.950 . S
C455 N451 1.332 . S
C455 C454 1.382 . S
C455 H457 0.952 . S
C456 N451 1.332 . S
C456 C452 1.382 . S
C456 H458 0.948 . S
H457 C455 0.952 . S
H458 C456 0.948 . S
H459 C448 0.952 . S
H460 C450 0.948 . S
C461 C427 1.395 . S
C461 C431 1.391 . S
C462 C424 1.389 . S
C462 C444 1.392 . S
C463 C434 1.392 . S
C463 C436 1.389 . S
C464 C439 1.395 . S
C464 C441 1.391 . S
H465 C425 0.951 . S
H466 C426 0.950 . S
H467 C432 0.949 . S
H468 C433 0.950 . S
H469 C437 0.951 . S
H470 C438 0.950 . S
H471 C442 0.949 . S
H472 C443 0.950 . S
H473 C447 0.950 . S
H474 C449 0.950 . S
H475 C452 0.950 . S
H476 C454 0.950 . S
C477 C478 1.443 . S
C477 N481 1.376 . S
C477 C515 1.389 . S
C478 C477 1.443 . S
C478 C479 1.340 . S
C478 H518 0.951 . S
C479 C478 1.340 . S
C479 C480 1.439 . S
C479 H519 0.950 . S
C480 C479 1.439 . S
C480 N481 1.374 . S
C480 C514 1.395 . S
N481 C477 1.376 . S
N481 C480 1.374 . S
N481 Co482 2.008 . S
Co482 N481 2.008 . S
Co482 N483 1.995 . S
Co482 N488 2.008 . S
Co482 N493 1.995 . S
Co482 N498 2.282 . S
Co482 N504 2.282 . S
N483 Co482 1.995 . S
N483 C484 1.376 . S
N483 C487 1.383 . S
C484 N483 1.376 . S
C484 C485 1.446 . S
C484 C514 1.391 . S
C485 C484 1.446 . S
C485 C486 1.339 . S
C485 H520 0.949 . S
C486 C485 1.339 . S
C486 C487 1.439 . S
C486 H521 0.950 . S
C487 N483 1.383 . S
C487 C486 1.439 . S
C487 C516 1.392 . S
N488 Co482 2.008 . S
N488 C489 1.376 . S
N488 C492 1.374 . S
C489 N488 1.376 . S
C489 C490 1.443 . S
C489 C516 1.389 . S
C490 C489 1.443 . S
C490 C491 1.340 . S
C490 H522 0.951 . S
C491 C490 1.340 . S
C491 C492 1.439 . S
C491 H523 0.950 . S
C492 N488 1.374 . S
C492 C491 1.439 . S
C492 C517 1.395 . S
N493 Co482 1.995 . S
N493 C494 1.376 . S
N493 C497 1.383 . S
C494 N493 1.376 . S
C494 C495 1.446 . S
C494 C517 1.391 . S
C495 C494 1.446 . S
C495 C496 1.339 . S
C495 H524 0.949 . S
C496 C495 1.339 . S
C496 C497 1.439 . S
C496 H525 0.950 . S
C497 N493 1.383 . S
C497 C496 1.439 . S
C497 C515 1.392 . S
N498 Co482 2.282 . S
N498 C501 1.332 . S
N498 C503 1.332 . S
C499 C500 1.386 . S
C499 C502 1.388 . S
C500 C499 1.386 . S
C500 C501 1.382 . S
C500 H526 0.950 . S
C501 N498 1.332 . S
C501 C500 1.382 . S
C501 H512 0.952 . S
C502 C499 1.388 . S
C502 C503 1.382 . S
C502 H527 0.950 . S
C503 N498 1.332 . S
C503 C502 1.382 . S
C503 H513 0.948 . S
N504 Co482 2.282 . S
N504 C508 1.332 . S
N504 C509 1.332 . S
C505 C506 1.388 . S
C505 C509 1.382 . S
C505 H528 0.950 . S
C506 C505 1.388 . S
C506 C507 1.386 . S
C507 C506 1.386 . S
C507 C508 1.382 . S
C507 H529 0.950 . S
C508 N504 1.332 . S
C508 C507 1.382 . S
C508 H510 0.952 . S
C509 N504 1.332 . S
C509 C505 1.382 . S
C509 H511 0.948 . S
H510 C508 0.952 . S
H511 C509 0.948 . S
H512 C501 0.952 . S
H513 C503 0.948 . S
C514 C480 1.395 . S
C514 C484 1.391 . S
C515 C477 1.389 . S
C515 C497 1.392 . S
C516 C487 1.392 . S
C516 C489 1.389 . S
C517 C492 1.395 . S
C517 C494 1.391 . S
H518 C478 0.951 . S
H519 C479 0.950 . S
H520 C485 0.949 . S
H521 C486 0.950 . S
H522 C490 0.951 . S
H523 C491 0.950 . S
H524 C495 0.949 . S
H525 C496 0.950 . S
H526 C500 0.950 . S
H527 C502 0.950 . S
H528 C505 0.950 . S
H529 C507 0.950 . S
C530 C531 1.443 . S
C530 N534 1.376 . S
C530 C568 1.389 . S
C531 C530 1.443 . S
C531 C532 1.340 . S
C531 H571 0.951 . S
C532 C531 1.340 . S
C532 C533 1.439 . S
C532 H572 0.950 . S
C533 C532 1.439 . S
C533 N534 1.374 . S
C533 C567 1.395 . S
N534 C530 1.376 . S
N534 C533 1.374 . S
N534 Co535 2.008 . S
Co535 N534 2.008 . S
Co535 N536 1.995 . S
Co535 N541 2.008 . S
Co535 N546 1.995 . S
Co535 N551 2.282 . S
Co535 N557 2.282 . S
N536 Co535 1.995 . S
N536 C537 1.376 . S
N536 C540 1.383 . S
C537 N536 1.376 . S
C537 C538 1.446 . S
C537 C567 1.391 . S
C538 C537 1.446 . S
C538 C539 1.339 . S
C538 H573 0.949 . S
C539 C538 1.339 . S
C539 C540 1.439 . S
C539 H574 0.950 . S
C540 N536 1.383 . S
C540 C539 1.439 . S
C540 C569 1.392 . S
N541 Co535 2.008 . S
N541 C542 1.376 . S
N541 C545 1.374 . S
C542 N541 1.376 . S
C542 C543 1.443 . S
C542 C569 1.389 . S
C543 C542 1.443 . S
C543 C544 1.340 . S
C543 H575 0.951 . S
C544 C543 1.340 . S
C544 C545 1.439 . S
C544 H576 0.950 . S
C545 N541 1.374 . S
C545 C544 1.439 . S
C545 C570 1.395 . S
N546 Co535 1.995 . S
N546 C547 1.376 . S
N546 C550 1.383 . S
C547 N546 1.376 . S
C547 C548 1.446 . S
C547 C570 1.391 . S
C548 C547 1.446 . S
C548 C549 1.339 . S
C548 H577 0.949 . S
C549 C548 1.339 . S
C549 C550 1.439 . S
C549 H578 0.950 . S
C550 N546 1.383 . S
C550 C549 1.439 . S
C550 C568 1.392 . S
N551 Co535 2.282 . S
N551 C554 1.332 . S
N551 C556 1.332 . S
C552 C553 1.386 . S
C552 C555 1.388 . S
C553 C552 1.386 . S
C553 C554 1.382 . S
C553 H579 0.950 . S
C554 N551 1.332 . S
C554 C553 1.382 . S
C554 H565 0.952 . S
C555 C552 1.388 . S
C555 C556 1.382 . S
C555 H580 0.950 . S
C556 N551 1.332 . S
C556 C555 1.382 . S
C556 H566 0.948 . S
N557 Co535 2.282 . S
N557 C561 1.332 . S
N557 C562 1.332 . S
C558 C559 1.388 . S
C558 C562 1.382 . S
C558 H581 0.950 . S
C559 C558 1.388 . S
C559 C560 1.386 . S
C560 C559 1.386 . S
C560 C561 1.382 . S
C560 H582 0.950 . S
C561 N557 1.332 . S
C561 C560 1.382 . S
C561 H563 0.952 . S
C562 N557 1.332 . S
C562 C558 1.382 . S
C562 H564 0.948 . S
H563 C561 0.952 . S
H564 C562 0.948 . S
H565 C554 0.952 . S
H566 C556 0.948 . S
C567 C533 1.395 . S
C567 C537 1.391 . S
C568 C530 1.389 . S
C568 C550 1.392 . S
C569 C540 1.392 . S
C569 C542 1.389 . S
C570 C545 1.395 . S
C570 C547 1.391 . S
H571 C531 0.951 . S
H572 C532 0.950 . S
H573 C538 0.949 . S
H574 C539 0.950 . S
H575 C543 0.951 . S
H576 C544 0.950 . S
H577 C548 0.949 . S
H578 C549 0.950 . S
H579 C553 0.950 . S
H580 C555 0.950 . S
H581 C558 0.950 . S
H582 C560 0.950 . S
C583 C584 1.443 . S
C583 N587 1.376 . S
C583 C621 1.389 . S
C584 C583 1.443 . S
C584 C585 1.340 . S
C584 H624 0.951 . S
C585 C584 1.340 . S
C585 C586 1.439 . S
C585 H625 0.950 . S
C586 C585 1.439 . S
C586 N587 1.374 . S
C586 C620 1.395 . S
N587 C583 1.376 . S
N587 C586 1.374 . S
N587 Co588 2.008 . S
Co588 N587 2.008 . S
Co588 N589 1.995 . S
Co588 N594 2.008 . S
Co588 N599 1.995 . S
Co588 N604 2.282 . S
Co588 N610 2.282 . S
N589 Co588 1.995 . S
N589 C590 1.376 . S
N589 C593 1.383 . S
C590 N589 1.376 . S
C590 C591 1.446 . S
C590 C620 1.391 . S
C591 C590 1.446 . S
C591 C592 1.339 . S
C591 H626 0.949 . S
C592 C591 1.339 . S
C592 C593 1.439 . S
C592 H627 0.950 . S
C593 N589 1.383 . S
C593 C592 1.439 . S
C593 C622 1.392 . S
N594 Co588 2.008 . S
N594 C595 1.376 . S
N594 C598 1.374 . S
C595 N594 1.376 . S
C595 C596 1.443 . S
C595 C622 1.389 . S
C596 C595 1.443 . S
C596 C597 1.340 . S
C596 H628 0.951 . S
C597 C596 1.340 . S
C597 C598 1.439 . S
C597 H629 0.950 . S
C598 N594 1.374 . S
C598 C597 1.439 . S
C598 C623 1.395 . S
N599 Co588 1.995 . S
N599 C600 1.376 . S
N599 C603 1.383 . S
C600 N599 1.376 . S
C600 C601 1.446 . S
C600 C623 1.391 . S
C601 C600 1.446 . S
C601 C602 1.339 . S
C601 H630 0.949 . S
C602 C601 1.339 . S
C602 C603 1.439 . S
C602 H631 0.950 . S
C603 N599 1.383 . S
C603 C602 1.439 . S
C603 C621 1.392 . S
N604 Co588 2.282 . S
N604 C607 1.332 . S
N604 C609 1.332 . S
C605 C606 1.386 . S
C605 C608 1.388 . S
C606 C605 1.386 . S
C606 C607 1.382 . S
C606 H632 0.950 . S
C607 N604 1.332 . S
C607 C606 1.382 . S
C607 H618 0.952 . S
C608 C605 1.388 . S
C608 C609 1.382 . S
C608 H633 0.950 . S
C609 N604 1.332 . S
C609 C608 1.382 . S
C609 H619 0.948 . S
N610 Co588 2.282 . S
N610 C614 1.332 . S
N610 C615 1.332 . S
C611 C612 1.388 . S
C611 C615 1.382 . S
C611 H634 0.950 . S
C612 C611 1.388 . S
C612 C613 1.386 . S
C613 C612 1.386 . S
C613 C614 1.382 . S
C613 H635 0.950 . S
C614 N610 1.332 . S
C614 C613 1.382 . S
C614 H616 0.952 . S
C615 N610 1.332 . S
C615 C611 1.382 . S
C615 H617 0.948 . S
H616 C614 0.952 . S
H617 C615 0.948 . S
H618 C607 0.952 . S
H619 C609 0.948 . S
C620 C586 1.395 . S
C620 C590 1.391 . S
C621 C583 1.389 . S
C621 C603 1.392 . S
C622 C593 1.392 . S
C622 C595 1.389 . S
C623 C598 1.395 . S
C623 C600 1.391 . S
H624 C584 0.951 . S
H625 C585 0.950 . S
H626 C591 0.949 . S
H627 C592 0.950 . S
H628 C596 0.951 . S
H629 C597 0.950 . S
H630 C601 0.949 . S
H631 C602 0.950 . S
H632 C606 0.950 . S
H633 C608 0.950 . S
H634 C611 0.950 . S
H635 C613 0.950 . S
C636 C637 1.443 . S
C636 N640 1.376 . S
C636 C674 1.389 . S
C637 C636 1.443 . S
C637 C638 1.340 . S
C637 H677 0.951 . S
C638 C637 1.340 . S
C638 C639 1.439 . S
C638 H678 0.950 . S
C639 C638 1.439 . S
C639 N640 1.374 . S
C639 C673 1.395 . S
N640 C636 1.376 . S
N640 C639 1.374 . S
N640 Co641 2.008 . S
Co641 N640 2.008 . S
Co641 N642 1.995 . S
Co641 N647 2.008 . S
Co641 N652 1.995 . S
Co641 N657 2.282 . S
Co641 N663 2.282 . S
N642 Co641 1.995 . S
N642 C643 1.376 . S
N642 C646 1.383 . S
C643 N642 1.376 . S
C643 C644 1.446 . S
C643 C673 1.391 . S
C644 C643 1.446 . S
C644 C645 1.339 . S
C644 H679 0.949 . S
C645 C644 1.339 . S
C645 C646 1.439 . S
C645 H680 0.950 . S
C646 N642 1.383 . S
C646 C645 1.439 . S
C646 C675 1.392 . S
N647 Co641 2.008 . S
N647 C648 1.376 . S
N647 C651 1.374 . S
C648 N647 1.376 . S
C648 C649 1.443 . S
C648 C675 1.389 . S
C649 C648 1.443 . S
C649 C650 1.340 . S
C649 H681 0.951 . S
C650 C649 1.340 . S
C650 C651 1.439 . S
C650 H682 0.950 . S
C651 N647 1.374 . S
C651 C650 1.439 . S
C651 C676 1.395 . S
N652 Co641 1.995 . S
N652 C653 1.376 . S
N652 C656 1.383 . S
C653 N652 1.376 . S
C653 C654 1.446 . S
C653 C676 1.391 . S
C654 C653 1.446 . S
C654 C655 1.339 . S
C654 H683 0.949 . S
C655 C654 1.339 . S
C655 C656 1.439 . S
C655 H684 0.950 . S
C656 N652 1.383 . S
C656 C655 1.439 . S
C656 C674 1.392 . S
N657 Co641 2.282 . S
N657 C660 1.332 . S
N657 C662 1.332 . S
C658 C659 1.386 . S
C658 C661 1.388 . S
C659 C658 1.386 . S
C659 C660 1.382 . S
C659 H685 0.950 . S
C660 N657 1.332 . S
C660 C659 1.382 . S
C660 H671 0.952 . S
C661 C658 1.388 . S
C661 C662 1.382 . S
C661 H686 0.950 . S
C662 N657 1.332 . S
C662 C661 1.382 . S
C662 H672 0.948 . S
N663 Co641 2.282 . S
N663 C667 1.332 . S
N663 C668 1.332 . S
C664 C665 1.388 . S
C664 C668 1.382 . S
C664 H687 0.950 . S
C665 C664 1.388 . S
C665 C666 1.386 . S
C666 C665 1.386 . S
C666 C667 1.382 . S
C666 H688 0.950 . S
C667 N663 1.332 . S
C667 C666 1.382 . S
C667 H669 0.952 . S
C668 N663 1.332 . S
C668 C664 1.382 . S
C668 H670 0.948 . S
H669 C667 0.952 . S
H670 C668 0.948 . S
H671 C660 0.952 . S
H672 C662 0.948 . S
C673 C639 1.395 . S
C673 C643 1.391 . S
C674 C636 1.389 . S
C674 C656 1.392 . S
C675 C646 1.392 . S
C675 C648 1.389 . S
C676 C651 1.395 . S
C676 C653 1.391 . S
H677 C637 0.951 . S
H678 C638 0.950 . S
H679 C644 0.949 . S
H680 C645 0.950 . S
H681 C649 0.951 . S
H682 C650 0.950 . S
H683 C654 0.949 . S
H684 C655 0.950 . S
H685 C659 0.950 . S
H686 C661 0.950 . S
H687 C664 0.950 . S
H688 C666 0.950 . S
C689 C690 1.443 . S
C689 N693 1.376 . S
C689 C727 1.389 . S
C690 C689 1.443 . S
C690 C691 1.340 . S
C690 H730 0.951 . S
C691 C690 1.340 . S
C691 C692 1.439 . S
C691 H731 0.950 . S
C692 C691 1.439 . S
C692 N693 1.374 . S
C692 C726 1.395 . S
N693 C689 1.376 . S
N693 C692 1.374 . S
N693 Co694 2.008 . S
Co694 N693 2.008 . S
Co694 N695 1.995 . S
Co694 N700 2.008 . S
Co694 N705 1.995 . S
Co694 N710 2.282 . S
Co694 N716 2.282 . S
N695 Co694 1.995 . S
N695 C696 1.376 . S
N695 C699 1.383 . S
C696 N695 1.376 . S
C696 C697 1.446 . S
C696 C726 1.391 . S
C697 C696 1.446 . S
C697 C698 1.339 . S
C697 H732 0.949 . S
C698 C697 1.339 . S
C698 C699 1.439 . S
C698 H733 0.950 . S
C699 N695 1.383 . S
C699 C698 1.439 . S
C699 C728 1.392 . S
N700 Co694 2.008 . S
N700 C701 1.376 . S
N700 C704 1.374 . S
C701 N700 1.376 . S
C701 C702 1.443 . S
C701 C728 1.389 . S
C702 C701 1.443 . S
C702 C703 1.340 . S
C702 H734 0.951 . S
C703 C702 1.340 . S
C703 C704 1.439 . S
C703 H735 0.950 . S
C704 N700 1.374 . S
C704 C703 1.439 . S
C704 C729 1.395 . S
N705 Co694 1.995 . S
N705 C706 1.376 . S
N705 C709 1.383 . S
C706 N705 1.376 . S
C706 C707 1.446 . S
C706 C729 1.391 . S
C707 C706 1.446 . S
C707 C708 1.339 . S
C707 H736 0.949 . S
C708 C707 1.339 . S
C708 C709 1.439 . S
C708 H737 0.950 . S
C709 N705 1.383 . S
C709 C708 1.439 . S
C709 C727 1.392 . S
N710 Co694 2.282 . S
N710 C713 1.332 . S
N710 C715 1.332 . S
C711 C712 1.386 . S
C711 C714 1.388 . S
C712 C711 1.386 . S
C712 C713 1.382 . S
C712 H738 0.950 . S
C713 N710 1.332 . S
C713 C712 1.382 . S
C713 H724 0.952 . S
C714 C711 1.388 . S
C714 C715 1.382 . S
C714 H739 0.950 . S
C715 N710 1.332 . S
C715 C714 1.382 . S
C715 H725 0.948 . S
N716 Co694 2.282 . S
N716 C720 1.332 . S
N716 C721 1.332 . S
C717 C718 1.388 . S
C717 C721 1.382 . S
C717 H740 0.950 . S
C718 C717 1.388 . S
C718 C719 1.386 . S
C719 C718 1.386 . S
C719 C720 1.382 . S
C719 H741 0.950 . S
C720 N716 1.332 . S
C720 C719 1.382 . S
C720 H722 0.952 . S
C721 N716 1.332 . S
C721 C717 1.382 . S
C721 H723 0.948 . S
H722 C720 0.952 . S
H723 C721 0.948 . S
H724 C713 0.952 . S
H725 C715 0.948 . S
C726 C692 1.395 . S
C726 C696 1.391 . S
C727 C689 1.389 . S
C727 C709 1.392 . S
C728 C699 1.392 . S
C728 C701 1.389 . S
C729 C704 1.395 . S
C729 C706 1.391 . S
H730 C690 0.951 . S
H731 C691 0.950 . S
H732 C697 0.949 . S
H733 C698 0.950 . S
H734 C702 0.951 . S
H735 C703 0.950 . S
H736 C707 0.949 . S
H737 C708 0.950 . S
H738 C712 0.950 . S
H739 C714 0.950 . S
H740 C717 0.950 . S
H741 C719 0.950 . S
C742 C743 1.443 . S
C742 N746 1.376 . S
C742 C780 1.389 . S
C743 C742 1.443 . S
C743 C744 1.340 . S
C743 H783 0.951 . S
C744 C743 1.340 . S
C744 C745 1.439 . S
C744 H784 0.950 . S
C745 C744 1.439 . S
C745 N746 1.374 . S
C745 C779 1.395 . S
N746 C742 1.376 . S
N746 C745 1.374 . S
N746 Co747 2.008 . S
Co747 N746 2.008 . S
Co747 N748 1.995 . S
Co747 N753 2.008 . S
Co747 N758 1.995 . S
Co747 N763 2.282 . S
Co747 N769 2.282 . S
N748 Co747 1.995 . S
N748 C749 1.376 . S
N748 C752 1.383 . S
C749 N748 1.376 . S
C749 C750 1.446 . S
C749 C779 1.391 . S
C750 C749 1.446 . S
C750 C751 1.339 . S
C750 H785 0.949 . S
C751 C750 1.339 . S
C751 C752 1.439 . S
C751 H786 0.950 . S
C752 N748 1.383 . S
C752 C751 1.439 . S
C752 C781 1.392 . S
N753 Co747 2.008 . S
N753 C754 1.376 . S
N753 C757 1.374 . S
C754 N753 1.376 . S
C754 C755 1.443 . S
C754 C781 1.389 . S
C755 C754 1.443 . S
C755 C756 1.340 . S
C755 H787 0.951 . S
C756 C755 1.340 . S
C756 C757 1.439 . S
C756 H788 0.950 . S
C757 N753 1.374 . S
C757 C756 1.439 . S
C757 C782 1.395 . S
N758 Co747 1.995 . S
N758 C759 1.376 . S
N758 C762 1.383 . S
C759 N758 1.376 . S
C759 C760 1.446 . S
C759 C782 1.391 . S
C760 C759 1.446 . S
C760 C761 1.339 . S
C760 H789 0.949 . S
C761 C760 1.339 . S
C761 C762 1.439 . S
C761 H790 0.950 . S
C762 N758 1.383 . S
C762 C761 1.439 . S
C762 C780 1.392 . S
N763 Co747 2.282 . S
N763 C766 1.332 . S
N763 C768 1.332 . S
C764 C765 1.386 . S
C764 C767 1.388 . S
C765 C764 1.386 . S
C765 C766 1.382 . S
C765 H791 0.950 . S
C766 N763 1.332 . S
C766 C765 1.382 . S
C766 H777 0.952 . S
C767 C764 1.388 . S
C767 C768 1.382 . S
C767 H792 0.950 . S
C768 N763 1.332 . S
C768 C767 1.382 . S
C768 H778 0.948 . S
N769 Co747 2.282 . S
N769 C773 1.332 . S
N769 C774 1.332 . S
C770 C771 1.388 . S
C770 C774 1.382 . S
C770 H793 0.950 . S
C771 C770 1.388 . S
C771 C772 1.386 . S
C772 C771 1.386 . S
C772 C773 1.382 . S
C772 H794 0.950 . S
C773 N769 1.332 . S
C773 C772 1.382 . S
C773 H775 0.952 . S
C774 N769 1.332 . S
C774 C770 1.382 . S
C774 H776 0.948 . S
H775 C773 0.952 . S
H776 C774 0.948 . S
H777 C766 0.952 . S
H778 C768 0.948 . S
C779 C745 1.395 . S
C779 C749 1.391 . S
C780 C742 1.389 . S
C780 C762 1.392 . S
C781 C752 1.392 . S
C781 C754 1.389 . S
C782 C757 1.395 . S
C782 C759 1.391 . S
H783 C743 0.951 . S
H784 C744 0.950 . S
H785 C750 0.949 . S
H786 C751 0.950 . S
H787 C755 0.951 . S
H788 C756 0.950 . S
H789 C760 0.949 . S
H790 C761 0.950 . S
H791 C765 0.950 . S
H792 C767 0.950 . S
H793 C770 0.950 . S
H794 C772 0.950 . S
C795 C796 1.443 . S
C795 N799 1.376 . S
C795 C833 1.389 . S
C796 C795 1.443 . S
C796 C797 1.340 . S
C796 H836 0.951 . S
C797 C796 1.340 . S
C797 C798 1.439 . S
C797 H837 0.950 . S
C798 C797 1.439 . S
C798 N799 1.374 . S
C798 C832 1.395 . S
N799 C795 1.376 . S
N799 C798 1.374 . S
N799 Co800 2.008 . S
Co800 N799 2.008 . S
Co800 N801 1.995 . S
Co800 N806 2.008 . S
Co800 N811 1.995 . S
Co800 N816 2.282 . S
Co800 N822 2.282 . S
N801 Co800 1.995 . S
N801 C802 1.376 . S
N801 C805 1.383 . S
C802 N801 1.376 . S
C802 C803 1.446 . S
C802 C832 1.391 . S
C803 C802 1.446 . S
C803 C804 1.339 . S
C803 H838 0.949 . S
C804 C803 1.339 . S
C804 C805 1.439 . S
C804 H839 0.950 . S
C805 N801 1.383 . S
C805 C804 1.439 . S
C805 C834 1.392 . S
N806 Co800 2.008 . S
N806 C807 1.376 . S
N806 C810 1.374 . S
C807 N806 1.376 . S
C807 C808 1.443 . S
C807 C834 1.389 . S
C808 C807 1.443 . S
C808 C809 1.340 . S
C808 H840 0.951 . S
C809 C808 1.340 . S
C809 C810 1.439 . S
C809 H841 0.950 . S
C810 N806 1.374 . S
C810 C809 1.439 . S
C810 C835 1.395 . S
N811 Co800 1.995 . S
N811 C812 1.376 . S
N811 C815 1.383 . S
C812 N811 1.376 . S
C812 C813 1.446 . S
C812 C835 1.391 . S
C813 C812 1.446 . S
C813 C814 1.339 . S
C813 H842 0.949 . S
C814 C813 1.339 . S
C814 C815 1.439 . S
C814 H843 0.950 . S
C815 N811 1.383 . S
C815 C814 1.439 . S
C815 C833 1.392 . S
N816 Co800 2.282 . S
N816 C819 1.332 . S
N816 C821 1.332 . S
C817 C818 1.386 . S
C817 C820 1.388 . S
C818 C817 1.386 . S
C818 C819 1.382 . S
C818 H844 0.950 . S
C819 N816 1.332 . S
C819 C818 1.382 . S
C819 H830 0.952 . S
C820 C817 1.388 . S
C820 C821 1.382 . S
C820 H845 0.950 . S
C821 N816 1.332 . S
C821 C820 1.382 . S
C821 H831 0.948 . S
N822 Co800 2.282 . S
N822 C826 1.332 . S
N822 C827 1.332 . S
C823 C824 1.388 . S
C823 C827 1.382 . S
C823 H846 0.950 . S
C824 C823 1.388 . S
C824 C825 1.386 . S
C825 C824 1.386 . S
C825 C826 1.382 . S
C825 H847 0.950 . S
C826 N822 1.332 . S
C826 C825 1.382 . S
C826 H828 0.952 . S
C827 N822 1.332 . S
C827 C823 1.382 . S
C827 H829 0.948 . S
H828 C826 0.952 . S
H829 C827 0.948 . S
H830 C819 0.952 . S
H831 C821 0.948 . S
C832 C798 1.395 . S
C832 C802 1.391 . S
C833 C795 1.389 . S
C833 C815 1.392 . S
C834 C805 1.392 . S
C834 C807 1.389 . S
C835 C810 1.395 . S
C835 C812 1.391 . S
H836 C796 0.951 . S
H837 C797 0.950 . S
H838 C803 0.949 . S
H839 C804 0.950 . S
H840 C808 0.951 . S
H841 C809 0.950 . S
H842 C813 0.949 . S
H843 C814 0.950 . S
H844 C818 0.950 . S
H845 C820 0.950 . S
H846 C823 0.950 . S
H847 C825 0.950 . S
H848 C866 0.951 . S
H849 C868 0.951 . S
H850 C870 0.950 . S
H851 C871 0.950 . S
H852 C873 0.950 . S
H853 C876 0.950 . S
H854 C877 0.950 . S
H855 C879 0.950 . S
H856 C880 0.950 1_545 S
H857 C881 0.951 . S
H858 C883 0.951 . S
H859 C885 0.950 . S
H860 C886 0.950 . S
H861 C888 0.950 . S
H862 C891 0.950 . S
H863 C892 0.950 . S
H864 C894 0.950 . S
H865 C895 0.950 1_565 S
C866 H848 0.951 . S
C866 C867 1.366 . S
C866 C868 1.388 . S
C867 C866 1.366 . S
C867 C871 1.385 . S
C868 H849 0.951 . S
C868 C866 1.388 . S
C868 C869 1.366 . S
C869 C868 1.366 . S
C869 C870 1.414 . S
C869 C872 1.499 . S
C870 H850 0.950 . S
C870 C869 1.414 . S
C870 C871 1.374 . S
C871 H851 0.950 . S
C871 C867 1.385 . S
C871 C870 1.374 . S
C872 C869 1.499 . S
C872 C873 1.373 . S
C872 C874 1.389 . S
C873 H852 0.950 . S
C873 C872 1.373 . S
C873 C889 1.377 1_565 S
C874 C872 1.389 . S
C874 C875 1.524 . S
C874 C888 1.377 1_565 S
C875 C874 1.524 . S
C875 C876 1.397 . S
C875 C880 1.363 . S
C876 H853 0.950 . S
C876 C875 1.397 . S
C876 C877 1.334 . S
C877 H854 0.950 . S
C877 C876 1.334 . S
C877 C878 1.287 . S
C878 C877 1.287 . S
C878 C879 1.524 . S
C878 H897 0.913 . S
C879 H855 0.950 . S
C879 C878 1.524 . S
C879 C880 1.415 . S
C880 H856 0.950 1_565 S
C880 C875 1.363 . S
C880 C879 1.415 . S
C881 H857 0.951 . S
C881 C882 1.366 . S
C881 C883 1.388 . S
C882 C881 1.366 . S
C882 C886 1.385 . S
C883 H858 0.951 . S
C883 C881 1.388 . S
C883 C884 1.366 . S
C884 C883 1.366 . S
C884 C885 1.414 . S
C884 C887 1.499 . S
C885 H859 0.950 . S
C885 C884 1.414 . S
C885 C886 1.374 . S
C886 H860 0.950 . S
C886 C882 1.385 . S
C886 C885 1.374 . S
C887 C884 1.499 . S
C887 C888 1.373 . S
C887 C889 1.389 . S
C888 H861 0.950 . S
C888 C874 1.377 1_545 S
C888 C887 1.373 . S
C889 C873 1.377 1_545 S
C889 C887 1.389 . S
C889 C890 1.524 . S
C890 C889 1.524 . S
C890 C891 1.397 . S
C890 C895 1.363 . S
C891 H862 0.950 . S
C891 C890 1.397 . S
C891 C892 1.334 . S
C892 H863 0.950 . S
C892 C891 1.334 . S
C892 C893 1.287 . S
C893 C892 1.287 . S
C893 C894 1.524 . S
C893 H896 0.999 . S
C894 H864 0.950 . S
C894 C893 1.524 . S
C894 C895 1.415 . S
C895 H865 0.950 1_545 S
C895 C890 1.363 . S
C895 C894 1.415 . S
H896 C893 0.999 . S
H897 C878 0.913 . S
H898 C916 0.951 . S
H899 C918 0.951 . S
H900 C920 0.950 . S
H901 C921 0.950 . S
H902 C923 0.950 . S
H903 C926 0.950 . S
H904 C927 0.950 . S
H905 C929 0.950 . S
H906 C930 0.950 . S
H907 C931 0.951 . S
H908 C933 0.951 . S
H909 C935 0.950 . S
H910 C936 0.950 . S
H911 C938 0.950 . S
H912 C941 0.950 . S
H913 C942 0.950 . S
H914 C944 0.950 . S
H915 C945 0.950 . S
C916 H898 0.951 . S
C916 C917 1.366 . S
C916 C918 1.388 . S
C917 C916 1.366 . S
C917 C921 1.385 . S
C918 H899 0.951 . S
C918 C916 1.388 . S
C918 C919 1.366 . S
C919 C918 1.366 . S
C919 C920 1.414 . S
C919 C922 1.499 . S
C920 H900 0.950 . S
C920 C919 1.414 . S
C920 C921 1.374 . S
C921 H901 0.950 . S
C921 C917 1.385 . S
C921 C920 1.374 . S
C922 C919 1.499 . S
C922 C923 1.373 . S
C922 C924 1.389 . S
C923 H902 0.950 . S
C923 C922 1.373 . S
C923 C939 1.377 1_455 S
C924 C922 1.389 . S
C924 C925 1.524 . S
C924 C938 1.377 1_455 S
C925 C924 1.524 . S
C925 C926 1.397 . S
C925 C930 1.363 . S
C926 H903 0.950 . S
C926 C925 1.397 . S
C926 C927 1.334 . S
C927 H904 0.950 . S
C927 C926 1.334 . S
C927 C928 1.287 . S
C928 C927 1.287 . S
C928 C929 1.524 . S
C928 H947 0.913 . S
C929 H905 0.950 . S
C929 C928 1.524 . S
C929 C930 1.415 . S
C930 H906 0.950 . S
C930 C925 1.363 . S
C930 C929 1.415 . S
C931 H907 0.951 . S
C931 C932 1.366 . S
C931 C933 1.388 . S
C932 C931 1.366 . S
C932 C936 1.385 . S
C933 H908 0.951 . S
C933 C931 1.388 . S
C933 C934 1.366 . S
C934 C933 1.366 . S
C934 C935 1.414 . S
C934 C937 1.499 . S
C935 H909 0.950 . S
C935 C934 1.414 . S
C935 C936 1.374 . S
C936 H910 0.950 . S
C936 C932 1.385 . S
C936 C935 1.374 . S
C937 C934 1.499 . S
C937 C938 1.373 . S
C937 C939 1.389 . S
C938 H911 0.950 . S
C938 C924 1.377 1_655 S
C938 C937 1.373 . S
C939 C923 1.377 1_655 S
C939 C937 1.389 . S
C939 C940 1.524 . S
C940 C939 1.524 . S
C940 C941 1.397 . S
C940 C945 1.363 . S
C941 H912 0.950 . S
C941 C940 1.397 . S
C941 C942 1.334 . S
C942 H913 0.950 . S
C942 C941 1.334 . S
C942 C943 1.287 . S
C943 C942 1.287 . S
C943 C944 1.524 . S
C943 H946 0.999 . S
C944 H914 0.950 . S
C944 C943 1.524 . S
C944 C945 1.415 . S
C945 H915 0.950 . S
C945 C940 1.363 . S
C945 C944 1.415 . S
H946 C943 0.999 . S
H947 C928 0.913 . S
H948 C966 0.951 . S
H949 C968 0.951 . S
H950 C970 0.950 . S
H951 C971 0.950 . S
H952 C973 0.950 . S
H953 C976 0.950 . S
H954 C977 0.950 . S
H955 C979 0.950 . S
H956 C980 0.950 . S
H957 C981 0.951 . S
H958 C983 0.951 . S
H959 C985 0.950 . S
H960 C986 0.950 . S
H961 C988 0.950 . S
H962 C991 0.950 . S
H963 C992 0.950 . S
H964 C994 0.950 . S
H965 C995 0.950 . S
C966 H948 0.951 . S
C966 C967 1.366 . S
C966 C968 1.388 . S
C967 C966 1.366 . S
C967 C971 1.385 . S
C968 H949 0.951 . S
C968 C966 1.388 . S
C968 C969 1.366 . S
C969 C968 1.366 . S
C969 C970 1.414 . S
C969 C972 1.499 . S
C970 H950 0.950 . S
C970 C969 1.414 . S
C970 C971 1.374 . S
C971 H951 0.950 . S
C971 C967 1.385 . S
C971 C970 1.374 . S
C972 C969 1.499 . S
C972 C973 1.373 . S
C972 C974 1.389 . S
C973 H952 0.950 . S
C973 C972 1.373 . S
C973 C989 1.377 1_565 S
C974 C972 1.389 . S
C974 C975 1.524 . S
C974 C988 1.377 1_565 S
C975 C974 1.524 . S
C975 C976 1.397 . S
C975 C980 1.363 . S
C976 H953 0.950 . S
C976 C975 1.397 . S
C976 C977 1.334 . S
C977 H954 0.950 . S
C977 C976 1.334 . S
C977 C978 1.287 . S
C978 C977 1.287 . S
C978 C979 1.524 . S
C978 H997 0.913 . S
C979 H955 0.950 . S
C979 C978 1.524 . S
C979 C980 1.415 . S
C980 H956 0.950 . S
C980 C975 1.363 . S
C980 C979 1.415 . S
C981 H957 0.951 . S
C981 C982 1.366 . S
C981 C983 1.388 . S
C982 C981 1.366 . S
C982 C986 1.385 . S
C983 H958 0.951 . S
C983 C981 1.388 . S
C983 C984 1.366 . S
C984 C983 1.366 . S
C984 C985 1.414 . S
C984 C987 1.499 . S
C985 H959 0.950 . S
C985 C984 1.414 . S
C985 C986 1.374 . S
C986 H960 0.950 . S
C986 C982 1.385 . S
C986 C985 1.374 . S
C987 C984 1.499 . S
C987 C988 1.373 . S
C987 C989 1.389 . S
C988 H961 0.950 . S
C988 C974 1.377 1_545 S
C988 C987 1.373 . S
C989 C973 1.377 1_545 S
C989 C987 1.389 . S
C989 C990 1.524 . S
C990 C989 1.524 . S
C990 C991 1.397 . S
C990 C995 1.363 . S
C991 H962 0.950 . S
C991 C990 1.397 . S
C991 C992 1.334 . S
C992 H963 0.950 . S
C992 C991 1.334 . S
C992 C993 1.287 . S
C993 C992 1.287 . S
C993 C994 1.524 . S
C993 H996 0.999 . S
C994 H964 0.950 . S
C994 C993 1.524 . S
C994 C995 1.415 . S
C995 H965 0.950 . S
C995 C990 1.363 . S
C995 C994 1.415 . S
H996 C993 0.999 . S
H997 C978 0.913 . S
H998 C1016 0.951 . S
H999 C1018 0.951 . S
H1000 C1020 0.950 . S
H1001 C1021 0.950 . S
H1002 C1023 0.950 . S
H1003 C1026 0.950 . S
H1004 C1027 0.950 . S
H1005 C1029 0.950 . S
H1006 C1030 0.950 . S
H1007 C1031 0.951 . S
H1008 C1033 0.951 . S
H1009 C1035 0.950 . S
H1010 C1036 0.950 . S
H1011 C1038 0.950 . S
H1012 C1041 0.950 . S
H1013 C1042 0.950 . S
H1014 C1044 0.950 . S
H1015 C1045 0.950 . S
C1016 H998 0.951 . S
C1016 C1017 1.366 . S
C1016 C1018 1.388 . S
C1017 C1016 1.366 . S
C1017 C1021 1.385 . S
C1018 H999 0.951 . S
C1018 C1016 1.388 . S
C1018 C1019 1.366 . S
C1019 C1018 1.366 . S
C1019 C1020 1.414 . S
C1019 C1022 1.499 . S
C1020 H1000 0.950 . S
C1020 C1019 1.414 . S
C1020 C1021 1.374 . S
C1021 H1001 0.950 . S
C1021 C1017 1.385 . S
C1021 C1020 1.374 . S
C1022 C1019 1.499 . S
C1022 C1023 1.373 . S
C1022 C1024 1.389 . S
C1023 H1002 0.950 . S
C1023 C1022 1.373 . S
C1023 C1039 1.377 1_455 S
C1024 C1022 1.389 . S
C1024 C1025 1.524 . S
C1024 C1038 1.377 1_455 S
C1025 C1024 1.524 . S
C1025 C1026 1.397 . S
C1025 C1030 1.363 . S
C1026 H1003 0.950 . S
C1026 C1025 1.397 . S
C1026 C1027 1.334 . S
C1027 H1004 0.950 . S
C1027 C1026 1.334 . S
C1027 C1028 1.287 . S
C1028 C1027 1.287 . S
C1028 C1029 1.524 . S
C1028 H1047 0.913 . S
C1029 H1005 0.950 . S
C1029 C1028 1.524 . S
C1029 C1030 1.415 . S
C1030 H1006 0.950 . S
C1030 C1025 1.363 . S
C1030 C1029 1.415 . S
C1031 H1007 0.951 . S
C1031 C1032 1.366 . S
C1031 C1033 1.388 . S
C1032 C1031 1.366 . S
C1032 C1036 1.385 . S
C1033 H1008 0.951 . S
C1033 C1031 1.388 . S
C1033 C1034 1.366 . S
C1034 C1033 1.366 . S
C1034 C1035 1.414 . S
C1034 C1037 1.499 . S
C1035 H1009 0.950 . S
C1035 C1034 1.414 . S
C1035 C1036 1.374 . S
C1036 H1010 0.950 . S
C1036 C1032 1.385 . S
C1036 C1035 1.374 . S
C1037 C1034 1.499 . S
C1037 C1038 1.373 . S
C1037 C1039 1.389 . S
C1038 H1011 0.950 . S
C1038 C1024 1.377 1_655 S
C1038 C1037 1.373 . S
C1039 C1023 1.377 1_655 S
C1039 C1037 1.389 . S
C1039 C1040 1.524 . S
C1040 C1039 1.524 . S
C1040 C1041 1.397 . S
C1040 C1045 1.363 . S
C1041 H1012 0.950 . S
C1041 C1040 1.397 . S
C1041 C1042 1.334 . S
C1042 H1013 0.950 . S
C1042 C1041 1.334 . S
C1042 C1043 1.287 . S
C1043 C1042 1.287 . S
C1043 C1044 1.524 . S
C1043 H1046 0.999 . S
C1044 H1014 0.950 . S
C1044 C1043 1.524 . S
C1044 C1045 1.415 . S
C1045 H1015 0.950 . S
C1045 C1040 1.363 . S
C1045 C1044 1.415 . S
H1046 C1043 0.999 . S
H1047 C1028 0.913 . S
H1048 C1066 0.951 . S
H1049 C1068 0.951 1_556 S
H1050 C1070 0.950 . S
H1051 C1071 0.950 . S
H1052 C1073 0.950 . S
H1053 C1076 0.950 . S
H1054 C1077 0.950 . S
H1055 C1079 0.950 . S
H1056 C1080 0.950 . S
H1057 C1081 0.951 . S
H1058 C1083 0.951 . S
H1059 C1085 0.950 . S
H1060 C1086 0.950 . S
H1061 C1088 0.950 1_556 S
H1062 C1091 0.950 1_556 S
H1063 C1092 0.950 1_556 S
H1064 C1094 0.950 . S
H1065 C1095 0.950 . S
C1066 H1048 0.951 . S
C1066 C1067 1.366 . S
C1066 C1068 1.388 . S
C1067 C1066 1.366 . S
C1067 C1071 1.385 . S
C1068 H1049 0.951 1_554 S
C1068 C1066 1.388 . S
C1068 C1069 1.366 . S
C1069 C1068 1.366 . S
C1069 C1070 1.414 . S
C1069 C1072 1.499 . S
C1070 H1050 0.950 . S
C1070 C1069 1.414 . S
C1070 C1071 1.374 . S
C1071 H1051 0.950 . S
C1071 C1067 1.385 . S
C1071 C1070 1.374 . S
C1072 C1069 1.499 . S
C1072 C1073 1.373 . S
C1072 C1074 1.389 . S
C1073 H1052 0.950 . S
C1073 C1072 1.373 . S
C1073 C1089 1.377 . S
C1074 C1072 1.389 . S
C1074 C1075 1.524 . S
C1074 C1088 1.377 . S
C1075 C1074 1.524 . S
C1075 C1076 1.397 . S
C1075 C1080 1.363 1_554 S
C1076 H1053 0.950 . S
C1076 C1075 1.397 . S
C1076 C1077 1.334 . S
C1077 H1054 0.950 . S
C1077 C1076 1.334 . S
C1077 C1078 1.287 . S
C1078 C1077 1.287 . S
C1078 C1079 1.524 1_554 S
C1078 H1097 0.913 . S
C1079 H1055 0.950 . S
C1079 C1078 1.524 1_556 S
C1079 C1080 1.415 . S
C1080 H1056 0.950 . S
C1080 C1075 1.363 1_556 S
C1080 C1079 1.415 . S
C1081 H1057 0.951 . S
C1081 C1082 1.366 1_554 S
C1081 C1083 1.388 . S
C1082 C1081 1.366 1_556 S
C1082 C1086 1.385 . S
C1083 H1058 0.951 . S
C1083 C1081 1.388 . S
C1083 C1084 1.366 . S
C1084 C1083 1.366 . S
C1084 C1085 1.414 1_554 S
C1084 C1087 1.499 . S
C1085 H1059 0.950 . S
C1085 C1084 1.414 1_556 S
C1085 C1086 1.374 . S
C1086 H1060 0.950 . S
C1086 C1082 1.385 . S
C1086 C1085 1.374 . S
C1087 C1084 1.499 . S
C1087 C1088 1.373 . S
C1087 C1089 1.389 . S
C1088 H1061 0.950 1_554 S
C1088 C1074 1.377 . S
C1088 C1087 1.373 . S
C1089 C1073 1.377 . S
C1089 C1087 1.389 . S
C1089 C1090 1.524 . S
C1090 C1089 1.524 . S
C1090 C1091 1.397 . S
C1090 C1095 1.363 . S
C1091 H1062 0.950 1_554 S
C1091 C1090 1.397 . S
C1091 C1092 1.334 . S
C1092 H1063 0.950 1_554 S
C1092 C1091 1.334 . S
C1092 C1093 1.287 . S
C1093 C1092 1.287 . S
C1093 C1094 1.524 . S
C1093 H1096 0.999 . S
C1094 H1064 0.950 . S
C1094 C1093 1.524 . S
C1094 C1095 1.415 . S
C1095 H1065 0.950 . S
C1095 C1090 1.363 . S
C1095 C1094 1.415 . S
H1096 C1093 0.999 . S
H1097 C1078 0.913 . S
H1098 C1116 0.951 . S
H1099 C1118 0.951 . S
H1100 C1120 0.950 . S
H1101 C1121 0.950 . S
H1102 C1123 0.950 1_554 S
H1103 C1126 0.950 . S
H1104 C1127 0.950 . S
H1105 C1129 0.950 . S
H1106 C1130 0.950 . S
H1107 C1131 0.951 . S
H1108 C1133 0.951 . S
H1109 C1135 0.950 . S
H1110 C1136 0.950 . S
H1111 C1138 0.950 . S
H1112 C1141 0.950 . S
H1113 C1142 0.950 . S
H1114 C1144 0.950 . S
H1115 C1145 0.950 . S
C1116 H1098 0.951 . S
C1116 C1117 1.366 . S
C1116 C1118 1.388 . S
C1117 C1116 1.366 . S
C1117 C1121 1.385 . S
C1118 H1099 0.951 . S
C1118 C1116 1.388 . S
C1118 C1119 1.366 . S
C1119 C1118 1.366 . S
C1119 C1120 1.414 . S
C1119 C1122 1.499 . S
C1120 H1100 0.950 . S
C1120 C1119 1.414 . S
C1120 C1121 1.374 . S
C1121 H1101 0.950 . S
C1121 C1117 1.385 . S
C1121 C1120 1.374 . S
C1122 C1119 1.499 . S
C1122 C1123 1.373 . S
C1122 C1124 1.389 . S
C1123 H1102 0.950 1_556 S
C1123 C1122 1.373 . S
C1123 C1139 1.377 1_556 S
C1124 C1122 1.389 . S
C1124 C1125 1.524 . S
C1124 C1138 1.377 . S
C1125 C1124 1.524 . S
C1125 C1126 1.397 . S
C1125 C1130 1.363 . S
C1126 H1103 0.950 . S
C1126 C1125 1.397 . S
C1126 C1127 1.334 . S
C1127 H1104 0.950 . S
C1127 C1126 1.334 . S
C1127 C1128 1.287 . S
C1128 C1127 1.287 . S
C1128 C1129 1.524 . S
C1128 H1147 0.913 . S
C1129 H1105 0.950 . S
C1129 C1128 1.524 . S
C1129 C1130 1.415 . S
C1130 H1106 0.950 . S
C1130 C1125 1.363 . S
C1130 C1129 1.415 . S
C1131 H1107 0.951 . S
C1131 C1132 1.366 . S
C1131 C1133 1.388 1_554 S
C1132 C1131 1.366 . S
C1132 C1136 1.385 . S
C1133 H1108 0.951 . S
C1133 C1131 1.388 1_556 S
C1133 C1134 1.366 . S
C1134 C1133 1.366 . S
C1134 C1135 1.414 . S
C1134 C1137 1.499 . S
C1135 H1109 0.950 . S
C1135 C1134 1.414 . S
C1135 C1136 1.374 1_556 S
C1136 H1110 0.950 . S
C1136 C1132 1.385 . S
C1136 C1135 1.374 1_554 S
C1137 C1134 1.499 . S
C1137 C1138 1.373 . S
C1137 C1139 1.389 1_556 S
C1138 H1111 0.950 . S
C1138 C1124 1.377 . S
C1138 C1137 1.373 . S
C1139 C1123 1.377 1_554 S
C1139 C1137 1.389 1_554 S
C1139 C1140 1.524 . S
C1140 C1139 1.524 . S
C1140 C1141 1.397 . S
C1140 C1145 1.363 . S
C1141 H1112 0.950 . S
C1141 C1140 1.397 . S
C1141 C1142 1.334 . S
C1142 H1113 0.950 . S
C1142 C1141 1.334 . S
C1142 C1143 1.287 . S
C1143 C1142 1.287 . S
C1143 C1144 1.524 . S
C1143 H1146 0.999 . S
C1144 H1114 0.950 . S
C1144 C1143 1.524 . S
C1144 C1145 1.415 . S
C1145 H1115 0.950 . S
C1145 C1140 1.363 . S
C1145 C1144 1.415 . S
H1146 C1143 0.999 . S
H1147 C1128 0.913 . S
H1148 C1166 0.951 . S
H1149 C1168 0.951 . S
H1150 C1170 0.950 . S
H1151 C1171 0.950 . S
H1152 C1173 0.950 . S
H1153 C1176 0.950 . S
H1154 C1177 0.950 1_554 S
H1155 C1179 0.950 . S
H1156 C1180 0.950 . S
H1157 C1181 0.951 . S
H1158 C1183 0.951 . S
H1159 C1185 0.950 1_556 S
H1160 C1186 0.950 . S
H1161 C1188 0.950 . S
H1162 C1191 0.950 . S
H1163 C1192 0.950 . S
H1164 C1194 0.950 . S
H1165 C1195 0.950 . S
C1166 H1148 0.951 . S
C1166 C1167 1.366 . S
C1166 C1168 1.388 . S
C1167 C1166 1.366 . S
C1167 C1171 1.385 1_556 S
C1168 H1149 0.951 . S
C1168 C1166 1.388 . S
C1168 C1169 1.366 1_556 S
C1169 C1168 1.366 1_554 S
C1169 C1170 1.414 . S
C1169 C1172 1.499 . S
C1170 H1150 0.950 . S
C1170 C1169 1.414 . S
C1170 C1171 1.374 . S
C1171 H1151 0.950 . S
C1171 C1167 1.385 1_554 S
C1171 C1170 1.374 . S
C1172 C1169 1.499 . S
C1172 C1173 1.373 . S
C1172 C1174 1.389 . S
C1173 H1152 0.950 . S
C1173 C1172 1.373 . S
C1173 C1189 1.377 . S
C1174 C1172 1.389 . S
C1174 C1175 1.524 1_554 S
C1174 C1188 1.377 . S
C1175 C1174 1.524 1_556 S
C1175 C1176 1.397 1_556 S
C1175 C1180 1.363 . S
C1176 H1153 0.950 . S
C1176 C1175 1.397 1_554 S
C1176 C1177 1.334 1_554 S
C1177 H1154 0.950 1_556 S
C1177 C1176 1.334 1_556 S
C1177 C1178 1.287 . S
C1178 C1177 1.287 . S
C1178 C1179 1.524 . S
C1178 H1197 0.913 . S
C1179 H1155 0.950 . S
C1179 C1178 1.524 . S
C1179 C1180 1.415 . S
C1180 H1156 0.950 . S
C1180 C1175 1.363 . S
C1180 C1179 1.415 . S
C1181 H1157 0.951 . S
C1181 C1182 1.366 . S
C1181 C1183 1.388 . S
C1182 C1181 1.366 . S
C1182 C1186 1.385 . S
C1183 H1158 0.951 . S
C1183 C1181 1.388 . S
C1183 C1184 1.366 . S
C1184 C1183 1.366 . S
C1184 C1185 1.414 . S
C1184 C1187 1.499 . S
C1185 H1159 0.950 1_554 S
C1185 C1184 1.414 . S
C1185 C1186 1.374 . S
C1186 H1160 0.950 . S
C1186 C1182 1.385 . S
C1186 C1185 1.374 . S
C1187 C1184 1.499 . S
C1187 C1188 1.373 . S
C1187 C1189 1.389 . S
C1188 H1161 0.950 . S
C1188 C1174 1.377 . S
C1188 C1187 1.373 . S
C1189 C1173 1.377 . S
C1189 C1187 1.389 . S
C1189 C1190 1.524 . S
C1190 C1189 1.524 . S
C1190 C1191 1.397 . S
C1190 C1195 1.363 . S
C1191 H1162 0.950 . S
C1191 C1190 1.397 . S
C1191 C1192 1.334 . S
C1192 H1163 0.950 . S
C1192 C1191 1.334 . S
C1192 C1193 1.287 . S
C1193 C1192 1.287 . S
C1193 C1194 1.524 . S
C1193 H1196 0.999 . S
C1194 H1164 0.950 . S
C1194 C1193 1.524 . S
C1194 C1195 1.415 . S
C1195 H1165 0.950 . S
C1195 C1190 1.363 . S
C1195 C1194 1.415 . S
H1196 C1193 0.999 . S
H1197 C1178 0.913 . S
H1198 C1216 0.951 . S
H1199 C1218 0.951 . S
H1200 C1220 0.950 . S
H1201 C1221 0.950 . S
H1202 C1223 0.950 . S
H1203 C1226 0.950 . S
H1204 C1227 0.950 1_556 S
H1205 C1229 0.950 . S
H1206 C1230 0.950 . S
H1207 C1231 0.951 . S
H1208 C1233 0.951 . S
H1209 C1235 0.950 1_554 S
H1210 C1236 0.950 . S
H1211 C1238 0.950 . S
H1212 C1241 0.950 . S
H1213 C1242 0.950 . S
H1214 C1244 0.950 . S
H1215 C1245 0.950 . S
C1216 H1198 0.951 . S
C1216 C1217 1.366 . S
C1216 C1218 1.388 . S
C1217 C1216 1.366 . S
C1217 C1221 1.385 1_554 S
C1218 H1199 0.951 . S
C1218 C1216 1.388 . S
C1218 C1219 1.366 1_554 S
C1219 C1218 1.366 1_556 S
C1219 C1220 1.414 . S
C1219 C1222 1.499 . S
C1220 H1200 0.950 . S
C1220 C1219 1.414 . S
C1220 C1221 1.374 . S
C1221 H1201 0.950 . S
C1221 C1217 1.385 1_556 S
C1221 C1220 1.374 . S
C1222 C1219 1.499 . S
C1222 C1223 1.373 . S
C1222 C1224 1.389 . S
C1223 H1202 0.950 . S
C1223 C1222 1.373 . S
C1223 C1239 1.377 . S
C1224 C1222 1.389 . S
C1224 C1225 1.524 1_556 S
C1224 C1238 1.377 . S
C1225 C1224 1.524 1_554 S
C1225 C1226 1.397 1_554 S
C1225 C1230 1.363 . S
C1226 H1203 0.950 . S
C1226 C1225 1.397 1_556 S
C1226 C1227 1.334 1_556 S
C1227 H1204 0.950 1_554 S
C1227 C1226 1.334 1_554 S
C1227 C1228 1.287 . S
C1228 C1227 1.287 . S
C1228 C1229 1.524 . S
C1228 H1247 0.913 . S
C1229 H1205 0.950 . S
C1229 C1228 1.524 . S
C1229 C1230 1.415 . S
C1230 H1206 0.950 . S
C1230 C1225 1.363 . S
C1230 C1229 1.415 . S
C1231 H1207 0.951 . S
C1231 C1232 1.366 . S
C1231 C1233 1.388 . S
C1232 C1231 1.366 . S
C1232 C1236 1.385 . S
C1233 H1208 0.951 . S
C1233 C1231 1.388 . S
C1233 C1234 1.366 . S
C1234 C1233 1.366 . S
C1234 C1235 1.414 . S
C1234 C1237 1.499 . S
C1235 H1209 0.950 1_556 S
C1235 C1234 1.414 . S
C1235 C1236 1.374 . S
C1236 H1210 0.950 . S
C1236 C1232 1.385 . S
C1236 C1235 1.374 . S
C1237 C1234 1.499 . S
C1237 C1238 1.373 . S
C1237 C1239 1.389 . S
C1238 H1211 0.950 . S
C1238 C1224 1.377 . S
C1238 C1237 1.373 . S
C1239 C1223 1.377 . S
C1239 C1237 1.389 . S
C1239 C1240 1.524 . S
C1240 C1239 1.524 . S
C1240 C1241 1.397 . S
C1240 C1245 1.363 . S
C1241 H1212 0.950 . S
C1241 C1240 1.397 . S
C1241 C1242 1.334 . S
C1242 H1213 0.950 . S
C1242 C1241 1.334 . S
C1242 C1243 1.287 . S
C1243 C1242 1.287 . S
C1243 C1244 1.524 . S
C1243 H1246 0.999 . S
C1244 H1214 0.950 . S
C1244 C1243 1.524 . S
C1244 C1245 1.415 . S
C1245 H1215 0.950 . S
C1245 C1240 1.363 . S
C1245 C1244 1.415 . S
H1246 C1243 0.999 . S
H1247 C1228 0.913 . S
H1248 C1266 0.951 . S
H1249 C1268 0.951 . S
H1250 C1270 0.950 . S
H1251 C1271 0.950 . S
H1252 C1273 0.950 . S
H1253 C1276 0.950 . S
H1254 C1277 0.950 . S
H1255 C1279 0.950 . S
H1256 C1280 0.950 . S
H1257 C1281 0.951 . S
H1258 C1283 0.951 . S
H1259 C1285 0.950 . S
H1260 C1286 0.950 . S
H1261 C1288 0.950 . S
H1262 C1291 0.950 . S
H1263 C1292 0.950 . S
H1264 C1294 0.950 . S
H1265 C1295 0.950 . S
C1266 H1248 0.951 . S
C1266 C1267 1.366 . S
C1266 C1268 1.388 . S
C1267 C1266 1.366 . S
C1267 C1271 1.385 . S
C1268 H1249 0.951 . S
C1268 C1266 1.388 . S
C1268 C1269 1.366 . S
C1269 C1268 1.366 . S
C1269 C1270 1.414 . S
C1269 C1272 1.499 . S
C1270 H1250 0.950 . S
C1270 C1269 1.414 . S
C1270 C1271 1.374 . S
C1271 H1251 0.950 . S
C1271 C1267 1.385 . S
C1271 C1270 1.374 . S
C1272 C1269 1.499 . S
C1272 C1273 1.373 . S
C1272 C1274 1.389 . S
C1273 H1252 0.950 . S
C1273 C1272 1.373 . S
C1273 C1289 1.377 . S
C1274 C1272 1.389 . S
C1274 C1275 1.524 . S
C1274 C1288 1.377 . S
C1275 C1274 1.524 . S
C1275 C1276 1.397 . S
C1275 C1280 1.363 . S
C1276 H1253 0.950 . S
C1276 C1275 1.397 . S
C1276 C1277 1.334 . S
C1277 H1254 0.950 . S
C1277 C1276 1.334 . S
C1277 C1278 1.287 . S
C1278 C1277 1.287 . S
C1278 C1279 1.524 . S
C1278 H1297 0.913 . S
C1279 H1255 0.950 . S
C1279 C1278 1.524 . S
C1279 C1280 1.415 . S
C1280 H1256 0.950 . S
C1280 C1275 1.363 . S
C1280 C1279 1.415 . S
C1281 H1257 0.951 . S
C1281 C1282 1.366 . S
C1281 C1283 1.388 . S
C1282 C1281 1.366 . S
C1282 C1286 1.385 . S
C1283 H1258 0.951 . S
C1283 C1281 1.388 . S
C1283 C1284 1.366 . S
C1284 C1283 1.366 . S
C1284 C1285 1.414 . S
C1284 C1287 1.499 . S
C1285 H1259 0.950 . S
C1285 C1284 1.414 . S
C1285 C1286 1.374 . S
C1286 H1260 0.950 . S
C1286 C1282 1.385 . S
C1286 C1285 1.374 . S
C1287 C1284 1.499 . S
C1287 C1288 1.373 . S
C1287 C1289 1.389 . S
C1288 H1261 0.950 . S
C1288 C1274 1.377 . S
C1288 C1287 1.373 . S
C1289 C1273 1.377 . S
C1289 C1287 1.389 . S
C1289 C1290 1.524 . S
C1290 C1289 1.524 . S
C1290 C1291 1.397 . S
C1290 C1295 1.363 . S
C1291 H1262 0.950 . S
C1291 C1290 1.397 . S
C1291 C1292 1.334 . S
C1292 H1263 0.950 . S
C1292 C1291 1.334 . S
C1292 C1293 1.287 . S
C1293 C1292 1.287 . S
C1293 C1294 1.524 . S
C1293 H1296 0.999 . S
C1294 H1264 0.950 . S
C1294 C1293 1.524 . S
C1294 C1295 1.415 . S
C1295 H1265 0.950 . S
C1295 C1290 1.363 . S
C1295 C1294 1.415 . S
H1296 C1293 0.999 . S
H1297 C1278 0.913 . S
H1298 C1316 0.951 . S
H1299 C1318 0.951 . S
H1300 C1320 0.950 . S
H1301 C1321 0.950 . S
H1302 C1323 0.950 . S
H1303 C1326 0.950 . S
H1304 C1327 0.950 . S
H1305 C1329 0.950 . S
H1306 C1330 0.950 . S
H1307 C1331 0.951 . S
H1308 C1333 0.951 . S
H1309 C1335 0.950 . S
H1310 C1336 0.950 . S
H1311 C1338 0.950 . S
H1312 C1341 0.950 . S
H1313 C1342 0.950 . S
H1314 C1344 0.950 . S
H1315 C1345 0.950 . S
C1316 H1298 0.951 . S
C1316 C1317 1.366 . S
C1316 C1318 1.388 . S
C1317 C1316 1.366 . S
C1317 C1321 1.385 . S
C1318 H1299 0.951 . S
C1318 C1316 1.388 . S
C1318 C1319 1.366 . S
C1319 C1318 1.366 . S
C1319 C1320 1.414 . S
C1319 C1322 1.499 . S
C1320 H1300 0.950 . S
C1320 C1319 1.414 . S
C1320 C1321 1.374 . S
C1321 H1301 0.950 . S
C1321 C1317 1.385 . S
C1321 C1320 1.374 . S
C1322 C1319 1.499 . S
C1322 C1323 1.373 . S
C1322 C1324 1.389 . S
C1323 H1302 0.950 . S
C1323 C1322 1.373 . S
C1323 C1339 1.377 . S
C1324 C1322 1.389 . S
C1324 C1325 1.524 . S
C1324 C1338 1.377 . S
C1325 C1324 1.524 . S
C1325 C1326 1.397 . S
C1325 C1330 1.363 . S
C1326 H1303 0.950 . S
C1326 C1325 1.397 . S
C1326 C1327 1.334 . S
C1327 H1304 0.950 . S
C1327 C1326 1.334 . S
C1327 C1328 1.287 . S
C1328 C1327 1.287 . S
C1328 C1329 1.524 . S
C1328 H1347 0.913 . S
C1329 H1305 0.950 . S
C1329 C1328 1.524 . S
C1329 C1330 1.415 . S
C1330 H1306 0.950 . S
C1330 C1325 1.363 . S
C1330 C1329 1.415 . S
C1331 H1307 0.951 . S
C1331 C1332 1.366 . S
C1331 C1333 1.388 . S
C1332 C1331 1.366 . S
C1332 C1336 1.385 . S
C1333 H1308 0.951 . S
C1333 C1331 1.388 . S
C1333 C1334 1.366 . S
C1334 C1333 1.366 . S
C1334 C1335 1.414 . S
C1334 C1337 1.499 . S
C1335 H1309 0.950 . S
C1335 C1334 1.414 . S
C1335 C1336 1.374 . S
C1336 H1310 0.950 . S
C1336 C1332 1.385 . S
C1336 C1335 1.374 . S
C1337 C1334 1.499 . S
C1337 C1338 1.373 . S
C1337 C1339 1.389 . S
C1338 H1311 0.950 . S
C1338 C1324 1.377 . S
C1338 C1337 1.373 . S
C1339 C1323 1.377 . S
C1339 C1337 1.389 . S
C1339 C1340 1.524 . S
C1340 C1339 1.524 . S
C1340 C1341 1.397 . S
C1340 C1345 1.363 . S
C1341 H1312 0.950 . S
C1341 C1340 1.397 . S
C1341 C1342 1.334 . S
C1342 H1313 0.950 . S
C1342 C1341 1.334 . S
C1342 C1343 1.287 . S
C1343 C1342 1.287 . S
C1343 C1344 1.524 . S
C1343 H1346 0.999 . S
C1344 H1314 0.950 . S
C1344 C1343 1.524 . S
C1344 C1345 1.415 . S
C1345 H1315 0.950 . S
C1345 C1340 1.363 . S
C1345 C1344 1.415 . S
H1346 C1343 0.999 . S
H1347 C1328 0.913 . S
H1348 C1366 0.951 . S
H1349 C1368 0.951 . S
H1350 C1370 0.950 . S
H1351 C1371 0.950 . S
H1352 C1373 0.950 . S
H1353 C1376 0.950 . S
H1354 C1377 0.950 . S
H1355 C1379 0.950 . S
H1356 C1380 0.950 . S
H1357 C1381 0.951 . S
H1358 C1383 0.951 . S
H1359 C1385 0.950 . S
H1360 C1386 0.950 . S
H1361 C1388 0.950 . S
H1362 C1391 0.950 . S
H1363 C1392 0.950 . S
H1364 C1394 0.950 . S
H1365 C1395 0.950 . S
C1366 H1348 0.951 . S
C1366 C1367 1.366 . S
C1366 C1368 1.388 . S
C1367 C1366 1.366 . S
C1367 C1371 1.385 . S
C1368 H1349 0.951 . S
C1368 C1366 1.388 . S
C1368 C1369 1.366 . S
C1369 C1368 1.366 . S
C1369 C1370 1.414 . S
C1369 C1372 1.499 . S
C1370 H1350 0.950 . S
C1370 C1369 1.414 . S
C1370 C1371 1.374 . S
C1371 H1351 0.950 . S
C1371 C1367 1.385 . S
C1371 C1370 1.374 . S
C1372 C1369 1.499 . S
C1372 C1373 1.373 . S
C1372 C1374 1.389 . S
C1373 H1352 0.950 . S
C1373 C1372 1.373 . S
C1373 C1389 1.377 . S
C1374 C1372 1.389 . S
C1374 C1375 1.524 . S
C1374 C1388 1.377 . S
C1375 C1374 1.524 . S
C1375 C1376 1.397 . S
C1375 C1380 1.363 . S
C1376 H1353 0.950 . S
C1376 C1375 1.397 . S
C1376 C1377 1.334 . S
C1377 H1354 0.950 . S
C1377 C1376 1.334 . S
C1377 C1378 1.287 . S
C1378 C1377 1.287 . S
C1378 C1379 1.524 . S
C1378 H1397 0.913 . S
C1379 H1355 0.950 . S
C1379 C1378 1.524 . S
C1379 C1380 1.415 . S
C1380 H1356 0.950 . S
C1380 C1375 1.363 . S
C1380 C1379 1.415 . S
C1381 H1357 0.951 . S
C1381 C1382 1.366 . S
C1381 C1383 1.388 . S
C1382 C1381 1.366 . S
C1382 C1386 1.385 . S
C1383 H1358 0.951 . S
C1383 C1381 1.388 . S
C1383 C1384 1.366 . S
C1384 C1383 1.366 . S
C1384 C1385 1.414 . S
C1384 C1387 1.499 . S
C1385 H1359 0.950 . S
C1385 C1384 1.414 . S
C1385 C1386 1.374 . S
C1386 H1360 0.950 . S
C1386 C1382 1.385 . S
C1386 C1385 1.374 . S
C1387 C1384 1.499 . S
C1387 C1388 1.373 . S
C1387 C1389 1.389 . S
C1388 H1361 0.950 . S
C1388 C1374 1.377 . S
C1388 C1387 1.373 . S
C1389 C1373 1.377 . S
C1389 C1387 1.389 . S
C1389 C1390 1.524 . S
C1390 C1389 1.524 . S
C1390 C1391 1.397 . S
C1390 C1395 1.363 . S
C1391 H1362 0.950 . S
C1391 C1390 1.397 . S
C1391 C1392 1.334 . S
C1392 H1363 0.950 . S
C1392 C1391 1.334 . S
C1392 C1393 1.287 . S
C1393 C1392 1.287 . S
C1393 C1394 1.524 . S
C1393 H1396 0.999 . S
C1394 H1364 0.950 . S
C1394 C1393 1.524 . S
C1394 C1395 1.415 . S
C1395 H1365 0.950 . S
C1395 C1390 1.363 . S
C1395 C1394 1.415 . S
H1396 C1393 0.999 . S
H1397 C1378 0.913 . S
H1398 C1416 0.951 . S
H1399 C1418 0.951 . S
H1400 C1420 0.950 . S
H1401 C1421 0.950 . S
H1402 C1423 0.950 . S
H1403 C1426 0.950 . S
H1404 C1427 0.950 . S
H1405 C1429 0.950 . S
H1406 C1430 0.950 . S
H1407 C1431 0.951 . S
H1408 C1433 0.951 . S
H1409 C1435 0.950 . S
H1410 C1436 0.950 . S
H1411 C1438 0.950 . S
H1412 C1441 0.950 . S
H1413 C1442 0.950 . S
H1414 C1444 0.950 . S
H1415 C1445 0.950 . S
C1416 H1398 0.951 . S
C1416 C1417 1.366 . S
C1416 C1418 1.388 . S
C1417 C1416 1.366 . S
C1417 C1421 1.385 . S
C1418 H1399 0.951 . S
C1418 C1416 1.388 . S
C1418 C1419 1.366 . S
C1419 C1418 1.366 . S
C1419 C1420 1.414 . S
C1419 C1422 1.499 . S
C1420 H1400 0.950 . S
C1420 C1419 1.414 . S
C1420 C1421 1.374 . S
C1421 H1401 0.950 . S
C1421 C1417 1.385 . S
C1421 C1420 1.374 . S
C1422 C1419 1.499 . S
C1422 C1423 1.373 . S
C1422 C1424 1.389 . S
C1423 H1402 0.950 . S
C1423 C1422 1.373 . S
C1423 C1439 1.377 . S
C1424 C1422 1.389 . S
C1424 C1425 1.524 . S
C1424 C1438 1.377 . S
C1425 C1424 1.524 . S
C1425 C1426 1.397 . S
C1425 C1430 1.363 . S
C1426 H1403 0.950 . S
C1426 C1425 1.397 . S
C1426 C1427 1.334 . S
C1427 H1404 0.950 . S
C1427 C1426 1.334 . S
C1427 C1428 1.287 . S
C1428 C1427 1.287 . S
C1428 C1429 1.524 . S
C1428 H1447 0.913 . S
C1429 H1405 0.950 . S
C1429 C1428 1.524 . S
C1429 C1430 1.415 . S
C1430 H1406 0.950 . S
C1430 C1425 1.363 . S
C1430 C1429 1.415 . S
C1431 H1407 0.951 . S
C1431 C1432 1.366 . S
C1431 C1433 1.388 . S
C1432 C1431 1.366 . S
C1432 C1436 1.385 . S
C1433 H1408 0.951 . S
C1433 C1431 1.388 . S
C1433 C1434 1.366 . S
C1434 C1433 1.366 . S
C1434 C1435 1.414 . S
C1434 C1437 1.499 . S
C1435 H1409 0.950 . S
C1435 C1434 1.414 . S
C1435 C1436 1.374 . S
C1436 H1410 0.950 . S
C1436 C1432 1.385 . S
C1436 C1435 1.374 . S
C1437 C1434 1.499 . S
C1437 C1438 1.373 . S
C1437 C1439 1.389 . S
C1438 H1411 0.950 . S
C1438 C1424 1.377 . S
C1438 C1437 1.373 . S
C1439 C1423 1.377 . S
C1439 C1437 1.389 . S
C1439 C1440 1.524 . S
C1440 C1439 1.524 . S
C1440 C1441 1.397 . S
C1440 C1445 1.363 . S
C1441 H1412 0.950 . S
C1441 C1440 1.397 . S
C1441 C1442 1.334 . S
C1442 H1413 0.950 . S
C1442 C1441 1.334 . S
C1442 C1443 1.287 . S
C1443 C1442 1.287 . S
C1443 C1444 1.524 . S
C1443 H1446 0.999 . S
C1444 H1414 0.950 . S
C1444 C1443 1.524 . S
C1444 C1445 1.415 . S
C1445 H1415 0.950 . S
C1445 C1440 1.363 . S
C1445 C1444 1.415 . S
H1446 C1443 0.999 . S
H1447 C1428 0.913 . S
H1448 C1466 0.951 . S
H1449 C1468 0.951 . S
H1450 C1470 0.950 . S
H1451 C1471 0.950 . S
H1452 C1473 0.950 . S
H1453 C1476 0.950 . S
H1454 C1477 0.950 . S
H1455 C1479 0.950 . S
H1456 C1480 0.950 . S
H1457 C1481 0.951 . S
H1458 C1483 0.951 . S
H1459 C1485 0.950 . S
H1460 C1486 0.950 . S
H1461 C1488 0.950 . S
H1462 C1491 0.950 . S
H1463 C1492 0.950 . S
H1464 C1494 0.950 . S
H1465 C1495 0.950 . S
C1466 H1448 0.951 . S
C1466 C1467 1.366 . S
C1466 C1468 1.388 . S
C1467 C1466 1.366 . S
C1467 C1471 1.385 . S
C1468 H1449 0.951 . S
C1468 C1466 1.388 . S
C1468 C1469 1.366 . S
C1469 C1468 1.366 . S
C1469 C1470 1.414 . S
C1469 C1472 1.499 . S
C1470 H1450 0.950 . S
C1470 C1469 1.414 . S
C1470 C1471 1.374 . S
C1471 H1451 0.950 . S
C1471 C1467 1.385 . S
C1471 C1470 1.374 . S
C1472 C1469 1.499 . S
C1472 C1473 1.373 . S
C1472 C1474 1.389 . S
C1473 H1452 0.950 . S
C1473 C1472 1.373 . S
C1473 C1489 1.377 1_565 S
C1474 C1472 1.389 . S
C1474 C1475 1.524 . S
C1474 C1488 1.377 1_565 S
C1475 C1474 1.524 . S
C1475 C1476 1.397 . S
C1475 C1480 1.363 . S
C1476 H1453 0.950 . S
C1476 C1475 1.397 . S
C1476 C1477 1.334 . S
C1477 H1454 0.950 . S
C1477 C1476 1.334 . S
C1477 C1478 1.287 . S
C1478 C1477 1.287 . S
C1478 C1479 1.524 . S
C1478 H1497 0.913 . S
C1479 H1455 0.950 . S
C1479 C1478 1.524 . S
C1479 C1480 1.415 . S
C1480 H1456 0.950 . S
C1480 C1475 1.363 . S
C1480 C1479 1.415 . S
C1481 H1457 0.951 . S
C1481 C1482 1.366 . S
C1481 C1483 1.388 . S
C1482 C1481 1.366 . S
C1482 C1486 1.385 . S
C1483 H1458 0.951 . S
C1483 C1481 1.388 . S
C1483 C1484 1.366 . S
C1484 C1483 1.366 . S
C1484 C1485 1.414 . S
C1484 C1487 1.499 . S
C1485 H1459 0.950 . S
C1485 C1484 1.414 . S
C1485 C1486 1.374 . S
C1486 H1460 0.950 . S
C1486 C1482 1.385 . S
C1486 C1485 1.374 . S
C1487 C1484 1.499 . S
C1487 C1488 1.373 . S
C1487 C1489 1.389 . S
C1488 H1461 0.950 . S
C1488 C1474 1.377 1_545 S
C1488 C1487 1.373 . S
C1489 C1473 1.377 1_545 S
C1489 C1487 1.389 . S
C1489 C1490 1.524 . S
C1490 C1489 1.524 . S
C1490 C1491 1.397 . S
C1490 C1495 1.363 . S
C1491 H1462 0.950 . S
C1491 C1490 1.397 . S
C1491 C1492 1.334 . S
C1492 H1463 0.950 . S
C1492 C1491 1.334 . S
C1492 C1493 1.287 . S
C1493 C1492 1.287 . S
C1493 C1494 1.524 . S
C1493 H1496 0.999 . S
C1494 H1464 0.950 . S
C1494 C1493 1.524 . S
C1494 C1495 1.415 . S
C1495 H1465 0.950 . S
C1495 C1490 1.363 . S
C1495 C1494 1.415 . S
H1496 C1493 0.999 . S
H1497 C1478 0.913 . S
H1498 C1516 0.951 . S
H1499 C1518 0.951 . S
H1500 C1520 0.950 . S
H1501 C1521 0.950 . S
H1502 C1523 0.950 . S
H1503 C1526 0.950 . S
H1504 C1527 0.950 . S
H1505 C1529 0.950 . S
H1506 C1530 0.950 1_455 S
H1507 C1531 0.951 . S
H1508 C1533 0.951 . S
H1509 C1535 0.950 . S
H1510 C1536 0.950 . S
H1511 C1538 0.950 . S
H1512 C1541 0.950 . S
H1513 C1542 0.950 . S
H1514 C1544 0.950 . S
H1515 C1545 0.950 1_655 S
C1516 H1498 0.951 . S
C1516 C1517 1.366 . S
C1516 C1518 1.388 . S
C1517 C1516 1.366 . S
C1517 C1521 1.385 . S
C1518 H1499 0.951 . S
C1518 C1516 1.388 . S
C1518 C1519 1.366 . S
C1519 C1518 1.366 . S
C1519 C1520 1.414 . S
C1519 C1522 1.499 . S
C1520 H1500 0.950 . S
C1520 C1519 1.414 . S
C1520 C1521 1.374 . S
C1521 H1501 0.950 . S
C1521 C1517 1.385 . S
C1521 C1520 1.374 . S
C1522 C1519 1.499 . S
C1522 C1523 1.373 . S
C1522 C1524 1.389 . S
C1523 H1502 0.950 . S
C1523 C1522 1.373 . S
C1523 C1539 1.377 1_655 S
C1524 C1522 1.389 . S
C1524 C1525 1.524 . S
C1524 C1538 1.377 1_655 S
C1525 C1524 1.524 . S
C1525 C1526 1.397 . S
C1525 C1530 1.363 . S
C1526 H1503 0.950 . S
C1526 C1525 1.397 . S
C1526 C1527 1.334 . S
C1527 H1504 0.950 . S
C1527 C1526 1.334 . S
C1527 C1528 1.287 . S
C1528 C1527 1.287 . S
C1528 C1529 1.524 . S
C1528 H1547 0.913 . S
C1529 H1505 0.950 . S
C1529 C1528 1.524 . S
C1529 C1530 1.415 . S
C1530 H1506 0.950 1_655 S
C1530 C1525 1.363 . S
C1530 C1529 1.415 . S
C1531 H1507 0.951 . S
C1531 C1532 1.366 . S
C1531 C1533 1.388 . S
C1532 C1531 1.366 . S
C1532 C1536 1.385 . S
C1533 H1508 0.951 . S
C1533 C1531 1.388 . S
C1533 C1534 1.366 . S
C1534 C1533 1.366 . S
C1534 C1535 1.414 . S
C1534 C1537 1.499 . S
C1535 H1509 0.950 . S
C1535 C1534 1.414 . S
C1535 C1536 1.374 . S
C1536 H1510 0.950 . S
C1536 C1532 1.385 . S
C1536 C1535 1.374 . S
C1537 C1534 1.499 . S
C1537 C1538 1.373 . S
C1537 C1539 1.389 . S
C1538 H1511 0.950 . S
C1538 C1524 1.377 1_455 S
C1538 C1537 1.373 . S
C1539 C1523 1.377 1_455 S
C1539 C1537 1.389 . S
C1539 C1540 1.524 . S
C1540 C1539 1.524 . S
C1540 C1541 1.397 . S
C1540 C1545 1.363 . S
C1541 H1512 0.950 . S
C1541 C1540 1.397 . S
C1541 C1542 1.334 . S
C1542 H1513 0.950 . S
C1542 C1541 1.334 . S
C1542 C1543 1.287 . S
C1543 C1542 1.287 . S
C1543 C1544 1.524 . S
C1543 H1546 0.999 . S
C1544 H1514 0.950 . S
C1544 C1543 1.524 . S
C1544 C1545 1.415 . S
C1545 H1515 0.950 1_455 S
C1545 C1540 1.363 . S
C1545 C1544 1.415 . S
H1546 C1543 0.999 . S
H1547 C1528 0.913 . S
H1548 C1566 0.951 . S
H1549 C1568 0.951 . S
H1550 C1570 0.950 . S
H1551 C1571 0.950 . S
H1552 C1573 0.950 . S
H1553 C1576 0.950 . S
H1554 C1577 0.950 . S
H1555 C1579 0.950 . S
H1556 C1580 0.950 1_545 S
H1557 C1581 0.951 . S
H1558 C1583 0.951 . S
H1559 C1585 0.950 . S
H1560 C1586 0.950 . S
H1561 C1588 0.950 . S
H1562 C1591 0.950 . S
H1563 C1592 0.950 . S
H1564 C1594 0.950 . S
H1565 C1595 0.950 1_565 S
C1566 H1548 0.951 . S
C1566 C1567 1.366 . S
C1566 C1568 1.388 . S
C1567 C1566 1.366 . S
C1567 C1571 1.385 . S
C1568 H1549 0.951 . S
C1568 C1566 1.388 . S
C1568 C1569 1.366 . S
C1569 C1568 1.366 . S
C1569 C1570 1.414 . S
C1569 C1572 1.499 . S
C1570 H1550 0.950 . S
C1570 C1569 1.414 . S
C1570 C1571 1.374 . S
C1571 H1551 0.950 . S
C1571 C1567 1.385 . S
C1571 C1570 1.374 . S
C1572 C1569 1.499 . S
C1572 C1573 1.373 . S
C1572 C1574 1.389 . S
C1573 H1552 0.950 . S
C1573 C1572 1.373 . S
C1573 C1589 1.377 1_565 S
C1574 C1572 1.389 . S
C1574 C1575 1.524 . S
C1574 C1588 1.377 1_565 S
C1575 C1574 1.524 . S
C1575 C1576 1.397 . S
C1575 C1580 1.363 . S
C1576 H1553 0.950 . S
C1576 C1575 1.397 . S
C1576 C1577 1.334 . S
C1577 H1554 0.950 . S
C1577 C1576 1.334 . S
C1577 C1578 1.287 . S
C1578 C1577 1.287 . S
C1578 C1579 1.524 . S
C1578 H1597 0.913 . S
C1579 H1555 0.950 . S
C1579 C1578 1.524 . S
C1579 C1580 1.415 . S
C1580 H1556 0.950 1_565 S
C1580 C1575 1.363 . S
C1580 C1579 1.415 . S
C1581 H1557 0.951 . S
C1581 C1582 1.366 . S
C1581 C1583 1.388 . S
C1582 C1581 1.366 . S
C1582 C1586 1.385 . S
C1583 H1558 0.951 . S
C1583 C1581 1.388 . S
C1583 C1584 1.366 . S
C1584 C1583 1.366 . S
C1584 C1585 1.414 . S
C1584 C1587 1.499 . S
C1585 H1559 0.950 . S
C1585 C1584 1.414 . S
C1585 C1586 1.374 . S
C1586 H1560 0.950 . S
C1586 C1582 1.385 . S
C1586 C1585 1.374 . S
C1587 C1584 1.499 . S
C1587 C1588 1.373 . S
C1587 C1589 1.389 . S
C1588 H1561 0.950 . S
C1588 C1574 1.377 1_545 S
C1588 C1587 1.373 . S
C1589 C1573 1.377 1_545 S
C1589 C1587 1.389 . S
C1589 C1590 1.524 . S
C1590 C1589 1.524 . S
C1590 C1591 1.397 . S
C1590 C1595 1.363 . S
C1591 H1562 0.950 . S
C1591 C1590 1.397 . S
C1591 C1592 1.334 . S
C1592 H1563 0.950 . S
C1592 C1591 1.334 . S
C1592 C1593 1.287 . S
C1593 C1592 1.287 . S
C1593 C1594 1.524 . S
C1593 H1596 0.999 . S
C1594 H1564 0.950 . S
C1594 C1593 1.524 . S
C1594 C1595 1.415 . S
C1595 H1565 0.950 1_545 S
C1595 C1590 1.363 . S
C1595 C1594 1.415 . S
H1596 C1593 0.999 . S
H1597 C1578 0.913 . S
H1598 C1616 0.951 . S
H1599 C1618 0.951 . S
H1600 C1620 0.950 . S
H1601 C1621 0.950 . S
H1602 C1623 0.950 . S
H1603 C1626 0.950 . S
H1604 C1627 0.950 . S
H1605 C1629 0.950 . S
H1606 C1630 0.950 . S
H1607 C1631 0.951 . S
H1608 C1633 0.951 . S
H1609 C1635 0.950 . S
H1610 C1636 0.950 . S
H1611 C1638 0.950 . S
H1612 C1641 0.950 . S
H1613 C1642 0.950 . S
H1614 C1644 0.950 . S
H1615 C1645 0.950 . S
C1616 H1598 0.951 . S
C1616 C1617 1.366 . S
C1616 C1618 1.388 . S
C1617 C1616 1.366 . S
C1617 C1621 1.385 . S
C1618 H1599 0.951 . S
C1618 C1616 1.388 . S
C1618 C1619 1.366 . S
C1619 C1618 1.366 . S
C1619 C1620 1.414 . S
C1619 C1622 1.499 . S
C1620 H1600 0.950 . S
C1620 C1619 1.414 . S
C1620 C1621 1.374 . S
C1621 H1601 0.950 . S
C1621 C1617 1.385 . S
C1621 C1620 1.374 . S
C1622 C1619 1.499 . S
C1622 C1623 1.373 . S
C1622 C1624 1.389 . S
C1623 H1602 0.950 . S
C1623 C1622 1.373 . S
C1623 C1639 1.377 1_655 S
C1624 C1622 1.389 . S
C1624 C1625 1.524 . S
C1624 C1638 1.377 1_655 S
C1625 C1624 1.524 . S
C1625 C1626 1.397 . S
C1625 C1630 1.363 . S
C1626 H1603 0.950 . S
C1626 C1625 1.397 . S
C1626 C1627 1.334 . S
C1627 H1604 0.950 . S
C1627 C1626 1.334 . S
C1627 C1628 1.287 . S
C1628 C1627 1.287 . S
C1628 C1629 1.524 . S
C1628 H1647 0.913 . S
C1629 H1605 0.950 . S
C1629 C1628 1.524 . S
C1629 C1630 1.415 . S
C1630 H1606 0.950 . S
C1630 C1625 1.363 . S
C1630 C1629 1.415 . S
C1631 H1607 0.951 . S
C1631 C1632 1.366 . S
C1631 C1633 1.388 . S
C1632 C1631 1.366 . S
C1632 C1636 1.385 . S
C1633 H1608 0.951 . S
C1633 C1631 1.388 . S
C1633 C1634 1.366 . S
C1634 C1633 1.366 . S
C1634 C1635 1.414 . S
C1634 C1637 1.499 . S
C1635 H1609 0.950 . S
C1635 C1634 1.414 . S
C1635 C1636 1.374 . S
C1636 H1610 0.950 . S
C1636 C1632 1.385 . S
C1636 C1635 1.374 . S
C1637 C1634 1.499 . S
C1637 C1638 1.373 . S
C1637 C1639 1.389 . S
C1638 H1611 0.950 . S
C1638 C1624 1.377 1_455 S
C1638 C1637 1.373 . S
C1639 C1623 1.377 1_455 S
C1639 C1637 1.389 . S
C1639 C1640 1.524 . S
C1640 C1639 1.524 . S
C1640 C1641 1.397 . S
C1640 C1645 1.363 . S
C1641 H1612 0.950 . S
C1641 C1640 1.397 . S
C1641 C1642 1.334 . S
C1642 H1613 0.950 . S
C1642 C1641 1.334 . S
C1642 C1643 1.287 . S
C1643 C1642 1.287 . S
C1643 C1644 1.524 . S
C1643 H1646 0.999 . S
C1644 H1614 0.950 . S
C1644 C1643 1.524 . S
C1644 C1645 1.415 . S
C1645 H1615 0.950 . S
C1645 C1640 1.363 . S
C1645 C1644 1.415 . S
H1646 C1643 0.999 . S
H1647 C1628 0.913 . S
H1648 C1666 0.951 . S
H1649 C1668 0.951 . S
H1650 C1670 0.950 . S
H1651 C1671 0.950 . S
H1652 C1673 0.950 . S
H1653 C1676 0.950 . S
H1654 C1677 0.950 1_556 S
H1655 C1679 0.950 . S
H1656 C1680 0.950 . S
H1657 C1681 0.951 . S
H1658 C1683 0.951 . S
H1659 C1685 0.950 . S
H1660 C1686 0.950 . S
H1661 C1688 0.950 . S
H1662 C1691 0.950 . S
H1663 C1692 0.950 . S
H1664 C1694 0.950 . S
H1665 C1695 0.950 . S
C1666 H1648 0.951 . S
C1666 C1667 1.366 . S
C1666 C1668 1.388 . S
C1667 C1666 1.366 . S
C1667 C1671 1.385 . S
C1668 H1649 0.951 . S
C1668 C1666 1.388 . S
C1668 C1669 1.366 . S
C1669 C1668 1.366 . S
C1669 C1670 1.414 . S
C1669 C1672 1.499 . S
C1670 H1650 0.950 . S
C1670 C1669 1.414 . S
C1670 C1671 1.374 . S
C1671 H1651 0.950 . S
C1671 C1667 1.385 . S
C1671 C1670 1.374 . S
C1672 C1669 1.499 . S
C1672 C1673 1.373 . S
C1672 C1674 1.389 . S
C1673 H1652 0.950 . S
C1673 C1672 1.373 . S
C1673 C1689 1.377 . S
C1674 C1672 1.389 . S
C1674 C1675 1.524 . S
C1674 C1688 1.377 . S
C1675 C1674 1.524 . S
C1675 C1676 1.397 . S
C1675 C1680 1.363 . S
C1676 H1653 0.950 . S
C1676 C1675 1.397 . S
C1676 C1677 1.334 . S
C1677 H1654 0.950 1_554 S
C1677 C1676 1.334 . S
C1677 C1678 1.287 1_554 S
C1678 C1677 1.287 1_556 S
C1678 C1679 1.524 1_556 S
C1678 H1697 0.913 . S
C1679 H1655 0.950 . S
C1679 C1678 1.524 1_554 S
C1679 C1680 1.415 . S
C1680 H1656 0.950 . S
C1680 C1675 1.363 . S
C1680 C1679 1.415 . S
C1681 H1657 0.951 . S
C1681 C1682 1.366 . S
C1681 C1683 1.388 . S
C1682 C1681 1.366 . S
C1682 C1686 1.385 . S
C1683 H1658 0.951 . S
C1683 C1681 1.388 . S
C1683 C1684 1.366 . S
C1684 C1683 1.366 . S
C1684 C1685 1.414 . S
C1684 C1687 1.499 . S
C1685 H1659 0.950 . S
C1685 C1684 1.414 . S
C1685 C1686 1.374 . S
C1686 H1660 0.950 . S
C1686 C1682 1.385 . S
C1686 C1685 1.374 . S
C1687 C1684 1.499 . S
C1687 C1688 1.373 . S
C1687 C1689 1.389 . S
C1688 H1661 0.950 . S
C1688 C1674 1.377 . S
C1688 C1687 1.373 . S
C1689 C1673 1.377 . S
C1689 C1687 1.389 . S
C1689 C1690 1.524 . S
C1690 C1689 1.524 . S
C1690 C1691 1.397 . S
C1690 C1695 1.363 . S
C1691 H1662 0.950 . S
C1691 C1690 1.397 . S
C1691 C1692 1.334 . S
C1692 H1663 0.950 . S
C1692 C1691 1.334 . S
C1692 C1693 1.287 . S
C1693 C1692 1.287 . S
C1693 C1694 1.524 . S
C1693 H1696 0.999 . S
C1694 H1664 0.950 . S
C1694 C1693 1.524 . S
C1694 C1695 1.415 . S
C1695 H1665 0.950 . S
C1695 C1690 1.363 . S
C1695 C1694 1.415 . S
H1696 C1693 0.999 . S
H1697 C1678 0.913 . S
H1698 C1716 0.951 . S
H1699 C1718 0.951 . S
H1700 C1720 0.950 . S
H1701 C1721 0.950 . S
H1702 C1723 0.950 . S
H1703 C1726 0.950 . S
H1704 C1727 0.950 . S
H1705 C1729 0.950 . S
H1706 C1730 0.950 . S
H1707 C1731 0.951 . S
H1708 C1733 0.951 . S
H1709 C1735 0.950 . S
H1710 C1736 0.950 . S
H1711 C1738 0.950 . S
H1712 C1741 0.950 . S
H1713 C1742 0.950 . S
H1714 C1744 0.950 . S
H1715 C1745 0.950 . S
C1716 H1698 0.951 . S
C1716 C1717 1.366 . S
C1716 C1718 1.388 . S
C1717 C1716 1.366 . S
C1717 C1721 1.385 . S
C1718 H1699 0.951 . S
C1718 C1716 1.388 . S
C1718 C1719 1.366 . S
C1719 C1718 1.366 . S
C1719 C1720 1.414 . S
C1719 C1722 1.499 . S
C1720 H1700 0.950 . S
C1720 C1719 1.414 . S
C1720 C1721 1.374 . S
C1721 H1701 0.950 . S
C1721 C1717 1.385 . S
C1721 C1720 1.374 . S
C1722 C1719 1.499 . S
C1722 C1723 1.373 . S
C1722 C1724 1.389 . S
C1723 H1702 0.950 . S
C1723 C1722 1.373 . S
C1723 C1739 1.377 . S
C1724 C1722 1.389 . S
C1724 C1725 1.524 . S
C1724 C1738 1.377 . S
C1725 C1724 1.524 . S
C1725 C1726 1.397 . S
C1725 C1730 1.363 . S
C1726 H1703 0.950 . S
C1726 C1725 1.397 . S
C1726 C1727 1.334 . S
C1727 H1704 0.950 . S
C1727 C1726 1.334 . S
C1727 C1728 1.287 . S
C1728 C1727 1.287 . S
C1728 C1729 1.524 . S
C1728 H1747 0.913 . S
C1729 H1705 0.950 . S
C1729 C1728 1.524 . S
C1729 C1730 1.415 . S
C1730 H1706 0.950 . S
C1730 C1725 1.363 . S
C1730 C1729 1.415 . S
C1731 H1707 0.951 . S
C1731 C1732 1.366 . S
C1731 C1733 1.388 . S
C1732 C1731 1.366 . S
C1732 C1736 1.385 . S
C1733 H1708 0.951 . S
C1733 C1731 1.388 . S
C1733 C1734 1.366 . S
C1734 C1733 1.366 . S
C1734 C1735 1.414 . S
C1734 C1737 1.499 . S
C1735 H1709 0.950 . S
C1735 C1734 1.414 . S
C1735 C1736 1.374 . S
C1736 H1710 0.950 . S
C1736 C1732 1.385 . S
C1736 C1735 1.374 . S
C1737 C1734 1.499 . S
C1737 C1738 1.373 . S
C1737 C1739 1.389 . S
C1738 H1711 0.950 . S
C1738 C1724 1.377 . S
C1738 C1737 1.373 . S
C1739 C1723 1.377 . S
C1739 C1737 1.389 . S
C1739 C1740 1.524 . S
C1740 C1739 1.524 . S
C1740 C1741 1.397 . S
C1740 C1745 1.363 . S
C1741 H1712 0.950 . S
C1741 C1740 1.397 . S
C1741 C1742 1.334 . S
C1742 H1713 0.950 . S
C1742 C1741 1.334 . S
C1742 C1743 1.287 . S
C1743 C1742 1.287 . S
C1743 C1744 1.524 . S
C1743 H1746 0.999 . S
C1744 H1714 0.950 . S
C1744 C1743 1.524 . S
C1744 C1745 1.415 . S
C1745 H1715 0.950 . S
C1745 C1740 1.363 . S
C1745 C1744 1.415 . S
H1746 C1743 0.999 . S
H1747 C1728 0.913 . S
H1748 C1766 0.951 . S
H1749 C1768 0.951 . S
H1750 C1770 0.950 . S
H1751 C1771 0.950 . S
H1752 C1773 0.950 . S
H1753 C1776 0.950 . S
H1754 C1777 0.950 . S
H1755 C1779 0.950 . S
H1756 C1780 0.950 . S
H1757 C1781 0.951 . S
H1758 C1783 0.951 . S
H1759 C1785 0.950 . S
H1760 C1786 0.950 . S
H1761 C1788 0.950 . S
H1762 C1791 0.950 . S
H1763 C1792 0.950 . S
H1764 C1794 0.950 . S
H1765 C1795 0.950 . S
C1766 H1748 0.951 . S
C1766 C1767 1.366 . S
C1766 C1768 1.388 . S
C1767 C1766 1.366 . S
C1767 C1771 1.385 . S
C1768 H1749 0.951 . S
C1768 C1766 1.388 . S
C1768 C1769 1.366 . S
C1769 C1768 1.366 . S
C1769 C1770 1.414 . S
C1769 C1772 1.499 . S
C1770 H1750 0.950 . S
C1770 C1769 1.414 . S
C1770 C1771 1.374 . S
C1771 H1751 0.950 . S
C1771 C1767 1.385 . S
C1771 C1770 1.374 . S
C1772 C1769 1.499 . S
C1772 C1773 1.373 . S
C1772 C1774 1.389 . S
C1773 H1752 0.950 . S
C1773 C1772 1.373 . S
C1773 C1789 1.377 . S
C1774 C1772 1.389 . S
C1774 C1775 1.524 . S
C1774 C1788 1.377 . S
C1775 C1774 1.524 . S
C1775 C1776 1.397 . S
C1775 C1780 1.363 . S
C1776 H1753 0.950 . S
C1776 C1775 1.397 . S
C1776 C1777 1.334 . S
C1777 H1754 0.950 . S
C1777 C1776 1.334 . S
C1777 C1778 1.287 . S
C1778 C1777 1.287 . S
C1778 C1779 1.524 . S
C1778 H1797 0.913 . S
C1779 H1755 0.950 . S
C1779 C1778 1.524 . S
C1779 C1780 1.415 . S
C1780 H1756 0.950 . S
C1780 C1775 1.363 . S
C1780 C1779 1.415 . S
C1781 H1757 0.951 . S
C1781 C1782 1.366 . S
C1781 C1783 1.388 . S
C1782 C1781 1.366 . S
C1782 C1786 1.385 . S
C1783 H1758 0.951 . S
C1783 C1781 1.388 . S
C1783 C1784 1.366 . S
C1784 C1783 1.366 . S
C1784 C1785 1.414 . S
C1784 C1787 1.499 . S
C1785 H1759 0.950 . S
C1785 C1784 1.414 . S
C1785 C1786 1.374 . S
C1786 H1760 0.950 . S
C1786 C1782 1.385 . S
C1786 C1785 1.374 . S
C1787 C1784 1.499 . S
C1787 C1788 1.373 . S
C1787 C1789 1.389 . S
C1788 H1761 0.950 . S
C1788 C1774 1.377 . S
C1788 C1787 1.373 . S
C1789 C1773 1.377 . S
C1789 C1787 1.389 . S
C1789 C1790 1.524 . S
C1790 C1789 1.524 . S
C1790 C1791 1.397 . S
C1790 C1795 1.363 . S
C1791 H1762 0.950 . S
C1791 C1790 1.397 . S
C1791 C1792 1.334 . S
C1792 H1763 0.950 . S
C1792 C1791 1.334 . S
C1792 C1793 1.287 . S
C1793 C1792 1.287 . S
C1793 C1794 1.524 . S
C1793 H1796 0.999 . S
C1794 H1764 0.950 . S
C1794 C1793 1.524 . S
C1794 C1795 1.415 . S
C1795 H1765 0.950 . S
C1795 C1790 1.363 . S
C1795 C1794 1.415 . S
H1796 C1793 0.999 . S
H1797 C1778 0.913 . S
H1798 C1816 0.951 . S
H1799 C1818 0.951 . S
H1800 C1820 0.950 . S
H1801 C1821 0.950 . S
H1802 C1823 0.950 . S
H1803 C1826 0.950 . S
H1804 C1827 0.950 . S
H1805 C1829 0.950 . S
H1806 C1830 0.950 . S
H1807 C1831 0.951 . S
H1808 C1833 0.951 . S
H1809 C1835 0.950 . S
H1810 C1836 0.950 . S
H1811 C1838 0.950 . S
H1812 C1841 0.950 . S
H1813 C1842 0.950 . S
H1814 C1844 0.950 . S
H1815 C1845 0.950 . S
C1816 H1798 0.951 . S
C1816 C1817 1.366 . S
C1816 C1818 1.388 . S
C1817 C1816 1.366 . S
C1817 C1821 1.385 . S
C1818 H1799 0.951 . S
C1818 C1816 1.388 . S
C1818 C1819 1.366 . S
C1819 C1818 1.366 . S
C1819 C1820 1.414 . S
C1819 C1822 1.499 . S
C1820 H1800 0.950 . S
C1820 C1819 1.414 . S
C1820 C1821 1.374 . S
C1821 H1801 0.950 . S
C1821 C1817 1.385 . S
C1821 C1820 1.374 . S
C1822 C1819 1.499 . S
C1822 C1823 1.373 . S
C1822 C1824 1.389 . S
C1823 H1802 0.950 . S
C1823 C1822 1.373 . S
C1823 C1839 1.377 . S
C1824 C1822 1.389 . S
C1824 C1825 1.524 . S
C1824 C1838 1.377 . S
C1825 C1824 1.524 . S
C1825 C1826 1.397 . S
C1825 C1830 1.363 . S
C1826 H1803 0.950 . S
C1826 C1825 1.397 . S
C1826 C1827 1.334 . S
C1827 H1804 0.950 . S
C1827 C1826 1.334 . S
C1827 C1828 1.287 . S
C1828 C1827 1.287 . S
C1828 C1829 1.524 . S
C1828 H1847 0.913 . S
C1829 H1805 0.950 . S
C1829 C1828 1.524 . S
C1829 C1830 1.415 . S
C1830 H1806 0.950 . S
C1830 C1825 1.363 . S
C1830 C1829 1.415 . S
C1831 H1807 0.951 . S
C1831 C1832 1.366 . S
C1831 C1833 1.388 . S
C1832 C1831 1.366 . S
C1832 C1836 1.385 . S
C1833 H1808 0.951 . S
C1833 C1831 1.388 . S
C1833 C1834 1.366 . S
C1834 C1833 1.366 . S
C1834 C1835 1.414 . S
C1834 C1837 1.499 . S
C1835 H1809 0.950 . S
C1835 C1834 1.414 . S
C1835 C1836 1.374 . S
C1836 H1810 0.950 . S
C1836 C1832 1.385 . S
C1836 C1835 1.374 . S
C1837 C1834 1.499 . S
C1837 C1838 1.373 . S
C1837 C1839 1.389 . S
C1838 H1811 0.950 . S
C1838 C1824 1.377 . S
C1838 C1837 1.373 . S
C1839 C1823 1.377 . S
C1839 C1837 1.389 . S
C1839 C1840 1.524 . S
C1840 C1839 1.524 . S
C1840 C1841 1.397 . S
C1840 C1845 1.363 . S
C1841 H1812 0.950 . S
C1841 C1840 1.397 . S
C1841 C1842 1.334 . S
C1842 H1813 0.950 . S
C1842 C1841 1.334 . S
C1842 C1843 1.287 1_556 S
C1843 C1842 1.287 1_554 S
C1843 C1844 1.524 . S
C1843 H1846 0.999 . S
C1844 H1814 0.950 . S
C1844 C1843 1.524 . S
C1844 C1845 1.415 1_554 S
C1845 H1815 0.950 . S
C1845 C1840 1.363 . S
C1845 C1844 1.415 1_556 S
H1846 C1843 0.999 . S
H1847 C1828 0.913 . S
H1848 C1866 0.951 . S
H1849 C1868 0.951 . S
H1850 C1870 0.950 . S
H1851 C1871 0.950 . S
H1852 C1873 0.950 . S
H1853 C1876 0.950 . S
H1854 C1877 0.950 . S
H1855 C1879 0.950 . S
H1856 C1880 0.950 . S
H1857 C1881 0.951 . S
H1858 C1883 0.951 . S
H1859 C1885 0.950 . S
H1860 C1886 0.950 . S
H1861 C1888 0.950 . S
H1862 C1891 0.950 . S
H1863 C1892 0.950 . S
H1864 C1894 0.950 . S
H1865 C1895 0.950 . S
C1866 H1848 0.951 . S
C1866 C1867 1.366 . S
C1866 C1868 1.388 . S
C1867 C1866 1.366 . S
C1867 C1871 1.385 . S
C1868 H1849 0.951 . S
C1868 C1866 1.388 . S
C1868 C1869 1.366 . S
C1869 C1868 1.366 . S
C1869 C1870 1.414 . S
C1869 C1872 1.499 . S
C1870 H1850 0.950 . S
C1870 C1869 1.414 . S
C1870 C1871 1.374 . S
C1871 H1851 0.950 . S
C1871 C1867 1.385 . S
C1871 C1870 1.374 . S
C1872 C1869 1.499 . S
C1872 C1873 1.373 . S
C1872 C1874 1.389 . S
C1873 H1852 0.950 . S
C1873 C1872 1.373 . S
C1873 C1889 1.377 . S
C1874 C1872 1.389 . S
C1874 C1875 1.524 . S
C1874 C1888 1.377 . S
C1875 C1874 1.524 . S
C1875 C1876 1.397 . S
C1875 C1880 1.363 . S
C1876 H1853 0.950 . S
C1876 C1875 1.397 . S
C1876 C1877 1.334 . S
C1877 H1854 0.950 . S
C1877 C1876 1.334 . S
C1877 C1878 1.287 . S
C1878 C1877 1.287 . S
C1878 C1879 1.524 . S
C1878 H1897 0.913 . S
C1879 H1855 0.950 . S
C1879 C1878 1.524 . S
C1879 C1880 1.415 . S
C1880 H1856 0.950 . S
C1880 C1875 1.363 . S
C1880 C1879 1.415 . S
C1881 H1857 0.951 . S
C1881 C1882 1.366 . S
C1881 C1883 1.388 . S
C1882 C1881 1.366 . S
C1882 C1886 1.385 . S
C1883 H1858 0.951 . S
C1883 C1881 1.388 . S
C1883 C1884 1.366 . S
C1884 C1883 1.366 . S
C1884 C1885 1.414 . S
C1884 C1887 1.499 . S
C1885 H1859 0.950 . S
C1885 C1884 1.414 . S
C1885 C1886 1.374 . S
C1886 H1860 0.950 . S
C1886 C1882 1.385 . S
C1886 C1885 1.374 . S
C1887 C1884 1.499 . S
C1887 C1888 1.373 . S
C1887 C1889 1.389 . S
C1888 H1861 0.950 . S
C1888 C1874 1.377 . S
C1888 C1887 1.373 . S
C1889 C1873 1.377 . S
C1889 C1887 1.389 . S
C1889 C1890 1.524 . S
C1890 C1889 1.524 . S
C1890 C1891 1.397 . S
C1890 C1895 1.363 . S
C1891 H1862 0.950 . S
C1891 C1890 1.397 . S
C1891 C1892 1.334 . S
C1892 H1863 0.950 . S
C1892 C1891 1.334 . S
C1892 C1893 1.287 . S
C1893 C1892 1.287 . S
C1893 C1894 1.524 . S
C1893 H1896 0.999 . S
C1894 H1864 0.950 . S
C1894 C1893 1.524 . S
C1894 C1895 1.415 . S
C1895 H1865 0.950 . S
C1895 C1890 1.363 . S
C1895 C1894 1.415 . S
H1896 C1893 0.999 . S
H1897 C1878 0.913 . S
H1898 C1916 0.951 . S
H1899 C1918 0.951 . S
H1900 C1920 0.950 . S
H1901 C1921 0.950 . S
H1902 C1923 0.950 . S
H1903 C1926 0.950 . S
H1904 C1927 0.950 . S
H1905 C1929 0.950 . S
H1906 C1930 0.950 . S
H1907 C1931 0.951 . S
H1908 C1933 0.951 . S
H1909 C1935 0.950 . S
H1910 C1936 0.950 . S
H1911 C1938 0.950 . S
H1912 C1941 0.950 . S
H1913 C1942 0.950 . S
H1914 C1944 0.950 . S
H1915 C1945 0.950 . S
C1916 H1898 0.951 . S
C1916 C1917 1.366 . S
C1916 C1918 1.388 . S
C1917 C1916 1.366 . S
C1917 C1921 1.385 . S
C1918 H1899 0.951 . S
C1918 C1916 1.388 . S
C1918 C1919 1.366 . S
C1919 C1918 1.366 . S
C1919 C1920 1.414 . S
C1919 C1922 1.499 . S
C1920 H1900 0.950 . S
C1920 C1919 1.414 . S
C1920 C1921 1.374 . S
C1921 H1901 0.950 . S
C1921 C1917 1.385 . S
C1921 C1920 1.374 . S
C1922 C1919 1.499 . S
C1922 C1923 1.373 . S
C1922 C1924 1.389 . S
C1923 H1902 0.950 . S
C1923 C1922 1.373 . S
C1923 C1939 1.377 . S
C1924 C1922 1.389 . S
C1924 C1925 1.524 . S
C1924 C1938 1.377 . S
C1925 C1924 1.524 . S
C1925 C1926 1.397 . S
C1925 C1930 1.363 . S
C1926 H1903 0.950 . S
C1926 C1925 1.397 . S
C1926 C1927 1.334 . S
C1927 H1904 0.950 . S
C1927 C1926 1.334 . S
C1927 C1928 1.287 . S
C1928 C1927 1.287 . S
C1928 C1929 1.524 . S
C1928 H1947 0.913 . S
C1929 H1905 0.950 . S
C1929 C1928 1.524 . S
C1929 C1930 1.415 . S
C1930 H1906 0.950 . S
C1930 C1925 1.363 . S
C1930 C1929 1.415 . S
C1931 H1907 0.951 . S
C1931 C1932 1.366 . S
C1931 C1933 1.388 . S
C1932 C1931 1.366 . S
C1932 C1936 1.385 . S
C1933 H1908 0.951 . S
C1933 C1931 1.388 . S
C1933 C1934 1.366 . S
C1934 C1933 1.366 . S
C1934 C1935 1.414 . S
C1934 C1937 1.499 . S
C1935 H1909 0.950 . S
C1935 C1934 1.414 . S
C1935 C1936 1.374 . S
C1936 H1910 0.950 . S
C1936 C1932 1.385 . S
C1936 C1935 1.374 . S
C1937 C1934 1.499 . S
C1937 C1938 1.373 . S
C1937 C1939 1.389 . S
C1938 H1911 0.950 . S
C1938 C1924 1.377 . S
C1938 C1937 1.373 . S
C1939 C1923 1.377 . S
C1939 C1937 1.389 . S
C1939 C1940 1.524 . S
C1940 C1939 1.524 . S
C1940 C1941 1.397 . S
C1940 C1945 1.363 . S
C1941 H1912 0.950 . S
C1941 C1940 1.397 . S
C1941 C1942 1.334 . S
C1942 H1913 0.950 . S
C1942 C1941 1.334 . S
C1942 C1943 1.287 . S
C1943 C1942 1.287 . S
C1943 C1944 1.524 . S
C1943 H1946 0.999 . S
C1944 H1914 0.950 . S
C1944 C1943 1.524 . S
C1944 C1945 1.415 . S
C1945 H1915 0.950 . S
C1945 C1940 1.363 . S
C1945 C1944 1.415 . S
H1946 C1943 0.999 . S
H1947 C1928 0.913 . S
H1948 C1966 0.951 . S
H1949 C1968 0.951 . S
H1950 C1970 0.950 . S
H1951 C1971 0.950 . S
H1952 C1973 0.950 . S
H1953 C1976 0.950 . S
H1954 C1977 0.950 . S
H1955 C1979 0.950 . S
H1956 C1980 0.950 . S
H1957 C1981 0.951 . S
H1958 C1983 0.951 . S
H1959 C1985 0.950 . S
H1960 C1986 0.950 . S
H1961 C1988 0.950 . S
H1962 C1991 0.950 . S
H1963 C1992 0.950 . S
H1964 C1994 0.950 . S
H1965 C1995 0.950 . S
C1966 H1948 0.951 . S
C1966 C1967 1.366 . S
C1966 C1968 1.388 . S
C1967 C1966 1.366 . S
C1967 C1971 1.385 . S
C1968 H1949 0.951 . S
C1968 C1966 1.388 . S
C1968 C1969 1.366 . S
C1969 C1968 1.366 . S
C1969 C1970 1.414 . S
C1969 C1972 1.499 . S
C1970 H1950 0.950 . S
C1970 C1969 1.414 . S
C1970 C1971 1.374 . S
C1971 H1951 0.950 . S
C1971 C1967 1.385 . S
C1971 C1970 1.374 . S
C1972 C1969 1.499 . S
C1972 C1973 1.373 . S
C1972 C1974 1.389 . S
C1973 H1952 0.950 . S
C1973 C1972 1.373 . S
C1973 C1989 1.377 . S
C1974 C1972 1.389 . S
C1974 C1975 1.524 . S
C1974 C1988 1.377 . S
C1975 C1974 1.524 . S
C1975 C1976 1.397 . S
C1975 C1980 1.363 . S
C1976 H1953 0.950 . S
C1976 C1975 1.397 . S
C1976 C1977 1.334 . S
C1977 H1954 0.950 . S
C1977 C1976 1.334 . S
C1977 C1978 1.287 . S
C1978 C1977 1.287 . S
C1978 C1979 1.524 . S
C1978 H1997 0.913 . S
C1979 H1955 0.950 . S
C1979 C1978 1.524 . S
C1979 C1980 1.415 . S
C1980 H1956 0.950 . S
C1980 C1975 1.363 . S
C1980 C1979 1.415 . S
C1981 H1957 0.951 . S
C1981 C1982 1.366 . S
C1981 C1983 1.388 . S
C1982 C1981 1.366 . S
C1982 C1986 1.385 . S
C1983 H1958 0.951 . S
C1983 C1981 1.388 . S
C1983 C1984 1.366 . S
C1984 C1983 1.366 . S
C1984 C1985 1.414 . S
C1984 C1987 1.499 . S
C1985 H1959 0.950 . S
C1985 C1984 1.414 . S
C1985 C1986 1.374 . S
C1986 H1960 0.950 . S
C1986 C1982 1.385 . S
C1986 C1985 1.374 . S
C1987 C1984 1.499 . S
C1987 C1988 1.373 . S
C1987 C1989 1.389 . S
C1988 H1961 0.950 . S
C1988 C1974 1.377 . S
C1988 C1987 1.373 . S
C1989 C1973 1.377 . S
C1989 C1987 1.389 . S
C1989 C1990 1.524 . S
C1990 C1989 1.524 . S
C1990 C1991 1.397 . S
C1990 C1995 1.363 . S
C1991 H1962 0.950 . S
C1991 C1990 1.397 . S
C1991 C1992 1.334 . S
C1992 H1963 0.950 . S
C1992 C1991 1.334 . S
C1992 C1993 1.287 . S
C1993 C1992 1.287 . S
C1993 C1994 1.524 . S
C1993 H1996 0.999 . S
C1994 H1964 0.950 . S
C1994 C1993 1.524 . S
C1994 C1995 1.415 . S
C1995 H1965 0.950 . S
C1995 C1990 1.363 . S
C1995 C1994 1.415 . S
H1996 C1993 0.999 . S
H1997 C1978 0.913 . S
H1998 C2016 0.951 . S
H1999 C2018 0.951 . S
H2000 C2020 0.950 . S
H2001 C2021 0.950 . S
H2002 C2023 0.950 . S
H2003 C2026 0.950 . S
H2004 C2027 0.950 . S
H2005 C2029 0.950 . S
H2006 C2030 0.950 . S
H2007 C2031 0.951 . S
H2008 C2033 0.951 . S
H2009 C2035 0.950 . S
H2010 C2036 0.950 . S
H2011 C2038 0.950 . S
H2012 C2041 0.950 . S
H2013 C2042 0.950 . S
H2014 C2044 0.950 . S
H2015 C2045 0.950 . S
C2016 H1998 0.951 . S
C2016 C2017 1.366 . S
C2016 C2018 1.388 . S
C2017 C2016 1.366 . S
C2017 C2021 1.385 . S
C2018 H1999 0.951 . S
C2018 C2016 1.388 . S
C2018 C2019 1.366 . S
C2019 C2018 1.366 . S
C2019 C2020 1.414 . S
C2019 C2022 1.499 . S
C2020 H2000 0.950 . S
C2020 C2019 1.414 . S
C2020 C2021 1.374 . S
C2021 H2001 0.950 . S
C2021 C2017 1.385 . S
C2021 C2020 1.374 . S
C2022 C2019 1.499 . S
C2022 C2023 1.373 . S
C2022 C2024 1.389 . S
C2023 H2002 0.950 . S
C2023 C2022 1.373 . S
C2023 C2039 1.377 . S
C2024 C2022 1.389 . S
C2024 C2025 1.524 . S
C2024 C2038 1.377 . S
C2025 C2024 1.524 . S
C2025 C2026 1.397 . S
C2025 C2030 1.363 . S
C2026 H2003 0.950 . S
C2026 C2025 1.397 . S
C2026 C2027 1.334 . S
C2027 H2004 0.950 . S
C2027 C2026 1.334 . S
C2027 C2028 1.287 . S
C2028 C2027 1.287 . S
C2028 C2029 1.524 . S
C2028 H2047 0.913 . S
C2029 H2005 0.950 . S
C2029 C2028 1.524 . S
C2029 C2030 1.415 . S
C2030 H2006 0.950 . S
C2030 C2025 1.363 . S
C2030 C2029 1.415 . S
C2031 H2007 0.951 . S
C2031 C2032 1.366 . S
C2031 C2033 1.388 . S
C2032 C2031 1.366 . S
C2032 C2036 1.385 . S
C2033 H2008 0.951 . S
C2033 C2031 1.388 . S
C2033 C2034 1.366 . S
C2034 C2033 1.366 . S
C2034 C2035 1.414 . S
C2034 C2037 1.499 . S
C2035 H2009 0.950 . S
C2035 C2034 1.414 . S
C2035 C2036 1.374 . S
C2036 H2010 0.950 . S
C2036 C2032 1.385 . S
C2036 C2035 1.374 . S
C2037 C2034 1.499 . S
C2037 C2038 1.373 . S
C2037 C2039 1.389 . S
C2038 H2011 0.950 . S
C2038 C2024 1.377 . S
C2038 C2037 1.373 . S
C2039 C2023 1.377 . S
C2039 C2037 1.389 . S
C2039 C2040 1.524 . S
C2040 C2039 1.524 . S
C2040 C2041 1.397 . S
C2040 C2045 1.363 . S
C2041 H2012 0.950 . S
C2041 C2040 1.397 . S
C2041 C2042 1.334 . S
C2042 H2013 0.950 . S
C2042 C2041 1.334 . S
C2042 C2043 1.287 . S
C2043 C2042 1.287 . S
C2043 C2044 1.524 . S
C2043 H2046 0.999 . S
C2044 H2014 0.950 . S
C2044 C2043 1.524 . S
C2044 C2045 1.415 . S
C2045 H2015 0.950 . S
C2045 C2040 1.363 . S
C2045 C2044 1.415 . S
H2046 C2043 0.999 . S
H2047 C2028 0.913 . S
H2048 C2066 0.951 . S
H2049 C2068 0.951 . S
H2050 C2070 0.950 . S
H2051 C2071 0.950 . S
H2052 C2073 0.950 . S
H2053 C2076 0.950 . S
H2054 C2077 0.950 . S
H2055 C2079 0.950 . S
H2056 C2080 0.950 . S
H2057 C2081 0.951 . S
H2058 C2083 0.951 . S
H2059 C2085 0.950 . S
H2060 C2086 0.950 . S
H2061 C2088 0.950 . S
H2062 C2091 0.950 . S
H2063 C2092 0.950 1_554 S
H2064 C2094 0.960 . S
H2065 C2095 0.950 . S
C2066 H2048 0.951 . S
C2066 C2067 1.366 . S
C2066 C2068 1.388 . S
C2067 C2066 1.366 . S
C2067 C2071 1.385 . S
C2068 H2049 0.951 . S
C2068 C2066 1.388 . S
C2068 C2069 1.366 . S
C2069 C2068 1.366 . S
C2069 C2070 1.414 . S
C2069 C2072 1.499 . S
C2070 H2050 0.950 . S
C2070 C2069 1.414 . S
C2070 C2071 1.374 . S
C2071 H2051 0.950 . S
C2071 C2067 1.385 . S
C2071 C2070 1.374 . S
C2072 C2069 1.499 . S
C2072 C2073 1.373 . S
C2072 C2074 1.389 . S
C2073 H2052 0.950 . S
C2073 C2072 1.373 . S
C2073 C2089 1.377 . S
C2074 C2072 1.389 . S
C2074 C2075 1.524 . S
C2074 C2088 1.377 . S
C2075 C2074 1.524 . S
C2075 C2076 1.397 . S
C2075 C2080 1.363 . S
C2076 H2053 0.950 . S
C2076 C2075 1.397 . S
C2076 C2077 1.334 . S
C2077 H2054 0.950 . S
C2077 C2076 1.334 . S
C2077 C2078 1.287 . S
C2078 C2077 1.287 . S
C2078 C2079 1.524 . S
C2078 H2097 0.913 . S
C2079 H2055 0.950 . S
C2079 C2078 1.524 . S
C2079 C2080 1.415 . S
C2080 H2056 0.950 . S
C2080 C2075 1.363 . S
C2080 C2079 1.415 . S
C2081 H2057 0.951 . S
C2081 C2082 1.366 . S
C2081 C2083 1.388 1_554 S
C2082 C2081 1.366 . S
C2082 C2086 1.385 1_554 S
C2083 H2058 0.951 . S
C2083 C2081 1.388 1_556 S
C2083 C2084 1.366 . S
C2084 C2083 1.366 . S
C2084 C2085 1.414 . S
C2084 C2087 1.499 . S
C2085 H2059 0.950 . S
C2085 C2084 1.414 . S
C2085 C2086 1.374 . S
C2086 H2060 0.950 . S
C2086 C2082 1.385 1_556 S
C2086 C2085 1.374 . S
C2087 C2084 1.499 . S
C2087 C2088 1.373 . S
C2087 C2089 1.389 . S
C2088 H2061 0.950 . S
C2088 C2074 1.377 . S
C2088 C2087 1.373 . S
C2089 C2073 1.377 . S
C2089 C2087 1.389 . S
C2089 C2090 1.524 . S
C2090 C2089 1.524 . S
C2090 C2091 1.397 . S
C2090 C2095 1.363 . S
C2091 H2062 0.950 . S
C2091 C2090 1.397 . S
C2091 C2092 1.334 . S
C2092 H2063 0.950 1_556 S
C2092 C2091 1.334 . S
C2092 C2093 1.287 1_556 S
C2093 C2092 1.287 1_554 S
C2093 C2094 1.529 . S
C2093 H2096 0.999 . S
C2094 H2064 0.960 . S
C2094 C2093 1.529 . S
C2094 C2095 1.399 1_554 S
C2095 H2065 0.950 . S
C2095 C2090 1.363 . S
C2095 C2094 1.399 1_556 S
H2096 C2093 0.999 . S
H2097 C2078 0.913 . S
H2098 C2116 0.951 . S
H2099 C2118 0.951 . S
H2100 C2120 0.950 . S
H2101 C2121 0.950 . S
H2102 C2123 0.950 . S
H2103 C2126 0.950 . S
H2104 C2127 0.950 . S
H2105 C2129 0.950 . S
H2106 C2130 0.950 . S
H2107 C2131 0.951 . S
H2108 C2133 0.951 . S
H2109 C2135 0.950 . S
H2110 C2136 0.950 . S
H2111 C2138 0.950 . S
H2112 C2141 0.950 . S
H2113 C2142 0.950 . S
H2114 C2144 0.950 . S
H2115 C2145 0.950 . S
C2116 H2098 0.951 . S
C2116 C2117 1.366 . S
C2116 C2118 1.388 . S
C2117 C2116 1.366 . S
C2117 C2121 1.385 . S
C2118 H2099 0.951 . S
C2118 C2116 1.388 . S
C2118 C2119 1.366 . S
C2119 C2118 1.366 . S
C2119 C2120 1.414 . S
C2119 C2122 1.499 . S
C2120 H2100 0.950 . S
C2120 C2119 1.414 . S
C2120 C2121 1.374 . S
C2121 H2101 0.950 . S
C2121 C2117 1.385 . S
C2121 C2120 1.374 . S
C2122 C2119 1.499 . S
C2122 C2123 1.373 . S
C2122 C2124 1.389 . S
C2123 H2102 0.950 . S
C2123 C2122 1.373 . S
C2123 C2139 1.377 . S
C2124 C2122 1.389 . S
C2124 C2125 1.524 . S
C2124 C2138 1.377 . S
C2125 C2124 1.524 . S
C2125 C2126 1.397 . S
C2125 C2130 1.363 . S
C2126 H2103 0.950 . S
C2126 C2125 1.397 . S
C2126 C2127 1.334 . S
C2127 H2104 0.950 . S
C2127 C2126 1.334 . S
C2127 C2128 1.287 . S
C2128 C2127 1.287 . S
C2128 C2129 1.524 . S
C2128 H2147 0.913 . S
C2129 H2105 0.950 . S
C2129 C2128 1.524 . S
C2129 C2130 1.415 . S
C2130 H2106 0.950 . S
C2130 C2125 1.363 . S
C2130 C2129 1.415 . S
C2131 H2107 0.951 . S
C2131 C2132 1.366 1_554 S
C2131 C2133 1.388 . S
C2132 C2131 1.366 1_556 S
C2132 C2136 1.385 . S
C2133 H2108 0.951 . S
C2133 C2131 1.388 . S
C2133 C2134 1.366 . S
C2134 C2133 1.366 . S
C2134 C2135 1.414 . S
C2134 C2137 1.499 . S
C2135 H2109 0.950 . S
C2135 C2134 1.414 . S
C2135 C2136 1.374 1_554 S
C2136 H2110 0.950 . S
C2136 C2132 1.385 . S
C2136 C2135 1.374 1_556 S
C2137 C2134 1.499 . S
C2137 C2138 1.373 . S
C2137 C2139 1.389 . S
C2138 H2111 0.950 . S
C2138 C2124 1.377 . S
C2138 C2137 1.373 . S
C2139 C2123 1.377 . S
C2139 C2137 1.389 . S
C2139 C2140 1.524 . S
C2140 C2139 1.524 . S
C2140 C2141 1.397 . S
C2140 C2145 1.363 . S
C2141 H2112 0.950 . S
C2141 C2140 1.397 . S
C2141 C2142 1.334 . S
C2142 H2113 0.950 . S
C2142 C2141 1.334 . S
C2142 C2143 1.287 . S
C2143 C2142 1.287 . S
C2143 C2144 1.524 . S
C2143 H2146 0.999 . S
C2144 H2114 0.950 . S
C2144 C2143 1.524 . S
C2144 C2145 1.415 . S
C2145 H2115 0.950 . S
C2145 C2140 1.363 . S
C2145 C2144 1.415 . S
H2146 C2143 0.999 . S
H2147 C2128 0.913 . S
H2148 C2166 0.951 1_554 S
H2149 C2168 0.951 . S
H2150 C2170 0.950 . S
H2151 C2171 0.950 . S
H2152 C2173 0.950 . S
H2153 C2176 0.950 . S
H2154 C2177 0.950 . S
H2155 C2179 0.950 . S
H2156 C2180 0.950 . S
H2157 C2181 0.951 . S
H2158 C2183 0.951 . S
H2159 C2185 0.950 . S
H2160 C2186 0.950 . S
H2161 C2188 0.950 . S
H2162 C2191 0.950 . S
H2163 C2192 0.950 . S
H2164 C2194 0.950 . S
H2165 C2195 0.950 . S
C2166 H2148 0.951 1_556 S
C2166 C2167 1.366 1_556 S
C2166 C2168 1.388 . S
C2167 C2166 1.366 1_554 S
C2167 C2171 1.385 . S
C2168 H2149 0.951 . S
C2168 C2166 1.388 . S
C2168 C2169 1.366 . S
C2169 C2168 1.366 . S
C2169 C2170 1.414 . S
C2169 C2172 1.499 . S
C2170 H2150 0.950 . S
C2170 C2169 1.414 . S
C2170 C2171 1.374 1_556 S
C2171 H2151 0.950 . S
C2171 C2167 1.385 . S
C2171 C2170 1.374 1_554 S
C2172 C2169 1.499 . S
C2172 C2173 1.373 . S
C2172 C2174 1.389 . S
C2173 H2152 0.950 . S
C2173 C2172 1.373 . S
C2173 C2189 1.377 . S
C2174 C2172 1.389 . S
C2174 C2175 1.524 . S
C2174 C2188 1.377 . S
C2175 C2174 1.524 . S
C2175 C2176 1.397 . S
C2175 C2180 1.363 . S
C2176 H2153 0.950 . S
C2176 C2175 1.397 . S
C2176 C2177 1.334 . S
C2177 H2154 0.950 . S
C2177 C2176 1.334 . S
C2177 C2178 1.287 . S
C2178 C2177 1.287 . S
C2178 C2179 1.524 . S
C2178 H2197 0.913 . S
C2179 H2155 0.950 . S
C2179 C2178 1.524 . S
C2179 C2180 1.415 . S
C2180 H2156 0.950 . S
C2180 C2175 1.363 . S
C2180 C2179 1.415 . S
C2181 H2157 0.951 . S
C2181 C2182 1.366 . S
C2181 C2183 1.388 . S
C2182 C2181 1.366 . S
C2182 C2186 1.385 . S
C2183 H2158 0.951 . S
C2183 C2181 1.388 . S
C2183 C2184 1.366 . S
C2184 C2183 1.366 . S
C2184 C2185 1.414 . S
C2184 C2187 1.499 . S
C2185 H2159 0.950 . S
C2185 C2184 1.414 . S
C2185 C2186 1.374 . S
C2186 H2160 0.950 . S
C2186 C2182 1.385 . S
C2186 C2185 1.374 . S
C2187 C2184 1.499 . S
C2187 C2188 1.373 . S
C2187 C2189 1.389 . S
C2188 H2161 0.950 . S
C2188 C2174 1.377 . S
C2188 C2187 1.373 . S
C2189 C2173 1.377 . S
C2189 C2187 1.389 . S
C2189 C2190 1.524 . S
C2190 C2189 1.524 . S
C2190 C2191 1.397 . S
C2190 C2195 1.363 . S
C2191 H2162 0.950 . S
C2191 C2190 1.397 . S
C2191 C2192 1.334 . S
C2192 H2163 0.950 . S
C2192 C2191 1.334 . S
C2192 C2193 1.287 . S
C2193 C2192 1.287 . S
C2193 C2194 1.524 . S
C2193 H2196 0.999 . S
C2194 H2164 0.950 . S
C2194 C2193 1.524 . S
C2194 C2195 1.415 . S
C2195 H2165 0.950 . S
C2195 C2190 1.363 . S
C2195 C2194 1.415 . S
H2196 C2193 0.999 . S
H2197 C2178 0.913 . S
H2198 C2216 0.951 . S
H2199 C2218 0.951 . S
H2200 C2220 0.950 . S
H2201 C2221 0.950 . S
H2202 C2223 0.950 . S
H2203 C2226 0.950 . S
H2204 C2227 0.950 . S
H2205 C2229 0.950 . S
H2206 C2230 0.950 . S
H2207 C2231 0.951 . S
H2208 C2233 0.951 . S
H2209 C2235 0.950 . S
H2210 C2236 0.950 . S
H2211 C2238 0.950 . S
H2212 C2241 0.950 . S
H2213 C2242 0.950 . S
H2214 C2244 0.950 . S
H2215 C2245 0.950 . S
C2216 H2198 0.951 . S
C2216 C2217 1.366 . S
C2216 C2218 1.388 . S
C2217 C2216 1.366 . S
C2217 C2221 1.385 . S
C2218 H2199 0.951 . S
C2218 C2216 1.388 . S
C2218 C2219 1.366 . S
C2219 C2218 1.366 . S
C2219 C2220 1.414 . S
C2219 C2222 1.499 . S
C2220 H2200 0.950 . S
C2220 C2219 1.414 . S
C2220 C2221 1.374 . S
C2221 H2201 0.950 . S
C2221 C2217 1.385 . S
C2221 C2220 1.374 . S
C2222 C2219 1.499 . S
C2222 C2223 1.373 . S
C2222 C2224 1.389 . S
C2223 H2202 0.950 . S
C2223 C2222 1.373 . S
C2223 C2239 1.377 . S
C2224 C2222 1.389 . S
C2224 C2225 1.524 . S
C2224 C2238 1.377 . S
C2225 C2224 1.524 . S
C2225 C2226 1.397 . S
C2225 C2230 1.363 . S
C2226 H2203 0.950 . S
C2226 C2225 1.397 . S
C2226 C2227 1.334 . S
C2227 H2204 0.950 . S
C2227 C2226 1.334 . S
C2227 C2228 1.287 . S
C2228 C2227 1.287 . S
C2228 C2229 1.524 . S
C2228 H2247 0.913 . S
C2229 H2205 0.950 . S
C2229 C2228 1.524 . S
C2229 C2230 1.415 . S
C2230 H2206 0.950 . S
C2230 C2225 1.363 . S
C2230 C2229 1.415 . S
C2231 H2207 0.951 . S
C2231 C2232 1.366 1_554 S
C2231 C2233 1.388 . S
C2232 C2231 1.366 1_556 S
C2232 C2236 1.385 . S
C2233 H2208 0.951 . S
C2233 C2231 1.388 . S
C2233 C2234 1.366 . S
C2234 C2233 1.366 . S
C2234 C2235 1.414 . S
C2234 C2237 1.499 . S
C2235 H2209 0.950 . S
C2235 C2234 1.414 . S
C2235 C2236 1.374 1_554 S
C2236 H2210 0.950 . S
C2236 C2232 1.385 . S
C2236 C2235 1.374 1_556 S
C2237 C2234 1.499 . S
C2237 C2238 1.373 . S
C2237 C2239 1.389 . S
C2238 H2211 0.950 . S
C2238 C2224 1.377 . S
C2238 C2237 1.373 . S
C2239 C2223 1.377 . S
C2239 C2237 1.389 . S
C2239 C2240 1.524 . S
C2240 C2239 1.524 . S
C2240 C2241 1.397 . S
C2240 C2245 1.363 . S
C2241 H2212 0.950 . S
C2241 C2240 1.397 . S
C2241 C2242 1.334 . S
C2242 H2213 0.950 . S
C2242 C2241 1.334 . S
C2242 C2243 1.287 . S
C2243 C2242 1.287 . S
C2243 C2244 1.524 . S
C2243 H2246 0.999 . S
C2244 H2214 0.950 . S
C2244 C2243 1.524 . S
C2244 C2245 1.415 . S
C2245 H2215 0.950 . S
C2245 C2240 1.363 . S
C2245 C2244 1.415 . S
H2246 C2243 0.999 . S
H2247 C2228 0.913 . S
H2248 C2266 0.951 . S
H2249 C2268 0.951 . S
H2250 C2270 0.950 . S
H2251 C2271 0.950 . S
H2252 C2273 0.950 . S
H2253 C2276 0.950 . S
H2254 C2277 0.950 . S
H2255 C2279 0.950 . S
H2256 C2280 0.950 . S
H2257 C2281 0.951 . S
H2258 C2283 0.951 . S
H2259 C2285 0.950 . S
H2260 C2286 0.950 . S
H2261 C2288 0.950 . S
H2262 C2291 0.950 . S
H2263 C2292 0.950 . S
H2264 C2294 0.950 . S
H2265 C2295 0.950 . S
C2266 H2248 0.951 . S
C2266 C2267 1.366 . S
C2266 C2268 1.388 . S
C2267 C2266 1.366 . S
C2267 C2271 1.385 . S
C2268 H2249 0.951 . S
C2268 C2266 1.388 . S
C2268 C2269 1.366 . S
C2269 C2268 1.366 . S
C2269 C2270 1.414 . S
C2269 C2272 1.499 . S
C2270 H2250 0.950 . S
C2270 C2269 1.414 . S
C2270 C2271 1.374 . S
C2271 H2251 0.950 . S
C2271 C2267 1.385 . S
C2271 C2270 1.374 . S
C2272 C2269 1.499 . S
C2272 C2273 1.373 . S
C2272 C2274 1.389 . S
C2273 H2252 0.950 . S
C2273 C2272 1.373 . S
C2273 C2289 1.377 . S
C2274 C2272 1.389 . S
C2274 C2275 1.524 . S
C2274 C2288 1.377 . S
C2275 C2274 1.524 . S
C2275 C2276 1.397 . S
C2275 C2280 1.363 . S
C2276 H2253 0.950 . S
C2276 C2275 1.397 . S
C2276 C2277 1.334 . S
C2277 H2254 0.950 . S
C2277 C2276 1.334 . S
C2277 C2278 1.287 . S
C2278 C2277 1.287 . S
C2278 C2279 1.524 . S
C2278 H2297 0.913 . S
C2279 H2255 0.950 . S
C2279 C2278 1.524 . S
C2279 C2280 1.415 . S
C2280 H2256 0.950 . S
C2280 C2275 1.363 . S
C2280 C2279 1.415 . S
C2281 H2257 0.951 . S
C2281 C2282 1.366 . S
C2281 C2283 1.388 . S
C2282 C2281 1.366 . S
C2282 C2286 1.385 . S
C2283 H2258 0.951 . S
C2283 C2281 1.388 . S
C2283 C2284 1.366 . S
C2284 C2283 1.366 . S
C2284 C2285 1.414 . S
C2284 C2287 1.499 . S
C2285 H2259 0.950 . S
C2285 C2284 1.414 . S
C2285 C2286 1.374 . S
C2286 H2260 0.950 . S
C2286 C2282 1.385 . S
C2286 C2285 1.374 . S
C2287 C2284 1.499 . S
C2287 C2288 1.373 . S
C2287 C2289 1.389 . S
C2288 H2261 0.950 . S
C2288 C2274 1.377 . S
C2288 C2287 1.373 . S
C2289 C2273 1.377 . S
C2289 C2287 1.389 . S
C2289 C2290 1.524 . S
C2290 C2289 1.524 . S
C2290 C2291 1.397 . S
C2290 C2295 1.363 . S
C2291 H2262 0.950 . S
C2291 C2290 1.397 . S
C2291 C2292 1.334 . S
C2292 H2263 0.950 . S
C2292 C2291 1.334 . S
C2292 C2293 1.287 . S
C2293 C2292 1.287 . S
C2293 C2294 1.524 . S
C2293 H2296 0.999 . S
C2294 H2264 0.950 . S
C2294 C2293 1.524 . S
C2294 C2295 1.415 . S
C2295 H2265 0.950 . S
C2295 C2290 1.363 . S
C2295 C2294 1.415 . S
H2296 C2293 0.999 . S
H2297 C2278 0.913 . S
H2298 C2316 0.951 . S
H2299 C2318 0.951 . S
H2300 C2320 0.950 . S
H2301 C2321 0.950 . S
H2302 C2323 0.950 . S
H2303 C2326 0.950 . S
H2304 C2327 0.950 . S
H2305 C2329 0.950 . S
H2306 C2330 0.950 . S
H2307 C2331 0.951 . S
H2308 C2333 0.951 . S
H2309 C2335 0.950 . S
H2310 C2336 0.950 . S
H2311 C2338 0.950 . S
H2312 C2341 0.950 . S
H2313 C2342 0.950 . S
H2314 C2344 0.950 . S
H2315 C2345 0.950 . S
C2316 H2298 0.951 . S
C2316 C2317 1.366 . S
C2316 C2318 1.388 . S
C2317 C2316 1.366 . S
C2317 C2321 1.385 . S
C2318 H2299 0.951 . S
C2318 C2316 1.388 . S
C2318 C2319 1.366 . S
C2319 C2318 1.366 . S
C2319 C2320 1.414 . S
C2319 C2322 1.499 . S
C2320 H2300 0.950 . S
C2320 C2319 1.414 . S
C2320 C2321 1.374 . S
C2321 H2301 0.950 . S
C2321 C2317 1.385 . S
C2321 C2320 1.374 . S
C2322 C2319 1.499 . S
C2322 C2323 1.373 . S
C2322 C2324 1.389 . S
C2323 H2302 0.950 . S
C2323 C2322 1.373 . S
C2323 C2339 1.377 . S
C2324 C2322 1.389 . S
C2324 C2325 1.524 . S
C2324 C2338 1.377 . S
C2325 C2324 1.524 . S
C2325 C2326 1.397 . S
C2325 C2330 1.363 . S
C2326 H2303 0.950 . S
C2326 C2325 1.397 . S
C2326 C2327 1.334 . S
C2327 H2304 0.950 . S
C2327 C2326 1.334 . S
C2327 C2328 1.287 . S
C2328 C2327 1.287 . S
C2328 C2329 1.524 . S
C2328 H2347 0.913 . S
C2329 H2305 0.950 . S
C2329 C2328 1.524 . S
C2329 C2330 1.415 . S
C2330 H2306 0.950 . S
C2330 C2325 1.363 . S
C2330 C2329 1.415 . S
C2331 H2307 0.951 . S
C2331 C2332 1.366 . S
C2331 C2333 1.388 . S
C2332 C2331 1.366 . S
C2332 C2336 1.385 . S
C2333 H2308 0.951 . S
C2333 C2331 1.388 . S
C2333 C2334 1.366 . S
C2334 C2333 1.366 . S
C2334 C2335 1.414 . S
C2334 C2337 1.499 . S
C2335 H2309 0.950 . S
C2335 C2334 1.414 . S
C2335 C2336 1.374 . S
C2336 H2310 0.950 . S
C2336 C2332 1.385 . S
C2336 C2335 1.374 . S
C2337 C2334 1.499 . S
C2337 C2338 1.373 . S
C2337 C2339 1.389 . S
C2338 H2311 0.950 . S
C2338 C2324 1.377 . S
C2338 C2337 1.373 . S
C2339 C2323 1.377 . S
C2339 C2337 1.389 . S
C2339 C2340 1.524 . S
C2340 C2339 1.524 . S
C2340 C2341 1.397 . S
C2340 C2345 1.363 . S
C2341 H2312 0.950 . S
C2341 C2340 1.397 . S
C2341 C2342 1.334 . S
C2342 H2313 0.950 . S
C2342 C2341 1.334 . S
C2342 C2343 1.287 . S
C2343 C2342 1.287 . S
C2343 C2344 1.524 . S
C2343 H2346 0.999 . S
C2344 H2314 0.950 . S
C2344 C2343 1.524 . S
C2344 C2345 1.415 . S
C2345 H2315 0.950 . S
C2345 C2340 1.363 . S
C2345 C2344 1.415 . S
H2346 C2343 0.999 . S
H2347 C2328 0.913 . S
H2348 C2366 0.951 . S
H2349 C2368 0.951 . S
H2350 C2370 0.950 . S
H2351 C2371 0.950 . S
H2352 C2373 0.950 . S
H2353 C2376 0.950 . S
H2354 C2377 0.950 . S
H2355 C2379 0.950 . S
H2356 C2380 0.950 . S
H2357 C2381 0.951 . S
H2358 C2383 0.951 . S
H2359 C2385 0.950 . S
H2360 C2386 0.950 . S
H2361 C2388 0.950 . S
H2362 C2391 0.950 . S
H2363 C2392 0.950 . S
H2364 C2394 0.950 . S
H2365 C2395 0.950 . S
C2366 H2348 0.951 . S
C2366 C2367 1.366 . S
C2366 C2368 1.388 . S
C2367 C2366 1.366 . S
C2367 C2371 1.385 . S
C2368 H2349 0.951 . S
C2368 C2366 1.388 . S
C2368 C2369 1.366 . S
C2369 C2368 1.366 . S
C2369 C2370 1.414 . S
C2369 C2372 1.499 . S
C2370 H2350 0.950 . S
C2370 C2369 1.414 . S
C2370 C2371 1.374 . S
C2371 H2351 0.950 . S
C2371 C2367 1.385 . S
C2371 C2370 1.374 . S
C2372 C2369 1.499 . S
C2372 C2373 1.373 . S
C2372 C2374 1.389 . S
C2373 H2352 0.950 . S
C2373 C2372 1.373 . S
C2373 C2389 1.377 . S
C2374 C2372 1.389 . S
C2374 C2375 1.524 . S
C2374 C2388 1.377 . S
C2375 C2374 1.524 . S
C2375 C2376 1.397 . S
C2375 C2380 1.363 . S
C2376 H2353 0.950 . S
C2376 C2375 1.397 . S
C2376 C2377 1.334 . S
C2377 H2354 0.950 . S
C2377 C2376 1.334 . S
C2377 C2378 1.287 . S
C2378 C2377 1.287 . S
C2378 C2379 1.524 . S
C2378 H2397 0.913 . S
C2379 H2355 0.950 . S
C2379 C2378 1.524 . S
C2379 C2380 1.415 . S
C2380 H2356 0.950 . S
C2380 C2375 1.363 . S
C2380 C2379 1.415 . S
C2381 H2357 0.951 . S
C2381 C2382 1.366 . S
C2381 C2383 1.388 . S
C2382 C2381 1.366 . S
C2382 C2386 1.385 . S
C2383 H2358 0.951 . S
C2383 C2381 1.388 . S
C2383 C2384 1.366 . S
C2384 C2383 1.366 . S
C2384 C2385 1.414 . S
C2384 C2387 1.499 . S
C2385 H2359 0.950 . S
C2385 C2384 1.414 . S
C2385 C2386 1.374 . S
C2386 H2360 0.950 . S
C2386 C2382 1.385 . S
C2386 C2385 1.374 . S
C2387 C2384 1.499 . S
C2387 C2388 1.373 . S
C2387 C2389 1.389 . S
C2388 H2361 0.950 . S
C2388 C2374 1.377 . S
C2388 C2387 1.373 . S
C2389 C2373 1.377 . S
C2389 C2387 1.389 . S
C2389 C2390 1.524 . S
C2390 C2389 1.524 . S
C2390 C2391 1.397 . S
C2390 C2395 1.363 . S
C2391 H2362 0.950 . S
C2391 C2390 1.397 . S
C2391 C2392 1.334 . S
C2392 H2363 0.950 . S
C2392 C2391 1.334 . S
C2392 C2393 1.287 . S
C2393 C2392 1.287 . S
C2393 C2394 1.524 . S
C2393 H2396 0.999 . S
C2394 H2364 0.950 . S
C2394 C2393 1.524 . S
C2394 C2395 1.415 . S
C2395 H2365 0.950 . S
C2395 C2390 1.363 . S
C2395 C2394 1.415 . S
H2396 C2393 0.999 . S
H2397 C2378 0.913 . S
H2398 C2416 0.951 . S
H2399 C2418 0.951 . S
H2400 C2420 0.950 . S
H2401 C2421 0.950 . S
H2402 C2423 0.950 . S
H2403 C2426 0.950 . S
H2404 C2427 0.950 . S
H2405 C2429 0.950 . S
H2406 C2430 0.950 . S
H2407 C2431 0.951 . S
H2408 C2433 0.951 . S
H2409 C2435 0.950 . S
H2410 C2436 0.950 . S
H2411 C2438 0.950 . S
H2412 C2441 0.950 . S
H2413 C2442 0.950 . S
H2414 C2444 0.950 . S
H2415 C2445 0.950 . S
C2416 H2398 0.951 . S
C2416 C2417 1.366 . S
C2416 C2418 1.388 . S
C2417 C2416 1.366 . S
C2417 C2421 1.385 . S
C2418 H2399 0.951 . S
C2418 C2416 1.388 . S
C2418 C2419 1.366 . S
C2419 C2418 1.366 . S
C2419 C2420 1.414 . S
C2419 C2422 1.499 . S
C2420 H2400 0.950 . S
C2420 C2419 1.414 . S
C2420 C2421 1.374 . S
C2421 H2401 0.950 . S
C2421 C2417 1.385 . S
C2421 C2420 1.374 . S
C2422 C2419 1.499 . S
C2422 C2423 1.373 . S
C2422 C2424 1.389 . S
C2423 H2402 0.950 . S
C2423 C2422 1.373 . S
C2423 C2439 1.377 . S
C2424 C2422 1.389 . S
C2424 C2425 1.524 . S
C2424 C2438 1.377 . S
C2425 C2424 1.524 . S
C2425 C2426 1.397 . S
C2425 C2430 1.363 . S
C2426 H2403 0.950 . S
C2426 C2425 1.397 . S
C2426 C2427 1.334 . S
C2427 H2404 0.950 . S
C2427 C2426 1.334 . S
C2427 C2428 1.287 . S
C2428 C2427 1.287 . S
C2428 C2429 1.524 . S
C2428 H2447 0.913 . S
C2429 H2405 0.950 . S
C2429 C2428 1.524 . S
C2429 C2430 1.415 . S
C2430 H2406 0.950 . S
C2430 C2425 1.363 . S
C2430 C2429 1.415 . S
C2431 H2407 0.951 . S
C2431 C2432 1.366 . S
C2431 C2433 1.388 . S
C2432 C2431 1.366 . S
C2432 C2436 1.385 . S
C2433 H2408 0.951 . S
C2433 C2431 1.388 . S
C2433 C2434 1.366 . S
C2434 C2433 1.366 . S
C2434 C2435 1.414 . S
C2434 C2437 1.499 . S
C2435 H2409 0.950 . S
C2435 C2434 1.414 . S
C2435 C2436 1.374 . S
C2436 H2410 0.950 . S
C2436 C2432 1.385 . S
C2436 C2435 1.374 . S
C2437 C2434 1.499 . S
C2437 C2438 1.373 . S
C2437 C2439 1.389 . S
C2438 H2411 0.950 . S
C2438 C2424 1.377 . S
C2438 C2437 1.373 . S
C2439 C2423 1.377 . S
C2439 C2437 1.389 . S
C2439 C2440 1.524 . S
C2440 C2439 1.524 . S
C2440 C2441 1.397 . S
C2440 C2445 1.363 . S
C2441 H2412 0.950 . S
C2441 C2440 1.397 . S
C2441 C2442 1.334 . S
C2442 H2413 0.950 . S
C2442 C2441 1.334 . S
C2442 C2443 1.287 . S
C2443 C2442 1.287 . S
C2443 C2444 1.524 . S
C2443 H2446 0.999 . S
C2444 H2414 0.950 . S
C2444 C2443 1.524 . S
C2444 C2445 1.415 . S
C2445 H2415 0.950 . S
C2445 C2440 1.363 . S
C2445 C2444 1.415 . S
H2446 C2443 0.999 . S
H2447 C2428 0.913 . S
C867 C612 1.727 . S
C882 C38 1.752 . S
C917 C91 1.752 . S
C932 C453 1.722 . S
C967 C144 1.752 . S
C982 C506 1.727 . S
C1017 C559 1.722 . S
C1032 C197 1.752 . S
C1067 C250 1.752 . S
C1082 C294 1.727 . S
C1117 C303 1.752 . S
C1132 C347 1.723 . S
C1167 C400 1.727 . S
C1182 C356 1.752 . S
C1217 C241 1.722 . S
C1232 C409 1.752 . S
C1267 C188 1.726 . S
C1282 C462 1.752 . S
C1317 C515 1.752 . S
C1332 C29 1.723 . S
C1367 C82 1.727 . S
C1382 C568 1.752 . S
C1417 C621 1.752 . S
C1432 C135 1.723 . S
C1467 C674 1.752 . S
C1482 C718 1.726 . S
C1517 C727 1.752 . S
C1532 C771 1.723 . S
C1567 C824 1.727 . S
C1582 C780 1.752 . S
C1617 C665 1.723 . S
C1632 C833 1.752 . S
C1667 C251 1.338 . S
C1682 C39 1.338 . S
C1717 C92 1.335 . S
C1732 C304 1.334 . S
C1767 C145 1.338 . S
C1782 C357 1.337 . S
C1817 C410 1.334 . S
C1832 C198 1.334 . S
C1867 C463 1.337 . S
C1882 C675 1.338 . S
C1917 C728 1.334 . S
C1932 C516 1.335 . S
C1967 C569 1.337 . S
C1982 C781 1.337 . S
C2017 C834 1.335 . S
C2032 C622 1.334 . S
C2067 C764 2.205 . S
C2082 C22 2.205 . S
C2117 C817 2.199 . S
C2132 C75 2.198 . S
C2167 C128 2.205 . S
C2182 C658 2.205 . S
C2217 C711 2.198 . S
C2232 C181 2.198 . S
C2267 C552 2.205 . S
C2282 C234 2.205 . S
C2317 C605 2.198 . S
C2332 C287 2.198 . S
C2367 C340 2.205 . S
C2382 C446 2.205 . S
C2417 C499 2.198 . S
C2432 C393 2.199 . S
