# Generated by pormake.
# Topology lhb, (8)-cn, num edge types: 1
# Building blocks:
#     Node 0, Type 0, BuildingBlock: LIZSOE_clean_sbu_0, # of connection points: 8
#     Node 1, Type 0, BuildingBlock: LIZSOE_clean_sbu_0, # of connection points: 8
#     Node 2, Type 0, BuildingBlock: LIZSOE_clean_sbu_0, # of connection points: 8
#     Node 3, Type 0, BuildingBlock: LIZSOE_clean_sbu_0, # of connection points: 8
#     Node 4, Type 0, BuildingBlock: LIZSOE_clean_sbu_0, # of connection points: 8
#     Node 5, Type 0, BuildingBlock: LIZSOE_clean_sbu_0, # of connection points: 8
#     Node 6, Type 0, BuildingBlock: LIZSOE_clean_sbu_0, # of connection points: 8
#     Node 7, Type 0, BuildingBlock: LIZSOE_clean_sbu_0, # of connection points: 8
#     Edge 8, Type (0, 0), BuildingBlock: EYOCIG_clean_linker_4, # of connection points: 2
#     Edge 9, Type (0, 0), BuildingBlock: EYOCIG_clean_linker_4, # of connection points: 2
#     Edge 10, Type (0, 0), BuildingBlock: EYOCIG_clean_linker_4, # of connection points: 2
#     Edge 11, Type (0, 0), BuildingBlock: EYOCIG_clean_linker_4, # of connection points: 2
#     Edge 12, Type (0, 0), BuildingBlock: EYOCIG_clean_linker_4, # of connection points: 2
#     Edge 13, Type (0, 0), BuildingBlock: EYOCIG_clean_linker_4, # of connection points: 2
#     Edge 14, Type (0, 0), BuildingBlock: EYOCIG_clean_linker_4, # of connection points: 2
#     Edge 15, Type (0, 0), BuildingBlock: EYOCIG_clean_linker_4, # of connection points: 2
#     Edge 16, Type (0, 0), BuildingBlock: EYOCIG_clean_linker_4, # of connection points: 2
#     Edge 17, Type (0, 0), BuildingBlock: EYOCIG_clean_linker_4, # of connection points: 2
#     Edge 18, Type (0, 0), BuildingBlock: EYOCIG_clean_linker_4, # of connection points: 2
#     Edge 19, Type (0, 0), BuildingBlock: EYOCIG_clean_linker_4, # of connection points: 2
#     Edge 20, Type (0, 0), BuildingBlock: EYOCIG_clean_linker_4, # of connection points: 2
#     Edge 21, Type (0, 0), BuildingBlock: EYOCIG_clean_linker_4, # of connection points: 2
#     Edge 22, Type (0, 0), BuildingBlock: EYOCIG_clean_linker_4, # of connection points: 2
#     Edge 23, Type (0, 0), BuildingBlock: EYOCIG_clean_linker_4, # of connection points: 2
#     Edge 24, Type (0, 0), BuildingBlock: EYOCIG_clean_linker_4, # of connection points: 2
#     Edge 25, Type (0, 0), BuildingBlock: EYOCIG_clean_linker_4, # of connection points: 2
#     Edge 26, Type (0, 0), BuildingBlock: EYOCIG_clean_linker_4, # of connection points: 2
#     Edge 27, Type (0, 0), BuildingBlock: EYOCIG_clean_linker_4, # of connection points: 2
#     Edge 28, Type (0, 0), BuildingBlock: EYOCIG_clean_linker_4, # of connection points: 2
#     Edge 29, Type (0, 0), BuildingBlock: EYOCIG_clean_linker_4, # of connection points: 2
#     Edge 30, Type (0, 0), BuildingBlock: EYOCIG_clean_linker_4, # of connection points: 2
#     Edge 31, Type (0, 0), BuildingBlock: EYOCIG_clean_linker_4, # of connection points: 2
#     Edge 32, Type (0, 0), BuildingBlock: EYOCIG_clean_linker_4, # of connection points: 2
#     Edge 33, Type (0, 0), BuildingBlock: EYOCIG_clean_linker_4, # of connection points: 2
#     Edge 34, Type (0, 0), BuildingBlock: EYOCIG_clean_linker_4, # of connection points: 2
#     Edge 35, Type (0, 0), BuildingBlock: EYOCIG_clean_linker_4, # of connection points: 2
#     Edge 36, Type (0, 0), BuildingBlock: EYOCIG_clean_linker_4, # of connection points: 2
#     Edge 37, Type (0, 0), BuildingBlock: EYOCIG_clean_linker_4, # of connection points: 2
#     Edge 38, Type (0, 0), BuildingBlock: EYOCIG_clean_linker_4, # of connection points: 2
#     Edge 39, Type (0, 0), BuildingBlock: EYOCIG_clean_linker_4, # of connection points: 2
# Relax obj value: 0.157
# Max RMSD: 0.221
# Mean RMSD: 0.221
data_MOF--net-lhb--node1-LIZSOE_clean_sbu_0--edge1-EYOCIG_clean_linker_4
_symmetry_space_group_name_H-M    P1
_symmetry_Int_Tables_number       1
_symmetry_cell_setting            triclinic
loop_
_symmetry_equiv_pos_as_xyz
'x, y, z'
_cell_length_a     37.455976
_cell_length_b     11.775121
_cell_length_c     31.545555
_cell_angle_alpha  89.999072
_cell_angle_beta   90.000068
_cell_angle_gamma 89.918516
loop_
_atom_site_label
_atom_site_type_symbol
_atom_site_fract_x
_atom_site_fract_y
_atom_site_fract_z
_atom_type_partial_charge
Co0 Co 0.07486 0.26678 1.05715 0.0
N1 N 0.11885 0.3174 1.04422 0.0
C2 C 0.1257 0.35332 1.00442 0.0
N3 N 0.1759 0.36369 1.03927 0.0
C4 C 0.14988 0.32828 1.06526 0.0
C5 C 0.16112 0.38046 1.0011 0.0
Co6 Co 0.94762 0.88301 1.05727 0.0
N7 N 0.90362 0.83242 1.04439 0.0
N8 N 0.84654 0.78639 1.03944 0.0
C9 C 0.86132 0.76934 1.00129 0.0
C10 C 0.89675 0.79632 1.00461 0.0
C11 C 0.87257 0.82179 1.06541 0.0
Co12 Co 0.01125 1.0749 0.07628 0.0
C13 C 0.98615 0.82373 0.0966 0.0
H14 H 0.91608 0.79561 0.97913 0.0
O15 O 0.02961 0.23688 0.07227 0.0
O16 O 0.97276 0.10813 0.12242 0.0
O17 O 0.04977 1.04181 0.1224 0.0
O18 O 0.04565 1.01358 1.03134 0.0
O19 O 0.08313 0.15085 1.01677 0.0
O20 O 0.93116 0.98052 0.10097 0.0
O21 O 0.99288 0.91288 0.07235 0.0
O22 O 0.93938 0.9987 1.01676 0.0
O23 O 0.09133 0.16955 0.10094 0.0
O24 O 0.06784 0.36972 0.09506 0.0
O25 O 0.97681 0.1361 1.03136 0.0
O26 O 0.95461 0.78034 0.09528 0.0
C27 C 0.08064 0.0929 0.1265 0.0
C28 C 0.867 0.84977 0.1113 0.0
H29 H 0.89097 0.82749 0.13016 0.0
H30 H 0.86152 0.94199 0.11427 0.0
H31 H 0.8437 0.80308 0.12425 0.0
C32 C 0.94187 1.05717 0.12652 0.0
C33 C 0.07258 1.0507 1.01104 0.0
H34 H 0.10638 0.35383 0.97893 0.0
H35 H 0.17873 0.34741 0.1241 0.0
H36 H 0.16096 0.20838 0.11421 0.0
H37 H 0.13146 0.32285 0.13 0.0
C38 C 0.15545 0.30057 0.11117 0.0
C39 C 0.03632 0.32617 0.09646 0.0
C40 C 0.94991 0.09887 1.01104 0.0
H41 H 0.17543 0.4023 0.9724 0.0
H42 H 0.84701 0.74745 0.9726 0.0
Co43 Co 0.19751 0.51731 0.30715 0.0
N44 N 0.15349 0.56822 0.29438 0.0
C45 C 0.14646 0.60389 0.25459 0.0
N46 N 0.09641 0.61486 0.28974 0.0
C47 C 0.12255 0.57953 0.3156 0.0
C48 C 0.11101 0.63123 0.25146 0.0
Co49 Co 0.32496 0.13292 0.30717 0.0
N50 N 0.36898 0.08199 0.29442 0.0
N51 N 0.42605 1.03525 0.2898 0.0
C52 C 0.41145 1.01889 0.25151 0.0
C53 C 0.37602 1.04629 0.25463 0.0
C54 C 0.39991 1.07063 0.31565 0.0
Co55 Co 0.26124 0.32512 0.3261 0.0
C56 C 0.28634 1.07373 0.34632 0.0
H57 H 0.35682 1.04621 0.22901 0.0
O58 O 0.24278 0.48715 0.32212 0.0
O59 O 0.2997 0.35824 0.37224 0.0
O60 O 0.22276 0.29201 0.37224 0.0
O61 O 0.22685 0.26403 0.28115 0.0
O62 O 0.18918 0.40132 0.26681 0.0
O63 O 0.3413 0.23005 0.351 0.0
O64 O 0.27969 0.1631 0.32213 0.0
O65 O 0.3333 0.2489 0.26683 0.0
O66 O 0.18116 0.42019 0.35097 0.0
O67 O 0.20459 0.62024 0.34503 0.0
O68 O 0.29563 0.3862 0.28116 0.0
O69 O 0.31787 1.03001 0.34506 0.0
C70 C 0.19189 0.34328 0.37644 0.0
C71 C 0.40529 0.09808 0.36161 0.0
H72 H 0.3812 0.07622 0.38029 0.0
H73 H 0.4109 0.19014 0.36472 0.0
H74 H 0.42846 1.05074 0.37466 0.0
C75 C 0.33057 0.30697 0.37645 0.0
C76 C 0.19983 0.30121 0.26098 0.0
H77 H 0.16566 0.60399 0.22897 0.0
H78 H 0.094 0.59946 0.37461 0.0
H79 H 0.11156 0.46006 0.36468 0.0
H80 H 0.14126 0.574 0.38025 0.0
C81 C 0.11717 0.55212 0.36156 0.0
C82 C 0.23612 0.57652 0.34631 0.0
C83 C 0.32265 0.34901 0.26099 0.0
H84 H 0.09657 0.65273 0.22281 0.0
H85 H 0.4259 0.99736 0.22287 0.0
Co86 Co 0.69751 1.01731 0.30715 0.0
N87 N 0.65349 1.06823 0.29438 0.0
C88 C 0.64646 0.1039 0.25459 0.0
N89 N 0.59641 0.11487 0.28974 0.0
C90 C 0.62255 0.07954 0.3156 0.0
C91 C 0.61102 0.13124 0.25146 0.0
Co92 Co 0.82496 0.63292 0.30717 0.0
N93 N 0.86898 0.58199 0.29442 0.0
N94 N 0.92605 0.53525 0.28979 0.0
C95 C 0.91145 0.5189 0.25151 0.0
C96 C 0.87602 0.5463 0.25463 0.0
C97 C 0.89991 0.57063 0.31564 0.0
Co98 Co 0.76123 0.82513 0.3261 0.0
C99 C 0.78634 0.57373 0.34632 0.0
H100 H 0.85682 0.54622 0.22901 0.0
O101 O 0.74278 0.98715 0.32212 0.0
O102 O 0.7997 0.85824 0.37224 0.0
O103 O 0.72276 0.79201 0.37224 0.0
O104 O 0.72685 0.76404 0.28115 0.0
O105 O 0.68918 0.90133 0.26681 0.0
O106 O 0.8413 0.73005 0.351 0.0
O107 O 0.77969 0.6631 0.32212 0.0
O108 O 0.8333 0.74891 0.26683 0.0
O109 O 0.68116 0.92019 0.35097 0.0
O110 O 0.70459 0.12024 0.34503 0.0
O111 O 0.79563 0.88621 0.28116 0.0
O112 O 0.81787 0.53 0.34506 0.0
C113 C 0.69189 0.84328 0.37644 0.0
C114 C 0.90529 0.59808 0.36161 0.0
H115 H 0.8812 0.57622 0.38029 0.0
H116 H 0.9109 0.69014 0.36472 0.0
H117 H 0.92846 0.55073 0.37466 0.0
C118 C 0.83057 0.80696 0.37646 0.0
C119 C 0.69983 0.80122 0.26097 0.0
H120 H 0.66566 0.104 0.22897 0.0
H121 H 0.594 0.09947 0.37461 0.0
H122 H 0.61156 0.96006 0.36468 0.0
H123 H 0.64126 1.074 0.38025 0.0
C124 C 0.61717 1.05212 0.36156 0.0
C125 C 0.73612 0.07652 0.34631 0.0
C126 C 0.82265 0.84902 0.26099 0.0
H127 H 0.59657 0.15275 0.22281 0.0
H128 H 0.9259 0.49737 0.22287 0.0
Co129 Co 0.07485 0.76702 0.55718 0.0
N130 N 0.11884 0.81762 0.54427 0.0
C131 C 0.1257 0.85362 0.50448 0.0
N132 N 0.17591 0.86375 0.53931 0.0
C133 C 0.14989 0.82836 0.56529 0.0
C134 C 0.16113 0.88065 0.50115 0.0
Co135 Co 0.94761 0.38324 0.55722 0.0
N136 N 0.90362 0.3326 0.54433 0.0
N137 N 0.84656 0.28636 0.5394 0.0
C138 C 0.86134 0.26946 0.50123 0.0
C139 C 0.89676 0.29657 0.50454 0.0
C140 C 0.87258 0.32182 0.56536 0.0
Co141 Co 0.01123 0.57514 0.57628 0.0
C142 C 0.98615 0.32392 0.59655 0.0
H143 H 0.91608 0.29597 0.47905 0.0
O144 O 0.0296 0.73715 0.57229 0.0
O145 O 0.97272 0.60832 0.6224 0.0
O146 O 0.04974 0.54201 0.62241 0.0
O147 O 0.04565 0.51386 0.53135 0.0
O148 O 0.0831 0.65121 0.51674 0.0
O149 O 0.93115 0.48062 0.60096 0.0
O150 O 0.99287 0.41313 0.57232 0.0
O151 O 0.93935 0.49902 0.51677 0.0
O152 O 0.09131 0.66966 0.60093 0.0
O153 O 0.06785 0.86984 0.59514 0.0
O154 O 0.97681 0.63637 0.53134 0.0
O155 O 0.95462 0.28045 0.59519 0.0
C156 C 0.08062 0.59303 0.6265 0.0
C157 C 0.86701 0.34969 0.61126 0.0
H158 H 0.891 0.32744 0.63011 0.0
H159 H 0.86151 0.44189 0.61426 0.0
H160 H 0.84373 0.30291 0.62421 0.0
C161 C 0.94184 0.55729 0.62651 0.0
C162 C 0.07256 0.55103 0.51103 0.0
H163 H 0.10637 0.85422 0.47899 0.0
H164 H 0.17874 0.84732 0.62413 0.0
H165 H 0.16095 0.70834 0.61421 0.0
H166 H 0.13147 0.82284 0.63004 0.0
C167 C 0.15545 0.80055 0.6112 0.0
C168 C 0.03632 0.82637 0.59651 0.0
C169 C 0.9499 0.59918 0.51104 0.0
H170 H 0.17543 0.9025 0.47245 0.0
H171 H 0.84703 0.24757 0.47254 0.0
Co172 Co 0.1975 1.01727 0.80725 0.0
N173 N 0.15347 1.06819 0.79452 0.0
C174 C 0.14644 0.10402 0.75475 0.0
N175 N 0.09639 0.11475 0.7899 0.0
C176 C 0.12253 0.07937 0.81574 0.0
C177 C 0.11099 0.13131 0.75163 0.0
Co178 Co 0.32495 0.63286 0.80707 0.0
N179 N 0.36896 0.58193 0.79428 0.0
N180 N 0.42602 0.53506 0.78963 0.0
C181 C 0.41142 0.5189 0.75134 0.0
C182 C 0.37599 0.54639 0.75446 0.0
C183 C 0.39989 0.57042 0.8155 0.0
Co184 Co 0.26123 0.82505 0.8261 0.0
C185 C 0.28634 0.57359 0.84622 0.0
H186 H 0.35679 0.54645 0.72885 0.0
O187 O 0.24278 0.9871 0.82218 0.0
O188 O 0.29973 0.85805 0.87223 0.0
O189 O 0.22279 0.79183 0.87226 0.0
O190 O 0.22682 0.76406 0.78117 0.0
O191 O 0.18918 0.90145 0.76683 0.0
O192 O 0.3413 0.72981 0.85095 0.0
O193 O 0.27969 0.66305 0.82207 0.0
O194 O 0.3333 0.749 0.7668 0.0
O195 O 0.18117 0.91995 0.85102 0.0
O196 O 0.20458 0.12001 0.84521 0.0
O197 O 0.2956 0.88623 0.78114 0.0
O198 O 0.31785 0.52977 0.84489 0.0
C199 C 0.1919 0.84303 0.87647 0.0
C200 C 0.40527 0.59768 0.86148 0.0
H201 H 0.38118 0.57579 0.88015 0.0
H202 H 0.4109 0.68972 0.86464 0.0
H203 H 0.42843 0.55024 0.8745 0.0
C204 C 0.33059 0.8067 0.87643 0.0
C205 C 0.19981 0.80132 0.76099 0.0
H206 H 0.16564 0.10425 0.72913 0.0
H207 H 0.09398 0.09903 0.87476 0.0
H208 H 0.11156 0.95968 0.86476 0.0
H209 H 0.14124 1.0736 0.88039 0.0
C210 C 0.11716 1.05176 0.86169 0.0
C211 C 0.23612 0.07638 0.84642 0.0
C212 C 0.32263 0.8491 0.76097 0.0
H213 H 0.09655 0.1529 0.72299 0.0
H214 H 0.42586 0.49744 0.72268 0.0
Co215 Co 0.82497 0.13284 0.8071 0.0
N216 N 0.86898 0.08192 0.79433 0.0
C217 C 0.87603 1.04638 0.75452 0.0
N218 N 0.92604 1.03508 0.78971 0.0
C219 C 0.8999 1.07041 0.81556 0.0
C220 C 0.91146 1.01892 0.75141 0.0
Co221 Co 0.6975 0.51722 0.80722 0.0
N222 N 0.65348 0.56812 0.79448 0.0
N223 N 0.59639 0.61462 0.78983 0.0
C224 C 0.61101 0.63119 0.75157 0.0
C225 C 0.64645 0.60394 0.7547 0.0
C226 C 0.62253 0.57927 0.81568 0.0
Co227 Co 0.76124 0.32503 0.8261 0.0
C228 C 0.73612 0.57636 0.8464 0.0
H229 H 0.66567 0.60419 0.7291 0.0
O230 O 0.7797 0.16303 0.82207 0.0
O231 O 0.72279 0.29182 0.87225 0.0
O232 O 0.79973 0.35806 0.87223 0.0
O233 O 0.7956 0.38619 0.78114 0.0
O234 O 0.83332 0.24897 0.76683 0.0
O235 O 0.68117 0.41993 0.851 0.0
O236 O 0.74278 0.48707 0.82216 0.0
O237 O 0.68919 0.40138 0.76681 0.0
O238 O 0.8413 0.2298 0.85097 0.0
O239 O 0.81786 1.02976 0.84492 0.0
O240 O 0.72684 0.264 0.78116 0.0
O241 O 0.70457 0.61999 0.84517 0.0
C242 C 0.83059 0.30671 0.87644 0.0
C243 C 0.61714 0.55164 0.86163 0.0
H244 H 0.64121 0.57354 0.88034 0.0
H245 H 0.61156 0.45955 0.86469 0.0
H246 H 0.59394 0.59885 0.87468 0.0
C247 C 0.6919 0.34302 0.87646 0.0
C248 C 0.82265 0.34906 0.76099 0.0
H249 H 0.85684 1.04644 0.72889 0.0
H250 H 0.92841 1.05018 0.87459 0.0
H251 H 0.9109 0.18968 0.86471 0.0
H252 H 0.88115 0.07579 0.8802 0.0
C253 C 0.90526 0.09765 0.86155 0.0
C254 C 0.78634 1.07357 0.84623 0.0
C255 C 0.69983 0.30125 0.76098 0.0
H256 H 0.92591 0.99747 0.72276 0.0
H257 H 0.59657 0.65275 0.72292 0.0
Co258 Co 0.57485 0.26701 0.55719 0.0
N259 N 0.61885 0.31761 0.54428 0.0
C260 C 0.6257 0.3536 0.50449 0.0
N261 N 0.67591 0.36372 0.53932 0.0
C262 C 0.64989 0.32834 0.5653 0.0
C263 C 0.66113 0.38063 0.50117 0.0
Co264 Co 0.44761 0.88324 0.55722 0.0
N265 N 0.40362 0.83261 0.54433 0.0
N266 N 0.34656 0.78638 0.53939 0.0
C267 C 0.36134 0.76947 0.50123 0.0
C268 C 0.39676 0.79657 0.50454 0.0
C269 C 0.37258 0.82183 0.56536 0.0
Co270 Co 0.51123 0.07513 0.57628 0.0
C271 C 0.48615 0.82392 0.59654 0.0
H272 H 0.41608 0.79598 0.47905 0.0
O273 O 0.5296 0.23714 0.5723 0.0
O274 O 0.47272 0.10831 0.6224 0.0
O275 O 0.54974 1.042 0.62241 0.0
O276 O 0.54565 1.01386 0.53135 0.0
O277 O 0.5831 0.1512 0.51675 0.0
O278 O 0.43115 0.98062 0.60096 0.0
O279 O 0.49286 0.91313 0.57232 0.0
O280 O 0.43935 0.99903 0.51677 0.0
O281 O 0.59131 0.16964 0.60094 0.0
O282 O 0.56785 0.36982 0.59515 0.0
O283 O 0.47681 0.13637 0.53134 0.0
O284 O 0.45462 0.78045 0.59519 0.0
C285 C 0.58062 0.09301 0.6265 0.0
C286 C 0.36701 0.8497 0.61126 0.0
H287 H 0.39099 0.82745 0.63011 0.0
H288 H 0.36151 0.94191 0.61425 0.0
H289 H 0.34372 0.80293 0.6242 0.0
C290 C 0.44184 1.05729 0.62651 0.0
C291 C 0.57256 1.05103 0.51103 0.0
H292 H 0.60638 0.35422 0.479 0.0
H293 H 0.67874 0.34729 0.62415 0.0
H294 H 0.66096 0.20832 0.61422 0.0
H295 H 0.63147 0.32281 0.63006 0.0
C296 C 0.65545 0.30052 0.61121 0.0
C297 C 0.53632 0.32636 0.59652 0.0
C298 C 0.4499 0.09919 0.51104 0.0
H299 H 0.67544 0.40248 0.47247 0.0
H300 H 0.34703 0.74759 0.47254 0.0
Co301 Co 0.57486 0.76678 1.05714 0.0
N302 N 0.61884 0.81741 1.04421 0.0
C303 C 0.6257 0.85333 1.00441 0.0
N304 N 0.67589 0.86374 1.03926 0.0
C305 C 0.64988 0.8283 1.06524 0.0
C306 C 0.66112 0.88049 1.00109 0.0
Co307 Co 0.44762 0.38298 1.05726 0.0
N308 N 0.40362 0.33238 1.04438 0.0
N309 N 0.34655 0.28632 1.03944 0.0
C310 C 0.36133 0.26927 1.00129 0.0
C311 C 0.39676 0.29626 1.0046 0.0
C312 C 0.37258 0.32175 1.06541 0.0
Co313 Co 0.51125 0.57488 0.07628 0.0
C314 C 0.48615 0.32372 0.09661 0.0
H315 H 0.41609 0.29555 0.97912 0.0
O316 O 0.52961 0.73687 0.07226 0.0
O317 O 0.47276 0.60811 0.12241 0.0
O318 O 0.54977 0.54181 0.12239 0.0
O319 O 0.54565 0.51356 1.03134 0.0
O320 O 0.58313 0.65085 1.01675 0.0
O321 O 0.43116 0.48051 0.10096 0.0
O322 O 0.49288 0.41285 0.07235 0.0
O323 O 0.43939 0.49865 1.01675 0.0
O324 O 0.59133 0.66954 0.10093 0.0
O325 O 0.56783 0.86971 0.09505 0.0
O326 O 0.47681 0.63607 1.03135 0.0
O327 O 0.45461 0.28033 0.09529 0.0
C328 C 0.58064 0.59289 0.12649 0.0
C329 C 0.367 0.34973 0.11129 0.0
H330 H 0.39098 0.32747 0.13016 0.0
H331 H 0.36152 0.44195 0.11426 0.0
H332 H 0.34371 0.30303 0.12425 0.0
C333 C 0.44187 0.55715 0.12651 0.0
C334 C 0.57258 0.5507 1.01103 0.0
H335 H 0.60638 0.85382 0.97892 0.0
H336 H 0.67872 0.84746 0.12409 0.0
H337 H 0.66096 0.70842 0.1142 0.0
H338 H 0.63145 0.82287 0.12999 0.0
C339 C 0.65544 0.8006 0.11116 0.0
C340 C 0.53632 0.82616 0.09645 0.0
C341 C 0.44991 0.59883 1.01102 0.0
H342 H 0.67542 0.90234 0.97239 0.0
H343 H 0.34702 0.24736 0.9726 0.0
C344 C 0.12733 0.11501 0.18923 0.0
C345 C 0.10321 0.08693 0.16473 0.0
C346 C 0.15521 0.16967 0.21428 0.0
C347 C 0.17681 0.22403 0.23578 0.0
C348 C 0.89518 1.03517 0.18926 0.0
C349 C 0.91931 1.0632 0.16476 0.0
C350 C 0.8673 0.98054 0.21431 0.0
C351 C 0.84568 0.92619 0.2358 0.0
C352 C 0.11727 0.4195 0.4643 0.0
C353 C 0.09563 0.47382 0.48582 0.0
C354 C 0.14519 0.36497 0.43921 0.0
C355 C 0.16933 0.33705 0.41467 0.0
C356 C 0.87726 0.78526 0.43923 0.0
C357 C 0.85312 0.8132 0.41469 0.0
C358 C 0.90518 0.73072 0.46431 0.0
C359 C 0.92683 0.67639 0.48583 0.0
C360 C 0.1273 0.61516 0.68924 0.0
C361 C 0.10318 0.58708 0.66473 0.0
C362 C 0.15518 0.66983 0.71429 0.0
C363 C 0.17678 0.72419 0.73578 0.0
C364 C 0.86727 0.48064 0.7143 0.0
C365 C 0.84566 0.42627 0.73579 0.0
C366 C 0.89516 0.53527 0.68925 0.0
C367 C 0.91928 0.56331 0.66474 0.0
C368 C 0.14521 0.86461 0.93924 0.0
C369 C 0.16935 0.83672 0.9147 0.0
C370 C 0.11728 0.91913 0.96433 0.0
C371 C 0.09564 0.97345 0.98584 0.0
C372 C 0.87728 0.28494 0.93921 0.0
C373 C 0.85314 0.31291 0.91467 0.0
C374 C 0.9052 0.23038 0.9643 0.0
C375 C 0.92683 0.17606 0.98582 0.0
C376 C 0.65518 0.16975 0.71429 0.0
C377 C 0.67679 0.22411 0.73578 0.0
C378 C 0.6273 0.1151 0.68924 0.0
C379 C 0.60318 0.08704 0.66473 0.0
C380 C 0.39515 1.03529 0.68925 0.0
C381 C 0.41928 1.06332 0.66474 0.0
C382 C 0.36726 0.98067 0.7143 0.0
C383 C 0.34565 0.92631 0.73578 0.0
C384 C 0.61728 0.41913 0.96431 0.0
C385 C 0.59564 0.47345 0.98583 0.0
C386 C 0.64521 0.36462 0.93923 0.0
C387 C 0.66935 0.33673 0.91469 0.0
C388 C 0.4052 0.73032 0.96428 0.0
C389 C 0.42684 0.676 0.9858 0.0
C390 C 0.37729 0.78488 0.93919 0.0
C391 C 0.35315 0.81286 0.91465 0.0
C392 C 0.62733 0.61503 0.18923 0.0
C393 C 0.60321 0.58694 0.16472 0.0
C394 C 0.65521 0.66968 0.21428 0.0
C395 C 0.67681 0.72404 0.23577 0.0
C396 C 0.36729 0.48053 0.21431 0.0
C397 C 0.34568 0.42617 0.23579 0.0
C398 C 0.39518 0.53515 0.18926 0.0
C399 C 0.41931 0.56318 0.16475 0.0
C400 C 0.61727 0.9195 0.4643 0.0
C401 C 0.59563 0.97382 0.48582 0.0
C402 C 0.64519 0.86497 0.43921 0.0
C403 C 0.66933 0.83705 0.41467 0.0
C404 C 0.40518 0.23073 0.46431 0.0
C405 C 0.42683 0.17639 0.48583 0.0
C406 C 0.37726 0.28527 0.43923 0.0
C407 C 0.35313 0.31321 0.41469 0.0
C408 C 0.01384 0.63526 0.11498 0.0
C409 C 0.01148 0.73681 0.10784 0.0
C410 C 1.00858 0.51441 0.11497 0.0
C411 C 0.01096 0.41288 0.1078 0.0
C412 C 0.26386 0.76468 0.36457 0.0
C413 C 0.26149 0.66314 0.35747 0.0
C414 C 0.25859 0.88557 0.36457 0.0
C415 C 0.26097 0.98711 0.35748 0.0
C416 C 0.76386 0.26468 0.36457 0.0
C417 C 0.76149 0.16314 0.35748 0.0
C418 C 0.75859 0.38557 0.36457 0.0
C419 C 0.76096 0.48711 0.35748 0.0
C420 C 1.00861 1.01471 0.61497 0.0
C421 C 0.01098 0.91317 0.60782 0.0
C422 C 0.01387 0.13556 0.61498 0.0
C423 C 0.0115 0.2371 0.60783 0.0
C424 C 0.26384 0.26468 0.86458 0.0
C425 C 0.26147 0.16313 0.85751 0.0
C426 C 0.25856 0.38558 0.86457 0.0
C427 C 0.26094 0.4871 0.85745 0.0
C428 C 0.76383 0.76465 0.86457 0.0
C429 C 0.76147 0.6631 0.8575 0.0
C430 C 0.75856 0.88555 0.86456 0.0
C431 C 0.76095 0.98707 0.85745 0.0
C432 C 0.51387 0.63556 0.61497 0.0
C433 C 0.5115 0.7371 0.60783 0.0
C434 C 0.50861 0.5147 0.61497 0.0
C435 C 0.51098 0.41317 0.60782 0.0
C436 C 0.50858 1.01438 0.11497 0.0
C437 C 0.51096 0.91286 0.1078 0.0
C438 C 0.51384 0.13524 0.11498 0.0
C439 C 0.51148 0.23679 0.10785 0.0
C440 C 0.27931 0.31383 1.05188 0.0
C441 C 0.31043 0.3014 1.04649 0.0
C442 C 0.24314 0.33656 1.05184 0.0
C443 C 0.21203 0.34882 1.04638 0.0
C444 C 0.77931 0.81393 1.05188 0.0
C445 C 0.81042 0.80149 1.04649 0.0
C446 C 0.74313 0.83666 1.05183 0.0
C447 C 0.71202 0.8489 1.04637 0.0
C448 C 0.02929 0.5867 0.30259 0.0
C449 C 0.06035 0.59943 0.29701 0.0
C450 C 0.99318 0.56329 0.30261 0.0
C451 C 0.96212 0.55062 0.29705 0.0
C452 C 0.27932 0.81365 0.55186 0.0
C453 C 0.31043 0.80133 0.54645 0.0
C454 C 0.24314 0.83638 0.55184 0.0
C455 C 0.21203 0.84875 0.5464 0.0
C456 C 0.77932 0.3136 0.55188 0.0
C457 C 0.81043 0.3013 0.54646 0.0
C458 C 0.74314 0.33634 0.55186 0.0
C459 C 0.71203 0.34871 0.54641 0.0
C460 C 0.99317 1.06295 0.80265 0.0
C461 C 0.96211 1.05035 0.79702 0.0
C462 C 0.02927 0.08637 0.8027 0.0
C463 C 0.06033 0.0992 0.79715 0.0
C464 C 0.52926 0.58622 0.80256 0.0
C465 C 0.56032 0.59906 0.79704 0.0
C466 C 0.49316 0.56283 0.8025 0.0
C467 C 0.46209 0.55027 0.7969 0.0
C468 C 0.52929 0.08671 0.30259 0.0
C469 C 0.56035 0.09944 0.29701 0.0
C470 C 0.49318 1.0633 0.30261 0.0
C471 C 0.46212 1.05062 0.29705 0.0
loop_
_geom_bond_atom_site_label_1
_geom_bond_atom_site_label_2
_geom_bond_distance
_geom_bond_site_symmetry_2
_ccdc_geom_bond_type
Co0 N1 2.034 . S
Co0 O15 2.262 . S
Co0 O19 1.958 . S
Co0 O23 1.950 1_556 S
Co0 O24 2.057 . S
N1 Co0 2.034 . S
N1 C2 1.366 . S
N1 C4 1.332 1_556 S
C2 N1 1.366 . S
C2 C5 1.377 . S
C2 H34 0.931 . S
N3 C4 1.346 . S
N3 C5 1.337 1_554 S
C4 N1 1.332 1_554 S
C4 N3 1.346 . S
C4 C38 1.361 . S
C5 C2 1.377 . S
C5 N3 1.337 1_556 S
C5 H41 0.930 . S
Co6 N7 2.034 . S
Co6 O20 1.950 1_556 S
Co6 O21 2.262 . S
Co6 O22 1.958 . S
Co6 O26 2.057 . S
N7 Co6 2.034 . S
N7 C10 1.366 . S
N7 C11 1.332 1_556 S
N8 C9 1.337 1_554 S
N8 C11 1.346 . S
C9 N8 1.337 1_556 S
C9 C10 1.377 . S
C9 H42 0.930 . S
C10 N7 1.366 . S
C10 C9 1.377 . S
C10 H14 0.931 . S
C11 N7 1.332 1_554 S
C11 N8 1.346 . S
C11 C28 1.361 . S
Co12 O15 2.100 . S
Co12 O16 2.060 1_456 S
Co12 O17 2.071 1_546 S
Co12 O18 2.047 1_545 S
Co12 O21 2.094 1_445 S
Co12 O25 2.036 1_455 S
C13 O21 1.253 . S
C13 O26 1.263 . S
H14 C10 0.931 . S
O15 Co0 2.262 . S
O15 Co12 2.100 . S
O15 C39 1.253 . S
O16 Co12 2.060 1_654 S
O16 C32 1.221 . S
O17 Co12 2.071 1_564 S
O17 C27 1.225 . S
O18 Co12 2.047 1_565 S
O18 C33 1.237 . S
O19 Co0 1.958 . S
O19 C33 1.278 1_545 S
O20 Co6 1.950 1_554 S
O20 C32 1.277 1_565 S
O21 Co6 2.262 . S
O21 Co12 2.094 1_665 S
O21 C13 1.253 . S
O22 Co6 1.958 . S
O22 C40 1.278 1_565 S
O23 Co0 1.950 1_554 S
O23 C27 1.269 1_545 S
O24 Co0 2.057 . S
O24 C39 1.263 . S
O25 Co12 2.036 1_655 S
O25 C40 1.237 . S
O26 Co6 2.057 . S
O26 C13 1.263 . S
C27 O17 1.225 . S
C27 O23 1.269 1_565 S
C28 C11 1.361 . S
C28 H29 0.960 . S
C28 H30 0.961 . S
C28 H31 0.961 . S
H29 C28 0.960 . S
H30 C28 0.961 . S
H31 C28 0.961 . S
C32 O16 1.221 . S
C32 O20 1.277 1_545 S
C33 O18 1.237 . S
C33 O19 1.278 1_565 S
H34 C2 0.931 . S
H35 C38 0.961 . S
H36 C38 0.961 . S
H37 C38 0.960 . S
C38 C4 1.361 . S
C38 H35 0.961 . S
C38 H36 0.961 . S
C38 H37 0.960 . S
C39 O15 1.253 . S
C39 O24 1.263 . S
C40 O22 1.278 1_545 S
C40 O25 1.237 . S
H41 C5 0.930 . S
H42 C9 0.930 . S
Co43 N44 2.034 . S
Co43 O58 2.262 . S
Co43 O62 1.958 . S
Co43 O66 1.950 . S
Co43 O67 2.057 . S
N44 Co43 2.034 . S
N44 C45 1.366 . S
N44 C47 1.332 . S
C45 N44 1.366 . S
C45 C48 1.377 . S
C45 H77 0.931 . S
N46 C47 1.346 . S
N46 C48 1.337 . S
C47 N44 1.332 . S
C47 N46 1.346 . S
C47 C81 1.361 . S
C48 C45 1.377 . S
C48 N46 1.337 . S
C48 H84 0.930 . S
Co49 N50 2.034 . S
Co49 O63 1.950 . S
Co49 O64 2.262 . S
Co49 O65 1.958 . S
Co49 O69 2.057 1_545 S
N50 Co49 2.034 . S
N50 C53 1.366 . S
N50 C54 1.328 1_545 S
N51 C52 1.337 1_565 S
N51 C54 1.348 . S
C52 N51 1.337 1_545 S
C52 C53 1.377 . S
C52 H85 0.930 . S
C53 N50 1.366 . S
C53 C52 1.377 . S
C53 H57 0.931 . S
C54 N50 1.328 1_565 S
C54 N51 1.348 . S
C54 C71 1.362 . S
Co55 O58 2.097 . S
Co55 O59 2.065 . S
Co55 O60 2.065 . S
Co55 O61 2.042 . S
Co55 O64 2.097 . S
Co55 O68 2.042 . S
C56 O64 1.253 . S
C56 O69 1.263 1_545 S
H57 C53 0.931 . S
O58 Co43 2.262 . S
O58 Co55 2.097 . S
O58 C82 1.253 . S
O59 Co55 2.065 . S
O59 C75 1.221 . S
O60 Co55 2.065 . S
O60 C70 1.221 . S
O61 Co55 2.042 . S
O61 C76 1.237 . S
O62 Co43 1.958 . S
O62 C76 1.278 . S
O63 Co49 1.950 . S
O63 C75 1.277 . S
O64 Co49 2.262 . S
O64 Co55 2.097 . S
O64 C56 1.253 . S
O65 Co49 1.958 . S
O65 C83 1.278 . S
O66 Co43 1.950 . S
O66 C70 1.277 . S
O67 Co43 2.057 . S
O67 C82 1.263 . S
O68 Co55 2.042 . S
O68 C83 1.237 . S
O69 Co49 2.057 1_565 S
O69 C56 1.263 1_565 S
C70 O60 1.221 . S
C70 O66 1.277 . S
C71 C54 1.362 . S
C71 H72 0.960 1_565 S
C71 H73 0.961 1_565 S
C71 H74 0.961 . S
H72 C71 0.960 1_545 S
H73 C71 0.961 1_545 S
H74 C71 0.961 . S
C75 O59 1.221 . S
C75 O63 1.277 . S
C76 O61 1.237 . S
C76 O62 1.278 . S
H77 C45 0.931 . S
H78 C81 0.961 . S
H79 C81 0.961 . S
H80 C81 0.960 . S
C81 C47 1.361 . S
C81 H78 0.961 . S
C81 H79 0.961 . S
C81 H80 0.960 . S
C82 O58 1.253 . S
C82 O67 1.263 . S
C83 O65 1.278 . S
C83 O68 1.237 . S
H84 C48 0.930 . S
H85 C52 0.930 . S
Co86 N87 2.034 . S
Co86 O101 2.262 . S
Co86 O105 1.958 . S
Co86 O109 1.950 . S
Co86 O110 2.057 1_565 S
N87 Co86 2.034 . S
N87 C88 1.366 . S
N87 C90 1.328 1_565 S
C88 N87 1.366 . S
C88 C91 1.377 . S
C88 H120 0.931 . S
N89 C90 1.348 . S
N89 C91 1.337 1_545 S
C90 N87 1.328 1_545 S
C90 N89 1.348 . S
C90 C124 1.362 . S
C91 C88 1.377 . S
C91 N89 1.337 1_565 S
C91 H127 0.930 . S
Co92 N93 2.034 . S
Co92 O106 1.950 . S
Co92 O107 2.262 . S
Co92 O108 1.958 . S
Co92 O112 2.057 . S
N93 Co92 2.034 . S
N93 C96 1.366 . S
N93 C97 1.332 . S
N94 C95 1.337 . S
N94 C97 1.346 . S
C95 N94 1.337 . S
C95 C96 1.377 . S
C95 H128 0.930 . S
C96 N93 1.366 . S
C96 C95 1.377 . S
C96 H100 0.931 . S
C97 N93 1.332 . S
C97 N94 1.346 . S
C97 C114 1.361 . S
Co98 O101 2.097 . S
Co98 O102 2.065 . S
Co98 O103 2.065 . S
Co98 O104 2.042 . S
Co98 O107 2.097 . S
Co98 O111 2.042 . S
C99 O107 1.253 . S
C99 O112 1.263 . S
H100 C96 0.931 . S
O101 Co86 2.262 . S
O101 Co98 2.097 . S
O101 C125 1.253 . S
O102 Co98 2.065 . S
O102 C118 1.221 . S
O103 Co98 2.065 . S
O103 C113 1.221 . S
O104 Co98 2.042 . S
O104 C119 1.237 . S
O105 Co86 1.958 . S
O105 C119 1.278 . S
O106 Co92 1.950 . S
O106 C118 1.277 . S
O107 Co92 2.262 . S
O107 Co98 2.097 . S
O107 C99 1.253 . S
O108 Co92 1.958 . S
O108 C126 1.278 . S
O109 Co86 1.950 . S
O109 C113 1.277 . S
O110 Co86 2.057 1_545 S
O110 C125 1.263 1_545 S
O111 Co98 2.042 . S
O111 C126 1.237 . S
O112 Co92 2.057 . S
O112 C99 1.263 . S
C113 O103 1.221 . S
C113 O109 1.277 . S
C114 C97 1.361 . S
C114 H115 0.960 . S
C114 H116 0.961 . S
C114 H117 0.961 . S
H115 C114 0.960 . S
H116 C114 0.961 . S
H117 C114 0.961 . S
C118 O102 1.221 . S
C118 O106 1.277 . S
C119 O104 1.237 . S
C119 O105 1.278 . S
H120 C88 0.931 . S
H121 C124 0.961 . S
H122 C124 0.961 1_565 S
H123 C124 0.960 1_565 S
C124 C90 1.362 . S
C124 H121 0.961 . S
C124 H122 0.961 1_545 S
C124 H123 0.960 1_545 S
C125 O101 1.253 . S
C125 O110 1.263 1_565 S
C126 O108 1.278 . S
C126 O111 1.237 . S
H127 C91 0.930 . S
H128 C95 0.930 . S
Co129 N130 2.034 . S
Co129 O144 2.262 . S
Co129 O148 1.958 . S
Co129 O152 1.950 . S
Co129 O153 2.057 . S
N130 Co129 2.034 . S
N130 C131 1.366 . S
N130 C133 1.332 . S
C131 N130 1.366 . S
C131 C134 1.377 . S
C131 H163 0.931 . S
N132 C133 1.346 . S
N132 C134 1.337 . S
C133 N130 1.332 . S
C133 N132 1.346 . S
C133 C167 1.361 . S
C134 C131 1.377 . S
C134 N132 1.337 . S
C134 H170 0.930 . S
Co135 N136 2.034 . S
Co135 O149 1.950 . S
Co135 O150 2.262 . S
Co135 O151 1.958 . S
Co135 O155 2.057 . S
N136 Co135 2.034 . S
N136 C139 1.366 . S
N136 C140 1.332 . S
N137 C138 1.337 . S
N137 C140 1.346 . S
C138 N137 1.337 . S
C138 C139 1.377 . S
C138 H171 0.930 . S
C139 N136 1.366 . S
C139 C138 1.377 . S
C139 H143 0.931 . S
C140 N136 1.332 . S
C140 N137 1.346 . S
C140 C157 1.361 . S
Co141 O144 2.100 . S
Co141 O145 2.060 1_455 S
Co141 O146 2.071 . S
Co141 O147 2.047 . S
Co141 O150 2.094 1_455 S
Co141 O154 2.036 1_455 S
C142 O150 1.253 . S
C142 O155 1.263 . S
H143 C139 0.931 . S
O144 Co129 2.262 . S
O144 Co141 2.100 . S
O144 C168 1.253 . S
O145 Co141 2.060 1_655 S
O145 C161 1.221 . S
O146 Co141 2.071 . S
O146 C156 1.221 . S
O147 Co141 2.047 . S
O147 C162 1.237 . S
O148 Co129 1.958 . S
O148 C162 1.278 . S
O149 Co135 1.950 . S
O149 C161 1.277 . S
O150 Co135 2.262 . S
O150 Co141 2.094 1_655 S
O150 C142 1.253 . S
O151 Co135 1.958 . S
O151 C169 1.278 . S
O152 Co129 1.950 . S
O152 C156 1.277 . S
O153 Co129 2.057 . S
O153 C168 1.263 . S
O154 Co141 2.036 1_655 S
O154 C169 1.237 . S
O155 Co135 2.057 . S
O155 C142 1.263 . S
C156 O146 1.221 . S
C156 O152 1.277 . S
C157 C140 1.361 . S
C157 H158 0.960 . S
C157 H159 0.961 . S
C157 H160 0.961 . S
H158 C157 0.960 . S
H159 C157 0.961 . S
H160 C157 0.961 . S
C161 O145 1.221 . S
C161 O149 1.277 . S
C162 O147 1.237 . S
C162 O148 1.278 . S
H163 C131 0.931 . S
H164 C167 0.961 . S
H165 C167 0.961 . S
H166 C167 0.960 . S
C167 C133 1.361 . S
C167 H164 0.961 . S
C167 H165 0.961 . S
C167 H166 0.960 . S
C168 O144 1.253 . S
C168 O153 1.263 . S
C169 O151 1.278 . S
C169 O154 1.237 . S
H170 C134 0.930 . S
H171 C138 0.930 . S
Co172 N173 2.034 . S
Co172 O187 2.262 . S
Co172 O191 1.958 . S
Co172 O195 1.950 . S
Co172 O196 2.057 1_565 S
N173 Co172 2.034 . S
N173 C174 1.366 . S
N173 C176 1.328 1_565 S
C174 N173 1.366 . S
C174 C177 1.377 . S
C174 H206 0.931 . S
N175 C176 1.348 . S
N175 C177 1.337 1_545 S
C176 N173 1.328 1_545 S
C176 N175 1.348 . S
C176 C210 1.362 . S
C177 C174 1.377 . S
C177 N175 1.337 1_565 S
C177 H213 0.930 . S
Co178 N179 2.034 . S
Co178 O192 1.950 . S
Co178 O193 2.262 . S
Co178 O194 1.958 . S
Co178 O198 2.057 . S
N179 Co178 2.034 . S
N179 C182 1.366 . S
N179 C183 1.332 . S
N180 C181 1.337 . S
N180 C183 1.346 . S
C181 N180 1.337 . S
C181 C182 1.377 . S
C181 H214 0.930 . S
C182 N179 1.366 . S
C182 C181 1.377 . S
C182 H186 0.931 . S
C183 N179 1.332 . S
C183 N180 1.346 . S
C183 C200 1.361 . S
Co184 O187 2.097 . S
Co184 O188 2.065 . S
Co184 O189 2.065 . S
Co184 O190 2.042 . S
Co184 O193 2.097 . S
Co184 O197 2.042 . S
C185 O193 1.253 . S
C185 O198 1.263 . S
H186 C182 0.931 . S
O187 Co172 2.262 . S
O187 Co184 2.097 . S
O187 C211 1.253 . S
O188 Co184 2.065 . S
O188 C204 1.221 . S
O189 Co184 2.065 . S
O189 C199 1.221 . S
O190 Co184 2.042 . S
O190 C205 1.237 . S
O191 Co172 1.958 . S
O191 C205 1.278 . S
O192 Co178 1.950 . S
O192 C204 1.277 . S
O193 Co178 2.262 . S
O193 Co184 2.097 . S
O193 C185 1.253 . S
O194 Co178 1.958 . S
O194 C212 1.278 . S
O195 Co172 1.950 . S
O195 C199 1.277 . S
O196 Co172 2.057 1_545 S
O196 C211 1.263 1_545 S
O197 Co184 2.042 . S
O197 C212 1.237 . S
O198 Co178 2.057 . S
O198 C185 1.263 . S
C199 O189 1.221 . S
C199 O195 1.277 . S
C200 C183 1.361 . S
C200 H201 0.960 . S
C200 H202 0.961 . S
C200 H203 0.961 . S
H201 C200 0.960 . S
H202 C200 0.961 . S
H203 C200 0.961 . S
C204 O188 1.221 . S
C204 O192 1.277 . S
C205 O190 1.237 . S
C205 O191 1.278 . S
H206 C174 0.931 . S
H207 C210 0.961 . S
H208 C210 0.961 1_565 S
H209 C210 0.960 1_565 S
C210 C176 1.362 . S
C210 H207 0.961 . S
C210 H208 0.961 1_545 S
C210 H209 0.960 1_545 S
C211 O187 1.253 . S
C211 O196 1.263 1_565 S
C212 O194 1.278 . S
C212 O197 1.237 . S
H213 C177 0.930 . S
H214 C181 0.930 . S
Co215 N216 2.034 . S
Co215 O230 2.262 . S
Co215 O234 1.958 . S
Co215 O238 1.950 . S
Co215 O239 2.057 1_545 S
N216 Co215 2.034 . S
N216 C217 1.366 . S
N216 C219 1.328 1_545 S
C217 N216 1.366 . S
C217 C220 1.377 . S
C217 H249 0.931 . S
N218 C219 1.348 . S
N218 C220 1.337 1_565 S
C219 N216 1.328 1_565 S
C219 N218 1.348 . S
C219 C253 1.362 . S
C220 C217 1.377 . S
C220 N218 1.337 1_545 S
C220 H256 0.930 . S
Co221 N222 2.034 . S
Co221 O235 1.950 . S
Co221 O236 2.262 . S
Co221 O237 1.958 . S
Co221 O241 2.057 . S
N222 Co221 2.034 . S
N222 C225 1.366 . S
N222 C226 1.332 . S
N223 C224 1.337 . S
N223 C226 1.346 . S
C224 N223 1.337 . S
C224 C225 1.377 . S
C224 H257 0.930 . S
C225 N222 1.366 . S
C225 C224 1.377 . S
C225 H229 0.931 . S
C226 N222 1.332 . S
C226 N223 1.346 . S
C226 C243 1.361 . S
Co227 O230 2.097 . S
Co227 O231 2.065 . S
Co227 O232 2.065 . S
Co227 O233 2.042 . S
Co227 O236 2.097 . S
Co227 O240 2.042 . S
C228 O236 1.253 . S
C228 O241 1.263 . S
H229 C225 0.931 . S
O230 Co215 2.262 . S
O230 Co227 2.097 . S
O230 C254 1.253 . S
O231 Co227 2.065 . S
O231 C247 1.221 . S
O232 Co227 2.065 . S
O232 C242 1.221 . S
O233 Co227 2.042 . S
O233 C248 1.237 . S
O234 Co215 1.958 . S
O234 C248 1.278 . S
O235 Co221 1.950 . S
O235 C247 1.277 . S
O236 Co221 2.262 . S
O236 Co227 2.097 . S
O236 C228 1.253 . S
O237 Co221 1.958 . S
O237 C255 1.278 . S
O238 Co215 1.950 . S
O238 C242 1.277 . S
O239 Co215 2.057 1_565 S
O239 C254 1.263 1_565 S
O240 Co227 2.042 . S
O240 C255 1.237 . S
O241 Co221 2.057 . S
O241 C228 1.263 . S
C242 O232 1.221 . S
C242 O238 1.277 . S
C243 C226 1.361 . S
C243 H244 0.960 . S
C243 H245 0.961 . S
C243 H246 0.961 . S
H244 C243 0.960 . S
H245 C243 0.961 . S
H246 C243 0.961 . S
C247 O231 1.221 . S
C247 O235 1.277 . S
C248 O233 1.237 . S
C248 O234 1.278 . S
H249 C217 0.931 . S
H250 C253 0.961 . S
H251 C253 0.961 1_545 S
H252 C253 0.960 1_545 S
C253 C219 1.362 . S
C253 H250 0.961 . S
C253 H251 0.961 1_565 S
C253 H252 0.960 1_565 S
C254 O230 1.253 . S
C254 O239 1.263 1_545 S
C255 O237 1.278 . S
C255 O240 1.237 . S
H256 C220 0.930 . S
H257 C224 0.930 . S
Co258 N259 2.034 . S
Co258 O273 2.262 . S
Co258 O277 1.958 . S
Co258 O281 1.950 . S
Co258 O282 2.057 . S
N259 Co258 2.034 . S
N259 C260 1.366 . S
N259 C262 1.332 . S
C260 N259 1.366 . S
C260 C263 1.377 . S
C260 H292 0.931 . S
N261 C262 1.346 . S
N261 C263 1.337 . S
C262 N259 1.332 . S
C262 N261 1.346 . S
C262 C296 1.361 . S
C263 C260 1.377 . S
C263 N261 1.337 . S
C263 H299 0.930 . S
Co264 N265 2.034 . S
Co264 O278 1.950 . S
Co264 O279 2.262 . S
Co264 O280 1.958 . S
Co264 O284 2.057 . S
N265 Co264 2.034 . S
N265 C268 1.366 . S
N265 C269 1.332 . S
N266 C267 1.337 . S
N266 C269 1.346 . S
C267 N266 1.337 . S
C267 C268 1.377 . S
C267 H300 0.930 . S
C268 N265 1.366 . S
C268 C267 1.377 . S
C268 H272 0.931 . S
C269 N265 1.332 . S
C269 N266 1.346 . S
C269 C286 1.361 . S
Co270 O273 2.097 . S
Co270 O274 2.065 . S
Co270 O275 2.065 1_545 S
Co270 O276 2.042 1_545 S
Co270 O279 2.097 1_545 S
Co270 O283 2.042 . S
C271 O279 1.253 . S
C271 O284 1.263 . S
H272 C268 0.931 . S
O273 Co258 2.262 . S
O273 Co270 2.097 . S
O273 C297 1.253 . S
O274 Co270 2.065 . S
O274 C290 1.221 . S
O275 Co270 2.065 1_565 S
O275 C285 1.225 . S
O276 Co270 2.042 1_565 S
O276 C291 1.237 . S
O277 Co258 1.958 . S
O277 C291 1.278 1_545 S
O278 Co264 1.950 . S
O278 C290 1.277 1_565 S
O279 Co264 2.262 . S
O279 Co270 2.097 1_565 S
O279 C271 1.253 . S
O280 Co264 1.958 . S
O280 C298 1.278 1_565 S
O281 Co258 1.950 . S
O281 C285 1.269 1_545 S
O282 Co258 2.057 . S
O282 C297 1.263 . S
O283 Co270 2.042 . S
O283 C298 1.237 . S
O284 Co264 2.057 . S
O284 C271 1.263 . S
C285 O275 1.225 . S
C285 O281 1.269 1_565 S
C286 C269 1.361 . S
C286 H287 0.960 . S
C286 H288 0.961 . S
C286 H289 0.961 . S
H287 C286 0.960 . S
H288 C286 0.961 . S
H289 C286 0.961 . S
C290 O274 1.221 . S
C290 O278 1.277 1_545 S
C291 O276 1.237 . S
C291 O277 1.278 1_565 S
H292 C260 0.931 . S
H293 C296 0.961 . S
H294 C296 0.961 . S
H295 C296 0.960 . S
C296 C262 1.361 . S
C296 H293 0.961 . S
C296 H294 0.961 . S
C296 H295 0.960 . S
C297 O273 1.253 . S
C297 O282 1.263 . S
C298 O280 1.278 1_545 S
C298 O283 1.237 . S
H299 C263 0.930 . S
H300 C267 0.930 . S
Co301 N302 2.034 . S
Co301 O316 2.262 . S
Co301 O320 1.958 . S
Co301 O324 1.950 1_556 S
Co301 O325 2.057 . S
N302 Co301 2.034 . S
N302 C303 1.366 . S
N302 C305 1.332 1_556 S
C303 N302 1.366 . S
C303 C306 1.377 . S
C303 H335 0.931 . S
N304 C305 1.346 . S
N304 C306 1.337 1_554 S
C305 N302 1.332 1_554 S
C305 N304 1.346 . S
C305 C339 1.361 . S
C306 C303 1.377 . S
C306 N304 1.337 1_556 S
C306 H342 0.930 . S
Co307 N308 2.034 . S
Co307 O321 1.950 1_556 S
Co307 O322 2.262 . S
Co307 O323 1.958 . S
Co307 O327 2.057 . S
N308 Co307 2.034 . S
N308 C311 1.366 . S
N308 C312 1.332 1_556 S
N309 C310 1.337 1_554 S
N309 C312 1.346 . S
C310 N309 1.337 1_556 S
C310 C311 1.377 . S
C310 H343 0.930 . S
C311 N308 1.366 . S
C311 C310 1.377 . S
C311 H315 0.931 . S
C312 N308 1.332 1_554 S
C312 N309 1.346 . S
C312 C329 1.361 . S
Co313 O316 2.097 . S
Co313 O317 2.065 1_556 S
Co313 O318 2.065 1_556 S
Co313 O319 2.042 . S
Co313 O322 2.097 . S
Co313 O326 2.042 . S
C314 O322 1.253 . S
C314 O327 1.263 . S
H315 C311 0.931 . S
O316 Co301 2.262 . S
O316 Co313 2.097 . S
O316 C340 1.253 . S
O317 Co313 2.065 1_554 S
O317 C333 1.221 . S
O318 Co313 2.065 1_554 S
O318 C328 1.221 . S
O319 Co313 2.042 . S
O319 C334 1.237 . S
O320 Co301 1.958 . S
O320 C334 1.278 . S
O321 Co307 1.950 1_554 S
O321 C333 1.277 . S
O322 Co307 2.262 . S
O322 Co313 2.097 . S
O322 C314 1.253 . S
O323 Co307 1.958 . S
O323 C341 1.278 . S
O324 Co301 1.950 1_554 S
O324 C328 1.277 . S
O325 Co301 2.057 . S
O325 C340 1.263 . S
O326 Co313 2.042 . S
O326 C341 1.237 . S
O327 Co307 2.057 . S
O327 C314 1.263 . S
C328 O318 1.221 . S
C328 O324 1.277 . S
C329 C312 1.361 . S
C329 H330 0.960 . S
C329 H331 0.961 . S
C329 H332 0.961 . S
H330 C329 0.960 . S
H331 C329 0.961 . S
H332 C329 0.961 . S
C333 O317 1.221 . S
C333 O321 1.277 . S
C334 O319 1.237 . S
C334 O320 1.278 . S
H335 C303 0.931 . S
H336 C339 0.961 . S
H337 C339 0.961 . S
H338 C339 0.960 . S
C339 C305 1.361 . S
C339 H336 0.961 . S
C339 H337 0.961 . S
C339 H338 0.960 . S
C340 O316 1.253 . S
C340 O325 1.263 . S
C341 O323 1.278 . S
C341 O326 1.237 . S
H342 C306 0.930 . S
H343 C310 0.930 . S
C344 C345 1.170 . S
C344 C346 1.380 . S
C345 C344 1.170 . S
C346 C344 1.380 . S
C346 C347 1.170 . S
C347 C346 1.170 . S
C348 C349 1.170 . S
C348 C350 1.380 . S
C349 C348 1.170 . S
C350 C348 1.380 . S
C350 C351 1.170 . S
C351 C350 1.170 . S
C352 C353 1.170 . S
C352 C354 1.380 . S
C353 C352 1.170 . S
C354 C352 1.380 . S
C354 C355 1.170 . S
C355 C354 1.170 . S
C356 C357 1.170 . S
C356 C358 1.380 . S
C357 C356 1.170 . S
C358 C356 1.380 . S
C358 C359 1.170 . S
C359 C358 1.170 . S
C360 C361 1.170 . S
C360 C362 1.380 . S
C361 C360 1.170 . S
C362 C360 1.380 . S
C362 C363 1.170 . S
C363 C362 1.170 . S
C364 C365 1.170 . S
C364 C366 1.380 . S
C365 C364 1.170 . S
C366 C364 1.380 . S
C366 C367 1.170 . S
C367 C366 1.170 . S
C368 C369 1.170 . S
C368 C370 1.380 . S
C369 C368 1.170 . S
C370 C368 1.380 . S
C370 C371 1.170 . S
C371 C370 1.170 . S
C372 C373 1.170 . S
C372 C374 1.380 . S
C373 C372 1.170 . S
C374 C372 1.380 . S
C374 C375 1.170 . S
C375 C374 1.170 . S
C376 C377 1.170 . S
C376 C378 1.380 . S
C377 C376 1.170 . S
C378 C376 1.380 . S
C378 C379 1.170 . S
C379 C378 1.170 . S
C380 C381 1.170 . S
C380 C382 1.380 . S
C381 C380 1.170 . S
C382 C380 1.380 . S
C382 C383 1.170 . S
C383 C382 1.170 . S
C384 C385 1.170 . S
C384 C386 1.380 . S
C385 C384 1.170 . S
C386 C384 1.380 . S
C386 C387 1.170 . S
C387 C386 1.170 . S
C388 C389 1.170 . S
C388 C390 1.380 . S
C389 C388 1.170 . S
C390 C388 1.380 . S
C390 C391 1.170 . S
C391 C390 1.170 . S
C392 C393 1.170 . S
C392 C394 1.380 . S
C393 C392 1.170 . S
C394 C392 1.380 . S
C394 C395 1.170 . S
C395 C394 1.170 . S
C396 C397 1.170 . S
C396 C398 1.380 . S
C397 C396 1.170 . S
C398 C396 1.380 . S
C398 C399 1.170 . S
C399 C398 1.170 . S
C400 C401 1.170 . S
C400 C402 1.380 . S
C401 C400 1.170 . S
C402 C400 1.380 . S
C402 C403 1.170 . S
C403 C402 1.170 . S
C404 C405 1.170 . S
C404 C406 1.380 . S
C405 C404 1.170 . S
C406 C404 1.380 . S
C406 C407 1.170 . S
C407 C406 1.170 . S
C408 C409 1.170 1_455 S
C408 C410 1.380 . S
C409 C408 1.170 1_655 S
C410 C408 1.380 . S
C410 C411 1.170 . S
C411 C410 1.170 . S
C412 C413 1.170 . S
C412 C414 1.380 . S
C413 C412 1.170 . S
C414 C412 1.380 . S
C414 C415 1.170 . S
C415 C414 1.170 . S
C416 C417 1.170 . S
C416 C418 1.380 . S
C417 C416 1.170 . S
C418 C416 1.380 . S
C418 C419 1.170 . S
C419 C418 1.170 . S
C420 C421 1.171 . S
C420 C422 1.379 1_465 S
C421 C420 1.171 . S
C422 C420 1.379 1_645 S
C422 C423 1.170 . S
C423 C422 1.170 . S
C424 C425 1.170 . S
C424 C426 1.380 . S
C425 C424 1.170 . S
C426 C424 1.380 . S
C426 C427 1.170 . S
C427 C426 1.170 . S
C428 C429 1.170 . S
C428 C430 1.380 . S
C429 C428 1.170 . S
C430 C428 1.380 . S
C430 C431 1.170 . S
C431 C430 1.170 . S
C432 C433 1.170 . S
C432 C434 1.380 . S
C433 C432 1.170 . S
C434 C432 1.380 . S
C434 C435 1.170 . S
C435 C434 1.170 . S
C436 C437 1.170 . S
C436 C438 1.380 1_565 S
C437 C436 1.170 . S
C438 C436 1.380 1_545 S
C438 C439 1.170 . S
C439 C438 1.170 . S
C440 C441 1.170 . S
C440 C442 1.380 . S
C441 C440 1.170 . S
C442 C440 1.380 . S
C442 C443 1.170 . S
C443 C442 1.170 . S
C444 C445 1.170 . S
C444 C446 1.380 . S
C445 C444 1.170 . S
C446 C444 1.380 . S
C446 C447 1.170 . S
C447 C446 1.170 . S
C448 C449 1.170 . S
C448 C450 1.380 1_455 S
C449 C448 1.170 . S
C450 C448 1.380 1_655 S
C450 C451 1.170 . S
C451 C450 1.170 . S
C452 C453 1.170 . S
C452 C454 1.380 . S
C453 C452 1.170 . S
C454 C452 1.380 . S
C454 C455 1.170 . S
C455 C454 1.170 . S
C456 C457 1.170 . S
C456 C458 1.380 . S
C457 C456 1.170 . S
C458 C456 1.380 . S
C458 C459 1.170 . S
C459 C458 1.170 . S
C460 C461 1.170 . S
C460 C462 1.380 1_665 S
C461 C460 1.170 . S
C462 C460 1.380 1_445 S
C462 C463 1.170 . S
C463 C462 1.170 . S
C464 C465 1.170 . S
C464 C466 1.380 . S
C465 C464 1.170 . S
C466 C464 1.380 . S
C466 C467 1.170 . S
C467 C466 1.170 . S
C468 C469 1.170 . S
C468 C470 1.380 1_545 S
C469 C468 1.170 . S
C470 C468 1.380 1_565 S
C470 C471 1.170 . S
C471 C470 1.170 . S
C345 C27 1.889 1_545 S
C347 C76 2.129 . S
C349 C32 1.895 1_565 S
C351 C126 2.119 . S
C353 C162 2.123 . S
C355 C70 1.928 . S
C357 C118 1.896 . S
C359 C169 2.109 . S
C361 C156 1.875 . S
C363 C205 2.135 . S
C365 C248 2.130 . S
C367 C161 1.895 . S
C369 C199 1.882 . S
C371 C33 2.134 . S
C373 C242 1.906 . S
C375 C40 2.111 . S
C377 C255 2.122 . S
C379 C285 1.909 1_545 S
C381 C290 1.888 1_565 S
C383 C212 2.133 . S
C385 C334 2.136 . S
C387 C247 1.907 . S
C389 C341 2.115 . S
C391 C204 1.881 . S
C393 C328 1.875 . S
C395 C119 2.133 . S
C397 C83 2.134 . S
C399 C333 1.873 . S
C401 C291 2.119 . S
C403 C113 1.876 . S
C405 C298 2.135 . S
C407 C75 1.908 . S
C409 C13 1.880 . S
C411 C39 1.842 . S
C413 C82 1.837 . S
C415 C56 1.880 1_565 S
C417 C125 1.854 1_545 S
C419 C99 1.877 . S
C421 C168 1.864 . S
C423 C142 1.844 . S
C425 C211 1.854 1_545 S
C427 C185 1.847 . S
C429 C228 1.878 . S
C431 C254 1.836 1_565 S
C433 C271 1.863 . S
C435 C297 1.844 . S
C437 C340 1.845 . S
C439 C314 1.879 . S
C441 N309 1.225 . S
C443 N3 1.216 . S
C445 N8 1.195 . S
C447 N304 1.255 . S
C449 N46 1.248 . S
C451 N94 1.177 . S
C453 N266 1.207 . S
C455 N132 1.244 . S
C457 N137 1.267 . S
C459 N261 1.179 . S
C461 N218 1.196 . S
C463 N175 1.267 . S
C465 N223 1.192 . S
C467 N180 1.266 . S
C469 N89 1.239 . S
C471 N51 1.177 . S
