# Generated by pormake.
# Topology sod-g, (3)-cn, num edge types: 1
# Building blocks:
#     Node 0, Type 0, BuildingBlock: OLANEW_clean_sbu_2, # of connection points: 3
#     Node 1, Type 0, BuildingBlock: OLANEW_clean_sbu_2, # of connection points: 3
#     Node 2, Type 0, BuildingBlock: OLANEW_clean_sbu_2, # of connection points: 3
#     Node 3, Type 0, BuildingBlock: OLANEW_clean_sbu_2, # of connection points: 3
#     Node 4, Type 0, BuildingBlock: OLANEW_clean_sbu_2, # of connection points: 3
#     Node 5, Type 0, BuildingBlock: OLANEW_clean_sbu_2, # of connection points: 3
#     Node 6, Type 0, BuildingBlock: OLANEW_clean_sbu_2, # of connection points: 3
#     Node 7, Type 0, BuildingBlock: OLANEW_clean_sbu_2, # of connection points: 3
#     Node 8, Type 0, BuildingBlock: OLANEW_clean_sbu_2, # of connection points: 3
#     Node 9, Type 0, BuildingBlock: OLANEW_clean_sbu_2, # of connection points: 3
#     Node 10, Type 0, BuildingBlock: OLANEW_clean_sbu_2, # of connection points: 3
#     Node 11, Type 0, BuildingBlock: OLANEW_clean_sbu_2, # of connection points: 3
#     Node 12, Type 0, BuildingBlock: OLANEW_clean_sbu_2, # of connection points: 3
#     Node 13, Type 0, BuildingBlock: OLANEW_clean_sbu_2, # of connection points: 3
#     Node 14, Type 0, BuildingBlock: OLANEW_clean_sbu_2, # of connection points: 3
#     Node 15, Type 0, BuildingBlock: OLANEW_clean_sbu_2, # of connection points: 3
#     Node 16, Type 0, BuildingBlock: OLANEW_clean_sbu_2, # of connection points: 3
#     Node 17, Type 0, BuildingBlock: OLANEW_clean_sbu_2, # of connection points: 3
#     Node 18, Type 0, BuildingBlock: OLANEW_clean_sbu_2, # of connection points: 3
#     Node 19, Type 0, BuildingBlock: OLANEW_clean_sbu_2, # of connection points: 3
#     Node 20, Type 0, BuildingBlock: OLANEW_clean_sbu_2, # of connection points: 3
#     Node 21, Type 0, BuildingBlock: OLANEW_clean_sbu_2, # of connection points: 3
#     Node 22, Type 0, BuildingBlock: OLANEW_clean_sbu_2, # of connection points: 3
#     Node 23, Type 0, BuildingBlock: OLANEW_clean_sbu_2, # of connection points: 3
#     Node 24, Type 0, BuildingBlock: OLANEW_clean_sbu_2, # of connection points: 3
#     Node 25, Type 0, BuildingBlock: OLANEW_clean_sbu_2, # of connection points: 3
#     Node 26, Type 0, BuildingBlock: OLANEW_clean_sbu_2, # of connection points: 3
#     Node 27, Type 0, BuildingBlock: OLANEW_clean_sbu_2, # of connection points: 3
#     Node 28, Type 0, BuildingBlock: OLANEW_clean_sbu_2, # of connection points: 3
#     Node 29, Type 0, BuildingBlock: OLANEW_clean_sbu_2, # of connection points: 3
#     Node 30, Type 0, BuildingBlock: OLANEW_clean_sbu_2, # of connection points: 3
#     Node 31, Type 0, BuildingBlock: OLANEW_clean_sbu_2, # of connection points: 3
#     Node 32, Type 0, BuildingBlock: OLANEW_clean_sbu_2, # of connection points: 3
#     Node 33, Type 0, BuildingBlock: OLANEW_clean_sbu_2, # of connection points: 3
#     Node 34, Type 0, BuildingBlock: OLANEW_clean_sbu_2, # of connection points: 3
#     Node 35, Type 0, BuildingBlock: OLANEW_clean_sbu_2, # of connection points: 3
#     Node 36, Type 0, BuildingBlock: OLANEW_clean_sbu_2, # of connection points: 3
#     Node 37, Type 0, BuildingBlock: OLANEW_clean_sbu_2, # of connection points: 3
#     Node 38, Type 0, BuildingBlock: OLANEW_clean_sbu_2, # of connection points: 3
#     Node 39, Type 0, BuildingBlock: OLANEW_clean_sbu_2, # of connection points: 3
#     Node 40, Type 0, BuildingBlock: OLANEW_clean_sbu_2, # of connection points: 3
#     Node 41, Type 0, BuildingBlock: OLANEW_clean_sbu_2, # of connection points: 3
#     Node 42, Type 0, BuildingBlock: OLANEW_clean_sbu_2, # of connection points: 3
#     Node 43, Type 0, BuildingBlock: OLANEW_clean_sbu_2, # of connection points: 3
#     Node 44, Type 0, BuildingBlock: OLANEW_clean_sbu_2, # of connection points: 3
#     Node 45, Type 0, BuildingBlock: OLANEW_clean_sbu_2, # of connection points: 3
#     Node 46, Type 0, BuildingBlock: OLANEW_clean_sbu_2, # of connection points: 3
#     Node 47, Type 0, BuildingBlock: OLANEW_clean_sbu_2, # of connection points: 3
#     Edge 48, Type (0, 0), BuildingBlock: XIVTED_clean_linker_0, # of connection points: 2
#     Edge 49, Type (0, 0), BuildingBlock: XIVTED_clean_linker_0, # of connection points: 2
#     Edge 50, Type (0, 0), BuildingBlock: XIVTED_clean_linker_0, # of connection points: 2
#     Edge 51, Type (0, 0), BuildingBlock: XIVTED_clean_linker_0, # of connection points: 2
#     Edge 52, Type (0, 0), BuildingBlock: XIVTED_clean_linker_0, # of connection points: 2
#     Edge 53, Type (0, 0), BuildingBlock: XIVTED_clean_linker_0, # of connection points: 2
#     Edge 54, Type (0, 0), BuildingBlock: XIVTED_clean_linker_0, # of connection points: 2
#     Edge 55, Type (0, 0), BuildingBlock: XIVTED_clean_linker_0, # of connection points: 2
#     Edge 56, Type (0, 0), BuildingBlock: XIVTED_clean_linker_0, # of connection points: 2
#     Edge 57, Type (0, 0), BuildingBlock: XIVTED_clean_linker_0, # of connection points: 2
#     Edge 58, Type (0, 0), BuildingBlock: XIVTED_clean_linker_0, # of connection points: 2
#     Edge 59, Type (0, 0), BuildingBlock: XIVTED_clean_linker_0, # of connection points: 2
#     Edge 60, Type (0, 0), BuildingBlock: XIVTED_clean_linker_0, # of connection points: 2
#     Edge 61, Type (0, 0), BuildingBlock: XIVTED_clean_linker_0, # of connection points: 2
#     Edge 62, Type (0, 0), BuildingBlock: XIVTED_clean_linker_0, # of connection points: 2
#     Edge 63, Type (0, 0), BuildingBlock: XIVTED_clean_linker_0, # of connection points: 2
#     Edge 64, Type (0, 0), BuildingBlock: XIVTED_clean_linker_0, # of connection points: 2
#     Edge 65, Type (0, 0), BuildingBlock: XIVTED_clean_linker_0, # of connection points: 2
#     Edge 66, Type (0, 0), BuildingBlock: XIVTED_clean_linker_0, # of connection points: 2
#     Edge 67, Type (0, 0), BuildingBlock: XIVTED_clean_linker_0, # of connection points: 2
#     Edge 68, Type (0, 0), BuildingBlock: XIVTED_clean_linker_0, # of connection points: 2
#     Edge 69, Type (0, 0), BuildingBlock: XIVTED_clean_linker_0, # of connection points: 2
#     Edge 70, Type (0, 0), BuildingBlock: XIVTED_clean_linker_0, # of connection points: 2
#     Edge 71, Type (0, 0), BuildingBlock: XIVTED_clean_linker_0, # of connection points: 2
#     Edge 72, Type (0, 0), BuildingBlock: XIVTED_clean_linker_0, # of connection points: 2
#     Edge 73, Type (0, 0), BuildingBlock: XIVTED_clean_linker_0, # of connection points: 2
#     Edge 74, Type (0, 0), BuildingBlock: XIVTED_clean_linker_0, # of connection points: 2
#     Edge 75, Type (0, 0), BuildingBlock: XIVTED_clean_linker_0, # of connection points: 2
#     Edge 76, Type (0, 0), BuildingBlock: XIVTED_clean_linker_0, # of connection points: 2
#     Edge 77, Type (0, 0), BuildingBlock: XIVTED_clean_linker_0, # of connection points: 2
#     Edge 78, Type (0, 0), BuildingBlock: XIVTED_clean_linker_0, # of connection points: 2
#     Edge 79, Type (0, 0), BuildingBlock: XIVTED_clean_linker_0, # of connection points: 2
#     Edge 80, Type (0, 0), BuildingBlock: XIVTED_clean_linker_0, # of connection points: 2
#     Edge 81, Type (0, 0), BuildingBlock: XIVTED_clean_linker_0, # of connection points: 2
#     Edge 82, Type (0, 0), BuildingBlock: XIVTED_clean_linker_0, # of connection points: 2
#     Edge 83, Type (0, 0), BuildingBlock: XIVTED_clean_linker_0, # of connection points: 2
#     Edge 84, Type (0, 0), BuildingBlock: XIVTED_clean_linker_0, # of connection points: 2
#     Edge 85, Type (0, 0), BuildingBlock: XIVTED_clean_linker_0, # of connection points: 2
#     Edge 86, Type (0, 0), BuildingBlock: XIVTED_clean_linker_0, # of connection points: 2
#     Edge 87, Type (0, 0), BuildingBlock: XIVTED_clean_linker_0, # of connection points: 2
#     Edge 88, Type (0, 0), BuildingBlock: XIVTED_clean_linker_0, # of connection points: 2
#     Edge 89, Type (0, 0), BuildingBlock: XIVTED_clean_linker_0, # of connection points: 2
#     Edge 90, Type (0, 0), BuildingBlock: XIVTED_clean_linker_0, # of connection points: 2
#     Edge 91, Type (0, 0), BuildingBlock: XIVTED_clean_linker_0, # of connection points: 2
#     Edge 92, Type (0, 0), BuildingBlock: XIVTED_clean_linker_0, # of connection points: 2
#     Edge 93, Type (0, 0), BuildingBlock: XIVTED_clean_linker_0, # of connection points: 2
#     Edge 94, Type (0, 0), BuildingBlock: XIVTED_clean_linker_0, # of connection points: 2
#     Edge 95, Type (0, 0), BuildingBlock: XIVTED_clean_linker_0, # of connection points: 2
#     Edge 96, Type (0, 0), BuildingBlock: XIVTED_clean_linker_0, # of connection points: 2
#     Edge 97, Type (0, 0), BuildingBlock: XIVTED_clean_linker_0, # of connection points: 2
#     Edge 98, Type (0, 0), BuildingBlock: XIVTED_clean_linker_0, # of connection points: 2
#     Edge 99, Type (0, 0), BuildingBlock: XIVTED_clean_linker_0, # of connection points: 2
#     Edge 100, Type (0, 0), BuildingBlock: XIVTED_clean_linker_0, # of connection points: 2
#     Edge 101, Type (0, 0), BuildingBlock: XIVTED_clean_linker_0, # of connection points: 2
#     Edge 102, Type (0, 0), BuildingBlock: XIVTED_clean_linker_0, # of connection points: 2
#     Edge 103, Type (0, 0), BuildingBlock: XIVTED_clean_linker_0, # of connection points: 2
#     Edge 104, Type (0, 0), BuildingBlock: XIVTED_clean_linker_0, # of connection points: 2
#     Edge 105, Type (0, 0), BuildingBlock: XIVTED_clean_linker_0, # of connection points: 2
#     Edge 106, Type (0, 0), BuildingBlock: XIVTED_clean_linker_0, # of connection points: 2
#     Edge 107, Type (0, 0), BuildingBlock: XIVTED_clean_linker_0, # of connection points: 2
#     Edge 108, Type (0, 0), BuildingBlock: XIVTED_clean_linker_0, # of connection points: 2
#     Edge 109, Type (0, 0), BuildingBlock: XIVTED_clean_linker_0, # of connection points: 2
#     Edge 110, Type (0, 0), BuildingBlock: XIVTED_clean_linker_0, # of connection points: 2
#     Edge 111, Type (0, 0), BuildingBlock: XIVTED_clean_linker_0, # of connection points: 2
#     Edge 112, Type (0, 0), BuildingBlock: XIVTED_clean_linker_0, # of connection points: 2
#     Edge 113, Type (0, 0), BuildingBlock: XIVTED_clean_linker_0, # of connection points: 2
#     Edge 114, Type (0, 0), BuildingBlock: XIVTED_clean_linker_0, # of connection points: 2
#     Edge 115, Type (0, 0), BuildingBlock: XIVTED_clean_linker_0, # of connection points: 2
#     Edge 116, Type (0, 0), BuildingBlock: XIVTED_clean_linker_0, # of connection points: 2
#     Edge 117, Type (0, 0), BuildingBlock: XIVTED_clean_linker_0, # of connection points: 2
#     Edge 118, Type (0, 0), BuildingBlock: XIVTED_clean_linker_0, # of connection points: 2
#     Edge 119, Type (0, 0), BuildingBlock: XIVTED_clean_linker_0, # of connection points: 2
# Relax obj value: 0.024
# Max RMSD: 0.011
# Mean RMSD: 0.011
data_MOF--net-sod-g--node1-OLANEW_clean_sbu_2--edge1-XIVTED_clean_linker_0
_symmetry_space_group_name_H-M    P1
_symmetry_Int_Tables_number       1
_symmetry_cell_setting            triclinic
loop_
_symmetry_equiv_pos_as_xyz
'x, y, z'
_cell_length_a     102.85749
_cell_length_b     102.8479
_cell_length_c     102.86132
_cell_angle_alpha  89.977614
_cell_angle_beta   90.011293
_cell_angle_gamma 90.003201
loop_
_atom_site_label
_atom_site_type_symbol
_atom_site_fract_x
_atom_site_fract_y
_atom_site_fract_z
_atom_type_partial_charge
O0 O 0.02881 0.45549 0.13823 0.0
Cd1 Cd 0.04668 0.44175 0.13104 0.0
O2 O 0.04257 0.46425 0.15193 0.0
Cd3 Cd 0.04702 0.47694 0.16833 0.0
O4 O 0.04678 0.48282 0.18865 0.0
C5 C 0.03606 0.48156 0.19465 0.0
O6 O 0.02579 0.47758 0.18817 0.0
C7 C 0.03132 0.46401 0.14681 0.0
C8 C 0.0632 0.45818 0.11734 0.0
O9 O 0.05378 0.45232 0.11168 0.0
O10 O 0.06518 0.45583 0.12942 0.0
O11 O 0.53808 0.03106 0.14192 0.0
Cd12 Cd 0.55112 0.04959 0.13507 0.0
O13 O 0.53141 0.04245 0.15866 0.0
Cd14 Cd 0.52107 0.04364 0.17714 0.0
O15 O 0.51751 0.04022 0.19773 0.0
C16 C 0.52307 0.03036 0.2027 0.0
O17 O 0.53008 0.0228 0.19517 0.0
C18 C 0.53094 0.03211 0.15193 0.0
C19 C 0.53427 0.06664 0.12254 0.0
O20 O 0.53993 0.05744 0.11633 0.0
O21 O 0.53693 0.06807 0.13463 0.0
O22 O 0.96522 0.53934 0.1359 0.0
Cd23 Cd 0.9473 0.55273 0.12817 0.0
O24 O 0.95238 0.53227 0.15137 0.0
Cd25 Cd 0.94884 0.5213 0.16918 0.0
O26 O 0.94923 0.51596 0.18966 0.0
C27 C 0.95992 0.51738 0.19569 0.0
O28 O 0.97017 0.52138 0.1892 0.0
C29 C 0.96325 0.53183 0.1455 0.0
C30 C 0.93115 0.53616 0.11417 0.0
O31 O 0.94059 0.54213 0.10865 0.0
O32 O 0.92903 0.53842 0.12624 0.0
O33 O 0.45734 0.96276 0.14473 0.0
Cd34 Cd 0.44451 0.94389 0.13844 0.0
O35 O 0.46461 0.95199 0.16165 0.0
Cd36 Cd 0.47551 0.95163 0.17984 0.0
O37 O 0.47948 0.95634 0.20009 0.0
C38 C 0.47424 0.96664 0.20445 0.0
O39 O 0.46731 0.97388 0.19651 0.0
C40 C 0.46475 0.96212 0.15459 0.0
C41 C 0.46029 0.92964 0.12175 0.0
O42 O 0.45281 0.93863 0.11745 0.0
O43 O 0.45991 0.927 0.13393 0.0
O44 O 0.03966 0.53764 0.86223 0.0
Cd45 Cd 0.06006 0.54955 0.86008 0.0
O46 O 0.04335 0.53225 0.84204 0.0
Cd47 Cd 0.04064 0.5223 0.82344 0.0
O48 O 0.03667 0.5178 0.80311 0.0
C49 C 0.02728 0.52365 0.79761 0.0
O50 O 0.02016 0.53173 0.80447 0.0
C51 C 0.03627 0.53137 0.85216 0.0
C52 C 0.07996 0.53341 0.86871 0.0
O53 O 0.07522 0.54222 0.87613 0.0
O54 O 0.07555 0.53247 0.8571 0.0
O55 O 0.46321 0.03315 0.86612 0.0
Cd56 Cd 0.45048 0.05276 0.86989 0.0
O57 O 0.46709 0.0395 0.8462 0.0
Cd58 Cd 0.4759 0.03923 0.82684 0.0
O59 O 0.47966 0.03646 0.80616 0.0
C60 C 0.47421 0.02689 0.80056 0.0
O61 O 0.4669 0.01902 0.80748 0.0
C62 C 0.46885 0.0313 0.8553 0.0
C63 C 0.46694 0.06985 0.88283 0.0
O64 O 0.46005 0.06155 0.88907 0.0
O65 O 0.46565 0.07045 0.87045 0.0
O66 O 0.95688 0.46459 0.8632 0.0
Cd67 Cd 0.93605 0.45336 0.86184 0.0
O68 O 0.95319 0.46914 0.8428 0.0
Cd69 Cd 0.95611 0.47827 0.8238 0.0
O70 O 0.96026 0.48217 0.80339 0.0
C71 C 0.96967 0.47614 0.79811 0.0
O72 O 0.9767 0.4682 0.80524 0.0
C73 C 0.96037 0.47026 0.85281 0.0
C74 C 0.91714 0.46973 0.87208 0.0
O75 O 0.9219 0.46044 0.8789 0.0
O76 O 0.92105 0.47106 0.86034 0.0
O77 O 0.53707 0.95256 0.85543 0.0
Cd78 Cd 0.54789 0.93168 0.85244 0.0
O79 O 0.53197 0.95072 0.83491 0.0
Cd80 Cd 0.52245 0.9551 0.81641 0.0
O81 O 0.51842 0.95998 0.79619 0.0
C82 C 0.52476 0.96925 0.79104 0.0
O83 O 0.53308 0.97578 0.7982 0.0
C84 C 0.53115 0.95699 0.84554 0.0
C85 C 0.53103 0.91261 0.86161 0.0
O86 O 0.54038 0.91681 0.8687 0.0
O87 O 0.52991 0.91714 0.85005 0.0
O88 O 0.14405 0.03849 0.46868 0.0
Cd89 Cd 0.13951 0.05835 0.45659 0.0
O90 O 0.16297 0.04592 0.47527 0.0
Cd91 Cd 0.18158 0.04235 0.48495 0.0
O92 O 0.2011 0.03544 0.48967 0.0
C93 C 0.20459 0.02428 0.48565 0.0
O94 O 0.19619 0.0171 0.47924 0.0
C95 C 0.15433 0.03709 0.47537 0.0
C96 C 0.1231 0.07333 0.472 0.0
O97 O 0.11853 0.06479 0.46417 0.0
O98 O 0.13544 0.07509 0.47224 0.0
O99 O 0.96336 0.14187 0.457 0.0
Cd100 Cd 0.94471 0.13552 0.44388 0.0
O101 O 0.95257 0.15901 0.46364 0.0
Cd102 Cd 0.95157 0.17736 0.47424 0.0
O103 O 0.9542 0.19781 0.47907 0.0
C104 C 0.96453 0.20328 0.47509 0.0
O105 O 0.97317 0.1963 0.46876 0.0
C106 C 0.96263 0.15187 0.4642 0.0
C107 C 0.9295 0.11989 0.45988 0.0
O108 O 0.93855 0.11501 0.45284 0.0
O109 O 0.92729 0.13212 0.45896 0.0
O110 O 0.85074 0.95957 0.45574 0.0
Cd111 Cd 0.84962 0.93931 0.4435 0.0
O112 O 0.83342 0.95184 0.4654 0.0
Cd113 Cd 0.81672 0.95422 0.47825 0.0
O114 O 0.7968 0.96007 0.48238 0.0
C115 C 0.79256 0.96972 0.47592 0.0
O116 O 0.8005 0.97573 0.46791 0.0
C117 C 0.84208 0.96061 0.46447 0.0
C118 C 0.86108 0.92063 0.4593 0.0
O119 O 0.86749 0.92592 0.45001 0.0
O120 O 0.84912 0.92376 0.46075 0.0
O121 O 0.04555 0.86536 0.46421 0.0
Cd122 Cd 0.06619 0.86312 0.45279 0.0
O123 O 0.0465 0.84423 0.46624 0.0
Cd124 Cd 0.03967 0.82486 0.47173 0.0
O125 O 0.03487 0.80441 0.47469 0.0
C126 C 0.02804 0.7985 0.46625 0.0
O127 O 0.02374 0.80498 0.45611 0.0
C128 C 0.04082 0.85491 0.46878 0.0
C129 C 0.0856 0.87253 0.46909 0.0
O130 O 0.08102 0.87958 0.45989 0.0
O131 O 0.08126 0.86092 0.47035 0.0
O132 O 0.15268 0.95579 0.53993 0.0
Cd133 Cd 0.15404 0.93474 0.55073 0.0
O134 O 0.16871 0.94853 0.52787 0.0
Cd135 Cd 0.18369 0.95265 0.51335 0.0
O136 O 0.2013 0.96184 0.50588 0.0
C137 C 0.20306 0.97388 0.50804 0.0
O138 O 0.19386 0.98051 0.51392 0.0
C139 C 0.16047 0.95735 0.53047 0.0
C140 C 0.14123 0.91711 0.53475 0.0
O141 O 0.13548 0.92207 0.54463 0.0
O142 O 0.15314 0.92013 0.53272 0.0
O143 O 0.02923 0.13707 0.5386 0.0
Cd144 Cd 0.04663 0.1292 0.5526 0.0
O145 O 0.04242 0.15233 0.53166 0.0
Cd146 Cd 0.04568 0.17016 0.52063 0.0
O147 O 0.04339 0.19066 0.51587 0.0
C148 C 0.03228 0.19567 0.51793 0.0
O149 O 0.02283 0.18818 0.52216 0.0
C150 C 0.03147 0.14662 0.5311 0.0
C151 C 0.06442 0.11655 0.53665 0.0
O152 O 0.05471 0.11047 0.54154 0.0
O153 O 0.06596 0.12855 0.53963 0.0
O154 O 0.86625 0.0319 0.53386 0.0
Cd155 Cd 0.87385 0.05033 0.54662 0.0
O156 O 0.84931 0.04349 0.52804 0.0
Cd157 Cd 0.83032 0.04479 0.51866 0.0
O158 O 0.80964 0.04151 0.5154 0.0
C159 C 0.80463 0.03165 0.52092 0.0
O160 O 0.81215 0.02396 0.52782 0.0
C161 C 0.85591 0.03308 0.52722 0.0
C162 C 0.88596 0.06724 0.52935 0.0
O163 O 0.89229 0.05803 0.53486 0.0
O164 O 0.87396 0.06874 0.53235 0.0
O165 O 0.95785 0.87212 0.52983 0.0
Cd166 Cd 0.93738 0.87065 0.54169 0.0
O167 O 0.95824 0.85103 0.53221 0.0
Cd168 Cd 0.96464 0.83104 0.52899 0.0
O169 O 0.96786 0.81011 0.52965 0.0
C170 C 0.96034 0.80363 0.53699 0.0
O171 O 0.95127 0.80981 0.54352 0.0
C172 C 0.96336 0.8613 0.52761 0.0
C173 C 0.9174 0.87811 0.52509 0.0
O174 O 0.92197 0.88604 0.53355 0.0
O175 O 0.92205 0.86657 0.52469 0.0
O176 O 0.46502 0.13912 0.04221 0.0
Cd177 Cd 0.45203 0.13677 0.06186 0.0
O178 O 0.468 0.15993 0.04553 0.0
Cd179 Cd 0.47618 0.17935 0.04271 0.0
O180 O 0.47954 0.1999 0.03871 0.0
C181 C 0.47336 0.20513 0.02936 0.0
O182 O 0.46555 0.1979 0.02231 0.0
C183 C 0.47029 0.14977 0.03885 0.0
C184 C 0.46698 0.1215 0.07843 0.0
O185 O 0.45917 0.11633 0.07021 0.0
O186 O 0.4673 0.13393 0.07923 0.0
O187 O 0.45735 0.85663 0.94926 0.0
Cd188 Cd 0.44687 0.85283 0.92835 0.0
O189 O 0.46346 0.83636 0.94779 0.0
Cd190 Cd 0.47367 0.81826 0.95223 0.0
O191 O 0.4777 0.79802 0.95701 0.0
C192 C 0.47072 0.79266 0.96568 0.0
O193 O 0.46185 0.79965 0.97165 0.0
C194 C 0.46377 0.84714 0.95387 0.0
C195 C 0.46376 0.86239 0.90951 0.0
O196 O 0.45406 0.86917 0.91341 0.0
O197 O 0.46518 0.85092 0.91417 0.0
O198 O 0.1418 0.46 0.95204 0.0
Cd199 Cd 0.14535 0.44993 0.93088 0.0
O200 O 0.16227 0.46553 0.95096 0.0
Cd201 Cd 0.18044 0.47519 0.95625 0.0
O202 O 0.20023 0.47847 0.96306 0.0
C203 C 0.20463 0.47071 0.97161 0.0
O204 O 0.19698 0.46154 0.97614 0.0
C205 C 0.15144 0.46597 0.95693 0.0
C206 C 0.13422 0.46647 0.91261 0.0
O207 O 0.12811 0.45638 0.91663 0.0
O208 O 0.14576 0.46847 0.91686 0.0
O209 O 0.54185 0.13584 0.96448 0.0
Cd210 Cd 0.55414 0.1328 0.94448 0.0
O211 O 0.53634 0.15539 0.95815 0.0
Cd212 Cd 0.526 0.17395 0.95862 0.0
O213 O 0.52108 0.19431 0.96185 0.0
C214 C 0.52651 0.20005 0.97135 0.0
O215 O 0.53446 0.19343 0.97885 0.0
C216 C 0.53545 0.14622 0.96642 0.0
C217 C 0.53755 0.11931 0.92796 0.0
O218 O 0.54497 0.11331 0.93597 0.0
O219 O 0.53838 0.13173 0.92733 0.0
O220 O 0.85223 0.53893 0.95857 0.0
Cd221 Cd 0.85241 0.55113 0.93824 0.0
O222 O 0.83624 0.52846 0.94922 0.0
Cd223 Cd 0.81989 0.51495 0.94973 0.0
O224 O 0.79991 0.50892 0.95319 0.0
C225 C 0.79508 0.51113 0.96434 0.0
O226 O 0.80255 0.51616 0.97341 0.0
C227 C 0.84387 0.52985 0.95884 0.0
C228 C 0.86438 0.53539 0.91982 0.0
O229 O 0.87071 0.5445 0.92549 0.0
O230 O 0.8523 0.53402 0.92253 0.0
O231 O 0.53177 0.8742 0.0277 0.0
Cd232 Cd 0.54528 0.87933 0.04645 0.0
O233 O 0.53108 0.85384 0.03376 0.0
Cd234 Cd 0.52528 0.83338 0.03407 0.0
O235 O 0.52453 0.8122 0.0336 0.0
C236 C 0.53131 0.806 0.04187 0.0
O237 O 0.5381 0.81258 0.05046 0.0
C238 C 0.5275 0.86275 0.02595 0.0
C239 C 0.52879 0.89014 0.06494 0.0
O240 O 0.5343 0.89721 0.05629 0.0
O241 O 0.53146 0.87797 0.06517 0.0
O242 O 0.12925 0.53236 0.03362 0.0
Cd243 Cd 0.12472 0.54487 0.0532 0.0
O244 O 0.14938 0.52965 0.03993 0.0
Cd245 Cd 0.16918 0.52194 0.03951 0.0
O246 O 0.18992 0.51921 0.03605 0.0
C247 C 0.19527 0.52647 0.02761 0.0
O248 O 0.18809 0.53497 0.02132 0.0
C249 C 0.14039 0.52738 0.03174 0.0
C250 C 0.11097 0.52834 0.06958 0.0
O251 O 0.10511 0.53547 0.06121 0.0
O252 O 0.12335 0.5294 0.07057 0.0
O253 O 0.86118 0.4614 0.03292 0.0
Cd254 Cd 0.86808 0.44904 0.05189 0.0
O255 O 0.84535 0.4696 0.04461 0.0
Cd256 Cd 0.82748 0.48094 0.04638 0.0
O257 O 0.80703 0.48632 0.04507 0.0
C258 C 0.80144 0.48566 0.03407 0.0
O259 O 0.80834 0.48238 0.02383 0.0
C260 C 0.85162 0.46915 0.03398 0.0
C261 C 0.88193 0.46618 0.06756 0.0
O262 O 0.8876 0.45963 0.0586 0.0
O263 O 0.86976 0.46427 0.06942 0.0
O264 O 0.53485 0.9651 0.62817 0.0
Cd265 Cd 0.55449 0.95245 0.6243 0.0
O266 O 0.5407 0.96826 0.64837 0.0
Cd267 Cd 0.53991 0.97638 0.66803 0.0
O268 O 0.53693 0.9798 0.68875 0.0
C269 C 0.52717 0.97449 0.69418 0.0
O270 O 0.51919 0.96749 0.68707 0.0
C271 C 0.5327 0.97032 0.63915 0.0
C272 C 0.57209 0.96908 0.61227 0.0
O273 O 0.5638 0.96257 0.60563 0.0
O274 O 0.57238 0.96738 0.62461 0.0
O275 O 0.03728 0.53905 0.63611 0.0
Cd276 Cd 0.04893 0.55961 0.638 0.0
O277 O 0.03191 0.54299 0.65626 0.0
Cd278 Cd 0.02197 0.54051 0.6749 0.0
O279 O 0.0175 0.53671 0.69527 0.0
C280 C 0.02326 0.52728 0.7008 0.0
O281 O 0.03124 0.52004 0.69394 0.0
C282 C 0.03103 0.53578 0.64624 0.0
C283 C 0.03247 0.57905 0.62895 0.0
O284 O 0.04147 0.57443 0.62169 0.0
O285 O 0.03151 0.57478 0.64061 0.0
O286 O 0.45227 0.0365 0.63959 0.0
Cd287 Cd 0.43115 0.04678 0.64269 0.0
O288 O 0.45025 0.0308 0.65993 0.0
Cd289 Cd 0.45462 0.02092 0.67824 0.0
O290 O 0.45948 0.01674 0.69843 0.0
C291 C 0.46837 0.02345 0.70377 0.0
O292 O 0.47453 0.03221 0.69679 0.0
C293 C 0.45671 0.03043 0.64939 0.0
C294 C 0.41242 0.03035 0.63218 0.0
O295 O 0.4166 0.04018 0.62576 0.0
O296 O 0.41683 0.02849 0.64368 0.0
O297 O 0.96257 0.45768 0.63652 0.0
Cd298 Cd 0.95055 0.43732 0.63838 0.0
O299 O 0.9672 0.45403 0.65691 0.0
Cd300 Cd 0.97657 0.45682 0.6758 0.0
O301 O 0.98066 0.46097 0.69617 0.0
C302 C 0.97489 0.47054 0.70143 0.0
O303 O 0.96709 0.47773 0.6943 0.0
C304 C 0.96848 0.46107 0.64682 0.0
C305 C 0.96688 0.41734 0.63034 0.0
O306 O 0.95828 0.42204 0.62265 0.0
O307 O 0.96753 0.42184 0.64194 0.0
O308 O 0.53387 0.03795 0.36042 0.0
Cd309 Cd 0.55257 0.05084 0.36707 0.0
O310 O 0.54472 0.03164 0.34319 0.0
Cd311 Cd 0.54537 0.02158 0.32453 0.0
O312 O 0.54154 0.01785 0.30404 0.0
C313 C 0.53166 0.02345 0.29916 0.0
O314 O 0.52429 0.03065 0.30672 0.0
C315 C 0.5346 0.03101 0.35024 0.0
C316 C 0.56852 0.03427 0.38132 0.0
O317 O 0.55948 0.04083 0.38684 0.0
O318 O 0.57033 0.0359 0.3691 0.0
O319 O 0.96596 0.53715 0.3602 0.0
Cd320 Cd 0.95228 0.55602 0.36431 0.0
O321 O 0.963 0.53784 0.33911 0.0
Cd322 Cd 0.96717 0.53251 0.31899 0.0
O323 O 0.96947 0.52774 0.29848 0.0
C324 C 0.96043 0.52164 0.29268 0.0
O325 O 0.95005 0.51819 0.29929 0.0
C326 C 0.96846 0.53272 0.34895 0.0
C327 C 0.96802 0.57308 0.37814 0.0
O328 O 0.96129 0.56436 0.38396 0.0
O329 O 0.96683 0.57416 0.36578 0.0
O330 O 0.46468 0.95874 0.36029 0.0
Cd331 Cd 0.44627 0.94545 0.36699 0.0
O332 O 0.4532 0.96571 0.3437 0.0
Cd333 Cd 0.45206 0.97646 0.32545 0.0
O334 O 0.45619 0.98037 0.30505 0.0
C335 C 0.46669 0.97564 0.30058 0.0
O336 O 0.47444 0.96927 0.3085 0.0
C337 C 0.46356 0.96609 0.35042 0.0
C338 C 0.42953 0.96187 0.38044 0.0
O339 O 0.43876 0.95588 0.38629 0.0
O340 O 0.42792 0.95973 0.36827 0.0
O341 O 0.03756 0.45685 0.35742 0.0
Cd342 Cd 0.04945 0.43665 0.36079 0.0
O343 O 0.03643 0.45382 0.33636 0.0
Cd344 Cd 0.03136 0.45967 0.31659 0.0
O345 O 0.02839 0.46582 0.29654 0.0
C346 C 0.037 0.47281 0.2911 0.0
O347 O 0.04731 0.47629 0.29779 0.0
C348 C 0.03348 0.46047 0.34635 0.0
C349 C 0.0336 0.42155 0.37666 0.0
O350 O 0.04179 0.4296 0.3815 0.0
O351 O 0.0333 0.42022 0.36427 0.0
O352 O 0.63456 0.54263 0.96621 0.0
Cd353 Cd 0.63579 0.56293 0.95399 0.0
O354 O 0.6557 0.54446 0.96758 0.0
Cd355 Cd 0.67518 0.53771 0.97275 0.0
O356 O 0.69495 0.53064 0.97558 0.0
C357 C 0.69923 0.52171 0.96819 0.0
O358 O 0.69151 0.51684 0.95925 0.0
C359 C 0.64532 0.53846 0.9706 0.0
C360 C 0.62679 0.58265 0.97012 0.0
O361 O 0.61938 0.57762 0.96145 0.0
O362 O 0.63855 0.57863 0.97089 0.0
O363 O 0.46212 0.62969 0.96401 0.0
Cd364 Cd 0.44307 0.62555 0.95057 0.0
O365 O 0.45573 0.64976 0.96695 0.0
Cd366 Cd 0.45563 0.66939 0.97512 0.0
O367 O 0.45804 0.69022 0.97826 0.0
C368 C 0.46755 0.69581 0.97269 0.0
O369 O 0.47557 0.68879 0.96565 0.0
C370 C 0.46378 0.64068 0.96939 0.0
C371 C 0.42553 0.61252 0.96649 0.0
O372 O 0.43407 0.60632 0.95988 0.0
O373 O 0.42492 0.6249 0.96516 0.0
O374 O 0.35677 0.46818 0.95598 0.0
Cd375 Cd 0.3645 0.45025 0.94263 0.0
O376 O 0.34259 0.45462 0.96434 0.0
Cd377 Cd 0.32564 0.45108 0.97658 0.0
O378 O 0.30544 0.4538 0.98224 0.0
C379 C 0.30067 0.46507 0.98053 0.0
O380 O 0.30826 0.47438 0.97617 0.0
C381 C 0.34782 0.46581 0.96415 0.0
C382 C 0.37801 0.43399 0.95949 0.0
O383 O 0.38369 0.44347 0.95373 0.0
O384 O 0.36602 0.43184 0.95685 0.0
O385 O 0.53986 0.36038 0.9548 0.0
Cd386 Cd 0.56022 0.35787 0.94293 0.0
O387 O 0.54375 0.34047 0.96108 0.0
Cd388 Cd 0.54118 0.32249 0.9721 0.0
O389 O 0.53713 0.30239 0.97737 0.0
C390 C 0.52748 0.29683 0.97202 0.0
O391 O 0.52015 0.30354 0.96399 0.0
C392 C 0.53663 0.35058 0.96159 0.0
C393 C 0.57997 0.36679 0.9591 0.0
O394 O 0.57532 0.37405 0.95009 0.0
O395 O 0.57557 0.35519 0.96019 0.0
O396 O 0.63987 0.4539 0.03154 0.0
Cd397 Cd 0.64301 0.43265 0.04158 0.0
O398 O 0.66104 0.45588 0.03191 0.0
Cd399 Cd 0.67981 0.4645 0.02684 0.0
O400 O 0.69972 0.47142 0.02443 0.0
C401 C 0.70489 0.47807 0.03346 0.0
O402 O 0.69795 0.48089 0.04381 0.0
C403 C 0.64998 0.46039 0.02871 0.0
C404 C 0.63259 0.41417 0.02483 0.0
O405 O 0.62609 0.41825 0.03465 0.0
O406 O 0.64413 0.41853 0.02317 0.0
O407 O 0.5394 0.64118 0.04088 0.0
Cd408 Cd 0.5599 0.64411 0.05239 0.0
O409 O 0.54079 0.66198 0.03701 0.0
Cd410 Cd 0.5369 0.68128 0.029 0.0
O411 O 0.53424 0.70228 0.02784 0.0
C412 C 0.539 0.70884 0.03716 0.0
O413 O 0.54517 0.70268 0.0465 0.0
C414 C 0.53489 0.65123 0.03529 0.0
C415 C 0.57914 0.63443 0.03607 0.0
O416 O 0.57473 0.62757 0.04549 0.0
O417 O 0.57481 0.64603 0.03468 0.0
O418 O 0.35336 0.53321 0.03952 0.0
Cd419 Cd 0.35947 0.55205 0.05246 0.0
O420 O 0.3363 0.54393 0.03254 0.0
Cd421 Cd 0.31802 0.54483 0.02181 0.0
O422 O 0.29747 0.54209 0.01748 0.0
C423 C 0.29212 0.53189 0.02196 0.0
O424 O 0.29927 0.52348 0.0284 0.0
C425 C 0.34345 0.53386 0.03218 0.0
C426 C 0.37395 0.56775 0.03589 0.0
O427 O 0.37936 0.55877 0.04262 0.0
O428 O 0.36174 0.5697 0.03741 0.0
O429 O 0.46216 0.36847 0.03205 0.0
Cd430 Cd 0.44271 0.37184 0.04512 0.0
O431 O 0.45702 0.34802 0.0292 0.0
Cd432 Cd 0.4581 0.32834 0.02122 0.0
O433 O 0.46105 0.30755 0.01823 0.0
C434 C 0.47056 0.30215 0.024 0.0
O435 O 0.47831 0.30934 0.03118 0.0
C436 C 0.46455 0.35755 0.02681 0.0
C437 C 0.42576 0.38577 0.02932 0.0
O438 O 0.43402 0.39158 0.03661 0.0
O439 O 0.42512 0.37334 0.02992 0.0
O440 O 0.96235 0.63917 0.54121 0.0
Cd441 Cd 0.95031 0.64053 0.56158 0.0
O442 O 0.966 0.65982 0.54436 0.0
Cd443 Cd 0.97425 0.67922 0.54175 0.0
O444 O 0.97551 0.70029 0.54005 0.0
C445 C 0.96666 0.70667 0.54585 0.0
O446 O 0.95781 0.70028 0.55248 0.0
C447 C 0.96788 0.64961 0.53764 0.0
C448 C 0.96647 0.63045 0.58077 0.0
O449 O 0.95742 0.6235 0.57576 0.0
O450 O 0.96757 0.64228 0.57704 0.0
O451 O 0.96117 0.36652 0.46938 0.0
Cd452 Cd 0.94768 0.37081 0.4504 0.0
O453 O 0.96391 0.34648 0.46282 0.0
Cd454 Cd 0.97193 0.3268 0.46263 0.0
O455 O 0.97484 0.30599 0.46542 0.0
C456 C 0.96791 0.30038 0.47398 0.0
O457 O 0.95965 0.30737 0.48077 0.0
C458 C 0.96646 0.35548 0.47092 0.0
C459 C 0.96419 0.38164 0.43195 0.0
O460 O 0.95844 0.38874 0.44042 0.0
O461 O 0.96171 0.36943 0.43185 0.0
O462 O 0.63882 0.9609 0.46377 0.0
Cd463 Cd 0.63069 0.94795 0.4457 0.0
O464 O 0.65448 0.96787 0.45106 0.0
Cd465 Cd 0.67264 0.97858 0.4488 0.0
O466 O 0.69284 0.98311 0.45316 0.0
C467 C 0.69704 0.97946 0.4642 0.0
O468 O 0.68896 0.97377 0.4723 0.0
C469 C 0.64862 0.96818 0.46193 0.0
C470 C 0.61692 0.96488 0.42972 0.0
O471 O 0.61136 0.959 0.4392 0.0
O472 O 0.62893 0.9624 0.42751 0.0
O473 O 0.04045 0.63603 0.46426 0.0
Cd474 Cd 0.05353 0.63325 0.44474 0.0
O475 O 0.03534 0.65568 0.45796 0.0
Cd476 Cd 0.02539 0.67448 0.45779 0.0
O477 O 0.02103 0.69521 0.45887 0.0
C478 C 0.02454 0.7014 0.46897 0.0
O479 O 0.03019 0.69501 0.47849 0.0
C480 C 0.03401 0.64641 0.46605 0.0
C481 C 0.03757 0.61997 0.42744 0.0
O482 O 0.04477 0.61386 0.43557 0.0
O483 O 0.03836 0.6324 0.42707 0.0
O484 O 0.35782 0.0352 0.46152 0.0
Cd485 Cd 0.36259 0.04689 0.44148 0.0
O486 O 0.34016 0.02683 0.45286 0.0
Cd487 Cd 0.32221 0.01569 0.45544 0.0
O488 O 0.30281 0.01009 0.462 0.0
C489 C 0.29931 0.01319 0.47345 0.0
O490 O 0.30768 0.01911 0.48107 0.0
C491 C 0.34806 0.02767 0.46232 0.0
C492 C 0.37715 0.03017 0.42602 0.0
O493 O 0.38263 0.03759 0.4344 0.0
O494 O 0.36479 0.03098 0.42464 0.0
O495 O 0.03838 0.35527 0.54659 0.0
Cd496 Cd 0.0493 0.35203 0.56737 0.0
O497 O 0.03342 0.33467 0.54785 0.0
Cd498 Cd 0.02397 0.31626 0.54303 0.0
O499 O 0.02062 0.29639 0.5365 0.0
C500 C 0.02834 0.29186 0.52798 0.0
O501 O 0.03752 0.29942 0.52332 0.0
C502 C 0.03243 0.3455 0.54195 0.0
C503 C 0.0329 0.36263 0.58606 0.0
O504 O 0.04268 0.36906 0.58177 0.0
O505 O 0.03119 0.35102 0.58189 0.0
O506 O 0.64652 0.03979 0.53309 0.0
Cd507 Cd 0.64121 0.05281 0.55213 0.0
O508 O 0.66421 0.03281 0.54274 0.0
Cd509 Cd 0.6826 0.02223 0.54231 0.0
O510 O 0.70309 0.01852 0.53842 0.0
C511 C 0.70807 0.02453 0.52884 0.0
O512 O 0.7006 0.0321 0.52175 0.0
C513 C 0.65649 0.03252 0.5331 0.0
C514 C 0.62556 0.03713 0.56764 0.0
O515 O 0.62066 0.04433 0.55872 0.0
O516 O 0.63786 0.03774 0.56959 0.0
O517 O 0.34772 0.96256 0.54337 0.0
Cd518 Cd 0.3456 0.95169 0.56433 0.0
O519 O 0.33032 0.9735 0.54908 0.0
Cd520 Cd 0.3147 0.98689 0.54369 0.0
O521 O 0.29684 0.99345 0.5343 0.0
C522 C 0.29498 0.99068 0.52239 0.0
O523 O 0.30423 0.98468 0.51594 0.0
C524 C 0.33944 0.97141 0.54102 0.0
C525 C 0.35779 0.9674 0.58263 0.0
O526 O 0.36371 0.95759 0.57773 0.0
O527 O 0.34601 0.96951 0.57919 0.0
H528 H 0.9596 0.50689 0.15377 0.0
H529 H 0.03532 0.48964 0.1522 0.0
H530 H 0.98961 0.53481 0.14494 0.0
H531 H 0.00497 0.46098 0.14821 0.0
H532 H 0.01879 0.50647 0.15503 0.0
H533 H 0.9763 0.49032 0.15721 0.0
C534 C 0.96973 0.50964 0.15295 0.0
C535 C 0.97326 0.52228 0.14925 0.0
C536 C 0.01575 0.49647 0.15376 0.0
C537 C 0.99237 0.5033 0.15282 0.0
C538 C 0.02518 0.48683 0.15232 0.0
C539 C 0.02148 0.47388 0.15017 0.0
C540 C 0.00255 0.49313 0.15302 0.0
C541 C 0.00819 0.47087 0.14988 0.0
C542 C 0.97924 0.50013 0.15474 0.0
C543 C 0.9865 0.52517 0.1478 0.0
N544 N -0.00082 0.48044 0.15125 0.0
N545 N 0.99559 0.51574 0.14956 0.0
H546 H 0.5349 0.00591 0.15051 0.0
H547 H 0.46059 0.98825 0.15235 0.0
H548 H 0.50595 0.03462 0.1602 0.0
H549 H 0.49 0.96001 0.16211 0.0
H550 H 0.47696 0.00553 0.15419 0.0
H551 H 0.5186 0.98878 0.15369 0.0
C552 C 0.52516 0.00856 0.1535 0.0
C553 C 0.52177 0.02163 0.15527 0.0
C554 C 0.47976 0.99557 0.15616 0.0
C555 C 0.50307 0.00224 0.15858 0.0
C556 C 0.47045 0.98574 0.15509 0.0
C557 C 0.47395 0.97276 0.15726 0.0
C558 C 0.49271 0.9923 0.15902 0.0
C559 C 0.48686 0.96995 0.16065 0.0
C560 C 0.51589 0.99882 0.15535 0.0
C561 C 0.509 0.02462 0.15902 0.0
N562 N 0.49583 0.97963 0.16124 0.0
N563 N 0.50005 0.01501 0.16038 0.0
H564 H 0.97673 0.47576 0.83238 0.0
H565 H 0.02584 0.51928 0.87331 0.0
H566 H 0.97119 0.48319 0.87326 0.0
H567 H 0.02005 0.52428 0.83209 0.0
H568 H 0.00756 0.50402 0.87374 0.0
H569 H 0.99478 0.49118 0.83222 0.0
C570 C 0.97911 0.48084 0.84125 0.0
C571 C 0.97208 0.4786 0.85272 0.0
C572 C 0.01038 0.50841 0.86459 0.0
C573 C 0.99316 0.49576 0.85277 0.0
C574 C 0.02077 0.51713 0.86434 0.0
C575 C 0.02478 0.52273 0.85255 0.0
C576 C 0.00399 0.50522 0.85296 0.0
C577 C 0.01779 0.51969 0.84124 0.0
C578 C 0.98954 0.48951 0.8412 0.0
C579 C 0.97626 0.48475 0.86417 0.0
N580 N 0.00781 0.51106 0.8417 0.0
N581 N 0.98651 0.49309 0.8639 0.0
H582 H 0.48246 0.01917 0.87443 0.0
H583 H 0.52437 0.97491 0.82675 0.0
H584 H 0.47548 0.01771 0.83312 0.0
H585 H 0.51933 0.966 0.86742 0.0
H586 H 0.50881 0.99274 0.82895 0.0
H587 H 0.49811 0.00145 0.87216 0.0
C588 C 0.48425 0.01517 0.86486 0.0
C589 C 0.47792 0.02023 0.85387 0.0
C590 C 0.51106 0.9868 0.83735 0.0
C591 C 0.49591 2e-05 0.85121 0.0
C592 C 0.51981 0.97651 0.83607 0.0
C593 C 0.52276 0.96861 0.84679 0.0
C594 C 0.50545 0.98938 0.84952 0.0
C595 C 0.51723 0.97175 0.85886 0.0
C596 C 0.49321 0.00509 0.86358 0.0
C597 C 0.48059 0.01462 0.84173 0.0
N598 N 0.50881 0.98188 0.85989 0.0
N599 N 0.48945 0.00486 0.8407 0.0
H600 H 0.16148 0.95862 0.50421 0.0
H601 H 0.1636 0.03571 0.50011 0.0
H602 H 0.15777 0.98264 0.53834 0.0
H603 H 0.14843 0.01205 0.46902 0.0
H604 H 0.16544 0.01623 0.51375 0.0
H605 H 0.16053 0.97811 0.49059 0.0
C606 C 0.16059 0.96804 0.50882 0.0
C607 C 0.15987 0.96912 0.52238 0.0
C608 C 0.16177 0.01532 0.50392 0.0
C609 C 0.15871 0.99135 0.50693 0.0
C610 C 0.16087 0.02636 0.4961 0.0
C611 C 0.15606 0.02538 0.48339 0.0
C612 C 0.15797 0.00323 0.49891 0.0
C613 C 0.15225 0.01315 0.47876 0.0
C614 C 0.15995 0.97912 0.50106 0.0
C615 C 0.1584 0.98148 0.5279 0.0
N616 N 0.15338 0.0025 0.4865 0.0
N617 N 0.15798 0.99218 0.52014 0.0
H618 H 0.03549 0.1539 0.50598 0.0
H619 H 0.95999 0.16035 0.48913 0.0
H620 H 0.00513 0.14772 0.53423 0.0
H621 H 0.98879 0.14874 0.46097 0.0
H622 H 0.97706 0.16186 0.50566 0.0
H623 H 0.01891 0.15809 0.4894 0.0
C624 C 0.02533 0.15377 0.50876 0.0
C625 C 0.02163 0.15061 0.52149 0.0
C626 C 0.97966 0.1592 0.4958 0.0
C627 C 0.00271 0.15519 0.50259 0.0
C628 C 0.96997 0.1585 0.48634 0.0
C629 C 0.97305 0.15457 0.47365 0.0
C630 C 0.99251 0.15605 0.49251 0.0
C631 C 0.98605 0.15183 0.47066 0.0
C632 C 0.01591 0.15602 0.49927 0.0
C633 C 0.00835 0.15015 0.5245 0.0
N634 N 0.99534 0.15262 0.48003 0.0
N635 N -0.00066 0.15241 0.5151 0.0
H636 H 0.83726 0.95978 0.49041 0.0
H637 H 0.84654 0.0356 0.50262 0.0
H638 H 0.84797 0.98609 0.45957 0.0
H639 H 0.85677 0.00688 0.53141 0.0
H640 H 0.84173 0.01808 0.48717 0.0
H641 H 0.83912 0.97766 0.50603 0.0
C642 C 0.83975 0.96939 0.4869 0.0
C643 C 0.84232 0.97155 0.47369 0.0
C644 C 0.8449 0.01564 0.49692 0.0
C645 C 0.84454 0.99192 0.49145 0.0
C646 C 0.8475 0.02559 0.50576 0.0
C647 C 0.8519 0.02262 0.51832 0.0
C648 C 0.84654 0.00266 0.50076 0.0
C649 C 0.85336 0.00953 0.52181 0.0
C650 C 0.84094 0.97952 0.49582 0.0
C651 C 0.84589 0.98408 0.46969 0.0
N652 N 0.85061 -0.0 0.51308 0.0
N653 N 0.84683 0.99385 0.47854 0.0
H654 H 0.03474 0.83901 0.48921 0.0
H655 H 0.96967 0.87753 0.50766 0.0
H656 H 0.02087 0.87242 0.46799 0.0
H657 H 0.9837 0.84405 0.52866 0.0
H658 H 0.98841 0.87596 0.49311 0.0
H659 H 0.01586 0.84045 0.50348 0.0
C660 C 0.02754 0.84644 0.48733 0.0
C661 C 0.02916 0.85536 0.47715 0.0
C662 C 0.98736 0.86891 0.50085 0.0
C663 C 0.00778 0.85743 0.49381 0.0
C664 C 0.9767 0.86983 0.50919 0.0
C665 C 0.97497 0.86071 0.51918 0.0
C666 C 0.99642 0.85884 0.50258 0.0
C667 C 0.98438 0.85098 0.52078 0.0
C668 C 0.01686 0.8474 0.49563 0.0
C669 C 0.01991 0.86526 0.47566 0.0
N670 N 0.99469 0.85028 0.51255 0.0
N671 N 0.00959 0.86602 0.48388 0.0
H672 H 0.52341 0.12609 0.97849 0.0
H673 H 0.47711 0.16994 0.02233 0.0
H674 H 0.52723 0.1678 0.98017 0.0
H675 H 0.48445 0.12935 0.03003 0.0
H676 H 0.49367 0.16944 0.00526 0.0
H677 H 0.5075 0.12708 0.99605 0.0
C678 C 0.52088 0.13548 0.98253 0.0
C679 C 0.52638 0.14694 0.97756 0.0
C680 C 0.49171 0.16069 0.01079 0.0
C681 C 0.50807 0.14815 0.9976 0.0
C682 C 0.48237 0.16102 0.02066 0.0
C683 C 0.47967 0.14979 0.02794 0.0
C684 C 0.49819 0.149 0.00803 0.0
C685 C 0.48625 0.13827 0.02472 0.0
C686 C 0.51177 0.13604 0.99252 0.0
C687 C 0.52278 0.15882 0.98321 0.0
N688 N 0.49519 0.13817 0.01503 0.0
N689 N 0.51376 0.15914 0.99289 0.0
H690 H 0.47241 0.82902 0.97177 0.0
H691 H 0.51143 0.88036 0.01458 0.0
H692 H 0.47386 0.86994 0.96267 0.0
H693 H 0.52212 0.83983 0.01289 0.0
H694 H 0.49528 0.87655 0.99763 0.0
H695 H 0.48813 0.83258 0.98924 0.0
C696 C 0.4762 0.83869 0.97324 0.0
C697 C 0.47219 0.8491 0.96538 0.0
C698 C 0.5011 0.86847 0.00106 0.0
C699 C 0.48969 0.85335 0.98576 0.0
C700 C 0.51035 0.87063 0.01071 0.0
C701 C 0.51795 0.86032 0.01545 0.0
C702 C 0.49936 0.85589 0.9961 0.0
C703 C 0.51612 0.84794 0.01002 0.0
C704 C 0.48505 0.84075 0.98334 0.0
C705 C 0.47677 0.8616 0.96839 0.0
N706 N 0.50696 0.84604 0.00067 0.0
N707 N 0.4853 0.86337 0.97831 0.0
H708 H 0.16291 0.52218 0.01804 0.0
H709 H 0.12901 0.4771 0.96546 0.0
H710 H 0.12207 0.51274 0.01957 0.0
H711 H 0.1695 0.47289 0.97556 0.0
H712 H 0.12627 0.49196 0.98379 0.0
H713 H 0.1657 0.50622 0.00066 0.0
C714 C 0.1546 0.51655 0.01498 0.0
C715 C 0.14234 0.51845 0.02064 0.0
C716 C 0.13577 0.48782 0.98193 0.0
C717 C 0.14533 0.50068 0.00029 0.0
C718 C 0.13735 0.47931 0.97151 0.0
C719 C 0.14963 0.47409 0.96866 0.0
C720 C 0.14658 0.49121 0.98954 0.0
C721 C 0.16005 0.47723 0.9769 0.0
C722 C 0.15617 0.50756 0.00492 0.0
C723 C 0.13173 0.51151 0.01557 0.0
N724 N 0.15832 0.4857 0.9869 0.0
N725 N 0.13346 0.50294 0.00568 0.0
H726 H 0.84394 0.49447 0.03525 0.0
H727 H 0.83933 0.5038 0.95835 0.0
H728 H 0.8523 0.46372 0.00802 0.0
H729 H 0.8474 0.53549 0.98458 0.0
H730 H 0.83934 0.48877 0.97681 0.0
H731 H 0.84038 0.50937 0.017 0.0
C732 C 0.84471 0.49079 0.02542 0.0
C733 C 0.84823 0.47782 0.02309 0.0
C734 C 0.84099 0.49903 0.97853 0.0
C735 C 0.84442 0.49482 0.00227 0.0
C736 C 0.84084 0.50762 0.96804 0.0
C737 C 0.84318 0.52091 0.97001 0.0
C738 C 0.84341 0.50378 0.99108 0.0
C739 C 0.84552 0.5253 0.98269 0.0
C740 C 0.84285 0.49932 0.01504 0.0
C741 C 0.84955 0.47364 0.01019 0.0
N742 N 0.84553 0.51675 0.99279 0.0
N743 N 0.84762 0.48212 0.00024 0.0
H744 H 0.52082 0.98448 0.62026 0.0
H745 H 0.47451 0.02365 0.66828 0.0
H746 H 0.51855 0.97594 0.66125 0.0
H747 H 0.46643 0.01951 0.62734 0.0
H748 H 0.49282 0.0087 0.66597 0.0
H749 H 0.50272 -0.00033 0.62268 0.0
C750 C 0.51658 0.98585 0.6298 0.0
C751 C 0.5215 0.9792 0.64066 0.0
C752 C 0.48696 0.011 0.65752 0.0
C753 C 0.50085 0.99665 0.64349 0.0
C754 C 0.47639 0.01941 0.65888 0.0
C755 C 0.46858 0.02242 0.6481 0.0
C756 C 0.48992 0.00583 0.64526 0.0
C757 C 0.4721 0.01734 0.63594 0.0
C758 C 0.50627 0.99454 0.63116 0.0
C759 C 0.51555 0.98131 0.65275 0.0
N760 N 0.48249 0.00926 0.63485 0.0
N761 N 0.50558 0.98991 0.65387 0.0
H762 H 0.01883 0.52516 0.62525 0.0
H763 H 0.97464 0.47743 0.66704 0.0
H764 H 0.02397 0.5198 0.66651 0.0
H765 H 0.9816 0.47127 0.62616 0.0
H766 H 0.99054 0.49506 0.66688 0.0
H767 H 0.00335 0.50707 0.62512 0.0
C768 C 0.01668 0.52021 0.63429 0.0
C769 C 0.02236 0.52431 0.64601 0.0
C770 C 0.98866 0.48976 0.65797 0.0
C771 C 0.0046 0.50374 0.64593 0.0
C772 C 0.97971 0.47958 0.6581 0.0
C773 C 0.97719 0.4725 0.64672 0.0
C774 C 0.99492 0.4931 0.64632 0.0
C775 C 0.98337 0.47638 0.63519 0.0
C776 C 0.00783 0.50993 0.63421 0.0
C777 C 0.01931 0.51747 0.6574 0.0
N778 N 0.99198 0.48641 0.63527 0.0
N779 N 0.01054 0.5076 0.65711 0.0
H780 H 0.46087 0.99124 0.34272 0.0
H781 H 0.53696 0.00618 0.34145 0.0
H782 H 0.48981 0.96223 0.35161 0.0
H783 H 0.50843 0.0348 0.3526 0.0
H784 H 0.51953 0.99013 0.33889 0.0
H785 H 0.47819 0.0074 0.34006 0.0
C786 C 0.4709 0.98821 0.34377 0.0
C787 C 0.47397 0.97539 0.34726 0.0
C788 C 0.5171 -2e-05 0.34169 0.0
C789 C 0.49371 0.99378 0.34437 0.0
C790 C 0.52699 0.00917 0.34301 0.0
C791 C 0.52406 0.02184 0.34711 0.0
C792 C 0.50421 0.00356 0.34434 0.0
C793 C 0.51104 0.02512 0.34941 0.0
C794 C 0.48073 0.99745 0.34239 0.0
C795 C 0.48708 0.97204 0.3489 0.0
N796 N 0.50156 0.01602 0.34798 0.0
N797 N 0.4965 0.98119 0.34743 0.0
H798 H 0.03426 0.48222 0.36136 0.0
H799 H 0.9693 0.51278 0.3311 0.0
H800 H 0.01296 0.46458 0.32985 0.0
H801 H 0.98978 0.52888 0.36396 0.0
H802 H 0.98602 0.49594 0.32925 0.0
H803 H 0.01889 0.50034 0.36128 0.0
C804 C 0.02645 0.48228 0.35428 0.0
C805 C 0.02505 0.47204 0.34541 0.0
C806 C 0.98691 0.50322 0.3368 0.0
C807 C 0.00727 0.4926 0.34538 0.0
C808 C 0.97743 0.51292 0.33776 0.0
C809 C 0.9783 0.52238 0.34754 0.0
C810 C 0.99727 0.50298 0.34572 0.0
C811 C 0.98875 0.52176 0.35627 0.0
C812 C 0.01766 0.49259 0.35425 0.0
C813 C 0.01469 0.4725 0.33654 0.0
N814 N 0.99783 0.51225 0.35514 0.0
N815 N 0.00616 0.48259 0.33678 0.0
H816 H 0.62924 0.51731 0.97025 0.0
H817 H 0.66521 0.48226 0.02987 0.0
H818 H 0.66162 0.53392 0.99106 0.0
H819 H 0.63188 0.46607 0.01025 0.0
H820 H 0.66397 0.50134 0.01577 0.0
H821 H 0.62983 0.49851 0.9849 0.0
C822 C 0.63654 0.51693 0.97783 0.0
C823 C 0.64567 0.52697 0.97918 0.0
C824 C 0.65694 0.49361 0.01451 0.0
C825 C 0.64632 0.50565 0.99605 0.0
C826 C 0.65774 0.48265 0.02248 0.0
C827 C 0.64886 0.47243 0.02098 0.0
C828 C 0.64715 0.49436 0.00501 0.0
C829 C 0.63897 0.47372 0.01166 0.0
C830 C 0.63687 0.50623 0.98619 0.0
C831 C 0.6548 0.52613 0.98928 0.0
N832 N 0.63844 0.48444 0.00396 0.0
N833 N 0.65491 0.51564 0.9973 0.0
H834 H 0.47516 0.62184 0.98399 0.0
H835 H 0.51767 0.67018 0.02697 0.0
H836 H 0.4771 0.66301 0.97623 0.0
H837 H 0.52618 0.62925 0.02344 0.0
H838 H 0.50067 0.66783 0.01055 0.0
H839 H 0.49207 0.6244 0.00044 0.0
C840 C 0.47909 0.63145 0.98578 0.0
C841 C 0.4744 0.64231 0.97896 0.0
C842 C 0.50634 0.6594 0.01333 0.0
C843 C 0.4937 0.6453 0.99788 0.0
C844 C 0.51617 0.66076 0.0226 0.0
C845 C 0.52372 0.65001 0.02628 0.0
C846 C 0.50387 0.64713 0.0079 0.0
C847 C 0.5207 0.63785 0.02084 0.0
C848 C 0.48872 0.63289 0.99519 0.0
C849 C 0.47991 0.65449 0.98166 0.0
N850 N 0.51103 0.63675 0.01191 0.0
N851 N 0.48923 0.65569 0.99097 0.0
H852 H 0.34566 0.49205 0.96055 0.0
H853 H 0.3468 0.50779 0.03568 0.0
H854 H 0.34235 0.46215 0.98975 0.0
H855 H 0.33506 0.5362 0.00717 0.0
H856 H 0.34531 0.49083 0.01901 0.0
H857 H 0.34191 0.50853 0.97739 0.0
C858 C 0.34392 0.48897 0.97048 0.0
C859 C 0.3441 0.47575 0.97377 0.0
C860 C 0.34281 0.50074 0.01647 0.0
C861 C 0.34013 0.49444 0.99306 0.0
C862 C 0.34367 0.51039 0.02596 0.0
C863 C 0.34086 0.52334 0.02281 0.0
C864 C 0.33947 0.50414 0.00366 0.0
C865 C 0.337 0.52627 0.01006 0.0
C866 C 0.34176 0.49834 0.98006 0.0
C867 C 0.34195 0.47223 0.98677 0.0
N868 N 0.33658 0.51677 0.00089 0.0
N869 N 0.3402 0.48153 0.99597 0.0
H870 H 0.47509 0.37699 0.01236 0.0
H871 H 0.52044 0.33091 0.96984 0.0
H872 H 0.47915 0.33597 0.02014 0.0
H873 H 0.52675 0.37223 0.97316 0.0
H874 H 0.50325 0.33242 0.98617 0.0
H875 H 0.4923 0.37536 0.9961 0.0
C876 C 0.47955 0.36761 0.01062 0.0
C877 C 0.47537 0.3565 0.01738 0.0
C878 C 0.50848 0.34113 0.98339 0.0
C879 C 0.49501 0.35457 0.99868 0.0
C880 C 0.51841 0.34024 0.97419 0.0
C881 C 0.52539 0.35137 0.97051 0.0
C882 C 0.50533 0.35328 0.98874 0.0
C883 C 0.52169 0.36338 0.97581 0.0
C884 C 0.48935 0.36669 0.00132 0.0
C885 C 0.48157 0.34464 0.01476 0.0
N886 N 0.51193 0.36401 0.98469 0.0
N887 N 0.49103 0.34396 0.00554 0.0
H888 H 0.02188 0.62612 0.4778 0.0
H889 H 0.9749 0.66977 0.52134 0.0
H890 H 0.02481 0.66793 0.4793 0.0
H891 H 0.98128 0.62888 0.52818 0.0
H892 H 0.99142 0.66927 0.50427 0.0
H893 H 0.00548 0.62688 0.49489 0.0
C894 C 0.01906 0.63549 0.48169 0.0
C895 C 0.0245 0.64702 0.47683 0.0
C896 C 0.98926 0.66044 0.50958 0.0
C897 C 0.00562 0.64796 0.49637 0.0
C898 C 0.97993 0.66075 0.51945 0.0
C899 C 0.97701 0.64946 0.52652 0.0
C900 C 0.99554 0.64869 0.50663 0.0
C901 C 0.98329 0.63785 0.52304 0.0
C902 C 0.00966 0.63591 0.49143 0.0
C903 C 0.02048 0.65886 0.48229 0.0
N904 N 0.99227 0.63777 0.51338 0.0
N905 N 0.01122 0.65904 0.49173 0.0
H906 H 0.02043 0.36772 0.53407 0.0
H907 H 0.97305 0.33298 0.48409 0.0
H908 H 0.02484 0.32733 0.52367 0.0
H909 H 0.98133 0.37407 0.48237 0.0
H910 H 0.99011 0.33047 0.50045 0.0
H911 H 0.00447 0.37018 0.51665 0.0
C912 C 0.01804 0.35934 0.52814 0.0
C913 C 0.02366 0.34716 0.53066 0.0
C914 C 0.98826 0.34 0.49637 0.0
C915 C 0.00528 0.3499 0.51082 0.0
C916 C 0.97864 0.34141 0.48689 0.0
C917 C 0.97608 0.35366 0.48147 0.0
C918 C 0.99514 0.35097 0.50067 0.0
C919 C 0.98304 0.36441 0.48621 0.0
C920 C 0.0089 0.36076 0.51823 0.0
C921 C 0.02026 0.3367 0.52259 0.0
N922 N 0.99225 0.36282 0.49553 0.0
N923 N 0.01117 0.33826 0.51311 0.0
H924 H 0.66481 0.00743 0.5346 0.0
H925 H 0.6562 0.99331 0.45881 0.0
H926 H 0.65219 0.03659 0.50724 0.0
H927 H 0.64973 0.96407 0.48817 0.0
H928 H 0.66081 0.00919 0.47594 0.0
H929 H 0.66538 0.99143 0.51694 0.0
C930 C 0.66251 0.01054 0.52481 0.0
C931 C 0.65858 0.02335 0.5223 0.0
C932 C 0.65857 -0.00075 0.4786 0.0
C933 C 0.65905 0.00514 0.5022 0.0
C934 C 0.65607 0.99016 0.46886 0.0
C935 C 0.65274 0.97735 0.47213 0.0
C936 C 0.65781 0.99546 0.49167 0.0
C937 C 0.6523 0.97387 0.48529 0.0
C938 C 0.66269 0.00138 0.5148 0.0
C939 C 0.6553 0.0268 0.50953 0.0
N940 N 0.65483 0.98289 0.49462 0.0
N941 N 0.65561 0.01773 0.49993 0.0
H942 H 0.34508 0.96346 0.51628 0.0
H943 H 0.35128 0.03496 0.48762 0.0
H944 H 0.33653 0.99752 0.53915 0.0
H945 H 0.3411 0.00222 0.46351 0.0
H946 H 0.34893 0.0211 0.50694 0.0
H947 H 0.34677 0.97731 0.49684 0.0
C948 C 0.34354 0.97384 0.51716 0.0
C949 C 0.34046 0.97939 0.52921 0.0
C950 C 0.3471 0.01701 0.49741 0.0
C951 C 0.34259 0.99519 0.50728 0.0
C952 C 0.34846 0.02487 0.48644 0.0
C953 C 0.34613 0.01973 0.47405 0.0
C954 C 0.34375 0.00385 0.4959 0.0
C955 C 0.34266 0.00659 0.47295 0.0
C956 C 0.34444 0.9817 0.50612 0.0
C957 C 0.33864 0.99288 0.52994 0.0
N958 N 0.34165 0.99905 0.48375 0.0
N959 N 0.33981 0.00035 0.51913 0.0
H960 H 0.05543 0.4895 0.21115 0.0
H961 H 0.01642 0.4684 0.27478 0.0
H962 H 0.01544 0.47675 0.21075 0.0
H963 H 0.05495 0.48504 0.2757 0.0
H964 H 0.01539 0.4727 0.25146 0.0
H965 H 0.05496 0.48938 0.2349 0.0
C966 C 0.04651 0.4868 0.21605 0.0
C967 C 0.0355 0.48299 0.20894 0.0
C968 C 0.02403 0.47551 0.25677 0.0
C969 C 0.03493 0.48273 0.23613 0.0
C970 C 0.02464 0.47303 0.2701 0.0
C971 C 0.03584 0.47625 0.27719 0.0
C972 C 0.03475 0.48115 0.25046 0.0
C973 C 0.04615 0.48232 0.27061 0.0
C974 C 0.04625 0.48672 0.22961 0.0
C975 C 0.02419 0.47966 0.21582 0.0
N976 N 0.0454 0.48447 0.2576 0.0
N977 N 0.02424 0.47948 0.22902 0.0
H978 H 0.54429 0.00881 0.28081 0.0
H979 H 0.50894 0.04354 0.22106 0.0
H980 H 0.51316 0.0366 0.2853 0.0
H981 H 0.53619 0.01192 0.21667 0.0
H982 H 0.50972 0.04057 0.24462 0.0
H983 H 0.54089 0.0092 0.2573 0.0
C984 C 0.53669 0.01493 0.27687 0.0
C985 C 0.52907 0.02277 0.28503 0.0
C986 C 0.51545 0.03422 0.2385 0.0
C987 C 0.52517 0.02332 0.25812 0.0
C988 C 0.51502 0.03592 0.22504 0.0
C989 C 0.52259 0.02804 0.21688 0.0
C990 C 0.5236 0.02464 0.24385 0.0
C991 C 0.53024 0.01827 0.22258 0.0
C992 C 0.53473 0.01514 0.26344 0.0
C993 C 0.51931 0.03045 0.27938 0.0
N994 N 0.53063 0.01692 0.23571 0.0
N995 N 0.51771 0.03062 0.26627 0.0
H996 H 0.94057 0.50928 0.21214 0.0
H997 H 0.9808 0.52667 0.27628 0.0
H998 H 0.98059 0.52196 0.21179 0.0
H999 H 0.94183 0.51106 0.27684 0.0
H1000 H 0.98132 0.52387 0.25271 0.0
H1001 H 0.94125 0.50864 0.23587 0.0
C1002 C 0.94954 0.51184 0.21704 0.0
C1003 C 0.96051 0.51579 0.20996 0.0
C1004 C 0.97268 0.52098 0.258 0.0
C1005 C 0.96133 0.51516 0.23714 0.0
C1006 C 0.97237 0.52259 0.27146 0.0
C1007 C 0.96121 0.51919 0.27854 0.0
C1008 C 0.96172 0.516 0.25153 0.0
C1009 C 0.95062 0.51388 0.27177 0.0
C1010 C 0.94992 0.51147 0.2306 0.0
C1011 C 0.97187 0.51893 0.21685 0.0
N1012 N 0.9511 0.51254 0.25864 0.0
N1013 N 0.97195 0.51864 0.23005 0.0
H1014 H 0.46141 0.98603 0.21737 0.0
H1015 H 0.48652 0.96368 0.28751 0.0
H1016 H 0.48842 0.95447 0.22347 0.0
H1017 H 0.45337 0.98874 0.28155 0.0
H1018 H 0.48991 0.963 0.26402 0.0
H1019 H 0.46099 0.98987 0.2408 0.0
C1020 C 0.46735 0.97997 0.22362 0.0
C1021 C 0.47486 0.96982 0.21846 0.0
C1022 C 0.48195 0.96871 0.26786 0.0
C1023 C 0.47441 0.97418 0.24529 0.0
C1024 C 0.48002 0.96914 0.28128 0.0
C1025 C 0.46955 0.97617 0.2865 0.0
C1026 C 0.4734 0.97542 0.2596 0.0
C1027 C 0.46149 0.9831 0.27795 0.0
C1028 C 0.46707 0.98216 0.237 0.0
C1029 C 0.4824 0.96233 0.22703 0.0
N1030 N 0.46354 0.9825 0.26491 0.0
N1031 N 0.48193 0.96462 0.24003 0.0
H1032 H 0.00756 0.54034 0.71793 0.0
H1033 H 0.04003 0.50769 0.78049 0.0
H1034 H 0.03599 0.50951 0.71599 0.0
H1035 H 0.00962 0.53656 0.78245 0.0
H1036 H 0.03755 0.50707 0.75688 0.0
H1037 H 0.00701 0.53798 0.74156 0.0
C1038 C 0.01362 0.533 0.72246 0.0
C1039 C 0.02193 0.5252 0.71497 0.0
C1040 C 0.03135 0.51347 0.76248 0.0
C1041 C 0.0214 0.52249 0.74203 0.0
C1042 C 0.03276 0.51383 0.77597 0.0
C1043 C 0.02511 0.52228 0.78346 0.0
C1044 C 0.02227 0.52168 0.75641 0.0
C1045 C 0.01579 0.52995 0.77707 0.0
C1046 C 0.0133 0.53166 0.73596 0.0
C1047 C 0.02949 0.5158 0.72137 0.0
N1048 N 0.01471 0.52955 0.76391 0.0
N1049 N 0.02913 0.51479 0.73453 0.0
H1050 H 0.45755 0.00631 0.72106 0.0
H1051 H 0.48827 0.04145 0.78318 0.0
H1052 H 0.48496 0.03801 0.71864 0.0
H1053 H 0.46246 0.00841 0.78546 0.0
H1054 H 0.48843 0.03936 0.75952 0.0
H1055 H 0.46048 0.0059 0.74462 0.0
C1056 C 0.46426 0.01312 0.72547 0.0
C1057 C 0.47093 0.02229 0.71787 0.0
C1058 C 0.4828 0.03251 0.7652 0.0
C1059 C 0.47428 0.02193 0.74486 0.0
C1060 C 0.4827 0.0337 0.77872 0.0
C1061 C 0.47524 0.02517 0.78632 0.0
C1062 C 0.47534 0.02275 0.75922 0.0
C1063 C 0.46828 0.01527 0.78 0.0
C1064 C 0.46593 0.01288 0.73893 0.0
C1065 C 0.47956 0.03083 0.72411 0.0
N1066 N 0.46842 0.0144 0.76682 0.0
N1067 N 0.4809 0.03051 0.73725 0.0
H1068 H 0.95714 0.49174 0.78049 0.0
H1069 H 0.99025 0.45771 0.71905 0.0
H1070 H 0.98741 0.46281 0.78344 0.0
H1071 H 0.96202 0.48864 0.71608 0.0
H1072 H 0.99047 0.46051 0.74263 0.0
H1073 H 0.95988 0.49184 0.7569 0.0
C1074 C 0.96443 0.48548 0.77619 0.0
C1075 C 0.97197 0.47716 0.78395 0.0
C1076 C 0.9843 0.46675 0.73681 0.0
C1077 C 0.97511 0.47718 0.75693 0.0
C1078 C 0.98416 0.46516 0.72334 0.0
C1079 C 0.97601 0.47287 0.71558 0.0
C1080 C 0.97615 0.47607 0.74259 0.0
C1081 C 0.9684 0.48241 0.72168 0.0
C1082 C 0.96599 0.48554 0.76271 0.0
C1083 C 0.98132 0.46932 0.77784 0.0
N1084 N 0.96857 0.48367 0.73482 0.0
N1085 N 0.98255 0.46944 0.76469 0.0
H1086 H 0.53863 0.98674 0.77652 0.0
H1087 H 0.5083 0.96294 0.70895 0.0
H1088 H 0.50847 0.9577 0.77339 0.0
H1089 H 0.54184 0.98802 0.71187 0.0
H1090 H 0.50638 0.96315 0.7326 0.0
H1091 H 0.53803 0.98955 0.75295 0.0
C1092 C 0.5318 0.98103 0.7709 0.0
C1093 C 0.52367 0.97187 0.77694 0.0
C1094 C 0.51412 0.96866 0.72807 0.0
C1095 C 0.52297 0.97504 0.74993 0.0
C1096 C 0.51522 0.96856 0.71455 0.0
C1097 C 0.52533 0.97537 0.70841 0.0
C1098 C 0.52318 0.97563 0.73553 0.0
C1099 C 0.53395 0.98255 0.71619 0.0
C1100 C 0.53149 0.98262 0.75743 0.0
C1101 C 0.51499 0.96479 0.76914 0.0
N1102 N 0.53272 0.98243 0.72934 0.0
N1103 N 0.51492 0.96647 0.75604 0.0
H1104 H 0.27993 -0.00035 0.46117 0.0
H1105 H 0.22399 0.03537 0.50015 0.0
H1106 H 0.28733 0.02356 0.49484 0.0
H1107 H 0.21658 0.00391 0.47339 0.0
H1108 H 0.24719 0.03031 0.49928 0.0
H1109 H 0.25673 5e-05 0.46629 0.0
C1110 C 0.27669 0.00488 0.46972 0.0
C1111 C 0.28556 0.01178 0.47745 0.0
C1112 C 0.24047 0.02442 0.4937 0.0
C1113 C 0.25901 0.01243 0.48327 0.0
C1114 C 0.22723 0.02732 0.49418 0.0
C1115 C 0.21835 0.0202 0.48665 0.0
C1116 C 0.24491 0.01446 0.48548 0.0
C1117 C 0.22308 0.00976 0.47924 0.0
C1118 C 0.26345 0.0051 0.47264 0.0
C1119 C 0.28083 0.01824 0.48851 0.0
N1120 N 0.23606 0.00734 0.47868 0.0
N1121 N 0.26786 0.01858 0.49097 0.0
H1122 H 0.98429 0.21833 0.46553 0.0
H1123 H 0.95279 0.28521 0.48976 0.0
H1124 H 0.94886 0.22061 0.48791 0.0
H1125 H 0.98434 0.28302 0.46217 0.0
H1126 H 0.95296 0.26153 0.49147 0.0
H1127 H 0.98619 0.24198 0.46655 0.0
C1128 C 0.97696 0.22378 0.47074 0.0
C1129 C 0.96634 0.21748 0.47655 0.0
C1130 C 0.95988 0.26624 0.48509 0.0
C1131 C 0.96845 0.24457 0.47773 0.0
C1132 C 0.95981 0.27976 0.48411 0.0
C1133 C 0.9685 0.28611 0.47572 0.0
C1134 C 0.96873 0.25898 0.47765 0.0
C1135 C 0.97741 0.27854 0.46869 0.0
C1136 C 0.97803 0.2373 0.47129 0.0
C1137 C 0.95716 0.22506 0.48322 0.0
N1138 N 0.97726 0.26537 0.46978 0.0
N1139 N 0.9584 0.23821 0.48357 0.0
H1140 H 0.71624 0.99172 0.45037 0.0
H1141 H 0.77346 0.95976 0.49164 0.0
H1142 H 0.70974 0.96923 0.48522 0.0
H1143 H 0.77987 0.98754 0.46082 0.0
H1144 H 0.75012 0.96402 0.49025 0.0
H1145 H 0.73958 0.99125 0.45474 0.0
C1146 C 0.71971 0.98677 0.459 0.0
C1147 C 0.71103 0.98039 0.46737 0.0
C1148 C 0.75664 0.96928 0.48388 0.0
C1149 C 0.73775 0.97973 0.47239 0.0
C1150 C 0.76997 0.96685 0.48467 0.0
C1151 C 0.77862 0.9732 0.47624 0.0
C1152 C 0.75191 0.97804 0.47452 0.0
C1153 C 0.77356 0.98234 0.46745 0.0
C1154 C 0.73304 0.98652 0.46151 0.0
C1155 C 0.71608 0.97421 0.47845 0.0
N1156 N 0.76053 0.98438 0.46672 0.0
N1157 N 0.72911 0.97391 0.48056 0.0
H1158 H 0.01521 0.78258 0.44919 0.0
H1159 H 0.03209 0.71764 0.48864 0.0
H1160 H 0.03564 0.78214 0.48586 0.0
H1161 H 0.01419 0.71781 0.45066 0.0
H1162 H 0.03147 0.74136 0.48876 0.0
H1163 H 0.01279 0.75899 0.45055 0.0
C1164 C 0.01912 0.77754 0.45757 0.0
C1165 C 0.02573 0.78435 0.46738 0.0
C1166 C 0.02761 0.73622 0.48043 0.0
C1167 C 0.02301 0.75732 0.46898 0.0
C1168 C 0.02795 0.72266 0.48036 0.0
C1169 C 0.02328 0.71572 0.46958 0.0
C1170 C 0.02259 0.74292 0.46964 0.0
C1171 C 0.01797 0.72276 0.45915 0.0
C1172 C 0.01775 0.76406 0.45833 0.0
C1173 C 0.03054 0.77729 0.47803 0.0
N1174 N 0.01783 0.73597 0.45942 0.0
N1175 N 0.02915 0.76417 0.47851 0.0
H1176 H 0.21208 0.99728 0.51705 0.0
H1177 H 0.28577 0.98006 0.49976 0.0
H1178 H 0.22376 0.96374 0.4947 0.0
H1179 H 0.27423 0.00434 0.53198 0.0
H1180 H 0.26303 0.97886 0.49287 0.0
H1181 H 0.23471 0.00457 0.51744 0.0
C1182 C 0.21935 0.99156 0.51203 0.0
C1183 C 0.21608 0.9797 0.50611 0.0
C1184 C 0.26553 0.98458 0.50135 0.0
C1185 C 0.24194 0.98803 0.5065 0.0
C1186 C 0.2785 0.98533 0.50527 0.0
C1187 C 0.28185 0.99204 0.51667 0.0
C1188 C 0.25588 0.99071 0.5088 0.0
C1189 C 0.27204 0.99883 0.52329 0.0
C1190 C 0.23227 0.99571 0.5123 0.0
C1191 C 0.22589 0.97281 0.4996 0.0
N1192 N 0.25947 0.99787 0.51934 0.0
N1193 N 0.23841 0.977 0.50009 0.0
H1194 H 0.01076 0.20979 0.52467 0.0
H1195 H 0.0452 0.27845 0.51239 0.0
H1196 H 0.04952 0.21399 0.50911 0.0
H1197 H 0.01014 0.27367 0.53497 0.0
H1198 H 0.04515 0.25514 0.50784 0.0
H1199 H 0.00867 0.23344 0.52517 0.0
C1200 C 0.01879 0.21567 0.52124 0.0
C1201 C 0.0304 0.20989 0.51698 0.0
C1202 C 0.03742 0.25921 0.51372 0.0
C1203 C 0.02806 0.23698 0.51755 0.0
C1204 C 0.03742 0.27252 0.5163 0.0
C1205 C 0.02773 0.278 0.5242 0.0
C1206 C 0.02764 0.25131 0.51902 0.0
C1207 C 0.01787 0.26984 0.52894 0.0
C1208 C 0.0176 0.22918 0.52156 0.0
C1209 C 0.04044 0.21802 0.51258 0.0
N1210 N 0.01812 0.25689 0.52634 0.0
N1211 N 0.03907 0.23115 0.51306 0.0
H1212 H 0.78631 0.04508 0.50697 0.0
H1213 H 0.72634 0.00956 0.54122 0.0
H1214 H 0.79059 0.01312 0.53385 0.0
H1215 H 0.72207 0.03821 0.51083 0.0
H1216 H 0.74988 0.01008 0.53804 0.0
H1217 H 0.76274 0.04212 0.50761 0.0
C1218 C 0.7823 0.03739 0.51294 0.0
C1219 C 0.79043 0.0294 0.52044 0.0
C1220 C 0.74379 0.01618 0.532 0.0
C1221 C 0.76346 0.026 0.52128 0.0
C1222 C 0.73034 0.01589 0.53382 0.0
C1223 C 0.72222 0.02393 0.52635 0.0
C1224 C 0.74917 0.02463 0.52271 0.0
C1225 C 0.72795 0.03189 0.51686 0.0
C1226 C 0.76884 0.0357 0.5133 0.0
C1227 C 0.7847 0.01955 0.52796 0.0
N1228 N 0.74107 0.03212 0.51539 0.0
N1229 N 0.77156 0.0182 0.52826 0.0
H1230 H 0.97826 0.78767 0.52529 0.0
H1231 H 0.94918 0.72296 0.55739 0.0
H1232 H 0.94552 0.78708 0.55155 0.0
H1233 H 0.98267 0.72304 0.53209 0.0
H1234 H 0.94786 0.74653 0.55534 0.0
H1235 H 0.98017 0.76406 0.52758 0.0
C1236 C 0.97148 0.78259 0.53153 0.0
C1237 C 0.96171 0.78937 0.53823 0.0
C1238 C 0.95552 0.74141 0.55025 0.0
C1239 C 0.96384 0.76237 0.54089 0.0
C1240 C 0.95628 0.72794 0.55142 0.0
C1241 C 0.96604 0.721 0.54489 0.0
C1242 C 0.96457 0.74806 0.54247 0.0
C1243 C 0.97498 0.728 0.53729 0.0
C1244 C 0.97258 0.76911 0.53285 0.0
C1245 C 0.9532 0.78227 0.54619 0.0
N1246 N 0.97401 0.74114 0.53627 0.0
N1247 N 0.95446 0.76918 0.54729 0.0
H1248 H 0.45987 0.21966 0.0116 0.0
H1249 H 0.48876 0.28744 0.03666 0.0
H1250 H 0.48874 0.22293 0.0419 0.0
H1251 H 0.45643 0.28434 0.01007 0.0
H1252 H 0.49064 0.26378 0.03677 0.0
H1253 H 0.46026 0.24327 0.00901 0.0
C1254 C 0.46636 0.22533 0.01765 0.0
C1255 C 0.47421 0.21931 0.02706 0.0
C1256 C 0.48317 0.26827 0.03086 0.0
C1257 C 0.47468 0.24636 0.02415 0.0
C1258 C 0.4821 0.2818 0.03078 0.0
C1259 C 0.47235 0.28789 0.02342 0.0
C1260 C 0.47444 0.26076 0.02353 0.0
C1261 C 0.46404 0.28006 0.01595 0.0
C1262 C 0.46656 0.23882 0.01618 0.0
C1263 C 0.48246 0.22715 0.03459 0.0
N1264 N 0.46523 0.2669 0.01624 0.0
N1265 N 0.48243 0.24027 0.03301 0.0
H1266 H 0.48786 0.77527 0.95501 0.0
H1267 H 0.45271 0.71333 0.98623 0.0
H1268 H 0.4559 0.77786 0.98209 0.0
H1269 H 0.48586 0.71086 0.96061 0.0
H1270 H 0.45458 0.73701 0.98593 0.0
H1271 H 0.48818 0.75172 0.95804 0.0
C1272 C 0.48097 0.7709 0.96167 0.0
C1273 C 0.47177 0.77855 0.96823 0.0
C1274 C 0.46149 0.73129 0.98044 0.0
C1275 C 0.47203 0.75156 0.97169 0.0
C1276 C 0.46043 0.71776 0.9806 0.0
C1277 C 0.46908 0.71009 0.97335 0.0
C1278 C 0.47124 0.73721 0.97292 0.0
C1279 C 0.47893 0.71637 0.96629 0.0
C1280 C 0.48115 0.75744 0.96339 0.0
C1281 C 0.46312 0.77235 0.97678 0.0
N1282 N 0.47969 0.72956 0.96618 0.0
N1283 N 0.4634 0.75922 0.97819 0.0
H1284 H 0.21784 0.45363 0.98715 0.0
H1285 H 0.28691 0.48704 0.97452 0.0
H1286 H 0.223 0.4888 0.96481 0.0
H1287 H 0.28219 0.44814 0.9896 0.0
H1288 H 0.2633 0.48964 0.97451 0.0
H1289 H 0.24115 0.45335 0.99165 0.0
C1290 C 0.22385 0.46137 0.98329 0.0
C1291 C 0.21848 0.47117 0.97546 0.0
C1292 C 0.26745 0.48057 0.97792 0.0
C1293 C 0.24518 0.47089 0.98058 0.0
C1294 C 0.28093 0.47909 0.97796 0.0
C1295 C 0.28654 0.46728 0.98191 0.0
C1296 C 0.25951 0.4702 0.9819 0.0
C1297 C 0.27829 0.45735 0.98634 0.0
C1298 C 0.23716 0.46118 0.98585 0.0
C1299 C 0.22674 0.48098 0.97079 0.0
N1300 N 0.26518 0.45901 0.98613 0.0
N1301 N 0.23969 0.48055 0.97335 0.0
H1302 H 0.50941 0.28145 0.95998 0.0
H1303 H 0.53815 0.21552 0.98958 0.0
H1304 H 0.54068 0.28004 0.98796 0.0
H1305 H 0.51104 0.21683 0.95755 0.0
H1306 H 0.53674 0.23914 0.99142 0.0
H1307 H 0.50746 0.25782 0.96134 0.0
C1308 C 0.51579 0.27619 0.9665 0.0
C1309 C 0.52533 0.28272 0.97375 0.0
C1310 C 0.53103 0.23425 0.98404 0.0
C1311 C 0.52316 0.25566 0.97532 0.0
C1312 C 0.53182 0.22075 0.98299 0.0
C1313 C 0.52481 0.21419 0.97329 0.0
C1314 C 0.52318 0.24125 0.97534 0.0
C1315 C 0.5167 0.22149 0.96509 0.0
C1316 C 0.51468 0.26269 0.96725 0.0
C1317 C 0.53327 0.2754 0.98209 0.0
N1318 N 0.51617 0.23464 0.96625 0.0
N1319 N 0.53206 0.26225 0.98258 0.0
H1320 H 0.78113 0.51785 0.98599 0.0
H1321 H 0.7124 0.50542 0.95177 0.0
H1322 H 0.77676 0.50142 0.94761 0.0
H1323 H 0.71744 0.52868 0.98635 0.0
H1324 H 0.73561 0.50037 0.9521 0.0
H1325 H 0.75748 0.51821 0.98825 0.0
C1326 C 0.77521 0.51418 0.97809 0.0
C1327 C 0.78093 0.50977 0.96651 0.0
C1328 C 0.73161 0.5065 0.95967 0.0
C1329 C 0.75387 0.5102 0.96903 0.0
C1330 C 0.71835 0.50937 0.95951 0.0
C1331 C 0.71299 0.51762 0.96896 0.0
C1332 C 0.73956 0.51185 0.96939 0.0
C1333 C 0.72118 0.52239 0.97878 0.0
C1334 C 0.76171 0.51442 0.97938 0.0
C1335 C 0.77277 0.50503 0.95665 0.0
N1336 N 0.73407 0.51951 0.97869 0.0
N1337 N 0.75965 0.50548 0.95809 0.0
H1338 H 0.52596 0.72472 0.0201 0.0
H1339 H 0.54448 0.78992 0.05843 0.0
H1340 H 0.54872 0.72555 0.05536 0.0
H1341 H 0.51982 0.78936 0.02446 0.0
H1342 H 0.54615 0.76629 0.05733 0.0
H1343 H 0.52368 0.74837 0.02133 0.0
C1344 C 0.53048 0.72987 0.02809 0.0
C1345 C 0.53755 0.72314 0.03764 0.0
C1346 C 0.54034 0.77132 0.05013 0.0
C1347 C 0.53498 0.75019 0.03911 0.0
C1348 C 0.53938 0.78483 0.05075 0.0
C1349 C 0.53201 0.79164 0.04151 0.0
C1350 C 0.53392 0.76454 0.04016 0.0
C1351 C 0.52561 0.78451 0.03179 0.0
C1352 C 0.52916 0.74337 0.0288 0.0
C1353 C 0.54318 0.73032 0.04778 0.0
N1354 N 0.52674 0.77134 0.03135 0.0
N1355 N 0.54179 0.74344 0.04824 0.0
H1356 H 0.27442 0.54718 0.00917 0.0
H1357 H 0.21296 0.50964 0.03834 0.0
H1358 H 0.27738 0.51244 0.03256 0.0
H1359 H 0.20996 0.54214 0.01192 0.0
H1360 H 0.23655 0.5099 0.03557 0.0
H1361 H 0.25078 0.54488 0.00921 0.0
C1362 C 0.27011 0.53902 0.01424 0.0
C1363 C 0.27789 0.53005 0.02096 0.0
C1364 C 0.23073 0.51693 0.03031 0.0
C1365 C 0.25082 0.5274 0.02111 0.0
C1366 C 0.21725 0.51679 0.0319 0.0
C1367 C 0.20947 0.52595 0.02542 0.0
C1368 C 0.23649 0.52633 0.02225 0.0
C1369 C 0.21557 0.53493 0.01715 0.0
C1370 C 0.25661 0.53771 0.01426 0.0
C1371 C 0.27177 0.51963 0.02731 0.0
N1372 N 0.22872 0.53496 0.01588 0.0
N1373 N 0.2586 0.51865 0.02731 0.0
H1374 H 0.71963 0.48985 0.05223 0.0
H1375 H 0.78612 0.48254 0.0125 0.0
H1376 H 0.72191 0.47439 0.01328 0.0
H1377 H 0.7842 0.49209 0.05333 0.0
H1378 H 0.76238 0.4828 0.01158 0.0
H1379 H 0.74301 0.49393 0.05172 0.0
C1380 C 0.72502 0.48741 0.04353 0.0
C1381 C 0.71881 0.48164 0.03283 0.0
C1382 C 0.76716 0.48492 0.02072 0.0
C1383 C 0.74561 0.48628 0.0322 0.0
C1384 C 0.78072 0.48481 0.02125 0.0
C1385 C 0.78717 0.48715 0.03305 0.0
C1386 C 0.75998 0.48741 0.03207 0.0
C1387 C 0.77965 0.49011 0.04405 0.0
C1388 C 0.73838 0.48973 0.04325 0.0
C1389 C 0.7263 0.47875 0.02179 0.0
N1390 N 0.76646 0.49007 0.04331 0.0
N1391 N 0.73932 0.48103 0.02179 0.0
H1392 H 0.08575 0.52069 0.0665 0.0
H1393 H 0.08568 0.47013 0.12531 0.0
H1394 H 0.11977 0.51367 0.09006 0.0
H1395 H 0.05829 0.46881 0.09353 0.0
H1396 H 0.09745 0.48755 0.11406 0.0
H1397 H 0.0744 0.50344 0.07818 0.0
C1398 C 0.0908 0.5156 0.0742 0.0
C1399 C 0.10374 0.51861 0.07729 0.0
C1400 C 0.0889 0.48338 0.10955 0.0
C1401 C 0.0908 0.49881 0.09066 0.0
C1402 C 0.08219 0.47344 0.11594 0.0
C1403 C 0.071 0.468 0.11033 0.0
C1404 C 0.08426 0.48801 0.09757 0.0
C1405 C 0.06689 0.47268 0.09819 0.0
C1406 C 0.08434 0.50569 0.08081 0.0
C1407 C 0.10981 0.51164 0.08735 0.0
N1408 N 0.07346 0.48247 0.09227 0.0
N1409 N 0.10328 0.50206 0.0937 0.0
H1410 H 0.48237 0.1288 0.09896 0.0
H1411 H 0.52283 0.06282 0.0989 0.0
H1412 H 0.47247 0.09575 0.07506 0.0
H1413 H 0.52338 0.08928 0.13147 0.0
H1414 H 0.50592 0.07604 0.08875 0.0
H1415 H 0.49874 0.11551 0.11006 0.0
C1416 C 0.48356 0.11873 0.09611 0.0
C1417 C 0.47605 0.11337 0.08606 0.0
C1418 C 0.50974 0.07895 0.09812 0.0
C1419 C 0.49487 0.09824 0.09854 0.0
C1420 C 0.51945 0.07146 0.10389 0.0
C1421 C 0.52452 0.07496 0.11605 0.0
C1422 C 0.50516 0.09012 0.10448 0.0
C1423 C 0.51972 0.08622 0.12209 0.0
C1424 C 0.4929 0.11117 0.10245 0.0
C1425 C 0.47801 0.10028 0.08277 0.0
N1426 N 0.51033 0.09345 0.11621 0.0
N1427 N 0.48731 0.0932 0.08891 0.0
H1428 H 0.93573 0.52644 0.08989 0.0
H1429 H 0.8737 0.47974 0.08898 0.0
H1430 H 0.90906 0.52355 0.12217 0.0
H1431 H 0.90641 0.47543 0.06303 0.0
H1432 H 0.88538 0.4971 0.10036 0.0
H1433 H 0.92372 0.50928 0.07874 0.0
C1434 C 0.92729 0.52227 0.0946 0.0
C1435 C 0.9234 0.52642 0.10699 0.0
C1436 C 0.89 0.4923 0.09221 0.0
C1437 C 0.90963 0.50673 0.09429 0.0
C1438 C 0.88336 0.4824 0.08572 0.0
C1439 C 0.8891 0.47612 0.07505 0.0
C1440 C 0.9024 0.49605 0.08789 0.0
C1441 C 0.90162 0.47997 0.07123 0.0
C1442 C 0.92048 0.51241 0.08826 0.0
C1443 C 0.91241 0.52062 0.11263 0.0
N1444 N 0.90781 0.48974 0.0776 0.0
N1445 N 0.90589 0.51107 0.10623 0.0
H1446 H 0.46658 0.93619 0.09682 0.0
H1447 H 0.51784 0.87889 0.08651 0.0
H1448 H 0.47552 0.90836 0.12696 0.0
H1449 H 0.51746 0.9141 0.06364 0.0
H1450 H 0.50075 0.88805 0.10037 0.0
H1451 H 0.48335 0.92643 0.08316 0.0
C1452 C 0.47199 0.92795 0.10053 0.0
C1453 C 0.46967 0.9231 0.11306 0.0
C1454 C 0.50448 0.89377 0.09235 0.0
C1455 C 0.48892 0.91192 0.09748 0.0
C1456 C 0.51421 0.88856 0.08444 0.0
C1457 C 0.51909 0.89576 0.07392 0.0
C1458 C 0.49947 0.90617 0.08958 0.0
C1459 C 0.51403 0.90823 0.07168 0.0
C1460 C 0.48163 0.92244 0.09276 0.0
C1461 C 0.47702 0.91243 0.11737 0.0
N1462 N 0.50444 0.913 0.07938 0.0
N1463 N 0.48632 0.90717 0.10958 0.0
H1464 H 0.09671 0.53663 0.88908 0.0
H1465 H 0.11351 0.46258 0.89639 0.0
H1466 H 0.08513 0.50898 0.85973 0.0
H1467 H 0.14009 0.49217 0.90972 0.0
H1468 H 0.10161 0.47919 0.8841 0.0
H1469 H 0.11147 0.52031 0.89825 0.0
C1470 C 0.09736 0.52716 0.88452 0.0
C1471 C 0.0897 0.52412 0.87366 0.0
C1472 C 0.11015 0.48199 0.88959 0.0
C1473 C 0.10631 0.50542 0.8842 0.0
C1474 C 0.1169 0.47255 0.89662 0.0
C1475 C 0.12777 0.47603 0.90408 0.0
C1476 C 0.11411 0.49503 0.89032 0.0
C1477 C 0.13178 0.48908 0.90405 0.0
C1478 C 0.1058 0.51789 0.88971 0.0
C1479 C 0.09091 0.51172 0.86809 0.0
N1480 N 0.12482 0.49816 0.89744 0.0
N1481 N 0.09892 0.50273 0.87355 0.0
H1482 H 0.52321 0.12801 0.90719 0.0
H1483 H 0.47594 0.0668 0.90758 0.0
H1484 H 0.52918 0.09444 0.93169 0.0
H1485 H 0.48033 0.09099 0.87356 0.0
H1486 H 0.49334 0.07895 0.91818 0.0
H1487 H 0.50565 0.11635 0.89599 0.0
C1488 C 0.52089 0.11818 0.91016 0.0
C1489 C 0.52767 0.11217 0.92037 0.0
C1490 C 0.49048 0.08161 0.90841 0.0
C1491 C 0.50752 0.09896 0.90782 0.0
C1492 C 0.48048 0.07475 0.90238 0.0
C1493 C 0.47671 0.07787 0.88965 0.0
C1494 C 0.49664 0.0918 0.90174 0.0
C1495 C 0.48298 0.08824 0.88337 0.0
C1496 C 0.51089 0.11155 0.90377 0.0
C1497 C 0.52425 0.09942 0.92383 0.0
N1498 N 0.49265 0.09488 0.88949 0.0
N1499 N 0.51434 0.09329 0.91765 0.0
H1500 H 0.88642 0.53945 0.90553 0.0
H1501 H 0.90044 0.46575 0.89236 0.0
H1502 H 0.85757 0.51034 0.9145 0.0
H1503 H 0.91308 0.49497 0.86503 0.0
H1504 H 0.88633 0.48195 0.90272 0.0
H1505 H 0.89823 0.52333 0.8925 0.0
C1506 C 0.88253 0.5297 0.90467 0.0
C1507 C 0.87102 0.52619 0.91107 0.0
C1508 C 0.89211 0.48474 0.89437 0.0
C1509 C 0.88456 0.50775 0.8965 0.0
C1510 C 0.90018 0.47555 0.88851 0.0
C1511 C 0.90791 0.47906 0.87784 0.0
C1512 C 0.89208 0.49758 0.88976 0.0
C1513 C 0.90721 0.49187 0.8732 0.0
C1514 C 0.88923 0.52055 0.89722 0.0
C1515 C 0.86638 0.51344 0.90965 0.0
N1516 N 0.89958 0.50075 0.87932 0.0
N1517 N 0.87328 0.5046 0.90268 0.0
H1518 H 0.50614 0.90871 0.85329 0.0
H1519 H 0.48901 0.85489 0.90633 0.0
H1520 H 0.53384 0.89586 0.88207 0.0
H1521 H 0.46075 0.88272 0.89263 0.0
H1522 H 0.50569 0.86579 0.89325 0.0
H1523 H 0.48952 0.89505 0.86357 0.0
C1524 C 0.50877 0.90287 0.86165 0.0
C1525 C 0.52135 0.90345 0.8669 0.0
C1526 C 0.4958 0.8694 0.89304 0.0
C1527 C 0.50249 0.88779 0.87854 0.0
C1528 C 0.48627 0.86316 0.90042 0.0
C1529 C 0.47351 0.86798 0.9006 0.0
C1530 C 0.49246 0.88033 0.88561 0.0
C1531 C 0.4705 0.87877 0.89282 0.0
C1532 C 0.49928 0.89515 0.86752 0.0
C1533 C 0.52423 0.89575 0.87778 0.0
N1534 N 0.47992 0.8846 0.88561 0.0
N1535 N 0.51486 0.8882 0.88325 0.0
H1536 H 0.12904 0.09427 0.48735 0.0
H1537 H 0.06135 0.09278 0.52519 0.0
H1538 H 0.09753 0.06843 0.47729 0.0
H1539 H 0.08755 0.12553 0.52692 0.0
H1540 H 0.07555 0.08258 0.50913 0.0
H1541 H 0.11485 0.10496 0.50319 0.0
C1542 C 0.11912 0.09089 0.48842 0.0
C1543 C 0.11445 0.08045 0.48099 0.0
C1544 C 0.07819 0.092 0.51302 0.0
C1545 C 0.09827 0.0925 0.49919 0.0
C1546 C 0.07013 0.0978 0.52225 0.0
C1547 C 0.07328 0.11003 0.5274 0.0
C1548 C 0.08955 0.09841 0.50901 0.0
C1549 C 0.08475 0.1161 0.52319 0.0
C1550 C 0.11104 0.097 0.49746 0.0
C1551 C 0.10153 0.07647 0.48279 0.0
N1552 N 0.09251 0.1102 0.51425 0.0
N1553 N 0.09391 0.08244 0.49177 0.0
H1554 H 0.93468 0.09481 0.46694 0.0
H1555 H 0.87641 0.0894 0.51799 0.0
H1556 H 0.90828 0.12653 0.47459 0.0
H1557 H 0.9096 0.06371 0.5178 0.0
H1558 H 0.88655 0.10219 0.50063 0.0
H1559 H 0.92393 0.08209 0.48385 0.0
C1560 C 0.92655 0.09907 0.4721 0.0
C1561 C 0.92239 0.11177 0.46937 0.0
C1562 C 0.89161 0.09377 0.50444 0.0
C1563 C 0.91007 0.09726 0.48878 0.0
C1564 C 0.88585 0.08648 0.51433 0.0
C1565 C 0.89219 0.07549 0.51936 0.0
C1566 C 0.90372 0.08994 0.49943 0.0
C1567 C 0.90438 0.07214 0.51425 0.0
C1568 C 0.92047 0.09182 0.48181 0.0
C1569 C 0.91182 0.11679 0.47641 0.0
N1570 N 0.90972 0.07929 0.50452 0.0
N1571 N 0.90602 0.10952 0.4858 0.0
H1572 H 0.85417 0.91603 0.48446 0.0
H1573 H 0.91313 0.86866 0.50068 0.0
H1574 H 0.88299 0.90598 0.45568 0.0
H1575 H 0.89939 0.8974 0.52796 0.0
H1576 H 0.89802 0.87732 0.48435 0.0
H1577 H 0.86669 0.90402 0.50082 0.0
C1578 C 0.863 0.91109 0.48154 0.0
C1579 C 0.86762 0.91203 0.46874 0.0
C1580 C 0.89825 0.8816 0.49397 0.0
C1581 C 0.8818 0.89826 0.4873 0.0
C1582 C 0.90679 0.87666 0.50328 0.0
C1583 C 0.90752 0.8824 0.51563 0.0
C1584 C 0.8902 0.89213 0.49716 0.0
C1585 C 0.89917 0.89278 0.5185 0.0
C1586 C 0.87014 0.90433 0.49087 0.0
C1587 C 0.87916 0.90554 0.46548 0.0
N1588 N 0.89081 0.89731 0.50933 0.0
N1589 N 0.88588 0.89889 0.47472 0.0
H1590 H 0.11917 0.90288 0.53911 0.0
H1591 H 0.1027 0.8925 0.46526 0.0
H1592 H 0.14688 0.91283 0.50922 0.0
H1593 H 0.08991 0.86485 0.49412 0.0
H1594 H 0.11737 0.90214 0.4814 0.0
H1595 H 0.10653 0.8907 0.52295 0.0
C1596 C 0.12263 0.90241 0.52918 0.0
C1597 C 0.13407 0.90884 0.52547 0.0
C1598 C 0.11143 0.89388 0.48413 0.0
C1599 C 0.11959 0.89523 0.507 0.0
C1600 C 0.10304 0.88842 0.47497 0.0
C1601 C 0.09512 0.87787 0.47839 0.0
C1602 C 0.11161 0.88896 0.49685 0.0
C1603 C 0.09593 0.87294 0.49109 0.0
C1604 C 0.11546 0.89545 0.52 0.0
C1605 C 0.13814 0.90794 0.51248 0.0
N1606 N 0.1039 0.87865 0.49994 0.0
N1607 N 0.1308 0.90142 0.50365 0.0
H1608 H 0.6006 0.02989 0.56229 0.0
H1609 H 0.59331 0.98159 0.62248 0.0
H1610 H 0.63195 0.02301 0.58935 0.0
H1611 H 0.57 0.97883 0.58769 0.0
H1612 H 0.60638 0.99858 0.61204 0.0
H1613 H 0.58775 0.01325 0.57332 0.0
C1614 C 0.60474 0.02496 0.57063 0.0
C1615 C 0.61738 0.02782 0.5749 0.0
C1616 C 0.59844 0.99419 0.6067 0.0
C1617 C 0.60273 0.00874 0.58753 0.0
C1618 C 0.59098 0.98451 0.61264 0.0
C1619 C 0.58057 0.97878 0.60593 0.0
C1620 C 0.59531 0.99829 0.59406 0.0
C1621 C 0.57797 0.98294 0.5932 0.0
C1622 C 0.59743 0.0154 0.57686 0.0
C1623 C 0.62226 0.02108 0.58572 0.0
N1624 N 0.58523 0.99251 0.58771 0.0
N1625 N 0.61491 0.01185 0.59169 0.0
H1626 H 0.0076 0.58317 0.63718 0.0
H1627 H 0.99136 0.63833 0.58538 0.0
H1628 H 0.03566 0.59606 0.60878 0.0
H1629 H 0.96316 0.60937 0.59663 0.0
H1630 H 0.00773 0.62716 0.59866 0.0
H1631 H 0.9912 0.59715 0.62693 0.0
C1632 C 0.01036 0.5891 0.62892 0.0
C1633 C 0.02296 0.58843 0.62375 0.0
C1634 C 0.99791 0.62338 0.59831 0.0
C1635 C 0.00438 0.60446 0.61218 0.0
C1636 C 0.98856 0.62975 0.59082 0.0
C1637 C 0.97593 0.62469 0.58988 0.0
C1638 C 0.99449 0.61206 0.6051 0.0
C1639 C 0.97283 0.61351 0.59704 0.0
C1640 C 0.001 0.59699 0.62307 0.0
C1641 C 0.02601 0.59624 0.61299 0.0
N1642 N 0.98206 0.60756 0.6044 0.0
N1643 N 0.01678 0.60398 0.60756 0.0
H1644 H 0.40871 0.00483 0.63848 0.0
H1645 H 0.35171 0.99272 0.58764 0.0
H1646 H 0.39536 0.03477 0.61229 0.0
H1647 H 0.37947 0.96279 0.59738 0.0
H1648 H 0.36419 0.0082 0.60076 0.0
H1649 H 0.3945 0.98918 0.62743 0.0
C1650 C 0.40268 0.00814 0.63051 0.0
C1651 C 0.40322 0.02109 0.62624 0.0
C1652 C 0.36746 0.99821 0.60008 0.0
C1653 C 0.38692 0.00335 0.61375 0.0
C1654 C 0.36034 0.98937 0.59267 0.0
C1655 C 0.36461 0.97648 0.5914 0.0
C1656 C 0.37878 0.99406 0.60645 0.0
C1657 C 0.37589 0.97266 0.59806 0.0
C1658 C 0.39465 -0.00079 0.62419 0.0
C1659 C 0.39527 0.02485 0.61582 0.0
N1660 N 0.38258 0.98142 0.60536 0.0
N1661 N 0.38739 0.01603 0.60995 0.0
H1662 H 0.00744 0.35601 0.58936 0.0
H1663 H 0.9912 0.41246 0.63978 0.0
H1664 H 0.03646 0.38346 0.60221 0.0
H1665 H 0.964 0.40015 0.6103 0.0
H1666 H 0.00748 0.39765 0.63057 0.0
H1667 H 0.99097 0.36802 0.60171 0.0
C1668 C 0.01039 0.36442 0.59496 0.0
C1669 C 0.0233 0.36881 0.59472 0.0
C1670 C 0.99789 0.39813 0.62624 0.0
C1671 C 0.0046 0.38243 0.60889 0.0
C1672 C 0.9886 0.4065 0.6315 0.0
C1673 C 0.97629 0.40756 0.62572 0.0
C1674 C 0.99472 0.39058 0.61534 0.0
C1675 C 0.97343 0.39967 0.61497 0.0
C1676 C 0.00099 0.37129 0.60192 0.0
C1677 C 0.02658 0.37982 0.60208 0.0
N1678 N 0.98258 0.39148 0.61012 0.0
N1679 N 0.01727 0.38627 0.60889 0.0
H1680 H 0.56441 0.02585 0.40617 0.0
H1681 H 0.62485 0.9771 0.40739 0.0
H1682 H 0.58989 0.02052 0.37325 0.0
H1683 H 0.59297 0.97525 0.43463 0.0
H1684 H 0.61338 0.9943 0.39555 0.0
H1685 H 0.57622 0.00884 0.41777 0.0
C1686 C 0.57255 0.02117 0.40141 0.0
C1687 C 0.57616 0.0246 0.38871 0.0
C1688 C 0.60889 0.99008 0.40409 0.0
C1689 C 0.58969 0.00507 0.40194 0.0
C1690 C 0.61542 0.98027 0.41084 0.0
C1691 C 0.60984 0.97473 0.422 0.0
C1692 C 0.59679 0.99447 0.40863 0.0
C1693 C 0.59761 0.97921 0.42605 0.0
C1694 C 0.57924 0.0114 0.40802 0.0
C1695 C 0.58676 0.01816 0.38302 0.0
N1696 N 0.59153 0.98887 0.41941 0.0
N1697 N 0.59317 0.00871 0.38968 0.0
H1698 H 0.98101 0.59489 0.36989 0.0
H1699 H 0.02972 0.59478 0.43001 0.0
H1700 H 0.97711 0.56898 0.4027 0.0
H1701 H 0.0234 0.62918 0.40678 0.0
H1702 H 0.01249 0.58377 0.41795 0.0
H1703 H 0.99828 0.60654 0.38152 0.0
C1704 C 0.98372 0.59171 0.37956 0.0
C1705 C 0.97761 0.58096 0.38535 0.0
C1706 C 0.0149 0.59372 0.41548 0.0
C1707 C 0.99746 0.59403 0.39852 0.0
C1708 C 0.0248 0.59998 0.42228 0.0
C1709 C 0.02798 0.61293 0.41941 0.0
C1710 C 0.00823 0.60038 0.40561 0.0
C1711 C 0.02122 0.6192 0.40933 0.0
C1712 C 0.99356 0.59835 0.38617 0.0
C1713 C 0.98151 0.57724 0.39789 0.0
N1714 N 0.01167 0.61285 0.40275 0.0
N1715 N 0.99127 0.5837 0.404 0.0
H1716 H 0.36944 0.01569 0.40503 0.0
H1717 H 0.43344 0.97189 0.40472 0.0
H1718 H 0.40219 0.02249 0.43039 0.0
H1719 H 0.40725 0.9738 0.37196 0.0
H1720 H 0.42068 0.98871 0.41558 0.0
H1721 H 0.38196 0.9988 0.39385 0.0
C1722 C 0.37928 0.01367 0.40821 0.0
C1723 C 0.38479 0.02051 0.41865 0.0
C1724 C 0.41772 0.98544 0.40602 0.0
C1725 C 0.39905 0.00112 0.40604 0.0
C1726 C 0.42495 0.97578 0.39984 0.0
C1727 C 0.4214 0.97145 0.38741 0.0
C1728 C 0.40679 0.99071 0.39979 0.0
C1729 C 0.41034 0.97688 0.38154 0.0
C1730 C 0.38641 0.00404 0.40182 0.0
C1731 C 0.39757 0.01749 0.42236 0.0
N1732 N 0.40339 0.98622 0.3878 0.0
N1733 N 0.40424 0.00796 0.41612 0.0
H1734 H 0.97504 0.37066 0.41019 0.0
H1735 H 0.02817 0.42643 0.40215 0.0
H1736 H 0.97587 0.40536 0.43378 0.0
H1737 H 0.01736 0.40137 0.37026 0.0
H1738 H 0.01117 0.41649 0.4154 0.0
H1739 H 0.9924 0.37983 0.39663 0.0
C1740 C 0.97883 0.38022 0.41248 0.0
C1741 C 0.974 0.38728 0.42311 0.0
C1742 C 0.01255 0.41315 0.40551 0.0
C1743 C 0.99393 0.39765 0.40784 0.0
C1744 C 0.02231 0.41874 0.39797 0.0
C1745 C 0.02416 0.41475 0.38506 0.0
C1746 C 0.00467 0.40337 0.40018 0.0
C1747 C 0.01623 0.40477 0.38015 0.0
C1748 C 0.98871 0.38543 0.40475 0.0
C1749 C 0.97925 0.39961 0.42565 0.0
N1750 N 0.00682 0.3994 0.38773 0.0
N1751 N 0.98901 0.40436 0.41813 0.0
H1752 H 0.63572 0.58778 0.99456 0.0
H1753 H 0.58269 0.64174 0.01083 0.0
H1754 H 0.60609 0.59903 0.96706 0.0
H1755 H 0.59594 0.61412 0.0395 0.0
H1756 H 0.59583 0.63057 0.99437 0.0
H1757 H 0.62562 0.60197 0.01085 0.0
C1758 C 0.62722 0.59339 0.99189 0.0
C1759 C 0.62166 0.5922 0.97949 0.0
C1760 C 0.59595 0.62709 0.00431 0.0
C1761 C 0.61025 0.60847 0.99795 0.0
C1762 C 0.58854 0.63347 0.0137 0.0
C1763 C 0.58819 0.62878 0.02651 0.0
C1764 C 0.60327 0.61614 0.00784 0.0
C1765 C 0.59588 0.61797 0.02971 0.0
C1766 C 0.62145 0.60141 0.00119 0.0
C1767 C 0.6106 0.59962 0.97655 0.0
N1768 N 0.60314 0.61201 0.02042 0.0
N1769 N 0.60525 0.60748 0.98572 0.0
H1770 H 0.36665 0.58968 0.02256 0.0
H1771 H 0.42776 0.58746 0.97493 0.0
H1772 H 0.39822 0.56232 0.02666 0.0
H1773 H 0.4045 0.62206 0.97985 0.0
H1774 H 0.4151 0.57681 0.99194 0.0
H1775 H 0.37879 0.60067 0.00523 0.0
C1776 C 0.37615 0.58603 0.01987 0.0
C1777 C 0.38145 0.57509 0.02607 0.0
C1778 C 0.41275 0.58672 0.98928 0.0
C1779 C 0.39523 0.58745 0.00618 0.0
C1780 C 0.41991 0.59279 0.97951 0.0
C1781 C 0.41721 0.60568 0.97599 0.0
C1782 C 0.4027 0.59354 0.9955 0.0
C1783 C 0.40694 0.61211 0.98229 0.0
C1784 C 0.38306 0.5923 0.00999 0.0
C1785 C 0.39379 0.57076 0.02219 0.0
N1786 N 0.40004 0.60597 0.99175 0.0
N1787 N 0.40021 0.5769 0.01243 0.0
H1788 H 0.37018 0.41124 0.97103 0.0
H1789 H 0.42815 0.41133 0.02259 0.0
H1790 H 0.4014 0.4393 0.97081 0.0
H1791 H 0.40554 0.37694 0.01432 0.0
H1792 H 0.41635 0.4229 0.00556 0.0
H1793 H 0.38128 0.39945 0.98853 0.0
C1794 C 0.37939 0.41489 0.97462 0.0
C1795 C 0.3849 0.42625 0.96944 0.0
C1796 C 0.41395 0.41283 0.00749 0.0
C1797 C 0.39748 0.41297 0.98954 0.0
C1798 C 0.42062 0.40624 0.01728 0.0
C1799 C 0.41785 0.39314 0.01985 0.0
C1800 C 0.40435 0.40633 0.00031 0.0
C1801 C 0.40801 0.38703 0.01262 0.0
C1802 C 0.3857 0.40816 0.98459 0.0
C1803 C 0.39683 0.43055 0.97446 0.0
N1804 N 0.40159 0.39369 0.00316 0.0
N1805 N 0.40268 0.42395 0.98429 0.0
H1806 H 0.63938 0.41085 -0.0006 0.0
H1807 H 0.58473 0.35826 0.98377 0.0
H1808 H 0.61209 0.3976 0.02839 0.0
H1809 H 0.5967 0.38718 0.95582 0.0
H1810 H 0.59898 0.3684 -2e-05 0.0
H1811 H 0.62791 0.39785 0.98304 0.0
C1812 C 0.6311 0.40505 0.00236 0.0
C1813 C 0.62661 0.40534 0.01524 0.0
C1814 C 0.59855 0.37241 0.99025 0.0
C1815 C 0.61362 0.39043 0.99667 0.0
C1816 C 0.5905 0.36662 0.98099 0.0
C1817 C 0.5895 0.37196 0.96848 0.0
C1818 C 0.60583 0.38343 0.98686 0.0
C1819 C 0.59714 0.38283 0.9654 0.0
C1820 C 0.62455 0.39771 0.99302 0.0
C1821 C 0.6158 0.39771 0.01854 0.0
N1822 N 0.60502 0.38822 0.97454 0.0
N1823 N 0.60966 0.39053 0.0093 0.0
loop_
_geom_bond_atom_site_label_1
_geom_bond_atom_site_label_2
_geom_bond_distance
_geom_bond_site_symmetry_2
_ccdc_geom_bond_type
O0 Cd1 2.300 . S
O0 C7 1.275 . S
Cd1 O0 2.300 . S
Cd1 O9 2.381 . S
Cd1 O10 2.378 . S
O2 Cd3 2.385 . S
O2 C7 1.255 . S
Cd3 O2 2.385 . S
Cd3 O4 2.317 . S
O4 Cd3 2.317 . S
O4 C5 1.232 . S
C5 O4 1.232 . S
C5 O6 1.218 . S
O6 C5 1.218 . S
C7 O0 1.275 . S
C7 O2 1.255 . S
C8 O9 1.258 . S
C8 O10 1.256 . S
O9 Cd1 2.381 . S
O9 C8 1.258 . S
O10 Cd1 2.378 . S
O10 C8 1.256 . S
O11 Cd12 2.300 . S
O11 C18 1.275 . S
Cd12 O11 2.300 . S
Cd12 O20 2.381 . S
Cd12 O21 2.378 . S
O13 Cd14 2.385 . S
O13 C18 1.255 . S
Cd14 O13 2.385 . S
Cd14 O15 2.317 . S
O15 Cd14 2.317 . S
O15 C16 1.232 . S
C16 O15 1.232 . S
C16 O17 1.218 . S
O17 C16 1.218 . S
C18 O11 1.275 . S
C18 O13 1.255 . S
C19 O20 1.258 . S
C19 O21 1.256 . S
O20 Cd12 2.381 . S
O20 C19 1.258 . S
O21 Cd12 2.378 . S
O21 C19 1.256 . S
O22 Cd23 2.300 . S
O22 C29 1.275 . S
Cd23 O22 2.300 . S
Cd23 O31 2.381 . S
Cd23 O32 2.378 . S
O24 Cd25 2.385 . S
O24 C29 1.255 . S
Cd25 O24 2.385 . S
Cd25 O26 2.317 . S
O26 Cd25 2.317 . S
O26 C27 1.232 . S
C27 O26 1.232 . S
C27 O28 1.218 . S
O28 C27 1.218 . S
C29 O22 1.275 . S
C29 O24 1.255 . S
C30 O31 1.258 . S
C30 O32 1.256 . S
O31 Cd23 2.381 . S
O31 C30 1.258 . S
O32 Cd23 2.378 . S
O32 C30 1.256 . S
O33 Cd34 2.300 . S
O33 C40 1.275 . S
Cd34 O33 2.300 . S
Cd34 O42 2.381 . S
Cd34 O43 2.378 . S
O35 Cd36 2.385 . S
O35 C40 1.255 . S
Cd36 O35 2.385 . S
Cd36 O37 2.317 . S
O37 Cd36 2.317 . S
O37 C38 1.232 . S
C38 O37 1.232 . S
C38 O39 1.218 . S
O39 C38 1.218 . S
C40 O33 1.275 . S
C40 O35 1.255 . S
C41 O42 1.258 . S
C41 O43 1.256 . S
O42 Cd34 2.381 . S
O42 C41 1.258 . S
O43 Cd34 2.378 . S
O43 C41 1.256 . S
O44 Cd45 2.300 . S
O44 C51 1.275 . S
Cd45 O44 2.300 . S
Cd45 O53 2.381 . S
Cd45 O54 2.378 . S
O46 Cd47 2.385 . S
O46 C51 1.255 . S
Cd47 O46 2.385 . S
Cd47 O48 2.317 . S
O48 Cd47 2.317 . S
O48 C49 1.232 . S
C49 O48 1.232 . S
C49 O50 1.218 . S
O50 C49 1.218 . S
C51 O44 1.275 . S
C51 O46 1.255 . S
C52 O53 1.258 . S
C52 O54 1.256 . S
O53 Cd45 2.381 . S
O53 C52 1.258 . S
O54 Cd45 2.378 . S
O54 C52 1.256 . S
O55 Cd56 2.300 . S
O55 C62 1.275 . S
Cd56 O55 2.300 . S
Cd56 O64 2.381 . S
Cd56 O65 2.378 . S
O57 Cd58 2.385 . S
O57 C62 1.255 . S
Cd58 O57 2.385 . S
Cd58 O59 2.317 . S
O59 Cd58 2.317 . S
O59 C60 1.232 . S
C60 O59 1.232 . S
C60 O61 1.218 . S
O61 C60 1.218 . S
C62 O55 1.275 . S
C62 O57 1.255 . S
C63 O64 1.258 . S
C63 O65 1.256 . S
O64 Cd56 2.381 . S
O64 C63 1.258 . S
O65 Cd56 2.378 . S
O65 C63 1.256 . S
O66 Cd67 2.300 . S
O66 C73 1.275 . S
Cd67 O66 2.300 . S
Cd67 O75 2.381 . S
Cd67 O76 2.378 . S
O68 Cd69 2.385 . S
O68 C73 1.255 . S
Cd69 O68 2.385 . S
Cd69 O70 2.317 . S
O70 Cd69 2.317 . S
O70 C71 1.232 . S
C71 O70 1.232 . S
C71 O72 1.218 . S
O72 C71 1.218 . S
C73 O66 1.275 . S
C73 O68 1.255 . S
C74 O75 1.258 . S
C74 O76 1.256 . S
O75 Cd67 2.381 . S
O75 C74 1.258 . S
O76 Cd67 2.378 . S
O76 C74 1.256 . S
O77 Cd78 2.300 . S
O77 C84 1.275 . S
Cd78 O77 2.300 . S
Cd78 O86 2.381 . S
Cd78 O87 2.378 . S
O79 Cd80 2.385 . S
O79 C84 1.255 . S
Cd80 O79 2.385 . S
Cd80 O81 2.317 . S
O81 Cd80 2.317 . S
O81 C82 1.232 . S
C82 O81 1.232 . S
C82 O83 1.218 . S
O83 C82 1.218 . S
C84 O77 1.275 . S
C84 O79 1.255 . S
C85 O86 1.258 . S
C85 O87 1.256 . S
O86 Cd78 2.381 . S
O86 C85 1.258 . S
O87 Cd78 2.378 . S
O87 C85 1.256 . S
O88 Cd89 2.300 . S
O88 C95 1.275 . S
Cd89 O88 2.300 . S
Cd89 O97 2.381 . S
Cd89 O98 2.378 . S
O90 Cd91 2.385 . S
O90 C95 1.255 . S
Cd91 O90 2.385 . S
Cd91 O92 2.317 . S
O92 Cd91 2.317 . S
O92 C93 1.232 . S
C93 O92 1.232 . S
C93 O94 1.218 . S
O94 C93 1.218 . S
C95 O88 1.275 . S
C95 O90 1.255 . S
C96 O97 1.258 . S
C96 O98 1.256 . S
O97 Cd89 2.381 . S
O97 C96 1.258 . S
O98 Cd89 2.378 . S
O98 C96 1.256 . S
O99 Cd100 2.300 . S
O99 C106 1.275 . S
Cd100 O99 2.300 . S
Cd100 O108 2.381 . S
Cd100 O109 2.378 . S
O101 Cd102 2.385 . S
O101 C106 1.255 . S
Cd102 O101 2.385 . S
Cd102 O103 2.317 . S
O103 Cd102 2.317 . S
O103 C104 1.232 . S
C104 O103 1.232 . S
C104 O105 1.218 . S
O105 C104 1.218 . S
C106 O99 1.275 . S
C106 O101 1.255 . S
C107 O108 1.258 . S
C107 O109 1.256 . S
O108 Cd100 2.381 . S
O108 C107 1.258 . S
O109 Cd100 2.378 . S
O109 C107 1.256 . S
O110 Cd111 2.300 . S
O110 C117 1.275 . S
Cd111 O110 2.300 . S
Cd111 O119 2.381 . S
Cd111 O120 2.378 . S
O112 Cd113 2.385 . S
O112 C117 1.255 . S
Cd113 O112 2.385 . S
Cd113 O114 2.317 . S
O114 Cd113 2.317 . S
O114 C115 1.232 . S
C115 O114 1.232 . S
C115 O116 1.218 . S
O116 C115 1.218 . S
C117 O110 1.275 . S
C117 O112 1.255 . S
C118 O119 1.258 . S
C118 O120 1.256 . S
O119 Cd111 2.381 . S
O119 C118 1.258 . S
O120 Cd111 2.378 . S
O120 C118 1.256 . S
O121 Cd122 2.300 . S
O121 C128 1.275 . S
Cd122 O121 2.300 . S
Cd122 O130 2.381 . S
Cd122 O131 2.378 . S
O123 Cd124 2.385 . S
O123 C128 1.255 . S
Cd124 O123 2.385 . S
Cd124 O125 2.317 . S
O125 Cd124 2.317 . S
O125 C126 1.232 . S
C126 O125 1.232 . S
C126 O127 1.218 . S
O127 C126 1.218 . S
C128 O121 1.275 . S
C128 O123 1.255 . S
C129 O130 1.258 . S
C129 O131 1.256 . S
O130 Cd122 2.381 . S
O130 C129 1.258 . S
O131 Cd122 2.378 . S
O131 C129 1.256 . S
O132 Cd133 2.300 . S
O132 C139 1.275 . S
Cd133 O132 2.300 . S
Cd133 O141 2.381 . S
Cd133 O142 2.378 . S
O134 Cd135 2.385 . S
O134 C139 1.255 . S
Cd135 O134 2.385 . S
Cd135 O136 2.317 . S
O136 Cd135 2.317 . S
O136 C137 1.232 . S
C137 O136 1.232 . S
C137 O138 1.218 . S
O138 C137 1.218 . S
C139 O132 1.275 . S
C139 O134 1.255 . S
C140 O141 1.258 . S
C140 O142 1.256 . S
O141 Cd133 2.381 . S
O141 C140 1.258 . S
O142 Cd133 2.378 . S
O142 C140 1.256 . S
O143 Cd144 2.300 . S
O143 C150 1.275 . S
Cd144 O143 2.300 . S
Cd144 O152 2.381 . S
Cd144 O153 2.378 . S
O145 Cd146 2.385 . S
O145 C150 1.255 . S
Cd146 O145 2.385 . S
Cd146 O147 2.317 . S
O147 Cd146 2.317 . S
O147 C148 1.232 . S
C148 O147 1.232 . S
C148 O149 1.218 . S
O149 C148 1.218 . S
C150 O143 1.275 . S
C150 O145 1.255 . S
C151 O152 1.258 . S
C151 O153 1.256 . S
O152 Cd144 2.381 . S
O152 C151 1.258 . S
O153 Cd144 2.378 . S
O153 C151 1.256 . S
O154 Cd155 2.300 . S
O154 C161 1.275 . S
Cd155 O154 2.300 . S
Cd155 O163 2.381 . S
Cd155 O164 2.378 . S
O156 Cd157 2.385 . S
O156 C161 1.255 . S
Cd157 O156 2.385 . S
Cd157 O158 2.317 . S
O158 Cd157 2.317 . S
O158 C159 1.232 . S
C159 O158 1.232 . S
C159 O160 1.218 . S
O160 C159 1.218 . S
C161 O154 1.275 . S
C161 O156 1.255 . S
C162 O163 1.258 . S
C162 O164 1.256 . S
O163 Cd155 2.381 . S
O163 C162 1.258 . S
O164 Cd155 2.378 . S
O164 C162 1.256 . S
O165 Cd166 2.300 . S
O165 C172 1.275 . S
Cd166 O165 2.300 . S
Cd166 O174 2.381 . S
Cd166 O175 2.378 . S
O167 Cd168 2.385 . S
O167 C172 1.255 . S
Cd168 O167 2.385 . S
Cd168 O169 2.317 . S
O169 Cd168 2.317 . S
O169 C170 1.232 . S
C170 O169 1.232 . S
C170 O171 1.218 . S
O171 C170 1.218 . S
C172 O165 1.275 . S
C172 O167 1.255 . S
C173 O174 1.258 . S
C173 O175 1.256 . S
O174 Cd166 2.381 . S
O174 C173 1.258 . S
O175 Cd166 2.378 . S
O175 C173 1.256 . S
O176 Cd177 2.300 . S
O176 C183 1.275 . S
Cd177 O176 2.300 . S
Cd177 O185 2.381 . S
Cd177 O186 2.378 . S
O178 Cd179 2.385 . S
O178 C183 1.255 . S
Cd179 O178 2.385 . S
Cd179 O180 2.317 . S
O180 Cd179 2.317 . S
O180 C181 1.232 . S
C181 O180 1.232 . S
C181 O182 1.218 . S
O182 C181 1.218 . S
C183 O176 1.275 . S
C183 O178 1.255 . S
C184 O185 1.258 . S
C184 O186 1.256 . S
O185 Cd177 2.381 . S
O185 C184 1.258 . S
O186 Cd177 2.378 . S
O186 C184 1.256 . S
O187 Cd188 2.300 . S
O187 C194 1.275 . S
Cd188 O187 2.300 . S
Cd188 O196 2.381 . S
Cd188 O197 2.378 . S
O189 Cd190 2.385 . S
O189 C194 1.255 . S
Cd190 O189 2.385 . S
Cd190 O191 2.317 . S
O191 Cd190 2.317 . S
O191 C192 1.232 . S
C192 O191 1.232 . S
C192 O193 1.218 . S
O193 C192 1.218 . S
C194 O187 1.275 . S
C194 O189 1.255 . S
C195 O196 1.258 . S
C195 O197 1.256 . S
O196 Cd188 2.381 . S
O196 C195 1.258 . S
O197 Cd188 2.378 . S
O197 C195 1.256 . S
O198 Cd199 2.300 . S
O198 C205 1.275 . S
Cd199 O198 2.300 . S
Cd199 O207 2.381 . S
Cd199 O208 2.378 . S
O200 Cd201 2.385 . S
O200 C205 1.255 . S
Cd201 O200 2.385 . S
Cd201 O202 2.317 . S
O202 Cd201 2.317 . S
O202 C203 1.232 . S
C203 O202 1.232 . S
C203 O204 1.218 . S
O204 C203 1.218 . S
C205 O198 1.275 . S
C205 O200 1.255 . S
C206 O207 1.258 . S
C206 O208 1.256 . S
O207 Cd199 2.381 . S
O207 C206 1.258 . S
O208 Cd199 2.378 . S
O208 C206 1.256 . S
O209 Cd210 2.300 . S
O209 C216 1.275 . S
Cd210 O209 2.300 . S
Cd210 O218 2.381 . S
Cd210 O219 2.378 . S
O211 Cd212 2.385 . S
O211 C216 1.255 . S
Cd212 O211 2.385 . S
Cd212 O213 2.317 . S
O213 Cd212 2.317 . S
O213 C214 1.232 . S
C214 O213 1.232 . S
C214 O215 1.218 . S
O215 C214 1.218 . S
C216 O209 1.275 . S
C216 O211 1.255 . S
C217 O218 1.258 . S
C217 O219 1.256 . S
O218 Cd210 2.381 . S
O218 C217 1.258 . S
O219 Cd210 2.378 . S
O219 C217 1.256 . S
O220 Cd221 2.300 . S
O220 C227 1.275 . S
Cd221 O220 2.300 . S
Cd221 O229 2.381 . S
Cd221 O230 2.378 . S
O222 Cd223 2.385 . S
O222 C227 1.255 . S
Cd223 O222 2.385 . S
Cd223 O224 2.317 . S
O224 Cd223 2.317 . S
O224 C225 1.232 . S
C225 O224 1.232 . S
C225 O226 1.218 . S
O226 C225 1.218 . S
C227 O220 1.275 . S
C227 O222 1.255 . S
C228 O229 1.258 . S
C228 O230 1.256 . S
O229 Cd221 2.381 . S
O229 C228 1.258 . S
O230 Cd221 2.378 . S
O230 C228 1.256 . S
O231 Cd232 2.300 . S
O231 C238 1.275 . S
Cd232 O231 2.300 . S
Cd232 O240 2.381 . S
Cd232 O241 2.378 . S
O233 Cd234 2.385 . S
O233 C238 1.255 . S
Cd234 O233 2.385 . S
Cd234 O235 2.317 . S
O235 Cd234 2.317 . S
O235 C236 1.232 . S
C236 O235 1.232 . S
C236 O237 1.218 . S
O237 C236 1.218 . S
C238 O231 1.275 . S
C238 O233 1.255 . S
C239 O240 1.258 . S
C239 O241 1.256 . S
O240 Cd232 2.381 . S
O240 C239 1.258 . S
O241 Cd232 2.378 . S
O241 C239 1.256 . S
O242 Cd243 2.300 . S
O242 C249 1.275 . S
Cd243 O242 2.300 . S
Cd243 O251 2.381 . S
Cd243 O252 2.378 . S
O244 Cd245 2.385 . S
O244 C249 1.255 . S
Cd245 O244 2.385 . S
Cd245 O246 2.317 . S
O246 Cd245 2.317 . S
O246 C247 1.232 . S
C247 O246 1.232 . S
C247 O248 1.218 . S
O248 C247 1.218 . S
C249 O242 1.275 . S
C249 O244 1.255 . S
C250 O251 1.258 . S
C250 O252 1.256 . S
O251 Cd243 2.381 . S
O251 C250 1.258 . S
O252 Cd243 2.378 . S
O252 C250 1.256 . S
O253 Cd254 2.300 . S
O253 C260 1.275 . S
Cd254 O253 2.300 . S
Cd254 O262 2.381 . S
Cd254 O263 2.378 . S
O255 Cd256 2.385 . S
O255 C260 1.255 . S
Cd256 O255 2.385 . S
Cd256 O257 2.317 . S
O257 Cd256 2.317 . S
O257 C258 1.232 . S
C258 O257 1.232 . S
C258 O259 1.218 . S
O259 C258 1.218 . S
C260 O253 1.275 . S
C260 O255 1.255 . S
C261 O262 1.258 . S
C261 O263 1.256 . S
O262 Cd254 2.381 . S
O262 C261 1.258 . S
O263 Cd254 2.378 . S
O263 C261 1.256 . S
O264 Cd265 2.300 . S
O264 C271 1.275 . S
Cd265 O264 2.300 . S
Cd265 O273 2.381 . S
Cd265 O274 2.378 . S
O266 Cd267 2.385 . S
O266 C271 1.255 . S
Cd267 O266 2.385 . S
Cd267 O268 2.317 . S
O268 Cd267 2.317 . S
O268 C269 1.232 . S
C269 O268 1.232 . S
C269 O270 1.218 . S
O270 C269 1.218 . S
C271 O264 1.275 . S
C271 O266 1.255 . S
C272 O273 1.258 . S
C272 O274 1.256 . S
O273 Cd265 2.381 . S
O273 C272 1.258 . S
O274 Cd265 2.378 . S
O274 C272 1.256 . S
O275 Cd276 2.300 . S
O275 C282 1.275 . S
Cd276 O275 2.300 . S
Cd276 O284 2.381 . S
Cd276 O285 2.378 . S
O277 Cd278 2.385 . S
O277 C282 1.255 . S
Cd278 O277 2.385 . S
Cd278 O279 2.317 . S
O279 Cd278 2.317 . S
O279 C280 1.232 . S
C280 O279 1.232 . S
C280 O281 1.218 . S
O281 C280 1.218 . S
C282 O275 1.275 . S
C282 O277 1.255 . S
C283 O284 1.258 . S
C283 O285 1.256 . S
O284 Cd276 2.381 . S
O284 C283 1.258 . S
O285 Cd276 2.378 . S
O285 C283 1.256 . S
O286 Cd287 2.300 . S
O286 C293 1.275 . S
Cd287 O286 2.300 . S
Cd287 O295 2.381 . S
Cd287 O296 2.378 . S
O288 Cd289 2.385 . S
O288 C293 1.255 . S
Cd289 O288 2.385 . S
Cd289 O290 2.317 . S
O290 Cd289 2.317 . S
O290 C291 1.232 . S
C291 O290 1.232 . S
C291 O292 1.218 . S
O292 C291 1.218 . S
C293 O286 1.275 . S
C293 O288 1.255 . S
C294 O295 1.258 . S
C294 O296 1.256 . S
O295 Cd287 2.381 . S
O295 C294 1.258 . S
O296 Cd287 2.378 . S
O296 C294 1.256 . S
O297 Cd298 2.300 . S
O297 C304 1.275 . S
Cd298 O297 2.300 . S
Cd298 O306 2.381 . S
Cd298 O307 2.378 . S
O299 Cd300 2.385 . S
O299 C304 1.255 . S
Cd300 O299 2.385 . S
Cd300 O301 2.317 . S
O301 Cd300 2.317 . S
O301 C302 1.232 . S
C302 O301 1.232 . S
C302 O303 1.218 . S
O303 C302 1.218 . S
C304 O297 1.275 . S
C304 O299 1.255 . S
C305 O306 1.258 . S
C305 O307 1.256 . S
O306 Cd298 2.381 . S
O306 C305 1.258 . S
O307 Cd298 2.378 . S
O307 C305 1.256 . S
O308 Cd309 2.300 . S
O308 C315 1.275 . S
Cd309 O308 2.300 . S
Cd309 O317 2.381 . S
Cd309 O318 2.378 . S
O310 Cd311 2.385 . S
O310 C315 1.255 . S
Cd311 O310 2.385 . S
Cd311 O312 2.317 . S
O312 Cd311 2.317 . S
O312 C313 1.232 . S
C313 O312 1.232 . S
C313 O314 1.218 . S
O314 C313 1.218 . S
C315 O308 1.275 . S
C315 O310 1.255 . S
C316 O317 1.258 . S
C316 O318 1.256 . S
O317 Cd309 2.381 . S
O317 C316 1.258 . S
O318 Cd309 2.378 . S
O318 C316 1.256 . S
O319 Cd320 2.300 . S
O319 C326 1.275 . S
Cd320 O319 2.300 . S
Cd320 O328 2.381 . S
Cd320 O329 2.378 . S
O321 Cd322 2.385 . S
O321 C326 1.255 . S
Cd322 O321 2.385 . S
Cd322 O323 2.317 . S
O323 Cd322 2.317 . S
O323 C324 1.232 . S
C324 O323 1.232 . S
C324 O325 1.218 . S
O325 C324 1.218 . S
C326 O319 1.275 . S
C326 O321 1.255 . S
C327 O328 1.258 . S
C327 O329 1.256 . S
O328 Cd320 2.381 . S
O328 C327 1.258 . S
O329 Cd320 2.378 . S
O329 C327 1.256 . S
O330 Cd331 2.300 . S
O330 C337 1.275 . S
Cd331 O330 2.300 . S
Cd331 O339 2.381 . S
Cd331 O340 2.378 . S
O332 Cd333 2.385 . S
O332 C337 1.255 . S
Cd333 O332 2.385 . S
Cd333 O334 2.317 . S
O334 Cd333 2.317 . S
O334 C335 1.232 . S
C335 O334 1.232 . S
C335 O336 1.218 . S
O336 C335 1.218 . S
C337 O330 1.275 . S
C337 O332 1.255 . S
C338 O339 1.258 . S
C338 O340 1.256 . S
O339 Cd331 2.381 . S
O339 C338 1.258 . S
O340 Cd331 2.378 . S
O340 C338 1.256 . S
O341 Cd342 2.300 . S
O341 C348 1.275 . S
Cd342 O341 2.300 . S
Cd342 O350 2.381 . S
Cd342 O351 2.378 . S
O343 Cd344 2.385 . S
O343 C348 1.255 . S
Cd344 O343 2.385 . S
Cd344 O345 2.317 . S
O345 Cd344 2.317 . S
O345 C346 1.232 . S
C346 O345 1.232 . S
C346 O347 1.218 . S
O347 C346 1.218 . S
C348 O341 1.275 . S
C348 O343 1.255 . S
C349 O350 1.258 . S
C349 O351 1.256 . S
O350 Cd342 2.381 . S
O350 C349 1.258 . S
O351 Cd342 2.378 . S
O351 C349 1.256 . S
O352 Cd353 2.300 . S
O352 C359 1.275 . S
Cd353 O352 2.300 . S
Cd353 O361 2.381 . S
Cd353 O362 2.378 . S
O354 Cd355 2.385 . S
O354 C359 1.255 . S
Cd355 O354 2.385 . S
Cd355 O356 2.317 . S
O356 Cd355 2.317 . S
O356 C357 1.232 . S
C357 O356 1.232 . S
C357 O358 1.218 . S
O358 C357 1.218 . S
C359 O352 1.275 . S
C359 O354 1.255 . S
C360 O361 1.258 . S
C360 O362 1.256 . S
O361 Cd353 2.381 . S
O361 C360 1.258 . S
O362 Cd353 2.378 . S
O362 C360 1.256 . S
O363 Cd364 2.300 . S
O363 C370 1.275 . S
Cd364 O363 2.300 . S
Cd364 O372 2.381 . S
Cd364 O373 2.378 . S
O365 Cd366 2.385 . S
O365 C370 1.255 . S
Cd366 O365 2.385 . S
Cd366 O367 2.317 . S
O367 Cd366 2.317 . S
O367 C368 1.232 . S
C368 O367 1.232 . S
C368 O369 1.218 . S
O369 C368 1.218 . S
C370 O363 1.275 . S
C370 O365 1.255 . S
C371 O372 1.258 . S
C371 O373 1.256 . S
O372 Cd364 2.381 . S
O372 C371 1.258 . S
O373 Cd364 2.378 . S
O373 C371 1.256 . S
O374 Cd375 2.300 . S
O374 C381 1.275 . S
Cd375 O374 2.300 . S
Cd375 O383 2.381 . S
Cd375 O384 2.378 . S
O376 Cd377 2.385 . S
O376 C381 1.255 . S
Cd377 O376 2.385 . S
Cd377 O378 2.317 . S
O378 Cd377 2.317 . S
O378 C379 1.232 . S
C379 O378 1.232 . S
C379 O380 1.218 . S
O380 C379 1.218 . S
C381 O374 1.275 . S
C381 O376 1.255 . S
C382 O383 1.258 . S
C382 O384 1.256 . S
O383 Cd375 2.381 . S
O383 C382 1.258 . S
O384 Cd375 2.378 . S
O384 C382 1.256 . S
O385 Cd386 2.300 . S
O385 C392 1.275 . S
Cd386 O385 2.300 . S
Cd386 O394 2.381 . S
Cd386 O395 2.378 . S
O387 Cd388 2.385 . S
O387 C392 1.255 . S
Cd388 O387 2.385 . S
Cd388 O389 2.317 . S
O389 Cd388 2.317 . S
O389 C390 1.232 . S
C390 O389 1.232 . S
C390 O391 1.218 . S
O391 C390 1.218 . S
C392 O385 1.275 . S
C392 O387 1.255 . S
C393 O394 1.258 . S
C393 O395 1.256 . S
O394 Cd386 2.381 . S
O394 C393 1.258 . S
O395 Cd386 2.378 . S
O395 C393 1.256 . S
O396 Cd397 2.300 . S
O396 C403 1.275 . S
Cd397 O396 2.300 . S
Cd397 O405 2.381 . S
Cd397 O406 2.378 . S
O398 Cd399 2.385 . S
O398 C403 1.255 . S
Cd399 O398 2.385 . S
Cd399 O400 2.317 . S
O400 Cd399 2.317 . S
O400 C401 1.232 . S
C401 O400 1.232 . S
C401 O402 1.218 . S
O402 C401 1.218 . S
C403 O396 1.275 . S
C403 O398 1.255 . S
C404 O405 1.258 . S
C404 O406 1.256 . S
O405 Cd397 2.381 . S
O405 C404 1.258 . S
O406 Cd397 2.378 . S
O406 C404 1.256 . S
O407 Cd408 2.300 . S
O407 C414 1.275 . S
Cd408 O407 2.300 . S
Cd408 O416 2.381 . S
Cd408 O417 2.378 . S
O409 Cd410 2.385 . S
O409 C414 1.255 . S
Cd410 O409 2.385 . S
Cd410 O411 2.317 . S
O411 Cd410 2.317 . S
O411 C412 1.232 . S
C412 O411 1.232 . S
C412 O413 1.218 . S
O413 C412 1.218 . S
C414 O407 1.275 . S
C414 O409 1.255 . S
C415 O416 1.258 . S
C415 O417 1.256 . S
O416 Cd408 2.381 . S
O416 C415 1.258 . S
O417 Cd408 2.378 . S
O417 C415 1.256 . S
O418 Cd419 2.300 . S
O418 C425 1.275 . S
Cd419 O418 2.300 . S
Cd419 O427 2.381 . S
Cd419 O428 2.378 . S
O420 Cd421 2.385 . S
O420 C425 1.255 . S
Cd421 O420 2.385 . S
Cd421 O422 2.317 . S
O422 Cd421 2.317 . S
O422 C423 1.232 . S
C423 O422 1.232 . S
C423 O424 1.218 . S
O424 C423 1.218 . S
C425 O418 1.275 . S
C425 O420 1.255 . S
C426 O427 1.258 . S
C426 O428 1.256 . S
O427 Cd419 2.381 . S
O427 C426 1.258 . S
O428 Cd419 2.378 . S
O428 C426 1.256 . S
O429 Cd430 2.300 . S
O429 C436 1.275 . S
Cd430 O429 2.300 . S
Cd430 O438 2.381 . S
Cd430 O439 2.378 . S
O431 Cd432 2.385 . S
O431 C436 1.255 . S
Cd432 O431 2.385 . S
Cd432 O433 2.317 . S
O433 Cd432 2.317 . S
O433 C434 1.232 . S
C434 O433 1.232 . S
C434 O435 1.218 . S
O435 C434 1.218 . S
C436 O429 1.275 . S
C436 O431 1.255 . S
C437 O438 1.258 . S
C437 O439 1.256 . S
O438 Cd430 2.381 . S
O438 C437 1.258 . S
O439 Cd430 2.378 . S
O439 C437 1.256 . S
O440 Cd441 2.300 . S
O440 C447 1.275 . S
Cd441 O440 2.300 . S
Cd441 O449 2.381 . S
Cd441 O450 2.378 . S
O442 Cd443 2.385 . S
O442 C447 1.255 . S
Cd443 O442 2.385 . S
Cd443 O444 2.317 . S
O444 Cd443 2.317 . S
O444 C445 1.232 . S
C445 O444 1.232 . S
C445 O446 1.218 . S
O446 C445 1.218 . S
C447 O440 1.275 . S
C447 O442 1.255 . S
C448 O449 1.258 . S
C448 O450 1.256 . S
O449 Cd441 2.381 . S
O449 C448 1.258 . S
O450 Cd441 2.378 . S
O450 C448 1.256 . S
O451 Cd452 2.300 . S
O451 C458 1.275 . S
Cd452 O451 2.300 . S
Cd452 O460 2.381 . S
Cd452 O461 2.378 . S
O453 Cd454 2.385 . S
O453 C458 1.255 . S
Cd454 O453 2.385 . S
Cd454 O455 2.317 . S
O455 Cd454 2.317 . S
O455 C456 1.232 . S
C456 O455 1.232 . S
C456 O457 1.218 . S
O457 C456 1.218 . S
C458 O451 1.275 . S
C458 O453 1.255 . S
C459 O460 1.258 . S
C459 O461 1.256 . S
O460 Cd452 2.381 . S
O460 C459 1.258 . S
O461 Cd452 2.378 . S
O461 C459 1.256 . S
O462 Cd463 2.300 . S
O462 C469 1.275 . S
Cd463 O462 2.300 . S
Cd463 O471 2.381 . S
Cd463 O472 2.378 . S
O464 Cd465 2.385 . S
O464 C469 1.255 . S
Cd465 O464 2.385 . S
Cd465 O466 2.317 . S
O466 Cd465 2.317 . S
O466 C467 1.232 . S
C467 O466 1.232 . S
C467 O468 1.218 . S
O468 C467 1.218 . S
C469 O462 1.275 . S
C469 O464 1.255 . S
C470 O471 1.258 . S
C470 O472 1.256 . S
O471 Cd463 2.381 . S
O471 C470 1.258 . S
O472 Cd463 2.378 . S
O472 C470 1.256 . S
O473 Cd474 2.300 . S
O473 C480 1.275 . S
Cd474 O473 2.300 . S
Cd474 O482 2.381 . S
Cd474 O483 2.378 . S
O475 Cd476 2.385 . S
O475 C480 1.255 . S
Cd476 O475 2.385 . S
Cd476 O477 2.317 . S
O477 Cd476 2.317 . S
O477 C478 1.232 . S
C478 O477 1.232 . S
C478 O479 1.218 . S
O479 C478 1.218 . S
C480 O473 1.275 . S
C480 O475 1.255 . S
C481 O482 1.258 . S
C481 O483 1.256 . S
O482 Cd474 2.381 . S
O482 C481 1.258 . S
O483 Cd474 2.378 . S
O483 C481 1.256 . S
O484 Cd485 2.300 . S
O484 C491 1.275 . S
Cd485 O484 2.300 . S
Cd485 O493 2.381 . S
Cd485 O494 2.378 . S
O486 Cd487 2.385 . S
O486 C491 1.255 . S
Cd487 O486 2.385 . S
Cd487 O488 2.317 . S
O488 Cd487 2.317 . S
O488 C489 1.232 . S
C489 O488 1.232 . S
C489 O490 1.218 . S
O490 C489 1.218 . S
C491 O484 1.275 . S
C491 O486 1.255 . S
C492 O493 1.258 . S
C492 O494 1.256 . S
O493 Cd485 2.381 . S
O493 C492 1.258 . S
O494 Cd485 2.378 . S
O494 C492 1.256 . S
O495 Cd496 2.300 . S
O495 C502 1.275 . S
Cd496 O495 2.300 . S
Cd496 O504 2.381 . S
Cd496 O505 2.378 . S
O497 Cd498 2.385 . S
O497 C502 1.255 . S
Cd498 O497 2.385 . S
Cd498 O499 2.317 . S
O499 Cd498 2.317 . S
O499 C500 1.232 . S
C500 O499 1.232 . S
C500 O501 1.218 . S
O501 C500 1.218 . S
C502 O495 1.275 . S
C502 O497 1.255 . S
C503 O504 1.258 . S
C503 O505 1.256 . S
O504 Cd496 2.381 . S
O504 C503 1.258 . S
O505 Cd496 2.378 . S
O505 C503 1.256 . S
O506 Cd507 2.300 . S
O506 C513 1.275 . S
Cd507 O506 2.300 . S
Cd507 O515 2.381 . S
Cd507 O516 2.378 . S
O508 Cd509 2.385 . S
O508 C513 1.255 . S
Cd509 O508 2.385 . S
Cd509 O510 2.317 . S
O510 Cd509 2.317 . S
O510 C511 1.232 . S
C511 O510 1.232 . S
C511 O512 1.218 . S
O512 C511 1.218 . S
C513 O506 1.275 . S
C513 O508 1.255 . S
C514 O515 1.258 . S
C514 O516 1.256 . S
O515 Cd507 2.381 . S
O515 C514 1.258 . S
O516 Cd507 2.378 . S
O516 C514 1.256 . S
O517 Cd518 2.300 . S
O517 C524 1.275 . S
Cd518 O517 2.300 . S
Cd518 O526 2.381 . S
Cd518 O527 2.378 . S
O519 Cd520 2.385 . S
O519 C524 1.255 . S
Cd520 O519 2.385 . S
Cd520 O521 2.317 . S
O521 Cd520 2.317 . S
O521 C522 1.232 . S
C522 O521 1.232 . S
C522 O523 1.218 . S
O523 C522 1.218 . S
C524 O517 1.275 . S
C524 O519 1.255 . S
C525 O526 1.258 . S
C525 O527 1.256 . S
O526 Cd518 2.381 . S
O526 C525 1.258 . S
O527 Cd518 2.378 . S
O527 C525 1.256 . S
H528 C534 0.930 . S
H529 C538 0.930 . S
H530 C543 0.929 . S
H531 C541 0.929 . S
H532 C536 0.929 . S
H533 C542 0.929 . S
C534 H528 0.930 . S
C534 C535 1.367 . S
C534 C542 1.378 . S
C535 C534 1.367 . S
C535 C543 1.433 . S
C536 H532 0.929 . S
C536 C538 1.378 . S
C536 C540 1.350 . S
C537 C540 1.463 1_655 S
C537 C542 1.350 . S
C537 N545 1.427 . S
C538 H529 0.930 . S
C538 C536 1.378 . S
C538 C539 1.367 . S
C539 C538 1.367 . S
C539 C541 1.433 . S
C540 C536 1.350 . S
C540 C537 1.463 1_455 S
C540 N544 1.427 . S
C541 H531 0.929 . S
C541 C539 1.433 . S
C541 N544 1.384 . S
C542 H533 0.929 . S
C542 C534 1.378 . S
C542 C537 1.350 . S
C543 H530 0.929 . S
C543 C535 1.433 . S
C543 N545 1.384 . S
N544 C540 1.427 . S
N544 C541 1.384 . S
N545 C537 1.427 . S
N545 C543 1.384 . S
H546 C552 0.930 . S
H547 C556 0.930 . S
H548 C561 0.929 . S
H549 C559 0.929 . S
H550 C554 0.929 1_545 S
H551 C560 0.929 1_565 S
C552 H546 0.930 . S
C552 C553 1.367 . S
C552 C560 1.378 . S
C553 C552 1.367 . S
C553 C561 1.433 . S
C554 H550 0.929 1_565 S
C554 C556 1.378 . S
C554 C558 1.350 . S
C555 C558 1.463 1_545 S
C555 C560 1.350 . S
C555 N563 1.427 . S
C556 H547 0.930 . S
C556 C554 1.378 . S
C556 C557 1.367 . S
C557 C556 1.367 . S
C557 C559 1.433 . S
C558 C554 1.350 . S
C558 C555 1.463 1_565 S
C558 N562 1.427 . S
C559 H549 0.929 . S
C559 C557 1.433 . S
C559 N562 1.384 . S
C560 H551 0.929 1_545 S
C560 C552 1.378 . S
C560 C555 1.350 . S
C561 H548 0.929 . S
C561 C553 1.433 . S
C561 N563 1.384 . S
N562 C558 1.427 . S
N562 C559 1.384 . S
N563 C555 1.427 . S
N563 C561 1.384 . S
H564 C570 0.930 . S
H565 C574 0.930 . S
H566 C579 0.929 . S
H567 C577 0.929 . S
H568 C572 0.929 . S
H569 C578 0.929 . S
C570 H564 0.930 . S
C570 C571 1.367 . S
C570 C578 1.378 . S
C571 C570 1.367 . S
C571 C579 1.433 . S
C572 H568 0.929 . S
C572 C574 1.378 . S
C572 C576 1.350 . S
C573 C576 1.463 1_655 S
C573 C578 1.350 . S
C573 N581 1.427 . S
C574 H565 0.930 . S
C574 C572 1.378 . S
C574 C575 1.367 . S
C575 C574 1.367 . S
C575 C577 1.433 . S
C576 C572 1.350 . S
C576 C573 1.463 1_455 S
C576 N580 1.427 . S
C577 H567 0.929 . S
C577 C575 1.433 . S
C577 N580 1.384 . S
C578 H569 0.929 . S
C578 C570 1.378 . S
C578 C573 1.350 . S
C579 H566 0.929 . S
C579 C571 1.433 . S
C579 N581 1.384 . S
N580 C576 1.427 . S
N580 C577 1.384 . S
N581 C573 1.427 . S
N581 C579 1.384 . S
H582 C588 0.930 . S
H583 C592 0.930 . S
H584 C597 0.929 . S
H585 C595 0.929 . S
H586 C590 0.929 . S
H587 C596 0.929 . S
C588 H582 0.930 . S
C588 C589 1.367 . S
C588 C596 1.378 . S
C589 C588 1.367 . S
C589 C597 1.433 . S
C590 H586 0.929 . S
C590 C592 1.378 . S
C590 C594 1.350 . S
C591 C594 1.463 1_545 S
C591 C596 1.350 . S
C591 N599 1.427 . S
C592 H583 0.930 . S
C592 C590 1.378 . S
C592 C593 1.367 . S
C593 C592 1.367 . S
C593 C595 1.433 . S
C594 C590 1.350 . S
C594 C591 1.463 1_565 S
C594 N598 1.427 . S
C595 H585 0.929 . S
C595 C593 1.433 . S
C595 N598 1.384 . S
C596 H587 0.929 . S
C596 C588 1.378 . S
C596 C591 1.350 . S
C597 H584 0.929 . S
C597 C589 1.433 . S
C597 N599 1.384 . S
N598 C594 1.427 . S
N598 C595 1.384 . S
N599 C591 1.427 . S
N599 C597 1.384 . S
H600 C606 0.930 . S
H601 C610 0.930 . S
H602 C615 0.929 . S
H603 C613 0.929 . S
H604 C608 0.929 . S
H605 C614 0.929 . S
C606 H600 0.930 . S
C606 C607 1.367 . S
C606 C614 1.378 . S
C607 C606 1.367 . S
C607 C615 1.433 . S
C608 H604 0.929 . S
C608 C610 1.378 . S
C608 C612 1.350 . S
C609 C612 1.463 1_565 S
C609 C614 1.350 . S
C609 N617 1.427 . S
C610 H601 0.930 . S
C610 C608 1.378 . S
C610 C611 1.367 . S
C611 C610 1.367 . S
C611 C613 1.433 . S
C612 C608 1.350 . S
C612 C609 1.463 1_545 S
C612 N616 1.427 . S
C613 H603 0.929 . S
C613 C611 1.433 . S
C613 N616 1.384 . S
C614 H605 0.929 . S
C614 C606 1.378 . S
C614 C609 1.350 . S
C615 H602 0.929 . S
C615 C607 1.433 . S
C615 N617 1.384 . S
N616 C612 1.427 . S
N616 C613 1.384 . S
N617 C609 1.427 . S
N617 C615 1.384 . S
H618 C624 0.930 . S
H619 C628 0.930 . S
H620 C633 0.929 . S
H621 C631 0.929 . S
H622 C626 0.929 . S
H623 C632 0.929 . S
C624 H618 0.930 . S
C624 C625 1.367 . S
C624 C632 1.378 . S
C625 C624 1.367 . S
C625 C633 1.433 . S
C626 H622 0.929 . S
C626 C628 1.378 . S
C626 C630 1.350 . S
C627 C630 1.463 1_455 S
C627 C632 1.350 . S
C627 N635 1.427 . S
C628 H619 0.930 . S
C628 C626 1.378 . S
C628 C629 1.367 . S
C629 C628 1.367 . S
C629 C631 1.433 . S
C630 C626 1.350 . S
C630 C627 1.463 1_655 S
C630 N634 1.427 . S
C631 H621 0.929 . S
C631 C629 1.433 . S
C631 N634 1.384 . S
C632 H623 0.929 . S
C632 C624 1.378 . S
C632 C627 1.350 . S
C633 H620 0.929 . S
C633 C625 1.433 . S
C633 N635 1.384 . S
N634 C630 1.427 . S
N634 C631 1.384 . S
N635 C627 1.427 . S
N635 C633 1.384 . S
H636 C642 0.930 . S
H637 C646 0.930 . S
H638 C651 0.929 . S
H639 C649 0.929 . S
H640 C644 0.929 . S
H641 C650 0.929 . S
C642 H636 0.930 . S
C642 C643 1.367 . S
C642 C650 1.378 . S
C643 C642 1.367 . S
C643 C651 1.433 . S
C644 H640 0.929 . S
C644 C646 1.378 . S
C644 C648 1.350 . S
C645 C648 1.463 1_565 S
C645 C650 1.350 . S
C645 N653 1.427 . S
C646 H637 0.930 . S
C646 C644 1.378 . S
C646 C647 1.367 . S
C647 C646 1.367 . S
C647 C649 1.433 . S
C648 C644 1.350 . S
C648 C645 1.463 1_545 S
C648 N652 1.427 . S
C649 H639 0.929 . S
C649 C647 1.433 . S
C649 N652 1.384 . S
C650 H641 0.929 . S
C650 C642 1.378 . S
C650 C645 1.350 . S
C651 H638 0.929 . S
C651 C643 1.433 . S
C651 N653 1.384 . S
N652 C648 1.427 . S
N652 C649 1.384 . S
N653 C645 1.427 . S
N653 C651 1.384 . S
H654 C660 0.930 . S
H655 C664 0.930 . S
H656 C669 0.929 . S
H657 C667 0.929 . S
H658 C662 0.929 . S
H659 C668 0.929 . S
C660 H654 0.930 . S
C660 C661 1.367 . S
C660 C668 1.378 . S
C661 C660 1.367 . S
C661 C669 1.433 . S
C662 H658 0.929 . S
C662 C664 1.378 . S
C662 C666 1.350 . S
C663 C666 1.463 1_455 S
C663 C668 1.350 . S
C663 N671 1.427 . S
C664 H655 0.930 . S
C664 C662 1.378 . S
C664 C665 1.367 . S
C665 C664 1.367 . S
C665 C667 1.433 . S
C666 C662 1.350 . S
C666 C663 1.463 1_655 S
C666 N670 1.427 . S
C667 H657 0.929 . S
C667 C665 1.433 . S
C667 N670 1.384 . S
C668 H659 0.929 . S
C668 C660 1.378 . S
C668 C663 1.350 . S
C669 H656 0.929 . S
C669 C661 1.433 . S
C669 N671 1.384 . S
N670 C666 1.427 . S
N670 C667 1.384 . S
N671 C663 1.427 . S
N671 C669 1.384 . S
H672 C678 0.930 . S
H673 C682 0.930 . S
H674 C687 0.929 . S
H675 C685 0.929 . S
H676 C680 0.929 . S
H677 C686 0.929 . S
C678 H672 0.930 . S
C678 C679 1.367 . S
C678 C686 1.378 . S
C679 C678 1.367 . S
C679 C687 1.433 . S
C680 H676 0.929 . S
C680 C682 1.378 . S
C680 C684 1.350 . S
C681 C684 1.463 1_556 S
C681 C686 1.350 . S
C681 N689 1.427 . S
C682 H673 0.930 . S
C682 C680 1.378 . S
C682 C683 1.367 . S
C683 C682 1.367 . S
C683 C685 1.433 . S
C684 C680 1.350 . S
C684 C681 1.463 1_554 S
C684 N688 1.427 . S
C685 H675 0.929 . S
C685 C683 1.433 . S
C685 N688 1.384 . S
C686 H677 0.929 . S
C686 C678 1.378 . S
C686 C681 1.350 . S
C687 H674 0.929 . S
C687 C679 1.433 . S
C687 N689 1.384 . S
N688 C684 1.427 . S
N688 C685 1.384 . S
N689 C681 1.427 . S
N689 C687 1.384 . S
H690 C696 0.930 . S
H691 C700 0.930 . S
H692 C705 0.929 . S
H693 C703 0.929 . S
H694 C698 0.929 . S
H695 C704 0.929 . S
C696 H690 0.930 . S
C696 C697 1.367 . S
C696 C704 1.378 . S
C697 C696 1.367 . S
C697 C705 1.433 . S
C698 H694 0.929 . S
C698 C700 1.378 . S
C698 C702 1.350 . S
C699 C702 1.463 1_556 S
C699 C704 1.350 . S
C699 N707 1.427 . S
C700 H691 0.930 . S
C700 C698 1.378 . S
C700 C701 1.367 . S
C701 C700 1.367 . S
C701 C703 1.433 . S
C702 C698 1.350 . S
C702 C699 1.463 1_554 S
C702 N706 1.427 . S
C703 H693 0.929 . S
C703 C701 1.433 . S
C703 N706 1.384 . S
C704 H695 0.929 . S
C704 C696 1.378 . S
C704 C699 1.350 . S
C705 H692 0.929 . S
C705 C697 1.433 . S
C705 N707 1.384 . S
N706 C702 1.427 . S
N706 C703 1.384 . S
N707 C699 1.427 . S
N707 C705 1.384 . S
H708 C714 0.930 . S
H709 C718 0.930 . S
H710 C723 0.929 . S
H711 C721 0.929 . S
H712 C716 0.929 . S
H713 C722 0.929 . S
C714 H708 0.930 . S
C714 C715 1.367 . S
C714 C722 1.378 . S
C715 C714 1.367 . S
C715 C723 1.433 . S
C716 H712 0.929 . S
C716 C718 1.378 . S
C716 C720 1.350 . S
C717 C720 1.463 1_554 S
C717 C722 1.350 . S
C717 N725 1.427 . S
C718 H709 0.930 . S
C718 C716 1.378 . S
C718 C719 1.367 . S
C719 C718 1.367 . S
C719 C721 1.433 . S
C720 C716 1.350 . S
C720 C717 1.463 1_556 S
C720 N724 1.427 . S
C721 H711 0.929 . S
C721 C719 1.433 . S
C721 N724 1.384 . S
C722 H713 0.929 . S
C722 C714 1.378 . S
C722 C717 1.350 . S
C723 H710 0.929 . S
C723 C715 1.433 . S
C723 N725 1.384 . S
N724 C720 1.427 . S
N724 C721 1.384 . S
N725 C717 1.427 . S
N725 C723 1.384 . S
H726 C732 0.930 . S
H727 C736 0.930 . S
H728 C741 0.929 . S
H729 C739 0.929 . S
H730 C734 0.929 . S
H731 C740 0.929 . S
C732 H726 0.930 . S
C732 C733 1.367 . S
C732 C740 1.378 . S
C733 C732 1.367 . S
C733 C741 1.433 . S
C734 H730 0.929 . S
C734 C736 1.378 . S
C734 C738 1.350 . S
C735 C738 1.463 1_554 S
C735 C740 1.350 . S
C735 N743 1.427 . S
C736 H727 0.930 . S
C736 C734 1.378 . S
C736 C737 1.367 . S
C737 C736 1.367 . S
C737 C739 1.433 . S
C738 C734 1.350 . S
C738 C735 1.463 1_556 S
C738 N742 1.427 . S
C739 H729 0.929 . S
C739 C737 1.433 . S
C739 N742 1.384 . S
C740 H731 0.929 . S
C740 C732 1.378 . S
C740 C735 1.350 . S
C741 H728 0.929 . S
C741 C733 1.433 . S
C741 N743 1.384 . S
N742 C738 1.427 . S
N742 C739 1.384 . S
N743 C735 1.427 . S
N743 C741 1.384 . S
H744 C750 0.930 . S
H745 C754 0.930 . S
H746 C759 0.929 . S
H747 C757 0.929 . S
H748 C752 0.929 . S
H749 C758 0.929 . S
C750 H744 0.930 . S
C750 C751 1.367 . S
C750 C758 1.378 . S
C751 C750 1.367 . S
C751 C759 1.433 . S
C752 H748 0.929 . S
C752 C754 1.378 . S
C752 C756 1.350 . S
C753 C756 1.463 1_565 S
C753 C758 1.350 . S
C753 N761 1.427 . S
C754 H745 0.930 . S
C754 C752 1.378 . S
C754 C755 1.367 . S
C755 C754 1.367 . S
C755 C757 1.433 . S
C756 C752 1.350 . S
C756 C753 1.463 1_545 S
C756 N760 1.427 . S
C757 H747 0.929 . S
C757 C755 1.433 . S
C757 N760 1.384 . S
C758 H749 0.929 . S
C758 C750 1.378 . S
C758 C753 1.350 . S
C759 H746 0.929 . S
C759 C751 1.433 . S
C759 N761 1.384 . S
N760 C756 1.427 . S
N760 C757 1.384 . S
N761 C753 1.427 . S
N761 C759 1.384 . S
H762 C768 0.930 . S
H763 C772 0.930 . S
H764 C777 0.929 . S
H765 C775 0.929 . S
H766 C770 0.929 . S
H767 C776 0.929 . S
C768 H762 0.930 . S
C768 C769 1.367 . S
C768 C776 1.378 . S
C769 C768 1.367 . S
C769 C777 1.433 . S
C770 H766 0.929 . S
C770 C772 1.378 . S
C770 C774 1.350 . S
C771 C774 1.463 1_455 S
C771 C776 1.350 . S
C771 N779 1.427 . S
C772 H763 0.930 . S
C772 C770 1.378 . S
C772 C773 1.367 . S
C773 C772 1.367 . S
C773 C775 1.433 . S
C774 C770 1.350 . S
C774 C771 1.463 1_655 S
C774 N778 1.427 . S
C775 H765 0.929 . S
C775 C773 1.433 . S
C775 N778 1.384 . S
C776 H767 0.929 . S
C776 C768 1.378 . S
C776 C771 1.350 . S
C777 H764 0.929 . S
C777 C769 1.433 . S
C777 N779 1.384 . S
N778 C774 1.427 . S
N778 C775 1.384 . S
N779 C771 1.427 . S
N779 C777 1.384 . S
H780 C786 0.930 . S
H781 C790 0.930 . S
H782 C795 0.929 . S
H783 C793 0.929 . S
H784 C788 0.929 . S
H785 C794 0.929 . S
C786 H780 0.930 . S
C786 C787 1.367 . S
C786 C794 1.378 1_565 S
C787 C786 1.367 . S
C787 C795 1.433 . S
C788 H784 0.929 . S
C788 C790 1.378 1_565 S
C788 C792 1.350 1_565 S
C789 C792 1.463 1_565 S
C789 C794 1.350 1_565 S
C789 N797 1.427 . S
C790 H781 0.930 . S
C790 C788 1.378 1_545 S
C790 C791 1.367 . S
C791 C790 1.367 . S
C791 C793 1.433 . S
C792 C788 1.350 1_545 S
C792 C789 1.463 1_545 S
C792 N796 1.427 . S
C793 H783 0.929 . S
C793 C791 1.433 . S
C793 N796 1.384 . S
C794 H785 0.929 . S
C794 C786 1.378 1_545 S
C794 C789 1.350 1_545 S
C795 H782 0.929 . S
C795 C787 1.433 . S
C795 N797 1.384 . S
N796 C792 1.427 . S
N796 C793 1.384 . S
N797 C789 1.427 . S
N797 C795 1.384 . S
H798 C804 0.930 . S
H799 C808 0.930 . S
H800 C813 0.929 . S
H801 C811 0.929 . S
H802 C806 0.929 . S
H803 C812 0.929 . S
C804 H798 0.930 . S
C804 C805 1.367 . S
C804 C812 1.378 . S
C805 C804 1.367 . S
C805 C813 1.433 . S
C806 H802 0.929 . S
C806 C808 1.378 . S
C806 C810 1.350 . S
C807 C810 1.463 1_455 S
C807 C812 1.350 . S
C807 N815 1.430 1_455 S
C808 H799 0.930 . S
C808 C806 1.378 . S
C808 C809 1.367 . S
C809 C808 1.367 . S
C809 C811 1.433 . S
C810 C806 1.350 . S
C810 C807 1.463 1_655 S
C810 N814 1.430 1_655 S
C811 H801 0.929 . S
C811 C809 1.433 . S
C811 N814 1.389 1_655 S
C812 H803 0.929 . S
C812 C804 1.378 . S
C812 C807 1.350 . S
C813 H800 0.929 . S
C813 C805 1.433 . S
C813 N815 1.389 1_455 S
N814 C810 1.430 1_455 S
N814 C811 1.389 1_455 S
N815 C807 1.430 1_655 S
N815 C813 1.389 1_655 S
H816 C822 0.930 . S
H817 C826 0.930 . S
H818 C831 0.929 . S
H819 C829 0.929 . S
H820 C824 0.929 . S
H821 C830 0.929 . S
C822 H816 0.930 . S
C822 C823 1.367 . S
C822 C830 1.378 . S
C823 C822 1.367 . S
C823 C831 1.433 . S
C824 H820 0.929 . S
C824 C826 1.378 . S
C824 C828 1.350 . S
C825 C828 1.463 1_556 S
C825 C830 1.350 . S
C825 N833 1.428 1_556 S
C826 H817 0.930 . S
C826 C824 1.378 . S
C826 C827 1.367 . S
C827 C826 1.367 . S
C827 C829 1.433 . S
C828 C824 1.350 . S
C828 C825 1.463 1_554 S
C828 N832 1.428 1_554 S
C829 H819 0.929 . S
C829 C827 1.433 . S
C829 N832 1.384 1_554 S
C830 H821 0.929 . S
C830 C822 1.378 . S
C830 C825 1.350 . S
C831 H818 0.929 . S
C831 C823 1.433 . S
C831 N833 1.384 1_556 S
N832 C828 1.428 1_556 S
N832 C829 1.384 1_556 S
N833 C825 1.428 1_554 S
N833 C831 1.384 1_554 S
H834 C840 0.930 . S
H835 C844 0.930 . S
H836 C849 0.929 . S
H837 C847 0.929 . S
H838 C842 0.929 . S
H839 C848 0.929 . S
C840 H834 0.930 . S
C840 C841 1.367 . S
C840 C848 1.378 . S
C841 C840 1.367 . S
C841 C849 1.433 . S
C842 H838 0.929 . S
C842 C844 1.378 . S
C842 C846 1.350 . S
C843 C846 1.463 1_556 S
C843 C848 1.350 . S
C843 N851 1.427 . S
C844 H835 0.930 . S
C844 C842 1.378 . S
C844 C845 1.367 . S
C845 C844 1.367 . S
C845 C847 1.433 . S
C846 C842 1.350 . S
C846 C843 1.463 1_554 S
C846 N850 1.427 . S
C847 H837 0.929 . S
C847 C845 1.433 . S
C847 N850 1.384 . S
C848 H839 0.929 . S
C848 C840 1.378 . S
C848 C843 1.350 . S
C849 H836 0.929 . S
C849 C841 1.433 . S
C849 N851 1.384 . S
N850 C846 1.427 . S
N850 C847 1.384 . S
N851 C843 1.427 . S
N851 C849 1.384 . S
H852 C858 0.930 . S
H853 C862 0.930 . S
H854 C867 0.929 . S
H855 C865 0.929 . S
H856 C860 0.929 . S
H857 C866 0.929 . S
C858 H852 0.930 . S
C858 C859 1.367 . S
C858 C866 1.378 . S
C859 C858 1.367 . S
C859 C867 1.433 . S
C860 H856 0.929 . S
C860 C862 1.378 . S
C860 C864 1.350 . S
C861 C864 1.463 1_556 S
C861 C866 1.350 . S
C861 N869 1.425 . S
C862 H853 0.930 . S
C862 C860 1.378 . S
C862 C863 1.367 . S
C863 C862 1.367 . S
C863 C865 1.433 . S
C864 C860 1.350 . S
C864 C861 1.463 1_554 S
C864 N868 1.425 . S
C865 H855 0.929 . S
C865 C863 1.433 . S
C865 N868 1.380 . S
C866 H857 0.929 . S
C866 C858 1.378 . S
C866 C861 1.350 . S
C867 H854 0.929 . S
C867 C859 1.433 . S
C867 N869 1.380 . S
N868 C864 1.425 . S
N868 C865 1.380 . S
N869 C861 1.425 . S
N869 C867 1.380 . S
H870 C876 0.930 . S
H871 C880 0.930 . S
H872 C885 0.929 . S
H873 C883 0.929 . S
H874 C878 0.929 . S
H875 C884 0.929 . S
C876 H870 0.930 . S
C876 C877 1.367 . S
C876 C884 1.378 . S
C877 C876 1.367 . S
C877 C885 1.433 . S
C878 H874 0.929 . S
C878 C880 1.378 . S
C878 C882 1.350 . S
C879 C882 1.463 1_554 S
C879 C884 1.350 . S
C879 N887 1.427 . S
C880 H871 0.930 . S
C880 C878 1.378 . S
C880 C881 1.367 . S
C881 C880 1.367 . S
C881 C883 1.433 . S
C882 C878 1.350 . S
C882 C879 1.463 1_556 S
C882 N886 1.427 . S
C883 H873 0.929 . S
C883 C881 1.433 . S
C883 N886 1.384 . S
C884 H875 0.929 . S
C884 C876 1.378 . S
C884 C879 1.350 . S
C885 H872 0.929 . S
C885 C877 1.433 . S
C885 N887 1.384 . S
N886 C882 1.427 . S
N886 C883 1.384 . S
N887 C879 1.427 . S
N887 C885 1.384 . S
H888 C894 0.930 . S
H889 C898 0.930 . S
H890 C903 0.929 . S
H891 C901 0.929 . S
H892 C896 0.929 . S
H893 C902 0.929 . S
C894 H888 0.930 . S
C894 C895 1.367 . S
C894 C902 1.378 . S
C895 C894 1.367 . S
C895 C903 1.433 . S
C896 H892 0.929 . S
C896 C898 1.378 . S
C896 C900 1.350 . S
C897 C900 1.463 1_455 S
C897 C902 1.350 . S
C897 N905 1.427 . S
C898 H889 0.930 . S
C898 C896 1.378 . S
C898 C899 1.367 . S
C899 C898 1.367 . S
C899 C901 1.433 . S
C900 C896 1.350 . S
C900 C897 1.463 1_655 S
C900 N904 1.427 . S
C901 H891 0.929 . S
C901 C899 1.433 . S
C901 N904 1.384 . S
C902 H893 0.929 . S
C902 C894 1.378 . S
C902 C897 1.350 . S
C903 H890 0.929 . S
C903 C895 1.433 . S
C903 N905 1.384 . S
N904 C900 1.427 . S
N904 C901 1.384 . S
N905 C897 1.427 . S
N905 C903 1.384 . S
H906 C912 0.930 . S
H907 C916 0.930 . S
H908 C921 0.929 . S
H909 C919 0.929 . S
H910 C914 0.929 . S
H911 C920 0.929 . S
C912 H906 0.930 . S
C912 C913 1.367 . S
C912 C920 1.378 . S
C913 C912 1.367 . S
C913 C921 1.433 . S
C914 H910 0.929 . S
C914 C916 1.378 . S
C914 C918 1.350 . S
C915 C918 1.463 1_455 S
C915 C920 1.350 . S
C915 N923 1.427 . S
C916 H907 0.930 . S
C916 C914 1.378 . S
C916 C917 1.367 . S
C917 C916 1.367 . S
C917 C919 1.433 . S
C918 C914 1.350 . S
C918 C915 1.463 1_655 S
C918 N922 1.427 . S
C919 H909 0.929 . S
C919 C917 1.433 . S
C919 N922 1.384 . S
C920 H911 0.929 . S
C920 C912 1.378 . S
C920 C915 1.350 . S
C921 H908 0.929 . S
C921 C913 1.433 . S
C921 N923 1.384 . S
N922 C918 1.427 . S
N922 C919 1.384 . S
N923 C915 1.427 . S
N923 C921 1.384 . S
H924 C930 0.930 . S
H925 C934 0.930 . S
H926 C939 0.929 . S
H927 C937 0.929 . S
H928 C932 0.971 . S
H929 C938 0.971 . S
C930 H924 0.930 . S
C930 C931 1.367 . S
C930 C938 1.351 1_545 S
C931 C930 1.367 . S
C931 C939 1.433 . S
C932 H928 0.971 . S
C932 C934 1.351 1_545 S
C932 C936 1.335 1_545 S
C933 C936 1.463 1_545 S
C933 C938 1.335 1_545 S
C933 N941 1.427 . S
C934 H925 0.930 . S
C934 C932 1.351 1_565 S
C934 C935 1.367 . S
C935 C934 1.367 . S
C935 C937 1.433 . S
C936 C932 1.335 1_565 S
C936 C933 1.463 1_565 S
C936 N940 1.427 . S
C937 H927 0.929 . S
C937 C935 1.433 . S
C937 N940 1.384 . S
C938 H929 0.971 . S
C938 C930 1.351 1_565 S
C938 C933 1.335 1_565 S
C939 H926 0.929 . S
C939 C931 1.433 . S
C939 N941 1.384 . S
N940 C936 1.427 . S
N940 C937 1.384 . S
N941 C933 1.427 . S
N941 C939 1.384 . S
H942 C948 0.930 . S
H943 C952 0.930 . S
H944 C957 0.929 . S
H945 C955 0.929 . S
H946 C950 0.929 . S
H947 C956 0.929 . S
C948 H942 0.930 . S
C948 C949 1.367 . S
C948 C956 1.378 . S
C949 C948 1.367 . S
C949 C957 1.433 . S
C950 H946 0.929 . S
C950 C952 1.378 . S
C950 C954 1.350 . S
C951 C954 1.463 1_565 S
C951 C956 1.350 . S
C951 N959 1.427 1_565 S
C952 H943 0.930 . S
C952 C950 1.378 . S
C952 C953 1.367 . S
C953 C952 1.367 . S
C953 C955 1.433 . S
C954 C950 1.350 . S
C954 C951 1.463 1_545 S
C954 N958 1.427 1_545 S
C955 H945 0.929 . S
C955 C953 1.433 . S
C955 N958 1.384 1_545 S
C956 H947 0.929 . S
C956 C948 1.378 . S
C956 C951 1.350 . S
C957 H944 0.929 . S
C957 C949 1.433 . S
C957 N959 1.384 1_565 S
N958 C954 1.427 1_565 S
N958 C955 1.384 1_565 S
N959 C951 1.427 1_545 S
N959 C957 1.384 1_545 S
H960 C966 0.930 . S
H961 C970 0.930 . S
H962 C975 0.929 . S
H963 C973 0.929 . S
H964 C968 0.929 . S
H965 C974 0.929 . S
C966 H960 0.930 . S
C966 C967 1.367 . S
C966 C974 1.378 . S
C967 C966 1.367 . S
C967 C975 1.433 . S
C968 H964 0.929 . S
C968 C970 1.378 . S
C968 C972 1.350 . S
C969 C972 1.463 . S
C969 C974 1.350 . S
C969 N977 1.427 . S
C970 H961 0.930 . S
C970 C968 1.378 . S
C970 C971 1.367 . S
C971 C970 1.367 . S
C971 C973 1.433 . S
C972 C968 1.350 . S
C972 C969 1.463 . S
C972 N976 1.427 . S
C973 H963 0.929 . S
C973 C971 1.433 . S
C973 N976 1.384 . S
C974 H965 0.929 . S
C974 C966 1.378 . S
C974 C969 1.350 . S
C975 H962 0.929 . S
C975 C967 1.433 . S
C975 N977 1.384 . S
N976 C972 1.427 . S
N976 C973 1.384 . S
N977 C969 1.427 . S
N977 C975 1.384 . S
H978 C984 0.930 . S
H979 C988 0.930 . S
H980 C993 0.929 . S
H981 C991 0.929 . S
H982 C986 0.929 . S
H983 C992 0.929 . S
C984 H978 0.930 . S
C984 C985 1.367 . S
C984 C992 1.378 . S
C985 C984 1.367 . S
C985 C993 1.433 . S
C986 H982 0.929 . S
C986 C988 1.378 . S
C986 C990 1.350 . S
C987 C990 1.463 . S
C987 C992 1.350 . S
C987 N995 1.427 . S
C988 H979 0.930 . S
C988 C986 1.378 . S
C988 C989 1.367 . S
C989 C988 1.367 . S
C989 C991 1.433 . S
C990 C986 1.350 . S
C990 C987 1.463 . S
C990 N994 1.427 . S
C991 H981 0.929 . S
C991 C989 1.433 . S
C991 N994 1.384 . S
C992 H983 0.929 . S
C992 C984 1.378 . S
C992 C987 1.350 . S
C993 H980 0.929 . S
C993 C985 1.433 . S
C993 N995 1.384 . S
N994 C990 1.427 . S
N994 C991 1.384 . S
N995 C987 1.427 . S
N995 C993 1.384 . S
H996 C1002 0.930 . S
H997 C1006 0.930 . S
H998 C1011 0.929 . S
H999 C1009 0.929 . S
H1000 C1004 0.929 . S
H1001 C1010 0.929 . S
C1002 H996 0.930 . S
C1002 C1003 1.367 . S
C1002 C1010 1.378 . S
C1003 C1002 1.367 . S
C1003 C1011 1.433 . S
C1004 H1000 0.929 . S
C1004 C1006 1.378 . S
C1004 C1008 1.350 . S
C1005 C1008 1.463 . S
C1005 C1010 1.350 . S
C1005 N1013 1.427 . S
C1006 H997 0.930 . S
C1006 C1004 1.378 . S
C1006 C1007 1.367 . S
C1007 C1006 1.367 . S
C1007 C1009 1.433 . S
C1008 C1004 1.350 . S
C1008 C1005 1.463 . S
C1008 N1012 1.427 . S
C1009 H999 0.929 . S
C1009 C1007 1.433 . S
C1009 N1012 1.384 . S
C1010 H1001 0.929 . S
C1010 C1002 1.378 . S
C1010 C1005 1.350 . S
C1011 H998 0.929 . S
C1011 C1003 1.433 . S
C1011 N1013 1.384 . S
N1012 C1008 1.427 . S
N1012 C1009 1.384 . S
N1013 C1005 1.427 . S
N1013 C1011 1.384 . S
H1014 C1020 0.930 . S
H1015 C1024 0.930 . S
H1016 C1029 0.929 . S
H1017 C1027 0.929 . S
H1018 C1022 0.929 . S
H1019 C1028 0.929 . S
C1020 H1014 0.930 . S
C1020 C1021 1.367 . S
C1020 C1028 1.378 . S
C1021 C1020 1.367 . S
C1021 C1029 1.433 . S
C1022 H1018 0.929 . S
C1022 C1024 1.378 . S
C1022 C1026 1.350 . S
C1023 C1026 1.463 . S
C1023 C1028 1.350 . S
C1023 N1031 1.427 . S
C1024 H1015 0.930 . S
C1024 C1022 1.378 . S
C1024 C1025 1.367 . S
C1025 C1024 1.367 . S
C1025 C1027 1.433 . S
C1026 C1022 1.350 . S
C1026 C1023 1.463 . S
C1026 N1030 1.427 . S
C1027 H1017 0.929 . S
C1027 C1025 1.433 . S
C1027 N1030 1.384 . S
C1028 H1019 0.929 . S
C1028 C1020 1.378 . S
C1028 C1023 1.350 . S
C1029 H1016 0.929 . S
C1029 C1021 1.433 . S
C1029 N1031 1.384 . S
N1030 C1026 1.427 . S
N1030 C1027 1.384 . S
N1031 C1023 1.427 . S
N1031 C1029 1.384 . S
H1032 C1038 0.930 . S
H1033 C1042 0.930 . S
H1034 C1047 0.929 . S
H1035 C1045 0.929 . S
H1036 C1040 0.929 . S
H1037 C1046 0.929 . S
C1038 H1032 0.930 . S
C1038 C1039 1.367 . S
C1038 C1046 1.378 . S
C1039 C1038 1.367 . S
C1039 C1047 1.433 . S
C1040 H1036 0.929 . S
C1040 C1042 1.378 . S
C1040 C1044 1.350 . S
C1041 C1044 1.463 . S
C1041 C1046 1.350 . S
C1041 N1049 1.427 . S
C1042 H1033 0.930 . S
C1042 C1040 1.378 . S
C1042 C1043 1.367 . S
C1043 C1042 1.367 . S
C1043 C1045 1.433 . S
C1044 C1040 1.350 . S
C1044 C1041 1.463 . S
C1044 N1048 1.427 . S
C1045 H1035 0.929 . S
C1045 C1043 1.433 . S
C1045 N1048 1.384 . S
C1046 H1037 0.929 . S
C1046 C1038 1.378 . S
C1046 C1041 1.350 . S
C1047 H1034 0.929 . S
C1047 C1039 1.433 . S
C1047 N1049 1.384 . S
N1048 C1044 1.427 . S
N1048 C1045 1.384 . S
N1049 C1041 1.427 . S
N1049 C1047 1.384 . S
H1050 C1056 0.930 . S
H1051 C1060 0.930 . S
H1052 C1065 0.929 . S
H1053 C1063 0.929 . S
H1054 C1058 0.929 . S
H1055 C1064 0.929 . S
C1056 H1050 0.930 . S
C1056 C1057 1.367 . S
C1056 C1064 1.378 . S
C1057 C1056 1.367 . S
C1057 C1065 1.433 . S
C1058 H1054 0.929 . S
C1058 C1060 1.378 . S
C1058 C1062 1.350 . S
C1059 C1062 1.463 . S
C1059 C1064 1.350 . S
C1059 N1067 1.427 . S
C1060 H1051 0.930 . S
C1060 C1058 1.378 . S
C1060 C1061 1.367 . S
C1061 C1060 1.367 . S
C1061 C1063 1.433 . S
C1062 C1058 1.350 . S
C1062 C1059 1.463 . S
C1062 N1066 1.427 . S
C1063 H1053 0.929 . S
C1063 C1061 1.433 . S
C1063 N1066 1.384 . S
C1064 H1055 0.929 . S
C1064 C1056 1.378 . S
C1064 C1059 1.350 . S
C1065 H1052 0.929 . S
C1065 C1057 1.433 . S
C1065 N1067 1.384 . S
N1066 C1062 1.427 . S
N1066 C1063 1.384 . S
N1067 C1059 1.427 . S
N1067 C1065 1.384 . S
H1068 C1074 0.930 . S
H1069 C1078 0.930 . S
H1070 C1083 0.929 . S
H1071 C1081 0.929 . S
H1072 C1076 0.929 . S
H1073 C1082 0.929 . S
C1074 H1068 0.930 . S
C1074 C1075 1.367 . S
C1074 C1082 1.378 . S
C1075 C1074 1.367 . S
C1075 C1083 1.433 . S
C1076 H1072 0.929 . S
C1076 C1078 1.378 . S
C1076 C1080 1.350 . S
C1077 C1080 1.463 . S
C1077 C1082 1.350 . S
C1077 N1085 1.427 . S
C1078 H1069 0.930 . S
C1078 C1076 1.378 . S
C1078 C1079 1.367 . S
C1079 C1078 1.367 . S
C1079 C1081 1.433 . S
C1080 C1076 1.350 . S
C1080 C1077 1.463 . S
C1080 N1084 1.427 . S
C1081 H1071 0.929 . S
C1081 C1079 1.433 . S
C1081 N1084 1.384 . S
C1082 H1073 0.929 . S
C1082 C1074 1.378 . S
C1082 C1077 1.350 . S
C1083 H1070 0.929 . S
C1083 C1075 1.433 . S
C1083 N1085 1.384 . S
N1084 C1080 1.427 . S
N1084 C1081 1.384 . S
N1085 C1077 1.427 . S
N1085 C1083 1.384 . S
H1086 C1092 0.930 . S
H1087 C1096 0.930 . S
H1088 C1101 0.929 . S
H1089 C1099 0.929 . S
H1090 C1094 0.929 . S
H1091 C1100 0.929 . S
C1092 H1086 0.930 . S
C1092 C1093 1.367 . S
C1092 C1100 1.378 . S
C1093 C1092 1.367 . S
C1093 C1101 1.433 . S
C1094 H1090 0.929 . S
C1094 C1096 1.378 . S
C1094 C1098 1.350 . S
C1095 C1098 1.463 . S
C1095 C1100 1.350 . S
C1095 N1103 1.427 . S
C1096 H1087 0.930 . S
C1096 C1094 1.378 . S
C1096 C1097 1.367 . S
C1097 C1096 1.367 . S
C1097 C1099 1.433 . S
C1098 C1094 1.350 . S
C1098 C1095 1.463 . S
C1098 N1102 1.427 . S
C1099 H1089 0.929 . S
C1099 C1097 1.433 . S
C1099 N1102 1.384 . S
C1100 H1091 0.929 . S
C1100 C1092 1.378 . S
C1100 C1095 1.350 . S
C1101 H1088 0.929 . S
C1101 C1093 1.433 . S
C1101 N1103 1.384 . S
N1102 C1098 1.427 . S
N1102 C1099 1.384 . S
N1103 C1095 1.427 . S
N1103 C1101 1.384 . S
H1104 C1110 0.930 . S
H1105 C1114 0.930 . S
H1106 C1119 0.929 . S
H1107 C1117 0.929 . S
H1108 C1112 0.929 . S
H1109 C1118 0.929 . S
C1110 H1104 0.930 . S
C1110 C1111 1.367 . S
C1110 C1118 1.378 . S
C1111 C1110 1.367 . S
C1111 C1119 1.433 . S
C1112 H1108 0.929 . S
C1112 C1114 1.378 . S
C1112 C1116 1.350 . S
C1113 C1116 1.463 . S
C1113 C1118 1.350 . S
C1113 N1121 1.427 . S
C1114 H1105 0.930 . S
C1114 C1112 1.378 . S
C1114 C1115 1.367 . S
C1115 C1114 1.367 . S
C1115 C1117 1.433 . S
C1116 C1112 1.350 . S
C1116 C1113 1.463 . S
C1116 N1120 1.427 . S
C1117 H1107 0.929 . S
C1117 C1115 1.433 . S
C1117 N1120 1.384 . S
C1118 H1109 0.929 . S
C1118 C1110 1.378 . S
C1118 C1113 1.350 . S
C1119 H1106 0.929 . S
C1119 C1111 1.433 . S
C1119 N1121 1.384 . S
N1120 C1116 1.427 . S
N1120 C1117 1.384 . S
N1121 C1113 1.427 . S
N1121 C1119 1.384 . S
H1122 C1128 0.930 . S
H1123 C1132 0.930 . S
H1124 C1137 0.929 . S
H1125 C1135 0.929 . S
H1126 C1130 0.929 . S
H1127 C1136 0.929 . S
C1128 H1122 0.930 . S
C1128 C1129 1.367 . S
C1128 C1136 1.378 . S
C1129 C1128 1.367 . S
C1129 C1137 1.433 . S
C1130 H1126 0.929 . S
C1130 C1132 1.378 . S
C1130 C1134 1.350 . S
C1131 C1134 1.463 . S
C1131 C1136 1.350 . S
C1131 N1139 1.427 . S
C1132 H1123 0.930 . S
C1132 C1130 1.378 . S
C1132 C1133 1.367 . S
C1133 C1132 1.367 . S
C1133 C1135 1.433 . S
C1134 C1130 1.350 . S
C1134 C1131 1.463 . S
C1134 N1138 1.427 . S
C1135 H1125 0.929 . S
C1135 C1133 1.433 . S
C1135 N1138 1.384 . S
C1136 H1127 0.929 . S
C1136 C1128 1.378 . S
C1136 C1131 1.350 . S
C1137 H1124 0.929 . S
C1137 C1129 1.433 . S
C1137 N1139 1.384 . S
N1138 C1134 1.427 . S
N1138 C1135 1.384 . S
N1139 C1131 1.427 . S
N1139 C1137 1.384 . S
H1140 C1146 0.930 . S
H1141 C1150 0.930 . S
H1142 C1155 0.929 . S
H1143 C1153 0.929 . S
H1144 C1148 0.929 . S
H1145 C1154 0.929 . S
C1146 H1140 0.930 . S
C1146 C1147 1.367 . S
C1146 C1154 1.378 . S
C1147 C1146 1.367 . S
C1147 C1155 1.433 . S
C1148 H1144 0.929 . S
C1148 C1150 1.378 . S
C1148 C1152 1.350 . S
C1149 C1152 1.463 . S
C1149 C1154 1.350 . S
C1149 N1157 1.427 . S
C1150 H1141 0.930 . S
C1150 C1148 1.378 . S
C1150 C1151 1.367 . S
C1151 C1150 1.367 . S
C1151 C1153 1.433 . S
C1152 C1148 1.350 . S
C1152 C1149 1.463 . S
C1152 N1156 1.427 . S
C1153 H1143 0.929 . S
C1153 C1151 1.433 . S
C1153 N1156 1.384 . S
C1154 H1145 0.929 . S
C1154 C1146 1.378 . S
C1154 C1149 1.350 . S
C1155 H1142 0.929 . S
C1155 C1147 1.433 . S
C1155 N1157 1.384 . S
N1156 C1152 1.427 . S
N1156 C1153 1.384 . S
N1157 C1149 1.427 . S
N1157 C1155 1.384 . S
H1158 C1164 0.930 . S
H1159 C1168 0.930 . S
H1160 C1173 0.929 . S
H1161 C1171 0.929 . S
H1162 C1166 0.929 . S
H1163 C1172 0.929 . S
C1164 H1158 0.930 . S
C1164 C1165 1.367 . S
C1164 C1172 1.378 . S
C1165 C1164 1.367 . S
C1165 C1173 1.433 . S
C1166 H1162 0.929 . S
C1166 C1168 1.378 . S
C1166 C1170 1.350 . S
C1167 C1170 1.463 . S
C1167 C1172 1.350 . S
C1167 N1175 1.427 . S
C1168 H1159 0.930 . S
C1168 C1166 1.378 . S
C1168 C1169 1.367 . S
C1169 C1168 1.367 . S
C1169 C1171 1.433 . S
C1170 C1166 1.350 . S
C1170 C1167 1.463 . S
C1170 N1174 1.427 . S
C1171 H1161 0.929 . S
C1171 C1169 1.433 . S
C1171 N1174 1.384 . S
C1172 H1163 0.929 . S
C1172 C1164 1.378 . S
C1172 C1167 1.350 . S
C1173 H1160 0.929 . S
C1173 C1165 1.433 . S
C1173 N1175 1.384 . S
N1174 C1170 1.427 . S
N1174 C1171 1.384 . S
N1175 C1167 1.427 . S
N1175 C1173 1.384 . S
H1176 C1182 0.930 . S
H1177 C1186 0.930 . S
H1178 C1191 0.929 . S
H1179 C1189 0.929 . S
H1180 C1184 0.929 . S
H1181 C1190 0.929 . S
C1182 H1176 0.930 . S
C1182 C1183 1.367 . S
C1182 C1190 1.378 . S
C1183 C1182 1.367 . S
C1183 C1191 1.433 . S
C1184 H1180 0.929 . S
C1184 C1186 1.378 . S
C1184 C1188 1.350 . S
C1185 C1188 1.463 . S
C1185 C1190 1.350 . S
C1185 N1193 1.427 . S
C1186 H1177 0.930 . S
C1186 C1184 1.378 . S
C1186 C1187 1.367 . S
C1187 C1186 1.367 . S
C1187 C1189 1.433 . S
C1188 C1184 1.350 . S
C1188 C1185 1.463 . S
C1188 N1192 1.427 . S
C1189 H1179 0.929 . S
C1189 C1187 1.433 . S
C1189 N1192 1.384 . S
C1190 H1181 0.929 . S
C1190 C1182 1.378 . S
C1190 C1185 1.350 . S
C1191 H1178 0.929 . S
C1191 C1183 1.433 . S
C1191 N1193 1.384 . S
N1192 C1188 1.427 . S
N1192 C1189 1.384 . S
N1193 C1185 1.427 . S
N1193 C1191 1.384 . S
H1194 C1200 0.930 . S
H1195 C1204 0.930 . S
H1196 C1209 0.929 . S
H1197 C1207 0.929 . S
H1198 C1202 0.929 . S
H1199 C1208 0.929 . S
C1200 H1194 0.930 . S
C1200 C1201 1.367 . S
C1200 C1208 1.378 . S
C1201 C1200 1.367 . S
C1201 C1209 1.433 . S
C1202 H1198 0.929 . S
C1202 C1204 1.378 . S
C1202 C1206 1.350 . S
C1203 C1206 1.463 . S
C1203 C1208 1.350 . S
C1203 N1211 1.427 . S
C1204 H1195 0.930 . S
C1204 C1202 1.378 . S
C1204 C1205 1.367 . S
C1205 C1204 1.367 . S
C1205 C1207 1.433 . S
C1206 C1202 1.350 . S
C1206 C1203 1.463 . S
C1206 N1210 1.427 . S
C1207 H1197 0.929 . S
C1207 C1205 1.433 . S
C1207 N1210 1.384 . S
C1208 H1199 0.929 . S
C1208 C1200 1.378 . S
C1208 C1203 1.350 . S
C1209 H1196 0.929 . S
C1209 C1201 1.433 . S
C1209 N1211 1.384 . S
N1210 C1206 1.427 . S
N1210 C1207 1.384 . S
N1211 C1203 1.427 . S
N1211 C1209 1.384 . S
H1212 C1218 0.930 . S
H1213 C1222 0.930 . S
H1214 C1227 0.929 . S
H1215 C1225 0.929 . S
H1216 C1220 0.929 . S
H1217 C1226 0.929 . S
C1218 H1212 0.930 . S
C1218 C1219 1.367 . S
C1218 C1226 1.378 . S
C1219 C1218 1.367 . S
C1219 C1227 1.433 . S
C1220 H1216 0.929 . S
C1220 C1222 1.378 . S
C1220 C1224 1.350 . S
C1221 C1224 1.463 . S
C1221 C1226 1.350 . S
C1221 N1229 1.427 . S
C1222 H1213 0.930 . S
C1222 C1220 1.378 . S
C1222 C1223 1.367 . S
C1223 C1222 1.367 . S
C1223 C1225 1.433 . S
C1224 C1220 1.350 . S
C1224 C1221 1.463 . S
C1224 N1228 1.427 . S
C1225 H1215 0.929 . S
C1225 C1223 1.433 . S
C1225 N1228 1.384 . S
C1226 H1217 0.929 . S
C1226 C1218 1.378 . S
C1226 C1221 1.350 . S
C1227 H1214 0.929 . S
C1227 C1219 1.433 . S
C1227 N1229 1.384 . S
N1228 C1224 1.427 . S
N1228 C1225 1.384 . S
N1229 C1221 1.427 . S
N1229 C1227 1.384 . S
H1230 C1236 0.930 . S
H1231 C1240 0.930 . S
H1232 C1245 0.929 . S
H1233 C1243 0.929 . S
H1234 C1238 0.929 . S
H1235 C1244 0.929 . S
C1236 H1230 0.930 . S
C1236 C1237 1.367 . S
C1236 C1244 1.378 . S
C1237 C1236 1.367 . S
C1237 C1245 1.433 . S
C1238 H1234 0.929 . S
C1238 C1240 1.378 . S
C1238 C1242 1.350 . S
C1239 C1242 1.463 . S
C1239 C1244 1.350 . S
C1239 N1247 1.427 . S
C1240 H1231 0.930 . S
C1240 C1238 1.378 . S
C1240 C1241 1.367 . S
C1241 C1240 1.367 . S
C1241 C1243 1.433 . S
C1242 C1238 1.350 . S
C1242 C1239 1.463 . S
C1242 N1246 1.427 . S
C1243 H1233 0.929 . S
C1243 C1241 1.433 . S
C1243 N1246 1.384 . S
C1244 H1235 0.929 . S
C1244 C1236 1.378 . S
C1244 C1239 1.350 . S
C1245 H1232 0.929 . S
C1245 C1237 1.433 . S
C1245 N1247 1.384 . S
N1246 C1242 1.427 . S
N1246 C1243 1.384 . S
N1247 C1239 1.427 . S
N1247 C1245 1.384 . S
H1248 C1254 0.930 . S
H1249 C1258 0.930 . S
H1250 C1263 0.929 . S
H1251 C1261 0.929 . S
H1252 C1256 0.929 . S
H1253 C1262 0.929 . S
C1254 H1248 0.930 . S
C1254 C1255 1.367 . S
C1254 C1262 1.378 . S
C1255 C1254 1.367 . S
C1255 C1263 1.433 . S
C1256 H1252 0.929 . S
C1256 C1258 1.378 . S
C1256 C1260 1.350 . S
C1257 C1260 1.463 . S
C1257 C1262 1.350 . S
C1257 N1265 1.427 . S
C1258 H1249 0.930 . S
C1258 C1256 1.378 . S
C1258 C1259 1.367 . S
C1259 C1258 1.367 . S
C1259 C1261 1.433 . S
C1260 C1256 1.350 . S
C1260 C1257 1.463 . S
C1260 N1264 1.427 . S
C1261 H1251 0.929 . S
C1261 C1259 1.433 . S
C1261 N1264 1.384 . S
C1262 H1253 0.929 . S
C1262 C1254 1.378 . S
C1262 C1257 1.350 . S
C1263 H1250 0.929 . S
C1263 C1255 1.433 . S
C1263 N1265 1.384 . S
N1264 C1260 1.427 . S
N1264 C1261 1.384 . S
N1265 C1257 1.427 . S
N1265 C1263 1.384 . S
H1266 C1272 0.930 . S
H1267 C1276 0.930 . S
H1268 C1281 0.929 . S
H1269 C1279 0.929 . S
H1270 C1274 0.929 . S
H1271 C1280 0.929 . S
C1272 H1266 0.930 . S
C1272 C1273 1.367 . S
C1272 C1280 1.378 . S
C1273 C1272 1.367 . S
C1273 C1281 1.433 . S
C1274 H1270 0.929 . S
C1274 C1276 1.378 . S
C1274 C1278 1.350 . S
C1275 C1278 1.463 . S
C1275 C1280 1.350 . S
C1275 N1283 1.427 . S
C1276 H1267 0.930 . S
C1276 C1274 1.378 . S
C1276 C1277 1.367 . S
C1277 C1276 1.367 . S
C1277 C1279 1.433 . S
C1278 C1274 1.350 . S
C1278 C1275 1.463 . S
C1278 N1282 1.427 . S
C1279 H1269 0.929 . S
C1279 C1277 1.433 . S
C1279 N1282 1.384 . S
C1280 H1271 0.929 . S
C1280 C1272 1.378 . S
C1280 C1275 1.350 . S
C1281 H1268 0.929 . S
C1281 C1273 1.433 . S
C1281 N1283 1.384 . S
N1282 C1278 1.427 . S
N1282 C1279 1.384 . S
N1283 C1275 1.427 . S
N1283 C1281 1.384 . S
H1284 C1290 0.930 . S
H1285 C1294 0.930 . S
H1286 C1299 0.929 . S
H1287 C1297 0.929 . S
H1288 C1292 0.929 . S
H1289 C1298 0.929 . S
C1290 H1284 0.930 . S
C1290 C1291 1.367 . S
C1290 C1298 1.378 . S
C1291 C1290 1.367 . S
C1291 C1299 1.433 . S
C1292 H1288 0.929 . S
C1292 C1294 1.378 . S
C1292 C1296 1.350 . S
C1293 C1296 1.463 . S
C1293 C1298 1.350 . S
C1293 N1301 1.427 . S
C1294 H1285 0.930 . S
C1294 C1292 1.378 . S
C1294 C1295 1.367 . S
C1295 C1294 1.367 . S
C1295 C1297 1.433 . S
C1296 C1292 1.350 . S
C1296 C1293 1.463 . S
C1296 N1300 1.427 . S
C1297 H1287 0.929 . S
C1297 C1295 1.433 . S
C1297 N1300 1.384 . S
C1298 H1289 0.929 . S
C1298 C1290 1.378 . S
C1298 C1293 1.350 . S
C1299 H1286 0.929 . S
C1299 C1291 1.433 . S
C1299 N1301 1.384 . S
N1300 C1296 1.427 . S
N1300 C1297 1.384 . S
N1301 C1293 1.427 . S
N1301 C1299 1.384 . S
H1302 C1308 0.930 . S
H1303 C1312 0.930 . S
H1304 C1317 0.929 . S
H1305 C1315 0.929 . S
H1306 C1310 0.929 . S
H1307 C1316 0.929 . S
C1308 H1302 0.930 . S
C1308 C1309 1.367 . S
C1308 C1316 1.378 . S
C1309 C1308 1.367 . S
C1309 C1317 1.433 . S
C1310 H1306 0.929 . S
C1310 C1312 1.378 . S
C1310 C1314 1.350 . S
C1311 C1314 1.463 . S
C1311 C1316 1.350 . S
C1311 N1319 1.427 . S
C1312 H1303 0.930 . S
C1312 C1310 1.378 . S
C1312 C1313 1.367 . S
C1313 C1312 1.367 . S
C1313 C1315 1.433 . S
C1314 C1310 1.350 . S
C1314 C1311 1.463 . S
C1314 N1318 1.427 . S
C1315 H1305 0.929 . S
C1315 C1313 1.433 . S
C1315 N1318 1.384 . S
C1316 H1307 0.929 . S
C1316 C1308 1.378 . S
C1316 C1311 1.350 . S
C1317 H1304 0.929 . S
C1317 C1309 1.433 . S
C1317 N1319 1.384 . S
N1318 C1314 1.427 . S
N1318 C1315 1.384 . S
N1319 C1311 1.427 . S
N1319 C1317 1.384 . S
H1320 C1326 0.930 . S
H1321 C1330 0.930 . S
H1322 C1335 0.929 . S
H1323 C1333 0.929 . S
H1324 C1328 0.929 . S
H1325 C1334 0.929 . S
C1326 H1320 0.930 . S
C1326 C1327 1.367 . S
C1326 C1334 1.378 . S
C1327 C1326 1.367 . S
C1327 C1335 1.433 . S
C1328 H1324 0.929 . S
C1328 C1330 1.378 . S
C1328 C1332 1.350 . S
C1329 C1332 1.463 . S
C1329 C1334 1.350 . S
C1329 N1337 1.427 . S
C1330 H1321 0.930 . S
C1330 C1328 1.378 . S
C1330 C1331 1.367 . S
C1331 C1330 1.367 . S
C1331 C1333 1.433 . S
C1332 C1328 1.350 . S
C1332 C1329 1.463 . S
C1332 N1336 1.427 . S
C1333 H1323 0.929 . S
C1333 C1331 1.433 . S
C1333 N1336 1.384 . S
C1334 H1325 0.929 . S
C1334 C1326 1.378 . S
C1334 C1329 1.350 . S
C1335 H1322 0.929 . S
C1335 C1327 1.433 . S
C1335 N1337 1.384 . S
N1336 C1332 1.427 . S
N1336 C1333 1.384 . S
N1337 C1329 1.427 . S
N1337 C1335 1.384 . S
H1338 C1344 0.930 . S
H1339 C1348 0.930 . S
H1340 C1353 0.929 . S
H1341 C1351 0.929 . S
H1342 C1346 0.929 . S
H1343 C1352 0.929 . S
C1344 H1338 0.930 . S
C1344 C1345 1.367 . S
C1344 C1352 1.378 . S
C1345 C1344 1.367 . S
C1345 C1353 1.433 . S
C1346 H1342 0.929 . S
C1346 C1348 1.378 . S
C1346 C1350 1.350 . S
C1347 C1350 1.463 . S
C1347 C1352 1.350 . S
C1347 N1355 1.427 . S
C1348 H1339 0.930 . S
C1348 C1346 1.378 . S
C1348 C1349 1.367 . S
C1349 C1348 1.367 . S
C1349 C1351 1.433 . S
C1350 C1346 1.350 . S
C1350 C1347 1.463 . S
C1350 N1354 1.427 . S
C1351 H1341 0.929 . S
C1351 C1349 1.433 . S
C1351 N1354 1.384 . S
C1352 H1343 0.929 . S
C1352 C1344 1.378 . S
C1352 C1347 1.350 . S
C1353 H1340 0.929 . S
C1353 C1345 1.433 . S
C1353 N1355 1.384 . S
N1354 C1350 1.427 . S
N1354 C1351 1.384 . S
N1355 C1347 1.427 . S
N1355 C1353 1.384 . S
H1356 C1362 0.930 . S
H1357 C1366 0.930 . S
H1358 C1371 0.929 . S
H1359 C1369 0.929 . S
H1360 C1364 0.929 . S
H1361 C1370 0.929 . S
C1362 H1356 0.930 . S
C1362 C1363 1.367 . S
C1362 C1370 1.378 . S
C1363 C1362 1.367 . S
C1363 C1371 1.433 . S
C1364 H1360 0.929 . S
C1364 C1366 1.378 . S
C1364 C1368 1.350 . S
C1365 C1368 1.463 . S
C1365 C1370 1.350 . S
C1365 N1373 1.427 . S
C1366 H1357 0.930 . S
C1366 C1364 1.378 . S
C1366 C1367 1.367 . S
C1367 C1366 1.367 . S
C1367 C1369 1.433 . S
C1368 C1364 1.350 . S
C1368 C1365 1.463 . S
C1368 N1372 1.427 . S
C1369 H1359 0.929 . S
C1369 C1367 1.433 . S
C1369 N1372 1.384 . S
C1370 H1361 0.929 . S
C1370 C1362 1.378 . S
C1370 C1365 1.350 . S
C1371 H1358 0.929 . S
C1371 C1363 1.433 . S
C1371 N1373 1.384 . S
N1372 C1368 1.427 . S
N1372 C1369 1.384 . S
N1373 C1365 1.427 . S
N1373 C1371 1.384 . S
H1374 C1380 0.930 . S
H1375 C1384 0.930 . S
H1376 C1389 0.929 . S
H1377 C1387 0.929 . S
H1378 C1382 0.929 . S
H1379 C1388 0.929 . S
C1380 H1374 0.930 . S
C1380 C1381 1.367 . S
C1380 C1388 1.378 . S
C1381 C1380 1.367 . S
C1381 C1389 1.433 . S
C1382 H1378 0.929 . S
C1382 C1384 1.378 . S
C1382 C1386 1.350 . S
C1383 C1386 1.463 . S
C1383 C1388 1.350 . S
C1383 N1391 1.427 . S
C1384 H1375 0.930 . S
C1384 C1382 1.378 . S
C1384 C1385 1.367 . S
C1385 C1384 1.367 . S
C1385 C1387 1.433 . S
C1386 C1382 1.350 . S
C1386 C1383 1.463 . S
C1386 N1390 1.427 . S
C1387 H1377 0.929 . S
C1387 C1385 1.433 . S
C1387 N1390 1.384 . S
C1388 H1379 0.929 . S
C1388 C1380 1.378 . S
C1388 C1383 1.350 . S
C1389 H1376 0.929 . S
C1389 C1381 1.433 . S
C1389 N1391 1.384 . S
N1390 C1386 1.427 . S
N1390 C1387 1.384 . S
N1391 C1383 1.427 . S
N1391 C1389 1.384 . S
H1392 C1398 0.930 . S
H1393 C1402 0.930 . S
H1394 C1407 0.929 . S
H1395 C1405 0.929 . S
H1396 C1400 0.929 . S
H1397 C1406 0.929 . S
C1398 H1392 0.930 . S
C1398 C1399 1.367 . S
C1398 C1406 1.378 . S
C1399 C1398 1.367 . S
C1399 C1407 1.433 . S
C1400 H1396 0.929 . S
C1400 C1402 1.378 . S
C1400 C1404 1.350 . S
C1401 C1404 1.463 . S
C1401 C1406 1.350 . S
C1401 N1409 1.427 . S
C1402 H1393 0.930 . S
C1402 C1400 1.378 . S
C1402 C1403 1.367 . S
C1403 C1402 1.367 . S
C1403 C1405 1.433 . S
C1404 C1400 1.350 . S
C1404 C1401 1.463 . S
C1404 N1408 1.427 . S
C1405 H1395 0.929 . S
C1405 C1403 1.433 . S
C1405 N1408 1.384 . S
C1406 H1397 0.929 . S
C1406 C1398 1.378 . S
C1406 C1401 1.350 . S
C1407 H1394 0.929 . S
C1407 C1399 1.433 . S
C1407 N1409 1.384 . S
N1408 C1404 1.427 . S
N1408 C1405 1.384 . S
N1409 C1401 1.427 . S
N1409 C1407 1.384 . S
H1410 C1416 0.930 . S
H1411 C1420 0.930 . S
H1412 C1425 0.929 . S
H1413 C1423 0.929 . S
H1414 C1418 0.929 . S
H1415 C1424 0.929 . S
C1416 H1410 0.930 . S
C1416 C1417 1.367 . S
C1416 C1424 1.378 . S
C1417 C1416 1.367 . S
C1417 C1425 1.433 . S
C1418 H1414 0.929 . S
C1418 C1420 1.378 . S
C1418 C1422 1.350 . S
C1419 C1422 1.463 . S
C1419 C1424 1.350 . S
C1419 N1427 1.427 . S
C1420 H1411 0.930 . S
C1420 C1418 1.378 . S
C1420 C1421 1.367 . S
C1421 C1420 1.367 . S
C1421 C1423 1.433 . S
C1422 C1418 1.350 . S
C1422 C1419 1.463 . S
C1422 N1426 1.427 . S
C1423 H1413 0.929 . S
C1423 C1421 1.433 . S
C1423 N1426 1.384 . S
C1424 H1415 0.929 . S
C1424 C1416 1.378 . S
C1424 C1419 1.350 . S
C1425 H1412 0.929 . S
C1425 C1417 1.433 . S
C1425 N1427 1.384 . S
N1426 C1422 1.427 . S
N1426 C1423 1.384 . S
N1427 C1419 1.427 . S
N1427 C1425 1.384 . S
H1428 C1434 0.930 . S
H1429 C1438 0.930 . S
H1430 C1443 0.929 . S
H1431 C1441 0.929 . S
H1432 C1436 0.929 . S
H1433 C1442 0.929 . S
C1434 H1428 0.930 . S
C1434 C1435 1.367 . S
C1434 C1442 1.378 . S
C1435 C1434 1.367 . S
C1435 C1443 1.433 . S
C1436 H1432 0.929 . S
C1436 C1438 1.378 . S
C1436 C1440 1.350 . S
C1437 C1440 1.463 . S
C1437 C1442 1.350 . S
C1437 N1445 1.427 . S
C1438 H1429 0.930 . S
C1438 C1436 1.378 . S
C1438 C1439 1.367 . S
C1439 C1438 1.367 . S
C1439 C1441 1.433 . S
C1440 C1436 1.350 . S
C1440 C1437 1.463 . S
C1440 N1444 1.427 . S
C1441 H1431 0.929 . S
C1441 C1439 1.433 . S
C1441 N1444 1.384 . S
C1442 H1433 0.929 . S
C1442 C1434 1.378 . S
C1442 C1437 1.350 . S
C1443 H1430 0.929 . S
C1443 C1435 1.433 . S
C1443 N1445 1.384 . S
N1444 C1440 1.427 . S
N1444 C1441 1.384 . S
N1445 C1437 1.427 . S
N1445 C1443 1.384 . S
H1446 C1452 0.930 . S
H1447 C1456 0.930 . S
H1448 C1461 0.929 . S
H1449 C1459 0.929 . S
H1450 C1454 0.929 . S
H1451 C1460 0.929 . S
C1452 H1446 0.930 . S
C1452 C1453 1.367 . S
C1452 C1460 1.378 . S
C1453 C1452 1.367 . S
C1453 C1461 1.433 . S
C1454 H1450 0.929 . S
C1454 C1456 1.378 . S
C1454 C1458 1.350 . S
C1455 C1458 1.463 . S
C1455 C1460 1.350 . S
C1455 N1463 1.427 . S
C1456 H1447 0.930 . S
C1456 C1454 1.378 . S
C1456 C1457 1.367 . S
C1457 C1456 1.367 . S
C1457 C1459 1.433 . S
C1458 C1454 1.350 . S
C1458 C1455 1.463 . S
C1458 N1462 1.427 . S
C1459 H1449 0.929 . S
C1459 C1457 1.433 . S
C1459 N1462 1.384 . S
C1460 H1451 0.929 . S
C1460 C1452 1.378 . S
C1460 C1455 1.350 . S
C1461 H1448 0.929 . S
C1461 C1453 1.433 . S
C1461 N1463 1.384 . S
N1462 C1458 1.427 . S
N1462 C1459 1.384 . S
N1463 C1455 1.427 . S
N1463 C1461 1.384 . S
H1464 C1470 0.930 . S
H1465 C1474 0.930 . S
H1466 C1479 0.929 . S
H1467 C1477 0.929 . S
H1468 C1472 0.929 . S
H1469 C1478 0.929 . S
C1470 H1464 0.930 . S
C1470 C1471 1.367 . S
C1470 C1478 1.378 . S
C1471 C1470 1.367 . S
C1471 C1479 1.433 . S
C1472 H1468 0.929 . S
C1472 C1474 1.378 . S
C1472 C1476 1.350 . S
C1473 C1476 1.463 . S
C1473 C1478 1.350 . S
C1473 N1481 1.427 . S
C1474 H1465 0.930 . S
C1474 C1472 1.378 . S
C1474 C1475 1.367 . S
C1475 C1474 1.367 . S
C1475 C1477 1.433 . S
C1476 C1472 1.350 . S
C1476 C1473 1.463 . S
C1476 N1480 1.427 . S
C1477 H1467 0.929 . S
C1477 C1475 1.433 . S
C1477 N1480 1.384 . S
C1478 H1469 0.929 . S
C1478 C1470 1.378 . S
C1478 C1473 1.350 . S
C1479 H1466 0.929 . S
C1479 C1471 1.433 . S
C1479 N1481 1.384 . S
N1480 C1476 1.427 . S
N1480 C1477 1.384 . S
N1481 C1473 1.427 . S
N1481 C1479 1.384 . S
H1482 C1488 0.930 . S
H1483 C1492 0.930 . S
H1484 C1497 0.929 . S
H1485 C1495 0.929 . S
H1486 C1490 0.929 . S
H1487 C1496 0.929 . S
C1488 H1482 0.930 . S
C1488 C1489 1.367 . S
C1488 C1496 1.378 . S
C1489 C1488 1.367 . S
C1489 C1497 1.433 . S
C1490 H1486 0.929 . S
C1490 C1492 1.378 . S
C1490 C1494 1.350 . S
C1491 C1494 1.463 . S
C1491 C1496 1.350 . S
C1491 N1499 1.427 . S
C1492 H1483 0.930 . S
C1492 C1490 1.378 . S
C1492 C1493 1.367 . S
C1493 C1492 1.367 . S
C1493 C1495 1.433 . S
C1494 C1490 1.350 . S
C1494 C1491 1.463 . S
C1494 N1498 1.427 . S
C1495 H1485 0.929 . S
C1495 C1493 1.433 . S
C1495 N1498 1.384 . S
C1496 H1487 0.929 . S
C1496 C1488 1.378 . S
C1496 C1491 1.350 . S
C1497 H1484 0.929 . S
C1497 C1489 1.433 . S
C1497 N1499 1.384 . S
N1498 C1494 1.427 . S
N1498 C1495 1.384 . S
N1499 C1491 1.427 . S
N1499 C1497 1.384 . S
H1500 C1506 0.930 . S
H1501 C1510 0.930 . S
H1502 C1515 0.929 . S
H1503 C1513 0.929 . S
H1504 C1508 0.929 . S
H1505 C1514 0.929 . S
C1506 H1500 0.930 . S
C1506 C1507 1.367 . S
C1506 C1514 1.378 . S
C1507 C1506 1.367 . S
C1507 C1515 1.433 . S
C1508 H1504 0.929 . S
C1508 C1510 1.378 . S
C1508 C1512 1.350 . S
C1509 C1512 1.463 . S
C1509 C1514 1.350 . S
C1509 N1517 1.427 . S
C1510 H1501 0.930 . S
C1510 C1508 1.378 . S
C1510 C1511 1.367 . S
C1511 C1510 1.367 . S
C1511 C1513 1.433 . S
C1512 C1508 1.350 . S
C1512 C1509 1.463 . S
C1512 N1516 1.427 . S
C1513 H1503 0.929 . S
C1513 C1511 1.433 . S
C1513 N1516 1.384 . S
C1514 H1505 0.929 . S
C1514 C1506 1.378 . S
C1514 C1509 1.350 . S
C1515 H1502 0.929 . S
C1515 C1507 1.433 . S
C1515 N1517 1.384 . S
N1516 C1512 1.427 . S
N1516 C1513 1.384 . S
N1517 C1509 1.427 . S
N1517 C1515 1.384 . S
H1518 C1524 0.930 . S
H1519 C1528 0.930 . S
H1520 C1533 0.929 . S
H1521 C1531 0.929 . S
H1522 C1526 0.929 . S
H1523 C1532 0.929 . S
C1524 H1518 0.930 . S
C1524 C1525 1.367 . S
C1524 C1532 1.378 . S
C1525 C1524 1.367 . S
C1525 C1533 1.433 . S
C1526 H1522 0.929 . S
C1526 C1528 1.378 . S
C1526 C1530 1.350 . S
C1527 C1530 1.463 . S
C1527 C1532 1.350 . S
C1527 N1535 1.427 . S
C1528 H1519 0.930 . S
C1528 C1526 1.378 . S
C1528 C1529 1.367 . S
C1529 C1528 1.367 . S
C1529 C1531 1.433 . S
C1530 C1526 1.350 . S
C1530 C1527 1.463 . S
C1530 N1534 1.427 . S
C1531 H1521 0.929 . S
C1531 C1529 1.433 . S
C1531 N1534 1.384 . S
C1532 H1523 0.929 . S
C1532 C1524 1.378 . S
C1532 C1527 1.350 . S
C1533 H1520 0.929 . S
C1533 C1525 1.433 . S
C1533 N1535 1.384 . S
N1534 C1530 1.427 . S
N1534 C1531 1.384 . S
N1535 C1527 1.427 . S
N1535 C1533 1.384 . S
H1536 C1542 0.930 . S
H1537 C1546 0.930 . S
H1538 C1551 0.929 . S
H1539 C1549 0.929 . S
H1540 C1544 0.929 . S
H1541 C1550 0.929 . S
C1542 H1536 0.930 . S
C1542 C1543 1.367 . S
C1542 C1550 1.378 . S
C1543 C1542 1.367 . S
C1543 C1551 1.433 . S
C1544 H1540 0.929 . S
C1544 C1546 1.378 . S
C1544 C1548 1.350 . S
C1545 C1548 1.463 . S
C1545 C1550 1.350 . S
C1545 N1553 1.427 . S
C1546 H1537 0.930 . S
C1546 C1544 1.378 . S
C1546 C1547 1.367 . S
C1547 C1546 1.367 . S
C1547 C1549 1.433 . S
C1548 C1544 1.350 . S
C1548 C1545 1.463 . S
C1548 N1552 1.427 . S
C1549 H1539 0.929 . S
C1549 C1547 1.433 . S
C1549 N1552 1.384 . S
C1550 H1541 0.929 . S
C1550 C1542 1.378 . S
C1550 C1545 1.350 . S
C1551 H1538 0.929 . S
C1551 C1543 1.433 . S
C1551 N1553 1.384 . S
N1552 C1548 1.427 . S
N1552 C1549 1.384 . S
N1553 C1545 1.427 . S
N1553 C1551 1.384 . S
H1554 C1560 0.930 . S
H1555 C1564 0.930 . S
H1556 C1569 0.929 . S
H1557 C1567 0.929 . S
H1558 C1562 0.929 . S
H1559 C1568 0.929 . S
C1560 H1554 0.930 . S
C1560 C1561 1.367 . S
C1560 C1568 1.378 . S
C1561 C1560 1.367 . S
C1561 C1569 1.433 . S
C1562 H1558 0.929 . S
C1562 C1564 1.378 . S
C1562 C1566 1.350 . S
C1563 C1566 1.463 . S
C1563 C1568 1.350 . S
C1563 N1571 1.427 . S
C1564 H1555 0.930 . S
C1564 C1562 1.378 . S
C1564 C1565 1.367 . S
C1565 C1564 1.367 . S
C1565 C1567 1.433 . S
C1566 C1562 1.350 . S
C1566 C1563 1.463 . S
C1566 N1570 1.427 . S
C1567 H1557 0.929 . S
C1567 C1565 1.433 . S
C1567 N1570 1.384 . S
C1568 H1559 0.929 . S
C1568 C1560 1.378 . S
C1568 C1563 1.350 . S
C1569 H1556 0.929 . S
C1569 C1561 1.433 . S
C1569 N1571 1.384 . S
N1570 C1566 1.427 . S
N1570 C1567 1.384 . S
N1571 C1563 1.427 . S
N1571 C1569 1.384 . S
H1572 C1578 0.930 . S
H1573 C1582 0.930 . S
H1574 C1587 0.929 . S
H1575 C1585 0.929 . S
H1576 C1580 0.929 . S
H1577 C1586 0.929 . S
C1578 H1572 0.930 . S
C1578 C1579 1.367 . S
C1578 C1586 1.378 . S
C1579 C1578 1.367 . S
C1579 C1587 1.433 . S
C1580 H1576 0.929 . S
C1580 C1582 1.378 . S
C1580 C1584 1.350 . S
C1581 C1584 1.463 . S
C1581 C1586 1.350 . S
C1581 N1589 1.427 . S
C1582 H1573 0.930 . S
C1582 C1580 1.378 . S
C1582 C1583 1.367 . S
C1583 C1582 1.367 . S
C1583 C1585 1.433 . S
C1584 C1580 1.350 . S
C1584 C1581 1.463 . S
C1584 N1588 1.427 . S
C1585 H1575 0.929 . S
C1585 C1583 1.433 . S
C1585 N1588 1.384 . S
C1586 H1577 0.929 . S
C1586 C1578 1.378 . S
C1586 C1581 1.350 . S
C1587 H1574 0.929 . S
C1587 C1579 1.433 . S
C1587 N1589 1.384 . S
N1588 C1584 1.427 . S
N1588 C1585 1.384 . S
N1589 C1581 1.427 . S
N1589 C1587 1.384 . S
H1590 C1596 0.930 . S
H1591 C1600 0.930 . S
H1592 C1605 0.929 . S
H1593 C1603 0.929 . S
H1594 C1598 0.929 . S
H1595 C1604 0.929 . S
C1596 H1590 0.930 . S
C1596 C1597 1.367 . S
C1596 C1604 1.378 . S
C1597 C1596 1.367 . S
C1597 C1605 1.433 . S
C1598 H1594 0.929 . S
C1598 C1600 1.378 . S
C1598 C1602 1.350 . S
C1599 C1602 1.463 . S
C1599 C1604 1.350 . S
C1599 N1607 1.427 . S
C1600 H1591 0.930 . S
C1600 C1598 1.378 . S
C1600 C1601 1.367 . S
C1601 C1600 1.367 . S
C1601 C1603 1.433 . S
C1602 C1598 1.350 . S
C1602 C1599 1.463 . S
C1602 N1606 1.427 . S
C1603 H1593 0.929 . S
C1603 C1601 1.433 . S
C1603 N1606 1.384 . S
C1604 H1595 0.929 . S
C1604 C1596 1.378 . S
C1604 C1599 1.350 . S
C1605 H1592 0.929 . S
C1605 C1597 1.433 . S
C1605 N1607 1.384 . S
N1606 C1602 1.427 . S
N1606 C1603 1.384 . S
N1607 C1599 1.427 . S
N1607 C1605 1.384 . S
H1608 C1614 0.930 . S
H1609 C1618 0.930 . S
H1610 C1623 0.929 . S
H1611 C1621 0.929 . S
H1612 C1616 0.892 1_545 S
H1613 C1622 0.892 1_565 S
C1614 H1608 0.930 . S
C1614 C1615 1.367 . S
C1614 C1622 1.378 . S
C1615 C1614 1.367 . S
C1615 C1623 1.433 . S
C1616 H1612 0.892 1_565 S
C1616 C1618 1.378 . S
C1616 C1620 1.350 . S
C1617 C1620 1.463 1_545 S
C1617 C1622 1.350 . S
C1617 N1625 1.427 . S
C1618 H1609 0.930 . S
C1618 C1616 1.378 . S
C1618 C1619 1.367 . S
C1619 C1618 1.367 . S
C1619 C1621 1.433 . S
C1620 C1616 1.350 . S
C1620 C1617 1.463 1_565 S
C1620 N1624 1.427 . S
C1621 H1611 0.929 . S
C1621 C1619 1.433 . S
C1621 N1624 1.384 . S
C1622 H1613 0.892 1_545 S
C1622 C1614 1.378 . S
C1622 C1617 1.350 . S
C1623 H1610 0.929 . S
C1623 C1615 1.433 . S
C1623 N1625 1.384 . S
N1624 C1620 1.427 . S
N1624 C1621 1.384 . S
N1625 C1617 1.427 . S
N1625 C1623 1.384 . S
H1626 C1632 0.973 . S
H1627 C1636 0.973 . S
H1628 C1641 0.929 . S
H1629 C1639 0.929 . S
H1630 C1634 0.929 . S
H1631 C1640 0.929 . S
C1632 H1626 0.973 . S
C1632 C1633 1.367 . S
C1632 C1640 1.378 1_455 S
C1633 C1632 1.367 . S
C1633 C1641 1.433 . S
C1634 H1630 0.929 . S
C1634 C1636 1.378 1_455 S
C1634 C1638 1.350 1_455 S
C1635 C1638 1.463 1_455 S
C1635 C1640 1.350 1_455 S
C1635 N1643 1.427 . S
C1636 H1627 0.973 . S
C1636 C1634 1.378 1_655 S
C1636 C1637 1.367 . S
C1637 C1636 1.367 . S
C1637 C1639 1.433 . S
C1638 C1634 1.350 1_655 S
C1638 C1635 1.463 1_655 S
C1638 N1642 1.427 . S
C1639 H1629 0.929 . S
C1639 C1637 1.433 . S
C1639 N1642 1.384 . S
C1640 H1631 0.929 . S
C1640 C1632 1.378 1_655 S
C1640 C1635 1.350 1_655 S
C1641 H1628 0.929 . S
C1641 C1633 1.433 . S
C1641 N1643 1.384 . S
N1642 C1638 1.427 . S
N1642 C1639 1.384 . S
N1643 C1635 1.427 . S
N1643 C1641 1.384 . S
H1644 C1650 0.930 . S
H1645 C1654 0.930 . S
H1646 C1659 0.929 . S
H1647 C1657 0.929 . S
H1648 C1652 0.929 . S
H1649 C1658 0.929 . S
C1650 H1644 0.930 . S
C1650 C1651 1.367 . S
C1650 C1658 1.378 1_545 S
C1651 C1650 1.367 . S
C1651 C1659 1.433 . S
C1652 H1648 0.929 . S
C1652 C1654 1.378 1_545 S
C1652 C1656 1.350 1_545 S
C1653 C1656 1.463 1_545 S
C1653 C1658 1.350 1_545 S
C1653 N1661 1.427 . S
C1654 H1645 0.930 . S
C1654 C1652 1.378 1_565 S
C1654 C1655 1.367 . S
C1655 C1654 1.367 . S
C1655 C1657 1.433 . S
C1656 C1652 1.350 1_565 S
C1656 C1653 1.463 1_565 S
C1656 N1660 1.427 . S
C1657 H1647 0.929 . S
C1657 C1655 1.433 . S
C1657 N1660 1.384 . S
C1658 H1649 0.929 . S
C1658 C1650 1.378 1_565 S
C1658 C1653 1.350 1_565 S
C1659 H1646 0.929 . S
C1659 C1651 1.433 . S
C1659 N1661 1.384 . S
N1660 C1656 1.427 . S
N1660 C1657 1.384 . S
N1661 C1653 1.427 . S
N1661 C1659 1.384 . S
H1662 C1668 0.930 . S
H1663 C1672 0.930 . S
H1664 C1677 0.929 . S
H1665 C1675 0.929 . S
H1666 C1670 0.936 . S
H1667 C1676 0.936 . S
C1668 H1662 0.930 . S
C1668 C1669 1.367 . S
C1668 C1676 1.373 1_455 S
C1669 C1668 1.367 . S
C1669 C1677 1.433 . S
C1670 H1666 0.936 . S
C1670 C1672 1.373 1_455 S
C1670 C1674 1.347 1_455 S
C1671 C1674 1.463 1_455 S
C1671 C1676 1.347 1_455 S
C1671 N1679 1.427 . S
C1672 H1663 0.930 . S
C1672 C1670 1.373 1_655 S
C1672 C1673 1.367 . S
C1673 C1672 1.367 . S
C1673 C1675 1.433 . S
C1674 C1670 1.347 1_655 S
C1674 C1671 1.463 1_655 S
C1674 N1678 1.427 . S
C1675 H1665 0.929 . S
C1675 C1673 1.433 . S
C1675 N1678 1.384 . S
C1676 H1667 0.936 . S
C1676 C1668 1.373 1_655 S
C1676 C1671 1.347 1_655 S
C1677 H1664 0.929 . S
C1677 C1669 1.433 . S
C1677 N1679 1.384 . S
N1678 C1674 1.427 . S
N1678 C1675 1.384 . S
N1679 C1671 1.427 . S
N1679 C1677 1.384 . S
H1680 C1686 0.930 . S
H1681 C1690 0.930 . S
H1682 C1695 0.929 . S
H1683 C1693 0.929 . S
H1684 C1688 0.929 . S
H1685 C1694 0.929 . S
C1686 H1680 0.930 . S
C1686 C1687 1.367 . S
C1686 C1694 1.378 . S
C1687 C1686 1.367 . S
C1687 C1695 1.433 . S
C1688 H1684 0.929 . S
C1688 C1690 1.378 . S
C1688 C1692 1.350 . S
C1689 C1692 1.463 1_545 S
C1689 C1694 1.350 . S
C1689 N1697 1.427 . S
C1690 H1681 0.930 . S
C1690 C1688 1.378 . S
C1690 C1691 1.367 . S
C1691 C1690 1.367 . S
C1691 C1693 1.433 . S
C1692 C1688 1.350 . S
C1692 C1689 1.463 1_565 S
C1692 N1696 1.427 . S
C1693 H1683 0.929 . S
C1693 C1691 1.433 . S
C1693 N1696 1.384 . S
C1694 H1685 0.929 . S
C1694 C1686 1.378 . S
C1694 C1689 1.350 . S
C1695 H1682 0.929 . S
C1695 C1687 1.433 . S
C1695 N1697 1.384 . S
N1696 C1692 1.427 . S
N1696 C1693 1.384 . S
N1697 C1689 1.427 . S
N1697 C1695 1.384 . S
H1698 C1704 0.930 . S
H1699 C1708 0.930 . S
H1700 C1713 0.929 . S
H1701 C1711 0.929 . S
H1702 C1706 0.929 . S
H1703 C1712 0.929 . S
C1704 H1698 0.930 . S
C1704 C1705 1.367 . S
C1704 C1712 1.378 . S
C1705 C1704 1.367 . S
C1705 C1713 1.433 . S
C1706 H1702 0.929 . S
C1706 C1708 1.378 . S
C1706 C1710 1.350 . S
C1707 C1710 1.463 1_655 S
C1707 C1712 1.350 . S
C1707 N1715 1.427 . S
C1708 H1699 0.930 . S
C1708 C1706 1.378 . S
C1708 C1709 1.367 . S
C1709 C1708 1.367 . S
C1709 C1711 1.433 . S
C1710 C1706 1.350 . S
C1710 C1707 1.463 1_455 S
C1710 N1714 1.427 . S
C1711 H1701 0.929 . S
C1711 C1709 1.433 . S
C1711 N1714 1.384 . S
C1712 H1703 0.929 . S
C1712 C1704 1.378 . S
C1712 C1707 1.350 . S
C1713 H1700 0.929 . S
C1713 C1705 1.433 . S
C1713 N1715 1.384 . S
N1714 C1710 1.427 . S
N1714 C1711 1.384 . S
N1715 C1707 1.427 . S
N1715 C1713 1.384 . S
H1716 C1722 0.930 . S
H1717 C1726 0.930 . S
H1718 C1731 0.929 . S
H1719 C1729 0.929 . S
H1720 C1724 0.929 . S
H1721 C1730 0.929 . S
C1722 H1716 0.930 . S
C1722 C1723 1.367 . S
C1722 C1730 1.378 . S
C1723 C1722 1.367 . S
C1723 C1731 1.433 . S
C1724 H1720 0.929 . S
C1724 C1726 1.378 . S
C1724 C1728 1.350 . S
C1725 C1728 1.463 1_545 S
C1725 C1730 1.350 . S
C1725 N1733 1.427 . S
C1726 H1717 0.930 . S
C1726 C1724 1.378 . S
C1726 C1727 1.367 . S
C1727 C1726 1.367 . S
C1727 C1729 1.433 . S
C1728 C1724 1.350 . S
C1728 C1725 1.463 1_565 S
C1728 N1732 1.427 . S
C1729 H1719 0.929 . S
C1729 C1727 1.433 . S
C1729 N1732 1.384 . S
C1730 H1721 0.929 . S
C1730 C1722 1.378 . S
C1730 C1725 1.350 . S
C1731 H1718 0.929 . S
C1731 C1723 1.433 . S
C1731 N1733 1.384 . S
N1732 C1728 1.427 . S
N1732 C1729 1.384 . S
N1733 C1725 1.427 . S
N1733 C1731 1.384 . S
H1734 C1740 0.930 . S
H1735 C1744 0.930 . S
H1736 C1749 0.929 . S
H1737 C1747 0.929 . S
H1738 C1742 0.929 . S
H1739 C1748 0.929 . S
C1740 H1734 0.930 . S
C1740 C1741 1.367 . S
C1740 C1748 1.378 . S
C1741 C1740 1.367 . S
C1741 C1749 1.433 . S
C1742 H1738 0.929 . S
C1742 C1744 1.378 . S
C1742 C1746 1.350 . S
C1743 C1746 1.463 1_655 S
C1743 C1748 1.350 . S
C1743 N1751 1.427 . S
C1744 H1735 0.930 . S
C1744 C1742 1.378 . S
C1744 C1745 1.367 . S
C1745 C1744 1.367 . S
C1745 C1747 1.433 . S
C1746 C1742 1.350 . S
C1746 C1743 1.463 1_455 S
C1746 N1750 1.427 . S
C1747 H1737 0.929 . S
C1747 C1745 1.433 . S
C1747 N1750 1.384 . S
C1748 H1739 0.929 . S
C1748 C1740 1.378 . S
C1748 C1743 1.350 . S
C1749 H1736 0.929 . S
C1749 C1741 1.433 . S
C1749 N1751 1.384 . S
N1750 C1746 1.427 . S
N1750 C1747 1.384 . S
N1751 C1743 1.427 . S
N1751 C1749 1.384 . S
H1752 C1758 0.930 . S
H1753 C1762 0.930 . S
H1754 C1767 0.929 . S
H1755 C1765 0.929 . S
H1756 C1760 0.929 . S
H1757 C1766 0.929 . S
C1758 H1752 0.930 . S
C1758 C1759 1.367 . S
C1758 C1766 1.378 1_556 S
C1759 C1758 1.367 . S
C1759 C1767 1.433 . S
C1760 H1756 0.929 . S
C1760 C1762 1.378 1_556 S
C1760 C1764 1.350 1_556 S
C1761 C1764 1.463 1_556 S
C1761 C1766 1.350 1_556 S
C1761 N1769 1.427 . S
C1762 H1753 0.930 . S
C1762 C1760 1.378 1_554 S
C1762 C1763 1.367 . S
C1763 C1762 1.367 . S
C1763 C1765 1.433 . S
C1764 C1760 1.350 1_554 S
C1764 C1761 1.463 1_554 S
C1764 N1768 1.427 . S
C1765 H1755 0.929 . S
C1765 C1763 1.433 . S
C1765 N1768 1.384 . S
C1766 H1757 0.929 . S
C1766 C1758 1.378 1_554 S
C1766 C1761 1.350 1_554 S
C1767 H1754 0.929 . S
C1767 C1759 1.433 . S
C1767 N1769 1.384 . S
N1768 C1764 1.427 . S
N1768 C1765 1.384 . S
N1769 C1761 1.427 . S
N1769 C1767 1.384 . S
H1770 C1776 0.930 . S
H1771 C1780 0.930 . S
H1772 C1785 0.929 . S
H1773 C1783 0.929 . S
H1774 C1778 0.929 . S
H1775 C1784 0.929 . S
C1776 H1770 0.930 . S
C1776 C1777 1.367 . S
C1776 C1784 1.378 . S
C1777 C1776 1.367 . S
C1777 C1785 1.433 . S
C1778 H1774 0.929 . S
C1778 C1780 1.378 . S
C1778 C1782 1.350 . S
C1779 C1782 1.463 1_554 S
C1779 C1784 1.350 . S
C1779 N1787 1.427 . S
C1780 H1771 0.930 . S
C1780 C1778 1.378 . S
C1780 C1781 1.367 . S
C1781 C1780 1.367 . S
C1781 C1783 1.433 . S
C1782 C1778 1.350 . S
C1782 C1779 1.463 1_556 S
C1782 N1786 1.427 . S
C1783 H1773 0.929 . S
C1783 C1781 1.433 . S
C1783 N1786 1.384 . S
C1784 H1775 0.929 . S
C1784 C1776 1.378 . S
C1784 C1779 1.350 . S
C1785 H1772 0.929 . S
C1785 C1777 1.433 . S
C1785 N1787 1.384 . S
N1786 C1782 1.427 . S
N1786 C1783 1.384 . S
N1787 C1779 1.427 . S
N1787 C1785 1.384 . S
H1788 C1794 0.930 . S
H1789 C1798 0.930 . S
H1790 C1803 0.929 . S
H1791 C1801 0.929 . S
H1792 C1796 0.929 . S
H1793 C1802 0.929 . S
C1794 H1788 0.930 . S
C1794 C1795 1.367 . S
C1794 C1802 1.378 . S
C1795 C1794 1.367 . S
C1795 C1803 1.433 . S
C1796 H1792 0.929 . S
C1796 C1798 1.378 . S
C1796 C1800 1.350 . S
C1797 C1800 1.463 1_556 S
C1797 C1802 1.350 . S
C1797 N1805 1.440 . S
C1798 H1789 0.930 . S
C1798 C1796 1.378 . S
C1798 C1799 1.367 . S
C1799 C1798 1.367 . S
C1799 C1801 1.433 . S
C1800 C1796 1.350 . S
C1800 C1797 1.463 1_554 S
C1800 N1804 1.440 . S
C1801 H1791 0.929 . S
C1801 C1799 1.433 . S
C1801 N1804 1.410 . S
C1802 H1793 0.929 . S
C1802 C1794 1.378 . S
C1802 C1797 1.350 . S
C1803 H1790 0.929 . S
C1803 C1795 1.433 . S
C1803 N1805 1.410 . S
N1804 C1800 1.440 . S
N1804 C1801 1.410 . S
N1805 C1797 1.440 . S
N1805 C1803 1.410 . S
H1806 C1812 0.930 . S
H1807 C1816 0.930 . S
H1808 C1821 0.929 . S
H1809 C1819 0.929 . S
H1810 C1814 0.929 . S
H1811 C1820 0.929 . S
C1812 H1806 0.930 . S
C1812 C1813 1.367 . S
C1812 C1820 1.378 1_554 S
C1813 C1812 1.367 . S
C1813 C1821 1.433 . S
C1814 H1810 0.929 . S
C1814 C1816 1.378 1_554 S
C1814 C1818 1.350 1_554 S
C1815 C1818 1.463 1_554 S
C1815 C1820 1.350 1_554 S
C1815 N1823 1.427 . S
C1816 H1807 0.930 . S
C1816 C1814 1.378 1_556 S
C1816 C1817 1.367 . S
C1817 C1816 1.367 . S
C1817 C1819 1.433 . S
C1818 C1814 1.350 1_556 S
C1818 C1815 1.463 1_556 S
C1818 N1822 1.427 . S
C1819 H1809 0.929 . S
C1819 C1817 1.433 . S
C1819 N1822 1.384 . S
C1820 H1811 0.929 . S
C1820 C1812 1.378 1_556 S
C1820 C1815 1.350 1_556 S
C1821 H1808 0.929 . S
C1821 C1813 1.433 . S
C1821 N1823 1.384 . S
N1822 C1818 1.427 . S
N1822 C1819 1.384 . S
N1823 C1815 1.427 . S
N1823 C1821 1.384 . S
C535 C29 1.446 . S
C539 C7 1.445 . S
C553 C18 1.464 . S
C557 C40 1.464 . S
C571 C73 1.453 . S
C575 C51 1.452 . S
C589 C62 1.453 . S
C593 C84 1.454 . S
C607 C139 1.444 . S
C611 C95 1.444 . S
C625 C150 1.444 . S
C629 C106 1.444 . S
C643 C117 1.445 . S
C647 C161 1.445 . S
C661 C128 1.447 . S
C665 C172 1.447 . S
C679 C216 1.456 . S
C683 C183 1.457 . S
C697 C194 1.454 . S
C701 C238 1.453 . S
C715 C249 1.458 . S
C719 C205 1.457 . S
C733 C260 1.445 . S
C737 C227 1.445 . S
C751 C271 1.454 . S
C755 C293 1.455 . S
C769 C282 1.453 . S
C773 C304 1.454 . S
C787 C337 1.444 . S
C791 C315 1.444 . S
C805 C348 1.462 . S
C809 C326 1.462 . S
C823 C359 1.462 . S
C827 C403 1.462 . S
C841 C370 1.455 . S
C845 C414 1.456 . S
C859 C381 1.462 . S
C863 C425 1.462 . S
C877 C436 1.452 . S
C881 C392 1.453 . S
C895 C480 1.460 . S
C899 C447 1.461 . S
C913 C502 1.457 . S
C917 C458 1.457 . S
C931 C513 1.445 . S
C935 C469 1.446 . S
C949 C524 1.464 . S
C953 C491 1.464 . S
C967 C5 1.210 . S
C971 C346 1.235 . S
C985 C313 1.232 . S
C989 C16 1.209 . S
C1003 C27 1.233 . S
C1007 C324 1.210 . S
C1021 C38 1.235 . S
C1025 C335 1.238 . S
C1039 C280 1.210 . S
C1043 C49 1.225 . S
C1057 C291 1.210 . S
C1061 C60 1.234 . S
C1075 C71 1.209 . S
C1079 C302 1.232 . S
C1093 C82 1.228 . S
C1097 C269 1.242 . S
C1111 C489 1.236 . S
C1115 C93 1.211 . S
C1129 C104 1.223 . S
C1133 C456 1.243 . S
C1147 C467 1.234 . S
C1151 C115 1.210 . S
C1165 C126 1.242 . S
C1169 C478 1.219 . S
C1183 C137 1.242 . S
C1187 C522 1.217 . S
C1201 C148 1.242 . S
C1205 C500 1.217 . S
C1219 C159 1.232 . S
C1223 C511 1.209 . S
C1237 C170 1.214 . S
C1241 C445 1.240 . S
C1255 C181 1.224 . S
C1259 C434 1.243 . S
C1273 C192 1.210 . S
C1277 C368 1.224 . S
C1291 C203 1.241 . S
C1295 C379 1.216 . S
C1309 C390 1.241 . S
C1313 C214 1.215 . S
C1327 C225 1.242 . S
C1331 C357 1.217 . S
C1345 C412 1.213 . S
C1349 C236 1.239 . S
C1363 C423 1.210 . S
C1367 C247 1.223 . S
C1381 C401 1.242 . S
C1385 C258 1.217 . S
C1399 C250 1.630 . S
C1403 C8 1.629 . S
C1417 C184 1.632 . S
C1421 C19 1.632 . S
C1435 C30 1.633 . S
C1439 C261 1.632 . S
C1453 C41 1.637 . S
C1457 C239 1.636 . S
C1471 C52 1.641 . S
C1475 C206 1.641 . S
C1489 C217 1.639 . S
C1493 C63 1.639 . S
C1507 C228 1.641 . S
C1511 C74 1.642 . S
C1525 C85 1.628 . S
C1529 C195 1.628 . S
C1543 C96 1.630 . S
C1547 C151 1.630 . S
C1561 C107 1.640 . S
C1565 C162 1.639 . S
C1579 C118 1.628 . S
C1583 C173 1.628 . S
C1597 C140 1.642 . S
C1601 C129 1.642 . S
C1615 C514 1.633 . S
C1619 C272 1.632 . S
C1633 C283 1.627 . S
C1637 C448 1.627 . S
C1651 C294 1.628 . S
C1655 C525 1.628 . S
C1669 C503 1.629 . S
C1673 C305 1.629 . S
C1687 C316 1.635 . S
C1691 C470 1.634 . S
C1705 C327 1.637 . S
C1709 C481 1.638 . S
C1723 C492 1.639 . S
C1727 C338 1.640 . S
C1741 C459 1.635 . S
C1745 C349 1.636 . S
C1759 C360 1.627 . S
C1763 C415 1.627 . S
C1777 C426 1.637 . S
C1781 C371 1.638 . S
C1795 C382 1.640 . S
C1799 C437 1.641 . S
C1813 C404 1.628 . S
C1817 C393 1.628 . S
