# Generated by pormake.
# Topology ukt, (4)-cn, num edge types: 1
# Building blocks:
#     Node 0, Type 0, BuildingBlock: QUQFOY_clean_sbu_1, # of connection points: 4
#     Node 1, Type 0, BuildingBlock: QUQFOY_clean_sbu_1, # of connection points: 4
#     Node 2, Type 0, BuildingBlock: QUQFOY_clean_sbu_1, # of connection points: 4
#     Node 3, Type 0, BuildingBlock: QUQFOY_clean_sbu_1, # of connection points: 4
#     Node 4, Type 0, BuildingBlock: QUQFOY_clean_sbu_1, # of connection points: 4
#     Node 5, Type 0, BuildingBlock: QUQFOY_clean_sbu_1, # of connection points: 4
#     Node 6, Type 0, BuildingBlock: QUQFOY_clean_sbu_1, # of connection points: 4
#     Node 7, Type 0, BuildingBlock: QUQFOY_clean_sbu_1, # of connection points: 4
#     Node 8, Type 0, BuildingBlock: QUQFOY_clean_sbu_1, # of connection points: 4
#     Node 9, Type 0, BuildingBlock: QUQFOY_clean_sbu_1, # of connection points: 4
#     Node 10, Type 0, BuildingBlock: QUQFOY_clean_sbu_1, # of connection points: 4
#     Node 11, Type 0, BuildingBlock: QUQFOY_clean_sbu_1, # of connection points: 4
#     Node 12, Type 0, BuildingBlock: QUQFOY_clean_sbu_1, # of connection points: 4
#     Node 13, Type 0, BuildingBlock: QUQFOY_clean_sbu_1, # of connection points: 4
#     Node 14, Type 0, BuildingBlock: QUQFOY_clean_sbu_1, # of connection points: 4
#     Node 15, Type 0, BuildingBlock: QUQFOY_clean_sbu_1, # of connection points: 4
#     Edge 16, Type (0, 0), BuildingBlock: MIFKUJ_clean_linker_0, # of connection points: 2
#     Edge 17, Type (0, 0), BuildingBlock: MIFKUJ_clean_linker_0, # of connection points: 2
#     Edge 18, Type (0, 0), BuildingBlock: MIFKUJ_clean_linker_0, # of connection points: 2
#     Edge 19, Type (0, 0), BuildingBlock: MIFKUJ_clean_linker_0, # of connection points: 2
#     Edge 20, Type (0, 0), BuildingBlock: MIFKUJ_clean_linker_0, # of connection points: 2
#     Edge 21, Type (0, 0), BuildingBlock: MIFKUJ_clean_linker_0, # of connection points: 2
#     Edge 22, Type (0, 0), BuildingBlock: MIFKUJ_clean_linker_0, # of connection points: 2
#     Edge 23, Type (0, 0), BuildingBlock: MIFKUJ_clean_linker_0, # of connection points: 2
#     Edge 24, Type (0, 0), BuildingBlock: MIFKUJ_clean_linker_0, # of connection points: 2
#     Edge 25, Type (0, 0), BuildingBlock: MIFKUJ_clean_linker_0, # of connection points: 2
#     Edge 26, Type (0, 0), BuildingBlock: MIFKUJ_clean_linker_0, # of connection points: 2
#     Edge 27, Type (0, 0), BuildingBlock: MIFKUJ_clean_linker_0, # of connection points: 2
#     Edge 28, Type (0, 0), BuildingBlock: MIFKUJ_clean_linker_0, # of connection points: 2
#     Edge 29, Type (0, 0), BuildingBlock: MIFKUJ_clean_linker_0, # of connection points: 2
#     Edge 30, Type (0, 0), BuildingBlock: MIFKUJ_clean_linker_0, # of connection points: 2
#     Edge 31, Type (0, 0), BuildingBlock: MIFKUJ_clean_linker_0, # of connection points: 2
#     Edge 32, Type (0, 0), BuildingBlock: MIFKUJ_clean_linker_0, # of connection points: 2
#     Edge 33, Type (0, 0), BuildingBlock: MIFKUJ_clean_linker_0, # of connection points: 2
#     Edge 34, Type (0, 0), BuildingBlock: MIFKUJ_clean_linker_0, # of connection points: 2
#     Edge 35, Type (0, 0), BuildingBlock: MIFKUJ_clean_linker_0, # of connection points: 2
#     Edge 36, Type (0, 0), BuildingBlock: MIFKUJ_clean_linker_0, # of connection points: 2
#     Edge 37, Type (0, 0), BuildingBlock: MIFKUJ_clean_linker_0, # of connection points: 2
#     Edge 38, Type (0, 0), BuildingBlock: MIFKUJ_clean_linker_0, # of connection points: 2
#     Edge 39, Type (0, 0), BuildingBlock: MIFKUJ_clean_linker_0, # of connection points: 2
#     Edge 40, Type (0, 0), BuildingBlock: MIFKUJ_clean_linker_0, # of connection points: 2
#     Edge 41, Type (0, 0), BuildingBlock: MIFKUJ_clean_linker_0, # of connection points: 2
#     Edge 42, Type (0, 0), BuildingBlock: MIFKUJ_clean_linker_0, # of connection points: 2
#     Edge 43, Type (0, 0), BuildingBlock: MIFKUJ_clean_linker_0, # of connection points: 2
#     Edge 44, Type (0, 0), BuildingBlock: MIFKUJ_clean_linker_0, # of connection points: 2
#     Edge 45, Type (0, 0), BuildingBlock: MIFKUJ_clean_linker_0, # of connection points: 2
#     Edge 46, Type (0, 0), BuildingBlock: MIFKUJ_clean_linker_0, # of connection points: 2
#     Edge 47, Type (0, 0), BuildingBlock: MIFKUJ_clean_linker_0, # of connection points: 2
# Relax obj value: 0.131
# Max RMSD: 0.091
# Mean RMSD: 0.091
data_MOF--net-ukt--node1-QUQFOY_clean_sbu_1--edge1-MIFKUJ_clean_linker_0
_symmetry_space_group_name_H-M    P1
_symmetry_Int_Tables_number       1
_symmetry_cell_setting            triclinic
loop_
_symmetry_equiv_pos_as_xyz
'x, y, z'
_cell_length_a     56.893126
_cell_length_b     56.851013
_cell_length_c     51.740852
_cell_angle_alpha  90.008524
_cell_angle_beta   90.019439
_cell_angle_gamma 90.004067
loop_
_atom_site_label
_atom_site_type_symbol
_atom_site_fract_x
_atom_site_fract_y
_atom_site_fract_z
_atom_type_partial_charge
O0 O 0.57133 0.13668 0.03776 0.0
Cd1 Cd 0.53887 0.15111 0.04474 0.0
Cd2 Cd 0.56198 0.16437 0.08752 0.0
O3 O 0.58211 0.1352 0.07848 0.0
O4 O 0.51987 0.13523 0.0179 0.0
O5 O 0.51526 0.12869 0.05974 0.0
C6 C 0.5104 0.12306 0.03613 0.0
C7 C 0.55572 0.17438 0.13081 0.0
C8 C 0.58498 0.12889 0.05515 0.0
C9 C 0.55088 0.20035 0.04628 0.0
O10 O 0.56486 0.19365 0.06398 0.0
O11 O 0.53523 0.18642 0.03783 0.0
O12 O 0.57621 0.17563 0.12037 0.0
O13 O 0.53863 0.16636 0.11693 0.0
O14 O 0.3627 0.58501 0.04494 0.0
Cd15 Cd 0.35118 0.55172 0.03688 0.0
Cd16 Cd 0.31907 0.56771 0.07959 0.0
O17 O 0.33931 0.59777 0.07603 0.0
O18 O 0.37365 0.54422 0.00885 0.0
O19 O 0.37392 0.52591 0.04646 0.0
C20 C 0.38365 0.52961 0.02429 0.0
C21 C 0.304 0.56003 0.12085 0.0
C22 C 0.35651 0.60084 0.06077 0.0
C23 C 0.2991 0.55126 0.02734 0.0
O24 O 0.29635 0.55884 0.05024 0.0
O25 O 0.31944 0.54723 0.01827 0.0
O26 O 0.29615 0.57691 0.10674 0.0
O27 O 0.32097 0.54744 0.11174 0.0
O28 O 0.92985 0.35708 0.04728 0.0
Cd29 Cd 0.96402 0.34664 0.04305 0.0
Cd30 Cd 0.94419 0.31636 0.08715 0.0
O31 O 0.91567 0.33837 0.0813 0.0
O32 O 0.97271 0.36769 0.01384 0.0
O33 O 0.98815 0.37132 0.05272 0.0
C34 C 0.98573 0.3794 0.02956 0.0
C35 C 0.94827 0.30019 0.12863 0.0
C36 C 0.91335 0.35333 0.06323 0.0
C37 C 0.9637 0.29422 0.03665 0.0
O38 O 0.95346 0.29294 0.05843 0.0
O39 O 0.97034 0.31386 0.02749 0.0
O40 O 0.93199 0.29351 0.11304 0.0
O41 O 0.96215 0.31678 0.12108 0.0
O42 O 0.12771 0.91965 0.06163 0.0
Cd43 Cd 0.1415 0.95263 0.05574 0.0
Cd44 Cd 0.17082 0.93211 0.09889 0.0
O45 O 0.14722 0.90477 0.09484 0.0
O46 O 0.12176 0.96218 0.02586 0.0
O47 O 0.11911 0.9792 0.06407 0.0
C48 C 0.11127 0.97686 0.0408 0.0
C49 C 0.18702 0.93944 0.13977 0.0
C50 C 0.13117 0.90328 0.07785 0.0
C51 C 0.1938 0.94771 0.04805 0.0
O52 O 0.19476 0.93739 0.06979 0.0
O53 O 0.17457 0.95615 0.03966 0.0
O54 O 0.19185 0.92069 0.12692 0.0
O55 O 0.17199 0.95389 0.1299 0.0
O56 O 0.57539 0.36198 0.44777 0.0
Cd57 Cd 0.54209 0.34935 0.45342 0.0
Cd58 Cd 0.56232 0.31925 0.40953 0.0
O59 O 0.58946 0.34327 0.41371 0.0
O60 O 0.53334 0.36932 0.48349 0.0
O61 O 0.51586 0.37238 0.44562 0.0
C62 C 0.51862 0.38012 0.46888 0.0
C63 C 0.55727 0.30282 0.36826 0.0
C64 C 0.59154 0.35878 0.43125 0.0
C65 C 0.5458 0.29691 0.46078 0.0
O66 O 0.55586 0.29551 0.43889 0.0
O67 O 0.53812 0.31641 0.4693 0.0
O68 O 0.5752 0.29798 0.38243 0.0
O69 O 0.54211 0.31761 0.37725 0.0
O70 O 0.14323 0.57222 0.45479 0.0
Cd71 Cd 0.15538 0.53835 0.45763 0.0
Cd72 Cd 0.18319 0.5579 0.41393 0.0
O73 O 0.15946 0.58511 0.41872 0.0
O74 O 0.1344 0.52685 0.48552 0.0
O75 O 0.13274 0.5133 0.44558 0.0
C76 C 0.12405 0.51389 0.46862 0.0
C77 C 0.19919 0.55327 0.37252 0.0
C78 C 0.14539 0.58793 0.43753 0.0
C79 C 0.2073 0.54071 0.46402 0.0
O80 O 0.20769 0.55134 0.44242 0.0
O81 O 0.1882 0.53265 0.47308 0.0
O82 O 0.20474 0.57068 0.38716 0.0
O83 O 0.18373 0.53854 0.38097 0.0
O84 O 0.9276 0.13831 0.46525 0.0
Cd85 Cd 0.96106 0.15144 0.46344 0.0
Cd86 Cd 0.93813 0.17398 0.42019 0.0
O87 O 0.91325 0.14823 0.42719 0.0
O88 O 0.97563 0.13209 0.49107 0.0
O89 O 0.98532 0.12863 0.44995 0.0
C90 C 0.98684 0.12087 0.47335 0.0
C91 C 0.94175 0.18825 0.37782 0.0
C92 C 0.91155 0.13693 0.44829 0.0
C93 C 0.95434 0.20258 0.46756 0.0
O94 O 0.942 0.2004 0.44721 0.0
O95 O 0.96595 0.18527 0.47637 0.0
O96 O 0.92354 0.1925 0.39177 0.0
O97 O 0.95785 0.1749 0.38752 0.0
O98 O 0.36022 0.92931 0.46091 0.0
Cd99 Cd 0.34682 0.96257 0.45616 0.0
Cd100 Cd 0.32959 0.94047 0.413 0.0
O101 O 0.35588 0.91654 0.42105 0.0
O102 O 0.36414 0.97931 0.48386 0.0
O103 O 0.36984 0.98635 0.44233 0.0
C104 C 0.37617 0.98957 0.46606 0.0
C105 C 0.32 0.94888 0.37008 0.0
C106 C 0.36439 0.91409 0.44358 0.0
C107 C 0.29612 0.95408 0.45595 0.0
O108 O 0.30068 0.94059 0.43701 0.0
O109 O 0.31192 0.96753 0.46503 0.0
O110 O 0.3164 0.92843 0.37996 0.0
O111 O 0.33005 0.96462 0.3843 0.0
O112 O 0.41583 0.87481 0.94525 0.0
Cd113 Cd 0.44881 0.85973 0.94463 0.0
Cd114 Cd 0.42576 0.83883 0.90394 0.0
O115 O 0.40405 0.86771 0.90552 0.0
O116 O 0.46285 0.87704 0.97415 0.0
O117 O 0.47496 0.88181 0.934 0.0
C118 C 0.47575 0.88826 0.95791 0.0
C119 C 0.43595 0.82175 0.86439 0.0
C120 C 0.40144 0.87837 0.92688 0.0
C121 C 0.43578 0.81072 0.95179 0.0
O122 O 0.42171 0.81457 0.93322 0.0
O123 O 0.45188 0.8254 0.95708 0.0
O124 O 0.41484 0.82081 0.87332 0.0
O125 O 0.45133 0.83355 0.87742 0.0
O126 O 0.63398 0.42659 0.9527 0.0
Cd127 Cd 0.65101 0.45792 0.95784 0.0
Cd128 Cd 0.67553 0.4387 0.91346 0.0
O129 O 0.65116 0.41202 0.91797 0.0
O130 O 0.63229 0.47029 0.98716 0.0
O131 O 0.63219 0.48688 0.94861 0.0
C132 C 0.62373 0.48581 0.97173 0.0
C133 C 0.6861 0.4487 0.8712 0.0
C134 C 0.63585 0.41061 0.93575 0.0
C135 C 0.70273 0.44868 0.96301 0.0
O136 O 0.70243 0.44086 0.94 0.0
O137 O 0.68428 0.45688 0.9735 0.0
O138 O 0.69188 0.42884 0.88129 0.0
O139 O 0.6739 0.46313 0.88504 0.0
O140 O 0.07468 0.63591 0.94096 0.0
Cd141 Cd 0.04161 0.64975 0.94494 0.0
Cd142 Cd 0.06164 0.67536 0.9003 0.0
O143 O 0.08714 0.64969 0.90354 0.0
O144 O 0.03107 0.63045 0.97484 0.0
O145 O 0.01539 0.62712 0.93603 0.0
C146 C 0.01716 0.61944 0.95944 0.0
C147 C 0.05421 0.69011 0.85876 0.0
C148 C 0.08977 0.63626 0.92292 0.0
C149 C 0.049 0.70151 0.95035 0.0
O150 O 0.05974 0.70065 0.92881 0.0
O151 O 0.03847 0.68351 0.9592 0.0
O152 O 0.07365 0.69414 0.87067 0.0
O153 O 0.03881 0.67711 0.87024 0.0
O154 O 0.86602 0.07572 0.95264 0.0
Cd155 Cd 0.8502 0.04328 0.95115 0.0
Cd156 Cd 0.83087 0.06473 0.90638 0.0
O157 O 0.85843 0.08785 0.91308 0.0
O158 O 0.86694 0.02691 0.97954 0.0
O159 O 0.87094 0.01703 0.93846 0.0
C160 C 0.87741 0.01448 0.96224 0.0
C161 C 0.82011 0.05667 0.86369 0.0
C162 C 0.86928 0.09027 0.93439 0.0
C163 C 0.79879 0.05192 0.95124 0.0
O164 O 0.8022 0.06407 0.93095 0.0
O165 O 0.81548 0.04032 0.96138 0.0
O166 O 0.81686 0.07707 0.87387 0.0
O167 O 0.83049 0.04081 0.87744 0.0
O168 O 0.41468 0.64351 0.55473 0.0
Cd169 Cd 0.4498 0.65085 0.55169 0.0
Cd170 Cd 0.43906 0.66735 0.59989 0.0
O171 O 0.41651 0.63868 0.59675 0.0
O172 O 0.4585 0.63046 0.52212 0.0
O173 O 0.47254 0.62538 0.56168 0.0
C174 C 0.4705 0.61794 0.53818 0.0
C175 C 0.44828 0.67978 0.6419 0.0
C176 C 0.40617 0.6352 0.57539 0.0
C177 C 0.4464 0.70064 0.55394 0.0
O178 O 0.43564 0.69591 0.57489 0.0
O179 O 0.45798 0.68473 0.54239 0.0
O180 O 0.42742 0.68158 0.63257 0.0
O181 O 0.46418 0.67011 0.62762 0.0
O182 O 0.86709 0.41953 0.56049 0.0
Cd183 Cd 0.85352 0.45056 0.54707 0.0
Cd184 Cd 0.82032 0.43598 0.59131 0.0
O185 O 0.84329 0.40775 0.59175 0.0
O186 O 0.87529 0.4555 0.51757 0.0
O187 O 0.87472 0.47879 0.55168 0.0
C188 C 0.8843 0.47285 0.53003 0.0
C189 C 0.80249 0.44546 0.63085 0.0
C190 C 0.86143 0.40485 0.57783 0.0
C191 C 0.80138 0.44594 0.53663 0.0
O192 O 0.79827 0.4403 0.56014 0.0
O193 O 0.8217 0.45062 0.52787 0.0
O194 O 0.79744 0.42652 0.61845 0.0
O195 O 0.81821 0.45917 0.62104 0.0
O196 O 0.07188 0.86132 0.53207 0.0
Cd197 Cd 0.03858 0.84769 0.53347 0.0
Cd198 Cd 0.05763 0.82903 0.57837 0.0
O199 O 0.08035 0.85708 0.57328 0.0
O200 O 0.0231 0.8669 0.50642 0.0
O201 O 0.01431 0.86978 0.54793 0.0
C202 C 0.01226 0.87784 0.52468 0.0
C203 C 0.05109 0.81599 0.62077 0.0
C204 C 0.08486 0.86598 0.55132 0.0
C205 C 0.04764 0.79741 0.53177 0.0
O206 O 0.05917 0.80144 0.55236 0.0
O207 O 0.03475 0.81333 0.52197 0.0
O208 O 0.07121 0.81396 0.60968 0.0
O209 O 0.03448 0.82628 0.60808 0.0
O210 O 0.63497 0.07623 0.54701 0.0
Cd211 Cd 0.64671 0.04231 0.54672 0.0
Cd212 Cd 0.66793 0.06092 0.59362 0.0
O213 O 0.64213 0.08618 0.58742 0.0
O214 O 0.62797 0.03024 0.51727 0.0
O215 O 0.62264 0.01822 0.55744 0.0
C216 C 0.61572 0.01844 0.53365 0.0
C217 C 0.68171 0.05567 0.63597 0.0
C218 C 0.63239 0.09031 0.56579 0.0
C219 C 0.69805 0.04656 0.54649 0.0
O220 O 0.69542 0.0575 0.56773 0.0
O221 O 0.68072 0.03684 0.53533 0.0
O222 O 0.6853 0.07478 0.6233 0.0
O223 O 0.66905 0.03962 0.6251 0.0
H224 H 0.52434 0.22127 0.00831 0.0
H225 H 0.53272 0.25827 0.98583 0.0
H226 H 0.5942 0.26824 0.03348 0.0
H227 H 0.58564 0.23194 0.05639 0.0
H228 H 0.57291 0.30799 0.02795 0.0
H229 H 0.59702 0.24521 0.97097 0.0
H230 H 0.59113 0.20938 0.94486 0.0
H231 H 0.53905 0.245 0.89927 0.0
H232 H 0.54444 0.28097 0.92535 0.0
H233 H 0.64674 0.36527 0.92284 0.0
H234 H 0.62571 0.32991 0.93697 0.0
H235 H 0.57026 0.3732 0.96819 0.0
H236 H 0.59184 0.40846 0.95536 0.0
H237 H 0.58462 0.30769 0.93289 0.0
H238 H 0.5555 0.35258 0.02805 0.0
H239 H 0.56641 0.38644 0.05539 0.0
H240 H 0.63703 0.38363 0.02631 0.0
H241 H 0.62672 0.34935 0.99939 0.0
C242 C 0.53948 0.23151 0.01417 0.0
C243 C 0.55438 0.2236 0.03406 0.0
C244 C 0.54432 0.25256 0.00121 0.0
C245 C 0.56428 0.26584 0.00773 0.0
C246 C 0.5787 0.25831 0.02811 0.0
C247 C 0.57378 0.23747 0.04118 0.0
C248 C 0.57078 0.28732 0.99314 0.0
C249 C 0.57523 0.30797 0.00713 0.0
C250 C 0.57412 0.28722 0.96601 0.0
C251 C 0.57094 0.26566 0.95028 0.0
C252 C 0.58419 0.24533 0.95549 0.0
C253 C 0.58097 0.22502 0.94069 0.0
C254 C 0.56468 0.22489 0.92047 0.0
C255 C 0.55163 0.24511 0.91497 0.0
C256 C 0.55477 0.26546 0.92975 0.0
C257 C 0.6298 0.36716 0.93216 0.0
C258 C 0.62102 0.38952 0.93843 0.0
C259 C 0.61777 0.34698 0.94017 0.0
C260 C 0.59671 0.34898 0.95421 0.0
C261 C 0.58675 0.37129 0.95795 0.0
C262 C 0.59902 0.3914 0.95054 0.0
C263 C 0.58692 0.32823 0.96778 0.0
C264 C 0.58184 0.30779 0.95364 0.0
C265 C 0.58368 0.32825 0.99495 0.0
C266 C 0.59022 0.34863 0.0114 0.0
C267 C 0.57338 0.35914 0.02758 0.0
C268 C 0.57947 0.37838 0.04303 0.0
C269 C 0.60235 0.38729 0.04244 0.0
C270 C 0.61927 0.3768 0.02663 0.0
C271 C 0.61333 0.35743 0.01132 0.0
H272 H 0.60698 0.40227 0.05431 0.0
H273 H 0.5622 0.20915 0.90902 0.0
H274 H 0.09608 0.59981 0.9561 0.0
H275 H 0.13255 0.5793 0.96582 0.0
H276 H 0.16811 0.61825 0.906 0.0
H277 H 0.13137 0.63909 0.89594 0.0
H278 H 0.18241 0.5667 0.91403 0.0
H279 H 0.17406 0.6413 0.95824 0.0
H280 H 0.15203 0.67083 0.98337 0.0
H281 H 0.14255 0.62097 0.04482 0.0
H282 H 0.16421 0.59101 0.01984 0.0
H283 H 0.2968 0.55919 0.97531 0.0
H284 H 0.26109 0.56705 0.95032 0.0
H285 H 0.21879 0.54834 0.01644 0.0
H286 H 0.25434 0.54133 0.04165 0.0
H287 H 0.20912 0.59088 0.0014 0.0
H288 H 0.21834 0.5164 0.95865 0.0
H289 H 0.2391 0.48595 0.93355 0.0
H290 H 0.24673 0.53396 0.87005 0.0
H291 H 0.22628 0.56482 0.89491 0.0
C292 C 0.11151 0.60381 0.94465 0.0
C293 C 0.11098 0.62144 0.92559 0.0
C294 C 0.13228 0.59191 0.95012 0.0
C295 C 0.15296 0.59746 0.93677 0.0
C296 C 0.15223 0.61373 0.91641 0.0
C297 C 0.1313 0.62569 0.91082 0.0
C298 C 0.1756 0.58881 0.94696 0.0
C299 C 0.18857 0.57215 0.93295 0.0
C300 C 0.18323 0.59573 0.9718 0.0
C301 C 0.17057 0.61386 0.98707 0.0
C302 C 0.16712 0.63658 0.97703 0.0
C303 C 0.15472 0.65341 0.99126 0.0
C304 C 0.14585 0.64777 0.01566 0.0
C305 C 0.14942 0.62531 0.02591 0.0
C306 C 0.16177 0.60841 0.01173 0.0
C307 C 0.27985 0.55605 0.98421 0.0
C308 C 0.27826 0.54996 0.01048 0.0
C309 C 0.25945 0.56052 0.9699 0.0
C310 C 0.23726 0.55847 0.98158 0.0
C311 C 0.23573 0.55026 0.00712 0.0
C312 C 0.25604 0.54622 0.02149 0.0
C313 C 0.21595 0.56809 0.96889 0.0
C314 C 0.2032 0.58527 0.98244 0.0
C315 C 0.20867 0.56152 0.94372 0.0
C316 C 0.221 0.54301 0.92876 0.0
C317 C 0.22463 0.52054 0.93943 0.0
C318 C 0.2363 0.50319 0.92522 0.0
C319 C 0.24429 0.50804 0.90025 0.0
C320 C 0.24056 0.53024 0.88941 0.0
C321 C 0.22892 0.54766 0.90354 0.0
H322 H 0.25331 0.49458 0.88928 0.0
H323 H 0.13624 0.66082 0.02664 0.0
H324 H 0.8804 0.12599 0.90069 0.0
H325 H 0.90624 0.15969 0.90882 0.0
H326 H 0.92097 0.13309 0.98522 0.0
H327 H 0.89562 0.09951 0.97722 0.0
H328 H 0.89971 0.19268 0.94361 0.0
H329 H 0.97065 0.14812 0.00759 0.0
H330 H 0.99467 0.11197 0.0081 0.0
H331 H 0.98909 0.10686 0.92554 0.0
H332 H 0.96468 0.1427 0.92458 0.0
H333 H 0.96311 0.24885 0.0534 0.0
H334 H 0.95654 0.21371 0.02729 0.0
H335 H 0.95994 0.25553 0.95786 0.0
H336 H 0.96666 0.29091 0.98393 0.0
H337 H 0.97795 0.18988 0.98593 0.0
H338 H 0.91169 0.23731 0.92118 0.0
H339 H 0.88694 0.273 0.92071 0.0
H340 H 0.88331 0.27182 0.0036 0.0
H341 H 0.90773 0.23597 0.0045 0.0
C342 C 0.88939 0.12719 0.91909 0.0
C343 C 0.8858 0.11011 0.93835 0.0
C344 C 0.90422 0.14642 0.92367 0.0
C345 C 0.91586 0.14878 0.94749 0.0
C346 C 0.91271 0.13142 0.96645 0.0
C347 C 0.89793 0.1123 0.96193 0.0
C348 C 0.929 0.17057 0.95398 0.0
C349 C 0.91715 0.19214 0.95208 0.0
C350 C 0.95158 0.1699 0.96549 0.0
C351 C 0.9658 0.14805 0.96604 0.0
C352 C 0.97454 0.13926 0.98955 0.0
C353 C 0.98814 0.11877 0.98993 0.0
C354 C 0.99337 0.1071 0.96687 0.0
C355 C 0.98495 0.11586 0.9434 0.0
C356 C 0.97107 0.13614 0.94295 0.0
C357 C 0.96307 0.2505 0.03254 0.0
C358 C 0.96512 0.27267 0.02072 0.0
C359 C 0.95942 0.23038 0.01764 0.0
C360 C 0.95745 0.23209 0.9907 0.0
C361 C 0.96127 0.25391 0.97867 0.0
C362 C 0.96519 0.27407 0.99358 0.0
C363 C 0.94839 0.2117 0.97594 0.0
C364 C 0.9609 0.19045 0.97653 0.0
C365 C 0.92642 0.21263 0.96316 0.0
C366 C 0.9118 0.2342 0.96289 0.0
C367 C 0.9056 0.2447 0.93928 0.0
C368 C 0.89162 0.26493 0.93894 0.0
C369 C 0.88363 0.2747 0.96212 0.0
C370 C 0.88959 0.26428 0.98568 0.0
C371 C 0.90352 0.24403 0.98611 0.0
H372 H 0.87273 0.29027 0.96181 0.0
H373 H 0.00392 0.09126 0.96719 0.0
H374 H 0.39198 0.9041 0.96996 0.0
H375 H 0.35509 0.92306 0.98136 0.0
H376 H 0.32649 0.90558 0.90665 0.0
H377 H 0.36359 0.88624 0.89489 0.0
H378 H 0.3171 0.95802 0.94289 0.0
H379 H 0.30322 0.87205 0.93092 0.0
H380 H 0.31753 0.83118 0.93435 0.0
H381 H 0.33192 0.84149 0.01505 0.0
H382 H 0.31796 0.88254 0.01194 0.0
H383 H 0.19771 0.96015 0.99681 0.0
H384 H 0.23221 0.95485 0.96892 0.0
H385 H 0.27231 0.93062 0.03446 0.0
H386 H 0.23825 0.93576 0.06228 0.0
H387 H 0.27254 0.89937 0.99436 0.0
H388 H 0.28382 0.98262 0.00854 0.0
H389 H 0.27256 0.02449 0.00745 0.0
H390 H 0.26488 0.02104 0.92497 0.0
H391 H 0.2758 0.97902 0.92562 0.0
C392 C 0.37812 0.90471 0.95562 0.0
C393 C 0.38061 0.89333 0.93164 0.0
C394 C 0.3571 0.91573 0.96214 0.0
C395 C 0.3382 0.91566 0.94483 0.0
C396 C 0.34106 0.9059 0.92014 0.0
C397 C 0.36218 0.89476 0.91355 0.0
C398 C 0.3147 0.9218 0.9547 0.0
C399 C 0.30688 0.94517 0.95355 0.0
C400 C 0.30188 0.90508 0.96908 0.0
C401 C 0.30974 0.88032 0.97115 0.0
C402 C 0.30956 0.8656 0.94934 0.0
C403 C 0.31759 0.84242 0.95123 0.0
C404 C 0.32568 0.83376 0.9749 0.0
C405 C 0.32567 0.84823 0.99673 0.0
C406 C 0.31769 0.87144 0.99492 0.0
C407 C 0.21401 0.95411 0.00534 0.0
C408 C 0.21514 0.94808 0.03171 0.0
C409 C 0.23368 0.95111 0.98938 0.0
C410 C 0.25469 0.94216 0.99964 0.0
C411 C 0.25616 0.93736 0.02616 0.0
C412 C 0.23665 0.94032 0.04203 0.0
C413 C 0.27469 0.93576 0.98277 0.0
C414 C 0.28208 0.91222 0.98293 0.0
C415 C 0.28695 0.95241 0.96754 0.0
C416 C 0.2803 0.97761 0.96717 0.0
C417 C 0.27948 0.99072 0.9902 0.0
C418 C 0.27322 0.01449 0.98966 0.0
C419 C 0.26792 0.0254 0.96616 0.0
C420 C 0.26894 0.01256 0.94316 0.0
C421 C 0.27516 0.98877 0.9436 0.0
H422 H 0.2631 0.04381 0.96578 0.0
H423 H 0.33192 0.81582 0.97632 0.0
H424 H 0.54836 0.25111 0.44566 0.0
H425 H 0.55363 0.21669 0.47323 0.0
H426 H 0.54795 0.26045 0.54104 0.0
H427 H 0.54235 0.29509 0.51349 0.0
H428 H 0.58927 0.23377 0.53865 0.0
H429 H 0.50706 0.22094 0.53242 0.0
H430 H 0.46852 0.21732 0.51103 0.0
H431 H 0.49378 0.15857 0.46691 0.0
H432 H 0.5326 0.16204 0.4877 0.0
H433 H 0.62319 0.12622 0.60013 0.0
H434 H 0.59995 0.16184 0.592 0.0
H435 H 0.58566 0.13779 0.51445 0.0
H436 H 0.60805 0.10228 0.52251 0.0
H437 H 0.54779 0.15717 0.53362 0.0
H438 H 0.63091 0.17724 0.52906 0.0
H439 H 0.67106 0.18106 0.5466 0.0
H440 H 0.64539 0.2261 0.60696 0.0
H441 H 0.60502 0.22231 0.58991 0.0
C442 C 0.54771 0.25335 0.46644 0.0
C443 C 0.54508 0.2758 0.47741 0.0
C444 C 0.55059 0.23365 0.48218 0.0
C445 C 0.55108 0.23604 0.50916 0.0
C446 C 0.54748 0.25827 0.52025 0.0
C447 C 0.54423 0.27799 0.50448 0.0
C448 C 0.55827 0.21575 0.52523 0.0
C449 C 0.57986 0.21716 0.53823 0.0
C450 C 0.54619 0.19405 0.52419 0.0
C451 C 0.52283 0.19185 0.51158 0.0
C452 C 0.50447 0.20736 0.51801 0.0
C453 C 0.48255 0.20531 0.50601 0.0
C454 C 0.47871 0.18775 0.4876 0.0
C455 C 0.49678 0.17217 0.48118 0.0
C456 C 0.51874 0.17415 0.4931 0.0
C457 C 0.61493 0.1285 0.58144 0.0
C458 C 0.61776 0.11155 0.56188 0.0
C459 C 0.60168 0.14885 0.57682 0.0
C460 C 0.59126 0.15259 0.55252 0.0
C461 C 0.59346 0.1353 0.53336 0.0
C462 C 0.60651 0.11504 0.53797 0.0
C463 C 0.57927 0.17498 0.54598 0.0
C464 C 0.5568 0.17396 0.53478 0.0
C465 C 0.59074 0.19698 0.54819 0.0
C466 C 0.61495 0.19922 0.55845 0.0
C467 C 0.63382 0.1878 0.5462 0.0
C468 C 0.65661 0.18999 0.55602 0.0
C469 C 0.66076 0.20374 0.57794 0.0
C470 C 0.64214 0.21539 0.59003 0.0
C471 C 0.61931 0.21323 0.5803 0.0
H472 H 0.67842 0.20542 0.58551 0.0
H473 H 0.46172 0.18619 0.47833 0.0
H474 H 0.39846 0.59066 0.59312 0.0
H475 H 0.3643 0.56561 0.58292 0.0
H476 H 0.33145 0.62404 0.5438 0.0
H477 H 0.36565 0.64861 0.55314 0.0
H478 H 0.30012 0.59697 0.57422 0.0
H479 H 0.36358 0.58966 0.51261 0.0
H480 H 0.40312 0.57902 0.49724 0.0
H481 H 0.38994 0.50659 0.51566 0.0
H482 H 0.35089 0.51703 0.53274 0.0
H483 H 0.25144 0.55299 0.44879 0.0
H484 H 0.28552 0.55946 0.47617 0.0
H485 H 0.24712 0.53336 0.5421 0.0
H486 H 0.21246 0.52729 0.51476 0.0
H487 H 0.3143 0.53631 0.50707 0.0
H488 H 0.26084 0.56928 0.59331 0.0
H489 H 0.22105 0.58394 0.60355 0.0
H490 H 0.21415 0.6109 0.52638 0.0
H491 H 0.25397 0.59664 0.51584 0.0
C492 C 0.38361 0.59817 0.58293 0.0
C493 C 0.38443 0.62145 0.57391 0.0
C494 C 0.36425 0.5839 0.57706 0.0
C495 C 0.34544 0.59304 0.56262 0.0
C496 C 0.34574 0.61674 0.5551 0.0
C497 C 0.36524 0.63072 0.56036 0.0
C498 C 0.32635 0.57782 0.55287 0.0
C499 C 0.30322 0.58327 0.56001 0.0
C500 C 0.33049 0.56027 0.53398 0.0
C501 C 0.35447 0.55426 0.52469 0.0
C502 C 0.36933 0.57158 0.51414 0.0
C503 C 0.39169 0.56557 0.50508 0.0
C504 C 0.39918 0.54219 0.50577 0.0
C505 C 0.38429 0.52477 0.51548 0.0
C506 C 0.36211 0.53074 0.52507 0.0
C507 C 0.25027 0.54821 0.46902 0.0
C508 C 0.22906 0.54005 0.47969 0.0
C509 C 0.26989 0.55177 0.48464 0.0
C510 C 0.26876 0.54725 0.51125 0.0
C511 C 0.24824 0.53727 0.52165 0.0
C512 C 0.22849 0.53376 0.50598 0.0
C513 C 0.28807 0.55578 0.52807 0.0
C514 C 0.31123 0.54918 0.52219 0.0
C515 C 0.28403 0.57279 0.54756 0.0
C516 C 0.26019 0.58161 0.55372 0.0
C517 C 0.25081 0.57836 0.57857 0.0
C518 C 0.22827 0.5866 0.58442 0.0
C519 C 0.21504 0.59825 0.56559 0.0
C520 C 0.22437 0.60179 0.54091 0.0
C521 C 0.24691 0.59362 0.53499 0.0
H522 H 0.19759 0.60459 0.57015 0.0
H523 H 0.41643 0.53753 0.49859 0.0
H524 H 0.90885 0.40123 0.58017 0.0
H525 H 0.93209 0.36589 0.57155 0.0
H526 H 0.86828 0.32488 0.56771 0.0
H527 H 0.84524 0.35995 0.57814 0.0
H528 H 0.90143 0.2974 0.58209 0.0
H529 H 0.8926 0.35455 0.51415 0.0
H530 H 0.89613 0.39357 0.49367 0.0
H531 H 0.97124 0.39036 0.501 0.0
H532 H 0.96811 0.35153 0.52208 0.0
H533 H 0.93421 0.24362 0.45203 0.0
H534 H 0.92551 0.27793 0.47831 0.0
H535 H 0.96225 0.2468 0.54278 0.0
H536 H 0.97062 0.21185 0.51658 0.0
H537 H 0.94844 0.31046 0.5026 0.0
H538 H 0.93135 0.26093 0.59818 0.0
H539 H 0.92058 0.22112 0.61315 0.0
H540 H 0.88598 0.20756 0.54088 0.0
H541 H 0.89628 0.24736 0.52566 0.0
C542 C 0.89996 0.38444 0.5785 0.0
C543 C 0.87534 0.38317 0.57961 0.0
C544 C 0.91319 0.36431 0.57339 0.0
C545 C 0.90189 0.34287 0.56809 0.0
C546 C 0.87742 0.34122 0.57157 0.0
C547 C 0.86423 0.36124 0.57752 0.0
C548 C 0.91481 0.32328 0.55546 0.0
C549 C 0.91198 0.3003 0.56493 0.0
C550 C 0.92817 0.32693 0.53265 0.0
C551 C 0.93011 0.35028 0.51999 0.0
C552 C 0.90986 0.36225 0.51157 0.0
C553 C 0.91179 0.38433 0.49985 0.0
C554 C 0.9339 0.39444 0.49605 0.0
C555 C 0.95413 0.38249 0.50395 0.0
C556 C 0.95229 0.36049 0.51586 0.0
C557 C 0.94076 0.24412 0.47168 0.0
C558 C 0.95287 0.22484 0.4823 0.0
C559 C 0.93585 0.26385 0.48668 0.0
C560 C 0.94294 0.26482 0.51262 0.0
C561 C 0.95631 0.24626 0.52289 0.0
C562 C 0.96121 0.22638 0.50785 0.0
C563 C 0.93474 0.2846 0.529 0.0
C564 C 0.93848 0.30763 0.52021 0.0
C565 C 0.92127 0.28088 0.55165 0.0
C566 C 0.9149 0.25697 0.56068 0.0
C567 C 0.92143 0.24944 0.58552 0.0
C568 C 0.9154 0.22689 0.59405 0.0
C569 C 0.90269 0.21179 0.57793 0.0
C570 C 0.89591 0.21923 0.5533 0.0
C571 C 0.90187 0.24177 0.54471 0.0
H572 H 0.89805 0.19434 0.58456 0.0
H573 H 0.93535 0.41154 0.48698 0.0
H574 H 0.11908 0.87735 0.58664 0.0
H575 H 0.15437 0.90116 0.5791 0.0
H576 H 0.13237 0.91325 0.50044 0.0
H577 H 0.09726 0.88974 0.50771 0.0
H578 H 0.18823 0.89036 0.54445 0.0
H579 H 0.15211 0.96648 0.4796 0.0
H580 H 0.11726 0.99211 0.47709 0.0
H581 H 0.10366 0.98087 0.55774 0.0
H582 H 0.13872 0.95558 0.56094 0.0
H583 H 0.26052 0.92401 0.44399 0.0
H584 H 0.22454 0.9171 0.46822 0.0
H585 H 0.24278 0.97269 0.5212 0.0
H586 H 0.27934 0.97971 0.49713 0.0
H587 H 0.1914 0.96874 0.50229 0.0
H588 H 0.25338 0.92645 0.54518 0.0
H589 H 0.28859 0.90117 0.54609 0.0
H590 H 0.24976 0.84527 0.51014 0.0
H591 H 0.2144 0.87035 0.50864 0.0
C592 C 0.12163 0.88535 0.56784 0.0
C593 C 0.10543 0.88154 0.54773 0.0
C594 C 0.14173 0.89898 0.56361 0.0
C595 C 0.14577 0.90923 0.53933 0.0
C596 C 0.12933 0.90593 0.51948 0.0
C597 C 0.10938 0.89225 0.52362 0.0
C598 C 0.16832 0.92104 0.53349 0.0
C599 C 0.18896 0.9077 0.53573 0.0
C600 C 0.16925 0.94374 0.52221 0.0
C601 C 0.1481 0.95903 0.52048 0.0
C602 C 0.14183 0.96962 0.49688 0.0
C603 C 0.12205 0.98414 0.49534 0.0
C604 C 0.10832 0.98821 0.51727 0.0
C605 C 0.11434 0.97774 0.54078 0.0
C606 C 0.13416 0.96329 0.54246 0.0
C607 C 0.25685 0.93506 0.46056 0.0
C608 C 0.27295 0.95228 0.46877 0.0
C609 C 0.23625 0.93105 0.47437 0.0
C610 C 0.23123 0.94425 0.49654 0.0
C611 C 0.24649 0.96234 0.5041 0.0
C612 C 0.26734 0.96626 0.49038 0.0
C613 C 0.21079 0.93764 0.51248 0.0
C614 C 0.19064 0.95178 0.51186 0.0
C615 C 0.21019 0.9157 0.52529 0.0
C616 C 0.23127 0.90034 0.5267 0.0
C617 C 0.25238 0.90881 0.53734 0.0
C618 C 0.27236 0.89451 0.53797 0.0
C619 C 0.27142 0.87163 0.52815 0.0
C620 C 0.25046 0.86299 0.51775 0.0
C621 C 0.23043 0.87723 0.51705 0.0
H622 H 0.28692 0.8606 0.52862 0.0
H623 H 0.09292 0.99933 0.51599 0.0
H624 H 0.46858 0.78553 0.97905 0.0
H625 H 0.46145 0.75039 0.00582 0.0
H626 H 0.3873 0.75512 0.98941 0.0
H627 H 0.3943 0.78944 0.96209 0.0
H628 H 0.40457 0.74751 0.04646 0.0
H629 H 0.40957 0.7201 0.95578 0.0
H630 H 0.43079 0.71558 0.91451 0.0
H631 H 0.48757 0.68108 0.95394 0.0
H632 H 0.46682 0.68578 0.99552 0.0
H633 H 0.33822 0.64495 0.06488 0.0
H634 H 0.35831 0.68183 0.05497 0.0
H635 H 0.4238 0.64416 0.04608 0.0
H636 H 0.40329 0.60718 0.05423 0.0
H637 H 0.41964 0.66917 0.00766 0.0
H638 H 0.41275 0.6874 0.09615 0.0
H639 H 0.39432 0.69157 0.13902 0.0
H640 H 0.34625 0.74275 0.10853 0.0
H641 H 0.36414 0.73865 0.06537 0.0
C642 C 0.4508 0.77902 0.98125 0.0
C643 C 0.43201 0.78998 0.96835 0.0
C644 C 0.44677 0.7591 0.99654 0.0
C645 C 0.42386 0.7504 0.99958 0.0
C646 C 0.40507 0.76174 0.98733 0.0
C647 C 0.40913 0.78117 0.97158 0.0
C648 C 0.41923 0.72867 0.01424 0.0
C649 C 0.40785 0.73028 0.03819 0.0
C650 C 0.42443 0.70638 0.00375 0.0
C651 C 0.43686 0.70367 0.97878 0.0
C652 C 0.42672 0.71185 0.95569 0.0
C653 C 0.43862 0.70918 0.93223 0.0
C654 C 0.46057 0.69815 0.93162 0.0
C655 C 0.47062 0.6897 0.95445 0.0
C656 C 0.4588 0.69237 0.97796 0.0
C657 C 0.357 0.64471 0.06142 0.0
C658 C 0.36922 0.62335 0.06016 0.0
C659 C 0.36857 0.66581 0.05592 0.0
C660 C 0.39272 0.66594 0.04995 0.0
C661 C 0.40519 0.64462 0.05046 0.0
C662 C 0.39349 0.6235 0.0552 0.0
C663 C 0.40415 0.68766 0.03998 0.0
C664 C 0.41682 0.68616 0.01669 0.0
C665 C 0.4006 0.71 0.0515 0.0
C666 C 0.38974 0.71261 0.07745 0.0
C667 C 0.39814 0.69943 0.09853 0.0
C668 C 0.3878 0.7018 0.1229 0.0
C669 C 0.36911 0.71739 0.12649 0.0
C670 C 0.36074 0.73068 0.10572 0.0
C671 C 0.371 0.72837 0.0813 0.0
H672 H 0.36112 0.71919 0.14537 0.0
H673 H 0.46974 0.69608 0.91344 0.0
H674 H 0.70603 0.43792 0.01415 0.0
H675 H 0.74126 0.42494 0.03718 0.0
H676 H 0.78322 0.44022 0.96968 0.0
H677 H 0.74782 0.45179 0.94622 0.0
H678 H 0.79238 0.39907 0.98386 0.0
H679 H 0.78618 0.472 0.02994 0.0
H680 H 0.7669 0.50262 0.05621 0.0
H681 H 0.75636 0.4529 0.11759 0.0
H682 H 0.77531 0.42189 0.09153 0.0
H683 H 0.90577 0.39034 0.03112 0.0
H684 H 0.86867 0.40941 0.02109 0.0
H685 H 0.83326 0.36586 0.07706 0.0
H686 H 0.87069 0.34631 0.08739 0.0
H687 H 0.81929 0.41879 0.07248 0.0
H688 H 0.82835 0.34629 0.02313 0.0
H689 H 0.85121 0.31909 0.99577 0.0
H690 H 0.85947 0.37316 0.93854 0.0
H691 H 0.83702 0.40079 0.96577 0.0
C692 C 0.72289 0.439 0.0045 0.0
C693 C 0.72428 0.44571 0.97841 0.0
C694 C 0.74304 0.43165 0.01769 0.0
C695 C 0.76498 0.43157 0.00521 0.0
C696 C 0.76649 0.43987 0.97967 0.0
C697 C 0.74631 0.44659 0.9663 0.0
C698 C 0.78589 0.42058 0.0175 0.0
C699 C 0.79829 0.40369 0.00315 0.0
C700 C 0.79336 0.42596 0.04298 0.0
C701 C 0.78193 0.44456 0.05866 0.0
C702 C 0.77957 0.46754 0.04895 0.0
C703 C 0.76874 0.48498 0.06382 0.0
C704 C 0.76035 0.47969 0.08852 0.0
C705 C 0.76283 0.45696 0.09843 0.0
C706 C 0.77364 0.43945 0.08363 0.0
C707 C 0.89022 0.38488 0.0416 0.0
C708 C 0.89113 0.36648 0.05977 0.0
C709 C 0.86906 0.39595 0.03592 0.0
C710 C 0.84832 0.38889 0.04821 0.0
C711 C 0.8492 0.37153 0.06746 0.0
C712 C 0.87052 0.36033 0.07321 0.0
C713 C 0.82568 0.39796 0.0385 0.0
C714 C 0.81303 0.41426 0.05331 0.0
C715 C 0.81814 0.39248 0.01321 0.0
C716 C 0.83114 0.37565 0.99657 0.0
C717 C 0.83517 0.35242 0.00479 0.0
C718 C 0.84804 0.33692 0.98929 0.0
C719 C 0.85682 0.34442 0.96545 0.0
C720 C 0.85267 0.36738 0.95702 0.0
C721 C 0.83986 0.38295 0.97246 0.0
H722 H 0.86681 0.33246 0.95347 0.0
H723 H 0.75198 0.49321 0.10001 0.0
H724 H 0.07212 0.74197 0.93809 0.0
H725 H 0.07906 0.77593 0.96553 0.0
H726 H 0.03636 0.74498 0.02547 0.0
H727 H 0.02982 0.71033 0.99822 0.0
H728 H 0.05396 0.80852 0.98663 0.0
H729 H 0.06014 0.76036 0.08429 0.0
H730 H 0.06861 0.7207 0.10136 0.0
H731 H 0.11111 0.70565 0.03481 0.0
H732 H 0.10311 0.74529 0.01753 0.0
H733 H 0.08416 0.89976 0.07034 0.0
H734 H 0.06246 0.86475 0.05655 0.0
H735 H 0.12607 0.82362 0.06262 0.0
H736 H 0.14725 0.8583 0.07815 0.0
H737 H 0.09187 0.79628 0.07194 0.0
H738 H 0.10725 0.85358 0.00478 0.0
H739 H 0.10499 0.89248 0.98378 0.0
H740 H 0.02965 0.88805 0.9827 0.0
H741 H 0.03147 0.84925 0.00406 0.0
C742 C 0.06397 0.74237 0.957 0.0
C743 C 0.05059 0.72327 0.96602 0.0
C744 C 0.0679 0.76192 0.97267 0.0
C745 C 0.05848 0.76292 0.9977 0.0
C746 C 0.04412 0.74442 0.00637 0.0
C747 C 0.04031 0.72468 0.99072 0.0
C748 C 0.06489 0.78289 0.01482 0.0
C749 C 0.06199 0.80585 0.00543 0.0
C750 C 0.07567 0.77944 0.0392 0.0
C751 C 0.08075 0.75565 0.04949 0.0
C752 C 0.07131 0.74858 0.07334 0.0
C753 C 0.07604 0.72611 0.08305 0.0
C754 C 0.09031 0.71063 0.06912 0.0
C755 C 0.09998 0.71761 0.04552 0.0
C756 C 0.09533 0.74007 0.03575 0.0
C757 C 0.09323 0.88302 0.06945 0.0
C758 C 0.11733 0.88161 0.07505 0.0
C759 C 0.08091 0.86308 0.0614 0.0
C760 C 0.09278 0.84167 0.05768 0.0
C761 C 0.11649 0.83992 0.06518 0.0
C762 C 0.12863 0.85972 0.07404 0.0
C763 C 0.0815 0.82193 0.04345 0.0
C764 C 0.08336 0.79902 0.05342 0.0
C765 C 0.07061 0.82533 0.01906 0.0
C766 C 0.06949 0.84865 0.00625 0.0
C767 C 0.09021 0.86097 0.00019 0.0
C768 C 0.08901 0.88298 0.98821 0.0
C769 C 0.06719 0.89271 0.98189 0.0
C770 C 0.04654 0.88046 0.98755 0.0
C771 C 0.04764 0.85848 0.99964 0.0
H772 H 0.06629 0.90978 0.97267 0.0
H773 H 0.09393 0.69324 0.07666 0.0
H774 H 0.5975 0.11516 0.00662 0.0
H775 H 0.63168 0.09236 0.99383 0.0
H776 H 0.65122 0.08396 0.0739 0.0
H777 H 0.61706 0.10733 0.08692 0.0
H778 H 0.68695 0.09879 0.04792 0.0
H779 H 0.63421 0.03602 0.03647 0.0
H780 H 0.5991 0.01389 0.02277 0.0
H781 H 0.61629 0.02647 0.94319 0.0
H782 H 0.65137 0.04895 0.95637 0.0
H783 H 0.78742 0.03779 0.00024 0.0
H784 H 0.74937 0.04176 0.02191 0.0
H785 H 0.7193 0.0703 0.95212 0.0
H786 H 0.75724 0.06658 0.93035 0.0
H787 H 0.68932 0.03766 0.97952 0.0
H788 H 0.73824 0.10718 0.99469 0.0
H789 H 0.77426 0.12689 0.01005 0.0
H790 H 0.76366 0.09818 0.08592 0.0
H791 H 0.72772 0.07804 0.07088 0.0
C792 C 0.60887 0.10826 0.0216 0.0
C793 C 0.60466 0.11326 0.0478 0.0
C794 C 0.62832 0.09496 0.01423 0.0
C795 C 0.64392 0.08619 0.0329 0.0
C796 C 0.63937 0.0905 0.05917 0.0
C797 C 0.61989 0.10389 0.06657 0.0
C798 C 0.66627 0.07507 0.02461 0.0
C799 C 0.6874 0.08495 0.03349 0.0
C800 C 0.66696 0.05716 0.00558 0.0
C801 C 0.64546 0.04425 0.99745 0.0
C802 C 0.63043 0.03425 0.01604 0.0
C803 C 0.61059 0.02153 0.00837 0.0
C804 C 0.60558 0.01862 0.98213 0.0
C805 C 0.6203 0.02859 0.96351 0.0
C806 C 0.64018 0.04131 0.97108 0.0
C807 C 0.77263 0.04461 0.98939 0.0
C808 C 0.77539 0.05212 0.96366 0.0
C809 C 0.75093 0.04684 0.0018 0.0
C810 C 0.73163 0.05641 0.9886 0.0
C811 C 0.73401 0.06281 0.96257 0.0
C812 C 0.75574 0.06084 0.95024 0.0
C813 C 0.70956 0.0619 0.0024 0.0
C814 C 0.68864 0.05104 0.99445 0.0
C815 C 0.709 0.07865 0.02256 0.0
C816 C 0.73049 0.09089 0.0316 0.0
C817 C 0.74371 0.10492 0.01459 0.0
C818 C 0.76408 0.1162 0.02324 0.0
C819 C 0.77129 0.11373 0.04892 0.0
C820 C 0.75809 0.10004 0.06602 0.0
C821 C 0.73772 0.0887 0.05745 0.0
H822 H 0.78706 0.12247 0.05559 0.0
H823 H 0.59018 0.0088 0.97624 0.0
H824 H 0.46705 0.71779 0.50977 0.0
H825 H 0.45793 0.75482 0.48759 0.0
H826 H 0.40907 0.77288 0.54811 0.0
H827 H 0.41809 0.73625 0.57044 0.0
H828 H 0.38977 0.77565 0.49876 0.0
H829 H 0.45873 0.80091 0.54553 0.0
H830 H 0.50038 0.79929 0.55862 0.0
H831 H 0.52165 0.80913 0.47974 0.0
H832 H 0.48008 0.81047 0.46613 0.0
H833 H 0.39112 0.90746 0.4866 0.0
H834 H 0.41045 0.87134 0.50054 0.0
H835 H 0.38847 0.83682 0.43038 0.0
H836 H 0.36902 0.87306 0.41611 0.0
H837 H 0.44497 0.84116 0.48046 0.0
H838 H 0.36789 0.7825 0.45022 0.0
H839 H 0.32551 0.78557 0.44048 0.0
H840 H 0.31961 0.8445 0.492 0.0
H841 H 0.36186 0.84158 0.50226 0.0
C842 C 0.4546 0.7298 0.51852 0.0
C843 C 0.4432 0.724 0.5418 0.0
C844 C 0.44943 0.75092 0.50582 0.0
C845 C 0.43273 0.76643 0.51617 0.0
C846 C 0.4219 0.76102 0.53976 0.0
C847 C 0.42717 0.7401 0.55254 0.0
C848 C 0.42551 0.78785 0.50203 0.0
C849 C 0.40191 0.78986 0.49453 0.0
C850 C 0.44134 0.80638 0.49663 0.0
C851 C 0.46631 0.80548 0.50477 0.0
C852 C 0.47229 0.80247 0.53094 0.0
C853 C 0.49588 0.80167 0.53846 0.0
C854 C 0.51365 0.80402 0.52001 0.0
C855 C 0.50786 0.80725 0.494 0.0
C856 C 0.48429 0.80805 0.48638 0.0
C857 C 0.39067 0.89232 0.4739 0.0
C858 C 0.37831 0.89303 0.45036 0.0
C859 C 0.4019 0.87176 0.48183 0.0
C860 C 0.40078 0.85146 0.46655 0.0
C861 C 0.38944 0.85235 0.44246 0.0
C862 C 0.37834 0.87304 0.43436 0.0
C863 C 0.40925 0.8289 0.47728 0.0
C864 C 0.43302 0.82668 0.48416 0.0
C865 C 0.39353 0.81024 0.48248 0.0
C866 C 0.36806 0.81198 0.47673 0.0
C867 C 0.35751 0.79607 0.4595 0.0
C868 C 0.33353 0.79778 0.45389 0.0
C869 C 0.3199 0.81528 0.46554 0.0
C870 C 0.3302 0.83103 0.48291 0.0
C871 C 0.35417 0.82936 0.4886 0.0
H872 H 0.30134 0.81659 0.46115 0.0
H873 H 0.5319 0.80341 0.52588 0.0
H874 H 0.75597 0.45616 0.54784 0.0
H875 H 0.72143 0.44645 0.52195 0.0
H876 H 0.76624 0.42172 0.46041 0.0
H877 H 0.80101 0.43244 0.48593 0.0
H878 H 0.72534 0.44024 0.44113 0.0
H879 H 0.74733 0.38336 0.50456 0.0
H880 H 0.75868 0.36932 0.5479 0.0
H881 H 0.69237 0.39235 0.57836 0.0
H882 H 0.68076 0.40687 0.53527 0.0
H883 H 0.63374 0.35281 0.40586 0.0
H884 H 0.67112 0.37257 0.4158 0.0
H885 H 0.63606 0.41542 0.47269 0.0
H886 H 0.59892 0.39626 0.46286 0.0
H887 H 0.67473 0.38498 0.49031 0.0
H888 H 0.65381 0.44235 0.42472 0.0
H889 H 0.6436 0.45464 0.38043 0.0
H890 H 0.70908 0.42702 0.35248 0.0
H891 H 0.71953 0.41424 0.39659 0.0
C892 C 0.75844 0.44925 0.52852 0.0
C893 C 0.78108 0.44472 0.51899 0.0
C894 C 0.73873 0.44367 0.51376 0.0
C895 C 0.7413 0.43274 0.48958 0.0
C896 C 0.76389 0.43 0.47909 0.0
C897 C 0.78371 0.4361 0.49369 0.0
C898 C 0.72063 0.42167 0.47709 0.0
C899 C 0.7144 0.42794 0.45173 0.0
C900 C 0.7065 0.40542 0.49084 0.0
C901 C 0.71326 0.39636 0.51672 0.0
C902 C 0.73522 0.38555 0.52053 0.0
C903 C 0.7417 0.3775 0.54505 0.0
C904 C 0.72627 0.37999 0.56588 0.0
C905 C 0.7043 0.39046 0.56221 0.0
C906 C 0.69776 0.39858 0.53774 0.0
C907 C 0.63393 0.36679 0.42007 0.0
C908 C 0.61344 0.37265 0.43389 0.0
C909 C 0.65525 0.37808 0.42565 0.0
C910 C 0.65624 0.39532 0.44504 0.0
C911 C 0.63559 0.4021 0.4577 0.0
C912 C 0.61439 0.39101 0.45211 0.0
C913 C 0.67895 0.4042 0.45479 0.0
C914 C 0.68571 0.39721 0.47965 0.0
C915 C 0.6936 0.41938 0.44038 0.0
C916 C 0.68731 0.42706 0.4139 0.0
C917 C 0.66591 0.43865 0.40909 0.0
C918 C 0.66011 0.44577 0.38403 0.0
C919 C 0.67564 0.44154 0.36363 0.0
C920 C 0.69704 0.43024 0.36828 0.0
C921 C 0.70292 0.42307 0.39331 0.0
H922 H 0.67112 0.44708 0.34424 0.0
H923 H 0.73133 0.37376 0.58485 0.0
H924 H 0.11061 0.59701 0.47229 0.0
H925 H 0.08894 0.63341 0.47832 0.0
H926 H 0.12578 0.66461 0.41401 0.0
H927 H 0.14803 0.62807 0.40802 0.0
H928 H 0.12709 0.6925 0.45471 0.0
H929 H 0.06661 0.65258 0.40972 0.0
H930 H 0.04007 0.61982 0.39859 0.0
H931 H 0.0089 0.62334 0.47404 0.0
H932 H 0.03546 0.6559 0.48579 0.0
H933 H 0.03073 0.78393 0.48415 0.0
H934 H 0.04237 0.74901 0.45929 0.0
H935 H 0.08501 0.72556 0.52317 0.0
H936 H 0.07353 0.75999 0.54808 0.0
H937 H 0.04113 0.69817 0.47007 0.0
H938 H 0.13854 0.71333 0.4979 0.0
H939 H 0.16474 0.74651 0.50859 0.0
H940 H 0.12163 0.79311 0.46366 0.0
H941 H 0.0954 0.76015 0.45235 0.0
C942 C 0.11405 0.6115 0.45923 0.0
C943 C 0.13124 0.60968 0.43979 0.0
C944 C 0.1014 0.63226 0.46255 0.0
C945 C 0.10548 0.65164 0.4464 0.0
C946 C 0.12226 0.64978 0.42658 0.0
C947 C 0.13496 0.62892 0.42321 0.0
C948 C 0.09389 0.67439 0.45216 0.0
C949 C 0.10825 0.69381 0.45764 0.0
C950 C 0.06924 0.67625 0.45564 0.0
C951 C 0.05309 0.65671 0.44865 0.0
C952 C 0.05419 0.6463 0.424 0.0
C953 C 0.03912 0.62777 0.41757 0.0
C954 C 0.02278 0.61954 0.43558 0.0
C955 C 0.02152 0.62979 0.46008 0.0
C956 C 0.03655 0.64832 0.46662 0.0
C957 C 0.04224 0.77111 0.49306 0.0
C958 C 0.05143 0.7749 0.51799 0.0
C959 C 0.04884 0.7512 0.47884 0.0
C960 C 0.06481 0.73501 0.48931 0.0
C961 C 0.07289 0.73807 0.51467 0.0
C962 C 0.06627 0.75778 0.52888 0.0
C963 C 0.07453 0.71562 0.47357 0.0
C964 C 0.05986 0.69693 0.46639 0.0
C965 C 0.09887 0.71445 0.46823 0.0
C966 C 0.11493 0.73427 0.4744 0.0
C967 C 0.13474 0.73062 0.49015 0.0
C968 C 0.14958 0.7494 0.49635 0.0
C969 C 0.14483 0.77191 0.48686 0.0
C970 C 0.12527 0.77567 0.47106 0.0
C971 C 0.11039 0.75695 0.46477 0.0
H972 H 0.15632 0.78643 0.49172 0.0
H973 H 0.01109 0.60524 0.43055 0.0
H974 H 0.70727 0.04722 0.49474 0.0
H975 H 0.74476 0.05702 0.47427 0.0
H976 H 0.77844 0.05727 0.54909 0.0
H977 H 0.74081 0.04863 0.56962 0.0
H978 H 0.78735 0.09589 0.5264 0.0
H979 H 0.79037 0.01522 0.49974 0.0
H980 H 0.77601 0.97865 0.47957 0.0
H981 H 0.77123 0.01355 0.40617 0.0
H982 H 0.78528 0.05045 0.42597 0.0
H983 H 0.90414 0.10948 0.49059 0.0
H984 H 0.86836 0.08879 0.5026 0.0
H985 H 0.83547 0.11054 0.43146 0.0
H986 H 0.87146 0.13157 0.41904 0.0
H987 H 0.82587 0.0611 0.44932 0.0
H988 H 0.82311 0.14211 0.47827 0.0
H989 H 0.83964 0.17722 0.49961 0.0
H990 H 0.84564 0.139 0.57088 0.0
H991 H 0.82948 0.10355 0.54984 0.0
C992 C 0.72282 0.0488 0.5067 0.0
C993 C 0.72118 0.04739 0.53375 0.0
C994 C 0.74427 0.05434 0.49499 0.0
C995 C 0.76447 0.05793 0.51012 0.0
C996 C 0.76307 0.0548 0.53701 0.0
C997 C 0.7416 0.04979 0.54873 0.0
C998 C 0.78631 0.06761 0.49857 0.0
C999 C 0.79588 0.08797 0.50978 0.0
C1000 C 0.79712 0.05782 0.47636 0.0
C1001 C 0.78865 0.03567 0.46441 0.0
C1002 C 0.78606 0.01516 0.47934 0.0
C1003 C 0.77802 0.99436 0.46796 0.0
C1004 C 0.77265 0.99379 0.44162 0.0
C1005 C 0.77537 0.01402 0.42658 0.0
C1006 C 0.78339 0.03488 0.43787 0.0
C1007 C 0.88945 0.10974 0.47726 0.0
C1008 C 0.89054 0.12252 0.45399 0.0
C1009 C 0.86907 0.09777 0.48415 0.0
C1010 C 0.84933 0.09834 0.468 0.0
C1011 C 0.85063 0.10993 0.44411 0.0
C1012 C 0.87112 0.12203 0.43715 0.0
C1013 C 0.82682 0.08885 0.47758 0.0
C1014 C 0.81715 0.0688 0.46594 0.0
C1015 C 0.81596 0.09868 0.49962 0.0
C1016 C 0.82526 0.12013 0.51242 0.0
C1017 C 0.8281 0.14115 0.49844 0.0
C1018 C 0.83739 0.16112 0.51049 0.0
C1019 C 0.84373 0.16032 0.53657 0.0
C1020 C 0.84073 0.13958 0.55067 0.0
C1021 C 0.83149 0.11956 0.53871 0.0
H1022 H 0.85093 0.17579 0.54586 0.0
H1023 H 0.76643 0.97767 0.43284 0.0
H1024 H 0.48505 0.90241 0.00705 0.0
H1025 H 0.49241 0.94268 0.02114 0.0
H1026 H 0.49886 0.96474 0.94173 0.0
H1027 H 0.49155 0.92431 0.92738 0.0
H1028 H 0.52863 0.99 0.97628 0.0
H1029 H 0.44739 0.96915 0.96644 0.0
H1030 H 0.4123 0.94439 0.97262 0.0
H1031 H 0.41704 0.95405 0.05478 0.0
H1032 H 0.45236 0.97875 0.04905 0.0
H1033 H 0.49721 0.10758 0.9885 0.0
H1034 H 0.49042 0.06674 0.97626 0.0
H1035 H 0.49107 0.04641 0.05651 0.0
H1036 H 0.49811 0.08736 0.06906 0.0
H1037 H 0.45805 0.02037 0.02205 0.0
H1038 H 0.53996 0.0427 0.03026 0.0
H1039 H 0.57302 0.06966 0.02187 0.0
H1040 H 0.56552 0.05838 0.94022 0.0
H1041 H 0.53213 0.03158 0.94815 0.0
C1042 C 0.48879 0.91565 0.99257 0.0
C1043 C 0.48736 0.91028 0.96609 0.0
C1044 C 0.49291 0.93867 0.00067 0.0
C1045 C 0.49559 0.95671 0.98244 0.0
C1046 C 0.49667 0.95103 0.95607 0.0
C1047 C 0.49257 0.9279 0.94791 0.0
C1048 C 0.49416 0.98157 0.9908 0.0
C1049 C 0.51316 0.99667 0.9861 0.0
C1050 C 0.47398 0.99024 0.00376 0.0
C1051 C 0.45265 0.97558 0.00733 0.0
C1052 C 0.44105 0.96585 0.98584 0.0
C1053 C 0.4211 0.95185 0.98926 0.0
C1054 C 0.41249 0.94755 0.01409 0.0
C1055 C 0.42376 0.95735 0.03555 0.0
C1056 C 0.44373 0.97139 0.03223 0.0
C1057 C 0.49514 0.09461 0.00365 0.0
C1058 C 0.49862 0.10064 0.02974 0.0
C1059 C 0.49133 0.07125 0.99659 0.0
C1060 C 0.4908 0.05361 0.01548 0.0
C1061 C 0.4916 0.05986 0.04169 0.0
C1062 C 0.49554 0.08328 0.04881 0.0
C1063 C 0.49253 0.02868 0.00766 0.0
C1064 C 0.47358 0.01361 0.0124 0.0
C1065 C 0.51266 0.02012 0.99456 0.0
C1066 C 0.5334 0.03534 0.98978 0.0
C1067 C 0.54528 0.04608 0.01051 0.0
C1068 C 0.56403 0.06138 0.00584 0.0
C1069 C 0.57123 0.06592 0.98051 0.0
C1070 C 0.55981 0.05497 0.95982 0.0
C1071 C 0.54101 0.03968 0.96439 0.0
H1072 H 0.58581 0.07769 0.97691 0.0
H1073 H 0.39704 0.93669 0.01669 0.0
H1074 H 0.41441 0.50652 0.05624 0.0
H1075 H 0.45654 0.50068 0.04856 0.0
H1076 H 0.4487 0.52763 0.97114 0.0
H1077 H 0.40679 0.53342 0.97852 0.0
H1078 H 0.48353 0.47661 0.01129 0.0
H1079 H 0.49392 0.56737 0.96142 0.0
H1080 H 0.47445 0.60616 0.96127 0.0
H1081 H 0.44917 0.59419 0.03833 0.0
H1082 H 0.46884 0.55555 0.03914 0.0
H1083 H 0.59381 0.51085 0.9406 0.0
H1084 H 0.5532 0.52166 0.95113 0.0
H1085 H 0.56416 0.49966 0.02994 0.0
H1086 H 0.6046 0.48899 0.01975 0.0
H1087 H 0.52819 0.54938 0.99081 0.0
H1088 H 0.5219 0.46002 0.04164 0.0
H1089 H 0.54073 0.42089 0.04035 0.0
H1090 H 0.55627 0.43028 0.95978 0.0
H1091 H 0.53771 0.46939 0.9607 0.0
C1092 C 0.42155 0.51059 0.03737 0.0
C1093 C 0.40735 0.52067 0.01809 0.0
C1094 C 0.44561 0.50736 0.03306 0.0
C1095 C 0.45572 0.51432 0.00953 0.0
C1096 C 0.44125 0.52264 0.98962 0.0
C1097 C 0.41728 0.52578 0.99384 0.0
C1098 C 0.4815 0.51412 0.00609 0.0
C1099 C 0.49333 0.49256 0.00724 0.0
C1100 C 0.49416 0.53495 0.00029 0.0
C1101 C 0.48266 0.55842 0.0002 0.0
C1102 C 0.4843 0.57306 0.97838 0.0
C1103 C 0.47323 0.59502 0.97818 0.0
C1104 C 0.46051 0.6026 0.99974 0.0
C1105 C 0.45895 0.58827 0.0216 0.0
C1106 C 0.47004 0.56632 0.02193 0.0
C1107 C 0.58784 0.50915 0.96038 0.0
C1108 C 0.60227 0.49873 0.97925 0.0
C1109 C 0.56463 0.51529 0.96634 0.0
C1110 C 0.55567 0.511 0.99116 0.0
C1111 C 0.57074 0.50283 0.0106 0.0
C1112 C 0.59386 0.49677 0.00472 0.0
C1113 C 0.53008 0.51188 0.99595 0.0
C1114 C 0.51834 0.53351 0.99505 0.0
C1115 C 0.51741 0.49116 0.00192 0.0
C1116 C 0.52866 0.46767 0.00133 0.0
C1117 C 0.52939 0.45369 0.0237 0.0
C1118 C 0.54009 0.43155 0.02304 0.0
C1119 C 0.5499 0.42315 1.00006 0.0
C1120 C 0.54897 0.43686 0.97767 0.0
C1121 C 0.53842 0.45904 0.97826 0.0
H1122 H 0.55811 0.406 0.99955 0.0
H1123 H 0.45192 0.61959 0.99953 0.0
H1124 H 0.99803 0.58522 0.92868 0.0
H1125 H 0.99071 0.54424 0.94089 0.0
H1126 H 0.00764 0.56071 0.02013 0.0
H1127 H 0.01465 0.60157 0.00819 0.0
H1128 H 0.02448 0.5157 0.95948 0.0
H1129 H 0.98116 0.52188 0.06068 0.0
H1130 H 0.95256 0.54671 0.08391 0.0
H1131 H 0.92069 0.56647 0.01188 0.0
H1132 H 0.94886 0.54152 0.98825 0.0
H1133 H 0.0031 0.41414 0.06096 0.0
H1134 H 0.00917 0.4555 0.04933 0.0
H1135 H 0.99254 0.43948 0.96991 0.0
H1136 H 0.98679 0.3983 0.98125 0.0
H1137 H 0.97554 0.48431 0.03088 0.0
H1138 H 0.01913 0.47811 0.92971 0.0
H1139 H 0.04796 0.45341 0.90666 0.0
H1140 H 0.07962 0.4339 0.97888 0.0
H1141 H 0.0512 0.45872 0.00233 0.0
C1142 C -0.00058 0.58027 0.94884 0.0
C1143 C 0.00702 0.59661 0.96745 0.0
C1144 C 0.99545 0.5568 0.95575 0.0
C1145 C 0.99873 0.54937 0.9814 0.0
C1146 C 0.00477 0.56603 0.00028 0.0
C1147 C 0.0088 0.58942 0.99339 0.0
C1148 C 0.9982 0.52396 0.98804 0.0
C1149 C 0.01345 0.50875 0.97478 0.0
C1150 C 0.98447 0.51507 0.00864 0.0
C1151 C 0.9673 0.53 0.02268 0.0
C1152 C 0.96799 0.53146 0.0498 0.0
C1153 C 0.95187 0.54557 0.06304 0.0
C1154 C 0.93487 0.55822 0.04937 0.0
C1155 C 0.93392 0.55674 0.02244 0.0
C1156 C 0.95 0.54265 0.00911 0.0
C1157 C 0.00142 0.41932 0.0409 0.0
C1158 C 0.99442 0.40295 0.02203 0.0
C1159 C 0.00468 0.44299 0.03432 0.0
C1160 C 0.00126 0.45061 0.00876 0.0
C1161 C 0.99553 0.43402 0.98969 0.0
C1162 C 0.99222 0.41044 0.99624 0.0
C1163 C 0.00177 0.47605 0.00226 0.0
C1164 C 0.98655 0.49127 0.01556 0.0
C1165 C 0.01556 0.48497 0.98172 0.0
C1166 C 0.03286 0.4701 0.96778 0.0
C1167 C 0.03229 0.46861 0.94066 0.0
C1168 C 0.04855 0.45458 0.92753 0.0
C1169 C 0.06556 0.44203 0.9413 0.0
C1170 C 0.06638 0.44355 0.96824 0.0
C1171 C 0.05017 0.45756 0.98147 0.0
H1172 H 0.07813 0.43118 0.9311 0.0
H1173 H 0.92241 0.56914 0.05966 0.0
H1174 H 0.07483 0.99125 0.07118 0.0
H1175 H 0.03421 0.99738 0.05694 0.0
H1176 H 0.0561 0.99112 0.97746 0.0
H1177 H 0.09663 0.9847 0.99152 0.0
H1178 H 0.01931 0.02536 0.98654 0.0
H1179 H 0.03994 0.94446 0.00488 0.0
H1180 H 0.05549 0.91276 0.03257 0.0
H1181 H 0.00128 0.92592 0.08838 0.0
H1182 H 0.98589 0.9583 0.0615 0.0
H1183 H 0.91199 0.99868 0.92995 0.0
H1184 H 0.9522 0.98892 0.94277 0.0
H1185 H 0.93204 0.992 0.02303 0.0
H1186 H 0.89182 0.00163 0.01042 0.0
H1187 H 0.96812 0.95871 0.01293 0.0
H1188 H 0.95023 0.04092 0.99896 0.0
H1189 H 0.93239 0.07241 0.97272 0.0
H1190 H 0.97965 0.05669 0.91039 0.0
H1191 H 0.99766 0.02491 0.93626 0.0
C1192 C 0.07113 0.99203 0.05066 0.0
C1193 C 0.08881 0.98732 0.03244 0.0
C1194 C 0.04791 0.99536 0.04257 0.0
C1195 C 0.0422 0.99429 0.01619 0.0
C1196 C 0.06019 0.9919 0.9979 0.0
C1197 C 0.08331 0.98825 0.00597 0.0
C1198 C 0.0174 0.99283 0.00782 0.0
C1199 C 0.00821 0.01068 0.99209 0.0
C1200 C 0.00287 0.97377 0.01535 0.0
C1201 C 0.01192 0.95402 0.0313 0.0
C1202 C 0.03147 0.94078 0.02318 0.0
C1203 C 0.04024 0.92266 0.03871 0.0
C1204 C 0.02936 0.91731 0.06217 0.0
C1205 C 0.0097 0.9301 0.0702 0.0
C1206 C 0.00098 0.94838 0.05486 0.0
C1207 C 0.91587 0.99635 0.95029 0.0
C1208 C 0.89887 0.00133 0.96921 0.0
C1209 C 0.93888 0.99088 0.95758 0.0
C1210 C 0.94512 0.99027 0.98384 0.0
C1211 C 0.92758 0.99253 0.00267 0.0
C1212 C 0.90461 0.99809 0.99541 0.0
C1213 C 0.97013 0.99117 0.99165 0.0
C1214 C 0.97931 0.97329 0.0073 0.0
C1215 C 0.98462 0.01028 0.9843 0.0
C1216 C 0.97512 0.03043 0.96942 0.0
C1217 C 0.95682 0.0442 0.97966 0.0
C1218 C 0.94662 0.06203 0.96483 0.0
C1219 C 0.95468 0.06635 0.93978 0.0
C1220 C 0.97329 0.05317 0.92972 0.0
C1221 C 0.98356 0.0353 0.94448 0.0
H1222 H 0.94665 0.08008 0.92828 0.0
H1223 H 0.03615 0.90324 0.07412 0.0
H1224 H 0.45332 0.59079 0.4995 0.0
H1225 H 0.46244 0.54963 0.49052 0.0
H1226 H 0.51528 0.55027 0.55023 0.0
H1227 H 0.50547 0.59143 0.56028 0.0
H1228 H 0.51957 0.52821 0.48659 0.0
H1229 H 0.48942 0.52383 0.57509 0.0
H1230 H 0.46134 0.53475 0.60932 0.0
H1231 H 0.40435 0.50798 0.56365 0.0
H1232 H 0.43209 0.49774 0.5286 0.0
H1233 H 0.5162 0.39661 0.51818 0.0
H1234 H 0.50753 0.43684 0.53166 0.0
H1235 H 0.48939 0.45482 0.45316 0.0
H1236 H 0.49818 0.41452 0.43945 0.0
H1237 H 0.47069 0.46755 0.52997 0.0
H1238 H 0.51575 0.50781 0.4398 0.0
H1239 H 0.5457 0.49686 0.40747 0.0
H1240 H 0.57762 0.4496 0.46188 0.0
H1241 H 0.54812 0.46056 0.49464 0.0
C1242 C 0.46713 0.58232 0.51053 0.0
C1243 C 0.47873 0.59431 0.53061 0.0
C1244 C 0.47219 0.55878 0.50545 0.0
C1245 C 0.48922 0.54695 0.51999 0.0
C1246 C 0.5018 0.55913 0.53911 0.0
C1247 C 0.49629 0.5826 0.54472 0.0
C1248 C 0.49312 0.52164 0.5154 0.0
C1249 C 0.50901 0.51489 0.49611 0.0
C1250 C 0.47946 0.50439 0.5281 0.0
C1251 C 0.46273 0.51064 0.54895 0.0
C1252 C 0.47084 0.5208 0.57206 0.0
C1253 C 0.455 0.5268 0.59163 0.0
C1254 C 0.43103 0.52233 0.58849 0.0
C1255 C 0.42288 0.51172 0.56584 0.0
C1256 C 0.43865 0.50588 0.54611 0.0
C1257 C 0.50983 0.40897 0.50387 0.0
C1258 C 0.5081 0.40248 0.4777 0.0
C1259 C 0.50487 0.43195 0.51163 0.0
C1260 C 0.49828 0.44889 0.49333 0.0
C1261 C 0.4948 0.44204 0.46751 0.0
C1262 C 0.49965 0.41898 0.45974 0.0
C1263 C 0.49703 0.474 0.5009 0.0
C1264 C 0.48145 0.48077 0.52055 0.0
C1265 C 0.51145 0.49119 0.48899 0.0
C1266 C 0.52955 0.48483 0.46956 0.0
C1267 C 0.52922 0.49516 0.44489 0.0
C1268 C 0.54612 0.48895 0.42649 0.0
C1269 C 0.56351 0.47249 0.43259 0.0
C1270 C 0.5641 0.46229 0.45714 0.0
C1271 C 0.54728 0.46848 0.47562 0.0
H1272 H 0.57655 0.46768 0.41831 0.0
H1273 H 0.41879 0.5269 0.60369 0.0
H1274 H 0.09203 0.49463 0.43515 0.0
H1275 H 0.05071 0.48608 0.44451 0.0
H1276 H 0.06246 0.50184 0.52505 0.0
H1277 H 0.1037 0.50992 0.516 0.0
H1278 H 0.03152 0.46702 0.52034 0.0
H1279 H 0.0424 0.54419 0.48433 0.0
H1280 H 0.05615 0.57288 0.45191 0.0
H1281 H 0.01283 0.54018 0.3942 0.0
H1282 H 0.99902 0.51113 0.42624 0.0
H1283 H 0.91661 0.49691 0.55881 0.0
H1284 H 0.95762 0.50441 0.54692 0.0
H1285 H 0.94416 0.47813 0.47014 0.0
H1286 H 0.90328 0.47045 0.48187 0.0
H1287 H 0.97551 0.51769 0.47217 0.0
H1288 H 0.96284 0.44167 0.51211 0.0
H1289 H 0.9487 0.41587 0.54718 0.0
H1290 H 0.99609 0.44911 0.60039 0.0
H1291 H 0.00997 0.47564 0.5659 0.0
C1292 C 0.08596 0.49559 0.45497 0.0
C1293 C 0.10104 0.50323 0.47478 0.0
C1294 C 0.06231 0.49091 0.46025 0.0
C1295 C 0.05341 0.49391 0.48537 0.0
C1296 C 0.0689 0.49959 0.5055 0.0
C1297 C 0.09249 0.50422 0.50026 0.0
C1298 C 0.02778 0.49315 0.49046 0.0
C1299 C 0.0193 0.4782 0.50991 0.0
C1300 C 0.01183 0.50774 0.47683 0.0
C1301 C 0.0199 0.52532 0.45759 0.0
C1302 C 0.03594 0.54302 0.46468 0.0
C1303 C 0.04374 0.55935 0.44639 0.0
C1304 C 0.03548 0.55826 0.42098 0.0
C1305 C 0.01928 0.54094 0.41387 0.0
C1306 C 0.01145 0.52456 0.43209 0.0
C1307 C 0.9222 0.49344 0.53917 0.0
C1308 C 0.90683 0.48293 0.52132 0.0
C1309 C 0.94564 0.49758 0.53246 0.0
C1310 C 0.95391 0.49145 0.50779 0.0
C1311 C 0.93809 0.48289 0.48929 0.0
C1312 C 0.91476 0.47851 0.49605 0.0
C1313 C 0.97935 0.49163 0.50205 0.0
C1314 C 0.98775 0.50645 0.48248 0.0
C1315 C 0.99527 0.47719 0.51586 0.0
C1316 C 0.98727 0.46083 0.53645 0.0
C1317 C 0.97011 0.44362 0.53133 0.0
C1318 C 0.96215 0.42885 0.55109 0.0
C1319 C 0.97151 0.43083 0.57595 0.0
C1320 C 0.98885 0.4476 0.58112 0.0
C1321 C 0.99673 0.46254 0.56149 0.0
H1322 H 0.96534 0.41936 0.5912 0.0
H1323 H 0.04154 0.5709 0.40684 0.0
H1324 H 0.0057 0.89872 0.47786 0.0
H1325 H 0.00076 0.94071 0.47 0.0
H1326 H 0.99177 0.95263 0.55168 0.0
H1327 H 0.99689 0.91048 0.55986 0.0
H1328 H 0.9634 0.9824 0.51866 0.0
H1329 H 0.04339 0.95822 0.53096 0.0
H1330 H 0.07786 0.93306 0.52299 0.0
H1331 H 0.07911 0.95494 0.44358 0.0
H1332 H 0.04426 0.9799 0.45096 0.0
H1333 H 0.99334 0.10129 0.52084 0.0
H1334 H 0.99882 0.05961 0.53015 0.0
H1335 H 0.00805 0.04553 0.44891 0.0
H1336 H 0.00245 0.08736 0.43931 0.0
H1337 H 0.03669 0.01697 0.48276 0.0
H1338 H 0.95584 0.04025 0.47047 0.0
H1339 H 0.92098 0.06493 0.47859 0.0
H1340 H 0.92178 0.0449 0.5586 0.0
H1341 H 0.95688 0.02033 0.55101 0.0
C1342 C 0.00196 0.91011 0.49414 0.0
C1343 C 0.00205 0.90131 0.51955 0.0
C1344 C 0.99924 0.93413 0.48958 0.0
C1345 C 0.99646 0.94975 0.51032 0.0
C1346 C 0.99408 0.9408 0.53545 0.0
C1347 C 0.99692 0.9167 0.54007 0.0
C1348 C 0.99872 0.97538 0.50594 0.0
C1349 C 0.97948 0.99001 0.51111 0.0
C1350 C 0.01968 0.9852 0.49582 0.0
C1351 C 0.041 0.97067 0.49143 0.0
C1352 C 0.05084 0.95747 0.51172 0.0
C1353 C 0.07043 0.94319 0.50729 0.0
C1354 C 0.08054 0.94221 0.48271 0.0
C1355 C 0.07117 0.95562 0.46256 0.0
C1356 C 0.0515 0.96983 0.46686 0.0
C1357 C 0.99723 0.08949 0.50497 0.0
C1358 C 0.9971 0.09758 0.47927 0.0
C1359 C 0.00027 0.06565 0.51035 0.0
C1360 C 0.00329 0.0495 0.49016 0.0
C1361 C 0.00557 0.05777 0.46473 0.0
C1362 C 0.00244 0.08169 0.45929 0.0
C1363 C 0.00132 0.02397 0.49534 0.0
C1364 C 0.02062 0.00936 0.49034 0.0
C1365 C 0.98043 0.01417 0.50569 0.0
C1366 C 0.95913 0.02865 0.51023 0.0
C1367 C 0.94868 0.04125 0.48984 0.0
C1368 C 0.92887 0.0552 0.49433 0.0
C1369 C 0.91922 0.05655 0.51912 0.0
C1370 C 0.92931 0.04387 0.53942 0.0
C1371 C 0.94915 0.02991 0.53503 0.0
H1372 H 0.9039 0.06738 0.52259 0.0
H1373 H 0.09576 0.93124 0.47932 0.0
H1374 H 0.59756 0.01595 0.48505 0.0
H1375 H 0.55621 0.01168 0.47359 0.0
H1376 H 0.5392 0.9973 0.55324 0.0
H1377 H 0.5807 0.00163 0.565 0.0
H1378 H 0.51272 0.9707 0.51828 0.0
H1379 H 0.53344 0.05088 0.53338 0.0
H1380 H 0.55666 0.08722 0.52849 0.0
H1381 H 0.53919 0.08981 0.4478 0.0
H1382 H 0.51619 0.05322 0.45211 0.0
H1383 H 0.39346 0.99837 0.51416 0.0
H1384 H 0.43452 0.00526 0.52534 0.0
H1385 H 0.45185 0.01205 0.44459 0.0
H1386 H 0.41067 0.00489 0.43308 0.0
H1387 H 0.47793 0.04314 0.48056 0.0
H1388 H 0.45784 0.96123 0.4667 0.0
H1389 H 0.43401 0.92555 0.47355 0.0
H1390 H 0.44974 0.9275 0.5547 0.0
H1391 H 0.47343 0.96341 0.54836 0.0
C1392 C 0.58516 0.01128 0.50008 0.0
C1393 C 0.59236 0.00943 0.52601 0.0
C1394 C 0.56151 0.00899 0.49349 0.0
C1395 C 0.54465 0.00478 0.51268 0.0
C1396 C 0.55199 0.00077 0.5382 0.0
C1397 C 0.57571 0.00314 0.54486 0.0
C1398 C 0.51933 0.00636 0.50634 0.0
C1399 C 0.50507 0.9866 0.5103 0.0
C1400 C 0.50944 0.02711 0.49572 0.0
C1401 C 0.52329 0.04913 0.49301 0.0
C1402 C 0.53473 0.05906 0.51453 0.0
C1403 C 0.54783 0.07973 0.51188 0.0
C1404 C 0.54945 0.09079 0.48784 0.0
C1405 C 0.53795 0.0812 0.46641 0.0
C1406 C 0.52487 0.06049 0.46895 0.0
C1407 C 0.40581 0.00202 0.49875 0.0
C1408 C 0.39887 0.00071 0.47269 0.0
C1409 C 0.42929 0.00589 0.50521 0.0
C1410 C 0.44619 0.00867 0.48575 0.0
C1411 C 0.439 0.0098 0.45984 0.0
C1412 C 0.41546 0.00578 0.45331 0.0
C1413 C 0.47145 0.00744 0.49235 0.0
C1414 C 0.48565 0.02726 0.48848 0.0
C1415 C 0.48127 0.98683 0.5033 0.0
C1416 C 0.4672 0.96514 0.5071 0.0
C1417 C 0.45605 0.95417 0.48604 0.0
C1418 C 0.4426 0.93388 0.48982 0.0
C1419 C 0.4403 0.92431 0.51456 0.0
C1420 C 0.45151 0.93496 0.53555 0.0
C1421 C 0.46497 0.95527 0.53187 0.0
H1422 H 0.4299 0.90861 0.51749 0.0
H1423 H 0.55956 0.10681 0.48583 0.0
H1424 H 0.58906 0.27549 0.34312 0.0
H1425 H 0.58418 0.25464 0.30239 0.0
H1426 H 0.51381 0.28207 0.29514 0.0
H1427 H 0.51856 0.30318 0.33632 0.0
H1428 H 0.51743 0.23317 0.28441 0.0
H1429 H 0.55413 0.30491 0.25805 0.0
H1430 H 0.58341 0.33684 0.25983 0.0
H1431 H 0.63877 0.28722 0.24542 0.0
H1432 H 0.60986 0.25492 0.24392 0.0
H1433 H 0.51471 0.19041 0.15237 0.0
H1434 H 0.51062 0.2125 0.19285 0.0
H1435 H 0.58432 0.20181 0.20881 0.0
H1436 H 0.58859 0.18052 0.1682 0.0
H1437 H 0.57419 0.24618 0.21309 0.0
H1438 H 0.53869 0.1741 0.24349 0.0
H1439 H 0.5101 0.1415 0.24281 0.0
H1440 H 0.45328 0.19076 0.2502 0.0
H1441 H 0.48154 0.22369 0.2506 0.0
C1442 C 0.57254 0.27723 0.33289 0.0
C1443 C 0.55422 0.29109 0.34292 0.0
C1444 C 0.5698 0.2653 0.30956 0.0
C1445 C 0.54871 0.26695 0.29565 0.0
C1446 C 0.53025 0.28062 0.3056 0.0
C1447 C 0.53304 0.29276 0.329 0.0
C1448 C 0.54633 0.25423 0.27076 0.0
C1449 C 0.52951 0.23626 0.26856 0.0
C1450 C 0.56237 0.25805 0.25032 0.0
C1451 C 0.57982 0.27747 0.25103 0.0
C1452 C 0.57256 0.30077 0.25543 0.0
C1453 C 0.58909 0.31895 0.25637 0.0
C1454 C 0.61294 0.31406 0.25278 0.0
C1455 C 0.62029 0.29098 0.2482 0.0
C1456 C 0.60383 0.27274 0.24727 0.0
C1457 C 0.52989 0.19238 0.16482 0.0
C1458 C 0.552 0.18387 0.15709 0.0
C1459 C 0.52754 0.20501 0.18796 0.0
C1460 C 0.54719 0.20892 0.20389 0.0
C1461 C 0.56895 0.19925 0.19675 0.0
C1462 C 0.57136 0.18698 0.17357 0.0
C1463 C 0.54582 0.22445 0.22698 0.0
C1464 C 0.5619 0.24313 0.22877 0.0
C1465 C 0.52919 0.22114 0.24702 0.0
C1466 C 0.51221 0.20136 0.24677 0.0
C1467 C 0.52009 0.17799 0.24475 0.0
C1468 C 0.50394 0.15945 0.24446 0.0
C1469 C 0.47988 0.16406 0.24637 0.0
C1470 C 0.47192 0.18721 0.24866 0.0
C1471 C 0.48799 0.20582 0.24894 0.0
H1472 H 0.46741 0.14968 0.24615 0.0
H1473 H 0.62571 0.32815 0.25351 0.0
H1474 H 0.18405 0.52823 0.33021 0.0
H1475 H 0.20327 0.52574 0.28782 0.0
H1476 H 0.26057 0.56825 0.31635 0.0
H1477 H 0.24103 0.57164 0.35799 0.0
H1478 H 0.24866 0.58433 0.27314 0.0
H1479 H 0.26504 0.50682 0.30416 0.0
H1480 H 0.25591 0.46768 0.32208 0.0
H1481 H 0.21314 0.45211 0.25586 0.0
H1482 H 0.22178 0.49129 0.23769 0.0
H1483 H 0.32034 0.53107 0.15946 0.0
H1484 H 0.30374 0.52627 0.20299 0.0
H1485 H 0.24724 0.57355 0.18318 0.0
H1486 H 0.26385 0.57882 0.14025 0.0
H1487 H 0.262 0.51116 0.22296 0.0
H1488 H 0.23611 0.6096 0.23239 0.0
H1489 H 0.24955 0.64825 0.21653 0.0
H1490 H 0.31934 0.62098 0.20652 0.0
H1491 H 0.3064 0.58228 0.22267 0.0
C1492 C 0.2008 0.53692 0.32737 0.0
C1493 C 0.21094 0.55031 0.34728 0.0
C1494 C 0.21185 0.53537 0.30322 0.0
C1495 C 0.23349 0.5467 0.29886 0.0
C1496 C 0.24384 0.55949 0.31908 0.0
C1497 C 0.23263 0.56142 0.34292 0.0
C1498 C 0.24486 0.54658 0.27297 0.0
C1499 C 0.25158 0.56826 0.26229 0.0
C1500 C 0.24909 0.52565 0.25884 0.0
C1501 C 0.24389 0.50207 0.26968 0.0
C1502 C 0.25355 0.49511 0.29351 0.0
C1503 C 0.24849 0.47291 0.3037 0.0
C1504 C 0.23391 0.45744 0.29015 0.0
C1505 C 0.22441 0.46412 0.26635 0.0
C1506 C 0.22941 0.48631 0.25608 0.0
C1507 C 0.30433 0.54033 0.16442 0.0
C1508 C 0.2936 0.55559 0.14658 0.0
C1509 C 0.29482 0.53749 0.18921 0.0
C1510 C 0.27446 0.54984 0.19643 0.0
C1511 C 0.2632 0.5642 0.1782 0.0
C1512 C 0.27275 0.5672 0.15364 0.0
C1513 C 0.26546 0.54888 0.22331 0.0
C1514 C 0.25912 0.52711 0.23403 0.0
C1515 C 0.26219 0.56965 0.23793 0.0
C1516 C 0.27021 0.59298 0.22852 0.0
C1517 C 0.25434 0.61189 0.22692 0.0
C1518 C 0.26187 0.6338 0.21785 0.0
C1519 C 0.28527 0.63705 0.21045 0.0
C1520 C 0.3012 0.61842 0.21218 0.0
C1521 C 0.29377 0.59648 0.22125 0.0
H1522 H 0.29106 0.65401 0.20341 0.0
H1523 H 0.23001 0.44026 0.29807 0.0
H1524 H 0.93352 0.25652 0.14182 0.0
H1525 H 0.93567 0.23753 0.18394 0.0
H1526 H 0.97016 0.2988 0.21541 0.0
H1527 H 0.96903 0.31755 0.17263 0.0
H1528 H 0.9883 0.26105 0.23644 0.0
H1529 H 0.91004 0.28899 0.22368 0.0
H1530 H 0.87238 0.29429 0.20079 0.0
H1531 H 0.8605 0.21972 0.20269 0.0
H1532 H 0.89825 0.21395 0.2253 0.0
H1533 H 0.91533 0.22374 0.35818 0.0
H1534 H 0.91943 0.24335 0.31669 0.0
H1535 H 0.97727 0.19752 0.2972 0.0
H1536 H 0.97379 0.17828 0.3395 0.0
H1537 H 0.91337 0.22936 0.27096 0.0
H1538 H 0.01419 0.22528 0.25472 0.0
H1539 H 0.05073 0.22512 0.28043 0.0
H1540 H 0.0154 0.26104 0.34223 0.0
H1541 H 0.97876 0.26168 0.31677 0.0
C1542 C 0.94167 0.26594 0.15767 0.0
C1543 C 0.95082 0.28866 0.15406 0.0
C1544 C 0.94284 0.25507 0.18178 0.0
C1545 C 0.95253 0.26694 0.20306 0.0
C1546 C 0.96248 0.28933 0.19932 0.0
C1547 C 0.96175 0.30007 0.17494 0.0
C1548 C 0.95131 0.25623 0.22926 0.0
C1549 C 0.97192 0.25412 0.24402 0.0
C1550 C 0.92986 0.24763 0.23946 0.0
C1551 C 0.90707 0.25103 0.22598 0.0
C1552 C 0.89947 0.27371 0.21907 0.0
C1553 C 0.8781 0.2768 0.20616 0.0
C1554 C 0.86408 0.25735 0.20024 0.0
C1555 C 0.87139 0.23477 0.20727 0.0
C1556 C 0.89276 0.23158 0.22015 0.0
C1557 C 0.92896 0.21778 0.34512 0.0
C1558 C 0.94421 0.19939 0.35211 0.0
C1559 C 0.93128 0.22903 0.32133 0.0
C1560 C 0.94874 0.22208 0.30378 0.0
C1561 C 0.96391 0.20352 0.31057 0.0
C1562 C 0.96181 0.19242 0.33466 0.0
C1563 C 0.95039 0.23397 0.27822 0.0
C1564 C 0.9298 0.23624 0.26347 0.0
C1565 C 0.97168 0.24343 0.26854 0.0
C1566 C 0.99367 0.24328 0.28394 0.0
C1567 C 0.01425 0.2332 0.27376 0.0
C1568 C 0.03497 0.23302 0.2883 0.0
C1569 C 0.03536 0.24299 0.31298 0.0
C1570 C 0.01505 0.25323 0.32315 0.0
C1571 C 0.99429 0.25348 0.30869 0.0
H1572 H 0.05142 0.24282 0.32421 0.0
H1573 H 0.84755 0.25977 0.19024 0.0
H1574 H 0.31449 0.91827 0.33041 0.0
H1575 H 0.29428 0.92519 0.28945 0.0
H1576 H 0.28374 0.99789 0.31024 0.0
H1577 H 0.30458 0.99116 0.35127 0.0
H1578 H 0.24166 0.97184 0.29532 0.0
H1579 H 0.31748 0.99041 0.26301 0.0
H1580 H 0.36006 0.98543 0.25623 0.0
H1581 H 0.34768 0.91988 0.21731 0.0
H1582 H 0.30502 0.92427 0.2242 0.0
H1583 H 0.18502 0.97943 0.16973 0.0
H1584 H 0.20906 0.98851 0.20791 0.0
H1585 H 0.24166 0.92018 0.20265 0.0
H1586 H 0.21805 0.9111 0.16474 0.0
H1587 H 0.27408 0.95427 0.20846 0.0
H1588 H 0.20002 0.93209 0.24789 0.0
H1589 H 0.15742 0.93536 0.2559 0.0
H1590 H 0.16658 0.00643 0.28216 0.0
H1591 H 0.20924 0.00366 0.27397 0.0
C1592 C 0.30831 0.93585 0.32603 0.0
C1593 C 0.31112 0.95419 0.34394 0.0
C1594 C 0.29679 0.93978 0.30264 0.0
C1595 C 0.28754 0.96204 0.29686 0.0
C1596 C 0.29083 0.98061 0.31437 0.0
C1597 C 0.30285 0.97679 0.33765 0.0
C1598 C 0.27304 0.96498 0.27331 0.0
C1599 C 0.24879 0.96865 0.27619 0.0
C1600 C 0.28235 0.96039 0.24851 0.0
C1601 C 0.30802 0.95762 0.24427 0.0
C1602 C 0.32383 0.97483 0.25319 0.0
C1603 C 0.34799 0.97213 0.24929 0.0
C1604 C 0.35658 0.95233 0.23638 0.0
C1605 C 0.34101 0.93521 0.22731 0.0
C1606 C 0.31683 0.93781 0.23117 0.0
C1607 C 0.19715 0.96629 0.17691 0.0
C1608 C 0.19964 0.94456 0.16417 0.0
C1609 C 0.21089 0.97151 0.19868 0.0
C1610 C 0.22723 0.95505 0.20805 0.0
C1611 C 0.22933 0.93323 0.19563 0.0
C1612 C 0.21569 0.92802 0.17401 0.0
C1613 C 0.24255 0.96027 0.23056 0.0
C1614 C 0.26698 0.95809 0.22746 0.0
C1615 C 0.23336 0.96608 0.25516 0.0
C1616 C 0.20774 0.96778 0.25997 0.0
C1617 C 0.19291 0.94849 0.25512 0.0
C1618 C 0.16877 0.95024 0.25975 0.0
C1619 C 0.15928 0.97113 0.26944 0.0
C1620 C 0.17394 0.99029 0.27459 0.0
C1621 C 0.1981 0.98864 0.26996 0.0
H1622 H 0.14059 0.97244 0.27303 0.0
H1623 H 0.37529 0.95028 0.23337 0.0
H1624 H 0.47925 0.81772 0.84099 0.0
H1625 H 0.48971 0.79184 0.80469 0.0
H1626 H 0.4176 0.76894 0.79933 0.0
H1627 H 0.40705 0.79455 0.83516 0.0
H1628 H 0.44907 0.7319 0.80083 0.0
H1629 H 0.43929 0.80683 0.75636 0.0
H1630 H 0.44874 0.84844 0.74778 0.0
H1631 H 0.52023 0.82969 0.73091 0.0
H1632 H 0.51124 0.78796 0.73972 0.0
H1633 H 0.41733 0.68877 0.68039 0.0
H1634 H 0.4244 0.71013 0.72042 0.0
H1635 H 0.49797 0.71605 0.7014 0.0
H1636 H 0.49097 0.69433 0.66095 0.0
H1637 H 0.47722 0.75904 0.71514 0.0
H1638 H 0.4844 0.6829 0.75099 0.0
H1639 H 0.47442 0.6413 0.75873 0.0
H1640 H 0.40836 0.66185 0.79187 0.0
H1641 H 0.41776 0.70356 0.78398 0.0
C1642 C 0.46561 0.80736 0.83185 0.0
C1643 C 0.44233 0.80816 0.841 0.0
C1644 C 0.47162 0.79257 0.81117 0.0
C1645 C 0.45444 0.77836 0.79947 0.0
C1646 C 0.43116 0.7796 0.80824 0.0
C1647 C 0.42515 0.79438 0.82867 0.0
C1648 C 0.46032 0.76173 0.77836 0.0
C1649 C 0.45525 0.7378 0.78208 0.0
C1650 C 0.4693 0.76931 0.75428 0.0
C1651 C 0.47468 0.79435 0.74905 0.0
C1652 C 0.45708 0.81162 0.75107 0.0
C1653 C 0.46233 0.83521 0.74611 0.0
C1654 C 0.48509 0.84172 0.73891 0.0
C1655 C 0.50262 0.82463 0.73657 0.0
C1656 C 0.49746 0.80101 0.74153 0.0
C1657 C 0.43511 0.69425 0.68487 0.0
C1658 C 0.45361 0.68988 0.66755 0.0
C1659 C 0.43914 0.7064 0.70782 0.0
C1660 C 0.46173 0.71457 0.71396 0.0
C1661 C 0.48043 0.7098 0.69703 0.0
C1662 C 0.47644 0.6973 0.67406 0.0
C1663 C 0.46495 0.72939 0.73729 0.0
C1664 C 0.47172 0.75296 0.73407 0.0
C1665 C 0.45755 0.7215 0.7619 0.0
C1666 C 0.45177 0.6964 0.76679 0.0
C1667 C 0.46767 0.67856 0.75977 0.0
C1668 C 0.46212 0.65495 0.76421 0.0
C1669 C 0.44076 0.64893 0.77576 0.0
C1670 C 0.42491 0.66653 0.78293 0.0
C1671 C 0.43036 0.69017 0.77853 0.0
H1672 H 0.4365 0.63064 0.77918 0.0
H1673 H 0.48913 0.85999 0.73506 0.0
H1674 H 0.80374 0.48656 0.65897 0.0
H1675 H 0.7814 0.49568 0.69833 0.0
H1676 H 0.75114 0.42608 0.69688 0.0
H1677 H 0.77279 0.41713 0.65761 0.0
H1678 H 0.7182 0.45716 0.70651 0.0
H1679 H 0.79726 0.4419 0.73794 0.0
H1680 H 0.83997 0.44886 0.74091 0.0
H1681 H 0.82738 0.51978 0.76589 0.0
H1682 H 0.78456 0.5133 0.76276 0.0
H1683 H 0.69549 0.41813 0.83248 0.0
H1684 H 0.71189 0.42682 0.78995 0.0
H1685 H 0.71203 0.50089 0.80791 0.0
H1686 H 0.69489 0.4923 0.85062 0.0
H1687 H 0.75728 0.47892 0.78883 0.0
H1688 H 0.6769 0.48935 0.76565 0.0
H1689 H 0.63472 0.47949 0.76444 0.0
H1690 H 0.65033 0.41483 0.72513 0.0
H1691 H 0.69265 0.42413 0.72645 0.0
C1692 C 0.79236 0.47323 0.66714 0.0
C1693 C 0.79005 0.45113 0.65519 0.0
C1694 C 0.77962 0.47845 0.68962 0.0
C1695 C 0.76459 0.46155 0.7006 0.0
C1696 C 0.76245 0.43948 0.68869 0.0
C1697 C 0.77497 0.43435 0.66626 0.0
C1698 C 0.75108 0.46629 0.72462 0.0
C1699 C 0.72677 0.46197 0.72448 0.0
C1700 C 0.76206 0.47331 0.74795 0.0
C1701 C 0.78776 0.47722 0.74977 0.0
C1702 C 0.80362 0.45903 0.74385 0.0
C1703 C 0.82783 0.46288 0.74561 0.0
C1704 C 0.83639 0.48478 0.75349 0.0
C1705 C 0.82073 0.50285 0.75972 0.0
C1706 C 0.79649 0.4991 0.75796 0.0
C1707 C 0.69872 0.4363 0.82728 0.0
C1708 C 0.69393 0.45455 0.8448 0.0
C1709 C 0.70805 0.44124 0.80299 0.0
C1710 C 0.71312 0.46447 0.79586 0.0
C1711 C 0.70814 0.48285 0.81312 0.0
C1712 C 0.69828 0.47794 0.83737 0.0
C1713 C 0.72472 0.46887 0.77074 0.0
C1714 C 0.74863 0.47485 0.77067 0.0
C1715 C 0.71346 0.46306 0.74726 0.0
C1716 C 0.68799 0.4574 0.74628 0.0
C1717 C 0.67137 0.47294 0.75692 0.0
C1718 C 0.64742 0.46747 0.75618 0.0
C1719 C 0.63985 0.44653 0.74474 0.0
C1720 C 0.65622 0.43105 0.73398 0.0
C1721 C 0.68019 0.43643 0.73468 0.0
H1722 H 0.62131 0.44232 0.74419 0.0
H1723 H 0.85514 0.48772 0.75485 0.0
H1724 H 0.00922 0.80495 0.64436 0.0
H1725 H 0.00396 0.78231 0.6844 0.0
H1726 H 0.07917 0.78058 0.69504 0.0
H1727 H 0.0845 0.80254 0.6551 0.0
H1728 H 0.06151 0.73794 0.69926 0.0
H1729 H 0.04185 0.81526 0.73248 0.0
H1730 H 0.01917 0.8522 0.73416 0.0
H1731 H 0.95572 0.81314 0.74753 0.0
H1732 H 0.97801 0.77593 0.74561 0.0
H1733 H 0.08622 0.71136 0.82768 0.0
H1734 H 0.07951 0.73079 0.78642 0.0
H1735 H 0.00588 0.71312 0.79033 0.0
H1736 H 0.0125 0.69338 0.83204 0.0
H1737 H 0.01523 0.76105 0.77643 0.0
H1738 H 0.0369 0.68393 0.74914 0.0
H1739 H 0.06061 0.64763 0.74876 0.0
H1740 H 0.1212 0.68699 0.72474 0.0
H1741 H 0.09795 0.72359 0.72534 0.0
C1742 C 0.02456 0.80003 0.65551 0.0
C1743 C 0.04727 0.80538 0.64653 0.0
C1744 C 0.02154 0.7871 0.67836 0.0
C1745 C 0.04119 0.77964 0.69268 0.0
C1746 C 0.06376 0.78591 0.68421 0.0
C1747 C 0.06678 0.79856 0.66139 0.0
C1748 C 0.03876 0.76427 0.71576 0.0
C1749 C 0.05146 0.7431 0.71616 0.0
C1750 C 0.02491 0.77047 0.73746 0.0
C1751 C 0.01154 0.79281 0.73857 0.0
C1752 C 0.02303 0.81454 0.73554 0.0
C1753 C 0.01025 0.83553 0.73659 0.0
C1754 C 0.98601 0.83501 0.74085 0.0
C1755 C 0.9745 0.81351 0.74416 0.0
C1756 C 0.98719 0.79247 0.74311 0.0
C1757 C 0.06859 0.71144 0.81978 0.0
C1758 C 0.04989 0.70075 0.8331 0.0
C1759 C 0.0648 0.72254 0.79615 0.0
C1760 C 0.04224 0.72325 0.78525 0.0
C1761 C 0.02343 0.71269 0.79844 0.0
C1762 C 0.02726 0.70133 0.82213 0.0
C1763 C 0.03876 0.73534 0.76016 0.0
C1764 C 0.0249 0.75576 0.75932 0.0
C1765 C 0.05165 0.72856 0.73802 0.0
C1766 C 0.06568 0.70654 0.73742 0.0
C1767 C 0.05532 0.68488 0.74394 0.0
C1768 C 0.06867 0.66424 0.74366 0.0
C1769 C 0.0924 0.66501 0.73676 0.0
C1770 C 0.10281 0.68642 0.73007 0.0
C1771 C 0.08954 0.70711 0.73034 0.0
H1772 H 0.10271 0.64901 0.73656 0.0
H1773 H 0.97615 0.85128 0.74166 0.0
H1774 H 0.70562 0.08804 0.66423 0.0
H1775 H 0.73024 0.08123 0.70195 0.0
H1776 H 0.71031 0.00805 0.70226 0.0
H1777 H 0.6853 0.01476 0.66419 0.0
H1778 H 0.71287 0.02814 0.75222 0.0
H1779 H 0.76131 0.02064 0.67793 0.0
H1780 H 0.77735 0.03162 0.63535 0.0
H1781 H 0.8049 0.09563 0.66735 0.0
H1782 H 0.78868 0.08523 0.71005 0.0
H1783 H 0.80712 0.01392 0.84382 0.0
H1784 H 0.78514 0.00688 0.80363 0.0
H1785 H 0.78899 0.08082 0.7855 0.0
H1786 H 0.81052 0.08798 0.82555 0.0
H1787 H 0.79657 0.05124 0.74247 0.0
H1788 H 0.74204 0.06123 0.81418 0.0
H1789 H 0.7254 0.05076 0.85665 0.0
H1790 H 0.70964 0.98131 0.82898 0.0
H1791 H 0.72652 0.99129 0.78641 0.0
C1792 C 0.70618 0.07051 0.67243 0.0
C1793 C 0.69366 0.05188 0.66105 0.0
C1794 C 0.72036 0.06664 0.69396 0.0
C1795 C 0.7225 0.04404 0.70454 0.0
C1796 C 0.70903 0.02559 0.69422 0.0
C1797 C 0.69473 0.02946 0.67253 0.0
C1798 C 0.73957 0.03996 0.72574 0.0
C1799 C 0.7313 0.03262 0.74996 0.0
C1800 C 0.76359 0.04594 0.72279 0.0
C1801 C 0.77364 0.0522 0.69719 0.0
C1802 C 0.77065 0.03714 0.67587 0.0
C1803 C 0.77979 0.04325 0.6517 0.0
C1804 C 0.79211 0.06432 0.64864 0.0
C1805 C 0.79535 0.07931 0.66976 0.0
C1806 C 0.78621 0.0733 0.69395 0.0
C1807 C 0.80368 0.02855 0.83096 0.0
C1808 C 0.81043 0.05151 0.83781 0.0
C1809 C 0.79104 0.02453 0.80813 0.0
C1810 C 0.78531 0.04337 0.79174 0.0
C1811 C 0.79324 0.06605 0.79788 0.0
C1812 C 0.80549 0.07012 0.8208 0.0
C1813 C 0.76972 0.04013 0.76907 0.0
C1814 C 0.7783 0.04615 0.74455 0.0
C1815 C 0.74604 0.03284 0.77174 0.0
C1816 C 0.73582 0.02689 0.79726 0.0
C1817 C 0.73522 0.04366 0.81723 0.0
C1818 C 0.72571 0.03783 0.8413 0.0
C1819 C 0.71654 0.01536 0.84554 0.0
C1820 C 0.7168 0.99869 0.82569 0.0
C1821 C 0.72634 0.00442 0.80159 0.0
H1822 H 0.70917 0.01088 0.86419 0.0
H1823 H 0.79916 0.06903 0.62992 0.0
loop_
_geom_bond_atom_site_label_1
_geom_bond_atom_site_label_2
_geom_bond_distance
_geom_bond_site_symmetry_2
_ccdc_geom_bond_type
O0 Cd1 2.223 . S
O0 C8 1.315 . S
Cd1 O0 2.223 . S
Cd1 O4 2.297 . S
Cd1 O5 2.439 . S
Cd1 O11 2.240 . S
Cd2 O3 2.240 . S
Cd2 O10 2.223 . S
Cd2 O12 2.297 . S
Cd2 O13 2.439 . S
O3 Cd2 2.240 . S
O3 C8 1.279 . S
O4 Cd1 2.297 . S
O4 C6 1.247 . S
O5 Cd1 2.439 . S
O5 C6 1.208 . S
C6 O4 1.247 . S
C6 O5 1.208 . S
C7 O12 1.247 . S
C7 O13 1.208 . S
C8 O0 1.315 . S
C8 O3 1.279 . S
C9 O10 1.315 . S
C9 O11 1.279 . S
O10 Cd2 2.223 . S
O10 C9 1.315 . S
O11 Cd1 2.240 . S
O11 C9 1.279 . S
O12 Cd2 2.297 . S
O12 C7 1.247 . S
O13 Cd2 2.439 . S
O13 C7 1.208 . S
O14 Cd15 2.223 . S
O14 C22 1.315 . S
Cd15 O14 2.223 . S
Cd15 O18 2.297 . S
Cd15 O19 2.439 . S
Cd15 O25 2.240 . S
Cd16 O17 2.240 . S
Cd16 O24 2.223 . S
Cd16 O26 2.297 . S
Cd16 O27 2.439 . S
O17 Cd16 2.240 . S
O17 C22 1.279 . S
O18 Cd15 2.297 . S
O18 C20 1.247 . S
O19 Cd15 2.439 . S
O19 C20 1.208 . S
C20 O18 1.247 . S
C20 O19 1.208 . S
C21 O26 1.247 . S
C21 O27 1.208 . S
C22 O14 1.315 . S
C22 O17 1.279 . S
C23 O24 1.315 . S
C23 O25 1.279 . S
O24 Cd16 2.223 . S
O24 C23 1.315 . S
O25 Cd15 2.240 . S
O25 C23 1.279 . S
O26 Cd16 2.297 . S
O26 C21 1.247 . S
O27 Cd16 2.439 . S
O27 C21 1.208 . S
O28 Cd29 2.223 . S
O28 C36 1.315 . S
Cd29 O28 2.223 . S
Cd29 O32 2.297 . S
Cd29 O33 2.439 . S
Cd29 O39 2.240 . S
Cd30 O31 2.240 . S
Cd30 O38 2.223 . S
Cd30 O40 2.297 . S
Cd30 O41 2.439 . S
O31 Cd30 2.240 . S
O31 C36 1.279 . S
O32 Cd29 2.297 . S
O32 C34 1.247 . S
O33 Cd29 2.439 . S
O33 C34 1.208 . S
C34 O32 1.247 . S
C34 O33 1.208 . S
C35 O40 1.247 . S
C35 O41 1.208 . S
C36 O28 1.315 . S
C36 O31 1.279 . S
C37 O38 1.315 . S
C37 O39 1.279 . S
O38 Cd30 2.223 . S
O38 C37 1.315 . S
O39 Cd29 2.240 . S
O39 C37 1.279 . S
O40 Cd30 2.297 . S
O40 C35 1.247 . S
O41 Cd30 2.439 . S
O41 C35 1.208 . S
O42 Cd43 2.223 . S
O42 C50 1.315 . S
Cd43 O42 2.223 . S
Cd43 O46 2.297 . S
Cd43 O47 2.439 . S
Cd43 O53 2.240 . S
Cd44 O45 2.240 . S
Cd44 O52 2.223 . S
Cd44 O54 2.297 . S
Cd44 O55 2.439 . S
O45 Cd44 2.240 . S
O45 C50 1.279 . S
O46 Cd43 2.297 . S
O46 C48 1.247 . S
O47 Cd43 2.439 . S
O47 C48 1.208 . S
C48 O46 1.247 . S
C48 O47 1.208 . S
C49 O54 1.247 . S
C49 O55 1.208 . S
C50 O42 1.315 . S
C50 O45 1.279 . S
C51 O52 1.315 . S
C51 O53 1.279 . S
O52 Cd44 2.223 . S
O52 C51 1.315 . S
O53 Cd43 2.240 . S
O53 C51 1.279 . S
O54 Cd44 2.297 . S
O54 C49 1.247 . S
O55 Cd44 2.439 . S
O55 C49 1.208 . S
O56 Cd57 2.223 . S
O56 C64 1.315 . S
Cd57 O56 2.223 . S
Cd57 O60 2.297 . S
Cd57 O61 2.439 . S
Cd57 O67 2.240 . S
Cd58 O59 2.240 . S
Cd58 O66 2.223 . S
Cd58 O68 2.297 . S
Cd58 O69 2.439 . S
O59 Cd58 2.240 . S
O59 C64 1.279 . S
O60 Cd57 2.297 . S
O60 C62 1.247 . S
O61 Cd57 2.439 . S
O61 C62 1.208 . S
C62 O60 1.247 . S
C62 O61 1.208 . S
C63 O68 1.247 . S
C63 O69 1.208 . S
C64 O56 1.315 . S
C64 O59 1.279 . S
C65 O66 1.315 . S
C65 O67 1.279 . S
O66 Cd58 2.223 . S
O66 C65 1.315 . S
O67 Cd57 2.240 . S
O67 C65 1.279 . S
O68 Cd58 2.297 . S
O68 C63 1.247 . S
O69 Cd58 2.439 . S
O69 C63 1.208 . S
O70 Cd71 2.223 . S
O70 C78 1.315 . S
Cd71 O70 2.223 . S
Cd71 O74 2.297 . S
Cd71 O75 2.439 . S
Cd71 O81 2.240 . S
Cd72 O73 2.240 . S
Cd72 O80 2.223 . S
Cd72 O82 2.297 . S
Cd72 O83 2.439 . S
O73 Cd72 2.240 . S
O73 C78 1.279 . S
O74 Cd71 2.297 . S
O74 C76 1.247 . S
O75 Cd71 2.439 . S
O75 C76 1.208 . S
C76 O74 1.247 . S
C76 O75 1.208 . S
C77 O82 1.247 . S
C77 O83 1.208 . S
C78 O70 1.315 . S
C78 O73 1.279 . S
C79 O80 1.315 . S
C79 O81 1.279 . S
O80 Cd72 2.223 . S
O80 C79 1.315 . S
O81 Cd71 2.240 . S
O81 C79 1.279 . S
O82 Cd72 2.297 . S
O82 C77 1.247 . S
O83 Cd72 2.439 . S
O83 C77 1.208 . S
O84 Cd85 2.223 . S
O84 C92 1.315 . S
Cd85 O84 2.223 . S
Cd85 O88 2.297 . S
Cd85 O89 2.439 . S
Cd85 O95 2.240 . S
Cd86 O87 2.240 . S
Cd86 O94 2.223 . S
Cd86 O96 2.297 . S
Cd86 O97 2.439 . S
O87 Cd86 2.240 . S
O87 C92 1.279 . S
O88 Cd85 2.297 . S
O88 C90 1.247 . S
O89 Cd85 2.439 . S
O89 C90 1.208 . S
C90 O88 1.247 . S
C90 O89 1.208 . S
C91 O96 1.247 . S
C91 O97 1.208 . S
C92 O84 1.315 . S
C92 O87 1.279 . S
C93 O94 1.315 . S
C93 O95 1.279 . S
O94 Cd86 2.223 . S
O94 C93 1.315 . S
O95 Cd85 2.240 . S
O95 C93 1.279 . S
O96 Cd86 2.297 . S
O96 C91 1.247 . S
O97 Cd86 2.439 . S
O97 C91 1.208 . S
O98 Cd99 2.223 . S
O98 C106 1.315 . S
Cd99 O98 2.223 . S
Cd99 O102 2.297 . S
Cd99 O103 2.439 . S
Cd99 O109 2.240 . S
Cd100 O101 2.240 . S
Cd100 O108 2.223 . S
Cd100 O110 2.297 . S
Cd100 O111 2.439 . S
O101 Cd100 2.240 . S
O101 C106 1.279 . S
O102 Cd99 2.297 . S
O102 C104 1.247 . S
O103 Cd99 2.439 . S
O103 C104 1.208 . S
C104 O102 1.247 . S
C104 O103 1.208 . S
C105 O110 1.247 . S
C105 O111 1.208 . S
C106 O98 1.315 . S
C106 O101 1.279 . S
C107 O108 1.315 . S
C107 O109 1.279 . S
O108 Cd100 2.223 . S
O108 C107 1.315 . S
O109 Cd99 2.240 . S
O109 C107 1.279 . S
O110 Cd100 2.297 . S
O110 C105 1.247 . S
O111 Cd100 2.439 . S
O111 C105 1.208 . S
O112 Cd113 2.223 . S
O112 C120 1.315 . S
Cd113 O112 2.223 . S
Cd113 O116 2.297 . S
Cd113 O117 2.439 . S
Cd113 O123 2.240 . S
Cd114 O115 2.240 . S
Cd114 O122 2.223 . S
Cd114 O124 2.297 . S
Cd114 O125 2.439 . S
O115 Cd114 2.240 . S
O115 C120 1.279 . S
O116 Cd113 2.297 . S
O116 C118 1.247 . S
O117 Cd113 2.439 . S
O117 C118 1.208 . S
C118 O116 1.247 . S
C118 O117 1.208 . S
C119 O124 1.247 . S
C119 O125 1.208 . S
C120 O112 1.315 . S
C120 O115 1.279 . S
C121 O122 1.315 . S
C121 O123 1.279 . S
O122 Cd114 2.223 . S
O122 C121 1.315 . S
O123 Cd113 2.240 . S
O123 C121 1.279 . S
O124 Cd114 2.297 . S
O124 C119 1.247 . S
O125 Cd114 2.439 . S
O125 C119 1.208 . S
O126 Cd127 2.223 . S
O126 C134 1.315 . S
Cd127 O126 2.223 . S
Cd127 O130 2.297 . S
Cd127 O131 2.439 . S
Cd127 O137 2.240 . S
Cd128 O129 2.240 . S
Cd128 O136 2.223 . S
Cd128 O138 2.297 . S
Cd128 O139 2.439 . S
O129 Cd128 2.240 . S
O129 C134 1.279 . S
O130 Cd127 2.297 . S
O130 C132 1.247 . S
O131 Cd127 2.439 . S
O131 C132 1.208 . S
C132 O130 1.247 . S
C132 O131 1.208 . S
C133 O138 1.247 . S
C133 O139 1.208 . S
C134 O126 1.315 . S
C134 O129 1.279 . S
C135 O136 1.315 . S
C135 O137 1.279 . S
O136 Cd128 2.223 . S
O136 C135 1.315 . S
O137 Cd127 2.240 . S
O137 C135 1.279 . S
O138 Cd128 2.297 . S
O138 C133 1.247 . S
O139 Cd128 2.439 . S
O139 C133 1.208 . S
O140 Cd141 2.223 . S
O140 C148 1.315 . S
Cd141 O140 2.223 . S
Cd141 O144 2.297 . S
Cd141 O145 2.439 . S
Cd141 O151 2.240 . S
Cd142 O143 2.240 . S
Cd142 O150 2.223 . S
Cd142 O152 2.297 . S
Cd142 O153 2.439 . S
O143 Cd142 2.240 . S
O143 C148 1.279 . S
O144 Cd141 2.297 . S
O144 C146 1.247 . S
O145 Cd141 2.439 . S
O145 C146 1.208 . S
C146 O144 1.247 . S
C146 O145 1.208 . S
C147 O152 1.247 . S
C147 O153 1.208 . S
C148 O140 1.315 . S
C148 O143 1.279 . S
C149 O150 1.315 . S
C149 O151 1.279 . S
O150 Cd142 2.223 . S
O150 C149 1.315 . S
O151 Cd141 2.240 . S
O151 C149 1.279 . S
O152 Cd142 2.297 . S
O152 C147 1.247 . S
O153 Cd142 2.439 . S
O153 C147 1.208 . S
O154 Cd155 2.223 . S
O154 C162 1.315 . S
Cd155 O154 2.223 . S
Cd155 O158 2.297 . S
Cd155 O159 2.439 . S
Cd155 O165 2.240 . S
Cd156 O157 2.240 . S
Cd156 O164 2.223 . S
Cd156 O166 2.297 . S
Cd156 O167 2.439 . S
O157 Cd156 2.240 . S
O157 C162 1.279 . S
O158 Cd155 2.297 . S
O158 C160 1.247 . S
O159 Cd155 2.439 . S
O159 C160 1.208 . S
C160 O158 1.247 . S
C160 O159 1.208 . S
C161 O166 1.247 . S
C161 O167 1.208 . S
C162 O154 1.315 . S
C162 O157 1.279 . S
C163 O164 1.315 . S
C163 O165 1.279 . S
O164 Cd156 2.223 . S
O164 C163 1.315 . S
O165 Cd155 2.240 . S
O165 C163 1.279 . S
O166 Cd156 2.297 . S
O166 C161 1.247 . S
O167 Cd156 2.439 . S
O167 C161 1.208 . S
O168 Cd169 2.223 . S
O168 C176 1.315 . S
Cd169 O168 2.223 . S
Cd169 O172 2.297 . S
Cd169 O173 2.439 . S
Cd169 O179 2.240 . S
Cd170 O171 2.240 . S
Cd170 O178 2.223 . S
Cd170 O180 2.297 . S
Cd170 O181 2.439 . S
O171 Cd170 2.240 . S
O171 C176 1.279 . S
O172 Cd169 2.297 . S
O172 C174 1.247 . S
O173 Cd169 2.439 . S
O173 C174 1.208 . S
C174 O172 1.247 . S
C174 O173 1.208 . S
C175 O180 1.247 . S
C175 O181 1.208 . S
C176 O168 1.315 . S
C176 O171 1.279 . S
C177 O178 1.315 . S
C177 O179 1.279 . S
O178 Cd170 2.223 . S
O178 C177 1.315 . S
O179 Cd169 2.240 . S
O179 C177 1.279 . S
O180 Cd170 2.297 . S
O180 C175 1.247 . S
O181 Cd170 2.439 . S
O181 C175 1.208 . S
O182 Cd183 2.223 . S
O182 C190 1.315 . S
Cd183 O182 2.223 . S
Cd183 O186 2.297 . S
Cd183 O187 2.439 . S
Cd183 O193 2.240 . S
Cd184 O185 2.240 . S
Cd184 O192 2.223 . S
Cd184 O194 2.297 . S
Cd184 O195 2.439 . S
O185 Cd184 2.240 . S
O185 C190 1.279 . S
O186 Cd183 2.297 . S
O186 C188 1.247 . S
O187 Cd183 2.439 . S
O187 C188 1.208 . S
C188 O186 1.247 . S
C188 O187 1.208 . S
C189 O194 1.247 . S
C189 O195 1.208 . S
C190 O182 1.315 . S
C190 O185 1.279 . S
C191 O192 1.315 . S
C191 O193 1.279 . S
O192 Cd184 2.223 . S
O192 C191 1.315 . S
O193 Cd183 2.240 . S
O193 C191 1.279 . S
O194 Cd184 2.297 . S
O194 C189 1.247 . S
O195 Cd184 2.439 . S
O195 C189 1.208 . S
O196 Cd197 2.223 . S
O196 C204 1.315 . S
Cd197 O196 2.223 . S
Cd197 O200 2.297 . S
Cd197 O201 2.439 . S
Cd197 O207 2.240 . S
Cd198 O199 2.240 . S
Cd198 O206 2.223 . S
Cd198 O208 2.297 . S
Cd198 O209 2.439 . S
O199 Cd198 2.240 . S
O199 C204 1.279 . S
O200 Cd197 2.297 . S
O200 C202 1.247 . S
O201 Cd197 2.439 . S
O201 C202 1.208 . S
C202 O200 1.247 . S
C202 O201 1.208 . S
C203 O208 1.247 . S
C203 O209 1.208 . S
C204 O196 1.315 . S
C204 O199 1.279 . S
C205 O206 1.315 . S
C205 O207 1.279 . S
O206 Cd198 2.223 . S
O206 C205 1.315 . S
O207 Cd197 2.240 . S
O207 C205 1.279 . S
O208 Cd198 2.297 . S
O208 C203 1.247 . S
O209 Cd198 2.439 . S
O209 C203 1.208 . S
O210 Cd211 2.223 . S
O210 C218 1.315 . S
Cd211 O210 2.223 . S
Cd211 O214 2.297 . S
Cd211 O215 2.439 . S
Cd211 O221 2.240 . S
Cd212 O213 2.240 . S
Cd212 O220 2.223 . S
Cd212 O222 2.297 . S
Cd212 O223 2.439 . S
O213 Cd212 2.240 . S
O213 C218 1.279 . S
O214 Cd211 2.297 . S
O214 C216 1.247 . S
O215 Cd211 2.439 . S
O215 C216 1.208 . S
C216 O214 1.247 . S
C216 O215 1.208 . S
C217 O222 1.247 . S
C217 O223 1.208 . S
C218 O210 1.315 . S
C218 O213 1.279 . S
C219 O220 1.315 . S
C219 O221 1.279 . S
O220 Cd212 2.223 . S
O220 C219 1.315 . S
O221 Cd211 2.240 . S
O221 C219 1.279 . S
O222 Cd212 2.297 . S
O222 C217 1.247 . S
O223 Cd212 2.439 . S
O223 C217 1.208 . S
H224 C242 0.951 . S
H225 C244 0.951 . S
H226 C246 0.950 . S
H227 C247 0.950 . S
H228 C249 0.950 . S
H229 C252 0.950 . S
H230 C253 0.950 . S
H231 C255 0.950 . S
H232 C256 0.950 . S
H233 C257 0.951 . S
H234 C259 0.951 . S
H235 C261 0.950 . S
H236 C262 0.950 . S
H237 C264 0.950 . S
H238 C267 0.950 . S
H239 C268 0.950 . S
H240 C270 0.950 . S
H241 C271 0.950 . S
C242 H224 0.951 . S
C242 C243 1.366 . S
C242 C244 1.388 . S
C243 C242 1.366 . S
C243 C247 1.385 . S
C244 H225 0.951 . S
C244 C242 1.388 . S
C244 C245 1.366 . S
C245 C244 1.366 . S
C245 C246 1.414 . S
C245 C248 1.499 . S
C246 H226 0.950 . S
C246 C245 1.414 . S
C246 C247 1.374 . S
C247 H227 0.950 . S
C247 C243 1.385 . S
C247 C246 1.374 . S
C248 C245 1.499 . S
C248 C249 1.373 . S
C248 C250 1.389 1_554 S
C249 H228 0.950 . S
C249 C248 1.373 . S
C249 C265 1.377 . S
C250 C248 1.389 1_556 S
C250 C251 1.524 . S
C250 C264 1.377 . S
C251 C250 1.524 . S
C251 C252 1.397 . S
C251 C256 1.363 . S
C252 H229 0.950 . S
C252 C251 1.397 . S
C252 C253 1.334 . S
C253 H230 0.950 . S
C253 C252 1.334 . S
C253 C254 1.287 . S
C254 C253 1.287 . S
C254 C255 1.524 . S
C254 H273 0.913 . S
C255 H231 0.950 . S
C255 C254 1.524 . S
C255 C256 1.415 . S
C256 H232 0.950 . S
C256 C251 1.363 . S
C256 C255 1.415 . S
C257 H233 0.951 . S
C257 C258 1.366 . S
C257 C259 1.388 . S
C258 C257 1.366 . S
C258 C262 1.385 . S
C259 H234 0.951 . S
C259 C257 1.388 . S
C259 C260 1.366 . S
C260 C259 1.366 . S
C260 C261 1.414 . S
C260 C263 1.499 . S
C261 H235 0.950 . S
C261 C260 1.414 . S
C261 C262 1.374 . S
C262 H236 0.950 . S
C262 C258 1.385 . S
C262 C261 1.374 . S
C263 C260 1.499 . S
C263 C264 1.373 . S
C263 C265 1.389 1_556 S
C264 H237 0.950 . S
C264 C250 1.377 . S
C264 C263 1.373 . S
C265 C249 1.377 . S
C265 C263 1.389 1_554 S
C265 C266 1.524 . S
C266 C265 1.524 . S
C266 C267 1.397 . S
C266 C271 1.363 . S
C267 H238 0.950 . S
C267 C266 1.397 . S
C267 C268 1.334 . S
C268 H239 0.950 . S
C268 C267 1.334 . S
C268 C269 1.287 . S
C269 C268 1.287 . S
C269 C270 1.524 . S
C269 H272 0.999 . S
C270 H240 0.950 . S
C270 C269 1.524 . S
C270 C271 1.415 . S
C271 H241 0.950 . S
C271 C266 1.363 . S
C271 C270 1.415 . S
H272 C269 0.999 . S
H273 C254 0.913 . S
H274 C292 0.951 . S
H275 C294 0.951 1_554 S
H276 C296 0.950 . S
H277 C297 0.950 . S
H278 C299 0.950 . S
H279 C302 0.950 . S
H280 C303 0.950 . S
H281 C305 0.950 . S
H282 C306 0.950 . S
H283 C307 0.951 . S
H284 C309 0.951 1_556 S
H285 C311 0.950 . S
H286 C312 0.950 . S
H287 C314 0.950 . S
H288 C317 0.950 . S
H289 C318 0.950 . S
H290 C320 0.950 . S
H291 C321 0.950 . S
C292 H274 0.951 . S
C292 C293 1.366 . S
C292 C294 1.388 . S
C293 C292 1.366 . S
C293 C297 1.385 . S
C294 H275 0.951 1_556 S
C294 C292 1.388 . S
C294 C295 1.366 . S
C295 C294 1.366 . S
C295 C296 1.414 . S
C295 C298 1.499 . S
C296 H276 0.950 . S
C296 C295 1.414 . S
C296 C297 1.374 . S
C297 H277 0.950 . S
C297 C293 1.385 . S
C297 C296 1.374 . S
C298 C295 1.499 . S
C298 C299 1.373 . S
C298 C300 1.389 1_556 S
C299 H278 0.950 . S
C299 C298 1.373 . S
C299 C315 1.377 . S
C300 C298 1.389 1_554 S
C300 C301 1.524 . S
C300 C314 1.377 . S
C301 C300 1.524 . S
C301 C302 1.397 . S
C301 C306 1.363 . S
C302 H279 0.950 . S
C302 C301 1.397 . S
C302 C303 1.334 . S
C303 H280 0.950 . S
C303 C302 1.334 . S
C303 C304 1.287 . S
C304 C303 1.287 . S
C304 C305 1.524 . S
C304 H323 0.913 . S
C305 H281 0.950 . S
C305 C304 1.524 . S
C305 C306 1.415 . S
C306 H282 0.950 . S
C306 C301 1.363 . S
C306 C305 1.415 . S
C307 H283 0.951 . S
C307 C308 1.366 . S
C307 C309 1.388 . S
C308 C307 1.366 . S
C308 C312 1.385 . S
C309 H284 0.951 1_554 S
C309 C307 1.388 . S
C309 C310 1.366 . S
C310 C309 1.366 . S
C310 C311 1.414 . S
C310 C313 1.499 . S
C311 H285 0.950 . S
C311 C310 1.414 . S
C311 C312 1.374 . S
C312 H286 0.950 . S
C312 C308 1.385 . S
C312 C311 1.374 . S
C313 C310 1.499 . S
C313 C314 1.373 . S
C313 C315 1.389 1_554 S
C314 H287 0.950 . S
C314 C300 1.377 . S
C314 C313 1.373 . S
C315 C299 1.377 . S
C315 C313 1.389 1_556 S
C315 C316 1.524 . S
C316 C315 1.524 . S
C316 C317 1.397 . S
C316 C321 1.363 . S
C317 H288 0.950 . S
C317 C316 1.397 . S
C317 C318 1.334 . S
C318 H289 0.950 . S
C318 C317 1.334 . S
C318 C319 1.287 . S
C319 C318 1.287 . S
C319 C320 1.524 . S
C319 H322 0.999 . S
C320 H290 0.950 . S
C320 C319 1.524 . S
C320 C321 1.415 . S
C321 H291 0.950 . S
C321 C316 1.363 . S
C321 C320 1.415 . S
H322 C319 0.999 . S
H323 C304 0.913 . S
H324 C342 0.951 . S
H325 C344 0.951 . S
H326 C346 0.950 . S
H327 C347 0.950 . S
H328 C349 0.950 . S
H329 C352 0.950 . S
H330 C353 0.950 . S
H331 C355 0.950 . S
H332 C356 0.950 . S
H333 C357 0.951 . S
H334 C359 0.951 . S
H335 C361 0.950 . S
H336 C362 0.950 . S
H337 C364 0.950 . S
H338 C367 0.950 . S
H339 C368 0.950 . S
H340 C370 0.950 . S
H341 C371 0.950 . S
C342 H324 0.951 . S
C342 C343 1.366 . S
C342 C344 1.388 . S
C343 C342 1.366 . S
C343 C347 1.385 . S
C344 H325 0.951 . S
C344 C342 1.388 . S
C344 C345 1.366 . S
C345 C344 1.366 . S
C345 C346 1.414 . S
C345 C348 1.499 . S
C346 H326 0.950 . S
C346 C345 1.414 . S
C346 C347 1.374 . S
C347 H327 0.950 . S
C347 C343 1.385 . S
C347 C346 1.374 . S
C348 C345 1.499 . S
C348 C349 1.373 . S
C348 C350 1.389 1_556 S
C349 H328 0.950 . S
C349 C348 1.373 . S
C349 C365 1.377 . S
C350 C348 1.389 1_554 S
C350 C351 1.524 . S
C350 C364 1.377 . S
C351 C350 1.524 . S
C351 C352 1.397 . S
C351 C356 1.363 . S
C352 H329 0.950 . S
C352 C351 1.397 . S
C352 C353 1.334 . S
C353 H330 0.950 . S
C353 C352 1.334 . S
C353 C354 1.287 . S
C354 C353 1.287 . S
C354 C355 1.524 . S
C354 H373 0.913 . S
C355 H331 0.950 . S
C355 C354 1.524 . S
C355 C356 1.415 . S
C356 H332 0.950 . S
C356 C351 1.363 . S
C356 C355 1.415 . S
C357 H333 0.951 . S
C357 C358 1.366 . S
C357 C359 1.388 . S
C358 C357 1.366 . S
C358 C362 1.385 . S
C359 H334 0.951 . S
C359 C357 1.388 . S
C359 C360 1.366 . S
C360 C359 1.366 . S
C360 C361 1.414 . S
C360 C363 1.499 . S
C361 H335 0.950 . S
C361 C360 1.414 . S
C361 C362 1.374 . S
C362 H336 0.950 . S
C362 C358 1.385 . S
C362 C361 1.374 . S
C363 C360 1.499 . S
C363 C364 1.373 . S
C363 C365 1.389 1_554 S
C364 H337 0.950 . S
C364 C350 1.377 . S
C364 C363 1.373 . S
C365 C349 1.377 . S
C365 C363 1.389 1_556 S
C365 C366 1.524 . S
C366 C365 1.524 . S
C366 C367 1.397 . S
C366 C371 1.363 . S
C367 H338 0.950 . S
C367 C366 1.397 . S
C367 C368 1.334 . S
C368 H339 0.950 . S
C368 C367 1.334 . S
C368 C369 1.287 . S
C369 C368 1.287 . S
C369 C370 1.524 . S
C369 H372 0.999 . S
C370 H340 0.950 . S
C370 C369 1.524 . S
C370 C371 1.415 . S
C371 H341 0.950 . S
C371 C366 1.363 . S
C371 C370 1.415 . S
H372 C369 0.999 . S
H373 C354 0.913 . S
H374 C392 0.951 . S
H375 C394 0.951 1_554 S
H376 C396 0.950 . S
H377 C397 0.950 . S
H378 C399 0.950 . S
H379 C402 0.950 . S
H380 C403 0.950 . S
H381 C405 0.950 1_554 S
H382 C406 0.950 . S
H383 C407 0.951 . S
H384 C409 0.951 1_556 S
H385 C411 0.950 . S
H386 C412 0.950 . S
H387 C414 0.950 . S
H388 C417 0.950 . S
H389 C418 0.950 . S
H390 C420 0.950 1_556 S
H391 C421 0.950 . S
C392 H374 0.951 . S
C392 C393 1.366 . S
C392 C394 1.388 . S
C393 C392 1.366 . S
C393 C397 1.385 . S
C394 H375 0.951 1_556 S
C394 C392 1.388 . S
C394 C395 1.366 . S
C395 C394 1.366 . S
C395 C396 1.414 . S
C395 C398 1.499 . S
C396 H376 0.950 . S
C396 C395 1.414 . S
C396 C397 1.374 . S
C397 H377 0.950 . S
C397 C393 1.385 . S
C397 C396 1.374 . S
C398 C395 1.499 . S
C398 C399 1.373 . S
C398 C400 1.389 . S
C399 H378 0.950 . S
C399 C398 1.373 . S
C399 C415 1.377 1_556 S
C400 C398 1.389 . S
C400 C401 1.524 . S
C400 C414 1.377 1_556 S
C401 C400 1.524 . S
C401 C402 1.397 . S
C401 C406 1.363 1_556 S
C402 H379 0.950 . S
C402 C401 1.397 . S
C402 C403 1.334 . S
C403 H380 0.950 . S
C403 C402 1.334 . S
C403 C404 1.287 . S
C404 C403 1.287 . S
C404 C405 1.524 . S
C404 H423 0.913 . S
C405 H381 0.950 1_556 S
C405 C404 1.524 . S
C405 C406 1.415 1_556 S
C406 H382 0.950 . S
C406 C401 1.363 1_554 S
C406 C405 1.415 1_554 S
C407 H383 0.951 . S
C407 C408 1.366 . S
C407 C409 1.388 . S
C408 C407 1.366 . S
C408 C412 1.385 . S
C409 H384 0.951 1_554 S
C409 C407 1.388 . S
C409 C410 1.366 . S
C410 C409 1.366 . S
C410 C411 1.414 . S
C410 C413 1.499 . S
C411 H385 0.950 . S
C411 C410 1.414 . S
C411 C412 1.374 . S
C412 H386 0.950 . S
C412 C408 1.385 . S
C412 C411 1.374 . S
C413 C410 1.499 . S
C413 C414 1.373 . S
C413 C415 1.389 . S
C414 H387 0.950 . S
C414 C400 1.377 1_554 S
C414 C413 1.373 . S
C415 C399 1.377 1_554 S
C415 C413 1.389 . S
C415 C416 1.524 . S
C416 C415 1.524 . S
C416 C417 1.397 . S
C416 C421 1.363 1_554 S
C417 H388 0.950 . S
C417 C416 1.397 . S
C417 C418 1.334 . S
C418 H389 0.950 . S
C418 C417 1.334 . S
C418 C419 1.287 . S
C419 C418 1.287 . S
C419 C420 1.524 . S
C419 H422 0.999 1_565 S
C420 H390 0.950 1_554 S
C420 C419 1.524 . S
C420 C421 1.415 1_554 S
C421 H391 0.950 . S
C421 C416 1.363 1_556 S
C421 C420 1.415 1_556 S
H422 C419 0.999 1_545 S
H423 C404 0.913 . S
H424 C442 0.951 . S
H425 C444 0.951 . S
H426 C446 0.950 . S
H427 C447 0.950 . S
H428 C449 0.950 . S
H429 C452 0.950 . S
H430 C453 0.950 . S
H431 C455 0.950 . S
H432 C456 0.950 . S
H433 C457 0.951 . S
H434 C459 0.951 . S
H435 C461 0.950 . S
H436 C462 0.950 . S
H437 C464 0.950 . S
H438 C467 0.950 . S
H439 C468 0.950 . S
H440 C470 0.950 . S
H441 C471 0.950 . S
C442 H424 0.951 . S
C442 C443 1.366 . S
C442 C444 1.388 . S
C443 C442 1.366 . S
C443 C447 1.385 . S
C444 H425 0.951 . S
C444 C442 1.388 . S
C444 C445 1.366 . S
C445 C444 1.366 . S
C445 C446 1.414 . S
C445 C448 1.499 . S
C446 H426 0.950 . S
C446 C445 1.414 . S
C446 C447 1.374 . S
C447 H427 0.950 . S
C447 C443 1.385 . S
C447 C446 1.374 . S
C448 C445 1.499 . S
C448 C449 1.373 . S
C448 C450 1.389 . S
C449 H428 0.950 . S
C449 C448 1.373 . S
C449 C465 1.377 . S
C450 C448 1.389 . S
C450 C451 1.524 . S
C450 C464 1.377 . S
C451 C450 1.524 . S
C451 C452 1.397 . S
C451 C456 1.363 . S
C452 H429 0.950 . S
C452 C451 1.397 . S
C452 C453 1.334 . S
C453 H430 0.950 . S
C453 C452 1.334 . S
C453 C454 1.287 . S
C454 C453 1.287 . S
C454 C455 1.524 . S
C454 H473 0.913 . S
C455 H431 0.950 . S
C455 C454 1.524 . S
C455 C456 1.415 . S
C456 H432 0.950 . S
C456 C451 1.363 . S
C456 C455 1.415 . S
C457 H433 0.951 . S
C457 C458 1.366 . S
C457 C459 1.388 . S
C458 C457 1.366 . S
C458 C462 1.385 . S
C459 H434 0.951 . S
C459 C457 1.388 . S
C459 C460 1.366 . S
C460 C459 1.366 . S
C460 C461 1.414 . S
C460 C463 1.499 . S
C461 H435 0.950 . S
C461 C460 1.414 . S
C461 C462 1.374 . S
C462 H436 0.950 . S
C462 C458 1.385 . S
C462 C461 1.374 . S
C463 C460 1.499 . S
C463 C464 1.373 . S
C463 C465 1.389 . S
C464 H437 0.950 . S
C464 C450 1.377 . S
C464 C463 1.373 . S
C465 C449 1.377 . S
C465 C463 1.389 . S
C465 C466 1.524 . S
C466 C465 1.524 . S
C466 C467 1.397 . S
C466 C471 1.363 . S
C467 H438 0.950 . S
C467 C466 1.397 . S
C467 C468 1.334 . S
C468 H439 0.950 . S
C468 C467 1.334 . S
C468 C469 1.287 . S
C469 C468 1.287 . S
C469 C470 1.524 . S
C469 H472 0.999 . S
C470 H440 0.950 . S
C470 C469 1.524 . S
C470 C471 1.415 . S
C471 H441 0.950 . S
C471 C466 1.363 . S
C471 C470 1.415 . S
H472 C469 0.999 . S
H473 C454 0.913 . S
H474 C492 0.951 . S
H475 C494 0.951 . S
H476 C496 0.950 . S
H477 C497 0.950 . S
H478 C499 0.950 . S
H479 C502 0.950 . S
H480 C503 0.950 . S
H481 C505 0.950 . S
H482 C506 0.950 . S
H483 C507 0.951 . S
H484 C509 0.951 . S
H485 C511 0.950 . S
H486 C512 0.950 . S
H487 C514 0.950 . S
H488 C517 0.950 . S
H489 C518 0.950 . S
H490 C520 0.950 . S
H491 C521 0.950 . S
C492 H474 0.951 . S
C492 C493 1.366 . S
C492 C494 1.388 . S
C493 C492 1.366 . S
C493 C497 1.385 . S
C494 H475 0.951 . S
C494 C492 1.388 . S
C494 C495 1.366 . S
C495 C494 1.366 . S
C495 C496 1.414 . S
C495 C498 1.499 . S
C496 H476 0.950 . S
C496 C495 1.414 . S
C496 C497 1.374 . S
C497 H477 0.950 . S
C497 C493 1.385 . S
C497 C496 1.374 . S
C498 C495 1.499 . S
C498 C499 1.373 . S
C498 C500 1.389 . S
C499 H478 0.950 . S
C499 C498 1.373 . S
C499 C515 1.377 . S
C500 C498 1.389 . S
C500 C501 1.524 . S
C500 C514 1.377 . S
C501 C500 1.524 . S
C501 C502 1.397 . S
C501 C506 1.363 . S
C502 H479 0.950 . S
C502 C501 1.397 . S
C502 C503 1.334 . S
C503 H480 0.950 . S
C503 C502 1.334 . S
C503 C504 1.287 . S
C504 C503 1.287 . S
C504 C505 1.524 . S
C504 H523 0.913 . S
C505 H481 0.950 . S
C505 C504 1.524 . S
C505 C506 1.415 . S
C506 H482 0.950 . S
C506 C501 1.363 . S
C506 C505 1.415 . S
C507 H483 0.951 . S
C507 C508 1.366 . S
C507 C509 1.388 . S
C508 C507 1.366 . S
C508 C512 1.385 . S
C509 H484 0.951 . S
C509 C507 1.388 . S
C509 C510 1.366 . S
C510 C509 1.366 . S
C510 C511 1.414 . S
C510 C513 1.499 . S
C511 H485 0.950 . S
C511 C510 1.414 . S
C511 C512 1.374 . S
C512 H486 0.950 . S
C512 C508 1.385 . S
C512 C511 1.374 . S
C513 C510 1.499 . S
C513 C514 1.373 . S
C513 C515 1.389 . S
C514 H487 0.950 . S
C514 C500 1.377 . S
C514 C513 1.373 . S
C515 C499 1.377 . S
C515 C513 1.389 . S
C515 C516 1.524 . S
C516 C515 1.524 . S
C516 C517 1.397 . S
C516 C521 1.363 . S
C517 H488 0.950 . S
C517 C516 1.397 . S
C517 C518 1.334 . S
C518 H489 0.950 . S
C518 C517 1.334 . S
C518 C519 1.287 . S
C519 C518 1.287 . S
C519 C520 1.524 . S
C519 H522 0.999 . S
C520 H490 0.950 . S
C520 C519 1.524 . S
C520 C521 1.415 . S
C521 H491 0.950 . S
C521 C516 1.363 . S
C521 C520 1.415 . S
H522 C519 0.999 . S
H523 C504 0.913 . S
H524 C542 0.951 . S
H525 C544 0.951 . S
H526 C546 0.950 . S
H527 C547 0.950 . S
H528 C549 0.950 . S
H529 C552 0.950 . S
H530 C553 0.950 . S
H531 C555 0.950 . S
H532 C556 0.950 . S
H533 C557 0.951 . S
H534 C559 0.951 . S
H535 C561 0.950 . S
H536 C562 0.950 . S
H537 C564 0.950 . S
H538 C567 0.950 . S
H539 C568 0.950 . S
H540 C570 0.950 . S
H541 C571 0.950 . S
C542 H524 0.951 . S
C542 C543 1.366 . S
C542 C544 1.388 . S
C543 C542 1.366 . S
C543 C547 1.385 . S
C544 H525 0.951 . S
C544 C542 1.388 . S
C544 C545 1.366 . S
C545 C544 1.366 . S
C545 C546 1.414 . S
C545 C548 1.499 . S
C546 H526 0.950 . S
C546 C545 1.414 . S
C546 C547 1.374 . S
C547 H527 0.950 . S
C547 C543 1.385 . S
C547 C546 1.374 . S
C548 C545 1.499 . S
C548 C549 1.373 . S
C548 C550 1.389 . S
C549 H528 0.950 . S
C549 C548 1.373 . S
C549 C565 1.377 . S
C550 C548 1.389 . S
C550 C551 1.524 . S
C550 C564 1.377 . S
C551 C550 1.524 . S
C551 C552 1.397 . S
C551 C556 1.363 . S
C552 H529 0.950 . S
C552 C551 1.397 . S
C552 C553 1.334 . S
C553 H530 0.950 . S
C553 C552 1.334 . S
C553 C554 1.287 . S
C554 C553 1.287 . S
C554 C555 1.524 . S
C554 H573 0.913 . S
C555 H531 0.950 . S
C555 C554 1.524 . S
C555 C556 1.415 . S
C556 H532 0.950 . S
C556 C551 1.363 . S
C556 C555 1.415 . S
C557 H533 0.951 . S
C557 C558 1.366 . S
C557 C559 1.388 . S
C558 C557 1.366 . S
C558 C562 1.385 . S
C559 H534 0.951 . S
C559 C557 1.388 . S
C559 C560 1.366 . S
C560 C559 1.366 . S
C560 C561 1.414 . S
C560 C563 1.499 . S
C561 H535 0.950 . S
C561 C560 1.414 . S
C561 C562 1.374 . S
C562 H536 0.950 . S
C562 C558 1.385 . S
C562 C561 1.374 . S
C563 C560 1.499 . S
C563 C564 1.373 . S
C563 C565 1.389 . S
C564 H537 0.950 . S
C564 C550 1.377 . S
C564 C563 1.373 . S
C565 C549 1.377 . S
C565 C563 1.389 . S
C565 C566 1.524 . S
C566 C565 1.524 . S
C566 C567 1.397 . S
C566 C571 1.363 . S
C567 H538 0.950 . S
C567 C566 1.397 . S
C567 C568 1.334 . S
C568 H539 0.950 . S
C568 C567 1.334 . S
C568 C569 1.287 . S
C569 C568 1.287 . S
C569 C570 1.524 . S
C569 H572 0.999 . S
C570 H540 0.950 . S
C570 C569 1.524 . S
C570 C571 1.415 . S
C571 H541 0.950 . S
C571 C566 1.363 . S
C571 C570 1.415 . S
H572 C569 0.999 . S
H573 C554 0.913 . S
H574 C592 0.951 . S
H575 C594 0.951 . S
H576 C596 0.950 . S
H577 C597 0.950 . S
H578 C599 0.950 . S
H579 C602 0.950 . S
H580 C603 0.950 . S
H581 C605 0.950 . S
H582 C606 0.950 . S
H583 C607 0.951 . S
H584 C609 0.951 . S
H585 C611 0.950 . S
H586 C612 0.950 . S
H587 C614 0.950 . S
H588 C617 0.950 . S
H589 C618 0.950 . S
H590 C620 0.950 . S
H591 C621 0.950 . S
C592 H574 0.951 . S
C592 C593 1.366 . S
C592 C594 1.388 . S
C593 C592 1.366 . S
C593 C597 1.385 . S
C594 H575 0.951 . S
C594 C592 1.388 . S
C594 C595 1.366 . S
C595 C594 1.366 . S
C595 C596 1.414 . S
C595 C598 1.499 . S
C596 H576 0.950 . S
C596 C595 1.414 . S
C596 C597 1.374 . S
C597 H577 0.950 . S
C597 C593 1.385 . S
C597 C596 1.374 . S
C598 C595 1.499 . S
C598 C599 1.373 . S
C598 C600 1.389 . S
C599 H578 0.950 . S
C599 C598 1.373 . S
C599 C615 1.377 . S
C600 C598 1.389 . S
C600 C601 1.524 . S
C600 C614 1.377 . S
C601 C600 1.524 . S
C601 C602 1.397 . S
C601 C606 1.363 . S
C602 H579 0.950 . S
C602 C601 1.397 . S
C602 C603 1.334 . S
C603 H580 0.950 . S
C603 C602 1.334 . S
C603 C604 1.287 . S
C604 C603 1.287 . S
C604 C605 1.524 . S
C604 H623 0.913 . S
C605 H581 0.950 . S
C605 C604 1.524 . S
C605 C606 1.415 . S
C606 H582 0.950 . S
C606 C601 1.363 . S
C606 C605 1.415 . S
C607 H583 0.951 . S
C607 C608 1.366 . S
C607 C609 1.388 . S
C608 C607 1.366 . S
C608 C612 1.385 . S
C609 H584 0.951 . S
C609 C607 1.388 . S
C609 C610 1.366 . S
C610 C609 1.366 . S
C610 C611 1.414 . S
C610 C613 1.499 . S
C611 H585 0.950 . S
C611 C610 1.414 . S
C611 C612 1.374 . S
C612 H586 0.950 . S
C612 C608 1.385 . S
C612 C611 1.374 . S
C613 C610 1.499 . S
C613 C614 1.373 . S
C613 C615 1.389 . S
C614 H587 0.950 . S
C614 C600 1.377 . S
C614 C613 1.373 . S
C615 C599 1.377 . S
C615 C613 1.389 . S
C615 C616 1.524 . S
C616 C615 1.524 . S
C616 C617 1.397 . S
C616 C621 1.363 . S
C617 H588 0.950 . S
C617 C616 1.397 . S
C617 C618 1.334 . S
C618 H589 0.950 . S
C618 C617 1.334 . S
C618 C619 1.287 . S
C619 C618 1.287 . S
C619 C620 1.524 . S
C619 H622 0.999 . S
C620 H590 0.950 . S
C620 C619 1.524 . S
C620 C621 1.415 . S
C621 H591 0.950 . S
C621 C616 1.363 . S
C621 C620 1.415 . S
H622 C619 0.999 . S
H623 C604 0.913 . S
H624 C642 0.951 . S
H625 C644 0.951 . S
H626 C646 0.950 . S
H627 C647 0.950 . S
H628 C649 0.950 . S
H629 C652 0.950 . S
H630 C653 0.950 . S
H631 C655 0.950 . S
H632 C656 0.950 . S
H633 C657 0.951 . S
H634 C659 0.951 . S
H635 C661 0.950 . S
H636 C662 0.950 . S
H637 C664 0.950 . S
H638 C667 0.950 . S
H639 C668 0.950 . S
H640 C670 0.950 . S
H641 C671 0.950 . S
C642 H624 0.951 . S
C642 C643 1.366 . S
C642 C644 1.388 . S
C643 C642 1.366 . S
C643 C647 1.385 . S
C644 H625 0.951 . S
C644 C642 1.388 . S
C644 C645 1.366 . S
C645 C644 1.366 . S
C645 C646 1.414 . S
C645 C648 1.499 . S
C646 H626 0.950 . S
C646 C645 1.414 . S
C646 C647 1.374 . S
C647 H627 0.950 . S
C647 C643 1.385 . S
C647 C646 1.374 . S
C648 C645 1.499 . S
C648 C649 1.373 1_556 S
C648 C650 1.389 . S
C649 H628 0.950 . S
C649 C648 1.373 1_554 S
C649 C665 1.377 . S
C650 C648 1.389 . S
C650 C651 1.524 . S
C650 C664 1.377 . S
C651 C650 1.524 . S
C651 C652 1.397 . S
C651 C656 1.363 . S
C652 H629 0.950 . S
C652 C651 1.397 . S
C652 C653 1.334 . S
C653 H630 0.950 . S
C653 C652 1.334 . S
C653 C654 1.287 . S
C654 C653 1.287 . S
C654 C655 1.524 . S
C654 H673 0.913 . S
C655 H631 0.950 . S
C655 C654 1.524 . S
C655 C656 1.415 . S
C656 H632 0.950 . S
C656 C651 1.363 . S
C656 C655 1.415 . S
C657 H633 0.951 . S
C657 C658 1.366 . S
C657 C659 1.388 . S
C658 C657 1.366 . S
C658 C662 1.385 . S
C659 H634 0.951 . S
C659 C657 1.388 . S
C659 C660 1.366 . S
C660 C659 1.366 . S
C660 C661 1.414 . S
C660 C663 1.499 . S
C661 H635 0.950 . S
C661 C660 1.414 . S
C661 C662 1.374 . S
C662 H636 0.950 . S
C662 C658 1.385 . S
C662 C661 1.374 . S
C663 C660 1.499 . S
C663 C664 1.373 1_554 S
C663 C665 1.389 . S
C664 H637 0.950 . S
C664 C650 1.377 . S
C664 C663 1.373 1_556 S
C665 C649 1.377 . S
C665 C663 1.389 . S
C665 C666 1.524 . S
C666 C665 1.524 . S
C666 C667 1.397 . S
C666 C671 1.363 . S
C667 H638 0.950 . S
C667 C666 1.397 . S
C667 C668 1.334 . S
C668 H639 0.950 . S
C668 C667 1.334 . S
C668 C669 1.287 . S
C669 C668 1.287 . S
C669 C670 1.524 . S
C669 H672 0.999 . S
C670 H640 0.950 . S
C670 C669 1.524 . S
C670 C671 1.415 . S
C671 H641 0.950 . S
C671 C666 1.363 . S
C671 C670 1.415 . S
H672 C669 0.999 . S
H673 C654 0.913 . S
H674 C692 0.951 . S
H675 C694 0.951 1_554 S
H676 C696 0.950 . S
H677 C697 0.950 . S
H678 C699 0.950 . S
H679 C702 0.950 . S
H680 C703 0.950 . S
H681 C705 0.950 . S
H682 C706 0.950 . S
H683 C707 0.951 . S
H684 C709 0.951 1_556 S
H685 C711 0.950 . S
H686 C712 0.950 . S
H687 C714 0.950 . S
H688 C717 0.950 . S
H689 C718 0.950 . S
H690 C720 0.950 . S
H691 C721 0.950 . S
C692 H674 0.951 . S
C692 C693 1.366 . S
C692 C694 1.388 . S
C693 C692 1.366 . S
C693 C697 1.385 . S
C694 H675 0.951 1_556 S
C694 C692 1.388 . S
C694 C695 1.366 . S
C695 C694 1.366 . S
C695 C696 1.414 . S
C695 C698 1.499 . S
C696 H676 0.950 . S
C696 C695 1.414 . S
C696 C697 1.374 . S
C697 H677 0.950 . S
C697 C693 1.385 . S
C697 C696 1.374 . S
C698 C695 1.499 . S
C698 C699 1.373 . S
C698 C700 1.389 1_556 S
C699 H678 0.950 . S
C699 C698 1.373 . S
C699 C715 1.377 . S
C700 C698 1.389 1_554 S
C700 C701 1.524 . S
C700 C714 1.377 . S
C701 C700 1.524 . S
C701 C702 1.397 . S
C701 C706 1.363 . S
C702 H679 0.950 . S
C702 C701 1.397 . S
C702 C703 1.334 . S
C703 H680 0.950 . S
C703 C702 1.334 . S
C703 C704 1.287 . S
C704 C703 1.287 . S
C704 C705 1.524 . S
C704 H723 0.913 . S
C705 H681 0.950 . S
C705 C704 1.524 . S
C705 C706 1.415 . S
C706 H682 0.950 . S
C706 C701 1.363 . S
C706 C705 1.415 . S
C707 H683 0.951 . S
C707 C708 1.366 . S
C707 C709 1.388 . S
C708 C707 1.366 . S
C708 C712 1.385 . S
C709 H684 0.951 1_554 S
C709 C707 1.388 . S
C709 C710 1.366 . S
C710 C709 1.366 . S
C710 C711 1.414 . S
C710 C713 1.499 . S
C711 H685 0.950 . S
C711 C710 1.414 . S
C711 C712 1.374 . S
C712 H686 0.950 . S
C712 C708 1.385 . S
C712 C711 1.374 . S
C713 C710 1.499 . S
C713 C714 1.373 . S
C713 C715 1.389 1_554 S
C714 H687 0.950 . S
C714 C700 1.377 . S
C714 C713 1.373 . S
C715 C699 1.377 . S
C715 C713 1.389 1_556 S
C715 C716 1.524 . S
C716 C715 1.524 . S
C716 C717 1.397 . S
C716 C721 1.363 . S
C717 H688 0.950 . S
C717 C716 1.397 . S
C717 C718 1.334 . S
C718 H689 0.950 . S
C718 C717 1.334 . S
C718 C719 1.287 . S
C719 C718 1.287 . S
C719 C720 1.524 . S
C719 H722 0.999 . S
C720 H690 0.950 . S
C720 C719 1.524 . S
C720 C721 1.415 . S
C721 H691 0.950 . S
C721 C716 1.363 . S
C721 C720 1.415 . S
H722 C719 0.999 . S
H723 C704 0.913 . S
H724 C742 0.951 . S
H725 C744 0.951 . S
H726 C746 0.950 . S
H727 C747 0.950 . S
H728 C749 0.950 . S
H729 C752 0.950 . S
H730 C753 0.950 . S
H731 C755 0.950 . S
H732 C756 0.950 . S
H733 C757 0.951 . S
H734 C759 0.951 . S
H735 C761 0.950 . S
H736 C762 0.950 . S
H737 C764 0.950 . S
H738 C767 0.950 . S
H739 C768 0.950 . S
H740 C770 0.950 . S
H741 C771 0.950 . S
C742 H724 0.951 . S
C742 C743 1.366 . S
C742 C744 1.388 . S
C743 C742 1.366 . S
C743 C747 1.385 . S
C744 H725 0.951 . S
C744 C742 1.388 . S
C744 C745 1.366 . S
C745 C744 1.366 . S
C745 C746 1.414 . S
C745 C748 1.499 . S
C746 H726 0.950 . S
C746 C745 1.414 . S
C746 C747 1.374 . S
C747 H727 0.950 . S
C747 C743 1.385 . S
C747 C746 1.374 . S
C748 C745 1.499 . S
C748 C749 1.373 . S
C748 C750 1.389 1_556 S
C749 H728 0.950 . S
C749 C748 1.373 . S
C749 C765 1.377 . S
C750 C748 1.389 1_554 S
C750 C751 1.524 . S
C750 C764 1.377 . S
C751 C750 1.524 . S
C751 C752 1.397 . S
C751 C756 1.363 . S
C752 H729 0.950 . S
C752 C751 1.397 . S
C752 C753 1.334 . S
C753 H730 0.950 . S
C753 C752 1.334 . S
C753 C754 1.287 . S
C754 C753 1.287 . S
C754 C755 1.524 . S
C754 H773 0.913 . S
C755 H731 0.950 . S
C755 C754 1.524 . S
C755 C756 1.415 . S
C756 H732 0.950 . S
C756 C751 1.363 . S
C756 C755 1.415 . S
C757 H733 0.951 . S
C757 C758 1.366 . S
C757 C759 1.388 . S
C758 C757 1.366 . S
C758 C762 1.385 . S
C759 H734 0.951 . S
C759 C757 1.388 . S
C759 C760 1.366 . S
C760 C759 1.366 . S
C760 C761 1.414 . S
C760 C763 1.499 . S
C761 H735 0.950 . S
C761 C760 1.414 . S
C761 C762 1.374 . S
C762 H736 0.950 . S
C762 C758 1.385 . S
C762 C761 1.374 . S
C763 C760 1.499 . S
C763 C764 1.373 . S
C763 C765 1.389 1_554 S
C764 H737 0.950 . S
C764 C750 1.377 . S
C764 C763 1.373 . S
C765 C749 1.377 . S
C765 C763 1.389 1_556 S
C765 C766 1.524 . S
C766 C765 1.524 . S
C766 C767 1.397 . S
C766 C771 1.363 . S
C767 H738 0.950 . S
C767 C766 1.397 . S
C767 C768 1.334 . S
C768 H739 0.950 . S
C768 C767 1.334 . S
C768 C769 1.287 . S
C769 C768 1.287 . S
C769 C770 1.524 . S
C769 H772 0.999 . S
C770 H740 0.950 . S
C770 C769 1.524 . S
C770 C771 1.415 . S
C771 H741 0.950 . S
C771 C766 1.363 . S
C771 C770 1.415 . S
H772 C769 0.999 . S
H773 C754 0.913 . S
H774 C792 0.951 . S
H775 C794 0.940 1_556 S
H776 C796 0.950 . S
H777 C797 0.950 . S
H778 C799 0.950 . S
H779 C802 0.950 . S
H780 C803 0.950 . S
H781 C805 0.950 . S
H782 C806 0.950 . S
H783 C807 0.951 . S
H784 C809 0.951 . S
H785 C811 0.950 . S
H786 C812 0.950 . S
H787 C814 0.950 . S
H788 C817 0.950 . S
H789 C818 0.950 . S
H790 C820 0.950 . S
H791 C821 0.950 . S
C792 H774 0.951 . S
C792 C793 1.366 . S
C792 C794 1.388 . S
C793 C792 1.366 . S
C793 C797 1.385 . S
C794 H775 0.940 1_554 S
C794 C792 1.388 . S
C794 C795 1.366 . S
C795 C794 1.366 . S
C795 C796 1.414 . S
C795 C798 1.499 . S
C796 H776 0.950 . S
C796 C795 1.414 . S
C796 C797 1.374 . S
C797 H777 0.950 . S
C797 C793 1.385 . S
C797 C796 1.374 . S
C798 C795 1.499 . S
C798 C799 1.373 . S
C798 C800 1.389 1_554 S
C799 H778 0.950 . S
C799 C798 1.373 . S
C799 C815 1.377 . S
C800 C798 1.389 1_556 S
C800 C801 1.524 . S
C800 C814 1.377 . S
C801 C800 1.524 . S
C801 C802 1.397 . S
C801 C806 1.363 . S
C802 H779 0.950 . S
C802 C801 1.397 . S
C802 C803 1.334 . S
C803 H780 0.950 . S
C803 C802 1.334 . S
C803 C804 1.287 . S
C804 C803 1.287 . S
C804 C805 1.524 . S
C804 H823 0.913 . S
C805 H781 0.950 . S
C805 C804 1.524 . S
C805 C806 1.415 . S
C806 H782 0.950 . S
C806 C801 1.363 . S
C806 C805 1.415 . S
C807 H783 0.951 . S
C807 C808 1.366 . S
C807 C809 1.388 . S
C808 C807 1.366 . S
C808 C812 1.385 . S
C809 H784 0.951 . S
C809 C807 1.388 . S
C809 C810 1.366 . S
C810 C809 1.366 . S
C810 C811 1.414 . S
C810 C813 1.499 . S
C811 H785 0.950 . S
C811 C810 1.414 . S
C811 C812 1.374 . S
C812 H786 0.950 . S
C812 C808 1.385 . S
C812 C811 1.374 . S
C813 C810 1.499 . S
C813 C814 1.373 . S
C813 C815 1.389 1_556 S
C814 H787 0.950 . S
C814 C800 1.377 . S
C814 C813 1.373 . S
C815 C799 1.377 . S
C815 C813 1.389 1_554 S
C815 C816 1.524 . S
C816 C815 1.524 . S
C816 C817 1.397 . S
C816 C821 1.363 . S
C817 H788 0.950 . S
C817 C816 1.397 . S
C817 C818 1.334 . S
C818 H789 0.950 . S
C818 C817 1.334 . S
C818 C819 1.287 . S
C819 C818 1.287 . S
C819 C820 1.524 . S
C819 H822 0.999 . S
C820 H790 0.950 . S
C820 C819 1.524 . S
C820 C821 1.415 . S
C821 H791 0.950 . S
C821 C816 1.363 . S
C821 C820 1.415 . S
H822 C819 0.999 . S
H823 C804 0.913 . S
H824 C842 0.951 . S
H825 C844 0.951 . S
H826 C846 0.950 . S
H827 C847 0.950 . S
H828 C849 0.950 . S
H829 C852 0.950 . S
H830 C853 0.950 . S
H831 C855 0.950 . S
H832 C856 0.950 . S
H833 C857 0.951 . S
H834 C859 0.951 . S
H835 C861 0.950 . S
H836 C862 0.950 . S
H837 C864 0.950 . S
H838 C867 0.950 . S
H839 C868 0.950 . S
H840 C870 0.950 . S
H841 C871 0.950 . S
C842 H824 0.951 . S
C842 C843 1.366 . S
C842 C844 1.388 . S
C843 C842 1.366 . S
C843 C847 1.385 . S
C844 H825 0.951 . S
C844 C842 1.388 . S
C844 C845 1.366 . S
C845 C844 1.366 . S
C845 C846 1.414 . S
C845 C848 1.499 . S
C846 H826 0.950 . S
C846 C845 1.414 . S
C846 C847 1.374 . S
C847 H827 0.950 . S
C847 C843 1.385 . S
C847 C846 1.374 . S
C848 C845 1.499 . S
C848 C849 1.373 . S
C848 C850 1.389 . S
C849 H828 0.950 . S
C849 C848 1.373 . S
C849 C865 1.377 . S
C850 C848 1.389 . S
C850 C851 1.524 . S
C850 C864 1.377 . S
C851 C850 1.524 . S
C851 C852 1.397 . S
C851 C856 1.363 . S
C852 H829 0.950 . S
C852 C851 1.397 . S
C852 C853 1.334 . S
C853 H830 0.950 . S
C853 C852 1.334 . S
C853 C854 1.287 . S
C854 C853 1.287 . S
C854 C855 1.524 . S
C854 H873 0.913 . S
C855 H831 0.950 . S
C855 C854 1.524 . S
C855 C856 1.415 . S
C856 H832 0.950 . S
C856 C851 1.363 . S
C856 C855 1.415 . S
C857 H833 0.951 . S
C857 C858 1.366 . S
C857 C859 1.388 . S
C858 C857 1.366 . S
C858 C862 1.385 . S
C859 H834 0.951 . S
C859 C857 1.388 . S
C859 C860 1.366 . S
C860 C859 1.366 . S
C860 C861 1.414 . S
C860 C863 1.499 . S
C861 H835 0.950 . S
C861 C860 1.414 . S
C861 C862 1.374 . S
C862 H836 0.950 . S
C862 C858 1.385 . S
C862 C861 1.374 . S
C863 C860 1.499 . S
C863 C864 1.373 . S
C863 C865 1.389 . S
C864 H837 0.950 . S
C864 C850 1.377 . S
C864 C863 1.373 . S
C865 C849 1.377 . S
C865 C863 1.389 . S
C865 C866 1.524 . S
C866 C865 1.524 . S
C866 C867 1.397 . S
C866 C871 1.363 . S
C867 H838 0.950 . S
C867 C866 1.397 . S
C867 C868 1.334 . S
C868 H839 0.950 . S
C868 C867 1.334 . S
C868 C869 1.287 . S
C869 C868 1.287 . S
C869 C870 1.524 . S
C869 H872 0.999 . S
C870 H840 0.950 . S
C870 C869 1.524 . S
C870 C871 1.415 . S
C871 H841 0.950 . S
C871 C866 1.363 . S
C871 C870 1.415 . S
H872 C869 0.999 . S
H873 C854 0.913 . S
H874 C892 0.951 . S
H875 C894 0.951 . S
H876 C896 0.950 . S
H877 C897 0.950 . S
H878 C899 0.950 . S
H879 C902 0.950 . S
H880 C903 0.950 . S
H881 C905 0.950 . S
H882 C906 0.950 . S
H883 C907 0.951 . S
H884 C909 0.951 . S
H885 C911 0.950 . S
H886 C912 0.950 . S
H887 C914 0.950 . S
H888 C917 0.950 . S
H889 C918 0.950 . S
H890 C920 0.950 . S
H891 C921 0.950 . S
C892 H874 0.951 . S
C892 C893 1.366 . S
C892 C894 1.388 . S
C893 C892 1.366 . S
C893 C897 1.385 . S
C894 H875 0.951 . S
C894 C892 1.388 . S
C894 C895 1.366 . S
C895 C894 1.366 . S
C895 C896 1.414 . S
C895 C898 1.499 . S
C896 H876 0.950 . S
C896 C895 1.414 . S
C896 C897 1.374 . S
C897 H877 0.950 . S
C897 C893 1.385 . S
C897 C896 1.374 . S
C898 C895 1.499 . S
C898 C899 1.373 . S
C898 C900 1.389 . S
C899 H878 0.950 . S
C899 C898 1.373 . S
C899 C915 1.377 . S
C900 C898 1.389 . S
C900 C901 1.524 . S
C900 C914 1.377 . S
C901 C900 1.524 . S
C901 C902 1.397 . S
C901 C906 1.363 . S
C902 H879 0.950 . S
C902 C901 1.397 . S
C902 C903 1.334 . S
C903 H880 0.950 . S
C903 C902 1.334 . S
C903 C904 1.287 . S
C904 C903 1.287 . S
C904 C905 1.524 . S
C904 H923 0.913 . S
C905 H881 0.950 . S
C905 C904 1.524 . S
C905 C906 1.415 . S
C906 H882 0.950 . S
C906 C901 1.363 . S
C906 C905 1.415 . S
C907 H883 0.951 . S
C907 C908 1.366 . S
C907 C909 1.388 . S
C908 C907 1.366 . S
C908 C912 1.385 . S
C909 H884 0.951 . S
C909 C907 1.388 . S
C909 C910 1.366 . S
C910 C909 1.366 . S
C910 C911 1.414 . S
C910 C913 1.499 . S
C911 H885 0.950 . S
C911 C910 1.414 . S
C911 C912 1.374 . S
C912 H886 0.950 . S
C912 C908 1.385 . S
C912 C911 1.374 . S
C913 C910 1.499 . S
C913 C914 1.373 . S
C913 C915 1.389 . S
C914 H887 0.950 . S
C914 C900 1.377 . S
C914 C913 1.373 . S
C915 C899 1.377 . S
C915 C913 1.389 . S
C915 C916 1.524 . S
C916 C915 1.524 . S
C916 C917 1.397 . S
C916 C921 1.363 . S
C917 H888 0.950 . S
C917 C916 1.397 . S
C917 C918 1.334 . S
C918 H889 0.950 . S
C918 C917 1.334 . S
C918 C919 1.287 . S
C919 C918 1.287 . S
C919 C920 1.524 . S
C919 H922 0.999 . S
C920 H890 0.950 . S
C920 C919 1.524 . S
C920 C921 1.415 . S
C921 H891 0.950 . S
C921 C916 1.363 . S
C921 C920 1.415 . S
H922 C919 0.999 . S
H923 C904 0.913 . S
H924 C942 0.951 . S
H925 C944 0.951 . S
H926 C946 0.950 . S
H927 C947 0.950 . S
H928 C949 0.950 . S
H929 C952 0.950 . S
H930 C953 0.950 . S
H931 C955 0.950 . S
H932 C956 0.950 . S
H933 C957 0.951 . S
H934 C959 0.951 . S
H935 C961 0.950 . S
H936 C962 0.950 . S
H937 C964 0.950 . S
H938 C967 0.950 . S
H939 C968 0.950 . S
H940 C970 0.950 . S
H941 C971 0.950 . S
C942 H924 0.951 . S
C942 C943 1.366 . S
C942 C944 1.388 . S
C943 C942 1.366 . S
C943 C947 1.385 . S
C944 H925 0.951 . S
C944 C942 1.388 . S
C944 C945 1.366 . S
C945 C944 1.366 . S
C945 C946 1.414 . S
C945 C948 1.499 . S
C946 H926 0.950 . S
C946 C945 1.414 . S
C946 C947 1.374 . S
C947 H927 0.950 . S
C947 C943 1.385 . S
C947 C946 1.374 . S
C948 C945 1.499 . S
C948 C949 1.373 . S
C948 C950 1.389 . S
C949 H928 0.950 . S
C949 C948 1.373 . S
C949 C965 1.377 . S
C950 C948 1.389 . S
C950 C951 1.524 . S
C950 C964 1.377 . S
C951 C950 1.524 . S
C951 C952 1.397 . S
C951 C956 1.363 . S
C952 H929 0.950 . S
C952 C951 1.397 . S
C952 C953 1.334 . S
C953 H930 0.950 . S
C953 C952 1.334 . S
C953 C954 1.287 . S
C954 C953 1.287 . S
C954 C955 1.524 . S
C954 H973 0.913 . S
C955 H931 0.950 . S
C955 C954 1.524 . S
C955 C956 1.415 . S
C956 H932 0.950 . S
C956 C951 1.363 . S
C956 C955 1.415 . S
C957 H933 0.951 . S
C957 C958 1.366 . S
C957 C959 1.388 . S
C958 C957 1.366 . S
C958 C962 1.385 . S
C959 H934 0.951 . S
C959 C957 1.388 . S
C959 C960 1.366 . S
C960 C959 1.366 . S
C960 C961 1.414 . S
C960 C963 1.499 . S
C961 H935 0.950 . S
C961 C960 1.414 . S
C961 C962 1.374 . S
C962 H936 0.950 . S
C962 C958 1.385 . S
C962 C961 1.374 . S
C963 C960 1.499 . S
C963 C964 1.373 . S
C963 C965 1.389 . S
C964 H937 0.950 . S
C964 C950 1.377 . S
C964 C963 1.373 . S
C965 C949 1.377 . S
C965 C963 1.389 . S
C965 C966 1.524 . S
C966 C965 1.524 . S
C966 C967 1.397 . S
C966 C971 1.363 . S
C967 H938 0.950 . S
C967 C966 1.397 . S
C967 C968 1.334 . S
C968 H939 0.950 . S
C968 C967 1.334 . S
C968 C969 1.287 . S
C969 C968 1.287 . S
C969 C970 1.524 . S
C969 H972 0.999 . S
C970 H940 0.950 . S
C970 C969 1.524 . S
C970 C971 1.415 . S
C971 H941 0.950 . S
C971 C966 1.363 . S
C971 C970 1.415 . S
H972 C969 0.999 . S
H973 C954 0.913 . S
H974 C992 0.951 . S
H975 C994 0.951 . S
H976 C996 0.950 . S
H977 C997 0.950 . S
H978 C999 0.950 . S
H979 C1002 0.950 . S
H980 C1003 0.950 . S
H981 C1005 0.950 . S
H982 C1006 0.950 . S
H983 C1007 0.951 . S
H984 C1009 0.951 . S
H985 C1011 0.950 . S
H986 C1012 0.950 . S
H987 C1014 0.950 . S
H988 C1017 0.950 . S
H989 C1018 0.950 . S
H990 C1020 0.950 . S
H991 C1021 0.950 . S
C992 H974 0.951 . S
C992 C993 1.366 . S
C992 C994 1.388 . S
C993 C992 1.366 . S
C993 C997 1.385 . S
C994 H975 0.951 . S
C994 C992 1.388 . S
C994 C995 1.366 . S
C995 C994 1.366 . S
C995 C996 1.414 . S
C995 C998 1.499 . S
C996 H976 0.950 . S
C996 C995 1.414 . S
C996 C997 1.374 . S
C997 H977 0.950 . S
C997 C993 1.385 . S
C997 C996 1.374 . S
C998 C995 1.499 . S
C998 C999 1.373 . S
C998 C1000 1.389 . S
C999 H978 0.950 . S
C999 C998 1.373 . S
C999 C1015 1.377 . S
C1000 C998 1.389 . S
C1000 C1001 1.524 . S
C1000 C1014 1.377 . S
C1001 C1000 1.524 . S
C1001 C1002 1.397 . S
C1001 C1006 1.363 . S
C1002 H979 0.950 . S
C1002 C1001 1.397 . S
C1002 C1003 1.334 . S
C1003 H980 0.950 . S
C1003 C1002 1.334 . S
C1003 C1004 1.287 . S
C1004 C1003 1.287 . S
C1004 C1005 1.524 . S
C1004 H1023 0.913 . S
C1005 H981 0.950 . S
C1005 C1004 1.524 . S
C1005 C1006 1.415 . S
C1006 H982 0.950 . S
C1006 C1001 1.363 . S
C1006 C1005 1.415 . S
C1007 H983 0.951 . S
C1007 C1008 1.366 . S
C1007 C1009 1.388 . S
C1008 C1007 1.366 . S
C1008 C1012 1.385 . S
C1009 H984 0.951 . S
C1009 C1007 1.388 . S
C1009 C1010 1.366 . S
C1010 C1009 1.366 . S
C1010 C1011 1.414 . S
C1010 C1013 1.499 . S
C1011 H985 0.950 . S
C1011 C1010 1.414 . S
C1011 C1012 1.374 . S
C1012 H986 0.950 . S
C1012 C1008 1.385 . S
C1012 C1011 1.374 . S
C1013 C1010 1.499 . S
C1013 C1014 1.373 . S
C1013 C1015 1.389 . S
C1014 H987 0.950 . S
C1014 C1000 1.377 . S
C1014 C1013 1.373 . S
C1015 C999 1.377 . S
C1015 C1013 1.389 . S
C1015 C1016 1.524 . S
C1016 C1015 1.524 . S
C1016 C1017 1.397 . S
C1016 C1021 1.363 . S
C1017 H988 0.950 . S
C1017 C1016 1.397 . S
C1017 C1018 1.334 . S
C1018 H989 0.950 . S
C1018 C1017 1.334 . S
C1018 C1019 1.287 . S
C1019 C1018 1.287 . S
C1019 C1020 1.524 . S
C1019 H1022 0.999 . S
C1020 H990 0.950 . S
C1020 C1019 1.524 . S
C1020 C1021 1.415 . S
C1021 H991 0.950 . S
C1021 C1016 1.363 . S
C1021 C1020 1.415 . S
H1022 C1019 0.999 . S
H1023 C1004 0.913 . S
H1024 C1042 0.951 . S
H1025 C1044 0.951 . S
H1026 C1046 0.950 . S
H1027 C1047 0.950 . S
H1028 C1049 0.950 . S
H1029 C1052 0.950 . S
H1030 C1053 0.950 . S
H1031 C1055 0.950 . S
H1032 C1056 0.950 . S
H1033 C1057 0.951 . S
H1034 C1059 0.951 . S
H1035 C1061 0.950 . S
H1036 C1062 0.950 . S
H1037 C1064 0.950 . S
H1038 C1067 0.950 . S
H1039 C1068 0.950 . S
H1040 C1070 0.950 . S
H1041 C1071 0.950 . S
C1042 H1024 0.951 . S
C1042 C1043 1.366 . S
C1042 C1044 1.388 . S
C1043 C1042 1.366 . S
C1043 C1047 1.385 . S
C1044 H1025 0.951 . S
C1044 C1042 1.388 . S
C1044 C1045 1.366 . S
C1045 C1044 1.366 . S
C1045 C1046 1.414 . S
C1045 C1048 1.499 . S
C1046 H1026 0.950 . S
C1046 C1045 1.414 . S
C1046 C1047 1.374 . S
C1047 H1027 0.950 . S
C1047 C1043 1.385 . S
C1047 C1046 1.374 . S
C1048 C1045 1.499 . S
C1048 C1049 1.373 . S
C1048 C1050 1.389 1_556 S
C1049 H1028 0.950 . S
C1049 C1048 1.373 . S
C1049 C1065 1.377 1_565 S
C1050 C1048 1.389 1_554 S
C1050 C1051 1.524 . S
C1050 C1064 1.377 1_565 S
C1051 C1050 1.524 . S
C1051 C1052 1.397 . S
C1051 C1056 1.363 . S
C1052 H1029 0.950 . S
C1052 C1051 1.397 . S
C1052 C1053 1.334 . S
C1053 H1030 0.950 . S
C1053 C1052 1.334 . S
C1053 C1054 1.287 . S
C1054 C1053 1.287 . S
C1054 C1055 1.524 . S
C1054 H1073 0.913 . S
C1055 H1031 0.950 . S
C1055 C1054 1.524 . S
C1055 C1056 1.415 . S
C1056 H1032 0.950 . S
C1056 C1051 1.363 . S
C1056 C1055 1.415 . S
C1057 H1033 0.951 . S
C1057 C1058 1.366 . S
C1057 C1059 1.388 . S
C1058 C1057 1.366 . S
C1058 C1062 1.385 . S
C1059 H1034 0.951 . S
C1059 C1057 1.388 . S
C1059 C1060 1.366 . S
C1060 C1059 1.366 . S
C1060 C1061 1.414 . S
C1060 C1063 1.499 . S
C1061 H1035 0.950 . S
C1061 C1060 1.414 . S
C1061 C1062 1.374 . S
C1062 H1036 0.950 . S
C1062 C1058 1.385 . S
C1062 C1061 1.374 . S
C1063 C1060 1.499 . S
C1063 C1064 1.373 . S
C1063 C1065 1.389 1_554 S
C1064 H1037 0.950 . S
C1064 C1050 1.377 1_545 S
C1064 C1063 1.373 . S
C1065 C1049 1.377 1_545 S
C1065 C1063 1.389 1_556 S
C1065 C1066 1.524 . S
C1066 C1065 1.524 . S
C1066 C1067 1.397 . S
C1066 C1071 1.363 . S
C1067 H1038 0.950 . S
C1067 C1066 1.397 . S
C1067 C1068 1.334 . S
C1068 H1039 0.950 . S
C1068 C1067 1.334 . S
C1068 C1069 1.287 . S
C1069 C1068 1.287 . S
C1069 C1070 1.524 . S
C1069 H1072 0.999 . S
C1070 H1040 0.950 . S
C1070 C1069 1.524 . S
C1070 C1071 1.415 . S
C1071 H1041 0.950 . S
C1071 C1066 1.363 . S
C1071 C1070 1.415 . S
H1072 C1069 0.999 . S
H1073 C1054 0.913 . S
H1074 C1092 0.951 . S
H1075 C1094 0.951 . S
H1076 C1096 0.950 . S
H1077 C1097 0.950 . S
H1078 C1099 0.950 . S
H1079 C1102 0.950 . S
H1080 C1103 0.950 . S
H1081 C1105 0.950 . S
H1082 C1106 0.950 . S
H1083 C1107 0.951 . S
H1084 C1109 0.951 . S
H1085 C1111 0.950 . S
H1086 C1112 0.950 . S
H1087 C1114 0.950 . S
H1088 C1117 0.950 . S
H1089 C1118 0.950 . S
H1090 C1120 0.950 . S
H1091 C1121 0.950 . S
C1092 H1074 0.951 . S
C1092 C1093 1.366 . S
C1092 C1094 1.388 . S
C1093 C1092 1.366 . S
C1093 C1097 1.385 . S
C1094 H1075 0.951 . S
C1094 C1092 1.388 . S
C1094 C1095 1.366 . S
C1095 C1094 1.366 . S
C1095 C1096 1.414 . S
C1095 C1098 1.499 . S
C1096 H1076 0.950 . S
C1096 C1095 1.414 . S
C1096 C1097 1.374 . S
C1097 H1077 0.950 . S
C1097 C1093 1.385 . S
C1097 C1096 1.374 . S
C1098 C1095 1.499 . S
C1098 C1099 1.373 . S
C1098 C1100 1.389 1_554 S
C1099 H1078 0.950 . S
C1099 C1098 1.373 . S
C1099 C1115 1.377 . S
C1100 C1098 1.389 1_556 S
C1100 C1101 1.524 . S
C1100 C1114 1.377 . S
C1101 C1100 1.524 . S
C1101 C1102 1.397 . S
C1101 C1106 1.363 . S
C1102 H1079 0.950 . S
C1102 C1101 1.397 . S
C1102 C1103 1.334 . S
C1103 H1080 0.950 . S
C1103 C1102 1.334 . S
C1103 C1104 1.287 . S
C1104 C1103 1.287 . S
C1104 C1105 1.524 . S
C1104 H1123 0.913 . S
C1105 H1081 0.950 . S
C1105 C1104 1.524 . S
C1105 C1106 1.415 . S
C1106 H1082 0.950 . S
C1106 C1101 1.363 . S
C1106 C1105 1.415 . S
C1107 H1083 0.951 . S
C1107 C1108 1.366 . S
C1107 C1109 1.388 . S
C1108 C1107 1.366 . S
C1108 C1112 1.385 . S
C1109 H1084 0.951 . S
C1109 C1107 1.388 . S
C1109 C1110 1.366 . S
C1110 C1109 1.366 . S
C1110 C1111 1.414 . S
C1110 C1113 1.499 . S
C1111 H1085 0.950 . S
C1111 C1110 1.414 . S
C1111 C1112 1.374 . S
C1112 H1086 0.950 . S
C1112 C1108 1.385 . S
C1112 C1111 1.374 . S
C1113 C1110 1.499 . S
C1113 C1114 1.373 . S
C1113 C1115 1.389 1_556 S
C1114 H1087 0.950 . S
C1114 C1100 1.377 . S
C1114 C1113 1.373 . S
C1115 C1099 1.377 . S
C1115 C1113 1.389 1_554 S
C1115 C1116 1.524 . S
C1116 C1115 1.524 . S
C1116 C1117 1.397 . S
C1116 C1121 1.363 . S
C1117 H1088 0.950 . S
C1117 C1116 1.397 . S
C1117 C1118 1.334 . S
C1118 H1089 0.950 . S
C1118 C1117 1.334 . S
C1118 C1119 1.287 . S
C1119 C1118 1.287 . S
C1119 C1120 1.524 . S
C1119 H1122 0.999 . S
C1120 H1090 0.950 . S
C1120 C1119 1.524 . S
C1120 C1121 1.415 . S
C1121 H1091 0.950 . S
C1121 C1116 1.363 . S
C1121 C1120 1.415 . S
H1122 C1119 0.999 . S
H1123 C1104 0.913 . S
H1124 C1142 0.951 . S
H1125 C1144 0.951 . S
H1126 C1146 0.950 . S
H1127 C1147 0.950 . S
H1128 C1149 0.950 . S
H1129 C1152 0.950 1_455 S
H1130 C1153 0.950 . S
H1131 C1155 0.950 . S
H1132 C1156 0.950 . S
H1133 C1157 0.951 . S
H1134 C1159 0.951 . S
H1135 C1161 0.950 . S
H1136 C1162 0.950 . S
H1137 C1164 0.950 . S
H1138 C1167 0.950 1_655 S
H1139 C1168 0.950 . S
H1140 C1170 0.950 . S
H1141 C1171 0.950 . S
C1142 H1124 0.951 . S
C1142 C1143 1.366 1_655 S
C1142 C1144 1.388 . S
C1143 C1142 1.366 1_455 S
C1143 C1147 1.385 . S
C1144 H1125 0.951 . S
C1144 C1142 1.388 . S
C1144 C1145 1.366 1_655 S
C1145 C1144 1.366 1_455 S
C1145 C1146 1.414 . S
C1145 C1148 1.499 . S
C1146 H1126 0.950 . S
C1146 C1145 1.414 . S
C1146 C1147 1.374 . S
C1147 H1127 0.950 . S
C1147 C1143 1.385 . S
C1147 C1146 1.374 . S
C1148 C1145 1.499 . S
C1148 C1149 1.373 . S
C1148 C1150 1.389 1_456 S
C1149 H1128 0.950 . S
C1149 C1148 1.373 . S
C1149 C1165 1.377 . S
C1150 C1148 1.389 1_654 S
C1150 C1151 1.524 . S
C1150 C1164 1.377 . S
C1151 C1150 1.524 . S
C1151 C1152 1.397 . S
C1151 C1156 1.363 . S
C1152 H1129 0.950 1_655 S
C1152 C1151 1.397 . S
C1152 C1153 1.334 . S
C1153 H1130 0.950 . S
C1153 C1152 1.334 . S
C1153 C1154 1.287 . S
C1154 C1153 1.287 . S
C1154 C1155 1.524 . S
C1154 H1173 0.913 . S
C1155 H1131 0.950 . S
C1155 C1154 1.524 . S
C1155 C1156 1.415 . S
C1156 H1132 0.950 . S
C1156 C1151 1.363 . S
C1156 C1155 1.415 . S
C1157 H1133 0.951 . S
C1157 C1158 1.366 1_455 S
C1157 C1159 1.388 . S
C1158 C1157 1.366 1_655 S
C1158 C1162 1.385 . S
C1159 H1134 0.951 . S
C1159 C1157 1.388 . S
C1159 C1160 1.366 1_455 S
C1160 C1159 1.366 1_655 S
C1160 C1161 1.414 . S
C1160 C1163 1.499 . S
C1161 H1135 0.950 . S
C1161 C1160 1.414 . S
C1161 C1162 1.374 . S
C1162 H1136 0.950 . S
C1162 C1158 1.385 . S
C1162 C1161 1.374 . S
C1163 C1160 1.499 . S
C1163 C1164 1.373 . S
C1163 C1165 1.389 1_654 S
C1164 H1137 0.950 . S
C1164 C1150 1.377 . S
C1164 C1163 1.373 . S
C1165 C1149 1.377 . S
C1165 C1163 1.389 1_456 S
C1165 C1166 1.524 . S
C1166 C1165 1.524 . S
C1166 C1167 1.397 . S
C1166 C1171 1.363 . S
C1167 H1138 0.950 1_455 S
C1167 C1166 1.397 . S
C1167 C1168 1.334 . S
C1168 H1139 0.950 . S
C1168 C1167 1.334 . S
C1168 C1169 1.287 . S
C1169 C1168 1.287 . S
C1169 C1170 1.524 . S
C1169 H1172 0.999 . S
C1170 H1140 0.950 . S
C1170 C1169 1.524 . S
C1170 C1171 1.415 . S
C1171 H1141 0.950 . S
C1171 C1166 1.363 . S
C1171 C1170 1.415 . S
H1172 C1169 0.999 . S
H1173 C1154 0.913 . S
H1174 C1192 0.951 . S
H1175 C1194 0.951 . S
H1176 C1196 0.950 1_546 S
H1177 C1197 0.950 . S
H1178 C1199 0.950 . S
H1179 C1202 0.950 1_556 S
H1180 C1203 0.950 . S
H1181 C1205 0.950 . S
H1182 C1206 0.950 . S
H1183 C1207 0.951 . S
H1184 C1209 0.951 . S
H1185 C1211 0.950 1_564 S
H1186 C1212 0.950 . S
H1187 C1214 0.950 . S
H1188 C1217 0.950 1_554 S
H1189 C1218 0.950 . S
H1190 C1220 0.950 . S
H1191 C1221 0.950 . S
C1192 H1174 0.951 . S
C1192 C1193 1.366 . S
C1192 C1194 1.388 . S
C1193 C1192 1.366 . S
C1193 C1197 1.385 . S
C1194 H1175 0.951 . S
C1194 C1192 1.388 . S
C1194 C1195 1.366 . S
C1195 C1194 1.366 . S
C1195 C1196 1.414 . S
C1195 C1198 1.499 . S
C1196 H1176 0.950 1_564 S
C1196 C1195 1.414 . S
C1196 C1197 1.374 . S
C1197 H1177 0.950 . S
C1197 C1193 1.385 . S
C1197 C1196 1.374 . S
C1198 C1195 1.499 . S
C1198 C1199 1.373 1_564 S
C1198 C1200 1.389 . S
C1199 H1178 0.950 . S
C1199 C1198 1.373 1_546 S
C1199 C1215 1.377 1_455 S
C1200 C1198 1.389 . S
C1200 C1201 1.524 . S
C1200 C1214 1.377 1_455 S
C1201 C1200 1.524 . S
C1201 C1202 1.397 . S
C1201 C1206 1.363 1_455 S
C1202 H1179 0.950 1_554 S
C1202 C1201 1.397 . S
C1202 C1203 1.334 . S
C1203 H1180 0.950 . S
C1203 C1202 1.334 . S
C1203 C1204 1.287 . S
C1204 C1203 1.287 . S
C1204 C1205 1.524 1_455 S
C1204 H1223 0.913 . S
C1205 H1181 0.950 . S
C1205 C1204 1.524 1_655 S
C1205 C1206 1.415 . S
C1206 H1182 0.950 . S
C1206 C1201 1.363 1_655 S
C1206 C1205 1.415 . S
C1207 H1183 0.951 . S
C1207 C1208 1.366 . S
C1207 C1209 1.388 . S
C1208 C1207 1.366 . S
C1208 C1212 1.385 . S
C1209 H1184 0.951 . S
C1209 C1207 1.388 . S
C1209 C1210 1.366 . S
C1210 C1209 1.366 . S
C1210 C1211 1.414 . S
C1210 C1213 1.499 . S
C1211 H1185 0.950 1_546 S
C1211 C1210 1.414 . S
C1211 C1212 1.374 . S
C1212 H1186 0.950 . S
C1212 C1208 1.385 . S
C1212 C1211 1.374 . S
C1213 C1210 1.499 . S
C1213 C1214 1.373 1_546 S
C1213 C1215 1.389 . S
C1214 H1187 0.950 . S
C1214 C1200 1.377 1_655 S
C1214 C1213 1.373 1_564 S
C1215 C1199 1.377 1_655 S
C1215 C1213 1.389 . S
C1215 C1216 1.524 . S
C1216 C1215 1.524 . S
C1216 C1217 1.397 . S
C1216 C1221 1.363 1_655 S
C1217 H1188 0.950 1_556 S
C1217 C1216 1.397 . S
C1217 C1218 1.334 . S
C1218 H1189 0.950 . S
C1218 C1217 1.334 . S
C1218 C1219 1.287 . S
C1219 C1218 1.287 . S
C1219 C1220 1.524 1_655 S
C1219 H1222 0.999 . S
C1220 H1190 0.950 . S
C1220 C1219 1.524 1_455 S
C1220 C1221 1.415 . S
C1221 H1191 0.950 . S
C1221 C1216 1.363 1_455 S
C1221 C1220 1.415 . S
H1222 C1219 0.999 . S
H1223 C1204 0.913 . S
H1224 C1242 0.951 . S
H1225 C1244 0.951 . S
H1226 C1246 0.950 . S
H1227 C1247 0.950 . S
H1228 C1249 0.950 . S
H1229 C1252 0.950 . S
H1230 C1253 0.950 . S
H1231 C1255 0.950 . S
H1232 C1256 0.950 . S
H1233 C1257 0.951 . S
H1234 C1259 0.951 . S
H1235 C1261 0.950 . S
H1236 C1262 0.950 . S
H1237 C1264 0.950 . S
H1238 C1267 0.950 . S
H1239 C1268 0.950 . S
H1240 C1270 0.950 . S
H1241 C1271 0.950 . S
C1242 H1224 0.951 . S
C1242 C1243 1.366 . S
C1242 C1244 1.388 . S
C1243 C1242 1.366 . S
C1243 C1247 1.385 . S
C1244 H1225 0.951 . S
C1244 C1242 1.388 . S
C1244 C1245 1.366 . S
C1245 C1244 1.366 . S
C1245 C1246 1.414 . S
C1245 C1248 1.499 . S
C1246 H1226 0.950 . S
C1246 C1245 1.414 . S
C1246 C1247 1.374 . S
C1247 H1227 0.950 . S
C1247 C1243 1.385 . S
C1247 C1246 1.374 . S
C1248 C1245 1.499 . S
C1248 C1249 1.373 . S
C1248 C1250 1.389 . S
C1249 H1228 0.950 . S
C1249 C1248 1.373 . S
C1249 C1265 1.377 . S
C1250 C1248 1.389 . S
C1250 C1251 1.524 . S
C1250 C1264 1.377 . S
C1251 C1250 1.524 . S
C1251 C1252 1.397 . S
C1251 C1256 1.363 . S
C1252 H1229 0.950 . S
C1252 C1251 1.397 . S
C1252 C1253 1.334 . S
C1253 H1230 0.950 . S
C1253 C1252 1.334 . S
C1253 C1254 1.287 . S
C1254 C1253 1.287 . S
C1254 C1255 1.524 . S
C1254 H1273 0.913 . S
C1255 H1231 0.950 . S
C1255 C1254 1.524 . S
C1255 C1256 1.415 . S
C1256 H1232 0.950 . S
C1256 C1251 1.363 . S
C1256 C1255 1.415 . S
C1257 H1233 0.951 . S
C1257 C1258 1.366 . S
C1257 C1259 1.388 . S
C1258 C1257 1.366 . S
C1258 C1262 1.385 . S
C1259 H1234 0.951 . S
C1259 C1257 1.388 . S
C1259 C1260 1.366 . S
C1260 C1259 1.366 . S
C1260 C1261 1.414 . S
C1260 C1263 1.499 . S
C1261 H1235 0.950 . S
C1261 C1260 1.414 . S
C1261 C1262 1.374 . S
C1262 H1236 0.950 . S
C1262 C1258 1.385 . S
C1262 C1261 1.374 . S
C1263 C1260 1.499 . S
C1263 C1264 1.373 . S
C1263 C1265 1.389 . S
C1264 H1237 0.950 . S
C1264 C1250 1.377 . S
C1264 C1263 1.373 . S
C1265 C1249 1.377 . S
C1265 C1263 1.389 . S
C1265 C1266 1.524 . S
C1266 C1265 1.524 . S
C1266 C1267 1.397 . S
C1266 C1271 1.363 . S
C1267 H1238 0.950 . S
C1267 C1266 1.397 . S
C1267 C1268 1.334 . S
C1268 H1239 0.950 . S
C1268 C1267 1.334 . S
C1268 C1269 1.287 . S
C1269 C1268 1.287 . S
C1269 C1270 1.524 . S
C1269 H1272 0.999 . S
C1270 H1240 0.950 . S
C1270 C1269 1.524 . S
C1270 C1271 1.415 . S
C1271 H1241 0.950 . S
C1271 C1266 1.363 . S
C1271 C1270 1.415 . S
H1272 C1269 0.999 . S
H1273 C1254 0.913 . S
H1274 C1292 0.951 . S
H1275 C1294 0.951 . S
H1276 C1296 0.950 . S
H1277 C1297 0.950 . S
H1278 C1299 0.950 . S
H1279 C1302 0.950 . S
H1280 C1303 0.950 . S
H1281 C1305 0.950 . S
H1282 C1306 0.958 . S
H1283 C1307 0.951 . S
H1284 C1309 0.951 . S
H1285 C1311 0.950 . S
H1286 C1312 0.950 . S
H1287 C1314 0.950 . S
H1288 C1317 0.950 . S
H1289 C1318 0.950 . S
H1290 C1320 0.950 . S
H1291 C1321 0.958 . S
C1292 H1274 0.951 . S
C1292 C1293 1.366 . S
C1292 C1294 1.388 . S
C1293 C1292 1.366 . S
C1293 C1297 1.385 . S
C1294 H1275 0.951 . S
C1294 C1292 1.388 . S
C1294 C1295 1.366 . S
C1295 C1294 1.366 . S
C1295 C1296 1.414 . S
C1295 C1298 1.499 . S
C1296 H1276 0.950 . S
C1296 C1295 1.414 . S
C1296 C1297 1.374 . S
C1297 H1277 0.950 . S
C1297 C1293 1.385 . S
C1297 C1296 1.374 . S
C1298 C1295 1.499 . S
C1298 C1299 1.373 . S
C1298 C1300 1.389 . S
C1299 H1278 0.950 . S
C1299 C1298 1.373 . S
C1299 C1315 1.377 1_455 S
C1300 C1298 1.389 . S
C1300 C1301 1.524 . S
C1300 C1314 1.377 1_455 S
C1301 C1300 1.524 . S
C1301 C1302 1.397 . S
C1301 C1306 1.363 . S
C1302 H1279 0.950 . S
C1302 C1301 1.397 . S
C1302 C1303 1.334 . S
C1303 H1280 0.950 . S
C1303 C1302 1.334 . S
C1303 C1304 1.287 . S
C1304 C1303 1.287 . S
C1304 C1305 1.524 . S
C1304 H1323 0.913 . S
C1305 H1281 0.950 . S
C1305 C1304 1.524 . S
C1305 C1306 1.415 . S
C1306 H1282 0.958 . S
C1306 C1301 1.363 . S
C1306 C1305 1.415 . S
C1307 H1283 0.951 . S
C1307 C1308 1.366 . S
C1307 C1309 1.388 . S
C1308 C1307 1.366 . S
C1308 C1312 1.385 . S
C1309 H1284 0.951 . S
C1309 C1307 1.388 . S
C1309 C1310 1.366 . S
C1310 C1309 1.366 . S
C1310 C1311 1.414 . S
C1310 C1313 1.499 . S
C1311 H1285 0.950 . S
C1311 C1310 1.414 . S
C1311 C1312 1.374 . S
C1312 H1286 0.950 . S
C1312 C1308 1.385 . S
C1312 C1311 1.374 . S
C1313 C1310 1.499 . S
C1313 C1314 1.373 . S
C1313 C1315 1.389 . S
C1314 H1287 0.950 . S
C1314 C1300 1.377 1_655 S
C1314 C1313 1.373 . S
C1315 C1299 1.377 1_655 S
C1315 C1313 1.389 . S
C1315 C1316 1.524 . S
C1316 C1315 1.524 . S
C1316 C1317 1.397 . S
C1316 C1321 1.363 . S
C1317 H1288 0.950 . S
C1317 C1316 1.397 . S
C1317 C1318 1.334 . S
C1318 H1289 0.950 . S
C1318 C1317 1.334 . S
C1318 C1319 1.287 . S
C1319 C1318 1.287 . S
C1319 C1320 1.524 . S
C1319 H1322 0.999 . S
C1320 H1290 0.950 . S
C1320 C1319 1.524 . S
C1320 C1321 1.415 . S
C1321 H1291 0.958 . S
C1321 C1316 1.363 . S
C1321 C1320 1.415 . S
H1322 C1319 0.999 . S
H1323 C1304 0.913 . S
H1324 C1342 0.951 . S
H1325 C1344 0.951 . S
H1326 C1346 0.950 . S
H1327 C1347 0.950 . S
H1328 C1349 0.950 . S
H1329 C1352 0.950 . S
H1330 C1353 0.950 . S
H1331 C1355 0.950 . S
H1332 C1356 0.950 . S
H1333 C1357 0.951 . S
H1334 C1359 0.951 . S
H1335 C1361 0.950 . S
H1336 C1362 0.950 . S
H1337 C1364 0.950 . S
H1338 C1367 0.950 . S
H1339 C1368 0.950 . S
H1340 C1370 0.950 . S
H1341 C1371 0.950 . S
C1342 H1324 0.951 . S
C1342 C1343 1.366 . S
C1342 C1344 1.388 . S
C1343 C1342 1.366 . S
C1343 C1347 1.385 . S
C1344 H1325 0.951 . S
C1344 C1342 1.388 . S
C1344 C1345 1.366 . S
C1345 C1344 1.366 . S
C1345 C1346 1.414 . S
C1345 C1348 1.499 . S
C1346 H1326 0.950 . S
C1346 C1345 1.414 . S
C1346 C1347 1.374 . S
C1347 H1327 0.950 . S
C1347 C1343 1.385 . S
C1347 C1346 1.374 . S
C1348 C1345 1.499 . S
C1348 C1349 1.373 1_455 S
C1348 C1350 1.389 . S
C1349 H1328 0.950 . S
C1349 C1348 1.373 1_655 S
C1349 C1365 1.377 1_565 S
C1350 C1348 1.389 . S
C1350 C1351 1.524 . S
C1350 C1364 1.377 1_565 S
C1351 C1350 1.524 . S
C1351 C1352 1.397 . S
C1351 C1356 1.363 . S
C1352 H1329 0.950 . S
C1352 C1351 1.397 . S
C1352 C1353 1.334 . S
C1353 H1330 0.950 . S
C1353 C1352 1.334 . S
C1353 C1354 1.287 . S
C1354 C1353 1.287 . S
C1354 C1355 1.524 . S
C1354 H1373 0.913 . S
C1355 H1331 0.950 . S
C1355 C1354 1.524 . S
C1355 C1356 1.415 . S
C1356 H1332 0.950 . S
C1356 C1351 1.363 . S
C1356 C1355 1.415 . S
C1357 H1333 0.951 . S
C1357 C1358 1.366 . S
C1357 C1359 1.388 . S
C1358 C1357 1.366 . S
C1358 C1362 1.385 . S
C1359 H1334 0.951 . S
C1359 C1357 1.388 . S
C1359 C1360 1.366 . S
C1360 C1359 1.366 . S
C1360 C1361 1.414 . S
C1360 C1363 1.499 . S
C1361 H1335 0.950 . S
C1361 C1360 1.414 . S
C1361 C1362 1.374 . S
C1362 H1336 0.950 . S
C1362 C1358 1.385 . S
C1362 C1361 1.374 . S
C1363 C1360 1.499 . S
C1363 C1364 1.373 1_655 S
C1363 C1365 1.389 . S
C1364 H1337 0.950 . S
C1364 C1350 1.377 1_545 S
C1364 C1363 1.373 1_455 S
C1365 C1349 1.377 1_545 S
C1365 C1363 1.389 . S
C1365 C1366 1.524 . S
C1366 C1365 1.524 . S
C1366 C1367 1.397 . S
C1366 C1371 1.363 . S
C1367 H1338 0.950 . S
C1367 C1366 1.397 . S
C1367 C1368 1.334 . S
C1368 H1339 0.950 . S
C1368 C1367 1.334 . S
C1368 C1369 1.287 . S
C1369 C1368 1.287 . S
C1369 C1370 1.524 . S
C1369 H1372 0.999 . S
C1370 H1340 0.950 . S
C1370 C1369 1.524 . S
C1370 C1371 1.415 . S
C1371 H1341 0.950 . S
C1371 C1366 1.363 . S
C1371 C1370 1.415 . S
H1372 C1369 0.999 . S
H1373 C1354 0.913 . S
H1374 C1392 0.951 . S
H1375 C1394 0.951 . S
H1376 C1396 0.950 . S
H1377 C1397 0.950 . S
H1378 C1399 0.950 . S
H1379 C1402 0.950 . S
H1380 C1403 0.950 . S
H1381 C1405 0.950 . S
H1382 C1406 0.950 . S
H1383 C1407 0.951 . S
H1384 C1409 0.951 . S
H1385 C1411 0.950 . S
H1386 C1412 0.950 . S
H1387 C1414 0.950 . S
H1388 C1417 0.950 . S
H1389 C1418 0.950 . S
H1390 C1420 0.950 . S
H1391 C1421 0.950 . S
C1392 H1374 0.951 . S
C1392 C1393 1.366 1_565 S
C1392 C1394 1.388 . S
C1393 C1392 1.366 1_545 S
C1393 C1397 1.385 . S
C1394 H1375 0.951 . S
C1394 C1392 1.388 . S
C1394 C1395 1.366 1_565 S
C1395 C1394 1.366 1_545 S
C1395 C1396 1.414 . S
C1395 C1398 1.499 . S
C1396 H1376 0.950 . S
C1396 C1395 1.414 . S
C1396 C1397 1.374 . S
C1397 H1377 0.950 . S
C1397 C1393 1.385 . S
C1397 C1396 1.374 . S
C1398 C1395 1.499 . S
C1398 C1399 1.373 . S
C1398 C1400 1.389 . S
C1399 H1378 0.950 . S
C1399 C1398 1.373 . S
C1399 C1415 1.377 1_545 S
C1400 C1398 1.389 . S
C1400 C1401 1.524 . S
C1400 C1414 1.377 1_545 S
C1401 C1400 1.524 . S
C1401 C1402 1.397 . S
C1401 C1406 1.363 1_545 S
C1402 H1379 0.950 . S
C1402 C1401 1.397 . S
C1402 C1403 1.334 . S
C1403 H1380 0.950 . S
C1403 C1402 1.334 . S
C1403 C1404 1.287 . S
C1404 C1403 1.287 . S
C1404 C1405 1.524 1_545 S
C1404 H1423 0.913 . S
C1405 H1381 0.950 . S
C1405 C1404 1.524 1_565 S
C1405 C1406 1.415 . S
C1406 H1382 0.950 . S
C1406 C1401 1.363 1_565 S
C1406 C1405 1.415 . S
C1407 H1383 0.951 . S
C1407 C1408 1.366 1_545 S
C1407 C1409 1.388 . S
C1408 C1407 1.366 1_565 S
C1408 C1412 1.385 . S
C1409 H1384 0.951 . S
C1409 C1407 1.388 . S
C1409 C1410 1.366 1_545 S
C1410 C1409 1.366 1_565 S
C1410 C1411 1.414 . S
C1410 C1413 1.499 . S
C1411 H1385 0.950 . S
C1411 C1410 1.414 . S
C1411 C1412 1.374 . S
C1412 H1386 0.950 . S
C1412 C1408 1.385 . S
C1412 C1411 1.374 . S
C1413 C1410 1.499 . S
C1413 C1414 1.373 . S
C1413 C1415 1.389 . S
C1414 H1387 0.950 . S
C1414 C1400 1.377 1_565 S
C1414 C1413 1.373 . S
C1415 C1399 1.377 1_565 S
C1415 C1413 1.389 . S
C1415 C1416 1.524 . S
C1416 C1415 1.524 . S
C1416 C1417 1.397 . S
C1416 C1421 1.363 1_565 S
C1417 H1388 0.950 . S
C1417 C1416 1.397 . S
C1417 C1418 1.334 . S
C1418 H1389 0.950 . S
C1418 C1417 1.334 . S
C1418 C1419 1.287 . S
C1419 C1418 1.287 . S
C1419 C1420 1.524 1_565 S
C1419 H1422 0.999 . S
C1420 H1390 0.950 . S
C1420 C1419 1.524 1_545 S
C1420 C1421 1.415 . S
C1421 H1391 0.950 . S
C1421 C1416 1.363 1_545 S
C1421 C1420 1.415 . S
H1422 C1419 0.999 . S
H1423 C1404 0.913 . S
H1424 C1442 0.951 . S
H1425 C1444 0.951 . S
H1426 C1446 0.950 . S
H1427 C1447 0.950 . S
H1428 C1449 0.950 . S
H1429 C1452 0.950 . S
H1430 C1453 0.950 . S
H1431 C1455 0.950 . S
H1432 C1456 0.950 . S
H1433 C1457 0.951 . S
H1434 C1459 0.951 . S
H1435 C1461 0.950 . S
H1436 C1462 0.950 . S
H1437 C1464 0.950 . S
H1438 C1467 0.950 . S
H1439 C1468 0.950 . S
H1440 C1470 0.950 . S
H1441 C1471 0.950 . S
C1442 H1424 0.951 . S
C1442 C1443 1.366 . S
C1442 C1444 1.388 . S
C1443 C1442 1.366 . S
C1443 C1447 1.385 . S
C1444 H1425 0.951 . S
C1444 C1442 1.388 . S
C1444 C1445 1.366 . S
C1445 C1444 1.366 . S
C1445 C1446 1.414 . S
C1445 C1448 1.499 . S
C1446 H1426 0.950 . S
C1446 C1445 1.414 . S
C1446 C1447 1.374 . S
C1447 H1427 0.950 . S
C1447 C1443 1.385 . S
C1447 C1446 1.374 . S
C1448 C1445 1.499 . S
C1448 C1449 1.373 . S
C1448 C1450 1.389 . S
C1449 H1428 0.950 . S
C1449 C1448 1.373 . S
C1449 C1465 1.377 . S
C1450 C1448 1.389 . S
C1450 C1451 1.524 . S
C1450 C1464 1.377 . S
C1451 C1450 1.524 . S
C1451 C1452 1.397 . S
C1451 C1456 1.363 . S
C1452 H1429 0.950 . S
C1452 C1451 1.397 . S
C1452 C1453 1.334 . S
C1453 H1430 0.950 . S
C1453 C1452 1.334 . S
C1453 C1454 1.287 . S
C1454 C1453 1.287 . S
C1454 C1455 1.524 . S
C1454 H1473 0.913 . S
C1455 H1431 0.950 . S
C1455 C1454 1.524 . S
C1455 C1456 1.415 . S
C1456 H1432 0.950 . S
C1456 C1451 1.363 . S
C1456 C1455 1.415 . S
C1457 H1433 0.951 . S
C1457 C1458 1.366 . S
C1457 C1459 1.388 . S
C1458 C1457 1.366 . S
C1458 C1462 1.385 . S
C1459 H1434 0.951 . S
C1459 C1457 1.388 . S
C1459 C1460 1.366 . S
C1460 C1459 1.366 . S
C1460 C1461 1.414 . S
C1460 C1463 1.499 . S
C1461 H1435 0.950 . S
C1461 C1460 1.414 . S
C1461 C1462 1.374 . S
C1462 H1436 0.950 . S
C1462 C1458 1.385 . S
C1462 C1461 1.374 . S
C1463 C1460 1.499 . S
C1463 C1464 1.373 . S
C1463 C1465 1.389 . S
C1464 H1437 0.950 . S
C1464 C1450 1.377 . S
C1464 C1463 1.373 . S
C1465 C1449 1.377 . S
C1465 C1463 1.389 . S
C1465 C1466 1.524 . S
C1466 C1465 1.524 . S
C1466 C1467 1.397 . S
C1466 C1471 1.363 . S
C1467 H1438 0.950 . S
C1467 C1466 1.397 . S
C1467 C1468 1.334 . S
C1468 H1439 0.950 . S
C1468 C1467 1.334 . S
C1468 C1469 1.287 . S
C1469 C1468 1.287 . S
C1469 C1470 1.524 . S
C1469 H1472 0.999 . S
C1470 H1440 0.950 . S
C1470 C1469 1.524 . S
C1470 C1471 1.415 . S
C1471 H1441 0.950 . S
C1471 C1466 1.363 . S
C1471 C1470 1.415 . S
H1472 C1469 0.999 . S
H1473 C1454 0.913 . S
H1474 C1492 0.951 . S
H1475 C1494 0.951 . S
H1476 C1496 0.950 . S
H1477 C1497 0.950 . S
H1478 C1499 0.950 . S
H1479 C1502 0.950 . S
H1480 C1503 0.950 . S
H1481 C1505 0.950 . S
H1482 C1506 0.950 . S
H1483 C1507 0.951 . S
H1484 C1509 0.951 . S
H1485 C1511 0.950 . S
H1486 C1512 0.950 . S
H1487 C1514 0.950 . S
H1488 C1517 0.950 . S
H1489 C1518 0.950 . S
H1490 C1520 0.950 . S
H1491 C1521 0.950 . S
C1492 H1474 0.951 . S
C1492 C1493 1.366 . S
C1492 C1494 1.388 . S
C1493 C1492 1.366 . S
C1493 C1497 1.385 . S
C1494 H1475 0.951 . S
C1494 C1492 1.388 . S
C1494 C1495 1.366 . S
C1495 C1494 1.366 . S
C1495 C1496 1.414 . S
C1495 C1498 1.499 . S
C1496 H1476 0.950 . S
C1496 C1495 1.414 . S
C1496 C1497 1.374 . S
C1497 H1477 0.950 . S
C1497 C1493 1.385 . S
C1497 C1496 1.374 . S
C1498 C1495 1.499 . S
C1498 C1499 1.373 . S
C1498 C1500 1.389 . S
C1499 H1478 0.950 . S
C1499 C1498 1.373 . S
C1499 C1515 1.377 . S
C1500 C1498 1.389 . S
C1500 C1501 1.524 . S
C1500 C1514 1.377 . S
C1501 C1500 1.524 . S
C1501 C1502 1.397 . S
C1501 C1506 1.363 . S
C1502 H1479 0.950 . S
C1502 C1501 1.397 . S
C1502 C1503 1.334 . S
C1503 H1480 0.950 . S
C1503 C1502 1.334 . S
C1503 C1504 1.287 . S
C1504 C1503 1.287 . S
C1504 C1505 1.524 . S
C1504 H1523 0.913 . S
C1505 H1481 0.950 . S
C1505 C1504 1.524 . S
C1505 C1506 1.415 . S
C1506 H1482 0.950 . S
C1506 C1501 1.363 . S
C1506 C1505 1.415 . S
C1507 H1483 0.951 . S
C1507 C1508 1.366 . S
C1507 C1509 1.388 . S
C1508 C1507 1.366 . S
C1508 C1512 1.385 . S
C1509 H1484 0.951 . S
C1509 C1507 1.388 . S
C1509 C1510 1.366 . S
C1510 C1509 1.366 . S
C1510 C1511 1.414 . S
C1510 C1513 1.499 . S
C1511 H1485 0.950 . S
C1511 C1510 1.414 . S
C1511 C1512 1.374 . S
C1512 H1486 0.950 . S
C1512 C1508 1.385 . S
C1512 C1511 1.374 . S
C1513 C1510 1.499 . S
C1513 C1514 1.373 . S
C1513 C1515 1.389 . S
C1514 H1487 0.950 . S
C1514 C1500 1.377 . S
C1514 C1513 1.373 . S
C1515 C1499 1.377 . S
C1515 C1513 1.389 . S
C1515 C1516 1.524 . S
C1516 C1515 1.524 . S
C1516 C1517 1.397 . S
C1516 C1521 1.363 . S
C1517 H1488 0.950 . S
C1517 C1516 1.397 . S
C1517 C1518 1.334 . S
C1518 H1489 0.950 . S
C1518 C1517 1.334 . S
C1518 C1519 1.287 . S
C1519 C1518 1.287 . S
C1519 C1520 1.524 . S
C1519 H1522 0.999 . S
C1520 H1490 0.950 . S
C1520 C1519 1.524 . S
C1520 C1521 1.415 . S
C1521 H1491 0.950 . S
C1521 C1516 1.363 . S
C1521 C1520 1.415 . S
H1522 C1519 0.999 . S
H1523 C1504 0.913 . S
H1524 C1542 0.951 . S
H1525 C1544 0.951 . S
H1526 C1546 0.950 . S
H1527 C1547 0.950 . S
H1528 C1549 0.950 . S
H1529 C1552 0.950 . S
H1530 C1553 0.950 . S
H1531 C1555 0.950 . S
H1532 C1556 0.950 . S
H1533 C1557 0.951 . S
H1534 C1559 0.951 . S
H1535 C1561 0.950 . S
H1536 C1562 0.950 . S
H1537 C1564 0.950 . S
H1538 C1567 0.950 . S
H1539 C1568 0.950 . S
H1540 C1570 0.950 . S
H1541 C1571 0.950 1_655 S
C1542 H1524 0.951 . S
C1542 C1543 1.366 . S
C1542 C1544 1.388 . S
C1543 C1542 1.366 . S
C1543 C1547 1.385 . S
C1544 H1525 0.951 . S
C1544 C1542 1.388 . S
C1544 C1545 1.366 . S
C1545 C1544 1.366 . S
C1545 C1546 1.414 . S
C1545 C1548 1.499 . S
C1546 H1526 0.950 . S
C1546 C1545 1.414 . S
C1546 C1547 1.374 . S
C1547 H1527 0.950 . S
C1547 C1543 1.385 . S
C1547 C1546 1.374 . S
C1548 C1545 1.499 . S
C1548 C1549 1.373 . S
C1548 C1550 1.389 . S
C1549 H1528 0.950 . S
C1549 C1548 1.373 . S
C1549 C1565 1.377 . S
C1550 C1548 1.389 . S
C1550 C1551 1.524 . S
C1550 C1564 1.377 . S
C1551 C1550 1.524 . S
C1551 C1552 1.397 . S
C1551 C1556 1.363 . S
C1552 H1529 0.950 . S
C1552 C1551 1.397 . S
C1552 C1553 1.334 . S
C1553 H1530 0.950 . S
C1553 C1552 1.334 . S
C1553 C1554 1.287 . S
C1554 C1553 1.287 . S
C1554 C1555 1.524 . S
C1554 H1573 0.913 . S
C1555 H1531 0.950 . S
C1555 C1554 1.524 . S
C1555 C1556 1.415 . S
C1556 H1532 0.950 . S
C1556 C1551 1.363 . S
C1556 C1555 1.415 . S
C1557 H1533 0.951 . S
C1557 C1558 1.366 . S
C1557 C1559 1.388 . S
C1558 C1557 1.366 . S
C1558 C1562 1.385 . S
C1559 H1534 0.951 . S
C1559 C1557 1.388 . S
C1559 C1560 1.366 . S
C1560 C1559 1.366 . S
C1560 C1561 1.414 . S
C1560 C1563 1.499 . S
C1561 H1535 0.950 . S
C1561 C1560 1.414 . S
C1561 C1562 1.374 . S
C1562 H1536 0.950 . S
C1562 C1558 1.385 . S
C1562 C1561 1.374 . S
C1563 C1560 1.499 . S
C1563 C1564 1.373 . S
C1563 C1565 1.389 . S
C1564 H1537 0.950 . S
C1564 C1550 1.377 . S
C1564 C1563 1.373 . S
C1565 C1549 1.377 . S
C1565 C1563 1.389 . S
C1565 C1566 1.524 . S
C1566 C1565 1.524 . S
C1566 C1567 1.397 1_655 S
C1566 C1571 1.363 1_655 S
C1567 H1538 0.950 . S
C1567 C1566 1.397 1_455 S
C1567 C1568 1.334 . S
C1568 H1539 0.950 . S
C1568 C1567 1.334 . S
C1568 C1569 1.287 . S
C1569 C1568 1.287 . S
C1569 C1570 1.524 . S
C1569 H1572 0.999 . S
C1570 H1540 0.950 . S
C1570 C1569 1.524 . S
C1570 C1571 1.415 . S
C1571 H1541 0.950 1_455 S
C1571 C1566 1.363 1_455 S
C1571 C1570 1.415 . S
H1572 C1569 0.999 . S
H1573 C1554 0.913 . S
H1574 C1592 0.951 . S
H1575 C1594 0.951 . S
H1576 C1596 0.950 . S
H1577 C1597 0.950 . S
H1578 C1599 0.950 . S
H1579 C1602 0.950 . S
H1580 C1603 0.950 . S
H1581 C1605 0.950 . S
H1582 C1606 0.950 . S
H1583 C1607 0.951 . S
H1584 C1609 0.951 . S
H1585 C1611 0.950 . S
H1586 C1612 0.950 . S
H1587 C1614 0.950 . S
H1588 C1617 0.950 . S
H1589 C1618 0.950 . S
H1590 C1620 0.950 . S
H1591 C1621 0.950 . S
C1592 H1574 0.951 . S
C1592 C1593 1.366 . S
C1592 C1594 1.388 . S
C1593 C1592 1.366 . S
C1593 C1597 1.385 . S
C1594 H1575 0.951 . S
C1594 C1592 1.388 . S
C1594 C1595 1.366 . S
C1595 C1594 1.366 . S
C1595 C1596 1.414 . S
C1595 C1598 1.499 . S
C1596 H1576 0.950 . S
C1596 C1595 1.414 . S
C1596 C1597 1.374 . S
C1597 H1577 0.950 . S
C1597 C1593 1.385 . S
C1597 C1596 1.374 . S
C1598 C1595 1.499 . S
C1598 C1599 1.373 . S
C1598 C1600 1.389 . S
C1599 H1578 0.950 . S
C1599 C1598 1.373 . S
C1599 C1615 1.377 . S
C1600 C1598 1.389 . S
C1600 C1601 1.524 . S
C1600 C1614 1.377 . S
C1601 C1600 1.524 . S
C1601 C1602 1.397 1_565 S
C1601 C1606 1.363 . S
C1602 H1579 0.950 . S
C1602 C1601 1.397 1_545 S
C1602 C1603 1.334 . S
C1603 H1580 0.950 . S
C1603 C1602 1.334 . S
C1603 C1604 1.287 . S
C1604 C1603 1.287 . S
C1604 C1605 1.524 . S
C1604 H1623 0.913 . S
C1605 H1581 0.950 . S
C1605 C1604 1.524 . S
C1605 C1606 1.415 1_545 S
C1606 H1582 0.950 . S
C1606 C1601 1.363 . S
C1606 C1605 1.415 1_565 S
C1607 H1583 0.951 . S
C1607 C1608 1.366 . S
C1607 C1609 1.388 . S
C1608 C1607 1.366 . S
C1608 C1612 1.385 . S
C1609 H1584 0.951 . S
C1609 C1607 1.388 . S
C1609 C1610 1.366 . S
C1610 C1609 1.366 . S
C1610 C1611 1.414 . S
C1610 C1613 1.499 . S
C1611 H1585 0.950 . S
C1611 C1610 1.414 . S
C1611 C1612 1.374 . S
C1612 H1586 0.950 . S
C1612 C1608 1.385 . S
C1612 C1611 1.374 . S
C1613 C1610 1.499 . S
C1613 C1614 1.373 . S
C1613 C1615 1.389 . S
C1614 H1587 0.950 . S
C1614 C1600 1.377 . S
C1614 C1613 1.373 . S
C1615 C1599 1.377 . S
C1615 C1613 1.389 . S
C1615 C1616 1.524 . S
C1616 C1615 1.524 . S
C1616 C1617 1.397 . S
C1616 C1621 1.363 . S
C1617 H1588 0.950 . S
C1617 C1616 1.397 . S
C1617 C1618 1.334 . S
C1618 H1589 0.950 . S
C1618 C1617 1.334 . S
C1618 C1619 1.287 . S
C1619 C1618 1.287 . S
C1619 C1620 1.524 . S
C1619 H1622 0.999 . S
C1620 H1590 0.950 . S
C1620 C1619 1.524 . S
C1620 C1621 1.415 . S
C1621 H1591 0.950 . S
C1621 C1616 1.363 . S
C1621 C1620 1.415 . S
H1622 C1619 0.999 . S
H1623 C1604 0.913 . S
H1624 C1642 0.951 . S
H1625 C1644 0.951 . S
H1626 C1646 0.950 . S
H1627 C1647 0.950 . S
H1628 C1649 0.950 . S
H1629 C1652 0.950 . S
H1630 C1653 0.950 . S
H1631 C1655 0.950 . S
H1632 C1656 0.950 . S
H1633 C1657 0.951 . S
H1634 C1659 0.951 . S
H1635 C1661 0.950 . S
H1636 C1662 0.950 . S
H1637 C1664 0.950 . S
H1638 C1667 0.950 . S
H1639 C1668 0.950 . S
H1640 C1670 0.950 . S
H1641 C1671 0.950 . S
C1642 H1624 0.951 . S
C1642 C1643 1.366 . S
C1642 C1644 1.388 . S
C1643 C1642 1.366 . S
C1643 C1647 1.385 . S
C1644 H1625 0.951 . S
C1644 C1642 1.388 . S
C1644 C1645 1.366 . S
C1645 C1644 1.366 . S
C1645 C1646 1.414 . S
C1645 C1648 1.499 . S
C1646 H1626 0.950 . S
C1646 C1645 1.414 . S
C1646 C1647 1.374 . S
C1647 H1627 0.950 . S
C1647 C1643 1.385 . S
C1647 C1646 1.374 . S
C1648 C1645 1.499 . S
C1648 C1649 1.373 . S
C1648 C1650 1.389 . S
C1649 H1628 0.950 . S
C1649 C1648 1.373 . S
C1649 C1665 1.377 . S
C1650 C1648 1.389 . S
C1650 C1651 1.524 . S
C1650 C1664 1.377 . S
C1651 C1650 1.524 . S
C1651 C1652 1.397 . S
C1651 C1656 1.363 . S
C1652 H1629 0.950 . S
C1652 C1651 1.397 . S
C1652 C1653 1.334 . S
C1653 H1630 0.950 . S
C1653 C1652 1.334 . S
C1653 C1654 1.287 . S
C1654 C1653 1.287 . S
C1654 C1655 1.524 . S
C1654 H1673 0.913 . S
C1655 H1631 0.950 . S
C1655 C1654 1.524 . S
C1655 C1656 1.415 . S
C1656 H1632 0.950 . S
C1656 C1651 1.363 . S
C1656 C1655 1.415 . S
C1657 H1633 0.951 . S
C1657 C1658 1.366 . S
C1657 C1659 1.388 . S
C1658 C1657 1.366 . S
C1658 C1662 1.385 . S
C1659 H1634 0.951 . S
C1659 C1657 1.388 . S
C1659 C1660 1.366 . S
C1660 C1659 1.366 . S
C1660 C1661 1.414 . S
C1660 C1663 1.499 . S
C1661 H1635 0.950 . S
C1661 C1660 1.414 . S
C1661 C1662 1.374 . S
C1662 H1636 0.950 . S
C1662 C1658 1.385 . S
C1662 C1661 1.374 . S
C1663 C1660 1.499 . S
C1663 C1664 1.373 . S
C1663 C1665 1.389 . S
C1664 H1637 0.950 . S
C1664 C1650 1.377 . S
C1664 C1663 1.373 . S
C1665 C1649 1.377 . S
C1665 C1663 1.389 . S
C1665 C1666 1.524 . S
C1666 C1665 1.524 . S
C1666 C1667 1.397 . S
C1666 C1671 1.363 . S
C1667 H1638 0.950 . S
C1667 C1666 1.397 . S
C1667 C1668 1.334 . S
C1668 H1639 0.950 . S
C1668 C1667 1.334 . S
C1668 C1669 1.287 . S
C1669 C1668 1.287 . S
C1669 C1670 1.524 . S
C1669 H1672 0.999 . S
C1670 H1640 0.950 . S
C1670 C1669 1.524 . S
C1670 C1671 1.415 . S
C1671 H1641 0.950 . S
C1671 C1666 1.363 . S
C1671 C1670 1.415 . S
H1672 C1669 0.999 . S
H1673 C1654 0.913 . S
H1674 C1692 0.951 . S
H1675 C1694 0.951 . S
H1676 C1696 0.950 . S
H1677 C1697 0.950 . S
H1678 C1699 0.950 . S
H1679 C1702 0.950 . S
H1680 C1703 0.950 . S
H1681 C1705 0.950 . S
H1682 C1706 0.950 . S
H1683 C1707 0.951 . S
H1684 C1709 0.951 . S
H1685 C1711 0.950 . S
H1686 C1712 0.950 . S
H1687 C1714 0.950 . S
H1688 C1717 0.950 . S
H1689 C1718 0.950 . S
H1690 C1720 0.950 . S
H1691 C1721 0.950 . S
C1692 H1674 0.951 . S
C1692 C1693 1.366 . S
C1692 C1694 1.388 . S
C1693 C1692 1.366 . S
C1693 C1697 1.385 . S
C1694 H1675 0.951 . S
C1694 C1692 1.388 . S
C1694 C1695 1.366 . S
C1695 C1694 1.366 . S
C1695 C1696 1.414 . S
C1695 C1698 1.499 . S
C1696 H1676 0.950 . S
C1696 C1695 1.414 . S
C1696 C1697 1.374 . S
C1697 H1677 0.950 . S
C1697 C1693 1.385 . S
C1697 C1696 1.374 . S
C1698 C1695 1.499 . S
C1698 C1699 1.373 . S
C1698 C1700 1.389 . S
C1699 H1678 0.950 . S
C1699 C1698 1.373 . S
C1699 C1715 1.377 . S
C1700 C1698 1.389 . S
C1700 C1701 1.524 . S
C1700 C1714 1.377 . S
C1701 C1700 1.524 . S
C1701 C1702 1.397 . S
C1701 C1706 1.363 . S
C1702 H1679 0.950 . S
C1702 C1701 1.397 . S
C1702 C1703 1.334 . S
C1703 H1680 0.950 . S
C1703 C1702 1.334 . S
C1703 C1704 1.287 . S
C1704 C1703 1.287 . S
C1704 C1705 1.524 . S
C1704 H1723 0.913 . S
C1705 H1681 0.950 . S
C1705 C1704 1.524 . S
C1705 C1706 1.415 . S
C1706 H1682 0.950 . S
C1706 C1701 1.363 . S
C1706 C1705 1.415 . S
C1707 H1683 0.951 . S
C1707 C1708 1.366 . S
C1707 C1709 1.388 . S
C1708 C1707 1.366 . S
C1708 C1712 1.385 . S
C1709 H1684 0.951 . S
C1709 C1707 1.388 . S
C1709 C1710 1.366 . S
C1710 C1709 1.366 . S
C1710 C1711 1.414 . S
C1710 C1713 1.499 . S
C1711 H1685 0.950 . S
C1711 C1710 1.414 . S
C1711 C1712 1.374 . S
C1712 H1686 0.950 . S
C1712 C1708 1.385 . S
C1712 C1711 1.374 . S
C1713 C1710 1.499 . S
C1713 C1714 1.373 . S
C1713 C1715 1.389 . S
C1714 H1687 0.950 . S
C1714 C1700 1.377 . S
C1714 C1713 1.373 . S
C1715 C1699 1.377 . S
C1715 C1713 1.389 . S
C1715 C1716 1.524 . S
C1716 C1715 1.524 . S
C1716 C1717 1.397 . S
C1716 C1721 1.363 . S
C1717 H1688 0.950 . S
C1717 C1716 1.397 . S
C1717 C1718 1.334 . S
C1718 H1689 0.950 . S
C1718 C1717 1.334 . S
C1718 C1719 1.287 . S
C1719 C1718 1.287 . S
C1719 C1720 1.524 . S
C1719 H1722 0.999 . S
C1720 H1690 0.950 . S
C1720 C1719 1.524 . S
C1720 C1721 1.415 . S
C1721 H1691 0.950 . S
C1721 C1716 1.363 . S
C1721 C1720 1.415 . S
H1722 C1719 0.999 . S
H1723 C1704 0.913 . S
H1724 C1742 0.951 . S
H1725 C1744 0.951 . S
H1726 C1746 0.950 . S
H1727 C1747 0.950 . S
H1728 C1749 0.950 . S
H1729 C1752 0.950 . S
H1730 C1753 0.950 . S
H1731 C1755 0.950 . S
H1732 C1756 0.950 . S
H1733 C1757 0.951 . S
H1734 C1759 0.951 . S
H1735 C1761 0.950 . S
H1736 C1762 0.950 . S
H1737 C1764 0.950 . S
H1738 C1767 0.950 . S
H1739 C1768 0.950 . S
H1740 C1770 0.950 . S
H1741 C1771 0.950 . S
C1742 H1724 0.951 . S
C1742 C1743 1.366 . S
C1742 C1744 1.388 . S
C1743 C1742 1.366 . S
C1743 C1747 1.385 . S
C1744 H1725 0.951 . S
C1744 C1742 1.388 . S
C1744 C1745 1.366 . S
C1745 C1744 1.366 . S
C1745 C1746 1.414 . S
C1745 C1748 1.499 . S
C1746 H1726 0.950 . S
C1746 C1745 1.414 . S
C1746 C1747 1.374 . S
C1747 H1727 0.950 . S
C1747 C1743 1.385 . S
C1747 C1746 1.374 . S
C1748 C1745 1.499 . S
C1748 C1749 1.373 . S
C1748 C1750 1.389 . S
C1749 H1728 0.950 . S
C1749 C1748 1.373 . S
C1749 C1765 1.377 . S
C1750 C1748 1.389 . S
C1750 C1751 1.524 1_455 S
C1750 C1764 1.377 . S
C1751 C1750 1.524 1_655 S
C1751 C1752 1.397 1_655 S
C1751 C1756 1.363 . S
C1752 H1729 0.950 . S
C1752 C1751 1.397 1_455 S
C1752 C1753 1.334 1_455 S
C1753 H1730 0.950 . S
C1753 C1752 1.334 1_655 S
C1753 C1754 1.287 . S
C1754 C1753 1.287 . S
C1754 C1755 1.524 . S
C1754 H1773 0.913 . S
C1755 H1731 0.950 . S
C1755 C1754 1.524 . S
C1755 C1756 1.415 . S
C1756 H1732 0.950 . S
C1756 C1751 1.363 . S
C1756 C1755 1.415 . S
C1757 H1733 0.951 . S
C1757 C1758 1.366 . S
C1757 C1759 1.388 . S
C1758 C1757 1.366 . S
C1758 C1762 1.385 . S
C1759 H1734 0.951 . S
C1759 C1757 1.388 . S
C1759 C1760 1.366 . S
C1760 C1759 1.366 . S
C1760 C1761 1.414 . S
C1760 C1763 1.499 . S
C1761 H1735 0.950 . S
C1761 C1760 1.414 . S
C1761 C1762 1.374 . S
C1762 H1736 0.950 . S
C1762 C1758 1.385 . S
C1762 C1761 1.374 . S
C1763 C1760 1.499 . S
C1763 C1764 1.373 . S
C1763 C1765 1.389 . S
C1764 H1737 0.950 . S
C1764 C1750 1.377 . S
C1764 C1763 1.373 . S
C1765 C1749 1.377 . S
C1765 C1763 1.389 . S
C1765 C1766 1.524 . S
C1766 C1765 1.524 . S
C1766 C1767 1.397 . S
C1766 C1771 1.363 . S
C1767 H1738 0.950 . S
C1767 C1766 1.397 . S
C1767 C1768 1.334 . S
C1768 H1739 0.950 . S
C1768 C1767 1.334 . S
C1768 C1769 1.287 . S
C1769 C1768 1.287 . S
C1769 C1770 1.524 . S
C1769 H1772 0.999 . S
C1770 H1740 0.950 . S
C1770 C1769 1.524 . S
C1770 C1771 1.415 . S
C1771 H1741 0.950 . S
C1771 C1766 1.363 . S
C1771 C1770 1.415 . S
H1772 C1769 0.999 . S
H1773 C1754 0.913 . S
H1774 C1792 0.951 . S
H1775 C1794 0.951 . S
H1776 C1796 0.950 . S
H1777 C1797 0.950 . S
H1778 C1799 0.950 . S
H1779 C1802 0.935 1_565 S
H1780 C1803 0.950 . S
H1781 C1805 0.950 . S
H1782 C1806 0.950 . S
H1783 C1807 0.951 . S
H1784 C1809 0.951 . S
H1785 C1811 0.950 . S
H1786 C1812 0.950 . S
H1787 C1814 0.950 . S
H1788 C1817 0.950 . S
H1789 C1818 0.950 . S
H1790 C1820 0.950 . S
H1791 C1821 0.950 . S
C1792 H1774 0.951 . S
C1792 C1793 1.366 . S
C1792 C1794 1.388 . S
C1793 C1792 1.366 . S
C1793 C1797 1.385 . S
C1794 H1775 0.951 . S
C1794 C1792 1.388 . S
C1794 C1795 1.366 . S
C1795 C1794 1.366 . S
C1795 C1796 1.414 . S
C1795 C1798 1.499 . S
C1796 H1776 0.950 . S
C1796 C1795 1.414 . S
C1796 C1797 1.374 . S
C1797 H1777 0.950 . S
C1797 C1793 1.385 . S
C1797 C1796 1.374 . S
C1798 C1795 1.499 . S
C1798 C1799 1.373 . S
C1798 C1800 1.389 . S
C1799 H1778 0.950 . S
C1799 C1798 1.373 . S
C1799 C1815 1.377 . S
C1800 C1798 1.389 . S
C1800 C1801 1.524 . S
C1800 C1814 1.377 . S
C1801 C1800 1.524 . S
C1801 C1802 1.397 . S
C1801 C1806 1.363 . S
C1802 H1779 0.935 1_545 S
C1802 C1801 1.397 . S
C1802 C1803 1.334 1_545 S
C1803 H1780 0.950 . S
C1803 C1802 1.334 1_565 S
C1803 C1804 1.287 1_565 S
C1804 C1803 1.287 1_545 S
C1804 C1805 1.524 . S
C1804 H1823 0.913 . S
C1805 H1781 0.950 . S
C1805 C1804 1.524 . S
C1805 C1806 1.415 . S
C1806 H1782 0.950 . S
C1806 C1801 1.363 . S
C1806 C1805 1.415 . S
C1807 H1783 0.951 . S
C1807 C1808 1.366 . S
C1807 C1809 1.388 . S
C1808 C1807 1.366 . S
C1808 C1812 1.385 . S
C1809 H1784 0.951 . S
C1809 C1807 1.388 . S
C1809 C1810 1.366 . S
C1810 C1809 1.366 . S
C1810 C1811 1.414 . S
C1810 C1813 1.499 . S
C1811 H1785 0.950 . S
C1811 C1810 1.414 . S
C1811 C1812 1.374 . S
C1812 H1786 0.950 . S
C1812 C1808 1.385 . S
C1812 C1811 1.374 . S
C1813 C1810 1.499 . S
C1813 C1814 1.373 . S
C1813 C1815 1.389 . S
C1814 H1787 0.950 . S
C1814 C1800 1.377 . S
C1814 C1813 1.373 . S
C1815 C1799 1.377 . S
C1815 C1813 1.389 . S
C1815 C1816 1.524 . S
C1816 C1815 1.524 . S
C1816 C1817 1.397 . S
C1816 C1821 1.363 . S
C1817 H1788 0.950 . S
C1817 C1816 1.397 . S
C1817 C1818 1.334 . S
C1818 H1789 0.950 . S
C1818 C1817 1.334 . S
C1818 C1819 1.287 . S
C1819 C1818 1.287 . S
C1819 C1820 1.524 . S
C1819 H1822 0.999 . S
C1820 H1790 0.950 . S
C1820 C1819 1.524 . S
C1820 C1821 1.415 . S
C1821 H1791 0.950 . S
C1821 C1816 1.363 . S
C1821 C1820 1.415 . S
H1822 C1819 0.999 . S
H1823 C1804 0.913 . S
C243 C9 0.970 . S
C258 C134 0.992 . S
C293 C148 0.992 . S
C308 C23 0.970 . S
C343 C162 0.992 . S
C358 C37 0.970 . S
C393 C120 0.991 . S
C408 C51 0.970 . S
C443 C65 0.970 . S
C458 C218 0.991 . S
C493 C176 0.992 . S
C508 C79 0.970 . S
C543 C190 0.992 . S
C558 C93 0.970 . S
C593 C204 0.992 . S
C608 C107 0.970 . S
C643 C121 0.971 . S
C658 C22 0.991 . S
C693 C135 0.970 . S
C708 C36 0.992 . S
C743 C149 0.970 . S
C758 C50 0.992 . S
C793 C8 0.992 . S
C808 C163 0.970 . S
C843 C177 0.971 . S
C858 C106 0.991 . S
C893 C191 0.971 . S
C908 C64 0.991 . S
C943 C78 0.992 . S
C958 C205 0.972 . S
C993 C219 0.970 . S
C1008 C92 0.991 . S
C1043 C118 1.594 . S
C1058 C6 1.594 . S
C1093 C20 1.594 . S
C1108 C132 1.594 . S
C1143 C146 1.594 . S
C1158 C34 1.594 . S
C1193 C48 1.594 . S
C1208 C160 1.594 . S
C1243 C174 1.594 . S
C1258 C62 1.594 . S
C1293 C76 1.593 . S
C1308 C188 1.593 . S
C1343 C202 1.594 . S
C1358 C90 1.594 . S
C1393 C216 1.594 . S
C1408 C104 1.594 . S
C1443 C63 1.600 . S
C1458 C7 1.599 . S
C1493 C77 1.599 . S
C1508 C21 1.600 . S
C1543 C35 1.600 . S
C1558 C91 1.599 . S
C1593 C105 1.599 . S
C1608 C49 1.600 . S
C1643 C119 1.600 . S
C1658 C175 1.599 . S
C1693 C189 1.600 . S
C1708 C133 1.599 . S
C1743 C203 1.599 . S
C1758 C147 1.600 . S
C1793 C217 1.599 . S
C1808 C161 1.600 . S
