# Generated by pormake.
# Topology wlp, (5)-cn, num edge types: 1
# Building blocks:
#     Node 0, Type 0, BuildingBlock: XOMCOT_clean_sbu_1, # of connection points: 5
#     Node 1, Type 0, BuildingBlock: XOMCOT_clean_sbu_1, # of connection points: 5
#     Node 2, Type 0, BuildingBlock: XOMCOT_clean_sbu_1, # of connection points: 5
#     Node 3, Type 0, BuildingBlock: XOMCOT_clean_sbu_1, # of connection points: 5
#     Node 4, Type 0, BuildingBlock: XOMCOT_clean_sbu_1, # of connection points: 5
#     Node 5, Type 0, BuildingBlock: XOMCOT_clean_sbu_1, # of connection points: 5
#     Node 6, Type 0, BuildingBlock: XOMCOT_clean_sbu_1, # of connection points: 5
#     Node 7, Type 0, BuildingBlock: XOMCOT_clean_sbu_1, # of connection points: 5
#     Node 8, Type 0, BuildingBlock: XOMCOT_clean_sbu_1, # of connection points: 5
#     Node 9, Type 0, BuildingBlock: XOMCOT_clean_sbu_1, # of connection points: 5
#     Node 10, Type 0, BuildingBlock: XOMCOT_clean_sbu_1, # of connection points: 5
#     Node 11, Type 0, BuildingBlock: XOMCOT_clean_sbu_1, # of connection points: 5
#     Node 12, Type 0, BuildingBlock: XOMCOT_clean_sbu_1, # of connection points: 5
#     Node 13, Type 0, BuildingBlock: XOMCOT_clean_sbu_1, # of connection points: 5
#     Node 14, Type 0, BuildingBlock: XOMCOT_clean_sbu_1, # of connection points: 5
#     Node 15, Type 0, BuildingBlock: XOMCOT_clean_sbu_1, # of connection points: 5
#     Node 16, Type 0, BuildingBlock: XOMCOT_clean_sbu_1, # of connection points: 5
#     Node 17, Type 0, BuildingBlock: XOMCOT_clean_sbu_1, # of connection points: 5
#     Node 18, Type 0, BuildingBlock: XOMCOT_clean_sbu_1, # of connection points: 5
#     Node 19, Type 0, BuildingBlock: XOMCOT_clean_sbu_1, # of connection points: 5
#     Node 20, Type 0, BuildingBlock: XOMCOT_clean_sbu_1, # of connection points: 5
#     Node 21, Type 0, BuildingBlock: XOMCOT_clean_sbu_1, # of connection points: 5
#     Node 22, Type 0, BuildingBlock: XOMCOT_clean_sbu_1, # of connection points: 5
#     Node 23, Type 0, BuildingBlock: XOMCOT_clean_sbu_1, # of connection points: 5
#     Node 24, Type 0, BuildingBlock: XOMCOT_clean_sbu_1, # of connection points: 5
#     Node 25, Type 0, BuildingBlock: XOMCOT_clean_sbu_1, # of connection points: 5
#     Node 26, Type 0, BuildingBlock: XOMCOT_clean_sbu_1, # of connection points: 5
#     Node 27, Type 0, BuildingBlock: XOMCOT_clean_sbu_1, # of connection points: 5
#     Node 28, Type 0, BuildingBlock: XOMCOT_clean_sbu_1, # of connection points: 5
#     Node 29, Type 0, BuildingBlock: XOMCOT_clean_sbu_1, # of connection points: 5
#     Node 30, Type 0, BuildingBlock: XOMCOT_clean_sbu_1, # of connection points: 5
#     Node 31, Type 0, BuildingBlock: XOMCOT_clean_sbu_1, # of connection points: 5
#     Node 32, Type 0, BuildingBlock: XOMCOT_clean_sbu_1, # of connection points: 5
#     Node 33, Type 0, BuildingBlock: XOMCOT_clean_sbu_1, # of connection points: 5
#     Node 34, Type 0, BuildingBlock: XOMCOT_clean_sbu_1, # of connection points: 5
#     Node 35, Type 0, BuildingBlock: XOMCOT_clean_sbu_1, # of connection points: 5
#     Edge 36, Type (0, 0), BuildingBlock: KIFKEQ_clean_linker_1, # of connection points: 2
#     Edge 37, Type (0, 0), BuildingBlock: KIFKEQ_clean_linker_1, # of connection points: 2
#     Edge 38, Type (0, 0), BuildingBlock: KIFKEQ_clean_linker_1, # of connection points: 2
#     Edge 39, Type (0, 0), BuildingBlock: KIFKEQ_clean_linker_1, # of connection points: 2
#     Edge 40, Type (0, 0), BuildingBlock: KIFKEQ_clean_linker_1, # of connection points: 2
#     Edge 41, Type (0, 0), BuildingBlock: KIFKEQ_clean_linker_1, # of connection points: 2
#     Edge 42, Type (0, 0), BuildingBlock: KIFKEQ_clean_linker_1, # of connection points: 2
#     Edge 43, Type (0, 0), BuildingBlock: KIFKEQ_clean_linker_1, # of connection points: 2
#     Edge 44, Type (0, 0), BuildingBlock: KIFKEQ_clean_linker_1, # of connection points: 2
#     Edge 45, Type (0, 0), BuildingBlock: KIFKEQ_clean_linker_1, # of connection points: 2
#     Edge 46, Type (0, 0), BuildingBlock: KIFKEQ_clean_linker_1, # of connection points: 2
#     Edge 47, Type (0, 0), BuildingBlock: KIFKEQ_clean_linker_1, # of connection points: 2
#     Edge 48, Type (0, 0), BuildingBlock: KIFKEQ_clean_linker_1, # of connection points: 2
#     Edge 49, Type (0, 0), BuildingBlock: KIFKEQ_clean_linker_1, # of connection points: 2
#     Edge 50, Type (0, 0), BuildingBlock: KIFKEQ_clean_linker_1, # of connection points: 2
#     Edge 51, Type (0, 0), BuildingBlock: KIFKEQ_clean_linker_1, # of connection points: 2
#     Edge 52, Type (0, 0), BuildingBlock: KIFKEQ_clean_linker_1, # of connection points: 2
#     Edge 53, Type (0, 0), BuildingBlock: KIFKEQ_clean_linker_1, # of connection points: 2
#     Edge 54, Type (0, 0), BuildingBlock: KIFKEQ_clean_linker_1, # of connection points: 2
#     Edge 55, Type (0, 0), BuildingBlock: KIFKEQ_clean_linker_1, # of connection points: 2
#     Edge 56, Type (0, 0), BuildingBlock: KIFKEQ_clean_linker_1, # of connection points: 2
#     Edge 57, Type (0, 0), BuildingBlock: KIFKEQ_clean_linker_1, # of connection points: 2
#     Edge 58, Type (0, 0), BuildingBlock: KIFKEQ_clean_linker_1, # of connection points: 2
#     Edge 59, Type (0, 0), BuildingBlock: KIFKEQ_clean_linker_1, # of connection points: 2
#     Edge 60, Type (0, 0), BuildingBlock: KIFKEQ_clean_linker_1, # of connection points: 2
#     Edge 61, Type (0, 0), BuildingBlock: KIFKEQ_clean_linker_1, # of connection points: 2
#     Edge 62, Type (0, 0), BuildingBlock: KIFKEQ_clean_linker_1, # of connection points: 2
#     Edge 63, Type (0, 0), BuildingBlock: KIFKEQ_clean_linker_1, # of connection points: 2
#     Edge 64, Type (0, 0), BuildingBlock: KIFKEQ_clean_linker_1, # of connection points: 2
#     Edge 65, Type (0, 0), BuildingBlock: KIFKEQ_clean_linker_1, # of connection points: 2
#     Edge 66, Type (0, 0), BuildingBlock: KIFKEQ_clean_linker_1, # of connection points: 2
#     Edge 67, Type (0, 0), BuildingBlock: KIFKEQ_clean_linker_1, # of connection points: 2
#     Edge 68, Type (0, 0), BuildingBlock: KIFKEQ_clean_linker_1, # of connection points: 2
#     Edge 69, Type (0, 0), BuildingBlock: KIFKEQ_clean_linker_1, # of connection points: 2
#     Edge 70, Type (0, 0), BuildingBlock: KIFKEQ_clean_linker_1, # of connection points: 2
#     Edge 71, Type (0, 0), BuildingBlock: KIFKEQ_clean_linker_1, # of connection points: 2
#     Edge 72, Type (0, 0), BuildingBlock: KIFKEQ_clean_linker_1, # of connection points: 2
#     Edge 73, Type (0, 0), BuildingBlock: KIFKEQ_clean_linker_1, # of connection points: 2
#     Edge 74, Type (0, 0), BuildingBlock: KIFKEQ_clean_linker_1, # of connection points: 2
#     Edge 75, Type (0, 0), BuildingBlock: KIFKEQ_clean_linker_1, # of connection points: 2
#     Edge 76, Type (0, 0), BuildingBlock: KIFKEQ_clean_linker_1, # of connection points: 2
#     Edge 77, Type (0, 0), BuildingBlock: KIFKEQ_clean_linker_1, # of connection points: 2
#     Edge 78, Type (0, 0), BuildingBlock: KIFKEQ_clean_linker_1, # of connection points: 2
#     Edge 79, Type (0, 0), BuildingBlock: KIFKEQ_clean_linker_1, # of connection points: 2
#     Edge 80, Type (0, 0), BuildingBlock: KIFKEQ_clean_linker_1, # of connection points: 2
#     Edge 81, Type (0, 0), BuildingBlock: KIFKEQ_clean_linker_1, # of connection points: 2
#     Edge 82, Type (0, 0), BuildingBlock: KIFKEQ_clean_linker_1, # of connection points: 2
#     Edge 83, Type (0, 0), BuildingBlock: KIFKEQ_clean_linker_1, # of connection points: 2
#     Edge 84, Type (0, 0), BuildingBlock: KIFKEQ_clean_linker_1, # of connection points: 2
#     Edge 85, Type (0, 0), BuildingBlock: KIFKEQ_clean_linker_1, # of connection points: 2
#     Edge 86, Type (0, 0), BuildingBlock: KIFKEQ_clean_linker_1, # of connection points: 2
#     Edge 87, Type (0, 0), BuildingBlock: KIFKEQ_clean_linker_1, # of connection points: 2
#     Edge 88, Type (0, 0), BuildingBlock: KIFKEQ_clean_linker_1, # of connection points: 2
#     Edge 89, Type (0, 0), BuildingBlock: KIFKEQ_clean_linker_1, # of connection points: 2
#     Edge 90, Type (0, 0), BuildingBlock: KIFKEQ_clean_linker_1, # of connection points: 2
#     Edge 91, Type (0, 0), BuildingBlock: KIFKEQ_clean_linker_1, # of connection points: 2
#     Edge 92, Type (0, 0), BuildingBlock: KIFKEQ_clean_linker_1, # of connection points: 2
#     Edge 93, Type (0, 0), BuildingBlock: KIFKEQ_clean_linker_1, # of connection points: 2
#     Edge 94, Type (0, 0), BuildingBlock: KIFKEQ_clean_linker_1, # of connection points: 2
#     Edge 95, Type (0, 0), BuildingBlock: KIFKEQ_clean_linker_1, # of connection points: 2
#     Edge 96, Type (0, 0), BuildingBlock: KIFKEQ_clean_linker_1, # of connection points: 2
#     Edge 97, Type (0, 0), BuildingBlock: KIFKEQ_clean_linker_1, # of connection points: 2
#     Edge 98, Type (0, 0), BuildingBlock: KIFKEQ_clean_linker_1, # of connection points: 2
#     Edge 99, Type (0, 0), BuildingBlock: KIFKEQ_clean_linker_1, # of connection points: 2
#     Edge 100, Type (0, 0), BuildingBlock: KIFKEQ_clean_linker_1, # of connection points: 2
#     Edge 101, Type (0, 0), BuildingBlock: KIFKEQ_clean_linker_1, # of connection points: 2
#     Edge 102, Type (0, 0), BuildingBlock: KIFKEQ_clean_linker_1, # of connection points: 2
#     Edge 103, Type (0, 0), BuildingBlock: KIFKEQ_clean_linker_1, # of connection points: 2
#     Edge 104, Type (0, 0), BuildingBlock: KIFKEQ_clean_linker_1, # of connection points: 2
#     Edge 105, Type (0, 0), BuildingBlock: KIFKEQ_clean_linker_1, # of connection points: 2
#     Edge 106, Type (0, 0), BuildingBlock: KIFKEQ_clean_linker_1, # of connection points: 2
#     Edge 107, Type (0, 0), BuildingBlock: KIFKEQ_clean_linker_1, # of connection points: 2
#     Edge 108, Type (0, 0), BuildingBlock: KIFKEQ_clean_linker_1, # of connection points: 2
#     Edge 109, Type (0, 0), BuildingBlock: KIFKEQ_clean_linker_1, # of connection points: 2
#     Edge 110, Type (0, 0), BuildingBlock: KIFKEQ_clean_linker_1, # of connection points: 2
#     Edge 111, Type (0, 0), BuildingBlock: KIFKEQ_clean_linker_1, # of connection points: 2
#     Edge 112, Type (0, 0), BuildingBlock: KIFKEQ_clean_linker_1, # of connection points: 2
#     Edge 113, Type (0, 0), BuildingBlock: KIFKEQ_clean_linker_1, # of connection points: 2
#     Edge 114, Type (0, 0), BuildingBlock: KIFKEQ_clean_linker_1, # of connection points: 2
#     Edge 115, Type (0, 0), BuildingBlock: KIFKEQ_clean_linker_1, # of connection points: 2
#     Edge 116, Type (0, 0), BuildingBlock: KIFKEQ_clean_linker_1, # of connection points: 2
#     Edge 117, Type (0, 0), BuildingBlock: KIFKEQ_clean_linker_1, # of connection points: 2
#     Edge 118, Type (0, 0), BuildingBlock: KIFKEQ_clean_linker_1, # of connection points: 2
#     Edge 119, Type (0, 0), BuildingBlock: KIFKEQ_clean_linker_1, # of connection points: 2
#     Edge 120, Type (0, 0), BuildingBlock: KIFKEQ_clean_linker_1, # of connection points: 2
#     Edge 121, Type (0, 0), BuildingBlock: KIFKEQ_clean_linker_1, # of connection points: 2
#     Edge 122, Type (0, 0), BuildingBlock: KIFKEQ_clean_linker_1, # of connection points: 2
#     Edge 123, Type (0, 0), BuildingBlock: KIFKEQ_clean_linker_1, # of connection points: 2
#     Edge 124, Type (0, 0), BuildingBlock: KIFKEQ_clean_linker_1, # of connection points: 2
#     Edge 125, Type (0, 0), BuildingBlock: KIFKEQ_clean_linker_1, # of connection points: 2
# Relax obj value: 0.216
# Max RMSD: 0.194
# Mean RMSD: 0.191
data_MOF--net-wlp--node1-XOMCOT_clean_sbu_1--edge1-KIFKEQ_clean_linker_1
_symmetry_space_group_name_H-M    P1
_symmetry_Int_Tables_number       1
_symmetry_cell_setting            triclinic
loop_
_symmetry_equiv_pos_as_xyz
'x, y, z'
_cell_length_a     113.63841
_cell_length_b     113.66313
_cell_length_c     20.32755
_cell_angle_alpha  90.113627
_cell_angle_beta   90.142754
_cell_angle_gamma 119.94632
loop_
_atom_site_label
_atom_site_type_symbol
_atom_site_fract_x
_atom_site_fract_y
_atom_site_fract_z
_atom_type_partial_charge
C0 C 0.25731 0.18225 0.1815 0.0
C1 C 0.25003 0.17041 0.21634 0.0
N2 N 0.24104 0.16092 0.17489 0.0
N3 N 0.25286 0.18003 0.11867 0.0
C4 C 0.24303 0.16693 0.11606 0.0
H5 H 0.26524 0.19179 0.20085 0.0
Co6 Co 0.25617 0.19187 0.05166 0.0
C7 C 0.26522 0.17705 0.94307 0.0
O8 O 0.27701 0.188 0.93278 0.0
N9 N 0.25882 0.20381 0.98208 0.0
C10 C 0.26262 0.21382 0.88419 0.0
C11 C 0.25957 0.20207 0.91668 0.0
C12 C 0.26056 0.21643 0.98709 0.0
N13 N 0.2634 0.22288 0.92898 0.0
O14 O 0.25244 0.20408 0.11926 0.0
H15 H 0.25753 0.19279 0.89272 0.0
H16 H 0.26009 0.22106 0.03271 0.0
O17 O 0.25709 0.17779 0.98574 0.0
C18 C 0.25768 0.21245 0.16876 0.0
O19 O 0.27019 0.2162 0.18643 0.0
N20 N 0.2759 0.20101 0.06707 0.0
C21 C 0.30462 0.21357 0.05331 0.0
C22 C 0.29645 0.19948 0.06423 0.0
C23 C 0.28224 0.19347 0.07117 0.0
C24 C 0.28386 0.21485 0.06434 0.0
C25 C 0.29798 0.22121 0.05604 0.0
H26 H 0.27626 0.18255 0.07558 0.0
H27 H 0.27942 0.22125 0.06627 0.0
H28 H 0.23728 0.16195 0.0721 0.0
H29 H 0.25145 0.16877 0.26751 0.0
H30 H 0.26352 0.21537 0.83149 0.0
H31 H 0.30086 0.19297 0.06576 0.0
H32 H 0.30345 0.23209 0.04904 0.0
C33 C 0.83611 0.08153 0.14793 0.0
C34 C 0.84252 0.08855 0.20403 0.0
N35 N 0.85553 0.09144 0.20133 0.0
N36 N 0.84517 0.0803 0.11014 0.0
C37 C 0.85687 0.08631 0.14393 0.0
H38 H 0.82551 0.07744 0.13549 0.0
Co39 Co 0.84088 0.07036 0.03508 0.0
C40 C 0.8632 0.08887 0.93611 0.0
O41 O 0.85287 0.08599 0.89713 0.0
N42 N 0.8357 0.0593 0.96116 0.0
C43 C 0.83385 0.04739 0.87106 0.0
C44 C 0.84276 0.05756 0.9124 0.0
C45 C 0.82279 0.04935 0.95141 0.0
N46 N 0.82127 0.04236 0.89573 0.0
O47 O 0.84411 0.0563 0.08507 0.0
H48 H 0.85368 0.06289 0.90802 0.0
H49 H 0.81465 0.04709 0.98543 0.0
O50 O 0.86069 0.08305 0.99415 0.0
C51 C 0.8333 0.04845 0.11937 0.0
O52 O 0.82305 0.05062 0.11227 0.0
N53 N 0.83527 0.08247 0.99692 0.0
C54 C 0.82405 0.09942 0.97327 0.0
C55 C 0.83767 0.10489 0.99293 0.0
C56 C 0.84305 0.09629 1.00449 0.0
C57 C 0.82211 0.07713 0.97654 0.0
C58 C 0.8165 0.08534 0.96265 0.0
H59 H 0.85326 0.10074 0.02398 0.0
H60 H 0.81534 0.06641 0.97505 0.0
H61 H 0.86619 0.08702 0.12643 0.0
H62 H 0.83799 0.09128 0.24369 0.0
H63 H 0.83649 0.04359 0.82802 0.0
H64 H 0.84397 0.11563 1.00308 0.0
H65 H 0.80604 0.08048 0.94636 0.0
C66 C 0.95326 0.75905 0.14249 0.0
C67 C 0.94432 0.75858 0.18906 0.0
N68 N 0.93919 0.76631 0.16766 0.0
N69 N 0.95353 0.76691 0.09236 0.0
C70 C 0.94498 0.77129 0.10913 0.0
H71 H 0.95901 0.75382 0.14419 0.0
Co72 Co 0.96351 0.77011 1.0189 0.0
C73 C 0.94891 0.77611 0.90648 0.0
O74 O 0.95255 0.76872 0.87164 0.0
N75 N 0.97423 0.77353 0.94505 0.0
C76 C 0.98683 0.78485 0.85942 0.0
C77 C 0.98057 0.78575 0.91522 0.0
C78 C 0.97723 0.76551 0.90795 0.0
N79 N 0.98459 0.77208 0.85491 0.0
O80 O 0.97866 0.78749 0.06326 0.0
H81 H 0.98037 0.79466 0.93236 0.0
H82 H 0.97413 0.75508 0.9185 0.0
O83 O 0.95283 0.7785 0.96817 0.0
C84 C 0.98696 0.7847 0.09483 0.0
O85 O 0.9849 0.77231 0.08773 0.0
N86 N 0.95021 0.75232 0.98837 0.0
C87 C 0.93163 0.7246 0.9656 0.0
C88 C 0.92762 0.7344 0.95978 0.0
C89 C 0.9369 0.74809 0.97371 0.0
C90 C 0.95398 0.74277 0.99806 0.0
C91 C 0.94499 0.72896 0.98596 0.0
H92 H 0.93307 0.75506 0.97557 0.0
H93 H 0.96402 0.74587 1.01703 0.0
H94 H 0.94261 0.77755 0.07808 0.0
H95 H 0.94164 0.75287 0.23442 0.0
H96 H 0.99286 0.79302 0.82569 0.0
H97 H 0.91722 0.73142 0.94752 0.0
H98 H 0.94848 0.72175 0.99298 0.0
C99 C 0.18468 0.25897 0.47009 0.0
C100 C 0.17538 0.25168 0.42186 0.0
N101 N 0.16798 0.2387 0.44196 0.0
N102 N 0.18304 0.25061 0.52057 0.0
C103 C 0.17278 0.23838 0.50213 0.0
H104 H 0.19242 0.26955 0.46689 0.0
Co105 Co 0.19328 0.25247 0.5936 0.0
C106 C 0.17862 0.25932 0.7084 0.0
O107 O 0.19056 0.2688 0.72985 0.0
N108 N 0.20336 0.25347 0.66792 0.0
C109 C 0.20847 0.25146 0.77147 0.0
C110 C 0.19812 0.24794 0.72701 0.0
C111 C 0.21691 0.25929 0.67653 0.0
N112 N 0.22025 0.25873 0.73939 0.0
O113 O 0.20665 0.24936 0.53213 0.0
H114 H 0.18742 0.24162 0.73727 0.0
H115 H 0.22427 0.26333 0.63764 0.0
O116 O 0.17825 0.25276 0.6551 0.0
C117 C 0.21256 0.25344 0.47524 0.0
O118 O 0.21226 0.26365 0.44689 0.0
N119 N 0.20304 0.27247 0.58622 0.0
C120 C 0.21647 0.30116 0.60532 0.0
C121 C 0.2022 0.29318 0.60303 0.0
C122 C 0.19578 0.27906 0.59336 0.0
C123 C 0.2168 0.28026 0.57866 0.0
C124 C 0.2237 0.29439 0.59007 0.0
H125 H 0.18483 0.2734 0.59256 0.0
H126 H 0.22272 0.27567 0.56489 0.0
H127 H 0.1692 0.22933 0.53172 0.0
H128 H 0.17406 0.25569 0.37591 0.0
H129 H 0.20746 0.24837 0.82245 0.0
H130 H 0.19584 0.29768 0.60916 0.0
H131 H 0.23466 0.29975 0.58843 0.0
C132 C 0.79607 0.93815 0.42407 0.0
C133 C 0.8034 0.93379 0.38786 0.0
N134 N 0.81161 0.932 0.42948 0.0
N135 N 0.7997 0.93894 0.48782 0.0
C136 C 0.8091 0.9351 0.48962 0.0
H137 H 0.78904 0.94112 0.40499 0.0
Co138 Co 0.79687 0.94744 0.5562 0.0
C139 C 0.78942 0.92768 0.67779 0.0
O140 O 0.78155 0.93223 0.69927 0.0
N141 N 0.79493 0.9565 0.62657 0.0
C142 C 0.8006 0.96661 0.72408 0.0
C143 C 0.80453 0.96127 0.67395 0.0
C144 C 0.78536 0.95931 0.64823 0.0
N145 N 0.7885 0.96528 0.70783 0.0
O146 O 0.80012 0.96325 0.49186 0.0
H147 H 0.81375 0.96069 0.6722 0.0
H148 H 0.77623 0.95707 0.62212 0.0
O149 O 0.79551 0.93224 0.62177 0.0
C150 C 0.81194 0.9719 0.46803 0.0
O151 O 0.82237 0.97088 0.48838 0.0
N152 N 0.7773 0.93752 0.5392 0.0
C153 C 0.74854 0.92403 0.53674 0.0
C154 C 0.75551 0.9171 0.55267 0.0
C155 C 0.76978 0.92391 0.55227 0.0
C156 C 0.77068 0.94398 0.51602 0.0
C157 C 0.75643 0.93754 0.51545 0.0
H158 H 0.7747 0.91817 0.56412 0.0
H159 H 0.7763 0.95455 0.50241 0.0
H160 H 0.81438 0.93504 0.5339 0.0
H161 H 0.80266 0.93192 0.33535 0.0
H162 H 0.80643 0.97157 0.76789 0.0
H163 H 0.75005 0.90658 0.56784 0.0
H164 H 0.75166 0.94328 0.49975 0.0
C165 C 0.10098 0.85958 0.45199 0.0
C166 C 0.10735 0.8726 0.4282 0.0
N167 N 0.10322 0.87985 0.46388 0.0
N168 N 0.09293 0.85877 0.50249 0.0
C169 C 0.09458 0.87129 0.5087 0.0
H170 H 0.10294 0.85162 0.43654 0.0
Co171 Co 0.08311 0.84566 0.56285 0.0
C172 C 0.10307 0.85807 0.68829 0.0
O173 O 0.10146 0.84622 0.70549 0.0
N174 N 0.07277 0.83268 0.62575 0.0
C175 C 0.06339 0.82261 0.72017 0.0
C176 C 0.07169 0.83481 0.6902 0.0
C177 C 0.06431 0.81923 0.61718 0.0
N178 N 0.05888 0.81278 0.67401 0.0
O179 O 0.06825 0.83434 0.48956 0.0
H180 H 0.07627 0.84463 0.71396 0.0
H181 H 0.06168 0.81427 0.56999 0.0
O182 O 0.09677 0.85862 0.636 0.0
C183 C 0.06813 0.83108 0.42808 0.0
O184 O 0.0797 0.83373 0.40163 0.0
N185 N 0.094 0.83677 0.54833 0.0
C186 C 0.10884 0.82274 0.55916 0.0
C187 C 0.11507 0.83687 0.56955 0.0
C188 C 0.10756 0.84362 0.56365 0.0
C189 C 0.08835 0.82351 0.52882 0.0
C190 C 0.09534 0.81627 0.53579 0.0
H191 H 0.11273 0.85442 0.57277 0.0
H192 H 0.07824 0.81816 0.50903 0.0
H193 H 0.09032 0.8743 0.5485 0.0
H194 H 0.11524 0.87674 0.39129 0.0
H195 H 0.06037 0.8212 0.77131 0.0
H196 H 0.12567 0.84283 0.58297 0.0
H197 H 0.08986 0.80554 0.52459 0.0
C198 C 0.78034 0.83876 0.22772 0.0
C199 C 0.78859 0.84876 0.27163 0.0
N200 N 0.79879 0.85879 0.23743 0.0
N201 N 0.78539 0.84266 0.16668 0.0
C202 C 0.79653 0.85491 0.17408 0.0
H203 H 0.77181 0.82893 0.2398 0.0
Co204 Co 0.78187 0.8318 0.095 0.0
C205 C 0.78217 0.85147 0.98473 0.0
O206 O 0.76957 0.84242 0.97115 0.0
N207 N 0.77844 0.82024 0.0215 0.0
C208 C 0.76885 0.80628 0.93592 0.0
C209 C 0.76853 0.81595 0.97511 0.0
C210 C 0.78453 0.81286 1.00915 0.0
N211 N 0.77886 0.80429 0.95789 0.0
O212 O 0.80038 0.83347 0.11117 0.0
H213 H 0.76076 0.81871 0.97227 0.0
H214 H 0.79291 0.81357 0.0374 0.0
O215 O 0.78848 0.84886 0.03135 0.0
C216 C 0.79918 0.82501 0.15736 0.0
O217 O 0.78687 0.81653 0.17822 0.0
N218 N 0.76352 0.82798 0.09513 0.0
C219 C 0.73596 0.81824 0.12584 0.0
C220 C 0.74507 0.83224 0.11677 0.0
C221 C 0.75886 0.83693 0.1023 0.0
C222 C 0.75488 0.81448 0.10551 0.0
C223 C 0.74114 0.8094 0.11833 0.0
H224 H 0.76589 0.84774 0.09984 0.0
H225 H 0.75874 0.8075 0.10529 0.0
H226 H 0.80347 0.86041 0.13452 0.0
H227 H 0.78736 0.84859 0.32447 0.0
H228 H 0.76189 0.80074 0.89621 0.0
H229 H 0.74175 0.83958 0.12367 0.0
H230 H 0.73474 0.79853 0.12365 0.0
C231 C 0.19282 0.94581 0.21757 0.0
C232 C 0.18501 0.94269 0.27341 0.0
N233 N 0.17304 0.94166 0.25668 0.0
N234 N 0.18566 0.94655 0.16639 0.0
C235 C 0.17367 0.94388 0.19149 0.0
H236 H 0.20337 0.94846 0.21546 0.0
Co237 Co 0.19229 0.95545 0.08922 0.0
C238 C 0.17282 0.93752 0.97988 0.0
O239 O 0.18414 0.94106 0.9479 0.0
N240 N 0.19896 0.9652 1.01159 0.0
C241 C 0.19853 0.97653 0.92362 0.0
C242 C 0.19134 0.96906 0.97666 0.0
C243 C 0.21104 0.97099 0.98009 0.0
N244 N 0.21091 0.97775 0.9258 0.0
O245 O 0.18821 0.96994 0.12306 0.0
H246 H 0.18119 0.96676 0.98981 0.0
H247 H 0.2199 0.97071 0.99701 0.0
O248 O 0.17371 0.94251 0.039 0.0
C249 C 0.19848 0.97884 0.15763 0.0
O250 O 0.20943 0.97772 0.15875 0.0
N251 N 0.19866 0.94318 0.06891 0.0
C252 C 0.2105 0.9266 0.07907 0.0
C253 C 0.19649 0.92091 0.06828 0.0
C254 C 0.19071 0.92933 0.06527 0.0
C255 C 0.21229 0.9488 0.07929 0.0
C256 C 0.21842 0.94077 0.08378 0.0
H257 H 0.17978 0.92456 0.06506 0.0
H258 H 0.21835 0.95953 0.0899 0.0
H259 H 0.16609 0.94488 0.16361 0.0
H260 H 0.18807 0.94175 0.32269 0.0
H261 H 0.1952 0.9814 0.88829 0.0
H262 H 0.18991 0.90999 0.06677 0.0
H263 H 0.22922 0.94562 0.09347 0.0
C264 C 0.10014 0.25601 0.26262 0.0
C265 C 0.1033 0.2481 0.30149 0.0
N266 N 0.10144 0.23728 0.26578 0.0
N267 N 0.09656 0.2503 0.20245 0.0
C268 C 0.09741 0.23892 0.20584 0.0
H269 H 0.09987 0.26495 0.27832 0.0
Co270 Co 0.08808 0.25423 0.13686 0.0
C271 C 0.10009 0.25075 1.00434 0.0
O272 O 0.09572 0.25824 0.97625 0.0
N273 N 0.07886 0.25786 0.07105 0.0
C274 C 0.06979 0.26688 1.00545 0.0
C275 C 0.07956 0.26961 0.05226 0.0
C276 C 0.06865 0.24821 0.03461 0.0
N277 N 0.06294 0.25341 0.99463 0.0
O278 O 0.07081 0.23623 0.15773 0.0
H279 H 0.08647 0.27958 0.07146 0.0
H280 H 0.06518 0.23748 0.03878 0.0
O281 O 0.09712 0.24751 0.06606 0.0
C282 C 0.06424 0.23915 0.2011 0.0
O283 O 0.06958 0.25203 0.21689 0.0
N284 N 0.10318 0.27227 0.13182 0.0
C285 C 0.12206 0.30018 0.14351 0.0
C286 C 0.12482 0.29166 0.10392 0.0
C287 C 0.11534 0.27765 0.0997 0.0
C288 C 0.10065 0.28038 0.172 0.0
C289 C 0.10981 0.29424 0.17822 0.0
H290 H 0.118 0.2713 0.07143 0.0
H291 H 0.09116 0.27605 0.19841 0.0
H292 H 0.09443 0.23163 0.16611 0.0
H293 H 0.1067 0.25018 0.35215 0.0
H294 H 0.06775 0.27422 0.98194 0.0
H295 H 0.1343 0.29574 0.07738 0.0
H296 H 0.1071 0.30031 0.209 0.0
C297 C 0.84191 0.75973 0.4211 0.0
C298 C 0.84831 0.75974 0.36407 0.0
N299 N 0.86179 0.76723 0.37464 0.0
N300 N 0.85136 0.76701 0.46701 0.0
C301 C 0.86337 0.77155 0.43747 0.0
H302 H 0.83106 0.75487 0.42872 0.0
Co303 Co 0.84718 0.77071 0.54701 0.0
C304 C 0.86837 0.77308 0.64731 0.0
O305 O 0.8573 0.76486 0.67983 0.0
N306 N 0.8425 0.77495 0.62755 0.0
C307 C 0.84452 0.78777 0.71411 0.0
C308 C 0.85052 0.78702 0.65724 0.0
C309 C 0.83147 0.76867 0.66663 0.0
N310 N 0.83253 0.77622 0.71995 0.0
O311 O 0.851 0.7889 0.51016 0.0
H312 H 0.86008 0.7949 0.6379 0.0
H313 H 0.82267 0.75896 0.65611 0.0
O314 O 0.86683 0.77698 0.58878 0.0
C315 C 0.84007 0.78801 0.48475 0.0
O316 O 0.82855 0.77679 0.49553 0.0
N317 N 0.8412 0.75217 0.57029 0.0
C318 C 0.83005 0.72392 0.5523 0.0
C319 C 0.84415 0.73268 0.55483 0.0
C320 C 0.84951 0.74671 0.56338 0.0
C321 C 0.82744 0.74372 0.56811 0.0
C322 C 0.82168 0.7296 0.5611 0.0
H323 H 0.86033 0.75321 0.55761 0.0
H324 H 0.82084 0.74797 0.56439 0.0
H325 H 0.87305 0.77772 0.46178 0.0
H326 H 0.84347 0.75467 0.31849 0.0
H327 H 0.84833 0.79648 0.74663 0.0
H328 H 0.85102 0.7288 0.54676 0.0
H329 H 0.81075 0.72333 0.55686 0.0
C330 C 0.26091 0.08887 0.40325 0.0
C331 C 0.25441 0.0918 0.35423 0.0
N332 N 0.24443 0.0932 0.38209 0.0
N333 N 0.25503 0.08856 0.46121 0.0
C334 C 0.24507 0.09124 0.4469 0.0
H335 H 0.26899 0.08656 0.39694 0.0
Co336 Co 0.25709 0.08175 0.53858 0.0
C337 C 0.24604 0.09365 0.64684 0.0
O338 O 0.23896 0.08162 0.67389 0.0
N339 N 0.2592 0.07459 0.61703 0.0
C340 C 0.26654 0.07295 0.71608 0.0
C341 C 0.26606 0.08167 0.67098 0.0
C342 C 0.25573 0.06164 0.63014 0.0
N343 N 0.26007 0.06035 0.69016 0.0
O344 O 0.23817 0.06562 0.523 0.0
H345 H 0.27072 0.09256 0.67653 0.0
H346 H 0.25013 0.05331 0.59635 0.0
O347 O 0.2523 0.09452 0.59228 0.0
C348 C 0.23923 0.05744 0.48147 0.0
O349 O 0.25153 0.06019 0.46546 0.0
N350 N 0.27557 0.09539 0.54165 0.0
C351 C 0.30348 0.11273 0.52094 0.0
C352 C 0.29457 0.11794 0.52664 0.0
C353 C 0.2806 0.10907 0.5368 0.0
C354 C 0.2841 0.09023 0.5375 0.0
C355 C 0.29801 0.09868 0.52857 0.0
H356 H 0.27377 0.11311 0.53714 0.0
H357 H 0.27999 0.07936 0.53907 0.0
H358 H 0.23801 0.09112 0.48289 0.0
H359 H 0.25685 0.09289 0.30236 0.0
H360 H 0.27148 0.07573 0.7637 0.0
H361 H 0.29821 0.12866 0.52024 0.0
H362 H 0.30437 0.0941 0.52614 0.0
C363 C 0.95347 0.18571 0.42506 0.0
C364 C 0.94591 0.17647 0.37719 0.0
N365 N 0.93771 0.16456 0.40686 0.0
N366 N 0.94994 0.17958 0.48412 0.0
C367 C 0.94039 0.16669 0.47161 0.0
H368 H 0.96075 0.19634 0.41763 0.0
Co369 Co 0.95686 0.1883 0.56144 0.0
C370 C 0.93908 0.16851 0.67216 0.0
O371 O 0.93967 0.17927 0.69912 0.0
N372 N 0.96453 0.19781 0.64075 0.0
C373 C 0.96991 0.21101 0.72967 0.0
C374 C 0.9613 0.20582 0.67692 0.0
C375 C 0.97516 0.19832 0.6734 0.0
N376 N 0.97867 0.20634 0.72724 0.0
O377 O 0.97365 0.1867 0.54183 0.0
H378 H 0.95307 0.20773 0.66734 0.0
H379 H 0.98032 0.19297 0.65808 0.0
O380 O 0.94555 0.17006 0.61683 0.0
C381 C 0.98246 0.19782 0.5127 0.0
O382 O 0.97984 0.20785 0.51255 0.0
N383 N 0.9425 0.19239 0.5644 0.0
C384 C 0.92475 0.20222 0.53448 0.0
C385 C 0.91968 0.18852 0.55168 0.0
C386 C 0.92875 0.18376 0.56634 0.0
C387 C 0.94744 0.2055 0.54464 0.0
C388 C 0.93884 0.21069 0.53159 0.0
H389 H 0.92471 0.17308 0.57582 0.0
H390 H 0.95826 0.21201 0.53839 0.0
H391 H 0.93488 0.15923 0.50921 0.0
H392 H 0.94605 0.17846 0.32505 0.0
H393 H 0.96997 0.21804 0.76584 0.0
H394 H 0.90883 0.18154 0.55282 0.0
H395 H 0.94321 0.2212 0.51677 0.0
C396 C 0.94371 0.53104 0.43665 0.0
C397 C 0.94455 0.52739 0.49993 0.0
N398 N 0.93386 0.51495 0.51006 0.0
N399 N 0.93272 0.52078 0.40684 0.0
C400 C 0.92691 0.51111 0.45281 0.0
H401 H 0.95024 0.54089 0.4153 0.0
Co402 Co 0.9253 0.52237 0.32973 0.0
C403 C 0.9204 0.49888 0.23722 0.0
O404 O 0.92594 0.50858 0.19342 0.0
N405 N 0.91756 0.5244 0.25231 0.0
C406 C 0.90212 0.52039 0.17492 0.0
C407 C 0.90425 0.51695 0.23682 0.0
C408 C 0.92324 0.53229 0.19899 0.0
N409 N 0.91416 0.53003 0.15106 0.0
O410 O 0.90788 0.51817 0.38216 0.0
H411 H 0.89659 0.50929 0.2681 0.0
H412 H 0.93389 0.53919 0.19335 0.0
O413 O 0.91912 0.50216 0.29767 0.0
C414 C 0.90943 0.5281 0.42041 0.0
O415 O 0.92128 0.53931 0.41882 0.0
N416 N 0.94289 0.52888 0.28952 0.0
C417 C 0.97101 0.54225 0.2594 0.0
C418 C 0.96352 0.52811 0.27011 0.0
C419 C 0.9496 0.52169 0.28591 0.0
C420 C 0.95015 0.54266 0.28226 0.0
C421 C 0.9639 0.5494 0.26489 0.0
H422 H 0.94453 0.5111 0.29934 0.0
H423 H 0.94526 0.54858 0.2915 0.0
H424 H 0.91752 0.50166 0.44505 0.0
H425 H 0.95211 0.53356 0.53637 0.0
H426 H 0.89241 0.51627 0.15022 0.0
H427 H 0.96844 0.52207 0.26968 0.0
H428 H 0.96889 0.56025 0.25725 0.0
C429 C 0.53145 0.41189 0.47111 0.0
C430 C 0.54469 0.41647 0.48925 0.0
N431 N 0.55236 0.4202 0.43452 0.0
N432 N 0.53082 0.41277 0.40522 0.0
C433 C 0.54369 0.41775 0.38437 0.0
H434 H 0.52294 0.40868 0.50413 0.0
Co435 Co 0.51573 0.4079 0.35411 0.0
C436 C 0.53178 0.42042 0.22672 0.0
O437 O 0.52725 0.40779 0.20818 0.0
N438 N 0.5007 0.40311 0.30102 0.0
C439 C 0.48538 0.40454 0.23838 0.0
C440 C 0.49739 0.41178 0.27215 0.0
C441 C 0.49096 0.39073 0.28149 0.0
N442 N 0.48129 0.39129 0.24519 0.0
O443 O 0.50436 0.39229 0.42532 0.0
H444 H 0.50325 0.42272 0.27584 0.0
H445 H 0.491 0.38148 0.29356 0.0
O446 O 0.52781 0.42238 0.2834 0.0
C447 C 0.49226 0.38283 0.44311 0.0
O448 O 0.48178 0.38155 0.40973 0.0
N449 N 0.5122 0.42104 0.39776 0.0
C450 C 0.5021 0.43906 0.41049 0.0
C451 C 0.51556 0.44373 0.39077 0.0
C452 C 0.52053 0.43462 0.38639 0.0
C453 C 0.49971 0.41678 0.42501 0.0
C454 C 0.49449 0.42558 0.43171 0.0
H455 H 0.53071 0.43836 0.36823 0.0
H456 H 0.49298 0.40625 0.43492 0.0
H457 H 0.54684 0.42016 0.33376 0.0
H458 H 0.54855 0.41806 0.53917 0.0
H459 H 0.48002 0.40868 0.21173 0.0
H460 H 0.52199 0.45418 0.37579 0.0
H461 H 0.4841 0.4215 0.4478 0.0
C462 C 0.60667 0.08831 0.47942 0.0
C463 C 0.59687 0.08822 0.51907 0.0
N464 N 0.59494 0.09848 0.50006 0.0
N465 N 0.61066 0.09849 0.43578 0.0
C466 C 0.6035 0.10461 0.44988 0.0
H467 H 0.6105 0.08131 0.48126 0.0
Co468 Co 0.62302 0.10247 0.37153 0.0
C469 C 0.60929 0.10835 0.25254 0.0
O470 O 0.61208 0.1002 0.21857 0.0
N471 N 0.63617 0.10643 0.30887 0.0
C472 C 0.65082 0.11377 0.22624 0.0
C473 C 0.64008 0.11424 0.25439 0.0
C474 C 0.64534 0.1023 0.31563 0.0
N475 N 0.65395 0.10614 0.26493 0.0
O476 O 0.63661 0.11978 0.42253 0.0
H477 H 0.63593 0.12042 0.23741 0.0
H478 H 0.64596 0.09688 0.35796 0.0
O479 O 0.61358 0.1111 0.3134 0.0
C480 C 0.64249 0.11718 0.47101 0.0
O481 O 0.63879 0.10438 0.48082 0.0
N482 N 0.61105 0.08479 0.33248 0.0
C483 C 0.59443 0.05758 0.28932 0.0
C484 C 0.58935 0.06662 0.29346 0.0
C485 C 0.59767 0.07999 0.31672 0.0
C486 C 0.6158 0.07586 0.3327 0.0
C487 C 0.60784 0.06246 0.31065 0.0
H488 H 0.59321 0.08637 0.32307 0.0
H489 H 0.62559 0.07878 0.35329 0.0
H490 H 0.60421 0.1131 0.42259 0.0
H491 H 0.59152 0.08112 0.55827 0.0
H492 H 0.65638 0.1192 0.18288 0.0
H493 H 0.57899 0.06342 0.27934 0.0
H494 H 0.61213 0.05583 0.3129 0.0
C495 C 0.84946 0.5859 0.71806 0.0
C496 C 0.83901 0.5801 0.67306 0.0
N497 N 0.82982 0.56764 0.69498 0.0
N498 N 0.84666 0.57714 0.76798 0.0
C499 C 0.83469 0.56619 0.75281 0.0
H500 H 0.85873 0.59556 0.71343 0.0
Co501 Co 0.85767 0.57738 0.83338 0.0
C502 C 0.8395 0.57446 0.95643 0.0
O503 O 0.85041 0.58463 0.9829 0.0
N504 N 0.86913 0.57727 0.89785 0.0
C505 C 0.87876 0.57319 0.98311 0.0
C506 C 0.86703 0.57234 0.9597 0.0
C507 C 0.88192 0.5803 0.88373 0.0
N508 N 0.88808 0.5782 0.93504 0.0
O509 O 0.85565 0.55947 0.7965 0.0
H510 H 0.85737 0.56711 0.98434 0.0
H511 H 0.88632 0.58304 0.83514 0.0
O512 O 0.84069 0.56966 0.89964 0.0
C513 C 0.8634 0.56195 0.74493 0.0
O514 O 0.87016 0.5746 0.72491 0.0
N515 N 0.86245 0.59568 0.85537 0.0
C516 C 0.87343 0.62376 0.87475 0.0
C517 C 0.85946 0.61471 0.88309 0.0
C518 C 0.85408 0.60073 0.87072 0.0
C519 C 0.87586 0.60453 0.84344 0.0
C520 C 0.88154 0.61847 0.85344 0.0
H521 H 0.84322 0.59404 0.87301 0.0
H522 H 0.88223 0.60088 0.82381 0.0
H523 H 0.83004 0.55703 0.78202 0.0
H524 H 0.8383 0.58467 0.62767 0.0
H525 H 0.87987 0.56902 0.02903 0.0
H526 H 0.85273 0.61846 0.8971 0.0
H527 H 0.89229 0.62509 0.84449 0.0
C528 C 0.45278 0.27816 0.78722 0.0
C529 C 0.46017 0.27373 0.75201 0.0
N530 N 0.46872 0.2726 0.79402 0.0
N531 N 0.45676 0.27968 0.85072 0.0
C532 C 0.46639 0.27614 0.85342 0.0
H533 H 0.44542 0.28062 0.76759 0.0
Co534 Co 0.45359 0.28837 0.91724 0.0
C535 C 0.44603 0.26699 0.03414 0.0
O536 O 0.43551 0.26823 0.0503 0.0
N537 N 0.45106 0.29778 0.98597 0.0
C538 C 0.45033 0.30536 0.08597 0.0
C539 C 0.45423 0.29767 0.05001 0.0
C540 C 0.4463 0.30654 0.98382 0.0
N541 N 0.44522 0.31079 0.04404 0.0
O542 O 0.45576 0.30324 0.8491 0.0
H543 H 0.45953 0.29278 0.06958 0.0
H544 H 0.44419 0.31029 0.93919 0.0
O545 O 0.45336 0.27399 0.98451 0.0
C546 C 0.46758 0.31155 0.82414 0.0
O547 O 0.47791 0.31052 0.84607 0.0
N548 N 0.43392 0.27731 0.90354 0.0
C549 C 0.40523 0.26178 0.91775 0.0
C550 C 0.41338 0.25564 0.91837 0.0
C551 C 0.42757 0.2635 0.91049 0.0
C552 C 0.42602 0.28306 0.89248 0.0
C553 C 0.41186 0.27569 0.90144 0.0
H554 H 0.43349 0.25847 0.91295 0.0
H555 H 0.43056 0.29353 0.87846 0.0
H556 H 0.47191 0.27656 0.89768 0.0
H557 H 0.45923 0.27134 0.7 0.0
H558 H 0.45192 0.30752 0.13818 0.0
H559 H 0.40896 0.24484 0.92604 0.0
H560 H 0.40638 0.28115 0.89771 0.0
C561 C 0.75434 0.16812 0.76853 0.0
C562 C 0.76381 0.1775 0.72657 0.0
N563 N 0.76785 0.18994 0.75154 0.0
N564 N 0.75266 0.17473 0.81947 0.0
C565 C 0.76084 0.18797 0.80734 0.0
H566 H 0.74942 0.15719 0.76385 0.0
Co567 Co 0.74245 0.16709 0.89192 0.0
C568 C 0.75727 0.18667 1.00855 0.0
O569 O 0.75376 0.17548 0.0414 0.0
N570 N 0.73167 0.15921 0.96553 0.0
C571 C 0.71952 0.15786 0.05353 0.0
C572 C 0.72467 0.16445 0.99509 0.0
C573 C 0.73029 0.14919 1.0061 0.0
N574 N 0.72323 0.14838 0.06041 0.0
O575 O 0.72747 0.16987 0.85027 0.0
H576 H 0.72393 0.17299 0.9768 0.0
H577 H 0.73483 0.14296 0.9988 0.0
O578 O 0.75323 0.18556 0.94728 0.0
C579 C 0.72028 0.16011 0.8086 0.0
O580 O 0.72319 0.15033 0.80351 0.0
N581 N 0.75545 0.16204 0.91849 0.0
C582 C 0.77296 0.15152 0.93539 0.0
C583 C 0.77781 0.16549 0.94191 0.0
C584 C 0.76892 0.1706 0.93234 0.0
C585 C 0.75103 0.14866 0.90599 0.0
C586 C 0.75941 0.1431 0.91658 0.0
H587 H 0.77306 0.18145 0.93346 0.0
H588 H 0.74079 0.14219 0.88802 0.0
H589 H 0.76228 0.19601 0.84063 0.0
H590 H 0.76779 0.17535 0.68267 0.0
H591 H 0.71354 0.15989 0.08826 0.0
H592 H 0.78837 0.1724 0.95377 0.0
H593 H 0.75541 0.13234 0.90842 0.0
C594 C 0.44557 0.18124 0.56702 0.0
C595 C 0.45211 0.19084 0.61545 0.0
N596 N 0.46277 0.20165 0.58778 0.0
N597 N 0.45215 0.18615 0.50972 0.0
C598 C 0.4625 0.1986 0.52377 0.0
H599 H 0.43713 0.17107 0.57373 0.0
Co600 Co 0.45105 0.17653 0.43595 0.0
C601 C 0.45113 0.1958 0.32782 0.0
O602 O 0.4399 0.18523 0.30646 0.0
N603 N 0.4505 0.16634 0.36238 0.0
C604 C 0.45336 0.15882 0.26605 0.0
C605 C 0.45404 0.16969 0.29879 0.0
C606 C 0.44847 0.1536 0.36738 0.0
N607 N 0.4498 0.14871 0.30933 0.0
O608 O 0.46948 0.17886 0.46146 0.0
H609 H 0.45823 0.17968 0.27796 0.0
H610 H 0.44675 0.14826 0.4135 0.0
O611 O 0.45759 0.1942 0.37728 0.0
C612 C 0.46773 0.17022 0.50769 0.0
O613 O 0.4552 0.16172 0.52549 0.0
N614 N 0.43252 0.17213 0.42343 0.0
C615 C 0.40463 0.16342 0.4296 0.0
C616 C 0.41438 0.17713 0.43921 0.0
C617 C 0.42826 0.18129 0.43573 0.0
C618 C 0.42305 0.15873 0.415 0.0
C619 C 0.40915 0.15425 0.41633 0.0
H620 H 0.43561 0.19183 0.44521 0.0
H621 H 0.42609 0.15119 0.41058 0.0
H622 H 0.47024 0.20494 0.48876 0.0
H623 H 0.44936 0.18993 0.66691 0.0
H624 H 0.45668 0.15883 0.21613 0.0
H625 H 0.4113 0.18453 0.45026 0.0
H626 H 0.40197 0.14351 0.41051 0.0
C627 C 0.86486 0.27577 0.50535 0.0
C628 C 0.85951 0.27123 0.5666 0.0
N629 N 0.84604 0.26641 0.56288 0.0
N630 N 0.85473 0.27355 0.46354 0.0
C631 C 0.8434 0.26792 0.49973 0.0
H632 H 0.8755 0.28087 0.49251 0.0
Co633 Co 0.85763 0.28087 0.38233 0.0
C634 C 0.8354 0.26116 0.28789 0.0
O635 O 0.84592 0.26378 0.25116 0.0
N636 N 0.86101 0.28927 0.30084 0.0
C637 C 0.85737 0.29929 0.2159 0.0
C638 C 0.85212 0.29242 0.27327 0.0
C639 C 0.87182 0.29475 0.26019 0.0
N640 N 0.86978 0.30078 0.20782 0.0
O641 O 0.85364 0.29506 0.42081 0.0
H642 H 0.84253 0.29019 0.29473 0.0
H643 H 0.88123 0.29489 0.26939 0.0
O644 O 0.83769 0.26692 0.34617 0.0
C645 C 0.86454 0.30539 0.44466 0.0
O646 O 0.8762 0.30613 0.43176 0.0
N647 N 0.86381 0.26856 0.35672 0.0
C648 C 0.87616 0.25244 0.37645 0.0
C649 C 0.86194 0.24666 0.37624 0.0
C650 C 0.856 0.25484 0.3668 0.0
C651 C 0.8776 0.27425 0.35476 0.0
C652 C 0.8839 0.26641 0.36242 0.0
H653 H 0.84523 0.25029 0.3753 0.0
H654 H 0.88394 0.28515 0.35526 0.0
H655 H 0.83348 0.26515 0.48019 0.0
H656 H 0.86511 0.27166 0.61055 0.0
H657 H 0.8528 0.30368 0.18495 0.0
H658 H 0.85538 0.23609 0.38863 0.0
H659 H 0.89487 0.27154 0.36137 0.0
C660 C 0.75833 0.58217 0.49855 0.0
C661 C 0.76083 0.57462 0.5432 0.0
N662 N 0.75975 0.56363 0.51182 0.0
N663 N 0.75598 0.57609 0.43931 0.0
C664 C 0.75683 0.56485 0.44884 0.0
H665 H 0.75787 0.59128 0.50877 0.0
Co666 Co 0.74903 0.57957 0.36574 0.0
C667 C 0.77015 0.5788 0.26509 0.0
O668 O 0.77628 0.59205 0.26144 0.0
N669 N 0.74135 0.58272 0.29049 0.0
C670 C 0.73828 0.59057 0.19564 0.0
C671 C 0.74765 0.59021 0.23683 0.0
C672 C 0.7281 0.57866 0.2805 0.0
N673 N 0.72595 0.58328 0.22312 0.0
O674 O 0.73173 0.56127 0.38217 0.0
H675 H 0.75843 0.59576 0.229 0.0
H676 H 0.72014 0.57238 0.3145 0.0
O677 O 0.75952 0.57243 0.30344 0.0
C678 C 0.72505 0.5629 0.43014 0.0
O679 O 0.72974 0.57534 0.45214 0.0
N680 N 0.76391 0.59811 0.36556 0.0
C681 C 0.78191 0.62557 0.3983 0.0
C682 C 0.78604 0.61582 0.4026 0.0
C683 C 0.77691 0.60215 0.386 0.0
C684 C 0.75977 0.60753 0.36313 0.0
C685 C 0.76865 0.62125 0.37708 0.0
H686 H 0.78008 0.5947 0.39262 0.0
H687 H 0.74924 0.60438 0.35383 0.0
H688 H 0.75477 0.55743 0.41062 0.0
H689 H 0.76341 0.57717 0.5945 0.0
H690 H 0.74047 0.59604 0.14968 0.0
H691 H 0.79614 0.61867 0.42003 0.0
H692 H 0.76487 0.62831 0.37515 0.0
C693 C 0.50583 0.10245 0.76962 0.0
C694 C 0.5114 0.10283 0.70958 0.0
N695 N 0.52502 0.10974 0.71639 0.0
N696 N 0.51588 0.10906 0.81383 0.0
C697 C 0.52746 0.11345 0.78033 0.0
H698 H 0.49512 0.09788 0.78035 0.0
Co699 Co 0.51237 0.11243 0.89631 0.0
C700 C 0.53428 0.11398 0.99007 0.0
O701 O 0.52373 0.10588 0.0261 0.0
N702 N 0.50815 0.1162 0.97956 0.0
C703 C 0.51033 0.12712 0.07378 0.0
C704 C 0.51664 0.12713 1.0163 0.0
C705 C 0.49648 0.11013 1.0143 0.0
N706 N 0.49768 0.1164 0.07222 0.0
O707 O 0.51646 0.13099 0.86345 0.0
H708 H 0.52674 0.13479 1.00159 0.0
H709 H 0.48706 0.10169 0.99714 0.0
O710 O 0.53209 0.11809 0.93344 0.0
C711 C 0.50584 0.13019 0.83483 0.0
O712 O 0.49428 0.1188 0.84175 0.0
N713 N 0.50634 0.09375 0.91623 0.0
C714 C 0.49504 0.06556 0.89627 0.0
C715 C 0.50914 0.07428 0.89676 0.0
C716 C 0.51457 0.08828 0.90617 0.0
C717 C 0.49258 0.08533 0.91552 0.0
C718 C 0.48675 0.07124 0.90763 0.0
H719 H 0.52533 0.09475 0.89855 0.0
H720 H 0.48596 0.08957 0.9133 0.0
H721 H 0.53742 0.11911 0.80264 0.0
H722 H 0.50583 0.09839 0.66454 0.0
H723 H 0.51438 0.13484 0.11187 0.0
H724 H 0.51593 0.0704 0.88656 0.0
H725 H 0.4758 0.065 0.90477 0.0
C726 C 0.91421 0.41371 0.70362 0.0
C727 C 0.91273 0.42346 0.67095 0.0
N728 N 0.91464 0.43315 0.71477 0.0
N729 N 0.91712 0.41743 0.76724 0.0
C730 C 0.9173 0.42929 0.77258 0.0
H731 H 0.91398 0.40494 0.68166 0.0
Co732 Co 0.92184 0.40902 0.82936 0.0
C733 C 0.91743 0.41967 0.96656 0.0
O734 O 0.9232 0.41367 0.99694 0.0
N735 N 0.92672 0.40014 0.89105 0.0
C736 C 0.93773 0.39154 0.94509 0.0
C737 C 0.93909 0.40163 0.90335 0.0
C738 C 0.91806 0.3891 0.92562 0.0
N739 N 0.92445 0.3836 0.95864 0.0
O740 O 0.9037 0.39174 0.81187 0.0
H741 H 0.94851 0.40913 0.88127 0.0
H742 H 0.90716 0.38477 0.92378 0.0
O743 O 0.91549 0.41784 0.90331 0.0
C744 C 0.90522 0.38343 0.7734 0.0
O745 O 0.91769 0.38647 0.7592 0.0
N746 N 0.93977 0.42429 0.83117 0.0
C747 C 0.96759 0.443 0.81375 0.0
C748 C 0.96059 0.44357 0.86973 0.0
C749 C 0.94664 0.43416 0.87746 0.0
C750 C 0.94636 0.42381 0.77615 0.0
C751 C 0.96014 0.43299 0.76642 0.0
H752 H 0.94166 0.43472 0.92125 0.0
H753 H 0.94093 0.41584 0.74026 0.0
H754 H 0.92046 0.43556 0.81639 0.0
H755 H 0.91115 0.42381 0.6186 0.0
H756 H 0.94585 0.38995 0.96228 0.0
H757 H 0.96584 0.45117 0.90749 0.0
H758 H 0.96501 0.43187 0.72302 0.0
C759 C 0.61037 0.51681 0.68906 0.0
C760 C 0.60677 0.50881 0.63336 0.0
N761 N 0.60605 0.49697 0.64945 0.0
N762 N 0.6118 0.5099 0.73938 0.0
C763 C 0.60898 0.49787 0.71403 0.0
H764 H 0.61288 0.52732 0.69143 0.0
Co765 Co 0.6212 0.51658 0.81608 0.0
C766 C 0.60346 0.49753 0.92588 0.0
O767 O 0.60695 0.50913 0.95533 0.0
N768 N 0.63134 0.5231 0.89358 0.0
C769 C 0.64263 0.52174 0.97992 0.0
C770 C 0.63535 0.51522 0.92487 0.0
C771 C 0.63675 0.53466 0.92985 0.0
N772 N 0.6435 0.53395 0.9831 0.0
O773 O 0.63569 0.51259 0.77916 0.0
H774 H 0.63318 0.50529 0.90815 0.0
H775 H 0.63606 0.54353 0.91781 0.0
O776 O 0.60835 0.49801 0.86698 0.0
C777 C 0.64339 0.52251 0.73981 0.0
O778 O 0.64101 0.53269 0.73662 0.0
N779 N 0.60917 0.52316 0.83812 0.0
C780 C 0.59316 0.5357 0.8244 0.0
C781 C 0.58714 0.5215 0.83065 0.0
C782 C 0.59529 0.51543 0.8368 0.0
C783 C 0.61513 0.5369 0.83217 0.0
C784 C 0.60742 0.54336 0.82769 0.0
H785 H 0.59041 0.50449 0.83453 0.0
H786 H 0.62595 0.54289 0.8247 0.0
H787 H 0.61044 0.49049 0.741 0.0
H788 H 0.60538 0.51168 0.58448 0.0
H789 H 0.6475 0.51805 1.01331 0.0
H790 H 0.57626 0.51498 0.82632 0.0
H791 H 0.61275 0.5543 0.82354 0.0
C792 C 0.61414 0.86727 0.79567 0.0
C793 C 0.61444 0.85942 0.84612 0.0
N794 N 0.60503 0.84643 0.83319 0.0
N795 N 0.60469 0.85916 0.7514 0.0
C796 C 0.59924 0.84657 0.7756 0.0
H797 H 0.62038 0.87817 0.79135 0.0
Co798 Co 0.60025 0.86477 0.6768 0.0
C799 C 0.59368 0.84284 0.56995 0.0
O800 O 0.60066 0.8533 0.53132 0.0
N801 N 0.59558 0.87074 0.60186 0.0
C802 C 0.58341 0.86999 0.51474 0.0
C803 C 0.58319 0.86391 0.57332 0.0
C804 C 0.60296 0.88129 0.56137 0.0
N805 N 0.59589 0.88078 0.50753 0.0
O806 O 0.58272 0.86191 0.72243 0.0
H807 H 0.57468 0.8548 0.59289 0.0
H808 H 0.6133 0.88918 0.56973 0.0
O809 O 0.5921 0.84523 0.63143 0.0
C810 C 0.58482 0.87161 0.76356 0.0
O811 O 0.59734 0.8817 0.76955 0.0
N812 N 0.6181 0.86994 0.64351 0.0
C813 C 0.64611 0.88077 0.61779 0.0
C814 C 0.63693 0.86671 0.61391 0.0
C815 C 0.62309 0.86148 0.62874 0.0
C816 C 0.62702 0.88351 0.6507 0.0
C817 C 0.64088 0.88913 0.63683 0.0
H818 H 0.61664 0.85061 0.63126 0.0
H819 H 0.62339 0.89006 0.669 0.0
H820 H 0.5914 0.83764 0.75084 0.0
H821 H 0.62104 0.86296 0.88881 0.0
H822 H 0.57504 0.86691 0.48058 0.0
H823 H 0.6405 0.85972 0.60248 0.0
H824 H 0.64744 0.9 0.64176 0.0
C825 C 0.18701 0.75671 0.81661 0.0
C826 C 0.19715 0.76077 0.86314 0.0
N827 N 0.20833 0.76225 0.83276 0.0
N828 N 0.192 0.75578 0.75789 0.0
C829 C 0.20497 0.75929 0.76917 0.0
H830 H 0.17652 0.75374 0.82568 0.0
Co831 Co 0.1833 0.74676 0.68377 0.0
C832 C 0.19812 0.76798 0.57065 0.0
O833 O 0.18622 0.76466 0.54519 0.0
N834 N 0.17507 0.7371 0.60849 0.0
C835 C 0.17313 0.7236 0.52534 0.0
C836 C 0.17963 0.72914 0.58367 0.0
C837 C 0.1658 0.73632 0.56426 0.0
N838 N 0.16446 0.72817 0.51328 0.0
O839 O 0.16952 0.73073 0.74324 0.0
H840 H 0.18728 0.72752 0.60688 0.0
H841 H 0.16038 0.74184 0.56732 0.0
O842 O 0.19837 0.76217 0.62515 0.0
C843 C 0.1735 0.72348 0.77569 0.0
O844 O 0.18608 0.72633 0.76617 0.0
N845 N 0.17245 0.75565 0.68458 0.0
C846 C 0.15754 0.76928 0.67014 0.0
C847 C 0.1717 0.77652 0.67736 0.0
C848 C 0.17893 0.76955 0.68457 0.0
C849 C 0.15854 0.74849 0.68458 0.0
C850 C 0.15093 0.75507 0.6752 0.0
H851 H 0.18986 0.77542 0.68875 0.0
H852 H 0.15326 0.73753 0.68726 0.0
H853 H 0.21155 0.75878 0.73223 0.0
H854 H 0.19635 0.76229 0.91515 0.0
H855 H 0.17428 0.71635 0.49538 0.0
H856 H 0.17722 0.78751 0.67511 0.0
H857 H 0.13998 0.74907 0.6713 0.0
C858 C 0.27258 0.44725 0.86055 0.0
C859 C 0.27086 0.45597 0.90102 0.0
N860 N 0.27721 0.46838 0.87356 0.0
N861 N 0.27986 0.45422 0.80767 0.0
C862 C 0.28249 0.46704 0.81704 0.0
H863 H 0.26888 0.43661 0.86977 0.0
Co864 Co 0.28796 0.45032 0.74038 0.0
C865 C 0.26258 0.45059 0.67535 0.0
O866 O 0.2589 0.45241 0.73387 0.0
N867 N 0.2966 0.44686 0.67252 0.0
C868 C 0.29997 0.43617 0.58951 0.0
C869 C 0.29069 0.43878 0.61965 0.0
C870 C 0.30945 0.44928 0.67264 0.0
N871 N 0.3117 0.44267 0.62359 0.0
O872 O 0.3039 0.45411 0.80776 0.0
H873 H 0.28008 0.43424 0.60658 0.0
H874 H 0.31677 0.45498 0.71069 0.0
O875 O 0.27313 0.44898 0.67148 0.0
C876 C 0.30471 0.45038 0.86729 0.0
O877 O 0.29354 0.44067 0.89362 0.0
N878 N 0.27785 0.43079 0.75656 0.0
C879 C 0.26431 0.40228 0.73931 0.0
C880 C 0.25707 0.4093 0.74121 0.0
C881 C 0.26402 0.42351 0.74921 0.0
C882 C 0.28484 0.42388 0.761 0.0
C883 C 0.27835 0.40975 0.75122 0.0
H884 H 0.25825 0.42867 0.74679 0.0
H885 H 0.29575 0.42938 0.76683 0.0
H886 H 0.28794 0.47516 0.78218 0.0
H887 H 0.2649 0.45332 0.94564 0.0
H888 H 0.2981 0.42971 0.54704 0.0
H889 H 0.2462 0.40395 0.73285 0.0
H890 H 0.28435 0.40476 0.75106 0.0
C891 C 0.50645 0.90572 0.08275 0.0
C892 C 0.49319 0.89909 0.06201 0.0
N893 N 0.48524 0.89282 0.11416 0.0
N894 N 0.50685 0.90362 0.14773 0.0
C895 C 0.49377 0.89571 0.16546 0.0
H896 H 0.51509 0.91212 0.05273 0.0
Co897 Co 0.52162 0.90937 0.20261 0.0
C898 C 0.5096 0.9206 0.31804 0.0
O899 O 0.51886 0.93342 0.31117 0.0
N900 N 0.53642 0.91456 0.25863 0.0
C901 C 0.55458 0.92636 0.32218 0.0
C902 C 0.54219 0.92465 0.30371 0.0
C903 C 0.54528 0.91004 0.25232 0.0
N904 N 0.55655 0.91725 0.28895 0.0
O905 O 0.53177 0.90478 0.12687 0.0
H906 H 0.53833 0.93112 0.31886 0.0
H907 H 0.54381 0.90202 0.21885 0.0
O908 O 0.5102 0.91163 0.28025 0.0
C909 C 0.53799 0.90906 0.07081 0.0
O910 O 0.53958 0.92052 0.04739 0.0
N911 N 0.52905 0.92812 0.17522 0.0
C912 C 0.54102 0.95661 0.17128 0.0
C913 C 0.52684 0.94819 0.17337 0.0
C914 C 0.52106 0.93398 0.17395 0.0
C915 C 0.54276 0.93617 0.16625 0.0
C916 C 0.54892 0.95036 0.16439 0.0
H917 H 0.51018 0.92775 0.17937 0.0
H918 H 0.54923 0.93172 0.16517 0.0
H919 H 0.49051 0.89242 0.21535 0.0
H920 H 0.48961 0.89968 1.01338 0.0
H921 H 0.56167 0.93388 0.3564 0.0
H922 H 0.52029 0.95253 0.17721 0.0
H923 H 0.55989 0.95638 0.16192 0.0
C924 C 0.12599 0.61515 0.10521 0.0
C925 C 0.13335 0.60936 0.08311 0.0
N926 N 0.13932 0.60722 0.13537 0.0
N927 N 0.1273 0.61654 0.17114 0.0
C928 C 0.13546 0.61158 0.18801 0.0
H929 H 0.11978 0.61773 0.0752 0.0
Co930 Co 0.12107 0.62466 0.22846 0.0
C931 C 0.11044 0.60012 0.33631 0.0
O932 O 0.09744 0.59571 0.32765 0.0
N933 N 0.11545 0.63344 0.28773 0.0
C934 C 0.10372 0.63834 0.35929 0.0
C935 C 0.10594 0.6283 0.33543 0.0
C936 C 0.11907 0.64667 0.28474 0.0
N937 N 0.11187 0.64984 0.32649 0.0
O938 O 0.12543 0.63988 0.1561 0.0
H939 H 0.10033 0.61783 0.34981 0.0
H940 H 0.12679 0.65387 0.25207 0.0
O941 O 0.11916 0.6105 0.30211 0.0
C942 C 0.12078 0.64219 0.10196 0.0
O943 O 0.10898 0.63264 0.07962 0.0
N944 N 0.10235 0.61324 0.19918 0.0
C945 C 0.07383 0.59624 0.18716 0.0
C946 C 0.08267 0.5909 0.18451 0.0
C947 C 0.09683 0.59954 0.19032 0.0
C948 C 0.09399 0.61868 0.19528 0.0
C949 C 0.07987 0.61045 0.19048 0.0
H950 H 0.10326 0.59505 0.19216 0.0
H951 H 0.09812 0.62951 0.1995 0.0
H952 H 0.13834 0.61092 0.23803 0.0
H953 H 0.13358 0.60614 0.0332 0.0
H954 H 0.09642 0.63718 0.39647 0.0
H955 H 0.07872 0.58008 0.1799 0.0
H956 H 0.07379 0.61533 0.19278 0.0
C957 C 0.42483 0.49551 0.14462 0.0
C958 C 0.42973 0.50314 0.0887 0.0
N959 N 0.42929 0.51469 0.09704 0.0
N960 N 0.4216 0.50239 0.18809 0.0
C961 C 0.42431 0.51394 0.15788 0.0
H962 H 0.4233 0.48543 0.15221 0.0
Co963 Co 0.41211 0.49588 0.26326 0.0
C964 C 0.42709 0.51786 0.37106 0.0
O965 O 0.424 0.50749 0.40978 0.0
N966 N 0.40185 0.4889 0.33839 0.0
C967 C 0.38932 0.48713 0.42536 0.0
C968 C 0.39624 0.49505 0.37258 0.0
C969 C 0.39758 0.47694 0.36915 0.0
N970 N 0.39035 0.47587 0.42309 0.0
O971 O 0.39641 0.49752 0.22019 0.0
H972 H 0.39708 0.50467 0.35957 0.0
H973 H 0.39914 0.46886 0.35174 0.0
O974 O 0.42285 0.51537 0.30985 0.0
C975 C 0.38847 0.48654 0.18687 0.0
O976 O 0.39133 0.47669 0.19022 0.0
N977 N 0.42575 0.49175 0.29402 0.0
C978 C 0.44405 0.48238 0.32159 0.0
C979 C 0.44812 0.49623 0.32668 0.0
C980 C 0.43899 0.50076 0.31039 0.0
C981 C 0.42195 0.47839 0.28552 0.0
C982 C 0.43079 0.47348 0.29972 0.0
H983 H 0.44286 0.51155 0.30849 0.0
H984 H 0.41207 0.47149 0.2649 0.0
H985 H 0.42214 0.52136 0.17934 0.0
H986 H 0.43345 0.50042 0.04566 0.0
H987 H 0.38337 0.48909 0.4606 0.0
H988 H 0.45846 0.50358 0.34025 0.0
H989 H 0.42728 0.46277 0.29298 0.0
C990 C 0.10618 0.51133 0.8775 0.0
C991 C 0.1103 0.51917 0.93372 0.0
N992 N 0.12126 0.53119 0.91867 0.0
N993 N 0.11448 0.51851 0.8278 0.0
C994 C 0.12348 0.53053 0.85415 0.0
H995 H 0.09829 0.50079 0.8742 0.0
Co996 Co 0.11704 0.51214 0.74998 0.0
C997 C 0.11878 0.53227 0.64328 0.0
O998 O 0.11094 0.52123 0.60918 0.0
N999 N 0.12031 0.50568 0.67166 0.0
C1000 C 0.13165 0.50619 0.5817 0.0
C1001 C 0.13136 0.5135 0.63459 0.0
C1002 C 0.11444 0.49336 0.642 0.0
N1003 N 0.12101 0.49357 0.58653 0.0
O1004 O 0.13559 0.51622 0.7846 0.0
H1005 H 0.13894 0.52386 0.64618 0.0
H1006 H 0.10591 0.48426 0.66109 0.0
O1007 O 0.12274 0.53091 0.70195 0.0
C1008 C 0.13419 0.50619 0.82105 0.0
O1009 O 0.12201 0.49546 0.82447 0.0
N1010 N 0.09841 0.50574 0.72856 0.0
C1011 C 0.06992 0.49357 0.73867 0.0
C1012 C 0.07816 0.50768 0.73027 0.0
C1013 C 0.09238 0.51358 0.72675 0.0
C1014 C 0.09051 0.49205 0.73674 0.0
C1015 C 0.07635 0.48577 0.74045 0.0
H1016 H 0.09846 0.52451 0.72802 0.0
H1017 H 0.09523 0.48603 0.74673 0.0
H1018 H 0.13221 0.53818 0.82773 0.0
H1019 H 0.10586 0.51613 0.98211 0.0
H1020 H 0.13949 0.50961 0.54456 0.0
H1021 H 0.07378 0.51422 0.73095 0.0
H1022 H 0.07055 0.47489 0.74763 0.0
C1023 C 0.52343 0.60258 0.86489 0.0
C1024 C 0.51415 0.5938 0.90941 0.0
N1025 N 0.50178 0.59135 0.89036 0.0
N1026 N 0.51673 0.60524 0.81774 0.0
C1027 C 0.50363 0.59852 0.83522 0.0
H1028 H 0.53424 0.60627 0.86483 0.0
Co1029 Co 0.52397 0.61526 0.74407 0.0
C1030 C 0.50425 0.59731 0.63386 0.0
O1031 O 0.51541 0.5998 0.60308 0.0
N1032 N 0.53166 0.62625 0.67136 0.0
C1033 C 0.53439 0.64022 0.58918 0.0
C1034 C 0.52527 0.62869 0.62157 0.0
C1035 C 0.54451 0.63679 0.6698 0.0
N1036 N 0.54646 0.64523 0.61963 0.0
O1037 O 0.52014 0.62967 0.78251 0.0
H1038 H 0.51444 0.6235 0.61355 0.0
H1039 H 0.55182 0.63915 0.70905 0.0
O1040 O 0.50547 0.60321 0.69085 0.0
C1041 C 0.52955 0.63712 0.82512 0.0
O1042 O 0.53928 0.63426 0.83463 0.0
N1043 N 0.52998 0.60274 0.71793 0.0
C1044 C 0.54113 0.58545 0.72174 0.0
C1045 C 0.52707 0.5802 0.72668 0.0
C1046 C 0.52169 0.58896 0.72416 0.0
C1047 C 0.54365 0.60789 0.71133 0.0
C1048 C 0.54937 0.59944 0.71172 0.0
H1049 H 0.51094 0.58473 0.73275 0.0
H1050 H 0.55047 0.61866 0.71107 0.0
H1051 H 0.49548 0.59816 0.80601 0.0
H1052 H 0.51621 0.58908 0.9507 0.0
H1053 H 0.53205 0.6453 0.55062 0.0
H1054 H 0.52032 0.56946 0.73486 0.0
H1055 H 0.5603 0.60399 0.70903 0.0
C1056 C 0.42988 0.93282 0.86721 0.0
C1057 C 0.43245 0.92951 0.9285 0.0
N1058 N 0.43193 0.91745 0.92375 0.0
N1059 N 0.42806 0.923 0.824 0.0
C1060 C 0.42949 0.91385 0.85981 0.0
H1061 H 0.42833 0.94124 0.85627 0.0
Co1062 Co 0.41949 0.91965 0.74338 0.0
C1063 C 0.43845 0.91787 0.64163 0.0
O1064 O 0.43569 0.92605 0.60789 0.0
N1065 N 0.4101 0.91562 0.66314 0.0
C1066 C 0.39993 0.90354 0.57321 0.0
C1067 C 0.40738 0.90442 0.62793 0.0
C1068 C 0.40346 0.92094 0.6304 0.0
N1069 N 0.39751 0.91394 0.57503 0.0
O1070 O 0.40511 0.9013 0.77857 0.0
H1071 H 0.41036 0.89711 0.64206 0.0
H1072 H 0.40241 0.92937 0.64708 0.0
O1073 O 0.43286 0.91384 0.69962 0.0
C1074 C 0.39697 0.90349 0.8147 0.0
O1075 O 0.399 0.91593 0.81561 0.0
N1076 N 0.43156 0.93821 0.72066 0.0
C1077 C 0.44696 0.96657 0.7416 0.0
C1078 C 0.45327 0.95862 0.73673 0.0
C1079 C 0.44541 0.94448 0.72656 0.0
C1080 C 0.4254 0.94586 0.72347 0.0
C1081 C 0.43285 0.95995 0.73127 0.0
H1082 H 0.45037 0.93851 0.73087 0.0
H1083 H 0.41454 0.94098 0.72846 0.0
H1084 H 0.42784 0.90429 0.84005 0.0
H1085 H 0.43369 0.93508 0.97369 0.0
H1086 H 0.39591 0.89546 0.53692 0.0
H1087 H 0.46404 0.96302 0.74585 0.0
H1088 H 0.42734 0.96542 0.73376 0.0
C1089 C 0.18984 0.4479 0.06463 0.0
C1090 C 0.20064 0.45613 0.02484 0.0
N1091 N 0.2104 0.46579 0.06298 0.0
N1092 N 0.19296 0.45244 0.12708 0.0
C1093 C 0.20555 0.46327 0.12461 0.0
H1094 H 0.1801 0.43965 0.04873 0.0
Co1095 Co 0.1813 0.44844 0.19563 0.0
C1096 C 0.20046 0.45912 0.32067 0.0
O1097 O 0.19343 0.4644 0.34526 0.0
N1098 N 0.16927 0.44447 0.26513 0.0
C1099 C 0.15784 0.4367 0.35847 0.0
C1100 C 0.16768 0.43681 0.31871 0.0
C1101 C 0.16019 0.44869 0.27285 0.0
N1102 N 0.1532 0.44425 0.32952 0.0
O1103 O 0.18272 0.46691 0.18097 0.0
H1104 H 0.17354 0.43191 0.32909 0.0
H1105 H 0.15878 0.45502 0.23793 0.0
O1106 O 0.19725 0.45382 0.26242 0.0
C1107 C 0.17478 0.46581 0.13201 0.0
O1108 O 0.16714 0.45366 0.10675 0.0
N1109 N 0.17792 0.43037 0.1966 0.0
C1110 C 0.16947 0.40267 0.18215 0.0
C1111 C 0.18259 0.41195 0.20546 0.0
C1112 C 0.1867 0.42582 0.21161 0.0
C1113 C 0.1652 0.42152 0.17389 0.0
C1114 C 0.16076 0.4077 0.16661 0.0
H1115 H 0.19696 0.43286 0.22703 0.0
H1116 H 0.15844 0.42528 0.16082 0.0
H1117 H 0.21077 0.46969 0.16646 0.0
H1118 H 0.20128 0.45515 0.97217 0.0
H1119 H 0.15481 0.43196 0.40627 0.0
H1120 H 0.18974 0.40859 0.21718 0.0
H1121 H 0.15052 0.401 0.1492 0.0
C1122 C 0.59786 0.74754 0.08145 0.0
C1123 C 0.59915 0.7557 0.02921 0.0
N1124 N 0.59322 0.763 0.0457 0.0
N1125 N 0.59123 0.74981 0.13023 0.0
C1126 C 0.58842 0.75917 0.10706 0.0
H1127 H 0.60178 0.74062 0.0845 0.0
Co1128 Co 0.58772 0.74152 0.20962 0.0
C1129 C 0.58586 0.76051 0.31179 0.0
O1130 O 0.59346 0.7572 0.34697 0.0
N1131 N 0.58378 0.73245 0.28969 0.0
C1132 C 0.57223 0.72314 0.38122 0.0
C1133 C 0.57209 0.72883 0.32206 0.0
C1134 C 0.5906 0.72828 0.32897 0.0
N1135 N 0.5839 0.7229 0.38534 0.0
O1136 O 0.56923 0.72721 0.17313 0.0
H1137 H 0.56405 0.73044 0.30401 0.0
H1138 H 0.60019 0.72902 0.31746 0.0
O1139 O 0.582 0.75508 0.25312 0.0
C1140 C 0.57022 0.71774 0.14176 0.0
O1141 O 0.58193 0.71809 0.14492 0.0
N1142 N 0.60628 0.75379 0.23292 0.0
C1143 C 0.63471 0.77049 0.22701 0.0
C1144 C 0.62621 0.77614 0.2279 0.0
C1145 C 0.61206 0.76765 0.23039 0.0
C1146 C 0.61449 0.74821 0.2298 0.0
C1147 C 0.62867 0.75632 0.22913 0.0
H1148 H 0.60583 0.77228 0.22479 0.0
H1149 H 0.61004 0.7374 0.22236 0.0
H1150 H 0.58354 0.76355 0.13564 0.0
H1151 H 0.60429 0.75643 0.98336 0.0
H1152 H 0.5642 0.71905 0.41745 0.0
H1153 H 0.63046 0.78702 0.22415 0.0
H1154 H 0.63483 0.75153 0.22555 0.0
C1155 C 0.28208 0.85116 0.04307 0.0
C1156 C 0.27843 0.84004 1.00332 0.0
N1157 N 0.27748 0.82993 0.04142 0.0
N1158 N 0.28329 0.84787 0.10543 0.0
C1159 C 0.28037 0.83488 0.10286 0.0
H1160 H 0.2843 0.86114 0.02721 0.0
Co1161 Co 0.29137 0.85918 0.17518 0.0
C1162 C 0.28117 0.83946 0.2981 0.0
O1163 O 0.29287 0.84638 0.32879 0.0
N1164 N 0.29982 0.87084 0.24581 0.0
C1165 C 0.30424 0.88244 0.33956 0.0
C1166 C 0.29413 0.87323 0.2987 0.0
C1167 C 0.31329 0.87882 0.25506 0.0
N1168 N 0.31627 0.88584 0.31196 0.0
O1169 O 0.30763 0.85649 0.16079 0.0
H1170 H 0.28334 0.86829 0.30812 0.0
H1171 H 0.32086 0.87939 0.22124 0.0
O1172 O 0.28011 0.84313 0.2392 0.0
C1173 C 0.31449 0.8642 0.11169 0.0
O1174 O 0.31038 0.87224 0.08739 0.0
N1175 N 0.2775 0.86376 0.17602 0.0
C1176 C 0.25999 0.87422 0.15751 0.0
C1177 C 0.25564 0.86196 0.19164 0.0
C1178 C 0.26452 0.85676 0.19959 0.0
C1179 C 0.28188 0.87574 0.14392 0.0
C1180 C 0.27332 0.88109 0.13377 0.0
H1181 H 0.26089 0.84715 0.2241 0.0
H1182 H 0.29213 0.88112 0.12512 0.0
H1183 H 0.28093 0.82928 0.14459 0.0
H1184 H 0.27652 0.83935 0.95086 0.0
H1185 H 0.30285 0.88582 0.38723 0.0
H1186 H 0.24539 0.85631 0.21053 0.0
H1187 H 0.27716 0.89061 0.10778 0.0
H1188 H 0.26261 0.12161 0.6214 0.0
H1189 H 0.23411 0.09438 0.76393 0.0
H1190 H 0.26641 0.14099 0.68977 0.0
H1191 H 0.23809 0.11354 0.83286 0.0
H1192 H 0.24108 0.15149 0.93542 0.0
H1193 H 0.23598 0.13214 0.863 0.0
H1194 H 0.27622 0.15453 0.78092 0.0
H1195 H 0.28108 0.17366 0.85131 0.0
C1196 C 0.25706 0.11966 0.66704 0.0
C1197 C 0.24797 0.10612 0.68583 0.0
C1198 C 0.25935 0.13091 0.70736 0.0
C1199 C 0.25269 0.12924 0.76871 0.0
C1200 C 0.24343 0.11567 0.78654 0.0
C1201 C 0.24116 0.10448 0.7464 0.0
C1202 C 0.24885 0.15231 0.90194 0.0
C1203 C 0.26154 0.16446 0.90034 0.0
C1204 C 0.24595 0.14106 0.85994 0.0
C1205 C 0.25558 0.14139 0.81416 0.0
C1206 C 0.26825 0.15357 0.8133 0.0
C1207 C 0.27112 0.16471 0.85495 0.0
H1208 H 0.93809 0.16422 0.80452 0.0
H1209 H 0.91917 0.14251 0.62622 0.0
H1210 H 0.92191 0.14515 0.86987 0.0
H1211 H 0.90239 0.12333 0.69159 0.0
H1212 H 0.87411 0.08701 0.81951 0.0
H1213 H 0.89282 0.10468 0.75691 0.0
H1214 H 0.90162 0.13257 0.91863 0.0
H1215 H 0.88309 0.11453 0.98166 0.0
C1216 C 0.93055 0.15523 0.77877 0.0
C1217 C 0.93038 0.1551 0.70908 0.0
C1218 C 0.92093 0.14416 0.81696 0.0
C1219 C 0.91026 0.13225 0.78801 0.0
C1220 C 0.91029 0.13196 0.71776 0.0
C1221 C 0.9201 0.14308 0.67931 0.0
C1222 C 0.88036 0.09679 0.84294 0.0
C1223 C 0.87715 0.09892 0.90758 0.0
C1224 C 0.89109 0.1072 0.80588 0.0
C1225 C 0.89917 0.12058 0.83058 0.0
C1226 C 0.89614 0.12261 0.8963 0.0
C1227 C 0.88542 0.11208 0.93368 0.0
H1228 H 0.87191 0.77054 0.77808 0.0
H1229 H 0.89557 0.7837 0.60045 0.0
H1230 H 0.89115 0.77294 0.83885 0.0
H1231 H 0.91552 0.78681 0.66306 0.0
H1232 H 0.9457 0.7778 0.77442 0.0
H1233 H 0.92789 0.77866 0.71327 0.0
H1234 H 0.91089 0.78294 0.89538 0.0
H1235 H 0.92866 0.78138 0.9572 0.0
C1236 C 0.88132 0.77417 0.7514 0.0
C1237 C 0.88178 0.77679 0.68291 0.0
C1238 C 0.89266 0.7757 0.78744 0.0
C1239 C 0.90539 0.78008 0.75775 0.0
C1240 C 0.90606 0.78317 0.68923 0.0
C1241 C 0.89454 0.78155 0.65265 0.0
C1242 C 0.93827 0.77907 0.80214 0.0
C1243 C 0.93892 0.7795 0.8719 0.0
C1244 C 0.92788 0.77964 0.76618 0.0
C1245 C 0.9174 0.78074 0.79755 0.0
C1246 C 0.91835 0.78178 0.86767 0.0
C1247 C 0.92882 0.78113 0.90396 0.0
H1248 H 0.12321 0.24944 0.04422 0.0
H1249 H 0.10067 0.24788 0.87075 0.0
H1250 H 0.14121 0.25017 0.9742 0.0
H1251 H 0.11848 0.24866 0.80116 0.0
H1252 H 0.15037 0.24312 0.68233 0.0
H1253 H 0.13123 0.23918 0.75365 0.0
H1254 H 0.15947 0.26455 0.90355 0.0
H1255 H 0.17829 0.26841 0.83334 0.0
C1256 C 0.12186 0.2489 0.99133 0.0
C1257 C 0.11017 0.24843 0.96414 0.0
C1258 C 0.13238 0.24955 0.95051 0.0
C1259 C 0.13166 0.2496 0.88057 0.0
C1260 C 0.11967 0.24854 0.85395 0.0
C1261 C 0.10932 0.24808 0.89452 0.0
C1262 C 0.15253 0.24784 0.73051 0.0
C1263 C 0.16617 0.25618 0.75074 0.0
C1264 C 0.14145 0.24562 0.77192 0.0
C1265 C 0.14348 0.25146 0.83591 0.0
C1266 C 0.15713 0.2596 0.85593 0.0
C1267 C 0.16811 0.26194 0.81458 0.0
H1268 H 0.80102 0.86309 0.88228 0.0
H1269 H 0.77339 0.86956 0.99984 0.0
H1270 H 0.80412 0.88159 0.80848 0.0
H1271 H 0.77592 0.88745 0.92649 0.0
H1272 H 0.78571 0.92459 0.81052 0.0
H1273 H 0.78638 0.9084 0.8848 0.0
H1274 H 0.79671 0.89054 0.72347 0.0
H1275 H 0.79662 0.90755 0.64846 0.0
C1276 C 0.79598 0.86878 0.89409 0.0
C1277 C 0.78744 0.86507 0.94984 0.0
C1278 C 0.7975 0.8793 0.85045 0.0
C1279 C 0.7904 0.88652 0.85994 0.0
C1280 C 0.78202 0.88279 0.91652 0.0
C1281 C 0.78057 0.87239 0.95977 0.0
C1282 C 0.78819 0.91728 0.7901 0.0
C1283 C 0.791 0.91759 0.72217 0.0
C1284 C 0.78844 0.9077 0.83349 0.0
C1285 C 0.79127 0.89753 0.81181 0.0
C1286 C 0.79448 0.89801 0.74377 0.0
C1287 C 0.79441 0.90786 0.70001 0.0
H1288 H 0.15056 0.91305 0.0243 0.0
H1289 H 0.16625 0.93774 0.85129 0.0
H1290 H 0.1331 0.89458 0.95639 0.0
H1291 H 0.14916 0.9195 0.78357 0.0
H1292 H 0.11239 0.88599 0.66984 0.0
H1293 H 0.12713 0.90517 0.74215 0.0
H1294 H 0.12922 0.87742 0.87966 0.0
H1295 H 0.11452 0.85849 0.80849 0.0
C1296 C 0.15007 0.91477 0.97224 0.0
C1297 C 0.15983 0.92722 0.94435 0.0
C1298 C 0.14014 0.90399 0.93242 0.0
C1299 C 0.13947 0.90517 0.86293 0.0
C1300 C 0.14892 0.91789 0.83611 0.0
C1301 C 0.15884 0.92852 0.87558 0.0
C1302 C 0.11592 0.88394 0.71561 0.0
C1303 C 0.11205 0.87041 0.73213 0.0
C1304 C 0.12454 0.89506 0.75755 0.0
C1305 C 0.12963 0.89319 0.81835 0.0
C1306 C 0.12557 0.87962 0.83474 0.0
C1307 C 0.11709 0.86859 0.79285 0.0
H1308 H 0.82906 0.93827 0.32845 0.0
H1309 H 0.81257 0.91238 0.49744 0.0
H1310 H 0.83732 0.92362 0.2858 0.0
H1311 H 0.81948 0.89712 0.45358 0.0
H1312 H 0.81275 0.86282 0.35109 0.0
H1313 H 0.82734 0.8848 0.40332 0.0
H1314 H 0.82304 0.90467 0.23047 0.0
H1315 H 0.80949 0.88299 0.17858 0.0
C1316 C 0.82746 0.92954 0.35685 0.0
C1317 C 0.8197 0.92599 0.41434 0.0
C1318 C 0.83212 0.92111 0.33262 0.0
C1319 C 0.82819 0.90858 0.36338 0.0
C1320 C 0.82247 0.9064 0.4268 0.0
C1321 C 0.81832 0.9151 0.45212 0.0
C1322 C 0.81532 0.87201 0.3243 0.0
C1323 C 0.80957 0.87134 0.26236 0.0
C1324 C 0.82368 0.8846 0.35389 0.0
C1325 C 0.82578 0.89661 0.32316 0.0
C1326 C 0.82162 0.89583 0.25708 0.0
C1327 C 0.81362 0.8833 0.22704 0.0
H1328 H 0.1744 0.94855 0.3856 0.0
H1329 H 0.14667 0.92965 0.22307 0.0
H1330 H 0.15518 0.9407 0.46061 0.0
H1331 H 0.12771 0.92163 0.29638 0.0
H1332 H 0.09599 0.89647 0.40552 0.0
H1333 H 0.11215 0.91995 0.37537 0.0
H1334 H 0.1427 0.91829 0.49635 0.0
H1335 H 0.12627 0.89538 0.5284 0.0
C1336 C 0.1642 0.94286 0.3659 0.0
C1337 C 0.16199 0.93922 0.29908 0.0
C1338 C 0.15319 0.93851 0.4086 0.0
C1339 C 0.13985 0.93018 0.38522 0.0
C1340 C 0.13774 0.92802 0.31693 0.0
C1341 C 0.14868 0.93248 0.27446 0.0
C1342 C 0.10596 0.90155 0.42817 0.0
C1343 C 0.11022 0.89427 0.46726 0.0
C1344 C 0.11524 0.91492 0.41093 0.0
C1345 C 0.12895 0.92071 0.43014 0.0
C1346 C 0.13235 0.91417 0.47918 0.0
C1347 C 0.123 0.90096 0.49737 0.0
H1348 H 0.16373 0.23536 0.31103 0.0
H1349 H 0.14595 0.21743 0.49778 0.0
H1350 H 0.14169 0.22352 0.25962 0.0
H1351 H 0.12374 0.20482 0.44567 0.0
H1352 H 0.10784 0.22179 0.18802 0.0
H1353 H 0.11936 0.20984 0.22512 0.0
H1354 H 0.11305 0.21744 0.42703 0.0
H1355 H 0.1009 0.2285 0.38981 0.0
C1356 C 0.15512 0.22847 0.34058 0.0
C1357 C 0.15636 0.22801 0.40896 0.0
C1358 C 0.1424 0.22139 0.31088 0.0
C1359 C 0.13071 0.21384 0.34951 0.0
C1360 C 0.13245 0.2111 0.4152 0.0
C1361 C 0.14521 0.21833 0.44515 0.0
C1362 C 0.10841 0.22038 0.24031 0.0
C1363 C 0.10426 0.22683 0.28623 0.0
C1364 C 0.11503 0.21351 0.26164 0.0
C1365 C 0.11795 0.21343 0.32889 0.0
C1366 C 0.11144 0.21759 0.37463 0.0
C1367 C 0.10469 0.22427 0.35335 0.0
H1368 H 0.93582 0.78811 0.16089 0.0
H1369 H 0.91818 0.74732 0.23697 0.0
H1370 H 0.9162 0.78947 0.19993 0.0
H1371 H 0.8988 0.74879 0.27735 0.0
H1372 H 0.86033 0.74941 0.28297 0.0
H1373 H 0.87943 0.75035 0.22429 0.0
H1374 H 0.90633 0.7895 0.31182 0.0
H1375 H 0.88712 0.78876 0.36901 0.0
C1376 C 0.92776 0.77949 0.18617 0.0
C1377 C 0.92842 0.7676 0.196 0.0
C1378 C 0.91662 0.78028 0.20845 0.0
C1379 C 0.906 0.76916 0.24042 0.0
C1380 C 0.90679 0.75739 0.25149 0.0
C1381 C 0.91795 0.75663 0.22952 0.0
C1382 C 0.87024 0.75839 0.28803 0.0
C1383 C 0.87237 0.76891 0.33128 0.0
C1384 C 0.88115 0.75886 0.25506 0.0
C1385 C 0.89428 0.76986 0.2649 0.0
C1386 C 0.89625 0.7809 0.30381 0.0
C1387 C 0.88534 0.78041 0.33688 0.0
H1388 H 0.23584 0.10935 0.43313 0.0
H1389 H 0.23338 0.08616 0.26033 0.0
H1390 H 0.22635 0.12082 0.37304 0.0
H1391 H 0.22297 0.09714 0.1993 0.0
H1392 H 0.24174 0.14077 0.11097 0.0
H1393 H 0.23414 0.11839 0.15516 0.0
H1394 H 0.21326 0.12649 0.31151 0.0
H1395 H 0.22218 0.14951 0.26929 0.0
C1396 C 0.23271 0.10632 0.38266 0.0
C1397 C 0.23579 0.0973 0.35049 0.0
C1398 C 0.22707 0.11282 0.34784 0.0
C1399 C 0.22426 0.1103 0.28007 0.0
C1400 C 0.22553 0.09976 0.25061 0.0
C1401 C 0.23149 0.09348 0.2853 0.0
C1402 C 0.23517 0.13752 0.15358 0.0
C1403 C 0.23288 0.14679 0.18845 0.0
C1404 C 0.23065 0.1246 0.17893 0.0
C1405 C 0.22358 0.12077 0.2391 0.0
C1406 C 0.21927 0.12934 0.26703 0.0
C1407 C 0.22426 0.14245 0.24294 0.0
H1408 H 0.85782 0.11254 0.2718 0.0
H1409 H 0.87749 0.0892 0.23027 0.0
H1410 H 0.87808 0.12937 0.32983 0.0
H1411 H 0.89792 0.10623 0.28764 0.0
H1412 H 0.928 0.13854 0.44289 0.0
H1413 H 0.9069 0.11886 0.4034 0.0
H1414 H 0.90106 0.14481 0.26834 0.0
H1415 H 0.92191 0.16434 0.30784 0.0
C1416 C 0.86633 0.11083 0.27669 0.0
C1417 C 0.86626 0.09976 0.24576 0.0
C1418 C 0.87792 0.12047 0.30933 0.0
C1419 C 0.88949 0.11909 0.31175 0.0
C1420 C 0.88906 0.10745 0.2859 0.0
C1421 C 0.87748 0.09783 0.25281 0.0
C1422 C 0.9222 0.13992 0.40441 0.0
C1423 C 0.92648 0.15286 0.37825 0.0
C1424 C 0.91023 0.12875 0.38206 0.0
C1425 C 0.90239 0.13051 0.33406 0.0
C1426 C 0.9069 0.14335 0.30638 0.0
C1427 C 0.91889 0.15444 0.32815 0.0
H1428 H 0.91775 0.42247 0.10112 0.0
H1429 H 0.91304 0.44104 0.92618 0.0
H1430 H 0.917 0.43968 0.16888 0.0
H1431 H 0.91257 0.45867 0.99429 0.0
H1432 H 0.90473 0.48614 0.13014 0.0
H1433 H 0.90293 0.46712 0.0666 0.0
H1434 H 0.92713 0.46132 0.21289 0.0
H1435 H 0.92859 0.48034 0.27714 0.0
C1436 C 0.91648 0.4302 0.07651 0.0
C1437 C 0.91539 0.43001 1.00692 0.0
C1438 C 0.91619 0.44034 0.11615 0.0
C1439 C 0.91483 0.45104 0.08883 0.0
C1440 C 0.91348 0.45073 1.01899 0.0
C1441 C 0.91374 0.44049 0.97909 0.0
C1442 C 0.90931 0.48053 0.15023 0.0
C1443 C 0.91641 0.48473 0.21086 0.0
C1444 C 0.90852 0.46964 0.1125 0.0
C1445 C 0.91498 0.46234 0.13257 0.0
C1446 C 0.92177 0.46628 0.19459 0.0
C1447 C 0.92251 0.47723 0.23263 0.0
H1448 H 0.54004 0.41825 0.10191 0.0
H1449 H 0.54716 0.44879 0.24695 0.0
H1450 H 0.55683 0.43546 0.02982 0.0
H1451 H 0.56391 0.46626 0.17381 0.0
H1452 H 0.60215 0.49462 0.05892 0.0
H1453 H 0.58534 0.47689 0.12802 0.0
H1454 H 0.56474 0.45354 0.95508 0.0
H1455 H 0.58201 0.47157 0.88507 0.0
C1456 C 0.54509 0.42869 0.11876 0.0
C1457 C 0.54196 0.43185 0.1816 0.0
C1458 C 0.55484 0.43874 0.0764 0.0
C1459 C 0.56215 0.45262 0.0943 0.0
C1460 C 0.55891 0.45582 0.15709 0.0
C1461 C 0.54908 0.44571 0.19958 0.0
C1462 C 0.59415 0.48566 0.03487 0.0
C1463 C 0.59378 0.48478 0.96522 0.0
C1464 C 0.58423 0.47539 0.07531 0.0
C1465 C 0.57316 0.46351 0.04889 0.0
C1466 C 0.57295 0.46234 0.97891 0.0
C1467 C 0.58302 0.47274 0.938 0.0
H1468 H 0.54419 0.12518 0.11041 0.0
H1469 H 0.55468 0.10924 0.9428 0.0
H1470 H 0.56266 0.12566 0.1738 0.0
H1471 H 0.573 0.10921 1.00647 0.0
H1472 H 0.60954 0.11435 0.12248 0.0
H1473 H 0.59344 0.1177 0.05809 0.0
H1474 H 0.57127 0.1148 0.23519 0.0
H1475 H 0.58791 0.11189 0.3 0.0
C1476 C 0.55073 0.12212 0.08614 0.0
C1477 C 0.54804 0.11765 1.01992 0.0
C1478 C 0.56129 0.12211 0.12346 0.0
C1479 C 0.56968 0.11736 0.09714 0.0
C1480 C 0.5672 0.11321 0.0299 0.0
C1481 C 0.55664 0.11334 0.99231 0.0
C1482 C 0.60139 0.1147 0.14833 0.0
C1483 C 0.60037 0.11302 0.21747 0.0
C1484 C 0.59187 0.11644 0.11063 0.0
C1485 C 0.58055 0.1164 0.13957 0.0
C1486 C 0.57973 0.1151 0.20944 0.0
C1487 C 0.58942 0.11348 0.24748 0.0
H1488 H 0.79294 0.57734 0.29442 0.0
H1489 H 0.76414 0.56813 0.13813 0.0
H1490 H 0.80799 0.57447 0.21958 0.0
H1491 H 0.77897 0.56475 0.06226 0.0
H1492 H 0.81542 0.57412 0.92072 0.0
H1493 H 0.79771 0.5729 0.99419 0.0
H1494 H 0.81655 0.56422 0.15719 0.0
H1495 H 0.8343 0.56602 0.08427 0.0
C1496 C 0.78943 0.57399 0.24462 0.0
C1497 C 0.77677 0.57231 0.22446 0.0
C1498 C 0.79827 0.57243 0.20045 0.0
C1499 C 0.7951 0.56925 0.13272 0.0
C1500 C 0.78222 0.56727 0.1129 0.0
C1501 C 0.77339 0.56888 0.15737 0.0
C1502 C 0.81552 0.57148 0.9718 0.0
C1503 C 0.82631 0.56977 0.99513 0.0
C1504 C 0.8053 0.5709 1.01496 0.0
C1505 C 0.80535 0.56863 0.08387 0.0
C1506 C 0.8159 0.56635 0.10594 0.0
C1507 C 0.82611 0.56708 0.06315 0.0
H1508 H 0.45364 0.22031 0.36964 0.0
H1509 H 0.45672 0.20022 0.19666 0.0
H1510 H 0.454 0.2382 0.30035 0.0
H1511 H 0.45708 0.21794 0.12724 0.0
H1512 H 0.4633 0.2561 1.01212 0.0
H1513 H 0.46707 0.24076 0.08355 0.0
H1514 H 0.43971 0.24178 0.22697 0.0
H1515 H 0.43601 0.25687 0.15659 0.0
C1516 C 0.45496 0.21996 0.31707 0.0
C1517 C 0.45562 0.20888 0.2897 0.0
C1518 C 0.45488 0.23014 0.27661 0.0
C1519 C 0.45546 0.22974 0.20684 0.0
C1520 C 0.45677 0.21897 0.18005 0.0
C1521 C 0.45667 0.20874 0.22037 0.0
C1522 C 0.45815 0.25314 0.05905 0.0
C1523 C 0.44929 0.25792 0.07748 0.0
C1524 C 0.46026 0.2442 0.10038 0.0
C1525 C 0.45379 0.23983 0.16249 0.0
C1526 C 0.44515 0.24486 0.18084 0.0
C1527 C 0.44291 0.25357 0.13948 0.0
H1528 H 0.78079 0.21046 0.96581 0.0
H1529 H 0.7566 0.19241 0.13825 0.0
H1530 H 0.7983 0.22858 0.03466 0.0
H1531 H 0.77367 0.21045 0.20663 0.0
H1532 H 0.81292 0.2366 0.32994 0.0
H1533 H 0.79398 0.2199 0.26213 0.0
H1534 H 0.8082 0.24785 0.09916 0.0
H1535 H 0.82711 0.26416 0.16652 0.0
C1536 C 0.77892 0.21055 1.01798 0.0
C1537 C 0.76693 0.19985 0.0453 0.0
C1538 C 0.78913 0.22101 0.05841 0.0
C1539 C 0.78786 0.22129 0.12815 0.0
C1540 C 0.77558 0.21081 0.15437 0.0
C1541 C 0.76551 0.20041 0.1143 0.0
C1542 C 0.81175 0.23938 0.28045 0.0
C1543 C 0.82157 0.2521 0.25525 0.0
C1544 C 0.80082 0.22965 0.24048 0.0
C1545 C 0.7992 0.23211 0.17318 0.0
C1546 C 0.80885 0.24507 0.14933 0.0
C1547 C 0.81972 0.25468 0.18898 0.0
H1548 H 0.47408 0.20508 0.70843 0.0
H1549 H 0.47283 0.22641 0.53603 0.0
H1550 H 0.48613 0.22654 0.76855 0.0
H1551 H 0.48378 0.24752 0.5954 0.0
H1552 H 0.48746 0.28 0.69867 0.0
H1553 H 0.49662 0.26605 0.65691 0.0
H1554 H 0.47636 0.2375 0.81522 0.0
H1555 H 0.46861 0.25218 0.85893 0.0
C1556 C 0.47655 0.21444 0.68347 0.0
C1557 C 0.47213 0.21419 0.61884 0.0
C1558 C 0.48344 0.22673 0.7176 0.0
C1559 C 0.48537 0.2388 0.68839 0.0
C1560 C 0.48249 0.2386 0.62073 0.0
C1561 C 0.476 0.22641 0.58632 0.0
C1562 C 0.48554 0.27098 0.72537 0.0
C1563 C 0.47699 0.26674 0.78013 0.0
C1564 C 0.49068 0.26294 0.70159 0.0
C1565 C 0.4865 0.25013 0.72983 0.0
C1566 C 0.47968 0.24708 0.79071 0.0
C1567 C 0.47504 0.25542 0.81582 0.0
H1568 H 0.79082 0.19351 0.69571 0.0
H1569 H 0.77065 0.21479 0.76554 0.0
H1570 H 0.81092 0.21504 0.67075 0.0
H1571 H 0.79103 0.23652 0.74231 0.0
H1572 H 0.82173 0.26503 0.57515 0.0
H1573 H 0.80265 0.24785 0.63742 0.0
H1574 H 0.82913 0.23554 0.72903 0.0
H1575 H 0.84807 0.25229 0.66458 0.0
C1576 C 0.79068 0.20281 0.70526 0.0
C1577 C 0.77922 0.20255 0.73196 0.0
C1578 C 0.80227 0.21512 0.69252 0.0
C1579 C 0.80257 0.22738 0.70622 0.0
C1580 C 0.79105 0.22716 0.73217 0.0
C1581 C 0.77944 0.2148 0.74512 0.0
C1582 C 0.8235 0.25883 0.60956 0.0
C1583 C 0.83618 0.25954 0.6131 0.0
C1584 C 0.81264 0.24914 0.64586 0.0
C1585 C 0.81444 0.24018 0.68629 0.0
C1586 C 0.82752 0.2422 0.69682 0.0
C1587 C 0.83836 0.25183 0.66025 0.0
H1588 H 0.82386 0.56517 0.56529 0.0
H1589 H 0.80726 0.54797 0.75509 0.0
H1590 H 0.80137 0.55352 0.51801 0.0
H1591 H 0.78465 0.53565 0.70708 0.0
H1592 H 0.76622 0.54699 0.4432 0.0
H1593 H 0.77891 0.5369 0.48738 0.0
H1594 H 0.77334 0.54792 0.68375 0.0
H1595 H 0.75996 0.55719 0.64007 0.0
C1596 C 0.81542 0.5586 0.59652 0.0
C1597 C 0.81722 0.55805 0.66438 0.0
C1598 C 0.80248 0.55159 0.56914 0.0
C1599 C 0.79108 0.54397 0.6094 0.0
C1600 C 0.79319 0.54173 0.67522 0.0
C1601 C 0.80616 0.54883 0.70273 0.0
C1602 C 0.76716 0.54675 0.49604 0.0
C1603 C 0.76291 0.55378 0.53798 0.0
C1604 C 0.77443 0.54089 0.52138 0.0
C1605 C 0.77787 0.54238 0.58845 0.0
C1606 C 0.77127 0.54692 0.6314 0.0
C1607 C 0.76382 0.55258 0.60621 0.0
H1608 H 0.52051 0.09418 0.60783 0.0
H1609 H 0.55177 0.12868 0.71464 0.0
H1610 H 0.53771 0.0935 0.54063 0.0
H1611 H 0.56904 0.12747 0.64927 0.0
H1612 H 0.59688 0.12312 0.50369 0.0
H1613 H 0.57932 0.12812 0.5395 0.0
H1614 H 0.55305 0.0857 0.58541 0.0
H1615 H 0.57034 0.08068 0.54777 0.0
C1616 C 0.531 0.10184 0.61609 0.0
C1617 C 0.53481 0.11122 0.6681 0.0
C1618 C 0.54084 0.10137 0.57779 0.0
C1619 C 0.55463 0.11019 0.59123 0.0
C1620 C 0.55843 0.1205 0.63835 0.0
C1621 C 0.54856 0.12104 0.6764 0.0
C1622 C 0.58727 0.11488 0.52077 0.0
C1623 C 0.58491 0.10153 0.52332 0.0
C1624 C 0.5773 0.11775 0.54125 0.0
C1625 C 0.56484 0.10727 0.56414 0.0
C1626 C 0.56249 0.09392 0.5665 0.0
C1627 C 0.57245 0.09108 0.54624 0.0
H1628 H 0.92952 0.44896 0.61598 0.0
H1629 H 0.90549 0.44718 0.78369 0.0
H1630 H 0.93473 0.47215 0.59434 0.0
H1631 H 0.91044 0.47054 0.76085 0.0
H1632 H 0.90904 0.49722 0.55694 0.0
H1633 H 0.90427 0.47893 0.63417 0.0
H1634 H 0.94719 0.49645 0.67175 0.0
H1635 H 0.95199 0.51467 0.59442 0.0
C1636 C 0.92528 0.45356 0.64768 0.0
C1637 C 0.91697 0.4464 0.70064 0.0
C1638 C 0.92843 0.46683 0.63619 0.0
C1639 C 0.92316 0.47304 0.67698 0.0
C1640 C 0.91474 0.4659 0.72978 0.0
C1641 C 0.91184 0.45264 0.74227 0.0
C1642 C 0.91738 0.49738 0.58353 0.0
C1643 C 0.93088 0.50696 0.5683 0.0
C1644 C 0.91465 0.48711 0.62841 0.0
C1645 C 0.92542 0.48636 0.65769 0.0
C1646 C 0.93878 0.49698 0.64951 0.0
C1647 C 0.94151 0.5073 0.60505 0.0
H1648 H 0.56533 0.44342 0.36587 0.0
H1649 H 0.57162 0.41818 0.50292 0.0
H1650 H 0.58583 0.46308 0.40413 0.0
H1651 H 0.59289 0.43783 0.53887 0.0
H1652 H 0.59487 0.47075 0.68277 0.0
H1653 H 0.58921 0.45182 0.61105 0.0
H1654 H 0.60714 0.47925 0.44681 0.0
H1655 H 0.61267 0.49843 0.52021 0.0
C1656 C 0.5716 0.44195 0.40134 0.0
C1657 C 0.56668 0.4295 0.43388 0.0
C1658 C 0.58348 0.45327 0.42329 0.0
C1659 C 0.59056 0.45215 0.47751 0.0
C1660 C 0.58723 0.43909 0.49924 0.0
C1661 C 0.57512 0.42783 0.47861 0.0
C1662 C 0.5979 0.47279 0.63173 0.0
C1663 C 0.6039 0.486 0.60677 0.0
C1664 C 0.59483 0.4619 0.59035 0.0
C1665 C 0.59769 0.46394 0.52263 0.0
C1666 C 0.60465 0.47731 0.49849 0.0
C1667 C 0.60766 0.48826 0.54021 0.0
H1668 H 0.58429 0.83495 0.44502 0.0
H1669 H 0.59326 0.81934 0.61897 0.0
H1670 H 0.58066 0.81517 0.3826 0.0
H1671 H 0.59002 0.79947 0.55591 0.0
H1672 H 0.57821 0.76082 0.43826 0.0
H1673 H 0.57841 0.77911 0.50141 0.0
H1674 H 0.58896 0.80352 0.32569 0.0
H1675 H 0.58831 0.7848 0.26225 0.0
C1676 C 0.58531 0.82715 0.47065 0.0
C1677 C 0.58889 0.82892 0.53823 0.0
C1678 C 0.58341 0.81572 0.43394 0.0
C1679 C 0.58514 0.80534 0.46228 0.0
C1680 C 0.58835 0.80689 0.53081 0.0
C1681 C 0.59017 0.81839 0.5679 0.0
C1682 C 0.58021 0.76995 0.41234 0.0
C1683 C 0.58289 0.77095 0.34396 0.0
C1684 C 0.58058 0.78072 0.44939 0.0
C1685 C 0.58387 0.79329 0.42052 0.0
C1686 C 0.58618 0.79416 0.35128 0.0
C1687 C 0.5857 0.78326 0.31393 0.0
H1688 H 0.226 0.77714 0.59222 0.0
H1689 H 0.19936 0.78294 0.46215 0.0
H1690 H 0.24556 0.79329 0.52657 0.0
H1691 H 0.2186 0.79916 0.39843 0.0
H1692 H 0.25428 0.82182 0.25719 0.0
H1693 H 0.23518 0.80475 0.32134 0.0
H1694 H 0.26121 0.8149 0.49188 0.0
H1695 H 0.28022 0.83151 0.42728 0.0
C1696 C 0.22423 0.78187 0.5501 0.0
C1697 C 0.21081 0.77846 0.5335 0.0
C1698 C 0.23557 0.79131 0.51193 0.0
C1699 C 0.23406 0.79782 0.45536 0.0
C1700 C 0.22059 0.79442 0.43974 0.0
C1701 C 0.20936 0.78503 0.47746 0.0
C1702 C 0.25599 0.82038 0.30824 0.0
C1703 C 0.26908 0.82828 0.33595 0.0
C1704 C 0.24487 0.81055 0.34595 0.0
C1705 C 0.24622 0.80813 0.4135 0.0
C1706 C 0.25939 0.81599 0.44059 0.0
C1707 C 0.27047 0.82574 0.40294 0.0
H1708 H 0.26683 0.45137 0.53635 0.0
H1709 H 0.23836 0.45022 0.67947 0.0
H1710 H 0.25291 0.45339 0.44784 0.0
H1711 H 0.22474 0.45203 0.59333 0.0
H1712 H 0.20871 0.46968 0.44492 0.0
H1713 H 0.22375 0.46746 0.52203 0.0
H1714 H 0.23153 0.44402 0.37978 0.0
H1715 H 0.21638 0.44651 0.30076 0.0
C1716 C 0.25763 0.45142 0.54942 0.0
C1717 C 0.25402 0.45071 0.61661 0.0
C1718 C 0.24955 0.45259 0.49822 0.0
C1719 C 0.23758 0.4532 0.51203 0.0
C1720 C 0.23393 0.45206 0.57904 0.0
C1721 C 0.24186 0.45088 0.6294 0.0
C1722 C 0.21359 0.46406 0.42905 0.0
C1723 C 0.21097 0.45824 0.36535 0.0
C1724 C 0.22228 0.46265 0.47436 0.0
C1725 C 0.22895 0.45528 0.45923 0.0
C1726 C 0.22674 0.44978 0.3946 0.0
C1727 C 0.21792 0.45118 0.34879 0.0
H1728 H 0.48267 0.89851 0.33099 0.0
H1729 H 0.5116 0.93571 0.42692 0.0
H1730 H 0.46546 0.89563 0.41302 0.0
H1731 H 0.49471 0.93295 0.50746 0.0
H1732 H 0.46468 0.92352 0.67411 0.0
H1733 H 0.48133 0.92248 0.60092 0.0
H1734 H 0.45052 0.9035 0.45095 0.0
H1735 H 0.43404 0.9045 0.52439 0.0
C1736 C 0.4855 0.906 0.36977 0.0
C1737 C 0.49879 0.91736 0.37117 0.0
C1738 C 0.47551 0.90443 0.41708 0.0
C1739 C 0.47839 0.91402 0.46861 0.0
C1740 C 0.4918 0.92513 0.47039 0.0
C1741 C 0.50163 0.92677 0.42305 0.0
C1742 C 0.4613 0.9186 0.62663 0.0
C1743 C 0.4477 0.91366 0.60698 0.0
C1744 C 0.471 0.91826 0.58341 0.0
C1745 C 0.4676 0.91298 0.51825 0.0
C1746 C 0.45382 0.90751 0.50006 0.0
C1747 C 0.44421 0.908 0.54293 0.0
H1748 H 0.11198 0.55176 0.6816 0.0
H1749 H 0.13097 0.54205 0.52448 0.0
H1750 H 0.11146 0.56922 0.61231 0.0
H1751 H 0.13056 0.55942 0.45525 0.0
H1752 H 0.13358 0.59693 0.34635 0.0
H1753 H 0.13763 0.58268 0.42415 0.0
H1754 H 0.09966 0.57144 0.51973 0.0
H1755 H 0.09567 0.58545 0.44279 0.0
C1756 C 0.11656 0.55368 0.6333 0.0
C1757 C 0.12195 0.54561 0.61033 0.0
C1758 C 0.11602 0.5636 0.59245 0.0
C1759 C 0.12089 0.56599 0.52665 0.0
C1760 C 0.12681 0.55828 0.50508 0.0
C1761 C 0.12714 0.54826 0.54546 0.0
C1762 C 0.12617 0.59159 0.38448 0.0
C1763 C 0.11427 0.5926 0.38729 0.0
C1764 C 0.12843 0.58322 0.42929 0.0
C1765 C 0.11903 0.57566 0.4798 0.0
C1766 C 0.10736 0.57704 0.48319 0.0
C1767 C 0.10501 0.58515 0.43806 0.0
H1768 H 0.47994 0.57518 0.68123 0.0
H1769 H 0.49863 0.59653 0.50283 0.0
H1770 H 0.46127 0.55735 0.61656 0.0
H1771 H 0.47997 0.57926 0.43825 0.0
H1772 H 0.45154 0.53965 0.32385 0.0
H1773 H 0.46894 0.55891 0.38699 0.0
H1774 H 0.44216 0.54659 0.55462 0.0
H1775 H 0.42524 0.52723 0.49205 0.0
C1776 C 0.47989 0.57638 0.62841 0.0
C1777 C 0.49092 0.58765 0.59827 0.0
C1778 C 0.46908 0.56597 0.59036 0.0
C1779 C 0.46872 0.56635 0.52022 0.0
C1780 C 0.47959 0.57798 0.49102 0.0
C1781 C 0.49038 0.5882 0.5288 0.0
C1782 C 0.44919 0.54128 0.37346 0.0
C1783 C 0.43663 0.53181 0.40144 0.0
C1784 C 0.45934 0.55244 0.41077 0.0
C1785 C 0.45744 0.55473 0.47797 0.0
C1786 C 0.44459 0.54545 0.50447 0.0
C1787 C 0.43459 0.5343 0.46757 0.0
H1788 H 0.12572 0.53001 0.04923 0.0
H1789 H 0.13555 0.5575 0.88575 0.0
H1790 H 0.13781 0.54937 0.12381 0.0
H1791 H 0.14726 0.57659 0.95856 0.0
H1792 H 0.16093 0.61015 0.06832 0.0
H1793 H 0.16378 0.59116 0.0333 0.0
H1794 H 0.13109 0.56462 0.16284 0.0
H1795 H 0.12921 0.58383 0.20091 0.0
C1796 C 0.13055 0.54018 0.02927 0.0
C1797 C 0.12946 0.5423 0.96202 0.0
C1798 C 0.13759 0.55124 0.07174 0.0
C1799 C 0.14349 0.56459 0.0476 0.0
C1800 C 0.14316 0.56654 0.9794 0.0
C1801 C 0.13625 0.55555 0.93728 0.0
C1802 C 0.15499 0.60037 0.09179 0.0
C1803 C 0.14462 0.5982 0.13555 0.0
C1804 C 0.15651 0.58949 0.07164 0.0
C1805 C 0.14712 0.57624 0.09233 0.0
C1806 C 0.13837 0.5746 0.14482 0.0
C1807 C 0.13721 0.5856 0.16661 0.0
H1808 H 0.4328 0.51441 0.96532 0.0
H1809 H 0.43743 0.54086 0.12879 0.0
H1810 H 0.44768 0.53421 0.89949 0.0
H1811 H 0.4518 0.56047 0.06205 0.0
H1812 H 0.4793 0.59307 0.91001 0.0
H1813 H 0.45694 0.57444 0.94451 0.0
H1814 H 0.47337 0.54742 0.95105 0.0
H1815 H 0.49553 0.56595 0.91831 0.0
C1816 C 0.43664 0.5244 0.98663 0.0
C1817 C 0.43445 0.52604 0.05316 0.0
C1818 C 0.44495 0.53569 0.9486 0.0
C1819 C 0.45095 0.5487 0.97657 0.0
C1820 C 0.4472 0.55047 0.03971 0.0
C1821 C 0.43902 0.53919 0.07801 0.0
C1822 C 0.47798 0.5831 0.91909 0.0
C1823 C 0.48899 0.58083 0.91306 0.0
C1824 C 0.46529 0.57253 0.9379 0.0
C1825 C 0.46352 0.55957 0.94871 0.0
C1826 C 0.4745 0.5573 0.94138 0.0
C1827 C 0.48718 0.56789 0.92412 0.0
H1828 H 0.46683 0.87731 0.02321 0.0
H1829 H 0.47141 0.89739 0.2094 0.0
H1830 H 0.44612 0.87781 1.00194 0.0
H1831 H 0.4504 0.89767 0.18929 0.0
H1832 H 0.44706 0.9272 0.03361 0.0
H1833 H 0.45288 0.91452 0.10952 0.0
H1834 H 0.4247 0.87713 1.0105 0.0
H1835 H 0.41899 0.89004 0.93378 0.0
C1836 C 0.46296 0.88118 0.06108 0.0
C1837 C 0.47092 0.88782 0.11636 0.0
C1838 C 0.451 0.88138 0.04936 0.0
C1839 C 0.44696 0.88836 0.09276 0.0
C1840 C 0.45353 0.89261 0.15409 0.0
C1841 C 0.46553 0.89239 0.16576 0.0
C1842 C 0.44179 0.91625 0.0294 0.0
C1843 C 0.43304 0.90966 0.97633 0.0
C1844 C 0.44498 0.90889 0.07349 0.0
C1845 C 0.43946 0.89479 0.0652 0.0
C1846 C 0.42934 0.88801 1.01722 0.0
C1847 C 0.42622 0.89541 0.97282 0.0
H1848 H 0.2336 0.47283 0.12666 0.0
H1849 H 0.2171 0.48195 0.95619 0.0
H1850 H 0.25593 0.48468 0.08017 0.0
H1851 H 0.23985 0.49513 0.91025 0.0
H1852 H 0.26275 0.47672 0.80516 0.0
H1853 H 0.25082 0.48702 0.85387 0.0
H1854 H 0.27562 0.49609 0.02965 0.0
H1855 H 0.28647 0.48423 0.98141 0.0
C1856 C 0.23495 0.47792 0.07999 0.0
C1857 C 0.2237 0.47595 0.0432 0.0
C1858 C 0.24789 0.48495 0.05298 0.0
C1859 C 0.2498 0.49023 0.98857 0.0
C1860 C 0.23874 0.4904 0.95771 0.0
C1861 C 0.2257 0.48292 0.98387 0.0
C1862 C 0.2659 0.48136 0.85334 0.0
C1863 C 0.27496 0.47924 0.89104 0.0
C1864 C 0.2591 0.4874 0.88186 0.0
C1865 C 0.26137 0.49142 0.94863 0.0
C1866 C 0.27277 0.4921 0.9802 0.0
C1867 C 0.27916 0.48551 0.95257 0.0
H1868 H 0.57482 0.77137 0.04994 0.0
H1869 H 0.61286 0.7798 0.96245 0.0
H1870 H 0.57721 0.79206 1.00127 0.0
H1871 H 0.615 0.80016 0.91199 0.0
H1872 H 0.62309 0.84325 0.906 0.0
H1873 H 0.61935 0.82235 0.95782 0.0
H1874 H 0.57761 0.80188 0.89118 0.0
H1875 H 0.58124 0.82293 0.84137 0.0
C1876 C 0.58361 0.77758 1.01978 0.0
C1877 C 0.59371 0.77409 1.01028 0.0
C1878 C 0.58492 0.78933 0.99171 0.0
C1879 C 0.59638 0.79772 0.95383 0.0
C1880 C 0.6062 0.79394 0.9421 0.0
C1881 C 0.60487 0.7822 0.9701 0.0
C1882 C 0.61306 0.83436 0.90364 0.0
C1883 C 0.60248 0.83462 0.86932 0.0
C1884 C 0.61097 0.82239 0.93243 0.0
C1885 C 0.59826 0.81054 0.92737 0.0
C1886 C 0.58751 0.81092 0.89555 0.0
C1887 C 0.58961 0.8229 0.8667 0.0
H1888 H 0.23222 0.77935 0.77838 0.0
H1889 H 0.21381 0.75464 0.94931 0.0
H1890 H 0.25376 0.79094 0.834 0.0
H1891 H 0.23582 0.76548 1.00515 0.0
H1892 H 0.25857 0.80799 0.10368 0.0
H1893 H 0.24534 0.78574 0.05589 0.0
H1894 H 0.27309 0.79811 0.89092 0.0
H1895 H 0.28554 0.82098 0.93755 0.0
C1896 C 0.233 0.77608 0.8274 0.0
C1897 C 0.22139 0.76664 0.861 0.0
C1898 C 0.24546 0.7826 0.85953 0.0
C1899 C 0.24655 0.77965 0.92589 0.0
C1900 C 0.23525 0.76856 0.95543 0.0
C1901 C 0.22265 0.76234 0.92379 0.0
C1902 C 0.26198 0.80578 0.05801 0.0
C1903 C 0.27255 0.81617 0.02238 0.0
C1904 C 0.25449 0.7929 0.0305 0.0
C1905 C 0.25763 0.79023 0.9671 0.0
C1906 C 0.26986 0.80003 0.9378 0.0
C1907 C 0.27703 0.81309 0.96427 0.0
H1908 H 0.23391 0.26544 0.38889 0.0
H1909 H 0.20655 0.22602 0.46853 0.0
H1910 H 0.24365 0.2555 0.31617 0.0
H1911 H 0.21627 0.21585 0.394 0.0
H1912 H 0.22962 0.20123 0.19821 0.0
H1913 H 0.21887 0.21013 0.27404 0.0
H1914 H 0.25793 0.24539 0.31106 0.0
H1915 H 0.26851 0.23652 0.2372 0.0
C1916 C 0.23 0.2546 0.39184 0.0
C1917 C 0.21944 0.24676 0.43671 0.0
C1918 C 0.23567 0.2488 0.34934 0.0
C1919 C 0.23095 0.23468 0.34761 0.0
C1920 C 0.22032 0.22672 0.39243 0.0
C1921 C 0.21479 0.23262 0.43636 0.0
C1922 C 0.23592 0.21096 0.2218 0.0
C1923 C 0.2501 0.21808 0.20972 0.0
C1924 C 0.22973 0.21607 0.26643 0.0
C1925 C 0.23735 0.22867 0.30012 0.0
C1926 C 0.25144 0.23578 0.28677 0.0
C1927 C 0.25761 0.2306 0.24366 0.0
H1928 H 0.85 0.03706 0.15629 0.0
H1929 H 0.81129 0.03372 0.19811 0.0
H1930 H 0.84474 0.01877 0.23613 0.0
H1931 H 0.80631 0.01619 0.27726 0.0
H1932 H 0.79386 0.97721 0.39415 0.0
H1933 H 0.79925 0.99463 0.31018 0.0
H1934 H 0.84203 1.00968 0.34053 0.0
H1935 H 0.83659 0.99216 0.42216 0.0
C1936 C 0.84041 0.03257 0.18214 0.0
C1937 C 0.83119 0.03721 0.16882 0.0
C1938 C 0.83732 0.02196 0.22894 0.0
C1939 C 0.82487 0.01547 0.26487 0.0
C1940 C 0.81583 0.02028 0.25123 0.0
C1941 C 0.81886 0.0307 0.20498 0.0
C1942 C 0.80442 0.98423 0.38324 0.0
C1943 C 0.81466 0.98298 0.41664 0.0
C1944 C 0.80764 0.99446 0.3345 0.0
C1945 C 0.82127 1.00406 0.31658 0.0
C1946 C 0.83142 1.0027 0.35035 0.0
C1947 C 0.82821 0.9925 0.39858 0.0
H1948 H 0.98985 0.80386 0.19381 0.0
H1949 H 1.01149 0.7862 0.10185 0.0
H1950 H 1.00845 0.81512 0.27564 0.0
H1951 H 0.0295 0.79686 0.18237 0.0
H1952 H 0.06686 0.82476 0.29714 0.0
H1953 H 0.04829 0.81585 0.21972 0.0
H1954 H 0.02116 0.81388 0.37264 0.0
H1955 H 0.04036 0.82343 0.45173 0.0
C1956 C 0.99867 0.80262 0.18953 0.0
C1957 C 0.99908 0.79425 0.13883 0.0
C1958 C 1.00935 0.80892 0.23768 0.0
C1959 C 0.02094 0.8072 0.23712 0.0
C1960 C 0.02124 0.79897 0.18555 0.0
C1961 C 1.01069 0.79272 0.13838 0.0
C1962 C 0.057 0.82244 0.31555 0.0
C1963 C 0.05549 0.82488 0.38255 0.0
C1964 C 0.04608 0.81712 0.27011 0.0
C1965 C 0.03273 0.81371 0.28819 0.0
C1966 C 0.03111 0.81628 0.35522 0.0
C1967 C 0.04221 0.82172 0.40134 0.0
H1968 H 0.8363 0.78504 0.84537 0.0
H1969 H 0.80528 0.76223 0.70034 0.0
H1970 H 0.81973 0.78681 0.91322 0.0
H1971 H 0.78845 0.76343 0.76968 0.0
H1972 H 0.777 0.79631 0.83159 0.0
H1973 H 0.78685 0.78363 0.78405 0.0
H1974 H 0.79943 0.77842 0.97761 0.0
H1975 H 0.78965 0.79136 0.02505 0.0
C1976 C 0.82583 0.78005 0.82904 0.0
C1977 C 0.82216 0.7739 0.76679 0.0
C1978 C 0.81626 0.78089 0.86831 0.0
C1979 C 0.80282 0.77551 0.84606 0.0
C1980 C 0.79881 0.76792 0.78737 0.0
C1981 C 0.80843 0.76714 0.74789 0.0
C1982 C 0.78155 0.79216 0.86414 0.0
C1983 C 0.78286 0.79509 0.93168 0.0
C1984 C 0.78711 0.78478 0.83702 0.0
C1985 C 0.79403 0.78011 0.87706 0.0
C1986 C 0.79436 0.78209 0.94543 0.0
C1987 C 0.78886 0.78957 0.97248 0.0
H1988 H 0.23679 0.99477 0.96431 0.0
H1989 H 0.21007 0.98115 0.79582 0.0
H1990 H 0.25359 0.01428 0.90152 0.0
H1991 H 0.22653 1.00066 0.7335 0.0
H1992 H 0.25599 0.0372 0.63069 0.0
H1993 H 0.24841 0.01531 0.68342 0.0
H1994 H 0.25101 0.03369 0.87317 0.0
H1995 H 0.25855 0.05541 0.82079 0.0
C1996 C 0.23476 0.99569 0.91309 0.0
C1997 C 0.22209 0.98668 0.88499 0.0
C1998 C 0.24429 1.00689 0.87733 0.0
C1999 C 0.24126 1.00916 0.81304 0.0
C2000 C 0.22923 0.99923 0.78278 0.0
C2001 C 0.21973 0.98811 0.81854 0.0
C2002 C 0.25508 0.03657 0.68371 0.0
C2003 C 0.25759 0.04798 0.72145 0.0
C2004 C 0.25085 0.02407 0.71391 0.0
C2005 C 0.24902 0.02274 0.78239 0.0
C2006 C 0.25251 0.03438 0.82041 0.0
C2007 C 0.25675 0.04686 0.79027 0.0
H2008 H 1.00281 0.20859 0.69453 0.0
H2009 H 0.98084 0.21366 0.85491 0.0
H2010 H 0.0235 0.21898 0.76131 0.0
H2011 H 1.00152 0.22417 0.92114 0.0
H2012 H 0.04364 0.25999 0.96957 0.0
H2013 H 0.02285 0.2468 0.90632 0.0
H2014 H 0.03418 0.2164 0.8675 0.0
H2015 H 0.05522 0.2298 0.93029 0.0
C2016 C 1.00232 0.21163 0.74447 0.0
C2017 C 0.99027 0.2105 0.76927 0.0
C2018 C 1.01416 0.2176 0.78255 0.0
C2019 C 1.0141 0.22255 0.84579 0.0
C2020 C 1.00187 0.22068 0.87192 0.0
C2021 C 0.99006 0.21469 0.83407 0.0
C2022 C 0.04178 0.25059 0.94691 0.0
C2023 C 0.05102 0.24591 0.95473 0.0
C2024 C 0.02981 0.24295 0.91149 0.0
C2025 C 0.02688 0.23053 0.88281 0.0
C2026 C 0.03623 0.22595 0.88931 0.0
C2027 C 0.04819 0.23355 0.92539 0.0
H2028 H 0.9137 0.53357 0.55184 0.0
H2029 H 0.88287 0.52384 0.4051 0.0
H2030 H 0.90102 0.5391 0.63048 0.0
H2031 H 0.86988 0.52927 0.48429 0.0
H2032 H 0.85901 0.55688 0.61314 0.0
H2033 H 0.86815 0.54661 0.53863 0.0
H2034 H 0.8837 0.53507 0.70501 0.0
H2035 H 0.87451 0.54555 0.77953 0.0
C2036 C 0.90392 0.53214 0.53669 0.0
C2037 C 0.89933 0.52779 0.47152 0.0
C2038 C 0.89655 0.53542 0.58246 0.0
C2039 C 0.88416 0.53483 0.56563 0.0
C2040 C 0.87934 0.53011 0.50065 0.0
C2041 C 0.88672 0.52668 0.45481 0.0
C2042 C 0.86391 0.55169 0.6344 0.0
C2043 C 0.86544 0.55178 0.70365 0.0
C2044 C 0.86934 0.54579 0.59094 0.0
C2045 C 0.87694 0.53984 0.61389 0.0
C2046 C 0.87814 0.53955 0.68362 0.0
C2047 C 0.87255 0.54538 0.72729 0.0
H2048 H 0.45047 0.3197 0.75954 0.0
H2049 H 0.49181 0.32798 0.76209 0.0
H2050 H 0.45651 0.33688 0.67311 0.0
H2051 H 0.49772 0.34456 0.67578 0.0
H2052 H 0.50955 0.38131 0.54023 0.0
H2053 H 0.50348 0.3651 0.63109 0.0
H2054 H 0.46161 0.34492 0.5679 0.0
H2055 H 0.4676 0.36118 0.47971 0.0
C2056 C 0.46083 0.32507 0.74194 0.0
C2057 C 0.47052 0.32214 0.76958 0.0
C2058 C 0.4644 0.33503 0.69126 0.0
C2059 C 0.47782 0.34258 0.66527 0.0
C2060 C 0.48738 0.33953 0.69336 0.0
C2061 C 0.48385 0.3297 0.74369 0.0
C2062 C 0.49904 0.37345 0.54563 0.0
C2063 C 0.48921 0.3729 0.50099 0.0
C2064 C 0.49545 0.36391 0.59831 0.0
C2065 C 0.48184 0.35325 0.60915 0.0
C2066 C 0.47212 0.35281 0.56413 0.0
C2067 C 0.47568 0.36231 0.51208 0.0
H2068 H 0.64252 0.11512 0.6044 0.0
H2069 H 0.66724 0.14162 0.44973 0.0
H2070 H 0.66072 0.12741 0.68358 0.0
H2071 H 0.68573 0.15426 0.52974 0.0
H2072 H 0.72169 0.16236 0.67447 0.0
H2073 H 0.70316 0.15423 0.59432 0.0
H2074 H 0.67477 0.14549 0.75244 0.0
H2075 H 0.69346 0.15352 0.8324 0.0
C2076 C 0.65174 0.1239 0.58728 0.0
C2077 C 0.65299 0.12739 0.51981 0.0
C2078 C 0.66238 0.13106 0.63346 0.0
C2079 C 0.67511 0.14209 0.61498 0.0
C2080 C 0.67631 0.14586 0.54742 0.0
C2081 C 0.66551 0.1387 0.501 0.0
C2082 C 0.71157 0.15923 0.69225 0.0
C2083 C 0.70942 0.15925 0.76086 0.0
C2084 C 0.70075 0.15438 0.64567 0.0
C2085 C 0.68705 0.14893 0.66506 0.0
C2086 C 0.68495 0.14934 0.73386 0.0
C2087 C 0.69583 0.1543 0.78047 0.0
H2088 H 0.43477 0.1265 0.23581 0.0
H2089 H 0.47045 0.14659 0.35781 0.0
H2090 H 0.44249 0.11143 0.19249 0.0
H2091 H 0.47896 0.13265 0.31151 0.0
H2092 H 0.49779 0.11415 0.20372 0.0
H2093 H 0.48161 0.115 0.27987 0.0
H2094 H 0.45818 0.11592 0.11335 0.0
H2095 H 0.47373 0.11391 0.03934 0.0
C2096 C 0.4441 0.12735 0.25451 0.0
C2097 C 0.45212 0.13761 0.29939 0.0
C2098 C 0.44866 0.11891 0.22923 0.0
C2099 C 0.46164 0.12109 0.24626 0.0
C2100 C 0.46892 0.13049 0.29681 0.0
C2101 C 0.46411 0.13859 0.32347 0.0
C2102 C 0.48886 0.11407 0.18431 0.0
C2103 C 0.48698 0.11415 0.11627 0.0
C2104 C 0.47965 0.11467 0.22758 0.0
C2105 C 0.46872 0.11596 0.20325 0.0
C2106 C 0.46631 0.11483 0.1348 0.0
C2107 C 0.47529 0.11379 0.09187 0.0
H2108 H 0.89962 0.3715 1.01465 0.0
H2109 H 0.93471 0.36686 0.98218 0.0
H2110 H 0.8878 0.34913 0.06389 0.0
H2111 H 0.92289 0.34455 0.0347 0.0
H2112 H 0.89685 0.3169 0.22724 0.0
H2113 H 0.91199 0.33617 0.15848 0.0
H2114 H 0.87993 0.32424 1.01495 0.0
H2115 H 0.86485 0.30485 0.08301 0.0
C2116 C 0.90481 0.36572 1.01762 0.0
C2117 C 0.91805 0.37093 0.99344 0.0
C2118 C 0.89803 0.35291 0.04584 0.0
C2119 C 0.9044 0.34511 0.0515 0.0
C2120 C 0.9178 0.35041 0.03002 0.0
C2121 C 0.92456 0.36321 1.00064 0.0
C2122 C 0.89322 0.31806 0.17977 0.0
C2123 C 0.8796 0.30961 0.1609 0.0
C2124 C 0.90188 0.32908 0.14059 0.0
C2125 C 0.89695 0.33171 0.08246 0.0
C2126 C 0.88382 0.32243 0.06023 0.0
C2127 C 0.87522 0.31142 0.09911 0.0
H2128 H 0.64721 0.53103 0.11122 0.0
H2129 H 0.65907 0.56075 0.9568 0.0
H2130 H 0.66623 0.54711 0.1782 0.0
H2131 H 0.67798 0.57715 0.02469 0.0
H2132 H 0.7203 0.5836 0.09399 0.0
H2133 H 0.69823 0.57562 0.04471 0.0
H2134 H 0.68009 0.56812 0.23777 0.0
H2135 H 0.70241 0.57622 0.28764 0.0
C2136 C 0.65366 0.54121 0.0927 0.0
C2137 C 0.65195 0.54456 0.02837 0.0
C2138 C 0.66448 0.55049 0.1313 0.0
C2139 C 0.6738 0.56332 0.10612 0.0
C2140 C 0.6711 0.56723 0.04481 0.0
C2141 C 0.66023 0.5579 1.00614 0.0
C2142 C 0.71172 0.58064 0.12627 0.0
C2143 C 0.71312 0.58031 0.19482 0.0
C2144 C 0.69901 0.57613 0.09787 0.0
C2145 C 0.68737 0.57117 0.1373 0.0
C2146 C 0.68887 0.57173 0.20609 0.0
C2147 C 0.70163 0.57626 0.2346 0.0
H2148 H 0.56345 0.87612 0.73157 0.0
H2149 H 0.58369 0.87093 0.89833 0.0
H2150 H 0.55134 0.88364 0.80517 0.0
H2151 H 0.57172 0.87843 0.97219 0.0
H2152 H 0.54303 0.88753 0.10168 0.0
H2153 H 0.55227 0.87657 0.0298 0.0
H2154 H 0.55421 0.90222 0.86946 0.0
H2155 H 0.54512 0.91296 0.94017 0.0
C2156 C 0.56496 0.87604 0.78415 0.0
C2157 C 0.57431 0.87229 0.80817 0.0
C2158 C 0.55818 0.88069 0.827 0.0
C2159 C 0.5604 0.8819 0.89626 0.0
C2160 C 0.56938 0.87764 0.92017 0.0
C2161 C 0.57625 0.87316 0.87728 0.0
C2162 C 0.54532 0.89079 0.05101 0.0
C2163 C 0.54315 0.90131 0.02803 0.0
C2164 C 0.55077 0.8845 1.00923 0.0
C2165 C 0.55411 0.88825 0.9421 0.0
C2166 C 0.55171 0.89863 0.91955 0.0
C2167 C 0.5465 0.90498 0.96115 0.0
H2168 H 0.14782 0.66414 0.11103 0.0
H2169 H 0.11155 0.65 0.99408 0.0
H2170 H 0.15972 0.68371 0.03732 0.0
H2171 H 0.12333 0.66922 0.92049 0.0
H2172 H 0.14545 0.71061 0.81033 0.0
H2173 H 0.13307 0.69226 0.89058 0.0
H2174 H 0.17007 0.6921 0.93599 0.0
H2175 H 0.1822 0.71021 0.85785 0.0
C2176 C 0.14228 0.66514 0.07002 0.0
C2177 C 0.12854 0.65513 0.05984 0.0
C2178 C 0.1492 0.67645 0.02665 0.0
C2179 C 0.14274 0.67843 0.97097 0.0
C2180 C 0.12892 0.66853 0.96206 0.0
C2181 C 0.12208 0.65725 1.00492 0.0
C2182 C 0.15097 0.70672 0.83752 0.0
C2183 C 0.16503 0.71221 0.82597 0.0
C2184 C 0.14381 0.696 0.88397 0.0
C2185 C 0.15035 0.69031 0.92169 0.0
C2186 C 0.1644 0.69599 0.91017 0.0
C2187 C 0.17146 0.70653 0.86391 0.0
H2188 H 0.33167 0.47231 0.84369 0.0
H2189 H 0.30748 0.44391 0.99415 0.0
H2190 H 0.35137 0.48218 0.91981 0.0
H2191 H 0.32652 0.45375 0.06891 0.0
H2192 H 0.36497 0.46251 0.17593 0.0
H2193 H 0.34637 0.45491 0.09878 0.0
H2194 H 0.36418 0.4953 1.01877 0.0
H2195 H 0.38342 0.50293 0.09703 0.0
C2196 C 0.33043 0.46808 0.89254 0.0
C2197 C 0.31765 0.457 0.91098 0.0
C2198 C 0.34183 0.47387 0.93702 0.0
C2199 C 0.34102 0.46885 1.00203 0.0
C2200 C 0.32815 0.45794 1.01986 0.0
C2201 C 0.31693 0.45222 0.97602 0.0
C2202 C 0.36495 0.47 0.14307 0.0
C2203 C 0.37589 0.48353 0.14525 0.0
C2204 C 0.35404 0.46555 0.09789 0.0
C2205 C 0.35322 0.47431 0.05101 0.0
C2206 C 0.36413 0.48801 0.05308 0.0
C2207 C 0.37518 0.49253 0.09925 0.0
H2208 H 0.12128 0.47128 0.62724 0.0
H2209 H 0.11703 0.49117 0.45643 0.0
H2210 H 0.12502 0.45604 0.55672 0.0
H2211 H 0.11992 0.4755 0.38491 0.0
H2212 H 0.13293 0.4305 0.41733 0.0
H2213 H 0.11975 0.43904 0.47434 0.0
H2214 H 0.14061 0.47629 0.36302 0.0
H2215 H 0.15341 0.46774 0.30636 0.0
C2216 C 0.1205 0.47189 0.57439 0.0
C2217 C 0.11902 0.48235 0.54669 0.0
C2218 C 0.12261 0.46317 0.53384 0.0
C2219 C 0.12309 0.46475 0.46502 0.0
C2220 C 0.12 0.47426 0.4377 0.0
C2221 C 0.11821 0.48314 0.47829 0.0
C2222 C 0.13452 0.44043 0.40469 0.0
C2223 C 0.14427 0.44846 0.35761 0.0
C2224 C 0.12697 0.44531 0.43719 0.0
C2225 C 0.12909 0.45835 0.42337 0.0
C2226 C 0.13841 0.46607 0.37406 0.0
C2227 C 0.14586 0.46118 0.34152 0.0
H2228 H 0.54542 0.66778 0.64088 0.0
H2229 H 0.57199 0.65287 0.5827 0.0
H2230 H 0.56191 0.69039 0.60475 0.0
H2231 H 0.58903 0.67579 0.54673 0.0
H2232 H 0.59008 0.70327 0.36687 0.0
H2233 H 0.58731 0.6866 0.44918 0.0
H2234 H 0.58272 0.71099 0.59961 0.0
H2235 H 0.58465 0.72717 0.51541 0.0
C2236 C 0.5551 0.66959 0.62215 0.0
C2237 C 0.55747 0.65877 0.61279 0.0
C2238 C 0.56468 0.68256 0.60217 0.0
C2239 C 0.5768 0.68492 0.57186 0.0
C2240 C 0.57973 0.67426 0.56902 0.0
C2241 C 0.57007 0.66121 0.58947 0.0
C2242 C 0.58904 0.70527 0.41802 0.0
C2243 C 0.58716 0.71615 0.43519 0.0
C2244 C 0.58755 0.69579 0.46551 0.0
C2245 C 0.5843 0.69722 0.53075 0.0
C2246 C 0.58476 0.70938 0.54936 0.0
C2247 C 0.58589 0.71865 0.50152 0.0
H2248 H 0.32494 0.90713 0.39619 0.0
H2249 H 0.33746 0.88173 0.29553 0.0
H2250 H 0.34684 0.9187 0.45367 0.0
H2251 H 0.35891 0.89284 0.35303 0.0
H2252 H 0.39826 0.91467 0.44351 0.0
H2253 H 0.38009 0.91227 0.37042 0.0
H2254 H 0.35737 0.91296 0.53949 0.0
H2255 H 0.37601 0.91621 0.6113 0.0
C2256 C 0.33241 0.90411 0.38605 0.0
C2257 C 0.3295 0.89354 0.34144 0.0
C2258 C 0.34492 0.91071 0.41882 0.0
C2259 C 0.35468 0.90675 0.4079 0.0
C2260 C 0.35185 0.89646 0.36157 0.0
C2261 C 0.33946 0.89 0.32862 0.0
C2262 C 0.38953 0.91475 0.46426 0.0
C2263 C 0.38835 0.91548 0.53246 0.0
C2264 C 0.37909 0.91327 0.42282 0.0
C2265 C 0.3671 0.91205 0.44921 0.0
C2266 C 0.36646 0.91393 0.51731 0.0
C2267 C 0.37708 0.91574 0.55859 0.0
H2268 H 0.23975 0.25585 0.68028 0.0
H2269 H 0.23062 0.27118 0.85518 0.0
H2270 H 0.25872 0.25618 0.7352 0.0
H2271 H 0.25036 0.27248 0.91042 0.0
H2272 H 0.27935 0.24083 0.8368 0.0
H2273 H 0.27727 0.25996 0.7967 0.0
H2274 H 0.24862 0.25302 0.95261 0.0
H2275 H 0.25129 0.23467 0.9932 0.0
C2276 C 0.24227 0.25992 0.72978 0.0
C2277 C 0.2335 0.2629 0.76485 0.0
C2278 C 0.2533 0.26028 0.76152 0.0
C2279 C 0.25571 0.26371 0.82883 0.0
C2280 C 0.24837 0.26913 0.85964 0.0
C2281 C 0.23709 0.26839 0.82834 0.0
C2282 C 0.27295 0.24377 0.86322 0.0
C2283 C 0.265 0.23598 0.9161 0.0
C2284 C 0.27179 0.25473 0.8406 0.0
C2285 C 0.26224 0.25763 0.86907 0.0
C2286 C 0.25597 0.25111 0.92831 0.0
C2287 C 0.25736 0.24039 0.95158 0.0
H2288 H 0.79929 0.02435 0.9656 0.0
H2289 H 0.81504 0.03546 0.7686 0.0
H2290 H 0.78039 1.00322 0.92398 0.0
H2291 H 0.79655 0.0143 0.72716 0.0
H2292 H 0.77551 0.97737 0.65321 0.0
H2293 H 0.77366 0.99558 0.70637 0.0
H2294 H 0.78515 0.98553 0.89169 0.0
H2295 H 0.78664 0.96724 0.83874 0.0
C2296 C 0.7985 0.02247 0.91314 0.0
C2297 C 0.8089 0.03126 0.8704 0.0
C2298 C 0.78763 1.0104 0.88931 0.0
C2299 C 0.7871 1.0069 0.82262 0.0
C2300 C 0.79657 0.01658 0.77892 0.0
C2301 C 0.8074 0.0286 0.80273 0.0
C2302 C 0.77688 0.97859 0.70599 0.0
C2303 C 0.78195 0.97149 0.74161 0.0
C2304 C 0.77579 0.98901 0.73648 0.0
C2305 C 0.78003 0.99247 0.80219 0.0
C2306 C 0.78216 0.9834 0.84049 0.0
C2307 C 0.78322 0.97301 0.81008 0.0
H2308 H 0.04166 0.79507 0.58137 0.0
H2309 H 0.0538 0.79805 0.78506 0.0
H2310 H 0.02111 0.77386 0.60424 0.0
H2311 H 0.03303 0.77732 0.80872 0.0
H2312 H 0.99543 0.75602 0.87778 0.0
H2313 H 1.01282 0.75566 0.80899 0.0
H2314 H 1.0044 0.77713 0.65732 0.0
H2315 H 0.98708 0.77718 0.72553 0.0
C2316 C 0.0402 0.79105 0.63068 0.0
C2317 C 0.04894 0.79868 0.68254 0.0
C2318 C 0.0284 0.77879 0.64367 0.0
C2319 C 0.02502 0.77426 0.70883 0.0
C2320 C 0.03502 0.7806 0.758 0.0
C2321 C 0.04686 0.79275 0.74491 0.0
C2322 C 0.99689 0.76002 0.82833 0.0
C2323 C 0.99055 0.76728 0.80771 0.0
C2324 C 1.00682 0.75979 0.78884 0.0
C2325 C 1.01058 0.76708 0.72941 0.0
C2326 C 1.00213 0.77174 0.70356 0.0
C2327 C 0.99228 0.77198 0.74297 0.0
H2328 H 0.84948 0.79488 0.35666 0.0
H2329 H 0.82705 0.80248 0.50423 0.0
H2330 H 0.84231 0.80579 0.27361 0.0
H2331 H 0.81991 0.81338 0.42239 0.0
H2332 H 0.81184 0.83792 0.27186 0.0
H2333 H 0.82406 0.83142 0.34976 0.0
H2334 H 0.82279 0.80233 0.20933 0.0
H2335 H 0.81057 0.80896 0.1317 0.0
C2336 C 0.84351 0.7994 0.37226 0.0
C2337 C 0.83941 0.79822 0.43866 0.0
C2338 C 0.8391 0.80546 0.32398 0.0
C2339 C 0.8304 0.81066 0.33988 0.0
C2340 C 0.82674 0.80986 0.40694 0.0
C2341 C 0.83097 0.80364 0.4547 0.0
C2342 C 0.81471 0.83058 0.25624 0.0
C2343 C 0.81065 0.8245 0.19342 0.0
C2344 C 0.82152 0.82656 0.30192 0.0
C2345 C 0.82454 0.81615 0.2874 0.0
C2346 C 0.82097 0.81048 0.22331 0.0
C2347 C 0.81404 0.81443 0.17785 0.0
H2348 H 0.22787 0.03013 0.5063 0.0
H2349 H 0.22653 0.05771 0.36639 0.0
H2350 H 0.21574 1.0113 0.42888 0.0
H2351 H 0.21431 0.03893 0.28839 0.0
H2352 H 0.21034 1.00623 0.13387 0.0
H2353 H 0.21752 0.02462 0.21434 0.0
H2354 H 0.19672 0.99514 0.36683 0.0
H2355 H 0.18965 0.9768 0.28559 0.0
C2356 C 0.22439 0.03211 0.4602 0.0
C2357 C 0.22772 0.04555 0.44488 0.0
C2358 C 0.21749 0.02121 0.41477 0.0
C2359 C 0.21387 0.02324 0.35072 0.0
C2360 C 0.21687 0.03666 0.33621 0.0
C2361 C 0.22366 0.04752 0.382 0.0
C2362 C 0.20674 1.00366 0.18396 0.0
C2363 C 0.19879 0.98985 0.20163 0.0
C2364 C 0.21102 0.01432 0.23098 0.0
C2365 C 0.20788 1.01172 0.29873 0.0
C2366 C 0.19959 0.99787 0.31603 0.0
C2367 C 0.19521 0.98722 0.26873 0.0
H2368 H 1.00661 0.22122 0.51004 0.0
H2369 H 0.98723 0.18113 0.42495 0.0
H2370 H 0.02516 0.22875 0.4322 0.0
H2371 H 1.00629 0.18876 0.34609 0.0
H2372 H 0.05389 0.21232 0.25181 0.0
H2373 H 0.03447 0.20024 0.32835 0.0
H2374 H 0.02548 0.23267 0.30968 0.0
H2375 H 0.04425 0.24433 0.23404 0.0
C2376 C 1.00643 0.2138 0.47583 0.0
C2377 C 0.99523 0.20043 0.47549 0.0
C2378 C 1.01715 0.21823 0.43018 0.0
C2379 C 1.01741 0.20955 0.38117 0.0
C2380 C 1.00665 0.19586 0.38275 0.0
C2381 C 0.9957 0.1914 0.42875 0.0
C2382 C 0.0475 0.21665 0.26232 0.0
C2383 C 0.05085 0.22943 0.23541 0.0
C2384 C 0.03636 0.20975 0.30701 0.0
C2385 C 0.02831 0.21548 0.32707 0.0
C2386 C 0.03137 0.22788 0.29733 0.0
C2387 C 0.04224 0.23459 0.25293 0.0
H2388 H 0.93647 0.55428 0.1195 0.0
H2389 H 0.89801 0.52267 0.04243 0.0
H2390 H 0.93792 0.56911 0.03127 0.0
H2391 H 0.89923 0.53784 0.95598 0.0
H2392 H 0.89412 0.56492 0.84346 0.0
H2393 H 0.9082 0.55467 0.86532 0.0
H2394 H 0.92236 0.57804 0.04541 0.0
H2395 H 0.90819 0.58794 0.02341 0.0
C2396 C 0.92848 0.55025 0.08298 0.0
C2397 C 0.91672 0.53743 0.09032 0.0
C2398 C 0.92941 0.55882 0.0319 0.0
C2399 C 0.91852 0.55483 0.9881 0.0
C2400 C 0.90778 0.54131 0.98936 0.0
C2401 C 0.9069 0.53268 0.0401 0.0
C2402 C 0.90085 0.56836 0.88571 0.0
C2403 C 0.89991 0.57686 0.93304 0.0
C2404 C 0.90889 0.56251 0.89822 0.0
C2405 C 0.91604 0.56522 0.95797 0.0
C2406 C 0.91693 0.57563 0.99902 0.0
C2407 C 0.90875 0.58128 0.98694 0.0
H2408 H 0.46708 0.36642 0.29828 0.0
H2409 H 0.4679 0.3907 0.13347 0.0
H2410 H 0.45016 0.34619 0.24336 0.0
H2411 H 0.45028 0.37035 0.0787 0.0
H2412 H 0.4296 0.31047 0.14369 0.0
H2413 H 0.42999 0.3305 0.19026 0.0
H2414 H 0.4548 0.35438 0.02726 0.0
H2415 H 0.45361 0.33426 0.97994 0.0
C2416 C 0.46337 0.36743 0.25076 0.0
C2417 C 0.46922 0.37999 0.2188 0.0
C2418 C 0.45338 0.35584 0.21959 0.0
C2419 C 0.44904 0.35657 0.15557 0.0
C2420 C 0.45364 0.36941 0.12733 0.0
C2421 C 0.46372 0.38106 0.15864 0.0
C2422 C 0.4346 0.31994 0.1169 0.0
C2423 C 0.44198 0.32109 0.05984 0.0
C2424 C 0.43483 0.33138 0.14324 0.0
C2425 C 0.44296 0.34416 0.11417 0.0
C2426 C 0.44853 0.34477 0.0516 0.0
C2427 C 0.44799 0.33326 0.0245 0.0
H2428 H 0.7203 0.15276 0.18808 0.0
H2429 H 0.71892 0.12272 0.05334 0.0
H2430 H 0.70734 0.13516 0.26719 0.0
H2431 H 0.70612 0.10497 0.13334 0.0
H2432 H 0.66059 0.0976 0.15635 0.0
H2433 H 0.68306 0.10153 0.13133 0.0
H2434 H 0.69557 0.11431 0.3324 0.0
H2435 H 0.6727 0.11007 0.35697 0.0
C2436 C 0.7176 0.1424 0.17646 0.0
C2437 C 0.71981 0.13894 0.11341 0.0
C2438 C 0.71043 0.13228 0.22244 0.0
C2439 C 0.70505 0.11854 0.20489 0.0
C2440 C 0.70978 0.11544 0.14723 0.0
C2441 C 0.71698 0.1256 0.1011 0.0
C2442 C 0.66802 0.10066 0.19564 0.0
C2443 C 0.6653 0.10413 0.25741 0.0
C2444 C 0.68088 0.10272 0.18195 0.0
C2445 C 0.69131 0.10885 0.22936 0.0
C2446 C 0.68781 0.10989 0.29459 0.0
C2447 C 0.6748 0.1076 0.30851 0.0
H2448 H 0.48541 0.16088 0.47348 0.0
H2449 H 0.47329 0.17619 0.63766 0.0
H2450 H 0.49741 0.15355 0.54866 0.0
H2451 H 0.48477 0.16859 0.71322 0.0
H2452 H 0.50829 0.15582 0.8493 0.0
H2453 H 0.50217 0.16794 0.76853 0.0
H2454 H 0.49508 0.13733 0.62318 0.0
H2455 H 0.50157 0.12569 0.70327 0.0
C2456 C 0.48574 0.16321 0.52538 0.0
C2457 C 0.47872 0.16971 0.54841 0.0
C2458 C 0.4924 0.15865 0.56945 0.0
C2459 C 0.4922 0.1602 0.63885 0.0
C2460 C 0.48559 0.16722 0.6611 0.0
C2461 C 0.47898 0.17175 0.61715 0.0
C2462 C 0.50597 0.152 0.79933 0.0
C2463 C 0.50597 0.13992 0.783 0.0
C2464 C 0.50212 0.15882 0.75265 0.0
C2465 C 0.49789 0.1538 0.6876 0.0
C2466 C 0.49838 0.14194 0.67123 0.0
C2467 C 0.50222 0.13518 0.71772 0.0
H2468 H 0.89657 0.35643 0.79315 0.0
H2469 H 0.89019 0.38272 0.66463 0.0
H2470 H 0.88435 0.33751 0.71607 0.0
H2471 H 0.87805 0.36387 0.58665 0.0
H2472 H 0.87557 0.33275 0.42486 0.0
H2473 H 0.88266 0.35079 0.50727 0.0
H2474 H 0.86401 0.32061 0.65894 0.0
H2475 H 0.85682 0.30257 0.57555 0.0
C2476 C 0.89204 0.35807 0.74973 0.0
C2477 C 0.89399 0.37117 0.73743 0.0
C2478 C 0.88507 0.34715 0.7046 0.0
C2479 C 0.88006 0.34885 0.64365 0.0
C2480 C 0.88171 0.3619 0.63217 0.0
C2481 C 0.88849 0.37277 0.67794 0.0
C2482 C 0.87243 0.32991 0.47536 0.0
C2483 C 0.86503 0.31601 0.49217 0.0
C2484 C 0.87665 0.34036 0.52335 0.0
C2485 C 0.87406 0.33747 0.59121 0.0
C2486 C 0.86638 0.32352 0.60791 0.0
C2487 C 0.86195 0.31305 0.55954 0.0
H2488 H 0.64468 0.52744 0.60868 0.0
H2489 H 0.66703 0.52064 0.76034 0.0
H2490 H 0.66356 0.53455 0.53325 0.0
H2491 H 0.68611 0.52747 0.68388 0.0
H2492 H 0.7242 0.55697 0.56019 0.0
H2493 H 0.70456 0.54509 0.63166 0.0
H2494 H 0.67824 0.53291 0.4615 0.0
H2495 H 0.69814 0.54527 0.39034 0.0
C2496 C 0.6535 0.52699 0.62555 0.0
C2497 C 0.65393 0.52306 0.69117 0.0
C2498 C 0.66454 0.53117 0.58158 0.0
C2499 C 0.67684 0.53183 0.60063 0.0
C2500 C 0.67711 0.52741 0.66594 0.0
C2501 C 0.66594 0.52315 0.71017 0.0
C2502 C 0.71426 0.55134 0.53749 0.0
C2503 C 0.71307 0.55185 0.46834 0.0
C2504 C 0.70279 0.54448 0.57914 0.0
C2505 C 0.68934 0.53785 0.55422 0.0
C2506 C 0.68817 0.53792 0.48441 0.0
C2507 C 0.69973 0.54481 0.4426 0.0
H2508 H 0.60385 0.90703 0.52269 0.0
H2509 H 0.59709 0.87649 0.37862 0.0
H2510 H 0.60186 0.92093 0.4381 0.0
H2511 H 0.59612 0.8908 0.29159 0.0
H2512 H 0.58253 0.93638 0.31828 0.0
H2513 H 0.60113 0.93213 0.34276 0.0
H2514 H 0.57526 0.88998 0.2877 0.0
H2515 H 0.55714 0.89428 0.26319 0.0
C2516 C 0.60273 0.90373 0.47189 0.0
C2517 C 0.60004 0.89062 0.45662 0.0
C2518 C 0.60171 0.91172 0.42293 0.0
C2519 C 0.59805 0.9066 0.35837 0.0
C2520 C 0.5983 0.89471 0.34146 0.0
C2521 C 0.59884 0.88652 0.39087 0.0
C2522 C 0.58099 0.92628 0.31056 0.0
C2523 C 0.56822 0.91552 0.29147 0.0
C2524 C 0.59167 0.92388 0.32376 0.0
C2525 C 0.58964 0.91065 0.31911 0.0
C2526 C 0.57737 0.90035 0.29196 0.0
C2527 C 0.56678 0.90276 0.27849 0.0
H2528 H 0.13853 0.72269 0.52539 0.0
H2529 H 0.16716 0.72216 0.38841 0.0
H2530 H 0.11976 0.70649 0.45656 0.0
H2531 H 0.14863 0.70587 0.32038 0.0
H2532 H 0.11926 0.66971 0.23569 0.0
H2533 H 0.12756 0.69363 0.25967 0.0
H2534 H 0.11572 0.68343 0.46283 0.0
H2535 H 0.10749 0.65977 0.43871 0.0
C2536 C 0.1408 0.71959 0.47897 0.0
C2537 C 0.15419 0.72314 0.46317 0.0
C2538 C 0.13007 0.71031 0.4396 0.0
C2539 C 0.13268 0.70447 0.38454 0.0
C2540 C 0.14617 0.70998 0.36288 0.0
C2541 C 0.15685 0.71921 0.40224 0.0
C2542 C 0.11817 0.6726 0.28508 0.0
C2543 C 0.11332 0.66301 0.33612 0.0
C2544 C 0.12275 0.68626 0.29857 0.0
C2545 C 0.12267 0.6905 0.36344 0.0
C2546 C 0.11598 0.68059 0.4122 0.0
C2547 C 0.11136 0.66696 0.39863 0.0
H2548 H 0.36917 0.45291 0.37948 0.0
H2549 H 0.39338 0.47247 0.55108 0.0
H2550 H 0.3503 0.43773 0.44864 0.0
H2551 H 0.37485 0.45665 0.62174 0.0
H2552 H 0.337 0.46168 0.65958 0.0
H2553 H 0.35786 0.46276 0.62904 0.0
H2554 H 0.33545 0.42363 0.53272 0.0
H2555 H 0.31421 0.42259 0.56411 0.0
C2556 C 0.37066 0.4533 0.43226 0.0
C2557 C 0.38235 0.46396 0.46073 0.0
C2558 C 0.3599 0.44455 0.47222 0.0
C2559 C 0.36087 0.44648 0.54089 0.0
C2560 C 0.37365 0.45532 0.56889 0.0
C2561 C 0.38426 0.46434 0.52882 0.0
C2562 C 0.33643 0.45308 0.6337 0.0
C2563 C 0.32395 0.44225 0.6126 0.0
C2564 C 0.34849 0.4536 0.61667 0.0
C2565 C 0.34839 0.44331 0.57766 0.0
C2566 C 0.33586 0.43181 0.5619 0.0
C2567 C 0.32372 0.43131 0.57904 0.0
H2568 H 0.1577 0.47583 0.16201 0.0
H2569 H 0.18719 0.4796 1.01931 0.0
H2570 H 0.15009 0.48773 0.08818 0.0
H2571 H 0.17985 0.4917 0.94535 0.0
H2572 H 0.15134 0.49622 0.79318 0.0
H2573 H 0.16288 0.48897 0.87126 0.0
H2574 H 0.15132 0.50621 0.03047 0.0
H2575 H 0.13966 0.51323 0.9517 0.0
C2576 C 0.16309 0.47981 0.11621 0.0
C2577 C 0.17361 0.4772 0.09892 0.0
C2578 C 0.15857 0.48658 0.07278 0.0
C2579 C 0.16415 0.49085 1.00901 0.0
C2580 C 0.17499 0.48859 0.99283 0.0
C2581 C 0.17951 0.48187 0.03639 0.0
C2582 C 0.15178 0.49903 0.84444 0.0
C2583 C 0.145 0.50598 0.86474 0.0
C2584 C 0.15834 0.4947 0.89011 0.0
C2585 C 0.15823 0.49681 0.95892 0.0
C2586 C 0.15172 0.50411 0.97884 0.0
C2587 C 0.14521 0.50849 0.93302 0.0
H2588 H 0.54733 0.69276 0.1684 0.0
H2589 H 0.57075 0.71789 1.00735 0.0
H2590 H 0.53506 0.67359 0.09248 0.0
H2591 H 0.55887 0.69882 0.93132 0.0
H2592 H 0.53395 0.66294 0.79244 0.0
H2593 H 0.54129 0.68254 0.86651 0.0
H2594 H 0.53615 0.65687 0.03271 0.0
H2595 H 0.52863 0.63753 0.95883 0.0
C2596 C 0.54954 0.6944 0.11634 0.0
C2597 C 0.55976 0.70726 0.09451 0.0
C2598 C 0.54266 0.6832 0.07224 0.0
C2599 C 0.5458 0.68421 1.00405 0.0
C2600 C 0.55574 0.69728 0.98226 0.0
C2601 C 0.56259 0.70842 0.02635 0.0
C2602 C 0.5338 0.66136 0.84502 0.0
C2603 C 0.53008 0.6483 0.869 0.0
C2604 C 0.53836 0.67277 0.88812 0.0
C2605 C 0.53953 0.67172 0.95733 0.0
C2606 C 0.53532 0.65849 0.98089 0.0
C2607 C 0.53085 0.64718 0.93795 0.0
H2608 H 0.34078 0.87251 0.15688 0.0
H2609 H 0.31581 0.85858 0.98314 0.0
H2610 H 0.36106 0.87941 0.08919 0.0
H2611 H 0.33583 0.86575 0.91512 0.0
H2612 H 0.37377 0.87793 0.7933 0.0
H2613 H 0.35438 0.86579 0.86793 0.0
H2614 H 0.37607 0.89584 1.01858 0.0
H2615 H 0.39529 0.90748 0.94496 0.0
C2616 C 0.33951 0.8704 0.10456 0.0
C2617 C 0.32641 0.86448 0.07644 0.0
C2618 C 0.35127 0.8747 0.06483 0.0
C2619 C 0.35049 0.87342 0.99504 0.0
C2620 C 0.33725 0.8669 0.96785 0.0
C2621 C 0.32558 0.86264 1.00743 0.0
C2622 C 0.37459 0.88163 0.84318 0.0
C2623 C 0.38641 0.89363 0.86285 0.0
C2624 C 0.36326 0.87479 0.88622 0.0
C2625 C 0.36322 0.87969 0.95073 0.0
C2626 C 0.37537 0.89137 0.97069 0.0
C2627 C 0.38658 0.89815 0.92788 0.0
H2628 H 0.32523 0.24041 0.07225 0.0
H2629 H 0.31883 0.20206 0.99601 0.0
H2630 H 0.34872 0.25134 0.03641 0.0
H2631 H 0.3427 0.21304 0.96489 0.0
H2632 H 0.39116 0.23844 0.99384 0.0
H2633 H 0.36731 0.22646 0.02512 0.0
H2634 H 0.36096 0.25554 0.91872 0.0
H2635 H 0.38446 0.26705 0.88281 0.0
C2636 C 0.32864 0.23419 0.04781 0.0
C2637 C 0.31966 0.22018 0.03683 0.0
C2638 C 0.34228 0.24055 0.02764 0.0
C2639 C 0.34764 0.23312 0.9974 0.0
C2640 C 0.33895 0.21908 0.9883 0.0
C2641 C 0.32518 0.21275 1.00692 0.0
C2642 C 0.38476 0.24222 0.97523 0.0
C2643 C 0.3902 0.25396 0.93527 0.0
C2644 C 0.37099 0.23532 0.99398 0.0
C2645 C 0.36219 0.24007 0.97499 0.0
C2646 C 0.36747 0.25168 0.93505 0.0
C2647 C 0.38114 0.25839 0.91483 0.0
H2648 H 0.83518 0.1265 0.93747 0.0
H2649 H 0.79751 0.09189 1.00064 0.0
H2650 H 0.82405 0.14011 0.93381 0.0
H2651 H 0.78624 0.10495 0.991 0.0
H2652 H 0.76969 0.13251 0.02529 0.0
H2653 H 0.78292 0.12119 0.03847 0.0
H2654 H 0.80897 0.14497 0.87859 0.0
H2655 H 0.79608 0.15689 0.86902 0.0
C2656 C 0.82454 0.12172 0.95025 0.0
C2657 C 0.81733 0.10794 0.96878 0.0
C2658 C 0.81807 0.12952 0.94728 0.0
C2659 C 0.80415 0.12376 0.96227 0.0
C2660 C 0.79699 0.10998 0.98035 0.0
C2661 C 0.80347 0.1023 0.98437 0.0
C2662 C 0.77836 0.13541 0.99365 0.0
C2663 C 0.78186 0.14556 0.94618 0.0
C2664 C 0.78591 0.12881 1.0005 0.0
C2665 C 0.79697 0.13187 0.95874 0.0
C2666 C 0.80066 0.14233 0.91222 0.0
C2667 C 0.79325 0.14916 0.90641 0.0
H2668 H 0.87282 0.63694 0.98676 0.0
H2669 H 0.88878 0.64425 0.78959 0.0
H2670 H 0.88591 0.66144 1.00995 0.0
H2671 H 0.90166 0.66865 0.81217 0.0
H2672 H 0.91406 0.71305 0.86162 0.0
H2673 H 0.89858 0.68888 0.83957 0.0
H2674 H 0.91142 0.67866 1.02004 0.0
H2675 H 0.92695 0.70279 0.04181 0.0
C2676 C 0.87891 0.64381 0.94805 0.0
C2677 C 0.87976 0.63868 0.88636 0.0
C2678 C 0.88649 0.65781 0.96143 0.0
C2679 C 0.89488 0.66702 0.91297 0.0
C2680 C 0.89525 0.66189 0.85046 0.0
C2681 C 0.88789 0.6479 0.83755 0.0
C2682 C 0.91351 0.70565 0.89679 0.0
C2683 C 0.92182 0.70987 0.95328 0.0
C2684 C 0.90468 0.69179 0.88401 0.0
C2685 C 0.90374 0.68181 0.92807 0.0
C2686 C 0.9118 0.68607 0.98536 0.0
C2687 C 0.9208 0.6999 0.99752 0.0
H2688 H 0.24215 0.38069 0.79663 0.0
H2689 H 0.27089 0.3904 0.63978 0.0
H2690 H 0.23118 0.35674 0.76682 0.0
H2691 H 0.25943 0.36672 0.60574 0.0
H2692 H 0.243 0.32184 0.57834 0.0
H2693 H 0.25446 0.3452 0.61376 0.0
H2694 H 0.21744 0.33897 0.70463 0.0
H2695 H 0.20649 0.31528 0.67644 0.0
C2696 C 0.24603 0.37768 0.75516 0.0
C2697 C 0.25747 0.38749 0.721 0.0
C2698 C 0.23963 0.36386 0.73721 0.0
C2699 C 0.24418 0.35935 0.68304 0.0
C2700 C 0.25561 0.36935 0.6486 0.0
C2701 C 0.26221 0.3831 0.66779 0.0
C2702 C 0.23725 0.32523 0.60704 0.0
C2703 C 0.22358 0.31617 0.62385 0.0
C2704 C 0.24388 0.33897 0.62658 0.0
C2705 C 0.23708 0.34445 0.6625 0.0
C2706 C 0.22336 0.33545 0.6784 0.0
C2707 C 0.21685 0.32164 0.66041 0.0
H2708 H 0.73365 0.93597 0.57501 0.0
H2709 H 0.72862 0.8971 0.51779 0.0
H2710 H 0.70932 0.92554 0.59136 0.0
H2711 H 0.70428 0.8865 0.53769 0.0
H2712 H 0.65878 0.87348 0.52319 0.0
H2713 H 0.68307 0.88365 0.5014 0.0
H2714 H 0.6918 0.91147 0.66352 0.0
H2715 H 0.66765 0.90145 0.68454 0.0
C2716 C 0.7274 0.9252 0.56541 0.0
C2717 C 0.73333 0.91748 0.54474 0.0
C2718 C 0.71335 0.91912 0.57595 0.0
C2719 C 0.70464 0.90506 0.5666 0.0
C2720 C 0.71051 0.89735 0.54509 0.0
C2721 C 0.7246 0.90345 0.53438 0.0
C2722 C 0.66588 0.88172 0.55445 0.0
C2723 C 0.6611 0.88667 0.60528 0.0
C2724 C 0.67989 0.88758 0.54199 0.0
C2725 C 0.6896 0.89855 0.58016 0.0
C2726 C 0.68477 0.90331 0.6317 0.0
C2727 C 0.67081 0.89751 0.64393 0.0
H2728 H 0.13085 0.82961 0.64258 0.0
H2729 H 0.10382 0.79763 0.50979 0.0
H2730 H 0.14249 0.81729 0.66589 0.0
H2731 H 0.11439 0.78457 0.53954 0.0
H2732 H 0.14187 0.76644 0.56231 0.0
H2733 H 0.13084 0.77938 0.53341 0.0
H2734 H 0.14425 0.80108 0.71855 0.0
H2735 H 0.15616 0.7888 0.74375 0.0
C2736 C 0.12727 0.81997 0.61793 0.0
C2737 C 0.1162 0.81491 0.57354 0.0
C2738 C 0.13387 0.81261 0.63287 0.0
C2739 C 0.12951 0.79963 0.60565 0.0
C2740 C 0.11841 0.79453 0.56144 0.0
C2741 C 0.11204 0.80205 0.54512 0.0
C2742 C 0.1424 0.77398 0.59672 0.0
C2743 C 0.14988 0.77656 0.65536 0.0
C2744 C 0.13595 0.78144 0.58046 0.0
C2745 C 0.13645 0.79153 0.62316 0.0
C2746 C 0.14375 0.7938 0.68279 0.0
C2747 C 0.15051 0.7866 0.69804 0.0
H2748 H 0.65502 0.7721 0.30534 0.0
H2749 H 0.64813 0.78818 0.12696 0.0
H2750 H 0.67943 0.78514 0.28721 0.0
H2751 H 0.67248 0.80052 0.10534 0.0
H2752 H 0.71821 0.82753 0.09391 0.0
H2753 H 0.69436 0.81766 0.12386 0.0
H2754 H 0.69654 0.78578 0.22918 0.0
H2755 H 0.72036 0.79632 0.20526 0.0
C2756 C 0.65879 0.77842 0.26198 0.0
C2757 C 0.64967 0.77912 0.21768 0.0
C2758 C 0.67283 0.78583 0.25089 0.0
C2759 C 0.67821 0.79387 0.19392 0.0
C2760 C 0.66898 0.7947 0.15024 0.0
C2761 C 0.65493 0.78754 0.16233 0.0
C2762 C 0.71366 0.81856 0.12455 0.0
C2763 C 0.72137 0.81268 0.14587 0.0
C2764 C 0.69983 0.81272 0.14105 0.0
C2765 C 0.69321 0.80073 0.17887 0.0
C2766 C 0.70105 0.79507 0.20098 0.0
C2767 C 0.71485 0.80102 0.18569 0.0
H2768 H 0.24472 0.87886 0.24739 0.0
H2769 H 0.25492 0.88292 0.04132 0.0
H2770 H 0.23179 0.89059 0.22924 0.0
H2771 H 0.24192 0.89448 0.023 0.0
H2772 H 0.20716 0.90455 1.00751 0.0
H2773 H 0.21778 0.89062 0.02684 0.0
H2774 H 0.23825 0.91483 0.19798 0.0
H2775 H 0.22776 0.92876 0.17843 0.0
C2776 C 0.24402 0.88206 0.19809 0.0
C2777 C 0.25088 0.87999 0.14587 0.0
C2778 C 0.2367 0.88887 0.18773 0.0
C2779 C 0.23585 0.89353 0.12465 0.0
C2780 C 0.24229 0.89097 0.07207 0.0
C2781 C 0.24979 0.8844 0.08264 0.0
C2782 C 0.21389 0.90685 0.04935 0.0
C2783 C 0.21669 0.91785 0.09103 0.0
C2784 C 0.22001 0.89891 0.06031 0.0
C2785 C 0.22886 0.90159 0.11406 0.0
C2786 C 0.23142 0.91241 0.15648 0.0
C2787 C 0.2255 0.92048 0.14486 0.0
H2788 H 0.13618 0.31827 0.04459 0.0
H2789 H 0.12937 0.31619 0.25405 0.0
H2790 H 0.14949 0.34307 0.05189 0.0
H2791 H 0.14229 0.34086 0.26118 0.0
H2792 H 0.17361 0.38574 0.26392 0.0
H2793 H 0.16429 0.36122 0.25305 0.0
H2794 H 0.14492 0.36148 0.07046 0.0
H2795 H 0.15451 0.38593 0.08042 0.0
C2796 C 0.13767 0.32307 0.09232 0.0
C2797 C 0.13157 0.31519 0.14858 0.0
C2798 C 0.14518 0.33732 0.09647 0.0
C2799 C 0.14691 0.34406 0.1571 0.0
C2800 C 0.14131 0.33611 0.21371 0.0
C2801 C 0.13375 0.32191 0.2095 0.0
C2802 C 0.16754 0.3806 0.22094 0.0
C2803 C 0.16473 0.38786 0.17343 0.0
C2804 C 0.16208 0.36649 0.21497 0.0
C2805 C 0.15374 0.35926 0.16102 0.0
C2806 C 0.15135 0.36663 0.11241 0.0
C2807 C 0.15674 0.38069 0.11857 0.0
H2808 H 0.78944 0.64872 0.32791 0.0
H2809 H 0.79386 0.63495 0.51893 0.0
H2810 H 0.80196 0.67232 0.36673 0.0
H2811 H 0.80606 0.65858 0.55852 0.0
H2812 H 0.80936 0.70129 0.61144 0.0
H2813 H 0.79894 0.6775 0.57534 0.0
H2814 H 0.82647 0.6898 0.41107 0.0
H2815 H 0.83708 0.71347 0.44795 0.0
C2816 C 0.79323 0.65076 0.37802 0.0
C2817 C 0.79078 0.63997 0.42013 0.0
C2818 C 0.80039 0.66428 0.40029 0.0
C2819 C 0.80498 0.66735 0.46583 0.0
C2820 C 0.80262 0.65656 0.50787 0.0
C2821 C 0.79574 0.64304 0.48507 0.0
C2822 C 0.81327 0.69888 0.56804 0.0
C2823 C 0.82412 0.70929 0.53291 0.0
C2824 C 0.80734 0.68526 0.54748 0.0
C2825 C 0.81187 0.68173 0.49027 0.0
C2826 C 0.82272 0.69215 0.45523 0.0
C2827 C 0.82886 0.70571 0.47664 0.0
H2828 H 0.31909 0.10634 0.4425 0.0
H2829 H 0.32139 0.13927 0.55889 0.0
H2830 H 0.34306 0.11958 0.41982 0.0
H2831 H 0.34546 0.15309 0.53173 0.0
H2832 H 0.39164 0.1673 0.53355 0.0
H2833 H 0.36719 0.15617 0.55312 0.0
H2834 H 0.35982 0.13723 0.36118 0.0
H2835 H 0.38421 0.1478 0.34388 0.0
C2836 C 0.32469 0.11644 0.46341 0.0
C2837 C 0.3182 0.12155 0.50377 0.0
C2838 C 0.33852 0.12422 0.44911 0.0
C2839 C 0.34639 0.13754 0.47346 0.0
C2840 C 0.33986 0.14283 0.5126 0.0
C2841 C 0.32597 0.13494 0.5276 0.0
C2842 C 0.38473 0.16089 0.49534 0.0
C2843 C 0.38982 0.15833 0.43739 0.0
C2844 C 0.37068 0.1545 0.50639 0.0
C2845 C 0.36135 0.14554 0.4593 0.0
C2846 C 0.36656 0.14367 0.39972 0.0
C2847 C 0.38057 0.14984 0.38931 0.0
H2848 H 0.86691 0.22477 0.36305 0.0
H2849 H 0.90074 0.26162 0.44061 0.0
H2850 H 0.87713 0.21188 0.40506 0.0
H2851 H 0.91143 0.24904 0.47673 0.0
H2852 H 0.92416 0.2237 0.59053 0.0
H2853 H 0.91177 0.23488 0.55448 0.0
H2854 H 0.89354 0.2055 0.39701 0.0
H2855 H 0.90545 0.1939 0.43645 0.0
C2856 C 0.87655 0.23022 0.38854 0.0
C2857 C 0.88287 0.24441 0.39777 0.0
C2858 C 0.88256 0.22277 0.41208 0.0
C2859 C 0.89518 0.22924 0.44524 0.0
C2860 C 0.90159 0.24345 0.45315 0.0
C2861 C 0.89551 0.25083 0.43063 0.0
C2862 C 0.91731 0.21951 0.54888 0.0
C2863 C 0.91576 0.20787 0.51662 0.0
C2864 C 0.91031 0.22605 0.5273 0.0
C2865 C 0.90173 0.2214 0.47146 0.0
C2866 C 0.89989 0.20945 0.44037 0.0
C2867 C 0.90673 0.20274 0.46293 0.0
H2868 H 0.05863 0.57031 0.23917 0.0
H2869 H 0.05384 0.60152 0.14222 0.0
H2870 H 0.03401 0.55677 0.25215 0.0
H2871 H 0.02943 0.58828 0.15917 0.0
H2872 H 0.99037 0.56883 0.29017 0.0
H2873 H 1.01448 0.58091 0.26627 0.0
H2874 H 1.01113 0.54472 0.17991 0.0
H2875 H 0.98664 0.53262 0.19961 0.0
C2876 C 0.05245 0.5743 0.21978 0.0
C2877 C 0.05854 0.58725 0.19013 0.0
C2878 C 0.03827 0.5665 0.22773 0.0
C2879 C 0.02974 0.57149 0.20742 0.0
C2880 C 0.03571 0.58422 0.17637 0.0
C2881 C 0.04982 0.59188 0.16714 0.0
C2882 C 0.99451 0.56337 0.26452 0.0
C2883 C 0.98616 0.54962 0.24616 0.0
C2884 C 1.00849 0.57036 0.25137 0.0
C2885 C 1.01477 0.56383 0.2209 0.0
C2886 C 1.00663 0.55005 0.20375 0.0
C2887 C 0.99253 0.54309 0.21554 0.0
H2888 H 0.4493 0.46569 0.24506 0.0
H2889 H 0.46057 0.48743 0.42961 0.0
H2890 H 0.46439 0.45665 0.26862 0.0
H2891 H 0.47557 0.47818 0.45378 0.0
H2892 H 0.48562 0.44282 0.49714 0.0
H2893 H 0.47257 0.45434 0.4768 0.0
H2894 H 0.48986 0.46532 0.28265 0.0
H2895 H 0.503 0.45397 0.3032 0.0
C2896 C 0.455 0.46853 0.29075 0.0
C2897 C 0.45368 0.47727 0.3355 0.0
C2898 C 0.46373 0.46342 0.30407 0.0
C2899 C 0.47122 0.46668 0.36312 0.0
C2900 C 0.46992 0.47542 0.40799 0.0
C2901 C 0.46138 0.48078 0.39399 0.0
C2902 C 0.48679 0.44787 0.45049 0.0
C2903 C 0.49544 0.44751 0.40198 0.0
C2904 C 0.47934 0.4545 0.43889 0.0
C2905 C 0.4801 0.4607 0.37792 0.0
C2906 C 0.48895 0.46058 0.32997 0.0
C2907 C 0.4966 0.45419 0.34203 0.0
H2908 H 0.56661 0.04026 0.30141 0.0
H2909 H 0.60261 0.04164 0.22347 0.0
H2910 H 0.55314 0.01668 0.26665 0.0
H2911 H 0.58943 0.01789 0.19389 0.0
H2912 H 0.56217 0.97701 0.10256 0.0
H2913 H 0.5741 1.00133 0.12506 0.0
H2914 H 0.5474 0.99456 0.28947 0.0
H2915 H 0.53515 0.97036 0.26447 0.0
C2916 C 0.57171 0.03563 0.27676 0.0
C2917 C 0.58585 0.04308 0.26597 0.0
C2918 C 0.56396 0.02191 0.25763 0.0
C2919 C 0.57006 0.01508 0.22751 0.0
C2920 C 0.58415 0.02262 0.21593 0.0
C2921 C 0.59185 0.03634 0.23423 0.0
C2922 C 0.55878 0.98076 0.14311 0.0
C2923 C 0.54766 0.97168 0.18151 0.0
C2924 C 0.56572 0.99476 0.15659 0.0
C2925 C 0.56194 1.00017 0.20985 0.0
C2926 C 0.55061 0.99103 0.24741 0.0
C2927 C 0.54354 0.97705 0.23317 0.0
H2928 H 0.474 0.98614 0.72136 0.0
H2929 H 0.43747 0.98049 0.8155 0.0
H2930 H 0.48619 1.0094 0.76231 0.0
H2931 H 0.44918 1.00385 0.85039 0.0
H2932 H 0.47466 0.04318 0.9573 0.0
H2933 H 0.464 0.0195 0.9228 0.0
H2934 H 0.49036 0.03138 0.75319 0.0
H2935 H 0.50146 0.05491 0.79045 0.0
C2936 C 0.46848 0.9898 0.75021 0.0
C2937 C 0.45459 0.98121 0.76399 0.0
C2938 C 0.47547 1.00331 0.77314 0.0
C2939 C 0.46879 1.00877 0.81012 0.0
C2940 C 0.4549 1.00017 0.8234 0.0
C2941 C 0.44801 0.98667 0.8016 0.0
C2942 C 0.47823 0.04067 0.91296 0.0
C2943 C 0.48895 0.05094 0.87688 0.0
C2944 C 0.47202 0.02706 0.89253 0.0
C2945 C 0.4761 0.02329 0.8343 0.0
C2946 C 0.48697 0.03364 0.79871 0.0
C2947 C 0.49335 0.04722 0.81996 0.0
H2948 H 0.98157 0.45497 0.70022 0.0
H2949 H 0.98782 0.45188 0.90758 0.0
H2950 H 1.00605 0.46772 0.68364 0.0
H2951 H 1.01235 0.46511 0.89143 0.0
H2952 H 0.05437 0.47322 0.82568 0.0
H2953 H 0.03006 0.46224 0.84453 0.0
H2954 H 0.02694 0.48865 0.70179 0.0
H2955 H 0.05134 0.49935 0.68099 0.0
C2956 C 0.98815 0.45709 0.74251 0.0
C2957 C 0.98261 0.45222 0.80524 0.0
C2958 C 1.00226 0.46457 0.73305 0.0
C2959 C 1.01131 0.46743 0.78599 0.0
C2960 C 1.00577 0.46295 0.84914 0.0
C2961 C 0.99164 0.45549 0.85864 0.0
C2962 C 0.04853 0.47663 0.79756 0.0
C2963 C 0.05491 0.48711 0.75102 0.0
C2964 C 0.03453 0.47043 0.80924 0.0
C2965 C 0.0264 0.4745 0.7749 0.0
C2966 C 0.03279 0.4851 0.72881 0.0
C2967 C 0.04684 0.49134 0.71722 0.0
H2968 H 0.60059 0.55886 0.7515 0.0
H2969 H 0.56664 0.52786 0.86021 0.0
H2970 H 0.58783 0.57008 0.72844 0.0
H2971 H 0.55329 0.53844 0.83123 0.0
H2972 H 0.5368 0.56806 0.82376 0.0
H2973 H 0.54883 0.55583 0.84853 0.0
H2974 H 0.57139 0.57062 0.66744 0.0
H2975 H 0.5599 0.58344 0.64556 0.0
C2976 C 0.59041 0.55437 0.771 0.0
C2977 C 0.58488 0.54242 0.80902 0.0
C2978 C 0.58287 0.56072 0.75613 0.0
C2979 C 0.56933 0.55525 0.77715 0.0
C2980 C 0.5637 0.5432 0.81457 0.0
C2981 C 0.57136 0.53695 0.83053 0.0
C2982 C 0.54426 0.56857 0.78905 0.0
C2983 C 0.54741 0.57675 0.73274 0.0
C2984 C 0.55118 0.5615 0.80309 0.0
C2985 C 0.56132 0.56221 0.7606 0.0
C2986 C 0.56403 0.57003 0.70283 0.0
C2987 C 0.55731 0.57731 0.68962 0.0
loop_
_geom_bond_atom_site_label_1
_geom_bond_atom_site_label_2
_geom_bond_distance
_geom_bond_site_symmetry_2
_ccdc_geom_bond_type
C0 C1 1.351 . S
C0 N3 1.368 . S
C0 H5 0.931 . S
C1 C0 1.351 . S
C1 N2 1.373 . S
C1 H29 0.930 . S
N2 C1 1.373 . S
N2 C4 1.340 . S
N3 C0 1.368 . S
N3 C4 1.321 . S
N3 Co6 2.135 . S
C4 N2 1.340 . S
C4 N3 1.321 . S
C4 H28 0.930 . S
H5 C0 0.931 . S
Co6 N3 2.135 . S
Co6 N9 2.121 1_554 S
Co6 O14 2.055 . S
Co6 O17 2.039 1_554 S
Co6 N20 2.140 . S
C7 O8 1.227 . S
C7 O17 1.265 . S
O8 C7 1.227 . S
N9 Co6 2.121 1_556 S
N9 C11 1.375 . S
N9 C12 1.313 . S
C10 C11 1.338 . S
C10 N13 1.377 . S
C10 H30 0.930 . S
C11 N9 1.375 . S
C11 C10 1.338 . S
C11 H15 0.931 . S
C12 N9 1.313 . S
C12 N13 1.344 . S
C12 H16 0.930 . S
N13 C10 1.377 . S
N13 C12 1.344 . S
O14 Co6 2.055 . S
O14 C18 1.253 . S
H15 C11 0.931 . S
H16 C12 0.930 . S
O17 Co6 2.039 1_556 S
O17 C7 1.265 . S
C18 O14 1.253 . S
C18 O19 1.227 . S
O19 C18 1.227 . S
N20 Co6 2.140 . S
N20 C23 1.346 . S
N20 C24 1.345 1_554 S
C21 C22 1.387 1_556 S
C21 C25 1.391 . S
C22 C21 1.387 1_554 S
C22 C23 1.369 . S
C22 H31 0.929 . S
C23 N20 1.346 . S
C23 C22 1.369 . S
C23 H26 0.928 . S
C24 N20 1.345 1_556 S
C24 C25 1.371 . S
C24 H27 0.931 . S
C25 C21 1.391 . S
C25 C24 1.371 . S
C25 H32 0.930 . S
H26 C23 0.928 . S
H27 C24 0.931 . S
H28 C4 0.930 . S
H29 C1 0.930 . S
H30 C10 0.930 . S
H31 C22 0.929 . S
H32 C25 0.930 . S
C33 C34 1.351 . S
C33 N36 1.368 . S
C33 H38 0.931 . S
C34 C33 1.351 . S
C34 N35 1.373 . S
C34 H62 0.930 . S
N35 C34 1.373 . S
N35 C37 1.340 . S
N36 C33 1.368 . S
N36 C37 1.321 . S
N36 Co39 2.135 . S
C37 N35 1.340 . S
C37 N36 1.321 . S
C37 H61 0.930 . S
H38 C33 0.931 . S
Co39 N36 2.135 . S
Co39 N42 2.121 1_554 S
Co39 O47 2.055 . S
Co39 O50 2.039 1_554 S
Co39 N53 2.140 . S
C40 O41 1.227 . S
C40 O50 1.265 . S
O41 C40 1.227 . S
N42 Co39 2.121 1_556 S
N42 C44 1.375 . S
N42 C45 1.313 . S
C43 C44 1.338 . S
C43 N46 1.377 . S
C43 H63 0.930 . S
C44 N42 1.375 . S
C44 C43 1.338 . S
C44 H48 0.931 . S
C45 N42 1.313 . S
C45 N46 1.344 . S
C45 H49 0.930 . S
N46 C43 1.377 . S
N46 C45 1.344 . S
O47 Co39 2.055 . S
O47 C51 1.253 . S
H48 C44 0.931 . S
H49 C45 0.930 . S
O50 Co39 2.039 1_556 S
O50 C40 1.265 . S
C51 O47 1.253 . S
C51 O52 1.227 . S
O52 C51 1.227 . S
N53 Co39 2.140 . S
N53 C56 1.346 . S
N53 C57 1.345 1_554 S
C54 C55 1.387 1_556 S
C54 C58 1.391 . S
C55 C54 1.387 1_554 S
C55 C56 1.369 . S
C55 H64 0.929 . S
C56 N53 1.346 . S
C56 C55 1.369 . S
C56 H59 0.928 . S
C57 N53 1.345 1_556 S
C57 C58 1.371 . S
C57 H60 0.931 . S
C58 C54 1.391 . S
C58 C57 1.371 . S
C58 H65 0.930 . S
H59 C56 0.928 . S
H60 C57 0.931 . S
H61 C37 0.930 . S
H62 C34 0.930 . S
H63 C43 0.930 . S
H64 C55 0.929 . S
H65 C58 0.930 . S
C66 C67 1.351 . S
C66 N69 1.368 . S
C66 H71 0.931 . S
C67 C66 1.351 . S
C67 N68 1.373 . S
C67 H95 0.930 . S
N68 C67 1.373 . S
N68 C70 1.340 . S
N69 C66 1.368 . S
N69 C70 1.321 . S
N69 Co72 2.135 . S
C70 N68 1.340 . S
C70 N69 1.321 . S
C70 H94 0.930 . S
H71 C66 0.931 . S
Co72 N69 2.135 . S
Co72 N75 2.121 1_554 S
Co72 O80 2.055 . S
Co72 O83 2.039 1_554 S
Co72 N86 2.140 . S
C73 O74 1.227 . S
C73 O83 1.265 . S
O74 C73 1.227 . S
N75 Co72 2.121 1_556 S
N75 C77 1.375 . S
N75 C78 1.313 . S
C76 C77 1.338 . S
C76 N79 1.377 . S
C76 H96 0.930 . S
C77 N75 1.375 . S
C77 C76 1.338 . S
C77 H81 0.931 . S
C78 N75 1.313 . S
C78 N79 1.344 . S
C78 H82 0.930 . S
N79 C76 1.377 . S
N79 C78 1.344 . S
O80 Co72 2.055 . S
O80 C84 1.253 . S
H81 C77 0.931 . S
H82 C78 0.930 . S
O83 Co72 2.039 1_556 S
O83 C73 1.265 . S
C84 O80 1.253 . S
C84 O85 1.227 . S
O85 C84 1.227 . S
N86 Co72 2.140 . S
N86 C89 1.346 . S
N86 C90 1.345 1_554 S
C87 C88 1.387 1_556 S
C87 C91 1.391 . S
C88 C87 1.387 1_554 S
C88 C89 1.369 . S
C88 H97 0.929 . S
C89 N86 1.346 . S
C89 C88 1.369 . S
C89 H92 0.928 . S
C90 N86 1.345 1_556 S
C90 C91 1.371 . S
C90 H93 0.931 . S
C91 C87 1.391 . S
C91 C90 1.371 . S
C91 H98 0.930 . S
H92 C89 0.928 . S
H93 C90 0.931 . S
H94 C70 0.930 . S
H95 C67 0.930 . S
H96 C76 0.930 . S
H97 C88 0.929 . S
H98 C91 0.930 . S
C99 C100 1.351 . S
C99 N102 1.368 . S
C99 H104 0.931 . S
C100 C99 1.351 . S
C100 N101 1.373 . S
C100 H128 0.930 . S
N101 C100 1.373 . S
N101 C103 1.340 . S
N102 C99 1.368 . S
N102 C103 1.321 . S
N102 Co105 2.135 . S
C103 N101 1.340 . S
C103 N102 1.321 . S
C103 H127 0.930 . S
H104 C99 0.931 . S
Co105 N102 2.135 . S
Co105 N108 2.121 . S
Co105 O113 2.055 . S
Co105 O116 2.039 . S
Co105 N119 2.140 . S
C106 O107 1.227 . S
C106 O116 1.265 . S
O107 C106 1.227 . S
N108 Co105 2.121 . S
N108 C110 1.375 . S
N108 C111 1.313 . S
C109 C110 1.338 . S
C109 N112 1.377 . S
C109 H129 0.930 . S
C110 N108 1.375 . S
C110 C109 1.338 . S
C110 H114 0.931 . S
C111 N108 1.313 . S
C111 N112 1.344 . S
C111 H115 0.930 . S
N112 C109 1.377 . S
N112 C111 1.344 . S
O113 Co105 2.055 . S
O113 C117 1.253 . S
H114 C110 0.931 . S
H115 C111 0.930 . S
O116 Co105 2.039 . S
O116 C106 1.265 . S
C117 O113 1.253 . S
C117 O118 1.227 . S
O118 C117 1.227 . S
N119 Co105 2.140 . S
N119 C122 1.346 . S
N119 C123 1.345 . S
C120 C121 1.387 . S
C120 C124 1.391 . S
C121 C120 1.387 . S
C121 C122 1.369 . S
C121 H130 0.929 . S
C122 N119 1.346 . S
C122 C121 1.369 . S
C122 H125 0.928 . S
C123 N119 1.345 . S
C123 C124 1.371 . S
C123 H126 0.931 . S
C124 C120 1.391 . S
C124 C123 1.371 . S
C124 H131 0.930 . S
H125 C122 0.928 . S
H126 C123 0.931 . S
H127 C103 0.930 . S
H128 C100 0.930 . S
H129 C109 0.930 . S
H130 C121 0.929 . S
H131 C124 0.930 . S
C132 C133 1.351 . S
C132 N135 1.368 . S
C132 H137 0.931 . S
C133 C132 1.351 . S
C133 N134 1.373 . S
C133 H161 0.930 . S
N134 C133 1.373 . S
N134 C136 1.340 . S
N135 C132 1.368 . S
N135 C136 1.321 . S
N135 Co138 2.135 . S
C136 N134 1.340 . S
C136 N135 1.321 . S
C136 H160 0.930 . S
H137 C132 0.931 . S
Co138 N135 2.135 . S
Co138 N141 2.121 . S
Co138 O146 2.055 . S
Co138 O149 2.039 . S
Co138 N152 2.140 . S
C139 O140 1.227 . S
C139 O149 1.265 . S
O140 C139 1.227 . S
N141 Co138 2.121 . S
N141 C143 1.375 . S
N141 C144 1.313 . S
C142 C143 1.338 . S
C142 N145 1.377 . S
C142 H162 0.930 . S
C143 N141 1.375 . S
C143 C142 1.338 . S
C143 H147 0.931 . S
C144 N141 1.313 . S
C144 N145 1.344 . S
C144 H148 0.930 . S
N145 C142 1.377 . S
N145 C144 1.344 . S
O146 Co138 2.055 . S
O146 C150 1.253 . S
H147 C143 0.931 . S
H148 C144 0.930 . S
O149 Co138 2.039 . S
O149 C139 1.265 . S
C150 O146 1.253 . S
C150 O151 1.227 . S
O151 C150 1.227 . S
N152 Co138 2.140 . S
N152 C155 1.346 . S
N152 C156 1.345 . S
C153 C154 1.387 . S
C153 C157 1.391 . S
C154 C153 1.387 . S
C154 C155 1.369 . S
C154 H163 0.929 . S
C155 N152 1.346 . S
C155 C154 1.369 . S
C155 H158 0.928 . S
C156 N152 1.345 . S
C156 C157 1.371 . S
C156 H159 0.931 . S
C157 C153 1.391 . S
C157 C156 1.371 . S
C157 H164 0.930 . S
H158 C155 0.928 . S
H159 C156 0.931 . S
H160 C136 0.930 . S
H161 C133 0.930 . S
H162 C142 0.930 . S
H163 C154 0.929 . S
H164 C157 0.930 . S
C165 C166 1.351 . S
C165 N168 1.368 . S
C165 H170 0.931 . S
C166 C165 1.351 . S
C166 N167 1.373 . S
C166 H194 0.930 . S
N167 C166 1.373 . S
N167 C169 1.340 . S
N168 C165 1.368 . S
N168 C169 1.321 . S
N168 Co171 2.135 . S
C169 N167 1.340 . S
C169 N168 1.321 . S
C169 H193 0.930 . S
H170 C165 0.931 . S
Co171 N168 2.135 . S
Co171 N174 2.121 . S
Co171 O179 2.055 . S
Co171 O182 2.039 . S
Co171 N185 2.140 . S
C172 O173 1.227 . S
C172 O182 1.265 . S
O173 C172 1.227 . S
N174 Co171 2.121 . S
N174 C176 1.375 . S
N174 C177 1.313 . S
C175 C176 1.338 . S
C175 N178 1.377 . S
C175 H195 0.930 . S
C176 N174 1.375 . S
C176 C175 1.338 . S
C176 H180 0.931 . S
C177 N174 1.313 . S
C177 N178 1.344 . S
C177 H181 0.930 . S
N178 C175 1.377 . S
N178 C177 1.344 . S
O179 Co171 2.055 . S
O179 C183 1.253 . S
H180 C176 0.931 . S
H181 C177 0.930 . S
O182 Co171 2.039 . S
O182 C172 1.265 . S
C183 O179 1.253 . S
C183 O184 1.227 . S
O184 C183 1.227 . S
N185 Co171 2.140 . S
N185 C188 1.346 . S
N185 C189 1.345 . S
C186 C187 1.387 . S
C186 C190 1.391 . S
C187 C186 1.387 . S
C187 C188 1.369 . S
C187 H196 0.929 . S
C188 N185 1.346 . S
C188 C187 1.369 . S
C188 H191 0.928 . S
C189 N185 1.345 . S
C189 C190 1.371 . S
C189 H192 0.931 . S
C190 C186 1.391 . S
C190 C189 1.371 . S
C190 H197 0.930 . S
H191 C188 0.928 . S
H192 C189 0.931 . S
H193 C169 0.930 . S
H194 C166 0.930 . S
H195 C175 0.930 . S
H196 C187 0.929 . S
H197 C190 0.930 . S
C198 C199 1.351 . S
C198 N201 1.368 . S
C198 H203 0.931 . S
C199 C198 1.351 . S
C199 N200 1.373 . S
C199 H227 0.930 . S
N200 C199 1.373 . S
N200 C202 1.340 . S
N201 C198 1.368 . S
N201 C202 1.321 . S
N201 Co204 2.135 . S
C202 N200 1.340 . S
C202 N201 1.321 . S
C202 H226 0.930 . S
H203 C198 0.931 . S
Co204 N201 2.135 . S
Co204 N207 2.121 1_554 S
Co204 O212 2.055 . S
Co204 O215 2.039 1_554 S
Co204 N218 2.140 . S
C205 O206 1.227 . S
C205 O215 1.265 . S
O206 C205 1.227 . S
N207 Co204 2.121 1_556 S
N207 C209 1.375 . S
N207 C210 1.313 . S
C208 C209 1.338 . S
C208 N211 1.377 . S
C208 H228 0.930 . S
C209 N207 1.375 . S
C209 C208 1.338 . S
C209 H213 0.931 . S
C210 N207 1.313 . S
C210 N211 1.344 . S
C210 H214 0.930 . S
N211 C208 1.377 . S
N211 C210 1.344 . S
O212 Co204 2.055 . S
O212 C216 1.253 . S
H213 C209 0.931 . S
H214 C210 0.930 . S
O215 Co204 2.039 1_556 S
O215 C205 1.265 . S
C216 O212 1.253 . S
C216 O217 1.227 . S
O217 C216 1.227 . S
N218 Co204 2.140 . S
N218 C221 1.346 . S
N218 C222 1.345 . S
C219 C220 1.387 . S
C219 C223 1.391 . S
C220 C219 1.387 . S
C220 C221 1.369 . S
C220 H229 0.929 . S
C221 N218 1.346 . S
C221 C220 1.369 . S
C221 H224 0.928 . S
C222 N218 1.345 . S
C222 C223 1.371 . S
C222 H225 0.931 . S
C223 C219 1.391 . S
C223 C222 1.371 . S
C223 H230 0.930 . S
H224 C221 0.928 . S
H225 C222 0.931 . S
H226 C202 0.930 . S
H227 C199 0.930 . S
H228 C208 0.930 . S
H229 C220 0.929 . S
H230 C223 0.930 . S
C231 C232 1.351 . S
C231 N234 1.368 . S
C231 H236 0.931 . S
C232 C231 1.351 . S
C232 N233 1.373 . S
C232 H260 0.930 . S
N233 C232 1.373 . S
N233 C235 1.340 . S
N234 C231 1.368 . S
N234 C235 1.321 . S
N234 Co237 2.135 . S
C235 N233 1.340 . S
C235 N234 1.321 . S
C235 H259 0.930 . S
H236 C231 0.931 . S
Co237 N234 2.135 . S
Co237 N240 2.121 1_554 S
Co237 O245 2.055 . S
Co237 O248 2.039 1_554 S
Co237 N251 2.140 . S
C238 O239 1.227 . S
C238 O248 1.265 . S
O239 C238 1.227 . S
N240 Co237 2.121 1_556 S
N240 C242 1.375 . S
N240 C243 1.313 . S
C241 C242 1.338 . S
C241 N244 1.377 . S
C241 H261 0.930 . S
C242 N240 1.375 . S
C242 C241 1.338 . S
C242 H246 0.931 . S
C243 N240 1.313 . S
C243 N244 1.344 . S
C243 H247 0.930 . S
N244 C241 1.377 . S
N244 C243 1.344 . S
O245 Co237 2.055 . S
O245 C249 1.253 . S
H246 C242 0.931 . S
H247 C243 0.930 . S
O248 Co237 2.039 1_556 S
O248 C238 1.265 . S
C249 O245 1.253 . S
C249 O250 1.227 . S
O250 C249 1.227 . S
N251 Co237 2.140 . S
N251 C254 1.346 . S
N251 C255 1.345 . S
C252 C253 1.387 . S
C252 C256 1.391 . S
C253 C252 1.387 . S
C253 C254 1.369 . S
C253 H262 0.929 . S
C254 N251 1.346 . S
C254 C253 1.369 . S
C254 H257 0.928 . S
C255 N251 1.345 . S
C255 C256 1.371 . S
C255 H258 0.931 . S
C256 C252 1.391 . S
C256 C255 1.371 . S
C256 H263 0.930 . S
H257 C254 0.928 . S
H258 C255 0.931 . S
H259 C235 0.930 . S
H260 C232 0.930 . S
H261 C241 0.930 . S
H262 C253 0.929 . S
H263 C256 0.930 . S
C264 C265 1.351 . S
C264 N267 1.368 . S
C264 H269 0.931 . S
C265 C264 1.351 . S
C265 N266 1.373 . S
C265 H293 0.930 . S
N266 C265 1.373 . S
N266 C268 1.340 . S
N267 C264 1.368 . S
N267 C268 1.321 . S
N267 Co270 2.135 . S
C268 N266 1.340 . S
C268 N267 1.321 . S
C268 H292 0.930 . S
H269 C264 0.931 . S
Co270 N267 2.135 . S
Co270 N273 2.121 1_554 S
Co270 O278 2.055 . S
Co270 O281 2.039 1_554 S
Co270 N284 2.140 . S
C271 O272 1.227 . S
C271 O281 1.265 . S
O272 C271 1.227 . S
N273 Co270 2.121 1_556 S
N273 C275 1.375 . S
N273 C276 1.313 . S
C274 C275 1.338 . S
C274 N277 1.377 . S
C274 H294 0.930 . S
C275 N273 1.375 . S
C275 C274 1.338 . S
C275 H279 0.931 . S
C276 N273 1.313 . S
C276 N277 1.344 . S
C276 H280 0.930 . S
N277 C274 1.377 . S
N277 C276 1.344 . S
O278 Co270 2.055 . S
O278 C282 1.253 . S
H279 C275 0.931 . S
H280 C276 0.930 . S
O281 Co270 2.039 1_556 S
O281 C271 1.265 . S
C282 O278 1.253 . S
C282 O283 1.227 . S
O283 C282 1.227 . S
N284 Co270 2.140 . S
N284 C287 1.346 . S
N284 C288 1.345 . S
C285 C286 1.387 . S
C285 C289 1.391 . S
C286 C285 1.387 . S
C286 C287 1.369 . S
C286 H295 0.929 . S
C287 N284 1.346 . S
C287 C286 1.369 . S
C287 H290 0.928 . S
C288 N284 1.345 . S
C288 C289 1.371 . S
C288 H291 0.931 . S
C289 C285 1.391 . S
C289 C288 1.371 . S
C289 H296 0.930 . S
H290 C287 0.928 . S
H291 C288 0.931 . S
H292 C268 0.930 . S
H293 C265 0.930 . S
H294 C274 0.930 . S
H295 C286 0.929 . S
H296 C289 0.930 . S
C297 C298 1.351 . S
C297 N300 1.368 . S
C297 H302 0.931 . S
C298 C297 1.351 . S
C298 N299 1.373 . S
C298 H326 0.930 . S
N299 C298 1.373 . S
N299 C301 1.340 . S
N300 C297 1.368 . S
N300 C301 1.321 . S
N300 Co303 2.135 . S
C301 N299 1.340 . S
C301 N300 1.321 . S
C301 H325 0.930 . S
H302 C297 0.931 . S
Co303 N300 2.135 . S
Co303 N306 2.121 . S
Co303 O311 2.055 . S
Co303 O314 2.039 . S
Co303 N317 2.140 . S
C304 O305 1.227 . S
C304 O314 1.265 . S
O305 C304 1.227 . S
N306 Co303 2.121 . S
N306 C308 1.375 . S
N306 C309 1.313 . S
C307 C308 1.338 . S
C307 N310 1.377 . S
C307 H327 0.930 . S
C308 N306 1.375 . S
C308 C307 1.338 . S
C308 H312 0.931 . S
C309 N306 1.313 . S
C309 N310 1.344 . S
C309 H313 0.930 . S
N310 C307 1.377 . S
N310 C309 1.344 . S
O311 Co303 2.055 . S
O311 C315 1.253 . S
H312 C308 0.931 . S
H313 C309 0.930 . S
O314 Co303 2.039 . S
O314 C304 1.265 . S
C315 O311 1.253 . S
C315 O316 1.227 . S
O316 C315 1.227 . S
N317 Co303 2.140 . S
N317 C320 1.346 . S
N317 C321 1.345 . S
C318 C319 1.387 . S
C318 C322 1.391 . S
C319 C318 1.387 . S
C319 C320 1.369 . S
C319 H328 0.929 . S
C320 N317 1.346 . S
C320 C319 1.369 . S
C320 H323 0.928 . S
C321 N317 1.345 . S
C321 C322 1.371 . S
C321 H324 0.931 . S
C322 C318 1.391 . S
C322 C321 1.371 . S
C322 H329 0.930 . S
H323 C320 0.928 . S
H324 C321 0.931 . S
H325 C301 0.930 . S
H326 C298 0.930 . S
H327 C307 0.930 . S
H328 C319 0.929 . S
H329 C322 0.930 . S
C330 C331 1.351 . S
C330 N333 1.368 . S
C330 H335 0.931 . S
C331 C330 1.351 . S
C331 N332 1.373 . S
C331 H359 0.930 . S
N332 C331 1.373 . S
N332 C334 1.340 . S
N333 C330 1.368 . S
N333 C334 1.321 . S
N333 Co336 2.135 . S
C334 N332 1.340 . S
C334 N333 1.321 . S
C334 H358 0.930 . S
H335 C330 0.931 . S
Co336 N333 2.135 . S
Co336 N339 2.121 . S
Co336 O344 2.055 . S
Co336 O347 2.039 . S
Co336 N350 2.140 . S
C337 O338 1.227 . S
C337 O347 1.265 . S
O338 C337 1.227 . S
N339 Co336 2.121 . S
N339 C341 1.375 . S
N339 C342 1.313 . S
C340 C341 1.338 . S
C340 N343 1.377 . S
C340 H360 0.930 . S
C341 N339 1.375 . S
C341 C340 1.338 . S
C341 H345 0.931 . S
C342 N339 1.313 . S
C342 N343 1.344 . S
C342 H346 0.930 . S
N343 C340 1.377 . S
N343 C342 1.344 . S
O344 Co336 2.055 . S
O344 C348 1.253 . S
H345 C341 0.931 . S
H346 C342 0.930 . S
O347 Co336 2.039 . S
O347 C337 1.265 . S
C348 O344 1.253 . S
C348 O349 1.227 . S
O349 C348 1.227 . S
N350 Co336 2.140 . S
N350 C353 1.346 . S
N350 C354 1.345 . S
C351 C352 1.387 . S
C351 C355 1.391 . S
C352 C351 1.387 . S
C352 C353 1.369 . S
C352 H361 0.929 . S
C353 N350 1.346 . S
C353 C352 1.369 . S
C353 H356 0.928 . S
C354 N350 1.345 . S
C354 C355 1.371 . S
C354 H357 0.931 . S
C355 C351 1.391 . S
C355 C354 1.371 . S
C355 H362 0.930 . S
H356 C353 0.928 . S
H357 C354 0.931 . S
H358 C334 0.930 . S
H359 C331 0.930 . S
H360 C340 0.930 . S
H361 C352 0.929 . S
H362 C355 0.930 . S
C363 C364 1.351 . S
C363 N366 1.368 . S
C363 H368 0.931 . S
C364 C363 1.351 . S
C364 N365 1.373 . S
C364 H392 0.930 . S
N365 C364 1.373 . S
N365 C367 1.340 . S
N366 C363 1.368 . S
N366 C367 1.321 . S
N366 Co369 2.135 . S
C367 N365 1.340 . S
C367 N366 1.321 . S
C367 H391 0.930 . S
H368 C363 0.931 . S
Co369 N366 2.135 . S
Co369 N372 2.121 . S
Co369 O377 2.055 . S
Co369 O380 2.039 . S
Co369 N383 2.140 . S
C370 O371 1.227 . S
C370 O380 1.265 . S
O371 C370 1.227 . S
N372 Co369 2.121 . S
N372 C374 1.375 . S
N372 C375 1.313 . S
C373 C374 1.338 . S
C373 N376 1.377 . S
C373 H393 0.930 . S
C374 N372 1.375 . S
C374 C373 1.338 . S
C374 H378 0.931 . S
C375 N372 1.313 . S
C375 N376 1.344 . S
C375 H379 0.930 . S
N376 C373 1.377 . S
N376 C375 1.344 . S
O377 Co369 2.055 . S
O377 C381 1.253 . S
H378 C374 0.931 . S
H379 C375 0.930 . S
O380 Co369 2.039 . S
O380 C370 1.265 . S
C381 O377 1.253 . S
C381 O382 1.227 . S
O382 C381 1.227 . S
N383 Co369 2.140 . S
N383 C386 1.346 . S
N383 C387 1.345 . S
C384 C385 1.387 . S
C384 C388 1.391 . S
C385 C384 1.387 . S
C385 C386 1.369 . S
C385 H394 0.929 . S
C386 N383 1.346 . S
C386 C385 1.369 . S
C386 H389 0.928 . S
C387 N383 1.345 . S
C387 C388 1.371 . S
C387 H390 0.931 . S
C388 C384 1.391 . S
C388 C387 1.371 . S
C388 H395 0.930 . S
H389 C386 0.928 . S
H390 C387 0.931 . S
H391 C367 0.930 . S
H392 C364 0.930 . S
H393 C373 0.930 . S
H394 C385 0.929 . S
H395 C388 0.930 . S
C396 C397 1.351 . S
C396 N399 1.368 . S
C396 H401 0.931 . S
C397 C396 1.351 . S
C397 N398 1.373 . S
C397 H425 0.930 . S
N398 C397 1.373 . S
N398 C400 1.340 . S
N399 C396 1.368 . S
N399 C400 1.321 . S
N399 Co402 2.135 . S
C400 N398 1.340 . S
C400 N399 1.321 . S
C400 H424 0.930 . S
H401 C396 0.931 . S
Co402 N399 2.135 . S
Co402 N405 2.121 . S
Co402 O410 2.055 . S
Co402 O413 2.039 . S
Co402 N416 2.140 . S
C403 O404 1.227 . S
C403 O413 1.265 . S
O404 C403 1.227 . S
N405 Co402 2.121 . S
N405 C407 1.375 . S
N405 C408 1.313 . S
C406 C407 1.338 . S
C406 N409 1.377 . S
C406 H426 0.930 . S
C407 N405 1.375 . S
C407 C406 1.338 . S
C407 H411 0.931 . S
C408 N405 1.313 . S
C408 N409 1.344 . S
C408 H412 0.930 . S
N409 C406 1.377 . S
N409 C408 1.344 . S
O410 Co402 2.055 . S
O410 C414 1.253 . S
H411 C407 0.931 . S
H412 C408 0.930 . S
O413 Co402 2.039 . S
O413 C403 1.265 . S
C414 O410 1.253 . S
C414 O415 1.227 . S
O415 C414 1.227 . S
N416 Co402 2.140 . S
N416 C419 1.346 . S
N416 C420 1.345 . S
C417 C418 1.387 . S
C417 C421 1.391 . S
C418 C417 1.387 . S
C418 C419 1.369 . S
C418 H427 0.929 . S
C419 N416 1.346 . S
C419 C418 1.369 . S
C419 H422 0.928 . S
C420 N416 1.345 . S
C420 C421 1.371 . S
C420 H423 0.931 . S
C421 C417 1.391 . S
C421 C420 1.371 . S
C421 H428 0.930 . S
H422 C419 0.928 . S
H423 C420 0.931 . S
H424 C400 0.930 . S
H425 C397 0.930 . S
H426 C406 0.930 . S
H427 C418 0.929 . S
H428 C421 0.930 . S
C429 C430 1.351 . S
C429 N432 1.368 . S
C429 H434 0.931 . S
C430 C429 1.351 . S
C430 N431 1.373 . S
C430 H458 0.930 . S
N431 C430 1.373 . S
N431 C433 1.340 . S
N432 C429 1.368 . S
N432 C433 1.321 . S
N432 Co435 2.135 . S
C433 N431 1.340 . S
C433 N432 1.321 . S
C433 H457 0.930 . S
H434 C429 0.931 . S
Co435 N432 2.135 . S
Co435 N438 2.121 . S
Co435 O443 2.055 . S
Co435 O446 2.039 . S
Co435 N449 2.140 . S
C436 O437 1.227 . S
C436 O446 1.265 . S
O437 C436 1.227 . S
N438 Co435 2.121 . S
N438 C440 1.375 . S
N438 C441 1.313 . S
C439 C440 1.338 . S
C439 N442 1.377 . S
C439 H459 0.930 . S
C440 N438 1.375 . S
C440 C439 1.338 . S
C440 H444 0.931 . S
C441 N438 1.313 . S
C441 N442 1.344 . S
C441 H445 0.930 . S
N442 C439 1.377 . S
N442 C441 1.344 . S
O443 Co435 2.055 . S
O443 C447 1.253 . S
H444 C440 0.931 . S
H445 C441 0.930 . S
O446 Co435 2.039 . S
O446 C436 1.265 . S
C447 O443 1.253 . S
C447 O448 1.227 . S
O448 C447 1.227 . S
N449 Co435 2.140 . S
N449 C452 1.346 . S
N449 C453 1.345 . S
C450 C451 1.387 . S
C450 C454 1.391 . S
C451 C450 1.387 . S
C451 C452 1.369 . S
C451 H460 0.929 . S
C452 N449 1.346 . S
C452 C451 1.369 . S
C452 H455 0.928 . S
C453 N449 1.345 . S
C453 C454 1.371 . S
C453 H456 0.931 . S
C454 C450 1.391 . S
C454 C453 1.371 . S
C454 H461 0.930 . S
H455 C452 0.928 . S
H456 C453 0.931 . S
H457 C433 0.930 . S
H458 C430 0.930 . S
H459 C439 0.930 . S
H460 C451 0.929 . S
H461 C454 0.930 . S
C462 C463 1.351 . S
C462 N465 1.368 . S
C462 H467 0.931 . S
C463 C462 1.351 . S
C463 N464 1.373 . S
C463 H491 0.930 . S
N464 C463 1.373 . S
N464 C466 1.340 . S
N465 C462 1.368 . S
N465 C466 1.321 . S
N465 Co468 2.135 . S
C466 N464 1.340 . S
C466 N465 1.321 . S
C466 H490 0.930 . S
H467 C462 0.931 . S
Co468 N465 2.135 . S
Co468 N471 2.121 . S
Co468 O476 2.055 . S
Co468 O479 2.039 . S
Co468 N482 2.140 . S
C469 O470 1.227 . S
C469 O479 1.265 . S
O470 C469 1.227 . S
N471 Co468 2.121 . S
N471 C473 1.375 . S
N471 C474 1.313 . S
C472 C473 1.338 . S
C472 N475 1.377 . S
C472 H492 0.930 . S
C473 N471 1.375 . S
C473 C472 1.338 . S
C473 H477 0.931 . S
C474 N471 1.313 . S
C474 N475 1.344 . S
C474 H478 0.930 . S
N475 C472 1.377 . S
N475 C474 1.344 . S
O476 Co468 2.055 . S
O476 C480 1.253 . S
H477 C473 0.931 . S
H478 C474 0.930 . S
O479 Co468 2.039 . S
O479 C469 1.265 . S
C480 O476 1.253 . S
C480 O481 1.227 . S
O481 C480 1.227 . S
N482 Co468 2.140 . S
N482 C485 1.346 . S
N482 C486 1.345 . S
C483 C484 1.387 . S
C483 C487 1.391 . S
C484 C483 1.387 . S
C484 C485 1.369 . S
C484 H493 0.929 . S
C485 N482 1.346 . S
C485 C484 1.369 . S
C485 H488 0.928 . S
C486 N482 1.345 . S
C486 C487 1.371 . S
C486 H489 0.931 . S
C487 C483 1.391 . S
C487 C486 1.371 . S
C487 H494 0.930 . S
H488 C485 0.928 . S
H489 C486 0.931 . S
H490 C466 0.930 . S
H491 C463 0.930 . S
H492 C472 0.930 . S
H493 C484 0.929 . S
H494 C487 0.930 . S
C495 C496 1.351 . S
C495 N498 1.368 . S
C495 H500 0.931 . S
C496 C495 1.351 . S
C496 N497 1.373 . S
C496 H524 0.930 . S
N497 C496 1.373 . S
N497 C499 1.340 . S
N498 C495 1.368 . S
N498 C499 1.321 . S
N498 Co501 2.135 . S
C499 N497 1.340 . S
C499 N498 1.321 . S
C499 H523 0.930 . S
H500 C495 0.931 . S
Co501 N498 2.135 . S
Co501 N504 2.121 . S
Co501 O509 2.055 . S
Co501 O512 2.039 . S
Co501 N515 2.140 . S
C502 O503 1.227 . S
C502 O512 1.265 . S
O503 C502 1.227 . S
N504 Co501 2.121 . S
N504 C506 1.375 1_556 S
N504 C507 1.313 . S
C505 C506 1.338 . S
C505 N508 1.377 . S
C505 H525 0.930 . S
C506 N504 1.375 1_554 S
C506 C505 1.338 . S
C506 H510 0.931 . S
C507 N504 1.313 . S
C507 N508 1.344 1_556 S
C507 H511 0.930 . S
N508 C505 1.377 . S
N508 C507 1.344 1_554 S
O509 Co501 2.055 . S
O509 C513 1.253 . S
H510 C506 0.931 . S
H511 C507 0.930 . S
O512 Co501 2.039 . S
O512 C502 1.265 . S
C513 O509 1.253 . S
C513 O514 1.227 . S
O514 C513 1.227 . S
N515 Co501 2.140 . S
N515 C518 1.346 . S
N515 C519 1.345 . S
C516 C517 1.387 . S
C516 C520 1.391 . S
C517 C516 1.387 . S
C517 C518 1.369 . S
C517 H526 0.929 . S
C518 N515 1.346 . S
C518 C517 1.369 . S
C518 H521 0.928 . S
C519 N515 1.345 . S
C519 C520 1.371 . S
C519 H522 0.931 . S
C520 C516 1.391 . S
C520 C519 1.371 . S
C520 H527 0.930 . S
H521 C518 0.928 . S
H522 C519 0.931 . S
H523 C499 0.930 . S
H524 C496 0.930 . S
H525 C505 0.930 . S
H526 C517 0.929 . S
H527 C520 0.930 . S
C528 C529 1.351 . S
C528 N531 1.368 . S
C528 H533 0.931 . S
C529 C528 1.351 . S
C529 N530 1.373 . S
C529 H557 0.930 . S
N530 C529 1.373 . S
N530 C532 1.340 . S
N531 C528 1.368 . S
N531 C532 1.321 . S
N531 Co534 2.135 . S
C532 N530 1.340 . S
C532 N531 1.321 . S
C532 H556 0.930 . S
H533 C528 0.931 . S
Co534 N531 2.135 . S
Co534 N537 2.121 . S
Co534 O542 2.055 . S
Co534 O545 2.039 . S
Co534 N548 2.140 . S
C535 O536 1.227 . S
C535 O545 1.265 . S
O536 C535 1.227 . S
N537 Co534 2.121 . S
N537 C539 1.375 1_556 S
N537 C540 1.313 . S
C538 C539 1.338 . S
C538 N541 1.377 . S
C538 H558 0.930 . S
C539 N537 1.375 1_554 S
C539 C538 1.338 . S
C539 H543 0.931 . S
C540 N537 1.313 . S
C540 N541 1.344 1_556 S
C540 H544 0.930 . S
N541 C538 1.377 . S
N541 C540 1.344 1_554 S
O542 Co534 2.055 . S
O542 C546 1.253 . S
H543 C539 0.931 . S
H544 C540 0.930 . S
O545 Co534 2.039 . S
O545 C535 1.265 . S
C546 O542 1.253 . S
C546 O547 1.227 . S
O547 C546 1.227 . S
N548 Co534 2.140 . S
N548 C551 1.346 . S
N548 C552 1.345 . S
C549 C550 1.387 . S
C549 C553 1.391 . S
C550 C549 1.387 . S
C550 C551 1.369 . S
C550 H559 0.929 . S
C551 N548 1.346 . S
C551 C550 1.369 . S
C551 H554 0.928 . S
C552 N548 1.345 . S
C552 C553 1.371 . S
C552 H555 0.931 . S
C553 C549 1.391 . S
C553 C552 1.371 . S
C553 H560 0.930 . S
H554 C551 0.928 . S
H555 C552 0.931 . S
H556 C532 0.930 . S
H557 C529 0.930 . S
H558 C538 0.930 . S
H559 C550 0.929 . S
H560 C553 0.930 . S
C561 C562 1.351 . S
C561 N564 1.368 . S
C561 H566 0.931 . S
C562 C561 1.351 . S
C562 N563 1.373 . S
C562 H590 0.930 . S
N563 C562 1.373 . S
N563 C565 1.340 . S
N564 C561 1.368 . S
N564 C565 1.321 . S
N564 Co567 2.135 . S
C565 N563 1.340 . S
C565 N564 1.321 . S
C565 H589 0.930 . S
H566 C561 0.931 . S
Co567 N564 2.135 . S
Co567 N570 2.121 . S
Co567 O575 2.055 . S
Co567 O578 2.039 . S
Co567 N581 2.140 . S
C568 O569 1.227 . S
C568 O578 1.265 . S
O569 C568 1.227 . S
N570 Co567 2.121 . S
N570 C572 1.375 1_556 S
N570 C573 1.313 . S
C571 C572 1.338 . S
C571 N574 1.377 . S
C571 H591 0.930 . S
C572 N570 1.375 1_554 S
C572 C571 1.338 . S
C572 H576 0.931 . S
C573 N570 1.313 . S
C573 N574 1.344 1_556 S
C573 H577 0.930 . S
N574 C571 1.377 . S
N574 C573 1.344 1_554 S
O575 Co567 2.055 . S
O575 C579 1.253 . S
H576 C572 0.931 . S
H577 C573 0.930 . S
O578 Co567 2.039 . S
O578 C568 1.265 . S
C579 O575 1.253 . S
C579 O580 1.227 . S
O580 C579 1.227 . S
N581 Co567 2.140 . S
N581 C584 1.346 . S
N581 C585 1.345 . S
C582 C583 1.387 . S
C582 C586 1.391 . S
C583 C582 1.387 . S
C583 C584 1.369 . S
C583 H592 0.929 . S
C584 N581 1.346 . S
C584 C583 1.369 . S
C584 H587 0.928 . S
C585 N581 1.345 . S
C585 C586 1.371 . S
C585 H588 0.931 . S
C586 C582 1.391 . S
C586 C585 1.371 . S
C586 H593 0.930 . S
H587 C584 0.928 . S
H588 C585 0.931 . S
H589 C565 0.930 . S
H590 C562 0.930 . S
H591 C571 0.930 . S
H592 C583 0.929 . S
H593 C586 0.930 . S
C594 C595 1.351 . S
C594 N597 1.368 . S
C594 H599 0.931 . S
C595 C594 1.351 . S
C595 N596 1.373 . S
C595 H623 0.930 . S
N596 C595 1.373 . S
N596 C598 1.340 . S
N597 C594 1.368 . S
N597 C598 1.321 . S
N597 Co600 2.135 . S
C598 N596 1.340 . S
C598 N597 1.321 . S
C598 H622 0.930 . S
H599 C594 0.931 . S
Co600 N597 2.135 . S
Co600 N603 2.121 . S
Co600 O608 2.055 . S
Co600 O611 2.039 . S
Co600 N614 2.140 . S
C601 O602 1.227 . S
C601 O611 1.265 . S
O602 C601 1.227 . S
N603 Co600 2.121 . S
N603 C605 1.375 . S
N603 C606 1.313 . S
C604 C605 1.338 . S
C604 N607 1.377 . S
C604 H624 0.930 . S
C605 N603 1.375 . S
C605 C604 1.338 . S
C605 H609 0.931 . S
C606 N603 1.313 . S
C606 N607 1.344 . S
C606 H610 0.930 . S
N607 C604 1.377 . S
N607 C606 1.344 . S
O608 Co600 2.055 . S
O608 C612 1.253 . S
H609 C605 0.931 . S
H610 C606 0.930 . S
O611 Co600 2.039 . S
O611 C601 1.265 . S
C612 O608 1.253 . S
C612 O613 1.227 . S
O613 C612 1.227 . S
N614 Co600 2.140 . S
N614 C617 1.346 . S
N614 C618 1.345 . S
C615 C616 1.387 . S
C615 C619 1.391 . S
C616 C615 1.387 . S
C616 C617 1.369 . S
C616 H625 0.929 . S
C617 N614 1.346 . S
C617 C616 1.369 . S
C617 H620 0.928 . S
C618 N614 1.345 . S
C618 C619 1.371 . S
C618 H621 0.931 . S
C619 C615 1.391 . S
C619 C618 1.371 . S
C619 H626 0.930 . S
H620 C617 0.928 . S
H621 C618 0.931 . S
H622 C598 0.930 . S
H623 C595 0.930 . S
H624 C604 0.930 . S
H625 C616 0.929 . S
H626 C619 0.930 . S
C627 C628 1.351 . S
C627 N630 1.368 . S
C627 H632 0.931 . S
C628 C627 1.351 . S
C628 N629 1.373 . S
C628 H656 0.930 . S
N629 C628 1.373 . S
N629 C631 1.340 . S
N630 C627 1.368 . S
N630 C631 1.321 . S
N630 Co633 2.135 . S
C631 N629 1.340 . S
C631 N630 1.321 . S
C631 H655 0.930 . S
H632 C627 0.931 . S
Co633 N630 2.135 . S
Co633 N636 2.121 . S
Co633 O641 2.055 . S
Co633 O644 2.039 . S
Co633 N647 2.140 . S
C634 O635 1.227 . S
C634 O644 1.265 . S
O635 C634 1.227 . S
N636 Co633 2.121 . S
N636 C638 1.375 . S
N636 C639 1.313 . S
C637 C638 1.338 . S
C637 N640 1.377 . S
C637 H657 0.930 . S
C638 N636 1.375 . S
C638 C637 1.338 . S
C638 H642 0.931 . S
C639 N636 1.313 . S
C639 N640 1.344 . S
C639 H643 0.930 . S
N640 C637 1.377 . S
N640 C639 1.344 . S
O641 Co633 2.055 . S
O641 C645 1.253 . S
H642 C638 0.931 . S
H643 C639 0.930 . S
O644 Co633 2.039 . S
O644 C634 1.265 . S
C645 O641 1.253 . S
C645 O646 1.227 . S
O646 C645 1.227 . S
N647 Co633 2.140 . S
N647 C650 1.346 . S
N647 C651 1.345 . S
C648 C649 1.387 . S
C648 C652 1.391 . S
C649 C648 1.387 . S
C649 C650 1.369 . S
C649 H658 0.929 . S
C650 N647 1.346 . S
C650 C649 1.369 . S
C650 H653 0.928 . S
C651 N647 1.345 . S
C651 C652 1.371 . S
C651 H654 0.931 . S
C652 C648 1.391 . S
C652 C651 1.371 . S
C652 H659 0.930 . S
H653 C650 0.928 . S
H654 C651 0.931 . S
H655 C631 0.930 . S
H656 C628 0.930 . S
H657 C637 0.930 . S
H658 C649 0.929 . S
H659 C652 0.930 . S
C660 C661 1.351 . S
C660 N663 1.368 . S
C660 H665 0.931 . S
C661 C660 1.351 . S
C661 N662 1.373 . S
C661 H689 0.930 . S
N662 C661 1.373 . S
N662 C664 1.340 . S
N663 C660 1.368 . S
N663 C664 1.321 . S
N663 Co666 2.135 . S
C664 N662 1.340 . S
C664 N663 1.321 . S
C664 H688 0.930 . S
H665 C660 0.931 . S
Co666 N663 2.135 . S
Co666 N669 2.121 . S
Co666 O674 2.055 . S
Co666 O677 2.039 . S
Co666 N680 2.140 . S
C667 O668 1.227 . S
C667 O677 1.265 . S
O668 C667 1.227 . S
N669 Co666 2.121 . S
N669 C671 1.375 . S
N669 C672 1.313 . S
C670 C671 1.338 . S
C670 N673 1.377 . S
C670 H690 0.930 . S
C671 N669 1.375 . S
C671 C670 1.338 . S
C671 H675 0.931 . S
C672 N669 1.313 . S
C672 N673 1.344 . S
C672 H676 0.930 . S
N673 C670 1.377 . S
N673 C672 1.344 . S
O674 Co666 2.055 . S
O674 C678 1.253 . S
H675 C671 0.931 . S
H676 C672 0.930 . S
O677 Co666 2.039 . S
O677 C667 1.265 . S
C678 O674 1.253 . S
C678 O679 1.227 . S
O679 C678 1.227 . S
N680 Co666 2.140 . S
N680 C683 1.346 . S
N680 C684 1.345 . S
C681 C682 1.387 . S
C681 C685 1.391 . S
C682 C681 1.387 . S
C682 C683 1.369 . S
C682 H691 0.929 . S
C683 N680 1.346 . S
C683 C682 1.369 . S
C683 H686 0.928 . S
C684 N680 1.345 . S
C684 C685 1.371 . S
C684 H687 0.931 . S
C685 C681 1.391 . S
C685 C684 1.371 . S
C685 H692 0.930 . S
H686 C683 0.928 . S
H687 C684 0.931 . S
H688 C664 0.930 . S
H689 C661 0.930 . S
H690 C670 0.930 . S
H691 C682 0.929 . S
H692 C685 0.930 . S
C693 C694 1.351 . S
C693 N696 1.368 . S
C693 H698 0.931 . S
C694 C693 1.351 . S
C694 N695 1.373 . S
C694 H722 0.930 . S
N695 C694 1.373 . S
N695 C697 1.340 . S
N696 C693 1.368 . S
N696 C697 1.321 . S
N696 Co699 2.135 . S
C697 N695 1.340 . S
C697 N696 1.321 . S
C697 H721 0.930 . S
H698 C693 0.931 . S
Co699 N696 2.135 . S
Co699 N702 2.121 . S
Co699 O707 2.055 . S
Co699 O710 2.039 . S
Co699 N713 2.140 . S
C700 O701 1.227 . S
C700 O710 1.265 . S
O701 C700 1.227 . S
N702 Co699 2.121 . S
N702 C704 1.375 . S
N702 C705 1.313 . S
C703 C704 1.338 1_554 S
C703 N706 1.377 1_554 S
C703 H723 0.930 . S
C704 N702 1.375 . S
C704 C703 1.338 1_556 S
C704 H708 0.931 . S
C705 N702 1.313 . S
C705 N706 1.344 . S
C705 H709 0.930 . S
N706 C703 1.377 1_556 S
N706 C705 1.344 . S
O707 Co699 2.055 . S
O707 C711 1.253 . S
H708 C704 0.931 . S
H709 C705 0.930 . S
O710 Co699 2.039 . S
O710 C700 1.265 . S
C711 O707 1.253 . S
C711 O712 1.227 . S
O712 C711 1.227 . S
N713 Co699 2.140 . S
N713 C716 1.346 . S
N713 C717 1.345 . S
C714 C715 1.387 . S
C714 C718 1.391 . S
C715 C714 1.387 . S
C715 C716 1.369 . S
C715 H724 0.929 . S
C716 N713 1.346 . S
C716 C715 1.369 . S
C716 H719 0.928 . S
C717 N713 1.345 . S
C717 C718 1.371 . S
C717 H720 0.931 . S
C718 C714 1.391 . S
C718 C717 1.371 . S
C718 H725 0.930 . S
H719 C716 0.928 . S
H720 C717 0.931 . S
H721 C697 0.930 . S
H722 C694 0.930 . S
H723 C703 0.930 . S
H724 C715 0.929 . S
H725 C718 0.930 . S
C726 C727 1.351 . S
C726 N729 1.368 . S
C726 H731 0.931 . S
C727 C726 1.351 . S
C727 N728 1.373 . S
C727 H755 0.930 . S
N728 C727 1.373 . S
N728 C730 1.340 . S
N729 C726 1.368 . S
N729 C730 1.321 . S
N729 Co732 2.135 . S
C730 N728 1.340 . S
C730 N729 1.321 . S
C730 H754 0.930 . S
H731 C726 0.931 . S
Co732 N729 2.135 . S
Co732 N735 2.121 . S
Co732 O740 2.055 . S
Co732 O743 2.039 . S
Co732 N746 2.140 . S
C733 O734 1.227 . S
C733 O743 1.265 . S
O734 C733 1.227 . S
N735 Co732 2.121 . S
N735 C737 1.375 . S
N735 C738 1.313 . S
C736 C737 1.338 1_554 S
C736 N739 1.377 1_554 S
C736 H756 0.930 . S
C737 N735 1.375 . S
C737 C736 1.338 1_556 S
C737 H741 0.931 . S
C738 N735 1.313 . S
C738 N739 1.344 . S
C738 H742 0.930 . S
N739 C736 1.377 1_556 S
N739 C738 1.344 . S
O740 Co732 2.055 . S
O740 C744 1.253 . S
H741 C737 0.931 . S
H742 C738 0.930 . S
O743 Co732 2.039 . S
O743 C733 1.265 . S
C744 O740 1.253 . S
C744 O745 1.227 . S
O745 C744 1.227 . S
N746 Co732 2.140 . S
N746 C749 1.346 . S
N746 C750 1.345 . S
C747 C748 1.387 . S
C747 C751 1.391 . S
C748 C747 1.387 . S
C748 C749 1.369 . S
C748 H757 0.929 . S
C749 N746 1.346 . S
C749 C748 1.369 . S
C749 H752 0.928 . S
C750 N746 1.345 . S
C750 C751 1.371 . S
C750 H753 0.931 . S
C751 C747 1.391 . S
C751 C750 1.371 . S
C751 H758 0.930 . S
H752 C749 0.928 . S
H753 C750 0.931 . S
H754 C730 0.930 . S
H755 C727 0.930 . S
H756 C736 0.930 . S
H757 C748 0.929 . S
H758 C751 0.930 . S
C759 C760 1.351 . S
C759 N762 1.368 . S
C759 H764 0.931 . S
C760 C759 1.351 . S
C760 N761 1.373 . S
C760 H788 0.930 . S
N761 C760 1.373 . S
N761 C763 1.340 . S
N762 C759 1.368 . S
N762 C763 1.321 . S
N762 Co765 2.135 . S
C763 N761 1.340 . S
C763 N762 1.321 . S
C763 H787 0.930 . S
H764 C759 0.931 . S
Co765 N762 2.135 . S
Co765 N768 2.121 . S
Co765 O773 2.055 . S
Co765 O776 2.039 . S
Co765 N779 2.140 . S
C766 O767 1.227 . S
C766 O776 1.265 . S
O767 C766 1.227 . S
N768 Co765 2.121 . S
N768 C770 1.375 . S
N768 C771 1.313 . S
C769 C770 1.338 1_554 S
C769 N772 1.377 1_554 S
C769 H789 0.930 . S
C770 N768 1.375 . S
C770 C769 1.338 1_556 S
C770 H774 0.931 . S
C771 N768 1.313 . S
C771 N772 1.344 . S
C771 H775 0.930 . S
N772 C769 1.377 1_556 S
N772 C771 1.344 . S
O773 Co765 2.055 . S
O773 C777 1.253 . S
H774 C770 0.931 . S
H775 C771 0.930 . S
O776 Co765 2.039 . S
O776 C766 1.265 . S
C777 O773 1.253 . S
C777 O778 1.227 . S
O778 C777 1.227 . S
N779 Co765 2.140 . S
N779 C782 1.346 . S
N779 C783 1.345 . S
C780 C781 1.387 . S
C780 C784 1.391 . S
C781 C780 1.387 . S
C781 C782 1.369 . S
C781 H790 0.929 . S
C782 N779 1.346 . S
C782 C781 1.369 . S
C782 H785 0.928 . S
C783 N779 1.345 . S
C783 C784 1.371 . S
C783 H786 0.931 . S
C784 C780 1.391 . S
C784 C783 1.371 . S
C784 H791 0.930 . S
H785 C782 0.928 . S
H786 C783 0.931 . S
H787 C763 0.930 . S
H788 C760 0.930 . S
H789 C769 0.930 . S
H790 C781 0.929 . S
H791 C784 0.930 . S
C792 C793 1.351 . S
C792 N795 1.368 . S
C792 H797 0.931 . S
C793 C792 1.351 . S
C793 N794 1.373 . S
C793 H821 0.930 . S
N794 C793 1.373 . S
N794 C796 1.340 . S
N795 C792 1.368 . S
N795 C796 1.321 . S
N795 Co798 2.135 . S
C796 N794 1.340 . S
C796 N795 1.321 . S
C796 H820 0.930 . S
H797 C792 0.931 . S
Co798 N795 2.135 . S
Co798 N801 2.121 . S
Co798 O806 2.055 . S
Co798 O809 2.039 . S
Co798 N812 2.140 . S
C799 O800 1.227 . S
C799 O809 1.265 . S
O800 C799 1.227 . S
N801 Co798 2.121 . S
N801 C803 1.375 . S
N801 C804 1.313 . S
C802 C803 1.338 . S
C802 N805 1.377 . S
C802 H822 0.930 . S
C803 N801 1.375 . S
C803 C802 1.338 . S
C803 H807 0.931 . S
C804 N801 1.313 . S
C804 N805 1.344 . S
C804 H808 0.930 . S
N805 C802 1.377 . S
N805 C804 1.344 . S
O806 Co798 2.055 . S
O806 C810 1.253 . S
H807 C803 0.931 . S
H808 C804 0.930 . S
O809 Co798 2.039 . S
O809 C799 1.265 . S
C810 O806 1.253 . S
C810 O811 1.227 . S
O811 C810 1.227 . S
N812 Co798 2.140 . S
N812 C815 1.346 . S
N812 C816 1.345 . S
C813 C814 1.387 . S
C813 C817 1.391 . S
C814 C813 1.387 . S
C814 C815 1.369 . S
C814 H823 0.929 . S
C815 N812 1.346 . S
C815 C814 1.369 . S
C815 H818 0.928 . S
C816 N812 1.345 . S
C816 C817 1.371 . S
C816 H819 0.931 . S
C817 C813 1.391 . S
C817 C816 1.371 . S
C817 H824 0.930 . S
H818 C815 0.928 . S
H819 C816 0.931 . S
H820 C796 0.930 . S
H821 C793 0.930 . S
H822 C802 0.930 . S
H823 C814 0.929 . S
H824 C817 0.930 . S
C825 C826 1.351 . S
C825 N828 1.368 . S
C825 H830 0.931 . S
C826 C825 1.351 . S
C826 N827 1.373 . S
C826 H854 0.930 . S
N827 C826 1.373 . S
N827 C829 1.340 . S
N828 C825 1.368 . S
N828 C829 1.321 . S
N828 Co831 2.135 . S
C829 N827 1.340 . S
C829 N828 1.321 . S
C829 H853 0.930 . S
H830 C825 0.931 . S
Co831 N828 2.135 . S
Co831 N834 2.121 . S
Co831 O839 2.055 . S
Co831 O842 2.039 . S
Co831 N845 2.140 . S
C832 O833 1.227 . S
C832 O842 1.265 . S
O833 C832 1.227 . S
N834 Co831 2.121 . S
N834 C836 1.375 . S
N834 C837 1.313 . S
C835 C836 1.338 . S
C835 N838 1.377 . S
C835 H855 0.930 . S
C836 N834 1.375 . S
C836 C835 1.338 . S
C836 H840 0.931 . S
C837 N834 1.313 . S
C837 N838 1.344 . S
C837 H841 0.930 . S
N838 C835 1.377 . S
N838 C837 1.344 . S
O839 Co831 2.055 . S
O839 C843 1.253 . S
H840 C836 0.931 . S
H841 C837 0.930 . S
O842 Co831 2.039 . S
O842 C832 1.265 . S
C843 O839 1.253 . S
C843 O844 1.227 . S
O844 C843 1.227 . S
N845 Co831 2.140 . S
N845 C848 1.346 . S
N845 C849 1.345 . S
C846 C847 1.387 . S
C846 C850 1.391 . S
C847 C846 1.387 . S
C847 C848 1.369 . S
C847 H856 0.929 . S
C848 N845 1.346 . S
C848 C847 1.369 . S
C848 H851 0.928 . S
C849 N845 1.345 . S
C849 C850 1.371 . S
C849 H852 0.931 . S
C850 C846 1.391 . S
C850 C849 1.371 . S
C850 H857 0.930 . S
H851 C848 0.928 . S
H852 C849 0.931 . S
H853 C829 0.930 . S
H854 C826 0.930 . S
H855 C835 0.930 . S
H856 C847 0.929 . S
H857 C850 0.930 . S
C858 C859 1.351 . S
C858 N861 1.368 . S
C858 H863 0.931 . S
C859 C858 1.351 . S
C859 N860 1.373 . S
C859 H887 0.930 . S
N860 C859 1.373 . S
N860 C862 1.340 . S
N861 C858 1.368 . S
N861 C862 1.321 . S
N861 Co864 2.135 . S
C862 N860 1.340 . S
C862 N861 1.321 . S
C862 H886 0.930 . S
H863 C858 0.931 . S
Co864 N861 2.135 . S
Co864 N867 2.121 . S
Co864 O872 2.055 . S
Co864 O875 2.039 . S
Co864 N878 2.140 . S
C865 O866 1.227 . S
C865 O875 1.265 . S
O866 C865 1.227 . S
N867 Co864 2.121 . S
N867 C869 1.375 . S
N867 C870 1.313 . S
C868 C869 1.338 . S
C868 N871 1.377 . S
C868 H888 0.930 . S
C869 N867 1.375 . S
C869 C868 1.338 . S
C869 H873 0.931 . S
C870 N867 1.313 . S
C870 N871 1.344 . S
C870 H874 0.930 . S
N871 C868 1.377 . S
N871 C870 1.344 . S
O872 Co864 2.055 . S
O872 C876 1.253 . S
H873 C869 0.931 . S
H874 C870 0.930 . S
O875 Co864 2.039 . S
O875 C865 1.265 . S
C876 O872 1.253 . S
C876 O877 1.227 . S
O877 C876 1.227 . S
N878 Co864 2.140 . S
N878 C881 1.346 . S
N878 C882 1.345 . S
C879 C880 1.387 . S
C879 C883 1.391 . S
C880 C879 1.387 . S
C880 C881 1.369 . S
C880 H889 0.929 . S
C881 N878 1.346 . S
C881 C880 1.369 . S
C881 H884 0.928 . S
C882 N878 1.345 . S
C882 C883 1.371 . S
C882 H885 0.931 . S
C883 C879 1.391 . S
C883 C882 1.371 . S
C883 H890 0.930 . S
H884 C881 0.928 . S
H885 C882 0.931 . S
H886 C862 0.930 . S
H887 C859 0.930 . S
H888 C868 0.930 . S
H889 C880 0.929 . S
H890 C883 0.930 . S
C891 C892 1.351 . S
C891 N894 1.368 . S
C891 H896 0.931 . S
C892 C891 1.351 . S
C892 N893 1.373 . S
C892 H920 0.930 1_554 S
N893 C892 1.373 . S
N893 C895 1.340 . S
N894 C891 1.368 . S
N894 C895 1.321 . S
N894 Co897 2.135 . S
C895 N893 1.340 . S
C895 N894 1.321 . S
C895 H919 0.930 . S
H896 C891 0.931 . S
Co897 N894 2.135 . S
Co897 N900 2.121 . S
Co897 O905 2.055 . S
Co897 O908 2.039 . S
Co897 N911 2.140 . S
C898 O899 1.227 . S
C898 O908 1.265 . S
O899 C898 1.227 . S
N900 Co897 2.121 . S
N900 C902 1.375 . S
N900 C903 1.313 . S
C901 C902 1.338 . S
C901 N904 1.377 . S
C901 H921 0.930 . S
C902 N900 1.375 . S
C902 C901 1.338 . S
C902 H906 0.931 . S
C903 N900 1.313 . S
C903 N904 1.344 . S
C903 H907 0.930 . S
N904 C901 1.377 . S
N904 C903 1.344 . S
O905 Co897 2.055 . S
O905 C909 1.253 . S
H906 C902 0.931 . S
H907 C903 0.930 . S
O908 Co897 2.039 . S
O908 C898 1.265 . S
C909 O905 1.253 . S
C909 O910 1.227 . S
O910 C909 1.227 . S
N911 Co897 2.140 . S
N911 C914 1.346 . S
N911 C915 1.345 . S
C912 C913 1.387 . S
C912 C916 1.391 . S
C913 C912 1.387 . S
C913 C914 1.369 . S
C913 H922 0.929 . S
C914 N911 1.346 . S
C914 C913 1.369 . S
C914 H917 0.928 . S
C915 N911 1.345 . S
C915 C916 1.371 . S
C915 H918 0.931 . S
C916 C912 1.391 . S
C916 C915 1.371 . S
C916 H923 0.930 . S
H917 C914 0.928 . S
H918 C915 0.931 . S
H919 C895 0.930 . S
H920 C892 0.930 1_556 S
H921 C901 0.930 . S
H922 C913 0.929 . S
H923 C916 0.930 . S
C924 C925 1.351 . S
C924 N927 1.368 . S
C924 H929 0.931 . S
C925 C924 1.351 . S
C925 N926 1.373 . S
C925 H953 0.930 1_554 S
N926 C925 1.373 . S
N926 C928 1.340 . S
N927 C924 1.368 . S
N927 C928 1.321 . S
N927 Co930 2.135 . S
C928 N926 1.340 . S
C928 N927 1.321 . S
C928 H952 0.930 . S
H929 C924 0.931 . S
Co930 N927 2.135 . S
Co930 N933 2.121 . S
Co930 O938 2.055 . S
Co930 O941 2.039 . S
Co930 N944 2.140 . S
C931 O932 1.227 . S
C931 O941 1.265 . S
O932 C931 1.227 . S
N933 Co930 2.121 . S
N933 C935 1.375 . S
N933 C936 1.313 . S
C934 C935 1.338 . S
C934 N937 1.377 . S
C934 H954 0.930 . S
C935 N933 1.375 . S
C935 C934 1.338 . S
C935 H939 0.931 . S
C936 N933 1.313 . S
C936 N937 1.344 . S
C936 H940 0.930 . S
N937 C934 1.377 . S
N937 C936 1.344 . S
O938 Co930 2.055 . S
O938 C942 1.253 . S
H939 C935 0.931 . S
H940 C936 0.930 . S
O941 Co930 2.039 . S
O941 C931 1.265 . S
C942 O938 1.253 . S
C942 O943 1.227 . S
O943 C942 1.227 . S
N944 Co930 2.140 . S
N944 C947 1.346 . S
N944 C948 1.345 . S
C945 C946 1.387 . S
C945 C949 1.391 . S
C946 C945 1.387 . S
C946 C947 1.369 . S
C946 H955 0.929 . S
C947 N944 1.346 . S
C947 C946 1.369 . S
C947 H950 0.928 . S
C948 N944 1.345 . S
C948 C949 1.371 . S
C948 H951 0.931 . S
C949 C945 1.391 . S
C949 C948 1.371 . S
C949 H956 0.930 . S
H950 C947 0.928 . S
H951 C948 0.931 . S
H952 C928 0.930 . S
H953 C925 0.930 1_556 S
H954 C934 0.930 . S
H955 C946 0.929 . S
H956 C949 0.930 . S
C957 C958 1.351 . S
C957 N960 1.368 . S
C957 H962 0.931 . S
C958 C957 1.351 . S
C958 N959 1.373 . S
C958 H986 0.930 1_554 S
N959 C958 1.373 . S
N959 C961 1.340 . S
N960 C957 1.368 . S
N960 C961 1.321 . S
N960 Co963 2.135 . S
C961 N959 1.340 . S
C961 N960 1.321 . S
C961 H985 0.930 . S
H962 C957 0.931 . S
Co963 N960 2.135 . S
Co963 N966 2.121 . S
Co963 O971 2.055 . S
Co963 O974 2.039 . S
Co963 N977 2.140 . S
C964 O965 1.227 . S
C964 O974 1.265 . S
O965 C964 1.227 . S
N966 Co963 2.121 . S
N966 C968 1.375 . S
N966 C969 1.313 . S
C967 C968 1.338 . S
C967 N970 1.377 . S
C967 H987 0.930 . S
C968 N966 1.375 . S
C968 C967 1.338 . S
C968 H972 0.931 . S
C969 N966 1.313 . S
C969 N970 1.344 . S
C969 H973 0.930 . S
N970 C967 1.377 . S
N970 C969 1.344 . S
O971 Co963 2.055 . S
O971 C975 1.253 . S
H972 C968 0.931 . S
H973 C969 0.930 . S
O974 Co963 2.039 . S
O974 C964 1.265 . S
C975 O971 1.253 . S
C975 O976 1.227 . S
O976 C975 1.227 . S
N977 Co963 2.140 . S
N977 C980 1.346 . S
N977 C981 1.345 . S
C978 C979 1.387 . S
C978 C982 1.391 . S
C979 C978 1.387 . S
C979 C980 1.369 . S
C979 H988 0.929 . S
C980 N977 1.346 . S
C980 C979 1.369 . S
C980 H983 0.928 . S
C981 N977 1.345 . S
C981 C982 1.371 . S
C981 H984 0.931 . S
C982 C978 1.391 . S
C982 C981 1.371 . S
C982 H989 0.930 . S
H983 C980 0.928 . S
H984 C981 0.931 . S
H985 C961 0.930 . S
H986 C958 0.930 1_556 S
H987 C967 0.930 . S
H988 C979 0.929 . S
H989 C982 0.930 . S
C990 C991 1.351 . S
C990 N993 1.368 . S
C990 H995 0.931 . S
C991 C990 1.351 . S
C991 N992 1.373 . S
C991 H1019 0.930 . S
N992 C991 1.373 . S
N992 C994 1.340 . S
N993 C990 1.368 . S
N993 C994 1.321 . S
N993 Co996 2.135 . S
C994 N992 1.340 . S
C994 N993 1.321 . S
C994 H1018 0.930 . S
H995 C990 0.931 . S
Co996 N993 2.135 . S
Co996 N999 2.121 . S
Co996 O1004 2.055 . S
Co996 O1007 2.039 . S
Co996 N1010 2.140 . S
C997 O998 1.227 . S
C997 O1007 1.265 . S
O998 C997 1.227 . S
N999 Co996 2.121 . S
N999 C1001 1.375 . S
N999 C1002 1.313 . S
C1000 C1001 1.338 . S
C1000 N1003 1.377 . S
C1000 H1020 0.930 . S
C1001 N999 1.375 . S
C1001 C1000 1.338 . S
C1001 H1005 0.931 . S
C1002 N999 1.313 . S
C1002 N1003 1.344 . S
C1002 H1006 0.930 . S
N1003 C1000 1.377 . S
N1003 C1002 1.344 . S
O1004 Co996 2.055 . S
O1004 C1008 1.253 . S
H1005 C1001 0.931 . S
H1006 C1002 0.930 . S
O1007 Co996 2.039 . S
O1007 C997 1.265 . S
C1008 O1004 1.253 . S
C1008 O1009 1.227 . S
O1009 C1008 1.227 . S
N1010 Co996 2.140 . S
N1010 C1013 1.346 . S
N1010 C1014 1.345 . S
C1011 C1012 1.387 . S
C1011 C1015 1.391 . S
C1012 C1011 1.387 . S
C1012 C1013 1.369 . S
C1012 H1021 0.929 . S
C1013 N1010 1.346 . S
C1013 C1012 1.369 . S
C1013 H1016 0.928 . S
C1014 N1010 1.345 . S
C1014 C1015 1.371 . S
C1014 H1017 0.931 . S
C1015 C1011 1.391 . S
C1015 C1014 1.371 . S
C1015 H1022 0.930 . S
H1016 C1013 0.928 . S
H1017 C1014 0.931 . S
H1018 C994 0.930 . S
H1019 C991 0.930 . S
H1020 C1000 0.930 . S
H1021 C1012 0.929 . S
H1022 C1015 0.930 . S
C1023 C1024 1.351 . S
C1023 N1026 1.368 . S
C1023 H1028 0.931 . S
C1024 C1023 1.351 . S
C1024 N1025 1.373 . S
C1024 H1052 0.930 . S
N1025 C1024 1.373 . S
N1025 C1027 1.340 . S
N1026 C1023 1.368 . S
N1026 C1027 1.321 . S
N1026 Co1029 2.135 . S
C1027 N1025 1.340 . S
C1027 N1026 1.321 . S
C1027 H1051 0.930 . S
H1028 C1023 0.931 . S
Co1029 N1026 2.135 . S
Co1029 N1032 2.121 . S
Co1029 O1037 2.055 . S
Co1029 O1040 2.039 . S
Co1029 N1043 2.140 . S
C1030 O1031 1.227 . S
C1030 O1040 1.265 . S
O1031 C1030 1.227 . S
N1032 Co1029 2.121 . S
N1032 C1034 1.375 . S
N1032 C1035 1.313 . S
C1033 C1034 1.338 . S
C1033 N1036 1.377 . S
C1033 H1053 0.930 . S
C1034 N1032 1.375 . S
C1034 C1033 1.338 . S
C1034 H1038 0.931 . S
C1035 N1032 1.313 . S
C1035 N1036 1.344 . S
C1035 H1039 0.930 . S
N1036 C1033 1.377 . S
N1036 C1035 1.344 . S
O1037 Co1029 2.055 . S
O1037 C1041 1.253 . S
H1038 C1034 0.931 . S
H1039 C1035 0.930 . S
O1040 Co1029 2.039 . S
O1040 C1030 1.265 . S
C1041 O1037 1.253 . S
C1041 O1042 1.227 . S
O1042 C1041 1.227 . S
N1043 Co1029 2.140 . S
N1043 C1046 1.346 . S
N1043 C1047 1.345 . S
C1044 C1045 1.387 . S
C1044 C1048 1.391 . S
C1045 C1044 1.387 . S
C1045 C1046 1.369 . S
C1045 H1054 0.929 . S
C1046 N1043 1.346 . S
C1046 C1045 1.369 . S
C1046 H1049 0.928 . S
C1047 N1043 1.345 . S
C1047 C1048 1.371 . S
C1047 H1050 0.931 . S
C1048 C1044 1.391 . S
C1048 C1047 1.371 . S
C1048 H1055 0.930 . S
H1049 C1046 0.928 . S
H1050 C1047 0.931 . S
H1051 C1027 0.930 . S
H1052 C1024 0.930 . S
H1053 C1033 0.930 . S
H1054 C1045 0.929 . S
H1055 C1048 0.930 . S
C1056 C1057 1.351 . S
C1056 N1059 1.368 . S
C1056 H1061 0.931 . S
C1057 C1056 1.351 . S
C1057 N1058 1.373 . S
C1057 H1085 0.930 . S
N1058 C1057 1.373 . S
N1058 C1060 1.340 . S
N1059 C1056 1.368 . S
N1059 C1060 1.321 . S
N1059 Co1062 2.135 . S
C1060 N1058 1.340 . S
C1060 N1059 1.321 . S
C1060 H1084 0.930 . S
H1061 C1056 0.931 . S
Co1062 N1059 2.135 . S
Co1062 N1065 2.121 . S
Co1062 O1070 2.055 . S
Co1062 O1073 2.039 . S
Co1062 N1076 2.140 . S
C1063 O1064 1.227 . S
C1063 O1073 1.265 . S
O1064 C1063 1.227 . S
N1065 Co1062 2.121 . S
N1065 C1067 1.375 . S
N1065 C1068 1.313 . S
C1066 C1067 1.338 . S
C1066 N1069 1.377 . S
C1066 H1086 0.930 . S
C1067 N1065 1.375 . S
C1067 C1066 1.338 . S
C1067 H1071 0.931 . S
C1068 N1065 1.313 . S
C1068 N1069 1.344 . S
C1068 H1072 0.930 . S
N1069 C1066 1.377 . S
N1069 C1068 1.344 . S
O1070 Co1062 2.055 . S
O1070 C1074 1.253 . S
H1071 C1067 0.931 . S
H1072 C1068 0.930 . S
O1073 Co1062 2.039 . S
O1073 C1063 1.265 . S
C1074 O1070 1.253 . S
C1074 O1075 1.227 . S
O1075 C1074 1.227 . S
N1076 Co1062 2.140 . S
N1076 C1079 1.346 . S
N1076 C1080 1.345 . S
C1077 C1078 1.387 . S
C1077 C1081 1.391 . S
C1078 C1077 1.387 . S
C1078 C1079 1.369 . S
C1078 H1087 0.929 . S
C1079 N1076 1.346 . S
C1079 C1078 1.369 . S
C1079 H1082 0.928 . S
C1080 N1076 1.345 . S
C1080 C1081 1.371 . S
C1080 H1083 0.931 . S
C1081 C1077 1.391 . S
C1081 C1080 1.371 . S
C1081 H1088 0.930 . S
H1082 C1079 0.928 . S
H1083 C1080 0.931 . S
H1084 C1060 0.930 . S
H1085 C1057 0.930 . S
H1086 C1066 0.930 . S
H1087 C1078 0.929 . S
H1088 C1081 0.930 . S
C1089 C1090 1.351 1_554 S
C1089 N1092 1.368 . S
C1089 H1094 0.931 . S
C1090 C1089 1.351 1_556 S
C1090 N1091 1.373 1_556 S
C1090 H1118 0.930 . S
N1091 C1090 1.373 1_554 S
N1091 C1093 1.340 . S
N1092 C1089 1.368 . S
N1092 C1093 1.321 . S
N1092 Co1095 2.135 . S
C1093 N1091 1.340 . S
C1093 N1092 1.321 . S
C1093 H1117 0.930 . S
H1094 C1089 0.931 . S
Co1095 N1092 2.135 . S
Co1095 N1098 2.121 . S
Co1095 O1103 2.055 . S
Co1095 O1106 2.039 . S
Co1095 N1109 2.140 . S
C1096 O1097 1.227 . S
C1096 O1106 1.265 . S
O1097 C1096 1.227 . S
N1098 Co1095 2.121 . S
N1098 C1100 1.375 . S
N1098 C1101 1.313 . S
C1099 C1100 1.338 . S
C1099 N1102 1.377 . S
C1099 H1119 0.930 . S
C1100 N1098 1.375 . S
C1100 C1099 1.338 . S
C1100 H1104 0.931 . S
C1101 N1098 1.313 . S
C1101 N1102 1.344 . S
C1101 H1105 0.930 . S
N1102 C1099 1.377 . S
N1102 C1101 1.344 . S
O1103 Co1095 2.055 . S
O1103 C1107 1.253 . S
H1104 C1100 0.931 . S
H1105 C1101 0.930 . S
O1106 Co1095 2.039 . S
O1106 C1096 1.265 . S
C1107 O1103 1.253 . S
C1107 O1108 1.227 . S
O1108 C1107 1.227 . S
N1109 Co1095 2.140 . S
N1109 C1112 1.346 . S
N1109 C1113 1.345 . S
C1110 C1111 1.387 . S
C1110 C1114 1.391 . S
C1111 C1110 1.387 . S
C1111 C1112 1.369 . S
C1111 H1120 0.929 . S
C1112 N1109 1.346 . S
C1112 C1111 1.369 . S
C1112 H1115 0.928 . S
C1113 N1109 1.345 . S
C1113 C1114 1.371 . S
C1113 H1116 0.931 . S
C1114 C1110 1.391 . S
C1114 C1113 1.371 . S
C1114 H1121 0.930 . S
H1115 C1112 0.928 . S
H1116 C1113 0.931 . S
H1117 C1093 0.930 . S
H1118 C1090 0.930 . S
H1119 C1099 0.930 . S
H1120 C1111 0.929 . S
H1121 C1114 0.930 . S
C1122 C1123 1.351 1_554 S
C1122 N1125 1.368 . S
C1122 H1127 0.931 . S
C1123 C1122 1.351 1_556 S
C1123 N1124 1.373 1_556 S
C1123 H1151 0.930 . S
N1124 C1123 1.373 1_554 S
N1124 C1126 1.340 . S
N1125 C1122 1.368 . S
N1125 C1126 1.321 . S
N1125 Co1128 2.135 . S
C1126 N1124 1.340 . S
C1126 N1125 1.321 . S
C1126 H1150 0.930 . S
H1127 C1122 0.931 . S
Co1128 N1125 2.135 . S
Co1128 N1131 2.121 . S
Co1128 O1136 2.055 . S
Co1128 O1139 2.039 . S
Co1128 N1142 2.140 . S
C1129 O1130 1.227 . S
C1129 O1139 1.265 . S
O1130 C1129 1.227 . S
N1131 Co1128 2.121 . S
N1131 C1133 1.375 . S
N1131 C1134 1.313 . S
C1132 C1133 1.338 . S
C1132 N1135 1.377 . S
C1132 H1152 0.930 . S
C1133 N1131 1.375 . S
C1133 C1132 1.338 . S
C1133 H1137 0.931 . S
C1134 N1131 1.313 . S
C1134 N1135 1.344 . S
C1134 H1138 0.930 . S
N1135 C1132 1.377 . S
N1135 C1134 1.344 . S
O1136 Co1128 2.055 . S
O1136 C1140 1.253 . S
H1137 C1133 0.931 . S
H1138 C1134 0.930 . S
O1139 Co1128 2.039 . S
O1139 C1129 1.265 . S
C1140 O1136 1.253 . S
C1140 O1141 1.227 . S
O1141 C1140 1.227 . S
N1142 Co1128 2.140 . S
N1142 C1145 1.346 . S
N1142 C1146 1.345 . S
C1143 C1144 1.387 . S
C1143 C1147 1.391 . S
C1144 C1143 1.387 . S
C1144 C1145 1.369 . S
C1144 H1153 0.929 . S
C1145 N1142 1.346 . S
C1145 C1144 1.369 . S
C1145 H1148 0.928 . S
C1146 N1142 1.345 . S
C1146 C1147 1.371 . S
C1146 H1149 0.931 . S
C1147 C1143 1.391 . S
C1147 C1146 1.371 . S
C1147 H1154 0.930 . S
H1148 C1145 0.928 . S
H1149 C1146 0.931 . S
H1150 C1126 0.930 . S
H1151 C1123 0.930 . S
H1152 C1132 0.930 . S
H1153 C1144 0.929 . S
H1154 C1147 0.930 . S
C1155 C1156 1.351 1_554 S
C1155 N1158 1.368 . S
C1155 H1160 0.931 . S
C1156 C1155 1.351 1_556 S
C1156 N1157 1.373 1_556 S
C1156 H1184 0.930 . S
N1157 C1156 1.373 1_554 S
N1157 C1159 1.340 . S
N1158 C1155 1.368 . S
N1158 C1159 1.321 . S
N1158 Co1161 2.135 . S
C1159 N1157 1.340 . S
C1159 N1158 1.321 . S
C1159 H1183 0.930 . S
H1160 C1155 0.931 . S
Co1161 N1158 2.135 . S
Co1161 N1164 2.121 . S
Co1161 O1169 2.055 . S
Co1161 O1172 2.039 . S
Co1161 N1175 2.140 . S
C1162 O1163 1.227 . S
C1162 O1172 1.265 . S
O1163 C1162 1.227 . S
N1164 Co1161 2.121 . S
N1164 C1166 1.375 . S
N1164 C1167 1.313 . S
C1165 C1166 1.338 . S
C1165 N1168 1.377 . S
C1165 H1185 0.930 . S
C1166 N1164 1.375 . S
C1166 C1165 1.338 . S
C1166 H1170 0.931 . S
C1167 N1164 1.313 . S
C1167 N1168 1.344 . S
C1167 H1171 0.930 . S
N1168 C1165 1.377 . S
N1168 C1167 1.344 . S
O1169 Co1161 2.055 . S
O1169 C1173 1.253 . S
H1170 C1166 0.931 . S
H1171 C1167 0.930 . S
O1172 Co1161 2.039 . S
O1172 C1162 1.265 . S
C1173 O1169 1.253 . S
C1173 O1174 1.227 . S
O1174 C1173 1.227 . S
N1175 Co1161 2.140 . S
N1175 C1178 1.346 . S
N1175 C1179 1.345 . S
C1176 C1177 1.387 . S
C1176 C1180 1.391 . S
C1177 C1176 1.387 . S
C1177 C1178 1.369 . S
C1177 H1186 0.929 . S
C1178 N1175 1.346 . S
C1178 C1177 1.369 . S
C1178 H1181 0.928 . S
C1179 N1175 1.345 . S
C1179 C1180 1.371 . S
C1179 H1182 0.931 . S
C1180 C1176 1.391 . S
C1180 C1179 1.371 . S
C1180 H1187 0.930 . S
H1181 C1178 0.928 . S
H1182 C1179 0.931 . S
H1183 C1159 0.930 . S
H1184 C1156 0.930 . S
H1185 C1165 0.930 . S
H1186 C1177 0.929 . S
H1187 C1180 0.930 . S
H1188 C1196 0.950 . S
H1189 C1201 0.950 . S
H1190 C1198 0.950 . S
H1191 C1200 0.950 . S
H1192 C1202 0.950 . S
H1193 C1204 0.950 . S
H1194 C1206 0.950 . S
H1195 C1207 0.950 . S
C1196 H1188 0.950 . S
C1196 C1197 1.386 . S
C1196 C1198 1.391 . S
C1197 C1196 1.386 . S
C1197 C1201 1.393 . S
C1198 H1190 0.950 . S
C1198 C1196 1.391 . S
C1198 C1199 1.400 . S
C1199 C1198 1.400 . S
C1199 C1200 1.398 . S
C1199 C1205 1.491 . S
C1200 H1191 0.950 . S
C1200 C1199 1.398 . S
C1200 C1201 1.391 . S
C1201 H1189 0.950 . S
C1201 C1197 1.393 . S
C1201 C1200 1.391 . S
C1202 H1192 0.950 . S
C1202 C1203 1.386 . S
C1202 C1204 1.391 . S
C1203 C1202 1.386 . S
C1203 C1207 1.393 . S
C1204 H1193 0.950 . S
C1204 C1202 1.391 . S
C1204 C1205 1.400 . S
C1205 C1199 1.491 . S
C1205 C1204 1.400 . S
C1205 C1206 1.398 . S
C1206 H1194 0.950 . S
C1206 C1205 1.398 . S
C1206 C1207 1.391 . S
C1207 H1195 0.950 . S
C1207 C1203 1.393 . S
C1207 C1206 1.391 . S
H1208 C1216 0.950 . S
H1209 C1221 0.950 . S
H1210 C1218 0.950 . S
H1211 C1220 0.950 . S
H1212 C1222 0.950 . S
H1213 C1224 0.950 . S
H1214 C1226 0.950 . S
H1215 C1227 0.950 . S
C1216 H1208 0.950 . S
C1216 C1217 1.386 . S
C1216 C1218 1.391 . S
C1217 C1216 1.386 . S
C1217 C1221 1.393 . S
C1218 H1210 0.950 . S
C1218 C1216 1.391 . S
C1218 C1219 1.400 . S
C1219 C1218 1.400 . S
C1219 C1220 1.398 . S
C1219 C1225 1.491 . S
C1220 H1211 0.950 . S
C1220 C1219 1.398 . S
C1220 C1221 1.391 . S
C1221 H1209 0.950 . S
C1221 C1217 1.393 . S
C1221 C1220 1.391 . S
C1222 H1212 0.950 . S
C1222 C1223 1.386 . S
C1222 C1224 1.391 . S
C1223 C1222 1.386 . S
C1223 C1227 1.393 . S
C1224 H1213 0.950 . S
C1224 C1222 1.391 . S
C1224 C1225 1.400 . S
C1225 C1219 1.491 . S
C1225 C1224 1.400 . S
C1225 C1226 1.398 . S
C1226 H1214 0.950 . S
C1226 C1225 1.398 . S
C1226 C1227 1.391 . S
C1227 H1215 0.950 . S
C1227 C1223 1.393 . S
C1227 C1226 1.391 . S
H1228 C1236 0.950 . S
H1229 C1241 0.950 . S
H1230 C1238 0.950 . S
H1231 C1240 0.950 . S
H1232 C1242 0.950 . S
H1233 C1244 0.950 . S
H1234 C1246 0.950 . S
H1235 C1247 0.950 . S
C1236 H1228 0.950 . S
C1236 C1237 1.386 . S
C1236 C1238 1.391 . S
C1237 C1236 1.386 . S
C1237 C1241 1.393 . S
C1238 H1230 0.950 . S
C1238 C1236 1.391 . S
C1238 C1239 1.400 . S
C1239 C1238 1.400 . S
C1239 C1240 1.398 . S
C1239 C1245 1.491 . S
C1240 H1231 0.950 . S
C1240 C1239 1.398 . S
C1240 C1241 1.391 . S
C1241 H1229 0.950 . S
C1241 C1237 1.393 . S
C1241 C1240 1.391 . S
C1242 H1232 0.950 . S
C1242 C1243 1.386 . S
C1242 C1244 1.391 . S
C1243 C1242 1.386 . S
C1243 C1247 1.393 . S
C1244 H1233 0.950 . S
C1244 C1242 1.391 . S
C1244 C1245 1.400 . S
C1245 C1239 1.491 . S
C1245 C1244 1.400 . S
C1245 C1246 1.398 . S
C1246 H1234 0.950 . S
C1246 C1245 1.398 . S
C1246 C1247 1.391 . S
C1247 H1235 0.950 . S
C1247 C1243 1.393 . S
C1247 C1246 1.391 . S
H1248 C1256 0.950 . S
H1249 C1261 0.950 . S
H1250 C1258 0.950 . S
H1251 C1260 0.950 . S
H1252 C1262 0.950 . S
H1253 C1264 0.950 . S
H1254 C1266 0.950 . S
H1255 C1267 0.950 . S
C1256 H1248 0.950 . S
C1256 C1257 1.386 . S
C1256 C1258 1.391 . S
C1257 C1256 1.386 . S
C1257 C1261 1.393 . S
C1258 H1250 0.950 . S
C1258 C1256 1.391 . S
C1258 C1259 1.400 . S
C1259 C1258 1.400 . S
C1259 C1260 1.398 . S
C1259 C1265 1.491 . S
C1260 H1251 0.950 . S
C1260 C1259 1.398 . S
C1260 C1261 1.391 . S
C1261 H1249 0.950 . S
C1261 C1257 1.393 . S
C1261 C1260 1.391 . S
C1262 H1252 0.950 . S
C1262 C1263 1.386 . S
C1262 C1264 1.391 . S
C1263 C1262 1.386 . S
C1263 C1267 1.393 . S
C1264 H1253 0.950 . S
C1264 C1262 1.391 . S
C1264 C1265 1.400 . S
C1265 C1259 1.491 . S
C1265 C1264 1.400 . S
C1265 C1266 1.398 . S
C1266 H1254 0.950 . S
C1266 C1265 1.398 . S
C1266 C1267 1.391 . S
C1267 H1255 0.950 . S
C1267 C1263 1.393 . S
C1267 C1266 1.391 . S
H1268 C1276 0.950 . S
H1269 C1281 0.950 . S
H1270 C1278 0.950 . S
H1271 C1280 0.950 . S
H1272 C1282 0.950 . S
H1273 C1284 0.950 . S
H1274 C1286 0.950 . S
H1275 C1287 0.950 . S
C1276 H1268 0.950 . S
C1276 C1277 1.386 . S
C1276 C1278 1.391 . S
C1277 C1276 1.386 . S
C1277 C1281 1.393 . S
C1278 H1270 0.950 . S
C1278 C1276 1.391 . S
C1278 C1279 1.400 . S
C1279 C1278 1.400 . S
C1279 C1280 1.398 . S
C1279 C1285 1.491 . S
C1280 H1271 0.950 . S
C1280 C1279 1.398 . S
C1280 C1281 1.391 . S
C1281 H1269 0.950 . S
C1281 C1277 1.393 . S
C1281 C1280 1.391 . S
C1282 H1272 0.950 . S
C1282 C1283 1.386 . S
C1282 C1284 1.391 . S
C1283 C1282 1.386 . S
C1283 C1287 1.393 . S
C1284 H1273 0.950 . S
C1284 C1282 1.391 . S
C1284 C1285 1.400 . S
C1285 C1279 1.491 . S
C1285 C1284 1.400 . S
C1285 C1286 1.398 . S
C1286 H1274 0.950 . S
C1286 C1285 1.398 . S
C1286 C1287 1.391 . S
C1287 H1275 0.950 . S
C1287 C1283 1.393 . S
C1287 C1286 1.391 . S
H1288 C1296 0.950 . S
H1289 C1301 0.950 . S
H1290 C1298 0.950 . S
H1291 C1300 0.950 . S
H1292 C1302 0.950 . S
H1293 C1304 0.950 . S
H1294 C1306 0.950 . S
H1295 C1307 0.950 . S
C1296 H1288 0.950 . S
C1296 C1297 1.386 . S
C1296 C1298 1.391 . S
C1297 C1296 1.386 . S
C1297 C1301 1.393 . S
C1298 H1290 0.950 . S
C1298 C1296 1.391 . S
C1298 C1299 1.400 . S
C1299 C1298 1.400 . S
C1299 C1300 1.398 . S
C1299 C1305 1.491 . S
C1300 H1291 0.950 . S
C1300 C1299 1.398 . S
C1300 C1301 1.391 . S
C1301 H1289 0.950 . S
C1301 C1297 1.393 . S
C1301 C1300 1.391 . S
C1302 H1292 0.950 . S
C1302 C1303 1.386 . S
C1302 C1304 1.391 . S
C1303 C1302 1.386 . S
C1303 C1307 1.393 . S
C1304 H1293 0.950 . S
C1304 C1302 1.391 . S
C1304 C1305 1.400 . S
C1305 C1299 1.491 . S
C1305 C1304 1.400 . S
C1305 C1306 1.398 . S
C1306 H1294 0.950 . S
C1306 C1305 1.398 . S
C1306 C1307 1.391 . S
C1307 H1295 0.950 . S
C1307 C1303 1.393 . S
C1307 C1306 1.391 . S
H1308 C1316 0.950 . S
H1309 C1321 0.950 . S
H1310 C1318 0.950 . S
H1311 C1320 0.950 . S
H1312 C1322 0.950 . S
H1313 C1324 0.950 . S
H1314 C1326 0.950 . S
H1315 C1327 0.950 . S
C1316 H1308 0.950 . S
C1316 C1317 1.386 . S
C1316 C1318 1.391 . S
C1317 C1316 1.386 . S
C1317 C1321 1.393 . S
C1318 H1310 0.950 . S
C1318 C1316 1.391 . S
C1318 C1319 1.400 . S
C1319 C1318 1.400 . S
C1319 C1320 1.398 . S
C1319 C1325 1.491 . S
C1320 H1311 0.950 . S
C1320 C1319 1.398 . S
C1320 C1321 1.391 . S
C1321 H1309 0.950 . S
C1321 C1317 1.393 . S
C1321 C1320 1.391 . S
C1322 H1312 0.950 . S
C1322 C1323 1.386 . S
C1322 C1324 1.391 . S
C1323 C1322 1.386 . S
C1323 C1327 1.393 . S
C1324 H1313 0.950 . S
C1324 C1322 1.391 . S
C1324 C1325 1.400 . S
C1325 C1319 1.491 . S
C1325 C1324 1.400 . S
C1325 C1326 1.398 . S
C1326 H1314 0.950 . S
C1326 C1325 1.398 . S
C1326 C1327 1.391 . S
C1327 H1315 0.950 . S
C1327 C1323 1.393 . S
C1327 C1326 1.391 . S
H1328 C1336 0.950 . S
H1329 C1341 0.950 . S
H1330 C1338 0.950 . S
H1331 C1340 0.950 . S
H1332 C1342 0.950 . S
H1333 C1344 0.950 . S
H1334 C1346 0.950 . S
H1335 C1347 0.950 . S
C1336 H1328 0.950 . S
C1336 C1337 1.386 . S
C1336 C1338 1.391 . S
C1337 C1336 1.386 . S
C1337 C1341 1.393 . S
C1338 H1330 0.950 . S
C1338 C1336 1.391 . S
C1338 C1339 1.400 . S
C1339 C1338 1.400 . S
C1339 C1340 1.398 . S
C1339 C1345 1.491 . S
C1340 H1331 0.950 . S
C1340 C1339 1.398 . S
C1340 C1341 1.391 . S
C1341 H1329 0.950 . S
C1341 C1337 1.393 . S
C1341 C1340 1.391 . S
C1342 H1332 0.950 . S
C1342 C1343 1.386 . S
C1342 C1344 1.391 . S
C1343 C1342 1.386 . S
C1343 C1347 1.393 . S
C1344 H1333 0.950 . S
C1344 C1342 1.391 . S
C1344 C1345 1.400 . S
C1345 C1339 1.491 . S
C1345 C1344 1.400 . S
C1345 C1346 1.398 . S
C1346 H1334 0.950 . S
C1346 C1345 1.398 . S
C1346 C1347 1.391 . S
C1347 H1335 0.950 . S
C1347 C1343 1.393 . S
C1347 C1346 1.391 . S
H1348 C1356 0.950 . S
H1349 C1361 0.950 . S
H1350 C1358 0.950 . S
H1351 C1360 0.950 . S
H1352 C1362 0.950 . S
H1353 C1364 0.950 . S
H1354 C1366 0.950 . S
H1355 C1367 0.950 . S
C1356 H1348 0.950 . S
C1356 C1357 1.386 . S
C1356 C1358 1.391 . S
C1357 C1356 1.386 . S
C1357 C1361 1.393 . S
C1358 H1350 0.950 . S
C1358 C1356 1.391 . S
C1358 C1359 1.400 . S
C1359 C1358 1.400 . S
C1359 C1360 1.398 . S
C1359 C1365 1.491 . S
C1360 H1351 0.950 . S
C1360 C1359 1.398 . S
C1360 C1361 1.391 . S
C1361 H1349 0.950 . S
C1361 C1357 1.393 . S
C1361 C1360 1.391 . S
C1362 H1352 0.950 . S
C1362 C1363 1.386 . S
C1362 C1364 1.391 . S
C1363 C1362 1.386 . S
C1363 C1367 1.393 . S
C1364 H1353 0.950 . S
C1364 C1362 1.391 . S
C1364 C1365 1.400 . S
C1365 C1359 1.491 . S
C1365 C1364 1.400 . S
C1365 C1366 1.398 . S
C1366 H1354 0.950 . S
C1366 C1365 1.398 . S
C1366 C1367 1.391 . S
C1367 H1355 0.950 . S
C1367 C1363 1.393 . S
C1367 C1366 1.391 . S
H1368 C1376 0.950 . S
H1369 C1381 0.950 . S
H1370 C1378 0.950 . S
H1371 C1380 0.950 . S
H1372 C1382 0.950 . S
H1373 C1384 0.950 . S
H1374 C1386 0.950 . S
H1375 C1387 0.950 . S
C1376 H1368 0.950 . S
C1376 C1377 1.386 . S
C1376 C1378 1.391 . S
C1377 C1376 1.386 . S
C1377 C1381 1.393 . S
C1378 H1370 0.950 . S
C1378 C1376 1.391 . S
C1378 C1379 1.400 . S
C1379 C1378 1.400 . S
C1379 C1380 1.398 . S
C1379 C1385 1.491 . S
C1380 H1371 0.950 . S
C1380 C1379 1.398 . S
C1380 C1381 1.391 . S
C1381 H1369 0.950 . S
C1381 C1377 1.393 . S
C1381 C1380 1.391 . S
C1382 H1372 0.950 . S
C1382 C1383 1.386 . S
C1382 C1384 1.391 . S
C1383 C1382 1.386 . S
C1383 C1387 1.393 . S
C1384 H1373 0.950 . S
C1384 C1382 1.391 . S
C1384 C1385 1.400 . S
C1385 C1379 1.491 . S
C1385 C1384 1.400 . S
C1385 C1386 1.398 . S
C1386 H1374 0.950 . S
C1386 C1385 1.398 . S
C1386 C1387 1.391 . S
C1387 H1375 0.950 . S
C1387 C1383 1.393 . S
C1387 C1386 1.391 . S
H1388 C1396 0.950 . S
H1389 C1401 0.950 . S
H1390 C1398 0.950 . S
H1391 C1400 0.950 . S
H1392 C1402 0.950 . S
H1393 C1404 0.950 . S
H1394 C1406 0.950 . S
H1395 C1407 0.950 . S
C1396 H1388 0.950 . S
C1396 C1397 1.386 . S
C1396 C1398 1.391 . S
C1397 C1396 1.386 . S
C1397 C1401 1.393 . S
C1398 H1390 0.950 . S
C1398 C1396 1.391 . S
C1398 C1399 1.400 . S
C1399 C1398 1.400 . S
C1399 C1400 1.398 . S
C1399 C1405 1.491 . S
C1400 H1391 0.950 . S
C1400 C1399 1.398 . S
C1400 C1401 1.391 . S
C1401 H1389 0.950 . S
C1401 C1397 1.393 . S
C1401 C1400 1.391 . S
C1402 H1392 0.950 . S
C1402 C1403 1.386 . S
C1402 C1404 1.391 . S
C1403 C1402 1.386 . S
C1403 C1407 1.393 . S
C1404 H1393 0.950 . S
C1404 C1402 1.391 . S
C1404 C1405 1.400 . S
C1405 C1399 1.491 . S
C1405 C1404 1.400 . S
C1405 C1406 1.398 . S
C1406 H1394 0.950 . S
C1406 C1405 1.398 . S
C1406 C1407 1.391 . S
C1407 H1395 0.950 . S
C1407 C1403 1.393 . S
C1407 C1406 1.391 . S
H1408 C1416 0.950 . S
H1409 C1421 0.950 . S
H1410 C1418 0.950 . S
H1411 C1420 0.950 . S
H1412 C1422 0.950 . S
H1413 C1424 0.950 . S
H1414 C1426 0.950 . S
H1415 C1427 0.950 . S
C1416 H1408 0.950 . S
C1416 C1417 1.386 . S
C1416 C1418 1.391 . S
C1417 C1416 1.386 . S
C1417 C1421 1.393 . S
C1418 H1410 0.950 . S
C1418 C1416 1.391 . S
C1418 C1419 1.400 . S
C1419 C1418 1.400 . S
C1419 C1420 1.398 . S
C1419 C1425 1.491 . S
C1420 H1411 0.950 . S
C1420 C1419 1.398 . S
C1420 C1421 1.391 . S
C1421 H1409 0.950 . S
C1421 C1417 1.393 . S
C1421 C1420 1.391 . S
C1422 H1412 0.950 . S
C1422 C1423 1.386 . S
C1422 C1424 1.391 . S
C1423 C1422 1.386 . S
C1423 C1427 1.393 . S
C1424 H1413 0.950 . S
C1424 C1422 1.391 . S
C1424 C1425 1.400 . S
C1425 C1419 1.491 . S
C1425 C1424 1.400 . S
C1425 C1426 1.398 . S
C1426 H1414 0.950 . S
C1426 C1425 1.398 . S
C1426 C1427 1.391 . S
C1427 H1415 0.950 . S
C1427 C1423 1.393 . S
C1427 C1426 1.391 . S
H1428 C1436 0.950 . S
H1429 C1441 0.950 . S
H1430 C1438 0.950 . S
H1431 C1440 0.950 . S
H1432 C1442 0.950 . S
H1433 C1444 0.950 . S
H1434 C1446 0.950 . S
H1435 C1447 0.950 . S
C1436 H1428 0.950 . S
C1436 C1437 1.386 1_554 S
C1436 C1438 1.391 . S
C1437 C1436 1.386 1_556 S
C1437 C1441 1.393 . S
C1438 H1430 0.950 . S
C1438 C1436 1.391 . S
C1438 C1439 1.400 . S
C1439 C1438 1.400 . S
C1439 C1440 1.398 . S
C1439 C1445 1.491 . S
C1440 H1431 0.950 . S
C1440 C1439 1.398 . S
C1440 C1441 1.391 1_554 S
C1441 H1429 0.950 . S
C1441 C1437 1.393 . S
C1441 C1440 1.391 1_556 S
C1442 H1432 0.950 . S
C1442 C1443 1.386 . S
C1442 C1444 1.391 . S
C1443 C1442 1.386 . S
C1443 C1447 1.393 . S
C1444 H1433 0.950 . S
C1444 C1442 1.391 . S
C1444 C1445 1.400 . S
C1445 C1439 1.491 . S
C1445 C1444 1.400 . S
C1445 C1446 1.398 . S
C1446 H1434 0.950 . S
C1446 C1445 1.398 . S
C1446 C1447 1.391 . S
C1447 H1435 0.950 . S
C1447 C1443 1.393 . S
C1447 C1446 1.391 . S
H1448 C1456 0.950 . S
H1449 C1461 0.950 . S
H1450 C1458 0.950 . S
H1451 C1460 0.950 . S
H1452 C1462 0.950 . S
H1453 C1464 0.950 . S
H1454 C1466 0.950 . S
H1455 C1467 0.950 . S
C1456 H1448 0.950 . S
C1456 C1457 1.386 . S
C1456 C1458 1.391 . S
C1457 C1456 1.386 . S
C1457 C1461 1.393 . S
C1458 H1450 0.950 . S
C1458 C1456 1.391 . S
C1458 C1459 1.400 . S
C1459 C1458 1.400 . S
C1459 C1460 1.398 . S
C1459 C1465 1.491 . S
C1460 H1451 0.950 . S
C1460 C1459 1.398 . S
C1460 C1461 1.391 . S
C1461 H1449 0.950 . S
C1461 C1457 1.393 . S
C1461 C1460 1.391 . S
C1462 H1452 0.950 . S
C1462 C1463 1.386 1_554 S
C1462 C1464 1.391 . S
C1463 C1462 1.386 1_556 S
C1463 C1467 1.393 . S
C1464 H1453 0.950 . S
C1464 C1462 1.391 . S
C1464 C1465 1.400 . S
C1465 C1459 1.491 . S
C1465 C1464 1.400 . S
C1465 C1466 1.398 . S
C1466 H1454 0.950 . S
C1466 C1465 1.398 . S
C1466 C1467 1.391 1_554 S
C1467 H1455 0.950 . S
C1467 C1463 1.393 . S
C1467 C1466 1.391 1_556 S
H1468 C1476 0.950 . S
H1469 C1481 0.950 . S
H1470 C1478 0.950 . S
H1471 C1480 0.950 1_556 S
H1472 C1482 0.950 . S
H1473 C1484 0.950 . S
H1474 C1486 0.950 . S
H1475 C1487 0.950 . S
C1476 H1468 0.950 . S
C1476 C1477 1.386 1_554 S
C1476 C1478 1.391 . S
C1477 C1476 1.386 1_556 S
C1477 C1481 1.393 . S
C1478 H1470 0.950 . S
C1478 C1476 1.391 . S
C1478 C1479 1.400 . S
C1479 C1478 1.400 . S
C1479 C1480 1.398 . S
C1479 C1485 1.491 . S
C1480 H1471 0.950 1_554 S
C1480 C1479 1.398 . S
C1480 C1481 1.391 1_554 S
C1481 H1469 0.950 . S
C1481 C1477 1.393 . S
C1481 C1480 1.391 1_556 S
C1482 H1472 0.950 . S
C1482 C1483 1.386 . S
C1482 C1484 1.391 . S
C1483 C1482 1.386 . S
C1483 C1487 1.393 . S
C1484 H1473 0.950 . S
C1484 C1482 1.391 . S
C1484 C1485 1.400 . S
C1485 C1479 1.491 . S
C1485 C1484 1.400 . S
C1485 C1486 1.398 . S
C1486 H1474 0.950 . S
C1486 C1485 1.398 . S
C1486 C1487 1.391 . S
C1487 H1475 0.950 . S
C1487 C1483 1.393 . S
C1487 C1486 1.391 . S
H1488 C1496 0.950 . S
H1489 C1501 0.950 . S
H1490 C1498 0.950 . S
H1491 C1500 0.950 . S
H1492 C1502 0.950 1_556 S
H1493 C1504 0.950 . S
H1494 C1506 0.950 . S
H1495 C1507 0.950 . S
C1496 H1488 0.950 . S
C1496 C1497 1.386 . S
C1496 C1498 1.391 . S
C1497 C1496 1.386 . S
C1497 C1501 1.393 . S
C1498 H1490 0.950 . S
C1498 C1496 1.391 . S
C1498 C1499 1.400 . S
C1499 C1498 1.400 . S
C1499 C1500 1.398 . S
C1499 C1505 1.491 . S
C1500 H1491 0.950 . S
C1500 C1499 1.398 . S
C1500 C1501 1.391 . S
C1501 H1489 0.950 . S
C1501 C1497 1.393 . S
C1501 C1500 1.391 . S
C1502 H1492 0.950 1_554 S
C1502 C1503 1.386 . S
C1502 C1504 1.391 . S
C1503 C1502 1.386 . S
C1503 C1507 1.393 . S
C1504 H1493 0.950 . S
C1504 C1502 1.391 . S
C1504 C1505 1.400 . S
C1505 C1499 1.491 . S
C1505 C1504 1.400 . S
C1505 C1506 1.398 . S
C1506 H1494 0.950 . S
C1506 C1505 1.398 . S
C1506 C1507 1.391 . S
C1507 H1495 0.950 . S
C1507 C1503 1.393 . S
C1507 C1506 1.391 . S
H1508 C1516 0.950 . S
H1509 C1521 0.950 . S
H1510 C1518 0.950 . S
H1511 C1520 0.950 . S
H1512 C1522 0.932 1_556 S
H1513 C1524 0.950 . S
H1514 C1526 0.950 . S
H1515 C1527 0.950 . S
C1516 H1508 0.950 . S
C1516 C1517 1.386 . S
C1516 C1518 1.391 . S
C1517 C1516 1.386 . S
C1517 C1521 1.393 . S
C1518 H1510 0.950 . S
C1518 C1516 1.391 . S
C1518 C1519 1.400 . S
C1519 C1518 1.400 . S
C1519 C1520 1.398 . S
C1519 C1525 1.491 . S
C1520 H1511 0.950 . S
C1520 C1519 1.398 . S
C1520 C1521 1.391 . S
C1521 H1509 0.950 . S
C1521 C1517 1.393 . S
C1521 C1520 1.391 . S
C1522 H1512 0.932 1_554 S
C1522 C1523 1.392 . S
C1522 C1524 1.403 . S
C1523 C1522 1.392 . S
C1523 C1527 1.393 . S
C1524 H1513 0.950 . S
C1524 C1522 1.403 . S
C1524 C1525 1.400 . S
C1525 C1519 1.491 . S
C1525 C1524 1.400 . S
C1525 C1526 1.398 . S
C1526 H1514 0.950 . S
C1526 C1525 1.398 . S
C1526 C1527 1.391 . S
C1527 H1515 0.950 . S
C1527 C1523 1.393 . S
C1527 C1526 1.391 . S
H1528 C1536 0.950 1_556 S
H1529 C1541 0.950 . S
H1530 C1538 0.950 . S
H1531 C1540 0.950 . S
H1532 C1542 0.950 . S
H1533 C1544 0.950 . S
H1534 C1546 0.950 . S
H1535 C1547 0.950 . S
C1536 H1528 0.950 1_554 S
C1536 C1537 1.386 . S
C1536 C1538 1.391 . S
C1537 C1536 1.386 . S
C1537 C1541 1.393 . S
C1538 H1530 0.950 . S
C1538 C1536 1.391 . S
C1538 C1539 1.400 . S
C1539 C1538 1.400 . S
C1539 C1540 1.398 . S
C1539 C1545 1.491 . S
C1540 H1531 0.950 . S
C1540 C1539 1.398 . S
C1540 C1541 1.391 . S
C1541 H1529 0.950 . S
C1541 C1537 1.393 . S
C1541 C1540 1.391 . S
C1542 H1532 0.950 . S
C1542 C1543 1.386 . S
C1542 C1544 1.391 . S
C1543 C1542 1.386 . S
C1543 C1547 1.393 . S
C1544 H1533 0.950 . S
C1544 C1542 1.391 . S
C1544 C1545 1.400 . S
C1545 C1539 1.491 . S
C1545 C1544 1.400 . S
C1545 C1546 1.398 . S
C1546 H1534 0.950 . S
C1546 C1545 1.398 . S
C1546 C1547 1.391 . S
C1547 H1535 0.950 . S
C1547 C1543 1.393 . S
C1547 C1546 1.391 . S
H1548 C1556 0.950 . S
H1549 C1561 0.950 . S
H1550 C1558 0.950 . S
H1551 C1560 0.950 . S
H1552 C1562 0.950 . S
H1553 C1564 0.950 . S
H1554 C1566 0.950 . S
H1555 C1567 0.950 . S
C1556 H1548 0.950 . S
C1556 C1557 1.386 . S
C1556 C1558 1.391 . S
C1557 C1556 1.386 . S
C1557 C1561 1.393 . S
C1558 H1550 0.950 . S
C1558 C1556 1.391 . S
C1558 C1559 1.400 . S
C1559 C1558 1.400 . S
C1559 C1560 1.398 . S
C1559 C1565 1.491 . S
C1560 H1551 0.950 . S
C1560 C1559 1.398 . S
C1560 C1561 1.391 . S
C1561 H1549 0.950 . S
C1561 C1557 1.393 . S
C1561 C1560 1.391 . S
C1562 H1552 0.950 . S
C1562 C1563 1.386 . S
C1562 C1564 1.391 . S
C1563 C1562 1.386 . S
C1563 C1567 1.393 . S
C1564 H1553 0.950 . S
C1564 C1562 1.391 . S
C1564 C1565 1.400 . S
C1565 C1559 1.491 . S
C1565 C1564 1.400 . S
C1565 C1566 1.398 . S
C1566 H1554 0.950 . S
C1566 C1565 1.398 . S
C1566 C1567 1.391 . S
C1567 H1555 0.950 . S
C1567 C1563 1.393 . S
C1567 C1566 1.391 . S
H1568 C1576 0.950 . S
H1569 C1581 0.950 . S
H1570 C1578 0.950 . S
H1571 C1580 0.950 . S
H1572 C1582 0.950 . S
H1573 C1584 0.950 . S
H1574 C1586 0.950 . S
H1575 C1587 0.950 . S
C1576 H1568 0.950 . S
C1576 C1577 1.386 . S
C1576 C1578 1.391 . S
C1577 C1576 1.386 . S
C1577 C1581 1.393 . S
C1578 H1570 0.950 . S
C1578 C1576 1.391 . S
C1578 C1579 1.400 . S
C1579 C1578 1.400 . S
C1579 C1580 1.398 . S
C1579 C1585 1.491 . S
C1580 H1571 0.950 . S
C1580 C1579 1.398 . S
C1580 C1581 1.391 . S
C1581 H1569 0.950 . S
C1581 C1577 1.393 . S
C1581 C1580 1.391 . S
C1582 H1572 0.950 . S
C1582 C1583 1.386 . S
C1582 C1584 1.391 . S
C1583 C1582 1.386 . S
C1583 C1587 1.393 . S
C1584 H1573 0.950 . S
C1584 C1582 1.391 . S
C1584 C1585 1.400 . S
C1585 C1579 1.491 . S
C1585 C1584 1.400 . S
C1585 C1586 1.398 . S
C1586 H1574 0.950 . S
C1586 C1585 1.398 . S
C1586 C1587 1.391 . S
C1587 H1575 0.950 . S
C1587 C1583 1.393 . S
C1587 C1586 1.391 . S
H1588 C1596 0.950 . S
H1589 C1601 0.950 . S
H1590 C1598 0.950 . S
H1591 C1600 0.950 . S
H1592 C1602 0.950 . S
H1593 C1604 0.950 . S
H1594 C1606 0.950 . S
H1595 C1607 0.950 . S
C1596 H1588 0.950 . S
C1596 C1597 1.386 . S
C1596 C1598 1.391 . S
C1597 C1596 1.386 . S
C1597 C1601 1.393 . S
C1598 H1590 0.950 . S
C1598 C1596 1.391 . S
C1598 C1599 1.400 . S
C1599 C1598 1.400 . S
C1599 C1600 1.398 . S
C1599 C1605 1.491 . S
C1600 H1591 0.950 . S
C1600 C1599 1.398 . S
C1600 C1601 1.391 . S
C1601 H1589 0.950 . S
C1601 C1597 1.393 . S
C1601 C1600 1.391 . S
C1602 H1592 0.950 . S
C1602 C1603 1.386 . S
C1602 C1604 1.391 . S
C1603 C1602 1.386 . S
C1603 C1607 1.393 . S
C1604 H1593 0.950 . S
C1604 C1602 1.391 . S
C1604 C1605 1.400 . S
C1605 C1599 1.491 . S
C1605 C1604 1.400 . S
C1605 C1606 1.398 . S
C1606 H1594 0.950 . S
C1606 C1605 1.398 . S
C1606 C1607 1.391 . S
C1607 H1595 0.950 . S
C1607 C1603 1.393 . S
C1607 C1606 1.391 . S
H1608 C1616 0.950 . S
H1609 C1621 0.950 . S
H1610 C1618 0.950 . S
H1611 C1620 0.950 . S
H1612 C1622 0.950 . S
H1613 C1624 0.950 . S
H1614 C1626 0.950 . S
H1615 C1627 0.950 . S
C1616 H1608 0.950 . S
C1616 C1617 1.386 . S
C1616 C1618 1.391 . S
C1617 C1616 1.386 . S
C1617 C1621 1.393 . S
C1618 H1610 0.950 . S
C1618 C1616 1.391 . S
C1618 C1619 1.400 . S
C1619 C1618 1.400 . S
C1619 C1620 1.398 . S
C1619 C1625 1.491 . S
C1620 H1611 0.950 . S
C1620 C1619 1.398 . S
C1620 C1621 1.391 . S
C1621 H1609 0.950 . S
C1621 C1617 1.393 . S
C1621 C1620 1.391 . S
C1622 H1612 0.950 . S
C1622 C1623 1.386 . S
C1622 C1624 1.391 . S
C1623 C1622 1.386 . S
C1623 C1627 1.393 . S
C1624 H1613 0.950 . S
C1624 C1622 1.391 . S
C1624 C1625 1.400 . S
C1625 C1619 1.491 . S
C1625 C1624 1.400 . S
C1625 C1626 1.398 . S
C1626 H1614 0.950 . S
C1626 C1625 1.398 . S
C1626 C1627 1.391 . S
C1627 H1615 0.950 . S
C1627 C1623 1.393 . S
C1627 C1626 1.391 . S
H1628 C1636 0.950 . S
H1629 C1641 0.950 . S
H1630 C1638 0.950 . S
H1631 C1640 0.950 . S
H1632 C1642 0.950 . S
H1633 C1644 0.950 . S
H1634 C1646 0.950 . S
H1635 C1647 0.950 . S
C1636 H1628 0.950 . S
C1636 C1637 1.386 . S
C1636 C1638 1.391 . S
C1637 C1636 1.386 . S
C1637 C1641 1.393 . S
C1638 H1630 0.950 . S
C1638 C1636 1.391 . S
C1638 C1639 1.400 . S
C1639 C1638 1.400 . S
C1639 C1640 1.398 . S
C1639 C1645 1.491 . S
C1640 H1631 0.950 . S
C1640 C1639 1.398 . S
C1640 C1641 1.391 . S
C1641 H1629 0.950 . S
C1641 C1637 1.393 . S
C1641 C1640 1.391 . S
C1642 H1632 0.950 . S
C1642 C1643 1.386 . S
C1642 C1644 1.391 . S
C1643 C1642 1.386 . S
C1643 C1647 1.393 . S
C1644 H1633 0.950 . S
C1644 C1642 1.391 . S
C1644 C1645 1.400 . S
C1645 C1639 1.491 . S
C1645 C1644 1.400 . S
C1645 C1646 1.398 . S
C1646 H1634 0.950 . S
C1646 C1645 1.398 . S
C1646 C1647 1.391 . S
C1647 H1635 0.950 . S
C1647 C1643 1.393 . S
C1647 C1646 1.391 . S
H1648 C1656 0.950 . S
H1649 C1661 0.950 . S
H1650 C1658 0.950 . S
H1651 C1660 0.950 . S
H1652 C1662 0.950 . S
H1653 C1664 0.950 . S
H1654 C1666 0.950 . S
H1655 C1667 0.950 . S
C1656 H1648 0.950 . S
C1656 C1657 1.386 . S
C1656 C1658 1.391 . S
C1657 C1656 1.386 . S
C1657 C1661 1.393 . S
C1658 H1650 0.950 . S
C1658 C1656 1.391 . S
C1658 C1659 1.400 . S
C1659 C1658 1.400 . S
C1659 C1660 1.398 . S
C1659 C1665 1.491 . S
C1660 H1651 0.950 . S
C1660 C1659 1.398 . S
C1660 C1661 1.391 . S
C1661 H1649 0.950 . S
C1661 C1657 1.393 . S
C1661 C1660 1.391 . S
C1662 H1652 0.950 . S
C1662 C1663 1.386 . S
C1662 C1664 1.391 . S
C1663 C1662 1.386 . S
C1663 C1667 1.393 . S
C1664 H1653 0.950 . S
C1664 C1662 1.391 . S
C1664 C1665 1.400 . S
C1665 C1659 1.491 . S
C1665 C1664 1.400 . S
C1665 C1666 1.398 . S
C1666 H1654 0.950 . S
C1666 C1665 1.398 . S
C1666 C1667 1.391 . S
C1667 H1655 0.950 . S
C1667 C1663 1.393 . S
C1667 C1666 1.391 . S
H1668 C1676 0.950 . S
H1669 C1681 0.950 . S
H1670 C1678 0.950 . S
H1671 C1680 0.950 . S
H1672 C1682 0.950 . S
H1673 C1684 0.950 . S
H1674 C1686 0.950 . S
H1675 C1687 0.950 . S
C1676 H1668 0.950 . S
C1676 C1677 1.386 . S
C1676 C1678 1.391 . S
C1677 C1676 1.386 . S
C1677 C1681 1.393 . S
C1678 H1670 0.950 . S
C1678 C1676 1.391 . S
C1678 C1679 1.400 . S
C1679 C1678 1.400 . S
C1679 C1680 1.398 . S
C1679 C1685 1.491 . S
C1680 H1671 0.950 . S
C1680 C1679 1.398 . S
C1680 C1681 1.391 . S
C1681 H1669 0.950 . S
C1681 C1677 1.393 . S
C1681 C1680 1.391 . S
C1682 H1672 0.950 . S
C1682 C1683 1.386 . S
C1682 C1684 1.391 . S
C1683 C1682 1.386 . S
C1683 C1687 1.393 . S
C1684 H1673 0.950 . S
C1684 C1682 1.391 . S
C1684 C1685 1.400 . S
C1685 C1679 1.491 . S
C1685 C1684 1.400 . S
C1685 C1686 1.398 . S
C1686 H1674 0.950 . S
C1686 C1685 1.398 . S
C1686 C1687 1.391 . S
C1687 H1675 0.950 . S
C1687 C1683 1.393 . S
C1687 C1686 1.391 . S
H1688 C1696 0.950 . S
H1689 C1701 0.950 . S
H1690 C1698 0.950 . S
H1691 C1700 0.950 . S
H1692 C1702 0.950 . S
H1693 C1704 0.950 . S
H1694 C1706 0.950 . S
H1695 C1707 0.950 . S
C1696 H1688 0.950 . S
C1696 C1697 1.386 . S
C1696 C1698 1.391 . S
C1697 C1696 1.386 . S
C1697 C1701 1.393 . S
C1698 H1690 0.950 . S
C1698 C1696 1.391 . S
C1698 C1699 1.400 . S
C1699 C1698 1.400 . S
C1699 C1700 1.398 . S
C1699 C1705 1.491 . S
C1700 H1691 0.950 . S
C1700 C1699 1.398 . S
C1700 C1701 1.391 . S
C1701 H1689 0.950 . S
C1701 C1697 1.393 . S
C1701 C1700 1.391 . S
C1702 H1692 0.950 . S
C1702 C1703 1.386 . S
C1702 C1704 1.391 . S
C1703 C1702 1.386 . S
C1703 C1707 1.393 . S
C1704 H1693 0.950 . S
C1704 C1702 1.391 . S
C1704 C1705 1.400 . S
C1705 C1699 1.491 . S
C1705 C1704 1.400 . S
C1705 C1706 1.398 . S
C1706 H1694 0.950 . S
C1706 C1705 1.398 . S
C1706 C1707 1.391 . S
C1707 H1695 0.950 . S
C1707 C1703 1.393 . S
C1707 C1706 1.391 . S
H1708 C1716 0.950 . S
H1709 C1721 0.950 . S
H1710 C1718 0.950 . S
H1711 C1720 0.950 . S
H1712 C1722 0.950 . S
H1713 C1724 0.950 . S
H1714 C1726 0.950 . S
H1715 C1727 0.950 . S
C1716 H1708 0.950 . S
C1716 C1717 1.386 . S
C1716 C1718 1.391 . S
C1717 C1716 1.386 . S
C1717 C1721 1.393 . S
C1718 H1710 0.950 . S
C1718 C1716 1.391 . S
C1718 C1719 1.400 . S
C1719 C1718 1.400 . S
C1719 C1720 1.398 . S
C1719 C1725 1.491 . S
C1720 H1711 0.950 . S
C1720 C1719 1.398 . S
C1720 C1721 1.391 . S
C1721 H1709 0.950 . S
C1721 C1717 1.393 . S
C1721 C1720 1.391 . S
C1722 H1712 0.950 . S
C1722 C1723 1.386 . S
C1722 C1724 1.391 . S
C1723 C1722 1.386 . S
C1723 C1727 1.393 . S
C1724 H1713 0.950 . S
C1724 C1722 1.391 . S
C1724 C1725 1.400 . S
C1725 C1719 1.491 . S
C1725 C1724 1.400 . S
C1725 C1726 1.398 . S
C1726 H1714 0.950 . S
C1726 C1725 1.398 . S
C1726 C1727 1.391 . S
C1727 H1715 0.950 . S
C1727 C1723 1.393 . S
C1727 C1726 1.391 . S
H1728 C1736 0.950 . S
H1729 C1741 0.950 . S
H1730 C1738 0.950 . S
H1731 C1740 0.950 . S
H1732 C1742 0.950 . S
H1733 C1744 0.950 . S
H1734 C1746 0.950 . S
H1735 C1747 0.950 . S
C1736 H1728 0.950 . S
C1736 C1737 1.386 . S
C1736 C1738 1.391 . S
C1737 C1736 1.386 . S
C1737 C1741 1.393 . S
C1738 H1730 0.950 . S
C1738 C1736 1.391 . S
C1738 C1739 1.400 . S
C1739 C1738 1.400 . S
C1739 C1740 1.398 . S
C1739 C1745 1.491 . S
C1740 H1731 0.950 . S
C1740 C1739 1.398 . S
C1740 C1741 1.391 . S
C1741 H1729 0.950 . S
C1741 C1737 1.393 . S
C1741 C1740 1.391 . S
C1742 H1732 0.950 . S
C1742 C1743 1.386 . S
C1742 C1744 1.391 . S
C1743 C1742 1.386 . S
C1743 C1747 1.393 . S
C1744 H1733 0.950 . S
C1744 C1742 1.391 . S
C1744 C1745 1.400 . S
C1745 C1739 1.491 . S
C1745 C1744 1.400 . S
C1745 C1746 1.398 . S
C1746 H1734 0.950 . S
C1746 C1745 1.398 . S
C1746 C1747 1.391 . S
C1747 H1735 0.950 . S
C1747 C1743 1.393 . S
C1747 C1746 1.391 . S
H1748 C1756 0.950 . S
H1749 C1761 0.950 . S
H1750 C1758 0.950 . S
H1751 C1760 0.950 . S
H1752 C1762 0.950 . S
H1753 C1764 0.950 . S
H1754 C1766 0.950 . S
H1755 C1767 0.950 . S
C1756 H1748 0.950 . S
C1756 C1757 1.386 . S
C1756 C1758 1.391 . S
C1757 C1756 1.386 . S
C1757 C1761 1.393 . S
C1758 H1750 0.950 . S
C1758 C1756 1.391 . S
C1758 C1759 1.400 . S
C1759 C1758 1.400 . S
C1759 C1760 1.398 . S
C1759 C1765 1.491 . S
C1760 H1751 0.950 . S
C1760 C1759 1.398 . S
C1760 C1761 1.391 . S
C1761 H1749 0.950 . S
C1761 C1757 1.393 . S
C1761 C1760 1.391 . S
C1762 H1752 0.950 . S
C1762 C1763 1.386 . S
C1762 C1764 1.391 . S
C1763 C1762 1.386 . S
C1763 C1767 1.393 . S
C1764 H1753 0.950 . S
C1764 C1762 1.391 . S
C1764 C1765 1.400 . S
C1765 C1759 1.491 . S
C1765 C1764 1.400 . S
C1765 C1766 1.398 . S
C1766 H1754 0.950 . S
C1766 C1765 1.398 . S
C1766 C1767 1.391 . S
C1767 H1755 0.950 . S
C1767 C1763 1.393 . S
C1767 C1766 1.391 . S
H1768 C1776 0.950 . S
H1769 C1781 0.950 . S
H1770 C1778 0.950 . S
H1771 C1780 0.950 . S
H1772 C1782 0.950 . S
H1773 C1784 0.950 . S
H1774 C1786 0.950 . S
H1775 C1787 0.950 . S
C1776 H1768 0.950 . S
C1776 C1777 1.386 . S
C1776 C1778 1.391 . S
C1777 C1776 1.386 . S
C1777 C1781 1.393 . S
C1778 H1770 0.950 . S
C1778 C1776 1.391 . S
C1778 C1779 1.400 . S
C1779 C1778 1.400 . S
C1779 C1780 1.398 . S
C1779 C1785 1.491 . S
C1780 H1771 0.950 . S
C1780 C1779 1.398 . S
C1780 C1781 1.391 . S
C1781 H1769 0.950 . S
C1781 C1777 1.393 . S
C1781 C1780 1.391 . S
C1782 H1772 0.950 . S
C1782 C1783 1.386 . S
C1782 C1784 1.391 . S
C1783 C1782 1.386 . S
C1783 C1787 1.393 . S
C1784 H1773 0.950 . S
C1784 C1782 1.391 . S
C1784 C1785 1.400 . S
C1785 C1779 1.491 . S
C1785 C1784 1.400 . S
C1785 C1786 1.398 . S
C1786 H1774 0.950 . S
C1786 C1785 1.398 . S
C1786 C1787 1.391 . S
C1787 H1775 0.950 . S
C1787 C1783 1.393 . S
C1787 C1786 1.391 . S
H1788 C1796 0.950 . S
H1789 C1801 0.950 . S
H1790 C1798 0.950 . S
H1791 C1800 0.950 . S
H1792 C1802 0.950 . S
H1793 C1804 0.950 . S
H1794 C1806 0.950 . S
H1795 C1807 0.950 . S
C1796 H1788 0.950 . S
C1796 C1797 1.386 . S
C1796 C1798 1.391 . S
C1797 C1796 1.386 . S
C1797 C1801 1.393 . S
C1798 H1790 0.950 . S
C1798 C1796 1.391 . S
C1798 C1799 1.400 . S
C1799 C1798 1.400 . S
C1799 C1800 1.398 . S
C1799 C1805 1.491 . S
C1800 H1791 0.950 . S
C1800 C1799 1.398 . S
C1800 C1801 1.391 . S
C1801 H1789 0.950 . S
C1801 C1797 1.393 . S
C1801 C1800 1.391 . S
C1802 H1792 0.950 . S
C1802 C1803 1.386 . S
C1802 C1804 1.391 1_554 S
C1803 C1802 1.386 . S
C1803 C1807 1.393 . S
C1804 H1793 0.950 . S
C1804 C1802 1.391 1_556 S
C1804 C1805 1.400 . S
C1805 C1799 1.491 . S
C1805 C1804 1.400 . S
C1805 C1806 1.398 1_556 S
C1806 H1794 0.950 . S
C1806 C1805 1.398 1_554 S
C1806 C1807 1.391 . S
C1807 H1795 0.950 . S
C1807 C1803 1.393 . S
C1807 C1806 1.391 . S
H1808 C1816 0.950 . S
H1809 C1821 0.950 . S
H1810 C1818 0.950 . S
H1811 C1820 0.950 . S
H1812 C1822 0.950 . S
H1813 C1824 0.950 . S
H1814 C1826 0.950 . S
H1815 C1827 0.950 . S
C1816 H1808 0.950 . S
C1816 C1817 1.386 . S
C1816 C1818 1.391 1_554 S
C1817 C1816 1.386 . S
C1817 C1821 1.393 . S
C1818 H1810 0.950 . S
C1818 C1816 1.391 1_556 S
C1818 C1819 1.400 . S
C1819 C1818 1.400 . S
C1819 C1820 1.398 1_556 S
C1819 C1825 1.491 . S
C1820 H1811 0.950 . S
C1820 C1819 1.398 1_554 S
C1820 C1821 1.391 . S
C1821 H1809 0.950 . S
C1821 C1817 1.393 . S
C1821 C1820 1.391 . S
C1822 H1812 0.950 . S
C1822 C1823 1.386 . S
C1822 C1824 1.391 . S
C1823 C1822 1.386 . S
C1823 C1827 1.393 . S
C1824 H1813 0.950 . S
C1824 C1822 1.391 . S
C1824 C1825 1.400 . S
C1825 C1819 1.491 . S
C1825 C1824 1.400 . S
C1825 C1826 1.398 . S
C1826 H1814 0.950 . S
C1826 C1825 1.398 . S
C1826 C1827 1.391 . S
C1827 H1815 0.950 . S
C1827 C1823 1.393 . S
C1827 C1826 1.391 . S
H1828 C1836 0.950 . S
H1829 C1841 0.950 . S
H1830 C1838 0.950 . S
H1831 C1840 0.950 . S
H1832 C1842 0.950 . S
H1833 C1844 0.942 1_554 S
H1834 C1846 0.950 . S
H1835 C1847 0.950 . S
C1836 H1828 0.950 . S
C1836 C1837 1.386 . S
C1836 C1838 1.391 1_554 S
C1837 C1836 1.386 . S
C1837 C1841 1.393 . S
C1838 H1830 0.950 . S
C1838 C1836 1.391 1_556 S
C1838 C1839 1.400 . S
C1839 C1838 1.400 . S
C1839 C1840 1.398 1_556 S
C1839 C1845 1.491 . S
C1840 H1831 0.950 . S
C1840 C1839 1.398 1_554 S
C1840 C1841 1.391 . S
C1841 H1829 0.950 . S
C1841 C1837 1.393 . S
C1841 C1840 1.391 . S
C1842 H1832 0.950 . S
C1842 C1843 1.386 . S
C1842 C1844 1.391 . S
C1843 C1842 1.386 . S
C1843 C1847 1.393 . S
C1844 H1833 0.942 1_556 S
C1844 C1842 1.391 . S
C1844 C1845 1.400 . S
C1845 C1839 1.491 . S
C1845 C1844 1.400 . S
C1845 C1846 1.398 . S
C1846 H1834 0.950 . S
C1846 C1845 1.398 . S
C1846 C1847 1.391 . S
C1847 H1835 0.950 . S
C1847 C1843 1.393 . S
C1847 C1846 1.391 . S
H1848 C1856 0.950 . S
H1849 C1861 0.950 . S
H1850 C1858 0.950 . S
H1851 C1860 0.950 . S
H1852 C1862 0.950 . S
H1853 C1864 0.950 . S
H1854 C1866 0.950 . S
H1855 C1867 0.950 . S
C1856 H1848 0.950 . S
C1856 C1857 1.386 . S
C1856 C1858 1.391 . S
C1857 C1856 1.386 . S
C1857 C1861 1.393 1_554 S
C1858 H1850 0.950 . S
C1858 C1856 1.391 . S
C1858 C1859 1.400 1_554 S
C1859 C1858 1.400 1_556 S
C1859 C1860 1.398 . S
C1859 C1865 1.491 . S
C1860 H1851 0.950 . S
C1860 C1859 1.398 . S
C1860 C1861 1.391 . S
C1861 H1849 0.950 . S
C1861 C1857 1.393 1_556 S
C1861 C1860 1.391 . S
C1862 H1852 0.950 . S
C1862 C1863 1.386 . S
C1862 C1864 1.391 . S
C1863 C1862 1.386 . S
C1863 C1867 1.393 . S
C1864 H1853 0.950 . S
C1864 C1862 1.391 . S
C1864 C1865 1.400 . S
C1865 C1859 1.491 . S
C1865 C1864 1.400 . S
C1865 C1866 1.398 . S
C1866 H1854 0.950 . S
C1866 C1865 1.398 . S
C1866 C1867 1.391 . S
C1867 H1855 0.950 . S
C1867 C1863 1.393 . S
C1867 C1866 1.391 . S
H1868 C1876 0.950 . S
H1869 C1881 0.950 . S
H1870 C1878 0.950 . S
H1871 C1880 0.950 . S
H1872 C1882 0.950 . S
H1873 C1884 0.950 . S
H1874 C1886 0.950 . S
H1875 C1887 0.950 . S
C1876 H1868 0.950 . S
C1876 C1877 1.386 . S
C1876 C1878 1.391 1_554 S
C1877 C1876 1.386 . S
C1877 C1881 1.393 . S
C1878 H1870 0.950 . S
C1878 C1876 1.391 1_556 S
C1878 C1879 1.400 . S
C1879 C1878 1.400 . S
C1879 C1880 1.398 . S
C1879 C1885 1.491 . S
C1880 H1871 0.950 . S
C1880 C1879 1.398 . S
C1880 C1881 1.391 1_556 S
C1881 H1869 0.950 . S
C1881 C1877 1.393 . S
C1881 C1880 1.391 1_554 S
C1882 H1872 0.950 . S
C1882 C1883 1.386 . S
C1882 C1884 1.391 . S
C1883 C1882 1.386 . S
C1883 C1887 1.393 . S
C1884 H1873 0.950 . S
C1884 C1882 1.391 . S
C1884 C1885 1.400 . S
C1885 C1879 1.491 . S
C1885 C1884 1.400 . S
C1885 C1886 1.398 . S
C1886 H1874 0.950 . S
C1886 C1885 1.398 . S
C1886 C1887 1.391 . S
C1887 H1875 0.950 . S
C1887 C1883 1.393 . S
C1887 C1886 1.391 . S
H1888 C1896 0.950 . S
H1889 C1901 0.950 . S
H1890 C1898 0.950 . S
H1891 C1900 0.950 . S
H1892 C1902 0.950 . S
H1893 C1904 0.950 . S
H1894 C1906 0.950 . S
H1895 C1907 0.950 . S
C1896 H1888 0.950 . S
C1896 C1897 1.386 . S
C1896 C1898 1.391 . S
C1897 C1896 1.386 . S
C1897 C1901 1.393 . S
C1898 H1890 0.950 . S
C1898 C1896 1.391 . S
C1898 C1899 1.400 . S
C1899 C1898 1.400 . S
C1899 C1900 1.398 . S
C1899 C1905 1.491 . S
C1900 H1891 0.950 . S
C1900 C1899 1.398 . S
C1900 C1901 1.391 . S
C1901 H1889 0.950 . S
C1901 C1897 1.393 . S
C1901 C1900 1.391 . S
C1902 H1892 0.950 . S
C1902 C1903 1.386 . S
C1902 C1904 1.391 . S
C1903 C1902 1.386 . S
C1903 C1907 1.393 1_554 S
C1904 H1893 0.950 . S
C1904 C1902 1.391 . S
C1904 C1905 1.400 1_554 S
C1905 C1899 1.491 . S
C1905 C1904 1.400 1_556 S
C1905 C1906 1.398 . S
C1906 H1894 0.950 . S
C1906 C1905 1.398 . S
C1906 C1907 1.391 . S
C1907 H1895 0.950 . S
C1907 C1903 1.393 1_556 S
C1907 C1906 1.391 . S
H1908 C1916 0.950 . S
H1909 C1921 0.950 . S
H1910 C1918 0.950 . S
H1911 C1920 0.950 . S
H1912 C1922 0.950 . S
H1913 C1924 0.950 . S
H1914 C1926 0.950 . S
H1915 C1927 0.950 . S
C1916 H1908 0.950 . S
C1916 C1917 1.386 . S
C1916 C1918 1.391 . S
C1917 C1916 1.386 . S
C1917 C1921 1.393 . S
C1918 H1910 0.950 . S
C1918 C1916 1.391 . S
C1918 C1919 1.400 . S
C1919 C1918 1.400 . S
C1919 C1920 1.398 . S
C1919 C1925 1.491 . S
C1920 H1911 0.950 . S
C1920 C1919 1.398 . S
C1920 C1921 1.391 . S
C1921 H1909 0.950 . S
C1921 C1917 1.393 . S
C1921 C1920 1.391 . S
C1922 H1912 0.950 . S
C1922 C1923 1.386 . S
C1922 C1924 1.391 . S
C1923 C1922 1.386 . S
C1923 C1927 1.393 . S
C1924 H1913 0.950 . S
C1924 C1922 1.391 . S
C1924 C1925 1.400 . S
C1925 C1919 1.491 . S
C1925 C1924 1.400 . S
C1925 C1926 1.398 . S
C1926 H1914 0.950 . S
C1926 C1925 1.398 . S
C1926 C1927 1.391 . S
C1927 H1915 0.950 . S
C1927 C1923 1.393 . S
C1927 C1926 1.391 . S
H1928 C1936 0.950 . S
H1929 C1941 0.950 . S
H1930 C1938 0.950 1_565 S
H1931 C1940 0.950 . S
H1932 C1942 0.950 . S
H1933 C1944 0.950 1_545 S
H1934 C1946 0.950 . S
H1935 C1947 0.950 . S
C1936 H1928 0.950 . S
C1936 C1937 1.386 . S
C1936 C1938 1.391 . S
C1937 C1936 1.386 . S
C1937 C1941 1.393 . S
C1938 H1930 0.950 1_545 S
C1938 C1936 1.391 . S
C1938 C1939 1.400 . S
C1939 C1938 1.400 . S
C1939 C1940 1.398 . S
C1939 C1945 1.491 1_545 S
C1940 H1931 0.950 . S
C1940 C1939 1.398 . S
C1940 C1941 1.391 . S
C1941 H1929 0.950 . S
C1941 C1937 1.393 . S
C1941 C1940 1.391 . S
C1942 H1932 0.950 . S
C1942 C1943 1.386 . S
C1942 C1944 1.391 . S
C1943 C1942 1.386 . S
C1943 C1947 1.393 . S
C1944 H1933 0.950 1_565 S
C1944 C1942 1.391 . S
C1944 C1945 1.400 . S
C1945 C1939 1.491 1_565 S
C1945 C1944 1.400 . S
C1945 C1946 1.398 . S
C1946 H1934 0.950 . S
C1946 C1945 1.398 . S
C1946 C1947 1.391 . S
C1947 H1935 0.950 . S
C1947 C1943 1.393 . S
C1947 C1946 1.391 . S
H1948 C1956 0.950 . S
H1949 C1961 0.950 . S
H1950 C1958 0.933 1_455 S
H1951 C1960 0.950 . S
H1952 C1962 0.950 . S
H1953 C1964 0.933 1_655 S
H1954 C1966 0.950 . S
H1955 C1967 0.950 . S
C1956 H1948 0.950 . S
C1956 C1957 1.386 . S
C1956 C1958 1.391 . S
C1957 C1956 1.386 . S
C1957 C1961 1.393 . S
C1958 H1950 0.933 1_655 S
C1958 C1956 1.391 . S
C1958 C1959 1.400 . S
C1959 C1958 1.400 . S
C1959 C1960 1.398 . S
C1959 C1965 1.491 1_655 S
C1960 H1951 0.950 . S
C1960 C1959 1.398 . S
C1960 C1961 1.391 . S
C1961 H1949 0.950 . S
C1961 C1957 1.393 . S
C1961 C1960 1.391 . S
C1962 H1952 0.950 . S
C1962 C1963 1.386 . S
C1962 C1964 1.391 . S
C1963 C1962 1.386 . S
C1963 C1967 1.393 . S
C1964 H1953 0.933 1_455 S
C1964 C1962 1.391 . S
C1964 C1965 1.400 . S
C1965 C1959 1.491 1_455 S
C1965 C1964 1.400 . S
C1965 C1966 1.398 . S
C1966 H1954 0.950 . S
C1966 C1965 1.398 . S
C1966 C1967 1.391 . S
C1967 H1955 0.950 . S
C1967 C1963 1.393 . S
C1967 C1966 1.391 . S
H1968 C1976 0.950 . S
H1969 C1981 0.950 . S
H1970 C1978 0.950 . S
H1971 C1980 0.950 . S
H1972 C1982 0.950 . S
H1973 C1984 0.950 . S
H1974 C1986 0.950 . S
H1975 C1987 0.950 . S
C1976 H1968 0.950 . S
C1976 C1977 1.386 . S
C1976 C1978 1.391 . S
C1977 C1976 1.386 . S
C1977 C1981 1.393 . S
C1978 H1970 0.950 . S
C1978 C1976 1.391 . S
C1978 C1979 1.400 . S
C1979 C1978 1.400 . S
C1979 C1980 1.398 . S
C1979 C1985 1.491 . S
C1980 H1971 0.950 . S
C1980 C1979 1.398 . S
C1980 C1981 1.391 . S
C1981 H1969 0.950 . S
C1981 C1977 1.393 . S
C1981 C1980 1.391 . S
C1982 H1972 0.950 . S
C1982 C1983 1.386 . S
C1982 C1984 1.391 . S
C1983 C1982 1.386 . S
C1983 C1987 1.393 . S
C1984 H1973 0.950 . S
C1984 C1982 1.391 . S
C1984 C1985 1.400 . S
C1985 C1979 1.491 . S
C1985 C1984 1.400 . S
C1985 C1986 1.398 . S
C1986 H1974 0.950 . S
C1986 C1985 1.398 . S
C1986 C1987 1.391 . S
C1987 H1975 0.950 . S
C1987 C1983 1.393 . S
C1987 C1986 1.391 . S
H1988 C1996 0.950 . S
H1989 C2001 0.950 . S
H1990 C1998 0.950 1_545 S
H1991 C2000 0.950 . S
H1992 C2002 0.950 . S
H1993 C2004 0.950 1_565 S
H1994 C2006 0.950 . S
H1995 C2007 0.950 . S
C1996 H1988 0.950 . S
C1996 C1997 1.386 . S
C1996 C1998 1.391 . S
C1997 C1996 1.386 . S
C1997 C2001 1.393 . S
C1998 H1990 0.950 1_565 S
C1998 C1996 1.391 . S
C1998 C1999 1.400 . S
C1999 C1998 1.400 . S
C1999 C2000 1.398 . S
C1999 C2005 1.491 1_565 S
C2000 H1991 0.950 . S
C2000 C1999 1.398 . S
C2000 C2001 1.391 . S
C2001 H1989 0.950 . S
C2001 C1997 1.393 . S
C2001 C2000 1.391 . S
C2002 H1992 0.950 . S
C2002 C2003 1.386 . S
C2002 C2004 1.391 . S
C2003 C2002 1.386 . S
C2003 C2007 1.393 . S
C2004 H1993 0.950 1_545 S
C2004 C2002 1.391 . S
C2004 C2005 1.400 . S
C2005 C1999 1.491 1_545 S
C2005 C2004 1.400 . S
C2005 C2006 1.398 . S
C2006 H1994 0.950 . S
C2006 C2005 1.398 . S
C2006 C2007 1.391 . S
C2007 H1995 0.950 . S
C2007 C2003 1.393 . S
C2007 C2006 1.391 . S
H2008 C2016 0.950 . S
H2009 C2021 0.950 . S
H2010 C2018 0.950 1_455 S
H2011 C2020 0.950 . S
H2012 C2022 0.950 . S
H2013 C2024 0.950 1_655 S
H2014 C2026 0.950 . S
H2015 C2027 0.950 . S
C2016 H2008 0.950 . S
C2016 C2017 1.386 . S
C2016 C2018 1.391 . S
C2017 C2016 1.386 . S
C2017 C2021 1.393 . S
C2018 H2010 0.950 1_655 S
C2018 C2016 1.391 . S
C2018 C2019 1.400 . S
C2019 C2018 1.400 . S
C2019 C2020 1.398 . S
C2019 C2025 1.491 1_655 S
C2020 H2011 0.950 . S
C2020 C2019 1.398 . S
C2020 C2021 1.391 . S
C2021 H2009 0.950 . S
C2021 C2017 1.393 . S
C2021 C2020 1.391 . S
C2022 H2012 0.950 . S
C2022 C2023 1.386 . S
C2022 C2024 1.391 . S
C2023 C2022 1.386 . S
C2023 C2027 1.393 . S
C2024 H2013 0.950 1_455 S
C2024 C2022 1.391 . S
C2024 C2025 1.400 . S
C2025 C2019 1.491 1_455 S
C2025 C2024 1.400 . S
C2025 C2026 1.398 . S
C2026 H2014 0.950 . S
C2026 C2025 1.398 . S
C2026 C2027 1.391 . S
C2027 H2015 0.950 . S
C2027 C2023 1.393 . S
C2027 C2026 1.391 . S
H2028 C2036 0.950 . S
H2029 C2041 0.950 . S
H2030 C2038 0.950 . S
H2031 C2040 0.950 . S
H2032 C2042 0.950 . S
H2033 C2044 0.950 . S
H2034 C2046 0.950 . S
H2035 C2047 0.950 . S
C2036 H2028 0.950 . S
C2036 C2037 1.386 . S
C2036 C2038 1.391 . S
C2037 C2036 1.386 . S
C2037 C2041 1.393 . S
C2038 H2030 0.950 . S
C2038 C2036 1.391 . S
C2038 C2039 1.400 . S
C2039 C2038 1.400 . S
C2039 C2040 1.398 . S
C2039 C2045 1.491 . S
C2040 H2031 0.950 . S
C2040 C2039 1.398 . S
C2040 C2041 1.391 . S
C2041 H2029 0.950 . S
C2041 C2037 1.393 . S
C2041 C2040 1.391 . S
C2042 H2032 0.950 . S
C2042 C2043 1.386 . S
C2042 C2044 1.391 . S
C2043 C2042 1.386 . S
C2043 C2047 1.393 . S
C2044 H2033 0.950 . S
C2044 C2042 1.391 . S
C2044 C2045 1.400 . S
C2045 C2039 1.491 . S
C2045 C2044 1.400 . S
C2045 C2046 1.398 . S
C2046 H2034 0.950 . S
C2046 C2045 1.398 . S
C2046 C2047 1.391 . S
C2047 H2035 0.950 . S
C2047 C2043 1.393 . S
C2047 C2046 1.391 . S
H2048 C2056 0.950 . S
H2049 C2061 0.950 . S
H2050 C2058 0.950 . S
H2051 C2060 0.950 . S
H2052 C2062 0.950 . S
H2053 C2064 0.950 . S
H2054 C2066 0.950 . S
H2055 C2067 0.950 . S
C2056 H2048 0.950 . S
C2056 C2057 1.386 . S
C2056 C2058 1.391 . S
C2057 C2056 1.386 . S
C2057 C2061 1.393 . S
C2058 H2050 0.950 . S
C2058 C2056 1.391 . S
C2058 C2059 1.400 . S
C2059 C2058 1.400 . S
C2059 C2060 1.398 . S
C2059 C2065 1.491 . S
C2060 H2051 0.950 . S
C2060 C2059 1.398 . S
C2060 C2061 1.391 . S
C2061 H2049 0.950 . S
C2061 C2057 1.393 . S
C2061 C2060 1.391 . S
C2062 H2052 0.950 . S
C2062 C2063 1.386 . S
C2062 C2064 1.391 . S
C2063 C2062 1.386 . S
C2063 C2067 1.393 . S
C2064 H2053 0.950 . S
C2064 C2062 1.391 . S
C2064 C2065 1.400 . S
C2065 C2059 1.491 . S
C2065 C2064 1.400 . S
C2065 C2066 1.398 . S
C2066 H2054 0.950 . S
C2066 C2065 1.398 . S
C2066 C2067 1.391 . S
C2067 H2055 0.950 . S
C2067 C2063 1.393 . S
C2067 C2066 1.391 . S
H2068 C2076 0.950 . S
H2069 C2081 0.950 . S
H2070 C2078 0.950 . S
H2071 C2080 0.950 . S
H2072 C2082 0.950 . S
H2073 C2084 0.950 . S
H2074 C2086 0.950 . S
H2075 C2087 0.950 . S
C2076 H2068 0.950 . S
C2076 C2077 1.386 . S
C2076 C2078 1.391 . S
C2077 C2076 1.386 . S
C2077 C2081 1.393 . S
C2078 H2070 0.950 . S
C2078 C2076 1.391 . S
C2078 C2079 1.400 . S
C2079 C2078 1.400 . S
C2079 C2080 1.398 . S
C2079 C2085 1.491 . S
C2080 H2071 0.950 . S
C2080 C2079 1.398 . S
C2080 C2081 1.391 . S
C2081 H2069 0.950 . S
C2081 C2077 1.393 . S
C2081 C2080 1.391 . S
C2082 H2072 0.950 . S
C2082 C2083 1.386 . S
C2082 C2084 1.391 . S
C2083 C2082 1.386 . S
C2083 C2087 1.393 . S
C2084 H2073 0.950 . S
C2084 C2082 1.391 . S
C2084 C2085 1.400 . S
C2085 C2079 1.491 . S
C2085 C2084 1.400 . S
C2085 C2086 1.398 . S
C2086 H2074 0.950 . S
C2086 C2085 1.398 . S
C2086 C2087 1.391 . S
C2087 H2075 0.950 . S
C2087 C2083 1.393 . S
C2087 C2086 1.391 . S
H2088 C2096 0.950 . S
H2089 C2101 0.950 . S
H2090 C2098 0.950 . S
H2091 C2100 0.950 . S
H2092 C2102 0.950 . S
H2093 C2104 0.950 . S
H2094 C2106 0.950 . S
H2095 C2107 0.950 . S
C2096 H2088 0.950 . S
C2096 C2097 1.386 . S
C2096 C2098 1.391 . S
C2097 C2096 1.386 . S
C2097 C2101 1.393 . S
C2098 H2090 0.950 . S
C2098 C2096 1.391 . S
C2098 C2099 1.400 . S
C2099 C2098 1.400 . S
C2099 C2100 1.398 . S
C2099 C2105 1.491 . S
C2100 H2091 0.950 . S
C2100 C2099 1.398 . S
C2100 C2101 1.391 . S
C2101 H2089 0.950 . S
C2101 C2097 1.393 . S
C2101 C2100 1.391 . S
C2102 H2092 0.950 . S
C2102 C2103 1.386 . S
C2102 C2104 1.391 . S
C2103 C2102 1.386 . S
C2103 C2107 1.393 1_554 S
C2104 H2093 0.950 . S
C2104 C2102 1.391 . S
C2104 C2105 1.400 . S
C2105 C2099 1.491 . S
C2105 C2104 1.400 . S
C2105 C2106 1.398 . S
C2106 H2094 0.950 . S
C2106 C2105 1.398 . S
C2106 C2107 1.391 1_554 S
C2107 H2095 0.950 . S
C2107 C2103 1.393 1_556 S
C2107 C2106 1.391 1_556 S
H2108 C2116 0.950 . S
H2109 C2121 0.950 . S
H2110 C2118 0.950 . S
H2111 C2120 0.950 . S
H2112 C2122 0.950 . S
H2113 C2124 0.950 . S
H2114 C2126 0.950 . S
H2115 C2127 0.950 . S
C2116 H2108 0.950 . S
C2116 C2117 1.386 1_556 S
C2116 C2118 1.391 1_556 S
C2117 C2116 1.386 1_554 S
C2117 C2121 1.393 . S
C2118 H2110 0.950 . S
C2118 C2116 1.391 1_554 S
C2118 C2119 1.400 . S
C2119 C2118 1.400 . S
C2119 C2120 1.398 . S
C2119 C2125 1.491 . S
C2120 H2111 0.950 . S
C2120 C2119 1.398 . S
C2120 C2121 1.391 . S
C2121 H2109 0.950 . S
C2121 C2117 1.393 . S
C2121 C2120 1.391 . S
C2122 H2112 0.950 . S
C2122 C2123 1.386 . S
C2122 C2124 1.391 . S
C2123 C2122 1.386 . S
C2123 C2127 1.393 . S
C2124 H2113 0.950 . S
C2124 C2122 1.391 . S
C2124 C2125 1.400 . S
C2125 C2119 1.491 . S
C2125 C2124 1.400 . S
C2125 C2126 1.398 . S
C2126 H2114 0.950 . S
C2126 C2125 1.398 . S
C2126 C2127 1.391 . S
C2127 H2115 0.950 . S
C2127 C2123 1.393 . S
C2127 C2126 1.391 . S
H2128 C2136 0.950 . S
H2129 C2141 0.944 1_556 S
H2130 C2138 0.950 . S
H2131 C2140 0.950 . S
H2132 C2142 0.950 . S
H2133 C2144 0.950 . S
H2134 C2146 0.950 . S
H2135 C2147 0.950 . S
C2136 H2128 0.950 . S
C2136 C2137 1.386 . S
C2136 C2138 1.391 . S
C2137 C2136 1.386 . S
C2137 C2141 1.393 . S
C2138 H2130 0.950 . S
C2138 C2136 1.391 . S
C2138 C2139 1.400 . S
C2139 C2138 1.400 . S
C2139 C2140 1.398 . S
C2139 C2145 1.491 . S
C2140 H2131 0.950 . S
C2140 C2139 1.398 . S
C2140 C2141 1.396 . S
C2141 H2129 0.944 1_554 S
C2141 C2137 1.393 . S
C2141 C2140 1.396 . S
C2142 H2132 0.950 . S
C2142 C2143 1.386 . S
C2142 C2144 1.391 . S
C2143 C2142 1.386 . S
C2143 C2147 1.393 . S
C2144 H2133 0.950 . S
C2144 C2142 1.391 . S
C2144 C2145 1.400 . S
C2145 C2139 1.491 . S
C2145 C2144 1.400 . S
C2145 C2146 1.398 . S
C2146 H2134 0.950 . S
C2146 C2145 1.398 . S
C2146 C2147 1.391 . S
C2147 H2135 0.950 . S
C2147 C2143 1.393 . S
C2147 C2146 1.391 . S
H2148 C2156 0.950 . S
H2149 C2161 0.950 . S
H2150 C2158 0.950 . S
H2151 C2160 0.950 . S
H2152 C2162 0.950 . S
H2153 C2164 0.950 . S
H2154 C2166 0.950 . S
H2155 C2167 0.950 . S
C2156 H2148 0.950 . S
C2156 C2157 1.386 . S
C2156 C2158 1.391 . S
C2157 C2156 1.386 . S
C2157 C2161 1.393 . S
C2158 H2150 0.950 . S
C2158 C2156 1.391 . S
C2158 C2159 1.400 . S
C2159 C2158 1.400 . S
C2159 C2160 1.398 . S
C2159 C2165 1.491 . S
C2160 H2151 0.950 . S
C2160 C2159 1.398 . S
C2160 C2161 1.391 . S
C2161 H2149 0.950 . S
C2161 C2157 1.393 . S
C2161 C2160 1.391 . S
C2162 H2152 0.950 . S
C2162 C2163 1.386 . S
C2162 C2164 1.391 . S
C2163 C2162 1.386 . S
C2163 C2167 1.393 . S
C2164 H2153 0.950 . S
C2164 C2162 1.391 . S
C2164 C2165 1.400 1_554 S
C2165 C2159 1.491 . S
C2165 C2164 1.400 1_556 S
C2165 C2166 1.398 . S
C2166 H2154 0.950 . S
C2166 C2165 1.398 . S
C2166 C2167 1.391 1_556 S
C2167 H2155 0.950 . S
C2167 C2163 1.393 . S
C2167 C2166 1.391 1_554 S
H2168 C2176 0.950 1_556 S
H2169 C2181 0.950 . S
H2170 C2178 0.950 . S
H2171 C2180 0.950 . S
H2172 C2182 0.950 . S
H2173 C2184 0.950 . S
H2174 C2186 0.950 . S
H2175 C2187 0.950 . S
C2176 H2168 0.950 1_554 S
C2176 C2177 1.386 . S
C2176 C2178 1.391 1_554 S
C2177 C2176 1.386 . S
C2177 C2181 1.393 . S
C2178 H2170 0.950 . S
C2178 C2176 1.391 1_556 S
C2178 C2179 1.400 . S
C2179 C2178 1.400 . S
C2179 C2180 1.398 1_556 S
C2179 C2185 1.491 . S
C2180 H2171 0.950 . S
C2180 C2179 1.398 1_554 S
C2180 C2181 1.391 . S
C2181 H2169 0.950 . S
C2181 C2177 1.393 . S
C2181 C2180 1.391 . S
C2182 H2172 0.950 . S
C2182 C2183 1.386 . S
C2182 C2184 1.391 . S
C2183 C2182 1.386 . S
C2183 C2187 1.393 . S
C2184 H2173 0.950 . S
C2184 C2182 1.391 . S
C2184 C2185 1.400 . S
C2185 C2179 1.491 . S
C2185 C2184 1.400 . S
C2185 C2186 1.398 . S
C2186 H2174 0.950 . S
C2186 C2185 1.398 . S
C2186 C2187 1.391 . S
C2187 H2175 0.950 . S
C2187 C2183 1.393 . S
C2187 C2186 1.391 . S
H2188 C2196 0.950 . S
H2189 C2201 0.950 . S
H2190 C2198 0.950 . S
H2191 C2200 0.950 . S
H2192 C2202 0.950 . S
H2193 C2204 0.950 . S
H2194 C2206 0.950 . S
H2195 C2207 0.950 . S
C2196 H2188 0.950 . S
C2196 C2197 1.386 . S
C2196 C2198 1.391 . S
C2197 C2196 1.386 . S
C2197 C2201 1.393 . S
C2198 H2190 0.950 . S
C2198 C2196 1.391 . S
C2198 C2199 1.400 . S
C2199 C2198 1.400 . S
C2199 C2200 1.398 . S
C2199 C2205 1.491 . S
C2200 H2191 0.950 . S
C2200 C2199 1.398 . S
C2200 C2201 1.391 . S
C2201 H2189 0.950 . S
C2201 C2197 1.393 . S
C2201 C2200 1.391 . S
C2202 H2192 0.950 . S
C2202 C2203 1.386 . S
C2202 C2204 1.391 1_554 S
C2203 C2202 1.386 . S
C2203 C2207 1.393 . S
C2204 H2193 0.950 . S
C2204 C2202 1.391 1_556 S
C2204 C2205 1.400 . S
C2205 C2199 1.491 . S
C2205 C2204 1.400 . S
C2205 C2206 1.398 1_556 S
C2206 H2194 0.950 . S
C2206 C2205 1.398 1_554 S
C2206 C2207 1.391 . S
C2207 H2195 0.950 . S
C2207 C2203 1.393 . S
C2207 C2206 1.391 . S
H2208 C2216 0.950 . S
H2209 C2221 0.950 . S
H2210 C2218 0.950 . S
H2211 C2220 0.950 . S
H2212 C2222 0.950 . S
H2213 C2224 0.950 . S
H2214 C2226 0.950 . S
H2215 C2227 0.950 . S
C2216 H2208 0.950 . S
C2216 C2217 1.386 . S
C2216 C2218 1.391 . S
C2217 C2216 1.386 . S
C2217 C2221 1.393 . S
C2218 H2210 0.950 . S
C2218 C2216 1.391 . S
C2218 C2219 1.400 . S
C2219 C2218 1.400 . S
C2219 C2220 1.398 . S
C2219 C2225 1.491 . S
C2220 H2211 0.950 . S
C2220 C2219 1.398 . S
C2220 C2221 1.391 . S
C2221 H2209 0.950 . S
C2221 C2217 1.393 . S
C2221 C2220 1.391 . S
C2222 H2212 0.950 . S
C2222 C2223 1.386 . S
C2222 C2224 1.391 . S
C2223 C2222 1.386 . S
C2223 C2227 1.393 . S
C2224 H2213 0.950 . S
C2224 C2222 1.391 . S
C2224 C2225 1.400 . S
C2225 C2219 1.491 . S
C2225 C2224 1.400 . S
C2225 C2226 1.398 . S
C2226 H2214 0.950 . S
C2226 C2225 1.398 . S
C2226 C2227 1.391 . S
C2227 H2215 0.950 . S
C2227 C2223 1.393 . S
C2227 C2226 1.391 . S
H2228 C2236 0.950 . S
H2229 C2241 0.950 . S
H2230 C2238 0.950 . S
H2231 C2240 0.950 . S
H2232 C2242 0.950 . S
H2233 C2244 0.950 . S
H2234 C2246 0.950 . S
H2235 C2247 0.950 . S
C2236 H2228 0.950 . S
C2236 C2237 1.386 . S
C2236 C2238 1.391 . S
C2237 C2236 1.386 . S
C2237 C2241 1.393 . S
C2238 H2230 0.950 . S
C2238 C2236 1.391 . S
C2238 C2239 1.400 . S
C2239 C2238 1.400 . S
C2239 C2240 1.398 . S
C2239 C2245 1.491 . S
C2240 H2231 0.950 . S
C2240 C2239 1.398 . S
C2240 C2241 1.391 . S
C2241 H2229 0.950 . S
C2241 C2237 1.393 . S
C2241 C2240 1.391 . S
C2242 H2232 0.950 . S
C2242 C2243 1.386 . S
C2242 C2244 1.391 . S
C2243 C2242 1.386 . S
C2243 C2247 1.393 . S
C2244 H2233 0.950 . S
C2244 C2242 1.391 . S
C2244 C2245 1.400 . S
C2245 C2239 1.491 . S
C2245 C2244 1.400 . S
C2245 C2246 1.398 . S
C2246 H2234 0.950 . S
C2246 C2245 1.398 . S
C2246 C2247 1.391 . S
C2247 H2235 0.950 . S
C2247 C2243 1.393 . S
C2247 C2246 1.391 . S
H2248 C2256 0.950 . S
H2249 C2261 0.950 . S
H2250 C2258 0.950 . S
H2251 C2260 0.950 . S
H2252 C2262 0.950 . S
H2253 C2264 0.950 . S
H2254 C2266 0.950 . S
H2255 C2267 0.950 . S
C2256 H2248 0.950 . S
C2256 C2257 1.386 . S
C2256 C2258 1.391 . S
C2257 C2256 1.386 . S
C2257 C2261 1.393 . S
C2258 H2250 0.950 . S
C2258 C2256 1.391 . S
C2258 C2259 1.400 . S
C2259 C2258 1.400 . S
C2259 C2260 1.398 . S
C2259 C2265 1.491 . S
C2260 H2251 0.950 . S
C2260 C2259 1.398 . S
C2260 C2261 1.391 . S
C2261 H2249 0.950 . S
C2261 C2257 1.393 . S
C2261 C2260 1.391 . S
C2262 H2252 0.950 . S
C2262 C2263 1.386 . S
C2262 C2264 1.391 . S
C2263 C2262 1.386 . S
C2263 C2267 1.393 . S
C2264 H2253 0.950 . S
C2264 C2262 1.391 . S
C2264 C2265 1.400 . S
C2265 C2259 1.491 . S
C2265 C2264 1.400 . S
C2265 C2266 1.398 . S
C2266 H2254 0.950 . S
C2266 C2265 1.398 . S
C2266 C2267 1.391 . S
C2267 H2255 0.950 . S
C2267 C2263 1.393 . S
C2267 C2266 1.391 . S
H2268 C2276 0.950 . S
H2269 C2281 0.950 . S
H2270 C2278 0.950 . S
H2271 C2280 0.950 . S
H2272 C2282 0.950 . S
H2273 C2284 0.950 . S
H2274 C2286 0.950 . S
H2275 C2287 0.950 . S
C2276 H2268 0.950 . S
C2276 C2277 1.386 . S
C2276 C2278 1.391 . S
C2277 C2276 1.386 . S
C2277 C2281 1.393 . S
C2278 H2270 0.950 . S
C2278 C2276 1.391 . S
C2278 C2279 1.400 . S
C2279 C2278 1.400 . S
C2279 C2280 1.398 . S
C2279 C2285 1.491 . S
C2280 H2271 0.950 . S
C2280 C2279 1.398 . S
C2280 C2281 1.391 . S
C2281 H2269 0.950 . S
C2281 C2277 1.393 . S
C2281 C2280 1.391 . S
C2282 H2272 0.950 . S
C2282 C2283 1.386 . S
C2282 C2284 1.391 . S
C2283 C2282 1.386 . S
C2283 C2287 1.393 . S
C2284 H2273 0.950 . S
C2284 C2282 1.391 . S
C2284 C2285 1.400 . S
C2285 C2279 1.491 . S
C2285 C2284 1.400 . S
C2285 C2286 1.398 . S
C2286 H2274 0.950 . S
C2286 C2285 1.398 . S
C2286 C2287 1.391 . S
C2287 H2275 0.950 . S
C2287 C2283 1.393 . S
C2287 C2286 1.391 . S
H2288 C2296 0.950 . S
H2289 C2301 0.950 . S
H2290 C2298 0.973 . S
H2291 C2300 0.950 . S
H2292 C2302 0.950 . S
H2293 C2304 0.973 . S
H2294 C2306 0.950 . S
H2295 C2307 0.950 . S
C2296 H2288 0.950 . S
C2296 C2297 1.386 . S
C2296 C2298 1.391 . S
C2297 C2296 1.386 . S
C2297 C2301 1.393 . S
C2298 H2290 0.973 . S
C2298 C2296 1.391 . S
C2298 C2299 1.400 . S
C2299 C2298 1.400 . S
C2299 C2300 1.398 . S
C2299 C2305 1.491 1_545 S
C2300 H2291 0.950 . S
C2300 C2299 1.398 . S
C2300 C2301 1.391 . S
C2301 H2289 0.950 . S
C2301 C2297 1.393 . S
C2301 C2300 1.391 . S
C2302 H2292 0.950 . S
C2302 C2303 1.386 . S
C2302 C2304 1.391 . S
C2303 C2302 1.386 . S
C2303 C2307 1.393 . S
C2304 H2293 0.973 . S
C2304 C2302 1.391 . S
C2304 C2305 1.400 . S
C2305 C2299 1.491 1_565 S
C2305 C2304 1.400 . S
C2305 C2306 1.398 . S
C2306 H2294 0.950 . S
C2306 C2305 1.398 . S
C2306 C2307 1.391 . S
C2307 H2295 0.950 . S
C2307 C2303 1.393 . S
C2307 C2306 1.391 . S
H2308 C2316 0.950 . S
H2309 C2321 0.950 . S
H2310 C2318 0.950 1_655 S
H2311 C2320 0.950 . S
H2312 C2322 0.950 . S
H2313 C2324 0.950 1_455 S
H2314 C2326 0.950 . S
H2315 C2327 0.950 . S
C2316 H2308 0.950 . S
C2316 C2317 1.386 . S
C2316 C2318 1.391 . S
C2317 C2316 1.386 . S
C2317 C2321 1.393 . S
C2318 H2310 0.950 1_455 S
C2318 C2316 1.391 . S
C2318 C2319 1.400 . S
C2319 C2318 1.400 . S
C2319 C2320 1.398 . S
C2319 C2325 1.491 1_455 S
C2320 H2311 0.950 . S
C2320 C2319 1.398 . S
C2320 C2321 1.391 . S
C2321 H2309 0.950 . S
C2321 C2317 1.393 . S
C2321 C2320 1.391 . S
C2322 H2312 0.950 . S
C2322 C2323 1.386 . S
C2322 C2324 1.391 . S
C2323 C2322 1.386 . S
C2323 C2327 1.393 . S
C2324 H2313 0.950 1_655 S
C2324 C2322 1.391 . S
C2324 C2325 1.400 . S
C2325 C2319 1.491 1_655 S
C2325 C2324 1.400 . S
C2325 C2326 1.398 . S
C2326 H2314 0.950 . S
C2326 C2325 1.398 . S
C2326 C2327 1.391 . S
C2327 H2315 0.950 . S
C2327 C2323 1.393 . S
C2327 C2326 1.391 . S
H2328 C2336 0.950 . S
H2329 C2341 0.950 . S
H2330 C2338 0.950 . S
H2331 C2340 0.950 . S
H2332 C2342 0.950 . S
H2333 C2344 0.950 . S
H2334 C2346 0.950 . S
H2335 C2347 0.950 . S
C2336 H2328 0.950 . S
C2336 C2337 1.386 . S
C2336 C2338 1.391 . S
C2337 C2336 1.386 . S
C2337 C2341 1.393 . S
C2338 H2330 0.950 . S
C2338 C2336 1.391 . S
C2338 C2339 1.400 . S
C2339 C2338 1.400 . S
C2339 C2340 1.398 . S
C2339 C2345 1.491 . S
C2340 H2331 0.950 . S
C2340 C2339 1.398 . S
C2340 C2341 1.391 . S
C2341 H2329 0.950 . S
C2341 C2337 1.393 . S
C2341 C2340 1.391 . S
C2342 H2332 0.950 . S
C2342 C2343 1.386 . S
C2342 C2344 1.391 . S
C2343 C2342 1.386 . S
C2343 C2347 1.393 . S
C2344 H2333 0.950 . S
C2344 C2342 1.391 . S
C2344 C2345 1.400 . S
C2345 C2339 1.491 . S
C2345 C2344 1.400 . S
C2345 C2346 1.398 . S
C2346 H2334 0.950 . S
C2346 C2345 1.398 . S
C2346 C2347 1.391 . S
C2347 H2335 0.950 . S
C2347 C2343 1.393 . S
C2347 C2346 1.391 . S
H2348 C2356 0.950 . S
H2349 C2361 0.950 . S
H2350 C2358 0.950 1_565 S
H2351 C2360 0.950 . S
H2352 C2362 0.950 . S
H2353 C2364 0.950 1_545 S
H2354 C2366 0.950 . S
H2355 C2367 0.950 . S
C2356 H2348 0.950 . S
C2356 C2357 1.386 . S
C2356 C2358 1.391 . S
C2357 C2356 1.386 . S
C2357 C2361 1.393 . S
C2358 H2350 0.950 1_545 S
C2358 C2356 1.391 . S
C2358 C2359 1.400 . S
C2359 C2358 1.400 . S
C2359 C2360 1.398 . S
C2359 C2365 1.491 1_545 S
C2360 H2351 0.950 . S
C2360 C2359 1.398 . S
C2360 C2361 1.391 . S
C2361 H2349 0.950 . S
C2361 C2357 1.393 . S
C2361 C2360 1.391 . S
C2362 H2352 0.950 . S
C2362 C2363 1.386 . S
C2362 C2364 1.391 . S
C2363 C2362 1.386 . S
C2363 C2367 1.393 . S
C2364 H2353 0.950 1_565 S
C2364 C2362 1.391 . S
C2364 C2365 1.400 . S
C2365 C2359 1.491 1_565 S
C2365 C2364 1.400 . S
C2365 C2366 1.398 . S
C2366 H2354 0.950 . S
C2366 C2365 1.398 . S
C2366 C2367 1.391 . S
C2367 H2355 0.950 . S
C2367 C2363 1.393 . S
C2367 C2366 1.391 . S
H2368 C2376 0.950 . S
H2369 C2381 0.950 . S
H2370 C2378 0.950 . S
H2371 C2380 0.950 . S
H2372 C2382 0.950 . S
H2373 C2384 0.950 . S
H2374 C2386 0.950 . S
H2375 C2387 0.950 . S
C2376 H2368 0.950 . S
C2376 C2377 1.386 . S
C2376 C2378 1.391 . S
C2377 C2376 1.386 . S
C2377 C2381 1.393 . S
C2378 H2370 0.950 . S
C2378 C2376 1.391 . S
C2378 C2379 1.400 . S
C2379 C2378 1.400 . S
C2379 C2380 1.398 . S
C2379 C2385 1.491 1_655 S
C2380 H2371 0.950 . S
C2380 C2379 1.398 . S
C2380 C2381 1.391 . S
C2381 H2369 0.950 . S
C2381 C2377 1.393 . S
C2381 C2380 1.391 . S
C2382 H2372 0.950 . S
C2382 C2383 1.386 . S
C2382 C2384 1.391 . S
C2383 C2382 1.386 . S
C2383 C2387 1.393 . S
C2384 H2373 0.950 . S
C2384 C2382 1.391 . S
C2384 C2385 1.400 . S
C2385 C2379 1.491 1_455 S
C2385 C2384 1.400 . S
C2385 C2386 1.398 . S
C2386 H2374 0.950 . S
C2386 C2385 1.398 . S
C2386 C2387 1.391 . S
C2387 H2375 0.950 . S
C2387 C2383 1.393 . S
C2387 C2386 1.391 . S
H2388 C2396 0.950 . S
H2389 C2401 0.950 . S
H2390 C2398 0.950 . S
H2391 C2400 0.950 . S
H2392 C2402 0.950 . S
H2393 C2404 0.950 . S
H2394 C2406 0.950 . S
H2395 C2407 0.950 . S
C2396 H2388 0.950 . S
C2396 C2397 1.386 . S
C2396 C2398 1.391 . S
C2397 C2396 1.386 . S
C2397 C2401 1.393 . S
C2398 H2390 0.950 . S
C2398 C2396 1.391 . S
C2398 C2399 1.400 . S
C2399 C2398 1.400 . S
C2399 C2400 1.398 . S
C2399 C2405 1.491 . S
C2400 H2391 0.950 . S
C2400 C2399 1.398 . S
C2400 C2401 1.391 . S
C2401 H2389 0.950 . S
C2401 C2397 1.393 . S
C2401 C2400 1.391 . S
C2402 H2392 0.950 . S
C2402 C2403 1.386 1_556 S
C2402 C2404 1.391 1_556 S
C2403 C2402 1.386 1_554 S
C2403 C2407 1.393 . S
C2404 H2393 0.950 . S
C2404 C2402 1.391 1_554 S
C2404 C2405 1.400 . S
C2405 C2399 1.491 . S
C2405 C2404 1.400 . S
C2405 C2406 1.398 . S
C2406 H2394 0.950 . S
C2406 C2405 1.398 . S
C2406 C2407 1.391 . S
C2407 H2395 0.950 . S
C2407 C2403 1.393 . S
C2407 C2406 1.391 . S
H2408 C2416 0.950 . S
H2409 C2421 0.950 . S
H2410 C2418 0.950 . S
H2411 C2420 0.950 . S
H2412 C2422 0.950 . S
H2413 C2424 0.950 . S
H2414 C2426 0.950 . S
H2415 C2427 0.950 1_556 S
C2416 H2408 0.950 . S
C2416 C2417 1.386 . S
C2416 C2418 1.391 . S
C2417 C2416 1.386 . S
C2417 C2421 1.393 . S
C2418 H2410 0.950 . S
C2418 C2416 1.391 . S
C2418 C2419 1.400 . S
C2419 C2418 1.400 . S
C2419 C2420 1.398 . S
C2419 C2425 1.491 . S
C2420 H2411 0.950 . S
C2420 C2419 1.398 . S
C2420 C2421 1.391 . S
C2421 H2409 0.950 . S
C2421 C2417 1.393 . S
C2421 C2420 1.391 . S
C2422 H2412 0.950 . S
C2422 C2423 1.386 . S
C2422 C2424 1.391 . S
C2423 C2422 1.386 . S
C2423 C2427 1.393 . S
C2424 H2413 0.950 . S
C2424 C2422 1.391 . S
C2424 C2425 1.400 . S
C2425 C2419 1.491 . S
C2425 C2424 1.400 . S
C2425 C2426 1.398 . S
C2426 H2414 0.950 . S
C2426 C2425 1.398 . S
C2426 C2427 1.391 . S
C2427 H2415 0.950 1_554 S
C2427 C2423 1.393 . S
C2427 C2426 1.391 . S
H2428 C2436 0.950 . S
H2429 C2441 0.950 . S
H2430 C2438 0.950 . S
H2431 C2440 0.950 . S
H2432 C2442 0.950 . S
H2433 C2444 0.950 . S
H2434 C2446 0.950 . S
H2435 C2447 0.950 . S
C2436 H2428 0.950 . S
C2436 C2437 1.386 . S
C2436 C2438 1.391 . S
C2437 C2436 1.386 . S
C2437 C2441 1.393 1_554 S
C2438 H2430 0.950 . S
C2438 C2436 1.391 . S
C2438 C2439 1.400 . S
C2439 C2438 1.400 . S
C2439 C2440 1.398 . S
C2439 C2445 1.491 . S
C2440 H2431 0.950 . S
C2440 C2439 1.398 . S
C2440 C2441 1.391 1_554 S
C2441 H2429 0.950 . S
C2441 C2437 1.393 1_556 S
C2441 C2440 1.391 1_556 S
C2442 H2432 0.950 . S
C2442 C2443 1.386 . S
C2442 C2444 1.391 . S
C2443 C2442 1.386 . S
C2443 C2447 1.393 . S
C2444 H2433 0.950 . S
C2444 C2442 1.391 . S
C2444 C2445 1.400 . S
C2445 C2439 1.491 . S
C2445 C2444 1.400 . S
C2445 C2446 1.398 . S
C2446 H2434 0.950 . S
C2446 C2445 1.398 . S
C2446 C2447 1.391 . S
C2447 H2435 0.950 . S
C2447 C2443 1.393 . S
C2447 C2446 1.391 . S
H2448 C2456 0.950 . S
H2449 C2461 0.950 . S
H2450 C2458 0.950 . S
H2451 C2460 0.950 . S
H2452 C2462 0.950 . S
H2453 C2464 0.950 . S
H2454 C2466 0.950 . S
H2455 C2467 0.950 . S
C2456 H2448 0.950 . S
C2456 C2457 1.386 . S
C2456 C2458 1.391 . S
C2457 C2456 1.386 . S
C2457 C2461 1.393 . S
C2458 H2450 0.950 . S
C2458 C2456 1.391 . S
C2458 C2459 1.400 . S
C2459 C2458 1.400 . S
C2459 C2460 1.398 . S
C2459 C2465 1.491 . S
C2460 H2451 0.950 . S
C2460 C2459 1.398 . S
C2460 C2461 1.391 . S
C2461 H2449 0.950 . S
C2461 C2457 1.393 . S
C2461 C2460 1.391 . S
C2462 H2452 0.950 . S
C2462 C2463 1.386 . S
C2462 C2464 1.391 . S
C2463 C2462 1.386 . S
C2463 C2467 1.393 . S
C2464 H2453 0.950 . S
C2464 C2462 1.391 . S
C2464 C2465 1.400 . S
C2465 C2459 1.491 . S
C2465 C2464 1.400 . S
C2465 C2466 1.398 . S
C2466 H2454 0.950 . S
C2466 C2465 1.398 . S
C2466 C2467 1.391 . S
C2467 H2455 0.950 . S
C2467 C2463 1.393 . S
C2467 C2466 1.391 . S
H2468 C2476 0.950 . S
H2469 C2481 0.950 . S
H2470 C2478 0.950 . S
H2471 C2480 0.950 . S
H2472 C2482 0.950 . S
H2473 C2484 0.950 . S
H2474 C2486 0.950 . S
H2475 C2487 0.950 . S
C2476 H2468 0.950 . S
C2476 C2477 1.386 . S
C2476 C2478 1.391 . S
C2477 C2476 1.386 . S
C2477 C2481 1.393 . S
C2478 H2470 0.950 . S
C2478 C2476 1.391 . S
C2478 C2479 1.400 . S
C2479 C2478 1.400 . S
C2479 C2480 1.398 . S
C2479 C2485 1.491 . S
C2480 H2471 0.950 . S
C2480 C2479 1.398 . S
C2480 C2481 1.391 . S
C2481 H2469 0.950 . S
C2481 C2477 1.393 . S
C2481 C2480 1.391 . S
C2482 H2472 0.950 . S
C2482 C2483 1.386 . S
C2482 C2484 1.391 . S
C2483 C2482 1.386 . S
C2483 C2487 1.393 . S
C2484 H2473 0.950 . S
C2484 C2482 1.391 . S
C2484 C2485 1.400 . S
C2485 C2479 1.491 . S
C2485 C2484 1.400 . S
C2485 C2486 1.398 . S
C2486 H2474 0.950 . S
C2486 C2485 1.398 . S
C2486 C2487 1.391 . S
C2487 H2475 0.950 . S
C2487 C2483 1.393 . S
C2487 C2486 1.391 . S
H2488 C2496 0.950 . S
H2489 C2501 0.950 . S
H2490 C2498 0.950 . S
H2491 C2500 0.950 . S
H2492 C2502 0.950 . S
H2493 C2504 0.950 . S
H2494 C2506 0.950 . S
H2495 C2507 0.950 . S
C2496 H2488 0.950 . S
C2496 C2497 1.386 . S
C2496 C2498 1.391 . S
C2497 C2496 1.386 . S
C2497 C2501 1.393 . S
C2498 H2490 0.950 . S
C2498 C2496 1.391 . S
C2498 C2499 1.400 . S
C2499 C2498 1.400 . S
C2499 C2500 1.398 . S
C2499 C2505 1.491 . S
C2500 H2491 0.950 . S
C2500 C2499 1.398 . S
C2500 C2501 1.391 . S
C2501 H2489 0.950 . S
C2501 C2497 1.393 . S
C2501 C2500 1.391 . S
C2502 H2492 0.950 . S
C2502 C2503 1.386 . S
C2502 C2504 1.391 . S
C2503 C2502 1.386 . S
C2503 C2507 1.393 . S
C2504 H2493 0.950 . S
C2504 C2502 1.391 . S
C2504 C2505 1.400 . S
C2505 C2499 1.491 . S
C2505 C2504 1.400 . S
C2505 C2506 1.398 . S
C2506 H2494 0.950 . S
C2506 C2505 1.398 . S
C2506 C2507 1.391 . S
C2507 H2495 0.950 . S
C2507 C2503 1.393 . S
C2507 C2506 1.391 . S
H2508 C2516 0.950 . S
H2509 C2521 0.950 . S
H2510 C2518 0.950 . S
H2511 C2520 0.950 . S
H2512 C2522 0.950 . S
H2513 C2524 0.950 . S
H2514 C2526 0.950 . S
H2515 C2527 0.950 . S
C2516 H2508 0.950 . S
C2516 C2517 1.386 . S
C2516 C2518 1.391 . S
C2517 C2516 1.386 . S
C2517 C2521 1.393 . S
C2518 H2510 0.950 . S
C2518 C2516 1.391 . S
C2518 C2519 1.400 . S
C2519 C2518 1.400 . S
C2519 C2520 1.398 . S
C2519 C2525 1.491 . S
C2520 H2511 0.950 . S
C2520 C2519 1.398 . S
C2520 C2521 1.391 . S
C2521 H2509 0.950 . S
C2521 C2517 1.393 . S
C2521 C2520 1.391 . S
C2522 H2512 0.950 . S
C2522 C2523 1.386 . S
C2522 C2524 1.391 . S
C2523 C2522 1.386 . S
C2523 C2527 1.393 . S
C2524 H2513 0.950 . S
C2524 C2522 1.391 . S
C2524 C2525 1.400 . S
C2525 C2519 1.491 . S
C2525 C2524 1.400 . S
C2525 C2526 1.398 . S
C2526 H2514 0.950 . S
C2526 C2525 1.398 . S
C2526 C2527 1.391 . S
C2527 H2515 0.950 . S
C2527 C2523 1.393 . S
C2527 C2526 1.391 . S
H2528 C2536 0.950 . S
H2529 C2541 0.950 . S
H2530 C2538 0.950 . S
H2531 C2540 0.950 . S
H2532 C2542 0.950 . S
H2533 C2544 0.950 . S
H2534 C2546 0.950 . S
H2535 C2547 0.950 . S
C2536 H2528 0.950 . S
C2536 C2537 1.386 . S
C2536 C2538 1.391 . S
C2537 C2536 1.386 . S
C2537 C2541 1.393 . S
C2538 H2530 0.950 . S
C2538 C2536 1.391 . S
C2538 C2539 1.400 . S
C2539 C2538 1.400 . S
C2539 C2540 1.398 . S
C2539 C2545 1.491 . S
C2540 H2531 0.950 . S
C2540 C2539 1.398 . S
C2540 C2541 1.391 . S
C2541 H2529 0.950 . S
C2541 C2537 1.393 . S
C2541 C2540 1.391 . S
C2542 H2532 0.950 . S
C2542 C2543 1.386 . S
C2542 C2544 1.391 . S
C2543 C2542 1.386 . S
C2543 C2547 1.393 . S
C2544 H2533 0.950 . S
C2544 C2542 1.391 . S
C2544 C2545 1.400 . S
C2545 C2539 1.491 . S
C2545 C2544 1.400 . S
C2545 C2546 1.398 . S
C2546 H2534 0.950 . S
C2546 C2545 1.398 . S
C2546 C2547 1.391 . S
C2547 H2535 0.950 . S
C2547 C2543 1.393 . S
C2547 C2546 1.391 . S
H2548 C2556 0.950 . S
H2549 C2561 0.950 . S
H2550 C2558 0.950 . S
H2551 C2560 0.950 . S
H2552 C2562 0.950 . S
H2553 C2564 0.950 . S
H2554 C2566 0.950 . S
H2555 C2567 0.950 . S
C2556 H2548 0.950 . S
C2556 C2557 1.386 . S
C2556 C2558 1.391 . S
C2557 C2556 1.386 . S
C2557 C2561 1.393 . S
C2558 H2550 0.950 . S
C2558 C2556 1.391 . S
C2558 C2559 1.400 . S
C2559 C2558 1.400 . S
C2559 C2560 1.398 . S
C2559 C2565 1.491 . S
C2560 H2551 0.950 . S
C2560 C2559 1.398 . S
C2560 C2561 1.391 . S
C2561 H2549 0.950 . S
C2561 C2557 1.393 . S
C2561 C2560 1.391 . S
C2562 H2552 0.950 . S
C2562 C2563 1.386 . S
C2562 C2564 1.391 . S
C2563 C2562 1.386 . S
C2563 C2567 1.393 . S
C2564 H2553 0.950 . S
C2564 C2562 1.391 . S
C2564 C2565 1.400 . S
C2565 C2559 1.491 . S
C2565 C2564 1.400 . S
C2565 C2566 1.398 . S
C2566 H2554 0.950 . S
C2566 C2565 1.398 . S
C2566 C2567 1.391 . S
C2567 H2555 0.950 . S
C2567 C2563 1.393 . S
C2567 C2566 1.391 . S
H2568 C2576 0.950 . S
H2569 C2581 0.950 . S
H2570 C2578 0.950 . S
H2571 C2580 0.950 . S
H2572 C2582 0.950 . S
H2573 C2584 0.950 . S
H2574 C2586 0.950 . S
H2575 C2587 0.950 . S
C2576 H2568 0.950 . S
C2576 C2577 1.386 . S
C2576 C2578 1.391 . S
C2577 C2576 1.386 . S
C2577 C2581 1.393 1_554 S
C2578 H2570 0.950 . S
C2578 C2576 1.391 . S
C2578 C2579 1.400 1_554 S
C2579 C2578 1.400 1_556 S
C2579 C2580 1.398 . S
C2579 C2585 1.491 . S
C2580 H2571 0.950 . S
C2580 C2579 1.398 . S
C2580 C2581 1.391 . S
C2581 H2569 0.950 . S
C2581 C2577 1.393 1_556 S
C2581 C2580 1.391 . S
C2582 H2572 0.950 . S
C2582 C2583 1.386 . S
C2582 C2584 1.391 . S
C2583 C2582 1.386 . S
C2583 C2587 1.393 . S
C2584 H2573 0.950 . S
C2584 C2582 1.391 . S
C2584 C2585 1.400 . S
C2585 C2579 1.491 . S
C2585 C2584 1.400 . S
C2585 C2586 1.398 . S
C2586 H2574 0.950 . S
C2586 C2585 1.398 . S
C2586 C2587 1.391 . S
C2587 H2575 0.950 . S
C2587 C2583 1.393 . S
C2587 C2586 1.391 . S
H2588 C2596 0.950 . S
H2589 C2601 0.950 . S
H2590 C2598 0.950 1_556 S
H2591 C2600 0.950 . S
H2592 C2602 0.950 . S
H2593 C2604 0.950 . S
H2594 C2606 0.950 . S
H2595 C2607 0.950 . S
C2596 H2588 0.950 . S
C2596 C2597 1.386 . S
C2596 C2598 1.391 . S
C2597 C2596 1.386 . S
C2597 C2601 1.393 . S
C2598 H2590 0.950 1_554 S
C2598 C2596 1.391 . S
C2598 C2599 1.400 1_554 S
C2599 C2598 1.400 1_556 S
C2599 C2600 1.398 . S
C2599 C2605 1.491 . S
C2600 H2591 0.950 . S
C2600 C2599 1.398 . S
C2600 C2601 1.391 1_556 S
C2601 H2589 0.950 . S
C2601 C2597 1.393 . S
C2601 C2600 1.391 1_554 S
C2602 H2592 0.950 . S
C2602 C2603 1.386 . S
C2602 C2604 1.391 . S
C2603 C2602 1.386 . S
C2603 C2607 1.393 . S
C2604 H2593 0.950 . S
C2604 C2602 1.391 . S
C2604 C2605 1.400 . S
C2605 C2599 1.491 . S
C2605 C2604 1.400 . S
C2605 C2606 1.398 . S
C2606 H2594 0.950 . S
C2606 C2605 1.398 . S
C2606 C2607 1.391 . S
C2607 H2595 0.950 . S
C2607 C2603 1.393 . S
C2607 C2606 1.391 . S
H2608 C2616 0.950 . S
H2609 C2621 0.950 . S
H2610 C2618 0.950 . S
H2611 C2620 0.950 . S
H2612 C2622 0.950 . S
H2613 C2624 0.950 . S
H2614 C2626 0.950 . S
H2615 C2627 0.950 . S
C2616 H2608 0.950 . S
C2616 C2617 1.386 . S
C2616 C2618 1.391 . S
C2617 C2616 1.386 . S
C2617 C2621 1.393 . S
C2618 H2610 0.950 . S
C2618 C2616 1.391 . S
C2618 C2619 1.400 1_554 S
C2619 C2618 1.400 1_556 S
C2619 C2620 1.398 . S
C2619 C2625 1.491 . S
C2620 H2611 0.950 . S
C2620 C2619 1.398 . S
C2620 C2621 1.391 1_556 S
C2621 H2609 0.950 . S
C2621 C2617 1.393 . S
C2621 C2620 1.391 1_554 S
C2622 H2612 0.950 . S
C2622 C2623 1.386 . S
C2622 C2624 1.391 . S
C2623 C2622 1.386 . S
C2623 C2627 1.393 . S
C2624 H2613 0.950 . S
C2624 C2622 1.391 . S
C2624 C2625 1.400 . S
C2625 C2619 1.491 . S
C2625 C2624 1.400 . S
C2625 C2626 1.398 . S
C2626 H2614 0.950 . S
C2626 C2625 1.398 . S
C2626 C2627 1.391 . S
C2627 H2615 0.950 . S
C2627 C2623 1.393 . S
C2627 C2626 1.391 . S
H2628 C2636 0.950 . S
H2629 C2641 0.950 . S
H2630 C2638 0.950 . S
H2631 C2640 0.950 . S
H2632 C2642 0.950 . S
H2633 C2644 0.950 . S
H2634 C2646 0.950 . S
H2635 C2647 0.950 . S
C2636 H2628 0.950 . S
C2636 C2637 1.386 . S
C2636 C2638 1.391 . S
C2637 C2636 1.386 . S
C2637 C2641 1.393 . S
C2638 H2630 0.950 . S
C2638 C2636 1.391 . S
C2638 C2639 1.400 . S
C2639 C2638 1.400 . S
C2639 C2640 1.398 . S
C2639 C2645 1.491 . S
C2640 H2631 0.950 . S
C2640 C2639 1.398 . S
C2640 C2641 1.391 . S
C2641 H2629 0.950 . S
C2641 C2637 1.393 . S
C2641 C2640 1.391 . S
C2642 H2632 0.950 . S
C2642 C2643 1.386 . S
C2642 C2644 1.391 . S
C2643 C2642 1.386 . S
C2643 C2647 1.393 . S
C2644 H2633 0.950 . S
C2644 C2642 1.391 . S
C2644 C2645 1.400 . S
C2645 C2639 1.491 . S
C2645 C2644 1.400 . S
C2645 C2646 1.398 . S
C2646 H2634 0.950 . S
C2646 C2645 1.398 . S
C2646 C2647 1.391 . S
C2647 H2635 0.950 . S
C2647 C2643 1.393 . S
C2647 C2646 1.391 . S
H2648 C2656 0.950 . S
H2649 C2661 0.950 1_554 S
H2650 C2658 0.950 . S
H2651 C2660 0.950 . S
H2652 C2662 0.950 . S
H2653 C2664 0.950 . S
H2654 C2666 0.950 . S
H2655 C2667 0.950 . S
C2656 H2648 0.950 . S
C2656 C2657 1.386 . S
C2656 C2658 1.391 . S
C2657 C2656 1.386 . S
C2657 C2661 1.393 . S
C2658 H2650 0.950 . S
C2658 C2656 1.391 . S
C2658 C2659 1.400 . S
C2659 C2658 1.400 . S
C2659 C2660 1.398 . S
C2659 C2665 1.491 . S
C2660 H2651 0.950 . S
C2660 C2659 1.398 . S
C2660 C2661 1.391 . S
C2661 H2649 0.950 1_556 S
C2661 C2657 1.393 . S
C2661 C2660 1.391 . S
C2662 H2652 0.950 . S
C2662 C2663 1.386 . S
C2662 C2664 1.391 . S
C2663 C2662 1.386 . S
C2663 C2667 1.393 . S
C2664 H2653 0.950 . S
C2664 C2662 1.391 . S
C2664 C2665 1.400 . S
C2665 C2659 1.491 . S
C2665 C2664 1.400 . S
C2665 C2666 1.398 . S
C2666 H2654 0.950 . S
C2666 C2665 1.398 . S
C2666 C2667 1.391 . S
C2667 H2655 0.950 . S
C2667 C2663 1.393 . S
C2667 C2666 1.391 . S
H2668 C2676 0.950 . S
H2669 C2681 0.950 . S
H2670 C2678 0.950 1_554 S
H2671 C2680 0.950 . S
H2672 C2682 0.950 . S
H2673 C2684 0.950 . S
H2674 C2686 0.950 . S
H2675 C2687 0.950 . S
C2676 H2668 0.950 . S
C2676 C2677 1.386 . S
C2676 C2678 1.391 . S
C2677 C2676 1.386 . S
C2677 C2681 1.393 . S
C2678 H2670 0.950 1_556 S
C2678 C2676 1.391 . S
C2678 C2679 1.400 . S
C2679 C2678 1.400 . S
C2679 C2680 1.398 . S
C2679 C2685 1.491 . S
C2680 H2671 0.950 . S
C2680 C2679 1.398 . S
C2680 C2681 1.391 . S
C2681 H2669 0.950 . S
C2681 C2677 1.393 . S
C2681 C2680 1.391 . S
C2682 H2672 0.950 . S
C2682 C2683 1.386 . S
C2682 C2684 1.391 . S
C2683 C2682 1.386 . S
C2683 C2687 1.393 1_556 S
C2684 H2673 0.950 . S
C2684 C2682 1.391 . S
C2684 C2685 1.400 . S
C2685 C2679 1.491 . S
C2685 C2684 1.400 . S
C2685 C2686 1.398 1_556 S
C2686 H2674 0.950 . S
C2686 C2685 1.398 1_554 S
C2686 C2687 1.391 . S
C2687 H2675 0.950 . S
C2687 C2683 1.393 1_554 S
C2687 C2686 1.391 . S
H2688 C2696 0.950 . S
H2689 C2701 0.950 . S
H2690 C2698 0.950 . S
H2691 C2700 0.950 . S
H2692 C2702 0.950 . S
H2693 C2704 0.950 . S
H2694 C2706 0.950 . S
H2695 C2707 0.950 . S
C2696 H2688 0.950 . S
C2696 C2697 1.386 . S
C2696 C2698 1.391 . S
C2697 C2696 1.386 . S
C2697 C2701 1.393 . S
C2698 H2690 0.950 . S
C2698 C2696 1.391 . S
C2698 C2699 1.400 . S
C2699 C2698 1.400 . S
C2699 C2700 1.398 . S
C2699 C2705 1.491 . S
C2700 H2691 0.950 . S
C2700 C2699 1.398 . S
C2700 C2701 1.391 . S
C2701 H2689 0.950 . S
C2701 C2697 1.393 . S
C2701 C2700 1.391 . S
C2702 H2692 0.950 . S
C2702 C2703 1.386 . S
C2702 C2704 1.391 . S
C2703 C2702 1.386 . S
C2703 C2707 1.393 . S
C2704 H2693 0.950 . S
C2704 C2702 1.391 . S
C2704 C2705 1.400 . S
C2705 C2699 1.491 . S
C2705 C2704 1.400 . S
C2705 C2706 1.398 . S
C2706 H2694 0.950 . S
C2706 C2705 1.398 . S
C2706 C2707 1.391 . S
C2707 H2695 0.950 . S
C2707 C2703 1.393 . S
C2707 C2706 1.391 . S
H2708 C2716 0.950 . S
H2709 C2721 0.950 . S
H2710 C2718 0.950 . S
H2711 C2720 0.950 . S
H2712 C2722 0.950 . S
H2713 C2724 0.950 . S
H2714 C2726 0.950 . S
H2715 C2727 0.950 . S
C2716 H2708 0.950 . S
C2716 C2717 1.386 . S
C2716 C2718 1.391 . S
C2717 C2716 1.386 . S
C2717 C2721 1.393 . S
C2718 H2710 0.950 . S
C2718 C2716 1.391 . S
C2718 C2719 1.400 . S
C2719 C2718 1.400 . S
C2719 C2720 1.398 . S
C2719 C2725 1.491 . S
C2720 H2711 0.950 . S
C2720 C2719 1.398 . S
C2720 C2721 1.391 . S
C2721 H2709 0.950 . S
C2721 C2717 1.393 . S
C2721 C2720 1.391 . S
C2722 H2712 0.950 . S
C2722 C2723 1.386 . S
C2722 C2724 1.391 . S
C2723 C2722 1.386 . S
C2723 C2727 1.393 . S
C2724 H2713 0.950 . S
C2724 C2722 1.391 . S
C2724 C2725 1.400 . S
C2725 C2719 1.491 . S
C2725 C2724 1.400 . S
C2725 C2726 1.398 . S
C2726 H2714 0.950 . S
C2726 C2725 1.398 . S
C2726 C2727 1.391 . S
C2727 H2715 0.950 . S
C2727 C2723 1.393 . S
C2727 C2726 1.391 . S
H2728 C2736 0.950 . S
H2729 C2741 0.950 . S
H2730 C2738 0.950 . S
H2731 C2740 0.950 . S
H2732 C2742 0.950 . S
H2733 C2744 0.950 . S
H2734 C2746 0.950 . S
H2735 C2747 0.950 . S
C2736 H2728 0.950 . S
C2736 C2737 1.386 . S
C2736 C2738 1.391 . S
C2737 C2736 1.386 . S
C2737 C2741 1.393 . S
C2738 H2730 0.950 . S
C2738 C2736 1.391 . S
C2738 C2739 1.400 . S
C2739 C2738 1.400 . S
C2739 C2740 1.398 . S
C2739 C2745 1.491 . S
C2740 H2731 0.950 . S
C2740 C2739 1.398 . S
C2740 C2741 1.391 . S
C2741 H2729 0.950 . S
C2741 C2737 1.393 . S
C2741 C2740 1.391 . S
C2742 H2732 0.950 . S
C2742 C2743 1.386 . S
C2742 C2744 1.391 . S
C2743 C2742 1.386 . S
C2743 C2747 1.393 . S
C2744 H2733 0.950 . S
C2744 C2742 1.391 . S
C2744 C2745 1.400 . S
C2745 C2739 1.491 . S
C2745 C2744 1.400 . S
C2745 C2746 1.398 . S
C2746 H2734 0.950 . S
C2746 C2745 1.398 . S
C2746 C2747 1.391 . S
C2747 H2735 0.950 . S
C2747 C2743 1.393 . S
C2747 C2746 1.391 . S
H2748 C2756 0.950 . S
H2749 C2761 0.950 . S
H2750 C2758 0.950 . S
H2751 C2760 0.950 . S
H2752 C2762 0.950 1_556 S
H2753 C2764 0.950 . S
H2754 C2766 0.950 . S
H2755 C2767 0.950 . S
C2756 H2748 0.950 . S
C2756 C2757 1.386 . S
C2756 C2758 1.391 . S
C2757 C2756 1.386 . S
C2757 C2761 1.393 . S
C2758 H2750 0.950 . S
C2758 C2756 1.391 . S
C2758 C2759 1.400 . S
C2759 C2758 1.400 . S
C2759 C2760 1.398 . S
C2759 C2765 1.491 . S
C2760 H2751 0.950 . S
C2760 C2759 1.398 . S
C2760 C2761 1.391 . S
C2761 H2749 0.950 . S
C2761 C2757 1.393 . S
C2761 C2760 1.391 . S
C2762 H2752 0.950 1_554 S
C2762 C2763 1.386 . S
C2762 C2764 1.391 . S
C2763 C2762 1.386 . S
C2763 C2767 1.393 . S
C2764 H2753 0.950 . S
C2764 C2762 1.391 . S
C2764 C2765 1.400 . S
C2765 C2759 1.491 . S
C2765 C2764 1.400 . S
C2765 C2766 1.398 . S
C2766 H2754 0.950 . S
C2766 C2765 1.398 . S
C2766 C2767 1.391 . S
C2767 H2755 0.950 . S
C2767 C2763 1.393 . S
C2767 C2766 1.391 . S
H2768 C2776 0.950 . S
H2769 C2781 0.950 . S
H2770 C2778 0.950 . S
H2771 C2780 0.950 . S
H2772 C2782 0.950 . S
H2773 C2784 0.950 . S
H2774 C2786 0.950 . S
H2775 C2787 0.950 . S
C2776 H2768 0.950 . S
C2776 C2777 1.386 . S
C2776 C2778 1.391 . S
C2777 C2776 1.386 . S
C2777 C2781 1.393 . S
C2778 H2770 0.950 . S
C2778 C2776 1.391 . S
C2778 C2779 1.400 . S
C2779 C2778 1.400 . S
C2779 C2780 1.398 . S
C2779 C2785 1.491 . S
C2780 H2771 0.950 . S
C2780 C2779 1.398 . S
C2780 C2781 1.391 . S
C2781 H2769 0.950 . S
C2781 C2777 1.393 . S
C2781 C2780 1.391 . S
C2782 H2772 0.950 . S
C2782 C2783 1.386 . S
C2782 C2784 1.391 . S
C2783 C2782 1.386 . S
C2783 C2787 1.393 . S
C2784 H2773 0.950 . S
C2784 C2782 1.391 . S
C2784 C2785 1.400 . S
C2785 C2779 1.491 . S
C2785 C2784 1.400 . S
C2785 C2786 1.398 . S
C2786 H2774 0.950 . S
C2786 C2785 1.398 . S
C2786 C2787 1.391 . S
C2787 H2775 0.950 . S
C2787 C2783 1.393 . S
C2787 C2786 1.391 . S
H2788 C2796 0.950 . S
H2789 C2801 0.950 . S
H2790 C2798 0.950 . S
H2791 C2800 0.950 . S
H2792 C2802 0.950 . S
H2793 C2804 0.950 . S
H2794 C2806 0.950 . S
H2795 C2807 0.950 . S
C2796 H2788 0.950 . S
C2796 C2797 1.386 . S
C2796 C2798 1.391 . S
C2797 C2796 1.386 . S
C2797 C2801 1.393 . S
C2798 H2790 0.950 . S
C2798 C2796 1.391 . S
C2798 C2799 1.400 . S
C2799 C2798 1.400 . S
C2799 C2800 1.398 . S
C2799 C2805 1.491 . S
C2800 H2791 0.950 . S
C2800 C2799 1.398 . S
C2800 C2801 1.391 . S
C2801 H2789 0.950 . S
C2801 C2797 1.393 . S
C2801 C2800 1.391 . S
C2802 H2792 0.950 . S
C2802 C2803 1.386 . S
C2802 C2804 1.391 . S
C2803 C2802 1.386 . S
C2803 C2807 1.393 . S
C2804 H2793 0.950 . S
C2804 C2802 1.391 . S
C2804 C2805 1.400 . S
C2805 C2799 1.491 . S
C2805 C2804 1.400 . S
C2805 C2806 1.398 . S
C2806 H2794 0.950 . S
C2806 C2805 1.398 . S
C2806 C2807 1.391 . S
C2807 H2795 0.950 . S
C2807 C2803 1.393 . S
C2807 C2806 1.391 . S
H2808 C2816 0.950 . S
H2809 C2821 0.950 . S
H2810 C2818 0.950 . S
H2811 C2820 0.950 . S
H2812 C2822 0.950 . S
H2813 C2824 0.950 . S
H2814 C2826 0.950 . S
H2815 C2827 0.950 . S
C2816 H2808 0.950 . S
C2816 C2817 1.386 . S
C2816 C2818 1.391 . S
C2817 C2816 1.386 . S
C2817 C2821 1.393 . S
C2818 H2810 0.950 . S
C2818 C2816 1.391 . S
C2818 C2819 1.400 . S
C2819 C2818 1.400 . S
C2819 C2820 1.398 . S
C2819 C2825 1.491 . S
C2820 H2811 0.950 . S
C2820 C2819 1.398 . S
C2820 C2821 1.391 . S
C2821 H2809 0.950 . S
C2821 C2817 1.393 . S
C2821 C2820 1.391 . S
C2822 H2812 0.950 . S
C2822 C2823 1.386 . S
C2822 C2824 1.391 . S
C2823 C2822 1.386 . S
C2823 C2827 1.393 . S
C2824 H2813 0.950 . S
C2824 C2822 1.391 . S
C2824 C2825 1.400 . S
C2825 C2819 1.491 . S
C2825 C2824 1.400 . S
C2825 C2826 1.398 . S
C2826 H2814 0.950 . S
C2826 C2825 1.398 . S
C2826 C2827 1.391 . S
C2827 H2815 0.950 . S
C2827 C2823 1.393 . S
C2827 C2826 1.391 . S
H2828 C2836 0.950 . S
H2829 C2841 0.950 . S
H2830 C2838 0.950 . S
H2831 C2840 0.950 . S
H2832 C2842 0.950 . S
H2833 C2844 0.950 . S
H2834 C2846 0.950 . S
H2835 C2847 0.950 . S
C2836 H2828 0.950 . S
C2836 C2837 1.386 . S
C2836 C2838 1.391 . S
C2837 C2836 1.386 . S
C2837 C2841 1.393 . S
C2838 H2830 0.950 . S
C2838 C2836 1.391 . S
C2838 C2839 1.400 . S
C2839 C2838 1.400 . S
C2839 C2840 1.398 . S
C2839 C2845 1.491 . S
C2840 H2831 0.950 . S
C2840 C2839 1.398 . S
C2840 C2841 1.391 . S
C2841 H2829 0.950 . S
C2841 C2837 1.393 . S
C2841 C2840 1.391 . S
C2842 H2832 0.950 . S
C2842 C2843 1.386 . S
C2842 C2844 1.391 . S
C2843 C2842 1.386 . S
C2843 C2847 1.393 . S
C2844 H2833 0.950 . S
C2844 C2842 1.391 . S
C2844 C2845 1.400 . S
C2845 C2839 1.491 . S
C2845 C2844 1.400 . S
C2845 C2846 1.398 . S
C2846 H2834 0.950 . S
C2846 C2845 1.398 . S
C2846 C2847 1.391 . S
C2847 H2835 0.950 . S
C2847 C2843 1.393 . S
C2847 C2846 1.391 . S
H2848 C2856 0.950 . S
H2849 C2861 0.950 . S
H2850 C2858 0.950 . S
H2851 C2860 0.950 . S
H2852 C2862 0.950 . S
H2853 C2864 0.950 . S
H2854 C2866 0.950 . S
H2855 C2867 0.950 . S
C2856 H2848 0.950 . S
C2856 C2857 1.386 . S
C2856 C2858 1.391 . S
C2857 C2856 1.386 . S
C2857 C2861 1.393 . S
C2858 H2850 0.950 . S
C2858 C2856 1.391 . S
C2858 C2859 1.400 . S
C2859 C2858 1.400 . S
C2859 C2860 1.398 . S
C2859 C2865 1.491 . S
C2860 H2851 0.950 . S
C2860 C2859 1.398 . S
C2860 C2861 1.391 . S
C2861 H2849 0.950 . S
C2861 C2857 1.393 . S
C2861 C2860 1.391 . S
C2862 H2852 0.950 . S
C2862 C2863 1.386 . S
C2862 C2864 1.391 . S
C2863 C2862 1.386 . S
C2863 C2867 1.393 . S
C2864 H2853 0.950 . S
C2864 C2862 1.391 . S
C2864 C2865 1.400 . S
C2865 C2859 1.491 . S
C2865 C2864 1.400 . S
C2865 C2866 1.398 . S
C2866 H2854 0.950 . S
C2866 C2865 1.398 . S
C2866 C2867 1.391 . S
C2867 H2855 0.950 . S
C2867 C2863 1.393 . S
C2867 C2866 1.391 . S
H2868 C2876 0.950 . S
H2869 C2881 0.950 . S
H2870 C2878 0.950 . S
H2871 C2880 0.950 . S
H2872 C2882 0.950 . S
H2873 C2884 0.950 . S
H2874 C2886 0.950 . S
H2875 C2887 0.950 . S
C2876 H2868 0.950 . S
C2876 C2877 1.386 . S
C2876 C2878 1.391 . S
C2877 C2876 1.386 . S
C2877 C2881 1.393 . S
C2878 H2870 0.950 . S
C2878 C2876 1.391 . S
C2878 C2879 1.400 . S
C2879 C2878 1.400 . S
C2879 C2880 1.398 . S
C2879 C2885 1.491 1_455 S
C2880 H2871 0.950 . S
C2880 C2879 1.398 . S
C2880 C2881 1.391 . S
C2881 H2869 0.950 . S
C2881 C2877 1.393 . S
C2881 C2880 1.391 . S
C2882 H2872 0.950 . S
C2882 C2883 1.386 . S
C2882 C2884 1.391 . S
C2883 C2882 1.386 . S
C2883 C2887 1.393 . S
C2884 H2873 0.950 . S
C2884 C2882 1.391 . S
C2884 C2885 1.400 . S
C2885 C2879 1.491 1_655 S
C2885 C2884 1.400 . S
C2885 C2886 1.398 . S
C2886 H2874 0.950 . S
C2886 C2885 1.398 . S
C2886 C2887 1.391 . S
C2887 H2875 0.950 . S
C2887 C2883 1.393 . S
C2887 C2886 1.391 . S
H2888 C2896 0.950 . S
H2889 C2901 0.950 . S
H2890 C2898 0.950 . S
H2891 C2900 0.950 . S
H2892 C2902 0.950 . S
H2893 C2904 0.950 . S
H2894 C2906 0.950 . S
H2895 C2907 0.950 . S
C2896 H2888 0.950 . S
C2896 C2897 1.386 . S
C2896 C2898 1.391 . S
C2897 C2896 1.386 . S
C2897 C2901 1.393 . S
C2898 H2890 0.950 . S
C2898 C2896 1.391 . S
C2898 C2899 1.400 . S
C2899 C2898 1.400 . S
C2899 C2900 1.398 . S
C2899 C2905 1.491 . S
C2900 H2891 0.950 . S
C2900 C2899 1.398 . S
C2900 C2901 1.391 . S
C2901 H2889 0.950 . S
C2901 C2897 1.393 . S
C2901 C2900 1.391 . S
C2902 H2892 0.950 . S
C2902 C2903 1.386 . S
C2902 C2904 1.391 . S
C2903 C2902 1.386 . S
C2903 C2907 1.393 . S
C2904 H2893 0.950 . S
C2904 C2902 1.391 . S
C2904 C2905 1.400 . S
C2905 C2899 1.491 . S
C2905 C2904 1.400 . S
C2905 C2906 1.398 . S
C2906 H2894 0.950 . S
C2906 C2905 1.398 . S
C2906 C2907 1.391 . S
C2907 H2895 0.950 . S
C2907 C2903 1.393 . S
C2907 C2906 1.391 . S
H2908 C2916 0.950 . S
H2909 C2921 0.950 . S
H2910 C2918 0.950 . S
H2911 C2920 0.950 . S
H2912 C2922 0.950 . S
H2913 C2924 0.950 . S
H2914 C2926 0.950 . S
H2915 C2927 0.950 . S
C2916 H2908 0.950 . S
C2916 C2917 1.386 . S
C2916 C2918 1.391 . S
C2917 C2916 1.386 . S
C2917 C2921 1.393 . S
C2918 H2910 0.950 . S
C2918 C2916 1.391 . S
C2918 C2919 1.400 . S
C2919 C2918 1.400 . S
C2919 C2920 1.398 . S
C2919 C2925 1.491 1_545 S
C2920 H2911 0.950 . S
C2920 C2919 1.398 . S
C2920 C2921 1.391 . S
C2921 H2909 0.950 . S
C2921 C2917 1.393 . S
C2921 C2920 1.391 . S
C2922 H2912 0.950 . S
C2922 C2923 1.386 . S
C2922 C2924 1.391 . S
C2923 C2922 1.386 . S
C2923 C2927 1.393 . S
C2924 H2913 0.950 . S
C2924 C2922 1.391 . S
C2924 C2925 1.400 . S
C2925 C2919 1.491 1_565 S
C2925 C2924 1.400 . S
C2925 C2926 1.398 . S
C2926 H2914 0.950 . S
C2926 C2925 1.398 . S
C2926 C2927 1.391 . S
C2927 H2915 0.950 . S
C2927 C2923 1.393 . S
C2927 C2926 1.391 . S
H2928 C2936 0.950 . S
H2929 C2941 0.950 . S
H2930 C2938 0.950 . S
H2931 C2940 0.950 . S
H2932 C2942 0.950 . S
H2933 C2944 0.950 . S
H2934 C2946 0.950 . S
H2935 C2947 0.950 . S
C2936 H2928 0.950 . S
C2936 C2937 1.386 . S
C2936 C2938 1.391 . S
C2937 C2936 1.386 . S
C2937 C2941 1.393 . S
C2938 H2930 0.950 . S
C2938 C2936 1.391 . S
C2938 C2939 1.400 . S
C2939 C2938 1.400 . S
C2939 C2940 1.398 . S
C2939 C2945 1.491 1_565 S
C2940 H2931 0.950 . S
C2940 C2939 1.398 . S
C2940 C2941 1.391 . S
C2941 H2929 0.950 . S
C2941 C2937 1.393 . S
C2941 C2940 1.391 . S
C2942 H2932 0.950 . S
C2942 C2943 1.386 . S
C2942 C2944 1.391 . S
C2943 C2942 1.386 . S
C2943 C2947 1.393 . S
C2944 H2933 0.950 . S
C2944 C2942 1.391 . S
C2944 C2945 1.400 . S
C2945 C2939 1.491 1_545 S
C2945 C2944 1.400 . S
C2945 C2946 1.398 . S
C2946 H2934 0.950 . S
C2946 C2945 1.398 . S
C2946 C2947 1.391 . S
C2947 H2935 0.950 . S
C2947 C2943 1.393 . S
C2947 C2946 1.391 . S
H2948 C2956 0.950 . S
H2949 C2961 0.950 . S
H2950 C2958 0.950 . S
H2951 C2960 0.950 . S
H2952 C2962 0.950 . S
H2953 C2964 0.950 . S
H2954 C2966 0.950 . S
H2955 C2967 0.950 . S
C2956 H2948 0.950 . S
C2956 C2957 1.386 . S
C2956 C2958 1.391 . S
C2957 C2956 1.386 . S
C2957 C2961 1.393 . S
C2958 H2950 0.950 . S
C2958 C2956 1.391 . S
C2958 C2959 1.400 . S
C2959 C2958 1.400 . S
C2959 C2960 1.398 . S
C2959 C2965 1.491 1_655 S
C2960 H2951 0.950 . S
C2960 C2959 1.398 . S
C2960 C2961 1.391 . S
C2961 H2949 0.950 . S
C2961 C2957 1.393 . S
C2961 C2960 1.391 . S
C2962 H2952 0.950 . S
C2962 C2963 1.386 . S
C2962 C2964 1.391 . S
C2963 C2962 1.386 . S
C2963 C2967 1.393 . S
C2964 H2953 0.950 . S
C2964 C2962 1.391 . S
C2964 C2965 1.400 . S
C2965 C2959 1.491 1_455 S
C2965 C2964 1.400 . S
C2965 C2966 1.398 . S
C2966 H2954 0.950 . S
C2966 C2965 1.398 . S
C2966 C2967 1.391 . S
C2967 H2955 0.950 . S
C2967 C2963 1.393 . S
C2967 C2966 1.391 . S
H2968 C2976 0.950 . S
H2969 C2981 0.950 . S
H2970 C2978 0.950 . S
H2971 C2980 0.950 . S
H2972 C2982 0.950 . S
H2973 C2984 0.950 . S
H2974 C2986 0.950 . S
H2975 C2987 0.950 . S
C2976 H2968 0.950 . S
C2976 C2977 1.386 . S
C2976 C2978 1.391 . S
C2977 C2976 1.386 . S
C2977 C2981 1.393 . S
C2978 H2970 0.950 . S
C2978 C2976 1.391 . S
C2978 C2979 1.400 . S
C2979 C2978 1.400 . S
C2979 C2980 1.398 . S
C2979 C2985 1.491 . S
C2980 H2971 0.950 . S
C2980 C2979 1.398 . S
C2980 C2981 1.391 . S
C2981 H2969 0.950 . S
C2981 C2977 1.393 . S
C2981 C2980 1.391 . S
C2982 H2972 0.950 . S
C2982 C2983 1.386 . S
C2982 C2984 1.391 . S
C2983 C2982 1.386 . S
C2983 C2987 1.393 . S
C2984 H2973 0.950 . S
C2984 C2982 1.391 . S
C2984 C2985 1.400 . S
C2985 C2979 1.491 . S
C2985 C2984 1.400 . S
C2985 C2986 1.398 . S
C2986 H2974 0.950 . S
C2986 C2985 1.398 . S
C2986 C2987 1.391 . S
C2987 H2975 0.950 . S
C2987 C2983 1.393 . S
C2987 C2986 1.391 . S
C1197 C337 2.079 . S
C1203 C7 2.042 . S
C1217 C370 2.067 . S
C1223 C40 2.051 . S
C1237 C304 2.072 . S
C1243 C73 2.041 . S
C1257 C271 2.077 . S
C1263 C106 2.035 . S
C1277 C205 2.071 . S
C1283 C139 2.043 . S
C1297 C238 2.075 . S
C1303 C172 2.037 . S
C1317 N134 0.625 . S
C1323 N200 0.645 . S
C1337 N233 0.635 . S
C1343 N167 0.669 . S
C1357 N101 0.638 . S
C1363 N266 0.615 . S
C1377 N68 0.659 . S
C1383 N299 0.657 . S
C1397 N332 0.654 . S
C1403 N2 0.639 . S
C1417 N35 0.617 . S
C1423 N365 0.623 . S
C1437 C733 2.069 . S
C1443 C403 2.045 . S
C1457 C436 2.038 . S
C1463 C766 2.074 . S
C1477 C700 2.067 . S
C1483 C469 2.052 . S
C1497 C667 2.079 . S
C1503 C502 2.038 1_554 S
C1517 C601 2.081 . S
C1523 C535 2.035 1_554 S
C1537 C568 2.050 1_554 S
C1543 C634 2.067 . S
C1557 N596 0.614 . S
C1563 N530 0.636 . S
C1577 N563 0.617 . S
C1583 N629 0.624 . S
C1597 N497 0.636 . S
C1603 N662 0.615 . S
C1617 N695 0.618 . S
C1623 N464 0.622 . S
C1637 N728 0.617 . S
C1643 N398 0.647 . S
C1657 N431 0.665 . S
C1663 N761 0.629 . S
C1677 C799 2.036 . S
C1683 C1129 2.081 . S
C1697 C832 2.047 . S
C1703 C1162 2.068 . S
C1717 C865 2.041 . S
C1723 C1096 2.072 . S
C1737 C898 2.050 . S
C1743 C1063 2.072 . S
C1757 C997 2.080 . S
C1763 C931 2.035 . S
C1777 C1030 2.080 . S
C1783 C964 2.035 . S
C1797 N992 0.614 . S
C1803 N926 0.634 . S
C1817 N959 0.616 . S
C1823 N1025 0.630 . S
C1837 N893 0.645 . S
C1843 N1058 0.656 . S
C1857 N1091 0.641 . S
C1863 N860 0.621 . S
C1877 N1124 0.655 . S
C1883 N794 0.665 . S
C1897 N827 0.665 . S
C1903 N1157 0.629 . S
C1917 C117 2.250 . S
C1923 C18 2.254 . S
C1937 C51 2.251 . S
C1943 C150 2.247 . S
C1957 C84 2.251 . S
C1963 C183 2.247 . S
C1977 N310 0.979 . S
C1983 N211 0.997 . S
C1997 N244 1.008 . S
C2003 N343 0.989 . S
C2017 N376 1.003 . S
C2023 N277 0.983 . S
C2037 C414 2.251 . S
C2043 C513 2.252 . S
C2057 C546 2.247 . S
C2063 C447 2.254 . S
C2077 C480 2.248 . S
C2083 C579 2.251 . S
C2097 N607 0.989 . S
C2103 N706 1.008 1_554 S
C2117 N739 0.997 1_554 S
C2123 N640 0.979 . S
C2137 N772 0.978 1_554 S
C2143 N673 0.992 . S
C2157 C810 2.254 . S
C2163 C909 2.248 . S
C2177 C942 2.247 . S
C2183 C843 2.254 . S
C2197 C876 2.247 . S
C2203 C975 2.252 . S
C2217 N1003 1.012 . S
C2223 N1102 0.999 . S
C2237 N1036 1.000 . S
C2243 N1135 0.981 . S
C2257 N1168 0.990 . S
C2263 N1069 1.009 . S
C2277 N112 0.500 . S
C2283 N13 0.495 . S
C2297 N46 0.464 . S
C2303 N145 0.441 . S
C2317 N178 0.499 . S
C2323 N79 0.464 . S
C2337 C315 1.761 . S
C2343 C216 1.769 . S
C2357 C348 1.766 . S
C2363 C249 1.757 . S
C2377 C381 1.767 . S
C2383 C282 1.764 . S
C2397 N409 0.492 . S
C2403 N508 0.455 . S
C2417 N442 0.488 . S
C2423 N541 0.503 . S
C2437 N574 0.474 . S
C2443 N475 0.503 . S
C2457 C612 1.763 . S
C2463 C711 1.760 . S
C2477 C744 1.770 . S
C2483 C645 1.759 . S
C2497 C777 1.758 . S
C2503 C678 1.765 . S
C2517 N805 0.494 . S
C2523 N904 0.501 . S
C2537 N838 0.490 . S
C2543 N937 0.453 . S
C2557 N970 0.484 . S
C2563 N871 0.448 . S
C2577 C1107 1.770 . S
C2583 C1008 1.759 . S
C2597 C1140 1.768 . S
C2603 C1041 1.763 . S
C2617 C1173 1.764 . S
C2623 C1074 1.758 . S
C2637 C21 1.499 . S
C2643 C549 1.500 . S
C2657 C54 1.494 . S
C2663 C582 1.491 . S
C2677 C516 1.497 . S
C2683 C87 1.490 . S
C2697 C879 1.491 . S
C2703 C120 1.492 . S
C2717 C153 1.501 . S
C2723 C813 1.494 . S
C2737 C186 1.497 . S
C2743 C846 1.490 . S
C2757 C1143 1.501 . S
C2763 C219 1.495 . S
C2777 C1176 1.506 . S
C2783 C252 1.500 . S
C2797 C285 1.497 . S
C2803 C1110 1.495 . S
C2817 C681 1.505 . S
C2823 C318 1.497 . S
C2837 C351 1.495 . S
C2843 C615 1.500 . S
C2857 C648 1.506 . S
C2863 C384 1.501 . S
C2877 C945 1.492 . S
C2883 C417 1.491 . S
C2897 C978 1.497 . S
C2903 C450 1.501 . S
C2917 C483 1.491 . S
C2923 C912 1.498 . S
C2937 C1077 1.505 . S
C2943 C714 1.499 . S
C2957 C747 1.495 . S
C2963 C1011 1.500 . S
C2977 C780 1.495 . S
C2983 C1044 1.500 . S
