# Generated by pormake.
# Topology uoy, (4)-cn, num edge types: 1
# Building blocks:
#     Node 0, Type 0, BuildingBlock: QUQFOY_clean_sbu_1, # of connection points: 4
#     Node 1, Type 0, BuildingBlock: QUQFOY_clean_sbu_1, # of connection points: 4
#     Node 2, Type 0, BuildingBlock: QUQFOY_clean_sbu_1, # of connection points: 4
#     Node 3, Type 0, BuildingBlock: QUQFOY_clean_sbu_1, # of connection points: 4
#     Node 4, Type 0, BuildingBlock: QUQFOY_clean_sbu_1, # of connection points: 4
#     Node 5, Type 0, BuildingBlock: QUQFOY_clean_sbu_1, # of connection points: 4
#     Node 6, Type 0, BuildingBlock: QUQFOY_clean_sbu_1, # of connection points: 4
#     Node 7, Type 0, BuildingBlock: QUQFOY_clean_sbu_1, # of connection points: 4
#     Node 8, Type 0, BuildingBlock: QUQFOY_clean_sbu_1, # of connection points: 4
#     Node 9, Type 0, BuildingBlock: QUQFOY_clean_sbu_1, # of connection points: 4
#     Node 10, Type 0, BuildingBlock: QUQFOY_clean_sbu_1, # of connection points: 4
#     Node 11, Type 0, BuildingBlock: QUQFOY_clean_sbu_1, # of connection points: 4
#     Node 12, Type 0, BuildingBlock: QUQFOY_clean_sbu_1, # of connection points: 4
#     Node 13, Type 0, BuildingBlock: QUQFOY_clean_sbu_1, # of connection points: 4
#     Node 14, Type 0, BuildingBlock: QUQFOY_clean_sbu_1, # of connection points: 4
#     Node 15, Type 0, BuildingBlock: QUQFOY_clean_sbu_1, # of connection points: 4
#     Edge 16, Type (0, 0), BuildingBlock: TEMPAE_clean_linker_10, # of connection points: 2
#     Edge 17, Type (0, 0), BuildingBlock: TEMPAE_clean_linker_10, # of connection points: 2
#     Edge 18, Type (0, 0), BuildingBlock: TEMPAE_clean_linker_10, # of connection points: 2
#     Edge 19, Type (0, 0), BuildingBlock: TEMPAE_clean_linker_10, # of connection points: 2
#     Edge 20, Type (0, 0), BuildingBlock: TEMPAE_clean_linker_10, # of connection points: 2
#     Edge 21, Type (0, 0), BuildingBlock: TEMPAE_clean_linker_10, # of connection points: 2
#     Edge 22, Type (0, 0), BuildingBlock: TEMPAE_clean_linker_10, # of connection points: 2
#     Edge 23, Type (0, 0), BuildingBlock: TEMPAE_clean_linker_10, # of connection points: 2
#     Edge 24, Type (0, 0), BuildingBlock: TEMPAE_clean_linker_10, # of connection points: 2
#     Edge 25, Type (0, 0), BuildingBlock: TEMPAE_clean_linker_10, # of connection points: 2
#     Edge 26, Type (0, 0), BuildingBlock: TEMPAE_clean_linker_10, # of connection points: 2
#     Edge 27, Type (0, 0), BuildingBlock: TEMPAE_clean_linker_10, # of connection points: 2
#     Edge 28, Type (0, 0), BuildingBlock: TEMPAE_clean_linker_10, # of connection points: 2
#     Edge 29, Type (0, 0), BuildingBlock: TEMPAE_clean_linker_10, # of connection points: 2
#     Edge 30, Type (0, 0), BuildingBlock: TEMPAE_clean_linker_10, # of connection points: 2
#     Edge 31, Type (0, 0), BuildingBlock: TEMPAE_clean_linker_10, # of connection points: 2
#     Edge 32, Type (0, 0), BuildingBlock: TEMPAE_clean_linker_10, # of connection points: 2
#     Edge 33, Type (0, 0), BuildingBlock: TEMPAE_clean_linker_10, # of connection points: 2
#     Edge 34, Type (0, 0), BuildingBlock: TEMPAE_clean_linker_10, # of connection points: 2
#     Edge 35, Type (0, 0), BuildingBlock: TEMPAE_clean_linker_10, # of connection points: 2
#     Edge 36, Type (0, 0), BuildingBlock: TEMPAE_clean_linker_10, # of connection points: 2
#     Edge 37, Type (0, 0), BuildingBlock: TEMPAE_clean_linker_10, # of connection points: 2
#     Edge 38, Type (0, 0), BuildingBlock: TEMPAE_clean_linker_10, # of connection points: 2
#     Edge 39, Type (0, 0), BuildingBlock: TEMPAE_clean_linker_10, # of connection points: 2
#     Edge 40, Type (0, 0), BuildingBlock: TEMPAE_clean_linker_10, # of connection points: 2
#     Edge 41, Type (0, 0), BuildingBlock: TEMPAE_clean_linker_10, # of connection points: 2
#     Edge 42, Type (0, 0), BuildingBlock: TEMPAE_clean_linker_10, # of connection points: 2
#     Edge 43, Type (0, 0), BuildingBlock: TEMPAE_clean_linker_10, # of connection points: 2
#     Edge 44, Type (0, 0), BuildingBlock: TEMPAE_clean_linker_10, # of connection points: 2
#     Edge 45, Type (0, 0), BuildingBlock: TEMPAE_clean_linker_10, # of connection points: 2
#     Edge 46, Type (0, 0), BuildingBlock: TEMPAE_clean_linker_10, # of connection points: 2
#     Edge 47, Type (0, 0), BuildingBlock: TEMPAE_clean_linker_10, # of connection points: 2
# Relax obj value: 0.057
# Max RMSD: 0.096
# Mean RMSD: 0.096
data_MOF--net-uoy--node1-QUQFOY_clean_sbu_1--edge1-TEMPAE_clean_linker_10
_symmetry_space_group_name_H-M    P1
_symmetry_Int_Tables_number       1
_symmetry_cell_setting            triclinic
loop_
_symmetry_equiv_pos_as_xyz
'x, y, z'
_cell_length_a     28.532694
_cell_length_b     28.527907
_cell_length_c     114.34104
_cell_angle_alpha  90.008826
_cell_angle_beta   89.999002
_cell_angle_gamma 89.977466
loop_
_atom_site_label
_atom_site_type_symbol
_atom_site_fract_x
_atom_site_fract_y
_atom_site_fract_z
_atom_type_partial_charge
O0 O 0.25423 0.12652 0.21856 0.0
Cd1 Cd 0.2502 0.08872 0.20325 0.0
Cd2 Cd 0.28573 0.16758 0.19438 0.0
O3 O 0.27424 0.19473 0.21101 0.0
O4 O 0.20354 0.03791 0.20621 0.0
O5 O 0.19253 0.09419 0.19321 0.0
C6 C 0.17675 0.05754 0.19855 0.0
C7 C 0.26019 0.20432 0.17726 0.0
C8 C 0.26369 0.16976 0.21985 0.0
C9 C 0.34721 0.08152 0.19388 0.0
O10 O 0.34412 0.12549 0.19225 0.0
O11 O 0.31225 0.05853 0.19772 0.0
O12 O 0.29487 0.22065 0.18325 0.0
O13 O 0.23825 0.16829 0.18137 0.0
O14 O 0.89241 0.7525 0.46719 0.0
Cd15 Cd 0.92531 0.74886 0.45103 0.0
Cd16 Cd 0.84421 0.78424 0.44473 0.0
O17 O 0.82022 0.7635 0.46095 0.0
O18 O 0.97786 0.70324 0.4532 0.0
O19 O 0.91785 0.69011 0.44144 0.0
C20 C 0.95628 0.67536 0.44614 0.0
C21 C 0.80969 0.76253 0.42704 0.0
C22 C 0.84874 0.75605 0.46929 0.0
C23 C 0.92727 0.84789 0.44356 0.0
O24 O 0.88297 0.84532 0.44448 0.0
O25 O 0.95232 0.81116 0.44445 0.0
O26 O 0.79071 0.7937 0.43373 0.0
O27 O 0.84732 0.74205 0.43071 0.0
O28 O 0.26022 0.3902 0.71818 0.0
Cd29 Cd 0.26293 0.42635 0.70264 0.0
Cd30 Cd 0.22743 0.34651 0.6944 0.0
O31 O 0.24081 0.32098 0.71112 0.0
O32 O 0.30943 0.47762 0.70511 0.0
O33 O 0.31988 0.42009 0.69242 0.0
C34 C 0.33581 0.45729 0.69748 0.0
C35 C 0.25265 0.30924 0.67732 0.0
C36 C 0.25164 0.34696 0.71976 0.0
C37 C 0.16545 0.43221 0.69364 0.0
O38 O 0.16857 0.38807 0.69229 0.0
O39 O 0.20056 0.45571 0.69718 0.0
O40 O 0.21853 0.29266 0.68347 0.0
O41 O 0.27423 0.34579 0.68125 0.0
O42 O 0.61939 0.76002 0.9672 0.0
Cd43 Cd 0.58638 0.76392 0.95107 0.0
Cd44 Cd 0.66764 0.72912 0.94462 0.0
O45 O 0.69156 0.7493 0.96091 0.0
O46 O 0.53384 0.80956 0.95326 0.0
O47 O 0.59393 0.82272 0.94153 0.0
C48 C 0.5555 0.83747 0.94622 0.0
C49 C 0.70174 0.75216 0.92699 0.0
C50 C 0.66307 0.75649 0.96928 0.0
C51 C 0.58478 0.66511 0.94336 0.0
O52 O 0.62911 0.66788 0.9442 0.0
O53 O 0.55958 0.70168 0.94441 0.0
O54 O 0.72109 0.72077 0.93354 0.0
O55 O 0.66396 0.77203 0.93076 0.0
O56 O 0.25271 0.38795 0.05258 0.0
Cd57 Cd 0.24839 0.42648 0.06777 0.0
Cd58 Cd 0.28491 0.34846 0.07689 0.0
O59 O 0.27423 0.32053 0.06031 0.0
O60 O 0.20119 0.47667 0.06465 0.0
O61 O 0.19085 0.42105 0.07787 0.0
C62 C 0.17467 0.45726 0.07241 0.0
C63 C 0.25989 0.31164 0.09404 0.0
C64 C 0.26307 0.34487 0.0514 0.0
C65 C 0.34522 0.43534 0.07717 0.0
O66 O 0.34258 0.39147 0.079 0.0
O67 O 0.31013 0.45766 0.07316 0.0
O68 O 0.29494 0.29583 0.0881 0.0
O69 O 0.2373 0.34716 0.08988 0.0
O70 O 0.61868 0.75299 0.30338 0.0
Cd71 Cd 0.58596 0.74917 0.31956 0.0
Cd72 Cd 0.66714 0.78437 0.32587 0.0
O73 O 0.69092 0.76383 0.30961 0.0
O74 O 0.53352 0.70338 0.31747 0.0
O75 O 0.59383 0.6905 0.32916 0.0
C76 C 0.55533 0.67563 0.32453 0.0
C77 C 0.702 0.76252 0.34351 0.0
C78 C 0.66234 0.75654 0.30127 0.0
C79 C 0.58407 0.84808 0.32715 0.0
O80 O 0.62837 0.84547 0.32622 0.0
O81 O 0.559 0.81139 0.32621 0.0
O82 O 0.72083 0.79375 0.33682 0.0
O83 O 0.66433 0.74206 0.33987 0.0
O84 O 0.25862 0.12403 0.55269 0.0
Cd85 Cd 0.26308 0.0856 0.56789 0.0
Cd86 Cd 0.22681 0.16372 0.57702 0.0
O87 O 0.2376 0.19162 0.56043 0.0
O88 O 0.31022 0.03536 0.56477 0.0
O89 O 0.3207 0.09107 0.57795 0.0
C90 C 0.33681 0.05481 0.5725 0.0
C91 C 0.25179 0.20054 0.59417 0.0
C92 C 0.24849 0.16718 0.55152 0.0
C93 C 0.16632 0.07695 0.57732 0.0
O94 O 0.16903 0.12084 0.57912 0.0
O95 O 0.20138 0.05452 0.57332 0.0
O96 O 0.2168 0.21639 0.58822 0.0
O97 O 0.27435 0.16498 0.59001 0.0
O98 O 0.89062 0.76189 0.80265 0.0
Cd99 Cd 0.92691 0.76516 0.81817 0.0
Cd100 Cd 0.84734 0.72947 0.82652 0.0
O101 O 0.82153 0.74259 0.80981 0.0
O102 O 0.9778 0.81201 0.81566 0.0
O103 O 0.92034 0.82211 0.8284 0.0
C104 C 0.95741 0.83826 0.82332 0.0
C105 C 0.80955 0.7536 0.84362 0.0
C106 C 0.84737 0.7532 0.80113 0.0
C107 C 0.93344 0.66796 0.82727 0.0
O108 O 0.88932 0.67092 0.82863 0.0
O109 O 0.95676 0.70309 0.82367 0.0
O110 O 0.79356 0.71944 0.83739 0.0
O111 O 0.84574 0.77594 0.83975 0.0
O112 O 0.74997 0.62161 0.71811 0.0
Cd113 Cd 0.74698 0.5845 0.70271 0.0
Cd114 Cd 0.78305 0.66355 0.69412 0.0
O115 O 0.77041 0.69009 0.71079 0.0
O116 O 0.70005 0.53379 0.70537 0.0
O117 O 0.69017 0.59054 0.69243 0.0
C118 C 0.67391 0.5538 0.69763 0.0
C119 C 0.75806 0.70055 0.67699 0.0
C120 C 0.75922 0.66481 0.71953 0.0
C121 C 0.84424 0.57721 0.69362 0.0
O122 O 0.84139 0.62124 0.69204 0.0
O123 O 0.80911 0.55427 0.69737 0.0
O124 O 0.79251 0.71685 0.68307 0.0
O125 O 0.73604 0.66444 0.68102 0.0
O126 O 0.39451 0.25408 0.96753 0.0
Cd127 Cd 0.42701 0.24991 0.95133 0.0
Cd128 Cd 0.34573 0.28485 0.94504 0.0
O129 O 0.32214 0.26423 0.96132 0.0
O130 O 0.4795 0.20412 0.95342 0.0
O131 O 0.41894 0.19106 0.94182 0.0
C132 C 0.45751 0.17624 0.94643 0.0
C133 C 0.31135 0.26219 0.92741 0.0
C134 C 0.35084 0.25733 0.96965 0.0
C135 C 0.42857 0.34866 0.94366 0.0
O136 O 0.3843 0.34607 0.94468 0.0
O137 O 0.45371 0.31199 0.94455 0.0
O138 O 0.29208 0.29342 0.93403 0.0
O139 O 0.34921 0.24226 0.93111 0.0
O140 O 0.76038 0.88833 0.21845 0.0
Cd141 Cd 0.76498 0.92683 0.20326 0.0
Cd142 Cd 0.72856 0.84887 0.19409 0.0
O143 O 0.73912 0.82089 0.21068 0.0
O144 O 0.81224 0.9769 0.2064 0.0
O145 O 0.82258 0.92124 0.19319 0.0
C146 C 0.83877 0.95742 0.19866 0.0
C147 C 0.7535 0.81189 0.17695 0.0
C148 C 0.75007 0.84523 0.2196 0.0
C149 C 0.66829 0.93585 0.1938 0.0
O150 O 0.67093 0.89198 0.19196 0.0
O151 O 0.70335 0.95813 0.19784 0.0
O152 O 0.71843 0.79622 0.18289 0.0
O153 O 0.77617 0.84737 0.1811 0.0
O154 O 0.11831 0.25939 0.46763 0.0
Cd155 Cd 0.08575 0.26322 0.45142 0.0
Cd156 Cd 0.16691 0.22776 0.44519 0.0
O157 O 0.19061 0.24841 0.46145 0.0
O158 O 0.0333 0.30905 0.4535 0.0
O159 O 0.09367 0.32191 0.44183 0.0
C160 C 0.05515 0.33681 0.44646 0.0
C161 C 0.2018 0.24949 0.42755 0.0
C162 C 0.16194 0.25579 0.46977 0.0
C163 C 0.08378 0.16426 0.44389 0.0
O164 O 0.12806 0.16675 0.44487 0.0
O165 O 0.05877 0.20103 0.44477 0.0
O166 O 0.22061 0.21827 0.43425 0.0
O167 O 0.16413 0.27001 0.43118 0.0
O168 O 0.75266 0.8859 0.55246 0.0
Cd169 Cd 0.74844 0.92378 0.56775 0.0
Cd170 Cd 0.78423 0.84509 0.57667 0.0
O171 O 0.773 0.81782 0.56004 0.0
O172 O 0.70156 0.97441 0.56478 0.0
O173 O 0.6908 0.91818 0.5778 0.0
C174 C 0.67487 0.95475 0.57245 0.0
C175 C 0.75888 0.80826 0.59378 0.0
C176 C 0.76235 0.84271 0.55118 0.0
C177 C 0.84534 0.93137 0.57716 0.0
O178 O 0.84239 0.88741 0.57881 0.0
O179 O 0.81035 0.95421 0.57327 0.0
O180 O 0.79366 0.79209 0.5878 0.0
O181 O 0.73672 0.84414 0.58967 0.0
O182 O 0.12174 0.25244 0.80315 0.0
Cd183 Cd 0.08524 0.24941 0.81864 0.0
Cd184 Cd 0.16459 0.28558 0.82699 0.0
O185 O 0.19065 0.27238 0.81031 0.0
O186 O 0.03432 0.20271 0.81602 0.0
O187 O 0.09135 0.19237 0.82886 0.0
C188 C 0.05442 0.17634 0.82369 0.0
C189 C 0.2023 0.26168 0.84412 0.0
C190 C 0.16495 0.26136 0.80163 0.0
C191 C 0.07828 0.34679 0.82762 0.0
O192 O 0.1224 0.34401 0.82903 0.0
O193 O 0.05514 0.31152 0.82404 0.0
O194 O 0.21822 0.29587 0.83789 0.0
O195 O 0.16621 0.23921 0.84023 0.0
O196 O 0.75917 0.62643 0.05243 0.0
Cd197 Cd 0.76318 0.58856 0.06773 0.0
Cd198 Cd 0.72744 0.66733 0.07663 0.0
O199 O 0.73885 0.69454 0.06 0.0
O200 O 0.80995 0.5378 0.06476 0.0
O201 O 0.82078 0.59403 0.07779 0.0
C202 C 0.83665 0.55742 0.07245 0.0
C203 C 0.75292 0.70409 0.09374 0.0
C204 C 0.74955 0.66964 0.05115 0.0
C205 C 0.66615 0.58118 0.07708 0.0
O206 O 0.66917 0.62514 0.07875 0.0
O207 O 0.70114 0.55828 0.07322 0.0
O208 O 0.71819 0.72037 0.08776 0.0
O209 O 0.77493 0.6681 0.08963 0.0
O210 O 0.39264 0.26003 0.30392 0.0
Cd211 Cd 0.42545 0.26366 0.32009 0.0
Cd212 Cd 0.34441 0.22812 0.32634 0.0
O213 O 0.32042 0.24897 0.31012 0.0
O214 O 0.47799 0.30924 0.31792 0.0
O215 O 0.41796 0.32245 0.32967 0.0
C216 C 0.45639 0.33716 0.32497 0.0
C217 C 0.30986 0.24967 0.34403 0.0
C218 C 0.34899 0.25647 0.3018 0.0
C219 C 0.42756 0.16457 0.32751 0.0
O220 O 0.38327 0.16708 0.32655 0.0
O221 O 0.45254 0.20136 0.32667 0.0
O222 O 0.29093 0.21854 0.33733 0.0
O223 O 0.34747 0.2702 0.34038 0.0
C224 C 0.27557 0.25482 0.1102 0.0
C225 C 0.24903 0.29221 0.10577 0.0
C226 C 0.27079 0.24019 0.12185 0.0
C227 C 0.23855 0.26339 0.12928 0.0
C228 C 0.20975 0.29942 0.1247 0.0
C229 C 0.21538 0.31348 0.11299 0.0
C230 C 0.3021 0.2015 0.12637 0.0
C231 C 0.17467 0.32469 0.13231 0.0
C232 C 0.21607 0.20185 0.15827 0.0
C233 C 0.24909 0.22374 0.16555 0.0
C234 C 0.21038 0.21591 0.14656 0.0
C235 C 0.23847 0.25261 0.14204 0.0
C236 C 0.26999 0.27644 0.14954 0.0
C237 C 0.27485 0.26177 0.16118 0.0
C238 C 0.17609 0.18993 0.13889 0.0
C239 C 0.30051 0.31586 0.14509 0.0
H240 H 0.30148 0.23798 0.10469 0.0
H241 H 0.19462 0.34232 0.10963 0.0
H242 H 0.32687 0.21599 0.13292 0.0
H243 H 0.28094 0.1742 0.13081 0.0
H244 H 0.32272 0.18465 0.11927 0.0
H245 H 0.15102 0.34761 0.12712 0.0
H246 H 0.15312 0.29922 0.13729 0.0
H247 H 0.19351 0.34673 0.13877 0.0
H248 H 0.1959 0.1725 0.16157 0.0
H249 H 0.30026 0.2791 0.16675 0.0
H250 H 0.19559 0.1683 0.13246 0.0
H251 H 0.15414 0.21496 0.13387 0.0
H252 H 0.15277 0.16653 0.14403 0.0
H253 H 0.32585 0.30196 0.1386 0.0
H254 H 0.32046 0.33317 0.15223 0.0
H255 H 0.27885 0.34266 0.1406 0.0
C256 C 0.75325 0.78009 0.4109 0.0
C257 C 0.79089 0.75345 0.41516 0.0
C258 C 0.73857 0.77625 0.39923 0.0
C259 C 0.76186 0.74477 0.39161 0.0
C260 C 0.79841 0.71612 0.39599 0.0
C261 C 0.81262 0.72091 0.40771 0.0
C262 C 0.69947 0.8075 0.39491 0.0
C263 C 0.82374 0.68177 0.38819 0.0
C264 C 0.69934 0.72082 0.36283 0.0
C265 C 0.72095 0.7534 0.35537 0.0
C266 C 0.71363 0.71603 0.37454 0.0
C267 C 0.75014 0.74473 0.37891 0.0
C268 C 0.77334 0.77623 0.37129 0.0
C269 C 0.75858 0.78006 0.35962 0.0
C270 C 0.6884 0.68166 0.38235 0.0
C271 C 0.8124 0.80753 0.37559 0.0
H272 H 0.73617 0.80525 0.41658 0.0
H273 H 0.84163 0.70005 0.41093 0.0
H274 H 0.71337 0.83237 0.38831 0.0
H275 H 0.67193 0.78626 0.39058 0.0
H276 H 0.68307 0.82799 0.40209 0.0
H277 H 0.84788 0.65869 0.39319 0.0
H278 H 0.79824 0.65956 0.3834 0.0
H279 H 0.84445 0.70118 0.38156 0.0
H280 H 0.67035 0.69993 0.35961 0.0
H281 H 0.77557 0.80525 0.35393 0.0
H282 H 0.66762 0.70106 0.38897 0.0
H283 H 0.71396 0.65954 0.38714 0.0
H284 H 0.66434 0.6585 0.37735 0.0
H285 H 0.79846 0.83244 0.38219 0.0
H286 H 0.82877 0.82798 0.3684 0.0
H287 H 0.83995 0.78635 0.37994 0.0
C288 C 0.23601 0.25733 0.61034 0.0
C289 C 0.26263 0.21999 0.6059 0.0
C290 C 0.24085 0.27204 0.62198 0.0
C291 C 0.27324 0.24901 0.6294 0.0
C292 C 0.30206 0.21299 0.62481 0.0
C293 C 0.29637 0.19883 0.61311 0.0
C294 C 0.2095 0.31071 0.6265 0.0
C295 C 0.33731 0.18789 0.63241 0.0
C296 C 0.29628 0.31128 0.65826 0.0
C297 C 0.26348 0.2895 0.66562 0.0
C298 C 0.30171 0.29693 0.64657 0.0
C299 C 0.2736 0.26007 0.64214 0.0
C300 C 0.24231 0.23636 0.64972 0.0
C301 C 0.2377 0.2513 0.66136 0.0
C302 C 0.33578 0.32279 0.6388 0.0
C303 C 0.21176 0.19677 0.64538 0.0
H304 H 0.21001 0.27407 0.60483 0.0
H305 H 0.31718 0.17003 0.60975 0.0
H306 H 0.18497 0.29627 0.63311 0.0
H307 H 0.23068 0.33818 0.63088 0.0
H308 H 0.18864 0.32733 0.61942 0.0
H309 H 0.36085 0.16485 0.62722 0.0
H310 H 0.35897 0.21349 0.63732 0.0
H311 H 0.31861 0.16602 0.63893 0.0
H312 H 0.31647 0.34074 0.66149 0.0
H313 H 0.21245 0.23408 0.66698 0.0
H314 H 0.31608 0.3442 0.63237 0.0
H315 H 0.35767 0.29768 0.6338 0.0
H316 H 0.35915 0.34639 0.64387 0.0
H317 H 0.18621 0.21049 0.63891 0.0
H318 H 0.19204 0.17958 0.65257 0.0
H319 H 0.23335 0.16992 0.64088 0.0
C320 C 0.81019 0.79724 0.86269 0.0
C321 C 0.78964 0.76359 0.85534 0.0
C322 C 0.79574 0.80215 0.87439 0.0
C323 C 0.7601 0.77257 0.87884 0.0
C324 C 0.73769 0.74022 0.8713 0.0
C325 C 0.75264 0.73622 0.85965 0.0
C326 C 0.82013 0.83742 0.88212 0.0
C327 C 0.69949 0.70805 0.87568 0.0
C328 C 0.75863 0.73674 0.9108 0.0
C329 C 0.72028 0.76217 0.91512 0.0
C330 C 0.77309 0.7413 0.89913 0.0
C331 C 0.7488 0.77226 0.89157 0.0
C332 C 0.71155 0.79979 0.89603 0.0
C333 C 0.69762 0.79433 0.90775 0.0
C334 C 0.81302 0.71127 0.89474 0.0
C335 C 0.68511 0.83353 0.88829 0.0
H336 H 0.83872 0.81865 0.85943 0.0
H337 H 0.7364 0.71026 0.85404 0.0
H338 H 0.79408 0.85858 0.88702 0.0
H339 H 0.84202 0.81876 0.88865 0.0
H340 H 0.84302 0.86145 0.87704 0.0
H341 H 0.68334 0.68726 0.86852 0.0
H342 H 0.71423 0.68344 0.88223 0.0
H343 H 0.67161 0.72858 0.88009 0.0
H344 H 0.77646 0.71191 0.91643 0.0
H345 H 0.66806 0.81428 0.91102 0.0
H346 H 0.83975 0.73334 0.89036 0.0
H347 H 0.79969 0.68597 0.88816 0.0
H348 H 0.83024 0.69131 0.90189 0.0
H349 H 0.70987 0.85627 0.88341 0.0
H350 H 0.66069 0.85609 0.89335 0.0
H351 H 0.66451 0.81361 0.88173 0.0
C352 C 0.77407 0.75113 0.60991 0.0
C353 C 0.74788 0.78883 0.6055 0.0
C354 C 0.76922 0.73647 0.62155 0.0
C355 C 0.73726 0.75995 0.62901 0.0
C356 C 0.70881 0.79631 0.62445 0.0
C357 C 0.71451 0.81039 0.61274 0.0
C358 C 0.80015 0.69742 0.62604 0.0
C359 C 0.67404 0.82189 0.63208 0.0
C360 C 0.71411 0.69852 0.65798 0.0
C361 C 0.7473 0.72007 0.66527 0.0
C362 C 0.70863 0.71266 0.64627 0.0
C363 C 0.73712 0.74907 0.64176 0.0
C364 C 0.76887 0.77254 0.64927 0.0
C365 C 0.77351 0.75781 0.66091 0.0
C366 C 0.67407 0.68708 0.63858 0.0
C367 C 0.79983 0.81164 0.64483 0.0
H368 H 0.79977 0.73407 0.60437 0.0
H369 H 0.69402 0.83947 0.60941 0.0
H370 H 0.8251 0.71161 0.63259 0.0
H371 H 0.77873 0.67032 0.63048 0.0
H372 H 0.82055 0.68042 0.61893 0.0
H373 H 0.65062 0.84512 0.62692 0.0
H374 H 0.65223 0.7966 0.63705 0.0
H375 H 0.69314 0.84365 0.63856 0.0
H376 H 0.6936 0.6694 0.66127 0.0
H377 H 0.79907 0.77486 0.66649 0.0
H378 H 0.69336 0.66533 0.63213 0.0
H379 H 0.65235 0.71236 0.63358 0.0
H380 H 0.65055 0.66383 0.64371 0.0
H381 H 0.82498 0.79749 0.63832 0.0
H382 H 0.82001 0.82866 0.65197 0.0
H383 H 0.77846 0.83872 0.64036 0.0
C384 C 0.25409 0.27781 0.91132 0.0
C385 C 0.2926 0.2524 0.91556 0.0
C386 C 0.23939 0.27344 0.89966 0.0
C387 C 0.26362 0.24272 0.89203 0.0
C388 C 0.30105 0.21521 0.89639 0.0
C389 C 0.3152 0.22047 0.9081 0.0
C390 C 0.19928 0.30343 0.89537 0.0
C391 C 0.32745 0.18173 0.88857 0.0
C392 C 0.20189 0.21795 0.86317 0.0
C393 C 0.22225 0.25174 0.85584 0.0
C394 C 0.21648 0.21297 0.87486 0.0
C395 C 0.25206 0.24262 0.87932 0.0
C396 C 0.27425 0.27516 0.87178 0.0
C397 C 0.25917 0.27923 0.86015 0.0
C398 C 0.19233 0.1775 0.88258 0.0
C399 C 0.31238 0.30743 0.87616 0.0
H400 H 0.2363 0.30246 0.91701 0.0
H401 H 0.34489 0.20054 0.91131 0.0
H402 H 0.21239 0.32893 0.88881 0.0
H403 H 0.17254 0.28137 0.89098 0.0
H404 H 0.18212 0.32316 0.90257 0.0
H405 H 0.35207 0.15917 0.89357 0.0
H406 H 0.30267 0.15899 0.88371 0.0
H407 H 0.34781 0.20187 0.88201 0.0
H408 H 0.17343 0.19646 0.85992 0.0
H409 H 0.27526 0.30532 0.85455 0.0
H410 H 0.17057 0.19598 0.88917 0.0
H411 H 0.21853 0.15628 0.88741 0.0
H412 H 0.16935 0.15354 0.8775 0.0
H413 H 0.29765 0.33183 0.88277 0.0
H414 H 0.32829 0.32846 0.86902 0.0
H415 H 0.34044 0.28693 0.88051 0.0
C416 C 0.79705 0.70165 0.11274 0.0
C417 C 0.76402 0.72354 0.10546 0.0
C418 C 0.80276 0.71577 0.12444 0.0
C419 C 0.77469 0.75252 0.12896 0.0
C420 C 0.74315 0.77634 0.12146 0.0
C421 C 0.73826 0.76161 0.10982 0.0
C422 C 0.83706 0.6898 0.13212 0.0
C423 C 0.71265 0.81582 0.1259 0.0
C424 C 0.73772 0.755 0.16081 0.0
C425 C 0.76431 0.79237 0.16522 0.0
C426 C 0.74244 0.74028 0.14916 0.0
C427 C 0.77466 0.76339 0.14171 0.0
C428 C 0.8035 0.79941 0.14628 0.0
C429 C 0.79793 0.81355 0.15799 0.0
C430 C 0.7111 0.7016 0.14467 0.0
C431 C 0.83856 0.8246 0.13865 0.0
H432 H 0.81721 0.67228 0.10944 0.0
H433 H 0.71284 0.77893 0.10425 0.0
H434 H 0.85905 0.71483 0.13712 0.0
H435 H 0.81757 0.66825 0.13856 0.0
H436 H 0.86034 0.66631 0.12698 0.0
H437 H 0.69268 0.83309 0.11876 0.0
H438 H 0.68734 0.80198 0.13241 0.0
H439 H 0.73433 0.84262 0.13038 0.0
H440 H 0.71183 0.73823 0.16634 0.0
H441 H 0.81873 0.84239 0.16133 0.0
H442 H 0.73223 0.67425 0.14022 0.0
H443 H 0.68631 0.71608 0.13812 0.0
H444 H 0.6905 0.68483 0.15177 0.0
H445 H 0.86009 0.79906 0.13368 0.0
H446 H 0.86223 0.84753 0.14382 0.0
H447 H 0.8197 0.8466 0.13218 0.0
C448 C 0.25843 0.23187 0.41145 0.0
C449 C 0.22079 0.25858 0.41569 0.0
C450 C 0.27325 0.23569 0.39979 0.0
C451 C 0.2501 0.26723 0.39216 0.0
C452 C 0.21357 0.29595 0.39652 0.0
C453 C 0.19923 0.29118 0.40823 0.0
C454 C 0.31232 0.20436 0.3955 0.0
C455 C 0.18839 0.33036 0.38871 0.0
C456 C 0.31273 0.29114 0.36339 0.0
C457 C 0.29104 0.25866 0.35592 0.0
C458 C 0.29847 0.29587 0.3751 0.0
C459 C 0.26191 0.26722 0.37946 0.0
C460 C 0.23866 0.23579 0.37183 0.0
C461 C 0.25339 0.23201 0.36016 0.0
C462 C 0.32376 0.33016 0.38293 0.0
C463 C 0.19954 0.20454 0.37612 0.0
H464 H 0.27538 0.20666 0.41714 0.0
H465 H 0.17022 0.3121 0.41144 0.0
H466 H 0.29842 0.17948 0.38889 0.0
H467 H 0.33991 0.22552 0.39116 0.0
H468 H 0.32864 0.18387 0.40269 0.0
H469 H 0.16427 0.35351 0.39369 0.0
H470 H 0.21399 0.35249 0.38393 0.0
H471 H 0.16768 0.31099 0.38207 0.0
H472 H 0.34174 0.31201 0.36018 0.0
H473 H 0.23633 0.2069 0.35446 0.0
H474 H 0.34441 0.31069 0.38956 0.0
H475 H 0.29824 0.35238 0.38771 0.0
H476 H 0.34796 0.35322 0.37795 0.0
H477 H 0.2134 0.17965 0.38273 0.0
H478 H 0.1832 0.18408 0.36893 0.0
H479 H 0.17198 0.22578 0.38045 0.0
C480 C 0.2729 0.23759 0.23378 0.0
C481 C 0.26707 0.18934 0.23186 0.0
C482 C 0.2814 0.25523 0.24508 0.0
C483 C 0.28519 0.22376 0.25462 0.0
C484 C 0.27758 0.17529 0.25279 0.0
C485 C 0.26816 0.1588 0.24148 0.0
C486 C 0.28805 0.30728 0.24674 0.0
C487 C 0.2819 0.14035 0.26266 0.0
C488 C 0.3648 0.24907 0.28039 0.0
C489 C 0.33245 0.25565 0.28949 0.0
C490 C 0.34984 0.24092 0.26888 0.0
C491 C 0.30129 0.24027 0.26632 0.0
C492 C 0.26853 0.25013 0.2753 0.0
C493 C 0.28446 0.25719 0.28681 0.0
C494 C 0.38601 0.22994 0.25962 0.0
C495 C 0.21656 0.25099 0.27286 0.0
H496 H 0.27177 0.26151 0.22641 0.0
H497 H 0.26375 0.12145 0.24013 0.0
H498 H 0.26735 0.31985 0.25434 0.0
H499 H 0.32545 0.31477 0.24861 0.0
H500 H 0.27754 0.32751 0.23886 0.0
H501 H 0.27294 0.10413 0.25989 0.0
H502 H 0.31837 0.14039 0.26604 0.0
H503 H 0.25858 0.15036 0.27001 0.0
H504 H 0.40196 0.24781 0.28234 0.0
H505 H 0.25922 0.26269 0.29376 0.0
H506 H 0.3806 0.25235 0.25182 0.0
H507 H 0.3821 0.19294 0.25678 0.0
H508 H 0.4224 0.23509 0.26283 0.0
H509 H 0.20906 0.27142 0.26482 0.0
H510 H 0.19642 0.26635 0.28025 0.0
H511 H 0.20386 0.21473 0.27137 0.0
C512 C 0.78411 0.75509 0.48425 0.0
C513 C 0.83211 0.7569 0.4816 0.0
C514 C 0.76806 0.76212 0.49575 0.0
C515 C 0.80069 0.77225 0.50474 0.0
C516 C 0.84926 0.77188 0.5022 0.0
C517 C 0.86435 0.76375 0.49071 0.0
C518 C 0.71607 0.76093 0.49817 0.0
C519 C 0.88528 0.78316 0.51147 0.0
C520 C 0.76682 0.8536 0.52955 0.0
C521 C 0.76591 0.82309 0.53918 0.0
C522 C 0.77641 0.83712 0.51825 0.0
C523 C 0.7844 0.78869 0.51643 0.0
C524 C 0.78078 0.75724 0.52598 0.0
C525 C 0.7721 0.77487 0.53728 0.0
C526 C 0.78053 0.87205 0.50837 0.0
C527 C 0.78783 0.70523 0.52434 0.0
H528 H 0.75896 0.74938 0.47729 0.0
H529 H 0.90151 0.76522 0.48877 0.0
H530 H 0.70867 0.74049 0.50622 0.0
H531 H 0.70311 0.79712 0.49965 0.0
H532 H 0.69609 0.74543 0.49078 0.0
H533 H 0.92173 0.77825 0.50828 0.0
H534 H 0.88107 0.82014 0.51431 0.0
H535 H 0.88001 0.76074 0.51928 0.0
H536 H 0.76213 0.89092 0.53089 0.0
H537 H 0.77111 0.75098 0.54464 0.0
H538 H 0.75734 0.86184 0.50101 0.0
H539 H 0.81702 0.87224 0.505 0.0
H540 H 0.77127 0.90822 0.51113 0.0
H541 H 0.76728 0.69249 0.51673 0.0
H542 H 0.77742 0.68496 0.53221 0.0
H543 H 0.82529 0.69798 0.52248 0.0
C544 C 0.24709 0.28024 0.73415 0.0
C545 C 0.24954 0.32853 0.7319 0.0
C546 C 0.23977 0.2634 0.74558 0.0
C547 C 0.2335 0.29564 0.75488 0.0
C548 C 0.23786 0.34428 0.75271 0.0
C549 C 0.24636 0.36004 0.7413 0.0
C550 C 0.23678 0.21123 0.74762 0.0
C551 C 0.23058 0.38001 0.7623 0.0
C552 C 0.1523 0.26721 0.7801 0.0
C553 C 0.18361 0.26361 0.78953 0.0
C554 C 0.16832 0.27566 0.76871 0.0
C555 C 0.21703 0.27951 0.76658 0.0
C556 C 0.24906 0.27292 0.77591 0.0
C557 C 0.23195 0.26568 0.78732 0.0
C558 C 0.13283 0.28334 0.75909 0.0
C559 C 0.30128 0.27536 0.77393 0.0
H560 H 0.24995 0.25564 0.72696 0.0
H561 H 0.24815 0.39743 0.73967 0.0
H562 H 0.25731 0.20115 0.75547 0.0
H563 H 0.1998 0.20117 0.74924 0.0
H564 H 0.24982 0.19093 0.73999 0.0
H565 H 0.23771 0.41636 0.75931 0.0
H566 H 0.19384 0.37822 0.76546 0.0
H567 H 0.25368 0.37224 0.76985 0.0
H568 H 0.11487 0.26575 0.78169 0.0
H569 H 0.2564 0.2625 0.79454 0.0
H570 H 0.14035 0.26002 0.75156 0.0
H571 H 0.1352 0.32001 0.7559 0.0
H572 H 0.09634 0.27679 0.76206 0.0
H573 H 0.31127 0.25463 0.7661 0.0
H574 H 0.32132 0.26221 0.78159 0.0
H575 H 0.31173 0.31222 0.77229 0.0
C576 C 0.74549 0.65876 0.02951 0.0
C577 C 0.74613 0.68925 0.03914 0.0
C578 C 0.73595 0.6752 0.0182 0.0
C579 C 0.72774 0.7236 0.01639 0.0
C580 C 0.73111 0.75505 0.02594 0.0
C581 C 0.73976 0.73745 0.03725 0.0
C582 C 0.7321 0.64027 1.00831 0.0
C583 C 0.72381 0.80703 0.0243 0.0
C584 C 0.72778 0.75741 0.98422 0.0
C585 C 0.67978 0.75542 0.98157 0.0
C586 C 0.74391 0.75033 0.99571 0.0
C587 C 0.71134 0.73996 1.0047 0.0
C588 C 0.66277 0.74009 1.00217 0.0
C589 C 0.6476 0.74829 0.99068 0.0
C590 C 0.79588 0.75178 0.99812 0.0
C591 C 0.62683 0.72854 0.01144 0.0
H592 H 0.75034 0.62146 0.03084 0.0
H593 H 0.74054 0.76134 0.04462 0.0
H594 H 0.69561 0.63983 1.00495 0.0
H595 H 0.75521 0.65066 1.00096 0.0
H596 H 0.74161 0.60417 0.01107 0.0
H597 H 0.73415 0.82734 0.03218 0.0
H598 H 0.74429 0.81987 0.0167 0.0
H599 H 0.68631 0.8141 0.02246 0.0
H600 H 0.75288 0.76334 0.97726 0.0
H601 H 0.61045 0.74667 0.98875 0.0
H602 H 0.80903 0.71566 0.9996 0.0
H603 H 0.80319 0.77225 1.00617 0.0
H604 H 0.81578 0.7674 0.99074 0.0
H605 H 0.63131 0.6916 0.01427 0.0
H606 H 0.59034 0.73318 1.00825 0.0
H607 H 0.63193 0.75101 0.01924 0.0
C608 C 0.26582 0.35483 0.02971 0.0
C609 C 0.26679 0.32482 0.03944 0.0
C610 C 0.27568 0.33824 0.01844 0.0
C611 C 0.28591 0.29016 0.01675 0.0
C612 C 0.28414 0.25906 0.0264 0.0
C613 C 0.27508 0.27683 0.03767 0.0
C614 C 0.27772 0.37281 1.00844 0.0
C615 C 0.29364 0.20737 0.0249 0.0
C616 C 0.28654 0.2547 0.98469 0.0
C617 C 0.33436 0.25848 0.98196 0.0
C618 C 0.2704 0.26172 0.99618 0.0
C619 C 0.3027 0.27393 1.00508 0.0
C620 C 0.35119 0.27571 1.00248 0.0
C621 C 0.36642 0.26746 0.991 0.0
C622 C 0.21859 0.25816 0.99868 0.0
C623 C 0.38681 0.28933 0.01164 0.0
H624 H 0.25944 0.39196 0.03095 0.0
H625 H 0.27556 0.2533 0.04511 0.0
H626 H 0.31407 0.3747 1.00501 0.0
H627 H 0.2549 0.36104 1.00116 0.0
H628 H 0.26668 0.40859 0.01111 0.0
H629 H 0.28435 0.18702 0.03285 0.0
H630 H 0.27359 0.19328 0.01736 0.0
H631 H 0.33138 0.20183 0.02302 0.0
H632 H 0.26157 0.24733 0.97778 0.0
H633 H 0.40343 0.27052 0.989 0.0
H634 H 0.20394 0.29375 1.00007 0.0
H635 H 0.21237 0.23778 1.0068 0.0
H636 H 0.19921 0.24135 0.99137 0.0
H637 H 0.38075 0.32617 0.01438 0.0
H638 H 0.42339 0.28617 1.0084 0.0
H639 H 0.38292 0.26704 0.01952 0.0
C640 C 0.64675 0.76552 0.27989 0.0
C641 C 0.67891 0.75764 0.28896 0.0
C642 C 0.66193 0.77392 0.26841 0.0
C643 C 0.71048 0.77346 0.26585 0.0
C644 C 0.74297 0.76229 0.2748 0.0
C645 C 0.72686 0.75506 0.28629 0.0
C646 C 0.62607 0.78636 0.25919 0.0
C647 C 0.79491 0.76018 0.27235 0.0
C648 C 0.73902 0.77698 0.23332 0.0
C649 C 0.74615 0.82516 0.23155 0.0
C650 C 0.73 0.75903 0.24456 0.0
C651 C 0.72702 0.79011 0.2542 0.0
C652 C 0.73595 0.83845 0.25252 0.0
C653 C 0.74585 0.85524 0.24127 0.0
C654 C 0.72193 0.7071 0.24606 0.0
C655 C 0.73255 0.873 0.26251 0.0
H656 H 0.60964 0.76763 0.28185 0.0
H657 H 0.75193 0.74854 0.29322 0.0
H658 H 0.63098 0.82338 0.25647 0.0
H659 H 0.63086 0.76421 0.25132 0.0
H660 H 0.58955 0.78203 0.26239 0.0
H661 H 0.81464 0.74396 0.27969 0.0
H662 H 0.80186 0.73994 0.26425 0.0
H663 H 0.80855 0.79616 0.27097 0.0
H664 H 0.73953 0.75341 0.22588 0.0
H665 H 0.75128 0.89251 0.24004 0.0
H666 H 0.68434 0.70054 0.24791 0.0
H667 H 0.74226 0.6936 0.25361 0.0
H668 H 0.7319 0.68698 0.23812 0.0
H669 H 0.69609 0.87375 0.26589 0.0
H670 H 0.74247 0.9091 0.25984 0.0
H671 H 0.75559 0.86201 0.26982 0.0
C672 C 0.22631 0.25705 0.48479 0.0
C673 C 0.17838 0.25472 0.48209 0.0
C674 C 0.24227 0.24982 0.4963 0.0
C675 C 0.20963 0.23893 0.50523 0.0
C676 C 0.1611 0.23874 0.50264 0.0
C677 C 0.14609 0.24713 0.49115 0.0
C678 C 0.29419 0.25163 0.49877 0.0
C679 C 0.12509 0.22661 0.51184 0.0
C680 C 0.24433 0.15707 0.52985 0.0
C681 C 0.24474 0.1872 0.53956 0.0
C682 C 0.23461 0.17385 0.51859 0.0
C683 C 0.22597 0.22224 0.51689 0.0
C684 C 0.22904 0.25336 0.52652 0.0
C685 C 0.23788 0.23541 0.53778 0.0
C686 C 0.2311 0.13927 0.50862 0.0
C687 C 0.22128 0.30533 0.525 0.0
H688 H 0.25149 0.26335 0.47787 0.0
H689 H 0.10898 0.24523 0.48916 0.0
H690 H 0.30118 0.27187 0.50687 0.0
H691 H 0.30763 0.21557 0.50017 0.0
H692 H 0.31408 0.26768 0.49144 0.0
H693 H 0.08863 0.23117 0.50862 0.0
H694 H 0.12975 0.18958 0.51458 0.0
H695 H 0.12995 0.24878 0.51971 0.0
H696 H 0.24955 0.11977 0.5311 0.0
H697 H 0.23846 0.25902 0.5452 0.0
H698 H 0.25427 0.15006 0.50131 0.0
H699 H 0.19466 0.13874 0.50522 0.0
H700 H 0.24078 0.10311 0.5113 0.0
H701 H 0.24176 0.31866 0.51745 0.0
H702 H 0.23129 0.32542 0.53294 0.0
H703 H 0.18374 0.31212 0.52313 0.0
C704 C 0.76547 0.73226 0.73367 0.0
C705 C 0.76165 0.68392 0.7316 0.0
C706 C 0.77317 0.74961 0.74504 0.0
C707 C 0.77838 0.71779 0.75447 0.0
C708 C 0.77259 0.66916 0.75248 0.0
C709 C 0.76378 0.65294 0.74112 0.0
C710 C 0.7777 0.80179 0.74687 0.0
C711 C 0.77868 0.63386 0.76221 0.0
C712 C 0.86009 0.74552 0.77964 0.0
C713 C 0.82879 0.75065 0.78902 0.0
C714 C 0.84396 0.73675 0.76827 0.0
C715 C 0.79518 0.73417 0.76612 0.0
C716 C 0.76325 0.7423 0.7754 0.0
C717 C 0.78043 0.74978 0.78679 0.0
C718 C 0.87933 0.72737 0.75871 0.0
C719 C 0.71101 0.74128 0.77338 0.0
H720 H 0.76343 0.75648 0.72639 0.0
H721 H 0.7609 0.61552 0.73964 0.0
H722 H 0.75742 0.81298 0.75467 0.0
H723 H 0.81495 0.81083 0.74848 0.0
H724 H 0.76535 0.82198 0.73916 0.0
H725 H 0.77049 0.59755 0.75935 0.0
H726 H 0.81542 0.63475 0.7654 0.0
H727 H 0.75574 0.6428 0.76972 0.0
H728 H 0.89752 0.746 0.78126 0.0
H729 H 0.75601 0.75414 0.79397 0.0
H730 H 0.87261 0.75042 0.75109 0.0
H731 H 0.87588 0.69059 0.75566 0.0
H732 H 0.91596 0.733 0.76169 0.0
H733 H 0.70173 0.76182 0.76546 0.0
H734 H 0.69127 0.75549 0.78097 0.0
H735 H 0.69948 0.70466 0.77186 0.0
C736 C 0.11094 1.00277 0.20322 0.0
C737 C 0.12836 0.04021 0.19656 0.0
C738 C 0.06389 0.98885 0.20239 0.0
C739 C 0.03339 0.01275 0.19464 0.0
C740 C 0.05117 0.04928 0.18752 0.0
C741 C 0.09843 0.06267 0.18859 0.0
C742 C 0.04638 0.94977 0.21015 0.0
C743 C 0.01989 0.07532 0.17909 0.0
C744 C 0.91682 0.95245 0.18855 0.0
C745 C 0.88728 0.97447 0.19669 0.0
C746 C 0.96411 0.96571 0.18745 0.0
C747 C 0.98232 1.00161 0.1947 0.0
C748 C 0.95224 0.02499 0.20264 0.0
C749 C 0.90514 0.01125 0.20351 0.0
C750 C 0.99495 0.94024 0.1788 0.0
C751 C 0.97021 0.06339 0.21056 0.0
H752 H 0.13376 0.98509 0.20939 0.0
H753 H 0.1116 0.09153 0.18337 0.0
H754 H 0.02025 0.96382 0.21643 0.0
H755 H 0.02853 0.92258 0.20484 0.0
H756 H 0.07511 0.93289 0.21518 0.0
H757 H 0.03994 0.09971 0.1734 0.0
H758 H 1.00049 0.05025 0.17347 0.0
H759 H 0.99349 0.09586 0.18404 0.0
H760 H 0.90331 0.92411 0.18322 0.0
H761 H 0.88263 0.02856 0.20981 0.0
H762 H 0.02163 0.9194 0.18358 0.0
H763 H 0.01403 0.9657 0.17323 0.0
H764 H 0.97462 0.91622 0.17308 0.0
H765 H 0.99673 0.0488 0.21665 0.0
H766 H 0.94179 0.0798 0.21579 0.0
H767 H 0.98772 0.09105 0.20533 0.0
C768 C 1.00085 0.40312 0.45108 0.0
C769 C 0.03816 0.38532 0.44443 0.0
C770 C 0.98733 0.45031 0.45022 0.0
C771 C 0.01134 0.48049 0.44243 0.0
C772 C 0.04771 0.4623 0.43531 0.0
C773 C 0.06088 0.41499 0.43645 0.0
C774 C 0.94856 0.4683 0.45802 0.0
C775 C 0.07371 0.49318 0.42679 0.0
C776 C 0.95094 0.59696 0.43621 0.0
C777 C 0.97342 0.62684 0.44419 0.0
C778 C 0.96416 0.54962 0.43517 0.0
C779 C 1.00034 0.53163 0.44237 0.0
C780 C 0.02413 0.56202 0.45016 0.0
C781 C 0.01056 0.60923 0.45093 0.0
C782 C 0.9384 0.51852 0.42665 0.0
C783 C 0.06269 0.54426 0.45806 0.0
H784 H 0.98307 0.38053 0.45728 0.0
H785 H 0.08961 0.40149 0.43124 0.0
H786 H 0.96285 0.49475 0.46418 0.0
H787 H 0.92119 0.48591 0.45271 0.0
H788 H 0.93184 0.43986 0.46318 0.0
H789 H 0.09796 0.47283 0.42112 0.0
H790 H 0.0486 0.51243 0.42114 0.0
H791 H 0.09439 0.51971 0.43165 0.0
H792 H 0.92233 0.6103 0.43094 0.0
H793 H 0.02815 0.63198 0.45712 0.0
H794 H 0.91756 0.49214 0.43152 0.0
H795 H 0.96367 0.49909 0.42109 0.0
H796 H 0.91433 0.53872 0.42091 0.0
H797 H 0.04822 0.51799 0.46423 0.0
H798 H 0.07927 0.57284 0.4632 0.0
H799 H 0.09019 0.52648 0.45282 0.0
C800 C 0.40206 0.51185 0.70181 0.0
C801 C 0.3841 0.47433 0.69527 0.0
C802 C 0.44923 0.52518 0.70087 0.0
C803 C 0.47922 0.5006 0.69314 0.0
C804 C 0.46083 0.46415 0.68609 0.0
C805 C 0.41349 0.45131 0.68727 0.0
C806 C 0.46743 0.5642 0.70856 0.0
C807 C 0.49158 0.43748 0.67765 0.0
C808 C 0.59664 0.55916 0.6872 0.0
C809 C 0.62556 0.53688 0.69543 0.0
C810 C 0.5493 0.54637 0.68597 0.0
C811 C 0.53044 0.51076 0.6932 0.0
C812 C 0.55995 0.48697 0.70119 0.0
C813 C 0.60713 0.5002 0.70218 0.0
C814 C 0.51908 0.57215 0.67725 0.0
C815 C 0.54123 0.44889 0.70909 0.0
H816 H 0.37963 0.52996 0.70799 0.0
H817 H 0.39986 0.4224 0.68215 0.0
H818 H 0.49329 0.54987 0.71486 0.0
H819 H 0.48577 0.5909 0.7032 0.0
H820 H 0.439 0.58173 0.71355 0.0
H821 H 0.471 0.41365 0.67194 0.0
H822 H 0.51165 0.46213 0.67207 0.0
H823 H 0.5174 0.41623 0.68261 0.0
H824 H 0.61065 0.58741 0.68192 0.0
H825 H 0.62919 0.48269 0.70854 0.0
H826 H 0.49293 0.59387 0.68197 0.0
H827 H 0.49938 0.54691 0.67175 0.0
H828 H 0.54 0.59541 0.67147 0.0
H829 H 0.51492 0.46394 0.71518 0.0
H830 H 0.56931 0.43197 0.71434 0.0
H831 H 0.52326 0.42154 0.70385 0.0
C832 C 0.51164 0.10986 0.9511 0.0
C833 C 0.4744 0.12768 0.94444 0.0
C834 C 0.52502 0.06262 0.95028 0.0
C835 C 0.50093 0.03242 0.9425 0.0
C836 C 0.46462 0.05062 0.93538 0.0
C837 C 0.4516 0.09798 0.93647 0.0
C838 C 0.56373 0.04461 0.95809 0.0
C839 C 0.43853 0.01972 0.92687 0.0
C840 C 0.56101 0.91581 0.9363 0.0
C841 C 0.53847 0.88602 0.94428 0.0
C842 C 0.54793 0.96318 0.93526 0.0
C843 C 0.51182 0.98128 0.94247 0.0
C844 C 0.48796 0.95097 0.95026 0.0
C845 C 0.5014 0.90373 0.95103 0.0
C846 C 0.57376 0.99419 0.92673 0.0
C847 C 0.44946 0.96886 0.95816 0.0
H848 H 0.52946 0.13249 0.95729 0.0
H849 H 0.42291 0.11149 0.93125 0.0
H850 H 0.54936 0.01824 0.96426 0.0
H851 H 0.59107 0.02689 0.9528 0.0
H852 H 0.5805 0.07305 0.96324 0.0
H853 H 0.4143 0.04006 0.9212 0.0
H854 H 0.4636 1.00038 0.92123 0.0
H855 H 0.41784 0.99325 0.93175 0.0
H856 H 0.58957 0.90238 0.93102 0.0
H857 H 0.48377 0.88103 0.95723 0.0
H858 H 0.59462 0.02057 0.9316 0.0
H859 H 0.54852 0.01362 0.92116 0.0
H860 H 0.59781 0.97392 0.921 0.0
H861 H 0.46401 0.99514 0.96433 0.0
H862 H 0.43283 0.94035 0.96331 0.0
H863 H 0.42199 0.98667 0.95293 0.0
C864 C 0.09662 0.45237 0.08251 0.0
C865 C 0.12617 0.47438 0.07438 0.0
C866 C 0.04932 0.46564 0.08361 0.0
C867 C 0.03113 0.50156 0.07636 0.0
C868 C 0.06123 0.52495 0.06843 0.0
C869 C 0.10833 0.51118 0.06757 0.0
C870 C 0.01847 0.44016 0.09224 0.0
C871 C 0.04327 0.56336 0.06052 0.0
C872 C 0.90256 0.50269 0.06779 0.0
C873 C 0.88506 0.5401 0.07445 0.0
C874 C 0.94962 0.48879 0.06864 0.0
C875 C 0.98004 0.51269 0.0764 0.0
C876 C 0.96217 0.54919 0.08352 0.0
C877 C 0.91491 0.56257 0.08244 0.0
C878 C 0.96722 0.44972 0.06088 0.0
C879 C 0.99337 0.57524 0.09197 0.0
H880 H 0.11013 0.424 0.08784 0.0
H881 H 0.13086 0.5285 0.06128 0.0
H882 H 0.99931 0.46562 0.09781 0.0
H883 H 0.99185 0.4193 0.08745 0.0
H884 H 0.0388 0.41617 0.09797 0.0
H885 H 0.07171 0.57981 0.05531 0.0
H886 H 0.01681 0.54879 0.05441 0.0
H887 H 0.02568 0.591 0.06575 0.0
H888 H 0.8798 0.48501 0.06161 0.0
H889 H 0.90167 0.59141 0.08765 0.0
H890 H 0.98507 0.42252 0.06619 0.0
H891 H 0.99339 0.46379 0.05461 0.0
H892 H 0.93854 0.43285 0.05583 0.0
H893 H 0.01276 0.55016 0.09759 0.0
H894 H 0.97326 0.59961 0.09765 0.0
H895 H 0.01978 0.59579 0.08703 0.0
C896 C 0.50102 0.60935 0.31992 0.0
C897 C 0.5383 0.62714 0.32657 0.0
C898 C 0.48747 0.56218 0.3208 0.0
C899 C 0.51142 0.53202 0.32861 0.0
C900 C 0.54777 0.55021 0.33573 0.0
C901 C 0.56097 0.5975 0.33457 0.0
C902 C 0.44872 0.54419 0.31299 0.0
C903 C 0.57372 0.51937 0.34428 0.0
C904 C 0.45099 0.41564 0.33486 0.0
C905 C 0.47351 0.38569 0.3269 0.0
C906 C 0.4642 0.46298 0.33588 0.0
C907 C 0.50041 0.4809 0.32868 0.0
C908 C 0.52424 0.45043 0.32091 0.0
C909 C 0.51068 0.40322 0.32017 0.0
C910 C 0.43839 0.49417 0.34438 0.0
C911 C 0.56283 0.46811 0.31302 0.0
H912 H 0.48329 0.63192 0.31371 0.0
H913 H 0.58968 0.61099 0.33979 0.0
H914 H 0.46304 0.51768 0.30685 0.0
H915 H 0.42133 0.52663 0.3183 0.0
H916 H 0.43204 0.57261 0.30782 0.0
H917 H 0.59795 0.53973 0.34994 0.0
H918 H 0.54856 0.50019 0.34992 0.0
H919 H 0.5944 0.49277 0.33943 0.0
H920 H 0.42236 0.40236 0.34013 0.0
H921 H 0.5283 0.38041 0.31399 0.0
H922 H 0.41759 0.52054 0.33949 0.0
H923 H 0.46364 0.51361 0.34994 0.0
H924 H 0.41429 0.47403 0.35013 0.0
H925 H 0.54839 0.49436 0.30683 0.0
H926 H 0.57943 0.43948 0.3079 0.0
H927 H 0.59031 0.48589 0.31825 0.0
C928 C 0.60885 0.00931 0.56777 0.0
C929 C 0.62643 0.97199 0.57445 0.0
C930 C 0.56178 0.02317 0.56863 0.0
C931 C 0.53143 0.99933 0.57642 0.0
C932 C 0.54938 0.9629 0.58355 0.0
C933 C 0.59665 0.94956 0.58246 0.0
C934 C 0.5441 0.06214 0.56085 0.0
C935 C 0.51826 0.93692 0.59203 0.0
C936 C 0.41494 0.05975 0.58256 0.0
C937 C 0.38531 0.03767 0.57446 0.0
C938 C 0.46223 0.04645 0.58365 0.0
C939 C 0.48035 0.01046 0.5764 0.0
C940 C 0.45017 0.987 0.56851 0.0
C941 C 0.40307 1.00079 0.56766 0.0
C942 C 0.49318 0.072 0.59225 0.0
C943 C 0.46804 0.94849 0.56061 0.0
H944 H 0.63157 0.02695 0.56158 0.0
H945 H 0.60995 0.92079 0.58769 0.0
H946 H 0.51786 0.048 0.55462 0.0
H947 H 0.52631 0.0894 0.56616 0.0
H948 H 0.57272 0.07895 0.55578 0.0
H949 H 0.53841 0.91259 0.59771 0.0
H950 H 0.49893 0.96205 0.59765 0.0
H951 H 0.49179 0.91634 0.58711 0.0
H952 H 0.4015 0.08818 0.58789 0.0
H953 H 0.38048 0.98343 0.56139 0.0
H954 H 0.51975 0.09282 0.58743 0.0
H955 H 0.51238 0.04659 0.59781 0.0
H956 H 0.47291 0.09606 0.59798 0.0
H957 H 0.49444 0.963 0.55447 0.0
H958 H 0.43955 0.932 0.55542 0.0
H959 H 0.48568 0.92092 0.56584 0.0
C960 C 1.00036 0.10993 0.81913 0.0
C961 C 0.03738 0.12799 0.82583 0.0
C962 C 0.987 0.06276 0.82004 0.0
C963 C 0.01098 0.03285 0.8279 0.0
C964 C 0.04692 0.05133 0.83509 0.0
C965 C 0.05984 0.09868 0.83394 0.0
C966 C 0.94857 0.04446 0.81218 0.0
C967 C 0.07291 0.02068 0.84368 0.0
C968 C 0.95159 0.9157 0.83366 0.0
C969 C 0.97435 0.88658 0.82556 0.0
C970 C 0.96448 0.96301 0.83492 0.0
C971 C 1.00071 0.98165 0.82785 0.0
C972 C 0.02498 0.95193 0.81999 0.0
C973 C 0.01162 0.90479 0.81897 0.0
C974 C 0.93815 0.99345 0.84349 0.0
C975 C 0.06373 0.9704 0.81226 0.0
H976 H 0.9827 0.13229 0.81286 0.0
H977 H 0.08834 0.11239 0.83919 0.0
H978 H 0.96334 0.01841 0.80598 0.0
H979 H 0.9214 0.02631 0.81743 0.0
H980 H 0.93151 0.07282 0.80705 0.0
H981 H 0.0964 0.04132 0.84947 0.0
H982 H 0.04782 1.0008 0.84918 0.0
H983 H 0.09442 0.99469 0.83885 0.0
H984 H 0.92288 0.90187 0.83882 0.0
H985 H 0.02952 0.88257 0.81271 0.0
H986 H 0.91685 0.01957 0.83865 0.0
H987 H 0.96303 0.01319 0.84909 0.0
H988 H 0.91443 0.97268 0.84919 0.0
H989 H 0.04922 0.99662 0.80607 0.0
H990 H 0.08099 0.94217 0.80713 0.0
H991 H 0.09069 0.98841 0.81761 0.0
C992 C 0.61125 0.99907 0.19894 0.0
C993 C 0.62289 0.96003 0.19208 0.0
C994 C 0.56623 0.0189 0.19845 0.0
C995 C 0.53246 0.99999 0.19068 0.0
C996 C 0.54477 0.96199 0.18333 0.0
C997 C 0.58964 0.94202 0.18424 0.0
C998 C 0.55424 0.05882 0.20659 0.0
C999 C 0.51022 0.94172 0.17471 0.0
C1000 C 0.40429 0.01779 0.19861 0.0
C1001 C 0.39294 0.05795 0.19214 0.0
C1002 C 0.44941 0.99821 0.19809 0.0
C1003 C 0.48365 0.0186 0.1907 0.0
C1004 C 0.47172 0.05788 0.18374 0.0
C1005 C 0.42669 0.07748 0.18466 0.0
C1006 C 0.46097 0.95684 0.20582 0.0
C1007 C 0.50681 0.07981 0.17551 0.0
H1008 H 0.63668 0.01285 0.20508 0.0
H1009 H 0.59861 0.91201 0.17887 0.0
H1010 H 0.54124 0.08933 0.20153 0.0
H1011 H 0.52567 0.04792 0.21259 0.0
H1012 H 0.58476 0.07017 0.21192 0.0
H1013 H 0.52658 0.91512 0.1689 0.0
H1014 H 0.48082 0.92496 0.17948 0.0
H1015 H 0.49508 0.96999 0.16922 0.0
H1016 H 0.37848 1.00279 0.20448 0.0
H1017 H 0.41798 0.10837 0.17959 0.0
H1018 H 0.48924 0.9666 0.21202 0.0
H1019 H 0.4742 0.92727 0.20045 0.0
H1020 H 0.43017 0.94457 0.21091 0.0
H1021 H 0.53591 0.09557 0.1806 0.0
H1022 H 0.49082 0.10753 0.16998 0.0
H1023 H 0.52229 0.05264 0.16974 0.0
C1024 C 0.93212 0.9321 0.44899 0.0
C1025 C 0.94954 0.89439 0.44244 0.0
C1026 C 0.95397 0.97612 0.44867 0.0
C1027 C 0.99309 0.98314 0.44125 0.0
C1028 C 0.00978 0.94553 0.43428 0.0
C1029 C 0.9884 0.90122 0.43516 0.0
C1030 C 0.93616 0.01462 0.45658 0.0
C1031 C 0.05028 0.95207 0.42595 0.0
C1032 C 0.02304 0.11107 0.43527 0.0
C1033 C 0.06146 0.11782 0.4427 0.0
C1034 C 1.00166 0.06678 0.43429 0.0
C1035 C 0.01789 0.02913 0.44131 0.0
C1036 C 0.05655 0.03609 0.44888 0.0
C1037 C 0.07843 0.08008 0.4493 0.0
C1038 C 0.96168 0.06032 0.4258 0.0
C1039 C 0.07384 0.99754 0.45685 0.0
H1040 H 0.90231 0.92666 0.45471 0.0
H1041 H 1.00161 0.87209 0.43004 0.0
H1042 H 0.96454 0.02604 0.46257 0.0
H1043 H 0.92569 0.04557 0.45133 0.0
H1044 H 0.90564 1.00329 0.46191 0.0
H1045 H 0.05614 0.92072 0.42037 0.0
H1046 H 0.04382 0.9828 0.42022 0.0
H1047 H 0.08284 0.95922 0.43093 0.0
H1048 H 0.01018 0.14023 0.4301 0.0
H1049 H 0.10791 0.08548 0.45513 0.0
H1050 H 0.92882 0.05309 0.43066 0.0
H1051 H 0.96852 0.02965 0.42008 0.0
H1052 H 0.95615 0.09172 0.42023 0.0
H1053 H 0.04506 0.98606 0.46271 0.0
H1054 H 0.10398 0.00885 0.46231 0.0
H1055 H 0.08469 0.96664 0.45163 0.0
C1056 C 0.10833 0.49578 0.69837 0.0
C1057 C 0.11964 0.45555 0.69192 0.0
C1058 C 0.06323 0.51537 0.69784 0.0
C1059 C 0.02902 0.49498 0.69044 0.0
C1060 C 0.04093 0.45563 0.6835 0.0
C1061 C 0.08592 0.43595 0.68445 0.0
C1062 C 0.05166 0.55672 0.70558 0.0
C1063 C 0.00588 0.43375 0.67526 0.0
C1064 C 0.9015 0.51426 0.69872 0.0
C1065 C 0.88981 0.55342 0.69192 0.0
C1066 C 0.94652 0.4945 0.6982 0.0
C1067 C 0.98022 0.51354 0.69045 0.0
C1068 C 0.96787 0.5517 0.68315 0.0
C1069 C 0.92302 0.57166 0.68411 0.0
C1070 C 0.95858 0.45449 0.70632 0.0
C1071 C 1.00235 0.57207 0.67452 0.0
H1072 H 0.13415 0.51081 0.70423 0.0
H1073 H 0.09464 0.40501 0.6794 0.0
H1074 H 0.0385 0.58633 0.70022 0.0
H1075 H 0.02335 0.54697 0.71177 0.0
H1076 H 0.08244 0.56895 0.71068 0.0
H1077 H 0.02191 0.4061 0.6697 0.0
H1078 H 0.9768 0.41789 0.68033 0.0
H1079 H 0.99037 0.46097 0.6695 0.0
H1080 H 0.87607 0.50032 0.70485 0.0
H1081 H 0.91398 0.60177 0.67878 0.0
H1082 H 0.98726 0.46529 0.71229 0.0
H1083 H 0.97144 0.424 0.70123 0.0
H1084 H 0.92813 0.44314 0.71167 0.0
H1085 H 0.03177 0.58882 0.67929 0.0
H1086 H 0.98593 0.5987 0.66874 0.0
H1087 H 0.01748 0.54385 0.66901 0.0
C1088 C 0.43492 0.43239 0.94939 0.0
C1089 C 0.45077 0.39512 0.94246 0.0
C1090 C 0.45684 0.47637 0.94896 0.0
C1091 C 0.49428 0.48382 0.94105 0.0
C1092 C 0.50931 0.44665 0.93371 0.0
C1093 C 0.48802 0.40233 0.9347 0.0
C1094 C 0.44091 0.51435 0.95727 0.0
C1095 C 0.5479 0.45368 0.92485 0.0
C1096 C 0.52275 0.61217 0.93521 0.0
C1097 C 0.56267 0.61855 0.94216 0.0
C1098 C 0.50131 0.5679 0.93432 0.0
C1099 C 0.5191 0.5298 0.94094 0.0
C1100 C 0.55936 0.53631 0.948 0.0
C1101 C 0.58117 0.58035 0.94833 0.0
C1102 C 0.45951 0.56194 0.92637 0.0
C1103 C 0.57845 0.49724 0.95554 0.0
H1104 H 0.40636 0.4266 0.95548 0.0
H1105 H 0.49999 0.37351 0.92928 0.0
H1106 H 0.47066 0.52544 0.96288 0.0
H1107 H 0.42921 0.54561 0.95231 0.0
H1108 H 0.41171 0.50265 0.963 0.0
H1109 H 0.5525 0.42266 0.91909 0.0
H1110 H 0.54017 0.48474 0.91933 0.0
H1111 H 0.58152 0.46057 0.9294 0.0
H1112 H 0.50867 0.64167 0.93038 0.0
H1113 H 0.61181 0.58541 0.9538 0.0
H1114 H 0.42774 0.55459 0.93165 0.0
H1115 H 0.46497 0.53154 0.92047 0.0
H1116 H 0.45287 0.59364 0.92098 0.0
H1117 H 0.55109 0.48545 0.96178 0.0
H1118 H 0.60988 0.50815 0.96059 0.0
H1119 H 0.58793 0.46663 0.95005 0.0
C1120 C 0.60912 0.51754 0.07227 0.0
C1121 C 0.62047 0.55754 0.07881 0.0
C1122 C 0.56403 0.49793 0.07278 0.0
C1123 C 0.52983 0.51809 0.08023 0.0
C1124 C 0.54177 0.5572 0.08725 0.0
C1125 C 0.58676 0.57686 0.08633 0.0
C1126 C 0.55246 0.45675 0.065 0.0
C1127 C 0.50673 0.57889 0.09553 0.0
C1128 C 0.40215 0.49867 0.07206 0.0
C1129 C 0.39064 0.45947 0.07887 0.0
C1130 C 0.44715 0.5185 0.07255 0.0
C1131 C 0.48106 0.49944 0.08025 0.0
C1132 C 0.46889 0.46125 0.08755 0.0
C1133 C 0.42403 0.4413 0.08666 0.0
C1134 C 0.45898 0.55863 0.06445 0.0
C1135 C 0.50359 0.44079 0.09612 0.0
H1136 H 0.6349 0.50272 0.06637 0.0
H1137 H 0.59547 0.60763 0.09145 0.0
H1138 H 0.53934 0.42703 0.07031 0.0
H1139 H 0.52411 0.46665 0.05882 0.0
H1140 H 0.58322 0.44465 0.05986 0.0
H1141 H 0.52271 0.60651 0.1011 0.0
H1142 H 0.47753 0.59473 0.09049 0.0
H1143 H 0.49137 0.55157 0.10127 0.0
H1144 H 0.37661 0.51258 0.06596 0.0
H1145 H 0.41517 0.41117 0.09199 0.0
H1146 H 0.4875 0.5479 0.05842 0.0
H1147 H 0.47198 0.58903 0.06955 0.0
H1148 H 0.42838 0.57007 0.05917 0.0
H1149 H 0.53297 0.42421 0.09129 0.0
H1150 H 0.48737 0.41401 0.10189 0.0
H1151 H 0.51873 0.46893 0.10165 0.0
C1152 C 0.48801 0.11095 0.3361 0.0
C1153 C 0.44992 0.1181 0.32859 0.0
C1154 C 0.50938 0.06661 0.33698 0.0
C1155 C 0.49352 0.02936 0.32978 0.0
C1156 C 0.45521 0.03674 0.32212 0.0
C1157 C 0.4333 0.08075 0.3218 0.0
C1158 C 0.54896 0.05966 0.34556 0.0
C1159 C 0.43833 0.99865 0.31397 0.0
C1160 C 0.57958 0.93262 0.32202 0.0
C1161 C 0.56183 0.89458 0.32837 0.0
C1162 C 0.55777 0.97667 0.32243 0.0
C1163 C 0.5183 0.98334 0.32976 0.0
C1164 C 0.50127 0.94538 0.33655 0.0
C1165 C 0.52265 0.90109 0.33557 0.0
C1166 C 0.57599 0.01557 0.31471 0.0
C1167 C 0.46036 0.95152 0.34478 0.0
H1168 H 0.50059 0.13982 0.34141 0.0
H1169 H 0.40408 0.08647 0.31591 0.0
H1170 H 0.54183 0.02871 0.35117 0.0
H1171 H 0.58204 0.05263 0.34078 0.0
H1172 H 0.55424 0.09077 0.35126 0.0
H1173 H 0.40849 0.01029 0.30844 0.0
H1174 H 0.46742 0.98744 0.30816 0.0
H1175 H 0.4272 0.96748 0.31905 0.0
H1176 H 0.60965 0.92745 0.31636 0.0
H1177 H 0.50917 0.8717 0.34055 0.0
H1178 H 0.58617 0.04624 0.3201 0.0
H1179 H 0.54791 0.02733 0.30867 0.0
H1180 H 0.60678 1.0045 0.30944 0.0
H1181 H 0.46655 0.98195 0.35062 0.0
H1182 H 0.45425 0.91988 0.35023 0.0
H1183 H 0.42805 0.95895 0.33972 0.0
C1184 C 0.92457 0.93587 0.58648 0.0
C1185 C 0.89097 0.95507 0.57891 0.0
C1186 C 0.96954 0.95554 0.58742 0.0
C1187 C 0.98158 0.99454 0.58038 0.0
C1188 C 0.94747 0.01461 0.57289 0.0
C1189 C 0.90239 0.99499 0.57236 0.0
C1190 C 1.00447 0.93396 0.59575 0.0
C1191 C 0.95915 0.05566 0.56507 0.0
C1192 C 0.08744 0.07128 0.58678 0.0
C1193 C 0.12085 0.05292 0.57903 0.0
C1194 C 0.04254 0.05141 0.58767 0.0
C1195 C 0.03037 0.01312 0.5804 0.0
C1196 C 0.0643 0.99387 0.57273 0.0
C1197 C 0.10933 0.01363 0.57225 0.0
C1198 C 0.00781 0.07207 0.5962 0.0
C1199 C 0.05247 0.95362 0.56468 0.0
H1200 H 0.91579 0.90516 0.59162 0.0
H1201 H 0.87669 0.00972 0.56642 0.0
H1202 H 0.03368 0.91795 0.59074 0.0
H1203 H 0.01984 0.96138 0.60147 0.0
H1204 H 0.98839 0.90649 0.60134 0.0
H1205 H 0.92844 0.06774 0.55992 0.0
H1206 H 0.97228 0.08544 0.57037 0.0
H1207 H 0.98753 0.04564 0.55892 0.0
H1208 H 0.09631 0.10149 0.59209 0.0
H1209 H 0.13489 0.99957 0.56617 0.0
H1210 H 0.99257 0.04404 0.60175 0.0
H1211 H 0.9785 0.08863 0.59135 0.0
H1212 H 0.02404 0.09891 0.60196 0.0
H1213 H 0.03941 0.92332 0.5698 0.0
H1214 H 0.08309 0.94205 0.55941 0.0
H1215 H 0.024 0.96428 0.55862 0.0
C1216 C 0.9968 0.61069 0.8225 0.0
C1217 C 0.95695 0.6223 0.82905 0.0
C1218 C 0.01641 0.56561 0.82308 0.0
C1219 C 0.99647 0.53177 0.83066 0.0
C1220 C 0.95757 0.54402 0.83772 0.0
C1221 C 0.93782 0.58895 0.8367 0.0
C1222 C 0.05726 0.55365 0.81523 0.0
C1223 C 0.93621 0.50939 0.84615 0.0
C1224 C 0.01502 0.40386 0.82265 0.0
C1225 C 0.05461 0.39242 0.82932 0.0
C1226 C 0.99535 0.44893 0.82313 0.0
C1227 C 0.01495 0.48294 0.83072 0.0
C1228 C 0.05355 0.47085 0.83789 0.0
C1229 C 0.07339 0.42593 0.83697 0.0
C1230 C 0.95483 0.4607 0.81515 0.0
C1231 C 0.07453 0.50567 0.84634 0.0
H1232 H 0.01144 0.63623 0.8165 0.0
H1233 H 0.90718 0.59793 0.84184 0.0
H1234 H 0.08718 0.54068 0.8205 0.0
H1235 H 0.04709 0.52508 0.80915 0.0
H1236 H 0.0692 0.58419 0.80999 0.0
H1237 H 0.909 0.52574 0.85178 0.0
H1238 H 0.91993 0.48011 0.84123 0.0
H1239 H 0.96379 0.49407 0.85183 0.0
H1240 H 1.00066 0.37819 0.81664 0.0
H1241 H 0.10383 0.41708 0.8422 0.0
H1242 H 0.96526 0.48911 0.80905 0.0
H1243 H 0.9247 0.47382 0.82033 0.0
H1244 H 0.94309 0.43003 0.80993 0.0
H1245 H 0.09105 0.53483 0.84143 0.0
H1246 H 0.10146 0.48944 0.85207 0.0
H1247 H 0.04669 0.52113 0.85192 0.0
loop_
_geom_bond_atom_site_label_1
_geom_bond_atom_site_label_2
_geom_bond_distance
_geom_bond_site_symmetry_2
_ccdc_geom_bond_type
O0 Cd1 2.223 . S
O0 C8 1.315 . S
Cd1 O0 2.223 . S
Cd1 O4 2.297 . S
Cd1 O5 2.439 . S
Cd1 O11 2.240 . S
Cd2 O3 2.240 . S
Cd2 O10 2.223 . S
Cd2 O12 2.297 . S
Cd2 O13 2.439 . S
O3 Cd2 2.240 . S
O3 C8 1.279 . S
O4 Cd1 2.297 . S
O4 C6 1.247 . S
O5 Cd1 2.439 . S
O5 C6 1.208 . S
C6 O4 1.247 . S
C6 O5 1.208 . S
C7 O12 1.247 . S
C7 O13 1.208 . S
C8 O0 1.315 . S
C8 O3 1.279 . S
C9 O10 1.315 . S
C9 O11 1.279 . S
O10 Cd2 2.223 . S
O10 C9 1.315 . S
O11 Cd1 2.240 . S
O11 C9 1.279 . S
O12 Cd2 2.297 . S
O12 C7 1.247 . S
O13 Cd2 2.439 . S
O13 C7 1.208 . S
O14 Cd15 2.223 . S
O14 C22 1.315 . S
Cd15 O14 2.223 . S
Cd15 O18 2.297 . S
Cd15 O19 2.439 . S
Cd15 O25 2.240 . S
Cd16 O17 2.240 . S
Cd16 O24 2.223 . S
Cd16 O26 2.297 . S
Cd16 O27 2.439 . S
O17 Cd16 2.240 . S
O17 C22 1.279 . S
O18 Cd15 2.297 . S
O18 C20 1.247 . S
O19 Cd15 2.439 . S
O19 C20 1.208 . S
C20 O18 1.247 . S
C20 O19 1.208 . S
C21 O26 1.247 . S
C21 O27 1.208 . S
C22 O14 1.315 . S
C22 O17 1.279 . S
C23 O24 1.315 . S
C23 O25 1.279 . S
O24 Cd16 2.223 . S
O24 C23 1.315 . S
O25 Cd15 2.240 . S
O25 C23 1.279 . S
O26 Cd16 2.297 . S
O26 C21 1.247 . S
O27 Cd16 2.439 . S
O27 C21 1.208 . S
O28 Cd29 2.223 . S
O28 C36 1.315 . S
Cd29 O28 2.223 . S
Cd29 O32 2.297 . S
Cd29 O33 2.439 . S
Cd29 O39 2.240 . S
Cd30 O31 2.240 . S
Cd30 O38 2.223 . S
Cd30 O40 2.297 . S
Cd30 O41 2.439 . S
O31 Cd30 2.240 . S
O31 C36 1.279 . S
O32 Cd29 2.297 . S
O32 C34 1.247 . S
O33 Cd29 2.439 . S
O33 C34 1.208 . S
C34 O32 1.247 . S
C34 O33 1.208 . S
C35 O40 1.247 . S
C35 O41 1.208 . S
C36 O28 1.315 . S
C36 O31 1.279 . S
C37 O38 1.315 . S
C37 O39 1.279 . S
O38 Cd30 2.223 . S
O38 C37 1.315 . S
O39 Cd29 2.240 . S
O39 C37 1.279 . S
O40 Cd30 2.297 . S
O40 C35 1.247 . S
O41 Cd30 2.439 . S
O41 C35 1.208 . S
O42 Cd43 2.223 . S
O42 C50 1.315 . S
Cd43 O42 2.223 . S
Cd43 O46 2.297 . S
Cd43 O47 2.439 . S
Cd43 O53 2.240 . S
Cd44 O45 2.240 . S
Cd44 O52 2.223 . S
Cd44 O54 2.297 . S
Cd44 O55 2.439 . S
O45 Cd44 2.240 . S
O45 C50 1.279 . S
O46 Cd43 2.297 . S
O46 C48 1.247 . S
O47 Cd43 2.439 . S
O47 C48 1.208 . S
C48 O46 1.247 . S
C48 O47 1.208 . S
C49 O54 1.247 . S
C49 O55 1.208 . S
C50 O42 1.315 . S
C50 O45 1.279 . S
C51 O52 1.315 . S
C51 O53 1.279 . S
O52 Cd44 2.223 . S
O52 C51 1.315 . S
O53 Cd43 2.240 . S
O53 C51 1.279 . S
O54 Cd44 2.297 . S
O54 C49 1.247 . S
O55 Cd44 2.439 . S
O55 C49 1.208 . S
O56 Cd57 2.223 . S
O56 C64 1.315 . S
Cd57 O56 2.223 . S
Cd57 O60 2.297 . S
Cd57 O61 2.439 . S
Cd57 O67 2.240 . S
Cd58 O59 2.240 . S
Cd58 O66 2.223 . S
Cd58 O68 2.297 . S
Cd58 O69 2.439 . S
O59 Cd58 2.240 . S
O59 C64 1.279 . S
O60 Cd57 2.297 . S
O60 C62 1.247 . S
O61 Cd57 2.439 . S
O61 C62 1.208 . S
C62 O60 1.247 . S
C62 O61 1.208 . S
C63 O68 1.247 . S
C63 O69 1.208 . S
C64 O56 1.315 . S
C64 O59 1.279 . S
C65 O66 1.315 . S
C65 O67 1.279 . S
O66 Cd58 2.223 . S
O66 C65 1.315 . S
O67 Cd57 2.240 . S
O67 C65 1.279 . S
O68 Cd58 2.297 . S
O68 C63 1.247 . S
O69 Cd58 2.439 . S
O69 C63 1.208 . S
O70 Cd71 2.223 . S
O70 C78 1.315 . S
Cd71 O70 2.223 . S
Cd71 O74 2.297 . S
Cd71 O75 2.439 . S
Cd71 O81 2.240 . S
Cd72 O73 2.240 . S
Cd72 O80 2.223 . S
Cd72 O82 2.297 . S
Cd72 O83 2.439 . S
O73 Cd72 2.240 . S
O73 C78 1.279 . S
O74 Cd71 2.297 . S
O74 C76 1.247 . S
O75 Cd71 2.439 . S
O75 C76 1.208 . S
C76 O74 1.247 . S
C76 O75 1.208 . S
C77 O82 1.247 . S
C77 O83 1.208 . S
C78 O70 1.315 . S
C78 O73 1.279 . S
C79 O80 1.315 . S
C79 O81 1.279 . S
O80 Cd72 2.223 . S
O80 C79 1.315 . S
O81 Cd71 2.240 . S
O81 C79 1.279 . S
O82 Cd72 2.297 . S
O82 C77 1.247 . S
O83 Cd72 2.439 . S
O83 C77 1.208 . S
O84 Cd85 2.223 . S
O84 C92 1.315 . S
Cd85 O84 2.223 . S
Cd85 O88 2.297 . S
Cd85 O89 2.439 . S
Cd85 O95 2.240 . S
Cd86 O87 2.240 . S
Cd86 O94 2.223 . S
Cd86 O96 2.297 . S
Cd86 O97 2.439 . S
O87 Cd86 2.240 . S
O87 C92 1.279 . S
O88 Cd85 2.297 . S
O88 C90 1.247 . S
O89 Cd85 2.439 . S
O89 C90 1.208 . S
C90 O88 1.247 . S
C90 O89 1.208 . S
C91 O96 1.247 . S
C91 O97 1.208 . S
C92 O84 1.315 . S
C92 O87 1.279 . S
C93 O94 1.315 . S
C93 O95 1.279 . S
O94 Cd86 2.223 . S
O94 C93 1.315 . S
O95 Cd85 2.240 . S
O95 C93 1.279 . S
O96 Cd86 2.297 . S
O96 C91 1.247 . S
O97 Cd86 2.439 . S
O97 C91 1.208 . S
O98 Cd99 2.223 . S
O98 C106 1.315 . S
Cd99 O98 2.223 . S
Cd99 O102 2.297 . S
Cd99 O103 2.439 . S
Cd99 O109 2.240 . S
Cd100 O101 2.240 . S
Cd100 O108 2.223 . S
Cd100 O110 2.297 . S
Cd100 O111 2.439 . S
O101 Cd100 2.240 . S
O101 C106 1.279 . S
O102 Cd99 2.297 . S
O102 C104 1.247 . S
O103 Cd99 2.439 . S
O103 C104 1.208 . S
C104 O102 1.247 . S
C104 O103 1.208 . S
C105 O110 1.247 . S
C105 O111 1.208 . S
C106 O98 1.315 . S
C106 O101 1.279 . S
C107 O108 1.315 . S
C107 O109 1.279 . S
O108 Cd100 2.223 . S
O108 C107 1.315 . S
O109 Cd99 2.240 . S
O109 C107 1.279 . S
O110 Cd100 2.297 . S
O110 C105 1.247 . S
O111 Cd100 2.439 . S
O111 C105 1.208 . S
O112 Cd113 2.223 . S
O112 C120 1.315 . S
Cd113 O112 2.223 . S
Cd113 O116 2.297 . S
Cd113 O117 2.439 . S
Cd113 O123 2.240 . S
Cd114 O115 2.240 . S
Cd114 O122 2.223 . S
Cd114 O124 2.297 . S
Cd114 O125 2.439 . S
O115 Cd114 2.240 . S
O115 C120 1.279 . S
O116 Cd113 2.297 . S
O116 C118 1.247 . S
O117 Cd113 2.439 . S
O117 C118 1.208 . S
C118 O116 1.247 . S
C118 O117 1.208 . S
C119 O124 1.247 . S
C119 O125 1.208 . S
C120 O112 1.315 . S
C120 O115 1.279 . S
C121 O122 1.315 . S
C121 O123 1.279 . S
O122 Cd114 2.223 . S
O122 C121 1.315 . S
O123 Cd113 2.240 . S
O123 C121 1.279 . S
O124 Cd114 2.297 . S
O124 C119 1.247 . S
O125 Cd114 2.439 . S
O125 C119 1.208 . S
O126 Cd127 2.223 . S
O126 C134 1.315 . S
Cd127 O126 2.223 . S
Cd127 O130 2.297 . S
Cd127 O131 2.439 . S
Cd127 O137 2.240 . S
Cd128 O129 2.240 . S
Cd128 O136 2.223 . S
Cd128 O138 2.297 . S
Cd128 O139 2.439 . S
O129 Cd128 2.240 . S
O129 C134 1.279 . S
O130 Cd127 2.297 . S
O130 C132 1.247 . S
O131 Cd127 2.439 . S
O131 C132 1.208 . S
C132 O130 1.247 . S
C132 O131 1.208 . S
C133 O138 1.247 . S
C133 O139 1.208 . S
C134 O126 1.315 . S
C134 O129 1.279 . S
C135 O136 1.315 . S
C135 O137 1.279 . S
O136 Cd128 2.223 . S
O136 C135 1.315 . S
O137 Cd127 2.240 . S
O137 C135 1.279 . S
O138 Cd128 2.297 . S
O138 C133 1.247 . S
O139 Cd128 2.439 . S
O139 C133 1.208 . S
O140 Cd141 2.223 . S
O140 C148 1.315 . S
Cd141 O140 2.223 . S
Cd141 O144 2.297 . S
Cd141 O145 2.439 . S
Cd141 O151 2.240 . S
Cd142 O143 2.240 . S
Cd142 O150 2.223 . S
Cd142 O152 2.297 . S
Cd142 O153 2.439 . S
O143 Cd142 2.240 . S
O143 C148 1.279 . S
O144 Cd141 2.297 . S
O144 C146 1.247 . S
O145 Cd141 2.439 . S
O145 C146 1.208 . S
C146 O144 1.247 . S
C146 O145 1.208 . S
C147 O152 1.247 . S
C147 O153 1.208 . S
C148 O140 1.315 . S
C148 O143 1.279 . S
C149 O150 1.315 . S
C149 O151 1.279 . S
O150 Cd142 2.223 . S
O150 C149 1.315 . S
O151 Cd141 2.240 . S
O151 C149 1.279 . S
O152 Cd142 2.297 . S
O152 C147 1.247 . S
O153 Cd142 2.439 . S
O153 C147 1.208 . S
O154 Cd155 2.223 . S
O154 C162 1.315 . S
Cd155 O154 2.223 . S
Cd155 O158 2.297 . S
Cd155 O159 2.439 . S
Cd155 O165 2.240 . S
Cd156 O157 2.240 . S
Cd156 O164 2.223 . S
Cd156 O166 2.297 . S
Cd156 O167 2.439 . S
O157 Cd156 2.240 . S
O157 C162 1.279 . S
O158 Cd155 2.297 . S
O158 C160 1.247 . S
O159 Cd155 2.439 . S
O159 C160 1.208 . S
C160 O158 1.247 . S
C160 O159 1.208 . S
C161 O166 1.247 . S
C161 O167 1.208 . S
C162 O154 1.315 . S
C162 O157 1.279 . S
C163 O164 1.315 . S
C163 O165 1.279 . S
O164 Cd156 2.223 . S
O164 C163 1.315 . S
O165 Cd155 2.240 . S
O165 C163 1.279 . S
O166 Cd156 2.297 . S
O166 C161 1.247 . S
O167 Cd156 2.439 . S
O167 C161 1.208 . S
O168 Cd169 2.223 . S
O168 C176 1.315 . S
Cd169 O168 2.223 . S
Cd169 O172 2.297 . S
Cd169 O173 2.439 . S
Cd169 O179 2.240 . S
Cd170 O171 2.240 . S
Cd170 O178 2.223 . S
Cd170 O180 2.297 . S
Cd170 O181 2.439 . S
O171 Cd170 2.240 . S
O171 C176 1.279 . S
O172 Cd169 2.297 . S
O172 C174 1.247 . S
O173 Cd169 2.439 . S
O173 C174 1.208 . S
C174 O172 1.247 . S
C174 O173 1.208 . S
C175 O180 1.247 . S
C175 O181 1.208 . S
C176 O168 1.315 . S
C176 O171 1.279 . S
C177 O178 1.315 . S
C177 O179 1.279 . S
O178 Cd170 2.223 . S
O178 C177 1.315 . S
O179 Cd169 2.240 . S
O179 C177 1.279 . S
O180 Cd170 2.297 . S
O180 C175 1.247 . S
O181 Cd170 2.439 . S
O181 C175 1.208 . S
O182 Cd183 2.223 . S
O182 C190 1.315 . S
Cd183 O182 2.223 . S
Cd183 O186 2.297 . S
Cd183 O187 2.439 . S
Cd183 O193 2.240 . S
Cd184 O185 2.240 . S
Cd184 O192 2.223 . S
Cd184 O194 2.297 . S
Cd184 O195 2.439 . S
O185 Cd184 2.240 . S
O185 C190 1.279 . S
O186 Cd183 2.297 . S
O186 C188 1.247 . S
O187 Cd183 2.439 . S
O187 C188 1.208 . S
C188 O186 1.247 . S
C188 O187 1.208 . S
C189 O194 1.247 . S
C189 O195 1.208 . S
C190 O182 1.315 . S
C190 O185 1.279 . S
C191 O192 1.315 . S
C191 O193 1.279 . S
O192 Cd184 2.223 . S
O192 C191 1.315 . S
O193 Cd183 2.240 . S
O193 C191 1.279 . S
O194 Cd184 2.297 . S
O194 C189 1.247 . S
O195 Cd184 2.439 . S
O195 C189 1.208 . S
O196 Cd197 2.223 . S
O196 C204 1.315 . S
Cd197 O196 2.223 . S
Cd197 O200 2.297 . S
Cd197 O201 2.439 . S
Cd197 O207 2.240 . S
Cd198 O199 2.240 . S
Cd198 O206 2.223 . S
Cd198 O208 2.297 . S
Cd198 O209 2.439 . S
O199 Cd198 2.240 . S
O199 C204 1.279 . S
O200 Cd197 2.297 . S
O200 C202 1.247 . S
O201 Cd197 2.439 . S
O201 C202 1.208 . S
C202 O200 1.247 . S
C202 O201 1.208 . S
C203 O208 1.247 . S
C203 O209 1.208 . S
C204 O196 1.315 . S
C204 O199 1.279 . S
C205 O206 1.315 . S
C205 O207 1.279 . S
O206 Cd198 2.223 . S
O206 C205 1.315 . S
O207 Cd197 2.240 . S
O207 C205 1.279 . S
O208 Cd198 2.297 . S
O208 C203 1.247 . S
O209 Cd198 2.439 . S
O209 C203 1.208 . S
O210 Cd211 2.223 . S
O210 C218 1.315 . S
Cd211 O210 2.223 . S
Cd211 O214 2.297 . S
Cd211 O215 2.439 . S
Cd211 O221 2.240 . S
Cd212 O213 2.240 . S
Cd212 O220 2.223 . S
Cd212 O222 2.297 . S
Cd212 O223 2.439 . S
O213 Cd212 2.240 . S
O213 C218 1.279 . S
O214 Cd211 2.297 . S
O214 C216 1.247 . S
O215 Cd211 2.439 . S
O215 C216 1.208 . S
C216 O214 1.247 . S
C216 O215 1.208 . S
C217 O222 1.247 . S
C217 O223 1.208 . S
C218 O210 1.315 . S
C218 O213 1.279 . S
C219 O220 1.315 . S
C219 O221 1.279 . S
O220 Cd212 2.223 . S
O220 C219 1.315 . S
O221 Cd211 2.240 . S
O221 C219 1.279 . S
O222 Cd212 2.297 . S
O222 C217 1.247 . S
O223 Cd212 2.439 . S
O223 C217 1.208 . S
C224 C225 1.391 . S
C224 C226 1.394 . S
C224 H240 0.931 . S
C225 C224 1.391 . S
C225 C229 1.376 . S
C226 C224 1.394 . S
C226 C227 1.369 . S
C226 C230 1.531 . S
C227 C226 1.369 . S
C227 C228 1.410 . S
C227 C235 1.503 . S
C228 C227 1.410 . S
C228 C229 1.392 . S
C228 C231 1.511 . S
C229 C225 1.376 . S
C229 C228 1.392 . S
C229 H241 0.929 . S
C230 C226 1.531 . S
C230 H242 0.960 . S
C230 H243 0.962 . S
C230 H244 0.960 . S
C231 C228 1.511 . S
C231 H245 0.961 . S
C231 H246 0.961 . S
C231 H247 0.961 . S
C232 C233 1.370 . S
C232 C234 1.363 . S
C232 H248 0.931 . S
C233 C232 1.370 . S
C233 C237 1.408 . S
C234 C232 1.363 . S
C234 C235 1.370 . S
C234 C238 1.524 . S
C235 C227 1.503 . S
C235 C234 1.370 . S
C235 C236 1.403 . S
C236 C235 1.403 . S
C236 C237 1.404 . S
C236 C239 1.539 . S
C237 C233 1.408 . S
C237 C236 1.404 . S
C237 H249 0.930 . S
C238 C234 1.524 . S
C238 H250 0.956 . S
C238 H251 0.961 . S
C238 H252 0.961 . S
C239 C236 1.539 . S
C239 H253 0.958 . S
C239 H254 0.961 . S
C239 H255 0.960 . S
H240 C224 0.931 . S
H241 C229 0.929 . S
H242 C230 0.960 . S
H243 C230 0.962 . S
H244 C230 0.960 . S
H245 C231 0.961 . S
H246 C231 0.961 . S
H247 C231 0.961 . S
H248 C232 0.931 . S
H249 C237 0.930 . S
H250 C238 0.956 . S
H251 C238 0.961 . S
H252 C238 0.961 . S
H253 C239 0.958 . S
H254 C239 0.961 . S
H255 C239 0.960 . S
C256 C257 1.391 . S
C256 C258 1.394 . S
C256 H272 0.931 . S
C257 C256 1.391 . S
C257 C261 1.376 . S
C258 C256 1.394 . S
C258 C259 1.369 . S
C258 C262 1.531 . S
C259 C258 1.369 . S
C259 C260 1.410 . S
C259 C267 1.503 . S
C260 C259 1.410 . S
C260 C261 1.392 . S
C260 C263 1.511 . S
C261 C257 1.376 . S
C261 C260 1.392 . S
C261 H273 0.929 . S
C262 C258 1.531 . S
C262 H274 0.960 . S
C262 H275 0.962 . S
C262 H276 0.960 . S
C263 C260 1.511 . S
C263 H277 0.961 . S
C263 H278 0.961 . S
C263 H279 0.961 . S
C264 C265 1.370 . S
C264 C266 1.363 . S
C264 H280 0.931 . S
C265 C264 1.370 . S
C265 C269 1.408 . S
C266 C264 1.363 . S
C266 C267 1.370 . S
C266 C270 1.524 . S
C267 C259 1.503 . S
C267 C266 1.370 . S
C267 C268 1.403 . S
C268 C267 1.403 . S
C268 C269 1.404 . S
C268 C271 1.539 . S
C269 C265 1.408 . S
C269 C268 1.404 . S
C269 H281 0.930 . S
C270 C266 1.524 . S
C270 H282 0.956 . S
C270 H283 0.961 . S
C270 H284 0.961 . S
C271 C268 1.539 . S
C271 H285 0.958 . S
C271 H286 0.961 . S
C271 H287 0.960 . S
H272 C256 0.931 . S
H273 C261 0.929 . S
H274 C262 0.960 . S
H275 C262 0.962 . S
H276 C262 0.960 . S
H277 C263 0.961 . S
H278 C263 0.961 . S
H279 C263 0.961 . S
H280 C264 0.931 . S
H281 C269 0.930 . S
H282 C270 0.956 . S
H283 C270 0.961 . S
H284 C270 0.961 . S
H285 C271 0.958 . S
H286 C271 0.961 . S
H287 C271 0.960 . S
C288 C289 1.391 . S
C288 C290 1.394 . S
C288 H304 0.931 . S
C289 C288 1.391 . S
C289 C293 1.376 . S
C290 C288 1.394 . S
C290 C291 1.369 . S
C290 C294 1.531 . S
C291 C290 1.369 . S
C291 C292 1.410 . S
C291 C299 1.503 . S
C292 C291 1.410 . S
C292 C293 1.392 . S
C292 C295 1.511 . S
C293 C289 1.376 . S
C293 C292 1.392 . S
C293 H305 0.929 . S
C294 C290 1.531 . S
C294 H306 0.960 . S
C294 H307 0.962 . S
C294 H308 0.960 . S
C295 C292 1.511 . S
C295 H309 0.961 . S
C295 H310 0.961 . S
C295 H311 0.961 . S
C296 C297 1.370 . S
C296 C298 1.363 . S
C296 H312 0.931 . S
C297 C296 1.370 . S
C297 C301 1.408 . S
C298 C296 1.363 . S
C298 C299 1.370 . S
C298 C302 1.524 . S
C299 C291 1.503 . S
C299 C298 1.370 . S
C299 C300 1.403 . S
C300 C299 1.403 . S
C300 C301 1.404 . S
C300 C303 1.539 . S
C301 C297 1.408 . S
C301 C300 1.404 . S
C301 H313 0.930 . S
C302 C298 1.524 . S
C302 H314 0.956 . S
C302 H315 0.961 . S
C302 H316 0.961 . S
C303 C300 1.539 . S
C303 H317 0.958 . S
C303 H318 0.961 . S
C303 H319 0.960 . S
H304 C288 0.931 . S
H305 C293 0.929 . S
H306 C294 0.960 . S
H307 C294 0.962 . S
H308 C294 0.960 . S
H309 C295 0.961 . S
H310 C295 0.961 . S
H311 C295 0.961 . S
H312 C296 0.931 . S
H313 C301 0.930 . S
H314 C302 0.956 . S
H315 C302 0.961 . S
H316 C302 0.961 . S
H317 C303 0.958 . S
H318 C303 0.961 . S
H319 C303 0.960 . S
C320 C321 1.391 . S
C320 C322 1.394 . S
C320 H336 0.931 . S
C321 C320 1.391 . S
C321 C325 1.376 . S
C322 C320 1.394 . S
C322 C323 1.369 . S
C322 C326 1.531 . S
C323 C322 1.369 . S
C323 C324 1.410 . S
C323 C331 1.503 . S
C324 C323 1.410 . S
C324 C325 1.392 . S
C324 C327 1.511 . S
C325 C321 1.376 . S
C325 C324 1.392 . S
C325 H337 0.929 . S
C326 C322 1.531 . S
C326 H338 0.960 . S
C326 H339 0.962 . S
C326 H340 0.960 . S
C327 C324 1.511 . S
C327 H341 0.961 . S
C327 H342 0.961 . S
C327 H343 0.961 . S
C328 C329 1.370 . S
C328 C330 1.363 . S
C328 H344 0.931 . S
C329 C328 1.370 . S
C329 C333 1.408 . S
C330 C328 1.363 . S
C330 C331 1.370 . S
C330 C334 1.524 . S
C331 C323 1.503 . S
C331 C330 1.370 . S
C331 C332 1.403 . S
C332 C331 1.403 . S
C332 C333 1.404 . S
C332 C335 1.539 . S
C333 C329 1.408 . S
C333 C332 1.404 . S
C333 H345 0.930 . S
C334 C330 1.524 . S
C334 H346 0.956 . S
C334 H347 0.961 . S
C334 H348 0.961 . S
C335 C332 1.539 . S
C335 H349 0.958 . S
C335 H350 0.961 . S
C335 H351 0.960 . S
H336 C320 0.931 . S
H337 C325 0.929 . S
H338 C326 0.960 . S
H339 C326 0.962 . S
H340 C326 0.960 . S
H341 C327 0.961 . S
H342 C327 0.961 . S
H343 C327 0.961 . S
H344 C328 0.931 . S
H345 C333 0.930 . S
H346 C334 0.956 . S
H347 C334 0.961 . S
H348 C334 0.961 . S
H349 C335 0.958 . S
H350 C335 0.961 . S
H351 C335 0.960 . S
C352 C353 1.391 . S
C352 C354 1.394 . S
C352 H368 0.931 . S
C353 C352 1.391 . S
C353 C357 1.376 . S
C354 C352 1.394 . S
C354 C355 1.369 . S
C354 C358 1.531 . S
C355 C354 1.369 . S
C355 C356 1.410 . S
C355 C363 1.503 . S
C356 C355 1.410 . S
C356 C357 1.392 . S
C356 C359 1.511 . S
C357 C353 1.376 . S
C357 C356 1.392 . S
C357 H369 0.929 . S
C358 C354 1.531 . S
C358 H370 0.960 . S
C358 H371 0.962 . S
C358 H372 0.960 . S
C359 C356 1.511 . S
C359 H373 0.961 . S
C359 H374 0.961 . S
C359 H375 0.961 . S
C360 C361 1.370 . S
C360 C362 1.363 . S
C360 H376 0.931 . S
C361 C360 1.370 . S
C361 C365 1.408 . S
C362 C360 1.363 . S
C362 C363 1.370 . S
C362 C366 1.524 . S
C363 C355 1.503 . S
C363 C362 1.370 . S
C363 C364 1.403 . S
C364 C363 1.403 . S
C364 C365 1.404 . S
C364 C367 1.539 . S
C365 C361 1.408 . S
C365 C364 1.404 . S
C365 H377 0.930 . S
C366 C362 1.524 . S
C366 H378 0.956 . S
C366 H379 0.961 . S
C366 H380 0.961 . S
C367 C364 1.539 . S
C367 H381 0.958 . S
C367 H382 0.961 . S
C367 H383 0.960 . S
H368 C352 0.931 . S
H369 C357 0.929 . S
H370 C358 0.960 . S
H371 C358 0.962 . S
H372 C358 0.960 . S
H373 C359 0.961 . S
H374 C359 0.961 . S
H375 C359 0.961 . S
H376 C360 0.931 . S
H377 C365 0.930 . S
H378 C366 0.956 . S
H379 C366 0.961 . S
H380 C366 0.961 . S
H381 C367 0.958 . S
H382 C367 0.961 . S
H383 C367 0.960 . S
C384 C385 1.391 . S
C384 C386 1.394 . S
C384 H400 0.931 . S
C385 C384 1.391 . S
C385 C389 1.376 . S
C386 C384 1.394 . S
C386 C387 1.369 . S
C386 C390 1.531 . S
C387 C386 1.369 . S
C387 C388 1.410 . S
C387 C395 1.503 . S
C388 C387 1.410 . S
C388 C389 1.392 . S
C388 C391 1.511 . S
C389 C385 1.376 . S
C389 C388 1.392 . S
C389 H401 0.929 . S
C390 C386 1.531 . S
C390 H402 0.960 . S
C390 H403 0.962 . S
C390 H404 0.960 . S
C391 C388 1.511 . S
C391 H405 0.961 . S
C391 H406 0.961 . S
C391 H407 0.961 . S
C392 C393 1.370 . S
C392 C394 1.363 . S
C392 H408 0.931 . S
C393 C392 1.370 . S
C393 C397 1.408 . S
C394 C392 1.363 . S
C394 C395 1.370 . S
C394 C398 1.524 . S
C395 C387 1.503 . S
C395 C394 1.370 . S
C395 C396 1.403 . S
C396 C395 1.403 . S
C396 C397 1.404 . S
C396 C399 1.539 . S
C397 C393 1.408 . S
C397 C396 1.404 . S
C397 H409 0.930 . S
C398 C394 1.524 . S
C398 H410 0.956 . S
C398 H411 0.961 . S
C398 H412 0.961 . S
C399 C396 1.539 . S
C399 H413 0.958 . S
C399 H414 0.961 . S
C399 H415 0.960 . S
H400 C384 0.931 . S
H401 C389 0.929 . S
H402 C390 0.960 . S
H403 C390 0.962 . S
H404 C390 0.960 . S
H405 C391 0.961 . S
H406 C391 0.961 . S
H407 C391 0.961 . S
H408 C392 0.931 . S
H409 C397 0.930 . S
H410 C398 0.956 . S
H411 C398 0.961 . S
H412 C398 0.961 . S
H413 C399 0.958 . S
H414 C399 0.961 . S
H415 C399 0.960 . S
C416 C417 1.391 . S
C416 C418 1.394 . S
C416 H432 0.931 . S
C417 C416 1.391 . S
C417 C421 1.376 . S
C418 C416 1.394 . S
C418 C419 1.369 . S
C418 C422 1.531 . S
C419 C418 1.369 . S
C419 C420 1.410 . S
C419 C427 1.503 . S
C420 C419 1.410 . S
C420 C421 1.392 . S
C420 C423 1.511 . S
C421 C417 1.376 . S
C421 C420 1.392 . S
C421 H433 0.929 . S
C422 C418 1.531 . S
C422 H434 0.960 . S
C422 H435 0.962 . S
C422 H436 0.960 . S
C423 C420 1.511 . S
C423 H437 0.961 . S
C423 H438 0.961 . S
C423 H439 0.961 . S
C424 C425 1.370 . S
C424 C426 1.363 . S
C424 H440 0.931 . S
C425 C424 1.370 . S
C425 C429 1.408 . S
C426 C424 1.363 . S
C426 C427 1.370 . S
C426 C430 1.524 . S
C427 C419 1.503 . S
C427 C426 1.370 . S
C427 C428 1.403 . S
C428 C427 1.403 . S
C428 C429 1.404 . S
C428 C431 1.539 . S
C429 C425 1.408 . S
C429 C428 1.404 . S
C429 H441 0.930 . S
C430 C426 1.524 . S
C430 H442 0.956 . S
C430 H443 0.961 . S
C430 H444 0.961 . S
C431 C428 1.539 . S
C431 H445 0.958 . S
C431 H446 0.961 . S
C431 H447 0.960 . S
H432 C416 0.931 . S
H433 C421 0.929 . S
H434 C422 0.960 . S
H435 C422 0.962 . S
H436 C422 0.960 . S
H437 C423 0.961 . S
H438 C423 0.961 . S
H439 C423 0.961 . S
H440 C424 0.931 . S
H441 C429 0.930 . S
H442 C430 0.956 . S
H443 C430 0.961 . S
H444 C430 0.961 . S
H445 C431 0.958 . S
H446 C431 0.961 . S
H447 C431 0.960 . S
C448 C449 1.391 . S
C448 C450 1.394 . S
C448 H464 0.931 . S
C449 C448 1.391 . S
C449 C453 1.376 . S
C450 C448 1.394 . S
C450 C451 1.369 . S
C450 C454 1.531 . S
C451 C450 1.369 . S
C451 C452 1.410 . S
C451 C459 1.503 . S
C452 C451 1.410 . S
C452 C453 1.392 . S
C452 C455 1.511 . S
C453 C449 1.376 . S
C453 C452 1.392 . S
C453 H465 0.929 . S
C454 C450 1.531 . S
C454 H466 0.960 . S
C454 H467 0.962 . S
C454 H468 0.960 . S
C455 C452 1.511 . S
C455 H469 0.961 . S
C455 H470 0.961 . S
C455 H471 0.961 . S
C456 C457 1.370 . S
C456 C458 1.363 . S
C456 H472 0.931 . S
C457 C456 1.370 . S
C457 C461 1.408 . S
C458 C456 1.363 . S
C458 C459 1.370 . S
C458 C462 1.524 . S
C459 C451 1.503 . S
C459 C458 1.370 . S
C459 C460 1.403 . S
C460 C459 1.403 . S
C460 C461 1.404 . S
C460 C463 1.539 . S
C461 C457 1.408 . S
C461 C460 1.404 . S
C461 H473 0.930 . S
C462 C458 1.524 . S
C462 H474 0.956 . S
C462 H475 0.961 . S
C462 H476 0.961 . S
C463 C460 1.539 . S
C463 H477 0.958 . S
C463 H478 0.961 . S
C463 H479 0.960 . S
H464 C448 0.931 . S
H465 C453 0.929 . S
H466 C454 0.960 . S
H467 C454 0.962 . S
H468 C454 0.960 . S
H469 C455 0.961 . S
H470 C455 0.961 . S
H471 C455 0.961 . S
H472 C456 0.931 . S
H473 C461 0.930 . S
H474 C462 0.956 . S
H475 C462 0.961 . S
H476 C462 0.961 . S
H477 C463 0.958 . S
H478 C463 0.961 . S
H479 C463 0.960 . S
C480 C481 1.391 . S
C480 C482 1.394 . S
C480 H496 0.931 . S
C481 C480 1.391 . S
C481 C485 1.376 . S
C482 C480 1.394 . S
C482 C483 1.369 . S
C482 C486 1.531 . S
C483 C482 1.369 . S
C483 C484 1.410 . S
C483 C491 1.503 . S
C484 C483 1.410 . S
C484 C485 1.392 . S
C484 C487 1.511 . S
C485 C481 1.376 . S
C485 C484 1.392 . S
C485 H497 0.929 . S
C486 C482 1.531 . S
C486 H498 0.960 . S
C486 H499 0.962 . S
C486 H500 0.960 . S
C487 C484 1.511 . S
C487 H501 0.961 . S
C487 H502 0.961 . S
C487 H503 0.961 . S
C488 C489 1.370 . S
C488 C490 1.363 . S
C488 H504 0.931 . S
C489 C488 1.370 . S
C489 C493 1.408 . S
C490 C488 1.363 . S
C490 C491 1.370 . S
C490 C494 1.524 . S
C491 C483 1.503 . S
C491 C490 1.370 . S
C491 C492 1.403 . S
C492 C491 1.403 . S
C492 C493 1.404 . S
C492 C495 1.539 . S
C493 C489 1.408 . S
C493 C492 1.404 . S
C493 H505 0.930 . S
C494 C490 1.524 . S
C494 H506 0.956 . S
C494 H507 0.961 . S
C494 H508 0.961 . S
C495 C492 1.539 . S
C495 H509 0.958 . S
C495 H510 0.961 . S
C495 H511 0.960 . S
H496 C480 0.931 . S
H497 C485 0.929 . S
H498 C486 0.960 . S
H499 C486 0.962 . S
H500 C486 0.960 . S
H501 C487 0.961 . S
H502 C487 0.961 . S
H503 C487 0.961 . S
H504 C488 0.931 . S
H505 C493 0.930 . S
H506 C494 0.956 . S
H507 C494 0.961 . S
H508 C494 0.961 . S
H509 C495 0.958 . S
H510 C495 0.961 . S
H511 C495 0.960 . S
C512 C513 1.391 . S
C512 C514 1.394 . S
C512 H528 0.931 . S
C513 C512 1.391 . S
C513 C517 1.376 . S
C514 C512 1.394 . S
C514 C515 1.369 . S
C514 C518 1.531 . S
C515 C514 1.369 . S
C515 C516 1.410 . S
C515 C523 1.503 . S
C516 C515 1.410 . S
C516 C517 1.392 . S
C516 C519 1.511 . S
C517 C513 1.376 . S
C517 C516 1.392 . S
C517 H529 0.929 . S
C518 C514 1.531 . S
C518 H530 0.960 . S
C518 H531 0.962 . S
C518 H532 0.960 . S
C519 C516 1.511 . S
C519 H533 0.961 . S
C519 H534 0.961 . S
C519 H535 0.961 . S
C520 C521 1.370 . S
C520 C522 1.363 . S
C520 H536 0.931 . S
C521 C520 1.370 . S
C521 C525 1.408 . S
C522 C520 1.363 . S
C522 C523 1.370 . S
C522 C526 1.524 . S
C523 C515 1.503 . S
C523 C522 1.370 . S
C523 C524 1.403 . S
C524 C523 1.403 . S
C524 C525 1.404 . S
C524 C527 1.539 . S
C525 C521 1.408 . S
C525 C524 1.404 . S
C525 H537 0.930 . S
C526 C522 1.524 . S
C526 H538 0.956 . S
C526 H539 0.961 . S
C526 H540 0.961 . S
C527 C524 1.539 . S
C527 H541 0.958 . S
C527 H542 0.961 . S
C527 H543 0.960 . S
H528 C512 0.931 . S
H529 C517 0.929 . S
H530 C518 0.960 . S
H531 C518 0.962 . S
H532 C518 0.960 . S
H533 C519 0.961 . S
H534 C519 0.961 . S
H535 C519 0.961 . S
H536 C520 0.931 . S
H537 C525 0.930 . S
H538 C526 0.956 . S
H539 C526 0.961 . S
H540 C526 0.961 . S
H541 C527 0.958 . S
H542 C527 0.961 . S
H543 C527 0.960 . S
C544 C545 1.391 . S
C544 C546 1.394 . S
C544 H560 0.931 . S
C545 C544 1.391 . S
C545 C549 1.376 . S
C546 C544 1.394 . S
C546 C547 1.369 . S
C546 C550 1.531 . S
C547 C546 1.369 . S
C547 C548 1.410 . S
C547 C555 1.503 . S
C548 C547 1.410 . S
C548 C549 1.392 . S
C548 C551 1.511 . S
C549 C545 1.376 . S
C549 C548 1.392 . S
C549 H561 0.929 . S
C550 C546 1.531 . S
C550 H562 0.960 . S
C550 H563 0.962 . S
C550 H564 0.960 . S
C551 C548 1.511 . S
C551 H565 0.961 . S
C551 H566 0.961 . S
C551 H567 0.961 . S
C552 C553 1.370 . S
C552 C554 1.363 . S
C552 H568 0.931 . S
C553 C552 1.370 . S
C553 C557 1.408 . S
C554 C552 1.363 . S
C554 C555 1.370 . S
C554 C558 1.524 . S
C555 C547 1.503 . S
C555 C554 1.370 . S
C555 C556 1.403 . S
C556 C555 1.403 . S
C556 C557 1.404 . S
C556 C559 1.539 . S
C557 C553 1.408 . S
C557 C556 1.404 . S
C557 H569 0.930 . S
C558 C554 1.524 . S
C558 H570 0.956 . S
C558 H571 0.961 . S
C558 H572 0.961 . S
C559 C556 1.539 . S
C559 H573 0.958 . S
C559 H574 0.961 . S
C559 H575 0.960 . S
H560 C544 0.931 . S
H561 C549 0.929 . S
H562 C550 0.960 . S
H563 C550 0.962 . S
H564 C550 0.960 . S
H565 C551 0.961 . S
H566 C551 0.961 . S
H567 C551 0.961 . S
H568 C552 0.931 . S
H569 C557 0.930 . S
H570 C558 0.956 . S
H571 C558 0.961 . S
H572 C558 0.961 . S
H573 C559 0.958 . S
H574 C559 0.961 . S
H575 C559 0.960 . S
C576 C577 1.391 . S
C576 C578 1.394 . S
C576 H592 0.931 . S
C577 C576 1.391 . S
C577 C581 1.376 . S
C578 C576 1.394 . S
C578 C579 1.369 . S
C578 C582 1.531 1_554 S
C579 C578 1.369 . S
C579 C580 1.410 . S
C579 C587 1.503 1_554 S
C580 C579 1.410 . S
C580 C581 1.392 . S
C580 C583 1.511 . S
C581 C577 1.376 . S
C581 C580 1.392 . S
C581 H593 0.929 . S
C582 C578 1.531 1_556 S
C582 H594 0.960 . S
C582 H595 0.962 . S
C582 H596 0.943 1_556 S
C583 C580 1.511 . S
C583 H597 0.961 . S
C583 H598 0.961 . S
C583 H599 0.961 . S
C584 C585 1.370 . S
C584 C586 1.363 . S
C584 H600 0.931 . S
C585 C584 1.370 . S
C585 C589 1.408 . S
C586 C584 1.363 . S
C586 C587 1.370 . S
C586 C590 1.524 . S
C587 C579 1.503 1_556 S
C587 C586 1.370 . S
C587 C588 1.403 . S
C588 C587 1.403 . S
C588 C589 1.404 . S
C588 C591 1.539 . S
C589 C585 1.408 . S
C589 C588 1.404 . S
C589 H601 0.930 . S
C590 C586 1.524 . S
C590 H602 0.956 . S
C590 H603 0.961 1_556 S
C590 H604 0.961 . S
C591 C588 1.539 . S
C591 H605 0.958 . S
C591 H606 0.961 . S
C591 H607 1.005 . S
H592 C576 0.931 . S
H593 C581 0.929 . S
H594 C582 0.960 . S
H595 C582 0.962 . S
H596 C582 0.943 1_554 S
H597 C583 0.961 . S
H598 C583 0.961 . S
H599 C583 0.961 . S
H600 C584 0.931 . S
H601 C589 0.930 . S
H602 C590 0.956 . S
H603 C590 0.961 1_554 S
H604 C590 0.961 . S
H605 C591 0.958 . S
H606 C591 0.961 . S
H607 C591 1.005 . S
C608 C609 1.391 . S
C608 C610 1.394 . S
C608 H624 0.931 . S
C609 C608 1.391 . S
C609 C613 1.376 . S
C610 C608 1.394 . S
C610 C611 1.369 . S
C610 C614 1.474 1_554 S
C611 C610 1.369 . S
C611 C612 1.410 . S
C611 C619 1.503 1_554 S
C612 C611 1.410 . S
C612 C613 1.392 . S
C612 C615 1.511 . S
C613 C609 1.376 . S
C613 C612 1.392 . S
C613 H625 0.929 . S
C614 C610 1.474 1_556 S
C614 H626 1.032 . S
C614 H627 0.974 . S
C614 H628 0.942 1_556 S
C615 C612 1.511 . S
C615 H629 0.961 . S
C615 H630 0.961 . S
C615 H631 0.961 . S
C616 C617 1.370 . S
C616 C618 1.363 . S
C616 H632 0.931 . S
C617 C616 1.370 . S
C617 C621 1.408 . S
C618 C616 1.363 . S
C618 C619 1.370 . S
C618 C622 1.555 . S
C619 C611 1.503 1_556 S
C619 C618 1.370 . S
C619 C620 1.403 . S
C620 C619 1.403 . S
C620 C621 1.404 . S
C620 C623 1.539 . S
C621 C617 1.408 . S
C621 C620 1.404 . S
C621 H633 0.930 . S
C622 C618 1.555 . S
C622 H634 0.945 1_556 S
C622 H635 0.924 1_556 S
C622 H636 0.979 . S
C623 C620 1.539 . S
C623 H637 0.958 . S
C623 H638 0.961 . S
C623 H639 0.960 . S
H624 C608 0.931 . S
H625 C613 0.929 . S
H626 C614 1.032 . S
H627 C614 0.974 . S
H628 C614 0.942 1_554 S
H629 C615 0.961 . S
H630 C615 0.961 . S
H631 C615 0.961 . S
H632 C616 0.931 . S
H633 C621 0.930 . S
H634 C622 0.945 1_554 S
H635 C622 0.924 1_554 S
H636 C622 0.979 . S
H637 C623 0.958 . S
H638 C623 0.961 . S
H639 C623 0.960 . S
C640 C641 1.391 . S
C640 C642 1.394 . S
C640 H656 0.931 . S
C641 C640 1.391 . S
C641 C645 1.376 . S
C642 C640 1.394 . S
C642 C643 1.369 . S
C642 C646 1.531 . S
C643 C642 1.369 . S
C643 C644 1.410 . S
C643 C651 1.503 . S
C644 C643 1.410 . S
C644 C645 1.392 . S
C644 C647 1.511 . S
C645 C641 1.376 . S
C645 C644 1.392 . S
C645 H657 0.929 . S
C646 C642 1.531 . S
C646 H658 0.960 . S
C646 H659 0.962 . S
C646 H660 0.960 . S
C647 C644 1.511 . S
C647 H661 0.961 . S
C647 H662 0.961 . S
C647 H663 0.961 . S
C648 C649 1.370 . S
C648 C650 1.363 . S
C648 H664 0.931 . S
C649 C648 1.370 . S
C649 C653 1.408 . S
C650 C648 1.363 . S
C650 C651 1.370 . S
C650 C654 1.524 . S
C651 C643 1.503 . S
C651 C650 1.370 . S
C651 C652 1.403 . S
C652 C651 1.403 . S
C652 C653 1.404 . S
C652 C655 1.539 . S
C653 C649 1.408 . S
C653 C652 1.404 . S
C653 H665 0.930 . S
C654 C650 1.524 . S
C654 H666 0.956 . S
C654 H667 0.961 . S
C654 H668 0.961 . S
C655 C652 1.539 . S
C655 H669 0.958 . S
C655 H670 0.961 . S
C655 H671 0.960 . S
H656 C640 0.931 . S
H657 C645 0.929 . S
H658 C646 0.960 . S
H659 C646 0.962 . S
H660 C646 0.960 . S
H661 C647 0.961 . S
H662 C647 0.961 . S
H663 C647 0.961 . S
H664 C648 0.931 . S
H665 C653 0.930 . S
H666 C654 0.956 . S
H667 C654 0.961 . S
H668 C654 0.961 . S
H669 C655 0.958 . S
H670 C655 0.961 . S
H671 C655 0.960 . S
C672 C673 1.391 . S
C672 C674 1.394 . S
C672 H688 0.931 . S
C673 C672 1.391 . S
C673 C677 1.376 . S
C674 C672 1.394 . S
C674 C675 1.369 . S
C674 C678 1.531 . S
C675 C674 1.369 . S
C675 C676 1.410 . S
C675 C683 1.503 . S
C676 C675 1.410 . S
C676 C677 1.392 . S
C676 C679 1.511 . S
C677 C673 1.376 . S
C677 C676 1.392 . S
C677 H689 0.929 . S
C678 C674 1.531 . S
C678 H690 0.960 . S
C678 H691 0.962 . S
C678 H692 0.960 . S
C679 C676 1.511 . S
C679 H693 0.961 . S
C679 H694 0.961 . S
C679 H695 0.961 . S
C680 C681 1.370 . S
C680 C682 1.363 . S
C680 H696 0.931 . S
C681 C680 1.370 . S
C681 C685 1.408 . S
C682 C680 1.363 . S
C682 C683 1.370 . S
C682 C686 1.524 . S
C683 C675 1.503 . S
C683 C682 1.370 . S
C683 C684 1.403 . S
C684 C683 1.403 . S
C684 C685 1.404 . S
C684 C687 1.539 . S
C685 C681 1.408 . S
C685 C684 1.404 . S
C685 H697 0.930 . S
C686 C682 1.524 . S
C686 H698 0.956 . S
C686 H699 0.961 . S
C686 H700 0.961 . S
C687 C684 1.539 . S
C687 H701 0.958 . S
C687 H702 0.961 . S
C687 H703 0.960 . S
H688 C672 0.931 . S
H689 C677 0.929 . S
H690 C678 0.960 . S
H691 C678 0.962 . S
H692 C678 0.960 . S
H693 C679 0.961 . S
H694 C679 0.961 . S
H695 C679 0.961 . S
H696 C680 0.931 . S
H697 C685 0.930 . S
H698 C686 0.956 . S
H699 C686 0.961 . S
H700 C686 0.961 . S
H701 C687 0.958 . S
H702 C687 0.961 . S
H703 C687 0.960 . S
C704 C705 1.391 . S
C704 C706 1.394 . S
C704 H720 0.931 . S
C705 C704 1.391 . S
C705 C709 1.376 . S
C706 C704 1.394 . S
C706 C707 1.369 . S
C706 C710 1.531 . S
C707 C706 1.369 . S
C707 C708 1.410 . S
C707 C715 1.503 . S
C708 C707 1.410 . S
C708 C709 1.392 . S
C708 C711 1.511 . S
C709 C705 1.376 . S
C709 C708 1.392 . S
C709 H721 0.929 . S
C710 C706 1.531 . S
C710 H722 0.960 . S
C710 H723 0.962 . S
C710 H724 0.960 . S
C711 C708 1.511 . S
C711 H725 0.961 . S
C711 H726 0.961 . S
C711 H727 0.961 . S
C712 C713 1.370 . S
C712 C714 1.363 . S
C712 H728 0.931 . S
C713 C712 1.370 . S
C713 C717 1.408 . S
C714 C712 1.363 . S
C714 C715 1.370 . S
C714 C718 1.524 . S
C715 C707 1.503 . S
C715 C714 1.370 . S
C715 C716 1.403 . S
C716 C715 1.403 . S
C716 C717 1.404 . S
C716 C719 1.539 . S
C717 C713 1.408 . S
C717 C716 1.404 . S
C717 H729 0.930 . S
C718 C714 1.524 . S
C718 H730 0.956 . S
C718 H731 0.961 . S
C718 H732 0.961 . S
C719 C716 1.539 . S
C719 H733 0.958 . S
C719 H734 0.961 . S
C719 H735 0.960 . S
H720 C704 0.931 . S
H721 C709 0.929 . S
H722 C710 0.960 . S
H723 C710 0.962 . S
H724 C710 0.960 . S
H725 C711 0.961 . S
H726 C711 0.961 . S
H727 C711 0.961 . S
H728 C712 0.931 . S
H729 C717 0.930 . S
H730 C718 0.956 . S
H731 C718 0.961 . S
H732 C718 0.961 . S
H733 C719 0.958 . S
H734 C719 0.961 . S
H735 C719 0.960 . S
C736 C737 1.391 . S
C736 C738 1.394 . S
C736 H752 0.931 . S
C737 C736 1.391 . S
C737 C741 1.376 . S
C738 C736 1.394 . S
C738 C739 1.369 . S
C738 C742 1.531 1_545 S
C739 C738 1.369 . S
C739 C740 1.410 . S
C739 C747 1.503 1_445 S
C740 C739 1.410 . S
C740 C741 1.392 . S
C740 C743 1.511 1_455 S
C741 C737 1.376 . S
C741 C740 1.392 . S
C741 H753 0.929 . S
C742 C738 1.531 1_565 S
C742 H754 0.960 . S
C742 H755 0.962 . S
C742 H756 0.960 . S
C743 C740 1.511 1_655 S
C743 H757 0.961 1_655 S
C743 H758 0.961 . S
C743 H759 0.961 . S
C744 C745 1.370 . S
C744 C746 1.363 . S
C744 H760 0.931 . S
C745 C744 1.370 . S
C745 C749 1.408 . S
C746 C744 1.363 . S
C746 C747 1.370 . S
C746 C750 1.524 1_655 S
C747 C739 1.503 1_665 S
C747 C746 1.370 . S
C747 C748 1.403 1_565 S
C748 C747 1.403 1_545 S
C748 C749 1.404 1_545 S
C748 C751 1.539 . S
C749 C745 1.408 . S
C749 C748 1.404 1_565 S
C749 H761 0.930 . S
C750 C746 1.524 1_455 S
C750 H762 0.956 . S
C750 H763 0.961 . S
C750 H764 0.961 1_455 S
C751 C748 1.539 . S
C751 H765 0.958 . S
C751 H766 0.961 . S
C751 H767 0.960 . S
H752 C736 0.931 . S
H753 C741 0.929 . S
H754 C742 0.960 . S
H755 C742 0.962 . S
H756 C742 0.960 . S
H757 C743 0.961 1_455 S
H758 C743 0.961 . S
H759 C743 0.961 . S
H760 C744 0.931 . S
H761 C749 0.930 . S
H762 C750 0.956 . S
H763 C750 0.961 . S
H764 C750 0.961 1_655 S
H765 C751 0.958 . S
H766 C751 0.961 . S
H767 C751 0.960 . S
C768 C769 1.391 . S
C768 C770 1.394 1_455 S
C768 H784 0.931 1_455 S
C769 C768 1.391 . S
C769 C773 1.376 . S
C770 C768 1.394 1_655 S
C770 C771 1.369 1_655 S
C770 C774 1.531 . S
C771 C770 1.369 1_455 S
C771 C772 1.410 . S
C771 C779 1.503 1_455 S
C772 C771 1.410 . S
C772 C773 1.392 . S
C772 C775 1.511 . S
C773 C769 1.376 . S
C773 C772 1.392 . S
C773 H785 0.929 . S
C774 C770 1.531 . S
C774 H786 0.960 . S
C774 H787 0.962 . S
C774 H788 0.960 . S
C775 C772 1.511 . S
C775 H789 0.961 . S
C775 H790 0.961 . S
C775 H791 0.961 . S
C776 C777 1.370 . S
C776 C778 1.363 . S
C776 H792 0.931 . S
C777 C776 1.370 . S
C777 C781 1.408 . S
C778 C776 1.363 . S
C778 C779 1.370 . S
C778 C782 1.524 . S
C779 C771 1.503 1_655 S
C779 C778 1.370 . S
C779 C780 1.403 . S
C780 C779 1.403 . S
C780 C781 1.404 . S
C780 C783 1.539 1_655 S
C781 C777 1.408 . S
C781 C780 1.404 . S
C781 H793 0.930 . S
C782 C778 1.524 . S
C782 H794 0.956 . S
C782 H795 0.961 . S
C782 H796 0.961 . S
C783 C780 1.539 1_455 S
C783 H797 0.958 . S
C783 H798 0.961 . S
C783 H799 0.960 . S
H784 C768 0.931 1_655 S
H785 C773 0.929 . S
H786 C774 0.960 . S
H787 C774 0.962 . S
H788 C774 0.960 . S
H789 C775 0.961 . S
H790 C775 0.961 . S
H791 C775 0.961 . S
H792 C776 0.931 . S
H793 C781 0.930 . S
H794 C782 0.956 . S
H795 C782 0.961 . S
H796 C782 0.961 . S
H797 C783 0.958 . S
H798 C783 0.961 . S
H799 C783 0.960 . S
C800 C801 1.391 . S
C800 C802 1.394 . S
C800 H816 0.931 . S
C801 C800 1.391 . S
C801 C805 1.376 . S
C802 C800 1.394 . S
C802 C803 1.369 . S
C802 C806 1.531 . S
C803 C802 1.369 . S
C803 C804 1.410 . S
C803 C811 1.503 . S
C804 C803 1.410 . S
C804 C805 1.392 . S
C804 C807 1.511 . S
C805 C801 1.376 . S
C805 C804 1.392 . S
C805 H817 0.929 . S
C806 C802 1.531 . S
C806 H818 0.960 . S
C806 H819 0.962 . S
C806 H820 0.960 . S
C807 C804 1.511 . S
C807 H821 0.961 . S
C807 H822 0.961 . S
C807 H823 0.961 . S
C808 C809 1.370 . S
C808 C810 1.363 . S
C808 H824 0.931 . S
C809 C808 1.370 . S
C809 C813 1.408 . S
C810 C808 1.363 . S
C810 C811 1.370 . S
C810 C814 1.524 . S
C811 C803 1.503 . S
C811 C810 1.370 . S
C811 C812 1.403 . S
C812 C811 1.403 . S
C812 C813 1.404 . S
C812 C815 1.539 . S
C813 C809 1.408 . S
C813 C812 1.404 . S
C813 H825 0.930 . S
C814 C810 1.524 . S
C814 H826 0.956 . S
C814 H827 0.961 . S
C814 H828 0.961 . S
C815 C812 1.539 . S
C815 H829 0.958 . S
C815 H830 0.961 . S
C815 H831 0.960 . S
H816 C800 0.931 . S
H817 C805 0.929 . S
H818 C806 0.960 . S
H819 C806 0.962 . S
H820 C806 0.960 . S
H821 C807 0.961 . S
H822 C807 0.961 . S
H823 C807 0.961 . S
H824 C808 0.931 . S
H825 C813 0.930 . S
H826 C814 0.956 . S
H827 C814 0.961 . S
H828 C814 0.961 . S
H829 C815 0.958 . S
H830 C815 0.961 . S
H831 C815 0.960 . S
C832 C833 1.391 . S
C832 C834 1.394 . S
C832 H848 0.931 . S
C833 C832 1.391 . S
C833 C837 1.376 . S
C834 C832 1.394 . S
C834 C835 1.369 . S
C834 C838 1.531 . S
C835 C834 1.369 . S
C835 C836 1.410 . S
C835 C843 1.503 1_545 S
C836 C835 1.410 . S
C836 C837 1.392 . S
C836 C839 1.511 . S
C837 C833 1.376 . S
C837 C836 1.392 . S
C837 H849 0.929 . S
C838 C834 1.531 . S
C838 H850 0.960 1_545 S
C838 H851 0.962 . S
C838 H852 0.960 . S
C839 C836 1.511 . S
C839 H853 0.961 . S
C839 H854 0.948 1_545 S
C839 H855 0.961 . S
C840 C841 1.370 . S
C840 C842 1.363 . S
C840 H856 0.931 . S
C841 C840 1.370 . S
C841 C845 1.408 . S
C842 C840 1.363 . S
C842 C843 1.370 . S
C842 C846 1.524 1_565 S
C843 C835 1.503 1_565 S
C843 C842 1.370 . S
C843 C844 1.403 . S
C844 C843 1.403 . S
C844 C845 1.404 . S
C844 C847 1.539 . S
C845 C841 1.408 . S
C845 C844 1.404 . S
C845 H857 0.930 . S
C846 C842 1.524 1_545 S
C846 H858 0.956 . S
C846 H859 0.961 . S
C846 H860 0.961 . S
C847 C844 1.539 . S
C847 H861 0.958 . S
C847 H862 0.961 . S
C847 H863 0.960 . S
H848 C832 0.931 . S
H849 C837 0.929 . S
H850 C838 0.960 1_565 S
H851 C838 0.962 . S
H852 C838 0.960 . S
H853 C839 0.961 . S
H854 C839 0.948 1_565 S
H855 C839 0.961 . S
H856 C840 0.931 . S
H857 C845 0.930 . S
H858 C846 0.956 . S
H859 C846 0.961 . S
H860 C846 0.961 . S
H861 C847 0.958 . S
H862 C847 0.961 . S
H863 C847 0.960 . S
C864 C865 1.391 . S
C864 C866 1.394 . S
C864 H880 0.931 . S
C865 C864 1.391 . S
C865 C869 1.376 . S
C866 C864 1.394 . S
C866 C867 1.369 . S
C866 C870 1.531 . S
C867 C866 1.369 . S
C867 C868 1.410 . S
C867 C875 1.503 1_455 S
C868 C867 1.410 . S
C868 C869 1.392 . S
C868 C871 1.511 . S
C869 C865 1.376 . S
C869 C868 1.392 . S
C869 H881 0.929 . S
C870 C866 1.531 . S
C870 H882 0.960 1_455 S
C870 H883 0.962 1_455 S
C870 H884 0.960 . S
C871 C868 1.511 . S
C871 H885 0.961 . S
C871 H886 0.961 . S
C871 H887 0.961 . S
C872 C873 1.370 . S
C872 C874 1.363 . S
C872 H888 0.931 . S
C873 C872 1.370 . S
C873 C877 1.408 . S
C874 C872 1.363 . S
C874 C875 1.370 . S
C874 C878 1.524 . S
C875 C867 1.503 1_655 S
C875 C874 1.370 . S
C875 C876 1.403 . S
C876 C875 1.403 . S
C876 C877 1.404 . S
C876 C879 1.539 1_655 S
C877 C873 1.408 . S
C877 C876 1.404 . S
C877 H889 0.930 . S
C878 C874 1.524 . S
C878 H890 0.956 . S
C878 H891 0.961 . S
C878 H892 0.961 . S
C879 C876 1.539 1_455 S
C879 H893 0.958 . S
C879 H894 0.961 . S
C879 H895 0.960 . S
H880 C864 0.931 . S
H881 C869 0.929 . S
H882 C870 0.960 1_655 S
H883 C870 0.962 1_655 S
H884 C870 0.960 . S
H885 C871 0.961 . S
H886 C871 0.961 . S
H887 C871 0.961 . S
H888 C872 0.931 . S
H889 C877 0.930 . S
H890 C878 0.956 . S
H891 C878 0.961 . S
H892 C878 0.961 . S
H893 C879 0.958 . S
H894 C879 0.961 . S
H895 C879 0.960 . S
C896 C897 1.391 . S
C896 C898 1.394 . S
C896 H912 0.931 . S
C897 C896 1.391 . S
C897 C901 1.376 . S
C898 C896 1.394 . S
C898 C899 1.369 . S
C898 C902 1.531 . S
C899 C898 1.369 . S
C899 C900 1.410 . S
C899 C907 1.503 . S
C900 C899 1.410 . S
C900 C901 1.392 . S
C900 C903 1.511 . S
C901 C897 1.376 . S
C901 C900 1.392 . S
C901 H913 0.929 . S
C902 C898 1.531 . S
C902 H914 0.960 . S
C902 H915 0.962 . S
C902 H916 0.960 . S
C903 C900 1.511 . S
C903 H917 0.961 . S
C903 H918 0.961 . S
C903 H919 0.961 . S
C904 C905 1.370 . S
C904 C906 1.363 . S
C904 H920 0.931 . S
C905 C904 1.370 . S
C905 C909 1.408 . S
C906 C904 1.363 . S
C906 C907 1.370 . S
C906 C910 1.524 . S
C907 C899 1.503 . S
C907 C906 1.370 . S
C907 C908 1.403 . S
C908 C907 1.403 . S
C908 C909 1.404 . S
C908 C911 1.539 . S
C909 C905 1.408 . S
C909 C908 1.404 . S
C909 H921 0.930 . S
C910 C906 1.524 . S
C910 H922 0.956 . S
C910 H923 0.961 . S
C910 H924 0.961 . S
C911 C908 1.539 . S
C911 H925 0.958 . S
C911 H926 0.961 . S
C911 H927 0.960 . S
H912 C896 0.931 . S
H913 C901 0.929 . S
H914 C902 0.960 . S
H915 C902 0.962 . S
H916 C902 0.960 . S
H917 C903 0.961 . S
H918 C903 0.961 . S
H919 C903 0.961 . S
H920 C904 0.931 . S
H921 C909 0.930 . S
H922 C910 0.956 . S
H923 C910 0.961 . S
H924 C910 0.961 . S
H925 C911 0.958 . S
H926 C911 0.961 . S
H927 C911 0.960 . S
C928 C929 1.391 . S
C928 C930 1.403 . S
C928 H944 0.931 . S
C929 C928 1.391 . S
C929 C933 1.376 . S
C930 C928 1.403 . S
C930 C931 1.377 . S
C930 C934 1.514 1_565 S
C931 C930 1.377 . S
C931 C932 1.410 . S
C931 C939 1.503 1_565 S
C932 C931 1.410 . S
C932 C933 1.392 . S
C932 C935 1.511 . S
C933 C929 1.376 . S
C933 C932 1.392 . S
C933 H945 0.929 . S
C934 C930 1.514 1_545 S
C934 H946 0.960 . S
C934 H947 0.962 . S
C934 H948 0.960 . S
C935 C932 1.511 . S
C935 H949 0.961 . S
C935 H950 0.961 . S
C935 H951 0.961 . S
C936 C937 1.370 . S
C936 C938 1.363 . S
C936 H952 0.931 . S
C937 C936 1.370 . S
C937 C941 1.408 . S
C938 C936 1.363 . S
C938 C939 1.370 . S
C938 C942 1.524 . S
C939 C931 1.503 1_545 S
C939 C938 1.370 . S
C939 C940 1.403 1_545 S
C940 C939 1.403 1_565 S
C940 C941 1.404 1_565 S
C940 C943 1.539 . S
C941 C937 1.408 . S
C941 C940 1.404 1_545 S
C941 H953 0.930 . S
C942 C938 1.524 . S
C942 H954 0.956 . S
C942 H955 0.961 . S
C942 H956 0.961 . S
C943 C940 1.539 . S
C943 H957 0.958 . S
C943 H958 0.961 . S
C943 H959 0.960 . S
H944 C928 0.931 . S
H945 C933 0.929 . S
H946 C934 0.960 . S
H947 C934 0.962 . S
H948 C934 0.960 . S
H949 C935 0.961 . S
H950 C935 0.961 . S
H951 C935 0.961 . S
H952 C936 0.931 . S
H953 C941 0.930 . S
H954 C942 0.956 . S
H955 C942 0.961 . S
H956 C942 0.961 . S
H957 C943 0.958 . S
H958 C943 0.961 . S
H959 C943 0.960 . S
C960 C961 1.391 . S
C960 C962 1.394 . S
C960 H976 0.931 . S
C961 C960 1.391 . S
C961 C965 1.376 . S
C962 C960 1.394 . S
C962 C963 1.369 . S
C962 C966 1.531 . S
C963 C962 1.369 . S
C963 C964 1.410 . S
C963 C971 1.503 1_445 S
C964 C963 1.410 . S
C964 C965 1.392 . S
C964 C967 1.511 . S
C965 C961 1.376 . S
C965 C964 1.392 . S
C965 H977 0.929 . S
C966 C962 1.531 . S
C966 H978 0.960 1_545 S
C966 H979 0.962 . S
C966 H980 0.960 . S
C967 C964 1.511 . S
C967 H981 0.961 1_455 S
C967 H982 0.961 1_455 S
C967 H983 0.961 . S
C968 C969 1.370 . S
C968 C970 1.363 . S
C968 H984 0.931 . S
C969 C968 1.370 . S
C969 C973 1.408 . S
C970 C968 1.363 . S
C970 C971 1.370 . S
C970 C974 1.524 1_565 S
C971 C963 1.503 1_665 S
C971 C970 1.370 . S
C971 C972 1.403 1_655 S
C972 C971 1.403 1_455 S
C972 C973 1.404 1_455 S
C972 C975 1.539 . S
C973 C969 1.408 . S
C973 C972 1.404 1_655 S
C973 H985 0.930 1_655 S
C974 C970 1.524 1_545 S
C974 H986 0.956 . S
C974 H987 0.961 . S
C974 H988 0.961 . S
C975 C972 1.539 . S
C975 H989 0.958 . S
C975 H990 0.961 . S
C975 H991 0.960 . S
H976 C960 0.931 . S
H977 C965 0.929 . S
H978 C966 0.960 1_565 S
H979 C966 0.962 . S
H980 C966 0.960 . S
H981 C967 0.961 1_655 S
H982 C967 0.961 1_655 S
H983 C967 0.961 . S
H984 C968 0.931 . S
H985 C973 0.930 1_455 S
H986 C974 0.956 . S
H987 C974 0.961 . S
H988 C974 0.961 . S
H989 C975 0.958 . S
H990 C975 0.961 . S
H991 C975 0.960 . S
C992 C993 1.391 . S
C992 C994 1.394 . S
C992 H1008 0.931 . S
C993 C992 1.391 . S
C993 C997 1.376 . S
C994 C992 1.394 . S
C994 C995 1.369 . S
C994 C998 1.531 . S
C995 C994 1.369 . S
C995 C996 1.410 . S
C995 C1003 1.503 1_565 S
C996 C995 1.410 . S
C996 C997 1.392 . S
C996 C999 1.511 1_565 S
C997 C993 1.376 . S
C997 C996 1.392 . S
C997 H1009 0.929 . S
C998 C994 1.531 . S
C998 H1010 0.960 . S
C998 H1011 0.962 . S
C998 H1012 0.960 . S
C999 C996 1.511 1_545 S
C999 H1013 0.961 . S
C999 H1014 0.961 . S
C999 H1015 0.961 . S
C1000 C1001 1.370 . S
C1000 C1002 1.363 1_545 S
C1000 H1016 0.931 . S
C1001 C1000 1.370 . S
C1001 C1005 1.408 . S
C1002 C1000 1.363 1_565 S
C1002 C1003 1.370 1_565 S
C1002 C1006 1.524 . S
C1003 C995 1.503 1_545 S
C1003 C1002 1.370 1_545 S
C1003 C1004 1.403 . S
C1004 C1003 1.403 . S
C1004 C1005 1.404 . S
C1004 C1007 1.539 . S
C1005 C1001 1.408 . S
C1005 C1004 1.404 . S
C1005 H1017 0.930 . S
C1006 C1002 1.524 . S
C1006 H1018 0.956 . S
C1006 H1019 0.961 . S
C1006 H1020 0.961 . S
C1007 C1004 1.539 . S
C1007 H1021 0.958 . S
C1007 H1022 0.961 . S
C1007 H1023 0.960 . S
H1008 C992 0.931 . S
H1009 C997 0.929 . S
H1010 C998 0.960 . S
H1011 C998 0.962 . S
H1012 C998 0.960 . S
H1013 C999 0.961 . S
H1014 C999 0.961 . S
H1015 C999 0.961 . S
H1016 C1000 0.931 . S
H1017 C1005 0.930 . S
H1018 C1006 0.956 . S
H1019 C1006 0.961 . S
H1020 C1006 0.961 . S
H1021 C1007 0.958 . S
H1022 C1007 0.961 . S
H1023 C1007 0.960 . S
C1024 C1025 1.391 . S
C1024 C1026 1.394 . S
C1024 H1040 0.931 . S
C1025 C1024 1.391 . S
C1025 C1029 1.376 . S
C1026 C1024 1.394 . S
C1026 C1027 1.369 . S
C1026 C1030 1.531 1_565 S
C1027 C1026 1.369 . S
C1027 C1028 1.410 1_655 S
C1027 C1035 1.503 1_665 S
C1028 C1027 1.410 1_455 S
C1028 C1029 1.392 1_455 S
C1028 C1031 1.511 . S
C1029 C1025 1.376 . S
C1029 C1028 1.392 1_655 S
C1029 H1041 0.929 . S
C1030 C1026 1.531 1_545 S
C1030 H1042 0.960 . S
C1030 H1043 0.962 . S
C1030 H1044 0.960 1_545 S
C1031 C1028 1.511 . S
C1031 H1045 0.961 . S
C1031 H1046 0.961 . S
C1031 H1047 0.961 . S
C1032 C1033 1.370 . S
C1032 C1034 1.363 . S
C1032 H1048 0.931 . S
C1033 C1032 1.370 . S
C1033 C1037 1.408 . S
C1034 C1032 1.363 . S
C1034 C1035 1.370 . S
C1034 C1038 1.524 1_455 S
C1035 C1027 1.503 1_445 S
C1035 C1034 1.370 . S
C1035 C1036 1.403 . S
C1036 C1035 1.403 . S
C1036 C1037 1.404 . S
C1036 C1039 1.539 1_545 S
C1037 C1033 1.408 . S
C1037 C1036 1.404 . S
C1037 H1049 0.930 . S
C1038 C1034 1.524 1_655 S
C1038 H1050 0.956 . S
C1038 H1051 0.961 . S
C1038 H1052 0.961 . S
C1039 C1036 1.539 1_565 S
C1039 H1053 0.958 . S
C1039 H1054 0.961 . S
C1039 H1055 0.960 . S
H1040 C1024 0.931 . S
H1041 C1029 0.929 . S
H1042 C1030 0.960 . S
H1043 C1030 0.962 . S
H1044 C1030 0.960 1_565 S
H1045 C1031 0.961 . S
H1046 C1031 0.961 . S
H1047 C1031 0.961 . S
H1048 C1032 0.931 . S
H1049 C1037 0.930 . S
H1050 C1038 0.956 . S
H1051 C1038 0.961 . S
H1052 C1038 0.961 . S
H1053 C1039 0.958 . S
H1054 C1039 0.961 . S
H1055 C1039 0.960 . S
C1056 C1057 1.391 . S
C1056 C1058 1.394 . S
C1056 H1072 0.931 . S
C1057 C1056 1.391 . S
C1057 C1061 1.376 . S
C1058 C1056 1.394 . S
C1058 C1059 1.369 . S
C1058 C1062 1.531 . S
C1059 C1058 1.369 . S
C1059 C1060 1.410 . S
C1059 C1067 1.503 1_455 S
C1060 C1059 1.410 . S
C1060 C1061 1.392 . S
C1060 C1063 1.511 1_455 S
C1061 C1057 1.376 . S
C1061 C1060 1.392 . S
C1061 H1073 0.929 . S
C1062 C1058 1.531 . S
C1062 H1074 0.960 . S
C1062 H1075 0.962 . S
C1062 H1076 0.960 . S
C1063 C1060 1.511 1_655 S
C1063 H1077 0.961 . S
C1063 H1078 0.961 . S
C1063 H1079 0.961 . S
C1064 C1065 1.370 . S
C1064 C1066 1.363 . S
C1064 H1080 0.931 . S
C1065 C1064 1.370 . S
C1065 C1069 1.408 . S
C1066 C1064 1.363 . S
C1066 C1067 1.370 . S
C1066 C1070 1.524 . S
C1067 C1059 1.503 1_655 S
C1067 C1066 1.370 . S
C1067 C1068 1.403 . S
C1068 C1067 1.403 . S
C1068 C1069 1.404 . S
C1068 C1071 1.539 . S
C1069 C1065 1.408 . S
C1069 C1068 1.404 . S
C1069 H1081 0.930 . S
C1070 C1066 1.524 . S
C1070 H1082 0.956 1_655 S
C1070 H1083 0.961 1_655 S
C1070 H1084 0.961 . S
C1071 C1068 1.539 . S
C1071 H1085 0.958 . S
C1071 H1086 0.961 . S
C1071 H1087 0.960 . S
H1072 C1056 0.931 . S
H1073 C1061 0.929 . S
H1074 C1062 0.960 . S
H1075 C1062 0.962 . S
H1076 C1062 0.960 . S
H1077 C1063 0.961 . S
H1078 C1063 0.961 . S
H1079 C1063 0.961 . S
H1080 C1064 0.931 . S
H1081 C1069 0.930 . S
H1082 C1070 0.956 1_455 S
H1083 C1070 0.961 1_455 S
H1084 C1070 0.961 . S
H1085 C1071 0.958 . S
H1086 C1071 0.961 . S
H1087 C1071 0.960 . S
C1088 C1089 1.391 . S
C1088 C1090 1.394 . S
C1088 H1104 0.931 . S
C1089 C1088 1.391 . S
C1089 C1093 1.376 . S
C1090 C1088 1.394 . S
C1090 C1091 1.369 . S
C1090 C1094 1.531 . S
C1091 C1090 1.369 . S
C1091 C1092 1.410 . S
C1091 C1099 1.503 . S
C1092 C1091 1.410 . S
C1092 C1093 1.392 . S
C1092 C1095 1.511 . S
C1093 C1089 1.376 . S
C1093 C1092 1.392 . S
C1093 H1105 0.929 . S
C1094 C1090 1.531 . S
C1094 H1106 0.960 . S
C1094 H1107 0.962 . S
C1094 H1108 0.960 . S
C1095 C1092 1.511 . S
C1095 H1109 0.961 . S
C1095 H1110 0.961 . S
C1095 H1111 0.961 . S
C1096 C1097 1.370 . S
C1096 C1098 1.363 . S
C1096 H1112 0.931 . S
C1097 C1096 1.370 . S
C1097 C1101 1.408 . S
C1098 C1096 1.363 . S
C1098 C1099 1.370 . S
C1098 C1102 1.524 . S
C1099 C1091 1.503 . S
C1099 C1098 1.370 . S
C1099 C1100 1.403 . S
C1100 C1099 1.403 . S
C1100 C1101 1.404 . S
C1100 C1103 1.539 . S
C1101 C1097 1.408 . S
C1101 C1100 1.404 . S
C1101 H1113 0.930 . S
C1102 C1098 1.524 . S
C1102 H1114 0.956 . S
C1102 H1115 0.961 . S
C1102 H1116 0.961 . S
C1103 C1100 1.539 . S
C1103 H1117 0.958 . S
C1103 H1118 0.961 . S
C1103 H1119 0.960 . S
H1104 C1088 0.931 . S
H1105 C1093 0.929 . S
H1106 C1094 0.960 . S
H1107 C1094 0.962 . S
H1108 C1094 0.960 . S
H1109 C1095 0.961 . S
H1110 C1095 0.961 . S
H1111 C1095 0.961 . S
H1112 C1096 0.931 . S
H1113 C1101 0.930 . S
H1114 C1102 0.956 . S
H1115 C1102 0.961 . S
H1116 C1102 0.961 . S
H1117 C1103 0.958 . S
H1118 C1103 0.961 . S
H1119 C1103 0.960 . S
C1120 C1121 1.391 . S
C1120 C1122 1.394 . S
C1120 H1136 0.931 . S
C1121 C1120 1.391 . S
C1121 C1125 1.376 . S
C1122 C1120 1.394 . S
C1122 C1123 1.369 . S
C1122 C1126 1.531 . S
C1123 C1122 1.369 . S
C1123 C1124 1.410 . S
C1123 C1131 1.503 . S
C1124 C1123 1.410 . S
C1124 C1125 1.392 . S
C1124 C1127 1.511 . S
C1125 C1121 1.376 . S
C1125 C1124 1.392 . S
C1125 H1137 0.929 . S
C1126 C1122 1.531 . S
C1126 H1138 0.960 . S
C1126 H1139 0.962 . S
C1126 H1140 0.960 . S
C1127 C1124 1.511 . S
C1127 H1141 0.961 . S
C1127 H1142 0.961 . S
C1127 H1143 0.961 . S
C1128 C1129 1.370 . S
C1128 C1130 1.363 . S
C1128 H1144 0.931 . S
C1129 C1128 1.370 . S
C1129 C1133 1.408 . S
C1130 C1128 1.363 . S
C1130 C1131 1.370 . S
C1130 C1134 1.524 . S
C1131 C1123 1.503 . S
C1131 C1130 1.370 . S
C1131 C1132 1.403 . S
C1132 C1131 1.403 . S
C1132 C1133 1.404 . S
C1132 C1135 1.539 . S
C1133 C1129 1.408 . S
C1133 C1132 1.404 . S
C1133 H1145 0.930 . S
C1134 C1130 1.524 . S
C1134 H1146 0.956 . S
C1134 H1147 0.961 . S
C1134 H1148 0.961 . S
C1135 C1132 1.539 . S
C1135 H1149 0.958 . S
C1135 H1150 0.961 . S
C1135 H1151 0.960 . S
H1136 C1120 0.931 . S
H1137 C1125 0.929 . S
H1138 C1126 0.960 . S
H1139 C1126 0.962 . S
H1140 C1126 0.960 . S
H1141 C1127 0.961 . S
H1142 C1127 0.961 . S
H1143 C1127 0.961 . S
H1144 C1128 0.931 . S
H1145 C1133 0.930 . S
H1146 C1134 0.956 . S
H1147 C1134 0.961 . S
H1148 C1134 0.961 . S
H1149 C1135 0.958 . S
H1150 C1135 0.961 . S
H1151 C1135 0.960 . S
C1152 C1153 1.391 . S
C1152 C1154 1.394 . S
C1152 H1168 0.931 . S
C1153 C1152 1.391 . S
C1153 C1157 1.376 . S
C1154 C1152 1.394 . S
C1154 C1155 1.369 . S
C1154 C1158 1.531 . S
C1155 C1154 1.369 . S
C1155 C1156 1.410 . S
C1155 C1163 1.503 1_545 S
C1156 C1155 1.410 . S
C1156 C1157 1.392 . S
C1156 C1159 1.511 1_545 S
C1157 C1153 1.376 . S
C1157 C1156 1.392 . S
C1157 H1169 0.929 . S
C1158 C1154 1.531 . S
C1158 H1170 0.960 . S
C1158 H1171 0.962 . S
C1158 H1172 0.960 . S
C1159 C1156 1.511 1_565 S
C1159 H1173 0.961 1_565 S
C1159 H1174 0.961 . S
C1159 H1175 0.961 . S
C1160 C1161 1.370 . S
C1160 C1162 1.363 . S
C1160 H1176 0.931 . S
C1161 C1160 1.370 . S
C1161 C1165 1.408 . S
C1162 C1160 1.363 . S
C1162 C1163 1.370 . S
C1162 C1166 1.524 1_565 S
C1163 C1155 1.503 1_565 S
C1163 C1162 1.370 . S
C1163 C1164 1.403 . S
C1164 C1163 1.403 . S
C1164 C1165 1.404 . S
C1164 C1167 1.539 . S
C1165 C1161 1.408 . S
C1165 C1164 1.404 . S
C1165 H1177 0.930 . S
C1166 C1162 1.524 1_545 S
C1166 H1178 0.956 . S
C1166 H1179 0.961 . S
C1166 H1180 0.961 . S
C1167 C1164 1.539 . S
C1167 H1181 0.958 . S
C1167 H1182 0.961 . S
C1167 H1183 0.960 . S
H1168 C1152 0.931 . S
H1169 C1157 0.929 . S
H1170 C1158 0.960 . S
H1171 C1158 0.962 . S
H1172 C1158 0.960 . S
H1173 C1159 0.961 1_545 S
H1174 C1159 0.961 . S
H1175 C1159 0.961 . S
H1176 C1160 0.931 . S
H1177 C1165 0.930 . S
H1178 C1166 0.956 . S
H1179 C1166 0.961 . S
H1180 C1166 0.961 . S
H1181 C1167 0.958 . S
H1182 C1167 0.961 . S
H1183 C1167 0.960 . S
C1184 C1185 1.391 . S
C1184 C1186 1.394 . S
C1184 H1200 0.931 . S
C1185 C1184 1.391 . S
C1185 C1189 1.376 . S
C1186 C1184 1.394 . S
C1186 C1187 1.369 . S
C1186 C1190 1.531 1_655 S
C1187 C1186 1.369 . S
C1187 C1188 1.410 1_565 S
C1187 C1195 1.503 1_665 S
C1188 C1187 1.410 1_545 S
C1188 C1189 1.392 1_545 S
C1188 C1191 1.511 . S
C1189 C1185 1.376 . S
C1189 C1188 1.392 1_565 S
C1189 H1201 0.929 . S
C1190 C1186 1.531 1_455 S
C1190 H1202 0.960 . S
C1190 H1203 0.962 . S
C1190 H1204 0.960 . S
C1191 C1188 1.511 . S
C1191 H1205 0.961 . S
C1191 H1206 0.961 . S
C1191 H1207 0.961 . S
C1192 C1193 1.370 . S
C1192 C1194 1.363 . S
C1192 H1208 0.931 . S
C1193 C1192 1.370 . S
C1193 C1197 1.408 . S
C1194 C1192 1.363 . S
C1194 C1195 1.370 . S
C1194 C1198 1.524 1_545 S
C1195 C1187 1.503 1_445 S
C1195 C1194 1.370 . S
C1195 C1196 1.403 . S
C1196 C1195 1.403 . S
C1196 C1197 1.404 . S
C1196 C1199 1.539 . S
C1197 C1193 1.408 . S
C1197 C1196 1.404 . S
C1197 H1209 0.930 . S
C1198 C1194 1.524 1_565 S
C1198 H1210 0.956 . S
C1198 H1211 0.961 1_465 S
C1198 H1212 0.965 . S
C1199 C1196 1.539 . S
C1199 H1213 0.958 . S
C1199 H1214 0.961 . S
C1199 H1215 0.960 1_455 S
H1200 C1184 0.931 . S
H1201 C1189 0.929 . S
H1202 C1190 0.960 . S
H1203 C1190 0.962 . S
H1204 C1190 0.960 . S
H1205 C1191 0.961 . S
H1206 C1191 0.961 . S
H1207 C1191 0.961 . S
H1208 C1192 0.931 . S
H1209 C1197 0.930 . S
H1210 C1198 0.956 . S
H1211 C1198 0.961 1_645 S
H1212 C1198 0.965 . S
H1213 C1199 0.958 . S
H1214 C1199 0.961 . S
H1215 C1199 0.960 1_655 S
C1216 C1217 1.391 . S
C1216 C1218 1.394 1_655 S
C1216 H1232 0.931 . S
C1217 C1216 1.391 . S
C1217 C1221 1.376 . S
C1218 C1216 1.394 1_455 S
C1218 C1219 1.369 1_455 S
C1218 C1222 1.531 . S
C1219 C1218 1.369 1_655 S
C1219 C1220 1.410 . S
C1219 C1227 1.503 1_655 S
C1220 C1219 1.410 . S
C1220 C1221 1.392 . S
C1220 C1223 1.511 . S
C1221 C1217 1.376 . S
C1221 C1220 1.392 . S
C1221 H1233 0.929 . S
C1222 C1218 1.531 . S
C1222 H1234 0.960 . S
C1222 H1235 0.962 . S
C1222 H1236 0.960 . S
C1223 C1220 1.511 . S
C1223 H1237 0.961 . S
C1223 H1238 0.961 . S
C1223 H1239 0.961 . S
C1224 C1225 1.370 . S
C1224 C1226 1.363 . S
C1224 H1240 0.931 . S
C1225 C1224 1.370 . S
C1225 C1229 1.408 . S
C1226 C1224 1.363 . S
C1226 C1227 1.370 . S
C1226 C1230 1.524 1_455 S
C1227 C1219 1.503 1_455 S
C1227 C1226 1.370 . S
C1227 C1228 1.403 . S
C1228 C1227 1.403 . S
C1228 C1229 1.404 . S
C1228 C1231 1.539 . S
C1229 C1225 1.408 . S
C1229 C1228 1.404 . S
C1229 H1241 0.930 . S
C1230 C1226 1.524 1_655 S
C1230 H1242 0.956 . S
C1230 H1243 0.961 . S
C1230 H1244 0.961 . S
C1231 C1228 1.539 . S
C1231 H1245 0.958 . S
C1231 H1246 0.961 . S
C1231 H1247 0.960 . S
H1232 C1216 0.931 . S
H1233 C1221 0.929 . S
H1234 C1222 0.960 . S
H1235 C1222 0.962 . S
H1236 C1222 0.960 . S
H1237 C1223 0.961 . S
H1238 C1223 0.961 . S
H1239 C1223 0.961 . S
H1240 C1224 0.931 . S
H1241 C1229 0.930 . S
H1242 C1230 0.956 . S
H1243 C1230 0.961 . S
H1244 C1230 0.961 . S
H1245 C1231 0.958 . S
H1246 C1231 0.961 . S
H1247 C1231 0.960 . S
C225 C63 1.475 . S
C233 C7 1.473 . S
C257 C21 1.474 . S
C265 C77 1.473 . S
C289 C91 1.491 . S
C297 C35 1.475 . S
C321 C105 1.479 . S
C329 C49 1.485 . S
C353 C175 1.492 . S
C361 C119 1.478 . S
C385 C133 1.473 . S
C393 C189 1.473 . S
C417 C203 1.489 . S
C425 C147 1.481 . S
C449 C161 1.490 . S
C457 C217 1.474 . S
C481 C8 1.457 . S
C489 C218 1.457 . S
C513 C22 1.434 . S
C521 C176 1.458 . S
C545 C36 1.459 . S
C553 C190 1.456 . S
C577 C204 1.435 . S
C585 C50 1.448 . S
C609 C64 1.431 . S
C617 C134 1.451 . S
C641 C78 1.466 . S
C649 C148 1.447 . S
C673 C162 1.431 . S
C681 C92 1.457 . S
C705 C120 1.462 . S
C713 C106 1.455 . S
C737 C6 1.647 . S
C745 C146 1.627 . S
C769 C160 1.640 . S
C777 C20 1.629 . S
C801 C34 1.617 . S
C809 C118 1.639 . S
C833 C132 1.654 . S
C841 C48 1.626 . S
C865 C62 1.612 . S
C873 C202 1.645 . S
C897 C76 1.637 . S
C905 C216 1.630 . S
C929 C174 1.646 . S
C937 C90 1.627 . S
C961 C188 1.654 . S
C969 C104 1.627 . S
C993 C149 1.467 . S
C1001 C9 1.455 . S
C1025 C23 1.466 . S
C1033 C163 1.456 . S
C1057 C37 1.445 . S
C1065 C121 1.459 . S
C1089 C135 1.467 . S
C1097 C51 1.456 . S
C1121 C205 1.453 . S
C1129 C65 1.455 . S
C1153 C219 1.442 . S
C1161 C79 1.462 . S
C1185 C177 1.463 . S
C1193 C93 1.459 . S
C1217 C107 1.458 . S
C1225 C191 1.454 . S
