# Generated by pormake.
# Topology rob, (6)-cn, num edge types: 1
# Building blocks:
#     Node 0, Type 0, BuildingBlock: KUMBUR_clean_sbu_1, # of connection points: 6
#     Node 1, Type 0, BuildingBlock: KUMBUR_clean_sbu_1, # of connection points: 6
#     Node 2, Type 0, BuildingBlock: KUMBUR_clean_sbu_1, # of connection points: 6
#     Node 3, Type 0, BuildingBlock: KUMBUR_clean_sbu_1, # of connection points: 6
#     Edge 4, Type (0, 0), BuildingBlock: KIFKEQ_clean_linker_1, # of connection points: 2
#     Edge 5, Type (0, 0), BuildingBlock: KIFKEQ_clean_linker_1, # of connection points: 2
#     Edge 6, Type (0, 0), BuildingBlock: KIFKEQ_clean_linker_1, # of connection points: 2
#     Edge 7, Type (0, 0), BuildingBlock: KIFKEQ_clean_linker_1, # of connection points: 2
#     Edge 8, Type (0, 0), BuildingBlock: KIFKEQ_clean_linker_1, # of connection points: 2
#     Edge 9, Type (0, 0), BuildingBlock: KIFKEQ_clean_linker_1, # of connection points: 2
#     Edge 10, Type (0, 0), BuildingBlock: KIFKEQ_clean_linker_1, # of connection points: 2
#     Edge 11, Type (0, 0), BuildingBlock: KIFKEQ_clean_linker_1, # of connection points: 2
#     Edge 12, Type (0, 0), BuildingBlock: KIFKEQ_clean_linker_1, # of connection points: 2
#     Edge 13, Type (0, 0), BuildingBlock: KIFKEQ_clean_linker_1, # of connection points: 2
#     Edge 14, Type (0, 0), BuildingBlock: KIFKEQ_clean_linker_1, # of connection points: 2
#     Edge 15, Type (0, 0), BuildingBlock: KIFKEQ_clean_linker_1, # of connection points: 2
# Relax obj value: 0.020
# Max RMSD: 0.111
# Mean RMSD: 0.111
data_MOF--net-rob--node1-KUMBUR_clean_sbu_1--edge1-KIFKEQ_clean_linker_1
_symmetry_space_group_name_H-M    P1
_symmetry_Int_Tables_number       1
_symmetry_cell_setting            triclinic
loop_
_symmetry_equiv_pos_as_xyz
'x, y, z'
_cell_length_a     19.031086
_cell_length_b     23.460382
_cell_length_c     34.34626
_cell_angle_alpha  109.44487
_cell_angle_beta   90.048423
_cell_angle_gamma 89.991468
loop_
_atom_site_label
_atom_site_type_symbol
_atom_site_fract_x
_atom_site_fract_y
_atom_site_fract_z
_atom_type_partial_charge
Tb0 Tb 0.31792 0.19711 0.96909 0.0
C1 C 0.11675 0.42083 0.06141 0.0
N2 N 0.18469 0.41167 0.06993 0.0
C3 C 0.20869 0.51746 0.08595 0.0
C4 C 0.09172 0.47913 0.06554 0.0
C5 C 0.2307 0.45895 0.08218 0.0
C6 C 0.1388 0.52767 0.07773 0.0
C7 C 1.00043 0.37938 0.04141 0.0
C8 C 0.0717 0.37168 0.04978 0.0
C9 C 0.97509 0.43738 0.04564 0.0
C10 C 0.02047 0.48722 0.05812 0.0
Tb11 Tb 0.21332 0.31538 0.06609 0.0
N12 N 0.09791 0.31639 0.0469 0.0
C13 C 0.95645 0.32877 0.02995 0.0
C14 C 0.05406 0.26771 0.03796 0.0
C15 C 0.98334 0.27277 0.02848 0.0
H16 H 0.28368 0.45204 0.0906 0.0
H17 H 0.94922 0.23368 0.02097 0.0
H18 H 0.24478 0.06335 0.95768 0.0
H19 H 0.58434 0.27978 1.00505 0.0
H20 H 0.07209 0.22528 0.03927 0.0
H21 H 0.9014 0.33271 0.02317 0.0
H22 H 0.45993 0.28783 0.99028 0.0
H23 H 0.24534 0.5548 0.09593 0.0
H24 H 0.92035 0.44429 0.03971 0.0
H25 H 0.99991 0.53184 0.062 0.0
H26 H 0.2852 0.96193 0.9539 0.0
H27 H 0.12161 0.57316 0.08124 0.0
H28 H 0.63341 0.18179 1.00413 0.0
N29 N 0.34635 0.10329 0.97059 0.0
C30 C 0.41578 0.09407 0.97558 0.0
C31 C 0.3224 0.99881 0.96033 0.0
C32 C 0.44139 0.03643 0.97273 0.0
C33 C 0.29944 0.05674 0.96327 0.0
C34 C 0.39376 0.98845 0.96467 0.0
N35 N 0.43456 0.19775 0.98596 0.0
C36 C 0.4785 0.24597 0.99227 0.0
C37 C 0.53343 0.13541 0.9903 0.0
C38 C 0.46126 0.14292 0.9839 0.0
C39 C 0.57771 0.18562 0.99892 0.0
C40 C 0.55013 0.24106 0.99969 0.0
H41 H 0.4115 0.9433 0.9617 0.0
H42 H 0.53428 0.98456 0.97554 0.0
H43 H 0.61458 0.07129 0.99181 0.0
O44 O 0.36269 0.20897 0.91475 0.0
O45 O 0.34219 0.19297 0.03108 0.0
O46 O 0.32275 0.29113 0.07126 0.0
O47 O 0.30667 0.12756 0.91297 0.0
O48 O 0.33305 0.29491 0.98012 0.0
O49 O 0.31662 0.3437 0.05058 0.0
O50 O 0.16862 0.29308 0.11549 0.0
O51 O 0.18974 0.32095 1.00454 0.0
O52 O 0.2098 0.22373 0.96211 0.0
O53 O 0.22223 0.37733 0.1264 0.0
O54 O 0.20002 0.21738 0.05432 0.0
O55 O 0.21291 0.17281 0.98387 0.0
C56 C 0.3474 0.23712 0.06664 0.0
C57 C 0.35206 0.12607 0.84713 0.0
C58 C 0.40518 0.12136 0.78118 0.0
C59 C 0.37618 0.06353 0.76286 0.0
C60 C 0.3234 0.06814 0.82766 0.0
C61 C 0.33527 0.03736 0.78592 0.0
C62 C 0.39246 0.15305 0.82344 0.0
C63 C 0.3409 0.34224 1.01413 0.0
C64 C 0.3414 0.15524 0.89228 0.0
C65 C 0.51349 0.02854 0.97793 0.0
C66 C 0.55925 0.07801 0.98725 0.0
C67 C 0.18518 0.27828 0.96829 0.0
C68 C 0.12939 0.37647 0.17223 0.0
C69 C 0.06468 0.39132 0.23645 0.0
C70 C 0.02874 0.43995 0.2304 0.0
C71 C 0.09279 0.42547 0.16708 0.0
C72 C 0.11443 0.35904 0.20689 0.0
C73 C 0.04215 0.45631 0.19565 0.0
C74 C 0.19144 0.17135 0.01993 0.0
C75 C 0.185 0.34486 0.14281 0.0
H76 H 0.38509 0.03857 0.73048 0.0
H77 H 0.29216 0.04601 0.84479 0.0
H78 H 0.31314 0.99278 0.77145 0.0
H79 H 0.41542 0.19736 0.83788 0.0
H80 H 0.98947 0.46476 0.25234 0.0
H81 H 0.10371 0.4406 0.14136 0.0
H82 H 0.14245 0.32144 0.21134 0.0
H83 H 0.01346 0.4933 0.19094 0.0
Tb84 Tb 0.81183 0.70665 0.96797 0.0
C85 C 0.60635 0.92227 0.0611 0.0
N86 N 0.67413 0.91315 0.07004 0.0
C87 C 0.69675 0.01966 0.0894 0.0
C88 C 0.58074 0.98089 0.06675 0.0
C89 C 0.71935 0.96085 0.08423 0.0
C90 C 0.62706 0.0298 0.08076 0.0
C91 C 0.49155 0.88024 0.03706 0.0
C92 C 0.56235 0.87252 0.04641 0.0
C93 C 0.4654 0.93865 0.04362 0.0
C94 C 0.50977 0.98884 0.05863 0.0
Tb95 Tb 0.70218 0.81593 0.06403 0.0
N96 N 0.58902 0.81665 0.04141 0.0
C97 C 0.44873 0.82913 0.02221 0.0
C98 C 0.54612 0.76724 0.02925 0.0
C99 C 0.47611 0.77242 0.01848 0.0
H100 H 0.77202 0.95411 0.09321 0.0
H101 H 0.44281 0.73279 1.00834 0.0
H102 H 0.72847 0.57427 0.931 0.0
H103 H 0.07451 0.76595 0.02744 0.0
H104 H 0.56421 0.72405 0.029 0.0
H105 H 0.39416 0.83313 1.01448 0.0
H106 H 0.95575 0.78599 1.00673 0.0
H107 H 0.73275 0.05728 0.10083 0.0
H108 H 0.41082 0.94553 0.03737 0.0
H109 H 0.4888 0.03355 0.06337 0.0
H110 H 0.75446 0.46747 0.92131 0.0
H111 H 0.60948 0.0755 0.08527 0.0
H112 H 0.1103 0.66125 0.01945 0.0
N113 N 0.82832 0.60618 0.9574 0.0
C114 C 0.89313 0.59094 0.9674 0.0
C115 C 0.79378 0.50181 0.93455 0.0
C116 C 0.91081 0.53025 0.96134 0.0
C117 C 0.77887 0.56259 0.94069 0.0
C118 C 0.85999 0.48554 0.94495 0.0
N119 N 0.92241 0.69468 0.98994 0.0
C120 C 0.96972 0.74063 1.00421 0.0
C121 C 0.00997 0.62265 0.99432 0.0
C122 C 0.94208 0.63652 0.98373 0.0
C123 C 0.05766 0.66999 1.0108 0.0
C124 C 0.03754 0.72918 0.01551 0.0
H125 H 0.87155 0.43838 0.93987 0.0
H126 H 0.99299 0.46983 0.96728 0.0
H127 H 0.08007 0.55055 0.99576 0.0
O128 O 0.86369 0.74088 0.92623 0.0
O129 O 0.83356 0.70018 0.02962 0.0
O130 O 0.80934 0.79422 0.07727 0.0
O131 O 0.82431 0.65004 0.90639 0.0
O132 O 0.82513 0.80533 0.98584 0.0
O133 O 0.80732 0.84926 0.05625 0.0
O134 O 0.65092 0.78704 0.10861 0.0
O135 O 0.68489 0.8251 1.00272 0.0
O136 O 0.70411 0.72951 0.95631 0.0
O137 O 0.69223 0.87691 0.12456 0.0
O138 O 0.69234 0.71662 0.04784 0.0
O139 O 0.70627 0.67757 0.97719 0.0
C140 C 0.83973 0.74092 0.06664 0.0
C141 C 0.82625 0.69965 0.85696 0.0
C142 C 0.84709 0.71233 0.78997 0.0
C143 C 0.77391 0.71472 0.78462 0.0
C144 C 0.75365 0.70178 0.85074 0.0
C145 C 0.7277 0.70949 0.81482 0.0
C146 C 0.87283 0.70477 0.8265 0.0
C147 C 0.83819 0.84771 0.02146 0.0
C148 C 0.85391 0.69172 0.89492 0.0
C149 C 0.97854 0.51616 0.97161 0.0
C150 C 0.02807 0.56219 0.98794 0.0
C151 C 0.67589 0.78368 0.96622 0.0
C152 C 0.69041 0.83297 0.1771 0.0
C153 C 0.67069 0.82315 0.24499 0.0
C154 C 0.74389 0.82265 0.25064 0.0
C155 C 0.7631 0.83332 0.18376 0.0
C156 C 0.64429 0.82835 0.20792 0.0
C157 C 0.78961 0.82797 0.22026 0.0
C158 C 0.68372 0.67296 1.01217 0.0
C159 C 0.66217 0.83775 0.13833 0.0
H160 H 0.75227 0.71974 0.75677 0.0
H161 H 0.71718 0.69696 0.87351 0.0
H162 H 0.67153 0.71105 0.81025 0.0
H163 H 0.92898 0.70352 0.83149 0.0
H164 H 0.76578 0.8192 0.27889 0.0
H165 H 0.79916 0.8383 0.16084 0.0
H166 H 0.58804 0.82812 0.20285 0.0
H167 H 0.8458 0.82839 0.22516 0.0
Tb168 Tb 0.32284 0.82732 0.56773 0.0
C169 C 0.11714 0.6055 0.47738 0.0
N170 N 0.1837 0.61567 0.46707 0.0
C171 C 0.20808 0.50927 0.4461 0.0
C172 C 0.093 0.54648 0.47185 0.0
C173 C 0.22903 0.56849 0.45121 0.0
C174 C 0.13971 0.49816 0.45644 0.0
C175 C 1.00184 0.64569 0.5015 0.0
C176 C 0.07204 0.65429 0.49161 0.0
C177 C 0.97746 0.58703 0.49607 0.0
C178 C 0.02278 0.53749 0.48087 0.0
Tb179 Tb 0.21045 0.71355 0.47378 0.0
N180 N 0.09707 0.71017 0.49533 0.0
C181 C 0.95788 0.69616 0.51566 0.0
C182 C 0.0533 0.75898 0.5072 0.0
C183 C 0.9837 0.75302 0.51833 0.0
H184 H 0.28043 0.57612 0.44086 0.0
H185 H 0.94964 0.79217 0.52825 0.0
H186 H 0.25476 0.96606 0.59512 0.0
H187 H 0.57952 0.73983 0.50953 0.0
H188 H 0.07105 0.80241 0.50761 0.0
H189 H 0.90367 0.69155 0.52377 0.0
H190 H 0.45836 0.73303 0.53133 0.0
H191 H 0.24424 0.47211 0.43337 0.0
H192 H 0.92353 0.57941 0.50317 0.0
H193 H 1.00297 0.4924 0.47619 0.0
H194 H 0.29513 0.06824 0.60064 0.0
H195 H 0.1232 0.45215 0.45178 0.0
H196 H 0.62916 0.83903 0.51358 0.0
N197 N 0.35179 0.92362 0.57176 0.0
C198 C 0.41942 0.93159 0.56196 0.0
C199 C 0.3305 0.03013 0.58944 0.0
C200 C 0.44548 0.98955 0.56601 0.0
C201 C 0.30725 0.97189 0.58545 0.0
C202 C 0.4 0.03908 0.57982 0.0
N203 N 0.43555 0.82602 0.54408 0.0
C204 C 0.47739 0.77597 0.53164 0.0
C205 C 0.53308 0.88774 0.53698 0.0
C206 C 0.46277 0.8813 0.54781 0.0
C207 C 0.57497 0.83603 0.52236 0.0
C208 C 0.54704 0.77995 0.51986 0.0
H209 H 0.41809 0.08433 0.58332 0.0
H210 H 0.53706 0.04044 0.55962 0.0
H211 H 0.61347 0.95139 0.53358 0.0
O212 O 0.37142 0.80053 0.61419 0.0
O213 O 0.34304 0.8295 0.50486 0.0
O214 O 0.31996 0.73215 0.4638 0.0
O215 O 0.33519 0.89141 0.62695 0.0
O216 O 0.33062 0.72905 0.55604 0.0
O217 O 0.31291 0.68047 0.4861 0.0
O218 O 0.16099 0.74196 0.42819 0.0
O219 O 0.1877 0.71251 0.53655 0.0
O220 O 0.21429 0.80858 0.581 0.0
O221 O 0.21169 0.65551 0.41219 0.0
O222 O 0.20161 0.81227 0.48752 0.0
O223 O 0.21913 0.86046 0.55763 0.0
C224 C 0.34764 0.78537 0.46927 0.0
C225 C 0.3328 0.8531 0.68217 0.0
C226 C 0.34997 0.84795 0.75157 0.0
C227 C 0.27695 0.85433 0.75804 0.0
C228 C 0.26031 0.85977 0.6895 0.0
C229 C 0.23261 0.86024 0.72719 0.0
C230 C 0.37754 0.84754 0.71335 0.0
C231 C 0.33836 0.68193 0.52218 0.0
C232 C 0.36239 0.85306 0.64249 0.0
C233 C 0.51595 0.99624 0.55633 0.0
C234 C 0.55948 0.94548 0.54149 0.0
C235 C 0.18188 0.75619 0.57237 0.0
C236 C 0.11593 0.66307 0.37031 0.0
C237 C 0.05174 0.65096 0.3064 0.0
C238 C 0.01284 0.60376 0.31238 0.0
C239 C 0.07618 0.61578 0.37566 0.0
C240 C 0.10281 0.68108 0.33573 0.0
C241 C 0.02455 0.5868 0.34708 0.0
C242 C 0.19061 0.85773 0.52198 0.0
C243 C 0.17402 0.69126 0.3988 0.0
H244 H 0.25417 0.85551 0.78718 0.0
H245 H 0.22533 0.8652 0.66618 0.0
H246 H 0.17657 0.86548 0.7326 0.0
H247 H 0.43356 0.84214 0.70762 0.0
H248 H 0.97292 0.58043 0.29032 0.0
H249 H 0.08564 0.60038 0.40142 0.0
H250 H 0.13335 0.71729 0.33108 0.0
H251 H 0.99404 0.55057 0.35161 0.0
Tb252 Tb 0.8177 0.32519 0.57072 0.0
C253 C 0.6257 0.10177 0.47207 0.0
N254 N 0.69218 0.11564 0.46384 0.0
C255 C 0.72362 1.0106 0.44185 0.0
C256 C 0.60531 0.04138 0.46491 0.0
C257 C 0.74116 0.0711 0.44875 0.0
C258 C 0.65535 0.99562 0.44983 0.0
C259 C 0.5085 0.13596 0.49686 0.0
C260 C 0.57786 0.14848 0.48781 0.0
C261 C 0.48758 0.07577 0.48902 0.0
C262 C 0.53577 0.02864 0.47288 0.0
Tb263 Tb 0.71164 0.21536 0.47334 0.0
N264 N 0.59988 0.20628 0.49484 0.0
C265 C 0.46209 0.18429 0.51313 0.0
C266 C 0.55378 0.25323 0.50883 0.0
C267 C 0.48479 0.24314 0.51896 0.0
H268 H 0.79315 0.08173 0.44066 0.0
H269 H 0.44879 0.28071 0.53057 0.0
H270 H 0.73688 0.4592 0.60207 0.0
H271 H 0.07955 0.25738 0.51254 0.0
H272 H 0.56911 0.29833 0.5116 0.0
H273 H 0.40842 0.17658 0.52066 0.0
H274 H 0.95965 0.241 0.53286 0.0
H275 H 0.76249 0.97547 0.42976 0.0
H276 H 0.43436 0.06518 0.49549 0.0
H277 H 0.51898 0.98252 0.46732 0.0
H278 H 0.76784 0.56486 0.61116 0.0
H279 H 0.64174 0.94866 0.44406 0.0
H280 H 0.12001 0.36082 0.52037 0.0
N281 N 0.83744 0.42439 0.57868 0.0
C282 C 0.9038 0.4376 0.56976 0.0
C283 C 0.80646 0.52944 0.5993 0.0
C284 C 0.92429 0.49764 0.5757 0.0
C285 C 0.78875 0.46927 0.59345 0.0
C286 C 0.87456 0.54375 0.59051 0.0
N287 N 0.92925 0.333 0.54844 0.0
C288 C 0.97504 0.28578 0.53479 0.0
C289 C 0.02046 0.40234 0.54444 0.0
C290 C 0.95136 0.39051 0.55437 0.0
C291 C 0.06655 0.35366 0.52854 0.0
C292 C 0.04379 0.29518 0.52388 0.0
H293 H 0.88827 0.59047 0.59541 0.0
H294 H 0.01049 0.55561 0.57155 0.0
H295 H 0.09447 0.47227 0.54382 0.0
O296 O 0.87134 0.29576 0.61435 0.0
O297 O 0.83625 0.33495 0.50964 0.0
O298 O 0.81892 0.23979 0.46229 0.0
O299 O 0.82728 0.38485 0.63163 0.0
O300 O 0.83182 0.2265 0.55377 0.0
O301 O 0.81764 0.18662 0.48296 0.0
O302 O 0.65924 0.24653 0.43017 0.0
O303 O 0.691 0.20588 0.53427 0.0
O304 O 0.71121 0.29993 0.58292 0.0
O305 O 0.70272 0.15721 0.41188 0.0
O306 O 0.69716 0.31409 0.49103 0.0
O307 O 0.71121 0.35346 0.56189 0.0
C308 C 0.84536 0.29458 0.47276 0.0
C309 C 0.83283 0.33934 0.68325 0.0
C310 C 0.85554 0.3275 0.75026 0.0
C311 C 0.78261 0.32652 0.75668 0.0
C312 C 0.76046 0.33922 0.69067 0.0
C313 C 0.73552 0.33253 0.72709 0.0
C314 C 0.88031 0.33393 0.71325 0.0
C315 C 0.84189 0.18336 0.51808 0.0
C316 C 0.85931 0.34571 0.64461 0.0
C317 C 0.99358 0.50972 0.5668 0.0
C318 C 0.04144 0.46221 0.55101 0.0
C319 C 0.6834 0.24547 0.57165 0.0
C320 C 0.6975 0.20435 0.36112 0.0
C321 C 0.6753 0.21221 0.29289 0.0
C322 C 0.74783 0.22009 0.28861 0.0
C323 C 0.76957 0.21146 0.35586 0.0
C324 C 0.65047 0.20419 0.32941 0.0
C325 C 0.79453 0.21947 0.31985 0.0
C326 C 0.68618 0.35654 0.52691 0.0
C327 C 0.67091 0.19701 0.39946 0.0
H328 H 0.76197 0.32207 0.78491 0.0
H329 H 0.7235 0.34493 0.66841 0.0
H330 H 0.67952 0.3324 0.73253 0.0
H331 H 0.93633 0.33407 0.70758 0.0
H332 H 0.76856 0.22602 0.26084 0.0
H333 H 0.80636 0.2104 0.37954 0.0
H334 H 0.59465 0.19879 0.33344 0.0
H335 H 0.85027 0.22503 0.31608 0.0
H336 H 0.67186 0.61636 0.0695 0.0
H337 H 0.59043 0.61458 0.95194 0.0
H338 H 0.59246 0.53451 0.0685 0.0
H339 H 0.50695 0.53619 0.952 0.0
H340 H 0.39621 0.36278 0.94609 0.0
H341 H 0.48279 0.4381 0.94439 0.0
H342 H 0.48052 0.50988 0.07792 0.0
H343 H 0.40061 0.43075 0.07937 0.0
C344 C 0.63643 0.59856 0.04356 0.0
C345 C 0.63744 0.62157 1.01078 0.0
C346 C 0.59009 0.55197 0.04307 0.0
C347 C 0.54187 0.52844 1.01036 0.0
C348 C 0.54363 0.55169 0.97743 0.0
C349 C 0.59139 0.59705 0.97742 0.0
C350 C 0.4143 0.3947 0.97507 0.0
C351 C 0.38987 0.39122 1.01285 0.0
C352 C 0.4638 0.4385 0.97416 0.0
C353 C 0.48931 0.481 1.01102 0.0
C354 C 0.46384 0.47776 0.04873 0.0
C355 C 0.41601 0.433 0.04961 0.0
H356 H 0.39541 0.66376 0.59051 0.0
H357 H 0.39568 0.59117 0.4573 0.0
H358 H 0.48215 0.58898 0.59281 0.0
H359 H 0.47605 0.51259 0.45951 0.0
H360 H 0.67138 0.41123 0.46891 0.0
H361 H 0.58963 0.49101 0.46907 0.0
H362 H 0.50656 0.49075 0.58633 0.0
H363 H 0.59233 0.41409 0.58715 0.0
C364 C 0.41257 0.63093 0.56168 0.0
C365 C 0.38691 0.63289 0.52372 0.0
C366 C 0.46216 0.58745 0.56298 0.0
C367 C 0.4867 0.54394 0.52637 0.0
C368 C 0.45996 0.54557 0.48849 0.0
C369 C 0.41187 0.58994 0.48718 0.0
C370 C 0.63589 0.42878 0.49482 0.0
C371 C 0.63819 0.40665 0.52802 0.0
C372 C 0.58826 0.47419 0.49481 0.0
C373 C 0.54011 0.49745 0.52748 0.0
C374 C 0.54313 0.4752 0.56087 0.0
C375 C 0.59215 0.43091 0.56134 0.0
H376 H 0.17224 0.1227 0.0814 0.0
H377 H 0.09928 0.11078 0.96003 0.0
H378 H 0.09 0.04312 0.08216 0.0
H379 H 0.01393 0.03497 0.96159 0.0
H380 H 0.90675 0.86312 0.95573 0.0
H381 H 0.99514 0.93714 0.95598 0.0
H382 H 0.97565 0.01644 0.08865 0.0
H383 H 0.89211 0.93811 0.0886 0.0
C384 C 0.13822 0.10318 0.055 0.0
C385 C 0.1427 0.12237 0.02051 0.0
C386 C 0.09043 0.0579 0.05549 0.0
C387 C 0.04471 0.03183 0.02187 0.0
C388 C 0.04912 0.05209 0.98765 0.0
C389 C 0.09799 0.09606 0.98677 0.0
C390 C 0.92124 0.8962 0.98506 0.0
C391 C 0.89063 0.89519 0.02207 0.0
C392 C 0.97183 0.93943 0.98519 0.0
C393 C 0.99245 0.98412 0.02226 0.0
C394 C 0.96206 0.98284 0.05939 0.0
C395 C 0.91266 0.93847 0.05932 0.0
H396 H 0.85852 0.13081 0.57723 0.0
H397 H 0.93375 0.12347 0.45728 0.0
H398 H 0.93995 0.05082 0.57729 0.0
H399 H 0.01893 0.04653 0.45817 0.0
H400 H 0.12862 0.87377 0.45426 0.0
H401 H 0.04152 0.94842 0.45254 0.0
H402 H 0.05396 0.02772 0.58553 0.0
H403 H 0.13548 0.94939 0.58732 0.0
C404 C 0.89301 0.1122 0.55096 0.0
C405 C 0.88966 0.13313 0.51721 0.0
C406 C 0.94045 0.06666 0.55108 0.0
C407 C 0.98725 0.04193 0.5179 0.0
C408 C 0.98331 0.0631 0.48403 0.0
C409 C 0.93459 0.10758 0.4835 0.0
C410 C 0.11278 0.90714 0.48317 0.0
C411 C 0.14056 0.90605 0.52089 0.0
C412 C 0.06295 0.95058 0.48219 0.0
C413 C 0.04025 0.99502 0.51886 0.0
C414 C 0.06872 0.99407 0.55654 0.0
C415 C 0.11719 0.94972 0.55757 0.0
H416 H 0.56843 0.13312 0.2576 0.0
H417 H 0.67162 0.29427 0.25244 0.0
H418 H 0.48893 0.13573 0.20185 0.0
H419 H 0.59283 0.29679 0.19699 0.0
H420 H 0.38674 0.32454 0.13797 0.0
H421 H 0.46462 0.31582 0.19164 0.0
H422 H 0.49212 0.12574 0.12499 0.0
H423 H 0.41346 0.13413 0.07041 0.0
C424 C 0.57391 0.16915 0.24466 0.0
C425 C 0.62613 0.2136 0.25947 0.0
C426 C 0.52891 0.17031 0.21253 0.0
C427 C 0.5345 0.21655 0.1951 0.0
C428 C 0.58677 0.26086 0.20998 0.0
C429 C 0.63217 0.25924 0.24159 0.0
C430 C 0.40923 0.28068 0.13442 0.0
C431 C 0.39409 0.23011 0.0995 0.0
C432 C 0.45422 0.27584 0.16527 0.0
C433 C 0.48501 0.22021 0.16239 0.0
C434 C 0.46899 0.16915 0.128 0.0
C435 C 0.42424 0.17407 0.09671 0.0
H436 H 0.55414 0.89148 0.27668 0.0
H437 H 0.67893 0.74398 0.28779 0.0
H438 H 0.47651 0.88407 0.3317 0.0
H439 H 0.60189 0.73685 0.34279 0.0
H440 H 0.40014 0.69633 0.40239 0.0
H441 H 0.47764 0.70667 0.34882 0.0
H442 H 0.4804 0.90016 0.40833 0.0
H443 H 0.40297 0.89009 0.46269 0.0
C444 C 0.56474 0.85733 0.29074 0.0
C445 C 0.62252 0.8182 0.27783 0.0
C446 C 0.52075 0.85349 0.32249 0.0
C447 C 0.53304 0.80984 0.34157 0.0
C448 C 0.59068 0.77063 0.32849 0.0
C449 C 0.63505 0.77495 0.29717 0.0
C450 C 0.4172 0.74122 0.40426 0.0
C451 C 0.39522 0.7924 0.43692 0.0
C452 C 0.46201 0.74704 0.3736 0.0
C453 C 0.48539 0.80423 0.37446 0.0
C454 C 0.46308 0.85557 0.40688 0.0
C455 C 0.41895 0.84972 0.43802 0.0
H456 H 0.5967 0.70141 0.90817 0.0
H457 H 0.63976 0.89273 0.95875 0.0
H458 H 0.51777 0.71909 0.85755 0.0
H459 H 0.56008 0.91052 0.90775 0.0
H460 H 0.47707 0.90257 0.7781 0.0
H461 H 0.55383 0.8894 0.83173 0.0
H462 H 0.40375 0.76561 0.85387 0.0
H463 H 0.32815 0.77759 0.79981 0.0
C464 C 0.58926 0.74734 0.90846 0.0
C465 C 0.62523 0.79558 0.93706 0.0
C466 C 0.54351 0.75753 0.87964 0.0
C467 C 0.53258 0.81627 0.87861 0.0
C468 C 0.56779 0.86475 0.90763 0.0
C469 C 0.61311 0.8546 0.93688 0.0
C470 C 0.46079 0.87227 0.79427 0.0
C471 C 0.39665 0.8409 0.78452 0.0
C472 C 0.50434 0.86527 0.82532 0.0
C473 C 0.48501 0.82633 0.84703 0.0
C474 C 0.4206 0.79544 0.83746 0.0
C475 C 0.37697 0.80271 0.80669 0.0
H476 H 0.61193 0.32154 0.6377 0.0
H477 H 0.65044 0.13245 0.57248 0.0
H478 H 0.54844 0.29556 0.691 0.0
H479 H 0.58361 0.10601 0.62448 0.0
H480 H 0.52553 0.07367 0.74172 0.0
H481 H 0.59133 0.10558 0.69179 0.0
H482 H 0.44679 0.25441 0.70944 0.0
H483 H 0.38329 0.22348 0.76111 0.0
C484 C 0.60691 0.27433 0.63481 0.0
C485 C 0.63827 0.2292 0.60159 0.0
C486 C 0.56944 0.2593 0.6651 0.0
C487 C 0.56134 0.19854 0.66259 0.0
C488 C 0.59001 0.15333 0.62814 0.0
C489 C 0.62787 0.16842 0.59802 0.0
C490 C 0.5088 0.11385 0.73537 0.0
C491 C 0.44977 0.1464 0.75538 0.0
C492 C 0.54582 0.13175 0.70627 0.0
C493 C 0.524 0.18213 0.69576 0.0
C494 C 0.46583 0.21575 0.71683 0.0
C495 C 0.42935 0.19822 0.74651 0.0
H496 H 0.91691 0.82055 0.12762 0.0
H497 H 0.86812 0.63076 0.07403 0.0
H498 H 0.98131 0.80073 0.18313 0.0
H499 H 0.93119 0.61071 0.13004 0.0
H500 H 0.07787 0.58532 0.22631 0.0
H501 H 0.03872 0.60693 0.16466 0.0
H502 H 0.95193 0.77688 0.24292 0.0
H503 H 0.99245 0.75499 0.3039 0.0
C504 C 0.91995 0.77452 0.1278 0.0
C505 C 0.88582 0.72746 0.09721 0.0
C506 C 0.95678 0.76312 0.15965 0.0
C507 C 0.96037 0.7043 0.16174 0.0
C508 C 0.92981 0.6566 0.12955 0.0
C509 C 0.89328 0.66805 0.09749 0.0
C510 C 0.0509 0.62739 0.22992 0.0
C511 C 0.03755 0.66833 0.26953 0.0
C512 C 0.02824 0.6398 0.19478 0.0
C513 C 0.99141 0.69347 0.19863 0.0
C514 C 0.98078 0.73546 0.23852 0.0
C515 C 1.00382 0.72306 0.27357 0.0
H516 H 0.9302 0.21893 0.41426 0.0
H517 H 0.86421 0.40509 0.46402 0.0
H518 H 0.99557 0.2414 0.36013 0.0
H519 H 0.92728 0.42757 0.40902 0.0
H520 H 0.07524 0.46185 0.31712 0.0
H521 H 0.03368 0.43921 0.37773 0.0
H522 H 0.97202 0.26062 0.29869 0.0
H523 H 0.01581 0.28334 0.23875 0.0
C524 C 0.92973 0.26475 0.41353 0.0
C525 C 0.89086 0.30997 0.44275 0.0
C526 C 0.96693 0.27765 0.38237 0.0
C527 C 0.96592 0.33611 0.37946 0.0
C528 C 0.92986 0.38207 0.41017 0.0
C529 C 0.89325 0.36921 0.44165 0.0
C530 C 0.05337 0.41764 0.31306 0.0
C531 C 0.04825 0.37444 0.2734 0.0
C532 C 0.02918 0.40465 0.34768 0.0
C533 C 0.99855 0.3482 0.34334 0.0
C534 C 0.99598 0.30428 0.30359 0.0
C535 C 0.02093 0.31718 0.26908 0.0
H536 H 0.97293 0.39525 0.78133 0.0
H537 H 0.84971 0.24638 0.79153 0.0
H538 H 0.05322 0.38554 0.83465 0.0
H539 H 0.92918 0.23707 0.84485 0.0
H540 H 0.13148 0.19211 0.90029 0.0
H541 H 0.05324 0.20571 0.84814 0.0
H542 H 0.05399 0.39853 0.91081 0.0
H543 H 0.13204 0.38514 0.96396 0.0
C544 C 0.96322 0.36034 0.79484 0.0
C545 C 0.90515 0.32145 0.78216 0.0
C546 C 0.00872 0.35518 0.82562 0.0
C547 C 0.99762 0.31045 0.84389 0.0
C548 C 0.93956 0.27162 0.83111 0.0
C549 C 0.89377 0.2772 0.80076 0.0
C550 C 0.11501 0.23755 0.90322 0.0
C551 C 0.13789 0.28753 0.93653 0.0
C552 C 0.06978 0.24524 0.87334 0.0
C553 C 0.04684 0.30315 0.87559 0.0
C554 C 0.07062 0.35338 0.90841 0.0
C555 C 0.11515 0.34564 0.93884 0.0
H556 H 0.13377 0.65049 0.58037 0.0
H557 H 0.11255 0.84444 0.63241 0.0
H558 H 0.05221 0.63874 0.63227 0.0
H559 H 0.03292 0.83281 0.68466 0.0
H560 H 0.83745 0.78991 0.74577 0.0
H561 H 0.91533 0.798 0.69162 0.0
H562 H 0.04646 0.65666 0.7069 0.0
H563 H 0.96707 0.64723 0.76036 0.0
C564 C 0.11184 0.69057 0.60291 0.0
C565 C 0.13069 0.74846 0.60277 0.0
C566 C 0.06544 0.68384 0.63276 0.0
C567 C 0.03616 0.73479 0.66275 0.0
C568 C 0.054 0.79254 0.66192 0.0
C569 C 0.10047 0.79925 0.63226 0.0
C570 C 0.88254 0.76016 0.73738 0.0
C571 C 0.89593 0.71792 0.75748 0.0
C572 C 0.92763 0.76521 0.70657 0.0
C573 C 0.98736 0.72812 0.69493 0.0
C574 C 1.00063 0.68559 0.71483 0.0
C575 C 0.95559 0.68069 0.74584 0.0
loop_
_geom_bond_atom_site_label_1
_geom_bond_atom_site_label_2
_geom_bond_distance
_geom_bond_site_symmetry_2
_ccdc_geom_bond_type
Tb0 N29 2.617 . S
Tb0 N35 2.572 . S
Tb0 O44 2.465 . S
Tb0 O45 2.387 1_556 S
Tb0 O47 2.428 . S
Tb0 O48 2.308 . S
Tb0 O52 2.349 . S
Tb0 O55 2.393 . S
Tb0 C64 2.802 . S
C1 N2 1.379 . S
C1 C4 1.416 . S
C1 C8 1.424 . S
N2 C1 1.379 . S
N2 C5 1.334 . S
N2 Tb11 2.617 . S
C3 C5 1.390 . S
C3 C6 1.339 . S
C3 H23 0.930 . S
C4 C1 1.416 . S
C4 C6 1.416 . S
C4 C10 1.448 1_455 S
C5 N2 1.334 . S
C5 C3 1.390 . S
C5 H16 0.930 . S
C6 C3 1.339 . S
C6 C4 1.416 . S
C6 H27 0.930 . S
C7 C8 1.413 1_655 S
C7 C9 1.427 . S
C7 C13 1.416 1_554 S
C8 C1 1.424 . S
C8 C7 1.413 1_455 S
C8 N12 1.361 . S
C9 C7 1.427 . S
C9 C10 1.328 . S
C9 H24 0.929 1_554 S
C10 C4 1.448 1_655 S
C10 C9 1.328 . S
C10 H25 0.930 . S
Tb11 N2 2.617 . S
Tb11 N12 2.572 . S
Tb11 O46 2.349 . S
Tb11 O49 2.393 . S
Tb11 O50 2.465 . S
Tb11 O51 2.387 1_554 S
Tb11 O53 2.428 . S
Tb11 O54 2.308 . S
Tb11 C75 2.802 . S
N12 C8 1.361 . S
N12 Tb11 2.572 . S
N12 C14 1.340 . S
C13 C7 1.416 1_556 S
C13 C15 1.332 1_556 S
C13 H21 0.931 . S
C14 N12 1.340 . S
C14 C15 1.407 1_455 S
C14 H20 0.930 . S
C15 C13 1.332 1_554 S
C15 C14 1.407 1_655 S
C15 H17 0.929 1_554 S
H16 C5 0.930 . S
H17 C15 0.929 1_556 S
H18 C33 0.930 . S
H19 C40 0.929 . S
H20 C14 0.930 . S
H21 C13 0.931 . S
H22 C36 0.930 . S
H23 C3 0.930 . S
H24 C9 0.929 1_556 S
H25 C10 0.930 . S
H26 C31 0.930 . S
H27 C6 0.930 . S
H28 C39 0.931 . S
N29 Tb0 2.617 . S
N29 C30 1.379 . S
N29 C33 1.334 . S
C30 N29 1.379 . S
C30 C32 1.416 . S
C30 C38 1.424 . S
C31 H26 0.930 . S
C31 C33 1.390 1_565 S
C31 C34 1.339 . S
C32 C30 1.416 . S
C32 C34 1.416 1_545 S
C32 C65 1.448 . S
C33 H18 0.930 . S
C33 N29 1.334 . S
C33 C31 1.390 1_545 S
C34 C31 1.339 . S
C34 C32 1.416 1_565 S
C34 H41 0.930 . S
N35 Tb0 2.572 . S
N35 C36 1.340 . S
N35 C38 1.361 . S
C36 H22 0.930 . S
C36 N35 1.340 . S
C36 C40 1.407 1_556 S
C37 C38 1.419 . S
C37 C39 1.417 1_556 S
C37 C66 1.420 1_556 S
C38 C30 1.424 . S
C38 N35 1.361 . S
C38 C37 1.419 . S
C39 H28 0.931 . S
C39 C37 1.417 1_554 S
C39 C40 1.332 . S
C40 H19 0.929 . S
C40 C36 1.407 1_554 S
C40 C39 1.332 . S
H41 C34 0.930 . S
H42 C65 0.930 1_565 S
H43 C66 0.929 . S
O44 Tb0 2.465 . S
O44 C64 1.264 . S
O45 Tb0 2.387 1_554 S
O45 C56 1.264 . S
O46 Tb11 2.349 . S
O46 C56 1.243 . S
O47 Tb0 2.428 . S
O47 C64 1.256 . S
O48 Tb0 2.308 . S
O48 C63 1.266 1_556 S
O49 Tb11 2.393 . S
O49 C63 1.248 . S
O50 Tb11 2.465 . S
O50 C75 1.264 . S
O51 Tb11 2.387 1_556 S
O51 C67 1.264 . S
O52 Tb0 2.349 . S
O52 C67 1.243 . S
O53 Tb11 2.428 . S
O53 C75 1.256 . S
O54 Tb11 2.308 . S
O54 C74 1.266 1_554 S
O55 Tb0 2.393 . S
O55 C74 1.248 . S
C56 O45 1.264 . S
C56 O46 1.243 . S
C57 C60 1.399 . S
C57 C62 1.383 . S
C57 C64 1.496 . S
C58 C59 1.399 . S
C58 C62 1.389 . S
C59 C58 1.399 . S
C59 C61 1.380 . S
C59 H76 0.929 . S
C60 C57 1.399 . S
C60 C61 1.392 . S
C60 H77 0.929 . S
C61 C59 1.380 . S
C61 C60 1.392 . S
C61 H78 0.929 . S
C62 C57 1.383 . S
C62 C58 1.389 . S
C62 H79 0.931 . S
C63 O48 1.266 1_554 S
C63 O49 1.248 . S
C64 Tb0 2.802 . S
C64 O44 1.264 . S
C64 O47 1.256 . S
C64 C57 1.496 . S
C65 C32 1.448 . S
C65 H42 0.930 1_545 S
C65 C66 1.328 1_556 S
C66 C37 1.420 1_554 S
C66 H43 0.929 . S
C66 C65 1.328 1_554 S
C67 O51 1.264 . S
C67 O52 1.243 . S
C68 C71 1.399 . S
C68 C72 1.383 . S
C68 C75 1.496 . S
C69 C70 1.399 . S
C69 C72 1.389 . S
C70 C69 1.399 . S
C70 C73 1.380 . S
C70 H80 0.929 . S
C71 C68 1.399 . S
C71 C73 1.392 . S
C71 H81 0.929 . S
C72 C68 1.383 . S
C72 C69 1.389 . S
C72 H82 0.931 . S
C73 C70 1.380 . S
C73 C71 1.392 . S
C73 H83 0.929 . S
C74 O54 1.266 1_556 S
C74 O55 1.248 . S
C75 Tb11 2.802 . S
C75 O50 1.264 . S
C75 O53 1.256 . S
C75 C68 1.496 . S
H76 C59 0.929 . S
H77 C60 0.929 . S
H78 C61 0.929 . S
H79 C62 0.931 . S
H80 C70 0.929 . S
H81 C71 0.929 . S
H82 C72 0.931 . S
H83 C73 0.929 . S
Tb84 N113 2.617 . S
Tb84 N119 2.572 . S
Tb84 O128 2.465 . S
Tb84 O129 2.387 1_556 S
Tb84 O131 2.428 . S
Tb84 O132 2.308 . S
Tb84 O136 2.349 . S
Tb84 O139 2.393 . S
Tb84 C148 2.802 . S
C85 N86 1.379 . S
C85 C88 1.416 . S
C85 C92 1.424 . S
N86 C85 1.379 . S
N86 C89 1.334 . S
N86 Tb95 2.617 . S
C87 C89 1.390 1_545 S
C87 C90 1.339 . S
C87 H107 0.930 . S
C88 C85 1.416 . S
C88 C90 1.416 1_565 S
C88 C94 1.448 . S
C89 N86 1.334 . S
C89 C87 1.390 1_565 S
C89 H100 0.930 . S
C90 C87 1.339 . S
C90 C88 1.416 1_545 S
C90 H111 0.930 . S
C91 C92 1.413 . S
C91 C93 1.427 . S
C91 C97 1.416 1_554 S
C92 C85 1.424 . S
C92 C91 1.413 . S
C92 N96 1.361 . S
C93 C91 1.427 . S
C93 C94 1.328 . S
C93 H108 0.929 1_554 S
C94 C88 1.448 . S
C94 C93 1.328 . S
C94 H109 0.930 1_565 S
Tb95 N86 2.617 . S
Tb95 N96 2.572 . S
Tb95 O130 2.349 . S
Tb95 O133 2.393 . S
Tb95 O134 2.465 . S
Tb95 O135 2.387 1_554 S
Tb95 O137 2.428 . S
Tb95 O138 2.308 . S
Tb95 C159 2.802 . S
N96 C92 1.361 . S
N96 Tb95 2.572 . S
N96 C98 1.340 . S
C97 C91 1.416 1_556 S
C97 C99 1.332 1_556 S
C97 H105 0.931 . S
C98 N96 1.340 . S
C98 C99 1.407 . S
C98 H104 0.930 . S
C99 C97 1.332 1_554 S
C99 C98 1.407 . S
C99 H101 0.929 1_554 S
H100 C89 0.930 . S
H101 C99 0.929 1_556 S
H102 C117 0.930 . S
H103 C124 0.929 . S
H104 C98 0.930 . S
H105 C97 0.931 . S
H106 C120 0.930 . S
H107 C87 0.930 . S
H108 C93 0.929 1_556 S
H109 C94 0.930 1_545 S
H110 C115 0.930 . S
H111 C90 0.930 . S
H112 C123 0.931 . S
N113 Tb84 2.617 . S
N113 C114 1.379 . S
N113 C117 1.334 . S
C114 N113 1.379 . S
C114 C116 1.416 . S
C114 C122 1.424 . S
C115 H110 0.930 . S
C115 C117 1.390 . S
C115 C118 1.339 . S
C116 C114 1.416 . S
C116 C118 1.416 . S
C116 C149 1.448 1_655 S
C117 H102 0.930 . S
C117 N113 1.334 . S
C117 C115 1.390 . S
C118 C115 1.339 . S
C118 C116 1.416 . S
C118 H125 0.930 . S
N119 Tb84 2.572 . S
N119 C120 1.340 . S
N119 C122 1.361 . S
C120 H106 0.930 . S
C120 N119 1.340 . S
C120 C124 1.407 1_656 S
C121 C122 1.419 1_455 S
C121 C123 1.417 1_556 S
C121 C150 1.420 1_556 S
C122 C114 1.424 . S
C122 N119 1.361 . S
C122 C121 1.419 1_655 S
C123 H112 0.931 . S
C123 C121 1.417 1_554 S
C123 C124 1.332 . S
C124 H103 0.929 . S
C124 C120 1.407 1_454 S
C124 C123 1.332 . S
H125 C118 0.930 . S
H126 C149 0.930 . S
H127 C150 0.929 . S
O128 Tb84 2.465 . S
O128 C148 1.264 . S
O129 Tb84 2.387 1_554 S
O129 C140 1.264 . S
O130 Tb95 2.349 . S
O130 C140 1.243 . S
O131 Tb84 2.428 . S
O131 C148 1.256 . S
O132 Tb84 2.308 . S
O132 C147 1.266 1_556 S
O133 Tb95 2.393 . S
O133 C147 1.248 . S
O134 Tb95 2.465 . S
O134 C159 1.264 . S
O135 Tb95 2.387 1_556 S
O135 C151 1.264 . S
O136 Tb84 2.349 . S
O136 C151 1.243 . S
O137 Tb95 2.428 . S
O137 C159 1.256 . S
O138 Tb95 2.308 . S
O138 C158 1.266 1_554 S
O139 Tb84 2.393 . S
O139 C158 1.248 . S
C140 O129 1.264 . S
C140 O130 1.243 . S
C141 C144 1.399 . S
C141 C146 1.383 . S
C141 C148 1.496 . S
C142 C143 1.399 . S
C142 C146 1.389 . S
C143 C142 1.399 . S
C143 C145 1.380 . S
C143 H160 0.929 . S
C144 C141 1.399 . S
C144 C145 1.392 . S
C144 H161 0.929 . S
C145 C143 1.380 . S
C145 C144 1.392 . S
C145 H162 0.929 . S
C146 C141 1.383 . S
C146 C142 1.389 . S
C146 H163 0.931 . S
C147 O132 1.266 1_554 S
C147 O133 1.248 . S
C148 Tb84 2.802 . S
C148 O128 1.264 . S
C148 O131 1.256 . S
C148 C141 1.496 . S
C149 C116 1.448 1_455 S
C149 H126 0.930 . S
C149 C150 1.328 1_556 S
C150 C121 1.420 1_554 S
C150 H127 0.929 . S
C150 C149 1.328 1_554 S
C151 O135 1.264 . S
C151 O136 1.243 . S
C152 C155 1.399 . S
C152 C156 1.383 . S
C152 C159 1.496 . S
C153 C154 1.399 . S
C153 C156 1.389 . S
C154 C153 1.399 . S
C154 C157 1.380 . S
C154 H164 0.929 . S
C155 C152 1.399 . S
C155 C157 1.392 . S
C155 H165 0.929 . S
C156 C152 1.383 . S
C156 C153 1.389 . S
C156 H166 0.931 . S
C157 C154 1.380 . S
C157 C155 1.392 . S
C157 H167 0.929 . S
C158 O138 1.266 1_556 S
C158 O139 1.248 . S
C159 Tb95 2.802 . S
C159 O134 1.264 . S
C159 O137 1.256 . S
C159 C152 1.496 . S
H160 C143 0.929 . S
H161 C144 0.929 . S
H162 C145 0.929 . S
H163 C146 0.931 . S
H164 C154 0.929 . S
H165 C155 0.929 . S
H166 C156 0.931 . S
H167 C157 0.929 . S
Tb168 N197 2.617 . S
Tb168 N203 2.572 . S
Tb168 O212 2.465 . S
Tb168 O213 2.387 . S
Tb168 O215 2.428 . S
Tb168 O216 2.308 . S
Tb168 O220 2.349 . S
Tb168 O223 2.393 . S
Tb168 C232 2.802 . S
C169 N170 1.379 . S
C169 C172 1.416 . S
C169 C176 1.424 . S
N170 C169 1.379 . S
N170 C173 1.334 . S
N170 Tb179 2.617 . S
C171 C173 1.390 . S
C171 C174 1.339 . S
C171 H191 0.930 . S
C172 C169 1.416 . S
C172 C174 1.416 . S
C172 C178 1.448 1_455 S
C173 N170 1.334 . S
C173 C171 1.390 . S
C173 H184 0.930 . S
C174 C171 1.339 . S
C174 C172 1.416 . S
C174 H195 0.930 . S
C175 C176 1.413 1_655 S
C175 C177 1.427 . S
C175 C181 1.416 . S
C176 C169 1.424 . S
C176 C175 1.413 1_455 S
C176 N180 1.361 . S
C177 C175 1.427 . S
C177 C178 1.328 . S
C177 H192 0.929 . S
C178 C172 1.448 1_655 S
C178 C177 1.328 . S
C178 H193 0.930 . S
Tb179 N170 2.617 . S
Tb179 N180 2.572 . S
Tb179 O214 2.349 . S
Tb179 O217 2.393 . S
Tb179 O218 2.465 . S
Tb179 O219 2.387 . S
Tb179 O221 2.428 . S
Tb179 O222 2.308 . S
Tb179 C243 2.802 . S
N180 C176 1.361 . S
N180 Tb179 2.572 . S
N180 C182 1.340 . S
C181 C175 1.416 . S
C181 C183 1.332 . S
C181 H189 0.931 . S
C182 N180 1.340 . S
C182 C183 1.407 1_455 S
C182 H188 0.930 . S
C183 C181 1.332 . S
C183 C182 1.407 1_655 S
C183 H185 0.929 . S
H184 C173 0.930 . S
H185 C183 0.929 . S
H186 C201 0.930 . S
H187 C208 0.929 . S
H188 C182 0.930 . S
H189 C181 0.931 . S
H190 C204 0.930 . S
H191 C171 0.930 . S
H192 C177 0.929 . S
H193 C178 0.930 . S
H194 C199 0.930 . S
H195 C174 0.930 . S
H196 C207 0.931 . S
N197 Tb168 2.617 . S
N197 C198 1.379 . S
N197 C201 1.334 . S
C198 N197 1.379 . S
C198 C200 1.416 . S
C198 C206 1.424 . S
C199 H194 0.930 . S
C199 C201 1.390 1_545 S
C199 C202 1.339 . S
C200 C198 1.416 . S
C200 C202 1.416 1_565 S
C200 C233 1.448 . S
C201 H186 0.930 . S
C201 N197 1.334 . S
C201 C199 1.390 1_565 S
C202 C199 1.339 . S
C202 C200 1.416 1_545 S
C202 H209 0.930 . S
N203 Tb168 2.572 . S
N203 C204 1.340 . S
N203 C206 1.361 . S
C204 H190 0.930 . S
C204 N203 1.340 . S
C204 C208 1.407 . S
C205 C206 1.413 . S
C205 C207 1.416 . S
C205 C234 1.427 . S
C206 C198 1.424 . S
C206 N203 1.361 . S
C206 C205 1.413 . S
C207 H196 0.931 . S
C207 C205 1.416 . S
C207 C208 1.332 . S
C208 H187 0.929 . S
C208 C204 1.407 . S
C208 C207 1.332 . S
H209 C202 0.930 . S
H210 C233 0.930 1_545 S
H211 C234 0.929 . S
O212 Tb168 2.465 . S
O212 C232 1.264 . S
O213 Tb168 2.387 . S
O213 C224 1.264 . S
O214 Tb179 2.349 . S
O214 C224 1.243 . S
O215 Tb168 2.428 . S
O215 C232 1.256 . S
O216 Tb168 2.308 . S
O216 C231 1.266 . S
O217 Tb179 2.393 . S
O217 C231 1.248 . S
O218 Tb179 2.465 . S
O218 C243 1.264 . S
O219 Tb179 2.387 . S
O219 C235 1.264 . S
O220 Tb168 2.349 . S
O220 C235 1.243 . S
O221 Tb179 2.428 . S
O221 C243 1.256 . S
O222 Tb179 2.308 . S
O222 C242 1.266 . S
O223 Tb168 2.393 . S
O223 C242 1.248 . S
C224 O213 1.264 . S
C224 O214 1.243 . S
C225 C228 1.399 . S
C225 C230 1.383 . S
C225 C232 1.496 . S
C226 C227 1.399 . S
C226 C230 1.389 . S
C227 C226 1.399 . S
C227 C229 1.380 . S
C227 H244 0.929 . S
C228 C225 1.399 . S
C228 C229 1.392 . S
C228 H245 0.929 . S
C229 C227 1.380 . S
C229 C228 1.392 . S
C229 H246 0.929 . S
C230 C225 1.383 . S
C230 C226 1.389 . S
C230 H247 0.931 . S
C231 O216 1.266 . S
C231 O217 1.248 . S
C232 Tb168 2.802 . S
C232 O212 1.264 . S
C232 O215 1.256 . S
C232 C225 1.496 . S
C233 C200 1.448 . S
C233 H210 0.930 1_565 S
C233 C234 1.328 . S
C234 C205 1.427 . S
C234 H211 0.929 . S
C234 C233 1.328 . S
C235 O219 1.264 . S
C235 O220 1.243 . S
C236 C239 1.399 . S
C236 C240 1.383 . S
C236 C243 1.496 . S
C237 C238 1.399 . S
C237 C240 1.389 . S
C238 C237 1.399 . S
C238 C241 1.380 . S
C238 H248 0.929 . S
C239 C236 1.399 . S
C239 C241 1.392 . S
C239 H249 0.929 . S
C240 C236 1.383 . S
C240 C237 1.389 . S
C240 H250 0.931 . S
C241 C238 1.380 . S
C241 C239 1.392 . S
C241 H251 0.929 . S
C242 O222 1.266 . S
C242 O223 1.248 . S
C243 Tb179 2.802 . S
C243 O218 1.264 . S
C243 O221 1.256 . S
C243 C236 1.496 . S
H244 C227 0.929 . S
H245 C228 0.929 . S
H246 C229 0.929 . S
H247 C230 0.931 . S
H248 C238 0.929 . S
H249 C239 0.929 . S
H250 C240 0.931 . S
H251 C241 0.929 . S
Tb252 N281 2.617 . S
Tb252 N287 2.572 . S
Tb252 O296 2.465 . S
Tb252 O297 2.387 . S
Tb252 O299 2.428 . S
Tb252 O300 2.308 . S
Tb252 O304 2.349 . S
Tb252 O307 2.393 . S
Tb252 C316 2.802 . S
C253 N254 1.379 . S
C253 C256 1.416 . S
C253 C260 1.424 . S
N254 C253 1.379 . S
N254 C257 1.334 . S
N254 Tb263 2.617 . S
C255 C257 1.390 1_565 S
C255 C258 1.339 . S
C255 H275 0.930 . S
C256 C253 1.416 . S
C256 C258 1.416 1_545 S
C256 C262 1.448 . S
C257 N254 1.334 . S
C257 C255 1.390 1_545 S
C257 H268 0.930 . S
C258 C255 1.339 . S
C258 C256 1.416 1_565 S
C258 H279 0.930 . S
C259 C260 1.413 . S
C259 C261 1.427 . S
C259 C265 1.416 . S
C260 C253 1.424 . S
C260 C259 1.413 . S
C260 N264 1.361 . S
C261 C259 1.427 . S
C261 C262 1.328 . S
C261 H276 0.929 . S
C262 C256 1.448 . S
C262 C261 1.328 . S
C262 H277 0.930 1_545 S
Tb263 N254 2.617 . S
Tb263 N264 2.572 . S
Tb263 O298 2.349 . S
Tb263 O301 2.393 . S
Tb263 O302 2.465 . S
Tb263 O303 2.387 . S
Tb263 O305 2.428 . S
Tb263 O306 2.308 . S
Tb263 C327 2.802 . S
N264 C260 1.361 . S
N264 Tb263 2.572 . S
N264 C266 1.340 . S
C265 C259 1.416 . S
C265 C267 1.332 . S
C265 H273 0.931 . S
C266 N264 1.340 . S
C266 C267 1.407 . S
C266 H272 0.930 . S
C267 C265 1.332 . S
C267 C266 1.407 . S
C267 H269 0.929 . S
H268 C257 0.930 . S
H269 C267 0.929 . S
H270 C285 0.930 . S
H271 C292 0.929 . S
H272 C266 0.930 . S
H273 C265 0.931 . S
H274 C288 0.930 . S
H275 C255 0.930 . S
H276 C261 0.929 . S
H277 C262 0.930 1_565 S
H278 C283 0.930 . S
H279 C258 0.930 . S
H280 C291 0.931 . S
N281 Tb252 2.617 . S
N281 C282 1.379 . S
N281 C285 1.334 . S
C282 N281 1.379 . S
C282 C284 1.416 . S
C282 C290 1.424 . S
C283 H278 0.930 . S
C283 C285 1.390 . S
C283 C286 1.339 . S
C284 C282 1.416 . S
C284 C286 1.416 . S
C284 C317 1.448 1_655 S
C285 H270 0.930 . S
C285 N281 1.334 . S
C285 C283 1.390 . S
C286 C283 1.339 . S
C286 C284 1.416 . S
C286 H293 0.930 . S
N287 Tb252 2.572 . S
N287 C288 1.340 . S
N287 C290 1.361 . S
C288 H274 0.930 . S
C288 N287 1.340 . S
C288 C292 1.407 1_655 S
C289 C290 1.413 1_455 S
C289 C291 1.416 . S
C289 C318 1.427 . S
C290 C282 1.424 . S
C290 N287 1.361 . S
C290 C289 1.413 1_655 S
C291 H280 0.931 . S
C291 C289 1.416 . S
C291 C292 1.332 . S
C292 H271 0.929 . S
C292 C288 1.407 1_455 S
C292 C291 1.332 . S
H293 C286 0.930 . S
H294 C317 0.930 . S
H295 C318 0.929 . S
O296 Tb252 2.465 . S
O296 C316 1.264 . S
O297 Tb252 2.387 . S
O297 C308 1.264 . S
O298 Tb263 2.349 . S
O298 C308 1.243 . S
O299 Tb252 2.428 . S
O299 C316 1.256 . S
O300 Tb252 2.308 . S
O300 C315 1.266 . S
O301 Tb263 2.393 . S
O301 C315 1.248 . S
O302 Tb263 2.465 . S
O302 C327 1.264 . S
O303 Tb263 2.387 . S
O303 C319 1.264 . S
O304 Tb252 2.349 . S
O304 C319 1.243 . S
O305 Tb263 2.428 . S
O305 C327 1.256 . S
O306 Tb263 2.308 . S
O306 C326 1.266 . S
O307 Tb252 2.393 . S
O307 C326 1.248 . S
C308 O297 1.264 . S
C308 O298 1.243 . S
C309 C312 1.399 . S
C309 C314 1.383 . S
C309 C316 1.496 . S
C310 C311 1.399 . S
C310 C314 1.389 . S
C311 C310 1.399 . S
C311 C313 1.380 . S
C311 H328 0.929 . S
C312 C309 1.399 . S
C312 C313 1.392 . S
C312 H329 0.929 . S
C313 C311 1.380 . S
C313 C312 1.392 . S
C313 H330 0.929 . S
C314 C309 1.383 . S
C314 C310 1.389 . S
C314 H331 0.931 . S
C315 O300 1.266 . S
C315 O301 1.248 . S
C316 Tb252 2.802 . S
C316 O296 1.264 . S
C316 O299 1.256 . S
C316 C309 1.496 . S
C317 C284 1.448 1_455 S
C317 H294 0.930 . S
C317 C318 1.328 . S
C318 C289 1.427 . S
C318 H295 0.929 . S
C318 C317 1.328 . S
C319 O303 1.264 . S
C319 O304 1.243 . S
C320 C323 1.399 . S
C320 C324 1.383 . S
C320 C327 1.496 . S
C321 C322 1.399 . S
C321 C324 1.389 . S
C322 C321 1.399 . S
C322 C325 1.380 . S
C322 H332 0.929 . S
C323 C320 1.399 . S
C323 C325 1.392 . S
C323 H333 0.929 . S
C324 C320 1.383 . S
C324 C321 1.389 . S
C324 H334 0.931 . S
C325 C322 1.380 . S
C325 C323 1.392 . S
C325 H335 0.929 . S
C326 O306 1.266 . S
C326 O307 1.248 . S
C327 Tb263 2.802 . S
C327 O302 1.264 . S
C327 O305 1.256 . S
C327 C320 1.496 . S
H328 C311 0.929 . S
H329 C312 0.929 . S
H330 C313 0.929 . S
H331 C314 0.931 . S
H332 C322 0.929 . S
H333 C323 0.929 . S
H334 C324 0.931 . S
H335 C325 0.929 . S
H336 C344 0.950 . S
H337 C349 0.950 . S
H338 C346 0.950 . S
H339 C348 0.950 . S
H340 C350 0.950 . S
H341 C352 0.950 . S
H342 C354 0.950 . S
H343 C355 0.950 . S
C344 H336 0.950 . S
C344 C345 1.386 . S
C344 C346 1.391 . S
C345 C344 1.386 . S
C345 C349 1.393 1_554 S
C346 H338 0.950 . S
C346 C344 1.391 . S
C346 C347 1.400 . S
C347 C346 1.400 . S
C347 C348 1.398 1_554 S
C347 C353 1.491 . S
C348 H339 0.950 . S
C348 C347 1.398 1_556 S
C348 C349 1.391 . S
C349 H337 0.950 . S
C349 C345 1.393 1_556 S
C349 C348 1.391 . S
C350 H340 0.950 . S
C350 C351 1.386 1_556 S
C350 C352 1.391 . S
C351 C350 1.386 1_554 S
C351 C355 1.393 . S
C352 H341 0.950 . S
C352 C350 1.391 . S
C352 C353 1.400 1_556 S
C353 C347 1.491 . S
C353 C352 1.400 1_554 S
C353 C354 1.398 . S
C354 H342 0.950 . S
C354 C353 1.398 . S
C354 C355 1.391 . S
C355 H343 0.950 . S
C355 C351 1.393 . S
C355 C354 1.391 . S
H356 C364 0.950 . S
H357 C369 0.950 . S
H358 C366 0.950 . S
H359 C368 0.950 . S
H360 C370 0.950 . S
H361 C372 0.950 . S
H362 C374 0.950 . S
H363 C375 0.950 . S
C364 H356 0.950 . S
C364 C365 1.386 . S
C364 C366 1.391 . S
C365 C364 1.386 . S
C365 C369 1.393 . S
C366 H358 0.950 . S
C366 C364 1.391 . S
C366 C367 1.400 . S
C367 C366 1.400 . S
C367 C368 1.398 . S
C367 C373 1.491 . S
C368 H359 0.950 . S
C368 C367 1.398 . S
C368 C369 1.391 . S
C369 H357 0.950 . S
C369 C365 1.393 . S
C369 C368 1.391 . S
C370 H360 0.950 . S
C370 C371 1.386 . S
C370 C372 1.391 . S
C371 C370 1.386 . S
C371 C375 1.393 . S
C372 H361 0.950 . S
C372 C370 1.391 . S
C372 C373 1.400 . S
C373 C367 1.491 . S
C373 C372 1.400 . S
C373 C374 1.398 . S
C374 H362 0.950 . S
C374 C373 1.398 . S
C374 C375 1.391 . S
C375 H363 0.950 . S
C375 C371 1.393 . S
C375 C374 1.391 . S
H376 C384 0.950 . S
H377 C389 0.950 . S
H378 C386 0.950 1_565 S
H379 C388 0.950 1_655 S
H380 C390 0.950 . S
H381 C392 0.950 1_545 S
H382 C394 0.950 1_455 S
H383 C395 0.950 . S
C384 H376 0.950 . S
C384 C385 1.386 . S
C384 C386 1.391 . S
C385 C384 1.386 . S
C385 C389 1.393 1_554 S
C386 H378 0.950 1_545 S
C386 C384 1.391 . S
C386 C387 1.400 . S
C387 C386 1.400 . S
C387 C388 1.398 1_554 S
C387 C393 1.491 1_445 S
C388 H379 0.950 1_455 S
C388 C387 1.398 1_556 S
C388 C389 1.391 . S
C389 H377 0.950 . S
C389 C385 1.393 1_556 S
C389 C388 1.391 . S
C390 H380 0.950 . S
C390 C391 1.386 1_556 S
C390 C392 1.391 . S
C391 C390 1.386 1_554 S
C391 C395 1.393 . S
C392 H381 0.950 1_565 S
C392 C390 1.391 . S
C392 C393 1.400 1_556 S
C393 C387 1.491 1_665 S
C393 C392 1.400 1_554 S
C393 C394 1.398 . S
C394 H382 0.950 1_655 S
C394 C393 1.398 . S
C394 C395 1.391 . S
C395 H383 0.950 . S
C395 C391 1.393 . S
C395 C394 1.391 . S
H396 C404 0.950 . S
H397 C409 0.950 . S
H398 C406 0.950 1_455 S
H399 C408 0.950 1_565 S
H400 C410 0.950 . S
H401 C412 0.950 1_655 S
H402 C414 0.950 1_545 S
H403 C415 0.950 . S
C404 H396 0.950 . S
C404 C405 1.386 . S
C404 C406 1.391 . S
C405 C404 1.386 . S
C405 C409 1.393 . S
C406 H398 0.950 1_655 S
C406 C404 1.391 . S
C406 C407 1.400 . S
C407 C406 1.400 . S
C407 C408 1.398 . S
C407 C413 1.491 1_645 S
C408 H399 0.950 1_545 S
C408 C407 1.398 . S
C408 C409 1.391 . S
C409 H397 0.950 . S
C409 C405 1.393 . S
C409 C408 1.391 . S
C410 H400 0.950 . S
C410 C411 1.386 . S
C410 C412 1.391 . S
C411 C410 1.386 . S
C411 C415 1.393 . S
C412 H401 0.950 1_455 S
C412 C410 1.391 . S
C412 C413 1.400 . S
C413 C407 1.491 1_465 S
C413 C412 1.400 . S
C413 C414 1.398 . S
C414 H402 0.950 1_565 S
C414 C413 1.398 . S
C414 C415 1.391 . S
C415 H403 0.950 . S
C415 C411 1.393 . S
C415 C414 1.391 . S
H416 C424 0.950 . S
H417 C429 0.950 . S
H418 C426 0.950 . S
H419 C428 0.950 . S
H420 C430 0.950 . S
H421 C432 0.950 . S
H422 C434 0.950 . S
H423 C435 0.950 . S
C424 H416 0.950 . S
C424 C425 1.386 . S
C424 C426 1.391 . S
C425 C424 1.386 . S
C425 C429 1.393 . S
C426 H418 0.950 . S
C426 C424 1.391 . S
C426 C427 1.400 . S
C427 C426 1.400 . S
C427 C428 1.398 . S
C427 C433 1.491 . S
C428 H419 0.950 . S
C428 C427 1.398 . S
C428 C429 1.391 . S
C429 H417 0.950 . S
C429 C425 1.393 . S
C429 C428 1.391 . S
C430 H420 0.950 . S
C430 C431 1.386 . S
C430 C432 1.391 . S
C431 C430 1.386 . S
C431 C435 1.393 . S
C432 H421 0.950 . S
C432 C430 1.391 . S
C432 C433 1.400 . S
C433 C427 1.491 . S
C433 C432 1.400 . S
C433 C434 1.398 . S
C434 H422 0.950 . S
C434 C433 1.398 . S
C434 C435 1.391 . S
C435 H423 0.950 . S
C435 C431 1.393 . S
C435 C434 1.391 . S
H436 C444 0.950 . S
H437 C449 0.950 . S
H438 C446 0.950 . S
H439 C448 0.950 . S
H440 C450 0.950 . S
H441 C452 0.950 . S
H442 C454 0.950 . S
H443 C455 0.950 . S
C444 H436 0.950 . S
C444 C445 1.386 . S
C444 C446 1.391 . S
C445 C444 1.386 . S
C445 C449 1.393 . S
C446 H438 0.950 . S
C446 C444 1.391 . S
C446 C447 1.400 . S
C447 C446 1.400 . S
C447 C448 1.398 . S
C447 C453 1.491 . S
C448 H439 0.950 . S
C448 C447 1.398 . S
C448 C449 1.391 . S
C449 H437 0.950 . S
C449 C445 1.393 . S
C449 C448 1.391 . S
C450 H440 0.950 . S
C450 C451 1.386 . S
C450 C452 1.391 . S
C451 C450 1.386 . S
C451 C455 1.393 . S
C452 H441 0.950 . S
C452 C450 1.391 . S
C452 C453 1.400 . S
C453 C447 1.491 . S
C453 C452 1.400 . S
C453 C454 1.398 . S
C454 H442 0.950 . S
C454 C453 1.398 . S
C454 C455 1.391 . S
C455 H443 0.950 . S
C455 C451 1.393 . S
C455 C454 1.391 . S
H456 C464 0.950 . S
H457 C469 0.950 . S
H458 C466 0.950 . S
H459 C468 0.950 . S
H460 C470 0.950 . S
H461 C472 0.950 . S
H462 C474 0.950 . S
H463 C475 0.950 . S
C464 H456 0.950 . S
C464 C465 1.386 . S
C464 C466 1.391 . S
C465 C464 1.386 . S
C465 C469 1.393 . S
C466 H458 0.950 . S
C466 C464 1.391 . S
C466 C467 1.400 . S
C467 C466 1.400 . S
C467 C468 1.398 . S
C467 C473 1.491 . S
C468 H459 0.950 . S
C468 C467 1.398 . S
C468 C469 1.391 . S
C469 H457 0.950 . S
C469 C465 1.393 . S
C469 C468 1.391 . S
C470 H460 0.950 . S
C470 C471 1.386 . S
C470 C472 1.391 . S
C471 C470 1.386 . S
C471 C475 1.393 . S
C472 H461 0.950 . S
C472 C470 1.391 . S
C472 C473 1.400 . S
C473 C467 1.491 . S
C473 C472 1.400 . S
C473 C474 1.398 . S
C474 H462 0.950 . S
C474 C473 1.398 . S
C474 C475 1.391 . S
C475 H463 0.950 . S
C475 C471 1.393 . S
C475 C474 1.391 . S
H476 C484 0.950 . S
H477 C489 0.950 . S
H478 C486 0.950 . S
H479 C488 0.950 . S
H480 C490 0.950 . S
H481 C492 0.950 . S
H482 C494 0.950 . S
H483 C495 0.950 . S
C484 H476 0.950 . S
C484 C485 1.386 . S
C484 C486 1.391 . S
C485 C484 1.386 . S
C485 C489 1.393 . S
C486 H478 0.950 . S
C486 C484 1.391 . S
C486 C487 1.400 . S
C487 C486 1.400 . S
C487 C488 1.398 . S
C487 C493 1.491 . S
C488 H479 0.950 . S
C488 C487 1.398 . S
C488 C489 1.391 . S
C489 H477 0.950 . S
C489 C485 1.393 . S
C489 C488 1.391 . S
C490 H480 0.950 . S
C490 C491 1.386 . S
C490 C492 1.391 . S
C491 C490 1.386 . S
C491 C495 1.393 . S
C492 H481 0.950 . S
C492 C490 1.391 . S
C492 C493 1.400 . S
C493 C487 1.491 . S
C493 C492 1.400 . S
C493 C494 1.398 . S
C494 H482 0.950 . S
C494 C493 1.398 . S
C494 C495 1.391 . S
C495 H483 0.950 . S
C495 C491 1.393 . S
C495 C494 1.391 . S
H496 C504 0.950 . S
H497 C509 0.950 . S
H498 C506 0.950 . S
H499 C508 0.950 . S
H500 C510 0.950 . S
H501 C512 0.950 . S
H502 C514 0.950 . S
H503 C515 0.950 . S
C504 H496 0.950 . S
C504 C505 1.386 . S
C504 C506 1.391 . S
C505 C504 1.386 . S
C505 C509 1.393 . S
C506 H498 0.950 . S
C506 C504 1.391 . S
C506 C507 1.400 . S
C507 C506 1.400 . S
C507 C508 1.398 . S
C507 C513 1.491 . S
C508 H499 0.950 . S
C508 C507 1.398 . S
C508 C509 1.391 . S
C509 H497 0.950 . S
C509 C505 1.393 . S
C509 C508 1.391 . S
C510 H500 0.950 . S
C510 C511 1.386 . S
C510 C512 1.391 1_455 S
C511 C510 1.386 . S
C511 C515 1.393 1_455 S
C512 H501 0.950 . S
C512 C510 1.391 1_655 S
C512 C513 1.400 . S
C513 C507 1.491 . S
C513 C512 1.400 . S
C513 C514 1.398 . S
C514 H502 0.950 . S
C514 C513 1.398 . S
C514 C515 1.391 . S
C515 H503 0.950 . S
C515 C511 1.393 1_655 S
C515 C514 1.391 . S
H516 C524 0.950 . S
H517 C529 0.950 . S
H518 C526 0.950 . S
H519 C528 0.950 . S
H520 C530 0.950 . S
H521 C532 0.950 1_455 S
H522 C534 0.950 . S
H523 C535 0.950 . S
C524 H516 0.950 . S
C524 C525 1.386 . S
C524 C526 1.391 . S
C525 C524 1.386 . S
C525 C529 1.393 . S
C526 H518 0.950 . S
C526 C524 1.391 . S
C526 C527 1.400 . S
C527 C526 1.400 . S
C527 C528 1.398 . S
C527 C533 1.491 . S
C528 H519 0.950 . S
C528 C527 1.398 . S
C528 C529 1.391 . S
C529 H517 0.950 . S
C529 C525 1.393 . S
C529 C528 1.391 . S
C530 H520 0.950 . S
C530 C531 1.386 . S
C530 C532 1.391 1_455 S
C531 C530 1.386 . S
C531 C535 1.393 1_455 S
C532 H521 0.950 1_655 S
C532 C530 1.391 1_655 S
C532 C533 1.400 . S
C533 C527 1.491 . S
C533 C532 1.400 . S
C533 C534 1.398 . S
C534 H522 0.950 . S
C534 C533 1.398 . S
C534 C535 1.391 . S
C535 H523 0.950 . S
C535 C531 1.393 1_655 S
C535 C534 1.391 . S
H536 C544 0.950 . S
H537 C549 0.950 . S
H538 C546 0.950 . S
H539 C548 0.950 . S
H540 C550 0.950 . S
H541 C552 0.950 . S
H542 C554 0.950 . S
H543 C555 0.950 . S
C544 H536 0.950 . S
C544 C545 1.386 1_455 S
C544 C546 1.391 . S
C545 C544 1.386 1_655 S
C545 C549 1.393 . S
C546 H538 0.950 . S
C546 C544 1.391 . S
C546 C547 1.400 . S
C547 C546 1.400 . S
C547 C548 1.398 . S
C547 C553 1.491 . S
C548 H539 0.950 . S
C548 C547 1.398 . S
C548 C549 1.391 1_455 S
C549 H537 0.950 . S
C549 C545 1.393 . S
C549 C548 1.391 1_655 S
C550 H540 0.950 . S
C550 C551 1.386 . S
C550 C552 1.391 . S
C551 C550 1.386 . S
C551 C555 1.393 . S
C552 H541 0.950 . S
C552 C550 1.391 . S
C552 C553 1.400 . S
C553 C547 1.491 . S
C553 C552 1.400 . S
C553 C554 1.398 . S
C554 H542 0.950 . S
C554 C553 1.398 . S
C554 C555 1.391 . S
C555 H543 0.950 . S
C555 C551 1.393 . S
C555 C554 1.391 . S
H556 C564 0.950 . S
H557 C569 0.950 . S
H558 C566 0.950 . S
H559 C568 0.950 . S
H560 C570 0.950 . S
H561 C572 0.950 . S
H562 C574 0.950 . S
H563 C575 0.950 . S
C564 H556 0.950 . S
C564 C565 1.386 . S
C564 C566 1.391 . S
C565 C564 1.386 . S
C565 C569 1.393 . S
C566 H558 0.950 . S
C566 C564 1.391 . S
C566 C567 1.400 . S
C567 C566 1.400 . S
C567 C568 1.398 . S
C567 C573 1.491 . S
C568 H559 0.950 . S
C568 C567 1.398 . S
C568 C569 1.391 . S
C569 H557 0.950 . S
C569 C565 1.393 . S
C569 C568 1.391 . S
C570 H560 0.950 . S
C570 C571 1.386 . S
C570 C572 1.391 1_655 S
C571 C570 1.386 . S
C571 C575 1.393 1_655 S
C572 H561 0.950 . S
C572 C570 1.391 1_455 S
C572 C573 1.400 . S
C573 C567 1.491 . S
C573 C572 1.400 . S
C573 C574 1.398 . S
C574 H562 0.950 . S
C574 C573 1.398 . S
C574 C575 1.391 . S
C575 H563 0.950 . S
C575 C571 1.393 1_455 S
C575 C574 1.391 . S
C345 C158 1.510 1_554 S
C351 C63 1.510 . S
C365 C231 1.516 . S
C371 C326 1.516 . S
C385 C74 1.515 1_554 S
C391 C147 1.515 . S
C405 C315 1.516 . S
C411 C242 1.516 . S
C425 C321 1.253 . S
C431 C56 1.311 . S
C445 C153 1.249 . S
C451 C224 1.314 . S
C465 C151 1.314 . S
C471 C226 1.250 . S
C485 C319 1.310 . S
C491 C58 1.253 . S
C505 C140 1.304 . S
C511 C237 1.235 . S
C525 C308 1.304 . S
C531 C69 1.240 . S
C545 C310 1.223 . S
C551 C67 1.305 . S
C565 C235 1.307 . S
C571 C142 1.216 . S
