# Generated by pormake.
# Topology uni, (4)-cn, num edge types: 1
# Building blocks:
#     Node 0, Type 0, BuildingBlock: QUQFOY_clean_sbu_1, # of connection points: 4
#     Node 1, Type 0, BuildingBlock: QUQFOY_clean_sbu_1, # of connection points: 4
#     Node 2, Type 0, BuildingBlock: QUQFOY_clean_sbu_1, # of connection points: 4
#     Node 3, Type 0, BuildingBlock: QUQFOY_clean_sbu_1, # of connection points: 4
#     Node 4, Type 0, BuildingBlock: QUQFOY_clean_sbu_1, # of connection points: 4
#     Node 5, Type 0, BuildingBlock: QUQFOY_clean_sbu_1, # of connection points: 4
#     Edge 6, Type (0, 0), BuildingBlock: MIFKUJ_clean_linker_0, # of connection points: 2
#     Edge 7, Type (0, 0), BuildingBlock: MIFKUJ_clean_linker_0, # of connection points: 2
#     Edge 8, Type (0, 0), BuildingBlock: MIFKUJ_clean_linker_0, # of connection points: 2
#     Edge 9, Type (0, 0), BuildingBlock: MIFKUJ_clean_linker_0, # of connection points: 2
#     Edge 10, Type (0, 0), BuildingBlock: MIFKUJ_clean_linker_0, # of connection points: 2
#     Edge 11, Type (0, 0), BuildingBlock: MIFKUJ_clean_linker_0, # of connection points: 2
#     Edge 12, Type (0, 0), BuildingBlock: MIFKUJ_clean_linker_0, # of connection points: 2
#     Edge 13, Type (0, 0), BuildingBlock: MIFKUJ_clean_linker_0, # of connection points: 2
#     Edge 14, Type (0, 0), BuildingBlock: MIFKUJ_clean_linker_0, # of connection points: 2
#     Edge 15, Type (0, 0), BuildingBlock: MIFKUJ_clean_linker_0, # of connection points: 2
#     Edge 16, Type (0, 0), BuildingBlock: MIFKUJ_clean_linker_0, # of connection points: 2
#     Edge 17, Type (0, 0), BuildingBlock: MIFKUJ_clean_linker_0, # of connection points: 2
# Relax obj value: 0.072
# Max RMSD: 0.154
# Mean RMSD: 0.154
data_MOF--net-uni--node1-QUQFOY_clean_sbu_1--edge1-MIFKUJ_clean_linker_0
_symmetry_space_group_name_H-M    P1
_symmetry_Int_Tables_number       1
_symmetry_cell_setting            triclinic
loop_
_symmetry_equiv_pos_as_xyz
'x, y, z'
_cell_length_a     54.690924
_cell_length_b     54.70137
_cell_length_c     28.523092
_cell_angle_alpha  89.965921
_cell_angle_beta   90.018652
_cell_angle_gamma 120.06587
loop_
_atom_site_label
_atom_site_type_symbol
_atom_site_fract_x
_atom_site_fract_y
_atom_site_fract_z
_atom_type_partial_charge
O0 O 0.63953 0.04775 0.01358 0.0
Cd1 Cd 0.66421 0.05497 0.07256 0.0
Cd2 Cd 0.6351 0.99642 0.07095 0.0
O3 O 0.62195 1.00181 0.00615 0.0
O4 O 0.69081 0.09647 0.06959 0.0
O5 O 0.70516 0.06534 0.06546 0.0
C6 C 0.71125 0.0914 0.06463 0.0
C7 C 0.64494 0.95965 0.08157 0.0
C8 C 0.62453 0.02488 0.99125 0.0
C9 C 0.62266 0.02608 0.14911 0.0
O10 O 0.61548 1.00343 0.12663 0.0
O11 O 0.64384 0.04928 0.13615 0.0
O12 O 0.61966 0.95487 0.07469 0.0
O13 O 0.66516 0.98562 0.0814 0.0
O14 O 0.61682 0.63338 0.16903 0.0
Cd15 Cd 0.63186 0.65983 0.22637 0.0
Cd16 Cd 0.66152 0.6304 0.23733 0.0
O17 O 0.64273 0.61293 0.17384 0.0
O18 O 0.61653 0.68555 0.21515 0.0
O19 O 0.66225 0.70085 0.21848 0.0
C20 C 0.64206 0.70627 0.21214 0.0
C21 C 0.70808 0.64032 0.24947 0.0
C22 C 0.62398 0.61618 0.15309 0.0
C23 C 0.61834 0.62299 0.31134 0.0
O24 O 0.63552 0.61582 0.2953 0.0
O25 O 0.61485 0.64154 0.29039 0.0
O26 O 0.68717 0.61485 0.24741 0.0
O27 O 0.70273 0.66061 0.24395 0.0
O28 O 0.00978 0.61659 0.3386 0.0
Cd29 Cd 0.99594 0.62957 0.3955 0.0
Cd30 Cd 0.05516 0.65946 0.41217 0.0
O31 O 0.05595 0.64161 0.34883 0.0
O32 O 0.95516 0.6137 0.38057 0.0
O33 O 0.9846 0.65945 0.38818 0.0
C34 C 0.95941 0.63906 0.3792 0.0
C35 C 0.09169 0.70555 0.42835 0.0
C36 C 0.03468 0.62376 0.32539 0.0
C37 C 0.01661 0.61478 0.48249 0.0
O38 O 0.04145 0.6327 0.46922 0.0
O39 O 0.99526 0.61106 0.45899 0.0
O40 O 0.09594 0.68445 0.42709 0.0
O41 O 0.06651 0.70071 0.41931 0.0
O42 O 0.41776 1.00134 0.52234 0.0
Cd43 Cd 0.38982 0.99329 0.5764 0.0
Cd44 Cd 0.4179 0.05174 0.57628 0.0
O45 O 0.43327 0.04686 0.51274 0.0
O46 O 0.36342 0.95184 0.57122 0.0
O47 O 0.34933 0.98305 0.5638 0.0
C48 C 0.34324 0.95698 0.56341 0.0
C49 C 0.40741 0.08821 0.58404 0.0
C50 C 0.43256 0.02425 0.50006 0.0
C51 C 0.42711 0.02134 0.65777 0.0
O52 O 0.4349 0.04431 0.63578 0.0
O53 O 0.40711 0.9982 0.64203 0.0
O54 O 0.43294 0.09322 0.57987 0.0
O55 O 0.38734 0.06218 0.58263 0.0
O56 O 0.43341 0.41363 0.66804 0.0
Cd57 Cd 0.41908 0.38731 0.72553 0.0
Cd58 Cd 0.38934 0.41651 0.73843 0.0
O59 O 0.40847 0.43498 0.67564 0.0
O60 O 0.43442 0.36169 0.71337 0.0
O61 O 0.38871 0.34622 0.71851 0.0
C62 C 0.40888 0.34089 0.71123 0.0
C63 C 0.34264 0.4062 0.75024 0.0
C64 C 0.42665 0.43144 0.65361 0.0
C65 C 0.4329 0.42371 0.81128 0.0
O66 O 0.41506 0.43039 0.79667 0.0
O67 O 0.43686 0.40586 0.78902 0.0
O68 O 0.36347 0.43174 0.74906 0.0
O69 O 0.34816 0.38607 0.74411 0.0
O70 O 0.0432 0.43284 0.84046 0.0
Cd71 Cd 0.05633 0.4187 0.89681 0.0
Cd72 Cd 0.99757 0.38935 0.91193 0.0
O73 O 0.99692 0.4072 0.84845 0.0
O74 O 0.09705 0.43405 0.88208 0.0
O75 O 0.067 0.38838 0.88881 0.0
C76 C 0.09235 0.40854 0.88013 0.0
C77 C 0.96145 0.34313 0.9285 0.0
C78 C 0.01846 0.42568 0.82629 0.0
C79 C 0.03561 0.4338 0.98287 0.0
O80 O 0.01084 0.41636 0.96863 0.0
O81 O 0.0571 0.43694 0.96053 0.0
O82 O 0.95682 0.36397 0.92664 0.0
O83 O 0.98676 0.34829 0.91968 0.0
H84 H 0.56649 0.98994 0.15829 0.0
H85 H 0.53437 0.99128 0.21569 0.0
H86 H 0.60458 0.06191 0.2845 0.0
H87 H 0.63669 0.0618 0.22461 0.0
H88 H 0.52595 0.98236 0.29956 0.0
H89 H 0.58432 0.10258 0.34178 0.0
H90 H 0.61523 0.14797 0.30218 0.0
H91 H 0.58193 0.10957 0.1685 0.0
H92 H 0.55058 0.06408 0.20733 0.0
H93 H 0.46341 0.99829 0.50076 0.0
H94 H 0.49648 1.00041 0.44157 0.0
H95 H 0.47671 0.053 0.35486 0.0
H96 H 0.44517 0.05274 0.41644 0.0
H97 H 0.52822 0.07093 0.3452 0.0
H98 H 0.44929 0.9781 0.33512 0.0
H99 H 0.41217 0.93139 0.363 0.0
H100 H 0.47549 0.9126 0.4104 0.0
H101 H 0.51301 0.95935 0.38334 0.0
C102 C 0.57515 0.00571 0.18576 0.0
C103 C 0.60411 0.02577 0.18701 0.0
C104 C 0.55671 0.00647 0.21867 0.0
C105 C 0.56684 0.02691 0.25433 0.0
C106 C 0.59602 0.04639 0.25667 0.0
C107 C 0.61443 0.04616 0.22277 0.0
C108 C 0.54668 0.0274 0.28893 0.0
C109 C 0.52648 1.00178 0.30935 0.0
C110 C 0.54669 0.05254 0.30109 0.0
C111 C 0.56535 0.07986 0.27746 0.0
C112 C 0.58354 0.10386 0.30395 0.0
C113 C 0.60114 0.1296 0.28163 0.0
C114 C 0.60062 0.13163 0.23284 0.0
C115 C 0.58241 0.10795 0.20627 0.0
C116 C 0.56474 0.08217 0.22841 0.0
C117 C 0.46606 0.01021 0.46894 0.0
C118 C 0.45149 0.02501 0.46269 0.0
C119 C 0.48487 0.0113 0.43495 0.0
C120 C 0.48857 0.02615 0.39289 0.0
C121 C 0.47418 0.04125 0.38682 0.0
C122 C 0.45604 0.04098 0.42176 0.0
C123 C 0.50753 0.02588 0.35566 0.0
C124 C 0.5276 0.05153 0.33506 0.0
C125 C 0.50645 1.00054 0.34136 0.0
C126 C 0.48396 0.97232 0.35753 0.0
C127 C 0.4553 0.96407 0.35174 0.0
C128 C 0.43419 0.93758 0.36737 0.0
C129 C 0.44147 0.91907 0.38855 0.0
C130 C 0.46988 0.92697 0.39402 0.0
C131 C 0.49108 0.95345 0.37849 0.0
H132 H 0.4251 0.89857 0.40064 0.0
H133 H 0.61427 0.15156 0.21564 0.0
H134 H 0.61702 0.57904 0.35904 0.0
H135 H 0.58247 0.54864 0.41722 0.0
H136 H 0.54337 0.6002 0.41319 0.0
H137 H 0.57792 0.63091 0.35454 0.0
H138 H 0.54772 0.5816 0.50529 0.0
H139 H 0.51368 0.54353 0.35228 0.0
H140 H 0.51693 0.52749 0.27311 0.0
H141 H 0.53168 0.46379 0.33224 0.0
H142 H 0.529 0.47982 0.41193 0.0
H143 H 0.42346 0.47674 0.6198 0.0
H144 H 0.4538 0.51085 0.56054 0.0
H145 H 0.49603 0.46305 0.53891 0.0
H146 H 0.46567 0.42873 0.59743 0.0
H147 H 0.48713 0.48154 0.45725 0.0
H148 H 0.52476 0.52108 0.60912 0.0
H149 H 0.52287 0.53714 0.68912 0.0
H150 H 0.50241 0.59762 0.63322 0.0
H151 H 0.50382 0.58164 0.55286 0.0
C152 C 0.60139 0.58427 0.37091 0.0
C153 C 0.6001 0.6073 0.3517 0.0
C154 C 0.58159 0.56678 0.40411 0.0
C155 C 0.56014 0.57195 0.41888 0.0
C156 C 0.55972 0.59582 0.40201 0.0
C157 C 0.57947 0.61331 0.36848 0.0
C158 C 0.53731 0.55135 0.44974 0.0
C159 C 0.53412 0.55983 0.4946 0.0
C160 C 0.51992 0.52287 0.43591 0.0
C161 C 0.52138 0.51304 0.38806 0.0
C162 C 0.51785 0.52625 0.34841 0.0
C163 C 0.51955 0.51712 0.30342 0.0
C164 C 0.52454 0.49463 0.29759 0.0
C165 C 0.52782 0.48121 0.3368 0.0
C166 C 0.5262 0.4903 0.3819 0.0
C167 C 0.43891 0.47324 0.60194 0.0
C168 C 0.44225 0.45008 0.61364 0.0
C169 C 0.45636 0.49287 0.56831 0.0
C170 C 0.47749 0.48974 0.54592 0.0
C171 C 0.47995 0.46594 0.5559 0.0
C172 C 0.46256 0.44635 0.58946 0.0
C173 C 0.49777 0.5116 0.51324 0.0
C174 C 0.50049 0.50336 0.4679 0.0
C175 C 0.51481 0.54023 0.52681 0.0
C176 C 0.51407 0.54994 0.57504 0.0
C177 C 0.51963 0.53765 0.61392 0.0
C178 C 0.51869 0.54676 0.65932 0.0
C179 C 0.51244 0.56832 0.66626 0.0
C180 C 0.5072 0.58088 0.62779 0.0
C181 C 0.50809 0.57182 0.58231 0.0
H182 H 0.51172 0.57535 0.70143 0.0
H183 H 0.52582 0.48756 0.26273 0.0
H184 H 0.96917 0.41779 0.78671 0.0
H185 H 0.96414 0.4482 0.72898 0.0
H186 H 0.0548 0.49984 0.72004 0.0
H187 H 0.06009 0.46971 0.77723 0.0
H188 H 0.02796 0.53069 0.73751 0.0
H189 H 0.01942 0.45753 0.63206 0.0
H190 H 0.99843 0.40858 0.60335 0.0
H191 H 0.91806 0.40385 0.5879 0.0
H192 H 0.93852 0.45269 0.61716 0.0
H193 H 0.0577 0.61667 0.53926 0.0
H194 H 0.0526 0.58322 0.60001 0.0
H195 H 0.96232 0.53753 0.57924 0.0
H196 H 0.96729 0.57077 0.51731 0.0
H197 H 0.98235 0.50211 0.58133 0.0
H198 H 0.99118 0.57633 0.67918 0.0
H199 H 0.01141 0.62515 0.70809 0.0
H200 H 0.08944 0.62777 0.73972 0.0
H201 H 0.06983 0.57908 0.71039 0.0
C202 C 0.98804 0.43535 0.77189 0.0
C203 C 0.01504 0.44136 0.78682 0.0
C204 C 0.98511 0.4527 0.73895 0.0
C205 C 0.00911 0.47634 0.72051 0.0
C206 C 0.03602 0.4818 0.73411 0.0
C207 C 0.03898 0.46442 0.76668 0.0
C208 C 0.00647 0.49634 0.68876 0.0
C209 C 0.01819 0.52453 0.70318 0.0
C210 C 0.99271 0.48798 0.64486 0.0
C211 C 0.98041 0.45863 0.62735 0.0
C212 C 0.99721 0.44596 0.62298 0.0
C213 C 0.98542 0.41826 0.60651 0.0
C214 C 0.95691 0.40308 0.59396 0.0
C215 C 0.94013 0.41561 0.59774 0.0
C216 C 0.95182 0.4433 0.61423 0.0
C217 C 0.03667 0.59977 0.54791 0.0
C218 C 0.0129 0.59643 0.52329 0.0
C219 C 0.03378 0.58067 0.58289 0.0
C220 C 0.00705 0.55798 0.59453 0.0
C221 C 0.98315 0.55491 0.57086 0.0
C222 C 0.98603 0.57402 0.53565 0.0
C223 C 1.00454 0.53674 0.62953 0.0
C224 C 0.99179 0.50827 0.61588 0.0
C225 C 0.01718 0.5448 0.67439 0.0
C226 C 0.02907 0.57408 0.69227 0.0
C227 C 0.01272 0.58737 0.69199 0.0
C228 C 0.02407 0.61502 0.7085 0.0
C229 C 0.05171 0.62957 0.72565 0.0
C230 C 0.06804 0.61647 0.72641 0.0
C231 C 0.0568 0.58883 0.70991 0.0
H232 H 0.06046 0.65097 0.73841 0.0
H233 H 0.94782 0.38164 0.58119 0.0
H234 H 0.58414 0.97903 0.94316 0.0
H235 H 0.55058 0.97829 0.88595 0.0
H236 H 0.59168 0.06921 0.89153 0.0
H237 H 0.62506 0.07015 0.94939 0.0
H238 H 0.5362 0.04621 0.90253 0.0
H239 H 0.59688 0.03481 0.79463 0.0
H240 H 0.62367 0.01336 0.76269 0.0
H241 H 0.54678 0.93404 0.7468 0.0
H242 H 0.51954 0.95492 0.77925 0.0
H243 H 0.46918 0.06678 0.70402 0.0
H244 H 0.50158 0.06639 0.76253 0.0
H245 H 0.456 0.97529 0.76145 0.0
H246 H 0.42348 0.97542 0.70277 0.0
H247 H 0.51291 0.99749 0.74864 0.0
H248 H 0.45227 0.00956 0.85544 0.0
H249 H 0.42577 0.0315 0.88659 0.0
H250 H 0.50313 0.11027 0.90364 0.0
H251 H 0.53009 0.0889 0.87194 0.0
C252 C 0.58641 0.99893 0.93161 0.0
C253 C 0.60724 0.02465 0.95106 0.0
C254 C 0.56719 0.99846 0.89882 0.0
C255 C 0.56862 0.0237 0.88444 0.0
C256 C 0.5901 0.04947 0.90232 0.0
C257 C 0.60926 0.04996 0.93523 0.0
C258 C 0.5467 0.02313 0.85303 0.0
C259 C 0.5314 0.03592 0.86855 0.0
C260 C 0.53988 0.00899 0.80934 0.0
C261 C 0.5562 0.99637 0.78982 0.0
C262 C 0.5857 0.01273 0.7847 0.0
C263 C 0.60097 1.00069 0.76643 0.0
C264 C 0.58695 0.97234 0.75284 0.0
C265 C 0.55761 0.95599 0.7574 0.0
C266 C 0.54225 0.96792 0.77569 0.0
C267 C 0.4657 0.04663 0.7168 0.0
C268 C 0.44379 0.02113 0.69854 0.0
C269 C 0.48424 0.04646 0.75031 0.0
C270 C 0.48121 0.0208 0.76624 0.0
C271 C 0.45874 0.99531 0.74946 0.0
C272 C 0.44007 0.99545 0.71614 0.0
C273 C 0.50255 0.02068 0.79809 0.0
C274 C 0.51772 0.00774 0.78266 0.0
C275 C 0.50932 0.03476 0.84177 0.0
C276 C 0.49317 0.04768 0.86088 0.0
C277 C 0.46362 0.03162 0.86544 0.0
C278 C 0.44851 0.04395 0.88328 0.0
C279 C 0.46274 0.07228 0.89697 0.0
C280 C 0.49213 0.08833 0.89296 0.0
C281 C 0.50733 0.07611 0.87511 0.0
H282 H 0.45101 0.08178 0.91079 0.0
H283 H 0.5988 0.96305 0.73869 0.0
H284 H 0.58031 0.61506 0.10475 0.0
H285 H 0.54984 0.58038 0.04678 0.0
H286 H 0.60066 0.54051 0.05272 0.0
H287 H 0.63145 0.57521 0.11105 0.0
H288 H 0.58261 0.54425 0.96058 0.0
H289 H 0.54353 0.51213 0.11365 0.0
H290 H 0.52742 0.51672 0.192 0.0
H291 H 0.46453 0.5316 0.12979 0.0
H292 H 0.4807 0.52767 0.05086 0.0
H293 H 0.47762 0.42004 0.84675 0.0
H294 H 0.51146 0.45038 0.9063 0.0
H295 H 0.46417 0.49337 0.92532 0.0
H296 H 0.43009 0.46297 0.86663 0.0
H297 H 0.48211 0.48513 0.00754 0.0
H298 H 0.52286 0.5211 0.85551 0.0
H299 H 0.53929 0.51826 0.77625 0.0
H300 H 0.59859 0.49718 0.83544 0.0
H301 H 0.58225 0.49956 0.91507 0.0
C302 C 0.58535 0.59921 0.09335 0.0
C303 C 0.60819 0.59776 0.11299 0.0
C304 C 0.56783 0.57935 0.06027 0.0
C305 C 0.57276 0.55765 0.0461 0.0
C306 C 0.59646 0.55705 0.06343 0.0
C307 C 0.61399 0.57688 0.09678 0.0
C308 C 0.5521 0.53474 0.01543 0.0
C309 C 0.56073 0.53098 0.97105 0.0
C310 C 0.5235 0.51777 0.02896 0.0
C311 C 0.51349 0.51985 0.07634 0.0
C312 C 0.5264 0.5166 0.11666 0.0
C313 C 0.51723 0.51905 0.1612 0.0
C314 C 0.49495 0.52447 0.16594 0.0
C315 C 0.48179 0.52742 0.12608 0.0
C316 C 0.49095 0.52508 0.08142 0.0
C317 C 0.47416 0.43565 0.86413 0.0
C318 C 0.45123 0.43919 0.85162 0.0
C319 C 0.49364 0.45311 0.89792 0.0
C320 C 0.49061 0.47448 0.91961 0.0
C321 C 0.467 0.47711 0.90888 0.0
C322 C 0.44753 0.45969 0.87522 0.0
C323 C 0.51243 0.49487 0.95223 0.0
C324 C 0.50403 0.49817 0.99712 0.0
C325 C 0.54118 0.51151 0.93899 0.0
C326 C 0.55111 0.51019 0.89119 0.0
C327 C 0.53925 0.51565 0.85159 0.0
C328 C 0.54857 0.51416 0.80661 0.0
C329 C 0.56991 0.50746 0.80081 0.0
C330 C 0.58203 0.50232 0.83999 0.0
C331 C 0.57276 0.50375 0.88505 0.0
H332 H 0.5771 0.50631 0.76596 0.0
H333 H 0.48785 0.52633 0.20047 0.0
H334 H 0.99411 0.43506 0.0341 0.0
H335 H 0.99942 0.47061 0.09098 0.0
H336 H 0.09004 0.51144 0.07859 0.0
H337 H 0.08502 0.47587 0.02115 0.0
H338 H 0.06976 0.50836 0.17266 0.0
H339 H 0.0603 0.5391 0.01987 0.0
H340 H 0.03854 0.5338 0.94207 0.0
H341 H 0.96101 0.5177 0.00692 0.0
H342 H 0.98218 0.52246 0.08517 0.0
H343 H 0.08427 0.62974 0.29076 0.0
H344 H 0.0896 0.60111 0.2301 0.0
H345 H 0.99934 0.55539 0.20906 0.0
H346 H 0.99386 0.58412 0.26869 0.0
H347 H 0.02586 0.56538 0.12751 0.0
H348 H 0.03268 0.52941 0.27888 0.0
H349 H 0.05274 0.53263 0.35762 0.0
H350 H 0.13356 0.557 0.29663 0.0
H351 H 0.11404 0.55427 0.21751 0.0
C352 C 0.01524 0.45131 0.04384 0.0
C353 C 0.03915 0.45275 0.02262 0.0
C354 C 0.0182 0.47168 0.07628 0.0
C355 C 0.04509 0.49387 0.0883 0.0
C356 C 0.0691 0.49452 0.06948 0.0
C357 C 0.06617 0.47418 0.03669 0.0
C358 C 0.04775 0.51707 0.11854 0.0
C359 C 0.06066 0.52123 0.16255 0.0
C360 C 0.0355 0.53352 0.10542 0.0
C361 C 0.02278 0.53093 0.0584 0.0
C362 C 0.03855 0.53422 0.01755 0.0
C363 C 0.02633 0.53134 0.97337 0.0
C364 C 0.99839 0.52536 0.96955 0.0
C365 C 0.98264 0.52232 0.00993 0.0
C366 C 0.99475 0.52513 0.05421 0.0
C367 C 0.06559 0.61387 0.27274 0.0
C368 C 0.0386 0.6091 0.28489 0.0
C369 C 0.06867 0.59741 0.23828 0.0
C370 C 0.04482 0.57578 0.21563 0.0
C371 C 0.01804 0.57189 0.22617 0.0
C372 C 0.01495 0.58834 0.26041 0.0
C373 C 0.0473 0.55632 0.18227 0.0
C374 C 0.03535 0.55285 0.13751 0.0
C375 C 0.06028 0.5404 0.19487 0.0
C376 C 0.072 0.54197 0.24236 0.0
C377 C 0.05479 0.53567 0.2823 0.0
C378 C 0.06605 0.53737 0.32698 0.0
C379 C 0.09443 0.5451 0.33213 0.0
C380 C 0.1116 0.55107 0.29259 0.0
C381 C 0.10045 0.54944 0.24783 0.0
H382 H 0.10311 0.5464 0.36675 0.0
H383 H 0.98897 0.52314 0.93531 0.0
H384 H 0.60311 0.72188 0.19271 0.0
H385 H 0.61133 0.7679 0.16743 0.0
H386 H 0.70131 0.80188 0.1777 0.0
H387 H 0.69325 0.75544 0.20323 0.0
H388 H 0.68214 0.83793 0.21499 0.0
H389 H 0.67465 0.78817 0.07325 0.0
H390 H 0.65355 0.74759 0.0191 0.0
H391 H 0.57728 0.75178 0.01322 0.0
H392 H 0.59776 0.79212 0.06789 0.0
H393 H 0.6953 0.96162 0.10049 0.0
H394 H 0.70227 0.92168 0.11911 0.0
H395 H 0.61277 0.86434 0.10342 0.0
H396 H 0.60578 0.90371 0.0841 0.0
H397 H 0.64131 0.84326 0.06253 0.0
H398 H 0.64508 0.88704 0.21226 0.0
H399 H 0.66409 0.92626 0.26914 0.0
H400 H 0.74545 0.93247 0.26176 0.0
H401 H 0.72696 0.89348 0.20434 0.0
C402 C 0.6247 0.73909 0.1899 0.0
C403 C 0.64755 0.73491 0.19975 0.0
C404 C 0.62935 0.7654 0.17526 0.0
C405 C 0.65692 0.78819 0.17006 0.0
C406 C 0.67986 0.78448 0.1813 0.0
C407 C 0.67522 0.75797 0.1958 0.0
C408 C 0.66127 0.81553 0.15199 0.0
C409 C 0.67381 0.83935 0.18121 0.0
C410 C 0.65004 0.81721 0.10819 0.0
C411 C 0.63772 0.79309 0.0749 0.0
C412 C 0.65332 0.78033 0.06065 0.0
C413 C 0.64147 0.75738 0.02983 0.0
C414 C 0.61408 0.74709 0.01278 0.0
C415 C 0.5985 0.75977 0.02645 0.0
C416 C 0.61024 0.78271 0.0573 0.0
C417 C 0.67718 0.94046 0.10073 0.0
C418 C 0.64998 0.93586 0.09088 0.0
C419 C 0.68117 0.91768 0.11159 0.0
C420 C 0.658 0.88999 0.11306 0.0
C421 C 0.63099 0.88545 0.10241 0.0
C422 C 0.62702 0.90806 0.09148 0.0
C423 C 0.6613 0.86548 0.1262 0.0
C424 C 0.6502 0.84212 0.09592 0.0
C425 C 0.67366 0.86421 0.16915 0.0
C426 C 0.68475 0.88762 0.20359 0.0
C427 C 0.66708 0.89693 0.22247 0.0
C428 C 0.67775 0.91908 0.25486 0.0
C429 C 0.70599 0.93191 0.26893 0.0
C430 C 0.7236 0.92256 0.25074 0.0
C431 C 0.71304 0.90044 0.21829 0.0
H432 H 0.7142 0.94905 0.29402 0.0
H433 H 0.60495 0.72932 0.98893 0.0
H434 H 0.95996 0.68965 0.37499 0.0
H435 H 0.92124 0.69721 0.3499 0.0
H436 H 0.86786 0.60756 0.32845 0.0
H437 H 0.90607 0.59987 0.35319 0.0
H438 H 0.86643 0.6381 0.25397 0.0
H439 H 0.85978 0.63926 0.42354 0.0
H440 H 0.87778 0.65709 0.50289 0.0
H441 H 0.89266 0.73927 0.46382 0.0
H442 H 0.87507 0.72199 0.38399 0.0
H443 H 0.72488 0.6013 0.2549 0.0
H444 H 0.77168 0.60892 0.27279 0.0
H445 H 0.80389 0.69859 0.28357 0.0
H446 H 0.7566 0.69108 0.26582 0.0
H447 H 0.82185 0.67798 0.35661 0.0
H448 H 0.82157 0.67444 0.19015 0.0
H449 H 0.80268 0.65596 0.11149 0.0
H450 H 0.80091 0.57846 0.1441 0.0
H451 H 0.81941 0.59629 0.22323 0.0
C452 C 0.93991 0.67158 0.36512 0.0
C453 C 0.93612 0.64417 0.36609 0.0
C454 C 0.91782 0.67593 0.35086 0.0
C455 C 0.89167 0.65293 0.33727 0.0
C456 C 0.88789 0.62563 0.33853 0.0
C457 C 0.90978 0.62127 0.35292 0.0
C458 C 0.86804 0.65685 0.32108 0.0
C459 C 0.85664 0.64676 0.27645 0.0
C460 C 0.85589 0.66907 0.34975 0.0
C461 C 0.86648 0.67944 0.39765 0.0
C462 C 0.86714 0.6612 0.43175 0.0
C463 C 0.87721 0.67119 0.47683 0.0
C464 C 0.88645 0.69932 0.48834 0.0
C465 C 0.88556 0.7175 0.45482 0.0
C466 C 0.87554 0.70762 0.40966 0.0
C467 C 0.74187 0.62271 0.26081 0.0
C468 C 0.737 0.64561 0.25876 0.0
C469 C 0.76869 0.62704 0.27088 0.0
C470 C 0.79139 0.65436 0.27895 0.0
C471 C 0.78668 0.67735 0.27723 0.0
C472 C 0.75971 0.67303 0.26692 0.0
C473 C 0.81967 0.65831 0.29014 0.0
C474 C 0.83199 0.66989 0.33371 0.0
C475 C 0.83274 0.64747 0.26048 0.0
C476 C 0.82176 0.63667 0.21277 0.0
C477 C 0.81698 0.65338 0.18068 0.0
C478 C 0.80636 0.64303 0.13598 0.0
C479 C 0.80056 0.61604 0.12283 0.0
C480 C 0.80542 0.59936 0.15433 0.0
C481 C 0.81602 0.6096 0.1991 0.0
H482 H 0.79234 0.60807 0.08821 0.0
H483 H 0.89423 0.70701 0.52327 0.0
H484 H 0.14492 0.71973 0.45498 0.0
H485 H 0.18293 0.76558 0.48057 0.0
H486 H 0.12986 0.80195 0.45766 0.0
H487 H 0.09127 0.75567 0.4318 0.0
H488 H 0.18634 0.83579 0.42397 0.0
H489 H 0.13911 0.78988 0.56549 0.0
H490 H 0.11681 0.75056 0.62199 0.0
H491 H 0.19548 0.75191 0.63906 0.0
H492 H 0.21817 0.79096 0.58211 0.0
H493 H 0.29609 0.95996 0.53898 0.0
H494 H 0.2491 0.9205 0.51892 0.0
H495 H 0.27861 0.86178 0.54373 0.0
H496 H 0.32511 0.90073 0.56423 0.0
H497 H 0.22779 0.8428 0.58161 0.0
H498 H 0.27268 0.88266 0.43252 0.0
H499 H 0.29561 0.92057 0.37365 0.0
H500 H 0.22211 0.92974 0.3696 0.0
H501 H 0.19889 0.89209 0.42893 0.0
C502 C 0.14123 0.73742 0.45513 0.0
C503 C 0.11497 0.73398 0.44154 0.0
C504 C 0.16301 0.76363 0.46996 0.0
C505 C 0.1591 0.78707 0.47161 0.0
C506 C 0.13322 0.78405 0.45683 0.0
C507 C 0.11123 0.75763 0.44217 0.0
C508 C 0.18223 0.81443 0.48942 0.0
C509 C 0.19505 0.83761 0.45882 0.0
C510 C 0.19379 0.81661 0.53465 0.0
C511 C 0.1803 0.79327 0.56929 0.0
C512 C 0.15162 0.78167 0.58105 0.0
C513 C 0.13891 0.75945 0.61319 0.0
C514 C 0.15471 0.74872 0.63405 0.0
C515 C 0.18327 0.76024 0.62288 0.0
C516 C 0.19607 0.78245 0.59071 0.0
C517 C 0.29246 0.93861 0.54041 0.0
C518 C 0.31436 0.93351 0.55311 0.0
C519 C 0.26565 0.9161 0.52875 0.0
C520 C 0.26038 0.88817 0.52949 0.0
C521 C 0.28211 0.88311 0.543 0.0
C522 C 0.30877 0.90547 0.55459 0.0
C523 C 0.23252 0.86393 0.51566 0.0
C524 C 0.21877 0.84128 0.54711 0.0
C525 C 0.22026 0.86223 0.47115 0.0
C526 C 0.23421 0.88485 0.43559 0.0
C527 C 0.26152 0.89294 0.41938 0.0
C528 C 0.27454 0.91434 0.38587 0.0
C529 C 0.26036 0.92763 0.36802 0.0
C530 C 0.23309 0.91948 0.38355 0.0
C531 C 0.21999 0.89811 0.4171 0.0
H532 H 0.27048 0.94418 0.34207 0.0
H533 H 0.14483 0.7315 0.65892 0.0
H534 H 0.44762 0.32575 0.68748 0.0
H535 H 0.4392 0.27963 0.66246 0.0
H536 H 0.34955 0.24471 0.68126 0.0
H537 H 0.35781 0.29126 0.70645 0.0
H538 H 0.3711 0.21002 0.71691 0.0
H539 H 0.37195 0.25648 0.57474 0.0
H540 H 0.39007 0.29593 0.51837 0.0
H541 H 0.46701 0.29356 0.50418 0.0
H542 H 0.44954 0.25437 0.56102 0.0
H543 H 0.35688 0.08546 0.60443 0.0
H544 H 0.34928 0.1251 0.6223 0.0
H545 H 0.43801 0.18355 0.60042 0.0
H546 H 0.44564 0.14444 0.58214 0.0
H547 H 0.40681 0.20275 0.56063 0.0
H548 H 0.40988 0.16265 0.71067 0.0
H549 H 0.39395 0.12466 0.76958 0.0
H550 H 0.31145 0.116 0.77039 0.0
H551 H 0.32683 0.15373 0.71099 0.0
C552 C 0.42607 0.30832 0.68658 0.0
C553 C 0.40336 0.31225 0.69877 0.0
C554 C 0.4213 0.28196 0.67209 0.0
C555 C 0.39374 0.25886 0.66942 0.0
C556 C 0.37098 0.26235 0.6829 0.0
C557 C 0.37573 0.28892 0.69719 0.0
C558 C 0.38921 0.23138 0.6518 0.0
C559 C 0.37826 0.20814 0.68233 0.0
C560 C 0.39895 0.22913 0.60693 0.0
C561 C 0.40947 0.25256 0.57237 0.0
C562 C 0.39281 0.26449 0.55985 0.0
C563 C 0.40296 0.2868 0.52777 0.0
C564 C 0.42969 0.29727 0.50775 0.0
C565 C 0.44631 0.28542 0.51971 0.0
C566 C 0.43627 0.26313 0.55181 0.0
C567 C 0.37468 0.1068 0.60305 0.0
C568 C 0.40187 0.11178 0.59199 0.0
C569 C 0.37034 0.1294 0.61348 0.0
C570 C 0.39313 0.1573 0.61308 0.0
C571 C 0.42009 0.16224 0.60089 0.0
C572 C 0.42442 0.13979 0.59057 0.0
C573 C 0.38955 0.18161 0.62626 0.0
C574 C 0.39901 0.20432 0.59482 0.0
C575 C 0.37863 0.18339 0.67037 0.0
C576 C 0.36938 0.16072 0.70597 0.0
C577 C 0.38827 0.15246 0.72311 0.0
C578 C 0.37936 0.13102 0.75664 0.0
C579 C 0.35167 0.11785 0.77359 0.0
C580 C 0.33287 0.12616 0.75714 0.0
C581 C 0.34167 0.14758 0.72356 0.0
H582 H 0.34482 0.10126 0.79957 0.0
H583 H 0.43751 0.31455 0.48293 0.0
H584 H 0.09141 0.35772 0.87768 0.0
H585 H 0.12969 0.34952 0.85242 0.0
H586 H 0.1831 0.43872 0.82657 0.0
H587 H 0.14537 0.44706 0.85162 0.0
H588 H 0.18319 0.40629 0.75315 0.0
H589 H 0.19235 0.40937 0.92265 0.0
H590 H 0.17551 0.39347 0.00322 0.0
H591 H 0.16025 0.31046 0.96966 0.0
H592 H 0.17667 0.3258 0.88864 0.0
H593 H 0.32517 0.44474 0.7533 0.0
H594 H 0.27821 0.43677 0.77092 0.0
H595 H 0.24712 0.34749 0.7858 0.0
H596 H 0.29456 0.35535 0.76814 0.0
H597 H 0.22959 0.36939 0.85823 0.0
H598 H 0.22786 0.36895 0.6918 0.0
H599 H 0.24565 0.38555 0.61192 0.0
H600 H 0.24689 0.46337 0.63903 0.0
H601 H 0.2295 0.44743 0.71934 0.0
C602 C 0.11137 0.37556 0.86678 0.0
C603 C 0.11533 0.40304 0.86669 0.0
C604 C 0.1332 0.37085 0.85242 0.0
C605 C 0.15923 0.39353 0.83757 0.0
C606 C 0.16316 0.4209 0.83765 0.0
C607 C 0.14155 0.42563 0.85223 0.0
C608 C 0.18262 0.38924 0.82144 0.0
C609 C 0.19337 0.39826 0.77613 0.0
C610 C 0.19526 0.37783 0.85086 0.0
C611 C 0.18536 0.36861 0.89946 0.0
C612 C 0.18514 0.38765 0.93233 0.0
C613 C 0.17573 0.37876 0.9781 0.0
C614 C 0.16672 0.35095 0.99151 0.0
C615 C 0.16717 0.33198 0.95919 0.0
C616 C 0.17653 0.34076 0.91336 0.0
C617 C 0.30839 0.42334 0.76005 0.0
C618 C 0.31361 0.40066 0.75919 0.0
C619 C 0.28148 0.41881 0.76995 0.0
C620 C 0.25907 0.3915 0.77917 0.0
C621 C 0.26411 0.36872 0.77857 0.0
C622 C 0.29116 0.37323 0.76832 0.0
C623 C 0.23075 0.38739 0.7905 0.0
C624 C 0.21904 0.3768 0.83482 0.0
C625 C 0.21715 0.39734 0.76015 0.0
C626 C 0.2275 0.40702 0.71174 0.0
C627 C 0.23211 0.38969 0.68086 0.0
C628 C 0.2421 0.39897 0.63547 0.0
C629 C 0.24743 0.42551 0.62043 0.0
C630 C 0.24274 0.44281 0.65073 0.0
C631 C 0.23278 0.43364 0.69617 0.0
H632 H 0.25517 0.43266 0.58527 0.0
H633 H 0.15946 0.34411 0.02696 0.0
H634 H 0.90823 0.32849 0.95591 0.0
H635 H 0.87078 0.28261 0.98265 0.0
H636 H 0.92454 0.24706 0.95951 0.0
H637 H 0.96258 0.29337 0.93256 0.0
H638 H 0.86776 0.21259 0.92676 0.0
H639 H 0.91586 0.25932 0.06716 0.0
H640 H 0.93833 0.29888 0.12311 0.0
H641 H 0.85946 0.2969 0.14173 0.0
H642 H 0.83659 0.25759 0.08533 0.0
H643 H 0.75868 0.0885 0.04219 0.0
H644 H 0.80581 0.12804 0.02303 0.0
H645 H 0.77627 0.1867 0.04791 0.0
H646 H 0.72962 0.14768 0.06749 0.0
H647 H 0.82734 0.20592 0.08516 0.0
H648 H 0.78163 0.16556 0.93676 0.0
H649 H 0.75843 0.12745 0.87836 0.0
H650 H 0.83198 0.1184 0.87341 0.0
H651 H 0.85548 0.15625 0.93229 0.0
C652 C 0.91219 0.31097 0.95624 0.0
C653 C 0.93848 0.31465 0.94227 0.0
C654 C 0.89074 0.28474 0.97174 0.0
C655 C 0.89501 0.26153 0.97365 0.0
C656 C 0.9209 0.26478 0.95849 0.0
C657 C 0.94259 0.29122 0.94319 0.0
C658 C 0.87219 0.23415 0.99204 0.0
C659 C 0.8593 0.21085 0.96178 0.0
C660 C 0.86094 0.23208 0.0375 0.0
C661 C 0.87455 0.25558 0.07178 0.0
C662 C 0.90334 0.26743 0.08293 0.0
C663 C 0.91615 0.2898 0.11477 0.0
C664 C 0.90035 0.30042 0.13591 0.0
C665 C 0.87168 0.28865 0.12533 0.0
C666 C 0.85877 0.26629 0.09347 0.0
C667 C 0.76237 0.10986 0.044 0.0
C668 C 0.74037 0.11493 0.05621 0.0
C669 C 0.78925 0.13241 0.03282 0.0
C670 C 0.79452 0.16034 0.03362 0.0
C671 C 0.77276 0.16538 0.04709 0.0
C672 C 0.74602 0.14297 0.05815 0.0
C673 C 0.82228 0.18458 0.01938 0.0
C674 C 0.83615 0.20736 0.0505 0.0
C675 C 0.83426 0.18619 0.97464 0.0
C676 C 0.82015 0.16344 0.93936 0.0
C677 C 0.79275 0.15526 0.92352 0.0
C678 C 0.77957 0.13375 0.89028 0.0
C679 C 0.79368 0.12044 0.87231 0.0
C680 C 0.82104 0.12868 0.88745 0.0
C681 C 0.8343 0.15016 0.92074 0.0
H682 H 0.78345 0.1038 0.84656 0.0
H683 H 0.9103 0.31774 0.16054 0.0
loop_
_geom_bond_atom_site_label_1
_geom_bond_atom_site_label_2
_geom_bond_distance
_geom_bond_site_symmetry_2
_ccdc_geom_bond_type
O0 Cd1 2.223 . S
O0 C8 1.315 . S
Cd1 O0 2.223 . S
Cd1 O4 2.297 . S
Cd1 O5 2.439 . S
Cd1 O11 2.240 . S
Cd2 O3 2.240 1_565 S
Cd2 O10 2.223 . S
Cd2 O12 2.297 . S
Cd2 O13 2.439 . S
O3 Cd2 2.240 1_545 S
O3 C8 1.279 . S
O4 Cd1 2.297 . S
O4 C6 1.247 . S
O5 Cd1 2.439 . S
O5 C6 1.208 . S
C6 O4 1.247 . S
C6 O5 1.208 . S
C7 O12 1.247 . S
C7 O13 1.208 . S
C8 O0 1.315 . S
C8 O3 1.279 . S
C9 O10 1.315 1_545 S
C9 O11 1.279 . S
O10 Cd2 2.223 . S
O10 C9 1.315 1_565 S
O11 Cd1 2.240 . S
O11 C9 1.279 . S
O12 Cd2 2.297 . S
O12 C7 1.247 . S
O13 Cd2 2.439 . S
O13 C7 1.208 . S
O14 Cd15 2.223 . S
O14 C22 1.315 . S
Cd15 O14 2.223 . S
Cd15 O18 2.297 . S
Cd15 O19 2.439 . S
Cd15 O25 2.240 . S
Cd16 O17 2.240 . S
Cd16 O24 2.223 . S
Cd16 O26 2.297 . S
Cd16 O27 2.439 . S
O17 Cd16 2.240 . S
O17 C22 1.279 . S
O18 Cd15 2.297 . S
O18 C20 1.247 . S
O19 Cd15 2.439 . S
O19 C20 1.208 . S
C20 O18 1.247 . S
C20 O19 1.208 . S
C21 O26 1.247 . S
C21 O27 1.208 . S
C22 O14 1.315 . S
C22 O17 1.279 . S
C23 O24 1.315 . S
C23 O25 1.279 . S
O24 Cd16 2.223 . S
O24 C23 1.315 . S
O25 Cd15 2.240 . S
O25 C23 1.279 . S
O26 Cd16 2.297 . S
O26 C21 1.247 . S
O27 Cd16 2.439 . S
O27 C21 1.208 . S
O28 Cd29 2.223 . S
O28 C36 1.315 1_655 S
Cd29 O28 2.223 . S
Cd29 O32 2.297 . S
Cd29 O33 2.439 . S
Cd29 O39 2.240 1_655 S
Cd30 O31 2.240 . S
Cd30 O38 2.223 . S
Cd30 O40 2.297 . S
Cd30 O41 2.439 . S
O31 Cd30 2.240 . S
O31 C36 1.279 . S
O32 Cd29 2.297 . S
O32 C34 1.247 . S
O33 Cd29 2.439 . S
O33 C34 1.208 . S
C34 O32 1.247 . S
C34 O33 1.208 . S
C35 O40 1.247 . S
C35 O41 1.208 . S
C36 O28 1.315 1_455 S
C36 O31 1.279 . S
C37 O38 1.315 . S
C37 O39 1.279 . S
O38 Cd30 2.223 . S
O38 C37 1.315 . S
O39 Cd29 2.240 1_455 S
O39 C37 1.279 . S
O40 Cd30 2.297 . S
O40 C35 1.247 . S
O41 Cd30 2.439 . S
O41 C35 1.208 . S
O42 Cd43 2.223 . S
O42 C50 1.315 1_565 S
Cd43 O42 2.223 . S
Cd43 O46 2.297 . S
Cd43 O47 2.439 . S
Cd43 O53 2.240 1_565 S
Cd44 O45 2.240 . S
Cd44 O52 2.223 . S
Cd44 O54 2.297 . S
Cd44 O55 2.439 . S
O45 Cd44 2.240 . S
O45 C50 1.279 . S
O46 Cd43 2.297 . S
O46 C48 1.247 . S
O47 Cd43 2.439 . S
O47 C48 1.208 . S
C48 O46 1.247 . S
C48 O47 1.208 . S
C49 O54 1.247 . S
C49 O55 1.208 . S
C50 O42 1.315 1_545 S
C50 O45 1.279 . S
C51 O52 1.315 . S
C51 O53 1.279 . S
O52 Cd44 2.223 . S
O52 C51 1.315 . S
O53 Cd43 2.240 1_545 S
O53 C51 1.279 . S
O54 Cd44 2.297 . S
O54 C49 1.247 . S
O55 Cd44 2.439 . S
O55 C49 1.208 . S
O56 Cd57 2.223 . S
O56 C64 1.315 . S
Cd57 O56 2.223 . S
Cd57 O60 2.297 . S
Cd57 O61 2.439 . S
Cd57 O67 2.240 . S
Cd58 O59 2.240 . S
Cd58 O66 2.223 . S
Cd58 O68 2.297 . S
Cd58 O69 2.439 . S
O59 Cd58 2.240 . S
O59 C64 1.279 . S
O60 Cd57 2.297 . S
O60 C62 1.247 . S
O61 Cd57 2.439 . S
O61 C62 1.208 . S
C62 O60 1.247 . S
C62 O61 1.208 . S
C63 O68 1.247 . S
C63 O69 1.208 . S
C64 O56 1.315 . S
C64 O59 1.279 . S
C65 O66 1.315 . S
C65 O67 1.279 . S
O66 Cd58 2.223 . S
O66 C65 1.315 . S
O67 Cd57 2.240 . S
O67 C65 1.279 . S
O68 Cd58 2.297 . S
O68 C63 1.247 . S
O69 Cd58 2.439 . S
O69 C63 1.208 . S
O70 Cd71 2.223 . S
O70 C78 1.315 . S
Cd71 O70 2.223 . S
Cd71 O74 2.297 . S
Cd71 O75 2.439 . S
Cd71 O81 2.240 . S
Cd72 O73 2.240 1_655 S
Cd72 O80 2.223 . S
Cd72 O82 2.297 . S
Cd72 O83 2.439 . S
O73 Cd72 2.240 1_455 S
O73 C78 1.279 . S
O74 Cd71 2.297 . S
O74 C76 1.247 . S
O75 Cd71 2.439 . S
O75 C76 1.208 . S
C76 O74 1.247 . S
C76 O75 1.208 . S
C77 O82 1.247 . S
C77 O83 1.208 . S
C78 O70 1.315 . S
C78 O73 1.279 . S
C79 O80 1.315 1_455 S
C79 O81 1.279 . S
O80 Cd72 2.223 . S
O80 C79 1.315 1_655 S
O81 Cd71 2.240 . S
O81 C79 1.279 . S
O82 Cd72 2.297 . S
O82 C77 1.247 . S
O83 Cd72 2.439 . S
O83 C77 1.208 . S
H84 C102 0.951 . S
H85 C104 0.951 . S
H86 C106 0.950 . S
H87 C107 0.950 . S
H88 C109 0.950 . S
H89 C112 0.950 . S
H90 C113 0.950 . S
H91 C115 0.950 . S
H92 C116 0.950 . S
H93 C117 0.951 . S
H94 C119 0.951 . S
H95 C121 0.950 . S
H96 C122 0.950 . S
H97 C124 0.950 . S
H98 C127 0.950 . S
H99 C128 0.950 . S
H100 C130 0.950 . S
H101 C131 0.950 . S
C102 H84 0.951 . S
C102 C103 1.366 . S
C102 C104 1.388 . S
C103 C102 1.366 . S
C103 C107 1.385 . S
C104 H85 0.951 . S
C104 C102 1.388 . S
C104 C105 1.366 . S
C105 C104 1.366 . S
C105 C106 1.414 . S
C105 C108 1.499 . S
C106 H86 0.950 . S
C106 C105 1.414 . S
C106 C107 1.374 . S
C107 H87 0.950 . S
C107 C103 1.385 . S
C107 C106 1.374 . S
C108 C105 1.499 . S
C108 C109 1.373 1_545 S
C108 C110 1.389 . S
C109 H88 0.950 . S
C109 C108 1.373 1_565 S
C109 C125 1.377 . S
C110 C108 1.389 . S
C110 C111 1.524 . S
C110 C124 1.377 . S
C111 C110 1.524 . S
C111 C112 1.397 . S
C111 C116 1.363 . S
C112 H89 0.950 . S
C112 C111 1.397 . S
C112 C113 1.334 . S
C113 H90 0.950 . S
C113 C112 1.334 . S
C113 C114 1.287 . S
C114 C113 1.287 . S
C114 C115 1.524 . S
C114 H133 0.913 . S
C115 H91 0.950 . S
C115 C114 1.524 . S
C115 C116 1.415 . S
C116 H92 0.950 . S
C116 C111 1.363 . S
C116 C115 1.415 . S
C117 H93 0.951 . S
C117 C118 1.366 . S
C117 C119 1.388 . S
C118 C117 1.366 . S
C118 C122 1.385 . S
C119 H94 0.951 . S
C119 C117 1.388 . S
C119 C120 1.366 . S
C120 C119 1.366 . S
C120 C121 1.414 . S
C120 C123 1.499 . S
C121 H95 0.950 . S
C121 C120 1.414 . S
C121 C122 1.374 . S
C122 H96 0.950 . S
C122 C118 1.385 . S
C122 C121 1.374 . S
C123 C120 1.499 . S
C123 C124 1.373 . S
C123 C125 1.389 1_545 S
C124 H97 0.950 . S
C124 C110 1.377 . S
C124 C123 1.373 . S
C125 C109 1.377 . S
C125 C123 1.389 1_565 S
C125 C126 1.524 . S
C126 C125 1.524 . S
C126 C127 1.397 . S
C126 C131 1.363 . S
C127 H98 0.950 . S
C127 C126 1.397 . S
C127 C128 1.334 . S
C128 H99 0.950 . S
C128 C127 1.334 . S
C128 C129 1.287 . S
C129 C128 1.287 . S
C129 C130 1.524 . S
C129 H132 0.999 . S
C130 H100 0.950 . S
C130 C129 1.524 . S
C130 C131 1.415 . S
C131 H101 0.950 . S
C131 C126 1.363 . S
C131 C130 1.415 . S
H132 C129 0.999 . S
H133 C114 0.913 . S
H134 C152 0.951 . S
H135 C154 0.951 . S
H136 C156 0.950 . S
H137 C157 0.950 . S
H138 C159 0.950 . S
H139 C162 0.950 . S
H140 C163 0.950 . S
H141 C165 0.950 . S
H142 C166 0.950 . S
H143 C167 0.951 . S
H144 C169 0.951 . S
H145 C171 0.950 . S
H146 C172 0.950 . S
H147 C174 0.950 . S
H148 C177 0.950 . S
H149 C178 0.950 . S
H150 C180 0.950 . S
H151 C181 0.950 . S
C152 H134 0.951 . S
C152 C153 1.366 . S
C152 C154 1.388 . S
C153 C152 1.366 . S
C153 C157 1.385 . S
C154 H135 0.951 . S
C154 C152 1.388 . S
C154 C155 1.366 . S
C155 C154 1.366 . S
C155 C156 1.414 . S
C155 C158 1.499 . S
C156 H136 0.950 . S
C156 C155 1.414 . S
C156 C157 1.374 . S
C157 H137 0.950 . S
C157 C153 1.385 . S
C157 C156 1.374 . S
C158 C155 1.499 . S
C158 C159 1.373 . S
C158 C160 1.389 . S
C159 H138 0.950 . S
C159 C158 1.373 . S
C159 C175 1.377 . S
C160 C158 1.389 . S
C160 C161 1.524 . S
C160 C174 1.377 . S
C161 C160 1.524 . S
C161 C162 1.397 . S
C161 C166 1.363 . S
C162 H139 0.950 . S
C162 C161 1.397 . S
C162 C163 1.334 . S
C163 H140 0.950 . S
C163 C162 1.334 . S
C163 C164 1.287 . S
C164 C163 1.287 . S
C164 C165 1.524 . S
C164 H183 0.913 . S
C165 H141 0.950 . S
C165 C164 1.524 . S
C165 C166 1.415 . S
C166 H142 0.950 . S
C166 C161 1.363 . S
C166 C165 1.415 . S
C167 H143 0.951 . S
C167 C168 1.366 . S
C167 C169 1.388 . S
C168 C167 1.366 . S
C168 C172 1.385 . S
C169 H144 0.951 . S
C169 C167 1.388 . S
C169 C170 1.366 . S
C170 C169 1.366 . S
C170 C171 1.414 . S
C170 C173 1.499 . S
C171 H145 0.950 . S
C171 C170 1.414 . S
C171 C172 1.374 . S
C172 H146 0.950 . S
C172 C168 1.385 . S
C172 C171 1.374 . S
C173 C170 1.499 . S
C173 C174 1.373 . S
C173 C175 1.389 . S
C174 H147 0.950 . S
C174 C160 1.377 . S
C174 C173 1.373 . S
C175 C159 1.377 . S
C175 C173 1.389 . S
C175 C176 1.524 . S
C176 C175 1.524 . S
C176 C177 1.397 . S
C176 C181 1.363 . S
C177 H148 0.950 . S
C177 C176 1.397 . S
C177 C178 1.334 . S
C178 H149 0.950 . S
C178 C177 1.334 . S
C178 C179 1.287 . S
C179 C178 1.287 . S
C179 C180 1.524 . S
C179 H182 0.999 . S
C180 H150 0.950 . S
C180 C179 1.524 . S
C180 C181 1.415 . S
C181 H151 0.950 . S
C181 C176 1.363 . S
C181 C180 1.415 . S
H182 C179 0.999 . S
H183 C164 0.913 . S
H184 C202 0.945 1_655 S
H185 C204 0.951 1_655 S
H186 C206 0.950 . S
H187 C207 0.950 . S
H188 C209 0.950 . S
H189 C212 0.950 . S
H190 C213 0.950 . S
H191 C215 0.950 . S
H192 C216 0.950 . S
H193 C217 0.951 . S
H194 C219 0.951 . S
H195 C221 0.950 1_655 S
H196 C222 0.950 1_655 S
H197 C224 0.950 . S
H198 C227 0.950 . S
H199 C228 0.950 . S
H200 C230 0.950 . S
H201 C231 0.950 . S
C202 H184 0.945 1_455 S
C202 C203 1.366 . S
C202 C204 1.388 . S
C203 C202 1.366 . S
C203 C207 1.385 . S
C204 H185 0.951 1_455 S
C204 C202 1.388 . S
C204 C205 1.366 . S
C205 C204 1.366 . S
C205 C206 1.414 . S
C205 C208 1.499 . S
C206 H186 0.950 . S
C206 C205 1.414 . S
C206 C207 1.374 . S
C207 H187 0.950 . S
C207 C203 1.385 . S
C207 C206 1.374 . S
C208 C205 1.499 . S
C208 C209 1.373 . S
C208 C210 1.389 . S
C209 H188 0.950 . S
C209 C208 1.373 . S
C209 C225 1.377 . S
C210 C208 1.389 . S
C210 C211 1.524 . S
C210 C224 1.377 . S
C211 C210 1.524 . S
C211 C212 1.397 . S
C211 C216 1.363 . S
C212 H189 0.950 . S
C212 C211 1.397 . S
C212 C213 1.334 . S
C213 H190 0.950 . S
C213 C212 1.334 . S
C213 C214 1.287 . S
C214 C213 1.287 . S
C214 C215 1.524 . S
C214 H233 0.913 . S
C215 H191 0.950 . S
C215 C214 1.524 . S
C215 C216 1.415 . S
C216 H192 0.950 . S
C216 C211 1.363 . S
C216 C215 1.415 . S
C217 H193 0.951 . S
C217 C218 1.366 . S
C217 C219 1.388 . S
C218 C217 1.366 . S
C218 C222 1.385 . S
C219 H194 0.951 . S
C219 C217 1.388 . S
C219 C220 1.366 . S
C220 C219 1.366 . S
C220 C221 1.414 . S
C220 C223 1.499 . S
C221 H195 0.950 1_455 S
C221 C220 1.414 . S
C221 C222 1.374 . S
C222 H196 0.950 1_455 S
C222 C218 1.385 . S
C222 C221 1.374 . S
C223 C220 1.499 . S
C223 C224 1.373 . S
C223 C225 1.389 . S
C224 H197 0.950 . S
C224 C210 1.377 . S
C224 C223 1.373 . S
C225 C209 1.377 . S
C225 C223 1.389 . S
C225 C226 1.524 . S
C226 C225 1.524 . S
C226 C227 1.397 1_455 S
C226 C231 1.363 . S
C227 H198 0.950 . S
C227 C226 1.397 1_655 S
C227 C228 1.334 . S
C228 H199 0.950 . S
C228 C227 1.334 . S
C228 C229 1.287 1_655 S
C229 C228 1.287 1_455 S
C229 C230 1.524 . S
C229 H232 0.999 . S
C230 H200 0.950 . S
C230 C229 1.524 . S
C230 C231 1.415 . S
C231 H201 0.950 . S
C231 C226 1.363 . S
C231 C230 1.415 . S
H232 C229 0.999 . S
H233 C214 0.913 . S
H234 C252 0.951 . S
H235 C254 0.951 . S
H236 C256 0.950 . S
H237 C257 0.950 1_554 S
H238 C259 0.950 . S
H239 C262 0.950 . S
H240 C263 0.950 . S
H241 C265 0.950 . S
H242 C266 0.950 . S
H243 C267 0.951 . S
H244 C269 0.951 . S
H245 C271 0.950 . S
H246 C272 0.950 . S
H247 C274 0.950 . S
H248 C277 0.950 . S
H249 C278 0.950 . S
H250 C280 0.950 . S
H251 C281 0.950 . S
C252 H234 0.951 . S
C252 C253 1.366 . S
C252 C254 1.388 . S
C253 C252 1.366 . S
C253 C257 1.385 . S
C254 H235 0.951 . S
C254 C252 1.388 . S
C254 C255 1.366 . S
C255 C254 1.366 . S
C255 C256 1.414 . S
C255 C258 1.499 . S
C256 H236 0.950 . S
C256 C255 1.414 . S
C256 C257 1.374 . S
C257 H237 0.950 1_556 S
C257 C253 1.385 . S
C257 C256 1.374 . S
C258 C255 1.499 . S
C258 C259 1.373 . S
C258 C260 1.389 . S
C259 H238 0.950 . S
C259 C258 1.373 . S
C259 C275 1.377 . S
C260 C258 1.389 . S
C260 C261 1.524 . S
C260 C274 1.377 . S
C261 C260 1.524 . S
C261 C262 1.397 . S
C261 C266 1.363 . S
C262 H239 0.950 . S
C262 C261 1.397 . S
C262 C263 1.334 . S
C263 H240 0.950 . S
C263 C262 1.334 . S
C263 C264 1.287 . S
C264 C263 1.287 . S
C264 C265 1.524 . S
C264 H283 0.913 . S
C265 H241 0.950 . S
C265 C264 1.524 . S
C265 C266 1.415 . S
C266 H242 0.950 . S
C266 C261 1.363 . S
C266 C265 1.415 . S
C267 H243 0.951 . S
C267 C268 1.366 . S
C267 C269 1.388 . S
C268 C267 1.366 . S
C268 C272 1.385 . S
C269 H244 0.951 . S
C269 C267 1.388 . S
C269 C270 1.366 . S
C270 C269 1.366 . S
C270 C271 1.414 . S
C270 C273 1.499 . S
C271 H245 0.950 . S
C271 C270 1.414 . S
C271 C272 1.374 . S
C272 H246 0.950 . S
C272 C268 1.385 . S
C272 C271 1.374 . S
C273 C270 1.499 . S
C273 C274 1.373 . S
C273 C275 1.389 . S
C274 H247 0.950 . S
C274 C260 1.377 . S
C274 C273 1.373 . S
C275 C259 1.377 . S
C275 C273 1.389 . S
C275 C276 1.524 . S
C276 C275 1.524 . S
C276 C277 1.397 1_545 S
C276 C281 1.363 . S
C277 H248 0.950 . S
C277 C276 1.397 1_565 S
C277 C278 1.334 . S
C278 H249 0.950 . S
C278 C277 1.334 . S
C278 C279 1.287 . S
C279 C278 1.287 . S
C279 C280 1.524 1_565 S
C279 H282 0.999 . S
C280 H250 0.950 . S
C280 C279 1.524 1_545 S
C280 C281 1.415 . S
C281 H251 0.950 . S
C281 C276 1.363 . S
C281 C280 1.415 . S
H282 C279 0.999 . S
H283 C264 0.913 . S
H284 C302 0.951 . S
H285 C304 0.951 . S
H286 C306 0.950 . S
H287 C307 0.950 . S
H288 C309 0.950 . S
H289 C312 0.950 . S
H290 C313 0.950 . S
H291 C315 0.950 . S
H292 C316 0.950 . S
H293 C317 0.951 . S
H294 C319 0.951 . S
H295 C321 0.950 . S
H296 C322 0.950 . S
H297 C324 0.950 . S
H298 C327 0.950 . S
H299 C328 0.950 . S
H300 C330 0.950 1_554 S
H301 C331 0.950 . S
C302 H284 0.951 . S
C302 C303 1.366 . S
C302 C304 1.388 . S
C303 C302 1.366 . S
C303 C307 1.385 . S
C304 H285 0.951 . S
C304 C302 1.388 . S
C304 C305 1.366 . S
C305 C304 1.366 . S
C305 C306 1.414 . S
C305 C308 1.499 . S
C306 H286 0.950 . S
C306 C305 1.414 . S
C306 C307 1.374 . S
C307 H287 0.950 . S
C307 C303 1.385 . S
C307 C306 1.374 . S
C308 C305 1.499 . S
C308 C309 1.373 . S
C308 C310 1.389 1_554 S
C309 H288 0.950 . S
C309 C308 1.373 . S
C309 C325 1.377 1_554 S
C310 C308 1.389 1_556 S
C310 C311 1.524 1_556 S
C310 C324 1.377 . S
C311 C310 1.524 1_554 S
C311 C312 1.397 . S
C311 C316 1.363 1_554 S
C312 H289 0.950 . S
C312 C311 1.397 . S
C312 C313 1.334 . S
C313 H290 0.950 . S
C313 C312 1.334 . S
C313 C314 1.287 . S
C314 C313 1.287 . S
C314 C315 1.524 1_554 S
C314 H333 0.913 . S
C315 H291 0.950 . S
C315 C314 1.524 1_556 S
C315 C316 1.415 . S
C316 H292 0.950 . S
C316 C311 1.363 1_556 S
C316 C315 1.415 . S
C317 H293 0.951 . S
C317 C318 1.366 . S
C317 C319 1.388 . S
C318 C317 1.366 . S
C318 C322 1.385 . S
C319 H294 0.951 . S
C319 C317 1.388 . S
C319 C320 1.366 . S
C320 C319 1.366 . S
C320 C321 1.414 . S
C320 C323 1.499 . S
C321 H295 0.950 . S
C321 C320 1.414 . S
C321 C322 1.374 . S
C322 H296 0.950 . S
C322 C318 1.385 . S
C322 C321 1.374 . S
C323 C320 1.499 . S
C323 C324 1.373 . S
C323 C325 1.389 . S
C324 H297 0.950 . S
C324 C310 1.377 . S
C324 C323 1.373 . S
C325 C309 1.377 1_556 S
C325 C323 1.389 . S
C325 C326 1.524 . S
C326 C325 1.524 . S
C326 C327 1.397 . S
C326 C331 1.363 1_556 S
C327 H298 0.950 . S
C327 C326 1.397 . S
C327 C328 1.334 . S
C328 H299 0.950 . S
C328 C327 1.334 . S
C328 C329 1.287 . S
C329 C328 1.287 . S
C329 C330 1.524 . S
C329 H332 0.999 . S
C330 H300 0.950 1_556 S
C330 C329 1.524 . S
C330 C331 1.415 1_556 S
C331 H301 0.950 . S
C331 C326 1.363 1_554 S
C331 C330 1.415 1_554 S
H332 C329 0.999 . S
H333 C314 0.913 . S
H334 C352 0.951 . S
H335 C354 0.951 . S
H336 C356 0.950 . S
H337 C357 0.950 . S
H338 C359 0.950 . S
H339 C362 0.950 1_455 S
H340 C363 0.950 . S
H341 C365 0.950 . S
H342 C366 0.950 . S
H343 C367 0.951 . S
H344 C369 0.951 . S
H345 C371 0.950 . S
H346 C372 0.950 . S
H347 C374 0.950 . S
H348 C377 0.950 . S
H349 C378 0.950 . S
H350 C380 0.950 . S
H351 C381 0.950 . S
C352 H334 0.951 . S
C352 C353 1.366 1_655 S
C352 C354 1.388 . S
C353 C352 1.366 1_455 S
C353 C357 1.385 . S
C354 H335 0.951 . S
C354 C352 1.388 . S
C354 C355 1.366 1_655 S
C355 C354 1.366 1_455 S
C355 C356 1.414 . S
C355 C358 1.499 . S
C356 H336 0.950 . S
C356 C355 1.414 . S
C356 C357 1.374 . S
C357 H337 0.950 . S
C357 C353 1.385 . S
C357 C356 1.374 . S
C358 C355 1.499 . S
C358 C359 1.373 . S
C358 C360 1.389 1_455 S
C359 H338 0.950 . S
C359 C358 1.373 . S
C359 C375 1.377 . S
C360 C358 1.389 1_655 S
C360 C361 1.524 . S
C360 C374 1.377 . S
C361 C360 1.524 . S
C361 C362 1.397 . S
C361 C366 1.363 . S
C362 H339 0.950 1_655 S
C362 C361 1.397 . S
C362 C363 1.334 1_554 S
C363 H340 0.950 . S
C363 C362 1.334 1_556 S
C363 C364 1.287 1_556 S
C364 C363 1.287 1_554 S
C364 C365 1.525 . S
C364 H383 0.912 1_554 S
C365 H341 0.950 . S
C365 C364 1.525 . S
C365 C366 1.415 . S
C366 H342 0.950 . S
C366 C361 1.363 . S
C366 C365 1.415 . S
C367 H343 0.951 . S
C367 C368 1.366 . S
C367 C369 1.388 . S
C368 C367 1.366 . S
C368 C372 1.385 1_455 S
C369 H344 0.951 . S
C369 C367 1.388 . S
C369 C370 1.366 . S
C370 C369 1.366 . S
C370 C371 1.414 1_455 S
C370 C373 1.499 . S
C371 H345 0.950 . S
C371 C370 1.414 1_655 S
C371 C372 1.374 . S
C372 H346 0.950 . S
C372 C368 1.385 1_655 S
C372 C371 1.374 . S
C373 C370 1.499 . S
C373 C374 1.373 1_455 S
C373 C375 1.389 . S
C374 H347 0.950 . S
C374 C360 1.377 . S
C374 C373 1.373 1_655 S
C375 C359 1.377 . S
C375 C373 1.389 . S
C375 C376 1.524 . S
C376 C375 1.524 . S
C376 C377 1.397 . S
C376 C381 1.363 . S
C377 H348 0.950 . S
C377 C376 1.397 . S
C377 C378 1.334 . S
C378 H349 0.950 . S
C378 C377 1.334 . S
C378 C379 1.287 . S
C379 C378 1.287 . S
C379 C380 1.524 . S
C379 H382 0.999 . S
C380 H350 0.950 . S
C380 C379 1.524 . S
C380 C381 1.415 . S
C381 H351 0.950 . S
C381 C376 1.363 . S
C381 C380 1.415 . S
H382 C379 0.999 . S
H383 C364 0.912 1_556 S
H384 C402 0.951 . S
H385 C404 0.951 . S
H386 C406 0.950 . S
H387 C407 0.950 . S
H388 C409 0.950 . S
H389 C412 0.950 . S
H390 C413 0.950 . S
H391 C415 0.950 . S
H392 C416 0.950 . S
H393 C417 0.951 . S
H394 C419 0.951 . S
H395 C421 0.950 . S
H396 C422 0.950 . S
H397 C424 0.950 . S
H398 C427 0.950 . S
H399 C428 0.950 . S
H400 C430 0.950 . S
H401 C431 0.950 . S
C402 H384 0.951 . S
C402 C403 1.366 . S
C402 C404 1.388 . S
C403 C402 1.366 . S
C403 C407 1.385 . S
C404 H385 0.951 . S
C404 C402 1.388 . S
C404 C405 1.366 . S
C405 C404 1.366 . S
C405 C406 1.414 . S
C405 C408 1.499 . S
C406 H386 0.950 . S
C406 C405 1.414 . S
C406 C407 1.374 . S
C407 H387 0.950 . S
C407 C403 1.385 . S
C407 C406 1.374 . S
C408 C405 1.499 . S
C408 C409 1.373 . S
C408 C410 1.389 . S
C409 H388 0.950 . S
C409 C408 1.373 . S
C409 C425 1.377 . S
C410 C408 1.389 . S
C410 C411 1.524 . S
C410 C424 1.377 . S
C411 C410 1.524 . S
C411 C412 1.397 . S
C411 C416 1.363 . S
C412 H389 0.950 . S
C412 C411 1.397 . S
C412 C413 1.334 . S
C413 H390 0.950 . S
C413 C412 1.334 . S
C413 C414 1.287 . S
C414 C413 1.287 . S
C414 C415 1.524 . S
C414 H433 0.913 . S
C415 H391 0.950 . S
C415 C414 1.524 . S
C415 C416 1.415 . S
C416 H392 0.950 . S
C416 C411 1.363 . S
C416 C415 1.415 . S
C417 H393 0.951 . S
C417 C418 1.366 . S
C417 C419 1.388 . S
C418 C417 1.366 . S
C418 C422 1.385 . S
C419 H394 0.951 . S
C419 C417 1.388 . S
C419 C420 1.366 . S
C420 C419 1.366 . S
C420 C421 1.414 . S
C420 C423 1.499 . S
C421 H395 0.950 . S
C421 C420 1.414 . S
C421 C422 1.374 . S
C422 H396 0.950 . S
C422 C418 1.385 . S
C422 C421 1.374 . S
C423 C420 1.499 . S
C423 C424 1.373 . S
C423 C425 1.389 . S
C424 H397 0.950 . S
C424 C410 1.377 . S
C424 C423 1.373 . S
C425 C409 1.377 . S
C425 C423 1.389 . S
C425 C426 1.524 . S
C426 C425 1.524 . S
C426 C427 1.397 . S
C426 C431 1.363 . S
C427 H398 0.950 . S
C427 C426 1.397 . S
C427 C428 1.334 . S
C428 H399 0.950 . S
C428 C427 1.334 . S
C428 C429 1.287 . S
C429 C428 1.287 . S
C429 C430 1.524 . S
C429 H432 0.999 . S
C430 H400 0.950 . S
C430 C429 1.524 . S
C430 C431 1.415 . S
C431 H401 0.950 . S
C431 C426 1.363 . S
C431 C430 1.415 . S
H432 C429 0.999 . S
H433 C414 0.913 . S
H434 C452 0.951 . S
H435 C454 0.951 . S
H436 C456 0.950 . S
H437 C457 0.950 . S
H438 C459 0.950 . S
H439 C462 0.950 . S
H440 C463 0.950 . S
H441 C465 0.950 . S
H442 C466 0.950 . S
H443 C467 0.951 . S
H444 C469 0.951 . S
H445 C471 0.950 . S
H446 C472 0.950 . S
H447 C474 0.950 . S
H448 C477 0.950 . S
H449 C478 0.950 . S
H450 C480 0.950 . S
H451 C481 0.950 . S
C452 H434 0.951 . S
C452 C453 1.366 . S
C452 C454 1.388 . S
C453 C452 1.366 . S
C453 C457 1.385 . S
C454 H435 0.951 . S
C454 C452 1.388 . S
C454 C455 1.366 . S
C455 C454 1.366 . S
C455 C456 1.414 . S
C455 C458 1.499 . S
C456 H436 0.950 . S
C456 C455 1.414 . S
C456 C457 1.374 . S
C457 H437 0.950 . S
C457 C453 1.385 . S
C457 C456 1.374 . S
C458 C455 1.499 . S
C458 C459 1.373 . S
C458 C460 1.389 . S
C459 H438 0.950 . S
C459 C458 1.373 . S
C459 C475 1.377 . S
C460 C458 1.389 . S
C460 C461 1.524 . S
C460 C474 1.377 . S
C461 C460 1.524 . S
C461 C462 1.397 . S
C461 C466 1.363 . S
C462 H439 0.950 . S
C462 C461 1.397 . S
C462 C463 1.334 . S
C463 H440 0.950 . S
C463 C462 1.334 . S
C463 C464 1.287 . S
C464 C463 1.287 . S
C464 C465 1.524 . S
C464 H483 0.913 . S
C465 H441 0.950 . S
C465 C464 1.524 . S
C465 C466 1.415 . S
C466 H442 0.950 . S
C466 C461 1.363 . S
C466 C465 1.415 . S
C467 H443 0.951 . S
C467 C468 1.366 . S
C467 C469 1.388 . S
C468 C467 1.366 . S
C468 C472 1.385 . S
C469 H444 0.951 . S
C469 C467 1.388 . S
C469 C470 1.366 . S
C470 C469 1.366 . S
C470 C471 1.414 . S
C470 C473 1.499 . S
C471 H445 0.950 . S
C471 C470 1.414 . S
C471 C472 1.374 . S
C472 H446 0.950 . S
C472 C468 1.385 . S
C472 C471 1.374 . S
C473 C470 1.499 . S
C473 C474 1.373 . S
C473 C475 1.389 . S
C474 H447 0.950 . S
C474 C460 1.377 . S
C474 C473 1.373 . S
C475 C459 1.377 . S
C475 C473 1.389 . S
C475 C476 1.524 . S
C476 C475 1.524 . S
C476 C477 1.397 . S
C476 C481 1.363 . S
C477 H448 0.950 . S
C477 C476 1.397 . S
C477 C478 1.334 . S
C478 H449 0.950 . S
C478 C477 1.334 . S
C478 C479 1.287 . S
C479 C478 1.287 . S
C479 C480 1.524 . S
C479 H482 0.999 . S
C480 H450 0.950 . S
C480 C479 1.524 . S
C480 C481 1.415 . S
C481 H451 0.950 . S
C481 C476 1.363 . S
C481 C480 1.415 . S
H482 C479 0.999 . S
H483 C464 0.913 . S
H484 C502 0.951 . S
H485 C504 0.951 . S
H486 C506 0.950 . S
H487 C507 0.950 . S
H488 C509 0.950 . S
H489 C512 0.950 . S
H490 C513 0.950 . S
H491 C515 0.950 . S
H492 C516 0.950 . S
H493 C517 0.951 . S
H494 C519 0.951 . S
H495 C521 0.950 . S
H496 C522 0.950 . S
H497 C524 0.950 . S
H498 C527 0.950 . S
H499 C528 0.950 . S
H500 C530 0.950 . S
H501 C531 0.950 . S
C502 H484 0.951 . S
C502 C503 1.366 . S
C502 C504 1.388 . S
C503 C502 1.366 . S
C503 C507 1.385 . S
C504 H485 0.951 . S
C504 C502 1.388 . S
C504 C505 1.366 . S
C505 C504 1.366 . S
C505 C506 1.414 . S
C505 C508 1.499 . S
C506 H486 0.950 . S
C506 C505 1.414 . S
C506 C507 1.374 . S
C507 H487 0.950 . S
C507 C503 1.385 . S
C507 C506 1.374 . S
C508 C505 1.499 . S
C508 C509 1.373 . S
C508 C510 1.389 . S
C509 H488 0.950 . S
C509 C508 1.373 . S
C509 C525 1.377 . S
C510 C508 1.389 . S
C510 C511 1.524 . S
C510 C524 1.377 . S
C511 C510 1.524 . S
C511 C512 1.397 . S
C511 C516 1.363 . S
C512 H489 0.950 . S
C512 C511 1.397 . S
C512 C513 1.334 . S
C513 H490 0.950 . S
C513 C512 1.334 . S
C513 C514 1.287 . S
C514 C513 1.287 . S
C514 C515 1.524 . S
C514 H533 0.913 . S
C515 H491 0.950 . S
C515 C514 1.524 . S
C515 C516 1.415 . S
C516 H492 0.950 . S
C516 C511 1.363 . S
C516 C515 1.415 . S
C517 H493 0.951 . S
C517 C518 1.366 . S
C517 C519 1.388 . S
C518 C517 1.366 . S
C518 C522 1.385 . S
C519 H494 0.951 . S
C519 C517 1.388 . S
C519 C520 1.366 . S
C520 C519 1.366 . S
C520 C521 1.414 . S
C520 C523 1.499 . S
C521 H495 0.950 . S
C521 C520 1.414 . S
C521 C522 1.374 . S
C522 H496 0.950 . S
C522 C518 1.385 . S
C522 C521 1.374 . S
C523 C520 1.499 . S
C523 C524 1.373 . S
C523 C525 1.389 . S
C524 H497 0.950 . S
C524 C510 1.377 . S
C524 C523 1.373 . S
C525 C509 1.377 . S
C525 C523 1.389 . S
C525 C526 1.524 . S
C526 C525 1.524 . S
C526 C527 1.397 . S
C526 C531 1.363 . S
C527 H498 0.950 . S
C527 C526 1.397 . S
C527 C528 1.334 . S
C528 H499 0.950 . S
C528 C527 1.334 . S
C528 C529 1.287 . S
C529 C528 1.287 . S
C529 C530 1.524 . S
C529 H532 0.999 . S
C530 H500 0.950 . S
C530 C529 1.524 . S
C530 C531 1.415 . S
C531 H501 0.950 . S
C531 C526 1.363 . S
C531 C530 1.415 . S
H532 C529 0.999 . S
H533 C514 0.913 . S
H534 C552 0.951 . S
H535 C554 0.951 . S
H536 C556 0.950 . S
H537 C557 0.950 . S
H538 C559 0.950 . S
H539 C562 0.950 . S
H540 C563 0.950 . S
H541 C565 0.950 . S
H542 C566 0.950 . S
H543 C567 0.951 . S
H544 C569 0.951 . S
H545 C571 0.950 . S
H546 C572 0.950 . S
H547 C574 0.950 . S
H548 C577 0.950 . S
H549 C578 0.950 . S
H550 C580 0.950 . S
H551 C581 0.950 . S
C552 H534 0.951 . S
C552 C553 1.366 . S
C552 C554 1.388 . S
C553 C552 1.366 . S
C553 C557 1.385 . S
C554 H535 0.951 . S
C554 C552 1.388 . S
C554 C555 1.366 . S
C555 C554 1.366 . S
C555 C556 1.414 . S
C555 C558 1.499 . S
C556 H536 0.950 . S
C556 C555 1.414 . S
C556 C557 1.374 . S
C557 H537 0.950 . S
C557 C553 1.385 . S
C557 C556 1.374 . S
C558 C555 1.499 . S
C558 C559 1.373 . S
C558 C560 1.389 . S
C559 H538 0.950 . S
C559 C558 1.373 . S
C559 C575 1.377 . S
C560 C558 1.389 . S
C560 C561 1.524 . S
C560 C574 1.377 . S
C561 C560 1.524 . S
C561 C562 1.397 . S
C561 C566 1.363 . S
C562 H539 0.950 . S
C562 C561 1.397 . S
C562 C563 1.334 . S
C563 H540 0.950 . S
C563 C562 1.334 . S
C563 C564 1.287 . S
C564 C563 1.287 . S
C564 C565 1.524 . S
C564 H583 0.913 . S
C565 H541 0.950 . S
C565 C564 1.524 . S
C565 C566 1.415 . S
C566 H542 0.950 . S
C566 C561 1.363 . S
C566 C565 1.415 . S
C567 H543 0.951 . S
C567 C568 1.366 . S
C567 C569 1.388 . S
C568 C567 1.366 . S
C568 C572 1.385 . S
C569 H544 0.951 . S
C569 C567 1.388 . S
C569 C570 1.366 . S
C570 C569 1.366 . S
C570 C571 1.414 . S
C570 C573 1.499 . S
C571 H545 0.950 . S
C571 C570 1.414 . S
C571 C572 1.374 . S
C572 H546 0.950 . S
C572 C568 1.385 . S
C572 C571 1.374 . S
C573 C570 1.499 . S
C573 C574 1.373 . S
C573 C575 1.389 . S
C574 H547 0.950 . S
C574 C560 1.377 . S
C574 C573 1.373 . S
C575 C559 1.377 . S
C575 C573 1.389 . S
C575 C576 1.524 . S
C576 C575 1.524 . S
C576 C577 1.397 . S
C576 C581 1.363 . S
C577 H548 0.950 . S
C577 C576 1.397 . S
C577 C578 1.334 . S
C578 H549 0.950 . S
C578 C577 1.334 . S
C578 C579 1.287 . S
C579 C578 1.287 . S
C579 C580 1.524 . S
C579 H582 0.999 . S
C580 H550 0.950 . S
C580 C579 1.524 . S
C580 C581 1.415 . S
C581 H551 0.950 . S
C581 C576 1.363 . S
C581 C580 1.415 . S
H582 C579 0.999 . S
H583 C564 0.913 . S
H584 C602 0.951 . S
H585 C604 0.951 . S
H586 C606 0.950 . S
H587 C607 0.950 . S
H588 C609 0.950 . S
H589 C612 0.950 . S
H590 C613 0.950 . S
H591 C615 0.950 1_554 S
H592 C616 0.950 . S
H593 C617 0.951 . S
H594 C619 0.951 . S
H595 C621 0.950 . S
H596 C622 0.950 . S
H597 C624 0.950 . S
H598 C627 0.950 . S
H599 C628 0.950 . S
H600 C630 0.950 . S
H601 C631 0.950 . S
C602 H584 0.951 . S
C602 C603 1.366 . S
C602 C604 1.388 . S
C603 C602 1.366 . S
C603 C607 1.385 . S
C604 H585 0.951 . S
C604 C602 1.388 . S
C604 C605 1.366 . S
C605 C604 1.366 . S
C605 C606 1.414 . S
C605 C608 1.499 . S
C606 H586 0.950 . S
C606 C605 1.414 . S
C606 C607 1.374 . S
C607 H587 0.950 . S
C607 C603 1.385 . S
C607 C606 1.374 . S
C608 C605 1.499 . S
C608 C609 1.373 . S
C608 C610 1.389 . S
C609 H588 0.950 . S
C609 C608 1.373 . S
C609 C625 1.377 . S
C610 C608 1.389 . S
C610 C611 1.524 . S
C610 C624 1.377 . S
C611 C610 1.524 . S
C611 C612 1.397 . S
C611 C616 1.363 . S
C612 H589 0.950 . S
C612 C611 1.397 . S
C612 C613 1.334 . S
C613 H590 0.950 . S
C613 C612 1.334 . S
C613 C614 1.287 . S
C614 C613 1.287 . S
C614 C615 1.524 . S
C614 H633 0.913 1_556 S
C615 H591 0.950 1_556 S
C615 C614 1.524 . S
C615 C616 1.415 . S
C616 H592 0.950 . S
C616 C611 1.363 . S
C616 C615 1.415 . S
C617 H593 0.951 . S
C617 C618 1.366 . S
C617 C619 1.388 . S
C618 C617 1.366 . S
C618 C622 1.385 . S
C619 H594 0.951 . S
C619 C617 1.388 . S
C619 C620 1.366 . S
C620 C619 1.366 . S
C620 C621 1.414 . S
C620 C623 1.499 . S
C621 H595 0.950 . S
C621 C620 1.414 . S
C621 C622 1.374 . S
C622 H596 0.950 . S
C622 C618 1.385 . S
C622 C621 1.374 . S
C623 C620 1.499 . S
C623 C624 1.373 . S
C623 C625 1.389 . S
C624 H597 0.950 . S
C624 C610 1.377 . S
C624 C623 1.373 . S
C625 C609 1.377 . S
C625 C623 1.389 . S
C625 C626 1.524 . S
C626 C625 1.524 . S
C626 C627 1.397 . S
C626 C631 1.363 . S
C627 H598 0.950 . S
C627 C626 1.397 . S
C627 C628 1.334 . S
C628 H599 0.950 . S
C628 C627 1.334 . S
C628 C629 1.287 . S
C629 C628 1.287 . S
C629 C630 1.524 . S
C629 H632 0.999 . S
C630 H600 0.950 . S
C630 C629 1.524 . S
C630 C631 1.415 . S
C631 H601 0.950 . S
C631 C626 1.363 . S
C631 C630 1.415 . S
H632 C629 0.999 . S
H633 C614 0.913 1_554 S
H634 C652 0.946 1_554 S
H635 C654 0.951 1_554 S
H636 C656 0.950 . S
H637 C657 0.950 . S
H638 C659 0.950 . S
H639 C662 0.950 . S
H640 C663 0.950 . S
H641 C665 0.950 . S
H642 C666 0.950 . S
H643 C667 0.951 . S
H644 C669 0.951 . S
H645 C671 0.950 . S
H646 C672 0.950 . S
H647 C674 0.950 . S
H648 C677 0.950 . S
H649 C678 0.950 . S
H650 C680 0.950 . S
H651 C681 0.950 . S
C652 H634 0.946 1_556 S
C652 C653 1.366 . S
C652 C654 1.388 . S
C653 C652 1.366 . S
C653 C657 1.385 . S
C654 H635 0.951 1_556 S
C654 C652 1.388 . S
C654 C655 1.366 . S
C655 C654 1.366 . S
C655 C656 1.414 . S
C655 C658 1.499 . S
C656 H636 0.950 . S
C656 C655 1.414 . S
C656 C657 1.374 . S
C657 H637 0.950 . S
C657 C653 1.385 . S
C657 C656 1.374 . S
C658 C655 1.499 . S
C658 C659 1.373 . S
C658 C660 1.389 1_556 S
C659 H638 0.950 . S
C659 C658 1.373 . S
C659 C675 1.377 . S
C660 C658 1.389 1_554 S
C660 C661 1.524 . S
C660 C674 1.377 . S
C661 C660 1.524 . S
C661 C662 1.397 . S
C661 C666 1.363 . S
C662 H639 0.950 . S
C662 C661 1.397 . S
C662 C663 1.334 . S
C663 H640 0.950 . S
C663 C662 1.334 . S
C663 C664 1.287 . S
C664 C663 1.287 . S
C664 C665 1.524 . S
C664 H683 0.913 . S
C665 H641 0.950 . S
C665 C664 1.524 . S
C665 C666 1.415 . S
C666 H642 0.950 . S
C666 C661 1.363 . S
C666 C665 1.415 . S
C667 H643 0.951 . S
C667 C668 1.366 1_556 S
C667 C669 1.388 . S
C668 C667 1.366 1_554 S
C668 C672 1.385 . S
C669 H644 0.951 . S
C669 C667 1.388 . S
C669 C670 1.366 1_556 S
C670 C669 1.366 1_554 S
C670 C671 1.414 . S
C670 C673 1.499 1_554 S
C671 H645 0.950 . S
C671 C670 1.414 . S
C671 C672 1.374 . S
C672 H646 0.950 . S
C672 C668 1.385 . S
C672 C671 1.374 . S
C673 C670 1.499 1_556 S
C673 C674 1.373 1_556 S
C673 C675 1.389 . S
C674 H647 0.950 . S
C674 C660 1.377 . S
C674 C673 1.373 1_554 S
C675 C659 1.377 . S
C675 C673 1.389 . S
C675 C676 1.524 . S
C676 C675 1.524 . S
C676 C677 1.397 . S
C676 C681 1.363 . S
C677 H648 0.950 . S
C677 C676 1.397 . S
C677 C678 1.334 . S
C678 H649 0.950 . S
C678 C677 1.334 . S
C678 C679 1.287 . S
C679 C678 1.287 . S
C679 C680 1.524 . S
C679 H682 0.999 . S
C680 H650 0.950 . S
C680 C679 1.524 . S
C680 C681 1.415 . S
C681 H651 0.950 . S
C681 C676 1.363 . S
C681 C680 1.415 . S
H682 C679 0.999 . S
H683 C664 0.913 . S
C103 C9 1.887 . S
C118 C50 1.887 . S
C153 C23 1.887 . S
C168 C64 1.887 . S
C203 C78 1.887 . S
C218 C37 1.887 . S
C253 C8 1.887 1_556 S
C268 C51 1.886 . S
C303 C22 1.887 . S
C318 C65 1.886 . S
C353 C79 1.887 1_554 S
C368 C36 1.887 . S
C403 C20 1.413 . S
C418 C7 1.412 . S
C453 C34 1.414 . S
C468 C21 1.413 . S
C503 C35 1.412 . S
C518 C48 1.413 . S
C553 C62 1.413 . S
C568 C49 1.413 . S
C603 C76 1.414 . S
C618 C63 1.413 . S
C653 C77 1.412 . S
C668 C6 1.413 . S
