# Generated by pormake.
# Topology wln, (5)-cn, num edge types: 1
# Building blocks:
#     Node 0, Type 0, BuildingBlock: BEQFEK_clean_sbu_0, # of connection points: 5
#     Node 1, Type 0, BuildingBlock: BEQFEK_clean_sbu_0, # of connection points: 5
#     Node 2, Type 0, BuildingBlock: BEQFEK_clean_sbu_0, # of connection points: 5
#     Node 3, Type 0, BuildingBlock: BEQFEK_clean_sbu_0, # of connection points: 5
#     Node 4, Type 0, BuildingBlock: BEQFEK_clean_sbu_0, # of connection points: 5
#     Node 5, Type 0, BuildingBlock: BEQFEK_clean_sbu_0, # of connection points: 5
#     Node 6, Type 0, BuildingBlock: BEQFEK_clean_sbu_0, # of connection points: 5
#     Node 7, Type 0, BuildingBlock: BEQFEK_clean_sbu_0, # of connection points: 5
#     Node 8, Type 0, BuildingBlock: BEQFEK_clean_sbu_0, # of connection points: 5
#     Node 9, Type 0, BuildingBlock: BEQFEK_clean_sbu_0, # of connection points: 5
#     Node 10, Type 0, BuildingBlock: BEQFEK_clean_sbu_0, # of connection points: 5
#     Node 11, Type 0, BuildingBlock: BEQFEK_clean_sbu_0, # of connection points: 5
#     Node 12, Type 0, BuildingBlock: BEQFEK_clean_sbu_0, # of connection points: 5
#     Node 13, Type 0, BuildingBlock: BEQFEK_clean_sbu_0, # of connection points: 5
#     Node 14, Type 0, BuildingBlock: BEQFEK_clean_sbu_0, # of connection points: 5
#     Node 15, Type 0, BuildingBlock: BEQFEK_clean_sbu_0, # of connection points: 5
#     Node 16, Type 0, BuildingBlock: BEQFEK_clean_sbu_0, # of connection points: 5
#     Node 17, Type 0, BuildingBlock: BEQFEK_clean_sbu_0, # of connection points: 5
#     Node 18, Type 0, BuildingBlock: BEQFEK_clean_sbu_0, # of connection points: 5
#     Node 19, Type 0, BuildingBlock: BEQFEK_clean_sbu_0, # of connection points: 5
#     Node 20, Type 0, BuildingBlock: BEQFEK_clean_sbu_0, # of connection points: 5
#     Node 21, Type 0, BuildingBlock: BEQFEK_clean_sbu_0, # of connection points: 5
#     Node 22, Type 0, BuildingBlock: BEQFEK_clean_sbu_0, # of connection points: 5
#     Node 23, Type 0, BuildingBlock: BEQFEK_clean_sbu_0, # of connection points: 5
#     Node 24, Type 0, BuildingBlock: BEQFEK_clean_sbu_0, # of connection points: 5
#     Node 25, Type 0, BuildingBlock: BEQFEK_clean_sbu_0, # of connection points: 5
#     Node 26, Type 0, BuildingBlock: BEQFEK_clean_sbu_0, # of connection points: 5
#     Node 27, Type 0, BuildingBlock: BEQFEK_clean_sbu_0, # of connection points: 5
#     Node 28, Type 0, BuildingBlock: BEQFEK_clean_sbu_0, # of connection points: 5
#     Node 29, Type 0, BuildingBlock: BEQFEK_clean_sbu_0, # of connection points: 5
#     Node 30, Type 0, BuildingBlock: BEQFEK_clean_sbu_0, # of connection points: 5
#     Node 31, Type 0, BuildingBlock: BEQFEK_clean_sbu_0, # of connection points: 5
#     Node 32, Type 0, BuildingBlock: BEQFEK_clean_sbu_0, # of connection points: 5
#     Node 33, Type 0, BuildingBlock: BEQFEK_clean_sbu_0, # of connection points: 5
#     Node 34, Type 0, BuildingBlock: BEQFEK_clean_sbu_0, # of connection points: 5
#     Node 35, Type 0, BuildingBlock: BEQFEK_clean_sbu_0, # of connection points: 5
#     Edge 36, Type (0, 0), BuildingBlock: AJUNOK_clean_linker_0, # of connection points: 2
#     Edge 37, Type (0, 0), BuildingBlock: AJUNOK_clean_linker_0, # of connection points: 2
#     Edge 38, Type (0, 0), BuildingBlock: AJUNOK_clean_linker_0, # of connection points: 2
#     Edge 39, Type (0, 0), BuildingBlock: AJUNOK_clean_linker_0, # of connection points: 2
#     Edge 40, Type (0, 0), BuildingBlock: AJUNOK_clean_linker_0, # of connection points: 2
#     Edge 41, Type (0, 0), BuildingBlock: AJUNOK_clean_linker_0, # of connection points: 2
#     Edge 42, Type (0, 0), BuildingBlock: AJUNOK_clean_linker_0, # of connection points: 2
#     Edge 43, Type (0, 0), BuildingBlock: AJUNOK_clean_linker_0, # of connection points: 2
#     Edge 44, Type (0, 0), BuildingBlock: AJUNOK_clean_linker_0, # of connection points: 2
#     Edge 45, Type (0, 0), BuildingBlock: AJUNOK_clean_linker_0, # of connection points: 2
#     Edge 46, Type (0, 0), BuildingBlock: AJUNOK_clean_linker_0, # of connection points: 2
#     Edge 47, Type (0, 0), BuildingBlock: AJUNOK_clean_linker_0, # of connection points: 2
#     Edge 48, Type (0, 0), BuildingBlock: AJUNOK_clean_linker_0, # of connection points: 2
#     Edge 49, Type (0, 0), BuildingBlock: AJUNOK_clean_linker_0, # of connection points: 2
#     Edge 50, Type (0, 0), BuildingBlock: AJUNOK_clean_linker_0, # of connection points: 2
#     Edge 51, Type (0, 0), BuildingBlock: AJUNOK_clean_linker_0, # of connection points: 2
#     Edge 52, Type (0, 0), BuildingBlock: AJUNOK_clean_linker_0, # of connection points: 2
#     Edge 53, Type (0, 0), BuildingBlock: AJUNOK_clean_linker_0, # of connection points: 2
#     Edge 54, Type (0, 0), BuildingBlock: AJUNOK_clean_linker_0, # of connection points: 2
#     Edge 55, Type (0, 0), BuildingBlock: AJUNOK_clean_linker_0, # of connection points: 2
#     Edge 56, Type (0, 0), BuildingBlock: AJUNOK_clean_linker_0, # of connection points: 2
#     Edge 57, Type (0, 0), BuildingBlock: AJUNOK_clean_linker_0, # of connection points: 2
#     Edge 58, Type (0, 0), BuildingBlock: AJUNOK_clean_linker_0, # of connection points: 2
#     Edge 59, Type (0, 0), BuildingBlock: AJUNOK_clean_linker_0, # of connection points: 2
#     Edge 60, Type (0, 0), BuildingBlock: AJUNOK_clean_linker_0, # of connection points: 2
#     Edge 61, Type (0, 0), BuildingBlock: AJUNOK_clean_linker_0, # of connection points: 2
#     Edge 62, Type (0, 0), BuildingBlock: AJUNOK_clean_linker_0, # of connection points: 2
#     Edge 63, Type (0, 0), BuildingBlock: AJUNOK_clean_linker_0, # of connection points: 2
#     Edge 64, Type (0, 0), BuildingBlock: AJUNOK_clean_linker_0, # of connection points: 2
#     Edge 65, Type (0, 0), BuildingBlock: AJUNOK_clean_linker_0, # of connection points: 2
#     Edge 66, Type (0, 0), BuildingBlock: AJUNOK_clean_linker_0, # of connection points: 2
#     Edge 67, Type (0, 0), BuildingBlock: AJUNOK_clean_linker_0, # of connection points: 2
#     Edge 68, Type (0, 0), BuildingBlock: AJUNOK_clean_linker_0, # of connection points: 2
#     Edge 69, Type (0, 0), BuildingBlock: AJUNOK_clean_linker_0, # of connection points: 2
#     Edge 70, Type (0, 0), BuildingBlock: AJUNOK_clean_linker_0, # of connection points: 2
#     Edge 71, Type (0, 0), BuildingBlock: AJUNOK_clean_linker_0, # of connection points: 2
#     Edge 72, Type (0, 0), BuildingBlock: AJUNOK_clean_linker_0, # of connection points: 2
#     Edge 73, Type (0, 0), BuildingBlock: AJUNOK_clean_linker_0, # of connection points: 2
#     Edge 74, Type (0, 0), BuildingBlock: AJUNOK_clean_linker_0, # of connection points: 2
#     Edge 75, Type (0, 0), BuildingBlock: AJUNOK_clean_linker_0, # of connection points: 2
#     Edge 76, Type (0, 0), BuildingBlock: AJUNOK_clean_linker_0, # of connection points: 2
#     Edge 77, Type (0, 0), BuildingBlock: AJUNOK_clean_linker_0, # of connection points: 2
#     Edge 78, Type (0, 0), BuildingBlock: AJUNOK_clean_linker_0, # of connection points: 2
#     Edge 79, Type (0, 0), BuildingBlock: AJUNOK_clean_linker_0, # of connection points: 2
#     Edge 80, Type (0, 0), BuildingBlock: AJUNOK_clean_linker_0, # of connection points: 2
#     Edge 81, Type (0, 0), BuildingBlock: AJUNOK_clean_linker_0, # of connection points: 2
#     Edge 82, Type (0, 0), BuildingBlock: AJUNOK_clean_linker_0, # of connection points: 2
#     Edge 83, Type (0, 0), BuildingBlock: AJUNOK_clean_linker_0, # of connection points: 2
#     Edge 84, Type (0, 0), BuildingBlock: AJUNOK_clean_linker_0, # of connection points: 2
#     Edge 85, Type (0, 0), BuildingBlock: AJUNOK_clean_linker_0, # of connection points: 2
#     Edge 86, Type (0, 0), BuildingBlock: AJUNOK_clean_linker_0, # of connection points: 2
#     Edge 87, Type (0, 0), BuildingBlock: AJUNOK_clean_linker_0, # of connection points: 2
#     Edge 88, Type (0, 0), BuildingBlock: AJUNOK_clean_linker_0, # of connection points: 2
#     Edge 89, Type (0, 0), BuildingBlock: AJUNOK_clean_linker_0, # of connection points: 2
#     Edge 90, Type (0, 0), BuildingBlock: AJUNOK_clean_linker_0, # of connection points: 2
#     Edge 91, Type (0, 0), BuildingBlock: AJUNOK_clean_linker_0, # of connection points: 2
#     Edge 92, Type (0, 0), BuildingBlock: AJUNOK_clean_linker_0, # of connection points: 2
#     Edge 93, Type (0, 0), BuildingBlock: AJUNOK_clean_linker_0, # of connection points: 2
#     Edge 94, Type (0, 0), BuildingBlock: AJUNOK_clean_linker_0, # of connection points: 2
#     Edge 95, Type (0, 0), BuildingBlock: AJUNOK_clean_linker_0, # of connection points: 2
#     Edge 96, Type (0, 0), BuildingBlock: AJUNOK_clean_linker_0, # of connection points: 2
#     Edge 97, Type (0, 0), BuildingBlock: AJUNOK_clean_linker_0, # of connection points: 2
#     Edge 98, Type (0, 0), BuildingBlock: AJUNOK_clean_linker_0, # of connection points: 2
#     Edge 99, Type (0, 0), BuildingBlock: AJUNOK_clean_linker_0, # of connection points: 2
#     Edge 100, Type (0, 0), BuildingBlock: AJUNOK_clean_linker_0, # of connection points: 2
#     Edge 101, Type (0, 0), BuildingBlock: AJUNOK_clean_linker_0, # of connection points: 2
#     Edge 102, Type (0, 0), BuildingBlock: AJUNOK_clean_linker_0, # of connection points: 2
#     Edge 103, Type (0, 0), BuildingBlock: AJUNOK_clean_linker_0, # of connection points: 2
#     Edge 104, Type (0, 0), BuildingBlock: AJUNOK_clean_linker_0, # of connection points: 2
#     Edge 105, Type (0, 0), BuildingBlock: AJUNOK_clean_linker_0, # of connection points: 2
#     Edge 106, Type (0, 0), BuildingBlock: AJUNOK_clean_linker_0, # of connection points: 2
#     Edge 107, Type (0, 0), BuildingBlock: AJUNOK_clean_linker_0, # of connection points: 2
#     Edge 108, Type (0, 0), BuildingBlock: AJUNOK_clean_linker_0, # of connection points: 2
#     Edge 109, Type (0, 0), BuildingBlock: AJUNOK_clean_linker_0, # of connection points: 2
#     Edge 110, Type (0, 0), BuildingBlock: AJUNOK_clean_linker_0, # of connection points: 2
#     Edge 111, Type (0, 0), BuildingBlock: AJUNOK_clean_linker_0, # of connection points: 2
#     Edge 112, Type (0, 0), BuildingBlock: AJUNOK_clean_linker_0, # of connection points: 2
#     Edge 113, Type (0, 0), BuildingBlock: AJUNOK_clean_linker_0, # of connection points: 2
#     Edge 114, Type (0, 0), BuildingBlock: AJUNOK_clean_linker_0, # of connection points: 2
#     Edge 115, Type (0, 0), BuildingBlock: AJUNOK_clean_linker_0, # of connection points: 2
#     Edge 116, Type (0, 0), BuildingBlock: AJUNOK_clean_linker_0, # of connection points: 2
#     Edge 117, Type (0, 0), BuildingBlock: AJUNOK_clean_linker_0, # of connection points: 2
#     Edge 118, Type (0, 0), BuildingBlock: AJUNOK_clean_linker_0, # of connection points: 2
#     Edge 119, Type (0, 0), BuildingBlock: AJUNOK_clean_linker_0, # of connection points: 2
#     Edge 120, Type (0, 0), BuildingBlock: AJUNOK_clean_linker_0, # of connection points: 2
#     Edge 121, Type (0, 0), BuildingBlock: AJUNOK_clean_linker_0, # of connection points: 2
#     Edge 122, Type (0, 0), BuildingBlock: AJUNOK_clean_linker_0, # of connection points: 2
#     Edge 123, Type (0, 0), BuildingBlock: AJUNOK_clean_linker_0, # of connection points: 2
#     Edge 124, Type (0, 0), BuildingBlock: AJUNOK_clean_linker_0, # of connection points: 2
#     Edge 125, Type (0, 0), BuildingBlock: AJUNOK_clean_linker_0, # of connection points: 2
# Relax obj value: 0.236
# Max RMSD: 0.195
# Mean RMSD: 0.195
data_MOF--net-wln--node1-BEQFEK_clean_sbu_0--edge1-AJUNOK_clean_linker_0
_symmetry_space_group_name_H-M    P1
_symmetry_Int_Tables_number       1
_symmetry_cell_setting            triclinic
loop_
_symmetry_equiv_pos_as_xyz
'x, y, z'
_cell_length_a     92.651462
_cell_length_b     92.681609
_cell_length_c     14.725763
_cell_angle_alpha  90.009212
_cell_angle_beta   89.99682
_cell_angle_gamma 120.03781
loop_
_atom_site_label
_atom_site_type_symbol
_atom_site_fract_x
_atom_site_fract_y
_atom_site_fract_z
_atom_type_partial_charge
Co0 Co 0.1455 0.4042 0.90932 0.0
Co1 Co 0.13836 0.38788 0.1016 0.0
C2 C 0.17223 0.40238 0.01542 0.0
O3 O 0.16822 0.4081 0.94716 0.0
O4 O 0.1616 0.39432 0.07683 0.0
C5 C 0.15753 0.4133 0.73313 0.0
O6 O 0.17019 0.41275 0.76928 0.0
C7 C 0.14473 0.38972 0.29622 0.0
C8 C 0.11961 0.37295 0.35178 0.0
C9 C 0.13578 0.38455 0.37616 0.0
N10 N 0.13427 0.38182 0.22679 0.0
N11 N 0.11937 0.37144 0.26064 0.0
C12 C 0.16208 0.40421 0.28611 0.0
H13 H 0.164 0.40986 0.21779 0.0
H14 H 0.16461 0.4139 0.33792 0.0
H15 H 0.17111 0.39987 0.29743 0.0
C16 C 0.12866 0.42159 0.99469 0.0
N17 N 0.13538 0.41156 0.99746 0.0
N18 N 0.13405 0.40582 0.08056 0.0
C19 C 0.12753 0.41292 0.13443 0.0
C20 C 0.12348 0.42285 0.08211 0.0
C21 C 0.1257 0.4282 0.90834 0.0
H22 H 0.12284 0.4191 0.85259 0.0
H23 H 0.1372 0.4399 0.88967 0.0
H24 H 0.11526 0.43075 0.91587 0.0
O25 O 0.13106 0.38016 0.88729 0.0
O26 O 0.12427 0.36795 0.02212 0.0
H27 H 0.11648 0.39895 0.2557 0.0
H28 H 0.12425 0.421 0.26779 0.0
C29 C 0.12656 0.41152 0.23583 0.0
H30 H 0.13859 0.41372 0.26265 0.0
H31 H 0.10878 0.36427 0.22122 0.0
O32 O 0.14653 0.41309 0.78566 0.0
C33 C 0.12335 0.36712 0.93548 0.0
Co34 Co 0.60222 0.74284 0.91776 0.0
Co35 Co 0.62016 0.75312 0.1059 0.0
C36 C 0.60376 0.77114 0.01812 0.0
O37 O 0.5972 0.76083 0.95295 0.0
O38 O 0.61276 0.76919 0.07635 0.0
C39 C 0.59208 0.7444 0.74023 0.0
O40 O 0.59018 0.75625 0.77689 0.0
C41 C 0.61563 0.75708 0.29638 0.0
C42 C 0.63581 0.75488 0.3628 0.0
C43 C 0.62162 0.75587 0.38073 0.0
N44 N 0.62561 0.75648 0.23196 0.0
N45 N 0.63791 0.75561 0.272 0.0
C46 C 0.59908 0.75565 0.27613 0.0
H47 H 0.59446 0.74991 0.20853 0.0
H48 H 0.58971 0.74811 0.32859 0.0
H49 H 0.60051 0.76825 0.27544 0.0
C50 C 0.58552 0.70897 0.00788 0.0
N51 N 0.59583 0.72568 0.0076 0.0
N52 N 0.60293 0.73032 0.08799 0.0
C53 C 0.59687 0.7168 0.14268 0.0
C54 C 0.58587 0.70273 0.0936 0.0
C55 C 0.57638 0.69906 0.92604 0.0
H56 H 0.58361 0.70507 0.86365 0.0
H57 H 0.56421 0.69861 0.92135 0.0
H58 H 0.57406 0.68611 0.93083 0.0
O59 O 0.62643 0.75391 0.89762 0.0
O60 O 0.64028 0.75922 0.02735 0.0
H61 H 0.61393 0.72314 0.25417 0.0
H62 H 0.59375 0.70506 0.27548 0.0
C63 C 0.60035 0.71743 0.24251 0.0
H64 H 0.59572 0.72492 0.27653 0.0
H65 H 0.64707 0.7544 0.23736 0.0
O66 O 0.59419 0.7347 0.79267 0.0
C67 C 0.64008 0.75954 0.9406 0.0
Co68 Co 0.26399 0.86072 0.91694 0.0
Co69 Co 0.25409 0.86941 0.10381 0.0
C70 C 0.23545 0.83482 0.01469 0.0
O71 O 0.24582 0.83794 0.95057 0.0
O72 O 0.2377 0.84602 0.07212 0.0
C73 C 0.26322 0.84996 0.73594 0.0
O74 O 0.25075 0.83594 0.76641 0.0
C75 C 0.24881 0.86123 0.29596 0.0
C76 C 0.25625 0.88558 0.35886 0.0
C77 C 0.2527 0.86949 0.37888 0.0
N78 N 0.25102 0.8722 0.22997 0.0
N79 N 0.25489 0.88658 0.26828 0.0
C80 C 0.2426 0.84313 0.27885 0.0
H81 H 0.23113 0.83791 0.2371 0.0
H82 H 0.25209 0.84172 0.24006 0.0
H83 H 0.23945 0.83588 0.3429 0.0
C84 C 0.29751 0.87587 0.01121 0.0
N85 N 0.28103 0.8708 0.00815 0.0
N86 N 0.27659 0.87413 0.08696 0.0
C87 C 0.29004 0.88115 0.14234 0.0
C88 C 0.30364 0.88242 0.09672 0.0
C89 C 0.30748 0.87519 0.93334 0.0
H90 H 0.2994 0.86865 0.87444 0.0
H91 H 0.31429 0.86875 0.95481 0.0
H92 H 0.31693 0.88808 0.91343 0.0
O93 O 0.25311 0.87414 0.89646 0.0
O94 O 0.24877 0.88381 0.02503 0.0
H95 H 0.2857 0.89614 0.23618 0.0
H96 H 0.30304 0.89349 0.26632 0.0
C97 C 0.29031 0.8872 0.23679 0.0
H98 H 0.28225 0.87646 0.28056 0.0
H99 H 0.25787 0.89741 0.2322 0.0
O100 O 0.27235 0.86124 0.79243 0.0
C101 C 0.24805 0.88274 0.93858 0.0
Co102 Co 0.40521 0.14422 0.08106 0.0
Co103 Co 0.38732 0.1368 0.89161 0.0
C104 C 0.40364 0.17101 0.97983 0.0
O105 O 0.40985 0.167 0.04549 0.0
O106 O 0.3947 0.16038 0.91994 0.0
C107 C 0.41514 0.15625 0.25808 0.0
O108 O 0.41743 0.17005 0.22013 0.0
C109 C 0.39163 0.1445 0.70013 0.0
C110 C 0.37154 0.12177 0.63573 0.0
C111 C 0.38561 0.13696 0.61689 0.0
N112 N 0.38174 0.13417 0.76559 0.0
N113 N 0.36949 0.12077 0.72669 0.0
C114 C 0.40777 0.16019 0.71801 0.0
H115 H 0.41323 0.15923 0.78323 0.0
H116 H 0.4168 0.16286 0.66208 0.0
H117 H 0.40534 0.17074 0.72316 0.0
C118 C 0.42338 0.12905 0.98643 0.0
N119 N 0.41218 0.13434 0.98949 0.0
N120 N 0.40458 0.13137 0.91021 0.0
C121 C 0.41081 0.12419 0.8547 0.0
C122 C 0.42298 0.12264 0.90048 0.0
C123 C 0.43384 0.12954 0.06484 0.0
H124 H 0.43504 0.13893 0.11551 0.0
H125 H 0.44635 0.13236 0.04087 0.0
H126 H 0.4278 0.11709 0.09768 0.0
O127 O 0.3809 0.13025 0.10167 0.0
O128 O 0.36739 0.12305 0.97 0.0
H129 H 0.40909 0.10938 0.73689 0.0
H130 H 0.40937 0.12848 0.71336 0.0
C131 C 0.40465 0.11783 0.76101 0.0
H132 H 0.39086 0.11091 0.76032 0.0
H133 H 0.3604 0.11049 0.76232 0.0
O134 O 0.41332 0.14439 0.20676 0.0
C135 C 0.36746 0.1225 0.05657 0.0
Co136 Co 0.86248 0.26266 0.08789 0.0
Co137 Co 0.86873 0.25167 0.89775 0.0
C138 C 0.83508 0.23397 0.99047 0.0
O139 O 0.83962 0.24425 0.05599 0.0
O140 O 0.84519 0.23541 0.92809 0.0
C141 C 0.85037 0.26166 0.26454 0.0
O142 O 0.83628 0.2505 0.22748 0.0
C143 C 0.86074 0.24853 0.70754 0.0
C144 C 0.88287 0.25009 0.64138 0.0
C145 C 0.86797 0.24968 0.62352 0.0
N146 N 0.87099 0.2485 0.77197 0.0
N147 N 0.88402 0.24903 0.73215 0.0
C148 C 0.84572 0.25006 0.72781 0.0
H149 H 0.84726 0.25648 0.79372 0.0
H150 H 0.84346 0.25697 0.67333 0.0
H151 H 0.83464 0.23739 0.73321 0.0
C152 C 0.87756 0.2959 0.99286 0.0
N153 N 0.87192 0.27933 0.99565 0.0
N154 N 0.87461 0.27457 0.91609 0.0
C155 C 0.88208 0.28801 0.86083 0.0
C156 C 0.88402 0.30185 0.90712 0.0
C157 C 0.87788 0.30617 0.07186 0.0
H158 H 0.87389 0.29871 0.13502 0.0
H159 H 0.86946 0.3112 0.0579 0.0
H160 H 0.89066 0.31696 0.08055 0.0
O161 O 0.87677 0.25265 0.10726 0.0
O162 O 0.88253 0.2454 0.97435 0.0
H163 H 0.89434 0.2808 0.76253 0.0
H164 H 0.89615 0.30072 0.74008 0.0
C165 C 0.88772 0.28794 0.76563 0.0
H166 H 0.87673 0.28214 0.72022 0.0
H167 H 0.89419 0.24978 0.76699 0.0
O168 O 0.86253 0.27083 0.21262 0.0
C169 C 0.88386 0.24642 0.0607 0.0
Co170 Co 0.74409 0.59946 0.08451 0.0
Co171 Co 0.75367 0.61808 0.89767 0.0
C172 C 0.77259 0.6024 0.98243 0.0
O173 O 0.76204 0.59492 0.04542 0.0
O174 O 0.77066 0.61166 0.92571 0.0
C175 C 0.74839 0.59274 0.26273 0.0
O176 O 0.76215 0.59475 0.22552 0.0
C177 C 0.75772 0.61491 0.70512 0.0
C178 C 0.75231 0.63343 0.64375 0.0
C179 C 0.75507 0.62043 0.62303 0.0
N180 N 0.75627 0.62398 0.77197 0.0
N181 N 0.75349 0.63536 0.73478 0.0
C182 C 0.7591 0.59968 0.72051 0.0
H183 H 0.75356 0.59392 0.78689 0.0
H184 H 0.75282 0.59041 0.66547 0.0
H185 H 0.77249 0.60333 0.72101 0.0
C186 C 0.71032 0.5814 0.99431 0.0
N187 N 0.72685 0.59255 0.99566 0.0
N188 N 0.73124 0.60007 0.9161 0.0
C189 C 0.71769 0.59359 0.86152 0.0
C190 C 0.70411 0.58153 0.90868 0.0
C191 C 0.70035 0.57166 0.07459 0.0
H192 H 0.70781 0.57603 0.13773 0.0
H193 H 0.69614 0.55828 0.06389 0.0
H194 H 0.68905 0.57284 0.08119 0.0
O195 O 0.75454 0.62366 0.10527 0.0
O196 O 0.75911 0.63778 0.97736 0.0
H197 H 0.7227 0.61278 0.76491 0.0
H198 H 0.70445 0.59315 0.73892 0.0
C199 C 0.71731 0.5991 0.76648 0.0
H200 H 0.72464 0.59553 0.72208 0.0
H201 H 0.75119 0.64361 0.77173 0.0
O202 O 0.73678 0.59135 0.21067 0.0
C203 C 0.75964 0.63739 0.06393 0.0
Co204 Co 0.86216 0.60103 0.0849 0.0
Co205 Co 0.86973 0.61844 0.8952 0.0
C206 C 0.83569 0.60302 0.98392 0.0
O207 O 0.83945 0.59663 0.04965 0.0
O208 O 0.84636 0.61164 0.92364 0.0
C209 C 0.84978 0.59083 0.26167 0.0
O210 O 0.83615 0.58908 0.22424 0.0
C211 C 0.86166 0.61403 0.70492 0.0
C212 C 0.88443 0.63375 0.63886 0.0
C213 C 0.86903 0.61985 0.62099 0.0
N214 N 0.87228 0.62387 0.76943 0.0
N215 N 0.88571 0.63591 0.72967 0.0
C216 C 0.84598 0.59798 0.72481 0.0
H217 H 0.84731 0.59249 0.789 0.0
H218 H 0.8428 0.58889 0.66871 0.0
H219 H 0.83558 0.60056 0.73351 0.0
C220 C 0.87714 0.58239 0.99276 0.0
N221 N 0.87183 0.59359 0.99453 0.0
N222 N 0.87487 0.60104 0.91482 0.0
C223 C 0.88213 0.59476 0.86038 0.0
C224 C 0.88369 0.58272 0.90743 0.0
C225 C 0.87703 0.57232 0.07222 0.0
H226 H 0.87289 0.57584 0.13469 0.0
H227 H 0.86855 0.5589 0.05774 0.0
H228 H 0.88972 0.57416 0.0825 0.0
O229 O 0.87651 0.62542 0.10487 0.0
O230 O 0.88375 0.63837 0.97204 0.0
H231 H 0.89527 0.61403 0.76219 0.0
H232 H 0.89554 0.5951 0.73867 0.0
C233 C 0.88785 0.60027 0.76504 0.0
H234 H 0.87684 0.59579 0.72021 0.0
H235 H 0.89617 0.6449 0.76455 0.0
O236 O 0.86165 0.5928 0.21004 0.0
C237 C 0.88431 0.63875 0.05866 0.0
Co238 Co 0.40532 0.26226 0.08403 0.0
Co239 Co 0.38776 0.25205 0.89499 0.0
C240 C 0.40369 0.23387 0.98214 0.0
O241 O 0.40984 0.244 0.04831 0.0
O242 O 0.39489 0.23569 0.92205 0.0
C243 C 0.41457 0.25999 0.26233 0.0
O244 O 0.41464 0.24696 0.2279 0.0
C245 C 0.39165 0.24866 0.70387 0.0
C246 C 0.37195 0.25216 0.6413 0.0
C247 C 0.38585 0.25079 0.62134 0.0
N248 N 0.38191 0.24917 0.7699 0.0
N249 N 0.36986 0.25079 0.73214 0.0
C250 C 0.40764 0.24877 0.72115 0.0
H251 H 0.41305 0.25479 0.78724 0.0
H252 H 0.41683 0.25537 0.6663 0.0
H253 H 0.40501 0.2357 0.72394 0.0
C254 C 0.42353 0.29585 0.99133 0.0
N255 N 0.41248 0.27928 0.99332 0.0
N256 N 0.40518 0.27471 0.91328 0.0
C257 C 0.41156 0.28818 0.85812 0.0
C258 C 0.42342 0.30188 0.90519 0.0
C259 C 0.43336 0.306 0.07094 0.0
H260 H 0.42941 0.29858 0.13426 0.0
H261 H 0.4468 0.31061 0.05875 0.0
H262 H 0.43178 0.31705 0.07823 0.0
O263 O 0.38105 0.25221 0.10598 0.0
O264 O 0.36797 0.24602 0.97339 0.0
H265 H 0.39238 0.28193 0.75915 0.0
H266 H 0.4112 0.30126 0.7367 0.0
C267 C 0.40614 0.28837 0.76259 0.0
H268 H 0.41082 0.28202 0.71784 0.0
H269 H 0.36097 0.25218 0.76859 0.0
O270 O 0.41381 0.27029 0.20826 0.0
C271 C 0.36769 0.24647 0.05997 0.0
Co272 Co 0.74354 0.14388 0.08526 0.0
Co273 Co 0.75497 0.13767 0.89663 0.0
C274 C 0.77268 0.17124 0.99095 0.0
O275 O 0.76215 0.16676 0.05535 0.0
O276 O 0.77136 0.16112 0.92884 0.0
C277 C 0.74415 0.15497 0.2643 0.0
O278 O 0.75623 0.16903 0.23151 0.0
C279 C 0.75813 0.1452 0.70527 0.0
C280 C 0.75612 0.12261 0.64257 0.0
C281 C 0.75632 0.13735 0.62252 0.0
N282 N 0.75841 0.13532 0.77122 0.0
N283 N 0.75771 0.12206 0.7333 0.0
C284 C 0.75687 0.16045 0.72308 0.0
H285 H 0.7523 0.16022 0.79297 0.0
H286 H 0.74841 0.16148 0.67351 0.0
H287 H 0.76943 0.17162 0.71602 0.0
C288 C 0.71054 0.12912 0.9876 0.0
N289 N 0.72711 0.13472 0.99156 0.0
N290 N 0.73205 0.13208 0.91241 0.0
C291 C 0.71873 0.12472 0.85616 0.0
C292 C 0.70477 0.12275 0.90141 0.0
C293 C 0.70009 0.12861 0.0662 0.0
H294 H 0.70693 0.13084 0.131 0.0
H295 H 0.69659 0.13835 0.05693 0.0
H296 H 0.6884 0.11635 0.06856 0.0
O297 O 0.75313 0.12924 0.10542 0.0
O298 O 0.76051 0.12331 0.97362 0.0
H299 H 0.72612 0.11264 0.75762 0.0
H300 H 0.70634 0.11099 0.73358 0.0
C301 C 0.71902 0.1193 0.76067 0.0
H302 H 0.7249 0.13039 0.71614 0.0
H303 H 0.75703 0.11207 0.76962 0.0
O304 O 0.73488 0.1435 0.20896 0.0
C305 C 0.75912 0.12181 0.05981 0.0
Co306 Co 0.60302 0.86179 0.91432 0.0
Co307 Co 0.6197 0.86865 0.10613 0.0
C308 C 0.60455 0.83473 0.01738 0.0
O309 O 0.59916 0.83902 0.94886 0.0
O310 O 0.61251 0.84518 0.07981 0.0
C311 C 0.59254 0.84946 0.73832 0.0
O312 O 0.59029 0.83564 0.77573 0.0
C313 C 0.61647 0.8613 0.29866 0.0
C314 C 0.63536 0.88513 0.35978 0.0
C315 C 0.62229 0.8694 0.38081 0.0
N316 N 0.62551 0.87183 0.23171 0.0
N317 N 0.63708 0.88591 0.26867 0.0
C318 C 0.6007 0.84506 0.2836 0.0
H319 H 0.5953 0.84486 0.21612 0.0
H320 H 0.59138 0.84287 0.33709 0.0
H321 H 0.60347 0.83475 0.28702 0.0
C322 C 0.58475 0.87729 0.00382 0.0
N323 N 0.59551 0.87143 0.00449 0.0
N324 N 0.60227 0.87381 0.08577 0.0
C325 C 0.59564 0.88079 0.13986 0.0
C326 C 0.58443 0.88339 0.08998 0.0
C327 C 0.57609 0.87825 0.92037 0.0
H328 H 0.58435 0.88115 0.86048 0.0
H329 H 0.56476 0.86597 0.90869 0.0
H330 H 0.57237 0.88788 0.92766 0.0
O331 O 0.62715 0.87647 0.8939 0.0
O332 O 0.6398 0.88234 0.02791 0.0
H333 H 0.61272 0.89296 0.2494 0.0
H334 H 0.59203 0.88933 0.27157 0.0
C335 C 0.59925 0.88417 0.23922 0.0
H336 H 0.59566 0.87234 0.27444 0.0
H337 H 0.64537 0.89643 0.2316 0.0
O338 O 0.59456 0.86133 0.78995 0.0
C339 C 0.64032 0.88373 0.94153 0.0
Co340 Co 0.14643 0.74268 0.91741 0.0
Co341 Co 0.13797 0.7529 0.10494 0.0
C342 C 0.17234 0.77171 0.01724 0.0
O343 O 0.16897 0.7614 0.95251 0.0
O344 O 0.16135 0.76944 0.07598 0.0
C345 C 0.15749 0.74544 0.73943 0.0
O346 O 0.17035 0.75857 0.77474 0.0
C347 C 0.14451 0.75452 0.29804 0.0
C348 C 0.12396 0.75666 0.35989 0.0
C349 C 0.13751 0.75475 0.38079 0.0
N350 N 0.13531 0.7558 0.23124 0.0
N351 N 0.12314 0.75729 0.26859 0.0
C352 C 0.1598 0.75324 0.28225 0.0
H353 H 0.16213 0.75286 0.20881 0.0
H354 H 0.15849 0.74182 0.31404 0.0
H355 H 0.1707 0.76409 0.31396 0.0
C356 C 0.13134 0.70946 0.01273 0.0
N357 N 0.1366 0.72594 0.00942 0.0
N358 N 0.13292 0.73041 0.08712 0.0
C359 C 0.12519 0.71693 0.14164 0.0
C360 C 0.12417 0.70334 0.09723 0.0
C361 C 0.13228 0.69961 0.93504 0.0
H362 H 0.14296 0.70767 0.89035 0.0
H363 H 0.1334 0.68892 0.96011 0.0
H364 H 0.12062 0.69462 0.89471 0.0
O365 O 0.13191 0.7523 0.89512 0.0
O366 O 0.12402 0.75845 0.02479 0.0
H367 H 0.10747 0.7036 0.24882 0.0
H368 H 0.12705 0.72056 0.2853 0.0
C369 C 0.11742 0.71643 0.2316 0.0
H370 H 0.11195 0.72465 0.23072 0.0
H371 H 0.11396 0.75812 0.23187 0.0
O372 O 0.14679 0.7345 0.79266 0.0
C373 C 0.12371 0.75774 0.9381 0.0
Co374 Co 0.26395 0.4043 0.91751 0.0
Co375 Co 0.25396 0.3862 0.10573 0.0
C376 C 0.2353 0.40205 0.01851 0.0
O377 O 0.24531 0.40823 0.95188 0.0
O378 O 0.23758 0.39351 0.07847 0.0
C379 C 0.26212 0.41383 0.74022 0.0
O380 O 0.2487 0.41318 0.77381 0.0
C381 C 0.25241 0.39153 0.29784 0.0
C382 C 0.25333 0.37048 0.36202 0.0
C383 C 0.25393 0.38543 0.38103 0.0
N384 N 0.25164 0.38104 0.23241 0.0
N385 N 0.25191 0.36832 0.27121 0.0
C386 C 0.25161 0.40701 0.27955 0.0
H387 H 0.26185 0.41527 0.2329 0.0
H388 H 0.2521 0.41377 0.34259 0.0
H389 H 0.23973 0.40358 0.24504 0.0
C390 C 0.29729 0.42276 0.01005 0.0
N391 N 0.28081 0.41149 0.00832 0.0
N392 N 0.27656 0.40342 0.08619 0.0
C393 C 0.29026 0.40924 0.13923 0.0
C394 C 0.30372 0.42184 0.09373 0.0
C395 C 0.30679 0.4336 0.93172 0.0
H396 H 0.29877 0.43702 0.89209 0.0
H397 H 0.31816 0.44498 0.9555 0.0
H398 H 0.31065 0.42654 0.88653 0.0
O399 O 0.25435 0.38009 0.89608 0.0
O400 O 0.248 0.36635 0.02674 0.0
H401 H 0.30407 0.40544 0.24611 0.0
H402 H 0.28618 0.40651 0.28217 0.0
C403 C 0.29106 0.40186 0.2281 0.0
H404 H 0.2835 0.3881 0.22491 0.0
H405 H 0.25194 0.3586 0.23557 0.0
O406 O 0.27248 0.41323 0.79444 0.0
C407 C 0.2488 0.36652 0.94005 0.0
Co408 Co 0.81179 0.73705 0.24782 0.0
Co409 Co 0.80537 0.71985 0.43657 0.0
C410 C 0.83948 0.73652 0.34678 0.0
O411 O 0.83478 0.74185 0.27987 0.0
O412 O 0.82921 0.72795 0.40901 0.0
C413 C 0.82269 0.74681 0.06908 0.0
O414 O 0.83643 0.74806 0.10206 0.0
C415 C 0.81233 0.72439 0.62751 0.0
C416 C 0.79066 0.70268 0.68982 0.0
C417 C 0.80488 0.7177 0.71004 0.0
N418 N 0.8028 0.71404 0.56134 0.0
N419 N 0.79007 0.70086 0.59882 0.0
C420 C 0.82695 0.74141 0.61066 0.0
H421 H 0.82629 0.74585 0.5417 0.0
H422 H 0.8275 0.75044 0.66203 0.0
H423 H 0.83857 0.74078 0.61569 0.0
C424 C 0.79679 0.75536 0.34303 0.0
N425 N 0.80218 0.74423 0.33996 0.0
N426 N 0.79927 0.73666 0.41921 0.0
C427 C 0.79187 0.74271 0.47448 0.0
C428 C 0.79028 0.75485 0.4287 0.0
C429 C 0.79714 0.76581 0.2649 0.0
H430 H 0.80485 0.76539 0.20858 0.0
H431 H 0.80211 0.77888 0.28761 0.0
H432 H 0.78421 0.76112 0.2405 0.0
O433 O 0.79767 0.71274 0.22678 0.0
O434 O 0.7917 0.69982 0.35953 0.0
H435 H 0.77593 0.73977 0.58874 0.0
H436 H 0.79586 0.74234 0.61717 0.0
C437 C 0.78544 0.73647 0.56801 0.0
H438 H 0.77977 0.72277 0.57075 0.0
H439 H 0.78047 0.69116 0.56224 0.0
O440 O 0.81145 0.74527 0.12423 0.0
C441 C 0.79047 0.6994 0.27318 0.0
Co442 Co 0.26936 0.07643 0.24659 0.0
Co443 Co 0.287 0.08712 0.43478 0.0
C444 C 0.27071 0.1048 0.34058 0.0
O445 O 0.26388 0.09406 0.27779 0.0
O446 O 0.28005 0.10354 0.39963 0.0
C447 C 0.25795 0.07596 0.06799 0.0
O448 O 0.25514 0.0875 0.10067 0.0
C449 C 0.28096 0.08846 0.62665 0.0
C450 C 0.30323 0.09 0.69072 0.0
C451 C 0.28769 0.08806 0.70991 0.0
N452 N 0.29179 0.09007 0.56116 0.0
N453 N 0.3052 0.09124 0.59988 0.0
C454 C 0.26433 0.08696 0.6093 0.0
H455 H 0.26384 0.09162 0.54095 0.0
H456 H 0.2544 0.0737 0.61297 0.0
H457 H 0.26171 0.09399 0.66153 0.0
C458 C 0.25121 0.04327 0.3413 0.0
N459 N 0.26234 0.05978 0.33837 0.0
N460 N 0.27006 0.06441 0.41715 0.0
C461 C 0.26418 0.05094 0.47201 0.0
C462 C 0.25191 0.03725 0.42663 0.0
C463 C 0.24069 0.03334 0.26296 0.0
H464 H 0.23806 0.04131 0.21761 0.0
H465 H 0.22884 0.02256 0.28729 0.0
H466 H 0.24756 0.02849 0.22359 0.0
O467 O 0.29399 0.08761 0.22887 0.0
O468 O 0.30721 0.09279 0.36116 0.0
H469 H 0.26843 0.03774 0.58034 0.0
H470 H 0.26526 0.05437 0.61594 0.0
C471 C 0.27115 0.05052 0.56311 0.0
H472 H 0.28482 0.05894 0.56392 0.0
H473 H 0.31533 0.09208 0.56422 0.0
O474 O 0.26134 0.06749 0.12291 0.0
C475 C 0.30735 0.09291 0.27461 0.0
Co476 Co 0.9306 0.19429 0.24691 0.0
Co477 Co 0.91965 0.20066 0.43674 0.0
C478 C 0.90257 0.16661 0.34452 0.0
O479 O 0.91277 0.17145 0.27832 0.0
O480 O 0.90393 0.1766 0.4078 0.0
C481 C 0.93109 0.18361 0.0669 0.0
O482 O 0.91964 0.16897 0.09681 0.0
C483 C 0.91461 0.19332 0.62967 0.0
C484 C 0.92268 0.21804 0.68925 0.0
C485 C 0.91886 0.20196 0.71125 0.0
N486 N 0.91685 0.20402 0.56225 0.0
N487 N 0.92108 0.21865 0.59857 0.0
C488 C 0.90815 0.17513 0.6151 0.0
H489 H 0.89634 0.16992 0.57648 0.0
H490 H 0.91721 0.17339 0.57403 0.0
H491 H 0.90552 0.16822 0.68012 0.0
C492 C 0.964 0.20998 0.33993 0.0
N493 N 0.94738 0.20423 0.3382 0.0
N494 N 0.94267 0.20674 0.41833 0.0
C495 C 0.95619 0.21401 0.47326 0.0
C496 C 0.97007 0.21631 0.42572 0.0
C497 C 0.97413 0.21027 0.26022 0.0
H498 H 0.96761 0.2094 0.19574 0.0
H499 H 0.97626 0.19954 0.265 0.0
H500 H 0.98648 0.22187 0.26073 0.0
O501 O 0.91937 0.20722 0.22733 0.0
O502 O 0.91315 0.21439 0.35876 0.0
H503 H 0.95236 0.22811 0.57531 0.0
H504 H 0.96845 0.22339 0.60321 0.0
C505 C 0.95608 0.2185 0.57064 0.0
H506 H 0.94717 0.20726 0.60837 0.0
H507 H 0.9242 0.22936 0.561 0.0
O508 O 0.93929 0.19522 0.12352 0.0
C509 C 0.91325 0.21457 0.27213 0.0
Co510 Co 0.07235 0.47781 0.41605 0.0
Co511 Co 0.05377 0.47001 0.22952 0.0
C512 C 0.07056 0.50454 0.31622 0.0
O513 O 0.07683 0.5005 0.3815 0.0
O514 O 0.06144 0.4938 0.25712 0.0
C515 C 0.08121 0.48863 0.59531 0.0
O516 O 0.08098 0.50162 0.56169 0.0
C517 C 0.05865 0.47733 0.03863 0.0
C518 C 0.03793 0.45514 0.97383 0.0
C519 C 0.05267 0.46978 0.95536 0.0
N520 N 0.04818 0.46747 0.10368 0.0
N521 N 0.03557 0.45441 0.06452 0.0
C522 C 0.07527 0.49239 0.05745 0.0
H523 H 0.0798 0.49158 0.1259 0.0
H524 H 0.08459 0.49379 0.00567 0.0
H525 H 0.07393 0.50363 0.05517 0.0
C526 C 0.0905 0.46289 0.31943 0.0
N527 N 0.07916 0.46799 0.32375 0.0
N528 N 0.07106 0.46454 0.24594 0.0
C529 C 0.077 0.45711 0.19028 0.0
C530 C 0.0896 0.45605 0.23417 0.0
C531 C 0.10142 0.46383 0.39645 0.0
H532 H 0.10317 0.47374 0.44491 0.0
H533 H 0.11366 0.46616 0.37064 0.0
H534 H 0.09538 0.45169 0.43265 0.0
O535 O 0.04817 0.46365 0.4379 0.0
O536 O 0.034 0.45597 0.30916 0.0
H537 H 0.07369 0.44063 0.07805 0.0
H538 H 0.07526 0.46004 0.04751 0.0
C539 C 0.07012 0.44993 0.09874 0.0
H540 H 0.05636 0.44378 0.09961 0.0
H541 H 0.026 0.44446 0.09992 0.0
O542 O 0.08079 0.47781 0.54039 0.0
C543 C 0.03442 0.45557 0.39582 0.0
Co544 Co 0.52915 0.59621 0.42126 0.0
Co545 Co 0.53554 0.58526 0.23054 0.0
C546 C 0.50189 0.56713 0.32253 0.0
O547 O 0.50686 0.57719 0.38926 0.0
O548 O 0.5116 0.56886 0.25705 0.0
C549 C 0.51728 0.5941 0.5983 0.0
O550 O 0.50331 0.58275 0.56098 0.0
C551 C 0.52858 0.58112 0.03773 0.0
C552 C 0.55245 0.58599 0.97777 0.0
C553 C 0.5368 0.58343 0.95582 0.0
N554 N 0.53895 0.58249 0.1052 0.0
N555 N 0.55307 0.58496 0.06893 0.0
C556 C 0.51215 0.58021 0.05279 0.0
H557 H 0.51259 0.58705 0.11552 0.0
H558 H 0.5087 0.58542 0.99431 0.0
H559 H 0.50239 0.56696 0.06155 0.0
C560 C 0.54372 0.62929 0.32626 0.0
N561 N 0.53819 0.61275 0.32836 0.0
N562 N 0.54065 0.60803 0.24807 0.0
C563 C 0.54759 0.62147 0.1925 0.0
C564 C 0.54964 0.63527 0.23971 0.0
C565 C 0.54456 0.63943 0.40701 0.0
H566 H 0.53526 0.63151 0.45875 0.0
H567 H 0.54244 0.64975 0.38629 0.0
H568 H 0.5572 0.64502 0.43727 0.0
O569 O 0.54375 0.58698 0.4409 0.0
O570 O 0.54979 0.57951 0.31039 0.0
H571 H 0.56136 0.616 0.09537 0.0
H572 H 0.56035 0.63443 0.06929 0.0
C573 C 0.55326 0.62161 0.09718 0.0
H574 H 0.54226 0.61435 0.05322 0.0
H575 H 0.56352 0.58714 0.10653 0.0
O576 O 0.52903 0.60418 0.54659 0.0
C577 C 0.5512 0.58092 0.39676 0.0
Co578 Co 0.41098 0.93419 0.42327 0.0
Co579 Co 0.42124 0.95099 0.23185 0.0
C580 C 0.43933 0.93541 0.32178 0.0
O581 O 0.42905 0.92976 0.38718 0.0
O582 O 0.43799 0.94415 0.2596 0.0
C583 C 0.41429 0.92522 0.59766 0.0
O584 O 0.4276 0.92615 0.56069 0.0
C585 C 0.42503 0.94773 0.03574 0.0
C586 C 0.42001 0.96681 0.97864 0.0
C587 C 0.42232 0.95365 0.95532 0.0
N588 N 0.42368 0.95654 0.10492 0.0
N589 N 0.42111 0.96821 0.06991 0.0
C590 C 0.42737 0.93291 0.04509 0.0
H591 H 0.43088 0.93154 0.11455 0.0
H592 H 0.41568 0.92136 0.02725 0.0
H593 H 0.4371 0.93409 0.99676 0.0
C594 C 0.37708 0.9169 0.33608 0.0
N595 N 0.39381 0.92714 0.33471 0.0
N596 N 0.39838 0.93369 0.25321 0.0
C597 C 0.38469 0.92745 0.19983 0.0
C598 C 0.37069 0.91665 0.24985 0.0
C599 C 0.36741 0.90882 0.42043 0.0
H600 H 0.37294 0.91744 0.47886 0.0
H601 H 0.36823 0.8975 0.43499 0.0
H602 H 0.35412 0.90526 0.41281 0.0
O603 O 0.42127 0.95835 0.4441 0.0
O604 O 0.42722 0.9712 0.31081 0.0
H605 H 0.38896 0.94395 0.08859 0.0
H606 H 0.37311 0.92258 0.06608 0.0
C607 C 0.38513 0.9307 0.1005 0.0
H608 H 0.39427 0.92791 0.07047 0.0
H609 H 0.4191 0.97648 0.10856 0.0
O610 O 0.40322 0.92523 0.54661 0.0
C611 C 0.42693 0.97165 0.39769 0.0
Co612 Co 0.52995 0.93505 0.42175 0.0
Co613 Co 0.53522 0.95147 0.22991 0.0
C614 C 0.50208 0.936 0.32475 0.0
O615 O 0.50743 0.93165 0.39301 0.0
O616 O 0.51147 0.94359 0.25776 0.0
C617 C 0.51809 0.92326 0.59927 0.0
O618 O 0.50364 0.92024 0.56694 0.0
C619 C 0.5276 0.94958 0.03743 0.0
C620 C 0.55251 0.96537 0.97733 0.0
C621 C 0.53618 0.95366 0.9556 0.0
N622 N 0.53856 0.95765 0.10463 0.0
N623 N 0.55331 0.96756 0.06801 0.0
C624 C 0.50927 0.93846 0.05231 0.0
H625 H 0.50448 0.94518 0.09356 0.0
H626 H 0.50702 0.92722 0.09072 0.0
H627 H 0.50228 0.93482 0.9873 0.0
C628 C 0.54435 0.91633 0.32653 0.0
N629 N 0.53871 0.92727 0.3286 0.0
N630 N 0.54052 0.93393 0.24728 0.0
C631 C 0.54691 0.92699 0.19095 0.0
C632 C 0.54949 0.91567 0.23887 0.0
C633 C 0.54554 0.9072 0.40717 0.0
H634 H 0.54496 0.91316 0.47114 0.0
H635 H 0.53503 0.89416 0.40544 0.0
H636 H 0.55733 0.90682 0.40476 0.0
O637 O 0.54483 0.95893 0.44155 0.0
O638 O 0.54936 0.97165 0.30872 0.0
H639 H 0.56103 0.94453 0.08743 0.0
H640 H 0.5557 0.92353 0.06068 0.0
C641 C 0.55115 0.93131 0.09314 0.0
H642 H 0.5399 0.92924 0.05635 0.0
H643 H 0.56418 0.97474 0.10537 0.0
O644 O 0.52996 0.92659 0.54461 0.0
C645 C 0.55166 0.97216 0.39452 0.0
Co646 Co 0.07192 0.59575 0.42107 0.0
Co647 Co 0.05496 0.58606 0.23092 0.0
C648 C 0.07063 0.56758 0.3161 0.0
O649 O 0.07674 0.57783 0.3819 0.0
O650 O 0.06165 0.56924 0.25635 0.0
C651 C 0.08054 0.59282 0.59795 0.0
O652 O 0.07968 0.57945 0.56205 0.0
C653 C 0.05671 0.58116 0.03749 0.0
C654 C 0.04078 0.5904 0.98041 0.0
C655 C 0.05217 0.58549 0.95685 0.0
N656 N 0.04879 0.58392 0.10598 0.0
N657 N 0.03889 0.58894 0.07128 0.0
C658 C 0.07055 0.57742 0.05091 0.0
H659 H 0.07768 0.5836 0.11326 0.0
H660 H 0.07924 0.58161 0.9923 0.0
H661 H 0.06511 0.56376 0.05913 0.0
C662 C 0.08857 0.6298 0.3356 0.0
N663 N 0.07863 0.61306 0.33327 0.0
N664 N 0.073 0.60846 0.25019 0.0
C665 C 0.08023 0.62199 0.19561 0.0
C666 C 0.09005 0.6361 0.24764 0.0
C667 C 0.09483 0.63945 0.42204 0.0
H668 H 0.08561 0.63311 0.47716 0.0
H669 H 0.10659 0.63989 0.44216 0.0
H670 H 0.09716 0.65235 0.41394 0.0
O671 O 0.04792 0.58514 0.44307 0.0
O672 O 0.03501 0.58065 0.31061 0.0
H673 H 0.06697 0.61924 0.07179 0.0
H674 H 0.08919 0.63291 0.06223 0.0
C675 C 0.07929 0.62133 0.09402 0.0
H676 H 0.08115 0.61115 0.06936 0.0
H677 H 0.03189 0.59266 0.11007 0.0
O678 O 0.0806 0.60369 0.54503 0.0
C679 C 0.03466 0.58021 0.39736 0.0
Co680 Co 0.41045 0.47542 0.42139 0.0
Co681 Co 0.42175 0.47195 0.22786 0.0
C682 C 0.43923 0.5044 0.32215 0.0
O683 O 0.42975 0.49823 0.39122 0.0
O684 O 0.43726 0.49568 0.25174 0.0
C685 C 0.40985 0.48712 0.597 0.0
O686 O 0.42136 0.50165 0.56597 0.0
C687 C 0.42817 0.47784 0.03417 0.0
C688 C 0.41346 0.45218 0.98141 0.0
C689 C 0.42124 0.46877 0.95504 0.0
N690 N 0.42354 0.46711 0.10411 0.0
N691 N 0.41532 0.45178 0.07176 0.0
C692 C 0.43936 0.49627 0.04431 0.0
H693 H 0.44985 0.49874 0.09025 0.0
H694 H 0.43234 0.50176 0.07598 0.0
H695 H 0.44457 0.5023 0.97791 0.0
C696 C 0.37711 0.45923 0.33075 0.0
N697 N 0.39387 0.46626 0.33014 0.0
N698 N 0.39898 0.46665 0.24658 0.0
C699 C 0.38574 0.46122 0.19033 0.0
C700 C 0.37129 0.45584 0.24133 0.0
C701 C 0.367 0.45428 0.41613 0.0
H702 H 0.37317 0.45063 0.46858 0.0
H703 H 0.36629 0.46512 0.44253 0.0
H704 H 0.35421 0.44375 0.40388 0.0
O705 O 0.41938 0.46074 0.44312 0.0
O706 O 0.42875 0.45859 0.30818 0.0
H707 H 0.38639 0.45206 0.05812 0.0
H708 H 0.37641 0.46437 0.0619 0.0
C709 C 0.38692 0.46318 0.08934 0.0
H710 H 0.39866 0.47453 0.07068 0.0
H711 H 0.40965 0.4411 0.11216 0.0
O712 O 0.40135 0.47542 0.54145 0.0
C713 C 0.42664 0.45526 0.39302 0.0
Co714 Co 0.26811 0.19373 0.24663 0.0
Co715 Co 0.28597 0.20094 0.43487 0.0
C716 C 0.26949 0.1668 0.3434 0.0
O717 O 0.26277 0.17067 0.27958 0.0
O718 O 0.27871 0.17742 0.40283 0.0
C719 C 0.25735 0.18353 0.06582 0.0
O720 O 0.25467 0.16895 0.09398 0.0
C721 C 0.2848 0.19358 0.62798 0.0
C722 C 0.2987 0.21891 0.68582 0.0
C723 C 0.28786 0.20241 0.70906 0.0
N724 N 0.29236 0.20454 0.56008 0.0
N725 N 0.30122 0.21957 0.59555 0.0
C726 C 0.27524 0.1751 0.61389 0.0
H727 H 0.28248 0.17144 0.56902 0.0
H728 H 0.26328 0.17153 0.57921 0.0
H729 H 0.27295 0.16828 0.67903 0.0
C730 C 0.25091 0.20997 0.33717 0.0
N731 N 0.26158 0.20402 0.33691 0.0
N732 N 0.26831 0.20606 0.418 0.0
C733 C 0.26147 0.21269 0.47332 0.0
C734 C 0.25047 0.21568 0.42411 0.0
C735 C 0.24232 0.21122 0.25406 0.0
H736 H 0.25092 0.215 0.19517 0.0
H737 H 0.23143 0.19879 0.23892 0.0
H738 H 0.23802 0.22034 0.26356 0.0
O739 O 0.29231 0.20663 0.226 0.0
O740 O 0.30595 0.2151 0.35608 0.0
H741 H 0.2765 0.22575 0.58777 0.0
H742 H 0.25451 0.21676 0.60756 0.0
C743 C 0.26409 0.21483 0.57369 0.0
H744 H 0.26315 0.20344 0.60294 0.0
H745 H 0.30772 0.23046 0.55736 0.0
O746 O 0.26021 0.19479 0.12384 0.0
C747 C 0.3059 0.21458 0.26947 0.0
Co748 Co 0.81211 0.07564 0.2444 0.0
Co749 Co 0.80552 0.08648 0.4341 0.0
C750 C 0.83946 0.10421 0.34319 0.0
O751 O 0.83468 0.094 0.27708 0.0
O752 O 0.82949 0.1027 0.40679 0.0
C753 C 0.82349 0.077 0.06566 0.0
O754 O 0.83737 0.08913 0.09967 0.0
C755 C 0.81255 0.08995 0.62624 0.0
C756 C 0.78918 0.08633 0.68705 0.0
C757 C 0.80443 0.08776 0.70824 0.0
N758 N 0.80245 0.08943 0.55932 0.0
N759 N 0.78867 0.08774 0.59611 0.0
C760 C 0.82848 0.08986 0.61046 0.0
H761 H 0.82817 0.08415 0.54377 0.0
H762 H 0.83075 0.08296 0.66494 0.0
H763 H 0.83896 0.10291 0.61031 0.0
C764 C 0.7969 0.04234 0.33923 0.0
N765 N 0.80249 0.05891 0.33667 0.0
N766 N 0.79996 0.06365 0.41671 0.0
C767 C 0.79282 0.05022 0.47229 0.0
C768 C 0.7908 0.03641 0.42556 0.0
C769 C 0.79646 0.03209 0.25986 0.0
H770 H 0.7992 0.03923 0.1958 0.0
H771 H 0.80584 0.02812 0.27011 0.0
H772 H 0.78403 0.02065 0.25535 0.0
O773 O 0.79832 0.08591 0.22365 0.0
O774 O 0.79133 0.09227 0.35527 0.0
H775 H 0.78009 0.05655 0.57204 0.0
H776 H 0.77982 0.03738 0.59527 0.0
C777 C 0.78748 0.0502 0.56826 0.0
H778 H 0.79866 0.05673 0.6119 0.0
H779 H 0.77844 0.0863 0.5589 0.0
O780 O 0.81202 0.06736 0.12002 0.0
C781 C 0.79068 0.0917 0.26862 0.0
Co782 Co 0.93151 0.73852 0.24977 0.0
Co783 Co 0.9204 0.72012 0.43636 0.0
C784 C 0.90292 0.73711 0.34629 0.0
O785 O 0.91342 0.74343 0.28165 0.0
O786 O 0.90445 0.72803 0.4062 0.0
C787 C 0.93151 0.74753 0.06848 0.0
O788 O 0.91799 0.74766 0.09382 0.0
C789 C 0.91512 0.72101 0.63151 0.0
C790 C 0.92544 0.70578 0.68326 0.0
C791 C 0.92096 0.71735 0.71087 0.0
N792 N 0.9175 0.71316 0.56114 0.0
N793 N 0.92292 0.70344 0.59323 0.0
C794 C 0.90694 0.73131 0.62114 0.0
H795 H 0.89781 0.7263 0.56539 0.0
H796 H 0.91644 0.74438 0.6048 0.0
H797 H 0.89991 0.73078 0.68323 0.0
C798 C 0.96468 0.75605 0.34415 0.0
N799 N 0.9481 0.74506 0.34177 0.0
N800 N 0.94331 0.7378 0.42173 0.0
C801 C 0.95671 0.7445 0.47785 0.0
C802 C 0.97055 0.75623 0.43097 0.0
C803 C 0.97492 0.76572 0.26434 0.0
H804 H 0.96926 0.75902 0.20027 0.0
H805 H 0.97558 0.778 0.2626 0.0
H806 H 0.98783 0.76793 0.27017 0.0
O807 O 0.92062 0.71447 0.22584 0.0
O808 O 0.91453 0.70042 0.35472 0.0
H809 H 0.95344 0.72648 0.57773 0.0
H810 H 0.96921 0.74727 0.60661 0.0
C811 C 0.95678 0.73971 0.5746 0.0
H812 H 0.94777 0.74175 0.61356 0.0
H813 H 0.92648 0.69651 0.5527 0.0
O814 O 0.941 0.747 0.1288 0.0
C815 C 0.91465 0.70073 0.26804 0.0
Co816 Co 0.47942 0.07145 0.57689 0.0
Co817 Co 0.47298 0.05512 0.76965 0.0
C818 C 0.50694 0.07094 0.68526 0.0
O819 O 0.5019 0.07549 0.6164 0.0
O820 O 0.49703 0.06281 0.74973 0.0
C821 C 0.49072 0.07825 0.40174 0.0
O822 O 0.5022 0.07593 0.43965 0.0
C823 C 0.47766 0.05614 0.96646 0.0
C824 C 0.45232 0.03858 0.01608 0.0
C825 C 0.46819 0.05027 0.04421 0.0
N826 N 0.46786 0.04854 0.89434 0.0
N827 N 0.45279 0.03776 0.92467 0.0
C828 C 0.49526 0.07018 0.96122 0.0
H829 H 0.49753 0.077 0.89618 0.0
H830 H 0.4982 0.07902 0.0185 0.0
H831 H 0.50362 0.06489 0.96645 0.0
C832 C 0.46222 0.0883 0.66202 0.0
N833 N 0.46912 0.07845 0.66463 0.0
N834 N 0.46795 0.07272 0.74765 0.0
C835 C 0.46131 0.07969 0.80156 0.0
C836 C 0.45705 0.08951 0.7495 0.0
C837 C 0.4592 0.0949 0.57578 0.0
H838 H 0.45649 0.08587 0.51983 0.0
H839 H 0.47064 0.10669 0.55742 0.0
H840 H 0.44867 0.0973 0.58329 0.0
O841 O 0.46515 0.04764 0.55431 0.0
O842 O 0.45935 0.03496 0.6876 0.0
H843 H 0.45076 0.06595 0.92385 0.0
H844 H 0.45829 0.08798 0.93462 0.0
C845 C 0.46066 0.07853 0.90283 0.0
H846 H 0.47286 0.08095 0.92825 0.0
H847 H 0.44256 0.03061 0.88278 0.0
O848 O 0.48079 0.0803 0.45271 0.0
C849 C 0.45784 0.03441 0.60106 0.0
Co850 Co 0.93481 0.40909 0.58377 0.0
Co851 Co 0.95264 0.41926 0.77198 0.0
C852 C 0.93648 0.43744 0.68468 0.0
O853 O 0.93017 0.42721 0.61911 0.0
O854 O 0.94541 0.43559 0.74392 0.0
C855 C 0.92459 0.41094 0.40643 0.0
O856 O 0.92316 0.42307 0.44294 0.0
C857 C 0.94749 0.42233 0.96155 0.0
C858 C 0.96822 0.42136 0.02962 0.0
C859 C 0.95356 0.42154 0.0463 0.0
N860 N 0.95792 0.42238 0.898 0.0
N861 N 0.97052 0.4222 0.93891 0.0
C862 C 0.93081 0.42043 0.93986 0.0
H863 H 0.92612 0.41389 0.87411 0.0
H864 H 0.92159 0.41345 0.99404 0.0
H865 H 0.93217 0.43298 0.93341 0.0
C866 C 0.91694 0.37542 0.6757 0.0
N867 N 0.92781 0.39202 0.67412 0.0
N868 N 0.93551 0.39651 0.75308 0.0
C869 C 0.92978 0.38293 0.80696 0.0
C870 C 0.91778 0.36915 0.76019 0.0
C871 C 0.90685 0.36549 0.59606 0.0
H872 H 0.9124 0.37218 0.53175 0.0
H873 H 0.89404 0.36348 0.60212 0.0
H874 H 0.90598 0.3531 0.59496 0.0
O875 O 0.95913 0.41933 0.56333 0.0
O876 O 0.97256 0.42508 0.69452 0.0
H877 H 0.94933 0.39014 0.90492 0.0
H878 H 0.93109 0.37038 0.92911 0.0
C879 C 0.93555 0.38306 0.9022 0.0
H880 H 0.93051 0.38903 0.94729 0.0
H881 H 0.9801 0.42161 0.90498 0.0
O882 O 0.92653 0.40112 0.45885 0.0
C883 C 0.97264 0.4248 0.60781 0.0
Co884 Co 0.59709 0.52721 0.5808 0.0
Co885 Co 0.58744 0.53514 0.77148 0.0
C886 C 0.56828 0.50106 0.68367 0.0
O887 O 0.57838 0.50463 0.61756 0.0
O888 O 0.5707 0.5119 0.74367 0.0
C889 C 0.59377 0.51545 0.40339 0.0
O890 O 0.58171 0.50196 0.44107 0.0
C891 C 0.58222 0.52819 0.96612 0.0
C892 C 0.58924 0.55288 0.02335 0.0
C893 C 0.58515 0.53681 0.04696 0.0
N894 N 0.58479 0.53875 0.89715 0.0
N895 N 0.58849 0.55337 0.93199 0.0
C896 C 0.57967 0.511 0.95492 0.0
H897 H 0.58412 0.50957 0.88754 0.0
H898 H 0.58635 0.50828 0.0088 0.0
H899 H 0.56617 0.50181 0.96119 0.0
C900 C 0.63098 0.54316 0.67183 0.0
N901 N 0.61433 0.53722 0.67109 0.0
N902 N 0.60977 0.53955 0.75213 0.0
C903 C 0.62323 0.54643 0.80723 0.0
C904 C 0.63715 0.54929 0.75817 0.0
C905 C 0.641 0.54402 0.59039 0.0
H906 H 0.634 0.54273 0.52706 0.0
H907 H 0.64388 0.53376 0.59387 0.0
H908 H 0.653 0.556 0.58975 0.0
O909 O 0.58727 0.54148 0.55996 0.0
O910 O 0.58215 0.54948 0.69172 0.0
H911 H 0.61923 0.55889 0.91848 0.0
H912 H 0.63489 0.55325 0.94056 0.0
C913 C 0.62276 0.54926 0.90706 0.0
H914 H 0.61357 0.53747 0.9396 0.0
H915 H 0.5917 0.56398 0.8933 0.0
O916 O 0.60463 0.52672 0.45461 0.0
C917 C 0.58217 0.54974 0.60499 0.0
Co918 Co 0.73892 0.81085 0.75378 0.0
Co919 Co 0.72197 0.80412 0.56279 0.0
C920 C 0.73718 0.83785 0.65423 0.0
O921 O 0.7431 0.83378 0.72127 0.0
O922 O 0.7291 0.82744 0.59176 0.0
C923 C 0.74979 0.82219 0.93204 0.0
O924 O 0.75177 0.83631 0.90072 0.0
C925 C 0.7233 0.81159 0.36989 0.0
C926 C 0.70839 0.78648 0.31051 0.0
C927 C 0.7195 0.80294 0.28823 0.0
N928 N 0.71569 0.80057 0.43747 0.0
N929 N 0.7063 0.78567 0.40126 0.0
C930 C 0.73411 0.82996 0.38457 0.0
H931 H 0.72726 0.83453 0.42632 0.0
H932 H 0.74548 0.83246 0.42256 0.0
H933 H 0.73757 0.83692 0.31947 0.0
C934 C 0.75653 0.7948 0.6638 0.0
N935 N 0.74608 0.80103 0.66317 0.0
N936 N 0.7396 0.79912 0.58151 0.0
C937 C 0.74637 0.79237 0.52678 0.0
C938 C 0.7571 0.7891 0.57683 0.0
C939 C 0.76451 0.79299 0.748 0.0
H940 H 0.75574 0.7895 0.80595 0.0
H941 H 0.7757 0.80515 0.76412 0.0
H942 H 0.76826 0.78342 0.73928 0.0
O943 O 0.71483 0.79661 0.77542 0.0
O944 O 0.70203 0.79029 0.64205 0.0
H945 H 0.7312 0.77937 0.41244 0.0
H946 H 0.75321 0.78812 0.39258 0.0
C947 C 0.7437 0.79017 0.42644 0.0
H948 H 0.74472 0.80157 0.39715 0.0
H949 H 0.69956 0.77475 0.43892 0.0
O950 O 0.74737 0.81071 0.87643 0.0
C951 C 0.70157 0.78924 0.7286 0.0
Co952 Co 0.19733 0.9297 0.75099 0.0
Co953 Co 0.20406 0.92024 0.55751 0.0
C954 C 0.1705 0.90094 0.64541 0.0
O955 O 0.17467 0.91052 0.71442 0.0
O956 O 0.18089 0.90372 0.58228 0.0
C957 C 0.18481 0.92711 0.92633 0.0
O958 O 0.17124 0.91521 0.88846 0.0
C959 C 0.19738 0.91487 0.36342 0.0
C960 C 0.22263 0.9244 0.30664 0.0
C961 C 0.20622 0.91887 0.28278 0.0
N962 N 0.20814 0.9182 0.43232 0.0
N963 N 0.22313 0.92342 0.3978 0.0
C964 C 0.17967 0.91083 0.37541 0.0
H965 H 0.17845 0.91703 0.43693 0.0
H966 H 0.17518 0.91474 0.31558 0.0
H967 H 0.17162 0.89717 0.38379 0.0
C968 C 0.21371 0.96368 0.66415 0.0
N969 N 0.20714 0.94697 0.66192 0.0
N970 N 0.20828 0.94246 0.57874 0.0
C971 C 0.2144 0.95596 0.52418 0.0
C972 C 0.21851 0.97 0.57619 0.0
C973 C 0.217 0.97335 0.75043 0.0
H974 H 0.21996 0.96711 0.80574 0.0
H975 H 0.20561 0.97366 0.77027 0.0
H976 H 0.22749 0.9863 0.7422 0.0
O977 O 0.21205 0.92053 0.77197 0.0
O978 O 0.21793 0.91409 0.63712 0.0
H979 H 0.22525 0.95352 0.4008 0.0
H980 H 0.21626 0.96679 0.39079 0.0
C981 C 0.21481 0.9553 0.42262 0.0
H982 H 0.20291 0.9449 0.39772 0.0
H983 H 0.2339 0.92752 0.43671 0.0
O984 O 0.19647 0.9375 0.8753 0.0
C985 C 0.21935 0.91481 0.72356 0.0
Co986 Co 0.07704 0.26659 0.75103 0.0
Co987 Co 0.08723 0.28487 0.56396 0.0
C988 C 0.10514 0.26813 0.6503 0.0
O989 O 0.09492 0.2616 0.71594 0.0
O990 O 0.10338 0.27731 0.59225 0.0
C991 C 0.07705 0.25587 0.93155 0.0
O992 O 0.08956 0.25416 0.90358 0.0
C993 C 0.0935 0.2836 0.37135 0.0
C994 C 0.08093 0.29627 0.31248 0.0
C995 C 0.08703 0.28573 0.29002 0.0
N996 N 0.08992 0.2912 0.43841 0.0
N997 N 0.08315 0.29942 0.40209 0.0
C998 C 0.10465 0.27642 0.3852 0.0
H999 H 0.11487 0.28448 0.43238 0.0
H1000 H 0.0975 0.26389 0.41669 0.0
H1001 H 0.11043 0.27578 0.32045 0.0
C1002 C 0.04341 0.2488 0.6607 0.0
N1003 N 0.06 0.25983 0.66131 0.0
N1004 N 0.06444 0.26711 0.58122 0.0
C1005 C 0.05081 0.26045 0.52691 0.0
C1006 C 0.03714 0.24881 0.5752 0.0
C1007 C 0.03353 0.23905 0.74123 0.0
H1008 H 0.0395 0.24569 0.805 0.0
H1009 H 0.03288 0.22677 0.74152 0.0
H1010 H 0.02061 0.23686 0.73759 0.0
O1011 O 0.08778 0.2908 0.7738 0.0
O1012 O 0.09308 0.30467 0.64453 0.0
H1013 H 0.05241 0.27738 0.42412 0.0
H1014 H 0.03836 0.25596 0.39673 0.0
C1015 C 0.05047 0.26462 0.42927 0.0
H1016 H 0.06028 0.2636 0.39223 0.0
H1017 H 0.07854 0.3058 0.43956 0.0
O1018 O 0.06829 0.2582 0.87346 0.0
C1019 C 0.09329 0.30448 0.73124 0.0
Co1020 Co 0.19503 0.26727 0.75034 0.0
Co1021 Co 0.2028 0.28508 0.56221 0.0
C1022 C 0.1683 0.26861 0.64972 0.0
O1023 O 0.17214 0.26224 0.71546 0.0
O1024 O 0.17914 0.27774 0.591 0.0
C1025 C 0.18413 0.25688 0.93084 0.0
O1026 O 0.16985 0.25482 0.9014 0.0
C1027 C 0.19535 0.28383 0.36957 0.0
C1028 C 0.22054 0.29787 0.31025 0.0
C1029 C 0.20399 0.28701 0.28795 0.0
N1030 N 0.20643 0.2914 0.43693 0.0
N1031 N 0.22139 0.30035 0.40064 0.0
C1032 C 0.17687 0.27469 0.38395 0.0
H1033 H 0.17349 0.28227 0.42795 0.0
H1034 H 0.17301 0.26273 0.41933 0.0
H1035 H 0.17002 0.27245 0.31891 0.0
C1036 C 0.21061 0.2492 0.65949 0.0
N1037 N 0.20515 0.26028 0.66046 0.0
N1038 N 0.20764 0.26727 0.57966 0.0
C1039 C 0.2142 0.26033 0.52451 0.0
C1040 C 0.21632 0.24878 0.57301 0.0
C1041 C 0.21078 0.2394 0.73964 0.0
H1042 H 0.20919 0.24469 0.80371 0.0
H1043 H 0.2005 0.22633 0.73273 0.0
H1044 H 0.22269 0.23925 0.74163 0.0
O1045 O 0.20865 0.29148 0.77199 0.0
O1046 O 0.21709 0.30487 0.64127 0.0
H1047 H 0.22914 0.27754 0.42165 0.0
H1048 H 0.22261 0.25629 0.39454 0.0
C1049 C 0.21867 0.26458 0.42683 0.0
H1050 H 0.20771 0.2632 0.38948 0.0
H1051 H 0.23234 0.30695 0.43823 0.0
O1052 O 0.1954 0.25926 0.87383 0.0
C1053 C 0.21696 0.30495 0.72791 0.0
Co1054 Co 0.73946 0.92927 0.75264 0.0
Co1055 Co 0.72124 0.91941 0.56498 0.0
C1056 C 0.73732 0.90096 0.65426 0.0
O1057 O 0.74449 0.91141 0.71811 0.0
O1058 O 0.7283 0.90303 0.59649 0.0
C1059 C 0.7493 0.92808 0.93251 0.0
O1060 O 0.75021 0.91534 0.90061 0.0
C1061 C 0.72427 0.91429 0.37271 0.0
C1062 C 0.70685 0.92107 0.30985 0.0
C1063 C 0.71954 0.91777 0.28981 0.0
N1064 N 0.71548 0.91642 0.43882 0.0
N1065 N 0.7047 0.91993 0.40061 0.0
C1066 C 0.73703 0.9092 0.38994 0.0
H1067 H 0.7313 0.89757 0.43053 0.0
H1068 H 0.74747 0.91902 0.43011 0.0
H1069 H 0.74177 0.9068 0.32588 0.0
C1070 C 0.75723 0.96304 0.66179 0.0
N1071 N 0.74627 0.94644 0.66279 0.0
N1072 N 0.73872 0.94204 0.58342 0.0
C1073 C 0.74484 0.95564 0.52942 0.0
C1074 C 0.75671 0.9694 0.5769 0.0
C1075 C 0.76713 0.97279 0.74231 0.0
H1076 H 0.76023 0.96704 0.80587 0.0
H1077 H 0.77906 0.97272 0.74405 0.0
H1078 H 0.76997 0.98592 0.73806 0.0
O1079 O 0.71505 0.9181 0.77252 0.0
O1080 O 0.70134 0.91382 0.64271 0.0
H1081 H 0.72654 0.95158 0.42888 0.0
H1082 H 0.74728 0.96782 0.39925 0.0
C1083 C 0.73995 0.95552 0.43248 0.0
H1084 H 0.74228 0.94668 0.39409 0.0
H1085 H 0.69674 0.92275 0.43677 0.0
O1086 O 0.7475 0.93757 0.87706 0.0
C1087 C 0.70148 0.91302 0.72918 0.0
Co1088 Co 0.07874 0.8114 0.74894 0.0
Co1089 Co 0.088 0.8034 0.55767 0.0
C1090 C 0.1073 0.83765 0.64448 0.0
O1091 O 0.09752 0.83386 0.71234 0.0
O1092 O 0.10465 0.82692 0.58319 0.0
C1093 C 0.06503 0.816 0.94347 0.0
O1094 O 0.05659 0.82392 0.94601 0.0
C1095 C 0.09178 0.80884 0.36144 0.0
C1096 C 0.08175 0.78323 0.31034 0.0
C1097 C 0.08593 0.79919 0.28285 0.0
N1098 N 0.0899 0.7988 0.43202 0.0
N1099 N 0.08459 0.78363 0.40031 0.0
C1100 C 0.09827 0.82715 0.37121 0.0
H1101 H 0.10908 0.83258 0.41736 0.0
H1102 H 0.08851 0.82926 0.40149 0.0
H1103 H 0.10244 0.8337 0.30512 0.0
C1104 C 0.04464 0.79498 0.66201 0.0
N1105 N 0.06134 0.80118 0.66 0.0
N1106 N 0.06561 0.79896 0.5781 0.0
C1107 C 0.05188 0.79208 0.52478 0.0
C1108 C 0.03809 0.78889 0.57625 0.0
C1109 C 0.03498 0.79382 0.74565 0.0
H1110 H 0.04122 0.79245 0.80654 0.0
H1111 H 0.03434 0.80541 0.75257 0.0
H1112 H 0.02207 0.78309 0.74127 0.0
O1113 O 0.08857 0.79733 0.77281 0.0
O1114 O 0.09374 0.78952 0.63983 0.0
H1115 H 0.05454 0.77982 0.40849 0.0
H1116 H 0.03984 0.78688 0.39274 0.0
C1117 C 0.05192 0.78995 0.42412 0.0
H1118 H 0.06146 0.80178 0.3935 0.0
H1119 H 0.08139 0.77326 0.44114 0.0
O1120 O 0.0704 0.81419 0.86746 0.0
C1121 C 0.09387 0.78933 0.72666 0.0
Co1122 Co 0.9355 0.52763 0.58204 0.0
Co1123 Co 0.953 0.53487 0.77135 0.0
C1124 C 0.93718 0.50075 0.68436 0.0
O1125 O 0.93138 0.50497 0.61751 0.0
O1126 O 0.94578 0.51126 0.74542 0.0
C1127 C 0.9263 0.51594 0.40407 0.0
O1128 O 0.92644 0.50296 0.4387 0.0
C1129 C 0.94951 0.52766 0.96295 0.0
C1130 C 0.96868 0.55127 0.02468 0.0
C1131 C 0.95515 0.53577 0.04526 0.0
N1132 N 0.95895 0.53803 0.89651 0.0
N1133 N 0.97071 0.55196 0.93381 0.0
C1134 C 0.93377 0.51149 0.94617 0.0
H1135 H 0.92798 0.51203 0.88126 0.0
H1136 H 0.92468 0.50845 0.00219 0.0
H1137 H 0.93684 0.50138 0.94103 0.0
C1138 C 0.9172 0.54287 0.67404 0.0
N1139 N 0.92818 0.53728 0.67277 0.0
N1140 N 0.93552 0.5401 0.75271 0.0
C1141 C 0.92925 0.54738 0.80727 0.0
C1142 C 0.91748 0.54936 0.75959 0.0
C1143 C 0.90757 0.54317 0.59337 0.0
H1144 H 0.91375 0.5429 0.52954 0.0
H1145 H 0.89488 0.53207 0.59539 0.0
H1146 H 0.9063 0.55447 0.59486 0.0
O1147 O 0.95966 0.54245 0.56016 0.0
O1148 O 0.97285 0.54875 0.69253 0.0
H1149 H 0.94779 0.56026 0.90943 0.0
H1150 H 0.9281 0.55881 0.93431 0.0
C1151 C 0.9341 0.55217 0.90437 0.0
H1152 H 0.93003 0.54076 0.94516 0.0
H1153 H 0.97931 0.56236 0.89701 0.0
O1154 O 0.92682 0.52692 0.458 0.0
C1155 C 0.97301 0.55005 0.60619 0.0
Co1156 Co 0.4792 0.40947 0.58202 0.0
Co1157 Co 0.47085 0.41891 0.77102 0.0
C1158 C 0.50528 0.43775 0.68388 0.0
O1159 O 0.50196 0.42753 0.61879 0.0
O1160 O 0.49419 0.43543 0.74194 0.0
C1161 C 0.49137 0.41173 0.40501 0.0
O1162 O 0.50488 0.4238 0.44249 0.0
C1163 C 0.47932 0.42334 0.9615 0.0
C1164 C 0.45615 0.41912 0.02791 0.0
C1165 C 0.47187 0.4214 0.04569 0.0
N1166 N 0.4684 0.42193 0.8971 0.0
N1167 N 0.45474 0.41987 0.93715 0.0
C1168 C 0.49531 0.4236 0.94122 0.0
H1169 H 0.49414 0.41675 0.87731 0.0
H1170 H 0.49885 0.41797 0.99724 0.0
H1171 H 0.50539 0.43671 0.9319 0.0
C1172 C 0.46285 0.37551 0.67069 0.0
N1173 N 0.46873 0.39213 0.67109 0.0
N1174 N 0.46594 0.39645 0.75155 0.0
C1175 C 0.45866 0.38284 0.80544 0.0
C1176 C 0.45631 0.36905 0.75622 0.0
C1177 C 0.46232 0.3659 0.58796 0.0
H1178 H 0.45983 0.37134 0.52698 0.0
H1179 H 0.47463 0.3668 0.57894 0.0
H1180 H 0.45259 0.35257 0.59434 0.0
O1181 O 0.46577 0.42036 0.56197 0.0
O1182 O 0.45655 0.42453 0.69309 0.0
H1183 H 0.44628 0.38813 0.91216 0.0
H1184 H 0.44916 0.37067 0.93637 0.0
C1185 C 0.4548 0.3831 0.90408 0.0
H1186 H 0.46652 0.39109 0.94106 0.0
H1187 H 0.44405 0.41781 0.9025 0.0
O1188 O 0.47961 0.40166 0.45674 0.0
C1189 C 0.45724 0.42522 0.60651 0.0
Co1190 Co 0.59735 0.07195 0.57818 0.0
Co1191 Co 0.58767 0.05434 0.76749 0.0
C1192 C 0.5697 0.07107 0.68448 0.0
O1193 O 0.57958 0.07655 0.61723 0.0
O1194 O 0.57131 0.06225 0.74561 0.0
C1195 C 0.59244 0.07809 0.40284 0.0
O1196 O 0.57842 0.07507 0.44112 0.0
C1197 C 0.58618 0.05822 0.96195 0.0
C1198 C 0.58725 0.03679 0.01933 0.0
C1199 C 0.58747 0.05137 0.04251 0.0
N1200 N 0.58575 0.04848 0.89318 0.0
N1201 N 0.58617 0.03553 0.92793 0.0
C1202 C 0.58572 0.07402 0.95064 0.0
H1203 H 0.58913 0.07885 0.88044 0.0
H1204 H 0.5942 0.08368 0.99922 0.0
H1205 H 0.57293 0.07137 0.96623 0.0
C1206 C 0.63137 0.08971 0.66592 0.0
N1207 N 0.61474 0.07888 0.66597 0.0
N1208 N 0.61048 0.07122 0.74511 0.0
C1209 C 0.62431 0.07684 0.7969 0.0
C1210 C 0.6379 0.08882 0.74929 0.0
C1211 C 0.64106 0.09993 0.58615 0.0
H1212 H 0.63371 0.09527 0.52281 0.0
H1213 H 0.6443 0.11306 0.59712 0.0
H1214 H 0.65289 0.09971 0.57963 0.0
O1215 O 0.58696 0.04773 0.55633 0.0
O1216 O 0.58127 0.03436 0.68782 0.0
H1217 H 0.618 0.05729 0.8935 0.0
H1218 H 0.63748 0.07595 0.91727 0.0
C1219 C 0.62466 0.07107 0.8912 0.0
H1220 H 0.61845 0.07578 0.93626 0.0
H1221 H 0.58642 0.02623 0.88923 0.0
O1222 O 0.60459 0.08049 0.45331 0.0
C1223 C 0.58145 0.03427 0.60107 0.0
C1224 C 0.10105 0.42323 0.17616 0.0
C1225 C 0.11451 0.43151 0.11504 0.0
C1226 C 0.09357 0.43148 0.21771 0.0
C1227 C 0.09888 0.44818 0.19753 0.0
H1228 H 0.09637 0.41026 0.19312 0.0
H1229 H 0.08334 0.42466 0.26455 0.0
S1230 S 0.13213 0.47509 0.03543 0.0
N1231 N 0.13227 0.45733 0.03431 0.0
N1232 N 0.11724 0.47237 0.10701 0.0
C1233 C 0.11167 0.45639 0.13339 0.0
C1234 C 0.11966 0.44816 0.09306 0.0
C1235 C 0.55056 0.65927 0.15579 0.0
C1236 C 0.55878 0.65274 0.20714 0.0
C1237 C 0.55942 0.67529 0.117 0.0
C1238 C 0.57682 0.68517 0.12703 0.0
H1239 H 0.53722 0.65191 0.1454 0.0
H1240 H 0.55258 0.68007 0.08021 0.0
S1241 S 0.60424 0.67276 0.24647 0.0
N1242 N 0.58523 0.65684 0.26181 0.0
N1243 N 0.60204 0.68641 0.18473 0.0
C1244 C 0.5852 0.67835 0.17477 0.0
C1245 C 0.57614 0.66229 0.21605 0.0
C1246 C 0.33136 0.90783 0.12168 0.0
C1247 C 0.32096 0.89056 0.13163 0.0
C1248 C 0.34705 0.91622 0.1638 0.0
C1249 C 0.35312 0.90761 0.21597 0.0
H1250 H 0.32718 0.91495 0.08245 0.0
H1251 H 0.35462 0.92957 0.15446 0.0
S1252 S 0.32994 0.8624 0.26793 0.0
N1253 N 0.31705 0.86529 0.20306 0.0
N1254 N 0.34699 0.88082 0.27774 0.0
C1255 C 0.34262 0.89036 0.22787 0.0
C1256 C 0.32648 0.88188 0.18643 0.0
C1257 C 0.43472 0.08993 0.84446 0.0
C1258 C 0.4481 0.09816 0.78284 0.0
C1259 C 0.42717 0.09816 0.88557 0.0
C1260 C 0.43236 0.1148 0.86457 0.0
H1261 H 0.43013 0.077 0.86198 0.0
H1262 H 0.41697 0.09135 0.93261 0.0
S1263 S 0.46558 0.14167 0.70226 0.0
N1264 N 0.46579 0.12395 0.70164 0.0
N1265 N 0.45066 0.13895 0.77364 0.0
C1266 C 0.44514 0.123 0.80038 0.0
C1267 C 0.45318 0.11478 0.76043 0.0
C1268 C 0.91778 0.34391 0.82088 0.0
C1269 C 0.90876 0.35167 0.79332 0.0
C1270 C 0.90972 0.32796 0.86005 0.0
C1271 C 0.89236 0.3192 0.87281 0.0
H1272 H 0.9312 0.35031 0.81284 0.0
H1273 H 0.91708 0.32236 0.87991 0.0
S1274 S 0.863 0.3336 0.80867 0.0
N1275 N 0.88151 0.34921 0.77969 0.0
N1276 N 0.86633 0.31906 0.85197 0.0
C1277 C 0.88317 0.32666 0.84433 0.0
C1278 C 0.89137 0.34291 0.80447 0.0
C1279 C 0.68017 0.55759 0.82961 0.0
C1280 C 0.68667 0.57285 0.87611 0.0
C1281 C 0.66434 0.55022 0.78841 0.0
C1282 C 0.65464 0.55799 0.79182 0.0
H1283 H 0.68745 0.55142 0.82443 0.0
H1284 H 0.65953 0.53825 0.75525 0.0
S1285 S 0.66689 0.59885 0.89819 0.0
N1286 N 0.68273 0.59589 0.91903 0.0
N1287 N 0.65326 0.58238 0.83999 0.0
C1288 C 0.66133 0.57354 0.8356 0.0
C1289 C 0.67727 0.58088 0.87831 0.0
C1290 C 0.90939 0.58219 0.86291 0.0
C1291 C 0.892 0.57362 0.87422 0.0
C1292 C 0.91746 0.57438 0.823 0.0
C1293 C 0.90842 0.55775 0.79288 0.0
H1294 H 0.91677 0.59506 0.88428 0.0
H1295 H 0.93091 0.58135 0.8164 0.0
S1296 S 0.86261 0.53018 0.80435 0.0
N1297 N 0.86593 0.54789 0.8499 0.0
N1298 N 0.88114 0.5331 0.77585 0.0
C1299 C 0.89101 0.54915 0.80277 0.0
C1300 C 0.88279 0.5571 0.84359 0.0
C1301 C 0.43225 0.34472 0.83262 0.0
C1302 C 0.44785 0.35149 0.78907 0.0
C1303 C 0.42476 0.32893 0.87348 0.0
C1304 C 0.43247 0.31922 0.87101 0.0
H1305 H 0.42587 0.35182 0.83618 0.0
H1306 H 0.41274 0.32418 0.90608 0.0
S1307 S 0.47244 0.33029 0.75843 0.0
N1308 N 0.47034 0.3468 0.74276 0.0
N1309 N 0.45581 0.31674 0.81598 0.0
C1310 C 0.4477 0.32547 0.82488 0.0
C1311 C 0.45547 0.34167 0.78437 0.0
C1312 C 0.67943 0.09724 0.84482 0.0
C1313 C 0.68748 0.11432 0.86593 0.0
C1314 C 0.66366 0.08923 0.80355 0.0
C1315 C 0.65538 0.09802 0.78211 0.0
H1316 H 0.68546 0.09006 0.85973 0.0
H1317 H 0.65776 0.076 0.78956 0.0
S1318 S 0.67113 0.14288 0.82337 0.0
N1319 N 0.68613 0.13979 0.86165 0.0
N1320 N 0.6563 0.12464 0.78539 0.0
C1321 C 0.6633 0.11508 0.80259 0.0
C1322 C 0.67937 0.12325 0.84465 0.0
C1323 C 0.57535 0.91444 0.2092 0.0
C1324 C 0.55793 0.90678 0.20426 0.0
C1325 C 0.58383 0.9071 0.16864 0.0
C1326 C 0.57518 0.8917 0.12284 0.0
H1327 H 0.58248 0.9263 0.24359 0.0
H1328 H 0.5973 0.91343 0.17418 0.0
S1329 S 0.52951 0.86729 0.08599 0.0
N1330 N 0.53235 0.88368 0.14498 0.0
N1331 N 0.54819 0.86945 0.07222 0.0
C1332 C 0.55776 0.88414 0.1158 0.0
C1333 C 0.54916 0.89176 0.15602 0.0
C1334 C 0.0997 0.67457 0.108 0.0
C1335 C 0.11611 0.68611 0.13293 0.0
C1336 C 0.0912 0.65878 0.14889 0.0
C1337 C 0.09896 0.65369 0.21387 0.0
H1338 H 0.09327 0.67791 0.05821 0.0
H1339 H 0.07841 0.65043 0.1287 0.0
S1340 S 0.14167 0.68006 0.30546 0.0
N1341 N 0.13944 0.6922 0.23147 0.0
N1342 N 0.12409 0.662 0.30236 0.0
C1343 C 0.11536 0.66533 0.24005 0.0
C1344 C 0.12379 0.68163 0.20065 0.0
C1345 C 0.34922 0.43553 0.13478 0.0
C1346 C 0.35383 0.44735 0.20548 0.0
C1347 C 0.33322 0.42785 0.09607 0.0
C1348 C 0.32106 0.43136 0.1281 0.0
H1349 H 0.35801 0.43203 0.1095 0.0
H1350 H 0.33019 0.41877 0.04248 0.0
S1351 S 0.32624 0.46088 0.31183 0.0
N1352 N 0.34471 0.46236 0.30362 0.0
N1353 N 0.31428 0.44689 0.23566 0.0
C1354 C 0.32526 0.4428 0.19961 0.0
C1355 C 0.3417 0.45101 0.23731 0.0
C1356 C 0.76519 0.75787 0.45111 0.0
C1357 C 0.78232 0.76419 0.4638 0.0
C1358 C 0.7571 0.76571 0.4906 0.0
C1359 C 0.76588 0.78031 0.54325 0.0
H1360 H 0.75795 0.74664 0.41148 0.0
H1361 H 0.74383 0.76033 0.47938 0.0
S1362 S 0.81096 0.80148 0.59813 0.0
N1363 N 0.80774 0.78535 0.53535 0.0
N1364 N 0.79276 0.80062 0.60595 0.0
C1365 C 0.78303 0.78663 0.55695 0.0
C1366 C 0.7912 0.77847 0.51786 0.0
C1367 C 0.24766 0.00854 0.43822 0.0
C1368 C 0.2427 0.02003 0.46224 0.0
C1369 C 0.24027 0.99274 0.47881 0.0
C1370 C 0.22722 0.98758 0.54264 0.0
H1371 H 0.2576 0.01195 0.38938 0.0
H1372 H 0.24477 0.98441 0.45938 0.0
S1373 S 0.21039 0.01371 0.63083 0.0
N1374 N 0.225 0.02594 0.55808 0.0
N1375 N 0.21002 0.99571 0.62872 0.0
C1376 C 0.22233 0.99915 0.56777 0.0
C1377 C 0.23027 0.01546 0.52857 0.0
C1378 C 0.01173 0.22347 0.51502 0.0
C1379 C 0.01963 0.24023 0.54293 0.0
C1380 C 0.99588 0.21587 0.4738 0.0
C1381 C 0.98749 0.22482 0.45958 0.0
H1382 H 0.01796 0.21632 0.52377 0.0
H1383 H 0.99003 0.20288 0.45427 0.0
S1384 S 1.00316 0.26911 0.5179 0.0
N1385 N 0.01816 0.2656 0.55123 0.0
N1386 N 0.9884 0.25134 0.47494 0.0
C1387 C 0.99538 0.24159 0.48656 0.0
C1388 C 0.01144 0.2493 0.52801 0.0
C1389 C 0.24176 0.2465 0.54905 0.0
C1390 C 0.22446 0.23953 0.53956 0.0
C1391 C 0.25007 0.23893 0.50909 0.0
C1392 C 0.24138 0.22405 0.45867 0.0
H1393 H 0.24894 0.25803 0.58632 0.0
H1394 H 0.26344 0.24476 0.51795 0.0
S1395 S 0.19596 0.2012 0.4123 0.0
N1396 N 0.19896 0.21741 0.47363 0.0
N1397 N 0.21444 0.20276 0.40152 0.0
C1398 C 0.22407 0.21707 0.44822 0.0
C1399 C 0.21565 0.2249 0.48815 0.0
C1400 C 0.75683 0.99412 0.50719 0.0
C1401 C 0.76583 0.98689 0.54325 0.0
C1402 C 0.765 0.00992 0.46633 0.0
C1403 C 0.78247 0.01908 0.46017 0.0
H1404 H 0.74333 0.9874 0.50978 0.0
H1405 H 0.75764 0.01511 0.44014 0.0
S1406 S 0.81182 0.00625 0.54766 0.0
N1407 N 0.79319 0.99034 0.57183 0.0
N1408 N 0.80855 0.02025 0.49672 0.0
C1409 C 0.79163 0.01221 0.4974 0.0
C1410 C 0.78331 0.99608 0.53886 0.0
C1411 C 0.99424 0.77967 0.51533 0.0
C1412 C 0.98797 0.76485 0.46472 0.0
C1413 C 0.01027 0.78717 0.55442 0.0
C1414 C 0.02042 0.77995 0.54485 0.0
H1415 H 0.98669 0.78546 0.52478 0.0
H1416 H 0.01488 0.79883 0.59062 0.0
S1417 S 0.00882 0.74017 0.42704 0.0
N1418 N 0.99256 0.7427 0.41201 0.0
N1419 N 0.02234 0.75636 0.48738 0.0
C1420 C 0.0139 0.76475 0.49745 0.0
C1421 C 0.99777 0.75731 0.45679 0.0
C1422 C 0.20083 0.4113 0.95115 0.0
C1423 C 0.18899 0.40375 0.02117 0.0
C1424 C 0.21599 0.41121 0.95209 0.0
C1425 C 0.21996 0.40353 0.02293 0.0
H1426 H 0.19822 0.41698 0.89393 0.0
H1427 H 0.22446 0.41685 0.89548 0.0
S1428 S 0.19344 0.38233 0.22415 0.0
N1429 N 0.18265 0.38874 0.16483 0.0
N1430 N 0.21073 0.38843 0.16597 0.0
C1431 C 0.20837 0.39626 0.09425 0.0
C1432 C 0.19303 0.39642 0.09353 0.0
C1433 C 0.5951 0.79085 0.95163 0.0
C1434 C 0.60234 0.78649 0.02307 0.0
C1435 C 0.59536 0.80619 0.95126 0.0
C1436 C 0.60284 0.81782 0.02235 0.0
H1437 H 0.58961 0.78258 0.89412 0.0
H1438 H 0.59001 0.8091 0.89359 0.0
S1439 S 0.62303 0.81224 0.22759 0.0
N1440 N 0.61676 0.79503 0.16842 0.0
N1441 N 0.61728 0.82352 0.16764 0.0
C1442 C 0.60973 0.81338 0.09528 0.0
C1443 C 0.60946 0.79785 0.09566 0.0
C1444 C 0.21792 0.80436 0.9731 0.0
C1445 C 0.21964 0.8185 0.01886 0.0
C1446 C 0.2027 0.78915 0.97371 0.0
C1447 C 0.18867 0.7875 0.02027 0.0
H1448 H 0.22837 0.80507 0.93621 0.0
H1449 H 0.20193 0.77863 0.93722 0.0
S1450 S 0.18611 0.82123 0.14302 0.0
N1451 N 0.20553 0.83005 0.10686 0.0
N1452 N 0.17728 0.80171 0.10858 0.0
C1453 C 0.19021 0.80162 0.06538 0.0
C1454 C 0.20559 0.81703 0.06453 0.0
C1455 C 0.39155 0.20396 0.94179 0.0
C1456 C 0.40486 0.21848 0.97954 0.0
C1457 C 0.39154 0.18888 0.9411 0.0
C1458 C 0.40485 0.18759 0.97809 0.0
H1459 H 0.38076 0.20409 0.91434 0.0
H1460 H 0.38075 0.17801 0.91323 0.0
S1461 S 0.44338 0.22221 0.07856 0.0
N1462 N 0.43215 0.23087 0.05078 0.0
N1463 N 0.43215 0.20236 0.04949 0.0
C1464 C 0.41841 0.20204 0.01491 0.0
C1465 C 0.41841 0.21751 0.01564 0.0
C1466 C 0.78848 0.20263 0.98629 0.0
C1467 C 0.78828 0.18743 0.99616 0.0
C1468 C 0.80368 0.21791 0.98601 0.0
C1469 C 0.81897 0.21828 0.99559 0.0
H1470 H 0.77691 0.20267 0.97666 0.0
H1471 H 0.8035 0.2294 0.97624 0.0
S1472 S 0.82484 0.18207 0.03536 0.0
N1473 N 0.80448 0.17384 0.02367 0.0
N1474 N 0.83286 0.20238 0.02317 0.0
C1475 C 0.81879 0.2032 0.00887 0.0
C1476 C 0.80347 0.18779 0.00914 0.0
C1477 C 0.78925 0.58797 0.00693 0.0
C1478 C 0.7885 0.60224 0.9816 0.0
C1479 C 0.80454 0.58813 0.00775 0.0
C1480 C 0.81949 0.60255 0.98323 0.0
H1481 H 0.77797 0.57663 0.02552 0.0
H1482 H 0.80466 0.57689 0.02676 0.0
S1483 S 0.82455 0.64389 0.92757 0.0
N1484 N 0.8043 0.63163 0.94191 0.0
N1485 N 0.83279 0.63189 0.94327 0.0
C1486 C 0.81891 0.617 0.96108 0.0
C1487 C 0.80348 0.61685 0.9603 0.0
C1488 C 0.86055 0.73059 0.41714 0.0
C1489 C 0.8566 0.73876 0.34929 0.0
C1490 C 0.87565 0.7306 0.41656 0.0
C1491 C 0.88779 0.73897 0.34889 0.0
H1492 H 0.85164 0.72355 0.47002 0.0
H1493 H 0.87746 0.72342 0.46843 0.0
S1494 S 0.88428 0.76338 0.15859 0.0
N1495 N 0.86654 0.75623 0.2144 0.0
N1496 N 0.89507 0.75642 0.21399 0.0
C1497 C 0.88433 0.74777 0.28229 0.0
C1498 C 0.86878 0.74764 0.28244 0.0
C1499 C 0.25447 0.13536 0.33687 0.0
C1500 C 0.26939 0.15082 0.3396 0.0
C1501 C 0.25479 0.1203 0.33602 0.0
C1502 C 0.27002 0.12037 0.33791 0.0
H1503 H 0.24257 0.13493 0.33716 0.0
H1504 H 0.24312 0.10858 0.33576 0.0
S1505 S 0.31233 0.15758 0.32989 0.0
N1506 N 0.29963 0.16523 0.33391 0.0
N1507 N 0.30021 0.13712 0.33257 0.0
C1508 C 0.28492 0.13576 0.33689 0.0
C1509 C 0.2846 0.15095 0.33767 0.0
C1510 C 0.88039 0.14105 0.42334 0.0
C1511 C 0.88759 0.14973 0.34224 0.0
C1512 C 0.86505 0.12604 0.42309 0.0
C1513 C 0.85641 0.11909 0.34161 0.0
H1514 H 0.88652 0.14597 0.48764 0.0
H1515 H 0.85983 0.11994 0.48725 0.0
S1516 S 0.86933 0.13748 0.11147 0.0
N1517 N 0.88455 0.15055 0.17867 0.0
N1518 N 0.85588 0.12242 0.17813 0.0
C1519 C 0.86358 0.12755 0.25995 0.0
C1520 C 0.87913 0.14282 0.26026 0.0
C1521 C 0.06276 0.52459 0.25035 0.0
C1522 C 0.07248 0.5215 0.31233 0.0
C1523 C 0.06278 0.5397 0.25034 0.0
C1524 C 0.07252 0.55252 0.31231 0.0
H1525 H 0.0546 0.51507 0.20276 0.0
H1526 H 0.05462 0.54106 0.20278 0.0
S1527 S 0.10163 0.55158 0.48249 0.0
N1528 N 0.09317 0.53314 0.433 0.0
N1529 N 0.0932 0.56158 0.43294 0.0
C1530 C 0.08287 0.54993 0.37223 0.0
C1531 C 0.08285 0.53445 0.37225 0.0
C1532 C 0.47539 0.5461 0.24651 0.0
C1533 C 0.48507 0.55213 0.32577 0.0
C1534 C 0.46014 0.53102 0.24689 0.0
C1535 C 0.45402 0.52139 0.32648 0.0
H1536 H 0.47976 0.55298 0.18348 0.0
H1537 H 0.45324 0.52669 0.18389 0.0
S1538 S 0.47542 0.53095 0.54967 0.0
N1539 N 0.48788 0.54691 0.48471 0.0
N1540 N 0.4593 0.51861 0.48536 0.0
C1541 C 0.46354 0.52736 0.40631 0.0
C1542 C 0.47905 0.54271 0.40593 0.0
C1543 C 0.45879 0.9268 0.25542 0.0
C1544 C 0.45458 0.93421 0.32613 0.0
C1545 C 0.47403 0.92689 0.25647 0.0
C1546 C 0.48541 0.93436 0.32833 0.0
H1547 H 0.45036 0.92109 0.1987 0.0
H1548 H 0.47701 0.92127 0.20038 0.0
S1549 S 0.48108 0.9573 0.52275 0.0
N1550 N 0.4635 0.95033 0.46552 0.0
N1551 N 0.49201 0.95045 0.46767 0.0
C1552 C 0.48136 0.94192 0.39871 0.0
C1553 C 0.46595 0.94187 0.39753 0.0
C1554 C 0.53124 0.07205 0.60407 0.0
C1555 C 0.52407 0.07341 0.68558 0.0
C1556 C 0.54639 0.07201 0.60405 0.0
C1557 C 0.55491 0.07328 0.68553 0.0
H1558 H 0.52476 0.07023 0.54019 0.0
H1559 H 0.55103 0.0702 0.5401 0.0
S1560 S 0.5429 0.07998 0.91487 0.0
N1561 N 0.52776 0.07816 0.84811 0.0
N1562 N 0.55602 0.07784 0.84807 0.0
C1563 C 0.54832 0.07551 0.7666 0.0
C1564 C 0.53296 0.07564 0.76661 0.0
C1565 C 0.94702 0.48167 0.73923 0.0
C1566 C 0.9355 0.48392 0.6877 0.0
C1567 C 0.94684 0.46649 0.73943 0.0
C1568 C 0.93512 0.45277 0.68813 0.0
H1569 H 0.95666 0.49188 0.77803 0.0
H1570 H 0.95636 0.46572 0.77834 0.0
S1571 S 0.90114 0.45152 0.54863 0.0
N1572 N 0.91127 0.47074 0.58867 0.0
N1573 N 0.91091 0.44209 0.58908 0.0
C1574 C 0.92317 0.45463 0.63835 0.0
C1575 C 0.92337 0.4702 0.63811 0.0
C1576 C 0.53533 0.45573 0.63527 0.0
C1577 C 0.52168 0.4535 0.68824 0.0
C1578 C 0.55049 0.471 0.63498 0.0
C1579 C 0.55259 0.48461 0.6877 0.0
H1580 H 0.53426 0.44567 0.59304 0.0
H1581 H 0.56058 0.47216 0.59265 0.0
S1582 S 0.52028 0.4857 0.83293 0.0
N1583 N 0.51115 0.46663 0.79162 0.0
N1584 N 0.53933 0.495 0.79099 0.0
C1585 C 0.53899 0.48253 0.74054 0.0
C1586 C 0.52364 0.46708 0.74085 0.0
C1587 C 0.75096 0.88385 0.69106 0.0
C1588 C 0.73772 0.88511 0.65207 0.0
C1589 C 0.75091 0.8686 0.69159 0.0
C1590 C 0.73763 0.85411 0.65304 0.0
H1591 H 0.76142 0.89471 0.72117 0.0
H1592 H 0.76133 0.86816 0.72186 0.0
S1593 S 0.69891 0.85021 0.55431 0.0
N1594 N 0.71031 0.87007 0.58159 0.0
N1595 N 0.71022 0.84172 0.5827 0.0
C1596 C 0.72417 0.85517 0.61608 0.0
C1597 C 0.72422 0.87056 0.61552 0.0
C1598 C 0.14099 0.88237 0.70169 0.0
C1599 C 0.15394 0.88533 0.64094 0.0
C1600 C 0.12577 0.86714 0.70113 0.0
C1601 C 0.12292 0.85423 0.64016 0.0
H1602 H 0.14267 0.8918 0.75074 0.0
H1603 H 0.11626 0.86541 0.74981 0.0
S1604 S 0.15324 0.85531 0.47048 0.0
N1605 N 0.16294 0.87375 0.51949 0.0
N1606 N 0.13485 0.84537 0.51998 0.0
C1607 C 0.13584 0.85708 0.57932 0.0
C1608 C 0.15118 0.87253 0.57932 0.0
C1609 C 0.13478 0.2797 0.60363 0.0
C1610 C 0.12049 0.26683 0.64593 0.0
C1611 C 0.14993 0.27982 0.60347 0.0
C1612 C 0.15156 0.26709 0.6457 0.0
H1613 H 0.13446 0.29014 0.57262 0.0
H1614 H 0.16061 0.29033 0.57228 0.0
S1615 S 0.11751 0.22949 0.75681 0.0
N1616 N 0.1086 0.24029 0.72509 0.0
N1617 N 0.13722 0.24053 0.72487 0.0
C1618 C 0.13728 0.25383 0.68581 0.0
C1619 C 0.12174 0.2537 0.68592 0.0
C1620 C 0.10266 0.33508 0.74597 0.0
C1621 C 0.10038 0.32024 0.78524 0.0
C1622 C 0.10955 0.35001 0.796 0.0
C1623 C 0.11439 0.35076 0.88765 0.0
H1624 H 0.09918 0.33521 0.67589 0.0
H1625 H 0.11128 0.36113 0.76203 0.0
S1626 S 0.11265 0.31595 0.02012 0.0
N1627 N 0.10465 0.30765 0.92048 0.0
N1628 N 0.11717 0.33553 0.01389 0.0
C1629 C 0.11219 0.33605 0.92774 0.0
C1630 C 0.10533 0.32089 0.87676 0.0
C1631 C 0.66989 0.76663 0.91679 0.0
C1632 C 0.65573 0.76704 0.88626 0.0
C1633 C 0.68449 0.77334 0.86383 0.0
C1634 C 0.68546 0.78065 0.77826 0.0
H1635 H 0.66967 0.761 0.9816 0.0
H1636 H 0.69515 0.77286 0.89036 0.0
S1637 S 0.65245 0.78646 0.67186 0.0
N1638 N 0.64404 0.77643 0.76738 0.0
N1639 N 0.67136 0.78889 0.66874 0.0
C1640 C 0.67146 0.7813 0.74756 0.0
C1641 C 0.65666 0.77456 0.80136 0.0
C1642 C 0.24395 0.90708 0.90462 0.0
C1643 C 0.24073 0.89093 0.88385 0.0
C1644 C 0.23758 0.91505 0.84985 0.0
C1645 C 0.22797 0.90725 0.77182 0.0
H1646 H 0.2515 0.91361 0.9631 0.0
H1647 H 0.24007 0.92737 0.86912 0.0
S1648 S 0.21406 0.86416 0.69561 0.0
N1649 N 0.2258 0.86679 0.78548 0.0
N1650 N 0.21444 0.88202 0.6813 0.0
C1651 C 0.22452 0.89106 0.75112 0.0
C1652 C 0.23072 0.88285 0.80752 0.0
C1653 C 0.33163 0.092 0.20566 0.0
C1654 C 0.32324 0.1008 0.22429 0.0
C1655 C 0.34578 0.09887 0.14894 0.0
C1656 C 0.35171 0.11458 0.10813 0.0
H1657 H 0.32711 0.0797 0.23415 0.0
H1658 H 0.35213 0.09191 0.13706 0.0
S1659 S 0.33494 0.14305 0.1419 0.0
N1660 N 0.32239 0.1263 0.20175 0.0
N1661 N 0.34886 0.13914 0.09535 0.0
C1662 C 0.34362 0.12357 0.12802 0.0
C1663 C 0.32937 0.11667 0.18591 0.0
C1664 C 0.90117 0.24614 0.19105 0.0
C1665 C 0.89223 0.23876 0.11053 0.0
C1666 C 0.90776 0.23822 0.24458 0.0
C1667 C 0.90545 0.22256 0.21985 0.0
H1668 H 0.90307 0.25813 0.21284 0.0
H1669 H 0.91484 0.24445 0.30487 0.0
S1670 S 0.88072 0.19682 0.02376 0.0
N1671 N 0.88023 0.21431 0.01352 0.0
N1672 N 0.89204 0.19919 0.1151 0.0
C1673 C 0.89606 0.21484 0.14119 0.0
C1674 C 0.88961 0.223 0.0862 0.0
C1675 C 0.76897 0.6679 0.0823 0.0
C1676 C 0.76688 0.65298 0.11921 0.0
C1677 C 0.77616 0.68271 0.13345 0.0
C1678 C 0.78154 0.68322 0.22374 0.0
H1679 H 0.76509 0.66819 0.01326 0.0
H1680 H 0.77764 0.6939 0.10151 0.0
S1681 S 0.77977 0.64785 0.35105 0.0
N1682 N 0.77137 0.63986 0.2516 0.0
N1683 N 0.78471 0.66758 0.3467 0.0
C1684 C 0.77946 0.6684 0.26161 0.0
C1685 C 0.77221 0.65334 0.20966 0.0
C1686 C 0.90525 0.67019 0.25042 0.0
C1687 C 0.90726 0.68507 0.21338 0.0
C1688 C 0.89826 0.6554 0.19908 0.0
C1689 C 0.89306 0.65489 0.1084 0.0
H1690 H 0.90911 0.66994 0.31958 0.0
H1691 H 0.89681 0.64422 0.23106 0.0
S1692 S 0.89376 0.68989 0.98262 0.0
N1693 N 0.90214 0.69793 0.0821 0.0
N1694 N 0.88948 0.67035 0.98594 0.0
C1695 C 0.89489 0.66963 0.07077 0.0
C1696 C 0.90182 0.68463 0.12314 0.0
C1697 C 0.3507 0.24481 0.19686 0.0
C1698 C 0.35161 0.23889 0.10993 0.0
C1699 C 0.33598 0.23692 0.24883 0.0
C1700 C 0.32167 0.2227 0.21612 0.0
H1701 H 0.36148 0.25564 0.2251 0.0
H1702 H 0.33579 0.24203 0.31467 0.0
S1703 S 0.31846 0.20075 0.99896 0.0
N1704 N 0.33737 0.2172 0.99712 0.0
N1705 N 0.31002 0.20203 0.09516 0.0
C1706 C 0.32263 0.21638 0.13042 0.0
C1707 C 0.33749 0.22457 0.0772 0.0
C1708 C 0.78801 0.10583 0.13033 0.0
C1709 C 0.78185 0.09867 0.21639 0.0
C1710 C 0.7802 0.11267 0.07841 0.0
C1711 C 0.76589 0.11262 0.11032 0.0
H1712 H 0.79921 0.10649 0.10346 0.0
H1713 H 0.78576 0.11853 0.01422 0.0
S1714 S 0.74357 0.09353 0.32567 0.0
N1715 N 0.75981 0.09072 0.32746 0.0
N1716 N 0.74505 0.10356 0.23023 0.0
C1717 C 0.75928 0.10501 0.19492 0.0
C1718 C 0.76728 0.09807 0.24788 0.0
C1719 C 0.67303 0.90899 0.76292 0.0
C1720 C 0.68577 0.90542 0.78238 0.0
C1721 C 0.65855 0.9024 0.81688 0.0
C1722 C 0.65646 0.89224 0.89278 0.0
H1723 H 0.67432 0.91701 0.70629 0.0
H1724 H 0.64889 0.90521 0.79896 0.0
S1725 S 0.68502 0.87724 0.96389 0.0
N1726 N 0.69444 0.88954 0.87634 0.0
N1727 N 0.66765 0.87779 0.97929 0.0
C1728 C 0.66898 0.8884 0.91182 0.0
C1729 C 0.68352 0.89482 0.85617 0.0
C1730 C 0.10729 0.78611 0.86625 0.0
C1731 C 0.1012 0.78068 0.77761 0.0
C1732 C 0.11384 0.77816 0.91895 0.0
C1733 C 0.11503 0.76469 0.88448 0.0
H1734 H 0.10709 0.79673 0.89555 0.0
H1735 H 0.11848 0.78297 0.98626 0.0
S1736 S 0.1013 0.74574 0.65556 0.0
N1737 N 0.0969 0.76095 0.65749 0.0
N1738 N 0.10967 0.74622 0.75538 0.0
C1739 C 0.10922 0.75921 0.79536 0.0
C1740 C 0.1023 0.7672 0.74205 0.0
C1741 C 0.22127 0.32119 0.87148 0.0
C1742 C 0.22596 0.32078 0.78066 0.0
C1743 C 0.22919 0.33579 0.92387 0.0
C1744 C 0.24202 0.35073 0.88737 0.0
H1745 H 0.21101 0.31025 0.90202 0.0
H1746 H 0.22478 0.33547 0.99237 0.0
S1747 S 0.25986 0.35624 0.6552 0.0
N1748 N 0.24492 0.33652 0.65829 0.0
N1749 N 0.2597 0.36404 0.7558 0.0
C1750 C 0.24709 0.35047 0.79715 0.0
C1751 C 0.23907 0.33553 0.74401 0.0
C1752 C 1.00313 0.44022 0.40875 0.0
C1753 C 0.01878 0.44645 0.45045 0.0
C1754 C 0.98837 0.43294 0.46005 0.0
C1755 C 0.98855 0.43156 0.55559 0.0
H1756 H 1.00223 0.44131 0.336 0.0
H1757 H 0.97672 0.42869 0.42411 0.0
S1758 S 0.02612 0.44462 0.69785 0.0
N1759 N 0.03344 0.44974 0.59352 0.0
N1760 N 0.00573 0.43617 0.68903 0.0
C1761 C 0.00405 0.43722 0.59795 0.0
C1762 C 0.01912 0.44462 0.54576 0.0
C1763 C 0.57336 0.55693 0.45811 0.0
C1764 C 0.57544 0.55896 0.55331 0.0
C1765 C 0.56608 0.56448 0.40749 0.0
C1766 C 0.56054 0.57444 0.4496 0.0
H1767 H 0.57704 0.54909 0.42201 0.0
H1768 H 0.56439 0.5621 0.33515 0.0
S1769 S 0.56416 0.5848 0.69628 0.0
N1770 N 0.57209 0.57241 0.68671 0.0
N1771 N 0.55856 0.58671 0.59263 0.0
C1772 C 0.56305 0.57704 0.54451 0.0
C1773 C 0.57042 0.56929 0.59597 0.0
C1774 C 0.43882 0.98845 0.54013 0.0
C1775 C 0.43394 0.98774 0.44846 0.0
C1776 C 0.44592 0.00336 0.59023 0.0
C1777 C 0.44847 0.01827 0.55102 0.0
H1778 H 0.4375 0.97743 0.57333 0.0
H1779 H 0.44991 0.00327 0.65928 0.0
S1780 S 0.43634 0.02293 0.31637 0.0
N1781 N 0.43117 0.00313 0.32283 0.0
N1782 N 0.44436 0.03111 0.41628 0.0
C1783 C 0.44313 0.01764 0.46027 0.0
C1784 C 0.43595 1.00244 0.40922 0.0
C1785 C 0.56171 0.00276 0.40895 0.0
C1786 C 0.56101 0.98832 0.44382 0.0
C1787 C 0.56845 0.01751 0.46028 0.0
C1788 C 0.5747 0.01842 0.54888 0.0
H1789 H 0.55649 0.00255 0.34278 0.0
H1790 H 0.56837 0.02818 0.4309 0.0
S1791 S 0.57777 0.98476 0.66705 0.0
N1792 N 0.56868 0.97637 0.56936 0.0
N1793 N 0.58099 0.00397 0.66595 0.0
C1794 C 0.57459 0.00426 0.5834 0.0
C1795 C 0.56787 0.98927 0.53084 0.0
C1796 C 0.0172 0.56424 0.52997 0.0
C1797 C 0.01876 0.57301 0.44883 0.0
C1798 C 1.00262 0.55745 0.58251 0.0
C1799 C 0.98899 0.55914 0.55606 0.0
H1800 H 0.02726 0.56234 0.55249 0.0
H1801 H 1.00183 0.55036 0.64266 0.0
S1802 S 0.98732 0.58255 0.35556 0.0
N1803 N 0.00586 0.58412 0.34868 0.0
N1804 N 0.97834 0.57123 0.44699 0.0
C1805 C 0.9905 0.56823 0.4764 0.0
C1806 C 0.00539 0.57518 0.42284 0.0
C1807 C 0.42459 0.43239 0.49202 0.0
C1808 C 0.43442 0.44671 0.43913 0.0
C1809 C 0.43195 0.42558 0.54833 0.0
C1810 C 0.44937 0.43308 0.55459 0.0
H1811 H 0.41112 0.42653 0.49038 0.0
H1812 H 0.42401 0.41434 0.58639 0.0
S1813 S 0.48053 0.47186 0.43949 0.0
N1814 N 0.46238 0.46884 0.40271 0.0
N1815 N 0.47621 0.4561 0.50808 0.0
C1816 C 0.45929 0.44755 0.50353 0.0
C1817 C 0.45181 0.45439 0.44601 0.0
C1818 C 0.15486 0.39241 0.50835 0.0
C1819 C 0.14145 0.39256 0.46541 0.0
C1820 C 0.16062 0.40008 0.59277 0.0
C1821 C 0.15321 0.40824 0.63711 0.0
H1822 H 0.1607 0.38602 0.47723 0.0
H1823 H 0.17055 0.39899 0.62486 0.0
S1824 S 0.11959 0.41456 0.54386 0.0
N1825 N 0.12218 0.40313 0.46658 0.0
N1826 N 0.13301 0.41763 0.62587 0.0
C1827 C 0.14037 0.40926 0.592 0.0
C1828 C 0.13447 0.40137 0.50602 0.0
C1829 C 0.61161 0.73948 0.52446 0.0
C1830 C 0.613 0.75253 0.46952 0.0
C1831 C 0.60376 0.73614 0.60949 0.0
C1832 C 0.59707 0.74579 0.64318 0.0
H1833 H 0.61673 0.73184 0.50181 0.0
H1834 H 0.6035 0.72629 0.65034 0.0
S1835 S 0.5968 0.78088 0.52276 0.0
N1836 N 0.60683 0.77493 0.45349 0.0
N1837 N 0.59148 0.76833 0.61127 0.0
C1838 C 0.59779 0.75844 0.58685 0.0
C1839 C 0.60596 0.76193 0.50075 0.0
C1840 C 0.2515 0.86967 0.54772 0.0
C1841 C 0.25558 0.86403 0.46852 0.0
C1842 C 0.25465 0.86546 0.6338 0.0
C1843 C 0.2617 0.85523 0.64409 0.0
H1844 H 0.24579 0.87739 0.54321 0.0
H1845 H 0.25139 0.87011 0.69306 0.0
S1846 S 0.27722 0.83935 0.46058 0.0
N1847 N 0.26954 0.84972 0.40728 0.0
N1848 N 0.27394 0.8406 0.56983 0.0
C1849 C 0.26627 0.84982 0.56637 0.0
C1850 C 0.26359 0.85453 0.4783 0.0
C1851 C 0.40729 0.13802 0.3965 0.0
C1852 C 0.40959 0.15268 0.35438 0.0
C1853 C 0.39956 0.13302 0.48177 0.0
C1854 C 0.39393 0.14253 0.52803 0.0
H1855 H 0.41112 0.13012 0.36239 0.0
H1856 H 0.39789 0.12159 0.51158 0.0
S1857 S 0.3968 0.1818 0.44969 0.0
N1858 N 0.40556 0.1767 0.36771 0.0
N1859 N 0.3912 0.16717 0.52773 0.0
C1860 C 0.39649 0.15735 0.48854 0.0
C1861 C 0.4043 0.16248 0.40182 0.0
C1862 C 0.87428 0.2667 0.48251 0.0
C1863 C 0.86279 0.25313 0.53506 0.0
C1864 C 0.86981 0.27009 0.39755 0.0
C1865 C 0.85371 0.25993 0.36155 0.0
H1866 H 0.88686 0.27471 0.50702 0.0
H1867 H 0.87926 0.28042 0.35856 0.0
S1868 S 0.81895 0.22302 0.47502 0.0
N1869 N 0.83466 0.22965 0.54692 0.0
N1870 N 0.82602 0.23603 0.38829 0.0
C1871 C 0.84193 0.24664 0.41547 0.0
C1872 C 0.84655 0.2432 0.50179 0.0
C1873 C 0.76401 0.60415 0.40769 0.0
C1874 C 0.74877 0.59726 0.35985 0.0
C1875 C 0.76587 0.61144 0.49332 0.0
C1876 C 0.75262 0.61222 0.53412 0.0
H1877 H 0.77487 0.60457 0.37746 0.0
H1878 H 0.7779 0.61696 0.52665 0.0
S1879 S 0.70941 0.59345 0.4471 0.0
N1880 N 0.71958 0.58981 0.3664 0.0
N1881 N 0.72326 0.60375 0.52739 0.0
C1882 C 0.73708 0.60458 0.49029 0.0
C1883 C 0.7351 0.597 0.40323 0.0
C1884 C 0.87398 0.60789 0.48072 0.0
C1885 C 0.86335 0.61136 0.53251 0.0
C1886 C 0.86904 0.60015 0.39562 0.0
C1887 C 0.85332 0.59574 0.35877 0.0
H1888 H 0.88627 0.61128 0.50594 0.0
H1889 H 0.87786 0.59816 0.3572 0.0
S1890 S 0.82074 0.60185 0.47044 0.0
N1891 N 0.83639 0.60958 0.54319 0.0
N1892 N 0.82686 0.59488 0.38402 0.0
C1893 C 0.84234 0.59864 0.41202 0.0
C1894 C 0.84744 0.60654 0.49855 0.0
C1895 C 0.40665 0.24561 0.4127 0.0
C1896 C 0.40999 0.25959 0.35932 0.0
C1897 C 0.39903 0.24296 0.49792 0.0
C1898 C 0.39443 0.25416 0.53295 0.0
H1899 H 0.40929 0.23621 0.38712 0.0
H1900 H 0.39625 0.23181 0.53549 0.0
S1901 S 0.40282 0.29403 0.429 0.0
N1902 N 0.40984 0.2858 0.35381 0.0
N1903 N 0.39543 0.28066 0.51413 0.0
C1904 C 0.39853 0.26864 0.48339 0.0
C1905 C 0.40641 0.27144 0.39675 0.0
C1906 C 0.75775 0.16266 0.41692 0.0
C1907 C 0.74498 0.15077 0.36087 0.0
C1908 C 0.76123 0.15827 0.5018 0.0
C1909 C 0.75205 0.14186 0.53418 0.0
H1910 H 0.76564 0.17534 0.39369 0.0
H1911 H 0.77153 0.1677 0.54104 0.0
S1912 S 0.71562 0.10662 0.42192 0.0
N1913 N 0.72191 0.12221 0.3494 0.0
N1914 N 0.7285 0.11408 0.50917 0.0
C1915 C 0.73867 0.13005 0.48162 0.0
C1916 C 0.73506 0.1345 0.39521 0.0
C1917 C 0.60875 0.87339 0.51756 0.0
C1918 C 0.61413 0.8638 0.46998 0.0
C1919 C 0.60083 0.86816 0.60214 0.0
C1920 C 0.59808 0.85319 0.64224 0.0
H1921 H 0.6107 0.88502 0.48919 0.0
H1922 H 0.59724 0.87614 0.63736 0.0
S1923 S 0.61013 0.82381 0.54327 0.0
N1924 N 0.61626 0.83882 0.4673 0.0
N1925 N 0.60136 0.82878 0.62572 0.0
C1926 C 0.60309 0.84331 0.59352 0.0
C1927 C 0.61116 0.8487 0.50763 0.0
C1928 C 0.14476 0.73863 0.49111 0.0
C1929 C 0.14241 0.75226 0.4726 0.0
C1930 C 0.14946 0.7362 0.57803 0.0
C1931 C 0.15198 0.74736 0.64873 0.0
H1932 H 0.14262 0.72958 0.43883 0.0
H1933 H 0.15127 0.72567 0.58974 0.0
S1934 S 0.1459 0.78395 0.63818 0.0
N1935 N 0.14185 0.77627 0.5341 0.0
N1936 N 0.15073 0.77178 0.69695 0.0
C1937 C 0.14918 0.76069 0.63185 0.0
C1938 C 0.14431 0.76308 0.54397 0.0
C1939 C 0.24887 0.39054 0.63148 0.0
C1940 C 0.26088 0.40727 0.64822 0.0
C1941 C 0.24686 0.38361 0.54483 0.0
C1942 C 0.25663 0.39325 0.47167 0.0
H1943 H 0.24099 0.38273 0.6861 0.0
H1944 H 0.23744 0.37067 0.53478 0.0
S1945 S 0.29069 0.43743 0.48254 0.0
N1946 N 0.28319 0.43314 0.587 0.0
N1947 N 0.27967 0.42014 0.42342 0.0
C1948 C 0.26902 0.40994 0.48822 0.0
C1949 C 0.27108 0.41696 0.57686 0.0
C1950 C 0.83026 0.74103 0.91605 0.0
C1951 C 0.81841 0.74184 0.97266 0.0
C1952 C 0.82583 0.73333 0.83083 0.0
C1953 C 0.80938 0.72611 0.79907 0.0
H1954 H 0.84297 0.74583 0.93894 0.0
H1955 H 0.83523 0.73258 0.79068 0.0
S1956 S 0.77408 0.72665 0.91397 0.0
N1957 N 0.78977 0.73606 0.9859 0.0
N1958 N 0.78154 0.72153 0.8256 0.0
C1959 C 0.79758 0.72748 0.85243 0.0
C1960 C 0.80208 0.73544 0.93903 0.0
C1961 C 0.25589 0.06943 0.90172 0.0
C1962 C 0.26524 0.0787 0.97677 0.0
C1963 C 0.26313 0.07252 0.81481 0.0
C1964 C 0.27988 0.08502 0.80081 0.0
H1965 H 0.243 0.05975 0.91026 0.0
H1966 H 0.25567 0.0648 0.75908 0.0
S1967 S 0.30941 0.11236 0.97671 0.0
N1968 N 0.29193 0.10058 0.0327 0.0
N1969 N 0.30548 0.1064 0.86973 0.0
C1970 C 0.28927 0.09416 0.87596 0.0
C1971 C 0.28194 0.09104 0.96385 0.0
C1972 C 0.91808 0.20241 0.87994 0.0
C1973 C 0.92213 0.19681 0.80061 0.0
C1974 C 0.92156 0.19843 0.96573 0.0
C1975 C 0.92899 0.18851 0.97535 0.0
H1976 H 0.91213 0.20992 0.87572 0.0
H1977 H 0.91829 0.203 0.02525 0.0
S1978 S 0.94457 0.17292 0.79081 0.0
N1979 N 0.93635 0.18284 0.73813 0.0
N1980 N 0.94155 0.17427 0.9003 0.0
C1981 C 0.93352 0.18315 0.8974 0.0
C1982 C 0.93045 0.1876 0.80965 0.0
C1983 C 0.07483 0.49568 0.74839 0.0
C1984 C 0.07679 0.4844 0.69258 0.0
C1985 C 0.06732 0.49096 0.83407 0.0
C1986 C 0.06145 0.47478 0.86723 0.0
H1987 H 0.07848 0.50809 0.72435 0.0
H1988 H 0.06557 0.49986 0.87327 0.0
S1989 S 0.06584 0.4413 0.75621 0.0
N1990 N 0.07389 0.45682 0.68253 0.0
N1991 N 0.05976 0.44806 0.84383 0.0
C1992 C 0.06423 0.4637 0.81536 0.0
C1993 C 0.07197 0.4685 0.72815 0.0
C1994 C 0.53608 0.60398 0.73449 0.0
C1995 C 0.52112 0.59188 0.69361 0.0
C1996 C 0.54114 0.60112 0.8192 0.0
C1997 C 0.53141 0.58608 0.86607 0.0
H1998 H 0.54414 0.61563 0.70005 0.0
H1999 H 0.55274 0.61074 0.8483 0.0
S2000 S 0.49147 0.5502 0.78989 0.0
N2001 N 0.49666 0.56413 0.70816 0.0
N2002 N 0.5064 0.55893 0.86657 0.0
C2003 C 0.51641 0.57398 0.82713 0.0
C2004 C 0.51118 0.57684 0.7412 0.0
C2005 C 0.43139 0.95465 0.79597 0.0
C2006 C 0.4198 0.94601 0.86478 0.0
C2007 C 0.42959 0.94751 0.71006 0.0
C2008 C 0.41596 0.93169 0.68993 0.0
H2009 H 0.442 0.9669 0.80895 0.0
H2010 H 0.43882 0.95453 0.65847 0.0
S2011 S 0.38189 0.9042 0.84538 0.0
N2012 N 0.39405 0.92088 0.90662 0.0
N2013 N 0.39062 0.90768 0.74395 0.0
C2014 C 0.40415 0.92301 0.75732 0.0
C2015 C 0.4061 0.93014 0.84533 0.0
C2016 C 0.53275 0.94757 0.70103 0.0
C2017 C 0.52258 0.93025 0.69107 0.0
C2018 C 0.53678 0.95497 0.787 0.0
C2019 C 0.53073 0.94531 0.86615 0.0
H2020 H 0.5374 0.95549 0.64164 0.0
H2021 H 0.54463 0.96839 0.79156 0.0
S2022 S 0.5048 0.89906 0.87512 0.0
N2023 N 0.50692 0.90349 0.76559 0.0
N2024 N 0.51526 0.91712 0.92817 0.0
C2025 C 0.52085 0.92782 0.85677 0.0
C2026 C 0.51652 0.92036 0.76882 0.0
C2027 C 0.06188 0.57513 0.82793 0.0
C2028 C 0.06049 0.5881 0.868 0.0
C2029 C 0.06945 0.57721 0.743 0.0
C2030 C 0.07585 0.59233 0.69467 0.0
H2031 H 0.05672 0.56316 0.86156 0.0
H2032 H 0.06961 0.56658 0.71362 0.0
S2033 S 0.07753 0.63095 0.77799 0.0
N2034 N 0.06769 0.61712 0.85901 0.0
N2035 N 0.08188 0.62109 0.69871 0.0
C2036 C 0.07534 0.60571 0.73668 0.0
C2037 C 0.06759 0.60355 0.82331 0.0
C2038 C 0.41721 0.46463 0.78848 0.0
C2039 C 0.41874 0.47438 0.86492 0.0
C2040 C 0.41365 0.46851 0.70274 0.0
C2041 C 0.4117 0.48246 0.68974 0.0
H2042 H 0.41879 0.45385 0.79484 0.0
H2043 H 0.41289 0.46077 0.64569 0.0
S2044 S 0.41217 0.51089 0.86712 0.0
N2045 N 0.41562 0.49742 0.9225 0.0
N2046 N 0.41062 0.50558 0.75904 0.0
C2047 C 0.41293 0.49223 0.76483 0.0
C2048 C 0.41599 0.48797 0.85312 0.0
C2049 C 0.28034 0.20191 0.96222 0.0
C2050 C 0.2639 0.18881 0.97338 0.0
C2051 C 0.28795 0.20582 0.87673 0.0
C2052 C 0.27927 0.19707 0.79848 0.0
H2053 H 0.28758 0.2089 0.02056 0.0
H2054 H 0.3008 0.21577 0.87207 0.0
S2055 S 0.23438 0.16439 0.79064 0.0
N2056 N 0.23846 0.1683 0.89991 0.0
N2057 N 0.25197 0.1769 0.73724 0.0
C2058 C 0.26227 0.1848 0.80828 0.0
C2059 C 0.25479 0.18035 0.89629 0.0
C2060 C 0.82995 0.09239 0.91828 0.0
C2061 C 0.81932 0.07807 0.96944 0.0
C2062 C 0.82508 0.09538 0.83356 0.0
C2063 C 0.80941 0.08421 0.79691 0.0
H2064 H 0.8419 0.10176 0.94515 0.0
H2065 H 0.83347 0.10673 0.79748 0.0
S2066 S 0.77794 0.04374 0.89563 0.0
N2067 N 0.79306 0.05174 0.97171 0.0
N2068 N 0.78397 0.05751 0.81243 0.0
C2069 C 0.79898 0.06948 0.84466 0.0
C2070 C 0.80395 0.06634 0.93076 0.0
C2071 C 0.92731 0.74812 0.9023 0.0
C2072 C 0.93204 0.74185 0.97571 0.0
C2073 C 0.92458 0.74076 0.81634 0.0
C2074 C 0.92516 0.72598 0.80146 0.0
H2075 H 0.92562 0.75879 0.9115 0.0
H2076 H 0.92218 0.74709 0.76262 0.0
S2077 S 0.93978 0.70627 0.97093 0.0
N2078 N 0.93988 0.72177 0.02646 0.0
N2079 N 0.93325 0.7069 0.86756 0.0
C2080 C 0.93095 0.72025 0.8741 0.0
C2081 C 0.93461 0.72834 0.96052 0.0
C2082 C 0.48761 0.05894 0.27675 0.0
C2083 C 0.48558 0.07219 0.30821 0.0
C2084 C 0.48155 0.05164 0.19189 0.0
C2085 C 0.47327 0.05733 0.13573 0.0
H2086 H 0.49358 0.05386 0.31882 0.0
H2087 H 0.48338 0.04151 0.16997 0.0
S2088 S 0.46584 0.09239 0.18248 0.0
N2089 N 0.47539 0.09117 0.27453 0.0
N2090 N 0.46403 0.07743 0.11409 0.0
C2091 C 0.47139 0.07072 0.16517 0.0
C2092 C 0.47752 0.07815 0.25186 0.0
C2093 C 0.93588 0.40225 0.27582 0.0
C2094 C 0.92929 0.41203 0.30907 0.0
C2095 C 0.9436 0.40538 0.19053 0.0
C2096 C 0.9449 0.41828 0.13479 0.0
H2097 H 0.9357 0.39251 0.31733 0.0
H2098 H 0.94873 0.39772 0.16839 0.0
S2099 S 0.92897 0.44694 0.18659 0.0
N2100 N 0.92379 0.4346 0.27605 0.0
N2101 N 0.9387 0.44065 0.1171 0.0
C2102 C 0.93788 0.42776 0.16529 0.0
C2103 C 0.92993 0.42455 0.25192 0.0
C2104 C 0.60321 0.53725 0.17416 0.0
C2105 C 0.5872 0.53119 0.13712 0.0
C2106 C 0.60537 0.53172 0.25924 0.0
C2107 C 0.59159 0.51984 0.30949 0.0
H2108 H 0.6141 0.5463 0.13697 0.0
H2109 H 0.61787 0.53684 0.28614 0.0
S2110 S 0.54705 0.50089 0.24228 0.0
N2111 N 0.55747 0.51316 0.15642 0.0
N2112 N 0.56128 0.50273 0.31612 0.0
C2113 C 0.57552 0.51369 0.27221 0.0
C2114 C 0.57339 0.51937 0.18599 0.0
C2115 C 0.71817 0.80229 0.11945 0.0
C2116 C 0.72779 0.80853 0.19868 0.0
C2117 C 0.72557 0.80653 0.03344 0.0
C2118 C 0.74285 0.81714 0.02362 0.0
H2119 H 0.70479 0.79412 0.12395 0.0
H2120 H 0.71767 0.80167 0.97399 0.0
S2121 S 0.77398 0.83518 0.20785 0.0
N2122 N 0.75595 0.82441 0.2608 0.0
N2123 N 0.76955 0.83311 0.09832 0.0
C2124 C 0.75271 0.82325 0.10146 0.0
C2125 C 0.74525 0.81871 0.18936 0.0
C2126 C 0.20738 0.93663 0.15253 0.0
C2127 C 0.20031 0.92082 0.19325 0.0
C2128 C 0.20175 0.93876 0.06783 0.0
C2129 C 0.18883 0.92514 0.0213 0.0
H2130 H 0.21731 0.94741 0.18647 0.0
H2131 H 0.20773 0.95109 0.0379 0.0
S2132 S 0.16669 0.88107 0.09978 0.0
N2133 N 0.18003 0.8914 0.18197 0.0
N2134 N 0.16937 0.89517 0.02291 0.0
C2135 C 0.18154 0.90928 0.06263 0.0
C2136 C 0.18732 0.90718 0.14858 0.0
C2137 C 0.07985 0.28364 0.12561 0.0
C2138 C 0.08373 0.27683 0.20092 0.0
C2139 C 0.07653 0.27606 0.04017 0.0
C2140 C 0.07738 0.26155 0.02539 0.0
H2141 H 0.07962 0.29516 0.1319 0.0
H2142 H 0.07407 0.28213 0.98425 0.0
S2143 S 0.08236 0.23591 0.20102 0.0
N2144 N 0.08388 0.25205 0.25702 0.0
N2145 N 0.07993 0.23918 0.09339 0.0
C2146 C 0.08023 0.25395 0.09989 0.0
C2147 C 0.08281 0.26122 0.18842 0.0
C2148 C 0.20671 0.28743 0.11968 0.0
C2149 C 0.19832 0.27861 0.19832 0.0
C2150 C 0.20249 0.27992 0.034 0.0
C2151 C 0.18942 0.26345 0.02314 0.0
H2152 H 0.21665 0.30029 0.1242 0.0
H2153 H 0.20927 0.28719 0.97538 0.0
S2154 S 0.16539 0.23382 0.20614 0.0
N2155 N 0.17819 0.2513 0.2596 0.0
N2156 N 0.169 0.238 0.09677 0.0
C2157 C 0.18116 0.25428 0.1004 0.0
C2158 C 0.18593 0.26165 0.18851 0.0
C2159 C 0.71787 0.91478 0.12172 0.0
C2160 C 0.72779 0.92057 0.20011 0.0
C2161 C 0.72512 0.91774 0.03542 0.0
C2162 C 0.7425 0.92648 0.02429 0.0
H2163 H 0.70439 0.90786 0.12711 0.0
H2164 H 0.7171 0.9131 0.97664 0.0
S2165 S 0.77405 0.94632 0.20529 0.0
N2166 N 0.75603 0.93733 0.25954 0.0
N2167 N 0.76951 0.94194 0.09667 0.0
C2168 C 0.75261 0.93275 0.10115 0.0
C2169 C 0.74527 0.93002 0.18936 0.0
C2170 C 0.0709 0.81954 0.10987 0.0
C2171 C 0.06983 0.81104 0.029 0.0
C2172 C 0.07598 0.81561 0.19118 0.0
C2173 C 0.08077 0.80336 0.19498 0.0
H2174 H 0.06778 0.82935 0.11066 0.0
H2175 H 0.07556 0.82198 0.25148 0.0
S2176 S 0.07589 0.77457 0.00711 0.0
N2177 N 0.0709 0.78773 0.96096 0.0
N2178 N 0.08116 0.78078 0.11306 0.0
C2179 C 0.07874 0.79407 0.11549 0.0
C2180 C 0.07326 0.79789 0.03271 0.0
C2181 C 0.94234 0.51481 0.16926 0.0
C2182 C 0.94661 0.53049 0.13379 0.0
C2183 C 0.93468 0.50974 0.25434 0.0
C2184 C 0.93098 0.52018 0.30721 0.0
H2185 H 0.94538 0.50659 0.13209 0.0
H2186 H 0.93228 0.4978 0.28018 0.0
S2187 S 0.93734 0.56145 0.2367 0.0
N2188 N 0.945 0.55568 0.15194 0.0
N2189 N 0.93053 0.54623 0.31205 0.0
C2190 C 0.93429 0.53551 0.26951 0.0
C2191 C 0.94219 0.54068 0.18297 0.0
C2192 C 0.46708 0.40449 0.18602 0.0
C2193 C 0.47767 0.41861 0.13405 0.0
C2194 C 0.47206 0.40172 0.2711 0.0
C2195 C 0.48778 0.41305 0.30782 0.0
H2196 H 0.45479 0.39557 0.161 0.0
H2197 H 0.46325 0.39091 0.30963 0.0
S2198 S 0.52033 0.45173 0.19574 0.0
N2199 N 0.50463 0.44382 0.12331 0.0
N2200 N 0.51425 0.43863 0.2821 0.0
C2201 C 0.49874 0.42692 0.25436 0.0
C2202 C 0.49359 0.42973 0.16793 0.0
C2203 C 0.57745 0.05718 0.28281 0.0
C2204 C 0.59164 0.07217 0.30948 0.0
C2205 C 0.57642 0.05034 0.19684 0.0
C2206 C 0.58938 0.05844 0.13411 0.0
H2207 H 0.56716 0.05046 0.32944 0.0
H2208 H 0.56531 0.03877 0.17889 0.0
S2209 S 0.62919 0.09796 0.17043 0.0
N2210 N 0.61898 0.09481 0.26712 0.0
N2211 N 0.61697 0.0821 0.10416 0.0
C2212 C 0.60367 0.07343 0.15972 0.0
C2213 C 0.60482 0.08027 0.24794 0.0
loop_
_geom_bond_atom_site_label_1
_geom_bond_atom_site_label_2
_geom_bond_distance
_geom_bond_site_symmetry_2
_ccdc_geom_bond_type
Co0 O3 1.970 . S
Co0 N17 1.989 . S
Co0 O25 1.967 . S
Co0 O32 1.920 . S
Co1 O4 1.966 . S
Co1 N10 2.022 . S
Co1 N18 1.993 . S
Co1 O26 1.941 . S
C2 O3 1.258 1_554 S
C2 O4 1.263 . S
O3 Co0 1.970 . S
O3 C2 1.258 1_556 S
O4 Co1 1.966 . S
O4 C2 1.263 . S
C5 O6 1.235 . S
C5 O32 1.289 . S
O6 C5 1.235 . S
C7 C9 1.400 . S
C7 N10 1.351 . S
C7 C12 1.501 . S
C8 C9 1.387 . S
C8 N11 1.341 . S
C9 C7 1.400 . S
C9 C8 1.387 . S
N10 Co1 2.022 . S
N10 C7 1.351 . S
N10 N11 1.365 . S
N11 C8 1.341 . S
N11 N10 1.365 . S
N11 H31 0.862 . S
C12 C7 1.501 . S
C12 H13 0.961 . S
C12 H14 0.961 . S
C12 H15 0.960 . S
H13 C12 0.961 . S
H14 C12 0.961 . S
H15 C12 0.960 . S
C16 N17 1.342 . S
C16 C20 1.401 1_556 S
C16 C21 1.499 . S
N17 Co0 1.989 . S
N17 C16 1.342 . S
N17 N18 1.388 1_556 S
N18 Co1 1.993 . S
N18 N17 1.388 1_554 S
N18 C19 1.346 . S
C19 N18 1.346 . S
C19 C20 1.396 . S
C19 C29 1.510 . S
C20 C16 1.401 1_554 S
C20 C19 1.396 . S
C21 C16 1.499 . S
C21 H22 0.959 . S
C21 H23 0.960 . S
C21 H24 0.961 . S
H22 C21 0.959 . S
H23 C21 0.960 . S
H24 C21 0.961 . S
O25 Co0 1.967 . S
O25 C33 1.258 . S
O26 Co1 1.941 . S
O26 C33 1.266 1_554 S
H27 C29 0.959 . S
H28 C29 0.961 . S
C29 C19 1.510 . S
C29 H27 0.959 . S
C29 H28 0.961 . S
C29 H30 0.960 . S
H30 C29 0.960 . S
H31 N11 0.862 . S
O32 Co0 1.920 . S
O32 C5 1.289 . S
C33 O25 1.258 . S
C33 O26 1.266 1_556 S
Co34 O37 1.970 . S
Co34 N51 1.989 . S
Co34 O59 1.967 . S
Co34 O66 1.920 . S
Co35 O38 1.966 . S
Co35 N44 2.022 . S
Co35 N52 1.993 . S
Co35 O60 1.941 . S
C36 O37 1.258 1_554 S
C36 O38 1.263 . S
O37 Co34 1.970 . S
O37 C36 1.258 1_556 S
O38 Co35 1.966 . S
O38 C36 1.263 . S
C39 O40 1.235 . S
C39 O66 1.289 . S
O40 C39 1.235 . S
C41 C43 1.400 . S
C41 N44 1.351 . S
C41 C46 1.501 . S
C42 C43 1.387 . S
C42 N45 1.341 . S
C43 C41 1.400 . S
C43 C42 1.387 . S
N44 Co35 2.022 . S
N44 C41 1.351 . S
N44 N45 1.365 . S
N45 C42 1.341 . S
N45 N44 1.365 . S
N45 H65 0.862 . S
C46 C41 1.501 . S
C46 H47 0.961 . S
C46 H48 0.961 . S
C46 H49 0.960 . S
H47 C46 0.961 . S
H48 C46 0.961 . S
H49 C46 0.960 . S
C50 N51 1.342 . S
C50 C54 1.401 1_556 S
C50 C55 1.499 . S
N51 Co34 1.989 . S
N51 C50 1.342 . S
N51 N52 1.388 1_556 S
N52 Co35 1.993 . S
N52 N51 1.388 1_554 S
N52 C53 1.346 . S
C53 N52 1.346 . S
C53 C54 1.396 . S
C53 C63 1.510 . S
C54 C50 1.401 1_554 S
C54 C53 1.396 . S
C55 C50 1.499 . S
C55 H56 0.959 . S
C55 H57 0.960 . S
C55 H58 0.961 . S
H56 C55 0.959 . S
H57 C55 0.960 . S
H58 C55 0.961 . S
O59 Co34 1.967 . S
O59 C67 1.258 . S
O60 Co35 1.941 . S
O60 C67 1.266 1_554 S
H61 C63 0.959 . S
H62 C63 0.961 . S
C63 C53 1.510 . S
C63 H61 0.959 . S
C63 H62 0.961 . S
C63 H64 0.960 . S
H64 C63 0.960 . S
H65 N45 0.862 . S
O66 Co34 1.920 . S
O66 C39 1.289 . S
C67 O59 1.258 . S
C67 O60 1.266 1_556 S
Co68 O71 1.970 . S
Co68 N85 1.989 . S
Co68 O93 1.967 . S
Co68 O100 1.920 . S
Co69 O72 1.966 . S
Co69 N78 2.022 . S
Co69 N86 1.993 . S
Co69 O94 1.941 . S
C70 O71 1.258 1_554 S
C70 O72 1.263 . S
O71 Co68 1.970 . S
O71 C70 1.258 1_556 S
O72 Co69 1.966 . S
O72 C70 1.263 . S
C73 O74 1.235 . S
C73 O100 1.289 . S
O74 C73 1.235 . S
C75 C77 1.400 . S
C75 N78 1.351 . S
C75 C80 1.501 . S
C76 C77 1.387 . S
C76 N79 1.341 . S
C77 C75 1.400 . S
C77 C76 1.387 . S
N78 Co69 2.022 . S
N78 C75 1.351 . S
N78 N79 1.365 . S
N79 C76 1.341 . S
N79 N78 1.365 . S
N79 H99 0.862 . S
C80 C75 1.501 . S
C80 H81 0.961 . S
C80 H82 0.961 . S
C80 H83 0.960 . S
H81 C80 0.961 . S
H82 C80 0.961 . S
H83 C80 0.960 . S
C84 N85 1.342 . S
C84 C88 1.401 1_556 S
C84 C89 1.499 . S
N85 Co68 1.989 . S
N85 C84 1.342 . S
N85 N86 1.388 1_556 S
N86 Co69 1.993 . S
N86 N85 1.388 1_554 S
N86 C87 1.346 . S
C87 N86 1.346 . S
C87 C88 1.396 . S
C87 C97 1.510 . S
C88 C84 1.401 1_554 S
C88 C87 1.396 . S
C89 C84 1.499 . S
C89 H90 0.959 . S
C89 H91 0.960 . S
C89 H92 0.961 . S
H90 C89 0.959 . S
H91 C89 0.960 . S
H92 C89 0.961 . S
O93 Co68 1.967 . S
O93 C101 1.258 . S
O94 Co69 1.941 . S
O94 C101 1.266 1_554 S
H95 C97 0.959 . S
H96 C97 0.961 . S
C97 C87 1.510 . S
C97 H95 0.959 . S
C97 H96 0.961 . S
C97 H98 0.960 . S
H98 C97 0.960 . S
H99 N79 0.862 . S
O100 Co68 1.920 . S
O100 C73 1.289 . S
C101 O93 1.258 . S
C101 O94 1.266 1_556 S
Co102 O105 1.970 . S
Co102 N119 1.989 . S
Co102 O127 1.967 . S
Co102 O134 1.920 . S
Co103 O106 1.966 . S
Co103 N112 2.022 . S
Co103 N120 1.993 . S
Co103 O128 1.941 . S
C104 O105 1.258 1_556 S
C104 O106 1.263 . S
O105 Co102 1.970 . S
O105 C104 1.258 1_554 S
O106 Co103 1.966 . S
O106 C104 1.263 . S
C107 O108 1.235 . S
C107 O134 1.289 . S
O108 C107 1.235 . S
C109 C111 1.400 . S
C109 N112 1.351 . S
C109 C114 1.501 . S
C110 C111 1.387 . S
C110 N113 1.341 . S
C111 C109 1.400 . S
C111 C110 1.387 . S
N112 Co103 2.022 . S
N112 C109 1.351 . S
N112 N113 1.365 . S
N113 C110 1.341 . S
N113 N112 1.365 . S
N113 H133 0.862 . S
C114 C109 1.501 . S
C114 H115 0.961 . S
C114 H116 0.961 . S
C114 H117 0.960 . S
H115 C114 0.961 . S
H116 C114 0.961 . S
H117 C114 0.960 . S
C118 N119 1.342 . S
C118 C122 1.401 1_554 S
C118 C123 1.499 . S
N119 Co102 1.989 . S
N119 C118 1.342 . S
N119 N120 1.388 1_554 S
N120 Co103 1.993 . S
N120 N119 1.388 1_556 S
N120 C121 1.346 . S
C121 N120 1.346 . S
C121 C122 1.396 . S
C121 C131 1.510 . S
C122 C118 1.401 1_556 S
C122 C121 1.396 . S
C123 C118 1.499 . S
C123 H124 0.959 . S
C123 H125 0.960 . S
C123 H126 0.961 . S
H124 C123 0.959 . S
H125 C123 0.960 . S
H126 C123 0.961 . S
O127 Co102 1.967 . S
O127 C135 1.258 . S
O128 Co103 1.941 . S
O128 C135 1.266 1_556 S
H129 C131 0.959 . S
H130 C131 0.961 . S
C131 C121 1.510 . S
C131 H129 0.959 . S
C131 H130 0.961 . S
C131 H132 0.960 . S
H132 C131 0.960 . S
H133 N113 0.862 . S
O134 Co102 1.920 . S
O134 C107 1.289 . S
C135 O127 1.258 . S
C135 O128 1.266 1_554 S
Co136 O139 1.970 . S
Co136 N153 1.989 . S
Co136 O161 1.967 . S
Co136 O168 1.920 . S
Co137 O140 1.966 . S
Co137 N146 2.022 . S
Co137 N154 1.993 . S
Co137 O162 1.941 . S
C138 O139 1.258 1_556 S
C138 O140 1.263 . S
O139 Co136 1.970 . S
O139 C138 1.258 1_554 S
O140 Co137 1.966 . S
O140 C138 1.263 . S
C141 O142 1.235 . S
C141 O168 1.289 . S
O142 C141 1.235 . S
C143 C145 1.400 . S
C143 N146 1.351 . S
C143 C148 1.501 . S
C144 C145 1.387 . S
C144 N147 1.341 . S
C145 C143 1.400 . S
C145 C144 1.387 . S
N146 Co137 2.022 . S
N146 C143 1.351 . S
N146 N147 1.365 . S
N147 C144 1.341 . S
N147 N146 1.365 . S
N147 H167 0.862 . S
C148 C143 1.501 . S
C148 H149 0.961 . S
C148 H150 0.961 . S
C148 H151 0.960 . S
H149 C148 0.961 . S
H150 C148 0.961 . S
H151 C148 0.960 . S
C152 N153 1.342 . S
C152 C156 1.401 1_554 S
C152 C157 1.499 . S
N153 Co136 1.989 . S
N153 C152 1.342 . S
N153 N154 1.388 1_554 S
N154 Co137 1.993 . S
N154 N153 1.388 1_556 S
N154 C155 1.346 . S
C155 N154 1.346 . S
C155 C156 1.396 . S
C155 C165 1.510 . S
C156 C152 1.401 1_556 S
C156 C155 1.396 . S
C157 C152 1.499 . S
C157 H158 0.959 . S
C157 H159 0.960 . S
C157 H160 0.961 . S
H158 C157 0.959 . S
H159 C157 0.960 . S
H160 C157 0.961 . S
O161 Co136 1.967 . S
O161 C169 1.258 . S
O162 Co137 1.941 . S
O162 C169 1.266 1_556 S
H163 C165 0.959 . S
H164 C165 0.961 . S
C165 C155 1.510 . S
C165 H163 0.959 . S
C165 H164 0.961 . S
C165 H166 0.960 . S
H166 C165 0.960 . S
H167 N147 0.862 . S
O168 Co136 1.920 . S
O168 C141 1.289 . S
C169 O161 1.258 . S
C169 O162 1.266 1_554 S
Co170 O173 1.970 . S
Co170 N187 1.989 . S
Co170 O195 1.967 . S
Co170 O202 1.920 . S
Co171 O174 1.966 . S
Co171 N180 2.022 . S
Co171 N188 1.993 . S
Co171 O196 1.941 . S
C172 O173 1.258 1_556 S
C172 O174 1.263 . S
O173 Co170 1.970 . S
O173 C172 1.258 1_554 S
O174 Co171 1.966 . S
O174 C172 1.263 . S
C175 O176 1.235 . S
C175 O202 1.289 . S
O176 C175 1.235 . S
C177 C179 1.400 . S
C177 N180 1.351 . S
C177 C182 1.501 . S
C178 C179 1.387 . S
C178 N181 1.341 . S
C179 C177 1.400 . S
C179 C178 1.387 . S
N180 Co171 2.022 . S
N180 C177 1.351 . S
N180 N181 1.365 . S
N181 C178 1.341 . S
N181 N180 1.365 . S
N181 H201 0.862 . S
C182 C177 1.501 . S
C182 H183 0.961 . S
C182 H184 0.961 . S
C182 H185 0.960 . S
H183 C182 0.961 . S
H184 C182 0.961 . S
H185 C182 0.960 . S
C186 N187 1.342 . S
C186 C190 1.401 1_554 S
C186 C191 1.499 . S
N187 Co170 1.989 . S
N187 C186 1.342 . S
N187 N188 1.388 1_554 S
N188 Co171 1.993 . S
N188 N187 1.388 1_556 S
N188 C189 1.346 . S
C189 N188 1.346 . S
C189 C190 1.396 . S
C189 C199 1.510 . S
C190 C186 1.401 1_556 S
C190 C189 1.396 . S
C191 C186 1.499 . S
C191 H192 0.959 . S
C191 H193 0.960 . S
C191 H194 0.961 . S
H192 C191 0.959 . S
H193 C191 0.960 . S
H194 C191 0.961 . S
O195 Co170 1.967 . S
O195 C203 1.258 . S
O196 Co171 1.941 . S
O196 C203 1.266 1_556 S
H197 C199 0.959 . S
H198 C199 0.961 . S
C199 C189 1.510 . S
C199 H197 0.959 . S
C199 H198 0.961 . S
C199 H200 0.960 . S
H200 C199 0.960 . S
H201 N181 0.862 . S
O202 Co170 1.920 . S
O202 C175 1.289 . S
C203 O195 1.258 . S
C203 O196 1.266 1_554 S
Co204 O207 1.970 . S
Co204 N221 1.989 . S
Co204 O229 1.967 . S
Co204 O236 1.920 . S
Co205 O208 1.966 . S
Co205 N214 2.022 . S
Co205 N222 1.993 . S
Co205 O230 1.941 . S
C206 O207 1.258 1_556 S
C206 O208 1.263 . S
O207 Co204 1.970 . S
O207 C206 1.258 1_554 S
O208 Co205 1.966 . S
O208 C206 1.263 . S
C209 O210 1.235 . S
C209 O236 1.289 . S
O210 C209 1.235 . S
C211 C213 1.400 . S
C211 N214 1.351 . S
C211 C216 1.501 . S
C212 C213 1.387 . S
C212 N215 1.341 . S
C213 C211 1.400 . S
C213 C212 1.387 . S
N214 Co205 2.022 . S
N214 C211 1.351 . S
N214 N215 1.365 . S
N215 C212 1.341 . S
N215 N214 1.365 . S
N215 H235 0.862 . S
C216 C211 1.501 . S
C216 H217 0.961 . S
C216 H218 0.961 . S
C216 H219 0.960 . S
H217 C216 0.961 . S
H218 C216 0.961 . S
H219 C216 0.960 . S
C220 N221 1.342 . S
C220 C224 1.401 1_554 S
C220 C225 1.499 . S
N221 Co204 1.989 . S
N221 C220 1.342 . S
N221 N222 1.388 1_554 S
N222 Co205 1.993 . S
N222 N221 1.388 1_556 S
N222 C223 1.346 . S
C223 N222 1.346 . S
C223 C224 1.396 . S
C223 C233 1.510 . S
C224 C220 1.401 1_556 S
C224 C223 1.396 . S
C225 C220 1.499 . S
C225 H226 0.959 . S
C225 H227 0.960 . S
C225 H228 0.961 . S
H226 C225 0.959 . S
H227 C225 0.960 . S
H228 C225 0.961 . S
O229 Co204 1.967 . S
O229 C237 1.258 . S
O230 Co205 1.941 . S
O230 C237 1.266 1_556 S
H231 C233 0.959 . S
H232 C233 0.961 . S
C233 C223 1.510 . S
C233 H231 0.959 . S
C233 H232 0.961 . S
C233 H234 0.960 . S
H234 C233 0.960 . S
H235 N215 0.862 . S
O236 Co204 1.920 . S
O236 C209 1.289 . S
C237 O229 1.258 . S
C237 O230 1.266 1_554 S
Co238 O241 1.970 . S
Co238 N255 1.989 . S
Co238 O263 1.967 . S
Co238 O270 1.920 . S
Co239 O242 1.966 . S
Co239 N248 2.022 . S
Co239 N256 1.993 . S
Co239 O264 1.941 . S
C240 O241 1.258 1_556 S
C240 O242 1.263 . S
O241 Co238 1.970 . S
O241 C240 1.258 1_554 S
O242 Co239 1.966 . S
O242 C240 1.263 . S
C243 O244 1.235 . S
C243 O270 1.289 . S
O244 C243 1.235 . S
C245 C247 1.400 . S
C245 N248 1.351 . S
C245 C250 1.501 . S
C246 C247 1.387 . S
C246 N249 1.341 . S
C247 C245 1.400 . S
C247 C246 1.387 . S
N248 Co239 2.022 . S
N248 C245 1.351 . S
N248 N249 1.365 . S
N249 C246 1.341 . S
N249 N248 1.365 . S
N249 H269 0.862 . S
C250 C245 1.501 . S
C250 H251 0.961 . S
C250 H252 0.961 . S
C250 H253 0.960 . S
H251 C250 0.961 . S
H252 C250 0.961 . S
H253 C250 0.960 . S
C254 N255 1.342 . S
C254 C258 1.401 1_554 S
C254 C259 1.499 . S
N255 Co238 1.989 . S
N255 C254 1.342 . S
N255 N256 1.388 1_554 S
N256 Co239 1.993 . S
N256 N255 1.388 1_556 S
N256 C257 1.346 . S
C257 N256 1.346 . S
C257 C258 1.396 . S
C257 C267 1.510 . S
C258 C254 1.401 1_556 S
C258 C257 1.396 . S
C259 C254 1.499 . S
C259 H260 0.959 . S
C259 H261 0.960 . S
C259 H262 0.961 . S
H260 C259 0.959 . S
H261 C259 0.960 . S
H262 C259 0.961 . S
O263 Co238 1.967 . S
O263 C271 1.258 . S
O264 Co239 1.941 . S
O264 C271 1.266 1_556 S
H265 C267 0.959 . S
H266 C267 0.961 . S
C267 C257 1.510 . S
C267 H265 0.959 . S
C267 H266 0.961 . S
C267 H268 0.960 . S
H268 C267 0.960 . S
H269 N249 0.862 . S
O270 Co238 1.920 . S
O270 C243 1.289 . S
C271 O263 1.258 . S
C271 O264 1.266 1_554 S
Co272 O275 1.970 . S
Co272 N289 1.989 . S
Co272 O297 1.967 . S
Co272 O304 1.920 . S
Co273 O276 1.966 . S
Co273 N282 2.022 . S
Co273 N290 1.993 . S
Co273 O298 1.941 . S
C274 O275 1.258 1_556 S
C274 O276 1.263 . S
O275 Co272 1.970 . S
O275 C274 1.258 1_554 S
O276 Co273 1.966 . S
O276 C274 1.263 . S
C277 O278 1.235 . S
C277 O304 1.289 . S
O278 C277 1.235 . S
C279 C281 1.400 . S
C279 N282 1.351 . S
C279 C284 1.501 . S
C280 C281 1.387 . S
C280 N283 1.341 . S
C281 C279 1.400 . S
C281 C280 1.387 . S
N282 Co273 2.022 . S
N282 C279 1.351 . S
N282 N283 1.365 . S
N283 C280 1.341 . S
N283 N282 1.365 . S
N283 H303 0.862 . S
C284 C279 1.501 . S
C284 H285 0.961 . S
C284 H286 0.961 . S
C284 H287 0.960 . S
H285 C284 0.961 . S
H286 C284 0.961 . S
H287 C284 0.960 . S
C288 N289 1.342 . S
C288 C292 1.401 1_554 S
C288 C293 1.499 . S
N289 Co272 1.989 . S
N289 C288 1.342 . S
N289 N290 1.388 1_554 S
N290 Co273 1.993 . S
N290 N289 1.388 1_556 S
N290 C291 1.346 . S
C291 N290 1.346 . S
C291 C292 1.396 . S
C291 C301 1.510 . S
C292 C288 1.401 1_556 S
C292 C291 1.396 . S
C293 C288 1.499 . S
C293 H294 0.959 . S
C293 H295 0.960 . S
C293 H296 0.961 . S
H294 C293 0.959 . S
H295 C293 0.960 . S
H296 C293 0.961 . S
O297 Co272 1.967 . S
O297 C305 1.258 . S
O298 Co273 1.941 . S
O298 C305 1.266 1_556 S
H299 C301 0.959 . S
H300 C301 0.961 . S
C301 C291 1.510 . S
C301 H299 0.959 . S
C301 H300 0.961 . S
C301 H302 0.960 . S
H302 C301 0.960 . S
H303 N283 0.862 . S
O304 Co272 1.920 . S
O304 C277 1.289 . S
C305 O297 1.258 . S
C305 O298 1.266 1_554 S
Co306 O309 1.970 . S
Co306 N323 1.989 . S
Co306 O331 1.967 . S
Co306 O338 1.920 . S
Co307 O310 1.966 . S
Co307 N316 2.022 . S
Co307 N324 1.993 . S
Co307 O332 1.941 . S
C308 O309 1.258 1_554 S
C308 O310 1.263 . S
O309 Co306 1.970 . S
O309 C308 1.258 1_556 S
O310 Co307 1.966 . S
O310 C308 1.263 . S
C311 O312 1.235 . S
C311 O338 1.289 . S
O312 C311 1.235 . S
C313 C315 1.400 . S
C313 N316 1.351 . S
C313 C318 1.501 . S
C314 C315 1.387 . S
C314 N317 1.341 . S
C315 C313 1.400 . S
C315 C314 1.387 . S
N316 Co307 2.022 . S
N316 C313 1.351 . S
N316 N317 1.365 . S
N317 C314 1.341 . S
N317 N316 1.365 . S
N317 H337 0.862 . S
C318 C313 1.501 . S
C318 H319 0.961 . S
C318 H320 0.961 . S
C318 H321 0.960 . S
H319 C318 0.961 . S
H320 C318 0.961 . S
H321 C318 0.960 . S
C322 N323 1.342 . S
C322 C326 1.401 1_556 S
C322 C327 1.499 . S
N323 Co306 1.989 . S
N323 C322 1.342 . S
N323 N324 1.388 1_556 S
N324 Co307 1.993 . S
N324 N323 1.388 1_554 S
N324 C325 1.346 . S
C325 N324 1.346 . S
C325 C326 1.396 . S
C325 C335 1.510 . S
C326 C322 1.401 1_554 S
C326 C325 1.396 . S
C327 C322 1.499 . S
C327 H328 0.959 . S
C327 H329 0.960 . S
C327 H330 0.961 . S
H328 C327 0.959 . S
H329 C327 0.960 . S
H330 C327 0.961 . S
O331 Co306 1.967 . S
O331 C339 1.258 . S
O332 Co307 1.941 . S
O332 C339 1.266 1_554 S
H333 C335 0.959 . S
H334 C335 0.961 . S
C335 C325 1.510 . S
C335 H333 0.959 . S
C335 H334 0.961 . S
C335 H336 0.960 . S
H336 C335 0.960 . S
H337 N317 0.862 . S
O338 Co306 1.920 . S
O338 C311 1.289 . S
C339 O331 1.258 . S
C339 O332 1.266 1_556 S
Co340 O343 1.970 . S
Co340 N357 1.989 . S
Co340 O365 1.967 . S
Co340 O372 1.920 . S
Co341 O344 1.966 . S
Co341 N350 2.022 . S
Co341 N358 1.993 . S
Co341 O366 1.941 . S
C342 O343 1.258 1_554 S
C342 O344 1.263 . S
O343 Co340 1.970 . S
O343 C342 1.258 1_556 S
O344 Co341 1.966 . S
O344 C342 1.263 . S
C345 O346 1.235 . S
C345 O372 1.289 . S
O346 C345 1.235 . S
C347 C349 1.400 . S
C347 N350 1.351 . S
C347 C352 1.501 . S
C348 C349 1.387 . S
C348 N351 1.341 . S
C349 C347 1.400 . S
C349 C348 1.387 . S
N350 Co341 2.022 . S
N350 C347 1.351 . S
N350 N351 1.365 . S
N351 C348 1.341 . S
N351 N350 1.365 . S
N351 H371 0.862 . S
C352 C347 1.501 . S
C352 H353 0.961 . S
C352 H354 0.961 . S
C352 H355 0.960 . S
H353 C352 0.961 . S
H354 C352 0.961 . S
H355 C352 0.960 . S
C356 N357 1.342 . S
C356 C360 1.401 1_556 S
C356 C361 1.499 . S
N357 Co340 1.989 . S
N357 C356 1.342 . S
N357 N358 1.388 1_556 S
N358 Co341 1.993 . S
N358 N357 1.388 1_554 S
N358 C359 1.346 . S
C359 N358 1.346 . S
C359 C360 1.396 . S
C359 C369 1.510 . S
C360 C356 1.401 1_554 S
C360 C359 1.396 . S
C361 C356 1.499 . S
C361 H362 0.959 . S
C361 H363 0.960 . S
C361 H364 0.961 . S
H362 C361 0.959 . S
H363 C361 0.960 . S
H364 C361 0.961 . S
O365 Co340 1.967 . S
O365 C373 1.258 . S
O366 Co341 1.941 . S
O366 C373 1.266 1_554 S
H367 C369 0.959 . S
H368 C369 0.961 . S
C369 C359 1.510 . S
C369 H367 0.959 . S
C369 H368 0.961 . S
C369 H370 0.960 . S
H370 C369 0.960 . S
H371 N351 0.862 . S
O372 Co340 1.920 . S
O372 C345 1.289 . S
C373 O365 1.258 . S
C373 O366 1.266 1_556 S
Co374 O377 1.970 . S
Co374 N391 1.989 . S
Co374 O399 1.967 . S
Co374 O406 1.920 . S
Co375 O378 1.966 . S
Co375 N384 2.022 . S
Co375 N392 1.993 . S
Co375 O400 1.941 . S
C376 O377 1.258 1_554 S
C376 O378 1.263 . S
O377 Co374 1.970 . S
O377 C376 1.258 1_556 S
O378 Co375 1.966 . S
O378 C376 1.263 . S
C379 O380 1.235 . S
C379 O406 1.289 . S
O380 C379 1.235 . S
C381 C383 1.400 . S
C381 N384 1.351 . S
C381 C386 1.501 . S
C382 C383 1.387 . S
C382 N385 1.341 . S
C383 C381 1.400 . S
C383 C382 1.387 . S
N384 Co375 2.022 . S
N384 C381 1.351 . S
N384 N385 1.365 . S
N385 C382 1.341 . S
N385 N384 1.365 . S
N385 H405 0.862 . S
C386 C381 1.501 . S
C386 H387 0.961 . S
C386 H388 0.961 . S
C386 H389 0.960 . S
H387 C386 0.961 . S
H388 C386 0.961 . S
H389 C386 0.960 . S
C390 N391 1.342 . S
C390 C394 1.401 1_556 S
C390 C395 1.499 . S
N391 Co374 1.989 . S
N391 C390 1.342 . S
N391 N392 1.388 1_556 S
N392 Co375 1.993 . S
N392 N391 1.388 1_554 S
N392 C393 1.346 . S
C393 N392 1.346 . S
C393 C394 1.396 . S
C393 C403 1.510 . S
C394 C390 1.401 1_554 S
C394 C393 1.396 . S
C395 C390 1.499 . S
C395 H396 0.959 . S
C395 H397 0.960 . S
C395 H398 0.961 . S
H396 C395 0.959 . S
H397 C395 0.960 . S
H398 C395 0.961 . S
O399 Co374 1.967 . S
O399 C407 1.258 . S
O400 Co375 1.941 . S
O400 C407 1.266 1_554 S
H401 C403 0.959 . S
H402 C403 0.961 . S
C403 C393 1.510 . S
C403 H401 0.959 . S
C403 H402 0.961 . S
C403 H404 0.960 . S
H404 C403 0.960 . S
H405 N385 0.862 . S
O406 Co374 1.920 . S
O406 C379 1.289 . S
C407 O399 1.258 . S
C407 O400 1.266 1_556 S
Co408 O411 1.970 . S
Co408 N425 1.989 . S
Co408 O433 1.967 . S
Co408 O440 1.920 . S
Co409 O412 1.966 . S
Co409 N418 2.022 . S
Co409 N426 1.993 . S
Co409 O434 1.941 . S
C410 O411 1.258 . S
C410 O412 1.263 . S
O411 Co408 1.970 . S
O411 C410 1.258 . S
O412 Co409 1.966 . S
O412 C410 1.263 . S
C413 O414 1.235 . S
C413 O440 1.289 . S
O414 C413 1.235 . S
C415 C417 1.400 . S
C415 N418 1.351 . S
C415 C420 1.501 . S
C416 C417 1.387 . S
C416 N419 1.341 . S
C417 C415 1.400 . S
C417 C416 1.387 . S
N418 Co409 2.022 . S
N418 C415 1.351 . S
N418 N419 1.365 . S
N419 C416 1.341 . S
N419 N418 1.365 . S
N419 H439 0.862 . S
C420 C415 1.501 . S
C420 H421 0.961 . S
C420 H422 0.961 . S
C420 H423 0.960 . S
H421 C420 0.961 . S
H422 C420 0.961 . S
H423 C420 0.960 . S
C424 N425 1.342 . S
C424 C428 1.401 . S
C424 C429 1.499 . S
N425 Co408 1.989 . S
N425 C424 1.342 . S
N425 N426 1.388 . S
N426 Co409 1.993 . S
N426 N425 1.388 . S
N426 C427 1.346 . S
C427 N426 1.346 . S
C427 C428 1.396 . S
C427 C437 1.510 . S
C428 C424 1.401 . S
C428 C427 1.396 . S
C429 C424 1.499 . S
C429 H430 0.959 . S
C429 H431 0.960 . S
C429 H432 0.961 . S
H430 C429 0.959 . S
H431 C429 0.960 . S
H432 C429 0.961 . S
O433 Co408 1.967 . S
O433 C441 1.258 . S
O434 Co409 1.941 . S
O434 C441 1.266 . S
H435 C437 0.959 . S
H436 C437 0.961 . S
C437 C427 1.510 . S
C437 H435 0.959 . S
C437 H436 0.961 . S
C437 H438 0.960 . S
H438 C437 0.960 . S
H439 N419 0.862 . S
O440 Co408 1.920 . S
O440 C413 1.289 . S
C441 O433 1.258 . S
C441 O434 1.266 . S
Co442 O445 1.970 . S
Co442 N459 1.989 . S
Co442 O467 1.967 . S
Co442 O474 1.920 . S
Co443 O446 1.966 . S
Co443 N452 2.022 . S
Co443 N460 1.993 . S
Co443 O468 1.941 . S
C444 O445 1.258 . S
C444 O446 1.263 . S
O445 Co442 1.970 . S
O445 C444 1.258 . S
O446 Co443 1.966 . S
O446 C444 1.263 . S
C447 O448 1.235 . S
C447 O474 1.289 . S
O448 C447 1.235 . S
C449 C451 1.400 . S
C449 N452 1.351 . S
C449 C454 1.501 . S
C450 C451 1.387 . S
C450 N453 1.341 . S
C451 C449 1.400 . S
C451 C450 1.387 . S
N452 Co443 2.022 . S
N452 C449 1.351 . S
N452 N453 1.365 . S
N453 C450 1.341 . S
N453 N452 1.365 . S
N453 H473 0.862 . S
C454 C449 1.501 . S
C454 H455 0.961 . S
C454 H456 0.961 . S
C454 H457 0.960 . S
H455 C454 0.961 . S
H456 C454 0.961 . S
H457 C454 0.960 . S
C458 N459 1.342 . S
C458 C462 1.401 . S
C458 C463 1.499 . S
N459 Co442 1.989 . S
N459 C458 1.342 . S
N459 N460 1.388 . S
N460 Co443 1.993 . S
N460 N459 1.388 . S
N460 C461 1.346 . S
C461 N460 1.346 . S
C461 C462 1.396 . S
C461 C471 1.510 . S
C462 C458 1.401 . S
C462 C461 1.396 . S
C463 C458 1.499 . S
C463 H464 0.959 . S
C463 H465 0.960 . S
C463 H466 0.961 . S
H464 C463 0.959 . S
H465 C463 0.960 . S
H466 C463 0.961 . S
O467 Co442 1.967 . S
O467 C475 1.258 . S
O468 Co443 1.941 . S
O468 C475 1.266 . S
H469 C471 0.959 . S
H470 C471 0.961 . S
C471 C461 1.510 . S
C471 H469 0.959 . S
C471 H470 0.961 . S
C471 H472 0.960 . S
H472 C471 0.960 . S
H473 N453 0.862 . S
O474 Co442 1.920 . S
O474 C447 1.289 . S
C475 O467 1.258 . S
C475 O468 1.266 . S
Co476 O479 1.970 . S
Co476 N493 1.989 . S
Co476 O501 1.967 . S
Co476 O508 1.920 . S
Co477 O480 1.966 . S
Co477 N486 2.022 . S
Co477 N494 1.993 . S
Co477 O502 1.941 . S
C478 O479 1.258 . S
C478 O480 1.263 . S
O479 Co476 1.970 . S
O479 C478 1.258 . S
O480 Co477 1.966 . S
O480 C478 1.263 . S
C481 O482 1.235 . S
C481 O508 1.289 . S
O482 C481 1.235 . S
C483 C485 1.400 . S
C483 N486 1.351 . S
C483 C488 1.501 . S
C484 C485 1.387 . S
C484 N487 1.341 . S
C485 C483 1.400 . S
C485 C484 1.387 . S
N486 Co477 2.022 . S
N486 C483 1.351 . S
N486 N487 1.365 . S
N487 C484 1.341 . S
N487 N486 1.365 . S
N487 H507 0.862 . S
C488 C483 1.501 . S
C488 H489 0.961 . S
C488 H490 0.961 . S
C488 H491 0.960 . S
H489 C488 0.961 . S
H490 C488 0.961 . S
H491 C488 0.960 . S
C492 N493 1.342 . S
C492 C496 1.401 . S
C492 C497 1.499 . S
N493 Co476 1.989 . S
N493 C492 1.342 . S
N493 N494 1.388 . S
N494 Co477 1.993 . S
N494 N493 1.388 . S
N494 C495 1.346 . S
C495 N494 1.346 . S
C495 C496 1.396 . S
C495 C505 1.510 . S
C496 C492 1.401 . S
C496 C495 1.396 . S
C497 C492 1.499 . S
C497 H498 0.959 . S
C497 H499 0.960 . S
C497 H500 0.961 . S
H498 C497 0.959 . S
H499 C497 0.960 . S
H500 C497 0.961 . S
O501 Co476 1.967 . S
O501 C509 1.258 . S
O502 Co477 1.941 . S
O502 C509 1.266 . S
H503 C505 0.959 . S
H504 C505 0.961 . S
C505 C495 1.510 . S
C505 H503 0.959 . S
C505 H504 0.961 . S
C505 H506 0.960 . S
H506 C505 0.960 . S
H507 N487 0.862 . S
O508 Co476 1.920 . S
O508 C481 1.289 . S
C509 O501 1.258 . S
C509 O502 1.266 . S
Co510 O513 1.970 . S
Co510 N527 1.989 . S
Co510 O535 1.967 . S
Co510 O542 1.920 . S
Co511 O514 1.966 . S
Co511 N520 2.022 . S
Co511 N528 1.993 . S
Co511 O536 1.941 . S
C512 O513 1.258 . S
C512 O514 1.263 . S
O513 Co510 1.970 . S
O513 C512 1.258 . S
O514 Co511 1.966 . S
O514 C512 1.263 . S
C515 O516 1.235 . S
C515 O542 1.289 . S
O516 C515 1.235 . S
C517 C519 1.400 1_554 S
C517 N520 1.351 . S
C517 C522 1.501 . S
C518 C519 1.387 . S
C518 N521 1.341 1_556 S
C519 C517 1.400 1_556 S
C519 C518 1.387 . S
N520 Co511 2.022 . S
N520 C517 1.351 . S
N520 N521 1.365 . S
N521 C518 1.341 1_554 S
N521 N520 1.365 . S
N521 H541 0.862 . S
C522 C517 1.501 . S
C522 H523 0.961 . S
C522 H524 0.961 . S
C522 H525 0.960 . S
H523 C522 0.961 . S
H524 C522 0.961 . S
H525 C522 0.960 . S
C526 N527 1.342 . S
C526 C530 1.401 . S
C526 C531 1.499 . S
N527 Co510 1.989 . S
N527 C526 1.342 . S
N527 N528 1.388 . S
N528 Co511 1.993 . S
N528 N527 1.388 . S
N528 C529 1.346 . S
C529 N528 1.346 . S
C529 C530 1.396 . S
C529 C539 1.510 . S
C530 C526 1.401 . S
C530 C529 1.396 . S
C531 C526 1.499 . S
C531 H532 0.959 . S
C531 H533 0.960 . S
C531 H534 0.961 . S
H532 C531 0.959 . S
H533 C531 0.960 . S
H534 C531 0.961 . S
O535 Co510 1.967 . S
O535 C543 1.258 . S
O536 Co511 1.941 . S
O536 C543 1.266 . S
H537 C539 0.959 . S
H538 C539 0.961 . S
C539 C529 1.510 . S
C539 H537 0.959 . S
C539 H538 0.961 . S
C539 H540 0.960 . S
H540 C539 0.960 . S
H541 N521 0.862 . S
O542 Co510 1.920 . S
O542 C515 1.289 . S
C543 O535 1.258 . S
C543 O536 1.266 . S
Co544 O547 1.970 . S
Co544 N561 1.989 . S
Co544 O569 1.967 . S
Co544 O576 1.920 . S
Co545 O548 1.966 . S
Co545 N554 2.022 . S
Co545 N562 1.993 . S
Co545 O570 1.941 . S
C546 O547 1.258 . S
C546 O548 1.263 . S
O547 Co544 1.970 . S
O547 C546 1.258 . S
O548 Co545 1.966 . S
O548 C546 1.263 . S
C549 O550 1.235 . S
C549 O576 1.289 . S
O550 C549 1.235 . S
C551 C553 1.400 1_554 S
C551 N554 1.351 . S
C551 C556 1.501 . S
C552 C553 1.387 . S
C552 N555 1.341 1_556 S
C553 C551 1.400 1_556 S
C553 C552 1.387 . S
N554 Co545 2.022 . S
N554 C551 1.351 . S
N554 N555 1.365 . S
N555 C552 1.341 1_554 S
N555 N554 1.365 . S
N555 H575 0.862 . S
C556 C551 1.501 . S
C556 H557 0.961 . S
C556 H558 0.961 . S
C556 H559 0.960 . S
H557 C556 0.961 . S
H558 C556 0.961 . S
H559 C556 0.960 . S
C560 N561 1.342 . S
C560 C564 1.401 . S
C560 C565 1.499 . S
N561 Co544 1.989 . S
N561 C560 1.342 . S
N561 N562 1.388 . S
N562 Co545 1.993 . S
N562 N561 1.388 . S
N562 C563 1.346 . S
C563 N562 1.346 . S
C563 C564 1.396 . S
C563 C573 1.510 . S
C564 C560 1.401 . S
C564 C563 1.396 . S
C565 C560 1.499 . S
C565 H566 0.959 . S
C565 H567 0.960 . S
C565 H568 0.961 . S
H566 C565 0.959 . S
H567 C565 0.960 . S
H568 C565 0.961 . S
O569 Co544 1.967 . S
O569 C577 1.258 . S
O570 Co545 1.941 . S
O570 C577 1.266 . S
H571 C573 0.959 . S
H572 C573 0.961 . S
C573 C563 1.510 . S
C573 H571 0.959 . S
C573 H572 0.961 . S
C573 H574 0.960 . S
H574 C573 0.960 . S
H575 N555 0.862 . S
O576 Co544 1.920 . S
O576 C549 1.289 . S
C577 O569 1.258 . S
C577 O570 1.266 . S
Co578 O581 1.970 . S
Co578 N595 1.989 . S
Co578 O603 1.967 . S
Co578 O610 1.920 . S
Co579 O582 1.966 . S
Co579 N588 2.022 . S
Co579 N596 1.993 . S
Co579 O604 1.941 . S
C580 O581 1.258 . S
C580 O582 1.263 . S
O581 Co578 1.970 . S
O581 C580 1.258 . S
O582 Co579 1.966 . S
O582 C580 1.263 . S
C583 O584 1.235 . S
C583 O610 1.289 . S
O584 C583 1.235 . S
C585 C587 1.400 1_554 S
C585 N588 1.351 . S
C585 C590 1.501 . S
C586 C587 1.387 . S
C586 N589 1.341 1_556 S
C587 C585 1.400 1_556 S
C587 C586 1.387 . S
N588 Co579 2.022 . S
N588 C585 1.351 . S
N588 N589 1.365 . S
N589 C586 1.341 1_554 S
N589 N588 1.365 . S
N589 H609 0.862 . S
C590 C585 1.501 . S
C590 H591 0.961 . S
C590 H592 0.961 . S
C590 H593 0.960 . S
H591 C590 0.961 . S
H592 C590 0.961 . S
H593 C590 0.960 . S
C594 N595 1.342 . S
C594 C598 1.401 . S
C594 C599 1.499 . S
N595 Co578 1.989 . S
N595 C594 1.342 . S
N595 N596 1.388 . S
N596 Co579 1.993 . S
N596 N595 1.388 . S
N596 C597 1.346 . S
C597 N596 1.346 . S
C597 C598 1.396 . S
C597 C607 1.510 . S
C598 C594 1.401 . S
C598 C597 1.396 . S
C599 C594 1.499 . S
C599 H600 0.959 . S
C599 H601 0.960 . S
C599 H602 0.961 . S
H600 C599 0.959 . S
H601 C599 0.960 . S
H602 C599 0.961 . S
O603 Co578 1.967 . S
O603 C611 1.258 . S
O604 Co579 1.941 . S
O604 C611 1.266 . S
H605 C607 0.959 . S
H606 C607 0.961 . S
C607 C597 1.510 . S
C607 H605 0.959 . S
C607 H606 0.961 . S
C607 H608 0.960 . S
H608 C607 0.960 . S
H609 N589 0.862 . S
O610 Co578 1.920 . S
O610 C583 1.289 . S
C611 O603 1.258 . S
C611 O604 1.266 . S
Co612 O615 1.970 . S
Co612 N629 1.989 . S
Co612 O637 1.967 . S
Co612 O644 1.920 . S
Co613 O616 1.966 . S
Co613 N622 2.022 . S
Co613 N630 1.993 . S
Co613 O638 1.941 . S
C614 O615 1.258 . S
C614 O616 1.263 . S
O615 Co612 1.970 . S
O615 C614 1.258 . S
O616 Co613 1.966 . S
O616 C614 1.263 . S
C617 O618 1.235 . S
C617 O644 1.289 . S
O618 C617 1.235 . S
C619 C621 1.400 1_554 S
C619 N622 1.351 . S
C619 C624 1.501 . S
C620 C621 1.387 . S
C620 N623 1.341 1_556 S
C621 C619 1.400 1_556 S
C621 C620 1.387 . S
N622 Co613 2.022 . S
N622 C619 1.351 . S
N622 N623 1.365 . S
N623 C620 1.341 1_554 S
N623 N622 1.365 . S
N623 H643 0.862 . S
C624 C619 1.501 . S
C624 H625 0.961 . S
C624 H626 0.961 . S
C624 H627 0.960 . S
H625 C624 0.961 . S
H626 C624 0.961 . S
H627 C624 0.960 . S
C628 N629 1.342 . S
C628 C632 1.401 . S
C628 C633 1.499 . S
N629 Co612 1.989 . S
N629 C628 1.342 . S
N629 N630 1.388 . S
N630 Co613 1.993 . S
N630 N629 1.388 . S
N630 C631 1.346 . S
C631 N630 1.346 . S
C631 C632 1.396 . S
C631 C641 1.510 . S
C632 C628 1.401 . S
C632 C631 1.396 . S
C633 C628 1.499 . S
C633 H634 0.959 . S
C633 H635 0.960 . S
C633 H636 0.961 . S
H634 C633 0.959 . S
H635 C633 0.960 . S
H636 C633 0.961 . S
O637 Co612 1.967 . S
O637 C645 1.258 . S
O638 Co613 1.941 . S
O638 C645 1.266 . S
H639 C641 0.959 . S
H640 C641 0.961 . S
C641 C631 1.510 . S
C641 H639 0.959 . S
C641 H640 0.961 . S
C641 H642 0.960 . S
H642 C641 0.960 . S
H643 N623 0.862 . S
O644 Co612 1.920 . S
O644 C617 1.289 . S
C645 O637 1.258 . S
C645 O638 1.266 . S
Co646 O649 1.970 . S
Co646 N663 1.989 . S
Co646 O671 1.967 . S
Co646 O678 1.920 . S
Co647 O650 1.966 . S
Co647 N656 2.022 . S
Co647 N664 1.993 . S
Co647 O672 1.941 . S
C648 O649 1.258 . S
C648 O650 1.263 . S
O649 Co646 1.970 . S
O649 C648 1.258 . S
O650 Co647 1.966 . S
O650 C648 1.263 . S
C651 O652 1.235 . S
C651 O678 1.289 . S
O652 C651 1.235 . S
C653 C655 1.400 1_554 S
C653 N656 1.351 . S
C653 C658 1.501 . S
C654 C655 1.387 . S
C654 N657 1.341 1_556 S
C655 C653 1.400 1_556 S
C655 C654 1.387 . S
N656 Co647 2.022 . S
N656 C653 1.351 . S
N656 N657 1.365 . S
N657 C654 1.341 1_554 S
N657 N656 1.365 . S
N657 H677 0.862 . S
C658 C653 1.501 . S
C658 H659 0.961 . S
C658 H660 0.961 . S
C658 H661 0.960 . S
H659 C658 0.961 . S
H660 C658 0.961 . S
H661 C658 0.960 . S
C662 N663 1.342 . S
C662 C666 1.401 . S
C662 C667 1.499 . S
N663 Co646 1.989 . S
N663 C662 1.342 . S
N663 N664 1.388 . S
N664 Co647 1.993 . S
N664 N663 1.388 . S
N664 C665 1.346 . S
C665 N664 1.346 . S
C665 C666 1.396 . S
C665 C675 1.510 . S
C666 C662 1.401 . S
C666 C665 1.396 . S
C667 C662 1.499 . S
C667 H668 0.959 . S
C667 H669 0.960 . S
C667 H670 0.961 . S
H668 C667 0.959 . S
H669 C667 0.960 . S
H670 C667 0.961 . S
O671 Co646 1.967 . S
O671 C679 1.258 . S
O672 Co647 1.941 . S
O672 C679 1.266 . S
H673 C675 0.959 . S
H674 C675 0.961 . S
C675 C665 1.510 . S
C675 H673 0.959 . S
C675 H674 0.961 . S
C675 H676 0.960 . S
H676 C675 0.960 . S
H677 N657 0.862 . S
O678 Co646 1.920 . S
O678 C651 1.289 . S
C679 O671 1.258 . S
C679 O672 1.266 . S
Co680 O683 1.970 . S
Co680 N697 1.989 . S
Co680 O705 1.967 . S
Co680 O712 1.920 . S
Co681 O684 1.966 . S
Co681 N690 2.022 . S
Co681 N698 1.993 . S
Co681 O706 1.941 . S
C682 O683 1.258 . S
C682 O684 1.263 . S
O683 Co680 1.970 . S
O683 C682 1.258 . S
O684 Co681 1.966 . S
O684 C682 1.263 . S
C685 O686 1.235 . S
C685 O712 1.289 . S
O686 C685 1.235 . S
C687 C689 1.400 1_554 S
C687 N690 1.351 . S
C687 C692 1.501 . S
C688 C689 1.387 . S
C688 N691 1.341 1_556 S
C689 C687 1.400 1_556 S
C689 C688 1.387 . S
N690 Co681 2.022 . S
N690 C687 1.351 . S
N690 N691 1.365 . S
N691 C688 1.341 1_554 S
N691 N690 1.365 . S
N691 H711 0.862 . S
C692 C687 1.501 . S
C692 H693 0.961 . S
C692 H694 0.961 . S
C692 H695 0.960 . S
H693 C692 0.961 . S
H694 C692 0.961 . S
H695 C692 0.960 . S
C696 N697 1.342 . S
C696 C700 1.401 . S
C696 C701 1.499 . S
N697 Co680 1.989 . S
N697 C696 1.342 . S
N697 N698 1.388 . S
N698 Co681 1.993 . S
N698 N697 1.388 . S
N698 C699 1.346 . S
C699 N698 1.346 . S
C699 C700 1.396 . S
C699 C709 1.510 . S
C700 C696 1.401 . S
C700 C699 1.396 . S
C701 C696 1.499 . S
C701 H702 0.959 . S
C701 H703 0.960 . S
C701 H704 0.961 . S
H702 C701 0.959 . S
H703 C701 0.960 . S
H704 C701 0.961 . S
O705 Co680 1.967 . S
O705 C713 1.258 . S
O706 Co681 1.941 . S
O706 C713 1.266 . S
H707 C709 0.959 . S
H708 C709 0.961 . S
C709 C699 1.510 . S
C709 H707 0.959 . S
C709 H708 0.961 . S
C709 H710 0.960 . S
H710 C709 0.960 . S
H711 N691 0.862 . S
O712 Co680 1.920 . S
O712 C685 1.289 . S
C713 O705 1.258 . S
C713 O706 1.266 . S
Co714 O717 1.970 . S
Co714 N731 1.989 . S
Co714 O739 1.967 . S
Co714 O746 1.920 . S
Co715 O718 1.966 . S
Co715 N724 2.022 . S
Co715 N732 1.993 . S
Co715 O740 1.941 . S
C716 O717 1.258 . S
C716 O718 1.263 . S
O717 Co714 1.970 . S
O717 C716 1.258 . S
O718 Co715 1.966 . S
O718 C716 1.263 . S
C719 O720 1.235 . S
C719 O746 1.289 . S
O720 C719 1.235 . S
C721 C723 1.400 . S
C721 N724 1.351 . S
C721 C726 1.501 . S
C722 C723 1.387 . S
C722 N725 1.341 . S
C723 C721 1.400 . S
C723 C722 1.387 . S
N724 Co715 2.022 . S
N724 C721 1.351 . S
N724 N725 1.365 . S
N725 C722 1.341 . S
N725 N724 1.365 . S
N725 H745 0.862 . S
C726 C721 1.501 . S
C726 H727 0.961 . S
C726 H728 0.961 . S
C726 H729 0.960 . S
H727 C726 0.961 . S
H728 C726 0.961 . S
H729 C726 0.960 . S
C730 N731 1.342 . S
C730 C734 1.401 . S
C730 C735 1.499 . S
N731 Co714 1.989 . S
N731 C730 1.342 . S
N731 N732 1.388 . S
N732 Co715 1.993 . S
N732 N731 1.388 . S
N732 C733 1.346 . S
C733 N732 1.346 . S
C733 C734 1.396 . S
C733 C743 1.510 . S
C734 C730 1.401 . S
C734 C733 1.396 . S
C735 C730 1.499 . S
C735 H736 0.959 . S
C735 H737 0.960 . S
C735 H738 0.961 . S
H736 C735 0.959 . S
H737 C735 0.960 . S
H738 C735 0.961 . S
O739 Co714 1.967 . S
O739 C747 1.258 . S
O740 Co715 1.941 . S
O740 C747 1.266 . S
H741 C743 0.959 . S
H742 C743 0.961 . S
C743 C733 1.510 . S
C743 H741 0.959 . S
C743 H742 0.961 . S
C743 H744 0.960 . S
H744 C743 0.960 . S
H745 N725 0.862 . S
O746 Co714 1.920 . S
O746 C719 1.289 . S
C747 O739 1.258 . S
C747 O740 1.266 . S
Co748 O751 1.970 . S
Co748 N765 1.989 . S
Co748 O773 1.967 . S
Co748 O780 1.920 . S
Co749 O752 1.966 . S
Co749 N758 2.022 . S
Co749 N766 1.993 . S
Co749 O774 1.941 . S
C750 O751 1.258 . S
C750 O752 1.263 . S
O751 Co748 1.970 . S
O751 C750 1.258 . S
O752 Co749 1.966 . S
O752 C750 1.263 . S
C753 O754 1.235 . S
C753 O780 1.289 . S
O754 C753 1.235 . S
C755 C757 1.400 . S
C755 N758 1.351 . S
C755 C760 1.501 . S
C756 C757 1.387 . S
C756 N759 1.341 . S
C757 C755 1.400 . S
C757 C756 1.387 . S
N758 Co749 2.022 . S
N758 C755 1.351 . S
N758 N759 1.365 . S
N759 C756 1.341 . S
N759 N758 1.365 . S
N759 H779 0.862 . S
C760 C755 1.501 . S
C760 H761 0.961 . S
C760 H762 0.961 . S
C760 H763 0.960 . S
H761 C760 0.961 . S
H762 C760 0.961 . S
H763 C760 0.960 . S
C764 N765 1.342 . S
C764 C768 1.401 . S
C764 C769 1.499 . S
N765 Co748 1.989 . S
N765 C764 1.342 . S
N765 N766 1.388 . S
N766 Co749 1.993 . S
N766 N765 1.388 . S
N766 C767 1.346 . S
C767 N766 1.346 . S
C767 C768 1.396 . S
C767 C777 1.510 . S
C768 C764 1.401 . S
C768 C767 1.396 . S
C769 C764 1.499 . S
C769 H770 0.959 . S
C769 H771 0.960 . S
C769 H772 0.961 . S
H770 C769 0.959 . S
H771 C769 0.960 . S
H772 C769 0.961 . S
O773 Co748 1.967 . S
O773 C781 1.258 . S
O774 Co749 1.941 . S
O774 C781 1.266 . S
H775 C777 0.959 . S
H776 C777 0.961 . S
C777 C767 1.510 . S
C777 H775 0.959 . S
C777 H776 0.961 . S
C777 H778 0.960 . S
H778 C777 0.960 . S
H779 N759 0.862 . S
O780 Co748 1.920 . S
O780 C753 1.289 . S
C781 O773 1.258 . S
C781 O774 1.266 . S
Co782 O785 1.970 . S
Co782 N799 1.989 . S
Co782 O807 1.967 . S
Co782 O814 1.920 . S
Co783 O786 1.966 . S
Co783 N792 2.022 . S
Co783 N800 1.993 . S
Co783 O808 1.941 . S
C784 O785 1.258 . S
C784 O786 1.263 . S
O785 Co782 1.970 . S
O785 C784 1.258 . S
O786 Co783 1.966 . S
O786 C784 1.263 . S
C787 O788 1.235 . S
C787 O814 1.289 . S
O788 C787 1.235 . S
C789 C791 1.400 . S
C789 N792 1.351 . S
C789 C794 1.501 . S
C790 C791 1.387 . S
C790 N793 1.341 . S
C791 C789 1.400 . S
C791 C790 1.387 . S
N792 Co783 2.022 . S
N792 C789 1.351 . S
N792 N793 1.365 . S
N793 C790 1.341 . S
N793 N792 1.365 . S
N793 H813 0.862 . S
C794 C789 1.501 . S
C794 H795 0.961 . S
C794 H796 0.961 . S
C794 H797 0.960 . S
H795 C794 0.961 . S
H796 C794 0.961 . S
H797 C794 0.960 . S
C798 N799 1.342 . S
C798 C802 1.401 . S
C798 C803 1.499 . S
N799 Co782 1.989 . S
N799 C798 1.342 . S
N799 N800 1.388 . S
N800 Co783 1.993 . S
N800 N799 1.388 . S
N800 C801 1.346 . S
C801 N800 1.346 . S
C801 C802 1.396 . S
C801 C811 1.510 . S
C802 C798 1.401 . S
C802 C801 1.396 . S
C803 C798 1.499 . S
C803 H804 0.959 . S
C803 H805 0.960 . S
C803 H806 0.961 . S
H804 C803 0.959 . S
H805 C803 0.960 . S
H806 C803 0.961 . S
O807 Co782 1.967 . S
O807 C815 1.258 . S
O808 Co783 1.941 . S
O808 C815 1.266 . S
H809 C811 0.959 . S
H810 C811 0.961 . S
C811 C801 1.510 . S
C811 H809 0.959 . S
C811 H810 0.961 . S
C811 H812 0.960 . S
H812 C811 0.960 . S
H813 N793 0.862 . S
O814 Co782 1.920 . S
O814 C787 1.289 . S
C815 O807 1.258 . S
C815 O808 1.266 . S
Co816 O819 1.970 . S
Co816 N833 1.989 . S
Co816 O841 1.967 . S
Co816 O848 1.920 . S
Co817 O820 1.966 . S
Co817 N826 2.022 . S
Co817 N834 1.993 . S
Co817 O842 1.941 . S
C818 O819 1.258 . S
C818 O820 1.263 . S
O819 Co816 1.970 . S
O819 C818 1.258 . S
O820 Co817 1.966 . S
O820 C818 1.263 . S
C821 O822 1.235 . S
C821 O848 1.289 . S
O822 C821 1.235 . S
C823 C825 1.400 1_556 S
C823 N826 1.351 . S
C823 C828 1.501 . S
C824 C825 1.387 . S
C824 N827 1.341 1_554 S
C825 C823 1.400 1_554 S
C825 C824 1.387 . S
N826 Co817 2.022 . S
N826 C823 1.351 . S
N826 N827 1.365 . S
N827 C824 1.341 1_556 S
N827 N826 1.365 . S
N827 H847 0.862 . S
C828 C823 1.501 . S
C828 H829 0.961 . S
C828 H830 0.961 . S
C828 H831 0.960 . S
H829 C828 0.961 . S
H830 C828 0.961 . S
H831 C828 0.960 . S
C832 N833 1.342 . S
C832 C836 1.401 . S
C832 C837 1.499 . S
N833 Co816 1.989 . S
N833 C832 1.342 . S
N833 N834 1.388 . S
N834 Co817 1.993 . S
N834 N833 1.388 . S
N834 C835 1.346 . S
C835 N834 1.346 . S
C835 C836 1.396 . S
C835 C845 1.510 . S
C836 C832 1.401 . S
C836 C835 1.396 . S
C837 C832 1.499 . S
C837 H838 0.959 . S
C837 H839 0.960 . S
C837 H840 0.961 . S
H838 C837 0.959 . S
H839 C837 0.960 . S
H840 C837 0.961 . S
O841 Co816 1.967 . S
O841 C849 1.258 . S
O842 Co817 1.941 . S
O842 C849 1.266 . S
H843 C845 0.959 . S
H844 C845 0.961 . S
C845 C835 1.510 . S
C845 H843 0.959 . S
C845 H844 0.961 . S
C845 H846 0.960 . S
H846 C845 0.960 . S
H847 N827 0.862 . S
O848 Co816 1.920 . S
O848 C821 1.289 . S
C849 O841 1.258 . S
C849 O842 1.266 . S
Co850 O853 1.970 . S
Co850 N867 1.989 . S
Co850 O875 1.967 . S
Co850 O882 1.920 . S
Co851 O854 1.966 . S
Co851 N860 2.022 . S
Co851 N868 1.993 . S
Co851 O876 1.941 . S
C852 O853 1.258 . S
C852 O854 1.263 . S
O853 Co850 1.970 . S
O853 C852 1.258 . S
O854 Co851 1.966 . S
O854 C852 1.263 . S
C855 O856 1.235 . S
C855 O882 1.289 . S
O856 C855 1.235 . S
C857 C859 1.400 1_556 S
C857 N860 1.351 . S
C857 C862 1.501 . S
C858 C859 1.387 . S
C858 N861 1.341 1_554 S
C859 C857 1.400 1_554 S
C859 C858 1.387 . S
N860 Co851 2.022 . S
N860 C857 1.351 . S
N860 N861 1.365 . S
N861 C858 1.341 1_556 S
N861 N860 1.365 . S
N861 H881 0.862 . S
C862 C857 1.501 . S
C862 H863 0.961 . S
C862 H864 0.961 . S
C862 H865 0.960 . S
H863 C862 0.961 . S
H864 C862 0.961 . S
H865 C862 0.960 . S
C866 N867 1.342 . S
C866 C870 1.401 . S
C866 C871 1.499 . S
N867 Co850 1.989 . S
N867 C866 1.342 . S
N867 N868 1.388 . S
N868 Co851 1.993 . S
N868 N867 1.388 . S
N868 C869 1.346 . S
C869 N868 1.346 . S
C869 C870 1.396 . S
C869 C879 1.510 . S
C870 C866 1.401 . S
C870 C869 1.396 . S
C871 C866 1.499 . S
C871 H872 0.959 . S
C871 H873 0.960 . S
C871 H874 0.961 . S
H872 C871 0.959 . S
H873 C871 0.960 . S
H874 C871 0.961 . S
O875 Co850 1.967 . S
O875 C883 1.258 . S
O876 Co851 1.941 . S
O876 C883 1.266 . S
H877 C879 0.959 . S
H878 C879 0.961 . S
C879 C869 1.510 . S
C879 H877 0.959 . S
C879 H878 0.961 . S
C879 H880 0.960 . S
H880 C879 0.960 . S
H881 N861 0.862 . S
O882 Co850 1.920 . S
O882 C855 1.289 . S
C883 O875 1.258 . S
C883 O876 1.266 . S
Co884 O887 1.970 . S
Co884 N901 1.989 . S
Co884 O909 1.967 . S
Co884 O916 1.920 . S
Co885 O888 1.966 . S
Co885 N894 2.022 . S
Co885 N902 1.993 . S
Co885 O910 1.941 . S
C886 O887 1.258 . S
C886 O888 1.263 . S
O887 Co884 1.970 . S
O887 C886 1.258 . S
O888 Co885 1.966 . S
O888 C886 1.263 . S
C889 O890 1.235 . S
C889 O916 1.289 . S
O890 C889 1.235 . S
C891 C893 1.400 1_556 S
C891 N894 1.351 . S
C891 C896 1.501 . S
C892 C893 1.387 . S
C892 N895 1.341 1_554 S
C893 C891 1.400 1_554 S
C893 C892 1.387 . S
N894 Co885 2.022 . S
N894 C891 1.351 . S
N894 N895 1.365 . S
N895 C892 1.341 1_556 S
N895 N894 1.365 . S
N895 H915 0.862 . S
C896 C891 1.501 . S
C896 H897 0.961 . S
C896 H898 0.961 . S
C896 H899 0.960 . S
H897 C896 0.961 . S
H898 C896 0.961 . S
H899 C896 0.960 . S
C900 N901 1.342 . S
C900 C904 1.401 . S
C900 C905 1.499 . S
N901 Co884 1.989 . S
N901 C900 1.342 . S
N901 N902 1.388 . S
N902 Co885 1.993 . S
N902 N901 1.388 . S
N902 C903 1.346 . S
C903 N902 1.346 . S
C903 C904 1.396 . S
C903 C913 1.510 . S
C904 C900 1.401 . S
C904 C903 1.396 . S
C905 C900 1.499 . S
C905 H906 0.959 . S
C905 H907 0.960 . S
C905 H908 0.961 . S
H906 C905 0.959 . S
H907 C905 0.960 . S
H908 C905 0.961 . S
O909 Co884 1.967 . S
O909 C917 1.258 . S
O910 Co885 1.941 . S
O910 C917 1.266 . S
H911 C913 0.959 . S
H912 C913 0.961 . S
C913 C903 1.510 . S
C913 H911 0.959 . S
C913 H912 0.961 . S
C913 H914 0.960 . S
H914 C913 0.960 . S
H915 N895 0.862 . S
O916 Co884 1.920 . S
O916 C889 1.289 . S
C917 O909 1.258 . S
C917 O910 1.266 . S
Co918 O921 1.970 . S
Co918 N935 1.989 . S
Co918 O943 1.967 . S
Co918 O950 1.920 . S
Co919 O922 1.966 . S
Co919 N928 2.022 . S
Co919 N936 1.993 . S
Co919 O944 1.941 . S
C920 O921 1.258 . S
C920 O922 1.263 . S
O921 Co918 1.970 . S
O921 C920 1.258 . S
O922 Co919 1.966 . S
O922 C920 1.263 . S
C923 O924 1.235 . S
C923 O950 1.289 . S
O924 C923 1.235 . S
C925 C927 1.400 . S
C925 N928 1.351 . S
C925 C930 1.501 . S
C926 C927 1.387 . S
C926 N929 1.341 . S
C927 C925 1.400 . S
C927 C926 1.387 . S
N928 Co919 2.022 . S
N928 C925 1.351 . S
N928 N929 1.365 . S
N929 C926 1.341 . S
N929 N928 1.365 . S
N929 H949 0.862 . S
C930 C925 1.501 . S
C930 H931 0.961 . S
C930 H932 0.961 . S
C930 H933 0.960 . S
H931 C930 0.961 . S
H932 C930 0.961 . S
H933 C930 0.960 . S
C934 N935 1.342 . S
C934 C938 1.401 . S
C934 C939 1.499 . S
N935 Co918 1.989 . S
N935 C934 1.342 . S
N935 N936 1.388 . S
N936 Co919 1.993 . S
N936 N935 1.388 . S
N936 C937 1.346 . S
C937 N936 1.346 . S
C937 C938 1.396 . S
C937 C947 1.510 . S
C938 C934 1.401 . S
C938 C937 1.396 . S
C939 C934 1.499 . S
C939 H940 0.959 . S
C939 H941 0.960 . S
C939 H942 0.961 . S
H940 C939 0.959 . S
H941 C939 0.960 . S
H942 C939 0.961 . S
O943 Co918 1.967 . S
O943 C951 1.258 . S
O944 Co919 1.941 . S
O944 C951 1.266 . S
H945 C947 0.959 . S
H946 C947 0.961 . S
C947 C937 1.510 . S
C947 H945 0.959 . S
C947 H946 0.961 . S
C947 H948 0.960 . S
H948 C947 0.960 . S
H949 N929 0.862 . S
O950 Co918 1.920 . S
O950 C923 1.289 . S
C951 O943 1.258 . S
C951 O944 1.266 . S
Co952 O955 1.970 . S
Co952 N969 1.989 . S
Co952 O977 1.967 . S
Co952 O984 1.920 . S
Co953 O956 1.966 . S
Co953 N962 2.022 . S
Co953 N970 1.993 . S
Co953 O978 1.941 . S
C954 O955 1.258 . S
C954 O956 1.263 . S
O955 Co952 1.970 . S
O955 C954 1.258 . S
O956 Co953 1.966 . S
O956 C954 1.263 . S
C957 O958 1.235 . S
C957 O984 1.289 . S
O958 C957 1.235 . S
C959 C961 1.400 . S
C959 N962 1.351 . S
C959 C964 1.501 . S
C960 C961 1.387 . S
C960 N963 1.341 . S
C961 C959 1.400 . S
C961 C960 1.387 . S
N962 Co953 2.022 . S
N962 C959 1.351 . S
N962 N963 1.365 . S
N963 C960 1.341 . S
N963 N962 1.365 . S
N963 H983 0.862 . S
C964 C959 1.501 . S
C964 H965 0.961 . S
C964 H966 0.961 . S
C964 H967 0.960 . S
H965 C964 0.961 . S
H966 C964 0.961 . S
H967 C964 0.960 . S
C968 N969 1.342 . S
C968 C972 1.401 . S
C968 C973 1.499 . S
N969 Co952 1.989 . S
N969 C968 1.342 . S
N969 N970 1.388 . S
N970 Co953 1.993 . S
N970 N969 1.388 . S
N970 C971 1.346 . S
C971 N970 1.346 . S
C971 C972 1.396 . S
C971 C981 1.510 . S
C972 C968 1.401 . S
C972 C971 1.396 . S
C973 C968 1.499 . S
C973 H974 0.959 . S
C973 H975 0.960 . S
C973 H976 0.961 . S
H974 C973 0.959 . S
H975 C973 0.960 . S
H976 C973 0.961 . S
O977 Co952 1.967 . S
O977 C985 1.258 . S
O978 Co953 1.941 . S
O978 C985 1.266 . S
H979 C981 0.959 . S
H980 C981 0.961 . S
C981 C971 1.510 . S
C981 H979 0.959 . S
C981 H980 0.961 . S
C981 H982 0.960 . S
H982 C981 0.960 . S
H983 N963 0.862 . S
O984 Co952 1.920 . S
O984 C957 1.289 . S
C985 O977 1.258 . S
C985 O978 1.266 . S
Co986 O989 1.970 . S
Co986 N1003 1.989 . S
Co986 O1011 1.967 . S
Co986 O1018 1.920 . S
Co987 O990 1.966 . S
Co987 N996 2.022 . S
Co987 N1004 1.993 . S
Co987 O1012 1.941 . S
C988 O989 1.258 . S
C988 O990 1.263 . S
O989 Co986 1.970 . S
O989 C988 1.258 . S
O990 Co987 1.966 . S
O990 C988 1.263 . S
C991 O992 1.235 . S
C991 O1018 1.289 . S
O992 C991 1.235 . S
C993 C995 1.400 . S
C993 N996 1.351 . S
C993 C998 1.501 . S
C994 C995 1.387 . S
C994 N997 1.341 . S
C995 C993 1.400 . S
C995 C994 1.387 . S
N996 Co987 2.022 . S
N996 C993 1.351 . S
N996 N997 1.365 . S
N997 C994 1.341 . S
N997 N996 1.365 . S
N997 H1017 0.862 . S
C998 C993 1.501 . S
C998 H999 0.961 . S
C998 H1000 0.961 . S
C998 H1001 0.960 . S
H999 C998 0.961 . S
H1000 C998 0.961 . S
H1001 C998 0.960 . S
C1002 N1003 1.342 . S
C1002 C1006 1.401 . S
C1002 C1007 1.499 . S
N1003 Co986 1.989 . S
N1003 C1002 1.342 . S
N1003 N1004 1.388 . S
N1004 Co987 1.993 . S
N1004 N1003 1.388 . S
N1004 C1005 1.346 . S
C1005 N1004 1.346 . S
C1005 C1006 1.396 . S
C1005 C1015 1.510 . S
C1006 C1002 1.401 . S
C1006 C1005 1.396 . S
C1007 C1002 1.499 . S
C1007 H1008 0.959 . S
C1007 H1009 0.960 . S
C1007 H1010 0.961 . S
H1008 C1007 0.959 . S
H1009 C1007 0.960 . S
H1010 C1007 0.961 . S
O1011 Co986 1.967 . S
O1011 C1019 1.258 . S
O1012 Co987 1.941 . S
O1012 C1019 1.266 . S
H1013 C1015 0.959 . S
H1014 C1015 0.961 . S
C1015 C1005 1.510 . S
C1015 H1013 0.959 . S
C1015 H1014 0.961 . S
C1015 H1016 0.960 . S
H1016 C1015 0.960 . S
H1017 N997 0.862 . S
O1018 Co986 1.920 . S
O1018 C991 1.289 . S
C1019 O1011 1.258 . S
C1019 O1012 1.266 . S
Co1020 O1023 1.970 . S
Co1020 N1037 1.989 . S
Co1020 O1045 1.967 . S
Co1020 O1052 1.920 . S
Co1021 O1024 1.966 . S
Co1021 N1030 2.022 . S
Co1021 N1038 1.993 . S
Co1021 O1046 1.941 . S
C1022 O1023 1.258 . S
C1022 O1024 1.263 . S
O1023 Co1020 1.970 . S
O1023 C1022 1.258 . S
O1024 Co1021 1.966 . S
O1024 C1022 1.263 . S
C1025 O1026 1.235 . S
C1025 O1052 1.289 . S
O1026 C1025 1.235 . S
C1027 C1029 1.400 . S
C1027 N1030 1.351 . S
C1027 C1032 1.501 . S
C1028 C1029 1.387 . S
C1028 N1031 1.341 . S
C1029 C1027 1.400 . S
C1029 C1028 1.387 . S
N1030 Co1021 2.022 . S
N1030 C1027 1.351 . S
N1030 N1031 1.365 . S
N1031 C1028 1.341 . S
N1031 N1030 1.365 . S
N1031 H1051 0.862 . S
C1032 C1027 1.501 . S
C1032 H1033 0.961 . S
C1032 H1034 0.961 . S
C1032 H1035 0.960 . S
H1033 C1032 0.961 . S
H1034 C1032 0.961 . S
H1035 C1032 0.960 . S
C1036 N1037 1.342 . S
C1036 C1040 1.401 . S
C1036 C1041 1.499 . S
N1037 Co1020 1.989 . S
N1037 C1036 1.342 . S
N1037 N1038 1.388 . S
N1038 Co1021 1.993 . S
N1038 N1037 1.388 . S
N1038 C1039 1.346 . S
C1039 N1038 1.346 . S
C1039 C1040 1.396 . S
C1039 C1049 1.510 . S
C1040 C1036 1.401 . S
C1040 C1039 1.396 . S
C1041 C1036 1.499 . S
C1041 H1042 0.959 . S
C1041 H1043 0.960 . S
C1041 H1044 0.961 . S
H1042 C1041 0.959 . S
H1043 C1041 0.960 . S
H1044 C1041 0.961 . S
O1045 Co1020 1.967 . S
O1045 C1053 1.258 . S
O1046 Co1021 1.941 . S
O1046 C1053 1.266 . S
H1047 C1049 0.959 . S
H1048 C1049 0.961 . S
C1049 C1039 1.510 . S
C1049 H1047 0.959 . S
C1049 H1048 0.961 . S
C1049 H1050 0.960 . S
H1050 C1049 0.960 . S
H1051 N1031 0.862 . S
O1052 Co1020 1.920 . S
O1052 C1025 1.289 . S
C1053 O1045 1.258 . S
C1053 O1046 1.266 . S
Co1054 O1057 1.970 . S
Co1054 N1071 1.989 . S
Co1054 O1079 1.967 . S
Co1054 O1086 1.920 . S
Co1055 O1058 1.966 . S
Co1055 N1064 2.022 . S
Co1055 N1072 1.993 . S
Co1055 O1080 1.941 . S
C1056 O1057 1.258 . S
C1056 O1058 1.263 . S
O1057 Co1054 1.970 . S
O1057 C1056 1.258 . S
O1058 Co1055 1.966 . S
O1058 C1056 1.263 . S
C1059 O1060 1.235 . S
C1059 O1086 1.289 . S
O1060 C1059 1.235 . S
C1061 C1063 1.400 . S
C1061 N1064 1.351 . S
C1061 C1066 1.501 . S
C1062 C1063 1.387 . S
C1062 N1065 1.341 . S
C1063 C1061 1.400 . S
C1063 C1062 1.387 . S
N1064 Co1055 2.022 . S
N1064 C1061 1.351 . S
N1064 N1065 1.365 . S
N1065 C1062 1.341 . S
N1065 N1064 1.365 . S
N1065 H1085 0.862 . S
C1066 C1061 1.501 . S
C1066 H1067 0.961 . S
C1066 H1068 0.961 . S
C1066 H1069 0.960 . S
H1067 C1066 0.961 . S
H1068 C1066 0.961 . S
H1069 C1066 0.960 . S
C1070 N1071 1.342 . S
C1070 C1074 1.401 . S
C1070 C1075 1.499 . S
N1071 Co1054 1.989 . S
N1071 C1070 1.342 . S
N1071 N1072 1.388 . S
N1072 Co1055 1.993 . S
N1072 N1071 1.388 . S
N1072 C1073 1.346 . S
C1073 N1072 1.346 . S
C1073 C1074 1.396 . S
C1073 C1083 1.510 . S
C1074 C1070 1.401 . S
C1074 C1073 1.396 . S
C1075 C1070 1.499 . S
C1075 H1076 0.959 . S
C1075 H1077 0.960 . S
C1075 H1078 0.961 . S
H1076 C1075 0.959 . S
H1077 C1075 0.960 . S
H1078 C1075 0.961 . S
O1079 Co1054 1.967 . S
O1079 C1087 1.258 . S
O1080 Co1055 1.941 . S
O1080 C1087 1.266 . S
H1081 C1083 0.959 . S
H1082 C1083 0.961 . S
C1083 C1073 1.510 . S
C1083 H1081 0.959 . S
C1083 H1082 0.961 . S
C1083 H1084 0.960 . S
H1084 C1083 0.960 . S
H1085 N1065 0.862 . S
O1086 Co1054 1.920 . S
O1086 C1059 1.289 . S
C1087 O1079 1.258 . S
C1087 O1080 1.266 . S
Co1088 O1091 1.970 . S
Co1088 N1105 1.989 . S
Co1088 O1113 1.967 . S
Co1088 O1120 1.920 . S
Co1089 O1092 1.966 . S
Co1089 N1098 2.022 . S
Co1089 N1106 1.993 . S
Co1089 O1114 1.941 . S
C1090 O1091 1.258 . S
C1090 O1092 1.263 . S
O1091 Co1088 1.970 . S
O1091 C1090 1.258 . S
O1092 Co1089 1.966 . S
O1092 C1090 1.263 . S
C1093 O1094 1.235 . S
C1093 O1120 1.289 . S
O1094 C1093 1.235 . S
C1095 C1097 1.400 . S
C1095 N1098 1.351 . S
C1095 C1100 1.501 . S
C1096 C1097 1.387 . S
C1096 N1099 1.341 . S
C1097 C1095 1.400 . S
C1097 C1096 1.387 . S
N1098 Co1089 2.022 . S
N1098 C1095 1.351 . S
N1098 N1099 1.365 . S
N1099 C1096 1.341 . S
N1099 N1098 1.365 . S
N1099 H1119 0.862 . S
C1100 C1095 1.501 . S
C1100 H1101 0.961 . S
C1100 H1102 0.961 . S
C1100 H1103 0.960 . S
H1101 C1100 0.961 . S
H1102 C1100 0.961 . S
H1103 C1100 0.960 . S
C1104 N1105 1.342 . S
C1104 C1108 1.401 . S
C1104 C1109 1.499 . S
N1105 Co1088 1.989 . S
N1105 C1104 1.342 . S
N1105 N1106 1.388 . S
N1106 Co1089 1.993 . S
N1106 N1105 1.388 . S
N1106 C1107 1.346 . S
C1107 N1106 1.346 . S
C1107 C1108 1.396 . S
C1107 C1117 1.510 . S
C1108 C1104 1.401 . S
C1108 C1107 1.396 . S
C1109 C1104 1.499 . S
C1109 H1110 0.959 . S
C1109 H1111 0.960 . S
C1109 H1112 0.961 . S
H1110 C1109 0.959 . S
H1111 C1109 0.960 . S
H1112 C1109 0.961 . S
O1113 Co1088 1.967 . S
O1113 C1121 1.258 . S
O1114 Co1089 1.941 . S
O1114 C1121 1.266 . S
H1115 C1117 0.959 . S
H1116 C1117 0.961 . S
C1117 C1107 1.510 . S
C1117 H1115 0.959 . S
C1117 H1116 0.961 . S
C1117 H1118 0.960 . S
H1118 C1117 0.960 . S
H1119 N1099 0.862 . S
O1120 Co1088 1.920 . S
O1120 C1093 1.289 . S
C1121 O1113 1.258 . S
C1121 O1114 1.266 . S
Co1122 O1125 1.970 . S
Co1122 N1139 1.989 . S
Co1122 O1147 1.967 . S
Co1122 O1154 1.920 . S
Co1123 O1126 1.966 . S
Co1123 N1132 2.022 . S
Co1123 N1140 1.993 . S
Co1123 O1148 1.941 . S
C1124 O1125 1.258 . S
C1124 O1126 1.263 . S
O1125 Co1122 1.970 . S
O1125 C1124 1.258 . S
O1126 Co1123 1.966 . S
O1126 C1124 1.263 . S
C1127 O1128 1.235 . S
C1127 O1154 1.289 . S
O1128 C1127 1.235 . S
C1129 C1131 1.400 1_556 S
C1129 N1132 1.351 . S
C1129 C1134 1.501 . S
C1130 C1131 1.387 . S
C1130 N1133 1.341 1_554 S
C1131 C1129 1.400 1_554 S
C1131 C1130 1.387 . S
N1132 Co1123 2.022 . S
N1132 C1129 1.351 . S
N1132 N1133 1.365 . S
N1133 C1130 1.341 1_556 S
N1133 N1132 1.365 . S
N1133 H1153 0.862 . S
C1134 C1129 1.501 . S
C1134 H1135 0.961 . S
C1134 H1136 0.961 . S
C1134 H1137 0.960 . S
H1135 C1134 0.961 . S
H1136 C1134 0.961 . S
H1137 C1134 0.960 . S
C1138 N1139 1.342 . S
C1138 C1142 1.401 . S
C1138 C1143 1.499 . S
N1139 Co1122 1.989 . S
N1139 C1138 1.342 . S
N1139 N1140 1.388 . S
N1140 Co1123 1.993 . S
N1140 N1139 1.388 . S
N1140 C1141 1.346 . S
C1141 N1140 1.346 . S
C1141 C1142 1.396 . S
C1141 C1151 1.510 . S
C1142 C1138 1.401 . S
C1142 C1141 1.396 . S
C1143 C1138 1.499 . S
C1143 H1144 0.959 . S
C1143 H1145 0.960 . S
C1143 H1146 0.961 . S
H1144 C1143 0.959 . S
H1145 C1143 0.960 . S
H1146 C1143 0.961 . S
O1147 Co1122 1.967 . S
O1147 C1155 1.258 . S
O1148 Co1123 1.941 . S
O1148 C1155 1.266 . S
H1149 C1151 0.959 . S
H1150 C1151 0.961 . S
C1151 C1141 1.510 . S
C1151 H1149 0.959 . S
C1151 H1150 0.961 . S
C1151 H1152 0.960 . S
H1152 C1151 0.960 . S
H1153 N1133 0.862 . S
O1154 Co1122 1.920 . S
O1154 C1127 1.289 . S
C1155 O1147 1.258 . S
C1155 O1148 1.266 . S
Co1156 O1159 1.970 . S
Co1156 N1173 1.989 . S
Co1156 O1181 1.967 . S
Co1156 O1188 1.920 . S
Co1157 O1160 1.966 . S
Co1157 N1166 2.022 . S
Co1157 N1174 1.993 . S
Co1157 O1182 1.941 . S
C1158 O1159 1.258 . S
C1158 O1160 1.263 . S
O1159 Co1156 1.970 . S
O1159 C1158 1.258 . S
O1160 Co1157 1.966 . S
O1160 C1158 1.263 . S
C1161 O1162 1.235 . S
C1161 O1188 1.289 . S
O1162 C1161 1.235 . S
C1163 C1165 1.400 1_556 S
C1163 N1166 1.351 . S
C1163 C1168 1.501 . S
C1164 C1165 1.387 . S
C1164 N1167 1.341 1_554 S
C1165 C1163 1.400 1_554 S
C1165 C1164 1.387 . S
N1166 Co1157 2.022 . S
N1166 C1163 1.351 . S
N1166 N1167 1.365 . S
N1167 C1164 1.341 1_556 S
N1167 N1166 1.365 . S
N1167 H1187 0.862 . S
C1168 C1163 1.501 . S
C1168 H1169 0.961 . S
C1168 H1170 0.961 . S
C1168 H1171 0.960 . S
H1169 C1168 0.961 . S
H1170 C1168 0.961 . S
H1171 C1168 0.960 . S
C1172 N1173 1.342 . S
C1172 C1176 1.401 . S
C1172 C1177 1.499 . S
N1173 Co1156 1.989 . S
N1173 C1172 1.342 . S
N1173 N1174 1.388 . S
N1174 Co1157 1.993 . S
N1174 N1173 1.388 . S
N1174 C1175 1.346 . S
C1175 N1174 1.346 . S
C1175 C1176 1.396 . S
C1175 C1185 1.510 . S
C1176 C1172 1.401 . S
C1176 C1175 1.396 . S
C1177 C1172 1.499 . S
C1177 H1178 0.959 . S
C1177 H1179 0.960 . S
C1177 H1180 0.961 . S
H1178 C1177 0.959 . S
H1179 C1177 0.960 . S
H1180 C1177 0.961 . S
O1181 Co1156 1.967 . S
O1181 C1189 1.258 . S
O1182 Co1157 1.941 . S
O1182 C1189 1.266 . S
H1183 C1185 0.959 . S
H1184 C1185 0.961 . S
C1185 C1175 1.510 . S
C1185 H1183 0.959 . S
C1185 H1184 0.961 . S
C1185 H1186 0.960 . S
H1186 C1185 0.960 . S
H1187 N1167 0.862 . S
O1188 Co1156 1.920 . S
O1188 C1161 1.289 . S
C1189 O1181 1.258 . S
C1189 O1182 1.266 . S
Co1190 O1193 1.970 . S
Co1190 N1207 1.989 . S
Co1190 O1215 1.967 . S
Co1190 O1222 1.920 . S
Co1191 O1194 1.966 . S
Co1191 N1200 2.022 . S
Co1191 N1208 1.993 . S
Co1191 O1216 1.941 . S
C1192 O1193 1.258 . S
C1192 O1194 1.263 . S
O1193 Co1190 1.970 . S
O1193 C1192 1.258 . S
O1194 Co1191 1.966 . S
O1194 C1192 1.263 . S
C1195 O1196 1.235 . S
C1195 O1222 1.289 . S
O1196 C1195 1.235 . S
C1197 C1199 1.400 1_556 S
C1197 N1200 1.351 . S
C1197 C1202 1.501 . S
C1198 C1199 1.387 . S
C1198 N1201 1.341 1_554 S
C1199 C1197 1.400 1_554 S
C1199 C1198 1.387 . S
N1200 Co1191 2.022 . S
N1200 C1197 1.351 . S
N1200 N1201 1.365 . S
N1201 C1198 1.341 1_556 S
N1201 N1200 1.365 . S
N1201 H1221 0.862 . S
C1202 C1197 1.501 . S
C1202 H1203 0.961 . S
C1202 H1204 0.961 . S
C1202 H1205 0.960 . S
H1203 C1202 0.961 . S
H1204 C1202 0.961 . S
H1205 C1202 0.960 . S
C1206 N1207 1.342 . S
C1206 C1210 1.401 . S
C1206 C1211 1.499 . S
N1207 Co1190 1.989 . S
N1207 C1206 1.342 . S
N1207 N1208 1.388 . S
N1208 Co1191 1.993 . S
N1208 N1207 1.388 . S
N1208 C1209 1.346 . S
C1209 N1208 1.346 . S
C1209 C1210 1.396 . S
C1209 C1219 1.510 . S
C1210 C1206 1.401 . S
C1210 C1209 1.396 . S
C1211 C1206 1.499 . S
C1211 H1212 0.959 . S
C1211 H1213 0.960 . S
C1211 H1214 0.961 . S
H1212 C1211 0.959 . S
H1213 C1211 0.960 . S
H1214 C1211 0.961 . S
O1215 Co1190 1.967 . S
O1215 C1223 1.258 . S
O1216 Co1191 1.941 . S
O1216 C1223 1.266 . S
H1217 C1219 0.959 . S
H1218 C1219 0.961 . S
C1219 C1209 1.510 . S
C1219 H1217 0.959 . S
C1219 H1218 0.961 . S
C1219 H1220 0.960 . S
H1220 C1219 0.960 . S
H1221 N1201 0.862 . S
O1222 Co1190 1.920 . S
O1222 C1195 1.289 . S
C1223 O1215 1.258 . S
C1223 O1216 1.266 . S
C1224 C1225 1.369 . S
C1224 C1226 1.419 . S
C1224 H1228 0.930 . S
C1225 C1224 1.369 . S
C1225 C1234 1.429 . S
C1226 C1224 1.419 . S
C1226 C1227 1.363 . S
C1226 H1229 0.929 . S
C1227 C1226 1.363 . S
C1227 C1233 1.428 . S
H1228 C1224 0.930 . S
H1229 C1226 0.929 . S
S1230 N1231 1.613 . S
S1230 N1232 1.610 1_556 S
N1231 S1230 1.613 . S
N1231 C1234 1.350 1_556 S
N1232 S1230 1.610 1_554 S
N1232 C1233 1.351 . S
C1233 C1227 1.428 . S
C1233 N1232 1.351 . S
C1233 C1234 1.434 . S
C1234 C1225 1.429 . S
C1234 N1231 1.350 1_554 S
C1234 C1233 1.434 . S
C1235 C1236 1.369 . S
C1235 C1237 1.419 . S
C1235 H1239 0.930 . S
C1236 C1235 1.369 . S
C1236 C1245 1.429 . S
C1237 C1235 1.419 . S
C1237 C1238 1.363 . S
C1237 H1240 0.929 . S
C1238 C1237 1.363 . S
C1238 C1244 1.428 . S
H1239 C1235 0.930 . S
H1240 C1237 0.929 . S
S1241 N1242 1.613 . S
S1241 N1243 1.610 . S
N1242 S1241 1.613 . S
N1242 C1245 1.350 . S
N1243 S1241 1.610 . S
N1243 C1244 1.351 . S
C1244 C1238 1.428 . S
C1244 N1243 1.351 . S
C1244 C1245 1.434 . S
C1245 C1236 1.429 . S
C1245 N1242 1.350 . S
C1245 C1244 1.434 . S
C1246 C1247 1.369 . S
C1246 C1248 1.419 . S
C1246 H1250 0.930 . S
C1247 C1246 1.369 . S
C1247 C1256 1.429 . S
C1248 C1246 1.419 . S
C1248 C1249 1.363 . S
C1248 H1251 0.929 . S
C1249 C1248 1.363 . S
C1249 C1255 1.428 . S
H1250 C1246 0.930 . S
H1251 C1248 0.929 . S
S1252 N1253 1.613 . S
S1252 N1254 1.610 . S
N1253 S1252 1.613 . S
N1253 C1256 1.350 . S
N1254 S1252 1.610 . S
N1254 C1255 1.351 . S
C1255 C1249 1.428 . S
C1255 N1254 1.351 . S
C1255 C1256 1.434 . S
C1256 C1247 1.429 . S
C1256 N1253 1.350 . S
C1256 C1255 1.434 . S
C1257 C1258 1.369 . S
C1257 C1259 1.419 . S
C1257 H1261 0.930 . S
C1258 C1257 1.369 . S
C1258 C1267 1.429 . S
C1259 C1257 1.419 . S
C1259 C1260 1.363 . S
C1259 H1262 0.929 . S
C1260 C1259 1.363 . S
C1260 C1266 1.428 . S
H1261 C1257 0.930 . S
H1262 C1259 0.929 . S
S1263 N1264 1.613 . S
S1263 N1265 1.610 . S
N1264 S1263 1.613 . S
N1264 C1267 1.350 . S
N1265 S1263 1.610 . S
N1265 C1266 1.351 . S
C1266 C1260 1.428 . S
C1266 N1265 1.351 . S
C1266 C1267 1.434 . S
C1267 C1258 1.429 . S
C1267 N1264 1.350 . S
C1267 C1266 1.434 . S
C1268 C1269 1.369 . S
C1268 C1270 1.419 . S
C1268 H1272 0.930 . S
C1269 C1268 1.369 . S
C1269 C1278 1.429 . S
C1270 C1268 1.419 . S
C1270 C1271 1.363 . S
C1270 H1273 0.929 . S
C1271 C1270 1.363 . S
C1271 C1277 1.428 . S
H1272 C1268 0.930 . S
H1273 C1270 0.929 . S
S1274 N1275 1.613 . S
S1274 N1276 1.610 . S
N1275 S1274 1.613 . S
N1275 C1278 1.350 . S
N1276 S1274 1.610 . S
N1276 C1277 1.351 . S
C1277 C1271 1.428 . S
C1277 N1276 1.351 . S
C1277 C1278 1.434 . S
C1278 C1269 1.429 . S
C1278 N1275 1.350 . S
C1278 C1277 1.434 . S
C1279 C1280 1.369 . S
C1279 C1281 1.419 . S
C1279 H1283 0.930 . S
C1280 C1279 1.369 . S
C1280 C1289 1.429 . S
C1281 C1279 1.419 . S
C1281 C1282 1.363 . S
C1281 H1284 0.929 . S
C1282 C1281 1.363 . S
C1282 C1288 1.428 . S
H1283 C1279 0.930 . S
H1284 C1281 0.929 . S
S1285 N1286 1.613 . S
S1285 N1287 1.610 . S
N1286 S1285 1.613 . S
N1286 C1289 1.350 . S
N1287 S1285 1.610 . S
N1287 C1288 1.351 . S
C1288 C1282 1.428 . S
C1288 N1287 1.351 . S
C1288 C1289 1.434 . S
C1289 C1280 1.429 . S
C1289 N1286 1.350 . S
C1289 C1288 1.434 . S
C1290 C1291 1.369 . S
C1290 C1292 1.419 . S
C1290 H1294 0.930 . S
C1291 C1290 1.369 . S
C1291 C1300 1.429 . S
C1292 C1290 1.419 . S
C1292 C1293 1.363 . S
C1292 H1295 0.929 . S
C1293 C1292 1.363 . S
C1293 C1299 1.428 . S
H1294 C1290 0.930 . S
H1295 C1292 0.929 . S
S1296 N1297 1.613 . S
S1296 N1298 1.610 . S
N1297 S1296 1.613 . S
N1297 C1300 1.350 . S
N1298 S1296 1.610 . S
N1298 C1299 1.351 . S
C1299 C1293 1.428 . S
C1299 N1298 1.351 . S
C1299 C1300 1.434 . S
C1300 C1291 1.429 . S
C1300 N1297 1.350 . S
C1300 C1299 1.434 . S
C1301 C1302 1.369 . S
C1301 C1303 1.419 . S
C1301 H1305 0.930 . S
C1302 C1301 1.369 . S
C1302 C1311 1.429 . S
C1303 C1301 1.419 . S
C1303 C1304 1.363 . S
C1303 H1306 0.929 . S
C1304 C1303 1.363 . S
C1304 C1310 1.428 . S
H1305 C1301 0.930 . S
H1306 C1303 0.929 . S
S1307 N1308 1.613 . S
S1307 N1309 1.610 . S
N1308 S1307 1.613 . S
N1308 C1311 1.350 . S
N1309 S1307 1.610 . S
N1309 C1310 1.351 . S
C1310 C1304 1.428 . S
C1310 N1309 1.351 . S
C1310 C1311 1.434 . S
C1311 C1302 1.429 . S
C1311 N1308 1.350 . S
C1311 C1310 1.434 . S
C1312 C1313 1.369 . S
C1312 C1314 1.419 . S
C1312 H1316 0.930 . S
C1313 C1312 1.369 . S
C1313 C1322 1.429 . S
C1314 C1312 1.419 . S
C1314 C1315 1.363 . S
C1314 H1317 0.929 . S
C1315 C1314 1.363 . S
C1315 C1321 1.428 . S
H1316 C1312 0.930 . S
H1317 C1314 0.929 . S
S1318 N1319 1.613 . S
S1318 N1320 1.610 . S
N1319 S1318 1.613 . S
N1319 C1322 1.350 . S
N1320 S1318 1.610 . S
N1320 C1321 1.351 . S
C1321 C1315 1.428 . S
C1321 N1320 1.351 . S
C1321 C1322 1.434 . S
C1322 C1313 1.429 . S
C1322 N1319 1.350 . S
C1322 C1321 1.434 . S
C1323 C1324 1.369 . S
C1323 C1325 1.419 . S
C1323 H1327 0.930 . S
C1324 C1323 1.369 . S
C1324 C1333 1.429 . S
C1325 C1323 1.419 . S
C1325 C1326 1.363 . S
C1325 H1328 0.929 . S
C1326 C1325 1.363 . S
C1326 C1332 1.428 . S
H1327 C1323 0.930 . S
H1328 C1325 0.929 . S
S1329 N1330 1.613 . S
S1329 N1331 1.610 . S
N1330 S1329 1.613 . S
N1330 C1333 1.350 . S
N1331 S1329 1.610 . S
N1331 C1332 1.351 . S
C1332 C1326 1.428 . S
C1332 N1331 1.351 . S
C1332 C1333 1.434 . S
C1333 C1324 1.429 . S
C1333 N1330 1.350 . S
C1333 C1332 1.434 . S
C1334 C1335 1.369 . S
C1334 C1336 1.419 . S
C1334 H1338 0.930 . S
C1335 C1334 1.369 . S
C1335 C1344 1.429 . S
C1336 C1334 1.419 . S
C1336 C1337 1.363 . S
C1336 H1339 0.929 . S
C1337 C1336 1.363 . S
C1337 C1343 1.428 . S
H1338 C1334 0.930 . S
H1339 C1336 0.929 . S
S1340 N1341 1.613 . S
S1340 N1342 1.610 . S
N1341 S1340 1.613 . S
N1341 C1344 1.350 . S
N1342 S1340 1.610 . S
N1342 C1343 1.351 . S
C1343 C1337 1.428 . S
C1343 N1342 1.351 . S
C1343 C1344 1.434 . S
C1344 C1335 1.429 . S
C1344 N1341 1.350 . S
C1344 C1343 1.434 . S
C1345 C1346 1.369 . S
C1345 C1347 1.419 . S
C1345 H1349 0.930 . S
C1346 C1345 1.369 . S
C1346 C1355 1.429 . S
C1347 C1345 1.419 . S
C1347 C1348 1.363 . S
C1347 H1350 0.929 . S
C1348 C1347 1.363 . S
C1348 C1354 1.428 . S
H1349 C1345 0.930 . S
H1350 C1347 0.929 . S
S1351 N1352 1.613 . S
S1351 N1353 1.610 . S
N1352 S1351 1.613 . S
N1352 C1355 1.350 . S
N1353 S1351 1.610 . S
N1353 C1354 1.351 . S
C1354 C1348 1.428 . S
C1354 N1353 1.351 . S
C1354 C1355 1.434 . S
C1355 C1346 1.429 . S
C1355 N1352 1.350 . S
C1355 C1354 1.434 . S
C1356 C1357 1.369 . S
C1356 C1358 1.419 . S
C1356 H1360 0.930 . S
C1357 C1356 1.369 . S
C1357 C1366 1.429 . S
C1358 C1356 1.419 . S
C1358 C1359 1.363 . S
C1358 H1361 0.929 . S
C1359 C1358 1.363 . S
C1359 C1365 1.428 . S
H1360 C1356 0.930 . S
H1361 C1358 0.929 . S
S1362 N1363 1.613 . S
S1362 N1364 1.610 . S
N1363 S1362 1.613 . S
N1363 C1366 1.350 . S
N1364 S1362 1.610 . S
N1364 C1365 1.351 . S
C1365 C1359 1.428 . S
C1365 N1364 1.351 . S
C1365 C1366 1.434 . S
C1366 C1357 1.429 . S
C1366 N1363 1.350 . S
C1366 C1365 1.434 . S
C1367 C1368 1.369 1_565 S
C1367 C1369 1.419 . S
C1367 H1371 0.930 . S
C1368 C1367 1.369 1_545 S
C1368 C1377 1.429 . S
C1369 C1367 1.419 . S
C1369 C1370 1.363 . S
C1369 H1372 0.929 . S
C1370 C1369 1.363 . S
C1370 C1376 1.428 1_565 S
H1371 C1367 0.930 . S
H1372 C1369 0.929 . S
S1373 N1374 1.613 . S
S1373 N1375 1.610 . S
N1374 S1373 1.613 . S
N1374 C1377 1.350 . S
N1375 S1373 1.610 . S
N1375 C1376 1.351 . S
C1376 C1370 1.428 1_545 S
C1376 N1375 1.351 . S
C1376 C1377 1.434 . S
C1377 C1368 1.429 . S
C1377 N1374 1.350 . S
C1377 C1376 1.434 . S
C1378 C1379 1.369 . S
C1378 C1380 1.419 1_455 S
C1378 H1382 0.930 . S
C1379 C1378 1.369 . S
C1379 C1388 1.429 . S
C1380 C1378 1.419 1_655 S
C1380 C1381 1.363 . S
C1380 H1383 0.929 . S
C1381 C1380 1.363 . S
C1381 C1387 1.428 . S
H1382 C1378 0.930 . S
H1383 C1380 0.929 . S
S1384 N1385 1.613 1_655 S
S1384 N1386 1.610 . S
N1385 S1384 1.613 1_455 S
N1385 C1388 1.350 . S
N1386 S1384 1.610 . S
N1386 C1387 1.351 . S
C1387 C1381 1.428 . S
C1387 N1386 1.351 . S
C1387 C1388 1.434 1_655 S
C1388 C1379 1.429 . S
C1388 N1385 1.350 . S
C1388 C1387 1.434 1_455 S
C1389 C1390 1.369 . S
C1389 C1391 1.419 . S
C1389 H1393 0.930 . S
C1390 C1389 1.369 . S
C1390 C1399 1.429 . S
C1391 C1389 1.419 . S
C1391 C1392 1.363 . S
C1391 H1394 0.929 . S
C1392 C1391 1.363 . S
C1392 C1398 1.428 . S
H1393 C1389 0.930 . S
H1394 C1391 0.929 . S
S1395 N1396 1.613 . S
S1395 N1397 1.610 . S
N1396 S1395 1.613 . S
N1396 C1399 1.350 . S
N1397 S1395 1.610 . S
N1397 C1398 1.351 . S
C1398 C1392 1.428 . S
C1398 N1397 1.351 . S
C1398 C1399 1.434 . S
C1399 C1390 1.429 . S
C1399 N1396 1.350 . S
C1399 C1398 1.434 . S
C1400 C1401 1.369 . S
C1400 C1402 1.419 1_565 S
C1400 H1404 0.930 . S
C1401 C1400 1.369 . S
C1401 C1410 1.429 . S
C1402 C1400 1.419 1_545 S
C1402 C1403 1.363 . S
C1402 H1405 0.929 . S
C1403 C1402 1.363 . S
C1403 C1409 1.428 . S
H1404 C1400 0.930 . S
H1405 C1402 0.929 . S
S1406 N1407 1.613 1_545 S
S1406 N1408 1.610 . S
N1407 S1406 1.613 1_565 S
N1407 C1410 1.350 . S
N1408 S1406 1.610 . S
N1408 C1409 1.351 . S
C1409 C1403 1.428 . S
C1409 N1408 1.351 . S
C1409 C1410 1.434 1_545 S
C1410 C1401 1.429 . S
C1410 N1407 1.350 . S
C1410 C1409 1.434 1_565 S
C1411 C1412 1.369 . S
C1411 C1413 1.419 1_655 S
C1411 H1415 0.930 . S
C1412 C1411 1.369 . S
C1412 C1421 1.429 . S
C1413 C1411 1.419 1_455 S
C1413 C1414 1.363 . S
C1413 H1416 0.929 . S
C1414 C1413 1.363 . S
C1414 C1420 1.428 . S
H1415 C1411 0.930 . S
H1416 C1413 0.929 . S
S1417 N1418 1.613 1_455 S
S1417 N1419 1.610 . S
N1418 S1417 1.613 1_655 S
N1418 C1421 1.350 . S
N1419 S1417 1.610 . S
N1419 C1420 1.351 . S
C1420 C1414 1.428 . S
C1420 N1419 1.351 . S
C1420 C1421 1.434 1_455 S
C1421 C1412 1.429 . S
C1421 N1418 1.350 . S
C1421 C1420 1.434 1_655 S
C1422 C1423 1.369 1_556 S
C1422 C1424 1.419 . S
C1422 H1426 0.930 . S
C1423 C1422 1.369 1_554 S
C1423 C1432 1.429 . S
C1424 C1422 1.419 . S
C1424 C1425 1.363 1_556 S
C1424 H1427 0.929 . S
C1425 C1424 1.363 1_554 S
C1425 C1431 1.428 . S
H1426 C1422 0.930 . S
H1427 C1424 0.929 . S
S1428 N1429 1.613 . S
S1428 N1430 1.610 . S
N1429 S1428 1.613 . S
N1429 C1432 1.350 . S
N1430 S1428 1.610 . S
N1430 C1431 1.351 . S
C1431 C1425 1.428 . S
C1431 N1430 1.351 . S
C1431 C1432 1.434 . S
C1432 C1423 1.429 . S
C1432 N1429 1.350 . S
C1432 C1431 1.434 . S
C1433 C1434 1.369 1_556 S
C1433 C1435 1.419 . S
C1433 H1437 0.930 . S
C1434 C1433 1.369 1_554 S
C1434 C1443 1.429 . S
C1435 C1433 1.419 . S
C1435 C1436 1.363 1_556 S
C1435 H1438 0.929 . S
C1436 C1435 1.363 1_554 S
C1436 C1442 1.428 . S
H1437 C1433 0.930 . S
H1438 C1435 0.929 . S
S1439 N1440 1.613 . S
S1439 N1441 1.610 . S
N1440 S1439 1.613 . S
N1440 C1443 1.350 . S
N1441 S1439 1.610 . S
N1441 C1442 1.351 . S
C1442 C1436 1.428 . S
C1442 N1441 1.351 . S
C1442 C1443 1.434 . S
C1443 C1434 1.429 . S
C1443 N1440 1.350 . S
C1443 C1442 1.434 . S
C1444 C1445 1.369 1_556 S
C1444 C1446 1.419 . S
C1444 H1448 0.930 . S
C1445 C1444 1.369 1_554 S
C1445 C1454 1.429 . S
C1446 C1444 1.419 . S
C1446 C1447 1.363 1_556 S
C1446 H1449 0.929 . S
C1447 C1446 1.363 1_554 S
C1447 C1453 1.428 . S
H1448 C1444 0.930 . S
H1449 C1446 0.929 . S
S1450 N1451 1.613 . S
S1450 N1452 1.610 . S
N1451 S1450 1.613 . S
N1451 C1454 1.350 . S
N1452 S1450 1.610 . S
N1452 C1453 1.351 . S
C1453 C1447 1.428 . S
C1453 N1452 1.351 . S
C1453 C1454 1.434 . S
C1454 C1445 1.429 . S
C1454 N1451 1.350 . S
C1454 C1453 1.434 . S
C1455 C1456 1.369 . S
C1455 C1457 1.419 . S
C1455 H1459 0.930 . S
C1456 C1455 1.369 . S
C1456 C1465 1.429 . S
C1457 C1455 1.419 . S
C1457 C1458 1.363 . S
C1457 H1460 0.929 . S
C1458 C1457 1.363 . S
C1458 C1464 1.428 . S
H1459 C1455 0.930 . S
H1460 C1457 0.929 . S
S1461 N1462 1.613 . S
S1461 N1463 1.610 . S
N1462 S1461 1.613 . S
N1462 C1465 1.350 . S
N1463 S1461 1.610 . S
N1463 C1464 1.351 . S
C1464 C1458 1.428 . S
C1464 N1463 1.351 . S
C1464 C1465 1.434 . S
C1465 C1456 1.429 . S
C1465 N1462 1.350 . S
C1465 C1464 1.434 . S
C1466 C1467 1.369 . S
C1466 C1468 1.419 . S
C1466 H1470 0.930 . S
C1467 C1466 1.369 . S
C1467 C1476 1.429 1_556 S
C1468 C1466 1.419 . S
C1468 C1469 1.363 . S
C1468 H1471 0.929 . S
C1469 C1468 1.363 . S
C1469 C1475 1.428 1_556 S
H1470 C1466 0.930 . S
H1471 C1468 0.929 . S
S1472 N1473 1.613 . S
S1472 N1474 1.610 . S
N1473 S1472 1.613 . S
N1473 C1476 1.350 . S
N1474 S1472 1.610 . S
N1474 C1475 1.351 . S
C1475 C1469 1.428 1_554 S
C1475 N1474 1.351 . S
C1475 C1476 1.434 . S
C1476 C1467 1.429 1_554 S
C1476 N1473 1.350 . S
C1476 C1475 1.434 . S
C1477 C1478 1.369 . S
C1477 C1479 1.419 . S
C1477 H1481 0.930 . S
C1478 C1477 1.369 . S
C1478 C1487 1.429 . S
C1479 C1477 1.419 . S
C1479 C1480 1.363 . S
C1479 H1482 0.929 . S
C1480 C1479 1.363 . S
C1480 C1486 1.428 . S
H1481 C1477 0.930 . S
H1482 C1479 0.929 . S
S1483 N1484 1.613 . S
S1483 N1485 1.610 . S
N1484 S1483 1.613 . S
N1484 C1487 1.350 . S
N1485 S1483 1.610 . S
N1485 C1486 1.351 . S
C1486 C1480 1.428 . S
C1486 N1485 1.351 . S
C1486 C1487 1.434 . S
C1487 C1478 1.429 . S
C1487 N1484 1.350 . S
C1487 C1486 1.434 . S
C1488 C1489 1.369 . S
C1488 C1490 1.419 . S
C1488 H1492 0.930 . S
C1489 C1488 1.369 . S
C1489 C1498 1.429 . S
C1490 C1488 1.419 . S
C1490 C1491 1.363 . S
C1490 H1493 0.929 . S
C1491 C1490 1.363 . S
C1491 C1497 1.428 . S
H1492 C1488 0.930 . S
H1493 C1490 0.929 . S
S1494 N1495 1.613 . S
S1494 N1496 1.610 . S
N1495 S1494 1.613 . S
N1495 C1498 1.350 . S
N1496 S1494 1.610 . S
N1496 C1497 1.351 . S
C1497 C1491 1.428 . S
C1497 N1496 1.351 . S
C1497 C1498 1.434 . S
C1498 C1489 1.429 . S
C1498 N1495 1.350 . S
C1498 C1497 1.434 . S
C1499 C1500 1.369 . S
C1499 C1501 1.419 . S
C1499 H1503 0.930 . S
C1500 C1499 1.369 . S
C1500 C1509 1.429 . S
C1501 C1499 1.419 . S
C1501 C1502 1.363 . S
C1501 H1504 0.929 . S
C1502 C1501 1.363 . S
C1502 C1508 1.428 . S
H1503 C1499 0.930 . S
H1504 C1501 0.929 . S
S1505 N1506 1.613 . S
S1505 N1507 1.610 . S
N1506 S1505 1.613 . S
N1506 C1509 1.350 . S
N1507 S1505 1.610 . S
N1507 C1508 1.351 . S
C1508 C1502 1.428 . S
C1508 N1507 1.351 . S
C1508 C1509 1.434 . S
C1509 C1500 1.429 . S
C1509 N1506 1.350 . S
C1509 C1508 1.434 . S
C1510 C1511 1.369 . S
C1510 C1512 1.419 . S
C1510 H1514 0.930 . S
C1511 C1510 1.369 . S
C1511 C1520 1.429 . S
C1512 C1510 1.419 . S
C1512 C1513 1.363 . S
C1512 H1515 0.929 . S
C1513 C1512 1.363 . S
C1513 C1519 1.428 . S
H1514 C1510 0.930 . S
H1515 C1512 0.929 . S
S1516 N1517 1.613 . S
S1516 N1518 1.610 . S
N1517 S1516 1.613 . S
N1517 C1520 1.350 . S
N1518 S1516 1.610 . S
N1518 C1519 1.351 . S
C1519 C1513 1.428 . S
C1519 N1518 1.351 . S
C1519 C1520 1.434 . S
C1520 C1511 1.429 . S
C1520 N1517 1.350 . S
C1520 C1519 1.434 . S
C1521 C1522 1.369 . S
C1521 C1523 1.419 . S
C1521 H1525 0.930 . S
C1522 C1521 1.369 . S
C1522 C1531 1.429 . S
C1523 C1521 1.419 . S
C1523 C1524 1.363 . S
C1523 H1526 0.929 . S
C1524 C1523 1.363 . S
C1524 C1530 1.428 . S
H1525 C1521 0.930 . S
H1526 C1523 0.929 . S
S1527 N1528 1.613 . S
S1527 N1529 1.610 . S
N1528 S1527 1.613 . S
N1528 C1531 1.350 . S
N1529 S1527 1.610 . S
N1529 C1530 1.351 . S
C1530 C1524 1.428 . S
C1530 N1529 1.351 . S
C1530 C1531 1.434 . S
C1531 C1522 1.429 . S
C1531 N1528 1.350 . S
C1531 C1530 1.434 . S
C1532 C1533 1.369 . S
C1532 C1534 1.419 . S
C1532 H1536 0.930 . S
C1533 C1532 1.369 . S
C1533 C1542 1.429 . S
C1534 C1532 1.419 . S
C1534 C1535 1.363 . S
C1534 H1537 0.929 . S
C1535 C1534 1.363 . S
C1535 C1541 1.428 . S
H1536 C1532 0.930 . S
H1537 C1534 0.929 . S
S1538 N1539 1.613 . S
S1538 N1540 1.610 . S
N1539 S1538 1.613 . S
N1539 C1542 1.350 . S
N1540 S1538 1.610 . S
N1540 C1541 1.351 . S
C1541 C1535 1.428 . S
C1541 N1540 1.351 . S
C1541 C1542 1.434 . S
C1542 C1533 1.429 . S
C1542 N1539 1.350 . S
C1542 C1541 1.434 . S
C1543 C1544 1.369 . S
C1543 C1545 1.419 . S
C1543 H1547 0.930 . S
C1544 C1543 1.369 . S
C1544 C1553 1.429 . S
C1545 C1543 1.419 . S
C1545 C1546 1.363 . S
C1545 H1548 0.929 . S
C1546 C1545 1.363 . S
C1546 C1552 1.428 . S
H1547 C1543 0.930 . S
H1548 C1545 0.929 . S
S1549 N1550 1.613 . S
S1549 N1551 1.610 . S
N1550 S1549 1.613 . S
N1550 C1553 1.350 . S
N1551 S1549 1.610 . S
N1551 C1552 1.351 . S
C1552 C1546 1.428 . S
C1552 N1551 1.351 . S
C1552 C1553 1.434 . S
C1553 C1544 1.429 . S
C1553 N1550 1.350 . S
C1553 C1552 1.434 . S
C1554 C1555 1.369 . S
C1554 C1556 1.419 . S
C1554 H1558 0.930 . S
C1555 C1554 1.369 . S
C1555 C1564 1.429 . S
C1556 C1554 1.419 . S
C1556 C1557 1.363 . S
C1556 H1559 0.929 . S
C1557 C1556 1.363 . S
C1557 C1563 1.428 . S
H1558 C1554 0.930 . S
H1559 C1556 0.929 . S
S1560 N1561 1.613 . S
S1560 N1562 1.610 . S
N1561 S1560 1.613 . S
N1561 C1564 1.350 . S
N1562 S1560 1.610 . S
N1562 C1563 1.351 . S
C1563 C1557 1.428 . S
C1563 N1562 1.351 . S
C1563 C1564 1.434 . S
C1564 C1555 1.429 . S
C1564 N1561 1.350 . S
C1564 C1563 1.434 . S
C1565 C1566 1.369 . S
C1565 C1567 1.419 . S
C1565 H1569 0.930 . S
C1566 C1565 1.369 . S
C1566 C1575 1.429 . S
C1567 C1565 1.419 . S
C1567 C1568 1.363 . S
C1567 H1570 0.929 . S
C1568 C1567 1.363 . S
C1568 C1574 1.428 . S
H1569 C1565 0.930 . S
H1570 C1567 0.929 . S
S1571 N1572 1.613 . S
S1571 N1573 1.610 . S
N1572 S1571 1.613 . S
N1572 C1575 1.350 . S
N1573 S1571 1.610 . S
N1573 C1574 1.351 . S
C1574 C1568 1.428 . S
C1574 N1573 1.351 . S
C1574 C1575 1.434 . S
C1575 C1566 1.429 . S
C1575 N1572 1.350 . S
C1575 C1574 1.434 . S
C1576 C1577 1.369 . S
C1576 C1578 1.419 . S
C1576 H1580 0.930 . S
C1577 C1576 1.369 . S
C1577 C1586 1.429 . S
C1578 C1576 1.419 . S
C1578 C1579 1.363 . S
C1578 H1581 0.929 . S
C1579 C1578 1.363 . S
C1579 C1585 1.428 . S
H1580 C1576 0.930 . S
H1581 C1578 0.929 . S
S1582 N1583 1.613 . S
S1582 N1584 1.610 . S
N1583 S1582 1.613 . S
N1583 C1586 1.350 . S
N1584 S1582 1.610 . S
N1584 C1585 1.351 . S
C1585 C1579 1.428 . S
C1585 N1584 1.351 . S
C1585 C1586 1.434 . S
C1586 C1577 1.429 . S
C1586 N1583 1.350 . S
C1586 C1585 1.434 . S
C1587 C1588 1.369 . S
C1587 C1589 1.419 . S
C1587 H1591 0.930 . S
C1588 C1587 1.369 . S
C1588 C1597 1.429 . S
C1589 C1587 1.419 . S
C1589 C1590 1.363 . S
C1589 H1592 0.929 . S
C1590 C1589 1.363 . S
C1590 C1596 1.428 . S
H1591 C1587 0.930 . S
H1592 C1589 0.929 . S
S1593 N1594 1.613 . S
S1593 N1595 1.610 . S
N1594 S1593 1.613 . S
N1594 C1597 1.350 . S
N1595 S1593 1.610 . S
N1595 C1596 1.351 . S
C1596 C1590 1.428 . S
C1596 N1595 1.351 . S
C1596 C1597 1.434 . S
C1597 C1588 1.429 . S
C1597 N1594 1.350 . S
C1597 C1596 1.434 . S
C1598 C1599 1.369 . S
C1598 C1600 1.419 . S
C1598 H1602 0.930 . S
C1599 C1598 1.369 . S
C1599 C1608 1.429 . S
C1600 C1598 1.419 . S
C1600 C1601 1.363 . S
C1600 H1603 0.929 . S
C1601 C1600 1.363 . S
C1601 C1607 1.428 . S
H1602 C1598 0.930 . S
H1603 C1600 0.929 . S
S1604 N1605 1.613 . S
S1604 N1606 1.610 . S
N1605 S1604 1.613 . S
N1605 C1608 1.350 . S
N1606 S1604 1.610 . S
N1606 C1607 1.351 . S
C1607 C1601 1.428 . S
C1607 N1606 1.351 . S
C1607 C1608 1.434 . S
C1608 C1599 1.429 . S
C1608 N1605 1.350 . S
C1608 C1607 1.434 . S
C1609 C1610 1.369 . S
C1609 C1611 1.419 . S
C1609 H1613 0.930 . S
C1610 C1609 1.369 . S
C1610 C1619 1.429 . S
C1611 C1609 1.419 . S
C1611 C1612 1.363 . S
C1611 H1614 0.929 . S
C1612 C1611 1.363 . S
C1612 C1618 1.428 . S
H1613 C1609 0.930 . S
H1614 C1611 0.929 . S
S1615 N1616 1.613 . S
S1615 N1617 1.610 . S
N1616 S1615 1.613 . S
N1616 C1619 1.350 . S
N1617 S1615 1.610 . S
N1617 C1618 1.351 . S
C1618 C1612 1.428 . S
C1618 N1617 1.351 . S
C1618 C1619 1.434 . S
C1619 C1610 1.429 . S
C1619 N1616 1.350 . S
C1619 C1618 1.434 . S
C1620 C1621 1.369 . S
C1620 C1622 1.419 . S
C1620 H1624 0.930 . S
C1621 C1620 1.369 . S
C1621 C1630 1.429 . S
C1622 C1620 1.419 . S
C1622 C1623 1.363 . S
C1622 H1625 0.929 . S
C1623 C1622 1.363 . S
C1623 C1629 1.428 . S
H1624 C1620 0.930 . S
H1625 C1622 0.929 . S
S1626 N1627 1.613 . S
S1626 N1628 1.610 1_556 S
N1627 S1626 1.613 . S
N1627 C1630 1.350 . S
N1628 S1626 1.610 1_554 S
N1628 C1629 1.351 1_554 S
C1629 C1623 1.428 . S
C1629 N1628 1.351 1_556 S
C1629 C1630 1.434 . S
C1630 C1621 1.429 . S
C1630 N1627 1.350 . S
C1630 C1629 1.434 . S
C1631 C1632 1.369 . S
C1631 C1633 1.419 . S
C1631 H1635 0.930 . S
C1632 C1631 1.369 . S
C1632 C1641 1.429 . S
C1633 C1631 1.419 . S
C1633 C1634 1.363 . S
C1633 H1636 0.929 . S
C1634 C1633 1.363 . S
C1634 C1640 1.428 . S
H1635 C1631 0.930 . S
H1636 C1633 0.929 . S
S1637 N1638 1.613 . S
S1637 N1639 1.610 . S
N1638 S1637 1.613 . S
N1638 C1641 1.350 . S
N1639 S1637 1.610 . S
N1639 C1640 1.351 . S
C1640 C1634 1.428 . S
C1640 N1639 1.351 . S
C1640 C1641 1.434 . S
C1641 C1632 1.429 . S
C1641 N1638 1.350 . S
C1641 C1640 1.434 . S
C1642 C1643 1.369 . S
C1642 C1644 1.419 . S
C1642 H1646 0.930 . S
C1643 C1642 1.369 . S
C1643 C1652 1.429 . S
C1644 C1642 1.419 . S
C1644 C1645 1.363 . S
C1644 H1647 0.929 . S
C1645 C1644 1.363 . S
C1645 C1651 1.428 . S
H1646 C1642 0.930 . S
H1647 C1644 0.929 . S
S1648 N1649 1.613 . S
S1648 N1650 1.610 . S
N1649 S1648 1.613 . S
N1649 C1652 1.350 . S
N1650 S1648 1.610 . S
N1650 C1651 1.351 . S
C1651 C1645 1.428 . S
C1651 N1650 1.351 . S
C1651 C1652 1.434 . S
C1652 C1643 1.429 . S
C1652 N1649 1.350 . S
C1652 C1651 1.434 . S
C1653 C1654 1.369 . S
C1653 C1655 1.419 . S
C1653 H1657 0.930 . S
C1654 C1653 1.369 . S
C1654 C1663 1.429 . S
C1655 C1653 1.419 . S
C1655 C1656 1.363 . S
C1655 H1658 0.929 . S
C1656 C1655 1.363 . S
C1656 C1662 1.428 . S
H1657 C1653 0.930 . S
H1658 C1655 0.929 . S
S1659 N1660 1.613 . S
S1659 N1661 1.610 . S
N1660 S1659 1.613 . S
N1660 C1663 1.350 . S
N1661 S1659 1.610 . S
N1661 C1662 1.351 . S
C1662 C1656 1.428 . S
C1662 N1661 1.351 . S
C1662 C1663 1.434 . S
C1663 C1654 1.429 . S
C1663 N1660 1.350 . S
C1663 C1662 1.434 . S
C1664 C1665 1.369 . S
C1664 C1666 1.419 . S
C1664 H1668 0.930 . S
C1665 C1664 1.369 . S
C1665 C1674 1.429 . S
C1666 C1664 1.419 . S
C1666 C1667 1.363 . S
C1666 H1669 0.929 . S
C1667 C1666 1.363 . S
C1667 C1673 1.428 . S
H1668 C1664 0.930 . S
H1669 C1666 0.929 . S
S1670 N1671 1.613 . S
S1670 N1672 1.610 . S
N1671 S1670 1.613 . S
N1671 C1674 1.350 . S
N1672 S1670 1.610 . S
N1672 C1673 1.351 . S
C1673 C1667 1.428 . S
C1673 N1672 1.351 . S
C1673 C1674 1.434 . S
C1674 C1665 1.429 . S
C1674 N1671 1.350 . S
C1674 C1673 1.434 . S
C1675 C1676 1.369 . S
C1675 C1677 1.419 . S
C1675 H1679 0.930 . S
C1676 C1675 1.369 . S
C1676 C1685 1.429 . S
C1677 C1675 1.419 . S
C1677 C1678 1.363 . S
C1677 H1680 0.929 . S
C1678 C1677 1.363 . S
C1678 C1684 1.428 . S
H1679 C1675 0.930 . S
H1680 C1677 0.929 . S
S1681 N1682 1.613 . S
S1681 N1683 1.610 . S
N1682 S1681 1.613 . S
N1682 C1685 1.350 . S
N1683 S1681 1.610 . S
N1683 C1684 1.351 . S
C1684 C1678 1.428 . S
C1684 N1683 1.351 . S
C1684 C1685 1.434 . S
C1685 C1676 1.429 . S
C1685 N1682 1.350 . S
C1685 C1684 1.434 . S
C1686 C1687 1.369 . S
C1686 C1688 1.419 . S
C1686 H1690 0.930 . S
C1687 C1686 1.369 . S
C1687 C1696 1.429 . S
C1688 C1686 1.419 . S
C1688 C1689 1.363 . S
C1688 H1691 0.929 . S
C1689 C1688 1.363 . S
C1689 C1695 1.428 . S
H1690 C1686 0.930 . S
H1691 C1688 0.929 . S
S1692 N1693 1.613 . S
S1692 N1694 1.610 1_554 S
N1693 S1692 1.613 . S
N1693 C1696 1.350 . S
N1694 S1692 1.610 1_556 S
N1694 C1695 1.351 1_556 S
C1695 C1689 1.428 . S
C1695 N1694 1.351 1_554 S
C1695 C1696 1.434 . S
C1696 C1687 1.429 . S
C1696 N1693 1.350 . S
C1696 C1695 1.434 . S
C1697 C1698 1.369 . S
C1697 C1699 1.419 . S
C1697 H1701 0.930 . S
C1698 C1697 1.369 . S
C1698 C1707 1.429 . S
C1699 C1697 1.419 . S
C1699 C1700 1.363 . S
C1699 H1702 0.929 . S
C1700 C1699 1.363 . S
C1700 C1706 1.428 . S
H1701 C1697 0.930 . S
H1702 C1699 0.929 . S
S1703 N1704 1.613 . S
S1703 N1705 1.610 . S
N1704 S1703 1.613 . S
N1704 C1707 1.350 . S
N1705 S1703 1.610 . S
N1705 C1706 1.351 . S
C1706 C1700 1.428 . S
C1706 N1705 1.351 . S
C1706 C1707 1.434 . S
C1707 C1698 1.429 . S
C1707 N1704 1.350 . S
C1707 C1706 1.434 . S
C1708 C1709 1.369 . S
C1708 C1710 1.419 . S
C1708 H1712 0.930 . S
C1709 C1708 1.369 . S
C1709 C1718 1.429 . S
C1710 C1708 1.419 . S
C1710 C1711 1.363 . S
C1710 H1713 0.929 . S
C1711 C1710 1.363 . S
C1711 C1717 1.428 . S
H1712 C1708 0.930 . S
H1713 C1710 0.929 . S
S1714 N1715 1.613 . S
S1714 N1716 1.610 . S
N1715 S1714 1.613 . S
N1715 C1718 1.350 . S
N1716 S1714 1.610 . S
N1716 C1717 1.351 . S
C1717 C1711 1.428 . S
C1717 N1716 1.351 . S
C1717 C1718 1.434 . S
C1718 C1709 1.429 . S
C1718 N1715 1.350 . S
C1718 C1717 1.434 . S
C1719 C1720 1.369 . S
C1719 C1721 1.419 . S
C1719 H1723 0.930 . S
C1720 C1719 1.369 . S
C1720 C1729 1.429 . S
C1721 C1719 1.419 . S
C1721 C1722 1.363 . S
C1721 H1724 0.929 . S
C1722 C1721 1.363 . S
C1722 C1728 1.428 . S
H1723 C1719 0.930 . S
H1724 C1721 0.929 . S
S1725 N1726 1.613 . S
S1725 N1727 1.610 . S
N1726 S1725 1.613 . S
N1726 C1729 1.350 . S
N1727 S1725 1.610 . S
N1727 C1728 1.351 . S
C1728 C1722 1.428 . S
C1728 N1727 1.351 . S
C1728 C1729 1.434 . S
C1729 C1720 1.429 . S
C1729 N1726 1.350 . S
C1729 C1728 1.434 . S
C1730 C1731 1.369 . S
C1730 C1732 1.419 . S
C1730 H1734 0.930 . S
C1731 C1730 1.369 . S
C1731 C1740 1.429 . S
C1732 C1730 1.419 . S
C1732 C1733 1.363 . S
C1732 H1735 0.929 . S
C1733 C1732 1.363 . S
C1733 C1739 1.428 . S
H1734 C1730 0.930 . S
H1735 C1732 0.929 . S
S1736 N1737 1.613 . S
S1736 N1738 1.610 . S
N1737 S1736 1.613 . S
N1737 C1740 1.350 . S
N1738 S1736 1.610 . S
N1738 C1739 1.351 . S
C1739 C1733 1.428 . S
C1739 N1738 1.351 . S
C1739 C1740 1.434 . S
C1740 C1731 1.429 . S
C1740 N1737 1.350 . S
C1740 C1739 1.434 . S
C1741 C1742 1.369 . S
C1741 C1743 1.419 . S
C1741 H1745 0.930 . S
C1742 C1741 1.369 . S
C1742 C1751 1.429 . S
C1743 C1741 1.419 . S
C1743 C1744 1.363 . S
C1743 H1746 0.929 . S
C1744 C1743 1.363 . S
C1744 C1750 1.428 . S
H1745 C1741 0.930 . S
H1746 C1743 0.929 . S
S1747 N1748 1.613 . S
S1747 N1749 1.610 . S
N1748 S1747 1.613 . S
N1748 C1751 1.350 . S
N1749 S1747 1.610 . S
N1749 C1750 1.351 . S
C1750 C1744 1.428 . S
C1750 N1749 1.351 . S
C1750 C1751 1.434 . S
C1751 C1742 1.429 . S
C1751 N1748 1.350 . S
C1751 C1750 1.434 . S
C1752 C1753 1.369 1_655 S
C1752 C1754 1.419 . S
C1752 H1756 0.930 . S
C1753 C1752 1.369 1_455 S
C1753 C1762 1.429 . S
C1754 C1752 1.419 . S
C1754 C1755 1.363 . S
C1754 H1757 0.929 . S
C1755 C1754 1.363 . S
C1755 C1761 1.428 1_655 S
H1756 C1752 0.930 . S
H1757 C1754 0.929 . S
S1758 N1759 1.613 . S
S1758 N1760 1.610 . S
N1759 S1758 1.613 . S
N1759 C1762 1.350 . S
N1760 S1758 1.610 . S
N1760 C1761 1.351 . S
C1761 C1755 1.428 1_455 S
C1761 N1760 1.351 . S
C1761 C1762 1.434 . S
C1762 C1753 1.429 . S
C1762 N1759 1.350 . S
C1762 C1761 1.434 . S
C1763 C1764 1.369 . S
C1763 C1765 1.419 . S
C1763 H1767 0.930 . S
C1764 C1763 1.369 . S
C1764 C1773 1.429 . S
C1765 C1763 1.419 . S
C1765 C1766 1.363 . S
C1765 H1768 0.929 . S
C1766 C1765 1.363 . S
C1766 C1772 1.428 . S
H1767 C1763 0.930 . S
H1768 C1765 0.929 . S
S1769 N1770 1.613 . S
S1769 N1771 1.610 . S
N1770 S1769 1.613 . S
N1770 C1773 1.350 . S
N1771 S1769 1.610 . S
N1771 C1772 1.351 . S
C1772 C1766 1.428 . S
C1772 N1771 1.351 . S
C1772 C1773 1.434 . S
C1773 C1764 1.429 . S
C1773 N1770 1.350 . S
C1773 C1772 1.434 . S
C1774 C1775 1.369 . S
C1774 C1776 1.419 . S
C1774 H1778 0.930 . S
C1775 C1774 1.369 . S
C1775 C1784 1.429 1_565 S
C1776 C1774 1.419 . S
C1776 C1777 1.363 1_565 S
C1776 H1779 0.929 . S
C1777 C1776 1.363 1_545 S
C1777 C1783 1.428 . S
H1778 C1774 0.930 . S
H1779 C1776 0.929 . S
S1780 N1781 1.613 . S
S1780 N1782 1.610 . S
N1781 S1780 1.613 . S
N1781 C1784 1.350 . S
N1782 S1780 1.610 . S
N1782 C1783 1.351 . S
C1783 C1777 1.428 . S
C1783 N1782 1.351 . S
C1783 C1784 1.434 . S
C1784 C1775 1.429 1_545 S
C1784 N1781 1.350 . S
C1784 C1783 1.434 . S
C1785 C1786 1.369 1_545 S
C1785 C1787 1.419 . S
C1785 H1789 0.930 . S
C1786 C1785 1.369 1_565 S
C1786 C1795 1.429 . S
C1787 C1785 1.419 . S
C1787 C1788 1.363 . S
C1787 H1790 0.929 . S
C1788 C1787 1.363 . S
C1788 C1794 1.428 1_545 S
H1789 C1785 0.930 . S
H1790 C1787 0.929 . S
S1791 N1792 1.613 . S
S1791 N1793 1.610 . S
N1792 S1791 1.613 . S
N1792 C1795 1.350 . S
N1793 S1791 1.610 . S
N1793 C1794 1.351 . S
C1794 C1788 1.428 1_565 S
C1794 N1793 1.351 . S
C1794 C1795 1.434 . S
C1795 C1786 1.429 . S
C1795 N1792 1.350 . S
C1795 C1794 1.434 . S
C1796 C1797 1.369 . S
C1796 C1798 1.389 1_455 S
C1796 H1800 0.930 . S
C1797 C1796 1.369 . S
C1797 C1806 1.468 . S
C1798 C1796 1.389 1_655 S
C1798 C1799 1.415 . S
C1798 H1801 0.925 . S
C1799 C1798 1.415 . S
C1799 C1805 1.428 . S
H1800 C1796 0.930 . S
H1801 C1798 0.925 . S
S1802 N1803 1.612 1_655 S
S1802 N1804 1.610 . S
N1803 S1802 1.612 1_455 S
N1803 C1806 1.332 . S
N1804 S1802 1.610 . S
N1804 C1805 1.351 . S
C1805 C1799 1.428 . S
C1805 N1804 1.351 . S
C1805 C1806 1.411 1_655 S
C1806 C1797 1.468 . S
C1806 N1803 1.332 . S
C1806 C1805 1.411 1_455 S
C1807 C1808 1.369 . S
C1807 C1809 1.419 . S
C1807 H1811 0.930 . S
C1808 C1807 1.369 . S
C1808 C1817 1.429 . S
C1809 C1807 1.419 . S
C1809 C1810 1.363 . S
C1809 H1812 0.929 . S
C1810 C1809 1.363 . S
C1810 C1816 1.428 . S
H1811 C1807 0.930 . S
H1812 C1809 0.929 . S
S1813 N1814 1.613 . S
S1813 N1815 1.610 . S
N1814 S1813 1.613 . S
N1814 C1817 1.350 . S
N1815 S1813 1.610 . S
N1815 C1816 1.351 . S
C1816 C1810 1.428 . S
C1816 N1815 1.351 . S
C1816 C1817 1.434 . S
C1817 C1808 1.429 . S
C1817 N1814 1.350 . S
C1817 C1816 1.434 . S
C1818 C1819 1.369 . S
C1818 C1820 1.419 . S
C1818 H1822 0.930 . S
C1819 C1818 1.369 . S
C1819 C1828 1.429 . S
C1820 C1818 1.419 . S
C1820 C1821 1.363 . S
C1820 H1823 0.929 . S
C1821 C1820 1.363 . S
C1821 C1827 1.428 . S
H1822 C1818 0.930 . S
H1823 C1820 0.929 . S
S1824 N1825 1.613 . S
S1824 N1826 1.610 . S
N1825 S1824 1.613 . S
N1825 C1828 1.350 . S
N1826 S1824 1.610 . S
N1826 C1827 1.351 . S
C1827 C1821 1.428 . S
C1827 N1826 1.351 . S
C1827 C1828 1.434 . S
C1828 C1819 1.429 . S
C1828 N1825 1.350 . S
C1828 C1827 1.434 . S
C1829 C1830 1.369 . S
C1829 C1831 1.419 . S
C1829 H1833 0.930 . S
C1830 C1829 1.369 . S
C1830 C1839 1.429 . S
C1831 C1829 1.419 . S
C1831 C1832 1.363 . S
C1831 H1834 0.929 . S
C1832 C1831 1.363 . S
C1832 C1838 1.428 . S
H1833 C1829 0.930 . S
H1834 C1831 0.929 . S
S1835 N1836 1.613 . S
S1835 N1837 1.610 . S
N1836 S1835 1.613 . S
N1836 C1839 1.350 . S
N1837 S1835 1.610 . S
N1837 C1838 1.351 . S
C1838 C1832 1.428 . S
C1838 N1837 1.351 . S
C1838 C1839 1.434 . S
C1839 C1830 1.429 . S
C1839 N1836 1.350 . S
C1839 C1838 1.434 . S
C1840 C1841 1.369 . S
C1840 C1842 1.419 . S
C1840 H1844 0.930 . S
C1841 C1840 1.369 . S
C1841 C1850 1.429 . S
C1842 C1840 1.419 . S
C1842 C1843 1.363 . S
C1842 H1845 0.929 . S
C1843 C1842 1.363 . S
C1843 C1849 1.428 . S
H1844 C1840 0.930 . S
H1845 C1842 0.929 . S
S1846 N1847 1.613 . S
S1846 N1848 1.610 . S
N1847 S1846 1.613 . S
N1847 C1850 1.350 . S
N1848 S1846 1.610 . S
N1848 C1849 1.351 . S
C1849 C1843 1.428 . S
C1849 N1848 1.351 . S
C1849 C1850 1.434 . S
C1850 C1841 1.429 . S
C1850 N1847 1.350 . S
C1850 C1849 1.434 . S
C1851 C1852 1.369 . S
C1851 C1853 1.419 . S
C1851 H1855 0.930 . S
C1852 C1851 1.369 . S
C1852 C1861 1.429 . S
C1853 C1851 1.419 . S
C1853 C1854 1.363 . S
C1853 H1856 0.929 . S
C1854 C1853 1.363 . S
C1854 C1860 1.428 . S
H1855 C1851 0.930 . S
H1856 C1853 0.929 . S
S1857 N1858 1.613 . S
S1857 N1859 1.610 . S
N1858 S1857 1.613 . S
N1858 C1861 1.350 . S
N1859 S1857 1.610 . S
N1859 C1860 1.351 . S
C1860 C1854 1.428 . S
C1860 N1859 1.351 . S
C1860 C1861 1.434 . S
C1861 C1852 1.429 . S
C1861 N1858 1.350 . S
C1861 C1860 1.434 . S
C1862 C1863 1.369 . S
C1862 C1864 1.419 . S
C1862 H1866 0.930 . S
C1863 C1862 1.369 . S
C1863 C1872 1.429 . S
C1864 C1862 1.419 . S
C1864 C1865 1.363 . S
C1864 H1867 0.929 . S
C1865 C1864 1.363 . S
C1865 C1871 1.428 . S
H1866 C1862 0.930 . S
H1867 C1864 0.929 . S
S1868 N1869 1.613 . S
S1868 N1870 1.610 . S
N1869 S1868 1.613 . S
N1869 C1872 1.350 . S
N1870 S1868 1.610 . S
N1870 C1871 1.351 . S
C1871 C1865 1.428 . S
C1871 N1870 1.351 . S
C1871 C1872 1.434 . S
C1872 C1863 1.429 . S
C1872 N1869 1.350 . S
C1872 C1871 1.434 . S
C1873 C1874 1.369 . S
C1873 C1875 1.419 . S
C1873 H1877 0.930 . S
C1874 C1873 1.369 . S
C1874 C1883 1.429 . S
C1875 C1873 1.419 . S
C1875 C1876 1.363 . S
C1875 H1878 0.929 . S
C1876 C1875 1.363 . S
C1876 C1882 1.428 . S
H1877 C1873 0.930 . S
H1878 C1875 0.929 . S
S1879 N1880 1.613 . S
S1879 N1881 1.610 . S
N1880 S1879 1.613 . S
N1880 C1883 1.350 . S
N1881 S1879 1.610 . S
N1881 C1882 1.351 . S
C1882 C1876 1.428 . S
C1882 N1881 1.351 . S
C1882 C1883 1.434 . S
C1883 C1874 1.429 . S
C1883 N1880 1.350 . S
C1883 C1882 1.434 . S
C1884 C1885 1.369 . S
C1884 C1886 1.419 . S
C1884 H1888 0.930 . S
C1885 C1884 1.369 . S
C1885 C1894 1.429 . S
C1886 C1884 1.419 . S
C1886 C1887 1.363 . S
C1886 H1889 0.929 . S
C1887 C1886 1.363 . S
C1887 C1893 1.428 . S
H1888 C1884 0.930 . S
H1889 C1886 0.929 . S
S1890 N1891 1.613 . S
S1890 N1892 1.610 . S
N1891 S1890 1.613 . S
N1891 C1894 1.350 . S
N1892 S1890 1.610 . S
N1892 C1893 1.351 . S
C1893 C1887 1.428 . S
C1893 N1892 1.351 . S
C1893 C1894 1.434 . S
C1894 C1885 1.429 . S
C1894 N1891 1.350 . S
C1894 C1893 1.434 . S
C1895 C1896 1.369 . S
C1895 C1897 1.419 . S
C1895 H1899 0.930 . S
C1896 C1895 1.369 . S
C1896 C1905 1.429 . S
C1897 C1895 1.419 . S
C1897 C1898 1.363 . S
C1897 H1900 0.929 . S
C1898 C1897 1.363 . S
C1898 C1904 1.428 . S
H1899 C1895 0.930 . S
H1900 C1897 0.929 . S
S1901 N1902 1.613 . S
S1901 N1903 1.610 . S
N1902 S1901 1.613 . S
N1902 C1905 1.350 . S
N1903 S1901 1.610 . S
N1903 C1904 1.351 . S
C1904 C1898 1.428 . S
C1904 N1903 1.351 . S
C1904 C1905 1.434 . S
C1905 C1896 1.429 . S
C1905 N1902 1.350 . S
C1905 C1904 1.434 . S
C1906 C1907 1.369 . S
C1906 C1908 1.419 . S
C1906 H1910 0.930 . S
C1907 C1906 1.369 . S
C1907 C1916 1.429 . S
C1908 C1906 1.419 . S
C1908 C1909 1.363 . S
C1908 H1911 0.929 . S
C1909 C1908 1.363 . S
C1909 C1915 1.428 . S
H1910 C1906 0.930 . S
H1911 C1908 0.929 . S
S1912 N1913 1.613 . S
S1912 N1914 1.610 . S
N1913 S1912 1.613 . S
N1913 C1916 1.350 . S
N1914 S1912 1.610 . S
N1914 C1915 1.351 . S
C1915 C1909 1.428 . S
C1915 N1914 1.351 . S
C1915 C1916 1.434 . S
C1916 C1907 1.429 . S
C1916 N1913 1.350 . S
C1916 C1915 1.434 . S
C1917 C1918 1.369 . S
C1917 C1919 1.419 . S
C1917 H1921 0.930 . S
C1918 C1917 1.369 . S
C1918 C1927 1.429 . S
C1919 C1917 1.419 . S
C1919 C1920 1.363 . S
C1919 H1922 0.929 . S
C1920 C1919 1.363 . S
C1920 C1926 1.428 . S
H1921 C1917 0.930 . S
H1922 C1919 0.929 . S
S1923 N1924 1.613 . S
S1923 N1925 1.610 . S
N1924 S1923 1.613 . S
N1924 C1927 1.350 . S
N1925 S1923 1.610 . S
N1925 C1926 1.351 . S
C1926 C1920 1.428 . S
C1926 N1925 1.351 . S
C1926 C1927 1.434 . S
C1927 C1918 1.429 . S
C1927 N1924 1.350 . S
C1927 C1926 1.434 . S
C1928 C1929 1.369 . S
C1928 C1930 1.419 . S
C1928 H1932 0.930 . S
C1929 C1928 1.369 . S
C1929 C1938 1.429 . S
C1930 C1928 1.419 . S
C1930 C1931 1.363 . S
C1930 H1933 0.929 . S
C1931 C1930 1.363 . S
C1931 C1937 1.428 . S
H1932 C1928 0.930 . S
H1933 C1930 0.929 . S
S1934 N1935 1.613 . S
S1934 N1936 1.610 . S
N1935 S1934 1.613 . S
N1935 C1938 1.350 . S
N1936 S1934 1.610 . S
N1936 C1937 1.351 . S
C1937 C1931 1.428 . S
C1937 N1936 1.351 . S
C1937 C1938 1.434 . S
C1938 C1929 1.429 . S
C1938 N1935 1.350 . S
C1938 C1937 1.434 . S
C1939 C1940 1.369 . S
C1939 C1941 1.419 . S
C1939 H1943 0.930 . S
C1940 C1939 1.369 . S
C1940 C1949 1.429 . S
C1941 C1939 1.419 . S
C1941 C1942 1.363 . S
C1941 H1944 0.929 . S
C1942 C1941 1.363 . S
C1942 C1948 1.428 . S
H1943 C1939 0.930 . S
H1944 C1941 0.929 . S
S1945 N1946 1.613 . S
S1945 N1947 1.610 . S
N1946 S1945 1.613 . S
N1946 C1949 1.350 . S
N1947 S1945 1.610 . S
N1947 C1948 1.351 . S
C1948 C1942 1.428 . S
C1948 N1947 1.351 . S
C1948 C1949 1.434 . S
C1949 C1940 1.429 . S
C1949 N1946 1.350 . S
C1949 C1948 1.434 . S
C1950 C1951 1.369 . S
C1950 C1952 1.419 . S
C1950 H1954 0.930 . S
C1951 C1950 1.369 . S
C1951 C1960 1.429 . S
C1952 C1950 1.419 . S
C1952 C1953 1.363 . S
C1952 H1955 0.929 . S
C1953 C1952 1.363 . S
C1953 C1959 1.428 . S
H1954 C1950 0.930 . S
H1955 C1952 0.929 . S
S1956 N1957 1.613 . S
S1956 N1958 1.610 . S
N1957 S1956 1.613 . S
N1957 C1960 1.350 . S
N1958 S1956 1.610 . S
N1958 C1959 1.351 . S
C1959 C1953 1.428 . S
C1959 N1958 1.351 . S
C1959 C1960 1.434 . S
C1960 C1951 1.429 . S
C1960 N1957 1.350 . S
C1960 C1959 1.434 . S
C1961 C1962 1.369 . S
C1961 C1963 1.419 . S
C1961 H1965 0.930 . S
C1962 C1961 1.369 . S
C1962 C1971 1.429 . S
C1963 C1961 1.419 . S
C1963 C1964 1.363 . S
C1963 H1966 0.929 . S
C1964 C1963 1.363 . S
C1964 C1970 1.428 . S
H1965 C1961 0.930 . S
H1966 C1963 0.929 . S
S1967 N1968 1.613 . S
S1967 N1969 1.610 1_554 S
N1968 S1967 1.613 . S
N1968 C1971 1.350 1_554 S
N1969 S1967 1.610 1_556 S
N1969 C1970 1.351 . S
C1970 C1964 1.428 . S
C1970 N1969 1.351 . S
C1970 C1971 1.434 . S
C1971 C1962 1.429 . S
C1971 N1968 1.350 1_556 S
C1971 C1970 1.434 . S
C1972 C1973 1.369 . S
C1972 C1974 1.419 . S
C1972 H1976 0.930 . S
C1973 C1972 1.369 . S
C1973 C1982 1.429 . S
C1974 C1972 1.419 . S
C1974 C1975 1.363 . S
C1974 H1977 0.929 1_556 S
C1975 C1974 1.363 . S
C1975 C1981 1.428 . S
H1976 C1972 0.930 . S
H1977 C1974 0.929 1_554 S
S1978 N1979 1.613 . S
S1978 N1980 1.610 . S
N1979 S1978 1.613 . S
N1979 C1982 1.350 . S
N1980 S1978 1.610 . S
N1980 C1981 1.351 . S
C1981 C1975 1.428 . S
C1981 N1980 1.351 . S
C1981 C1982 1.434 . S
C1982 C1973 1.429 . S
C1982 N1979 1.350 . S
C1982 C1981 1.434 . S
C1983 C1984 1.369 . S
C1983 C1985 1.419 . S
C1983 H1987 0.930 . S
C1984 C1983 1.369 . S
C1984 C1993 1.429 . S
C1985 C1983 1.419 . S
C1985 C1986 1.363 . S
C1985 H1988 0.929 . S
C1986 C1985 1.363 . S
C1986 C1992 1.428 . S
H1987 C1983 0.930 . S
H1988 C1985 0.929 . S
S1989 N1990 1.613 . S
S1989 N1991 1.610 . S
N1990 S1989 1.613 . S
N1990 C1993 1.350 . S
N1991 S1989 1.610 . S
N1991 C1992 1.351 . S
C1992 C1986 1.428 . S
C1992 N1991 1.351 . S
C1992 C1993 1.434 . S
C1993 C1984 1.429 . S
C1993 N1990 1.350 . S
C1993 C1992 1.434 . S
C1994 C1995 1.369 . S
C1994 C1996 1.419 . S
C1994 H1998 0.930 . S
C1995 C1994 1.369 . S
C1995 C2004 1.429 . S
C1996 C1994 1.419 . S
C1996 C1997 1.363 . S
C1996 H1999 0.929 . S
C1997 C1996 1.363 . S
C1997 C2003 1.428 . S
H1998 C1994 0.930 . S
H1999 C1996 0.929 . S
S2000 N2001 1.613 . S
S2000 N2002 1.610 . S
N2001 S2000 1.613 . S
N2001 C2004 1.350 . S
N2002 S2000 1.610 . S
N2002 C2003 1.351 . S
C2003 C1997 1.428 . S
C2003 N2002 1.351 . S
C2003 C2004 1.434 . S
C2004 C1995 1.429 . S
C2004 N2001 1.350 . S
C2004 C2003 1.434 . S
C2005 C2006 1.369 . S
C2005 C2007 1.419 . S
C2005 H2009 0.930 . S
C2006 C2005 1.369 . S
C2006 C2015 1.429 . S
C2007 C2005 1.419 . S
C2007 C2008 1.363 . S
C2007 H2010 0.929 . S
C2008 C2007 1.363 . S
C2008 C2014 1.428 . S
H2009 C2005 0.930 . S
H2010 C2007 0.929 . S
S2011 N2012 1.613 . S
S2011 N2013 1.610 . S
N2012 S2011 1.613 . S
N2012 C2015 1.350 . S
N2013 S2011 1.610 . S
N2013 C2014 1.351 . S
C2014 C2008 1.428 . S
C2014 N2013 1.351 . S
C2014 C2015 1.434 . S
C2015 C2006 1.429 . S
C2015 N2012 1.350 . S
C2015 C2014 1.434 . S
C2016 C2017 1.369 . S
C2016 C2018 1.419 . S
C2016 H2020 0.930 . S
C2017 C2016 1.369 . S
C2017 C2026 1.429 . S
C2018 C2016 1.419 . S
C2018 C2019 1.363 . S
C2018 H2021 0.929 . S
C2019 C2018 1.363 . S
C2019 C2025 1.428 . S
H2020 C2016 0.930 . S
H2021 C2018 0.929 . S
S2022 N2023 1.613 . S
S2022 N2024 1.610 . S
N2023 S2022 1.613 . S
N2023 C2026 1.350 . S
N2024 S2022 1.610 . S
N2024 C2025 1.351 . S
C2025 C2019 1.428 . S
C2025 N2024 1.351 . S
C2025 C2026 1.434 . S
C2026 C2017 1.429 . S
C2026 N2023 1.350 . S
C2026 C2025 1.434 . S
C2027 C2028 1.369 . S
C2027 C2029 1.419 . S
C2027 H2031 0.930 . S
C2028 C2027 1.369 . S
C2028 C2037 1.429 . S
C2029 C2027 1.419 . S
C2029 C2030 1.363 . S
C2029 H2032 0.929 . S
C2030 C2029 1.363 . S
C2030 C2036 1.428 . S
H2031 C2027 0.930 . S
H2032 C2029 0.929 . S
S2033 N2034 1.613 . S
S2033 N2035 1.610 . S
N2034 S2033 1.613 . S
N2034 C2037 1.350 . S
N2035 S2033 1.610 . S
N2035 C2036 1.351 . S
C2036 C2030 1.428 . S
C2036 N2035 1.351 . S
C2036 C2037 1.434 . S
C2037 C2028 1.429 . S
C2037 N2034 1.350 . S
C2037 C2036 1.434 . S
C2038 C2039 1.369 . S
C2038 C2040 1.419 . S
C2038 H2042 0.930 . S
C2039 C2038 1.369 . S
C2039 C2048 1.429 . S
C2040 C2038 1.419 . S
C2040 C2041 1.363 . S
C2040 H2043 0.929 . S
C2041 C2040 1.363 . S
C2041 C2047 1.428 . S
H2042 C2038 0.930 . S
H2043 C2040 0.929 . S
S2044 N2045 1.613 . S
S2044 N2046 1.610 . S
N2045 S2044 1.613 . S
N2045 C2048 1.350 . S
N2046 S2044 1.610 . S
N2046 C2047 1.351 . S
C2047 C2041 1.428 . S
C2047 N2046 1.351 . S
C2047 C2048 1.434 . S
C2048 C2039 1.429 . S
C2048 N2045 1.350 . S
C2048 C2047 1.434 . S
C2049 C2050 1.369 . S
C2049 C2051 1.419 . S
C2049 H2053 0.930 1_556 S
C2050 C2049 1.369 . S
C2050 C2059 1.429 . S
C2051 C2049 1.419 . S
C2051 C2052 1.363 . S
C2051 H2054 0.929 . S
C2052 C2051 1.363 . S
C2052 C2058 1.428 . S
H2053 C2049 0.930 1_554 S
H2054 C2051 0.929 . S
S2055 N2056 1.613 . S
S2055 N2057 1.610 . S
N2056 S2055 1.613 . S
N2056 C2059 1.350 . S
N2057 S2055 1.610 . S
N2057 C2058 1.351 . S
C2058 C2052 1.428 . S
C2058 N2057 1.351 . S
C2058 C2059 1.434 . S
C2059 C2050 1.429 . S
C2059 N2056 1.350 . S
C2059 C2058 1.434 . S
C2060 C2061 1.369 . S
C2060 C2062 1.419 . S
C2060 H2064 0.930 . S
C2061 C2060 1.369 . S
C2061 C2070 1.429 . S
C2062 C2060 1.419 . S
C2062 C2063 1.363 . S
C2062 H2065 0.929 . S
C2063 C2062 1.363 . S
C2063 C2069 1.428 . S
H2064 C2060 0.930 . S
H2065 C2062 0.929 . S
S2066 N2067 1.613 . S
S2066 N2068 1.610 . S
N2067 S2066 1.613 . S
N2067 C2070 1.350 . S
N2068 S2066 1.610 . S
N2068 C2069 1.351 . S
C2069 C2063 1.428 . S
C2069 N2068 1.351 . S
C2069 C2070 1.434 . S
C2070 C2061 1.429 . S
C2070 N2067 1.350 . S
C2070 C2069 1.434 . S
C2071 C2072 1.369 . S
C2071 C2073 1.419 . S
C2071 H2075 0.930 . S
C2072 C2071 1.369 . S
C2072 C2081 1.429 . S
C2073 C2071 1.419 . S
C2073 C2074 1.363 . S
C2073 H2076 0.929 . S
C2074 C2073 1.363 . S
C2074 C2080 1.428 . S
H2075 C2071 0.930 . S
H2076 C2073 0.929 . S
S2077 N2078 1.613 1_556 S
S2077 N2079 1.610 . S
N2078 S2077 1.613 1_554 S
N2078 C2081 1.350 1_554 S
N2079 S2077 1.610 . S
N2079 C2080 1.351 . S
C2080 C2074 1.428 . S
C2080 N2079 1.351 . S
C2080 C2081 1.434 . S
C2081 C2072 1.429 . S
C2081 N2078 1.350 1_556 S
C2081 C2080 1.434 . S
C2082 C2083 1.369 . S
C2082 C2084 1.419 . S
C2082 H2086 0.930 . S
C2083 C2082 1.369 . S
C2083 C2092 1.429 . S
C2084 C2082 1.419 . S
C2084 C2085 1.363 . S
C2084 H2087 0.929 . S
C2085 C2084 1.363 . S
C2085 C2091 1.428 . S
H2086 C2082 0.930 . S
H2087 C2084 0.929 . S
S2088 N2089 1.613 . S
S2088 N2090 1.610 . S
N2089 S2088 1.613 . S
N2089 C2092 1.350 . S
N2090 S2088 1.610 . S
N2090 C2091 1.351 . S
C2091 C2085 1.428 . S
C2091 N2090 1.351 . S
C2091 C2092 1.434 . S
C2092 C2083 1.429 . S
C2092 N2089 1.350 . S
C2092 C2091 1.434 . S
C2093 C2094 1.369 . S
C2093 C2095 1.419 . S
C2093 H2097 0.930 . S
C2094 C2093 1.369 . S
C2094 C2103 1.429 . S
C2095 C2093 1.419 . S
C2095 C2096 1.363 . S
C2095 H2098 0.929 . S
C2096 C2095 1.363 . S
C2096 C2102 1.428 . S
H2097 C2093 0.930 . S
H2098 C2095 0.929 . S
S2099 N2100 1.613 . S
S2099 N2101 1.610 . S
N2100 S2099 1.613 . S
N2100 C2103 1.350 . S
N2101 S2099 1.610 . S
N2101 C2102 1.351 . S
C2102 C2096 1.428 . S
C2102 N2101 1.351 . S
C2102 C2103 1.434 . S
C2103 C2094 1.429 . S
C2103 N2100 1.350 . S
C2103 C2102 1.434 . S
C2104 C2105 1.369 . S
C2104 C2106 1.419 . S
C2104 H2108 0.930 . S
C2105 C2104 1.369 . S
C2105 C2114 1.429 . S
C2106 C2104 1.419 . S
C2106 C2107 1.363 . S
C2106 H2109 0.929 . S
C2107 C2106 1.363 . S
C2107 C2113 1.428 . S
H2108 C2104 0.930 . S
H2109 C2106 0.929 . S
S2110 N2111 1.613 . S
S2110 N2112 1.610 . S
N2111 S2110 1.613 . S
N2111 C2114 1.350 . S
N2112 S2110 1.610 . S
N2112 C2113 1.351 . S
C2113 C2107 1.428 . S
C2113 N2112 1.351 . S
C2113 C2114 1.434 . S
C2114 C2105 1.429 . S
C2114 N2111 1.350 . S
C2114 C2113 1.434 . S
C2115 C2116 1.369 . S
C2115 C2117 1.419 . S
C2115 H2119 0.930 . S
C2116 C2115 1.369 . S
C2116 C2125 1.429 . S
C2117 C2115 1.419 . S
C2117 C2118 1.363 . S
C2117 H2120 0.929 1_554 S
C2118 C2117 1.363 . S
C2118 C2124 1.428 . S
H2119 C2115 0.930 . S
H2120 C2117 0.929 1_556 S
S2121 N2122 1.613 . S
S2121 N2123 1.610 . S
N2122 S2121 1.613 . S
N2122 C2125 1.350 . S
N2123 S2121 1.610 . S
N2123 C2124 1.351 . S
C2124 C2118 1.428 . S
C2124 N2123 1.351 . S
C2124 C2125 1.434 . S
C2125 C2116 1.429 . S
C2125 N2122 1.350 . S
C2125 C2124 1.434 . S
C2126 C2127 1.369 . S
C2126 C2128 1.419 . S
C2126 H2130 0.930 . S
C2127 C2126 1.369 . S
C2127 C2136 1.429 . S
C2128 C2126 1.419 . S
C2128 C2129 1.363 . S
C2128 H2131 0.929 . S
C2129 C2128 1.363 . S
C2129 C2135 1.428 . S
H2130 C2126 0.930 . S
H2131 C2128 0.929 . S
S2132 N2133 1.613 . S
S2132 N2134 1.610 1_554 S
N2133 S2132 1.613 . S
N2133 C2136 1.350 . S
N2134 S2132 1.610 1_556 S
N2134 C2135 1.351 1_556 S
C2135 C2129 1.428 . S
C2135 N2134 1.351 1_554 S
C2135 C2136 1.434 . S
C2136 C2127 1.429 . S
C2136 N2133 1.350 . S
C2136 C2135 1.434 . S
C2137 C2138 1.369 . S
C2137 C2139 1.419 . S
C2137 H2141 0.930 . S
C2138 C2137 1.369 . S
C2138 C2147 1.429 . S
C2139 C2137 1.419 . S
C2139 C2140 1.363 . S
C2139 H2142 0.929 1_554 S
C2140 C2139 1.363 . S
C2140 C2146 1.428 . S
H2141 C2137 0.930 . S
H2142 C2139 0.929 1_556 S
S2143 N2144 1.613 . S
S2143 N2145 1.610 . S
N2144 S2143 1.613 . S
N2144 C2147 1.350 . S
N2145 S2143 1.610 . S
N2145 C2146 1.351 . S
C2146 C2140 1.428 . S
C2146 N2145 1.351 . S
C2146 C2147 1.434 . S
C2147 C2138 1.429 . S
C2147 N2144 1.350 . S
C2147 C2146 1.434 . S
C2148 C2149 1.369 . S
C2148 C2150 1.419 . S
C2148 H2152 0.930 . S
C2149 C2148 1.369 . S
C2149 C2158 1.429 . S
C2150 C2148 1.419 . S
C2150 C2151 1.363 . S
C2150 H2153 0.929 1_554 S
C2151 C2150 1.363 . S
C2151 C2157 1.428 . S
H2152 C2148 0.930 . S
H2153 C2150 0.929 1_556 S
S2154 N2155 1.613 . S
S2154 N2156 1.610 . S
N2155 S2154 1.613 . S
N2155 C2158 1.350 . S
N2156 S2154 1.610 . S
N2156 C2157 1.351 . S
C2157 C2151 1.428 . S
C2157 N2156 1.351 . S
C2157 C2158 1.434 . S
C2158 C2149 1.429 . S
C2158 N2155 1.350 . S
C2158 C2157 1.434 . S
C2159 C2160 1.369 . S
C2159 C2161 1.419 . S
C2159 H2163 0.930 . S
C2160 C2159 1.369 . S
C2160 C2169 1.429 . S
C2161 C2159 1.419 . S
C2161 C2162 1.363 . S
C2161 H2164 0.929 1_554 S
C2162 C2161 1.363 . S
C2162 C2168 1.428 . S
H2163 C2159 0.930 . S
H2164 C2161 0.929 1_556 S
S2165 N2166 1.613 . S
S2165 N2167 1.610 . S
N2166 S2165 1.613 . S
N2166 C2169 1.350 . S
N2167 S2165 1.610 . S
N2167 C2168 1.351 . S
C2168 C2162 1.428 . S
C2168 N2167 1.351 . S
C2168 C2169 1.434 . S
C2169 C2160 1.429 . S
C2169 N2166 1.350 . S
C2169 C2168 1.434 . S
C2170 C2171 1.369 . S
C2170 C2172 1.419 . S
C2170 H2174 0.930 . S
C2171 C2170 1.369 . S
C2171 C2180 1.429 . S
C2172 C2170 1.419 . S
C2172 C2173 1.363 . S
C2172 H2175 0.929 . S
C2173 C2172 1.363 . S
C2173 C2179 1.428 . S
H2174 C2170 0.930 . S
H2175 C2172 0.929 . S
S2176 N2177 1.613 1_554 S
S2176 N2178 1.610 . S
N2177 S2176 1.613 1_556 S
N2177 C2180 1.350 1_556 S
N2178 S2176 1.610 . S
N2178 C2179 1.351 . S
C2179 C2173 1.428 . S
C2179 N2178 1.351 . S
C2179 C2180 1.434 . S
C2180 C2171 1.429 . S
C2180 N2177 1.350 1_554 S
C2180 C2179 1.434 . S
C2181 C2182 1.369 . S
C2181 C2183 1.419 . S
C2181 H2185 0.930 . S
C2182 C2181 1.369 . S
C2182 C2191 1.429 . S
C2183 C2181 1.419 . S
C2183 C2184 1.363 . S
C2183 H2186 0.929 . S
C2184 C2183 1.363 . S
C2184 C2190 1.428 . S
H2185 C2181 0.930 . S
H2186 C2183 0.929 . S
S2187 N2188 1.613 . S
S2187 N2189 1.610 . S
N2188 S2187 1.613 . S
N2188 C2191 1.350 . S
N2189 S2187 1.610 . S
N2189 C2190 1.351 . S
C2190 C2184 1.428 . S
C2190 N2189 1.351 . S
C2190 C2191 1.434 . S
C2191 C2182 1.429 . S
C2191 N2188 1.350 . S
C2191 C2190 1.434 . S
C2192 C2193 1.369 . S
C2192 C2194 1.419 . S
C2192 H2196 0.930 . S
C2193 C2192 1.369 . S
C2193 C2202 1.429 . S
C2194 C2192 1.419 . S
C2194 C2195 1.363 . S
C2194 H2197 0.929 . S
C2195 C2194 1.363 . S
C2195 C2201 1.428 . S
H2196 C2192 0.930 . S
H2197 C2194 0.929 . S
S2198 N2199 1.613 . S
S2198 N2200 1.610 . S
N2199 S2198 1.613 . S
N2199 C2202 1.350 . S
N2200 S2198 1.610 . S
N2200 C2201 1.351 . S
C2201 C2195 1.428 . S
C2201 N2200 1.351 . S
C2201 C2202 1.434 . S
C2202 C2193 1.429 . S
C2202 N2199 1.350 . S
C2202 C2201 1.434 . S
C2203 C2204 1.369 . S
C2203 C2205 1.419 . S
C2203 H2207 0.930 . S
C2204 C2203 1.369 . S
C2204 C2213 1.429 . S
C2205 C2203 1.419 . S
C2205 C2206 1.363 . S
C2205 H2208 0.929 . S
C2206 C2205 1.363 . S
C2206 C2212 1.428 . S
H2207 C2203 0.930 . S
H2208 C2205 0.929 . S
S2209 N2210 1.613 . S
S2209 N2211 1.610 . S
N2210 S2209 1.613 . S
N2210 C2213 1.350 . S
N2211 S2209 1.610 . S
N2211 C2212 1.351 . S
C2212 C2206 1.428 . S
C2212 N2211 1.351 . S
C2212 C2213 1.434 . S
C2213 C2204 1.429 . S
C2213 N2210 1.350 . S
C2213 C2212 1.434 . S
C1225 C20 1.672 . S
C1227 C530 1.667 . S
C1236 C564 1.671 . S
C1238 C54 1.665 . S
C1247 C88 1.664 . S
C1249 C598 1.670 . S
C1258 C836 1.671 . S
C1260 C122 1.666 . S
C1269 C870 1.666 . S
C1271 C156 1.668 . S
C1280 C190 1.671 . S
C1282 C904 1.666 . S
C1291 C224 1.669 . S
C1293 C1142 1.668 . S
C1302 C1176 1.670 . S
C1304 C258 1.666 . S
C1313 C292 1.668 . S
C1315 C1210 1.667 . S
C1324 C632 1.668 . S
C1326 C326 1.669 . S
C1335 C360 1.664 . S
C1337 C666 1.670 . S
C1346 C700 1.671 . S
C1348 C394 1.665 . S
C1357 C428 1.666 . S
C1359 C938 1.672 . S
C1368 C462 1.664 . S
C1370 C972 1.671 . S
C1379 C1006 1.670 . S
C1381 C496 1.667 . S
C1390 C1040 1.668 . S
C1392 C734 1.670 . S
C1401 C1074 1.670 . S
C1403 C768 1.666 . S
C1412 C802 1.669 . S
C1414 C1108 1.667 . S
C1423 C2 1.541 . S
C1425 C376 1.541 . S
C1434 C36 1.541 . S
C1436 C308 1.541 . S
C1445 C70 1.540 . S
C1447 C342 1.540 . S
C1456 C240 1.541 . S
C1458 C104 1.541 . S
C1467 C274 1.539 . S
C1469 C138 1.540 . S
C1478 C172 1.541 . S
C1480 C206 1.541 . S
C1489 C410 1.541 . S
C1491 C784 1.541 . S
C1500 C716 1.540 . S
C1502 C444 1.541 . S
C1511 C478 1.539 . S
C1513 C750 1.539 . S
C1522 C512 1.540 . S
C1524 C648 1.540 . S
C1533 C546 1.540 . S
C1535 C682 1.540 . S
C1544 C580 1.540 . S
C1546 C614 1.540 . S
C1555 C818 1.541 . S
C1557 C1192 1.541 . S
C1566 C1124 1.542 . S
C1568 C852 1.542 . S
C1577 C1158 1.540 . S
C1579 C886 1.540 . S
C1588 C1056 1.540 . S
C1590 C920 1.541 . S
C1599 C954 1.540 . S
C1601 C1090 1.540 . S
C1610 C988 1.541 . S
C1612 C1022 1.541 . S
C1621 C1019 1.596 . S
C1623 C33 1.603 . S
C1632 C67 1.596 . S
C1634 C951 1.602 . S
C1643 C101 1.595 . S
C1645 C985 1.601 . S
C1654 C475 1.595 . S
C1656 C135 1.602 . S
C1665 C169 1.599 . S
C1667 C509 1.597 . S
C1676 C203 1.595 . S
C1678 C441 1.603 . S
C1687 C815 1.595 . S
C1689 C237 1.602 . S
C1698 C271 1.604 . S
C1700 C747 1.597 . S
C1709 C781 1.602 . S
C1711 C305 1.597 . S
C1720 C1087 1.598 . S
C1722 C339 1.599 . S
C1731 C1121 1.602 . S
C1733 C373 1.597 . S
C1742 C1053 1.602 . S
C1744 C407 1.598 . S
C1753 C543 1.596 . S
C1755 C883 1.602 . S
C1764 C917 1.603 . S
C1766 C577 1.596 . S
C1775 C611 1.603 . S
C1777 C849 1.596 . S
C1786 C645 1.595 . S
C1788 C1223 1.602 . S
C1797 C679 1.600 . S
C1799 C1155 1.599 . S
C1808 C713 1.600 . S
C1810 C1189 1.597 . S
C1819 C9 1.323 . S
C1821 C5 1.309 . S
C1830 C43 1.329 . S
C1832 C39 1.304 . S
C1841 C77 1.328 . S
C1843 C73 1.307 . S
C1852 C107 1.303 . S
C1854 C111 1.329 . S
C1863 C145 1.329 . S
C1865 C141 1.303 . S
C1874 C175 1.308 . S
C1876 C179 1.322 . S
C1885 C213 1.329 . S
C1887 C209 1.305 . S
C1896 C243 1.308 . S
C1898 C247 1.322 . S
C1907 C277 1.304 . S
C1909 C281 1.323 . S
C1918 C315 1.329 . S
C1920 C311 1.303 . S
C1929 C349 1.328 . S
C1931 C345 1.301 . S
C1940 C379 1.309 . S
C1942 C383 1.326 . S
C1951 C413 1.303 1_556 S
C1953 C417 1.323 . S
C1962 C447 1.300 1_556 S
C1964 C451 1.327 . S
C1973 C485 1.327 . S
C1975 C481 1.308 1_556 S
C1984 C515 1.304 . S
C1986 C519 1.323 . S
C1995 C549 1.303 . S
C1997 C553 1.328 . S
C2006 C587 1.325 . S
C2008 C583 1.309 . S
C2017 C617 1.307 . S
C2019 C621 1.327 . S
C2028 C655 1.321 . S
C2030 C651 1.306 . S
C2039 C689 1.327 . S
C2041 C685 1.307 . S
C2050 C719 1.307 1_556 S
C2052 C723 1.327 . S
C2061 C753 1.308 1_556 S
C2063 C757 1.322 . S
C2072 C787 1.304 1_556 S
C2074 C791 1.323 . S
C2083 C821 1.309 . S
C2085 C825 1.323 . S
C2094 C855 1.307 . S
C2096 C859 1.327 . S
C2105 C893 1.327 . S
C2107 C889 1.301 . S
C2116 C927 1.328 . S
C2118 C923 1.307 1_554 S
C2127 C961 1.328 . S
C2129 C957 1.301 1_554 S
C2138 C995 1.329 . S
C2140 C991 1.305 1_554 S
C2149 C1029 1.326 . S
C2151 C1025 1.308 1_554 S
C2160 C1063 1.324 . S
C2162 C1059 1.309 1_554 S
C2171 C1093 1.302 1_554 S
C2173 C1097 1.324 . S
C2182 C1131 1.321 . S
C2184 C1127 1.305 . S
C2193 C1165 1.329 . S
C2195 C1161 1.305 . S
C2204 C1195 1.310 . S
C2206 C1199 1.324 . S
