# Generated by pormake.
# Topology zfi, (5)-cn, num edge types: 1
# Building blocks:
#     Node 0, Type 0, BuildingBlock: BEQFEK_clean_sbu_0, # of connection points: 5
#     Node 1, Type 0, BuildingBlock: BEQFEK_clean_sbu_0, # of connection points: 5
#     Node 2, Type 0, BuildingBlock: BEQFEK_clean_sbu_0, # of connection points: 5
#     Node 3, Type 0, BuildingBlock: BEQFEK_clean_sbu_0, # of connection points: 5
#     Node 4, Type 0, BuildingBlock: BEQFEK_clean_sbu_0, # of connection points: 5
#     Node 5, Type 0, BuildingBlock: BEQFEK_clean_sbu_0, # of connection points: 5
#     Node 6, Type 0, BuildingBlock: BEQFEK_clean_sbu_0, # of connection points: 5
#     Node 7, Type 0, BuildingBlock: BEQFEK_clean_sbu_0, # of connection points: 5
#     Node 8, Type 0, BuildingBlock: BEQFEK_clean_sbu_0, # of connection points: 5
#     Node 9, Type 0, BuildingBlock: BEQFEK_clean_sbu_0, # of connection points: 5
#     Node 10, Type 0, BuildingBlock: BEQFEK_clean_sbu_0, # of connection points: 5
#     Node 11, Type 0, BuildingBlock: BEQFEK_clean_sbu_0, # of connection points: 5
#     Node 12, Type 0, BuildingBlock: BEQFEK_clean_sbu_0, # of connection points: 5
#     Node 13, Type 0, BuildingBlock: BEQFEK_clean_sbu_0, # of connection points: 5
#     Node 14, Type 0, BuildingBlock: BEQFEK_clean_sbu_0, # of connection points: 5
#     Node 15, Type 0, BuildingBlock: BEQFEK_clean_sbu_0, # of connection points: 5
#     Edge 16, Type (0, 0), BuildingBlock: ZUJKAS_clean_linker_0, # of connection points: 2
#     Edge 17, Type (0, 0), BuildingBlock: ZUJKAS_clean_linker_0, # of connection points: 2
#     Edge 18, Type (0, 0), BuildingBlock: ZUJKAS_clean_linker_0, # of connection points: 2
#     Edge 19, Type (0, 0), BuildingBlock: ZUJKAS_clean_linker_0, # of connection points: 2
#     Edge 20, Type (0, 0), BuildingBlock: ZUJKAS_clean_linker_0, # of connection points: 2
#     Edge 21, Type (0, 0), BuildingBlock: ZUJKAS_clean_linker_0, # of connection points: 2
#     Edge 22, Type (0, 0), BuildingBlock: ZUJKAS_clean_linker_0, # of connection points: 2
#     Edge 23, Type (0, 0), BuildingBlock: ZUJKAS_clean_linker_0, # of connection points: 2
#     Edge 24, Type (0, 0), BuildingBlock: ZUJKAS_clean_linker_0, # of connection points: 2
#     Edge 25, Type (0, 0), BuildingBlock: ZUJKAS_clean_linker_0, # of connection points: 2
#     Edge 26, Type (0, 0), BuildingBlock: ZUJKAS_clean_linker_0, # of connection points: 2
#     Edge 27, Type (0, 0), BuildingBlock: ZUJKAS_clean_linker_0, # of connection points: 2
#     Edge 28, Type (0, 0), BuildingBlock: ZUJKAS_clean_linker_0, # of connection points: 2
#     Edge 29, Type (0, 0), BuildingBlock: ZUJKAS_clean_linker_0, # of connection points: 2
#     Edge 30, Type (0, 0), BuildingBlock: ZUJKAS_clean_linker_0, # of connection points: 2
#     Edge 31, Type (0, 0), BuildingBlock: ZUJKAS_clean_linker_0, # of connection points: 2
#     Edge 32, Type (0, 0), BuildingBlock: ZUJKAS_clean_linker_0, # of connection points: 2
#     Edge 33, Type (0, 0), BuildingBlock: ZUJKAS_clean_linker_0, # of connection points: 2
#     Edge 34, Type (0, 0), BuildingBlock: ZUJKAS_clean_linker_0, # of connection points: 2
#     Edge 35, Type (0, 0), BuildingBlock: ZUJKAS_clean_linker_0, # of connection points: 2
#     Edge 36, Type (0, 0), BuildingBlock: ZUJKAS_clean_linker_0, # of connection points: 2
#     Edge 37, Type (0, 0), BuildingBlock: ZUJKAS_clean_linker_0, # of connection points: 2
#     Edge 38, Type (0, 0), BuildingBlock: ZUJKAS_clean_linker_0, # of connection points: 2
#     Edge 39, Type (0, 0), BuildingBlock: ZUJKAS_clean_linker_0, # of connection points: 2
#     Edge 40, Type (0, 0), BuildingBlock: ZUJKAS_clean_linker_0, # of connection points: 2
#     Edge 41, Type (0, 0), BuildingBlock: ZUJKAS_clean_linker_0, # of connection points: 2
#     Edge 42, Type (0, 0), BuildingBlock: ZUJKAS_clean_linker_0, # of connection points: 2
#     Edge 43, Type (0, 0), BuildingBlock: ZUJKAS_clean_linker_0, # of connection points: 2
#     Edge 44, Type (0, 0), BuildingBlock: ZUJKAS_clean_linker_0, # of connection points: 2
#     Edge 45, Type (0, 0), BuildingBlock: ZUJKAS_clean_linker_0, # of connection points: 2
#     Edge 46, Type (0, 0), BuildingBlock: ZUJKAS_clean_linker_0, # of connection points: 2
#     Edge 47, Type (0, 0), BuildingBlock: ZUJKAS_clean_linker_0, # of connection points: 2
#     Edge 48, Type (0, 0), BuildingBlock: ZUJKAS_clean_linker_0, # of connection points: 2
#     Edge 49, Type (0, 0), BuildingBlock: ZUJKAS_clean_linker_0, # of connection points: 2
#     Edge 50, Type (0, 0), BuildingBlock: ZUJKAS_clean_linker_0, # of connection points: 2
#     Edge 51, Type (0, 0), BuildingBlock: ZUJKAS_clean_linker_0, # of connection points: 2
#     Edge 52, Type (0, 0), BuildingBlock: ZUJKAS_clean_linker_0, # of connection points: 2
#     Edge 53, Type (0, 0), BuildingBlock: ZUJKAS_clean_linker_0, # of connection points: 2
#     Edge 54, Type (0, 0), BuildingBlock: ZUJKAS_clean_linker_0, # of connection points: 2
#     Edge 55, Type (0, 0), BuildingBlock: ZUJKAS_clean_linker_0, # of connection points: 2
# Relax obj value: 0.224
# Max RMSD: 0.190
# Mean RMSD: 0.190
data_MOF--net-zfi--node1-BEQFEK_clean_sbu_0--edge1-ZUJKAS_clean_linker_0
_symmetry_space_group_name_H-M    P1
_symmetry_Int_Tables_number       1
_symmetry_cell_setting            triclinic
loop_
_symmetry_equiv_pos_as_xyz
'x, y, z'
_cell_length_a     46.356101
_cell_length_b     46.352346
_cell_length_c     74.398487
_cell_angle_alpha  90.031129
_cell_angle_beta   90.002208
_cell_angle_gamma 90.020951
loop_
_atom_site_label
_atom_site_type_symbol
_atom_site_fract_x
_atom_site_fract_y
_atom_site_fract_z
_atom_type_partial_charge
Co0 Co 0.62246 0.08883 0.12631 0.0
Co1 Co 0.61419 0.02249 0.13208 0.0
C2 C 0.60004 0.06555 0.16111 0.0
O3 O 0.60603 0.08733 0.1513 0.0
O4 O 0.60224 0.03997 0.15504 0.0
C5 C 0.64449 0.14306 0.13116 0.0
O6 O 0.64692 0.13123 0.14714 0.0
C7 C 0.58074 0.96966 0.13725 0.0
C8 C 0.61222 0.93645 0.12889 0.0
C9 C 0.58396 0.94019 0.13453 0.0
N10 N 0.60583 0.98257 0.13313 0.0
N11 N 0.62468 0.9626 0.12842 0.0
C12 C 0.55389 0.98584 0.14203 0.0
H13 H 0.55577 0.00879 0.13795 0.0
H14 H 0.53479 0.9759 0.13549 0.0
H15 H 0.55078 0.98504 0.15681 0.0
C16 C 0.58475 0.0755 0.09428 0.0
N17 N 0.59903 0.06804 0.10943 0.0
N18 N 0.59622 0.04003 0.11191 0.0
C19 C 0.58056 0.02881 0.09835 0.0
C20 C 0.5723 0.05085 0.08689 0.0
C21 C 0.5833 0.10553 0.08706 0.0
H22 H 0.58141 0.12116 0.0983 0.0
H23 H 0.56486 0.10805 0.07767 0.0
H24 H 0.6036 0.1103 0.07973 0.0
O25 O 0.66212 0.07246 0.12719 0.0
O26 O 0.65607 0.02543 0.13036 0.0
H27 H 0.57117 0.99254 0.08091 0.0
H28 H 0.55779 0.98953 0.1035 0.0
C29 C 0.57613 0.99717 0.09522 0.0
H30 H 0.5958 0.98506 0.09895 0.0
H31 H 0.64578 0.96692 0.12434 0.0
O32 O 0.63088 0.1293 0.11902 0.0
C33 C 0.67246 0.04719 0.12875 0.0
Co34 Co 0.41455 0.61826 0.13192 0.0
Co35 Co 0.48024 0.6074 0.13904 0.0
C36 C 0.43487 0.59673 0.16748 0.0
O37 O 0.41368 0.60262 0.15718 0.0
O38 O 0.46068 0.59793 0.16176 0.0
C39 C 0.362 0.64415 0.13551 0.0
O40 O 0.37425 0.64745 0.15131 0.0
C41 C 0.53022 0.57003 0.14522 0.0
C42 C 0.56625 0.60084 0.14197 0.0
C43 C 0.56004 0.57214 0.1454 0.0
N44 N 0.51936 0.59627 0.1416 0.0
N45 N 0.54098 0.61463 0.13983 0.0
C46 C 0.51224 0.54403 0.14937 0.0
H47 H 0.48995 0.55047 0.15299 0.0
H48 H 0.51113 0.52978 0.13744 0.0
H49 H 0.52215 0.53155 0.16051 0.0
C50 C 0.42842 0.58044 0.09989 0.0
N51 N 0.43526 0.5936 0.11556 0.0
N52 N 0.46301 0.58985 0.11864 0.0
C53 C 0.47472 0.57487 0.10494 0.0
C54 C 0.45322 0.56782 0.09278 0.0
C55 C 0.39904 0.5809 0.09164 0.0
H56 H 0.39619 0.60154 0.0843 0.0
H57 H 0.38234 0.57979 0.1023 0.0
H58 H 0.3963 0.56278 0.08203 0.0
O59 O 0.43311 0.65699 0.13275 0.0
O60 O 0.47986 0.64926 0.13641 0.0
H61 H 0.51843 0.59006 0.10726 0.0
H62 H 0.5116 0.56881 0.08749 0.0
C63 C 0.5065 0.57117 0.10199 0.0
H64 H 0.51399 0.55145 0.10896 0.0
H65 H 0.5385 0.63652 0.13697 0.0
O66 O 0.37483 0.62868 0.12383 0.0
C67 C 0.45876 0.66639 0.13436 0.0
Co68 Co 0.88166 0.41039 0.12955 0.0
Co69 Co 0.8902 0.47635 0.13705 0.0
C70 C 0.90198 0.43103 0.16531 0.0
O71 O 0.89636 0.40996 0.15486 0.0
O72 O 0.90029 0.45696 0.15982 0.0
C73 C 0.86069 0.35495 0.1328 0.0
O74 O 0.85807 0.36504 0.14922 0.0
C75 C 0.926 0.52743 0.14343 0.0
C76 C 0.89442 0.56262 0.13959 0.0
C77 C 0.9232 0.55721 0.14329 0.0
N78 N 0.9001 0.51583 0.1397 0.0
N79 N 0.88127 0.53695 0.1376 0.0
C80 C 0.95235 0.5102 0.14792 0.0
H81 H 0.9651 0.52126 0.15851 0.0
H82 H 0.9463 0.48822 0.15244 0.0
H83 H 0.96618 0.50803 0.13585 0.0
C84 C 0.92058 0.42532 0.09849 0.0
N85 N 0.90629 0.43193 0.11378 0.0
N86 N 0.90891 0.45982 0.11682 0.0
C87 C 0.9242 0.47188 0.10338 0.0
C88 C 0.9327 0.45044 0.09153 0.0
C89 C 0.92182 0.39575 0.09052 0.0
H90 H 0.92304 0.37937 0.10136 0.0
H91 H 0.9406 0.39354 0.08136 0.0
H92 H 0.90177 0.39182 0.08275 0.0
O93 O 0.84238 0.42748 0.12985 0.0
O94 O 0.8483 0.47446 0.13388 0.0
H95 H 0.92896 0.50861 0.0857 0.0
H96 H 0.94624 0.51206 0.10714 0.0
C97 C 0.92678 0.50373 0.10025 0.0
H98 H 0.90749 0.51509 0.10542 0.0
H99 H 0.85952 0.53385 0.13455 0.0
O100 O 0.87342 0.37042 0.12111 0.0
C101 C 0.83203 0.45275 0.13142 0.0
Co102 Co 0.08872 0.87789 0.12439 0.0
Co103 Co 0.02259 0.88784 0.13027 0.0
C104 C 0.0658 0.8995 0.15965 0.0
O105 O 0.0873 0.89299 0.14973 0.0
O106 O 0.04018 0.89855 0.15354 0.0
C107 C 0.14278 0.85514 0.12959 0.0
O108 O 0.13033 0.8519 0.14532 0.0
C109 C 0.97135 0.92343 0.13548 0.0
C110 C 0.93672 0.89381 0.1267 0.0
C111 C 0.94185 0.92181 0.13244 0.0
N112 N 0.983 0.89772 0.13142 0.0
N113 N 0.96217 0.87995 0.12651 0.0
C114 C 0.98878 0.94947 0.14035 0.0
H115 H 0.01171 0.94638 0.13651 0.0
H116 H 0.98001 0.96899 0.13367 0.0
H117 H 0.98773 0.95277 0.15511 0.0
C118 C 0.07628 0.91644 0.09249 0.0
N119 N 0.06864 0.90252 0.10775 0.0
N120 N 0.04072 0.90604 0.11032 0.0
C121 C 0.02976 0.9218 0.09672 0.0
C122 C 0.05187 0.92942 0.08514 0.0
C123 C 0.10615 0.91667 0.08496 0.0
H124 H 0.10991 0.89616 0.07763 0.0
H125 H 0.12213 0.91802 0.09604 0.0
H126 H 0.10915 0.93494 0.0755 0.0
O127 O 0.07119 0.8388 0.12445 0.0
O128 O 0.02423 0.84581 0.12762 0.0
H129 H 0.98589 0.9069 0.09722 0.0
H130 H 0.99365 0.93131 0.07917 0.0
C131 C 0.99818 0.92645 0.09349 0.0
H132 H 0.99063 0.94492 0.10169 0.0
H133 H 0.96547 0.8587 0.12235 0.0
O134 O 0.12933 0.86895 0.1174 0.0
C135 C 0.04565 0.82903 0.12566 0.0
Co136 Co 0.11668 0.90985 0.38686 0.0
Co137 Co 0.10626 0.97513 0.37808 0.0
C138 C 0.09161 0.92797 0.35157 0.0
O139 O 0.09926 0.90763 0.3621 0.0
O140 O 0.09309 0.95421 0.35649 0.0
C141 C 0.13755 0.85371 0.38483 0.0
O142 O 0.13799 0.86147 0.36785 0.0
C143 C 0.07093 0.02659 0.37135 0.0
C144 C 0.10323 0.06128 0.37471 0.0
C145 C 0.07433 0.0563 0.37114 0.0
N146 N 0.09662 0.01461 0.37514 0.0
N147 N 0.11587 0.03544 0.37695 0.0
C148 C 0.04413 0.0098 0.3672 0.0
H149 H 0.04957 0.98757 0.36291 0.0
H150 H 0.03042 0.00833 0.37937 0.0
H151 H 0.03147 0.02081 0.35655 0.0
C152 C 0.08259 0.92704 0.41973 0.0
N153 N 0.09406 0.93249 0.40336 0.0
N154 N 0.09087 0.96014 0.39979 0.0
C155 C 0.07817 0.97324 0.41391 0.0
C156 C 0.0722 0.95276 0.42695 0.0
C157 C 0.08374 0.89831 0.42879 0.0
H158 H 0.07766 0.88115 0.41909 0.0
H159 H 0.06927 0.89764 0.44067 0.0
H160 H 0.10622 0.89407 0.4332 0.0
O161 O 0.15583 0.92691 0.38425 0.0
O162 O 0.1484 0.97323 0.3787 0.0
H163 H 0.0929 0.01683 0.41076 0.0
H164 H 0.06834 0.01187 0.42932 0.0
C165 C 0.07342 0.00513 0.41539 0.0
H166 H 0.05502 0.01138 0.40678 0.0
H167 H 0.13759 0.03204 0.37996 0.0
O168 O 0.12614 0.87069 0.39625 0.0
C169 C 0.16541 0.95211 0.38109 0.0
Co170 Co 0.58376 0.12071 0.38803 0.0
Co171 Co 0.51775 0.11184 0.38108 0.0
C172 C 0.56258 0.1008 0.35234 0.0
O173 O 0.58399 0.10627 0.36258 0.0
O174 O 0.53678 0.10231 0.35813 0.0
C175 C 0.64438 0.13326 0.38641 0.0
O176 O 0.64203 0.12477 0.36963 0.0
C177 C 0.46612 0.07686 0.37476 0.0
C178 C 0.43166 0.10767 0.38203 0.0
C179 C 0.43643 0.07935 0.3768 0.0
N180 N 0.47814 0.1024 0.37888 0.0
N181 N 0.45743 0.12085 0.38291 0.0
C182 C 0.48323 0.05031 0.37062 0.0
H183 H 0.50603 0.05311 0.37484 0.0
H184 H 0.47374 0.03124 0.37743 0.0
H185 H 0.48283 0.04643 0.3559 0.0
C186 C 0.56976 0.08123 0.41895 0.0
N187 N 0.56268 0.0957 0.40381 0.0
N188 N 0.53481 0.09266 0.40093 0.0
C189 C 0.52325 0.0767 0.41423 0.0
C190 C 0.545 0.06843 0.42592 0.0
C191 C 0.59945 0.0804 0.42675 0.0
H192 H 0.61565 0.07886 0.41581 0.0
H193 H 0.60192 0.06197 0.43615 0.0
H194 H 0.60343 0.10077 0.43419 0.0
O195 O 0.56645 0.15993 0.38811 0.0
O196 O 0.51947 0.15352 0.3847 0.0
H197 H 0.47961 0.09225 0.413 0.0
H198 H 0.48659 0.06848 0.43155 0.0
C199 C 0.49152 0.07269 0.41719 0.0
H200 H 0.48388 0.05399 0.40923 0.0
H201 H 0.46095 0.14215 0.38688 0.0
O202 O 0.62315 0.12975 0.397 0.0
C203 C 0.54101 0.16999 0.38703 0.0
Co204 Co 0.37527 0.5876 0.39439 0.0
Co205 Co 0.38235 0.52141 0.38752 0.0
C206 C 0.39638 0.56626 0.35914 0.0
O207 O 0.39171 0.58788 0.36935 0.0
O208 O 0.39327 0.54063 0.36491 0.0
C209 C 0.35759 0.64508 0.39103 0.0
O210 O 0.35941 0.63764 0.37403 0.0
C211 C 0.41838 0.47073 0.38148 0.0
C212 C 0.38685 0.4352 0.38413 0.0
C213 C 0.41576 0.44097 0.38106 0.0
N214 N 0.39226 0.482 0.38489 0.0
N215 N 0.37345 0.4607 0.38633 0.0
C216 C 0.44481 0.48834 0.37776 0.0
H217 H 0.43887 0.51059 0.37376 0.0
H218 H 0.45825 0.48971 0.39005 0.0
H219 H 0.45793 0.47803 0.36705 0.0
C220 C 0.41292 0.57198 0.42624 0.0
N221 N 0.39862 0.56564 0.41088 0.0
N222 N 0.40038 0.53764 0.40805 0.0
C223 C 0.41492 0.52525 0.42168 0.0
C224 C 0.42403 0.54654 0.43349 0.0
C225 C 0.41555 0.60169 0.43386 0.0
H226 H 0.41591 0.61786 0.42287 0.0
H227 H 0.4353 0.60368 0.44221 0.0
H228 H 0.3965 0.60611 0.44247 0.0
O229 O 0.33555 0.57103 0.3929 0.0
O230 O 0.34055 0.52379 0.38976 0.0
H231 H 0.39695 0.48257 0.41945 0.0
H232 H 0.41791 0.48851 0.43947 0.0
C233 C 0.4164 0.49335 0.42489 0.0
H234 H 0.43582 0.48439 0.41827 0.0
H235 H 0.35153 0.46356 0.38897 0.0
O236 O 0.3666 0.62749 0.40291 0.0
C237 C 0.32465 0.54594 0.39134 0.0
Co238 Co 0.9079 0.37685 0.39215 0.0
Co239 Co 0.97329 0.38913 0.38464 0.0
C240 C 0.92738 0.40058 0.35683 0.0
O241 O 0.90674 0.39255 0.36704 0.0
O242 O 0.95341 0.40043 0.36229 0.0
C243 C 0.84665 0.36534 0.39117 0.0
O244 O 0.8476 0.37732 0.37519 0.0
C245 C 0.02418 0.42571 0.37908 0.0
C246 C 0.05916 0.39544 0.38628 0.0
C247 C 0.05385 0.42384 0.38148 0.0
N248 N 0.01266 0.39972 0.38265 0.0
N249 N 0.03371 0.38161 0.3866 0.0
C250 C 0.00661 0.45204 0.37519 0.0
H251 H 0.98378 0.44859 0.37915 0.0
H252 H 0.01554 0.47104 0.38237 0.0
H253 H 0.0073 0.45649 0.36054 0.0
C254 C 0.9212 0.41476 0.42393 0.0
N255 N 0.92848 0.4015 0.40839 0.0
N256 N 0.95611 0.40598 0.40528 0.0
C257 C 0.96728 0.42179 0.41879 0.0
C258 C 0.94554 0.42834 0.43088 0.0
C259 C 0.89176 0.41379 0.43207 0.0
H260 H 0.88828 0.39221 0.43814 0.0
H261 H 0.87524 0.41682 0.42143 0.0
H262 H 0.88924 0.43053 0.44263 0.0
O263 O 0.92643 0.33842 0.39096 0.0
O264 O 0.97285 0.34696 0.38656 0.0
H265 H 0.01173 0.40897 0.41697 0.0
H266 H 0.00393 0.43221 0.43568 0.0
C267 C 0.99879 0.42774 0.42138 0.0
H268 H 0.00499 0.44692 0.41339 0.0
H269 H 0.03059 0.36009 0.39023 0.0
O270 O 0.86895 0.3661 0.40112 0.0
C271 C 0.95211 0.32946 0.38886 0.0
Co272 Co 0.38092 0.9138 0.88811 0.0
Co273 Co 0.39575 0.97828 0.87926 0.0
C274 C 0.40637 0.93024 0.85271 0.0
O275 O 0.39764 0.91045 0.86329 0.0
O276 O 0.40668 0.95651 0.85762 0.0
C277 C 0.3534 0.86185 0.88545 0.0
O278 O 0.35017 0.8736 0.8695 0.0
C279 C 0.43623 0.02583 0.87314 0.0
C280 C 0.40735 0.06364 0.87492 0.0
C281 C 0.43592 0.05573 0.87254 0.0
N282 N 0.40914 0.0166 0.87604 0.0
N283 N 0.39194 0.03928 0.87689 0.0
C284 C 0.46147 0.00622 0.87017 0.0
H285 H 0.45413 0.98489 0.86522 0.0
H286 H 0.47306 0.00279 0.88301 0.0
H287 H 0.47678 0.01597 0.86043 0.0
C288 C 0.41811 0.92808 0.92027 0.0
N289 N 0.40574 0.93452 0.9043 0.0
N290 N 0.41067 0.96191 0.90068 0.0
C291 C 0.42545 0.97388 0.91437 0.0
C292 C 0.43133 0.95281 0.92705 0.0
C293 C 0.41666 0.89907 0.92897 0.0
H294 H 0.41693 0.8819 0.91857 0.0
H295 H 0.43486 0.89603 0.93848 0.0
H296 H 0.3961 0.89733 0.93653 0.0
O297 O 0.34322 0.93406 0.88596 0.0
O298 O 0.35364 0.97981 0.88033 0.0
H299 H 0.431 0.01148 0.93125 0.0
H300 H 0.45053 0.01222 0.91047 0.0
C301 C 0.42992 0.0057 0.91678 0.0
H302 H 0.41198 0.0179 0.91058 0.0
H303 H 0.36974 0.03814 0.87912 0.0
O304 O 0.36896 0.87493 0.89696 0.0
C305 C 0.3353 0.95987 0.88291 0.0
Co306 Co 0.59072 0.37575 0.89396 0.0
Co307 Co 0.52348 0.37865 0.89069 0.0
C308 C 0.56192 0.39383 0.85951 0.0
O309 O 0.5849 0.39025 0.86872 0.0
O310 O 0.5371 0.39 0.86647 0.0
C311 C 0.6464 0.35866 0.88697 0.0
O312 O 0.63367 0.3554 0.87132 0.0
C313 C 0.46623 0.40446 0.88576 0.0
C314 C 0.43899 0.37368 0.90086 0.0
C315 C 0.43817 0.39937 0.89138 0.0
N316 N 0.48289 0.38288 0.89186 0.0
N317 N 0.46641 0.36433 0.90061 0.0
C318 C 0.47766 0.43052 0.87629 0.0
H319 H 0.47497 0.42758 0.86159 0.0
H320 H 0.50098 0.43336 0.8792 0.0
H321 H 0.46558 0.45012 0.88041 0.0
C322 C 0.57778 0.41443 0.92565 0.0
N323 N 0.56998 0.39878 0.91109 0.0
N324 N 0.54173 0.40013 0.9093 0.0
C325 C 0.53076 0.41663 0.92257 0.0
C326 C 0.55313 0.42648 0.93329 0.0
C327 C 0.60814 0.41744 0.93212 0.0
H328 H 0.61494 0.39687 0.93846 0.0
H329 H 0.62266 0.42149 0.92053 0.0
H330 H 0.61014 0.43516 0.94209 0.0
O331 O 0.57781 0.33499 0.89489 0.0
O332 O 0.53023 0.33727 0.89387 0.0
H333 H 0.48804 0.39985 0.92574 0.0
H334 H 0.49493 0.43139 0.93904 0.0
C335 C 0.49918 0.42097 0.92589 0.0
H336 H 0.49006 0.43471 0.91512 0.0
H337 H 0.47408 0.34577 0.90694 0.0
O338 O 0.63248 0.37097 0.89958 0.0
C339 C 0.55332 0.32272 0.895 0.0
Co340 Co 0.12179 0.58453 0.89097 0.0
Co341 Co 0.10081 0.52243 0.88023 0.0
C342 C 0.09289 0.57228 0.85543 0.0
O343 O 0.10517 0.58982 0.86621 0.0
O344 O 0.08911 0.54598 0.85963 0.0
C345 C 0.14972 0.6367 0.88852 0.0
O346 O 0.15205 0.62592 0.87225 0.0
C347 C 0.0591 0.47567 0.87347 0.0
C348 C 0.08795 0.4377 0.87358 0.0
C349 C 0.05939 0.44588 0.8717 0.0
N350 N 0.0863 0.48458 0.87646 0.0
N351 N 0.10342 0.4618 0.87638 0.0
C352 C 0.03387 0.49549 0.87127 0.0
H353 H 0.02038 0.48834 0.85977 0.0
H354 H 0.04121 0.51801 0.86917 0.0
H355 H 0.02024 0.4949 0.88349 0.0
C356 C 0.08507 0.57074 0.92331 0.0
N357 N 0.09586 0.56463 0.90686 0.0
N358 N 0.08833 0.53812 0.90249 0.0
C359 C 0.07331 0.52633 0.91613 0.0
C360 C 0.07011 0.54671 0.92963 0.0
C361 C 0.08965 0.59873 0.93287 0.0
H362 H 0.08974 0.61676 0.92307 0.0
H363 H 0.07269 0.60235 0.94316 0.0
H364 H 0.11099 0.59825 0.93963 0.0
O365 O 0.15813 0.56216 0.88857 0.0
O366 O 0.14291 0.51905 0.87983 0.0
H367 H 0.06452 0.48793 0.93175 0.0
H368 H 0.04486 0.49087 0.91106 0.0
C369 C 0.066 0.4949 0.91751 0.0
H370 H 0.08271 0.48169 0.9108 0.0
H371 H 0.12569 0.46268 0.87837 0.0
O372 O 0.1353 0.62272 0.90019 0.0
C373 C 0.16322 0.53641 0.88359 0.0
Co374 Co 0.91282 0.12033 0.88616 0.0
Co375 Co 0.97958 0.11708 0.88064 0.0
C376 C 0.93761 0.10111 0.85108 0.0
O377 O 0.91538 0.10477 0.86096 0.0
O378 O 0.96288 0.1053 0.85727 0.0
C379 C 0.85796 0.1405 0.88145 0.0
O380 O 0.86972 0.14334 0.86548 0.0
C381 C 0.03367 0.08616 0.87519 0.0
C382 C 0.06568 0.11855 0.88404 0.0
C383 C 0.06296 0.09031 0.87813 0.0
N384 N 0.01987 0.11069 0.87943 0.0
N385 N 0.03912 0.13014 0.8844 0.0
C386 C 0.0185 0.05879 0.87023 0.0
H387 H 0.9954 0.05988 0.87411 0.0
H388 H 0.02889 0.04001 0.87683 0.0
H389 H 0.01977 0.05574 0.85546 0.0
C390 C 0.92837 0.08259 0.91787 0.0
N391 N 0.93492 0.0977 0.90286 0.0
N392 N 0.96307 0.09693 0.90045 0.0
C393 C 0.97526 0.08177 0.91391 0.0
C394 C 0.95377 0.07171 0.92524 0.0
C395 C 0.8985 0.07905 0.92508 0.0
H396 H 0.89278 0.0985 0.93302 0.0
H397 H 0.8829 0.07716 0.91383 0.0
H398 H 0.89703 0.05984 0.93394 0.0
O399 O 0.92691 0.16083 0.88598 0.0
O400 O 0.9744 0.15873 0.88359 0.0
H401 H 0.01782 0.10011 0.91361 0.0
H402 H 0.01187 0.07473 0.93147 0.0
C403 C 0.00708 0.07957 0.91718 0.0
H404 H 0.01611 0.06193 0.90885 0.0
H405 H 0.03401 0.15096 0.88869 0.0
O406 O 0.87197 0.12689 0.89348 0.0
C407 C 0.95132 0.17322 0.88521 0.0
Co408 Co 0.87889 0.09258 0.62527 0.0
Co409 Co 0.88695 0.02589 0.62949 0.0
C410 C 0.90278 0.06605 0.65939 0.0
O411 O 0.89594 0.0882 0.65009 0.0
O412 O 0.90074 0.04067 0.6529 0.0
C413 C 0.85935 0.14754 0.63197 0.0
O414 O 0.85692 0.13498 0.64773 0.0
C415 C 0.91362 0.96851 0.63369 0.0
C416 C 0.88375 0.94226 0.61723 0.0
C417 C 0.90907 0.94095 0.62703 0.0
N418 N 0.89209 0.98545 0.6278 0.0
N419 N 0.87403 0.96949 0.6183 0.0
C420 C 0.93937 0.97929 0.64377 0.0
H421 H 0.94223 0.0028 0.64159 0.0
H422 H 0.95912 0.96754 0.63956 0.0
H423 H 0.93601 0.97546 0.65835 0.0
C424 C 0.91369 0.08055 0.59177 0.0
N425 N 0.90114 0.07259 0.60742 0.0
N426 N 0.9047 0.04461 0.6096 0.0
C427 C 0.91959 0.03399 0.5955 0.0
C428 C 0.92567 0.05623 0.58368 0.0
C429 C 0.91259 0.11043 0.58429 0.0
H430 H 0.92004 0.12597 0.59465 0.0
H431 H 0.92606 0.11245 0.57202 0.0
H432 H 0.88989 0.1159 0.581 0.0
O433 O 0.83876 0.07767 0.626 0.0
O434 O 0.84504 0.03066 0.62875 0.0
H435 H 0.90801 0.98981 0.59146 0.0
H436 H 0.94199 -0.00036 0.58139 0.0
C437 C 0.92777 0.00297 0.5932 0.0
H438 H 0.93937 0.99548 0.60532 0.0
H439 H 0.85567 0.9775 0.6119 0.0
O440 O 0.87189 0.13388 0.61936 0.0
C441 C 0.82852 0.05237 0.62749 0.0
Co442 Co 0.41167 0.87892 0.62619 0.0
Co443 Co 0.47724 0.89127 0.6332 0.0
C444 C 0.43242 0.9031 0.66137 0.0
O445 O 0.4117 0.89494 0.65127 0.0
O446 O 0.45834 0.90312 0.65573 0.0
C447 C 0.35716 0.85611 0.63036 0.0
O448 O 0.36839 0.85318 0.64647 0.0
C449 C 0.52862 0.92732 0.6382 0.0
C450 C 0.56324 0.89665 0.631 0.0
C451 C 0.55826 0.92513 0.63577 0.0
N452 N 0.5168 0.90144 0.6347 0.0
N453 N 0.53763 0.88309 0.63073 0.0
C454 C 0.51132 0.95385 0.64208 0.0
H455 H 0.48846 0.95064 0.63808 0.0
H456 H 0.52047 0.97274 0.63492 0.0
H457 H 0.51198 0.95828 0.65673 0.0
C458 C 0.42448 0.91628 0.59406 0.0
N459 N 0.43195 0.90328 0.60964 0.0
N460 N 0.45964 0.90771 0.61255 0.0
C461 C 0.4707 0.92311 0.59883 0.0
C462 C 0.44879 0.92957 0.58682 0.0
C463 C 0.39484 0.91544 0.58618 0.0
H464 H 0.37853 0.91766 0.59701 0.0
H465 H 0.39189 0.93276 0.57605 0.0
H466 H 0.39149 0.89421 0.5796 0.0
O467 O 0.42981 0.84018 0.62717 0.0
O468 O 0.47612 0.84913 0.63182 0.0
H469 H 0.51493 0.90952 0.60043 0.0
H470 H 0.50721 0.93234 0.58157 0.0
C471 C 0.50226 0.92842 0.59595 0.0
H472 H 0.50898 0.94768 0.60371 0.0
H473 H 0.53426 0.86156 0.62719 0.0
O474 O 0.3716 0.86952 0.61844 0.0
C475 C 0.45552 0.83144 0.62953 0.0
Co476 Co 0.61702 0.41024 0.6332 0.0
Co477 Co 0.61171 0.47643 0.64053 0.0
C478 C 0.59327 0.43217 0.66802 0.0
O479 O 0.59909 0.41073 0.65786 0.0
O480 O 0.59702 0.45795 0.66261 0.0
C481 C 0.63761 0.35528 0.63694 0.0
O482 O 0.63905 0.36579 0.65332 0.0
C483 C 0.57961 0.53004 0.64541 0.0
C484 C 0.61326 0.56262 0.63979 0.0
C485 C 0.58413 0.55951 0.64358 0.0
N486 N 0.6048 0.51653 0.64252 0.0
N487 N 0.62494 0.5361 0.63951 0.0
C488 C 0.5516 0.51454 0.64806 0.0
H489 H 0.55357 0.49163 0.64387 0.0
H490 H 0.53412 0.52519 0.64033 0.0
H491 H 0.54581 0.51511 0.66252 0.0
C492 C 0.58166 0.42737 0.60074 0.0
N493 N 0.59568 0.43317 0.61628 0.0
N494 N 0.59464 0.46118 0.61924 0.0
C495 C 0.58067 0.47405 0.60552 0.0
C496 C 0.57139 0.45314 0.59351 0.0
C497 C 0.57812 0.39776 0.5931 0.0
H498 H 0.57701 0.38161 0.60408 0.0
H499 H 0.55844 0.39646 0.58463 0.0
H500 H 0.59713 0.39269 0.58461 0.0
O501 O 0.65727 0.42481 0.63546 0.0
O502 O 0.65359 0.47176 0.64013 0.0
H503 H 0.59877 0.5166 0.60793 0.0
H504 H 0.57682 0.5114 0.58828 0.0
C505 C 0.57904 0.50603 0.60275 0.0
H506 H 0.55995 0.5147 0.60989 0.0
H507 H 0.64642 0.5313 0.63658 0.0
O508 O 0.62481 0.37009 0.62494 0.0
C509 C 0.66887 0.44927 0.63819 0.0
Co510 Co 0.08434 0.61898 0.62868 0.0
Co511 Co 0.02125 0.5993 0.63819 0.0
C512 C 0.06895 0.59343 0.66479 0.0
O513 O 0.08743 0.60426 0.65402 0.0
O514 O 0.04284 0.58969 0.66008 0.0
C515 C 0.13432 0.64922 0.63185 0.0
O516 O 0.12101 0.65284 0.64728 0.0
C517 C 0.97209 0.56034 0.64591 0.0
C518 C 0.93564 0.58951 0.63986 0.0
C519 C 0.94216 0.56175 0.64539 0.0
N520 N 0.98262 0.58609 0.64072 0.0
N521 N 0.96069 0.6034 0.63722 0.0
C522 C 0.99036 0.53563 0.65207 0.0
H523 H 0.0121 0.54323 0.65607 0.0
H524 H 0.99295 0.51994 0.64094 0.0
H525 H 0.97985 0.52435 0.66349 0.0
C526 C 0.07259 0.58022 0.597 0.0
N527 N 0.06553 0.59201 0.61302 0.0
N528 N 0.03892 0.58434 0.6171 0.0
C529 C 0.02822 0.56778 0.6038 0.0
C530 C 0.04925 0.56418 0.59075 0.0
C531 C 0.10064 0.58525 0.58761 0.0
H532 H 0.10018 0.60688 0.58122 0.0
H533 H 0.11855 0.58505 0.5975 0.0
H534 H 0.10444 0.56871 0.57708 0.0
O535 O 0.06221 0.65544 0.62917 0.0
O536 O 0.01822 0.64147 0.63676 0.0
H537 H 0.98305 0.57695 0.60642 0.0
H538 H 0.99137 0.55249 0.58845 0.0
C539 C 0.99721 0.55887 0.60235 0.0
H540 H 0.99322 0.54029 0.61136 0.0
H541 H 0.96282 0.62472 0.63292 0.0
O542 O 0.12308 0.63226 0.62033 0.0
C543 C 0.03613 0.66125 0.63293 0.0
H544 H 0.53858 0.93393 0.15823 0.0
H545 H 0.50442 0.89363 0.15969 0.0
H546 H 0.5472 0.85318 0.11478 0.0
H547 H 0.58052 0.89368 0.11278 0.0
H548 H 0.48648 0.84975 0.11319 0.0
H549 H 0.53085 0.8152 0.17946 0.0
H550 H 0.5166 0.85118 0.17782 0.0
H551 H 0.54874 0.84178 0.16571 0.0
C552 C 0.5402 0.91685 0.14837 0.0
C553 C 0.56209 0.91706 0.13529 0.0
C554 C 0.52088 0.8937 0.14936 0.0
C555 C 0.52345 0.87042 0.13741 0.0
C556 C 0.5448 0.87102 0.12409 0.0
H557 H 0.51082 0.69359 0.13508 0.0
H558 H 0.52009 0.74519 0.13693 0.0
C559 C 0.56397 0.89406 0.12307 0.0
C560 C 0.50568 0.84415 0.1393 0.0
H561 H 0.5002 0.78308 0.16459 0.0
C562 C 0.48885 0.83536 0.12459 0.0
C563 C 0.50903 0.82553 0.1542 0.0
C564 C 0.52738 0.83366 0.17019 0.0
C565 C 0.47687 0.8076 0.12385 0.0
C566 C 0.48163 0.78846 0.13831 0.0
C567 C 0.4967 0.79796 0.15355 0.0
C568 C 0.47504 0.7574 0.13685 0.0
C569 C 0.46102 0.79822 0.10712 0.0
C570 C 0.44657 0.74727 0.13605 0.0
C571 C 0.44114 0.71763 0.13487 0.0
C572 C 0.46415 0.6978 0.1346 0.0
C573 C 0.4926 0.70821 0.13528 0.0
C574 C 0.49795 0.7377 0.1364 0.0
H575 H 0.46207 0.81469 0.0963 0.0
H576 H 0.47017 0.77769 0.10194 0.0
H577 H 0.43801 0.79432 0.11042 0.0
H578 H 0.42863 0.7622 0.13656 0.0
H579 H 0.41896 0.71028 0.13447 0.0
H580 H 0.79 0.41167 0.13515 0.0
H581 H 0.73772 0.41948 0.13678 0.0
H582 H 0.75066 0.51067 0.12872 0.0
H583 H 0.80274 0.50326 0.12724 0.0
H584 H 0.71051 0.46054 0.16311 0.0
H585 H 0.68638 0.48438 0.0916 0.0
H586 H 0.7175 0.4637 0.09858 0.0
H587 H 0.71784 0.50237 0.10024 0.0
C588 C 0.78167 0.43334 0.13351 0.0
C589 C 0.80047 0.45689 0.13109 0.0
C590 C 0.75187 0.43771 0.13448 0.0
C591 C 0.74051 0.46557 0.1327 0.0
C592 C 0.75913 0.48897 0.1299 0.0
H593 H 0.61033 0.57454 0.1637 0.0
H594 H 0.65037 0.54038 0.16211 0.0
C595 C 0.78885 0.4847 0.12915 0.0
C596 C 0.70939 0.47097 0.13491 0.0
H597 H 0.65243 0.50188 0.11339 0.0
C598 C 0.69748 0.46892 0.15219 0.0
C599 C 0.69249 0.4815 0.12057 0.0
C600 C 0.70406 0.48291 0.10165 0.0
C601 C 0.66969 0.47939 0.15577 0.0
C602 C 0.65375 0.49229 0.14173 0.0
C603 C 0.66479 0.4921 0.12416 0.0
C604 C 0.62772 0.50973 0.14527 0.0
C605 C 0.6581 0.47771 0.17468 0.0
C606 C 0.6017 0.50371 0.1364 0.0
C607 C 0.57877 0.52322 0.13733 0.0
C608 C 0.58175 0.54911 0.14699 0.0
C609 C 0.60746 0.55458 0.15633 0.0
C610 C 0.63022 0.53499 0.15554 0.0
H611 H 0.66806 0.45958 0.18222 0.0
H612 H 0.66335 0.49802 0.18188 0.0
H613 H 0.6343 0.47496 0.17471 0.0
H614 H 0.59961 0.48455 0.12815 0.0
H615 H 0.55954 0.51889 0.12954 0.0
H616 H 0.08552 0.7862 0.13074 0.0
H617 H 0.0763 0.73422 0.13318 0.0
H618 H 0.98588 0.74893 0.12321 0.0
H619 H 0.99469 0.80072 0.1209 0.0
H620 H 0.03369 0.70944 0.15928 0.0
H621 H 0.01171 0.68207 0.08796 0.0
H622 H 0.03278 0.71314 0.0946 0.0
H623 H 0.99408 0.71427 0.09576 0.0
C624 C 0.06373 0.77831 0.12884 0.0
C625 C 0.04079 0.79754 0.12566 0.0
C626 C 0.05855 0.74868 0.13027 0.0
C627 C 0.0305 0.7379 0.12821 0.0
C628 C 0.00773 0.75693 0.12461 0.0
H629 H 0.91941 0.60861 0.16035 0.0
H630 H 0.95304 0.6491 0.15828 0.0
C631 C 0.0128 0.78649 0.12339 0.0
C632 C 0.02421 0.70705 0.13097 0.0
H633 H 0.99319 0.64942 0.11013 0.0
C634 C 0.02545 0.69599 0.1485 0.0
C635 C 0.01382 0.6896 0.11683 0.0
C636 C 0.01322 0.70022 0.09768 0.0
C637 C 0.01447 0.66852 0.15247 0.0
C638 C 0.0019 0.65201 0.13855 0.0
C639 C 0.00272 0.66222 0.1208 0.0
C640 C 0.98451 0.62601 0.14231 0.0
C641 C 0.01541 0.65783 0.17159 0.0
C642 C 0.99116 0.59961 0.13407 0.0
C643 C 0.97197 0.57643 0.13527 0.0
C644 C 0.94577 0.5795 0.14458 0.0
C645 C 0.93962 0.60565 0.15326 0.0
C646 C 0.95888 0.62869 0.1522 0.0
H647 H 0.03316 0.66824 0.17927 0.0
H648 H 0.99478 0.66327 0.17835 0.0
H649 H 0.01827 0.63406 0.17209 0.0
H650 H 0.01061 0.59734 0.12612 0.0
H651 H 0.97685 0.55685 0.12797 0.0
H652 H 0.89761 0.92884 0.10925 0.0
H653 H 0.85938 0.96475 0.1103 0.0
H654 H 0.89837 0.00333 0.15717 0.0
H655 H 0.93649 0.96666 0.1565 0.0
H656 H 0.84191 0.99163 0.16201 0.0
H657 H 0.85422 0.04943 0.09781 0.0
H658 H 0.855 0.01127 0.09398 0.0
H659 H 0.88286 0.02788 0.10736 0.0
C660 C 0.89827 0.94516 0.11967 0.0
C661 C 0.92019 0.94513 0.13268 0.0
C662 C 0.87664 0.96596 0.12009 0.0
C663 C 0.87647 0.98721 0.13351 0.0
C664 C 0.89848 0.98746 0.14648 0.0
H665 H 0.71513 0.08836 0.12717 0.0
H666 H 0.76729 0.08073 0.13044 0.0
C667 C 0.92029 0.96659 0.14603 0.0
C668 C 0.85111 0.00636 0.13513 0.0
H669 H 0.80456 0.04522 0.10919 0.0
C670 C 0.83414 0.00411 0.15067 0.0
C671 C 0.84119 0.02314 0.12051 0.0
C672 C 0.8595 0.02833 0.10407 0.0
C673 C 0.80623 0.01562 0.15121 0.0
C674 C 0.79502 0.02926 0.13572 0.0
C675 C 0.81305 0.03422 0.12092 0.0
C676 C 0.76379 0.03451 0.13374 0.0
C677 C 0.78838 0.01169 0.16798 0.0
C678 C 0.74486 0.01094 0.134 0.0
C679 C 0.71531 0.0151 0.13204 0.0
C680 C 0.70403 0.04299 0.1297 0.0
C681 C 0.72314 0.06661 0.129 0.0
C682 C 0.75288 0.06235 0.13092 0.0
H683 H 0.8023 0.01001 0.1801 0.0
H684 H 0.77303 0.02983 0.16985 0.0
H685 H 0.77583 0.99137 0.16687 0.0
H686 H 0.753 0.9892 0.13571 0.0
H687 H 0.70131 0.99641 0.13254 0.0
H688 H 0.91298 0.28561 0.3851 0.0
H689 H 0.92326 0.2339 0.38225 0.0
H690 H 0.01412 0.25099 0.38851 0.0
H691 H 0.00426 0.30257 0.39119 0.0
H692 H 0.96582 0.20984 0.35443 0.0
H693 H 0.99079 0.18444 0.42574 0.0
H694 H 0.9682 0.21445 0.41919 0.0
H695 H 0.00671 0.21709 0.4172 0.0
C696 C 0.93513 0.27832 0.38604 0.0
C697 C 0.95784 0.29815 0.38834 0.0
C698 C 0.94091 0.24884 0.38438 0.0
C699 C 0.96937 0.23883 0.3853 0.0
C700 C 0.99199 0.25844 0.38793 0.0
H701 H 0.07895 0.10706 0.35346 0.0
H702 H 0.04624 0.14832 0.35531 0.0
C703 C 0.98631 0.28787 0.38939 0.0
C704 C 0.97603 0.20807 0.38265 0.0
H705 H 0.00736 0.15087 0.40369 0.0
C706 C 0.97435 0.19664 0.36523 0.0
C707 C 0.98682 0.191 0.39683 0.0
C708 C 0.98808 0.2022 0.41585 0.0
C709 C 0.98507 0.16902 0.3614 0.0
C710 C 0.99782 0.15276 0.37535 0.0
C711 C 0.99764 0.16347 0.393 0.0
C712 C 0.01456 0.12633 0.37172 0.0
C713 C 0.9836 0.15786 0.34238 0.0
C714 C 0.00746 0.10032 0.38026 0.0
C715 C 0.02611 0.07672 0.37919 0.0
C716 C 0.05222 0.07898 0.3697 0.0
C717 C 0.0588 0.10474 0.3607 0.0
C718 C 0.04006 0.1282 0.36164 0.0
H719 H 0.96596 0.16841 0.33471 0.0
H720 H 0.00425 0.16265 0.33546 0.0
H721 H 0.98022 0.13414 0.34215 0.0
H722 H 0.9881 0.0987 0.38836 0.0
H723 H 0.02094 0.05747 0.38675 0.0
H724 H 0.20886 0.91179 0.38166 0.0
H725 H 0.26077 0.92053 0.37827 0.0
H726 H 0.24468 0.0119 0.37393 0.0
H727 H 0.19311 0.00351 0.37702 0.0
H728 H 0.28232 0.98936 0.34734 0.0
H729 H 0.3138 0.95705 0.41682 0.0
H730 H 0.29368 0.93172 0.40343 0.0
H731 H 0.27678 0.96442 0.41088 0.0
C732 C 0.21642 0.93375 0.38005 0.0
C733 C 0.19684 0.95698 0.37965 0.0
C734 C 0.24605 0.93866 0.37813 0.0
C735 C 0.25647 0.96685 0.37592 0.0
C736 C 0.23699 0.98997 0.37554 0.0
H737 H 0.38923 0.07573 0.3979 0.0
H738 H 0.34992 0.04105 0.39618 0.0
C739 C 0.20751 0.98512 0.37738 0.0
C740 C 0.2876 0.97302 0.37419 0.0
H741 H 0.34862 0.98053 0.39934 0.0
C742 C 0.29714 0.98687 0.35852 0.0
C743 C 0.30672 0.96954 0.38882 0.0
C744 C 0.29738 0.95501 0.40601 0.0
C745 C 0.32459 -0.00053 0.3576 0.0
C746 C 0.34304 0.99766 0.37269 0.0
C747 C 0.33435 0.98177 0.38781 0.0
C748 C 0.36864 0.01647 0.37436 0.0
C749 C 0.33267 0.01662 0.34111 0.0
C750 C 0.39238 0.01396 0.36275 0.0
C751 C 0.41488 0.03409 0.36358 0.0
C752 C 0.41397 0.05676 0.37614 0.0
C753 C 0.39048 0.05862 0.388 0.0
C754 C 0.36812 0.03866 0.38715 0.0
H755 H 0.31442 0.0187 0.33151 0.0
H756 H 0.33996 0.03859 0.34497 0.0
H757 H 0.35077 0.00578 0.33407 0.0
H758 H 0.3932 0.99687 0.35284 0.0
H759 H 0.43236 0.0324 0.35402 0.0
H760 H 0.58111 0.21312 0.38355 0.0
H761 H 0.57214 0.26532 0.38342 0.0
H762 H 0.48162 0.24984 0.3926 0.0
H763 H 0.49017 0.19793 0.3926 0.0
H764 H 0.52916 0.29351 0.35859 0.0
H765 H 0.50814 0.31182 0.43111 0.0
H766 H 0.52923 0.28177 0.42287 0.0
H767 H 0.4905 0.28055 0.42194 0.0
C768 C 0.55935 0.22088 0.38572 0.0
C769 C 0.53631 0.20144 0.38804 0.0
C770 C 0.55431 0.25062 0.38562 0.0
C771 C 0.52631 0.26123 0.38818 0.0
C772 C 0.50343 0.24194 0.39083 0.0
H773 H 0.41275 0.39092 0.36245 0.0
H774 H 0.44735 0.35114 0.36286 0.0
C775 C 0.50835 0.21231 0.39073 0.0
C776 C 0.5201 0.29233 0.38697 0.0
H777 H 0.48839 0.34666 0.41062 0.0
C778 C 0.52092 0.30549 0.37002 0.0
C779 C 0.50971 0.30785 0.40196 0.0
C780 C 0.50954 0.29491 0.42055 0.0
C781 C 0.50937 0.33312 0.36741 0.0
C782 C 0.49663 0.34761 0.38211 0.0
C783 C 0.49802 0.33538 0.39934 0.0
C784 C 0.4784 0.37338 0.37963 0.0
C785 C 0.50976 0.34608 0.34882 0.0
C786 C 0.48442 0.39899 0.38894 0.0
C787 C 0.46466 0.42174 0.38871 0.0
C788 C 0.43852 0.41901 0.37929 0.0
C789 C 0.43288 0.39361 0.36965 0.0
C790 C 0.45271 0.37102 0.36976 0.0
H791 H 0.52769 0.33712 0.34063 0.0
H792 H 0.4892 0.34087 0.34191 0.0
H793 H 0.51197 0.36992 0.34942 0.0
H794 H 0.5039 0.40094 0.3969 0.0
H795 H 0.46915 0.44068 0.39673 0.0
H796 H 0.05825 0.4715 0.35937 0.0
H797 H 0.09701 0.50761 0.35935 0.0
H798 H 0.13807 0.46344 0.4035 0.0
H799 H 0.09926 0.42812 0.40398 0.0
H800 H 0.13899 0.52447 0.40661 0.0
H801 H 0.17712 0.48508 0.33981 0.0
H802 H 0.14064 0.49796 0.34166 0.0
H803 H 0.15096 0.46523 0.3528 0.0
C804 C 0.07515 0.46995 0.36934 0.0
C805 C 0.0757 0.44703 0.38171 0.0
C806 C 0.09739 0.49043 0.36921 0.0
C807 C 0.12043 0.48805 0.38137 0.0
C808 C 0.12041 0.46573 0.39406 0.0
H809 H 0.29447 0.4956 0.38995 0.0
H810 H 0.2427 0.48935 0.38627 0.0
C811 C 0.09835 0.4454 0.39419 0.0
C812 C 0.14616 0.50679 0.38023 0.0
H813 H 0.20893 0.51319 0.35668 0.0
C814 C 0.15404 0.52279 0.39549 0.0
C815 C 0.16565 0.5044 0.36568 0.0
C816 C 0.15841 0.48719 0.34905 0.0
C817 C 0.18184 0.53445 0.39722 0.0
C818 C 0.20198 0.53012 0.38324 0.0
C819 C 0.1933 0.51632 0.36736 0.0
C820 C 0.23312 0.53502 0.386 0.0
C821 C 0.19029 0.54918 0.41453 0.0
C822 C 0.24478 0.56286 0.38728 0.0
C823 C 0.27455 0.56657 0.38949 0.0
C824 C 0.29298 0.54245 0.39034 0.0
C825 C 0.28099 0.51465 0.38931 0.0
C826 C 0.25139 0.51101 0.38714 0.0
H827 H 0.17251 0.54919 0.42454 0.0
H828 H 0.20934 0.53829 0.42051 0.0
H829 H 0.19643 0.57188 0.41171 0.0
H830 H 0.23096 0.58163 0.38631 0.0
H831 H 0.28314 0.58828 0.39016 0.0
H832 H 0.43757 0.10698 0.85525 0.0
H833 H 0.47355 0.14502 0.85866 0.0
H834 H 0.52456 0.08935 0.89253 0.0
H835 H 0.48824 0.05138 0.88947 0.0
H836 H 0.51084 0.14034 0.90857 0.0
H837 H 0.5547 0.16228 0.84101 0.0
H838 H 0.5161 0.16001 0.8404 0.0
H839 H 0.53693 0.12874 0.84658 0.0
C840 C 0.45687 0.10258 0.86299 0.0
C841 C 0.46031 0.07611 0.87187 0.0
C842 C 0.47755 0.12421 0.8648 0.0
C843 C 0.50201 0.11981 0.87558 0.0
C844 C 0.50609 0.09296 0.8839 0.0
H845 H 0.59639 0.2836 0.88838 0.0
H846 H 0.59149 0.23101 0.88596 0.0
C847 C 0.48542 0.0712 0.88201 0.0
C848 C 0.52035 0.14478 0.88032 0.0
H849 H 0.55252 0.20358 0.86148 0.0
C850 C 0.52076 0.15376 0.89834 0.0
C851 C 0.53365 0.16208 0.86706 0.0
C852 C 0.5356 0.15259 0.84771 0.0
C853 C 0.53158 0.18091 0.90316 0.0
C854 C 0.54194 0.19949 0.88958 0.0
C855 C 0.54418 0.18939 0.87185 0.0
C856 C 0.54621 0.23058 0.89293 0.0
C857 C 0.53041 0.19011 0.92259 0.0
C858 C 0.52236 0.24756 0.89767 0.0
C859 C 0.52496 0.27743 0.8989 0.0
C860 C 0.55152 0.29092 0.89542 0.0
C861 C 0.57567 0.27379 0.89122 0.0
C862 C 0.57295 0.24381 0.88982 0.0
H863 H 0.53109 0.17117 0.93173 0.0
H864 H 0.54855 0.20481 0.92596 0.0
H865 H 0.50986 0.20173 0.92508 0.0
H866 H 0.5014 0.23777 0.89979 0.0
H867 H 0.50597 0.28999 0.90219 0.0
H868 H 0.39896 0.41163 0.91709 0.0
H869 H 0.35432 0.43916 0.9139 0.0
H870 H 0.37443 0.45548 0.8582 0.0
H871 H 0.41965 0.42841 0.86148 0.0
H872 H 0.35076 0.50314 0.87529 0.0
H873 H 0.28543 0.40514 0.88792 0.0
H874 H 0.3102 0.41257 0.90585 0.0
H875 H 0.32375 0.40369 0.88385 0.0
C876 C 0.39392 0.42127 0.9042 0.0
C877 C 0.41258 0.4179 0.88951 0.0
C878 C 0.36845 0.4369 0.90239 0.0
C879 C 0.36084 0.44878 0.88572 0.0
C880 C 0.37994 0.44635 0.87116 0.0
H881 H 0.18273 0.49122 0.86377 0.0
H882 H 0.23179 0.47251 0.86215 0.0
C883 C 0.40573 0.431 0.87304 0.0
C884 C 0.33233 0.46254 0.88343 0.0
H885 H 0.26044 0.44995 0.88875 0.0
C886 C 0.33094 0.49153 0.87808 0.0
C887 C 0.30655 0.44711 0.88673 0.0
C888 C 0.30647 0.41533 0.89121 0.0
C889 C 0.30434 0.50579 0.87644 0.0
C890 C 0.27866 0.49074 0.88071 0.0
C891 C 0.28014 0.46156 0.88564 0.0
C892 C 0.24985 0.50446 0.88017 0.0
C893 C 0.30401 0.5366 0.86994 0.0
C894 C 0.24373 0.52889 0.89068 0.0
C895 C 0.21569 0.53992 0.89143 0.0
C896 C 0.19325 0.52624 0.88201 0.0
C897 C 0.19953 0.50206 0.87131 0.0
C898 C 0.22757 0.4914 0.87033 0.0
H899 H 0.32368 0.54176 0.86202 0.0
H900 H 0.28475 0.541 0.8615 0.0
H901 H 0.30348 0.5513 0.88171 0.0
H902 H 0.2604 0.53888 0.89877 0.0
H903 H 0.2114 0.5585 0.89985 0.0
H904 H -0.00078 0.20652 0.88978 0.0
H905 H 0.00245 0.259 0.8887 0.0
H906 H 0.91062 0.26471 0.88019 0.0
H907 H 0.90704 0.21192 0.88133 0.0
H908 H 0.94673 0.29643 0.8549 0.0
H909 H 0.97386 0.32001 0.92585 0.0
H910 H 0.99477 0.29092 0.91666 0.0
H911 H 0.95633 0.28697 0.91893 0.0
C912 C 0.97963 0.21887 0.88785 0.0
C913 C 0.95288 0.20506 0.88563 0.0
C914 C 0.9815 0.24886 0.88735 0.0
C915 C 0.95672 0.26562 0.88459 0.0
C916 C 0.92991 0.25205 0.88249 0.0
H917 H 0.0079 0.4466 0.88973 0.0
H918 H 0.97271 0.4073 0.89132 0.0
C919 C 0.92795 0.22195 0.88316 0.0
C920 C 0.95969 0.29718 0.88271 0.0
H921 H 0.98977 0.35494 0.90389 0.0
C922 C 0.95541 0.30953 0.86571 0.0
C923 C 0.97045 0.31429 0.89692 0.0
C924 C 0.97385 0.30246 0.91568 0.0
C925 C 0.96424 0.33791 0.86214 0.0
C926 C 0.97788 0.35399 0.87587 0.0
C927 C 0.97954 0.34252 0.8933 0.0
C928 C 0.99477 0.38032 0.87196 0.0
C929 C 0.96011 0.34992 0.84349 0.0
C930 C 0.01845 0.37842 0.86028 0.0
C931 C 0.03847 0.4008 0.85933 0.0
C932 C 0.03511 0.42554 0.86999 0.0
C933 C 0.01057 0.42819 0.88096 0.0
C934 C 0.99058 0.40564 0.88199 0.0
H935 H 0.94082 0.34034 0.83693 0.0
H936 H 0.95774 0.37376 0.84373 0.0
H937 H 0.97918 0.3444 0.83514 0.0
H938 H 0.02257 0.35881 0.85278 0.0
H939 H 0.05736 0.39816 0.85092 0.0
H940 H 0.28939 0.92268 0.88547 0.0
H941 H 0.23811 0.93435 0.88205 0.0
H942 H 0.25983 0.02392 0.87414 0.0
H943 H 0.31085 0.01261 0.87733 0.0
H944 H 0.20443 0.97196 0.90223 0.0
H945 H 0.20772 0.0064 0.83118 0.0
H946 H 0.23636 0.98574 0.84145 0.0
H947 H 0.23486 0.02431 0.84426 0.0
C948 C 0.28324 0.94487 0.88298 0.0
C949 C 0.30423 0.96671 0.88158 0.0
C950 C 0.25397 0.95143 0.88098 0.0
C951 C 0.24533 0.97985 0.87742 0.0
C952 C 0.26616 0.00171 0.87638 0.0
H953 H 0.10819 0.08717 0.90096 0.0
H954 H 0.14867 0.05372 0.90008 0.0
C955 C 0.29532 0.99523 0.87837 0.0
C956 C 0.21451 0.98736 0.87564 0.0
H957 H 0.16854 0.02574 0.84909 0.0
C958 C 0.19632 0.98315 0.89046 0.0
C959 C 0.20377 0.00128 0.86011 0.0
C960 C 0.22164 0.00441 0.84328 0.0
C961 C 0.16841 0.99477 0.89075 0.0
C962 C 0.15884 0.01137 0.87596 0.0
C963 C 0.17609 0.01337 0.86053 0.0
C964 C 0.1329 0.02979 0.87709 0.0
C965 C 0.14983 0.99 0.90712 0.0
C966 C 0.11097 0.02796 0.86413 0.0
C967 C 0.08787 0.04737 0.86447 0.0
C968 C 0.08654 0.06893 0.87773 0.0
C969 C 0.10859 0.0707 0.89062 0.0
C970 C 0.13154 0.05135 0.89029 0.0
H971 H 0.15531 0.96931 0.91385 0.0
H972 H 0.15373 0.00765 0.91691 0.0
H973 H 0.12655 0.98984 0.90361 0.0
H974 H 0.11197 0.01181 0.85362 0.0
H975 H 0.07164 0.046 0.85406 0.0
H976 H 0.98662 0.68268 0.64743 0.0
H977 H 0.96971 0.73247 0.64699 0.0
H978 H 0.0461 0.75813 0.61799 0.0
H979 H 0.06373 0.70835 0.61887 0.0
H980 H 0.03155 0.79697 0.64425 0.0
H981 H 0.93619 0.76984 0.60265 0.0
H982 H 0.93761 0.74927 0.62303 0.0
H983 H 0.96532 0.74476 0.60631 0.0
C984 C -0.00014 0.69888 0.64095 0.0
C985 C 0.02634 0.69153 0.63297 0.0
C986 C 0.99012 0.72731 0.64068 0.0
C987 C 0.00636 0.7488 0.63211 0.0
C988 C 0.03319 0.74176 0.62457 0.0
H989 H 0.92577 0.90787 0.59912 0.0
H990 H 0.95371 0.86326 0.60014 0.0
C991 C 0.04316 0.71333 0.62504 0.0
C992 C 0.9949 0.77844 0.63068 0.0
H993 H 0.93657 0.81641 0.61606 0.0
C994 C 0.01089 0.80136 0.63797 0.0
C995 C 0.9682 0.78408 0.62219 0.0
C996 C 0.95098 0.76073 0.61293 0.0
C997 C 0.00052 0.8298 0.63735 0.0
C998 C 0.97315 0.83518 0.62964 0.0
C999 C 0.95747 0.81226 0.6221 0.0
C1000 C 0.96008 0.86429 0.62898 0.0
C1001 C 0.01914 0.85376 0.6447 0.0
C1002 C 0.95492 0.88003 0.64481 0.0
C1003 C 0.93938 0.90587 0.64418 0.0
C1004 C 0.92829 0.91582 0.62777 0.0
C1005 C 0.93402 0.90044 0.61194 0.0
C1006 C 0.94999 0.87503 0.61252 0.0
H1007 H 0.04229 0.84755 0.64486 0.0
H1008 H 0.01673 0.8738 0.63667 0.0
H1009 H 0.01258 0.85845 0.65874 0.0
H1010 H 0.96183 0.87179 0.65772 0.0
H1011 H 0.93483 0.91728 0.65656 0.0
H1012 H 0.79999 0.00111 0.62878 0.0
H1013 H 0.74844 0.99312 0.63221 0.0
H1014 H 0.73364 0.08496 0.63248 0.0
H1015 H 0.78565 0.09337 0.62891 0.0
H1016 H 0.71316 0.01568 0.66165 0.0
H1017 H 0.67735 0.0505 0.59345 0.0
H1018 H 0.71437 0.04069 0.59785 0.0
H1019 H 0.70028 0.07392 0.60649 0.0
C1020 C 0.78589 0.01971 0.62947 0.0
C1021 C 0.79698 0.04791 0.62858 0.0
C1022 C 0.75642 0.01507 0.63149 0.0
C1023 C 0.73735 0.03844 0.63262 0.0
C1024 C 0.7481 0.06667 0.63153 0.0
H1025 H 0.5628 0.97269 0.65798 0.0
H1026 H 0.60176 0.00854 0.65823 0.0
C1027 C 0.77776 0.0714 0.62949 0.0
C1028 C 0.70632 0.03247 0.63505 0.0
H1029 H 0.64405 0.02504 0.61112 0.0
C1030 C 0.6977 0.01837 0.65084 0.0
C1031 C 0.68642 0.03613 0.62087 0.0
C1032 C 0.69487 0.05105 0.60364 0.0
C1033 C 0.67033 0.00572 0.65227 0.0
C1034 C 0.65107 0.00765 0.63758 0.0
C1035 C 0.65891 0.02373 0.62235 0.0
C1036 C 0.62545 0.98876 0.6364 0.0
C1037 C 0.66316 0.98835 0.66884 0.0
C1038 C 0.62555 0.96635 0.62375 0.0
C1039 C 0.60335 0.94616 0.62347 0.0
C1040 C 0.58043 0.94804 0.63575 0.0
C1041 C 0.57986 0.97097 0.64812 0.0
C1042 C 0.60223 0.9913 0.6484 0.0
H1043 H 0.68183 0.98642 0.67813 0.0
H1044 H 0.64523 0.99891 0.67621 0.0
H1045 H 0.65597 0.96633 0.66503 0.0
H1046 H 0.64336 0.96393 0.61443 0.0
H1047 H 0.6043 0.92883 0.6137 0.0
H1048 H 0.58546 0.60603 0.62178 0.0
H1049 H 0.55191 0.64643 0.62087 0.0
H1050 H 0.50075 0.60692 0.66257 0.0
H1051 H 0.53495 0.56661 0.66399 0.0
H1052 H 0.49108 0.64771 0.61453 0.0
H1053 H 0.52236 0.68741 0.6826 0.0
H1054 H 0.54359 0.66097 0.6707 0.0
H1055 H 0.50981 0.65082 0.68063 0.0
C1056 C 0.56708 0.60587 0.63077 0.0
C1057 C 0.56274 0.58306 0.64288 0.0
C1058 C 0.5478 0.62884 0.63012 0.0
C1059 C 0.52392 0.6296 0.64164 0.0
C1060 C 0.51914 0.60668 0.65359 0.0
H1061 H 0.41677 0.78659 0.62886 0.0
H1062 H 0.4273 0.73508 0.63266 0.0
C1063 C 0.53853 0.58356 0.65426 0.0
C1064 C 0.50544 0.65551 0.64162 0.0
H1065 H 0.4943 0.71801 0.66477 0.0
C1066 C 0.49111 0.66287 0.62564 0.0
C1067 C 0.50575 0.67514 0.65616 0.0
C1068 C 0.52127 0.66843 0.6735 0.0
C1069 C 0.47866 0.6902 0.6234 0.0
C1070 C 0.48046 0.71038 0.63757 0.0
C1071 C 0.49305 0.70233 0.65396 0.0
C1072 C 0.47344 0.74109 0.63485 0.0
C1073 C 0.46551 0.69808 0.60551 0.0
C1074 C 0.49593 0.76128 0.63481 0.0
C1075 C 0.49009 0.79053 0.63267 0.0
C1076 C 0.46155 0.80019 0.63058 0.0
C1077 C 0.439 0.77982 0.63037 0.0
C1078 C 0.44492 0.75043 0.63253 0.0
H1079 H 0.46817 0.68069 0.59536 0.0
H1080 H 0.44212 0.70228 0.60728 0.0
H1081 H 0.47554 0.71813 0.60026 0.0
H1082 H 0.5181 0.75437 0.63651 0.0
H1083 H 0.50798 0.80556 0.63287 0.0
H1084 H 0.94448 0.50381 0.63712 0.0
H1085 H 0.90473 0.4691 0.63901 0.0
H1086 H 0.85027 0.53491 0.66203 0.0
H1087 H 0.89002 0.56924 0.66077 0.0
H1088 H 0.84221 0.48021 0.67755 0.0
H1089 H 0.83879 0.4768 0.60257 0.0
H1090 H 0.87171 0.46622 0.61351 0.0
H1091 H 0.86014 0.50313 0.61448 0.0
C1092 C 0.9244 0.51057 0.64319 0.0
C1093 C 0.92039 0.53921 0.64892 0.0
C1094 C 0.90158 0.49081 0.64402 0.0
C1095 C 0.87449 0.49958 0.65044 0.0
C1096 C 0.87102 0.5277 0.65704 0.0
H1097 H 0.69971 0.49571 0.64973 0.0
H1098 H 0.75174 0.49945 0.65361 0.0
C1099 C 0.8937 0.54733 0.65623 0.0
C1100 C 0.84869 0.48098 0.64888 0.0
H1101 H 0.79863 0.45924 0.61804 0.0
C1102 C 0.83301 0.47486 0.66456 0.0
C1103 C 0.83678 0.47397 0.6319 0.0
C1104 C 0.85253 0.48041 0.6146 0.0
C1105 C 0.80482 0.46405 0.66364 0.0
C1106 C 0.79209 0.4594 0.64664 0.0
C1107 C 0.8086 0.46296 0.63103 0.0
C1108 C 0.76062 0.45591 0.64474 0.0
C1109 C 0.78818 0.45932 0.6808 0.0
C1110 C 0.74855 0.4303 0.63811 0.0
C1111 C 0.71864 0.428 0.6359 0.0
C1112 C 0.70055 0.45151 0.64001 0.0
C1113 C 0.71295 0.47722 0.6464 0.0
C1114 C 0.74267 0.47934 0.64877 0.0
H1115 H 0.80285 0.45597 0.69242 0.0
H1116 H 0.77478 0.47864 0.6836 0.0
H1117 H 0.77357 0.44041 0.67958 0.0
H1118 H 0.76223 0.41213 0.63474 0.0
H1119 H 0.70973 0.40792 0.63093 0.0
H1120 H 0.6708 0.17925 0.15472 0.0
H1121 H 0.70835 0.2146 0.14823 0.0
H1122 H 0.69802 0.19936 0.09145 0.0
H1123 H 0.66017 0.16358 0.09782 0.0
H1124 H 0.7607 0.19427 0.12449 0.0
H1125 H 0.70162 0.29262 0.102 0.0
H1126 H 0.68522 0.26771 0.11763 0.0
H1127 H 0.69035 0.25721 0.09469 0.0
C1128 C 0.67602 0.18377 0.14081 0.0
C1129 C 0.6626 0.16845 0.12679 0.0
C1130 C 0.69753 0.20395 0.13714 0.0
C1131 C 0.706 0.20941 0.1194 0.0
C1132 C 0.69164 0.19545 0.10524 0.0
H1133 H 0.84201 0.33869 0.09921 0.0
H1134 H 0.80715 0.3003 0.09224 0.0
C1135 C 0.66997 0.17513 0.10891 0.0
C1136 C 0.73155 0.22783 0.11615 0.0
H1137 H 0.75147 0.29733 0.10754 0.0
C1138 C 0.75881 0.21668 0.12046 0.0
C1139 C 0.72897 0.25689 0.11072 0.0
C1140 C 0.70004 0.26957 0.10596 0.0
C1141 C 0.78345 0.23426 0.12035 0.0
C1142 C 0.78062 0.26388 0.11617 0.0
C1143 C 0.75361 0.27462 0.11077 0.0
C1144 C 0.80436 0.28466 0.11958 0.0
C1145 C 0.81217 0.22113 0.12522 0.0
C1146 C 0.81464 0.28828 0.13717 0.0
C1147 C 0.83438 0.31008 0.14117 0.0
C1148 C 0.84427 0.32882 0.12767 0.0
C1149 C 0.835 0.3244 0.10987 0.0
C1150 C 0.81497 0.30262 0.10589 0.0
H1151 H 0.81267 0.1977 0.12205 0.0
H1152 H 0.83015 0.23194 0.118 0.0
H1153 H 0.8158 0.22358 0.13988 0.0
H1154 H 0.80639 0.27505 0.14802 0.0
H1155 H 0.84101 0.31297 0.15502 0.0
H1156 H 0.34002 0.65685 0.10196 0.0
H1157 H 0.304 0.69417 0.09481 0.0
H1158 H 0.29211 0.71061 0.15135 0.0
H1159 H 0.32764 0.67368 0.15859 0.0
H1160 H 0.24237 0.70317 0.10898 0.0
H1161 H 0.32039 0.78894 0.12751 0.0
H1162 H 0.33143 0.75277 0.12158 0.0
H1163 H 0.31745 0.76022 0.14363 0.0
C1164 C 0.32926 0.66801 0.11285 0.0
C1165 C 0.33689 0.66248 0.13084 0.0
C1166 C 0.30882 0.68939 0.10874 0.0
C1167 C 0.29588 0.70547 0.12257 0.0
C1168 C 0.30222 0.69874 0.14049 0.0
H1169 H 0.18085 0.83362 0.15378 0.0
H1170 H 0.21979 0.79938 0.14831 0.0
C1171 C 0.32249 0.67753 0.14459 0.0
C1172 C 0.27668 0.73026 0.11865 0.0
H1173 H 0.27068 0.80264 0.12633 0.0
C1174 C 0.24865 0.72505 0.11234 0.0
C1175 C 0.28507 0.75875 0.12301 0.0
C1176 C 0.31531 0.76566 0.12916 0.0
C1177 C 0.22813 0.7474 0.11149 0.0
C1178 C 0.2361 0.77562 0.11688 0.0
C1179 C 0.26462 0.78102 0.1222 0.0
C1180 C 0.21435 0.79876 0.11944 0.0
C1181 C 0.19762 0.74036 0.10596 0.0
C1182 C 0.19901 0.81063 0.10493 0.0
C1183 C 0.17672 0.83053 0.10802 0.0
C1184 C 0.16941 0.83863 0.12568 0.0
C1185 C 0.18584 0.82774 0.14003 0.0
C1186 C 0.20812 0.80814 0.13693 0.0
H1187 H 0.19414 0.71679 0.10431 0.0
H1188 H 0.18211 0.74865 0.11609 0.0
H1189 H 0.19275 0.75105 0.09297 0.0
H1190 H 0.20378 0.80398 0.0913 0.0
H1191 H 0.16437 0.83846 0.09669 0.0
H1192 H 0.3299 0.65538 0.42304 0.0
H1193 H 0.29209 0.6914 0.42855 0.0
H1194 H 0.3057 0.72668 0.37564 0.0
H1195 H 0.34326 0.69083 0.36997 0.0
H1196 H 0.29636 0.76881 0.40591 0.0
H1197 H 0.21342 0.68229 0.39935 0.0
H1198 H 0.24297 0.67666 0.41468 0.0
H1199 H 0.2497 0.6778 0.39097 0.0
C1200 C 0.32536 0.67129 0.41276 0.0
C1201 C 0.33946 0.67016 0.39601 0.0
C1202 C 0.30361 0.6917 0.41589 0.0
C1203 C 0.2959 0.71142 0.40241 0.0
C1204 C 0.31129 0.71158 0.38619 0.0
H1205 H 0.1566 0.80924 0.36415 0.0
H1206 H 0.19321 0.77346 0.37189 0.0
C1207 C 0.33276 0.69107 0.38298 0.0
C1208 C 0.27039 0.73044 0.40439 0.0
H1209 H 0.19683 0.73004 0.40123 0.0
C1210 C 0.27455 0.76038 0.40527 0.0
C1211 C 0.24202 0.71929 0.40332 0.0
C1212 C 0.2365 0.68728 0.40194 0.0
C1213 C 0.25108 0.77955 0.40457 0.0
C1214 C 0.22276 0.76841 0.40298 0.0
C1215 C 0.21855 0.73845 0.40263 0.0
C1216 C 0.1978 0.78759 0.39945 0.0
C1217 C 0.25676 0.8116 0.40459 0.0
C1218 C 0.18744 0.80669 0.4126 0.0
C1219 C 0.16622 0.82709 0.40826 0.0
C1220 C 0.1553 0.82881 0.39063 0.0
C1221 C 0.16464 0.80856 0.37782 0.0
C1222 C 0.18557 0.78808 0.38221 0.0
H1223 H 0.28016 0.81669 0.40391 0.0
H1224 H 0.24575 0.82198 0.39303 0.0
H1225 H 0.24789 0.82124 0.41708 0.0
H1226 H 0.19645 0.80645 0.42603 0.0
H1227 H 0.15956 0.84246 0.41841 0.0
H1228 H 0.7913 0.36566 0.37845 0.0
H1229 H 0.75507 0.3276 0.38184 0.0
H1230 H 0.81385 0.27955 0.41541 0.0
H1231 H 0.84918 0.31819 0.41298 0.0
H1232 H 0.75791 0.27671 0.36991 0.0
H1233 H 0.7432 0.26556 0.44312 0.0
H1234 H 0.76219 0.29571 0.43342 0.0
H1235 H 0.78057 0.26202 0.43747 0.0
C1236 C 0.79607 0.34737 0.38701 0.0
C1237 C 0.82298 0.34506 0.39555 0.0
C1238 C 0.77543 0.32552 0.38887 0.0
C1239 C 0.78145 0.30066 0.39906 0.0
C1240 C 0.80811 0.29876 0.40797 0.0
H1241 H 0.69839 0.13741 0.37186 0.0
H1242 H 0.7332 0.17653 0.3763 0.0
C1243 C 0.82845 0.32091 0.40647 0.0
C1244 C 0.76126 0.27559 0.3988 0.0
H1245 H 0.72905 0.22458 0.42523 0.0
C1246 C 0.75136 0.26558 0.38207 0.0
C1247 C 0.75231 0.26106 0.41461 0.0
C1248 C 0.75989 0.27188 0.43315 0.0
C1249 C 0.73319 0.24146 0.38065 0.0
C1250 C 0.72577 0.22582 0.39635 0.0
C1251 C 0.73522 0.23608 0.41313 0.0
C1252 C 0.70705 0.19968 0.39567 0.0
C1253 C 0.72154 0.23365 0.36232 0.0
C1254 C 0.68192 0.19828 0.40618 0.0
C1255 C 0.66255 0.17536 0.40415 0.0
C1256 C 0.66772 0.15358 0.39137 0.0
C1257 C 0.69371 0.15404 0.38168 0.0
C1258 C 0.71343 0.1766 0.38404 0.0
H1259 H 0.72168 0.2525 0.3531 0.0
H1260 H 0.73538 0.21673 0.35624 0.0
H1261 H 0.69912 0.22534 0.36319 0.0
H1262 H 0.67656 0.2156 0.41537 0.0
H1263 H 0.64266 0.17574 0.41179 0.0
H1264 H 0.16754 0.65534 0.92189 0.0
H1265 H 0.20055 0.69571 0.92833 0.0
H1266 H 0.20278 0.71687 0.87192 0.0
H1267 H 0.17022 0.67695 0.86543 0.0
H1268 H 0.25785 0.70196 0.91257 0.0
H1269 H 0.1876 0.7951 0.89692 0.0
H1270 H 0.17341 0.75978 0.9022 0.0
H1271 H 0.18633 0.76763 0.87993 0.0
C1272 C 0.17465 0.66901 0.91095 0.0
C1273 C 0.16627 0.66301 0.89316 0.0
C1274 C 0.19359 0.69192 0.91463 0.0
C1275 C 0.20389 0.70942 0.90061 0.0
C1276 C 0.19478 0.70393 0.88297 0.0
H1277 H 0.32366 0.8272 0.86262 0.0
H1278 H 0.28855 0.79004 0.87014 0.0
C1279 C 0.17623 0.681 0.87928 0.0
C1280 C 0.22565 0.73234 0.90383 0.0
H1281 H 0.23888 0.80317 0.89447 0.0
C1282 C 0.25362 0.72429 0.9091 0.0
C1283 C 0.22002 0.76142 0.89932 0.0
C1284 C 0.19013 0.77159 0.89445 0.0
C1285 C 0.27656 0.74418 0.90865 0.0
C1286 C 0.27124 0.77272 0.90288 0.0
C1287 C 0.24293 0.78118 0.89877 0.0
C1288 C 0.29494 0.79321 0.89886 0.0
C1289 C 0.30666 0.73421 0.91315 0.0
C1290 C 0.31072 0.80688 0.91255 0.0
C1291 C 0.33104 0.8283 0.90827 0.0
C1292 C 0.33565 0.83637 0.89025 0.0
C1293 C 0.32058 0.82167 0.87663 0.0
C1294 C 0.30044 0.80042 0.8809 0.0
H1295 H 0.30744 0.71086 0.91649 0.0
H1296 H 0.3213 0.73839 0.90162 0.0
H1297 H 0.31493 0.74665 0.92481 0.0
H1298 H 0.30663 0.80171 0.92651 0.0
H1299 H 0.34218 0.83933 0.91907 0.0
H1300 H 0.66803 0.34062 0.91949 0.0
H1301 H 0.707 0.30551 0.92422 0.0
H1302 H 0.72319 0.30374 0.86716 0.0
H1303 H 0.68474 0.33871 0.86238 0.0
H1304 H 0.70692 0.24985 0.9096 0.0
H1305 H 0.80432 0.30894 0.88769 0.0
H1306 H 0.77113 0.32709 0.89352 0.0
H1307 H 0.77578 0.31159 0.8715 0.0
C1308 C 0.68052 0.3334 0.90804 0.0
C1309 C 0.67335 0.34248 0.89055 0.0
C1310 C 0.70261 0.31318 0.91075 0.0
C1311 C 0.71817 0.30215 0.89606 0.0
C1312 C 0.71189 0.3123 0.87874 0.0
H1313 H 0.82135 0.16685 0.85819 0.0
H1314 H 0.78666 0.20489 0.86492 0.0
C1315 C 0.68979 0.33226 0.87601 0.0
C1316 C 0.73907 0.27813 0.89833 0.0
H1317 H 0.8068 0.2569 0.88612 0.0
C1318 C 0.72899 0.25152 0.90488 0.0
C1319 C 0.76786 0.28033 0.89219 0.0
C1320 C 0.7805 0.30863 0.88601 0.0
C1321 C 0.74638 0.22665 0.90432 0.0
C1322 C 0.77449 0.22857 0.89711 0.0
C1323 C 0.78509 0.25546 0.89149 0.0
C1324 C 0.79247 0.2027 0.89372 0.0
C1325 C 0.73419 0.19816 0.91047 0.0
C1326 C 0.80656 0.18819 0.90777 0.0
C1327 C 0.8265 0.16623 0.90396 0.0
C1328 C 0.83269 0.15867 0.88603 0.0
C1329 C 0.8172 0.17219 0.87214 0.0
C1330 C 0.79741 0.19401 0.87594 0.0
H1331 H 0.71129 0.19996 0.91472 0.0
H1332 H 0.73577 0.18205 0.89946 0.0
H1333 H 0.74705 0.18994 0.92196 0.0
H1334 H 0.80313 0.19473 0.92158 0.0
H1335 H 0.83822 0.1564 0.91496 0.0
H1336 H 0.84139 0.16903 0.59939 0.0
H1337 H 0.8057 0.20741 0.59449 0.0
H1338 H 0.80219 0.22289 0.6516 0.0
H1339 H 0.83772 0.18503 0.65657 0.0
H1340 H 0.74966 0.20647 0.60851 0.0
H1341 H 0.807 0.30432 0.63149 0.0
H1342 H 0.82569 0.27141 0.6257 0.0
H1343 H 0.80958 0.27562 0.64757 0.0
C1344 C 0.83361 0.1812 0.61084 0.0
C1345 C 0.84241 0.17402 0.62838 0.0
C1346 C 0.81308 0.20297 0.60802 0.0
C1347 C 0.80144 0.21819 0.62266 0.0
C1348 C 0.81122 0.21185 0.64007 0.0
H1349 H 0.6631 0.31745 0.65982 0.0
H1350 H 0.7018 0.28352 0.65304 0.0
C1351 C 0.83149 0.19008 0.64289 0.0
C1352 C 0.77725 0.23882 0.62023 0.0
H1353 H 0.75489 0.30615 0.63256 0.0
C1354 C 0.75094 0.2285 0.61335 0.0
C1355 C 0.77895 0.26758 0.62652 0.0
C1356 C 0.80693 0.28048 0.63306 0.0
C1357 C 0.72587 0.24561 0.61372 0.0
C1358 C 0.72727 0.27363 0.6211 0.0
C1359 C 0.75387 0.2845 0.62705 0.0
C1360 C 0.70108 0.29117 0.62439 0.0
C1361 C 0.69769 0.2332 0.6072 0.0
C1362 C 0.68724 0.30605 0.6104 0.0
C1363 C 0.66492 0.32556 0.61423 0.0
C1364 C 0.65633 0.33052 0.63213 0.0
C1365 C 0.66923 0.31426 0.64591 0.0
C1366 C 0.69142 0.29488 0.64208 0.0
H1367 H 0.69998 0.21059 0.60244 0.0
H1368 H 0.6815 0.23381 0.6182 0.0
H1369 H 0.68925 0.24655 0.596 0.0
H1370 H 0.69454 0.30352 0.59666 0.0
H1371 H 0.65557 0.33788 0.60333 0.0
H1372 H 0.31741 0.83474 0.65358 0.0
H1373 H 0.27805 0.80145 0.64698 0.0
H1374 H 0.29764 0.80646 0.59042 0.0
H1375 H 0.33739 0.84003 0.59694 0.0
H1376 H 0.2285 0.80695 0.62297 0.0
H1377 H 0.30422 0.71854 0.604 0.0
H1378 H 0.31611 0.74978 0.61649 0.0
H1379 H 0.30789 0.75297 0.59303 0.0
C1380 C 0.31314 0.82914 0.63969 0.0
C1381 C 0.33062 0.8399 0.62579 0.0
C1382 C 0.29062 0.81009 0.63595 0.0
C1383 C 0.28522 0.80117 0.61826 0.0
C1384 C 0.30172 0.81283 0.6042 0.0
H1385 H 0.15919 0.65997 0.59879 0.0
H1386 H 0.19586 0.69689 0.59197 0.0
C1387 C 0.32423 0.83218 0.60793 0.0
C1388 C 0.26305 0.77869 0.61503 0.0
H1389 H 0.2554 0.70626 0.60763 0.0
C1390 C 0.23427 0.78507 0.61925 0.0
C1391 C 0.27064 0.75016 0.61014 0.0
C1392 C 0.30138 0.74218 0.60571 0.0
C1393 C 0.21313 0.76341 0.61955 0.0
C1394 C 0.22108 0.73456 0.61582 0.0
C1395 C 0.24945 0.72841 0.61051 0.0
C1396 C 0.20105 0.71039 0.61962 0.0
C1397 C 0.1826 0.77138 0.62451 0.0
C1398 C 0.19282 0.70508 0.63743 0.0
C1399 C 0.1722 0.68413 0.64134 0.0
C1400 C 0.15933 0.6679 0.62753 0.0
C1401 C 0.16872 0.67211 0.60972 0.0
C1402 C 0.18953 0.69324 0.6058 0.0
H1403 H 0.17824 0.7946 0.622 0.0
H1404 H 0.16679 0.75826 0.61682 0.0
H1405 H 0.1792 0.76716 0.63904 0.0
H1406 H 0.20187 0.71772 0.64832 0.0
H1407 H 0.16572 0.68129 0.65522 0.0
H1408 H 0.58674 0.06484 0.05231 0.0
H1409 H 0.56149 0.04929 0.02483 0.0
H1410 H 0.49419 0.01146 0.05719 0.0
H1411 H 0.51916 0.02714 0.08446 0.0
H1412 H 0.55015 0.99083 0.01704 0.0
H1413 H 0.44837 0.05366 0.01831 0.0
H1414 H 0.47967 0.0638 0.03132 0.0
H1415 H 0.45628 0.03545 0.03903 0.0
C1416 C 0.56608 0.05405 0.05345 0.0
C1417 C 0.55472 0.04732 0.07042 0.0
C1418 C 0.55181 0.04496 0.0378 0.0
C1419 C 0.52582 0.02937 0.03894 0.0
C1420 C 0.51388 0.02388 0.05593 0.0
H1421 H 0.41437 0.94057 0.96158 0.0
H1422 H 0.43828 0.95649 0.98944 0.0
C1423 C 0.52817 0.03281 0.0715 0.0
C1424 C 0.51249 0.01649 0.02261 0.0
H1425 H 0.45022 0.01394 0.99806 0.0
C1426 C 0.52839 0.99606 0.0128 0.0
C1427 C 0.48394 0.02298 0.01724 0.0
C1428 C 0.46612 0.04535 0.02692 0.0
C1429 C 0.51641 0.98171 0.9979 0.0
C1430 C 0.48792 0.98833 0.99245 0.0
C1431 C 0.47198 0.00869 1.00231 0.0
C1432 C 0.47488 0.97578 0.97592 0.0
C1433 C 0.53423 0.95919 0.98835 0.0
C1434 C 0.48769 0.98091 0.95914 0.0
C1435 C 0.47421 0.9717 0.94337 0.0
C1436 C 0.44754 0.95735 0.94399 0.0
C1437 C 0.43513 0.95122 0.96077 0.0
C1438 C 0.44864 0.96054 0.97664 0.0
H1439 H 0.55139 0.95038 0.99721 0.0
H1440 H 0.52057 0.94107 0.98355 0.0
H1441 H 0.54487 0.96917 0.97653 0.0
H1442 H 0.50758 0.99307 0.95817 0.0
H1443 H 0.48411 0.97682 0.93057 0.0
H1444 H 0.44187 0.58557 0.05835 0.0
H1445 H 0.459 0.56264 0.0305 0.0
H1446 H 0.49286 0.49152 0.06135 0.0
H1447 H 0.47632 0.51467 0.08906 0.0
H1448 H 0.53308 0.51383 0.03888 0.0
H1449 H 0.43172 0.49428 1.00111 0.0
H1450 H 0.43647 0.53096 1.00827 0.0
H1451 H 0.43198 0.50298 0.02476 0.0
C1452 C 0.45218 0.56463 0.05905 0.0
C1453 C 0.4576 0.55172 0.07577 0.0
C1454 C 0.46203 0.55155 0.04316 0.0
C1455 C 0.47713 0.5252 0.04377 0.0
C1456 C 0.48134 0.5118 0.06049 0.0
H1457 H 0.56487 0.41154 0.968 0.0
H1458 H 0.54859 0.43695 0.99517 0.0
C1459 C 0.4717 0.52492 0.0763 0.0
C1460 C 0.49048 0.51251 0.02733 0.0
H1461 H 0.4755 0.48643 0.98539 0.0
C1462 C 0.52045 0.50776 0.0272 0.0
C1463 C 0.4741 0.5047 0.01204 0.0
C1464 C 0.44175 0.50822 0.01154 0.0
C1465 C 0.53448 0.49567 0.01222 0.0
C1466 C 0.51807 0.48766 0.99698 0.0
C1467 C 0.48813 0.49261 0.99705 0.0
C1468 C 0.53127 0.47379 0.98086 0.0
C1469 C 0.56681 0.49209 0.01275 0.0
C1470 C 0.5273 0.48606 0.96378 0.0
C1471 C 0.53651 0.47152 0.94834 0.0
C1472 C 0.54987 0.44441 0.94965 0.0
C1473 C 0.55515 0.43269 0.96671 0.0
C1474 C 0.54577 0.44719 0.98221 0.0
H1475 H 0.57689 0.50664 0.02283 0.0
H1476 H 0.57205 0.46956 0.01657 0.0
H1477 H 0.57658 0.49649 0.9994 0.0
H1478 H 0.51618 0.50648 0.96236 0.0
H1479 H 0.53192 0.48077 0.93528 0.0
H1480 H 0.98448 0.47687 0.08853 0.0
H1481 H 0.00855 0.49274 0.06094 0.0
H1482 H 0.94243 0.45137 0.02931 0.0
H1483 H 0.91819 0.43547 0.05705 0.0
H1484 H 0.02888 0.46123 0.02935 0.0
H1485 H 0.94043 0.5388 0.01473 0.0
H1486 H 0.94519 0.5225 0.03657 0.0
H1487 H 0.92978 0.50198 0.01849 0.0
C1488 C 0.97543 0.4707 0.07566 0.0
C1489 C 0.94954 0.45498 0.07485 0.0
C1490 C 0.98913 0.47981 0.05994 0.0
C1491 C 0.97704 0.47362 0.0431 0.0
C1492 C 0.95192 0.45666 0.0422 0.0
H1493 H 0.01626 0.52559 0.93448 0.0
H1494 H 0.99423 0.50929 0.96254 0.0
C1495 C 0.93827 0.44733 0.05799 0.0
C1496 C 0.99006 0.48623 0.02664 0.0
H1497 H 0.97814 0.53584 0.99352 0.0
C1498 C 0.01784 0.47755 0.02149 0.0
C1499 C 0.97565 0.50766 0.01652 0.0
C1500 C 0.9462 0.51855 0.02186 0.0
C1501 C 0.03136 0.48922 1.00621 0.0
C1502 C 0.01699 0.51075 0.99608 0.0
C1503 C 0.98923 0.5195 1.00133 0.0
C1504 C 0.02964 0.5232 0.97941 0.0
C1505 C 0.06054 0.47773 1.00075 0.0
C1506 C 0.05642 0.53751 0.97958 0.0
C1507 C 0.06912 0.5468 0.96346 0.0
C1508 C 0.05511 0.54204 0.94699 0.0
C1509 C 0.02759 0.52931 0.947 0.0
C1510 C 0.01499 0.51999 0.96303 0.0
H1511 H 0.06527 0.45663 1.00719 0.0
H1512 H 0.06193 0.47507 0.98594 0.0
H1513 H 0.07747 0.49323 1.00499 0.0
H1514 H 0.06782 0.54087 0.99211 0.0
H1515 H 0.0904 0.55644 0.9638 0.0
H1516 H 0.93931 0.08471 0.96004 0.0
H1517 H 0.95672 0.06006 0.98728 0.0
H1518 H 0.99694 0.9949 0.95433 0.0
H1519 H 0.98013 0.01977 0.92726 0.0
H1520 H 0.95095 0.00492 1.00149 0.0
H1521 H 0.065 0.0253 0.98292 0.0
H1522 H 0.03525 0.0424 0.97149 0.0
H1523 H 0.04522 0.00591 0.96607 0.0
C1524 C 0.95131 0.06477 0.95871 0.0
C1525 C 0.95848 0.05412 0.94162 0.0
C1526 C 0.96144 0.05082 0.97423 0.0
C1527 C 0.97887 0.02605 0.97285 0.0
C1528 C 0.98429 0.0144 0.95576 0.0
H1529 H 0.06505 0.91362 0.05055 0.0
H1530 H 0.04862 0.93778 0.02289 0.0
C1531 C 0.97438 0.02841 0.94031 0.0
C1532 C 0.99216 0.01286 0.98914 0.0
H1533 H 0.05702 0.99463 1.00802 0.0
C1534 C 0.97413 0.00281 1.00294 0.0
C1535 C 0.02248 0.01006 0.99108 0.0
C1536 C 0.04316 0.02173 0.97719 0.0
C1537 C 0.98551 0.98959 0.01842 0.0
C1538 C 0.0158 0.98675 0.02033 0.0
C1539 C 0.03384 0.99674 1.00653 0.0
C1540 C 0.02899 0.97388 0.03672 0.0
C1541 C 0.96495 0.97828 0.03248 0.0
C1542 C 0.02472 0.98686 0.05356 0.0
C1543 C 0.0342 0.97323 0.06923 0.0
C1544 C 0.04835 0.94646 0.0684 0.0
C1545 C 0.05444 0.93438 0.05151 0.0
C1546 C 0.04486 0.94805 0.03576 0.0
H1547 H 0.94283 0.97538 0.02702 0.0
H1548 H 0.97252 0.95733 0.03796 0.0
H1549 H 0.96372 0.99394 0.04375 0.0
H1550 H 0.01314 0.00708 0.05462 0.0
H1551 H 0.02927 0.98296 0.08212 0.0
H1552 H 0.9795 0.07303 0.57311 0.0
H1553 H 0.00528 0.05721 0.54589 0.0
H1554 H 0.92856 0.01335 0.52769 0.0
H1555 H 0.90296 0.0293 0.55471 0.0
H1556 H 0.01467 -0.00049 0.53699 0.0
H1557 H 0.95512 0.05398 0.48208 0.0
H1558 H 0.95247 0.06534 0.50524 0.0
H1559 H 0.9321 0.03481 0.49736 0.0
C1560 C 0.96798 0.0609 0.56294 0.0
C1561 C 0.93917 0.05279 0.56576 0.0
C1562 C 0.98274 0.05162 0.5475 0.0
C1563 C 0.96881 0.03429 0.53461 0.0
C1564 C 0.93964 0.02718 0.53718 0.0
H1565 H 0.01788 0.93959 0.43812 0.0
H1566 H 0.99342 0.95757 0.46525 0.0
C1567 C 0.92499 0.03634 0.55259 0.0
C1568 C 0.98522 0.02151 0.51931 0.0
H1569 H 0.986 0.01521 0.47352 0.0
C1570 C 0.00858 0.00317 0.5231 0.0
C1571 C 0.97714 0.02602 0.50118 0.0
C1572 C 0.95301 0.04631 0.49616 0.0
C1573 C 0.02361 0.98875 0.50932 0.0
C1574 C 0.01542 0.99313 0.49119 0.0
C1575 C 0.99218 0.01163 0.4874 0.0
C1576 C 0.03104 0.97941 0.47588 0.0
C1577 C 0.04764 0.96835 0.51435 0.0
C1578 C 0.06044 0.98517 0.47296 0.0
C1579 C 0.07439 0.9747 0.45759 0.0
C1580 C 0.05919 0.95841 0.44479 0.0
C1581 C 0.03012 0.95173 0.44797 0.0
C1582 C 0.01612 0.96222 0.46336 0.0
H1583 H 0.04577 0.96105 0.52853 0.0
H1584 H 0.04778 0.94909 0.50547 0.0
H1585 H 0.06863 0.97959 0.51286 0.0
H1586 H 0.07231 0.99884 0.48217 0.0
H1587 H 0.09671 0.98053 0.45523 0.0
H1588 H 0.52037 0.01576 0.42894 0.0
H1589 H 0.50417 0.99192 0.45653 0.0
H1590 H 0.54309 0.0596 0.4881 0.0
H1591 H 0.55914 0.08369 0.46036 0.0
H1592 H 0.53312 0.97211 0.48798 0.0
H1593 H 0.4566 0.06153 0.50231 0.0
H1594 H 0.47399 0.05721 0.48076 0.0
H1595 H 0.49363 0.07206 0.49941 0.0
C1596 C 0.52597 0.02518 0.4418 0.0
C1597 C 0.54093 0.05152 0.4426 0.0
C1598 C 0.51665 0.01162 0.45753 0.0
C1599 C 0.52192 0.02427 0.47434 0.0
C1600 C 0.53838 0.04974 0.47523 0.0
H1601 H 0.47128 0.983 0.58288 0.0
H1602 H 0.48703 0.006 0.55495 0.0
C1603 C 0.54785 0.06329 0.45944 0.0
C1604 C 0.50889 0.01144 0.49073 0.0
H1605 H 0.45927 0.02409 0.5238 0.0
C1606 C 0.51695 0.98343 0.49581 0.0
C1607 C 0.48762 0.02618 0.50083 0.0
C1608 C 0.47718 0.05582 0.49553 0.0
C1609 C 0.50481 0.97 0.51098 0.0
C1610 C 0.48354 0.98475 0.5211 0.0
C1611 C 0.47542 0.01274 0.51597 0.0
C1612 C 0.47076 0.97216 0.53766 0.0
C1613 C 0.51547 0.94047 0.51633 0.0
C1614 C 0.4552 0.94609 0.53719 0.0
C1615 C 0.44606 0.93296 0.55319 0.0
C1616 C 0.45233 0.94579 0.56983 0.0
C1617 C 0.46623 0.97272 0.57018 0.0
C1618 C 0.4753 0.98581 0.55425 0.0
H1619 H 0.53624 0.93502 0.5097 0.0
H1620 H 0.51842 0.93905 0.53112 0.0
H1621 H 0.4993 0.92405 0.51229 0.0
H1622 H 0.45094 0.93547 0.52449 0.0
H1623 H 0.43554 0.91211 0.55261 0.0
H1624 H 0.4738 0.51634 0.43636 0.0
H1625 H 0.49838 0.50094 0.46381 0.0
H1626 H 0.43793 0.55001 0.49555 0.0
H1627 H 0.41281 0.56502 0.46793 0.0
H1628 H 0.52477 0.53039 0.49176 0.0
H1629 H 0.43001 0.46843 0.51623 0.0
H1630 H 0.43239 0.48217 0.49359 0.0
H1631 H 0.42319 0.50591 0.51181 0.0
C1632 C 0.46593 0.52408 0.4492 0.0
C1633 C 0.44129 0.5417 0.45005 0.0
C1634 C 0.48 0.51527 0.46487 0.0
C1635 C 0.46968 0.52377 0.48179 0.0
C1636 C 0.44593 0.54266 0.48266 0.0
H1637 H 0.52183 0.48379 0.59079 0.0
H1638 H 0.49725 0.49957 0.56341 0.0
C1639 C 0.43182 0.55156 0.4669 0.0
C1640 C 0.48346 0.51207 0.49837 0.0
H1641 H 0.47066 0.47026 0.5354 0.0
C1642 C 0.51295 0.51722 0.5013 0.0
C1643 C 0.46809 0.49468 0.51076 0.0
C1644 C 0.43674 0.48719 0.50793 0.0
C1645 C 0.52734 0.50598 0.51641 0.0
C1646 C 0.51198 0.48858 0.52879 0.0
C1647 C 0.48248 0.48344 0.52587 0.0
C1648 C 0.52579 0.47675 0.54532 0.0
C1649 C 0.5587 0.51344 0.51923 0.0
C1650 C 0.54945 0.45777 0.54436 0.0
C1651 C 0.56355 0.44866 0.56008 0.0
C1652 C 0.55418 0.45841 0.57698 0.0
C1653 C 0.52964 0.47616 0.57792 0.0
C1654 C 0.51557 0.48518 0.56228 0.0
H1655 H 0.56542 0.53222 0.51095 0.0
H1656 H 0.56307 0.5184 0.53358 0.0
H1657 H 0.57223 0.49472 0.51531 0.0
H1658 H 0.55737 0.45047 0.53145 0.0
H1659 H 0.58246 0.43506 0.55899 0.0
H1660 H 0.05386 0.58576 0.55665 0.0
H1661 H 0.03619 0.56272 0.52892 0.0
H1662 H 0.01685 0.48528 0.55868 0.0
H1663 H 0.03426 0.50827 0.58629 0.0
H1664 H 0.0498 0.50896 0.51066 0.0
H1665 H 0.93811 0.51077 0.53767 0.0
H1666 H 0.96704 0.5316 0.54747 0.0
H1667 H 0.96422 0.49362 0.55195 0.0
C1668 C 0.0466 0.56356 0.55709 0.0
C1669 C 0.04532 0.54873 0.57352 0.0
C1670 C 0.03631 0.55051 0.54133 0.0
C1671 C 0.02457 0.52255 0.54186 0.0
C1672 C 0.02524 0.50707 0.55805 0.0
H1673 H 0.93798 0.40966 0.46539 0.0
H1674 H 0.95591 0.43359 0.49275 0.0
C1675 C 0.03545 0.52008 0.57375 0.0
C1676 C 0.0103 0.50999 0.52579 0.0
H1677 H 0.94517 0.48605 0.51013 0.0
C1678 C 0.02692 0.50408 0.51048 0.0
C1679 C 0.98042 0.50357 0.52563 0.0
C1680 C 0.96128 0.51041 0.54149 0.0
C1681 C 0.0146 0.49133 0.49514 0.0
C1682 C 0.98467 0.48498 0.49496 0.0
C1683 C 0.96805 0.49094 0.51027 0.0
C1684 C 0.97037 0.4721 0.47896 0.0
C1685 C 0.03394 0.48409 0.47945 0.0
C1686 C 0.97117 0.48641 0.46235 0.0
C1687 C 0.96097 0.47281 0.44684 0.0
C1688 C 0.94936 0.44487 0.44771 0.0
C1689 C 0.94654 0.43135 0.46448 0.0
C1690 C 0.95699 0.44491 0.48004 0.0
H1691 H 0.05696 0.48288 0.48354 0.0
H1692 H 0.0277 0.4632 0.47325 0.0
H1693 H 0.03195 0.50119 0.4691 0.0
H1694 H 0.98069 0.50768 0.46126 0.0
H1695 H 0.96342 0.48356 0.434 0.0
H1696 H 0.52193 0.10058 0.32593 0.0
H1697 H 0.5288 0.09412 0.29384 0.0
H1698 H 0.61988 0.08062 0.30221 0.0
H1699 H 0.61335 0.08836 0.33461 0.0
H1700 H 0.61133 0.11525 0.27443 0.0
H1701 H 0.53919 0.02127 0.26647 0.0
H1702 H 0.52035 0.05104 0.27637 0.0
H1703 H 0.54995 0.03453 0.28825 0.0
C1704 C 0.54346 0.09593 0.32107 0.0
C1705 C 0.56708 0.09473 0.33294 0.0
C1706 C 0.5473 0.09206 0.30263 0.0
C1707 C 0.57472 0.08617 0.29558 0.0
C1708 C 0.59844 0.08492 0.30735 0.0
H1709 H 0.59844 0.02392 0.18691 0.0
H1710 H 0.59303 0.02998 0.21916 0.0
C1711 C 0.59468 0.08924 0.32587 0.0
C1712 C 0.57853 0.08242 0.27585 0.0
H1713 H 0.55155 0.04649 0.23947 0.0
C1714 C 0.59847 0.10001 0.26679 0.0
C1715 C 0.56203 0.06228 0.26586 0.0
C1716 C 0.54194 0.04101 0.27478 0.0
C1717 C 0.60201 0.09838 0.24804 0.0
C1718 C 0.58437 0.07934 0.23796 0.0
C1719 C 0.56475 0.06146 0.24708 0.0
C1720 C 0.58695 0.07625 0.21809 0.0
C1721 C 0.62514 0.11657 0.23936 0.0
C1722 C 0.58473 0.10017 0.20653 0.0
C1723 C 0.5883 0.09683 0.18792 0.0
C1724 C 0.59347 0.0694 0.1805 0.0
C1725 C 0.59442 0.0454 0.19207 0.0
C1726 C 0.59137 0.04882 0.2106 0.0
H1727 H 0.64195 0.12308 0.2492 0.0
H1728 H 0.63574 0.10484 0.22815 0.0
H1729 H 0.61526 0.13654 0.23392 0.0
H1730 H 0.58039 0.12145 0.21188 0.0
H1731 H 0.58726 0.11573 0.17938 0.0
H1732 H 0.39636 0.52511 0.33304 0.0
H1733 H 0.40309 0.53118 0.30095 0.0
H1734 H 0.41824 0.62217 0.30861 0.0
H1735 H 0.41016 0.61648 0.34106 0.0
H1736 H 0.38372 0.61364 0.28066 0.0
H1737 H 0.47617 0.53944 0.27372 0.0
H1738 H 0.44602 0.52137 0.28369 0.0
H1739 H 0.46299 0.55097 0.29535 0.0
C1740 C 0.40144 0.54646 0.32804 0.0
C1741 C 0.40299 0.5703 0.33975 0.0
C1742 C 0.40546 0.54984 0.30959 0.0
C1743 C 0.41188 0.57699 0.30231 0.0
C1744 C 0.41353 0.60093 0.31391 0.0
H1745 H 0.47573 0.59534 0.19373 0.0
H1746 H 0.4689 0.59156 0.22596 0.0
C1747 C 0.40905 0.59765 0.33247 0.0
C1748 C 0.41582 0.58021 0.28254 0.0
H1749 H 0.45119 0.55129 0.24653 0.0
C1750 C 0.39869 0.60023 0.2732 0.0
C1751 C 0.4356 0.56298 0.27277 0.0
C1752 C 0.45644 0.54274 0.28194 0.0
C1753 C 0.40044 0.60312 0.2544 0.0
C1754 C 0.41911 0.58477 0.24455 0.0
C1755 C 0.4365 0.56506 0.25396 0.0
C1756 C 0.4225 0.58674 0.22465 0.0
C1757 C 0.38278 0.62633 0.2454 0.0
C1758 C 0.39873 0.58481 0.21292 0.0
C1759 C 0.40253 0.58747 0.19426 0.0
C1760 C 0.43026 0.59142 0.18698 0.0
C1761 C 0.45402 0.59223 0.19876 0.0
C1762 C 0.45017 0.59009 0.2173 0.0
H1763 H 0.37653 0.64356 0.25504 0.0
H1764 H 0.39479 0.63638 0.23412 0.0
H1765 H 0.36266 0.61667 0.24 0.0
H1766 H 0.37724 0.58131 0.21816 0.0
H1767 H 0.38379 0.58661 0.18558 0.0
H1768 H 0.8965 0.38041 0.1843 0.0
H1769 H 0.8992 0.37433 0.21701 0.0
H1770 H 0.9224 0.46391 0.22286 0.0
H1771 H 0.91963 0.47029 0.19037 0.0
H1772 H 0.94403 0.38436 0.242 0.0
H1773 H 0.8503 0.4558 0.25475 0.0
H1774 H 0.85863 0.44164 0.23274 0.0
H1775 H 0.87803 0.47226 0.24137 0.0
C1776 C 0.90255 0.39872 0.19252 0.0
C1777 C 0.90757 0.4259 0.18469 0.0
C1778 C 0.90395 0.39524 0.21121 0.0
C1779 C 0.91028 0.41886 0.22237 0.0
C1780 C 0.91674 0.44559 0.21453 0.0
H1781 H 0.9649 0.42418 0.3327 0.0
H1782 H 0.95895 0.42827 0.30024 0.0
C1783 C 0.91533 0.44911 0.19592 0.0
C1784 C 0.90992 0.41583 0.24222 0.0
H1785 H 0.87847 0.44262 0.2803 0.0
C1786 C 0.92958 0.39693 0.25037 0.0
C1787 C 0.8907 0.43191 0.25312 0.0
C1788 C 0.86801 0.45134 0.24508 0.0
C1789 C 0.93125 0.39447 0.26916 0.0
C1790 C 0.91304 0.41166 0.28007 0.0
C1791 C 0.89265 0.42975 0.27192 0.0
C1792 C 0.91541 0.41152 0.29996 0.0
C1793 C 0.95248 0.37342 0.27718 0.0
C1794 C 0.89232 0.40215 0.3107 0.0
C1795 C 0.89554 0.39997 0.32938 0.0
C1796 C 0.92192 0.4072 0.3376 0.0
C1797 C 0.94439 0.4181 0.32683 0.0
C1798 C 0.94112 0.42029 0.30823 0.0
H1799 H 0.95901 0.35664 0.26732 0.0
H1800 H 0.97217 0.38525 0.28139 0.0
H1801 H 0.94326 0.36263 0.2892 0.0
H1802 H 0.87217 0.39557 0.30456 0.0
H1803 H 0.87781 0.3915 0.33726 0.0
H1804 H 0.09971 0.8777 0.33246 0.0
H1805 H 0.09559 0.8714 0.29978 0.0
H1806 H 0.06364 0.95834 0.29478 0.0
H1807 H 0.06774 0.96491 0.3272 0.0
H1808 H 0.04878 0.878 0.2749 0.0
H1809 H 0.13626 0.95723 0.26254 0.0
H1810 H 0.1296 0.94165 0.28439 0.0
H1811 H 0.10749 0.97075 0.27634 0.0
C1812 C 0.0913 0.89529 0.32444 0.0
C1813 C 0.08435 0.92191 0.33247 0.0
C1814 C 0.0891 0.8917 0.30576 0.0
C1815 C 0.08001 0.91467 0.29482 0.0
C1816 C 0.07138 0.94058 0.30292 0.0
H1817 H 0.0254 0.91759 0.18394 0.0
H1818 H 0.03019 0.92075 0.21653 0.0
C1819 C 0.07358 0.9442 0.3215 0.0
C1820 C 0.0803 0.91207 0.2749 0.0
H1821 H 0.10931 0.94204 0.23699 0.0
C1822 C 0.06212 0.89186 0.2666 0.0
C1823 C 0.09808 0.92987 0.26409 0.0
C1824 C 0.11919 0.95092 0.27226 0.0
C1825 C 0.06053 0.88966 0.24777 0.0
C1826 C 0.0773 0.90841 0.23696 0.0
C1827 C 0.09621 0.92793 0.24527 0.0
C1828 C 0.07515 0.90834 0.21701 0.0
C1829 C 0.04099 0.86714 0.23961 0.0
C1830 C 0.09924 0.90168 0.20633 0.0
C1831 C 0.09667 0.90006 0.18757 0.0
C1832 C 0.06995 0.9052 0.17916 0.0
C1833 C 0.04626 0.91322 0.18991 0.0
C1834 C 0.04887 0.91483 0.2086 0.0
H1835 H 0.03587 0.8497 0.24935 0.0
H1836 H 0.0204 0.87743 0.23554 0.0
H1837 H 0.05097 0.85734 0.22749 0.0
H1838 H 0.11982 0.89689 0.21254 0.0
H1839 H 0.11535 0.8938 0.17974 0.0
H1840 H 0.43172 0.96579 0.82818 0.0
H1841 H 0.43473 0.95896 0.79574 0.0
H1842 H 0.39842 0.87379 0.8011 0.0
H1843 H 0.3952 0.88039 0.8338 0.0
H1844 H 0.44684 0.87953 0.77584 0.0
H1845 H 0.35984 0.95972 0.76439 0.0
H1846 H 0.38878 0.97223 0.77847 0.0
H1847 H 0.36619 0.94314 0.786 0.0
C1848 C 0.42467 0.9454 0.82256 0.0
C1849 C 0.41291 0.92373 0.83361 0.0
C1850 C 0.42629 0.94163 0.80398 0.0
C1851 C 0.41617 0.91617 0.79602 0.0
C1852 C 0.40607 0.89373 0.80702 0.0
H1853 H 0.38237 0.89558 0.68069 0.0
H1854 H 0.37679 0.89819 0.71344 0.0
C1855 C 0.40439 0.89748 0.8257 0.0
C1856 C 0.41539 0.91364 0.77616 0.0
H1857 H 0.3863 0.94459 0.73862 0.0
C1858 C 0.43345 0.89356 0.76769 0.0
C1859 C 0.39758 0.93172 0.76558 0.0
C1860 C 0.37677 0.95277 0.77403 0.0
C1861 C 0.43501 0.89186 0.74886 0.0
C1862 C 0.41825 0.91095 0.73828 0.0
C1863 C 0.39934 0.93023 0.74676 0.0
C1864 C 0.42076 0.91165 0.71842 0.0
C1865 C 0.45463 0.86972 0.74041 0.0
C1866 C 0.44693 0.91955 0.71037 0.0
C1867 C 0.45015 0.91829 0.69173 0.0
C1868 C 0.42721 0.90912 0.6807 0.0
C1869 C 0.40047 0.90273 0.68875 0.0
C1870 C 0.39728 0.90406 0.70747 0.0
H1871 H 0.46016 0.85218 0.74999 0.0
H1872 H 0.4445 0.86003 0.7283 0.0
H1873 H 0.475 0.88034 0.73621 0.0
H1874 H 0.46511 0.92612 0.71856 0.0
H1875 H 0.47098 0.92362 0.68602 0.0
H1876 H 0.58709 0.47306 0.69413 0.0
H1877 H 0.58027 0.46585 0.72619 0.0
H1878 H 0.57333 0.37403 0.71777 0.0
H1879 H 0.58152 0.38097 0.6855 0.0
H1880 H 0.53926 0.44569 0.74625 0.0
H1881 H 0.63506 0.37561 0.75518 0.0
H1882 H 0.62773 0.39421 0.73441 0.0
H1883 H 0.60929 0.36106 0.73965 0.0
C1884 C 0.58399 0.45125 0.69899 0.0
C1885 C 0.58517 0.42754 0.68716 0.0
C1886 C 0.58007 0.44718 0.71742 0.0
C1887 C 0.57697 0.41934 0.72456 0.0
C1888 C 0.5766 0.39567 0.71271 0.0
H1889 H 0.5187 0.39108 0.83462 0.0
H1890 H 0.52222 0.39743 0.80222 0.0
C1891 C 0.58094 0.39969 0.6942 0.0
C1892 C 0.57447 0.41552 0.74441 0.0
H1893 H 0.60484 0.38171 0.78059 0.0
C1894 C 0.55365 0.4317 0.75374 0.0
C1895 C 0.5936 0.39775 0.75432 0.0
C1896 C 0.61787 0.3814 0.74542 0.0
C1897 C 0.55136 0.4306 0.77257 0.0
C1898 C 0.56971 0.41195 0.7824 0.0
C1899 C 0.59061 0.39585 0.7731 0.0
C1900 C 0.56755 0.40868 0.8023 0.0
C1901 C 0.52984 0.45017 0.7817 0.0
C1902 C 0.59205 0.41203 0.81327 0.0
C1903 C 0.59025 0.40781 0.8319 0.0
C1904 C 0.56385 0.4003 0.83997 0.0
C1905 C 0.53933 0.39724 0.82895 0.0
C1906 C 0.54125 0.40104 0.81036 0.0
H1907 H 0.52483 0.46933 0.77328 0.0
H1908 H 0.5094 0.43821 0.78385 0.0
H1909 H 0.53793 0.45777 0.79493 0.0
H1910 H 0.61264 0.41778 0.8074 0.0
H1911 H 0.60958 0.41021 0.83995 0.0
H1912 H 0.11395 0.61659 0.68388 0.0
H1913 H 0.12109 0.6146 0.71655 0.0
H1914 H 0.04781 0.55787 0.72147 0.0
H1915 H 0.04041 0.55979 0.689 0.0
H1916 H 0.07504 0.6318 0.74226 0.0
H1917 H 0.11359 0.51941 0.75184 0.0
H1918 H 0.1167 0.53824 0.73066 0.0
H1919 H 0.08267 0.52328 0.73745 0.0
C1920 C 0.09979 0.60314 0.69187 0.0
C1921 C 0.07662 0.58833 0.68385 0.0
C1922 C 0.10378 0.60221 0.71053 0.0
C1923 C 0.085 0.58605 0.72137 0.0
C1924 C 0.06268 0.57026 0.71331 0.0
H1925 H 0.05508 0.5471 0.83224 0.0
H1926 H 0.0525 0.55399 0.79977 0.0
C1927 C 0.05848 0.57141 0.69475 0.0
C1928 C 0.08729 0.58704 0.74121 0.0
H1929 H 0.09813 0.54447 0.77794 0.0
C1930 C 0.0804 0.61285 0.75012 0.0
C1931 C 0.09412 0.56223 0.75134 0.0
C1932 C 0.10243 0.53423 0.74238 0.0
C1933 C 0.0791 0.61418 0.76899 0.0
C1934 C 0.08543 0.58917 0.77914 0.0
C1935 C 0.09305 0.56359 0.77016 0.0
C1936 C 0.08386 0.58856 0.79908 0.0
C1937 C 0.06987 0.64199 0.77782 0.0
C1938 C 0.10158 0.60645 0.80962 0.0
C1939 C 0.10278 0.60283 0.8283 0.0
C1940 C 0.08666 0.58092 0.83668 0.0
C1941 C 0.06782 0.56413 0.82619 0.0
C1942 C 0.06641 0.56795 0.80761 0.0
H1943 H 0.05845 0.65642 0.76825 0.0
H1944 H 0.0555 0.63778 0.78947 0.0
H1945 H 0.08925 0.65358 0.78277 0.0
H1946 H 0.11562 0.62216 0.80334 0.0
H1947 H 0.11776 0.61587 0.83599 0.0
H1948 H 0.9795 0.10213 0.82533 0.0
H1949 H 0.97409 0.09599 0.79304 0.0
H1950 H 0.88352 0.07785 0.80009 0.0
H1951 H 0.88851 0.0853 0.83257 0.0
H1952 H 0.95989 0.05327 0.77249 0.0
H1953 H 0.87865 0.13949 0.76287 0.0
H1954 H 0.89724 0.13428 0.7839 0.0
H1955 H 0.86671 0.11207 0.77815 0.0
C1956 C 0.95836 0.09677 0.8201 0.0
C1957 C 0.93437 0.09444 0.83162 0.0
C1958 C 0.95532 0.09326 0.80154 0.0
C1959 C 0.92828 0.08708 0.79397 0.0
C1960 C 0.90445 0.08352 0.80549 0.0
H1961 H 0.90748 0.02359 0.68468 0.0
H1962 H 0.9145 0.02896 0.71691 0.0
C1963 C 0.90739 0.08747 0.82411 0.0
C1964 C 0.92542 0.08433 0.77406 0.0
H1965 H 0.88833 0.10964 0.73761 0.0
C1966 C 0.94428 0.06569 0.76488 0.0
C1967 C 0.9055 0.10096 0.76398 0.0
C1968 C 0.8861 0.12305 0.7727 0.0
C1969 C 0.94363 0.06301 0.74606 0.0
C1970 C 0.9228 0.0786 0.73607 0.0
C1971 C 0.90415 0.09748 0.74521 0.0
C1972 C 0.91966 0.07537 0.71621 0.0
C1973 C 0.96585 0.04403 0.73711 0.0
C1974 C 0.91947 0.09972 0.70492 0.0
C1975 C 0.91485 0.09677 0.68638 0.0
C1976 C 0.91046 0.06937 0.67871 0.0
C1977 C 0.91116 0.04502 0.69002 0.0
C1978 C 0.91536 0.04803 0.70853 0.0
H1979 H 0.98556 0.04193 0.74551 0.0
H1980 H 0.95675 0.02208 0.73527 0.0
H1981 H 0.9722 0.05261 0.72375 0.0
H1982 H 0.92261 0.12109 0.7105 0.0
H1983 H 0.9143 0.116 0.67812 0.0
loop_
_geom_bond_atom_site_label_1
_geom_bond_atom_site_label_2
_geom_bond_distance
_geom_bond_site_symmetry_2
_ccdc_geom_bond_type
Co0 O3 1.970 . S
Co0 N17 1.989 . S
Co0 O25 1.967 . S
Co0 O32 1.920 . S
Co1 O4 1.955 1_565 S
Co1 N10 2.046 . S
Co1 N18 1.979 1_565 S
Co1 O26 1.946 . S
C2 O3 1.258 . S
C2 O4 1.263 . S
O3 Co0 1.970 . S
O3 C2 1.258 . S
O4 Co1 1.955 1_545 S
O4 C2 1.263 . S
C5 O6 1.235 . S
C5 O32 1.289 . S
O6 C5 1.235 . S
C7 C9 1.400 . S
C7 N10 1.351 . S
C7 C12 1.501 . S
C8 C9 1.387 . S
C8 N11 1.341 . S
C9 C7 1.400 . S
C9 C8 1.387 . S
N10 Co1 2.046 . S
N10 C7 1.351 . S
N10 N11 1.365 . S
N11 C8 1.341 . S
N11 N10 1.365 . S
N11 H31 0.862 . S
C12 C7 1.501 . S
C12 H13 0.961 . S
C12 H14 0.961 . S
C12 H15 0.960 . S
H13 C12 0.961 . S
H14 C12 0.961 . S
H15 C12 0.960 . S
C16 N17 1.342 . S
C16 C20 1.401 . S
C16 C21 1.499 . S
N17 Co0 1.989 . S
N17 C16 1.342 . S
N17 N18 1.388 . S
N18 Co1 1.979 1_545 S
N18 N17 1.388 . S
N18 C19 1.346 . S
C19 N18 1.346 . S
C19 C20 1.396 . S
C19 C29 1.510 1_545 S
C20 C16 1.401 . S
C20 C19 1.396 . S
C21 C16 1.499 . S
C21 H22 0.959 . S
C21 H23 0.960 . S
C21 H24 0.961 . S
H22 C21 0.959 . S
H23 C21 0.960 . S
H24 C21 0.961 . S
O25 Co0 1.967 . S
O25 C33 1.258 . S
O26 Co1 1.946 . S
O26 C33 1.266 1_565 S
H27 C29 0.959 . S
H28 C29 0.961 . S
C29 C19 1.510 1_565 S
C29 H27 0.959 . S
C29 H28 0.961 . S
C29 H30 0.960 . S
H30 C29 0.960 . S
H31 N11 0.862 . S
O32 Co0 1.920 . S
O32 C5 1.289 . S
C33 O25 1.258 . S
C33 O26 1.266 1_545 S
Co34 O37 1.970 . S
Co34 N51 1.989 . S
Co34 O59 1.967 . S
Co34 O66 1.920 . S
Co35 O38 1.966 . S
Co35 N44 2.022 . S
Co35 N52 1.993 . S
Co35 O60 1.941 . S
C36 O37 1.258 . S
C36 O38 1.263 . S
O37 Co34 1.970 . S
O37 C36 1.258 . S
O38 Co35 1.966 . S
O38 C36 1.263 . S
C39 O40 1.235 . S
C39 O66 1.289 . S
O40 C39 1.235 . S
C41 C43 1.400 . S
C41 N44 1.351 . S
C41 C46 1.501 . S
C42 C43 1.387 . S
C42 N45 1.341 . S
C43 C41 1.400 . S
C43 C42 1.387 . S
N44 Co35 2.022 . S
N44 C41 1.351 . S
N44 N45 1.365 . S
N45 C42 1.341 . S
N45 N44 1.365 . S
N45 H65 0.862 . S
C46 C41 1.501 . S
C46 H47 0.961 . S
C46 H48 0.961 . S
C46 H49 0.960 . S
H47 C46 0.961 . S
H48 C46 0.961 . S
H49 C46 0.960 . S
C50 N51 1.342 . S
C50 C54 1.401 . S
C50 C55 1.499 . S
N51 Co34 1.989 . S
N51 C50 1.342 . S
N51 N52 1.388 . S
N52 Co35 1.993 . S
N52 N51 1.388 . S
N52 C53 1.346 . S
C53 N52 1.346 . S
C53 C54 1.396 . S
C53 C63 1.510 . S
C54 C50 1.401 . S
C54 C53 1.396 . S
C55 C50 1.499 . S
C55 H56 0.959 . S
C55 H57 0.960 . S
C55 H58 0.961 . S
H56 C55 0.959 . S
H57 C55 0.960 . S
H58 C55 0.961 . S
O59 Co34 1.967 . S
O59 C67 1.258 . S
O60 Co35 1.941 . S
O60 C67 1.266 . S
H61 C63 0.959 . S
H62 C63 0.961 . S
C63 C53 1.510 . S
C63 H61 0.959 . S
C63 H62 0.961 . S
C63 H64 0.960 . S
H64 C63 0.960 . S
H65 N45 0.862 . S
O66 Co34 1.920 . S
O66 C39 1.289 . S
C67 O59 1.258 . S
C67 O60 1.266 . S
Co68 O71 1.970 . S
Co68 N85 1.989 . S
Co68 O93 1.967 . S
Co68 O100 1.920 . S
Co69 O72 1.966 . S
Co69 N78 2.022 . S
Co69 N86 1.993 . S
Co69 O94 1.941 . S
C70 O71 1.258 . S
C70 O72 1.263 . S
O71 Co68 1.970 . S
O71 C70 1.258 . S
O72 Co69 1.966 . S
O72 C70 1.263 . S
C73 O74 1.235 . S
C73 O100 1.289 . S
O74 C73 1.235 . S
C75 C77 1.400 . S
C75 N78 1.351 . S
C75 C80 1.501 . S
C76 C77 1.387 . S
C76 N79 1.341 . S
C77 C75 1.400 . S
C77 C76 1.387 . S
N78 Co69 2.022 . S
N78 C75 1.351 . S
N78 N79 1.365 . S
N79 C76 1.341 . S
N79 N78 1.365 . S
N79 H99 0.862 . S
C80 C75 1.501 . S
C80 H81 0.961 . S
C80 H82 0.961 . S
C80 H83 0.960 . S
H81 C80 0.961 . S
H82 C80 0.961 . S
H83 C80 0.960 . S
C84 N85 1.342 . S
C84 C88 1.401 . S
C84 C89 1.499 . S
N85 Co68 1.989 . S
N85 C84 1.342 . S
N85 N86 1.388 . S
N86 Co69 1.993 . S
N86 N85 1.388 . S
N86 C87 1.346 . S
C87 N86 1.346 . S
C87 C88 1.396 . S
C87 C97 1.510 . S
C88 C84 1.401 . S
C88 C87 1.396 . S
C89 C84 1.499 . S
C89 H90 0.959 . S
C89 H91 0.960 . S
C89 H92 0.961 . S
H90 C89 0.959 . S
H91 C89 0.960 . S
H92 C89 0.961 . S
O93 Co68 1.967 . S
O93 C101 1.258 . S
O94 Co69 1.941 . S
O94 C101 1.266 . S
H95 C97 0.959 . S
H96 C97 0.961 . S
C97 C87 1.510 . S
C97 H95 0.959 . S
C97 H96 0.961 . S
C97 H98 0.960 . S
H98 C97 0.960 . S
H99 N79 0.862 . S
O100 Co68 1.920 . S
O100 C73 1.289 . S
C101 O93 1.258 . S
C101 O94 1.266 . S
Co102 O105 1.970 . S
Co102 N119 1.989 . S
Co102 O127 1.967 . S
Co102 O134 1.920 . S
Co103 O106 1.955 1_655 S
Co103 N112 2.046 . S
Co103 N120 1.979 1_655 S
Co103 O128 1.946 . S
C104 O105 1.258 . S
C104 O106 1.263 . S
O105 Co102 1.970 . S
O105 C104 1.258 . S
O106 Co103 1.955 1_455 S
O106 C104 1.263 . S
C107 O108 1.235 . S
C107 O134 1.289 . S
O108 C107 1.235 . S
C109 C111 1.400 . S
C109 N112 1.351 . S
C109 C114 1.501 . S
C110 C111 1.387 . S
C110 N113 1.341 . S
C111 C109 1.400 . S
C111 C110 1.387 . S
N112 Co103 2.046 . S
N112 C109 1.351 . S
N112 N113 1.365 . S
N113 C110 1.341 . S
N113 N112 1.365 . S
N113 H133 0.862 . S
C114 C109 1.501 . S
C114 H115 0.961 . S
C114 H116 0.961 . S
C114 H117 0.960 . S
H115 C114 0.961 . S
H116 C114 0.961 . S
H117 C114 0.960 . S
C118 N119 1.342 . S
C118 C122 1.401 . S
C118 C123 1.499 . S
N119 Co102 1.989 . S
N119 C118 1.342 . S
N119 N120 1.388 . S
N120 Co103 1.979 1_455 S
N120 N119 1.388 . S
N120 C121 1.346 . S
C121 N120 1.346 . S
C121 C122 1.396 . S
C121 C131 1.510 1_455 S
C122 C118 1.401 . S
C122 C121 1.396 . S
C123 C118 1.499 . S
C123 H124 0.959 . S
C123 H125 0.960 . S
C123 H126 0.961 . S
H124 C123 0.959 . S
H125 C123 0.960 . S
H126 C123 0.961 . S
O127 Co102 1.967 . S
O127 C135 1.258 . S
O128 Co103 1.946 . S
O128 C135 1.266 1_655 S
H129 C131 0.959 . S
H130 C131 0.961 . S
C131 C121 1.510 1_655 S
C131 H129 0.959 . S
C131 H130 0.961 . S
C131 H132 0.960 . S
H132 C131 0.960 . S
H133 N113 0.862 . S
O134 Co102 1.920 . S
O134 C107 1.289 . S
C135 O127 1.258 . S
C135 O128 1.266 1_455 S
Co136 O139 1.970 . S
Co136 N153 1.989 . S
Co136 O161 1.967 . S
Co136 O168 1.920 . S
Co137 O140 1.955 1_545 S
Co137 N146 2.046 . S
Co137 N154 1.979 1_545 S
Co137 O162 1.946 . S
C138 O139 1.258 . S
C138 O140 1.263 . S
O139 Co136 1.970 . S
O139 C138 1.258 . S
O140 Co137 1.955 1_565 S
O140 C138 1.263 . S
C141 O142 1.235 . S
C141 O168 1.289 . S
O142 C141 1.235 . S
C143 C145 1.400 . S
C143 N146 1.351 . S
C143 C148 1.501 . S
C144 C145 1.387 . S
C144 N147 1.341 . S
C145 C143 1.400 . S
C145 C144 1.387 . S
N146 Co137 2.046 . S
N146 C143 1.351 . S
N146 N147 1.365 . S
N147 C144 1.341 . S
N147 N146 1.365 . S
N147 H167 0.862 . S
C148 C143 1.501 . S
C148 H149 0.961 . S
C148 H150 0.961 . S
C148 H151 0.960 . S
H149 C148 0.961 . S
H150 C148 0.961 . S
H151 C148 0.960 . S
C152 N153 1.342 . S
C152 C156 1.401 . S
C152 C157 1.499 . S
N153 Co136 1.989 . S
N153 C152 1.342 . S
N153 N154 1.388 . S
N154 Co137 1.979 1_565 S
N154 N153 1.388 . S
N154 C155 1.346 . S
C155 N154 1.346 . S
C155 C156 1.396 . S
C155 C165 1.510 1_565 S
C156 C152 1.401 . S
C156 C155 1.396 . S
C157 C152 1.499 . S
C157 H158 0.959 . S
C157 H159 0.960 . S
C157 H160 0.961 . S
H158 C157 0.959 . S
H159 C157 0.960 . S
H160 C157 0.961 . S
O161 Co136 1.967 . S
O161 C169 1.258 . S
O162 Co137 1.946 . S
O162 C169 1.266 1_545 S
H163 C165 0.959 . S
H164 C165 0.961 . S
C165 C155 1.510 1_545 S
C165 H163 0.959 . S
C165 H164 0.961 . S
C165 H166 0.960 . S
H166 C165 0.960 . S
H167 N147 0.862 . S
O168 Co136 1.920 . S
O168 C141 1.289 . S
C169 O161 1.258 . S
C169 O162 1.266 1_565 S
Co170 O173 1.970 . S
Co170 N187 1.989 . S
Co170 O195 1.967 . S
Co170 O202 1.920 . S
Co171 O174 1.966 . S
Co171 N180 2.022 . S
Co171 N188 1.993 . S
Co171 O196 1.941 . S
C172 O173 1.258 . S
C172 O174 1.263 . S
O173 Co170 1.970 . S
O173 C172 1.258 . S
O174 Co171 1.966 . S
O174 C172 1.263 . S
C175 O176 1.235 . S
C175 O202 1.289 . S
O176 C175 1.235 . S
C177 C179 1.400 . S
C177 N180 1.351 . S
C177 C182 1.501 . S
C178 C179 1.387 . S
C178 N181 1.341 . S
C179 C177 1.400 . S
C179 C178 1.387 . S
N180 Co171 2.022 . S
N180 C177 1.351 . S
N180 N181 1.365 . S
N181 C178 1.341 . S
N181 N180 1.365 . S
N181 H201 0.862 . S
C182 C177 1.501 . S
C182 H183 0.961 . S
C182 H184 0.961 . S
C182 H185 0.960 . S
H183 C182 0.961 . S
H184 C182 0.961 . S
H185 C182 0.960 . S
C186 N187 1.342 . S
C186 C190 1.401 . S
C186 C191 1.499 . S
N187 Co170 1.989 . S
N187 C186 1.342 . S
N187 N188 1.388 . S
N188 Co171 1.993 . S
N188 N187 1.388 . S
N188 C189 1.346 . S
C189 N188 1.346 . S
C189 C190 1.396 . S
C189 C199 1.510 . S
C190 C186 1.401 . S
C190 C189 1.396 . S
C191 C186 1.499 . S
C191 H192 0.959 . S
C191 H193 0.960 . S
C191 H194 0.961 . S
H192 C191 0.959 . S
H193 C191 0.960 . S
H194 C191 0.961 . S
O195 Co170 1.967 . S
O195 C203 1.258 . S
O196 Co171 1.941 . S
O196 C203 1.266 . S
H197 C199 0.959 . S
H198 C199 0.961 . S
C199 C189 1.510 . S
C199 H197 0.959 . S
C199 H198 0.961 . S
C199 H200 0.960 . S
H200 C199 0.960 . S
H201 N181 0.862 . S
O202 Co170 1.920 . S
O202 C175 1.289 . S
C203 O195 1.258 . S
C203 O196 1.266 . S
Co204 O207 1.970 . S
Co204 N221 1.989 . S
Co204 O229 1.967 . S
Co204 O236 1.920 . S
Co205 O208 1.966 . S
Co205 N214 2.022 . S
Co205 N222 1.993 . S
Co205 O230 1.941 . S
C206 O207 1.258 . S
C206 O208 1.263 . S
O207 Co204 1.970 . S
O207 C206 1.258 . S
O208 Co205 1.966 . S
O208 C206 1.263 . S
C209 O210 1.235 . S
C209 O236 1.289 . S
O210 C209 1.235 . S
C211 C213 1.400 . S
C211 N214 1.351 . S
C211 C216 1.501 . S
C212 C213 1.387 . S
C212 N215 1.341 . S
C213 C211 1.400 . S
C213 C212 1.387 . S
N214 Co205 2.022 . S
N214 C211 1.351 . S
N214 N215 1.365 . S
N215 C212 1.341 . S
N215 N214 1.365 . S
N215 H235 0.862 . S
C216 C211 1.501 . S
C216 H217 0.961 . S
C216 H218 0.961 . S
C216 H219 0.960 . S
H217 C216 0.961 . S
H218 C216 0.961 . S
H219 C216 0.960 . S
C220 N221 1.342 . S
C220 C224 1.401 . S
C220 C225 1.499 . S
N221 Co204 1.989 . S
N221 C220 1.342 . S
N221 N222 1.388 . S
N222 Co205 1.993 . S
N222 N221 1.388 . S
N222 C223 1.346 . S
C223 N222 1.346 . S
C223 C224 1.396 . S
C223 C233 1.510 . S
C224 C220 1.401 . S
C224 C223 1.396 . S
C225 C220 1.499 . S
C225 H226 0.959 . S
C225 H227 0.960 . S
C225 H228 0.961 . S
H226 C225 0.959 . S
H227 C225 0.960 . S
H228 C225 0.961 . S
O229 Co204 1.967 . S
O229 C237 1.258 . S
O230 Co205 1.941 . S
O230 C237 1.266 . S
H231 C233 0.959 . S
H232 C233 0.961 . S
C233 C223 1.510 . S
C233 H231 0.959 . S
C233 H232 0.961 . S
C233 H234 0.960 . S
H234 C233 0.960 . S
H235 N215 0.862 . S
O236 Co204 1.920 . S
O236 C209 1.289 . S
C237 O229 1.258 . S
C237 O230 1.266 . S
Co238 O241 1.970 . S
Co238 N255 1.989 . S
Co238 O263 1.967 . S
Co238 O270 1.920 . S
Co239 O242 1.955 1_455 S
Co239 N248 2.046 . S
Co239 N256 1.979 1_455 S
Co239 O264 1.946 . S
C240 O241 1.258 . S
C240 O242 1.263 . S
O241 Co238 1.970 . S
O241 C240 1.258 . S
O242 Co239 1.955 1_655 S
O242 C240 1.263 . S
C243 O244 1.235 . S
C243 O270 1.289 . S
O244 C243 1.235 . S
C245 C247 1.400 . S
C245 N248 1.351 . S
C245 C250 1.501 . S
C246 C247 1.387 . S
C246 N249 1.341 . S
C247 C245 1.400 . S
C247 C246 1.387 . S
N248 Co239 2.046 . S
N248 C245 1.351 . S
N248 N249 1.365 . S
N249 C246 1.341 . S
N249 N248 1.365 . S
N249 H269 0.862 . S
C250 C245 1.501 . S
C250 H251 0.961 . S
C250 H252 0.961 . S
C250 H253 0.960 . S
H251 C250 0.961 . S
H252 C250 0.961 . S
H253 C250 0.960 . S
C254 N255 1.342 . S
C254 C258 1.401 . S
C254 C259 1.499 . S
N255 Co238 1.989 . S
N255 C254 1.342 . S
N255 N256 1.388 . S
N256 Co239 1.979 1_655 S
N256 N255 1.388 . S
N256 C257 1.346 . S
C257 N256 1.346 . S
C257 C258 1.396 . S
C257 C267 1.510 1_655 S
C258 C254 1.401 . S
C258 C257 1.396 . S
C259 C254 1.499 . S
C259 H260 0.959 . S
C259 H261 0.960 . S
C259 H262 0.961 . S
H260 C259 0.959 . S
H261 C259 0.960 . S
H262 C259 0.961 . S
O263 Co238 1.967 . S
O263 C271 1.258 . S
O264 Co239 1.946 . S
O264 C271 1.266 1_455 S
H265 C267 0.959 . S
H266 C267 0.961 . S
C267 C257 1.510 1_455 S
C267 H265 0.959 . S
C267 H266 0.961 . S
C267 H268 0.960 . S
H268 C267 0.960 . S
H269 N249 0.862 . S
O270 Co238 1.920 . S
O270 C243 1.289 . S
C271 O263 1.258 . S
C271 O264 1.266 1_655 S
Co272 O275 1.970 . S
Co272 N289 1.989 . S
Co272 O297 1.967 . S
Co272 O304 1.920 . S
Co273 O276 1.955 1_545 S
Co273 N282 2.046 . S
Co273 N290 1.979 1_545 S
Co273 O298 1.946 . S
C274 O275 1.258 . S
C274 O276 1.263 . S
O275 Co272 1.970 . S
O275 C274 1.258 . S
O276 Co273 1.955 1_565 S
O276 C274 1.263 . S
C277 O278 1.235 . S
C277 O304 1.289 . S
O278 C277 1.235 . S
C279 C281 1.400 . S
C279 N282 1.351 . S
C279 C284 1.501 . S
C280 C281 1.387 . S
C280 N283 1.341 . S
C281 C279 1.400 . S
C281 C280 1.387 . S
N282 Co273 2.046 . S
N282 C279 1.351 . S
N282 N283 1.365 . S
N283 C280 1.341 . S
N283 N282 1.365 . S
N283 H303 0.862 . S
C284 C279 1.501 . S
C284 H285 0.961 . S
C284 H286 0.961 . S
C284 H287 0.960 . S
H285 C284 0.961 . S
H286 C284 0.961 . S
H287 C284 0.960 . S
C288 N289 1.342 . S
C288 C292 1.401 . S
C288 C293 1.499 . S
N289 Co272 1.989 . S
N289 C288 1.342 . S
N289 N290 1.388 . S
N290 Co273 1.979 1_565 S
N290 N289 1.388 . S
N290 C291 1.346 . S
C291 N290 1.346 . S
C291 C292 1.396 . S
C291 C301 1.510 1_565 S
C292 C288 1.401 . S
C292 C291 1.396 . S
C293 C288 1.499 . S
C293 H294 0.959 . S
C293 H295 0.960 . S
C293 H296 0.961 . S
H294 C293 0.959 . S
H295 C293 0.960 . S
H296 C293 0.961 . S
O297 Co272 1.967 . S
O297 C305 1.258 . S
O298 Co273 1.946 . S
O298 C305 1.266 1_545 S
H299 C301 0.959 . S
H300 C301 0.961 . S
C301 C291 1.510 1_545 S
C301 H299 0.959 . S
C301 H300 0.961 . S
C301 H302 0.960 . S
H302 C301 0.960 . S
H303 N283 0.862 . S
O304 Co272 1.920 . S
O304 C277 1.289 . S
C305 O297 1.258 . S
C305 O298 1.266 1_565 S
Co306 O309 1.970 . S
Co306 N323 1.989 . S
Co306 O331 1.967 . S
Co306 O338 1.920 . S
Co307 O310 1.966 . S
Co307 N316 2.022 . S
Co307 N324 1.993 . S
Co307 O332 1.941 . S
C308 O309 1.258 . S
C308 O310 1.263 . S
O309 Co306 1.970 . S
O309 C308 1.258 . S
O310 Co307 1.966 . S
O310 C308 1.263 . S
C311 O312 1.235 . S
C311 O338 1.289 . S
O312 C311 1.235 . S
C313 C315 1.400 . S
C313 N316 1.351 . S
C313 C318 1.501 . S
C314 C315 1.387 . S
C314 N317 1.341 . S
C315 C313 1.400 . S
C315 C314 1.387 . S
N316 Co307 2.022 . S
N316 C313 1.351 . S
N316 N317 1.365 . S
N317 C314 1.341 . S
N317 N316 1.365 . S
N317 H337 0.862 . S
C318 C313 1.501 . S
C318 H319 0.961 . S
C318 H320 0.961 . S
C318 H321 0.960 . S
H319 C318 0.961 . S
H320 C318 0.961 . S
H321 C318 0.960 . S
C322 N323 1.342 . S
C322 C326 1.401 . S
C322 C327 1.499 . S
N323 Co306 1.989 . S
N323 C322 1.342 . S
N323 N324 1.388 . S
N324 Co307 1.993 . S
N324 N323 1.388 . S
N324 C325 1.346 . S
C325 N324 1.346 . S
C325 C326 1.396 . S
C325 C335 1.510 . S
C326 C322 1.401 . S
C326 C325 1.396 . S
C327 C322 1.499 . S
C327 H328 0.959 . S
C327 H329 0.960 . S
C327 H330 0.961 . S
H328 C327 0.959 . S
H329 C327 0.960 . S
H330 C327 0.961 . S
O331 Co306 1.967 . S
O331 C339 1.258 . S
O332 Co307 1.941 . S
O332 C339 1.266 . S
H333 C335 0.959 . S
H334 C335 0.961 . S
C335 C325 1.510 . S
C335 H333 0.959 . S
C335 H334 0.961 . S
C335 H336 0.960 . S
H336 C335 0.960 . S
H337 N317 0.862 . S
O338 Co306 1.920 . S
O338 C311 1.289 . S
C339 O331 1.258 . S
C339 O332 1.266 . S
Co340 O343 1.970 . S
Co340 N357 1.989 . S
Co340 O365 1.967 . S
Co340 O372 1.920 . S
Co341 O344 1.966 . S
Co341 N350 2.022 . S
Co341 N358 1.993 . S
Co341 O366 1.941 . S
C342 O343 1.258 . S
C342 O344 1.263 . S
O343 Co340 1.970 . S
O343 C342 1.258 . S
O344 Co341 1.966 . S
O344 C342 1.263 . S
C345 O346 1.235 . S
C345 O372 1.289 . S
O346 C345 1.235 . S
C347 C349 1.400 . S
C347 N350 1.351 . S
C347 C352 1.501 . S
C348 C349 1.387 . S
C348 N351 1.341 . S
C349 C347 1.400 . S
C349 C348 1.387 . S
N350 Co341 2.022 . S
N350 C347 1.351 . S
N350 N351 1.365 . S
N351 C348 1.341 . S
N351 N350 1.365 . S
N351 H371 0.862 . S
C352 C347 1.501 . S
C352 H353 0.961 . S
C352 H354 0.961 . S
C352 H355 0.960 . S
H353 C352 0.961 . S
H354 C352 0.961 . S
H355 C352 0.960 . S
C356 N357 1.342 . S
C356 C360 1.401 . S
C356 C361 1.499 . S
N357 Co340 1.989 . S
N357 C356 1.342 . S
N357 N358 1.388 . S
N358 Co341 1.993 . S
N358 N357 1.388 . S
N358 C359 1.346 . S
C359 N358 1.346 . S
C359 C360 1.396 . S
C359 C369 1.510 . S
C360 C356 1.401 . S
C360 C359 1.396 . S
C361 C356 1.499 . S
C361 H362 0.959 . S
C361 H363 0.960 . S
C361 H364 0.961 . S
H362 C361 0.959 . S
H363 C361 0.960 . S
H364 C361 0.961 . S
O365 Co340 1.967 . S
O365 C373 1.258 . S
O366 Co341 1.941 . S
O366 C373 1.266 . S
H367 C369 0.959 . S
H368 C369 0.961 . S
C369 C359 1.510 . S
C369 H367 0.959 . S
C369 H368 0.961 . S
C369 H370 0.960 . S
H370 C369 0.960 . S
H371 N351 0.862 . S
O372 Co340 1.920 . S
O372 C345 1.289 . S
C373 O365 1.258 . S
C373 O366 1.266 . S
Co374 O377 1.970 . S
Co374 N391 1.989 . S
Co374 O399 1.967 . S
Co374 O406 1.920 . S
Co375 O378 1.955 1_455 S
Co375 N384 2.046 . S
Co375 N392 1.979 1_455 S
Co375 O400 1.946 . S
C376 O377 1.258 . S
C376 O378 1.263 . S
O377 Co374 1.970 . S
O377 C376 1.258 . S
O378 Co375 1.955 1_655 S
O378 C376 1.263 . S
C379 O380 1.235 . S
C379 O406 1.289 . S
O380 C379 1.235 . S
C381 C383 1.400 . S
C381 N384 1.351 . S
C381 C386 1.501 . S
C382 C383 1.387 . S
C382 N385 1.341 . S
C383 C381 1.400 . S
C383 C382 1.387 . S
N384 Co375 2.046 . S
N384 C381 1.351 . S
N384 N385 1.365 . S
N385 C382 1.341 . S
N385 N384 1.365 . S
N385 H405 0.862 . S
C386 C381 1.501 . S
C386 H387 0.961 . S
C386 H388 0.961 . S
C386 H389 0.960 . S
H387 C386 0.961 . S
H388 C386 0.961 . S
H389 C386 0.960 . S
C390 N391 1.342 . S
C390 C394 1.401 . S
C390 C395 1.499 . S
N391 Co374 1.989 . S
N391 C390 1.342 . S
N391 N392 1.388 . S
N392 Co375 1.979 1_655 S
N392 N391 1.388 . S
N392 C393 1.346 . S
C393 N392 1.346 . S
C393 C394 1.396 . S
C393 C403 1.510 1_655 S
C394 C390 1.401 . S
C394 C393 1.396 . S
C395 C390 1.499 . S
C395 H396 0.959 . S
C395 H397 0.960 . S
C395 H398 0.961 . S
H396 C395 0.959 . S
H397 C395 0.960 . S
H398 C395 0.961 . S
O399 Co374 1.967 . S
O399 C407 1.258 . S
O400 Co375 1.946 . S
O400 C407 1.266 1_455 S
H401 C403 0.959 . S
H402 C403 0.961 . S
C403 C393 1.510 1_455 S
C403 H401 0.959 . S
C403 H402 0.961 . S
C403 H404 0.960 . S
H404 C403 0.960 . S
H405 N385 0.862 . S
O406 Co374 1.920 . S
O406 C379 1.289 . S
C407 O399 1.258 . S
C407 O400 1.266 1_655 S
Co408 O411 1.970 . S
Co408 N425 1.989 . S
Co408 O433 1.967 . S
Co408 O440 1.920 . S
Co409 O412 1.955 1_565 S
Co409 N418 2.046 . S
Co409 N426 1.979 1_565 S
Co409 O434 1.946 . S
C410 O411 1.258 . S
C410 O412 1.263 . S
O411 Co408 1.970 . S
O411 C410 1.258 . S
O412 Co409 1.955 1_545 S
O412 C410 1.263 . S
C413 O414 1.235 . S
C413 O440 1.289 . S
O414 C413 1.235 . S
C415 C417 1.400 . S
C415 N418 1.351 . S
C415 C420 1.501 . S
C416 C417 1.387 . S
C416 N419 1.341 . S
C417 C415 1.400 . S
C417 C416 1.387 . S
N418 Co409 2.046 . S
N418 C415 1.351 . S
N418 N419 1.365 . S
N419 C416 1.341 . S
N419 N418 1.365 . S
N419 H439 0.862 . S
C420 C415 1.501 . S
C420 H421 0.961 . S
C420 H422 0.961 . S
C420 H423 0.960 . S
H421 C420 0.961 . S
H422 C420 0.961 . S
H423 C420 0.960 . S
C424 N425 1.342 . S
C424 C428 1.401 . S
C424 C429 1.499 . S
N425 Co408 1.989 . S
N425 C424 1.342 . S
N425 N426 1.388 . S
N426 Co409 1.979 1_545 S
N426 N425 1.388 . S
N426 C427 1.346 . S
C427 N426 1.346 . S
C427 C428 1.396 . S
C427 C437 1.510 1_545 S
C428 C424 1.401 . S
C428 C427 1.396 . S
C429 C424 1.499 . S
C429 H430 0.959 . S
C429 H431 0.960 . S
C429 H432 0.961 . S
H430 C429 0.959 . S
H431 C429 0.960 . S
H432 C429 0.961 . S
O433 Co408 1.967 . S
O433 C441 1.258 . S
O434 Co409 1.946 . S
O434 C441 1.266 1_565 S
H435 C437 0.959 . S
H436 C437 0.961 . S
C437 C427 1.510 1_565 S
C437 H435 0.959 . S
C437 H436 0.961 . S
C437 H438 0.960 . S
H438 C437 0.960 . S
H439 N419 0.862 . S
O440 Co408 1.920 . S
O440 C413 1.289 . S
C441 O433 1.258 . S
C441 O434 1.266 1_545 S
Co442 O445 1.970 . S
Co442 N459 1.989 . S
Co442 O467 1.967 . S
Co442 O474 1.920 . S
Co443 O446 1.966 . S
Co443 N452 2.022 . S
Co443 N460 1.993 . S
Co443 O468 1.941 . S
C444 O445 1.258 . S
C444 O446 1.263 . S
O445 Co442 1.970 . S
O445 C444 1.258 . S
O446 Co443 1.966 . S
O446 C444 1.263 . S
C447 O448 1.235 . S
C447 O474 1.289 . S
O448 C447 1.235 . S
C449 C451 1.400 . S
C449 N452 1.351 . S
C449 C454 1.501 . S
C450 C451 1.387 . S
C450 N453 1.341 . S
C451 C449 1.400 . S
C451 C450 1.387 . S
N452 Co443 2.022 . S
N452 C449 1.351 . S
N452 N453 1.365 . S
N453 C450 1.341 . S
N453 N452 1.365 . S
N453 H473 0.862 . S
C454 C449 1.501 . S
C454 H455 0.961 . S
C454 H456 0.961 . S
C454 H457 0.960 . S
H455 C454 0.961 . S
H456 C454 0.961 . S
H457 C454 0.960 . S
C458 N459 1.342 . S
C458 C462 1.401 . S
C458 C463 1.499 . S
N459 Co442 1.989 . S
N459 C458 1.342 . S
N459 N460 1.388 . S
N460 Co443 1.993 . S
N460 N459 1.388 . S
N460 C461 1.346 . S
C461 N460 1.346 . S
C461 C462 1.396 . S
C461 C471 1.510 . S
C462 C458 1.401 . S
C462 C461 1.396 . S
C463 C458 1.499 . S
C463 H464 0.959 . S
C463 H465 0.960 . S
C463 H466 0.961 . S
H464 C463 0.959 . S
H465 C463 0.960 . S
H466 C463 0.961 . S
O467 Co442 1.967 . S
O467 C475 1.258 . S
O468 Co443 1.941 . S
O468 C475 1.266 . S
H469 C471 0.959 . S
H470 C471 0.961 . S
C471 C461 1.510 . S
C471 H469 0.959 . S
C471 H470 0.961 . S
C471 H472 0.960 . S
H472 C471 0.960 . S
H473 N453 0.862 . S
O474 Co442 1.920 . S
O474 C447 1.289 . S
C475 O467 1.258 . S
C475 O468 1.266 . S
Co476 O479 1.970 . S
Co476 N493 1.989 . S
Co476 O501 1.967 . S
Co476 O508 1.920 . S
Co477 O480 1.966 . S
Co477 N486 2.022 . S
Co477 N494 1.993 . S
Co477 O502 1.941 . S
C478 O479 1.258 . S
C478 O480 1.263 . S
O479 Co476 1.970 . S
O479 C478 1.258 . S
O480 Co477 1.966 . S
O480 C478 1.263 . S
C481 O482 1.235 . S
C481 O508 1.289 . S
O482 C481 1.235 . S
C483 C485 1.400 . S
C483 N486 1.351 . S
C483 C488 1.501 . S
C484 C485 1.387 . S
C484 N487 1.341 . S
C485 C483 1.400 . S
C485 C484 1.387 . S
N486 Co477 2.022 . S
N486 C483 1.351 . S
N486 N487 1.365 . S
N487 C484 1.341 . S
N487 N486 1.365 . S
N487 H507 0.862 . S
C488 C483 1.501 . S
C488 H489 0.961 . S
C488 H490 0.961 . S
C488 H491 0.960 . S
H489 C488 0.961 . S
H490 C488 0.961 . S
H491 C488 0.960 . S
C492 N493 1.342 . S
C492 C496 1.401 . S
C492 C497 1.499 . S
N493 Co476 1.989 . S
N493 C492 1.342 . S
N493 N494 1.388 . S
N494 Co477 1.993 . S
N494 N493 1.388 . S
N494 C495 1.346 . S
C495 N494 1.346 . S
C495 C496 1.396 . S
C495 C505 1.510 . S
C496 C492 1.401 . S
C496 C495 1.396 . S
C497 C492 1.499 . S
C497 H498 0.959 . S
C497 H499 0.960 . S
C497 H500 0.961 . S
H498 C497 0.959 . S
H499 C497 0.960 . S
H500 C497 0.961 . S
O501 Co476 1.967 . S
O501 C509 1.258 . S
O502 Co477 1.941 . S
O502 C509 1.266 . S
H503 C505 0.959 . S
H504 C505 0.961 . S
C505 C495 1.510 . S
C505 H503 0.959 . S
C505 H504 0.961 . S
C505 H506 0.960 . S
H506 C505 0.960 . S
H507 N487 0.862 . S
O508 Co476 1.920 . S
O508 C481 1.289 . S
C509 O501 1.258 . S
C509 O502 1.266 . S
Co510 O513 1.970 . S
Co510 N527 1.989 . S
Co510 O535 1.967 . S
Co510 O542 1.920 . S
Co511 O514 1.955 1_655 S
Co511 N520 2.046 . S
Co511 N528 1.979 1_655 S
Co511 O536 1.946 . S
C512 O513 1.258 . S
C512 O514 1.263 . S
O513 Co510 1.970 . S
O513 C512 1.258 . S
O514 Co511 1.955 1_455 S
O514 C512 1.263 . S
C515 O516 1.235 . S
C515 O542 1.289 . S
O516 C515 1.235 . S
C517 C519 1.400 . S
C517 N520 1.351 . S
C517 C522 1.501 . S
C518 C519 1.387 . S
C518 N521 1.341 . S
C519 C517 1.400 . S
C519 C518 1.387 . S
N520 Co511 2.046 . S
N520 C517 1.351 . S
N520 N521 1.365 . S
N521 C518 1.341 . S
N521 N520 1.365 . S
N521 H541 0.862 . S
C522 C517 1.501 . S
C522 H523 0.961 . S
C522 H524 0.961 . S
C522 H525 0.960 . S
H523 C522 0.961 . S
H524 C522 0.961 . S
H525 C522 0.960 . S
C526 N527 1.342 . S
C526 C530 1.401 . S
C526 C531 1.499 . S
N527 Co510 1.989 . S
N527 C526 1.342 . S
N527 N528 1.388 . S
N528 Co511 1.979 1_455 S
N528 N527 1.388 . S
N528 C529 1.346 . S
C529 N528 1.346 . S
C529 C530 1.396 . S
C529 C539 1.510 1_455 S
C530 C526 1.401 . S
C530 C529 1.396 . S
C531 C526 1.499 . S
C531 H532 0.959 . S
C531 H533 0.960 . S
C531 H534 0.961 . S
H532 C531 0.959 . S
H533 C531 0.960 . S
H534 C531 0.961 . S
O535 Co510 1.967 . S
O535 C543 1.258 . S
O536 Co511 1.946 . S
O536 C543 1.266 1_655 S
H537 C539 0.959 . S
H538 C539 0.961 . S
C539 C529 1.510 1_655 S
C539 H537 0.959 . S
C539 H538 0.961 . S
C539 H540 0.960 . S
H540 C539 0.960 . S
H541 N521 0.862 . S
O542 Co510 1.920 . S
O542 C515 1.289 . S
C543 O535 1.258 . S
C543 O536 1.266 1_455 S
H544 C552 0.929 . S
H545 C554 0.930 . S
H546 C556 0.930 . S
H547 C559 0.929 . S
H548 C562 0.930 . S
H549 C564 0.960 . S
H550 C564 0.960 . S
H551 C564 0.960 . S
C552 H544 0.929 . S
C552 C553 1.377 . S
C552 C554 1.384 . S
C553 C552 1.377 . S
C553 C559 1.390 . S
C554 H545 0.930 . S
C554 C552 1.384 . S
C554 C555 1.372 . S
C555 C554 1.372 . S
C555 C556 1.400 . S
C555 C560 1.490 . S
C556 H546 0.930 . S
C556 C555 1.400 . S
C556 C559 1.386 . S
H557 C573 0.930 . S
H558 C574 0.931 . S
C559 H547 0.929 . S
C559 C553 1.390 . S
C559 C556 1.386 . S
C560 C555 1.490 . S
C560 C562 1.395 . S
C560 C563 1.403 . S
H561 C567 0.930 . S
C562 H548 0.930 . S
C562 C560 1.395 . S
C562 C565 1.403 . S
C563 C560 1.403 . S
C563 C564 1.524 . S
C563 C567 1.400 . S
C564 H549 0.960 . S
C564 H550 0.960 . S
C564 H551 0.960 . S
C564 C563 1.524 . S
C565 C562 1.403 . S
C565 C566 1.392 . S
C565 C569 1.495 . S
C566 C565 1.392 . S
C566 C567 1.385 . S
C566 C568 1.478 . S
C567 H561 0.930 . S
C567 C563 1.400 . S
C567 C566 1.385 . S
C568 C566 1.478 . S
C568 C570 1.381 . S
C568 C574 1.383 . S
C569 C565 1.495 . S
C569 H575 0.959 . S
C569 H576 0.961 . S
C569 H577 0.960 . S
C570 C568 1.381 . S
C570 C571 1.394 . S
C570 H578 0.930 . S
C571 C570 1.394 . S
C571 C572 1.383 . S
C571 H579 0.929 . S
C572 C571 1.383 . S
C572 C573 1.377 . S
C573 H557 0.930 . S
C573 C572 1.377 . S
C573 C574 1.379 . S
C574 H558 0.931 . S
C574 C568 1.383 . S
C574 C573 1.379 . S
H575 C569 0.959 . S
H576 C569 0.961 . S
H577 C569 0.960 . S
H578 C570 0.930 . S
H579 C571 0.929 . S
H580 C588 0.929 . S
H581 C590 0.930 . S
H582 C592 0.930 . S
H583 C595 0.929 . S
H584 C598 0.930 . S
H585 C600 0.960 . S
H586 C600 0.960 . S
H587 C600 0.960 . S
C588 H580 0.929 . S
C588 C589 1.377 . S
C588 C590 1.384 . S
C589 C588 1.377 . S
C589 C595 1.390 . S
C590 H581 0.930 . S
C590 C588 1.384 . S
C590 C591 1.372 . S
C591 C590 1.372 . S
C591 C592 1.400 . S
C591 C596 1.490 . S
C592 H582 0.930 . S
C592 C591 1.400 . S
C592 C595 1.386 . S
H593 C609 0.930 . S
H594 C610 0.931 . S
C595 H583 0.929 . S
C595 C589 1.390 . S
C595 C592 1.386 . S
C596 C591 1.490 . S
C596 C598 1.395 . S
C596 C599 1.403 . S
H597 C603 0.930 . S
C598 H584 0.930 . S
C598 C596 1.395 . S
C598 C601 1.403 . S
C599 C596 1.403 . S
C599 C600 1.524 . S
C599 C603 1.400 . S
C600 H585 0.960 . S
C600 H586 0.960 . S
C600 H587 0.960 . S
C600 C599 1.524 . S
C601 C598 1.403 . S
C601 C602 1.392 . S
C601 C605 1.495 . S
C602 C601 1.392 . S
C602 C603 1.385 . S
C602 C604 1.478 . S
C603 H597 0.930 . S
C603 C599 1.400 . S
C603 C602 1.385 . S
C604 C602 1.478 . S
C604 C606 1.381 . S
C604 C610 1.383 . S
C605 C601 1.495 . S
C605 H611 0.959 . S
C605 H612 0.961 . S
C605 H613 0.960 . S
C606 C604 1.381 . S
C606 C607 1.394 . S
C606 H614 0.930 . S
C607 C606 1.394 . S
C607 C608 1.383 . S
C607 H615 0.929 . S
C608 C607 1.383 . S
C608 C609 1.377 . S
C609 H593 0.930 . S
C609 C608 1.377 . S
C609 C610 1.379 . S
C610 H594 0.931 . S
C610 C604 1.383 . S
C610 C609 1.379 . S
H611 C605 0.959 . S
H612 C605 0.961 . S
H613 C605 0.960 . S
H614 C606 0.930 . S
H615 C607 0.929 . S
H616 C624 0.929 . S
H617 C626 0.930 . S
H618 C628 0.930 . S
H619 C631 0.929 . S
H620 C634 0.930 . S
H621 C636 0.960 . S
H622 C636 0.960 . S
H623 C636 0.960 . S
C624 H616 0.929 . S
C624 C625 1.377 . S
C624 C626 1.384 . S
C625 C624 1.377 . S
C625 C631 1.390 1_455 S
C626 H617 0.930 . S
C626 C624 1.384 . S
C626 C627 1.372 1_455 S
C627 C626 1.372 1_655 S
C627 C628 1.400 . S
C627 C632 1.490 . S
C628 H618 0.930 . S
C628 C627 1.400 . S
C628 C631 1.386 . S
H629 C645 0.930 . S
H630 C646 0.931 . S
C631 H619 0.929 . S
C631 C625 1.390 1_655 S
C631 C628 1.386 . S
C632 C627 1.490 . S
C632 C634 1.395 1_655 S
C632 C635 1.403 . S
H633 C639 0.930 . S
C634 H620 0.930 . S
C634 C632 1.395 1_455 S
C634 C637 1.403 . S
C635 C632 1.403 . S
C635 C636 1.524 . S
C635 C639 1.400 . S
C636 H621 0.960 . S
C636 H622 0.960 . S
C636 H623 0.960 . S
C636 C635 1.524 . S
C637 C634 1.403 . S
C637 C638 1.392 1_455 S
C637 C641 1.495 . S
C638 C637 1.392 1_655 S
C638 C639 1.385 . S
C638 C640 1.478 . S
C639 H633 0.930 . S
C639 C635 1.400 . S
C639 C638 1.385 . S
C640 C638 1.478 . S
C640 C642 1.381 . S
C640 C646 1.383 . S
C641 C637 1.495 . S
C641 H647 0.959 . S
C641 H648 0.961 . S
C641 H649 0.960 . S
C642 C640 1.381 . S
C642 C643 1.394 . S
C642 H650 0.908 1_655 S
C643 C642 1.394 . S
C643 C644 1.383 . S
C643 H651 0.929 . S
C644 C643 1.383 . S
C644 C645 1.377 . S
C645 H629 0.930 . S
C645 C644 1.377 . S
C645 C646 1.379 . S
C646 H630 0.931 . S
C646 C640 1.383 . S
C646 C645 1.379 . S
H647 C641 0.959 . S
H648 C641 0.961 . S
H649 C641 0.960 . S
H650 C642 0.908 1_455 S
H651 C643 0.929 . S
H652 C660 0.929 . S
H653 C662 0.930 . S
H654 C664 0.930 . S
H655 C667 0.929 . S
H656 C670 0.930 . S
H657 C672 0.960 . S
H658 C672 0.960 . S
H659 C672 0.960 . S
C660 H652 0.929 . S
C660 C661 1.377 . S
C660 C662 1.384 . S
C661 C660 1.377 . S
C661 C667 1.390 . S
C662 H653 0.930 . S
C662 C660 1.384 . S
C662 C663 1.372 . S
C663 C662 1.372 . S
C663 C664 1.400 . S
C663 C668 1.490 . S
C664 H654 0.930 . S
C664 C663 1.400 . S
C664 C667 1.386 . S
H665 C681 0.930 . S
H666 C682 0.931 . S
C667 H655 0.929 . S
C667 C661 1.390 . S
C667 C664 1.386 . S
C668 C663 1.490 . S
C668 C670 1.395 . S
C668 C671 1.403 1_565 S
H669 C675 0.930 . S
C670 H656 0.930 . S
C670 C668 1.395 . S
C670 C673 1.403 . S
C671 C668 1.403 1_545 S
C671 C672 1.524 . S
C671 C675 1.400 . S
C672 H657 0.960 . S
C672 H658 0.960 . S
C672 H659 0.960 . S
C672 C671 1.524 . S
C673 C670 1.403 . S
C673 C674 1.392 . S
C673 C677 1.495 . S
C674 C673 1.392 . S
C674 C675 1.385 1_565 S
C674 C676 1.478 . S
C675 H669 0.930 . S
C675 C671 1.400 . S
C675 C674 1.385 1_545 S
C676 C674 1.478 . S
C676 C678 1.381 . S
C676 C682 1.383 1_565 S
C677 C673 1.495 . S
C677 H683 0.959 . S
C677 H684 0.961 . S
C677 H685 0.960 . S
C678 C676 1.381 . S
C678 C679 1.394 . S
C678 H686 0.930 . S
C679 C678 1.394 . S
C679 C680 1.383 1_565 S
C679 H687 0.929 . S
C680 C679 1.383 1_545 S
C680 C681 1.377 . S
C681 H665 0.930 . S
C681 C680 1.377 . S
C681 C682 1.379 . S
C682 H666 0.931 . S
C682 C676 1.383 1_545 S
C682 C681 1.379 . S
H683 C677 0.959 . S
H684 C677 0.961 . S
H685 C677 0.960 . S
H686 C678 0.930 . S
H687 C679 0.929 . S
H688 C696 0.929 . S
H689 C698 0.930 . S
H690 C700 0.930 . S
H691 C703 0.929 . S
H692 C706 0.930 . S
H693 C708 0.960 . S
H694 C708 0.960 . S
H695 C708 0.960 . S
C696 H688 0.929 . S
C696 C697 1.377 . S
C696 C698 1.384 . S
C697 C696 1.377 . S
C697 C703 1.390 1_655 S
C698 H689 0.930 . S
C698 C696 1.384 . S
C698 C699 1.372 1_655 S
C699 C698 1.372 1_455 S
C699 C700 1.400 . S
C699 C704 1.490 . S
C700 H690 0.930 . S
C700 C699 1.400 . S
C700 C703 1.386 . S
H701 C717 0.930 . S
H702 C718 0.931 . S
C703 H691 0.929 . S
C703 C697 1.390 1_455 S
C703 C700 1.386 . S
C704 C699 1.490 . S
C704 C706 1.395 1_455 S
C704 C707 1.403 . S
H705 C711 0.930 . S
C706 H692 0.930 . S
C706 C704 1.395 1_655 S
C706 C709 1.403 . S
C707 C704 1.403 . S
C707 C708 1.524 . S
C707 C711 1.400 . S
C708 H693 0.960 . S
C708 H694 0.960 . S
C708 H695 0.960 . S
C708 C707 1.524 . S
C709 C706 1.403 . S
C709 C710 1.392 1_655 S
C709 C713 1.495 . S
C710 C709 1.392 1_455 S
C710 C711 1.385 . S
C710 C712 1.478 . S
C711 H705 0.930 . S
C711 C707 1.400 . S
C711 C710 1.385 . S
C712 C710 1.478 . S
C712 C714 1.381 . S
C712 C718 1.383 . S
C713 C709 1.495 . S
C713 H719 0.959 . S
C713 H720 0.961 . S
C713 H721 0.960 . S
C714 C712 1.381 . S
C714 C715 1.394 . S
C714 H722 0.921 1_455 S
C715 C714 1.394 . S
C715 C716 1.383 . S
C715 H723 0.929 . S
C716 C715 1.383 . S
C716 C717 1.377 . S
C717 H701 0.930 . S
C717 C716 1.377 . S
C717 C718 1.379 . S
C718 H702 0.931 . S
C718 C712 1.383 . S
C718 C717 1.379 . S
H719 C713 0.959 . S
H720 C713 0.961 . S
H721 C713 0.960 . S
H722 C714 0.921 1_655 S
H723 C715 0.929 . S
H724 C732 0.929 . S
H725 C734 0.930 . S
H726 C736 0.930 . S
H727 C739 0.929 . S
H728 C742 0.930 . S
H729 C744 0.960 . S
H730 C744 0.960 . S
H731 C744 0.960 . S
C732 H724 0.929 . S
C732 C733 1.377 . S
C732 C734 1.384 . S
C733 C732 1.377 . S
C733 C739 1.390 1_565 S
C734 H725 0.930 . S
C734 C732 1.384 . S
C734 C735 1.372 1_565 S
C735 C734 1.372 1_545 S
C735 C736 1.400 . S
C735 C740 1.490 . S
C736 H726 0.930 . S
C736 C735 1.400 . S
C736 C739 1.386 . S
H737 C753 0.930 . S
H738 C754 0.931 . S
C739 H727 0.929 . S
C739 C733 1.390 1_545 S
C739 C736 1.386 . S
C740 C735 1.490 . S
C740 C742 1.395 . S
C740 C743 1.403 . S
H741 C747 0.930 . S
C742 H728 0.930 . S
C742 C740 1.395 . S
C742 C745 1.403 . S
C743 C740 1.403 . S
C743 C744 1.524 1_545 S
C743 C747 1.400 . S
C744 H729 0.960 . S
C744 H730 0.960 . S
C744 H731 0.960 . S
C744 C743 1.524 1_565 S
C745 C742 1.403 . S
C745 C746 1.392 . S
C745 C749 1.495 . S
C746 C745 1.392 . S
C746 C747 1.385 . S
C746 C748 1.478 . S
C747 H741 0.930 . S
C747 C743 1.400 . S
C747 C746 1.385 . S
C748 C746 1.478 . S
C748 C750 1.381 . S
C748 C754 1.383 . S
C749 C745 1.495 . S
C749 H755 0.959 . S
C749 H756 0.961 . S
C749 H757 0.960 . S
C750 C748 1.381 . S
C750 C751 1.394 . S
C750 H758 0.930 . S
C751 C750 1.394 . S
C751 C752 1.383 . S
C751 H759 0.929 . S
C752 C751 1.383 . S
C752 C753 1.377 . S
C753 H737 0.930 . S
C753 C752 1.377 . S
C753 C754 1.379 . S
C754 H738 0.931 . S
C754 C748 1.383 . S
C754 C753 1.379 . S
H755 C749 0.959 . S
H756 C749 0.961 . S
H757 C749 0.960 . S
H758 C750 0.930 . S
H759 C751 0.929 . S
H760 C768 0.929 . S
H761 C770 0.930 . S
H762 C772 0.930 . S
H763 C775 0.929 . S
H764 C778 0.930 . S
H765 C780 0.960 . S
H766 C780 0.960 . S
H767 C780 0.960 . S
C768 H760 0.929 . S
C768 C769 1.377 . S
C768 C770 1.384 . S
C769 C768 1.377 . S
C769 C775 1.390 . S
C770 H761 0.930 . S
C770 C768 1.384 . S
C770 C771 1.372 . S
C771 C770 1.372 . S
C771 C772 1.400 . S
C771 C776 1.490 . S
C772 H762 0.930 . S
C772 C771 1.400 . S
C772 C775 1.386 . S
H773 C789 0.930 . S
H774 C790 0.931 . S
C775 H763 0.929 . S
C775 C769 1.390 . S
C775 C772 1.386 . S
C776 C771 1.490 . S
C776 C778 1.395 . S
C776 C779 1.403 . S
H777 C783 0.930 . S
C778 H764 0.930 . S
C778 C776 1.395 . S
C778 C781 1.403 . S
C779 C776 1.403 . S
C779 C780 1.524 . S
C779 C783 1.400 . S
C780 H765 0.960 . S
C780 H766 0.960 . S
C780 H767 0.960 . S
C780 C779 1.524 . S
C781 C778 1.403 . S
C781 C782 1.392 . S
C781 C785 1.495 . S
C782 C781 1.392 . S
C782 C783 1.385 . S
C782 C784 1.478 . S
C783 H777 0.930 . S
C783 C779 1.400 . S
C783 C782 1.385 . S
C784 C782 1.478 . S
C784 C786 1.381 . S
C784 C790 1.383 . S
C785 C781 1.495 . S
C785 H791 0.959 . S
C785 H792 0.961 . S
C785 H793 0.960 . S
C786 C784 1.381 . S
C786 C787 1.394 . S
C786 H794 0.930 . S
C787 C786 1.394 . S
C787 C788 1.383 . S
C787 H795 0.929 . S
C788 C787 1.383 . S
C788 C789 1.377 . S
C789 H773 0.930 . S
C789 C788 1.377 . S
C789 C790 1.379 . S
C790 H774 0.931 . S
C790 C784 1.383 . S
C790 C789 1.379 . S
H791 C785 0.959 . S
H792 C785 0.961 . S
H793 C785 0.960 . S
H794 C786 0.930 . S
H795 C787 0.929 . S
H796 C804 0.929 . S
H797 C806 0.930 . S
H798 C808 0.930 . S
H799 C811 0.929 . S
H800 C814 0.930 . S
H801 C816 0.960 . S
H802 C816 0.960 . S
H803 C816 0.960 . S
C804 H796 0.929 . S
C804 C805 1.377 . S
C804 C806 1.384 . S
C805 C804 1.377 . S
C805 C811 1.390 . S
C806 H797 0.930 . S
C806 C804 1.384 . S
C806 C807 1.372 . S
C807 C806 1.372 . S
C807 C808 1.400 . S
C807 C812 1.490 . S
C808 H798 0.930 . S
C808 C807 1.400 . S
C808 C811 1.386 . S
H809 C825 0.930 . S
H810 C826 0.931 . S
C811 H799 0.929 . S
C811 C805 1.390 . S
C811 C808 1.386 . S
C812 C807 1.490 . S
C812 C814 1.395 . S
C812 C815 1.403 . S
H813 C819 0.930 . S
C814 H800 0.930 . S
C814 C812 1.395 . S
C814 C817 1.403 . S
C815 C812 1.403 . S
C815 C816 1.524 . S
C815 C819 1.400 . S
C816 H801 0.960 . S
C816 H802 0.960 . S
C816 H803 0.960 . S
C816 C815 1.524 . S
C817 C814 1.403 . S
C817 C818 1.392 . S
C817 C821 1.495 . S
C818 C817 1.392 . S
C818 C819 1.385 . S
C818 C820 1.478 . S
C819 H813 0.930 . S
C819 C815 1.400 . S
C819 C818 1.385 . S
C820 C818 1.478 . S
C820 C822 1.381 . S
C820 C826 1.383 . S
C821 C817 1.495 . S
C821 H827 0.959 . S
C821 H828 0.961 . S
C821 H829 0.960 . S
C822 C820 1.381 . S
C822 C823 1.394 . S
C822 H830 0.930 . S
C823 C822 1.394 . S
C823 C824 1.383 . S
C823 H831 0.929 . S
C824 C823 1.383 . S
C824 C825 1.377 . S
C825 H809 0.930 . S
C825 C824 1.377 . S
C825 C826 1.379 . S
C826 H810 0.931 . S
C826 C820 1.383 . S
C826 C825 1.379 . S
H827 C821 0.959 . S
H828 C821 0.961 . S
H829 C821 0.960 . S
H830 C822 0.930 . S
H831 C823 0.929 . S
H832 C840 0.929 . S
H833 C842 0.930 . S
H834 C844 0.930 . S
H835 C847 0.929 . S
H836 C850 0.930 . S
H837 C852 0.960 . S
H838 C852 0.960 . S
H839 C852 0.960 . S
C840 H832 0.929 . S
C840 C841 1.377 . S
C840 C842 1.384 . S
C841 C840 1.377 . S
C841 C847 1.390 . S
C842 H833 0.930 . S
C842 C840 1.384 . S
C842 C843 1.372 . S
C843 C842 1.372 . S
C843 C844 1.400 . S
C843 C848 1.490 . S
C844 H834 0.930 . S
C844 C843 1.400 . S
C844 C847 1.386 . S
H845 C861 0.930 . S
H846 C862 0.931 . S
C847 H835 0.929 . S
C847 C841 1.390 . S
C847 C844 1.386 . S
C848 C843 1.490 . S
C848 C850 1.395 . S
C848 C851 1.403 . S
H849 C855 0.930 . S
C850 H836 0.930 . S
C850 C848 1.395 . S
C850 C853 1.403 . S
C851 C848 1.403 . S
C851 C852 1.524 . S
C851 C855 1.400 . S
C852 H837 0.960 . S
C852 H838 0.960 . S
C852 H839 0.960 . S
C852 C851 1.524 . S
C853 C850 1.403 . S
C853 C854 1.392 . S
C853 C857 1.495 . S
C854 C853 1.392 . S
C854 C855 1.385 . S
C854 C856 1.478 . S
C855 H849 0.930 . S
C855 C851 1.400 . S
C855 C854 1.385 . S
C856 C854 1.478 . S
C856 C858 1.381 . S
C856 C862 1.383 . S
C857 C853 1.495 . S
C857 H863 0.959 . S
C857 H864 0.961 . S
C857 H865 0.960 . S
C858 C856 1.381 . S
C858 C859 1.394 . S
C858 H866 0.930 . S
C859 C858 1.394 . S
C859 C860 1.383 . S
C859 H867 0.929 . S
C860 C859 1.383 . S
C860 C861 1.377 . S
C861 H845 0.930 . S
C861 C860 1.377 . S
C861 C862 1.379 . S
C862 H846 0.931 . S
C862 C856 1.383 . S
C862 C861 1.379 . S
H863 C857 0.959 . S
H864 C857 0.961 . S
H865 C857 0.960 . S
H866 C858 0.930 . S
H867 C859 0.929 . S
H868 C876 0.929 . S
H869 C878 0.930 . S
H870 C880 0.930 . S
H871 C883 0.929 . S
H872 C886 0.930 . S
H873 C888 0.960 . S
H874 C888 0.960 . S
H875 C888 0.960 . S
C876 H868 0.929 . S
C876 C877 1.377 . S
C876 C878 1.384 . S
C877 C876 1.377 . S
C877 C883 1.390 . S
C878 H869 0.930 . S
C878 C876 1.384 . S
C878 C879 1.372 . S
C879 C878 1.372 . S
C879 C880 1.400 . S
C879 C884 1.490 . S
C880 H870 0.930 . S
C880 C879 1.400 . S
C880 C883 1.386 . S
H881 C897 0.930 . S
H882 C898 0.931 . S
C883 H871 0.929 . S
C883 C877 1.390 . S
C883 C880 1.386 . S
C884 C879 1.490 . S
C884 C886 1.395 . S
C884 C887 1.403 . S
H885 C891 0.930 . S
C886 H872 0.930 . S
C886 C884 1.395 . S
C886 C889 1.403 . S
C887 C884 1.403 . S
C887 C888 1.524 . S
C887 C891 1.400 . S
C888 H873 0.960 . S
C888 H874 0.960 . S
C888 H875 0.960 . S
C888 C887 1.524 . S
C889 C886 1.403 . S
C889 C890 1.392 . S
C889 C893 1.495 . S
C890 C889 1.392 . S
C890 C891 1.385 . S
C890 C892 1.478 . S
C891 H885 0.930 . S
C891 C887 1.400 . S
C891 C890 1.385 . S
C892 C890 1.478 . S
C892 C894 1.381 . S
C892 C898 1.383 . S
C893 C889 1.495 . S
C893 H899 0.959 . S
C893 H900 0.961 . S
C893 H901 0.960 . S
C894 C892 1.381 . S
C894 C895 1.394 . S
C894 H902 0.930 . S
C895 C894 1.394 . S
C895 C896 1.383 . S
C895 H903 0.929 . S
C896 C895 1.383 . S
C896 C897 1.377 . S
C897 H881 0.930 . S
C897 C896 1.377 . S
C897 C898 1.379 . S
C898 H882 0.931 . S
C898 C892 1.383 . S
C898 C897 1.379 . S
H899 C893 0.959 . S
H900 C893 0.961 . S
H901 C893 0.960 . S
H902 C894 0.930 . S
H903 C895 0.929 . S
H904 C912 0.929 . S
H905 C914 0.930 . S
H906 C916 0.930 . S
H907 C919 0.929 . S
H908 C922 0.930 1_655 S
H909 C924 0.960 . S
H910 C924 0.960 . S
H911 C924 0.960 . S
C912 H904 0.929 . S
C912 C913 1.377 1_455 S
C912 C914 1.384 . S
C913 C912 1.377 1_655 S
C913 C919 1.390 . S
C914 H905 0.930 . S
C914 C912 1.384 . S
C914 C915 1.372 . S
C915 C914 1.372 . S
C915 C916 1.400 1_455 S
C915 C920 1.490 . S
C916 H906 0.930 . S
C916 C915 1.400 1_655 S
C916 C919 1.386 . S
H917 C933 0.930 . S
H918 C934 0.931 1_655 S
C919 H907 0.929 . S
C919 C913 1.390 . S
C919 C916 1.386 . S
C920 C915 1.490 . S
C920 C922 1.395 . S
C920 C923 1.403 . S
H921 C927 0.930 . S
C922 H908 0.930 1_455 S
C922 C920 1.395 . S
C922 C925 1.403 . S
C923 C920 1.403 . S
C923 C924 1.524 . S
C923 C927 1.400 . S
C924 H909 0.960 . S
C924 H910 0.960 . S
C924 H911 0.960 . S
C924 C923 1.524 . S
C925 C922 1.403 . S
C925 C926 1.392 . S
C925 C929 1.495 . S
C926 C925 1.392 . S
C926 C927 1.385 . S
C926 C928 1.478 . S
C927 H921 0.930 . S
C927 C923 1.400 . S
C927 C926 1.385 . S
C928 C926 1.478 . S
C928 C930 1.381 . S
C928 C934 1.383 . S
C929 C925 1.495 . S
C929 H935 0.959 1_455 S
C929 H936 0.961 1_455 S
C929 H937 0.960 . S
C930 C928 1.381 . S
C930 C931 1.394 . S
C930 H938 0.930 . S
C931 C930 1.394 . S
C931 C932 1.383 . S
C931 H939 0.929 . S
C932 C931 1.383 . S
C932 C933 1.377 . S
C933 H917 0.930 . S
C933 C932 1.377 . S
C933 C934 1.379 . S
C934 H918 0.931 1_455 S
C934 C928 1.383 . S
C934 C933 1.379 . S
H935 C929 0.959 1_655 S
H936 C929 0.961 1_655 S
H937 C929 0.960 . S
H938 C930 0.930 . S
H939 C931 0.929 . S
H940 C948 0.929 . S
H941 C950 0.930 . S
H942 C952 0.930 . S
H943 C955 0.929 . S
H944 C958 0.930 . S
H945 C960 0.960 . S
H946 C960 0.960 . S
H947 C960 0.960 . S
C948 H940 0.929 . S
C948 C949 1.377 . S
C948 C950 1.384 . S
C949 C948 1.377 . S
C949 C955 1.390 1_565 S
C950 H941 0.930 . S
C950 C948 1.384 . S
C950 C951 1.372 1_565 S
C951 C950 1.372 1_545 S
C951 C952 1.400 . S
C951 C956 1.490 . S
C952 H942 0.930 . S
C952 C951 1.400 . S
C952 C955 1.386 . S
H953 C969 0.930 . S
H954 C970 0.931 . S
C955 H943 0.929 . S
C955 C949 1.390 1_545 S
C955 C952 1.386 . S
C956 C951 1.490 . S
C956 C958 1.395 1_545 S
C956 C959 1.403 . S
H957 C963 0.930 . S
C958 H944 0.930 . S
C958 C956 1.395 1_565 S
C958 C961 1.403 . S
C959 C956 1.403 . S
C959 C960 1.524 . S
C959 C963 1.400 . S
C960 H945 0.960 . S
C960 H946 0.960 . S
C960 H947 0.960 . S
C960 C959 1.524 . S
C961 C958 1.403 . S
C961 C962 1.392 1_565 S
C961 C965 1.495 . S
C962 C961 1.392 1_545 S
C962 C963 1.385 . S
C962 C964 1.478 . S
C963 H957 0.930 . S
C963 C959 1.400 . S
C963 C962 1.385 . S
C964 C962 1.478 . S
C964 C966 1.381 . S
C964 C970 1.383 . S
C965 C961 1.495 . S
C965 H971 0.959 . S
C965 H972 0.961 . S
C965 H973 0.960 . S
C966 C964 1.381 . S
C966 C967 1.394 . S
C966 H974 0.930 . S
C967 C966 1.394 . S
C967 C968 1.383 . S
C967 H975 0.929 . S
C968 C967 1.383 . S
C968 C969 1.377 . S
C969 H953 0.930 . S
C969 C968 1.377 . S
C969 C970 1.379 . S
C970 H954 0.931 . S
C970 C964 1.383 . S
C970 C969 1.379 . S
H971 C965 0.959 . S
H972 C965 0.961 . S
H973 C965 0.960 . S
H974 C966 0.930 . S
H975 C967 0.929 . S
H976 C984 0.929 . S
H977 C986 0.931 . S
H978 C988 0.930 . S
H979 C991 0.929 . S
H980 C994 0.930 . S
H981 C996 0.960 . S
H982 C996 0.960 . S
H983 C996 0.960 . S
C984 H976 0.929 . S
C984 C985 1.377 . S
C984 C986 1.384 . S
C985 C984 1.377 . S
C985 C991 1.390 . S
C986 H977 0.931 . S
C986 C984 1.384 . S
C986 C987 1.372 1_455 S
C987 C986 1.372 1_655 S
C987 C988 1.400 . S
C987 C992 1.490 . S
C988 H978 0.930 . S
C988 C987 1.400 . S
C988 C991 1.386 1_655 S
H989 C1005 0.930 . S
H990 C1006 0.931 . S
C991 H979 0.929 . S
C991 C985 1.390 . S
C991 C988 1.386 1_455 S
C992 C987 1.490 . S
C992 C994 1.395 1_655 S
C992 C995 1.403 . S
H993 C999 0.930 . S
C994 H980 0.930 . S
C994 C992 1.395 1_455 S
C994 C997 1.403 . S
C995 C992 1.403 . S
C995 C996 1.524 . S
C995 C999 1.400 . S
C996 H981 0.960 . S
C996 H982 0.960 . S
C996 H983 0.960 . S
C996 C995 1.524 . S
C997 C994 1.403 . S
C997 C998 1.392 1_455 S
C997 C1001 1.495 . S
C998 C997 1.392 1_655 S
C998 C999 1.385 . S
C998 C1000 1.478 . S
C999 H993 0.930 . S
C999 C995 1.400 . S
C999 C998 1.385 . S
C1000 C998 1.478 . S
C1000 C1002 1.381 . S
C1000 C1006 1.383 . S
C1001 C997 1.495 . S
C1001 H1007 0.959 . S
C1001 H1008 0.961 . S
C1001 H1009 0.960 . S
C1002 C1000 1.381 . S
C1002 C1003 1.394 . S
C1002 H1010 0.930 . S
C1003 C1002 1.394 . S
C1003 C1004 1.383 . S
C1003 H1011 0.929 . S
C1004 C1003 1.383 . S
C1004 C1005 1.377 . S
C1005 H989 0.930 . S
C1005 C1004 1.377 . S
C1005 C1006 1.379 . S
C1006 H990 0.931 . S
C1006 C1000 1.383 . S
C1006 C1005 1.379 . S
H1007 C1001 0.959 . S
H1008 C1001 0.961 . S
H1009 C1001 0.960 . S
H1010 C1002 0.930 . S
H1011 C1003 0.929 . S
H1012 C1020 0.929 . S
H1013 C1022 0.930 . S
H1014 C1024 0.930 . S
H1015 C1027 0.929 . S
H1016 C1030 0.930 . S
H1017 C1032 0.960 . S
H1018 C1032 0.960 . S
H1019 C1032 0.960 . S
C1020 H1012 0.929 . S
C1020 C1021 1.377 1_565 S
C1020 C1022 1.384 . S
C1021 C1020 1.377 1_545 S
C1021 C1027 1.390 . S
C1022 H1013 0.930 . S
C1022 C1020 1.384 . S
C1022 C1023 1.372 . S
C1023 C1022 1.372 . S
C1023 C1024 1.400 1_565 S
C1023 C1028 1.490 . S
C1024 H1014 0.930 . S
C1024 C1023 1.400 1_545 S
C1024 C1027 1.386 . S
H1025 C1041 0.930 . S
H1026 C1042 0.931 . S
C1027 H1015 0.929 . S
C1027 C1021 1.390 . S
C1027 C1024 1.386 . S
C1028 C1023 1.490 . S
C1028 C1030 1.395 . S
C1028 C1031 1.403 1_565 S
H1029 C1035 0.931 . S
C1030 H1016 0.930 . S
C1030 C1028 1.395 . S
C1030 C1033 1.403 . S
C1031 C1028 1.403 1_545 S
C1031 C1032 1.524 . S
C1031 C1035 1.400 . S
C1032 H1017 0.960 . S
C1032 H1018 0.960 . S
C1032 H1019 0.960 . S
C1032 C1031 1.524 . S
C1033 C1030 1.403 . S
C1033 C1034 1.392 . S
C1033 C1037 1.495 . S
C1034 C1033 1.392 . S
C1034 C1035 1.385 1_565 S
C1034 C1036 1.478 . S
C1035 H1029 0.931 . S
C1035 C1031 1.400 . S
C1035 C1034 1.385 1_545 S
C1036 C1034 1.478 . S
C1036 C1038 1.381 . S
C1036 C1042 1.383 . S
C1037 C1033 1.495 . S
C1037 H1043 0.959 . S
C1037 H1044 0.961 . S
C1037 H1045 0.960 . S
C1038 C1036 1.381 . S
C1038 C1039 1.394 . S
C1038 H1046 0.930 . S
C1039 C1038 1.394 . S
C1039 C1040 1.383 . S
C1039 H1047 0.929 . S
C1040 C1039 1.383 . S
C1040 C1041 1.377 . S
C1041 H1025 0.930 . S
C1041 C1040 1.377 . S
C1041 C1042 1.379 . S
C1042 H1026 0.931 . S
C1042 C1036 1.383 . S
C1042 C1041 1.379 . S
H1043 C1037 0.959 . S
H1044 C1037 0.961 . S
H1045 C1037 0.960 . S
H1046 C1038 0.930 . S
H1047 C1039 0.929 . S
H1048 C1056 0.929 . S
H1049 C1058 0.930 . S
H1050 C1060 0.930 . S
H1051 C1063 0.929 . S
H1052 C1066 0.930 . S
H1053 C1068 0.960 . S
H1054 C1068 0.960 . S
H1055 C1068 0.960 . S
C1056 H1048 0.929 . S
C1056 C1057 1.377 . S
C1056 C1058 1.384 . S
C1057 C1056 1.377 . S
C1057 C1063 1.390 . S
C1058 H1049 0.930 . S
C1058 C1056 1.384 . S
C1058 C1059 1.372 . S
C1059 C1058 1.372 . S
C1059 C1060 1.400 . S
C1059 C1064 1.490 . S
C1060 H1050 0.930 . S
C1060 C1059 1.400 . S
C1060 C1063 1.386 . S
H1061 C1077 0.930 . S
H1062 C1078 0.931 . S
C1063 H1051 0.929 . S
C1063 C1057 1.390 . S
C1063 C1060 1.386 . S
C1064 C1059 1.490 . S
C1064 C1066 1.395 . S
C1064 C1067 1.403 . S
H1065 C1071 0.930 . S
C1066 H1052 0.930 . S
C1066 C1064 1.395 . S
C1066 C1069 1.403 . S
C1067 C1064 1.403 . S
C1067 C1068 1.524 . S
C1067 C1071 1.400 . S
C1068 H1053 0.960 . S
C1068 H1054 0.960 . S
C1068 H1055 0.960 . S
C1068 C1067 1.524 . S
C1069 C1066 1.403 . S
C1069 C1070 1.392 . S
C1069 C1073 1.495 . S
C1070 C1069 1.392 . S
C1070 C1071 1.385 . S
C1070 C1072 1.478 . S
C1071 H1065 0.930 . S
C1071 C1067 1.400 . S
C1071 C1070 1.385 . S
C1072 C1070 1.478 . S
C1072 C1074 1.381 . S
C1072 C1078 1.383 . S
C1073 C1069 1.495 . S
C1073 H1079 0.959 . S
C1073 H1080 0.961 . S
C1073 H1081 0.960 . S
C1074 C1072 1.381 . S
C1074 C1075 1.394 . S
C1074 H1082 0.930 . S
C1075 C1074 1.394 . S
C1075 C1076 1.383 . S
C1075 H1083 0.929 . S
C1076 C1075 1.383 . S
C1076 C1077 1.377 . S
C1077 H1061 0.930 . S
C1077 C1076 1.377 . S
C1077 C1078 1.379 . S
C1078 H1062 0.931 . S
C1078 C1072 1.383 . S
C1078 C1077 1.379 . S
H1079 C1073 0.959 . S
H1080 C1073 0.961 . S
H1081 C1073 0.960 . S
H1082 C1074 0.930 . S
H1083 C1075 0.929 . S
H1084 C1092 0.929 . S
H1085 C1094 0.930 . S
H1086 C1096 0.930 . S
H1087 C1099 0.929 . S
H1088 C1102 0.930 . S
H1089 C1104 0.960 . S
H1090 C1104 0.960 . S
H1091 C1104 0.960 . S
C1092 H1084 0.929 . S
C1092 C1093 1.377 . S
C1092 C1094 1.384 . S
C1093 C1092 1.377 . S
C1093 C1099 1.390 . S
C1094 H1085 0.930 . S
C1094 C1092 1.384 . S
C1094 C1095 1.372 . S
C1095 C1094 1.372 . S
C1095 C1096 1.400 . S
C1095 C1100 1.490 . S
C1096 H1086 0.930 . S
C1096 C1095 1.400 . S
C1096 C1099 1.386 . S
H1097 C1113 0.930 . S
H1098 C1114 0.931 . S
C1099 H1087 0.929 . S
C1099 C1093 1.390 . S
C1099 C1096 1.386 . S
C1100 C1095 1.490 . S
C1100 C1102 1.395 . S
C1100 C1103 1.403 . S
H1101 C1107 0.930 . S
C1102 H1088 0.930 . S
C1102 C1100 1.395 . S
C1102 C1105 1.403 . S
C1103 C1100 1.403 . S
C1103 C1104 1.524 . S
C1103 C1107 1.400 . S
C1104 H1089 0.960 . S
C1104 H1090 0.960 . S
C1104 H1091 0.960 . S
C1104 C1103 1.524 . S
C1105 C1102 1.403 . S
C1105 C1106 1.392 . S
C1105 C1109 1.495 . S
C1106 C1105 1.392 . S
C1106 C1107 1.385 . S
C1106 C1108 1.478 . S
C1107 H1101 0.930 . S
C1107 C1103 1.400 . S
C1107 C1106 1.385 . S
C1108 C1106 1.478 . S
C1108 C1110 1.381 . S
C1108 C1114 1.383 . S
C1109 C1105 1.495 . S
C1109 H1115 0.959 . S
C1109 H1116 0.961 . S
C1109 H1117 0.960 . S
C1110 C1108 1.381 . S
C1110 C1111 1.394 . S
C1110 H1118 0.930 . S
C1111 C1110 1.394 . S
C1111 C1112 1.383 . S
C1111 H1119 0.929 . S
C1112 C1111 1.383 . S
C1112 C1113 1.377 . S
C1113 H1097 0.930 . S
C1113 C1112 1.377 . S
C1113 C1114 1.379 . S
C1114 H1098 0.931 . S
C1114 C1108 1.383 . S
C1114 C1113 1.379 . S
H1115 C1109 0.959 . S
H1116 C1109 0.961 . S
H1117 C1109 0.960 . S
H1118 C1110 0.930 . S
H1119 C1111 0.929 . S
H1120 C1128 0.929 . S
H1121 C1130 0.930 . S
H1122 C1132 0.930 . S
H1123 C1135 0.929 . S
H1124 C1138 0.930 . S
H1125 C1140 0.960 . S
H1126 C1140 0.960 . S
H1127 C1140 0.960 . S
C1128 H1120 0.929 . S
C1128 C1129 1.377 . S
C1128 C1130 1.384 . S
C1129 C1128 1.377 . S
C1129 C1135 1.390 . S
C1130 H1121 0.930 . S
C1130 C1128 1.384 . S
C1130 C1131 1.372 . S
C1131 C1130 1.372 . S
C1131 C1132 1.400 . S
C1131 C1136 1.490 . S
C1132 H1122 0.930 . S
C1132 C1131 1.400 . S
C1132 C1135 1.386 . S
H1133 C1149 0.930 . S
H1134 C1150 0.931 . S
C1135 H1123 0.929 . S
C1135 C1129 1.390 . S
C1135 C1132 1.386 . S
C1136 C1131 1.490 . S
C1136 C1138 1.395 . S
C1136 C1139 1.403 . S
H1137 C1143 0.930 . S
C1138 H1124 0.930 . S
C1138 C1136 1.395 . S
C1138 C1141 1.403 . S
C1139 C1136 1.403 . S
C1139 C1140 1.524 . S
C1139 C1143 1.400 . S
C1140 H1125 0.960 . S
C1140 H1126 0.960 . S
C1140 H1127 0.960 . S
C1140 C1139 1.524 . S
C1141 C1138 1.403 . S
C1141 C1142 1.392 . S
C1141 C1145 1.495 . S
C1142 C1141 1.392 . S
C1142 C1143 1.385 . S
C1142 C1144 1.478 . S
C1143 H1137 0.930 . S
C1143 C1139 1.400 . S
C1143 C1142 1.385 . S
C1144 C1142 1.478 . S
C1144 C1146 1.381 . S
C1144 C1150 1.383 . S
C1145 C1141 1.495 . S
C1145 H1151 0.959 . S
C1145 H1152 0.961 . S
C1145 H1153 0.960 . S
C1146 C1144 1.381 . S
C1146 C1147 1.394 . S
C1146 H1154 0.930 . S
C1147 C1146 1.394 . S
C1147 C1148 1.383 . S
C1147 H1155 0.929 . S
C1148 C1147 1.383 . S
C1148 C1149 1.377 . S
C1149 H1133 0.930 . S
C1149 C1148 1.377 . S
C1149 C1150 1.379 . S
C1150 H1134 0.931 . S
C1150 C1144 1.383 . S
C1150 C1149 1.379 . S
H1151 C1145 0.959 . S
H1152 C1145 0.961 . S
H1153 C1145 0.960 . S
H1154 C1146 0.930 . S
H1155 C1147 0.929 . S
H1156 C1164 0.929 . S
H1157 C1166 0.930 . S
H1158 C1168 0.930 . S
H1159 C1171 0.929 . S
H1160 C1174 0.930 . S
H1161 C1176 0.960 . S
H1162 C1176 0.960 . S
H1163 C1176 0.960 . S
C1164 H1156 0.929 . S
C1164 C1165 1.377 . S
C1164 C1166 1.384 . S
C1165 C1164 1.377 . S
C1165 C1171 1.390 . S
C1166 H1157 0.930 . S
C1166 C1164 1.384 . S
C1166 C1167 1.372 . S
C1167 C1166 1.372 . S
C1167 C1168 1.400 . S
C1167 C1172 1.490 . S
C1168 H1158 0.930 . S
C1168 C1167 1.400 . S
C1168 C1171 1.386 . S
H1169 C1185 0.930 . S
H1170 C1186 0.931 . S
C1171 H1159 0.929 . S
C1171 C1165 1.390 . S
C1171 C1168 1.386 . S
C1172 C1167 1.490 . S
C1172 C1174 1.395 . S
C1172 C1175 1.403 . S
H1173 C1179 0.930 . S
C1174 H1160 0.930 . S
C1174 C1172 1.395 . S
C1174 C1177 1.403 . S
C1175 C1172 1.403 . S
C1175 C1176 1.524 . S
C1175 C1179 1.400 . S
C1176 H1161 0.960 . S
C1176 H1162 0.960 . S
C1176 H1163 0.960 . S
C1176 C1175 1.524 . S
C1177 C1174 1.403 . S
C1177 C1178 1.392 . S
C1177 C1181 1.495 . S
C1178 C1177 1.392 . S
C1178 C1179 1.385 . S
C1178 C1180 1.478 . S
C1179 H1173 0.930 . S
C1179 C1175 1.400 . S
C1179 C1178 1.385 . S
C1180 C1178 1.478 . S
C1180 C1182 1.381 . S
C1180 C1186 1.383 . S
C1181 C1177 1.495 . S
C1181 H1187 0.959 . S
C1181 H1188 0.961 . S
C1181 H1189 0.960 . S
C1182 C1180 1.381 . S
C1182 C1183 1.394 . S
C1182 H1190 0.930 . S
C1183 C1182 1.394 . S
C1183 C1184 1.383 . S
C1183 H1191 0.929 . S
C1184 C1183 1.383 . S
C1184 C1185 1.377 . S
C1185 H1169 0.930 . S
C1185 C1184 1.377 . S
C1185 C1186 1.379 . S
C1186 H1170 0.931 . S
C1186 C1180 1.383 . S
C1186 C1185 1.379 . S
H1187 C1181 0.959 . S
H1188 C1181 0.961 . S
H1189 C1181 0.960 . S
H1190 C1182 0.930 . S
H1191 C1183 0.929 . S
H1192 C1200 0.929 . S
H1193 C1202 0.930 . S
H1194 C1204 0.930 . S
H1195 C1207 0.929 . S
H1196 C1210 0.930 . S
H1197 C1212 0.960 . S
H1198 C1212 0.960 . S
H1199 C1212 0.960 . S
C1200 H1192 0.929 . S
C1200 C1201 1.377 . S
C1200 C1202 1.384 . S
C1201 C1200 1.377 . S
C1201 C1207 1.390 . S
C1202 H1193 0.930 . S
C1202 C1200 1.384 . S
C1202 C1203 1.372 . S
C1203 C1202 1.372 . S
C1203 C1204 1.400 . S
C1203 C1208 1.490 . S
C1204 H1194 0.930 . S
C1204 C1203 1.400 . S
C1204 C1207 1.386 . S
H1205 C1221 0.930 . S
H1206 C1222 0.931 . S
C1207 H1195 0.929 . S
C1207 C1201 1.390 . S
C1207 C1204 1.386 . S
C1208 C1203 1.490 . S
C1208 C1210 1.395 . S
C1208 C1211 1.403 . S
H1209 C1215 0.930 . S
C1210 H1196 0.930 . S
C1210 C1208 1.395 . S
C1210 C1213 1.403 . S
C1211 C1208 1.403 . S
C1211 C1212 1.524 . S
C1211 C1215 1.400 . S
C1212 H1197 0.960 . S
C1212 H1198 0.960 . S
C1212 H1199 0.960 . S
C1212 C1211 1.524 . S
C1213 C1210 1.403 . S
C1213 C1214 1.392 . S
C1213 C1217 1.495 . S
C1214 C1213 1.392 . S
C1214 C1215 1.385 . S
C1214 C1216 1.478 . S
C1215 H1209 0.930 . S
C1215 C1211 1.400 . S
C1215 C1214 1.385 . S
C1216 C1214 1.478 . S
C1216 C1218 1.381 . S
C1216 C1222 1.383 . S
C1217 C1213 1.495 . S
C1217 H1223 0.959 . S
C1217 H1224 0.961 . S
C1217 H1225 0.960 . S
C1218 C1216 1.381 . S
C1218 C1219 1.394 . S
C1218 H1226 0.930 . S
C1219 C1218 1.394 . S
C1219 C1220 1.383 . S
C1219 H1227 0.929 . S
C1220 C1219 1.383 . S
C1220 C1221 1.377 . S
C1221 H1205 0.930 . S
C1221 C1220 1.377 . S
C1221 C1222 1.379 . S
C1222 H1206 0.931 . S
C1222 C1216 1.383 . S
C1222 C1221 1.379 . S
H1223 C1217 0.959 . S
H1224 C1217 0.961 . S
H1225 C1217 0.960 . S
H1226 C1218 0.930 . S
H1227 C1219 0.929 . S
H1228 C1236 0.929 . S
H1229 C1238 0.930 . S
H1230 C1240 0.930 . S
H1231 C1243 0.929 . S
H1232 C1246 0.930 . S
H1233 C1248 0.960 . S
H1234 C1248 0.960 . S
H1235 C1248 0.960 . S
C1236 H1228 0.929 . S
C1236 C1237 1.377 . S
C1236 C1238 1.384 . S
C1237 C1236 1.377 . S
C1237 C1243 1.390 . S
C1238 H1229 0.930 . S
C1238 C1236 1.384 . S
C1238 C1239 1.372 . S
C1239 C1238 1.372 . S
C1239 C1240 1.400 . S
C1239 C1244 1.490 . S
C1240 H1230 0.930 . S
C1240 C1239 1.400 . S
C1240 C1243 1.386 . S
H1241 C1257 0.930 . S
H1242 C1258 0.931 . S
C1243 H1231 0.929 . S
C1243 C1237 1.390 . S
C1243 C1240 1.386 . S
C1244 C1239 1.490 . S
C1244 C1246 1.395 . S
C1244 C1247 1.403 . S
H1245 C1251 0.930 . S
C1246 H1232 0.930 . S
C1246 C1244 1.395 . S
C1246 C1249 1.403 . S
C1247 C1244 1.403 . S
C1247 C1248 1.524 . S
C1247 C1251 1.400 . S
C1248 H1233 0.960 . S
C1248 H1234 0.960 . S
C1248 H1235 0.960 . S
C1248 C1247 1.524 . S
C1249 C1246 1.403 . S
C1249 C1250 1.392 . S
C1249 C1253 1.495 . S
C1250 C1249 1.392 . S
C1250 C1251 1.385 . S
C1250 C1252 1.478 . S
C1251 H1245 0.930 . S
C1251 C1247 1.400 . S
C1251 C1250 1.385 . S
C1252 C1250 1.478 . S
C1252 C1254 1.381 . S
C1252 C1258 1.383 . S
C1253 C1249 1.495 . S
C1253 H1259 0.959 . S
C1253 H1260 0.961 . S
C1253 H1261 0.960 . S
C1254 C1252 1.381 . S
C1254 C1255 1.394 . S
C1254 H1262 0.930 . S
C1255 C1254 1.394 . S
C1255 C1256 1.383 . S
C1255 H1263 0.929 . S
C1256 C1255 1.383 . S
C1256 C1257 1.377 . S
C1257 H1241 0.930 . S
C1257 C1256 1.377 . S
C1257 C1258 1.379 . S
C1258 H1242 0.931 . S
C1258 C1252 1.383 . S
C1258 C1257 1.379 . S
H1259 C1253 0.959 . S
H1260 C1253 0.961 . S
H1261 C1253 0.960 . S
H1262 C1254 0.930 . S
H1263 C1255 0.929 . S
H1264 C1272 0.929 . S
H1265 C1274 0.930 . S
H1266 C1276 0.930 . S
H1267 C1279 0.929 . S
H1268 C1282 0.930 . S
H1269 C1284 0.960 . S
H1270 C1284 0.960 . S
H1271 C1284 0.960 . S
C1272 H1264 0.929 . S
C1272 C1273 1.377 . S
C1272 C1274 1.384 . S
C1273 C1272 1.377 . S
C1273 C1279 1.390 . S
C1274 H1265 0.930 . S
C1274 C1272 1.384 . S
C1274 C1275 1.372 . S
C1275 C1274 1.372 . S
C1275 C1276 1.400 . S
C1275 C1280 1.490 . S
C1276 H1266 0.930 . S
C1276 C1275 1.400 . S
C1276 C1279 1.386 . S
H1277 C1293 0.930 . S
H1278 C1294 0.931 . S
C1279 H1267 0.929 . S
C1279 C1273 1.390 . S
C1279 C1276 1.386 . S
C1280 C1275 1.490 . S
C1280 C1282 1.395 . S
C1280 C1283 1.403 . S
H1281 C1287 0.930 . S
C1282 H1268 0.930 . S
C1282 C1280 1.395 . S
C1282 C1285 1.403 . S
C1283 C1280 1.403 . S
C1283 C1284 1.524 . S
C1283 C1287 1.400 . S
C1284 H1269 0.960 . S
C1284 H1270 0.960 . S
C1284 H1271 0.960 . S
C1284 C1283 1.524 . S
C1285 C1282 1.403 . S
C1285 C1286 1.392 . S
C1285 C1289 1.495 . S
C1286 C1285 1.392 . S
C1286 C1287 1.385 . S
C1286 C1288 1.478 . S
C1287 H1281 0.930 . S
C1287 C1283 1.400 . S
C1287 C1286 1.385 . S
C1288 C1286 1.478 . S
C1288 C1290 1.381 . S
C1288 C1294 1.383 . S
C1289 C1285 1.495 . S
C1289 H1295 0.959 . S
C1289 H1296 0.961 . S
C1289 H1297 0.960 . S
C1290 C1288 1.381 . S
C1290 C1291 1.394 . S
C1290 H1298 0.930 . S
C1291 C1290 1.394 . S
C1291 C1292 1.383 . S
C1291 H1299 0.929 . S
C1292 C1291 1.383 . S
C1292 C1293 1.377 . S
C1293 H1277 0.930 . S
C1293 C1292 1.377 . S
C1293 C1294 1.379 . S
C1294 H1278 0.931 . S
C1294 C1288 1.383 . S
C1294 C1293 1.379 . S
H1295 C1289 0.959 . S
H1296 C1289 0.961 . S
H1297 C1289 0.960 . S
H1298 C1290 0.930 . S
H1299 C1291 0.929 . S
H1300 C1308 0.929 . S
H1301 C1310 0.930 . S
H1302 C1312 0.930 . S
H1303 C1315 0.929 . S
H1304 C1318 0.930 . S
H1305 C1320 0.960 . S
H1306 C1320 0.960 . S
H1307 C1320 0.960 . S
C1308 H1300 0.929 . S
C1308 C1309 1.377 . S
C1308 C1310 1.384 . S
C1309 C1308 1.377 . S
C1309 C1315 1.390 . S
C1310 H1301 0.930 . S
C1310 C1308 1.384 . S
C1310 C1311 1.372 . S
C1311 C1310 1.372 . S
C1311 C1312 1.400 . S
C1311 C1316 1.490 . S
C1312 H1302 0.930 . S
C1312 C1311 1.400 . S
C1312 C1315 1.386 . S
H1313 C1329 0.930 . S
H1314 C1330 0.931 . S
C1315 H1303 0.929 . S
C1315 C1309 1.390 . S
C1315 C1312 1.386 . S
C1316 C1311 1.490 . S
C1316 C1318 1.395 . S
C1316 C1319 1.403 . S
H1317 C1323 0.930 . S
C1318 H1304 0.930 . S
C1318 C1316 1.395 . S
C1318 C1321 1.403 . S
C1319 C1316 1.403 . S
C1319 C1320 1.524 . S
C1319 C1323 1.400 . S
C1320 H1305 0.960 . S
C1320 H1306 0.960 . S
C1320 H1307 0.960 . S
C1320 C1319 1.524 . S
C1321 C1318 1.403 . S
C1321 C1322 1.392 . S
C1321 C1325 1.495 . S
C1322 C1321 1.392 . S
C1322 C1323 1.385 . S
C1322 C1324 1.478 . S
C1323 H1317 0.930 . S
C1323 C1319 1.400 . S
C1323 C1322 1.385 . S
C1324 C1322 1.478 . S
C1324 C1326 1.381 . S
C1324 C1330 1.383 . S
C1325 C1321 1.495 . S
C1325 H1331 0.959 . S
C1325 H1332 0.961 . S
C1325 H1333 0.960 . S
C1326 C1324 1.381 . S
C1326 C1327 1.394 . S
C1326 H1334 0.930 . S
C1327 C1326 1.394 . S
C1327 C1328 1.383 . S
C1327 H1335 0.929 . S
C1328 C1327 1.383 . S
C1328 C1329 1.377 . S
C1329 H1313 0.930 . S
C1329 C1328 1.377 . S
C1329 C1330 1.379 . S
C1330 H1314 0.931 . S
C1330 C1324 1.383 . S
C1330 C1329 1.379 . S
H1331 C1325 0.959 . S
H1332 C1325 0.961 . S
H1333 C1325 0.960 . S
H1334 C1326 0.930 . S
H1335 C1327 0.929 . S
H1336 C1344 0.929 . S
H1337 C1346 0.930 . S
H1338 C1348 0.930 . S
H1339 C1351 0.929 . S
H1340 C1354 0.930 . S
H1341 C1356 0.960 . S
H1342 C1356 0.960 . S
H1343 C1356 0.960 . S
C1344 H1336 0.929 . S
C1344 C1345 1.377 . S
C1344 C1346 1.384 . S
C1345 C1344 1.377 . S
C1345 C1351 1.390 . S
C1346 H1337 0.930 . S
C1346 C1344 1.384 . S
C1346 C1347 1.372 . S
C1347 C1346 1.372 . S
C1347 C1348 1.400 . S
C1347 C1352 1.490 . S
C1348 H1338 0.930 . S
C1348 C1347 1.400 . S
C1348 C1351 1.386 . S
H1349 C1365 0.930 . S
H1350 C1366 0.931 . S
C1351 H1339 0.929 . S
C1351 C1345 1.390 . S
C1351 C1348 1.386 . S
C1352 C1347 1.490 . S
C1352 C1354 1.395 . S
C1352 C1355 1.403 . S
H1353 C1359 0.930 . S
C1354 H1340 0.930 . S
C1354 C1352 1.395 . S
C1354 C1357 1.403 . S
C1355 C1352 1.403 . S
C1355 C1356 1.524 . S
C1355 C1359 1.400 . S
C1356 H1341 0.960 . S
C1356 H1342 0.960 . S
C1356 H1343 0.960 . S
C1356 C1355 1.524 . S
C1357 C1354 1.403 . S
C1357 C1358 1.392 . S
C1357 C1361 1.495 . S
C1358 C1357 1.392 . S
C1358 C1359 1.385 . S
C1358 C1360 1.478 . S
C1359 H1353 0.930 . S
C1359 C1355 1.400 . S
C1359 C1358 1.385 . S
C1360 C1358 1.478 . S
C1360 C1362 1.381 . S
C1360 C1366 1.383 . S
C1361 C1357 1.495 . S
C1361 H1367 0.959 . S
C1361 H1368 0.961 . S
C1361 H1369 0.960 . S
C1362 C1360 1.381 . S
C1362 C1363 1.394 . S
C1362 H1370 0.930 . S
C1363 C1362 1.394 . S
C1363 C1364 1.383 . S
C1363 H1371 0.929 . S
C1364 C1363 1.383 . S
C1364 C1365 1.377 . S
C1365 H1349 0.930 . S
C1365 C1364 1.377 . S
C1365 C1366 1.379 . S
C1366 H1350 0.931 . S
C1366 C1360 1.383 . S
C1366 C1365 1.379 . S
H1367 C1361 0.959 . S
H1368 C1361 0.961 . S
H1369 C1361 0.960 . S
H1370 C1362 0.930 . S
H1371 C1363 0.929 . S
H1372 C1380 0.929 . S
H1373 C1382 0.930 . S
H1374 C1384 0.930 . S
H1375 C1387 0.929 . S
H1376 C1390 0.930 . S
H1377 C1392 0.960 . S
H1378 C1392 0.960 . S
H1379 C1392 0.960 . S
C1380 H1372 0.929 . S
C1380 C1381 1.377 . S
C1380 C1382 1.384 . S
C1381 C1380 1.377 . S
C1381 C1387 1.390 . S
C1382 H1373 0.930 . S
C1382 C1380 1.384 . S
C1382 C1383 1.372 . S
C1383 C1382 1.372 . S
C1383 C1384 1.400 . S
C1383 C1388 1.490 . S
C1384 H1374 0.930 . S
C1384 C1383 1.400 . S
C1384 C1387 1.386 . S
H1385 C1401 0.930 . S
H1386 C1402 0.931 . S
C1387 H1375 0.929 . S
C1387 C1381 1.390 . S
C1387 C1384 1.386 . S
C1388 C1383 1.490 . S
C1388 C1390 1.395 . S
C1388 C1391 1.403 . S
H1389 C1395 0.930 . S
C1390 H1376 0.930 . S
C1390 C1388 1.395 . S
C1390 C1393 1.403 . S
C1391 C1388 1.403 . S
C1391 C1392 1.524 . S
C1391 C1395 1.400 . S
C1392 H1377 0.960 . S
C1392 H1378 0.960 . S
C1392 H1379 0.960 . S
C1392 C1391 1.524 . S
C1393 C1390 1.403 . S
C1393 C1394 1.392 . S
C1393 C1397 1.495 . S
C1394 C1393 1.392 . S
C1394 C1395 1.385 . S
C1394 C1396 1.478 . S
C1395 H1389 0.930 . S
C1395 C1391 1.400 . S
C1395 C1394 1.385 . S
C1396 C1394 1.478 . S
C1396 C1398 1.381 . S
C1396 C1402 1.383 . S
C1397 C1393 1.495 . S
C1397 H1403 0.959 . S
C1397 H1404 0.961 . S
C1397 H1405 0.960 . S
C1398 C1396 1.381 . S
C1398 C1399 1.394 . S
C1398 H1406 0.930 . S
C1399 C1398 1.394 . S
C1399 C1400 1.383 . S
C1399 H1407 0.929 . S
C1400 C1399 1.383 . S
C1400 C1401 1.377 . S
C1401 H1385 0.930 . S
C1401 C1400 1.377 . S
C1401 C1402 1.379 . S
C1402 H1386 0.931 . S
C1402 C1396 1.383 . S
C1402 C1401 1.379 . S
H1403 C1397 0.959 . S
H1404 C1397 0.961 . S
H1405 C1397 0.960 . S
H1406 C1398 0.930 . S
H1407 C1399 0.929 . S
H1408 C1416 0.929 . S
H1409 C1418 0.930 . S
H1410 C1420 0.930 1_565 S
H1411 C1423 0.929 . S
H1412 C1426 0.935 . S
H1413 C1428 0.960 . S
H1414 C1428 0.960 . S
H1415 C1428 0.960 . S
C1416 H1408 0.929 . S
C1416 C1417 1.377 . S
C1416 C1418 1.384 . S
C1417 C1416 1.377 . S
C1417 C1423 1.390 . S
C1418 H1409 0.930 . S
C1418 C1416 1.384 . S
C1418 C1419 1.372 . S
C1419 C1418 1.372 . S
C1419 C1420 1.400 . S
C1419 C1424 1.490 . S
C1420 H1410 0.930 1_545 S
C1420 C1419 1.400 . S
C1420 C1423 1.386 . S
H1421 C1437 0.930 . S
H1422 C1438 0.931 . S
C1423 H1411 0.929 . S
C1423 C1417 1.390 . S
C1423 C1420 1.386 . S
C1424 C1419 1.490 . S
C1424 C1426 1.421 1_545 S
C1424 C1427 1.403 . S
H1425 C1431 0.930 . S
C1426 H1412 0.935 . S
C1426 C1424 1.421 1_565 S
C1426 C1429 1.373 1_554 S
C1427 C1424 1.403 . S
C1427 C1428 1.524 . S
C1427 C1431 1.400 1_554 S
C1428 H1413 0.960 . S
C1428 H1414 0.960 . S
C1428 H1415 0.960 . S
C1428 C1427 1.524 . S
C1429 C1426 1.373 1_556 S
C1429 C1430 1.392 . S
C1429 C1433 1.495 . S
C1430 C1429 1.392 . S
C1430 C1431 1.385 1_565 S
C1430 C1432 1.478 . S
C1431 H1425 0.930 . S
C1431 C1427 1.400 1_556 S
C1431 C1430 1.385 1_545 S
C1432 C1430 1.478 . S
C1432 C1434 1.381 . S
C1432 C1438 1.383 . S
C1433 C1429 1.495 . S
C1433 H1439 0.959 . S
C1433 H1440 0.961 . S
C1433 H1441 0.960 . S
C1434 C1432 1.381 . S
C1434 C1435 1.394 . S
C1434 H1442 0.930 1_565 S
C1435 C1434 1.394 . S
C1435 C1436 1.383 . S
C1435 H1443 0.929 . S
C1436 C1435 1.383 . S
C1436 C1437 1.377 . S
C1437 H1421 0.930 . S
C1437 C1436 1.377 . S
C1437 C1438 1.379 . S
C1438 H1422 0.931 . S
C1438 C1432 1.383 . S
C1438 C1437 1.379 . S
H1439 C1433 0.959 . S
H1440 C1433 0.961 . S
H1441 C1433 0.960 . S
H1442 C1434 0.930 1_545 S
H1443 C1435 0.929 . S
H1444 C1452 0.929 . S
H1445 C1454 0.930 . S
H1446 C1456 0.930 . S
H1447 C1459 0.929 . S
H1448 C1462 0.930 . S
H1449 C1464 0.960 . S
H1450 C1464 0.961 . S
H1451 C1464 0.982 . S
C1452 H1444 0.929 . S
C1452 C1453 1.377 . S
C1452 C1454 1.384 . S
C1453 C1452 1.377 . S
C1453 C1459 1.390 . S
C1454 H1445 0.930 . S
C1454 C1452 1.384 . S
C1454 C1455 1.372 . S
C1455 C1454 1.372 . S
C1455 C1456 1.400 . S
C1455 C1460 1.490 . S
C1456 H1446 0.930 . S
C1456 C1455 1.400 . S
C1456 C1459 1.386 . S
H1457 C1473 0.930 . S
H1458 C1474 0.931 . S
C1459 H1447 0.929 . S
C1459 C1453 1.390 . S
C1459 C1456 1.386 . S
C1460 C1455 1.490 . S
C1460 C1462 1.395 . S
C1460 C1463 1.403 1_554 S
H1461 C1467 0.930 . S
C1462 H1448 0.930 . S
C1462 C1460 1.395 . S
C1462 C1465 1.403 . S
C1463 C1460 1.403 1_556 S
C1463 C1464 1.524 . S
C1463 C1467 1.400 . S
C1464 H1449 0.960 . S
C1464 H1450 0.961 . S
C1464 H1451 0.982 . S
C1464 C1463 1.524 . S
C1465 C1462 1.403 . S
C1465 C1466 1.392 1_554 S
C1465 C1469 1.495 . S
C1466 C1465 1.392 1_556 S
C1466 C1467 1.385 . S
C1466 C1468 1.478 . S
C1467 H1461 0.930 . S
C1467 C1463 1.400 . S
C1467 C1466 1.385 . S
C1468 C1466 1.478 . S
C1468 C1470 1.381 . S
C1468 C1474 1.383 . S
C1469 C1465 1.495 . S
C1469 H1475 0.959 . S
C1469 H1476 0.961 . S
C1469 H1477 0.960 . S
C1470 C1468 1.381 . S
C1470 C1471 1.394 . S
C1470 H1478 0.930 . S
C1471 C1470 1.394 . S
C1471 C1472 1.383 . S
C1471 H1479 0.929 . S
C1472 C1471 1.383 . S
C1472 C1473 1.377 . S
C1473 H1457 0.930 . S
C1473 C1472 1.377 . S
C1473 C1474 1.379 . S
C1474 H1458 0.931 . S
C1474 C1468 1.383 . S
C1474 C1473 1.379 . S
H1475 C1469 0.959 . S
H1476 C1469 0.961 . S
H1477 C1469 0.960 . S
H1478 C1470 0.930 . S
H1479 C1471 0.929 . S
H1480 C1488 0.929 . S
H1481 C1490 0.930 . S
H1482 C1492 0.930 . S
H1483 C1495 0.929 . S
H1484 C1498 0.930 . S
H1485 C1500 0.957 . S
H1486 C1500 0.962 1_554 S
H1487 C1500 0.961 1_554 S
C1488 H1480 0.929 . S
C1488 C1489 1.377 . S
C1488 C1490 1.384 . S
C1489 C1488 1.377 . S
C1489 C1495 1.390 . S
C1490 H1481 0.930 . S
C1490 C1488 1.384 . S
C1490 C1491 1.372 . S
C1491 C1490 1.372 . S
C1491 C1492 1.400 . S
C1491 C1496 1.490 . S
C1492 H1482 0.930 . S
C1492 C1491 1.400 . S
C1492 C1495 1.386 . S
H1493 C1509 0.930 . S
H1494 C1510 0.931 . S
C1495 H1483 0.929 . S
C1495 C1489 1.390 . S
C1495 C1492 1.386 . S
C1496 C1491 1.490 . S
C1496 C1498 1.395 1_655 S
C1496 C1499 1.448 . S
H1497 C1503 0.930 . S
C1498 H1484 0.930 . S
C1498 C1496 1.395 1_455 S
C1498 C1501 1.403 . S
C1499 C1496 1.448 . S
C1499 C1500 1.522 1_554 S
C1499 C1503 1.357 1_554 S
C1500 H1485 0.957 . S
C1500 H1486 0.962 1_556 S
C1500 H1487 0.961 1_556 S
C1500 C1499 1.522 1_556 S
C1501 C1498 1.403 . S
C1501 C1502 1.392 1_554 S
C1501 C1505 1.495 . S
C1502 C1501 1.392 1_556 S
C1502 C1503 1.385 1_455 S
C1502 C1504 1.478 . S
C1503 H1497 0.930 . S
C1503 C1499 1.357 1_556 S
C1503 C1502 1.385 1_655 S
C1504 C1502 1.478 . S
C1504 C1506 1.381 . S
C1504 C1510 1.383 . S
C1505 C1501 1.495 . S
C1505 H1511 0.959 . S
C1505 H1512 0.961 1_554 S
C1505 H1513 0.964 . S
C1506 C1504 1.381 . S
C1506 C1507 1.394 . S
C1506 H1514 0.930 . S
C1507 C1506 1.394 . S
C1507 C1508 1.383 . S
C1507 H1515 0.929 . S
C1508 C1507 1.383 . S
C1508 C1509 1.377 . S
C1509 H1493 0.930 . S
C1509 C1508 1.377 . S
C1509 C1510 1.379 . S
C1510 H1494 0.931 . S
C1510 C1504 1.383 . S
C1510 C1509 1.379 . S
H1511 C1505 0.959 . S
H1512 C1505 0.961 1_556 S
H1513 C1505 0.964 . S
H1514 C1506 0.930 . S
H1515 C1507 0.929 . S
H1516 C1524 0.929 1_455 S
H1517 C1526 0.930 . S
H1518 C1528 0.930 . S
H1519 C1531 0.929 . S
H1520 C1534 0.928 1_556 S
H1521 C1536 0.960 . S
H1522 C1536 0.947 1_455 S
H1523 C1536 0.960 . S
C1524 H1516 0.929 1_655 S
C1524 C1525 1.377 . S
C1524 C1526 1.384 1_655 S
C1525 C1524 1.377 . S
C1525 C1531 1.390 . S
C1526 H1517 0.930 . S
C1526 C1524 1.384 1_455 S
C1526 C1527 1.372 1_455 S
C1527 C1526 1.372 1_655 S
C1527 C1528 1.400 . S
C1527 C1532 1.490 . S
C1528 H1518 0.930 . S
C1528 C1527 1.400 . S
C1528 C1531 1.386 . S
H1529 C1545 0.930 1_655 S
H1530 C1546 0.931 . S
C1531 H1519 0.929 . S
C1531 C1525 1.390 . S
C1531 C1528 1.386 . S
C1532 C1527 1.490 . S
C1532 C1534 1.400 1_656 S
C1532 C1535 1.403 1_545 S
H1533 C1539 0.930 . S
C1534 H1520 0.928 1_554 S
C1534 C1532 1.400 1_454 S
C1534 C1537 1.398 . S
C1535 C1532 1.403 1_565 S
C1535 C1536 1.524 . S
C1535 C1539 1.400 1_656 S
C1536 H1521 0.960 . S
C1536 H1522 0.947 1_655 S
C1536 H1523 0.960 . S
C1536 C1535 1.524 . S
C1537 C1534 1.398 . S
C1537 C1538 1.392 1_545 S
C1537 C1541 1.495 . S
C1538 C1537 1.392 1_565 S
C1538 C1539 1.385 . S
C1538 C1540 1.478 . S
C1539 H1533 0.930 . S
C1539 C1535 1.400 1_454 S
C1539 C1538 1.385 . S
C1540 C1538 1.478 . S
C1540 C1542 1.381 . S
C1540 C1546 1.383 1_455 S
C1541 C1537 1.495 . S
C1541 H1547 0.959 . S
C1541 H1548 0.961 . S
C1541 H1549 0.960 . S
C1542 C1540 1.381 . S
C1542 C1543 1.394 . S
C1542 H1550 0.930 . S
C1543 C1542 1.394 . S
C1543 C1544 1.383 . S
C1543 H1551 0.929 . S
C1544 C1543 1.383 . S
C1544 C1545 1.377 . S
C1545 H1529 0.930 1_455 S
C1545 C1544 1.377 . S
C1545 C1546 1.379 1_455 S
C1546 H1530 0.931 . S
C1546 C1540 1.383 1_655 S
C1546 C1545 1.379 1_655 S
H1547 C1541 0.959 . S
H1548 C1541 0.961 . S
H1549 C1541 0.960 . S
H1550 C1542 0.930 . S
H1551 C1543 0.929 . S
H1552 C1560 0.929 . S
H1553 C1562 0.930 . S
H1554 C1564 0.930 1_565 S
H1555 C1567 0.929 . S
H1556 C1570 0.930 . S
H1557 C1572 0.960 . S
H1558 C1572 0.960 . S
H1559 C1572 0.960 . S
C1560 H1552 0.929 . S
C1560 C1561 1.377 . S
C1560 C1562 1.384 . S
C1561 C1560 1.377 . S
C1561 C1567 1.390 . S
C1562 H1553 0.930 . S
C1562 C1560 1.384 . S
C1562 C1563 1.372 . S
C1563 C1562 1.372 . S
C1563 C1564 1.400 . S
C1563 C1568 1.490 . S
C1564 H1554 0.930 1_545 S
C1564 C1563 1.400 . S
C1564 C1567 1.386 . S
H1565 C1581 0.930 . S
H1566 C1582 0.931 . S
C1567 H1555 0.929 . S
C1567 C1561 1.390 . S
C1567 C1564 1.386 . S
C1568 C1563 1.490 . S
C1568 C1570 1.395 1_645 S
C1568 C1571 1.403 . S
H1569 C1575 0.930 . S
C1570 H1556 0.930 . S
C1570 C1568 1.395 1_465 S
C1570 C1573 1.403 . S
C1571 C1568 1.403 . S
C1571 C1572 1.524 . S
C1571 C1575 1.400 . S
C1572 H1557 0.960 . S
C1572 H1558 0.960 . S
C1572 H1559 0.960 . S
C1572 C1571 1.524 . S
C1573 C1570 1.403 . S
C1573 C1574 1.392 . S
C1573 C1577 1.495 . S
C1574 C1573 1.392 . S
C1574 C1575 1.385 1_465 S
C1574 C1576 1.478 . S
C1575 H1569 0.930 . S
C1575 C1571 1.400 . S
C1575 C1574 1.385 1_645 S
C1576 C1574 1.478 . S
C1576 C1578 1.381 . S
C1576 C1582 1.383 . S
C1577 C1573 1.495 . S
C1577 H1583 0.959 . S
C1577 H1584 0.961 . S
C1577 H1585 0.960 . S
C1578 C1576 1.381 . S
C1578 C1579 1.394 . S
C1578 H1586 0.930 1_565 S
C1579 C1578 1.394 . S
C1579 C1580 1.383 . S
C1579 H1587 0.928 . S
C1580 C1579 1.383 . S
C1580 C1581 1.377 . S
C1581 H1565 0.930 . S
C1581 C1580 1.377 . S
C1581 C1582 1.379 . S
C1582 H1566 0.931 . S
C1582 C1576 1.383 . S
C1582 C1581 1.379 . S
H1583 C1577 0.959 . S
H1584 C1577 0.961 . S
H1585 C1577 0.960 . S
H1586 C1578 0.930 1_545 S
H1587 C1579 0.928 . S
H1588 C1596 0.929 . S
H1589 C1598 0.930 1_565 S
H1590 C1600 0.930 . S
H1591 C1603 0.929 . S
H1592 C1606 0.930 . S
H1593 C1608 0.960 . S
H1594 C1608 0.960 . S
H1595 C1608 0.960 . S
C1596 H1588 0.929 . S
C1596 C1597 1.377 . S
C1596 C1598 1.384 . S
C1597 C1596 1.377 . S
C1597 C1603 1.390 . S
C1598 H1589 0.930 1_545 S
C1598 C1596 1.384 . S
C1598 C1599 1.372 . S
C1599 C1598 1.372 . S
C1599 C1600 1.400 . S
C1599 C1604 1.490 . S
C1600 H1590 0.930 . S
C1600 C1599 1.400 . S
C1600 C1603 1.386 . S
H1601 C1617 0.930 . S
H1602 C1618 0.896 1_545 S
C1603 H1591 0.929 . S
C1603 C1597 1.390 . S
C1603 C1600 1.386 . S
C1604 C1599 1.490 . S
C1604 C1606 1.395 . S
C1604 C1607 1.403 . S
H1605 C1611 0.930 . S
C1606 H1592 0.930 . S
C1606 C1604 1.395 . S
C1606 C1609 1.403 1_545 S
C1607 C1604 1.403 . S
C1607 C1608 1.524 . S
C1607 C1611 1.400 1_545 S
C1608 H1593 0.960 . S
C1608 H1594 0.960 . S
C1608 H1595 0.960 . S
C1608 C1607 1.524 . S
C1609 C1606 1.403 1_565 S
C1609 C1610 1.392 . S
C1609 C1613 1.495 . S
C1610 C1609 1.392 . S
C1610 C1611 1.385 . S
C1610 C1612 1.478 . S
C1611 H1605 0.930 . S
C1611 C1607 1.400 1_565 S
C1611 C1610 1.385 . S
C1612 C1610 1.478 . S
C1612 C1614 1.381 . S
C1612 C1618 1.383 . S
C1613 C1609 1.495 . S
C1613 H1619 0.959 . S
C1613 H1620 0.961 . S
C1613 H1621 0.960 . S
C1614 C1612 1.381 . S
C1614 C1615 1.394 . S
C1614 H1622 0.930 . S
C1615 C1614 1.394 . S
C1615 C1616 1.383 . S
C1615 H1623 0.929 . S
C1616 C1615 1.383 . S
C1616 C1617 1.377 . S
C1617 H1601 0.930 . S
C1617 C1616 1.377 . S
C1617 C1618 1.379 . S
C1618 H1602 0.896 1_565 S
C1618 C1612 1.383 . S
C1618 C1617 1.379 . S
H1619 C1613 0.959 . S
H1620 C1613 0.961 . S
H1621 C1613 0.960 . S
H1622 C1614 0.930 . S
H1623 C1615 0.929 . S
H1624 C1632 0.929 . S
H1625 C1634 0.930 . S
H1626 C1636 0.930 . S
H1627 C1639 0.929 . S
H1628 C1642 0.930 . S
H1629 C1644 0.960 . S
H1630 C1644 0.960 . S
H1631 C1644 0.960 . S
C1632 H1624 0.929 . S
C1632 C1633 1.377 . S
C1632 C1634 1.384 . S
C1633 C1632 1.377 . S
C1633 C1639 1.390 . S
C1634 H1625 0.930 . S
C1634 C1632 1.384 . S
C1634 C1635 1.372 . S
C1635 C1634 1.372 . S
C1635 C1636 1.400 . S
C1635 C1640 1.490 . S
C1636 H1626 0.930 . S
C1636 C1635 1.400 . S
C1636 C1639 1.386 . S
H1637 C1653 0.930 . S
H1638 C1654 0.931 . S
C1639 H1627 0.929 . S
C1639 C1633 1.390 . S
C1639 C1636 1.386 . S
C1640 C1635 1.490 . S
C1640 C1642 1.395 . S
C1640 C1643 1.403 . S
H1641 C1647 0.930 . S
C1642 H1628 0.930 . S
C1642 C1640 1.395 . S
C1642 C1645 1.403 . S
C1643 C1640 1.403 . S
C1643 C1644 1.524 . S
C1643 C1647 1.400 . S
C1644 H1629 0.960 . S
C1644 H1630 0.960 . S
C1644 H1631 0.960 . S
C1644 C1643 1.524 . S
C1645 C1642 1.403 . S
C1645 C1646 1.392 . S
C1645 C1649 1.495 . S
C1646 C1645 1.392 . S
C1646 C1647 1.385 . S
C1646 C1648 1.478 . S
C1647 H1641 0.930 . S
C1647 C1643 1.400 . S
C1647 C1646 1.385 . S
C1648 C1646 1.478 . S
C1648 C1650 1.381 . S
C1648 C1654 1.383 . S
C1649 C1645 1.495 . S
C1649 H1655 0.959 . S
C1649 H1656 0.961 . S
C1649 H1657 0.960 . S
C1650 C1648 1.381 . S
C1650 C1651 1.394 . S
C1650 H1658 0.930 . S
C1651 C1650 1.394 . S
C1651 C1652 1.383 . S
C1651 H1659 0.929 . S
C1652 C1651 1.383 . S
C1652 C1653 1.377 . S
C1653 H1637 0.930 . S
C1653 C1652 1.377 . S
C1653 C1654 1.379 . S
C1654 H1638 0.931 . S
C1654 C1648 1.383 . S
C1654 C1653 1.379 . S
H1655 C1649 0.959 . S
H1656 C1649 0.961 . S
H1657 C1649 0.960 . S
H1658 C1650 0.930 . S
H1659 C1651 0.929 . S
H1660 C1668 0.929 1_655 S
H1661 C1670 0.930 . S
H1662 C1672 0.930 . S
H1663 C1675 0.929 . S
H1664 C1678 0.930 . S
H1665 C1680 0.960 . S
H1666 C1680 0.976 . S
H1667 C1680 0.960 . S
C1668 H1660 0.929 1_455 S
C1668 C1669 1.377 . S
C1668 C1670 1.384 1_455 S
C1669 C1668 1.377 . S
C1669 C1675 1.390 . S
C1670 H1661 0.930 . S
C1670 C1668 1.384 1_655 S
C1670 C1671 1.372 1_655 S
C1671 C1670 1.372 1_455 S
C1671 C1672 1.400 . S
C1671 C1676 1.490 . S
C1672 H1662 0.930 . S
C1672 C1671 1.400 . S
C1672 C1675 1.386 . S
H1673 C1689 0.930 1_455 S
H1674 C1690 0.931 . S
C1675 H1663 0.929 . S
C1675 C1669 1.390 . S
C1675 C1672 1.386 . S
C1676 C1671 1.490 . S
C1676 C1678 1.395 1_455 S
C1676 C1679 1.403 . S
H1677 C1683 0.930 . S
C1678 H1664 0.930 . S
C1678 C1676 1.395 1_655 S
C1678 C1681 1.403 . S
C1679 C1676 1.403 . S
C1679 C1680 1.524 . S
C1679 C1683 1.400 1_455 S
C1680 H1665 0.960 . S
C1680 H1666 0.976 . S
C1680 H1667 0.960 . S
C1680 C1679 1.524 . S
C1681 C1678 1.403 . S
C1681 C1682 1.392 . S
C1681 C1685 1.495 . S
C1682 C1681 1.392 . S
C1682 C1683 1.385 . S
C1682 C1684 1.478 . S
C1683 H1677 0.930 . S
C1683 C1679 1.400 1_655 S
C1683 C1682 1.385 . S
C1684 C1682 1.478 . S
C1684 C1686 1.381 . S
C1684 C1690 1.383 1_655 S
C1685 C1681 1.495 . S
C1685 H1691 0.959 . S
C1685 H1692 0.961 . S
C1685 H1693 0.960 . S
C1686 C1684 1.381 . S
C1686 C1687 1.394 . S
C1686 H1694 0.930 . S
C1687 C1686 1.394 . S
C1687 C1688 1.383 . S
C1687 H1695 0.929 . S
C1688 C1687 1.383 . S
C1688 C1689 1.377 . S
C1689 H1673 0.930 1_655 S
C1689 C1688 1.377 . S
C1689 C1690 1.379 1_655 S
C1690 H1674 0.931 . S
C1690 C1684 1.383 1_455 S
C1690 C1689 1.379 1_455 S
H1691 C1685 0.959 . S
H1692 C1685 0.961 . S
H1693 C1685 0.960 . S
H1694 C1686 0.930 . S
H1695 C1687 0.929 . S
H1696 C1704 0.929 . S
H1697 C1706 0.930 . S
H1698 C1708 0.930 . S
H1699 C1711 0.929 . S
H1700 C1714 0.930 . S
H1701 C1716 0.960 . S
H1702 C1716 0.960 . S
H1703 C1716 0.960 . S
C1704 H1696 0.929 . S
C1704 C1705 1.377 . S
C1704 C1706 1.384 . S
C1705 C1704 1.377 . S
C1705 C1711 1.390 . S
C1706 H1697 0.930 . S
C1706 C1704 1.384 . S
C1706 C1707 1.372 . S
C1707 C1706 1.372 . S
C1707 C1708 1.400 . S
C1707 C1712 1.490 . S
C1708 H1698 0.930 . S
C1708 C1707 1.400 . S
C1708 C1711 1.386 . S
H1709 C1725 0.930 . S
H1710 C1726 0.931 . S
C1711 H1699 0.929 . S
C1711 C1705 1.390 . S
C1711 C1708 1.386 . S
C1712 C1707 1.490 . S
C1712 C1714 1.395 . S
C1712 C1715 1.403 . S
H1713 C1719 0.930 . S
C1714 H1700 0.930 . S
C1714 C1712 1.395 . S
C1714 C1717 1.403 . S
C1715 C1712 1.403 . S
C1715 C1716 1.524 . S
C1715 C1719 1.400 . S
C1716 H1701 0.960 . S
C1716 H1702 0.960 . S
C1716 H1703 0.960 . S
C1716 C1715 1.524 . S
C1717 C1714 1.403 . S
C1717 C1718 1.392 . S
C1717 C1721 1.495 . S
C1718 C1717 1.392 . S
C1718 C1719 1.385 . S
C1718 C1720 1.478 . S
C1719 H1713 0.930 . S
C1719 C1715 1.400 . S
C1719 C1718 1.385 . S
C1720 C1718 1.478 . S
C1720 C1722 1.381 . S
C1720 C1726 1.383 . S
C1721 C1717 1.495 . S
C1721 H1727 0.959 . S
C1721 H1728 0.961 . S
C1721 H1729 0.960 . S
C1722 C1720 1.381 . S
C1722 C1723 1.394 . S
C1722 H1730 0.930 . S
C1723 C1722 1.394 . S
C1723 C1724 1.383 . S
C1723 H1731 0.929 . S
C1724 C1723 1.383 . S
C1724 C1725 1.377 . S
C1725 H1709 0.930 . S
C1725 C1724 1.377 . S
C1725 C1726 1.379 . S
C1726 H1710 0.931 . S
C1726 C1720 1.383 . S
C1726 C1725 1.379 . S
H1727 C1721 0.959 . S
H1728 C1721 0.961 . S
H1729 C1721 0.960 . S
H1730 C1722 0.930 . S
H1731 C1723 0.929 . S
H1732 C1740 0.929 . S
H1733 C1742 0.930 . S
H1734 C1744 0.930 . S
H1735 C1747 0.929 . S
H1736 C1750 0.930 . S
H1737 C1752 0.960 . S
H1738 C1752 0.960 . S
H1739 C1752 0.960 . S
C1740 H1732 0.929 . S
C1740 C1741 1.377 . S
C1740 C1742 1.384 . S
C1741 C1740 1.377 . S
C1741 C1747 1.390 . S
C1742 H1733 0.930 . S
C1742 C1740 1.384 . S
C1742 C1743 1.372 . S
C1743 C1742 1.372 . S
C1743 C1744 1.400 . S
C1743 C1748 1.490 . S
C1744 H1734 0.930 . S
C1744 C1743 1.400 . S
C1744 C1747 1.386 . S
H1745 C1761 0.930 . S
H1746 C1762 0.931 . S
C1747 H1735 0.929 . S
C1747 C1741 1.390 . S
C1747 C1744 1.386 . S
C1748 C1743 1.490 . S
C1748 C1750 1.395 . S
C1748 C1751 1.403 . S
H1749 C1755 0.930 . S
C1750 H1736 0.930 . S
C1750 C1748 1.395 . S
C1750 C1753 1.403 . S
C1751 C1748 1.403 . S
C1751 C1752 1.524 . S
C1751 C1755 1.400 . S
C1752 H1737 0.960 . S
C1752 H1738 0.960 . S
C1752 H1739 0.960 . S
C1752 C1751 1.524 . S
C1753 C1750 1.403 . S
C1753 C1754 1.392 . S
C1753 C1757 1.495 . S
C1754 C1753 1.392 . S
C1754 C1755 1.385 . S
C1754 C1756 1.478 . S
C1755 H1749 0.930 . S
C1755 C1751 1.400 . S
C1755 C1754 1.385 . S
C1756 C1754 1.478 . S
C1756 C1758 1.381 . S
C1756 C1762 1.383 . S
C1757 C1753 1.495 . S
C1757 H1763 0.959 . S
C1757 H1764 0.961 . S
C1757 H1765 0.960 . S
C1758 C1756 1.381 . S
C1758 C1759 1.394 . S
C1758 H1766 0.930 . S
C1759 C1758 1.394 . S
C1759 C1760 1.383 . S
C1759 H1767 0.929 . S
C1760 C1759 1.383 . S
C1760 C1761 1.377 . S
C1761 H1745 0.930 . S
C1761 C1760 1.377 . S
C1761 C1762 1.379 . S
C1762 H1746 0.931 . S
C1762 C1756 1.383 . S
C1762 C1761 1.379 . S
H1763 C1757 0.959 . S
H1764 C1757 0.961 . S
H1765 C1757 0.960 . S
H1766 C1758 0.930 . S
H1767 C1759 0.929 . S
H1768 C1776 0.929 . S
H1769 C1778 0.930 . S
H1770 C1780 0.930 . S
H1771 C1783 0.929 . S
H1772 C1786 0.930 . S
H1773 C1788 0.960 . S
H1774 C1788 0.960 . S
H1775 C1788 0.960 . S
C1776 H1768 0.929 . S
C1776 C1777 1.377 . S
C1776 C1778 1.384 . S
C1777 C1776 1.377 . S
C1777 C1783 1.390 . S
C1778 H1769 0.930 . S
C1778 C1776 1.384 . S
C1778 C1779 1.372 . S
C1779 C1778 1.372 . S
C1779 C1780 1.400 . S
C1779 C1784 1.490 . S
C1780 H1770 0.930 . S
C1780 C1779 1.400 . S
C1780 C1783 1.386 . S
H1781 C1797 0.930 . S
H1782 C1798 0.931 . S
C1783 H1771 0.929 . S
C1783 C1777 1.390 . S
C1783 C1780 1.386 . S
C1784 C1779 1.490 . S
C1784 C1786 1.395 . S
C1784 C1787 1.403 . S
H1785 C1791 0.930 . S
C1786 H1772 0.930 . S
C1786 C1784 1.395 . S
C1786 C1789 1.403 . S
C1787 C1784 1.403 . S
C1787 C1788 1.524 . S
C1787 C1791 1.400 . S
C1788 H1773 0.960 . S
C1788 H1774 0.960 . S
C1788 H1775 0.960 . S
C1788 C1787 1.524 . S
C1789 C1786 1.403 . S
C1789 C1790 1.392 . S
C1789 C1793 1.495 . S
C1790 C1789 1.392 . S
C1790 C1791 1.385 . S
C1790 C1792 1.478 . S
C1791 H1785 0.930 . S
C1791 C1787 1.400 . S
C1791 C1790 1.385 . S
C1792 C1790 1.478 . S
C1792 C1794 1.381 . S
C1792 C1798 1.383 . S
C1793 C1789 1.495 . S
C1793 H1799 0.959 . S
C1793 H1800 0.961 . S
C1793 H1801 0.960 . S
C1794 C1792 1.381 . S
C1794 C1795 1.394 . S
C1794 H1802 0.930 . S
C1795 C1794 1.394 . S
C1795 C1796 1.383 . S
C1795 H1803 0.929 . S
C1796 C1795 1.383 . S
C1796 C1797 1.377 . S
C1797 H1781 0.930 . S
C1797 C1796 1.377 . S
C1797 C1798 1.379 . S
C1798 H1782 0.931 . S
C1798 C1792 1.383 . S
C1798 C1797 1.379 . S
H1799 C1793 0.959 . S
H1800 C1793 0.961 . S
H1801 C1793 0.960 . S
H1802 C1794 0.930 . S
H1803 C1795 0.929 . S
H1804 C1812 0.929 . S
H1805 C1814 0.930 . S
H1806 C1816 0.930 . S
H1807 C1819 0.929 . S
H1808 C1822 0.930 . S
H1809 C1824 0.960 . S
H1810 C1824 0.960 . S
H1811 C1824 0.960 . S
C1812 H1804 0.929 . S
C1812 C1813 1.377 . S
C1812 C1814 1.384 . S
C1813 C1812 1.377 . S
C1813 C1819 1.390 . S
C1814 H1805 0.930 . S
C1814 C1812 1.384 . S
C1814 C1815 1.372 . S
C1815 C1814 1.372 . S
C1815 C1816 1.400 . S
C1815 C1820 1.490 . S
C1816 H1806 0.930 . S
C1816 C1815 1.400 . S
C1816 C1819 1.386 . S
H1817 C1833 0.930 . S
H1818 C1834 0.931 . S
C1819 H1807 0.929 . S
C1819 C1813 1.390 . S
C1819 C1816 1.386 . S
C1820 C1815 1.490 . S
C1820 C1822 1.395 . S
C1820 C1823 1.403 . S
H1821 C1827 0.930 . S
C1822 H1808 0.930 . S
C1822 C1820 1.395 . S
C1822 C1825 1.403 . S
C1823 C1820 1.403 . S
C1823 C1824 1.524 . S
C1823 C1827 1.400 . S
C1824 H1809 0.960 . S
C1824 H1810 0.960 . S
C1824 H1811 0.960 . S
C1824 C1823 1.524 . S
C1825 C1822 1.403 . S
C1825 C1826 1.392 . S
C1825 C1829 1.495 . S
C1826 C1825 1.392 . S
C1826 C1827 1.385 . S
C1826 C1828 1.478 . S
C1827 H1821 0.930 . S
C1827 C1823 1.400 . S
C1827 C1826 1.385 . S
C1828 C1826 1.478 . S
C1828 C1830 1.381 . S
C1828 C1834 1.383 . S
C1829 C1825 1.495 . S
C1829 H1835 0.959 1_455 S
C1829 H1836 0.961 . S
C1829 H1837 0.960 . S
C1830 C1828 1.381 . S
C1830 C1831 1.394 . S
C1830 H1838 0.930 . S
C1831 C1830 1.394 . S
C1831 C1832 1.383 . S
C1831 H1839 0.929 . S
C1832 C1831 1.383 . S
C1832 C1833 1.377 . S
C1833 H1817 0.930 . S
C1833 C1832 1.377 . S
C1833 C1834 1.379 . S
C1834 H1818 0.931 . S
C1834 C1828 1.383 . S
C1834 C1833 1.379 . S
H1835 C1829 0.959 1_655 S
H1836 C1829 0.961 . S
H1837 C1829 0.960 . S
H1838 C1830 0.930 . S
H1839 C1831 0.929 . S
H1840 C1848 0.929 . S
H1841 C1850 0.930 . S
H1842 C1852 0.930 . S
H1843 C1855 0.929 . S
H1844 C1858 0.930 . S
H1845 C1860 0.960 . S
H1846 C1860 0.960 . S
H1847 C1860 0.960 . S
C1848 H1840 0.929 . S
C1848 C1849 1.377 . S
C1848 C1850 1.384 . S
C1849 C1848 1.377 . S
C1849 C1855 1.390 . S
C1850 H1841 0.930 . S
C1850 C1848 1.384 . S
C1850 C1851 1.372 . S
C1851 C1850 1.372 . S
C1851 C1852 1.400 . S
C1851 C1856 1.490 . S
C1852 H1842 0.930 . S
C1852 C1851 1.400 . S
C1852 C1855 1.386 . S
H1853 C1869 0.930 . S
H1854 C1870 0.931 . S
C1855 H1843 0.929 . S
C1855 C1849 1.390 . S
C1855 C1852 1.386 . S
C1856 C1851 1.490 . S
C1856 C1858 1.395 . S
C1856 C1859 1.403 . S
H1857 C1863 0.930 . S
C1858 H1844 0.930 . S
C1858 C1856 1.395 . S
C1858 C1861 1.403 . S
C1859 C1856 1.403 . S
C1859 C1860 1.524 . S
C1859 C1863 1.400 . S
C1860 H1845 0.960 . S
C1860 H1846 0.960 . S
C1860 H1847 0.960 . S
C1860 C1859 1.524 . S
C1861 C1858 1.403 . S
C1861 C1862 1.392 . S
C1861 C1865 1.495 . S
C1862 C1861 1.392 . S
C1862 C1863 1.385 . S
C1862 C1864 1.478 . S
C1863 H1857 0.930 . S
C1863 C1859 1.400 . S
C1863 C1862 1.385 . S
C1864 C1862 1.478 . S
C1864 C1866 1.381 . S
C1864 C1870 1.383 . S
C1865 C1861 1.495 . S
C1865 H1871 0.959 . S
C1865 H1872 0.961 . S
C1865 H1873 0.960 . S
C1866 C1864 1.381 . S
C1866 C1867 1.394 . S
C1866 H1874 0.930 . S
C1867 C1866 1.394 . S
C1867 C1868 1.383 . S
C1867 H1875 0.929 . S
C1868 C1867 1.383 . S
C1868 C1869 1.377 . S
C1869 H1853 0.930 . S
C1869 C1868 1.377 . S
C1869 C1870 1.379 . S
C1870 H1854 0.931 . S
C1870 C1864 1.383 . S
C1870 C1869 1.379 . S
H1871 C1865 0.959 . S
H1872 C1865 0.961 . S
H1873 C1865 0.960 . S
H1874 C1866 0.930 . S
H1875 C1867 0.929 . S
H1876 C1884 0.929 . S
H1877 C1886 0.930 . S
H1878 C1888 0.930 . S
H1879 C1891 0.929 . S
H1880 C1894 0.930 . S
H1881 C1896 0.960 . S
H1882 C1896 0.960 . S
H1883 C1896 0.960 . S
C1884 H1876 0.929 . S
C1884 C1885 1.377 . S
C1884 C1886 1.384 . S
C1885 C1884 1.377 . S
C1885 C1891 1.390 . S
C1886 H1877 0.930 . S
C1886 C1884 1.384 . S
C1886 C1887 1.372 . S
C1887 C1886 1.372 . S
C1887 C1888 1.400 . S
C1887 C1892 1.490 . S
C1888 H1878 0.930 . S
C1888 C1887 1.400 . S
C1888 C1891 1.386 . S
H1889 C1905 0.930 . S
H1890 C1906 0.931 . S
C1891 H1879 0.929 . S
C1891 C1885 1.390 . S
C1891 C1888 1.386 . S
C1892 C1887 1.490 . S
C1892 C1894 1.395 . S
C1892 C1895 1.403 . S
H1893 C1899 0.930 . S
C1894 H1880 0.930 . S
C1894 C1892 1.395 . S
C1894 C1897 1.403 . S
C1895 C1892 1.403 . S
C1895 C1896 1.524 . S
C1895 C1899 1.400 . S
C1896 H1881 0.960 . S
C1896 H1882 0.960 . S
C1896 H1883 0.960 . S
C1896 C1895 1.524 . S
C1897 C1894 1.403 . S
C1897 C1898 1.392 . S
C1897 C1901 1.495 . S
C1898 C1897 1.392 . S
C1898 C1899 1.385 . S
C1898 C1900 1.478 . S
C1899 H1893 0.930 . S
C1899 C1895 1.400 . S
C1899 C1898 1.385 . S
C1900 C1898 1.478 . S
C1900 C1902 1.381 . S
C1900 C1906 1.383 . S
C1901 C1897 1.495 . S
C1901 H1907 0.959 . S
C1901 H1908 0.961 . S
C1901 H1909 0.960 . S
C1902 C1900 1.381 . S
C1902 C1903 1.394 . S
C1902 H1910 0.930 . S
C1903 C1902 1.394 . S
C1903 C1904 1.383 . S
C1903 H1911 0.929 . S
C1904 C1903 1.383 . S
C1904 C1905 1.377 . S
C1905 H1889 0.930 . S
C1905 C1904 1.377 . S
C1905 C1906 1.379 . S
C1906 H1890 0.931 . S
C1906 C1900 1.383 . S
C1906 C1905 1.379 . S
H1907 C1901 0.959 . S
H1908 C1901 0.961 . S
H1909 C1901 0.960 . S
H1910 C1902 0.930 . S
H1911 C1903 0.929 . S
H1912 C1920 0.929 . S
H1913 C1922 0.930 . S
H1914 C1924 0.930 . S
H1915 C1927 0.929 . S
H1916 C1930 0.930 . S
H1917 C1932 0.960 . S
H1918 C1932 0.960 . S
H1919 C1932 0.960 . S
C1920 H1912 0.929 . S
C1920 C1921 1.377 . S
C1920 C1922 1.384 . S
C1921 C1920 1.377 . S
C1921 C1927 1.390 . S
C1922 H1913 0.930 . S
C1922 C1920 1.384 . S
C1922 C1923 1.372 . S
C1923 C1922 1.372 . S
C1923 C1924 1.400 . S
C1923 C1928 1.490 . S
C1924 H1914 0.930 . S
C1924 C1923 1.400 . S
C1924 C1927 1.386 . S
H1925 C1941 0.930 . S
H1926 C1942 0.931 . S
C1927 H1915 0.929 . S
C1927 C1921 1.390 . S
C1927 C1924 1.386 . S
C1928 C1923 1.490 . S
C1928 C1930 1.395 . S
C1928 C1931 1.403 . S
H1929 C1935 0.930 . S
C1930 H1916 0.930 . S
C1930 C1928 1.395 . S
C1930 C1933 1.403 . S
C1931 C1928 1.403 . S
C1931 C1932 1.524 . S
C1931 C1935 1.400 . S
C1932 H1917 0.960 . S
C1932 H1918 0.960 . S
C1932 H1919 0.960 . S
C1932 C1931 1.524 . S
C1933 C1930 1.403 . S
C1933 C1934 1.392 . S
C1933 C1937 1.495 . S
C1934 C1933 1.392 . S
C1934 C1935 1.385 . S
C1934 C1936 1.478 . S
C1935 H1929 0.930 . S
C1935 C1931 1.400 . S
C1935 C1934 1.385 . S
C1936 C1934 1.478 . S
C1936 C1938 1.381 . S
C1936 C1942 1.383 . S
C1937 C1933 1.495 . S
C1937 H1943 0.959 . S
C1937 H1944 0.961 . S
C1937 H1945 0.960 . S
C1938 C1936 1.381 . S
C1938 C1939 1.394 . S
C1938 H1946 0.930 . S
C1939 C1938 1.394 . S
C1939 C1940 1.383 . S
C1939 H1947 0.929 . S
C1940 C1939 1.383 . S
C1940 C1941 1.377 . S
C1941 H1925 0.930 . S
C1941 C1940 1.377 . S
C1941 C1942 1.379 . S
C1942 H1926 0.931 . S
C1942 C1936 1.383 . S
C1942 C1941 1.379 . S
H1943 C1937 0.959 . S
H1944 C1937 0.961 . S
H1945 C1937 0.960 . S
H1946 C1938 0.930 . S
H1947 C1939 0.929 . S
H1948 C1956 0.929 . S
H1949 C1958 0.930 . S
H1950 C1960 0.930 . S
H1951 C1963 0.929 . S
H1952 C1966 0.930 . S
H1953 C1968 0.960 . S
H1954 C1968 0.960 . S
H1955 C1968 0.960 . S
C1956 H1948 0.929 . S
C1956 C1957 1.377 . S
C1956 C1958 1.384 . S
C1957 C1956 1.377 . S
C1957 C1963 1.390 . S
C1958 H1949 0.930 . S
C1958 C1956 1.384 . S
C1958 C1959 1.372 . S
C1959 C1958 1.372 . S
C1959 C1960 1.400 . S
C1959 C1964 1.490 . S
C1960 H1950 0.930 . S
C1960 C1959 1.400 . S
C1960 C1963 1.386 . S
H1961 C1977 0.930 . S
H1962 C1978 0.931 . S
C1963 H1951 0.929 . S
C1963 C1957 1.390 . S
C1963 C1960 1.386 . S
C1964 C1959 1.490 . S
C1964 C1966 1.395 . S
C1964 C1967 1.403 . S
H1965 C1971 0.930 . S
C1966 H1952 0.930 . S
C1966 C1964 1.395 . S
C1966 C1969 1.403 . S
C1967 C1964 1.403 . S
C1967 C1968 1.524 . S
C1967 C1971 1.400 . S
C1968 H1953 0.960 . S
C1968 H1954 0.960 . S
C1968 H1955 0.960 . S
C1968 C1967 1.524 . S
C1969 C1966 1.403 . S
C1969 C1970 1.392 . S
C1969 C1973 1.495 . S
C1970 C1969 1.392 . S
C1970 C1971 1.385 . S
C1970 C1972 1.478 . S
C1971 H1965 0.930 . S
C1971 C1967 1.400 . S
C1971 C1970 1.385 . S
C1972 C1970 1.478 . S
C1972 C1974 1.381 . S
C1972 C1978 1.383 . S
C1973 C1969 1.495 . S
C1973 H1979 0.959 . S
C1973 H1980 0.961 . S
C1973 H1981 0.960 . S
C1974 C1972 1.381 . S
C1974 C1975 1.394 . S
C1974 H1982 0.930 . S
C1975 C1974 1.394 . S
C1975 C1976 1.383 . S
C1975 H1983 0.929 . S
C1976 C1975 1.383 . S
C1976 C1977 1.377 . S
C1977 H1961 0.930 . S
C1977 C1976 1.377 . S
C1977 C1978 1.379 . S
C1978 H1962 0.931 . S
C1978 C1972 1.383 . S
C1978 C1977 1.379 . S
H1979 C1973 0.959 . S
H1980 C1973 0.961 . S
H1981 C1973 0.960 . S
H1982 C1974 0.930 . S
H1983 C1975 0.929 . S
C553 C9 0.676 . S
C572 C67 0.611 . S
C589 C101 0.612 . S
C608 C43 0.759 . S
C625 C135 0.612 . S
C644 C77 0.760 . S
C661 C111 0.672 . S
C680 C33 0.617 . S
C697 C271 0.612 . S
C716 C145 0.760 . S
C733 C169 0.612 . S
C752 C179 0.666 . S
C769 C203 0.613 . S
C788 C213 0.742 . S
C805 C247 0.669 . S
C824 C237 0.611 . S
C841 C281 0.687 . S
C860 C339 0.617 . S
C877 C315 0.661 . S
C896 C373 0.611 . S
C913 C407 0.613 . S
C932 C349 0.738 . S
C949 C305 0.612 . S
C968 C383 0.747 . S
C985 C543 0.613 . S
C1004 C417 0.760 . S
C1021 C441 0.612 . S
C1040 C451 0.601 . S
C1057 C485 0.655 . S
C1076 C475 0.611 . S
C1093 C519 0.689 . S
C1112 C509 0.615 . S
C1129 C5 2.229 . S
C1148 C73 2.233 . S
C1165 C39 2.230 . S
C1184 C107 2.217 . S
C1201 C209 2.229 . S
C1220 C141 2.219 . S
C1237 C243 2.231 . S
C1256 C175 2.217 . S
C1273 C345 2.231 . S
C1292 C277 2.234 . S
C1309 C311 2.231 . S
C1328 C379 2.234 . S
C1345 C413 2.231 . S
C1364 C481 2.234 . S
C1381 C447 2.228 . S
C1400 C515 2.218 . S
C1417 C20 1.796 . S
C1436 C292 1.788 . S
C1453 C54 1.793 . S
C1472 C326 1.800 . S
C1489 C88 1.791 . S
C1508 C360 1.792 . S
C1525 C394 1.791 . S
C1544 C122 1.783 . S
C1561 C428 1.796 . S
C1580 C156 1.801 . S
C1597 C190 1.791 . S
C1616 C462 1.778 . S
C1633 C224 1.791 . S
C1652 C496 1.780 . S
C1669 C530 1.791 . S
C1688 C258 1.784 . S
C1705 C172 1.638 . S
C1724 C2 1.630 . S
C1741 C206 1.638 . S
C1760 C36 1.629 . S
C1777 C70 1.638 . S
C1796 C240 1.636 . S
C1813 C138 1.637 . S
C1832 C104 1.638 . S
C1849 C274 1.638 . S
C1868 C444 1.638 . S
C1885 C478 1.637 . S
C1904 C308 1.633 . S
C1921 C512 1.636 . S
C1940 C342 1.629 . S
C1957 C376 1.638 . S
C1976 C410 1.635 . S
