# Generated by pormake.
# Topology ske, (6)-cn, num edge types: 1
# Building blocks:
#     Node 0, Type 0, BuildingBlock: CUKXOW_clean_sbu_0, # of connection points: 6
#     Node 1, Type 0, BuildingBlock: CUKXOW_clean_sbu_0, # of connection points: 6
#     Node 2, Type 0, BuildingBlock: CUKXOW_clean_sbu_0, # of connection points: 6
#     Node 3, Type 0, BuildingBlock: CUKXOW_clean_sbu_0, # of connection points: 6
#     Node 4, Type 0, BuildingBlock: CUKXOW_clean_sbu_0, # of connection points: 6
#     Node 5, Type 0, BuildingBlock: CUKXOW_clean_sbu_0, # of connection points: 6
#     Node 6, Type 0, BuildingBlock: CUKXOW_clean_sbu_0, # of connection points: 6
#     Node 7, Type 0, BuildingBlock: CUKXOW_clean_sbu_0, # of connection points: 6
#     Edge 8, Type (0, 0), BuildingBlock: KIFKEQ_clean_linker_1, # of connection points: 2
#     Edge 9, Type (0, 0), BuildingBlock: KIFKEQ_clean_linker_1, # of connection points: 2
#     Edge 10, Type (0, 0), BuildingBlock: KIFKEQ_clean_linker_1, # of connection points: 2
#     Edge 11, Type (0, 0), BuildingBlock: KIFKEQ_clean_linker_1, # of connection points: 2
#     Edge 12, Type (0, 0), BuildingBlock: KIFKEQ_clean_linker_1, # of connection points: 2
#     Edge 13, Type (0, 0), BuildingBlock: KIFKEQ_clean_linker_1, # of connection points: 2
#     Edge 14, Type (0, 0), BuildingBlock: KIFKEQ_clean_linker_1, # of connection points: 2
#     Edge 15, Type (0, 0), BuildingBlock: KIFKEQ_clean_linker_1, # of connection points: 2
#     Edge 16, Type (0, 0), BuildingBlock: KIFKEQ_clean_linker_1, # of connection points: 2
#     Edge 17, Type (0, 0), BuildingBlock: KIFKEQ_clean_linker_1, # of connection points: 2
#     Edge 18, Type (0, 0), BuildingBlock: KIFKEQ_clean_linker_1, # of connection points: 2
#     Edge 19, Type (0, 0), BuildingBlock: KIFKEQ_clean_linker_1, # of connection points: 2
#     Edge 20, Type (0, 0), BuildingBlock: KIFKEQ_clean_linker_1, # of connection points: 2
#     Edge 21, Type (0, 0), BuildingBlock: KIFKEQ_clean_linker_1, # of connection points: 2
#     Edge 22, Type (0, 0), BuildingBlock: KIFKEQ_clean_linker_1, # of connection points: 2
#     Edge 23, Type (0, 0), BuildingBlock: KIFKEQ_clean_linker_1, # of connection points: 2
#     Edge 24, Type (0, 0), BuildingBlock: KIFKEQ_clean_linker_1, # of connection points: 2
#     Edge 25, Type (0, 0), BuildingBlock: KIFKEQ_clean_linker_1, # of connection points: 2
#     Edge 26, Type (0, 0), BuildingBlock: KIFKEQ_clean_linker_1, # of connection points: 2
#     Edge 27, Type (0, 0), BuildingBlock: KIFKEQ_clean_linker_1, # of connection points: 2
#     Edge 28, Type (0, 0), BuildingBlock: KIFKEQ_clean_linker_1, # of connection points: 2
#     Edge 29, Type (0, 0), BuildingBlock: KIFKEQ_clean_linker_1, # of connection points: 2
#     Edge 30, Type (0, 0), BuildingBlock: KIFKEQ_clean_linker_1, # of connection points: 2
#     Edge 31, Type (0, 0), BuildingBlock: KIFKEQ_clean_linker_1, # of connection points: 2
# Relax obj value: 0.167
# Max RMSD: 0.209
# Mean RMSD: 0.209
data_MOF--net-ske--node1-CUKXOW_clean_sbu_0--edge1-KIFKEQ_clean_linker_1
_symmetry_space_group_name_H-M    P1
_symmetry_Int_Tables_number       1
_symmetry_cell_setting            triclinic
loop_
_symmetry_equiv_pos_as_xyz
'x, y, z'
_cell_length_a     52.318401
_cell_length_b     30.989227
_cell_length_c     18.330769
_cell_angle_alpha  97.029982
_cell_angle_beta   89.86759
_cell_angle_gamma 89.624654
loop_
_atom_site_label
_atom_site_type_symbol
_atom_site_fract_x
_atom_site_fract_y
_atom_site_fract_z
_atom_type_partial_charge
Tb0 Tb 0.18314 0.24495 0.4533 0.0
C1 C 0.1746 0.16137 0.52714 0.0
Tb2 Tb 0.16846 0.25527 0.62094 0.0
O3 O 0.22187 0.22429 0.48375 0.0
O4 O 0.2003 0.26677 0.55587 0.0
O5 O 0.17448 0.17872 0.46477 0.0
C6 C 0.17477 0.26034 0.7654 0.0
O7 O 0.1756 0.18484 0.59319 0.0
C8 C 0.12728 0.24179 0.5395 0.0
C9 C 0.17071 0.3382 0.53518 0.0
O10 O 0.15818 0.28275 0.73272 0.0
O11 O 0.18772 0.23507 0.71678 0.0
O12 O 0.12695 0.24606 0.61092 0.0
O13 O 0.1502 0.24468 0.51946 0.0
O14 O 0.17144 0.3236 0.60073 0.0
O15 O 0.17199 0.31244 0.47207 0.0
C16 C 0.18405 0.24608 0.30846 0.0
O17 O 0.20222 0.26009 0.3532 0.0
O18 O 0.16554 0.23117 0.34521 0.0
C19 C 0.22084 0.24548 0.54956 0.0
Tb20 Tb 0.90594 0.2729 0.61507 0.0
C21 C 0.90255 0.3523 0.52191 0.0
Tb22 Tb 0.89244 0.25615 0.44691 0.0
O23 O 0.94786 0.27073 0.60648 0.0
O24 O 0.92493 0.2602 0.51459 0.0
O25 O 0.90106 0.33989 0.58907 0.0
C26 C 0.89046 0.25477 0.30134 0.0
O27 O 0.90209 0.3245 0.46089 0.0
C28 C 0.85482 0.25492 0.54325 0.0
C29 C 0.90383 0.17592 0.52784 0.0
O30 O 0.87247 0.2693 0.34701 0.0
O31 O 0.90941 0.24058 0.33763 0.0
O32 O 0.85523 0.231 0.47977 0.0
O33 O 0.87398 0.27927 0.5475 0.0
O34 O 0.90344 0.19143 0.46372 0.0
O35 O 0.90274 0.20115 0.59245 0.0
C36 C 0.89802 0.27891 0.75957 0.0
O37 O 0.91542 0.29987 0.72766 0.0
O38 O 0.88503 0.25484 0.71008 0.0
C39 C 0.94789 0.2622 0.53523 0.0
Tb40 Tb 0.18417 0.75275 0.55253 0.0
C41 C 0.17389 0.83438 0.47628 0.0
Tb42 Tb 0.1712 0.73722 0.39071 0.0
O43 O 0.22143 0.77905 0.52213 0.0
O44 O 0.20375 0.72958 0.45417 0.0
O45 O 0.17508 0.81875 0.53997 0.0
C46 C 0.17456 0.7358 0.24458 0.0
O47 O 0.17419 0.80903 0.41196 0.0
C48 C 0.13209 0.73132 0.478 0.0
C49 C 0.17643 0.6567 0.47654 0.0
O50 O 0.15347 0.73445 0.28169 0.0
O51 O 0.19365 0.73763 0.28968 0.0
O52 O 0.1343 0.71 0.41264 0.0
O53 O 0.15029 0.75813 0.48875 0.0
O54 O 0.17836 0.6701 0.41051 0.0
O55 O 0.17534 0.68399 0.53792 0.0
C56 C 0.18497 0.75457 0.69897 0.0
O57 O 0.20342 0.74055 0.65459 0.0
O58 O 0.1663 0.76789 0.66092 0.0
C59 C 0.2226 0.75455 0.45934 0.0
Tb60 Tb 0.90882 0.75554 0.37529 0.0
C61 C 0.90684 0.67051 0.4536 0.0
Tb62 Tb 0.89313 0.75971 0.54021 0.0
O63 O 0.95011 0.74596 0.38376 0.0
O64 O 0.9271 0.75335 0.47679 0.0
O65 O 0.90211 0.68694 0.39104 0.0
C66 C 0.88938 0.76511 0.68621 0.0
O67 O 0.90959 0.69559 0.51675 0.0
C68 C 0.85564 0.75318 0.44182 0.0
C69 C 0.90416 0.84761 0.47667 0.0
O70 O 0.87936 0.7351 0.63982 0.0
O71 O 0.90141 0.79248 0.65045 0.0
O72 O 0.8539 0.73944 0.50562 0.0
O73 O 0.87633 0.77301 0.44008 0.0
O74 O 0.89967 0.82822 0.53603 0.0
O75 O 0.90641 0.82615 0.40911 0.0
C76 C 0.90424 0.75416 0.2306 0.0
O77 O 0.92059 0.77716 0.27157 0.0
O78 O 0.89056 0.73137 0.27096 0.0
C79 C 0.94998 0.74831 0.455 0.0
Tb80 Tb 0.68287 0.74102 0.94893 0.0
C81 C 0.67354 0.65766 0.02277 0.0
Tb82 Tb 0.66865 0.75177 0.11627 0.0
O83 O 0.72181 0.72025 0.97793 0.0
O84 O 0.70057 0.76228 0.05094 0.0
O85 O 0.6727 0.67518 0.96058 0.0
C86 C 0.6763 0.7552 0.26033 0.0
O87 O 0.67554 0.68124 0.08844 0.0
C88 C 0.62702 0.73876 0.03682 0.0
C89 C 0.66849 0.83364 0.02862 0.0
O90 O 0.68636 0.7268 0.21039 0.0
O91 O 0.66187 0.78195 0.2292 0.0
O92 O 0.6271 0.74334 0.1083 0.0
O93 O 0.6498 0.74122 0.01522 0.0
O94 O 0.67133 0.81988 0.09438 0.0
O95 O 0.66831 0.8069 0.96646 0.0
C96 C 0.68577 0.74272 0.80421 0.0
O97 O 0.69745 0.76919 0.85333 0.0
O98 O 0.67263 0.71512 0.83653 0.0
C99 C 0.72094 0.74066 0.04417 0.0
Tb100 Tb 0.40672 0.76209 0.11942 0.0
C101 C 0.40644 0.84429 0.03254 0.0
Tb102 Tb 0.39194 0.75157 0.95191 0.0
O103 O 0.44849 0.75566 0.10767 0.0
O104 O 0.42466 0.74986 0.01766 0.0
O105 O 0.40395 0.83031 0.09826 0.0
C106 C 0.39062 0.75209 0.80702 0.0
O107 O 0.40503 0.81817 0.96973 0.0
C108 C 0.35437 0.75379 0.04955 0.0
C109 C 0.40071 0.66763 0.0262 0.0
O110 O 0.37323 0.76899 0.85277 0.0
O111 O 0.40856 0.73472 0.84282 0.0
O112 O 0.35322 0.73227 0.98407 0.0
O113 O 0.37494 0.77453 0.05476 0.0
O114 O 0.40028 0.68486 0.96363 0.0
O115 O 0.40035 0.69136 0.09222 0.0
C116 C 0.40029 0.76673 0.26397 0.0
O117 O 0.3871 0.74248 0.21522 0.0
O118 O 0.41718 0.78834 0.23138 0.0
C119 C 0.44777 0.74909 0.03628 0.0
Tb120 Tb 0.68445 0.24687 0.04586 0.0
C121 C 0.67305 0.32932 0.97107 0.0
Tb122 Tb 0.66988 0.23447 0.87893 0.0
O123 O 0.72286 0.26869 0.0155 0.0
O124 O 0.70232 0.22563 0.9434 0.0
O125 O 0.67298 0.31226 0.03372 0.0
C126 C 0.6772 0.23216 0.73466 0.0
O127 O 0.67497 0.3054 0.90562 0.0
C128 C 0.62826 0.2449 0.95998 0.0
C129 C 0.67154 0.15336 0.96759 0.0
O130 O 0.68633 0.26115 0.78469 0.0
O131 O 0.66391 0.20412 0.7658 0.0
O132 O 0.62804 0.23827 0.88853 0.0
O133 O 0.65124 0.24522 0.98049 0.0
O134 O 0.67412 0.16678 0.9015 0.0
O135 O 0.67127 0.18035 0.02953 0.0
C136 C 0.68741 0.24597 0.19078 0.0
O137 O 0.69973 0.21988 0.14188 0.0
O138 O 0.67361 0.27278 0.15811 0.0
C139 C 0.72225 0.24801 0.94942 0.0
Tb140 Tb 0.40671 0.24423 0.87869 0.0
C141 C 0.40803 0.16246 0.96705 0.0
Tb142 Tb 0.39344 0.25568 0.04695 0.0
O143 O 0.44816 0.25488 0.88558 0.0
O144 O 0.42581 0.25609 0.97884 0.0
O145 O 0.40549 0.17619 0.90118 0.0
C146 C 0.39139 0.255 0.19192 0.0
O147 O 0.4066 0.18881 0.02962 0.0
C148 C 0.35539 0.2545 0.95182 0.0
C149 C 0.40126 0.3389 0.97098 0.0
O150 O 0.37428 0.23852 0.1456 0.0
O151 O 0.40952 0.2721 0.15664 0.0
O152 O 0.35504 0.27772 0.01591 0.0
O153 O 0.37561 0.23242 0.94613 0.0
O154 O 0.40224 0.32184 0.03368 0.0
O155 O 0.39955 0.31494 0.90537 0.0
C156 C 0.39895 0.2367 0.73446 0.0
O157 O 0.41733 0.21796 0.76666 0.0
O158 O 0.3849 0.25963 0.78352 0.0
C159 C 0.44847 0.25952 0.95702 0.0
H160 H 0.26756 0.20419 0.54276 0.0
H161 H 0.22049 0.29327 0.68455 0.0
H162 H 0.30067 0.20866 0.6368 0.0
H163 H 0.25193 0.29431 0.78158 0.0
H164 H 0.32039 0.31791 0.93042 0.0
H165 H 0.28946 0.31771 0.83105 0.0
H166 H 0.31453 0.18809 0.74409 0.0
H167 H 0.34651 0.19028 0.84032 0.0
C168 C 0.26411 0.22414 0.59465 0.0
C169 C 0.24113 0.24759 0.60668 0.0
C170 C 0.28302 0.22642 0.64934 0.0
C171 C 0.27925 0.2515 0.71838 0.0
C172 C 0.25614 0.27512 0.72957 0.0
C173 C 0.23768 0.27384 0.67412 0.0
C174 C 0.31919 0.28951 0.88981 0.0
C175 C 0.33581 0.25413 0.89322 0.0
C176 C 0.30128 0.28908 0.83273 0.0
C177 C 0.29902 0.25272 0.77845 0.0
C178 C 0.31571 0.2172 0.78299 0.0
C179 C 0.33397 0.21814 0.83896 0.0
H180 H 0.72234 0.20343 0.81172 0.0
H181 H 0.76772 0.29197 0.95678 0.0
H182 H 0.7534 0.2062 0.7139 0.0
H183 H 0.80037 0.29171 0.86143 0.0
H184 H 0.84404 0.31754 0.65684 0.0
H185 H 0.81247 0.31595 0.75415 0.0
H186 H 0.79193 0.18516 0.66408 0.0
H187 H 0.82248 0.18844 0.56426 0.0
C188 C 0.73907 0.22352 0.82269 0.0
C189 C 0.74221 0.24834 0.89146 0.0
C190 C 0.75729 0.22452 0.76675 0.0
C191 C 0.77977 0.24926 0.77857 0.0
C192 C 0.78318 0.27311 0.84865 0.0
C193 C 0.76455 0.27297 0.90399 0.0
C194 C 0.83261 0.28858 0.65781 0.0
C195 C 0.83562 0.25322 0.60267 0.0
C196 C 0.8146 0.28738 0.71429 0.0
C197 C 0.7993 0.25039 0.71815 0.0
C198 C 0.80269 0.21476 0.66292 0.0
C199 C 0.82039 0.21638 0.6056 0.0
H200 H 0.30945 0.70857 0.04813 0.0
H201 H 0.35419 0.80333 0.18327 0.0
H202 H 0.27742 0.71066 0.14549 0.0
H203 H 0.32362 0.80281 0.28319 0.0
H204 H 0.25383 0.82183 0.43301 0.0
H205 H 0.2845 0.82335 0.33257 0.0
H206 H 0.26756 0.68882 0.25696 0.0
H207 H 0.23607 0.68865 0.35463 0.0
C208 C 0.3126 0.72943 0.09913 0.0
C209 C 0.33462 0.75512 0.1084 0.0
C210 C 0.29434 0.73036 0.15565 0.0
C211 C 0.29779 0.75651 0.22364 0.0
C212 C 0.31981 0.78261 0.23201 0.0
C213 C 0.33769 0.7824 0.17488 0.0
C214 C 0.25681 0.79266 0.39484 0.0
C215 C 0.24252 0.7552 0.40156 0.0
C216 C 0.27452 0.79333 0.33716 0.0
C217 C 0.27875 0.75621 0.28544 0.0
C218 C 0.26464 0.7185 0.29379 0.0
C219 C 0.24669 0.71816 0.35054 0.0
H220 H 0.72063 0.78652 0.18079 0.0
H221 H 0.76688 0.69678 0.03703 0.0
H222 H 0.75275 0.78629 0.27766 0.0
H223 H 0.79981 0.69865 0.13319 0.0
H224 H 0.85608 0.79053 0.31446 0.0
H225 H 0.8242 0.78389 0.21607 0.0
H226 H 0.77725 0.70578 0.34127 0.0
H227 H 0.80991 0.71018 0.4383 0.0
C228 C 0.73755 0.76644 0.17007 0.0
C229 C 0.74095 0.74093 0.10173 0.0
C230 C 0.75597 0.76654 0.22543 0.0
C231 C 0.77859 0.74221 0.21293 0.0
C232 C 0.78239 0.71743 0.14418 0.0
C233 C 0.76361 0.71645 0.08927 0.0
C234 C 0.83926 0.77106 0.32034 0.0
C235 C 0.83581 0.75001 0.38343 0.0
C236 C 0.82098 0.76752 0.2642 0.0
C237 C 0.79846 0.74399 0.27094 0.0
C238 C 0.79461 0.72378 0.33465 0.0
C239 C 0.81323 0.72643 0.39011 0.0
H240 H 0.15586 0.89054 0.58965 0.0
H241 H 0.18738 0.88571 0.37066 0.0
H242 H 0.15548 0.9693 0.60185 0.0
H243 H 0.1876 0.9653 0.38361 0.0
H244 H 0.16066 0.10639 0.40714 0.0
H245 H 0.15955 0.02769 0.393 0.0
H246 H 0.18521 0.02853 0.61714 0.0
H247 H 0.18572 0.108 0.6321 0.0
C248 C 0.16278 0.90639 0.54402 0.0
C249 C 0.17183 0.882 0.47925 0.0
C250 C 0.16272 0.9516 0.55134 0.0
C251 C 0.17185 0.97361 0.49426 0.0
C252 C 0.18029 0.94925 0.42851 0.0
C253 C 0.18017 0.90374 0.42094 0.0
C254 C 0.16613 0.08993 0.45362 0.0
C255 C 0.1734 0.11349 0.52085 0.0
C256 C 0.16561 0.04469 0.44518 0.0
C257 C 0.17245 0.0218 0.50363 0.0
C258 C 0.17955 0.04529 0.5712 0.0
C259 C 0.17992 0.09076 0.57984 0.0
H260 H 0.89885 0.42397 0.62678 0.0
H261 H 0.91016 0.38667 0.39372 0.0
H262 H 0.90055 0.50051 0.60665 0.0
H263 H 0.91231 0.46239 0.3743 0.0
H264 H 0.88676 0.60391 0.35813 0.0
H265 H 0.88576 0.52669 0.37503 0.0
H266 H 0.93071 0.55357 0.57263 0.0
H267 H 0.93135 0.63008 0.55647 0.0
C268 C 0.90184 0.43197 0.57153 0.0
C269 C 0.90428 0.39904 0.51209 0.0
C270 C 0.9029 0.47581 0.55991 0.0
C271 C 0.90649 0.48759 0.48866 0.0
C272 C 0.90909 0.45459 0.42957 0.0
C273 C 0.908 0.411 0.44107 0.0
C274 C 0.8967 0.59308 0.40443 0.0
C275 C 0.90893 0.62309 0.45615 0.0
C276 C 0.8961 0.54893 0.41436 0.0
C277 C 0.90783 0.53405 0.47597 0.0
C278 C 0.92091 0.56399 0.52577 0.0
C279 C 0.92143 0.60787 0.51603 0.0
H280 H 0.9221 0.90059 0.37923 0.0
H281 H 0.89017 0.90352 0.59748 0.0
H282 H 0.92428 0.97966 0.39596 0.0
H283 H 0.89146 0.98253 0.61313 0.0
H284 H 0.91549 0.12599 0.63853 0.0
H285 H 0.91774 0.04638 0.62845 0.0
H286 H 0.89541 0.03869 0.40038 0.0
H287 H 0.89396 0.11692 0.40963 0.0
C288 C 0.9154 0.91808 0.43057 0.0
C289 C 0.90578 0.89568 0.48666 0.0
C290 C 0.91657 0.96347 0.44019 0.0
C291 C 0.90783 0.98762 0.50577 0.0
C292 C 0.89864 0.96511 0.56234 0.0
C293 C 0.89772 0.9197 0.55301 0.0
C294 C 0.91115 0.10714 0.58638 0.0
C295 C 0.9048 0.12792 0.52487 0.0
C296 C 0.91236 0.06156 0.58055 0.0
C297 C 0.90706 0.03602 0.51324 0.0
C298 C 0.90034 0.05709 0.45246 0.0
C299 C 0.89934 0.10223 0.45808 0.0
H300 H 0.16317 0.58965 0.3723 0.0
H301 H 0.18654 0.6185 0.59892 0.0
H302 H 0.15932 0.51297 0.38891 0.0
H303 H 0.18365 0.54215 0.61478 0.0
H304 H 0.15548 0.40576 0.63845 0.0
H305 H 0.15496 0.48336 0.62373 0.0
H306 H 0.18622 0.45336 0.40467 0.0
H307 H 0.18587 0.377 0.41817 0.0
C308 C 0.16774 0.57953 0.42527 0.0
C309 C 0.1752 0.60998 0.4841 0.0
C310 C 0.16556 0.53566 0.43495 0.0
C311 C 0.17116 0.5214 0.50335 0.0
C312 C 0.17869 0.55203 0.56191 0.0
C313 C 0.18059 0.5958 0.55249 0.0
C314 C 0.16212 0.41598 0.58728 0.0
C315 C 0.17047 0.38527 0.52944 0.0
C316 C 0.16191 0.46031 0.57878 0.0
C317 C 0.17035 0.47454 0.51263 0.0
C318 C 0.17893 0.44363 0.45549 0.0
C319 C 0.17888 0.39967 0.46362 0.0
H320 H 0.65902 0.602 0.90386 0.0
H321 H 0.68505 0.6045 0.12796 0.0
H322 H 0.65792 0.52326 0.89073 0.0
H323 H 0.68462 0.52504 0.11402 0.0
H324 H 0.6569 0.38547 0.0881 0.0
H325 H 0.65628 0.46433 0.10103 0.0
H326 H 0.68562 0.46122 0.87982 0.0
H327 H 0.68558 0.38178 0.86613 0.0
C328 C 0.66468 0.58573 0.95038 0.0
C329 C 0.67224 0.60963 0.01702 0.0
C330 C 0.66418 0.54042 0.94255 0.0
C331 C 0.67137 0.51766 0.00099 0.0
C332 C 0.67869 0.54154 0.06805 0.0
C333 C 0.67902 0.58707 0.07607 0.0
C334 C 0.66319 0.40152 0.04199 0.0
C335 C 0.67141 0.37729 0.97606 0.0
C336 C 0.66298 0.44685 0.04971 0.0
C337 C 0.67113 0.46926 0.99186 0.0
C338 C 0.67897 0.44503 0.92534 0.0
C339 C 0.679 0.39949 0.91741 0.0
H340 H 0.39609 0.91449 0.13571 0.0
H341 H 0.42461 0.87993 0.9147 0.0
H342 H 0.39814 0.99143 0.11834 0.0
H343 H 0.42717 0.95621 0.89804 0.0
H344 H 0.39777 0.09261 0.86401 0.0
H345 H 0.39893 0.01572 0.8818 0.0
H346 H 0.427 0.04984 0.10274 0.0
H347 H 0.42533 0.12623 0.08562 0.0
C348 C 0.40313 0.9233 0.08397 0.0
C349 C 0.40993 0.89109 0.02649 0.0
C350 C 0.40435 0.96736 0.07391 0.0
C351 C 0.41258 0.98001 0.00637 0.0
C352 C 0.42019 0.94769 0.95004 0.0
C353 C 0.41884 0.90387 0.95991 0.0
C354 C 0.40445 0.08359 0.91597 0.0
C355 C 0.41125 0.11556 0.97344 0.0
C356 C 0.40515 0.03954 0.92629 0.0
C357 C 0.41284 0.0266 0.99409 0.0
C358 C 0.42044 0.05862 0.05049 0.0
C359 C 0.41963 0.10248 0.04035 0.0
H360 H 0.41716 0.39476 0.08771 0.0
H361 H 0.3873 0.39196 0.86757 0.0
H362 H 0.4173 0.47349 0.1015 0.0
H363 H 0.38678 0.47151 0.88222 0.0
H364 H 0.41409 0.61166 0.90598 0.0
H365 H 0.41448 0.5329 0.89185 0.0
H366 H 0.38931 0.53506 0.11702 0.0
H367 H 0.38958 0.61458 0.13187 0.0
C368 C 0.41045 0.41097 0.0422 0.0
C369 C 0.4021 0.38697 0.97647 0.0
C370 C 0.41037 0.45629 0.05046 0.0
C371 C 0.40183 0.47902 0.9934 0.0
C372 C 0.39373 0.45506 0.92715 0.0
C373 C 0.39398 0.40948 0.91866 0.0
C374 C 0.40859 0.59548 0.95271 0.0
C375 C 0.40169 0.61952 0.02015 0.0
C376 C 0.40867 0.55015 0.94429 0.0
C377 C 0.40171 0.52747 0.00293 0.0
C378 C 0.39503 0.55147 0.07079 0.0
C379 C 0.39513 0.59704 0.0794 0.0
H380 H 0.68233 0.11441 0.08878 0.0
H381 H 0.65676 0.08629 0.86418 0.0
H382 H 0.67997 0.03813 0.10415 0.0
H383 H 0.65319 0.00943 0.88052 0.0
H384 H 0.67892 0.87192 0.90671 0.0
H385 H 0.67831 0.94825 0.89197 0.0
H386 H 0.65349 0.97909 0.11767 0.0
H387 H 0.65532 0.90182 0.1334 0.0
C388 C 0.67587 0.09191 0.04272 0.0
C389 C 0.66977 0.10644 0.97504 0.0
C390 C 0.6743 0.048 0.05188 0.0
C391 C 0.66626 0.01731 0.9939 0.0
C392 C 0.65986 0.03195 0.92622 0.0
C393 C 0.66181 0.07601 0.91671 0.0
C394 C 0.67317 0.89483 0.95336 0.0
C395 C 0.66712 0.88069 0.02141 0.0
C396 C 0.67263 0.93884 0.94458 0.0
C397 C 0.66569 0.97016 0.00329 0.0
C398 C 0.6593 0.95601 0.07136 0.0
C399 C 0.66022 0.91173 0.0805 0.0
H400 H 0.22323 0.26852 0.22263 0.0
H401 H 0.14403 0.22989 0.21575 0.0
H402 H 0.22206 0.27435 0.09048 0.0
H403 H 0.1428 0.23598 0.08424 0.0
H404 H 0.1431 0.29937 0.87152 0.0
H405 H 0.14627 0.29734 0.00416 0.0
H406 H 0.21611 0.22228 0.9716 0.0
H407 H 0.21286 0.22416 0.83878 0.0
C408 C 0.20563 0.26125 0.19276 0.0
C409 C 0.18373 0.24873 0.22898 0.0
C410 C 0.20498 0.26448 0.11737 0.0
C411 C 0.1823 0.25584 0.07749 0.0
C412 C 0.16043 0.24332 0.11395 0.0
C413 C 0.16118 0.23957 0.18896 0.0
C414 C 0.15919 0.28272 0.89288 0.0
C415 C 0.17763 0.26164 0.84532 0.0
C416 C 0.16094 0.28138 0.96853 0.0
C417 C 0.18134 0.25941 0.99785 0.0
C418 C 0.20026 0.23957 0.95034 0.0
C419 C 0.19833 0.24046 0.87454 0.0
H420 H 0.85084 0.27834 0.21788 0.0
H421 H 0.92995 0.23746 0.2055 0.0
H422 H 0.8515 0.28604 0.08641 0.0
H423 H 0.93066 0.2453 0.0745 0.0
H424 H 0.93034 0.31345 0.86674 0.0
H425 H 0.92757 0.3078 0.99839 0.0
H426 H 0.85651 0.23818 0.96403 0.0
H427 H 0.85935 0.24374 0.8321 0.0
C428 C 0.8683 0.27081 0.18689 0.0
C429 C 0.89035 0.25733 0.2216 0.0
C430 C 0.86866 0.27512 0.11179 0.0
C431 C 0.89118 0.26657 0.07044 0.0
C432 C 0.91313 0.25268 0.10525 0.0
C433 C 0.91268 0.24789 0.18002 0.0
C434 C 0.91404 0.29729 0.88749 0.0
C435 C 0.89514 0.27883 0.83949 0.0
C436 C 0.91254 0.29379 0.96264 0.0
C437 C 0.89195 0.2722 0.99127 0.0
C438 C 0.87256 0.25508 0.94347 0.0
C439 C 0.87422 0.25814 0.8681 0.0
H440 H 0.13602 0.72893 0.14426 0.0
H441 H 0.21759 0.74613 0.16476 0.0
H442 H 0.13912 0.73303 0.01246 0.0
H443 H 0.22073 0.75177 0.03335 0.0
H444 H 0.22005 0.71737 0.78245 0.0
H445 H 0.21777 0.71156 0.91409 0.0
H446 H 0.14657 0.78376 0.92778 0.0
H447 H 0.14854 0.78809 0.79602 0.0
C448 C 0.15461 0.73372 0.12045 0.0
C449 C 0.17654 0.73724 0.16456 0.0
C450 C 0.1564 0.73643 0.045 0.0
C451 C 0.18017 0.74305 0.01201 0.0
C452 C 0.20216 0.74616 0.05646 0.0
C453 C 0.20036 0.74318 0.13187 0.0
C454 C 0.20399 0.73207 0.81387 0.0
C455 C 0.18445 0.75309 0.77917 0.0
C456 C 0.20271 0.72894 0.88937 0.0
C457 C 0.18191 0.74699 0.93182 0.0
C458 C 0.16261 0.76869 0.89683 0.0
C459 C 0.16383 0.77153 0.82137 0.0
H460 H 0.90599 0.82934 0.78954 0.0
H461 H 0.87229 0.70166 0.76344 0.0
H462 H 0.90772 0.8281 0.92231 0.0
H463 H 0.87499 0.69933 0.89558 0.0
H464 H 0.86467 0.72242 0.14394 0.0
H465 H 0.8589 0.72758 0.01298 0.0
H466 H 0.93141 0.79351 0.0083 0.0
H467 H 0.93646 0.78987 0.13934 0.0
C468 C 0.89895 0.80104 0.8124 0.0
C469 C 0.88907 0.76559 0.76655 0.0
C470 C 0.90011 0.80011 0.88833 0.0
C471 C 0.89171 0.76341 0.91978 0.0
C472 C 0.88133 0.72833 0.87359 0.0
C473 C 0.87991 0.72952 0.79779 0.0
C474 C 0.87932 0.73792 0.11455 0.0
C475 C 0.90103 0.75566 0.15131 0.0
C476 C 0.87609 0.7408 0.03958 0.0
C477 C 0.89466 0.76109 -8e-05 0.0
C478 C 0.91646 0.77849 0.03718 0.0
C479 C 0.9195 0.77605 0.11214 0.0
H480 H 0.66098 0.81739 0.37036 0.0
H481 H 0.69967 0.69323 0.32934 0.0
H482 H 0.66521 0.81525 0.50312 0.0
H483 H 0.70351 0.69081 0.4617 0.0
H484 H 0.66949 0.68134 0.69618 0.0
H485 H 0.66909 0.6856 0.56378 0.0
H486 H 0.70216 0.81366 0.60049 0.0
H487 H 0.70298 0.80911 0.73311 0.0
C488 C 0.67047 0.78981 0.38982 0.0
C489 C 0.67988 0.75537 0.33995 0.0
C490 C 0.67298 0.78868 0.46551 0.0
C491 C 0.68456 0.75275 0.49232 0.0
C492 C 0.69431 0.71867 0.44229 0.0
C493 C 0.69217 0.72013 0.36674 0.0
C494 C 0.67682 0.71024 0.67583 0.0
C495 C 0.68631 0.74486 0.72449 0.0
C496 C 0.67667 0.71261 0.60025 0.0
C497 C 0.6856 0.74995 0.57221 0.0
C498 C 0.69508 0.78463 0.62094 0.0
C499 C 0.69565 0.78193 0.69651 0.0
H500 H 0.35211 0.77886 0.72276 0.0
H501 H 0.42985 0.73071 0.71244 0.0
H502 H 0.35336 0.78435 0.59042 0.0
H503 H 0.43118 0.73658 0.58084 0.0
H504 H 0.43276 0.80218 0.36976 0.0
H505 H 0.42945 0.79961 0.50226 0.0
H506 H 0.35795 0.73109 0.47045 0.0
H507 H 0.36137 0.73337 0.33764 0.0
C508 C 0.3694 0.76942 0.6921 0.0
C509 C 0.39088 0.75438 0.72741 0.0
C510 C 0.37009 0.77245 0.61663 0.0
C511 C 0.39242 0.76113 0.5758 0.0
C512 C 0.41384 0.74599 0.61132 0.0
C513 C 0.41302 0.74239 0.68638 0.0
C514 C 0.41628 0.78684 0.39123 0.0
C515 C 0.3974 0.76771 0.34387 0.0
C516 C 0.41445 0.78519 0.4668 0.0
C517 C 0.39353 0.76492 0.49626 0.0
C518 C 0.37421 0.74704 0.44902 0.0
C519 C 0.37623 0.74816 0.37325 0.0
H520 H 0.70616 0.18066 0.26245 0.0
H521 H 0.66919 0.30647 0.29837 0.0
H522 H 0.70495 0.17602 0.39501 0.0
H523 H 0.66835 0.30215 0.43074 0.0
H524 H 0.6982 0.29617 0.66615 0.0
H525 H 0.70207 0.29915 0.53394 0.0
H526 H 0.66817 0.17194 0.49145 0.0
H527 H 0.66393 0.1692 0.62411 0.0
C528 C 0.69798 0.20741 0.29882 0.0
C529 C 0.68779 0.24395 0.27055 0.0
C530 C 0.69717 0.20465 0.37437 0.0
C531 C 0.68658 0.23874 0.42284 0.0
C532 C 0.67679 0.27558 0.39451 0.0
C533 C 0.6772 0.278 0.31894 0.0
C534 C 0.69166 0.2688 0.62854 0.0
C535 C 0.68063 0.23255 0.65503 0.0
C536 C 0.6938 0.27058 0.55306 0.0
C537 C 0.68534 0.23585 0.50274 0.0
C538 C 0.67496 0.19903 0.52925 0.0
C539 C 0.67244 0.19754 0.6049 0.0
H540 H 0.35274 0.22697 0.27403 0.0
H541 H 0.42965 0.27692 0.28874 0.0
H542 H 0.35324 0.22033 0.40596 0.0
H543 H 0.43022 0.27008 0.42003 0.0
H544 H 0.43244 0.20358 0.62865 0.0
H545 H 0.4295 0.20713 0.49654 0.0
H546 H 0.35592 0.2708 0.52788 0.0
H547 H 0.35892 0.26739 0.6605 0.0
C548 C 0.36968 0.23663 0.3056 0.0
C549 C 0.39117 0.25242 0.27153 0.0
C550 C 0.36994 0.23294 0.38089 0.0
C551 C 0.39183 0.24441 0.42291 0.0
C552 C 0.41322 0.26048 0.38869 0.0
C553 C 0.41284 0.26465 0.31377 0.0
C554 C 0.41556 0.21799 0.60719 0.0
C555 C 0.39599 0.23551 0.65448 0.0
C556 C 0.41394 0.22024 0.53178 0.0
C557 C 0.3926 0.23961 0.50223 0.0
C558 C 0.37255 0.25563 0.54929 0.0
C559 C 0.37431 0.25383 0.62499 0.0
H560 H 0.1081 0.29355 0.44185 0.0
H561 H 0.09306 0.17792 0.54295 0.0
H562 H 0.06295 0.29679 0.40604 0.0
H563 H 0.04838 0.18051 0.50706 0.0
H564 H 0.9677 0.19103 0.45106 0.0
H565 H 1.013 0.18061 0.41739 0.0
H566 H 1.02693 0.31592 0.49299 0.0
H567 H 0.98203 0.32577 0.52665 0.0
C568 C 0.09542 0.26762 0.45296 0.0
C569 C 0.104 0.23526 0.49449 0.0
C570 C 0.06952 0.26967 0.43328 0.0
C571 C 0.05191 0.2391 0.45417 0.0
C572 C 0.0613 0.20433 0.48921 0.0
C573 C 0.08696 0.20277 0.50984 0.0
C574 C 0.98028 0.21887 0.45688 0.0
C575 C 0.97143 0.25931 0.49057 0.0
C576 C 1.00627 0.21288 0.43842 0.0
C577 C 1.02373 0.24735 0.45299 0.0
C578 C 1.01413 0.28875 0.48007 0.0
C579 C 0.98834 0.29449 0.49939 0.0
H580 H 0.98014 0.6781 0.43421 0.0
H581 H 0.97274 0.8029 0.56469 0.0
H582 H 1.02466 0.674 0.46809 0.0
H583 H 1.01783 0.79889 0.60104 0.0
H584 H 0.10328 0.80477 0.51416 0.0
H585 H 0.05722 0.80677 0.53747 0.0
H586 H 0.05839 0.66817 0.54848 0.0
H587 H 0.10399 0.66627 0.52036 0.0
C588 C 0.98789 0.7038 0.47319 0.0
C589 C 0.97303 0.74052 0.49747 0.0
C590 C 1.01355 0.70156 0.49289 0.0
C591 C 1.0252 0.7363 0.53711 0.0
C592 C 1.00966 0.77174 0.56621 0.0
C593 C 0.98374 0.77381 0.54653 0.0
C594 C 0.09373 0.77511 0.5241 0.0
C595 C 0.10701 0.73532 0.51511 0.0
C596 C 0.06728 0.77615 0.53758 0.0
C597 C 0.05376 0.73741 0.54318 0.0
C598 C 0.06787 0.69846 0.54226 0.0
C599 C 0.09408 0.69734 0.52704 0.0
H600 H 0.60653 0.78879 0.93841 0.0
H601 H 0.59383 0.67378 0.04336 0.0
H602 H 0.56128 0.78926 0.90265 0.0
H603 H 0.54909 0.67368 0.00783 0.0
H604 H 0.4686 0.67828 0.95447 0.0
H605 H 0.51383 0.67036 0.91934 0.0
H606 H 0.52478 0.80747 0.9869 0.0
H607 H 0.47982 0.81491 0.02138 0.0
C608 C 0.59434 0.76244 0.95053 0.0
C609 C 0.60358 0.73101 0.99298 0.0
C610 C 0.56839 0.76291 0.93086 0.0
C611 C 0.55141 0.73169 0.9528 0.0
C612 C 0.5615 0.69793 0.98907 0.0
C613 C 0.58719 0.69793 0.00958 0.0
C614 C 0.48047 0.70698 0.95803 0.0
C615 C 0.47079 0.74728 0.98972 0.0
C616 C 0.50643 0.70245 0.93879 0.0
C617 C 0.52309 0.73818 0.95107 0.0
C618 C 0.5126 0.77932 0.97584 0.0
C619 C 0.48678 0.78368 0.99561 0.0
H620 H 0.46854 0.21062 0.05775 0.0
H621 H 0.48233 0.3232 0.94723 0.0
H622 H 0.51383 0.20934 0.09302 0.0
H623 H 0.5271 0.32259 0.9826 0.0
H624 H 0.60764 0.31677 0.03945 0.0
H625 H 0.5623 0.32617 0.07294 0.0
H626 H 0.55017 0.18921 0.00718 0.0
H627 H 0.59519 0.18033 0.97387 0.0
C628 C 0.48099 0.23634 0.04429 0.0
C629 C 0.47203 0.26724 0.00039 0.0
C630 C 0.50695 0.23539 0.0637 0.0
C631 C 0.52422 0.2657 0.04024 0.0
C632 C 0.51446 0.29905 0.00248 0.0
C633 C 0.48875 0.29947 0.9821 0.0
C634 C 0.59546 0.28844 0.03585 0.0
C635 C 0.60485 0.24774 0.00508 0.0
C636 C 0.56945 0.29382 0.0542 0.0
C637 C 0.55248 0.25851 0.04217 0.0
C638 C 0.56262 0.21703 0.01809 0.0
C639 C 0.58846 0.21185 -0.00099 0.0
loop_
_geom_bond_atom_site_label_1
_geom_bond_atom_site_label_2
_geom_bond_distance
_geom_bond_site_symmetry_2
_ccdc_geom_bond_type
Tb0 O3 2.453 . S
Tb0 O4 2.596 . S
Tb0 O5 2.374 . S
Tb0 O13 2.343 . S
Tb0 O15 2.353 . S
Tb0 O17 2.427 . S
Tb0 O18 2.513 . S
C1 O5 1.251 . S
C1 O7 1.263 . S
Tb2 O4 2.343 . S
Tb2 O7 2.353 . S
Tb2 O10 2.427 . S
Tb2 O11 2.513 . S
Tb2 O12 2.453 . S
Tb2 O13 2.596 . S
Tb2 O14 2.374 . S
O3 Tb0 2.453 . S
O3 C19 1.245 . S
O4 Tb0 2.596 . S
O4 Tb2 2.343 . S
O4 C19 1.259 . S
O5 Tb0 2.374 . S
O5 C1 1.251 . S
C6 O10 1.275 . S
C6 O11 1.246 . S
O7 C1 1.263 . S
O7 Tb2 2.353 . S
C8 O12 1.245 . S
C8 O13 1.259 . S
C9 O14 1.250 . S
C9 O15 1.263 . S
O10 Tb2 2.427 . S
O10 C6 1.275 . S
O11 Tb2 2.513 . S
O11 C6 1.246 . S
O12 Tb2 2.453 . S
O12 C8 1.245 . S
O13 Tb0 2.343 . S
O13 Tb2 2.596 . S
O13 C8 1.259 . S
O14 Tb2 2.374 . S
O14 C9 1.250 . S
O15 Tb0 2.353 . S
O15 C9 1.263 . S
C16 O17 1.275 . S
C16 O18 1.246 . S
O17 Tb0 2.427 . S
O17 C16 1.275 . S
O18 Tb0 2.513 . S
O18 C16 1.246 . S
C19 O3 1.245 . S
C19 O4 1.259 . S
Tb20 O23 2.453 . S
Tb20 O24 2.596 . S
Tb20 O25 2.374 . S
Tb20 O33 2.343 . S
Tb20 O35 2.353 . S
Tb20 O37 2.427 . S
Tb20 O38 2.513 . S
C21 O25 1.251 . S
C21 O27 1.263 . S
Tb22 O24 2.343 . S
Tb22 O27 2.353 . S
Tb22 O30 2.427 . S
Tb22 O31 2.513 . S
Tb22 O32 2.453 . S
Tb22 O33 2.596 . S
Tb22 O34 2.374 . S
O23 Tb20 2.453 . S
O23 C39 1.245 . S
O24 Tb20 2.596 . S
O24 Tb22 2.343 . S
O24 C39 1.259 . S
O25 Tb20 2.374 . S
O25 C21 1.251 . S
C26 O30 1.275 . S
C26 O31 1.246 . S
O27 C21 1.263 . S
O27 Tb22 2.353 . S
C28 O32 1.245 . S
C28 O33 1.259 . S
C29 O34 1.250 . S
C29 O35 1.263 . S
O30 Tb22 2.427 . S
O30 C26 1.275 . S
O31 Tb22 2.513 . S
O31 C26 1.246 . S
O32 Tb22 2.453 . S
O32 C28 1.245 . S
O33 Tb20 2.343 . S
O33 Tb22 2.596 . S
O33 C28 1.259 . S
O34 Tb22 2.374 . S
O34 C29 1.250 . S
O35 Tb20 2.353 . S
O35 C29 1.263 . S
C36 O37 1.275 . S
C36 O38 1.246 . S
O37 Tb20 2.427 . S
O37 C36 1.275 . S
O38 Tb20 2.513 . S
O38 C36 1.246 . S
C39 O23 1.245 . S
C39 O24 1.259 . S
Tb40 O43 2.453 . S
Tb40 O44 2.596 . S
Tb40 O45 2.374 . S
Tb40 O53 2.343 . S
Tb40 O55 2.353 . S
Tb40 O57 2.427 . S
Tb40 O58 2.513 . S
C41 O45 1.251 . S
C41 O47 1.263 . S
Tb42 O44 2.343 . S
Tb42 O47 2.353 . S
Tb42 O50 2.427 . S
Tb42 O51 2.513 . S
Tb42 O52 2.453 . S
Tb42 O53 2.596 . S
Tb42 O54 2.374 . S
O43 Tb40 2.453 . S
O43 C59 1.245 . S
O44 Tb40 2.596 . S
O44 Tb42 2.343 . S
O44 C59 1.259 . S
O45 Tb40 2.374 . S
O45 C41 1.251 . S
C46 O50 1.275 . S
C46 O51 1.246 . S
O47 C41 1.263 . S
O47 Tb42 2.353 . S
C48 O52 1.245 . S
C48 O53 1.259 . S
C49 O54 1.250 . S
C49 O55 1.263 . S
O50 Tb42 2.427 . S
O50 C46 1.275 . S
O51 Tb42 2.513 . S
O51 C46 1.246 . S
O52 Tb42 2.453 . S
O52 C48 1.245 . S
O53 Tb40 2.343 . S
O53 Tb42 2.596 . S
O53 C48 1.259 . S
O54 Tb42 2.374 . S
O54 C49 1.250 . S
O55 Tb40 2.353 . S
O55 C49 1.263 . S
C56 O57 1.275 . S
C56 O58 1.246 . S
O57 Tb40 2.427 . S
O57 C56 1.275 . S
O58 Tb40 2.513 . S
O58 C56 1.246 . S
C59 O43 1.245 . S
C59 O44 1.259 . S
Tb60 O63 2.453 . S
Tb60 O64 2.596 . S
Tb60 O65 2.374 . S
Tb60 O73 2.343 . S
Tb60 O75 2.353 . S
Tb60 O77 2.427 . S
Tb60 O78 2.513 . S
C61 O65 1.251 . S
C61 O67 1.263 . S
Tb62 O64 2.343 . S
Tb62 O67 2.353 . S
Tb62 O70 2.427 . S
Tb62 O71 2.513 . S
Tb62 O72 2.453 . S
Tb62 O73 2.596 . S
Tb62 O74 2.374 . S
O63 Tb60 2.453 . S
O63 C79 1.245 . S
O64 Tb60 2.596 . S
O64 Tb62 2.343 . S
O64 C79 1.259 . S
O65 Tb60 2.374 . S
O65 C61 1.251 . S
C66 O70 1.275 . S
C66 O71 1.246 . S
O67 C61 1.263 . S
O67 Tb62 2.353 . S
C68 O72 1.245 . S
C68 O73 1.259 . S
C69 O74 1.250 . S
C69 O75 1.263 . S
O70 Tb62 2.427 . S
O70 C66 1.275 . S
O71 Tb62 2.513 . S
O71 C66 1.246 . S
O72 Tb62 2.453 . S
O72 C68 1.245 . S
O73 Tb60 2.343 . S
O73 Tb62 2.596 . S
O73 C68 1.259 . S
O74 Tb62 2.374 . S
O74 C69 1.250 . S
O75 Tb60 2.353 . S
O75 C69 1.263 . S
C76 O77 1.275 . S
C76 O78 1.246 . S
O77 Tb60 2.427 . S
O77 C76 1.275 . S
O78 Tb60 2.513 . S
O78 C76 1.246 . S
C79 O63 1.245 . S
C79 O64 1.259 . S
Tb80 O83 2.453 . S
Tb80 O84 2.596 1_556 S
Tb80 O85 2.374 . S
Tb80 O93 2.343 . S
Tb80 O95 2.353 . S
Tb80 O97 2.427 . S
Tb80 O98 2.513 . S
C81 O85 1.251 1_554 S
C81 O87 1.263 . S
Tb82 O84 2.343 . S
Tb82 O87 2.353 . S
Tb82 O90 2.427 . S
Tb82 O91 2.513 . S
Tb82 O92 2.453 . S
Tb82 O93 2.596 1_554 S
Tb82 O94 2.374 . S
O83 Tb80 2.453 . S
O83 C99 1.245 1_556 S
O84 Tb80 2.596 1_554 S
O84 Tb82 2.343 . S
O84 C99 1.259 . S
O85 Tb80 2.374 . S
O85 C81 1.251 1_556 S
C86 O90 1.275 . S
C86 O91 1.246 . S
O87 C81 1.263 . S
O87 Tb82 2.353 . S
C88 O92 1.245 1_556 S
C88 O93 1.259 . S
C89 O94 1.250 . S
C89 O95 1.263 1_554 S
O90 Tb82 2.427 . S
O90 C86 1.275 . S
O91 Tb82 2.513 . S
O91 C86 1.246 . S
O92 Tb82 2.453 . S
O92 C88 1.245 1_554 S
O93 Tb80 2.343 . S
O93 Tb82 2.596 1_556 S
O93 C88 1.259 . S
O94 Tb82 2.374 . S
O94 C89 1.250 . S
O95 Tb80 2.353 . S
O95 C89 1.263 1_556 S
C96 O97 1.275 . S
C96 O98 1.246 . S
O97 Tb80 2.427 . S
O97 C96 1.275 . S
O98 Tb80 2.513 . S
O98 C96 1.246 . S
C99 O83 1.245 1_554 S
C99 O84 1.259 . S
Tb100 O103 2.453 . S
Tb100 O104 2.596 1_554 S
Tb100 O105 2.374 . S
Tb100 O113 2.343 . S
Tb100 O115 2.353 . S
Tb100 O117 2.427 . S
Tb100 O118 2.513 . S
C101 O105 1.251 . S
C101 O107 1.263 1_554 S
Tb102 O104 2.343 . S
Tb102 O107 2.353 . S
Tb102 O110 2.427 . S
Tb102 O111 2.513 . S
Tb102 O112 2.453 . S
Tb102 O113 2.596 1_556 S
Tb102 O114 2.374 . S
O103 Tb100 2.453 . S
O103 C119 1.245 1_554 S
O104 Tb100 2.596 1_556 S
O104 Tb102 2.343 . S
O104 C119 1.259 . S
O105 Tb100 2.374 . S
O105 C101 1.251 . S
C106 O110 1.275 . S
C106 O111 1.246 . S
O107 C101 1.263 1_556 S
O107 Tb102 2.353 . S
C108 O112 1.245 1_554 S
C108 O113 1.259 . S
C109 O114 1.250 1_554 S
C109 O115 1.263 . S
O110 Tb102 2.427 . S
O110 C106 1.275 . S
O111 Tb102 2.513 . S
O111 C106 1.246 . S
O112 Tb102 2.453 . S
O112 C108 1.245 1_556 S
O113 Tb100 2.343 . S
O113 Tb102 2.596 1_554 S
O113 C108 1.259 . S
O114 Tb102 2.374 . S
O114 C109 1.250 1_556 S
O115 Tb100 2.353 . S
O115 C109 1.263 . S
C116 O117 1.275 . S
C116 O118 1.246 . S
O117 Tb100 2.427 . S
O117 C116 1.275 . S
O118 Tb100 2.513 . S
O118 C116 1.246 . S
C119 O103 1.245 1_556 S
C119 O104 1.259 . S
Tb120 O123 2.453 . S
Tb120 O124 2.596 1_554 S
Tb120 O125 2.374 . S
Tb120 O133 2.343 . S
Tb120 O135 2.353 . S
Tb120 O137 2.427 . S
Tb120 O138 2.513 . S
C121 O125 1.251 1_556 S
C121 O127 1.263 . S
Tb122 O124 2.343 . S
Tb122 O127 2.353 . S
Tb122 O130 2.427 . S
Tb122 O131 2.513 . S
Tb122 O132 2.453 . S
Tb122 O133 2.596 1_556 S
Tb122 O134 2.374 . S
O123 Tb120 2.453 . S
O123 C139 1.245 1_554 S
O124 Tb120 2.596 1_556 S
O124 Tb122 2.343 . S
O124 C139 1.259 . S
O125 Tb120 2.374 . S
O125 C121 1.251 1_554 S
C126 O130 1.275 . S
C126 O131 1.246 . S
O127 C121 1.263 . S
O127 Tb122 2.353 . S
C128 O132 1.245 1_554 S
C128 O133 1.259 . S
C129 O134 1.250 . S
C129 O135 1.263 1_556 S
O130 Tb122 2.427 . S
O130 C126 1.275 . S
O131 Tb122 2.513 . S
O131 C126 1.246 . S
O132 Tb122 2.453 . S
O132 C128 1.245 1_556 S
O133 Tb120 2.343 . S
O133 Tb122 2.596 1_554 S
O133 C128 1.259 . S
O134 Tb122 2.374 . S
O134 C129 1.250 . S
O135 Tb120 2.353 . S
O135 C129 1.263 1_554 S
C136 O137 1.275 . S
C136 O138 1.246 . S
O137 Tb120 2.427 . S
O137 C136 1.275 . S
O138 Tb120 2.513 . S
O138 C136 1.246 . S
C139 O123 1.245 1_556 S
C139 O124 1.259 . S
Tb140 O143 2.453 . S
Tb140 O144 2.596 1_556 S
Tb140 O145 2.374 . S
Tb140 O153 2.343 . S
Tb140 O155 2.353 . S
Tb140 O157 2.427 . S
Tb140 O158 2.513 . S
C141 O145 1.251 . S
C141 O147 1.263 1_556 S
Tb142 O144 2.343 . S
Tb142 O147 2.353 . S
Tb142 O150 2.427 . S
Tb142 O151 2.513 . S
Tb142 O152 2.453 . S
Tb142 O153 2.596 1_554 S
Tb142 O154 2.374 . S
O143 Tb140 2.453 . S
O143 C159 1.245 1_556 S
O144 Tb140 2.596 1_554 S
O144 Tb142 2.343 . S
O144 C159 1.259 . S
O145 Tb140 2.374 . S
O145 C141 1.251 . S
C146 O150 1.275 . S
C146 O151 1.246 . S
O147 C141 1.263 1_554 S
O147 Tb142 2.353 . S
C148 O152 1.245 1_556 S
C148 O153 1.259 . S
C149 O154 1.250 1_556 S
C149 O155 1.263 . S
O150 Tb142 2.427 . S
O150 C146 1.275 . S
O151 Tb142 2.513 . S
O151 C146 1.246 . S
O152 Tb142 2.453 . S
O152 C148 1.245 1_554 S
O153 Tb140 2.343 . S
O153 Tb142 2.596 1_556 S
O153 C148 1.259 . S
O154 Tb142 2.374 . S
O154 C149 1.250 1_554 S
O155 Tb140 2.353 . S
O155 C149 1.263 . S
C156 O157 1.275 . S
C156 O158 1.246 . S
O157 Tb140 2.427 . S
O157 C156 1.275 . S
O158 Tb140 2.513 . S
O158 C156 1.246 . S
C159 O143 1.245 1_554 S
C159 O144 1.259 . S
H160 C168 0.950 . S
H161 C173 0.950 . S
H162 C170 0.950 . S
H163 C172 0.950 . S
H164 C174 0.950 . S
H165 C176 0.950 . S
H166 C178 0.950 . S
H167 C179 0.950 . S
C168 H160 0.950 . S
C168 C169 1.386 . S
C168 C170 1.391 . S
C169 C168 1.386 . S
C169 C173 1.393 . S
C170 H162 0.950 . S
C170 C168 1.391 . S
C170 C171 1.400 . S
C171 C170 1.400 . S
C171 C172 1.398 . S
C171 C177 1.491 . S
C172 H163 0.950 . S
C172 C171 1.398 . S
C172 C173 1.391 . S
C173 H161 0.950 . S
C173 C169 1.393 . S
C173 C172 1.391 . S
C174 H164 0.950 . S
C174 C175 1.386 . S
C174 C176 1.391 . S
C175 C174 1.386 . S
C175 C179 1.393 . S
C176 H165 0.950 . S
C176 C174 1.391 . S
C176 C177 1.400 . S
C177 C171 1.491 . S
C177 C176 1.400 . S
C177 C178 1.398 . S
C178 H166 0.950 . S
C178 C177 1.398 . S
C178 C179 1.391 . S
C179 H167 0.950 . S
C179 C175 1.393 . S
C179 C178 1.391 . S
H180 C188 0.950 . S
H181 C193 0.950 . S
H182 C190 0.950 . S
H183 C192 0.950 . S
H184 C194 0.950 . S
H185 C196 0.950 . S
H186 C198 0.950 . S
H187 C199 0.950 . S
C188 H180 0.950 . S
C188 C189 1.386 . S
C188 C190 1.391 . S
C189 C188 1.386 . S
C189 C193 1.393 . S
C190 H182 0.950 . S
C190 C188 1.391 . S
C190 C191 1.400 . S
C191 C190 1.400 . S
C191 C192 1.398 . S
C191 C197 1.491 . S
C192 H183 0.950 . S
C192 C191 1.398 . S
C192 C193 1.391 . S
C193 H181 0.950 . S
C193 C189 1.393 . S
C193 C192 1.391 . S
C194 H184 0.950 . S
C194 C195 1.386 . S
C194 C196 1.391 . S
C195 C194 1.386 . S
C195 C199 1.393 . S
C196 H185 0.950 . S
C196 C194 1.391 . S
C196 C197 1.400 . S
C197 C191 1.491 . S
C197 C196 1.400 . S
C197 C198 1.398 . S
C198 H186 0.950 . S
C198 C197 1.398 . S
C198 C199 1.391 . S
C199 H187 0.950 . S
C199 C195 1.393 . S
C199 C198 1.391 . S
H200 C208 0.950 . S
H201 C213 0.950 . S
H202 C210 0.950 . S
H203 C212 0.950 . S
H204 C214 0.950 . S
H205 C216 0.950 . S
H206 C218 0.950 . S
H207 C219 0.950 . S
C208 H200 0.950 . S
C208 C209 1.386 . S
C208 C210 1.391 . S
C209 C208 1.386 . S
C209 C213 1.393 . S
C210 H202 0.950 . S
C210 C208 1.391 . S
C210 C211 1.400 . S
C211 C210 1.400 . S
C211 C212 1.398 . S
C211 C217 1.491 . S
C212 H203 0.950 . S
C212 C211 1.398 . S
C212 C213 1.391 . S
C213 H201 0.950 . S
C213 C209 1.393 . S
C213 C212 1.391 . S
C214 H204 0.950 . S
C214 C215 1.386 . S
C214 C216 1.391 . S
C215 C214 1.386 . S
C215 C219 1.393 . S
C216 H205 0.950 . S
C216 C214 1.391 . S
C216 C217 1.400 . S
C217 C211 1.491 . S
C217 C216 1.400 . S
C217 C218 1.398 . S
C218 H206 0.950 . S
C218 C217 1.398 . S
C218 C219 1.391 . S
C219 H207 0.950 . S
C219 C215 1.393 . S
C219 C218 1.391 . S
H220 C228 0.950 . S
H221 C233 0.950 . S
H222 C230 0.950 . S
H223 C232 0.950 . S
H224 C234 0.950 . S
H225 C236 0.950 . S
H226 C238 0.950 . S
H227 C239 0.950 . S
C228 H220 0.950 . S
C228 C229 1.386 . S
C228 C230 1.391 . S
C229 C228 1.386 . S
C229 C233 1.393 . S
C230 H222 0.950 . S
C230 C228 1.391 . S
C230 C231 1.400 . S
C231 C230 1.400 . S
C231 C232 1.398 . S
C231 C237 1.491 . S
C232 H223 0.950 . S
C232 C231 1.398 . S
C232 C233 1.391 . S
C233 H221 0.950 . S
C233 C229 1.393 . S
C233 C232 1.391 . S
C234 H224 0.950 . S
C234 C235 1.386 . S
C234 C236 1.391 . S
C235 C234 1.386 . S
C235 C239 1.393 . S
C236 H225 0.950 . S
C236 C234 1.391 . S
C236 C237 1.400 . S
C237 C231 1.491 . S
C237 C236 1.400 . S
C237 C238 1.398 . S
C238 H226 0.950 . S
C238 C237 1.398 . S
C238 C239 1.391 . S
C239 H227 0.950 . S
C239 C235 1.393 . S
C239 C238 1.391 . S
H240 C248 0.950 . S
H241 C253 0.950 . S
H242 C250 0.950 . S
H243 C252 0.950 . S
H244 C254 0.950 . S
H245 C256 0.950 . S
H246 C258 0.950 . S
H247 C259 0.950 . S
C248 H240 0.950 . S
C248 C249 1.386 . S
C248 C250 1.391 . S
C249 C248 1.386 . S
C249 C253 1.393 . S
C250 H242 0.950 . S
C250 C248 1.391 . S
C250 C251 1.400 . S
C251 C250 1.400 . S
C251 C252 1.398 . S
C251 C257 1.491 1_565 S
C252 H243 0.950 . S
C252 C251 1.398 . S
C252 C253 1.391 . S
C253 H241 0.950 . S
C253 C249 1.393 . S
C253 C252 1.391 . S
C254 H244 0.950 . S
C254 C255 1.386 . S
C254 C256 1.391 . S
C255 C254 1.386 . S
C255 C259 1.393 . S
C256 H245 0.950 . S
C256 C254 1.391 . S
C256 C257 1.400 . S
C257 C251 1.491 1_545 S
C257 C256 1.400 . S
C257 C258 1.398 . S
C258 H246 0.950 . S
C258 C257 1.398 . S
C258 C259 1.391 . S
C259 H247 0.950 . S
C259 C255 1.393 . S
C259 C258 1.391 . S
H260 C268 0.950 . S
H261 C273 0.950 . S
H262 C270 0.950 . S
H263 C272 0.950 . S
H264 C274 0.950 . S
H265 C276 0.950 . S
H266 C278 0.950 . S
H267 C279 0.950 . S
C268 H260 0.950 . S
C268 C269 1.386 . S
C268 C270 1.391 . S
C269 C268 1.386 . S
C269 C273 1.393 . S
C270 H262 0.950 . S
C270 C268 1.391 . S
C270 C271 1.400 . S
C271 C270 1.400 . S
C271 C272 1.398 . S
C271 C277 1.491 . S
C272 H263 0.950 . S
C272 C271 1.398 . S
C272 C273 1.391 . S
C273 H261 0.950 . S
C273 C269 1.393 . S
C273 C272 1.391 . S
C274 H264 0.950 . S
C274 C275 1.386 . S
C274 C276 1.391 . S
C275 C274 1.386 . S
C275 C279 1.393 . S
C276 H265 0.950 . S
C276 C274 1.391 . S
C276 C277 1.400 . S
C277 C271 1.491 . S
C277 C276 1.400 . S
C277 C278 1.398 . S
C278 H266 0.950 . S
C278 C277 1.398 . S
C278 C279 1.391 . S
C279 H267 0.950 . S
C279 C275 1.393 . S
C279 C278 1.391 . S
H280 C288 0.950 . S
H281 C293 0.950 . S
H282 C290 0.950 . S
H283 C292 0.950 . S
H284 C294 0.950 . S
H285 C296 0.950 . S
H286 C298 0.950 . S
H287 C299 0.950 . S
C288 H280 0.950 . S
C288 C289 1.386 . S
C288 C290 1.391 . S
C289 C288 1.386 . S
C289 C293 1.393 . S
C290 H282 0.950 . S
C290 C288 1.391 . S
C290 C291 1.400 . S
C291 C290 1.400 . S
C291 C292 1.398 . S
C291 C297 1.491 1_565 S
C292 H283 0.950 . S
C292 C291 1.398 . S
C292 C293 1.391 . S
C293 H281 0.950 . S
C293 C289 1.393 . S
C293 C292 1.391 . S
C294 H284 0.950 . S
C294 C295 1.386 . S
C294 C296 1.391 . S
C295 C294 1.386 . S
C295 C299 1.393 . S
C296 H285 0.950 . S
C296 C294 1.391 . S
C296 C297 1.400 . S
C297 C291 1.491 1_545 S
C297 C296 1.400 . S
C297 C298 1.398 . S
C298 H286 0.950 . S
C298 C297 1.398 . S
C298 C299 1.391 . S
C299 H287 0.950 . S
C299 C295 1.393 . S
C299 C298 1.391 . S
H300 C308 0.950 . S
H301 C313 0.950 . S
H302 C310 0.950 . S
H303 C312 0.950 . S
H304 C314 0.950 . S
H305 C316 0.950 . S
H306 C318 0.950 . S
H307 C319 0.950 . S
C308 H300 0.950 . S
C308 C309 1.386 . S
C308 C310 1.391 . S
C309 C308 1.386 . S
C309 C313 1.393 . S
C310 H302 0.950 . S
C310 C308 1.391 . S
C310 C311 1.400 . S
C311 C310 1.400 . S
C311 C312 1.398 . S
C311 C317 1.491 . S
C312 H303 0.950 . S
C312 C311 1.398 . S
C312 C313 1.391 . S
C313 H301 0.950 . S
C313 C309 1.393 . S
C313 C312 1.391 . S
C314 H304 0.950 . S
C314 C315 1.386 . S
C314 C316 1.391 . S
C315 C314 1.386 . S
C315 C319 1.393 . S
C316 H305 0.950 . S
C316 C314 1.391 . S
C316 C317 1.400 . S
C317 C311 1.491 . S
C317 C316 1.400 . S
C317 C318 1.398 . S
C318 H306 0.950 . S
C318 C317 1.398 . S
C318 C319 1.391 . S
C319 H307 0.950 . S
C319 C315 1.393 . S
C319 C318 1.391 . S
H320 C328 0.950 . S
H321 C333 0.950 . S
H322 C330 0.950 . S
H323 C332 0.950 . S
H324 C334 0.950 . S
H325 C336 0.950 . S
H326 C338 0.950 . S
H327 C339 0.950 . S
C328 H320 0.950 . S
C328 C329 1.386 1_556 S
C328 C330 1.391 . S
C329 C328 1.386 1_554 S
C329 C333 1.393 . S
C330 H322 0.950 . S
C330 C328 1.391 . S
C330 C331 1.400 1_556 S
C331 C330 1.400 1_554 S
C331 C332 1.398 . S
C331 C337 1.491 1_554 S
C332 H323 0.950 . S
C332 C331 1.398 . S
C332 C333 1.391 . S
C333 H321 0.950 . S
C333 C329 1.393 . S
C333 C332 1.391 . S
C334 H324 0.950 . S
C334 C335 1.386 1_554 S
C334 C336 1.391 . S
C335 C334 1.386 1_556 S
C335 C339 1.393 . S
C336 H325 0.950 . S
C336 C334 1.391 . S
C336 C337 1.400 1_554 S
C337 C331 1.491 1_556 S
C337 C336 1.400 1_556 S
C337 C338 1.398 . S
C338 H326 0.950 . S
C338 C337 1.398 . S
C338 C339 1.391 . S
C339 H327 0.950 . S
C339 C335 1.393 . S
C339 C338 1.391 . S
H340 C348 0.950 . S
H341 C353 0.950 . S
H342 C350 0.950 . S
H343 C352 0.950 . S
H344 C354 0.950 . S
H345 C356 0.950 . S
H346 C358 0.950 . S
H347 C359 0.950 . S
C348 H340 0.950 . S
C348 C349 1.386 . S
C348 C350 1.391 . S
C349 C348 1.386 . S
C349 C353 1.393 1_554 S
C350 H342 0.950 . S
C350 C348 1.391 . S
C350 C351 1.400 . S
C351 C350 1.400 . S
C351 C352 1.398 1_554 S
C351 C357 1.491 1_564 S
C352 H343 0.950 . S
C352 C351 1.398 1_556 S
C352 C353 1.391 . S
C353 H341 0.950 . S
C353 C349 1.393 1_556 S
C353 C352 1.391 . S
C354 H344 0.950 . S
C354 C355 1.386 . S
C354 C356 1.391 . S
C355 C354 1.386 . S
C355 C359 1.393 1_556 S
C356 H345 0.950 . S
C356 C354 1.391 . S
C356 C357 1.400 . S
C357 C351 1.491 1_546 S
C357 C356 1.400 . S
C357 C358 1.398 1_556 S
C358 H346 0.950 . S
C358 C357 1.398 1_554 S
C358 C359 1.391 . S
C359 H347 0.950 . S
C359 C355 1.393 1_554 S
C359 C358 1.391 . S
H360 C368 0.950 . S
H361 C373 0.950 . S
H362 C370 0.950 . S
H363 C372 0.950 . S
H364 C374 0.950 . S
H365 C376 0.950 . S
H366 C378 0.950 . S
H367 C379 0.950 . S
C368 H360 0.950 . S
C368 C369 1.386 1_554 S
C368 C370 1.391 . S
C369 C368 1.386 1_556 S
C369 C373 1.393 . S
C370 H362 0.950 . S
C370 C368 1.391 . S
C370 C371 1.400 1_554 S
C371 C370 1.400 1_556 S
C371 C372 1.398 . S
C371 C377 1.491 1_556 S
C372 H363 0.950 . S
C372 C371 1.398 . S
C372 C373 1.391 . S
C373 H361 0.950 . S
C373 C369 1.393 . S
C373 C372 1.391 . S
C374 H364 0.950 . S
C374 C375 1.386 1_556 S
C374 C376 1.391 . S
C375 C374 1.386 1_554 S
C375 C379 1.393 . S
C376 H365 0.950 . S
C376 C374 1.391 . S
C376 C377 1.400 1_556 S
C377 C371 1.491 1_554 S
C377 C376 1.400 1_554 S
C377 C378 1.398 . S
C378 H366 0.950 . S
C378 C377 1.398 . S
C378 C379 1.391 . S
C379 H367 0.950 . S
C379 C375 1.393 . S
C379 C378 1.391 . S
H380 C388 0.950 . S
H381 C393 0.950 . S
H382 C390 0.950 . S
H383 C392 0.950 . S
H384 C394 0.950 . S
H385 C396 0.950 . S
H386 C398 0.950 . S
H387 C399 0.950 . S
C388 H380 0.950 . S
C388 C389 1.386 1_554 S
C388 C390 1.391 . S
C389 C388 1.386 1_556 S
C389 C393 1.393 . S
C390 H382 0.950 . S
C390 C388 1.391 . S
C390 C391 1.400 1_554 S
C391 C390 1.400 1_556 S
C391 C392 1.398 . S
C391 C397 1.491 1_546 S
C392 H383 0.950 . S
C392 C391 1.398 . S
C392 C393 1.391 . S
C393 H381 0.950 . S
C393 C389 1.393 . S
C393 C392 1.391 . S
C394 H384 0.950 . S
C394 C395 1.386 1_556 S
C394 C396 1.391 . S
C395 C394 1.386 1_554 S
C395 C399 1.393 . S
C396 H385 0.950 . S
C396 C394 1.391 . S
C396 C397 1.400 1_556 S
C397 C391 1.491 1_564 S
C397 C396 1.400 1_554 S
C397 C398 1.398 . S
C398 H386 0.950 . S
C398 C397 1.398 . S
C398 C399 1.391 . S
C399 H387 0.950 . S
C399 C395 1.393 . S
C399 C398 1.391 . S
H400 C408 0.950 . S
H401 C413 0.950 . S
H402 C410 0.950 . S
H403 C412 0.950 . S
H404 C414 0.950 . S
H405 C416 0.950 . S
H406 C418 0.950 . S
H407 C419 0.950 . S
C408 H400 0.950 . S
C408 C409 1.386 . S
C408 C410 1.391 . S
C409 C408 1.386 . S
C409 C413 1.393 . S
C410 H402 0.950 . S
C410 C408 1.391 . S
C410 C411 1.400 . S
C411 C410 1.400 . S
C411 C412 1.398 . S
C411 C417 1.491 1_554 S
C412 H403 0.950 . S
C412 C411 1.398 . S
C412 C413 1.391 . S
C413 H401 0.950 . S
C413 C409 1.393 . S
C413 C412 1.391 . S
C414 H404 0.950 . S
C414 C415 1.386 . S
C414 C416 1.391 . S
C415 C414 1.386 . S
C415 C419 1.393 . S
C416 H405 0.950 . S
C416 C414 1.391 . S
C416 C417 1.400 . S
C417 C411 1.491 1_556 S
C417 C416 1.400 . S
C417 C418 1.398 . S
C418 H406 0.950 . S
C418 C417 1.398 . S
C418 C419 1.391 . S
C419 H407 0.950 . S
C419 C415 1.393 . S
C419 C418 1.391 . S
H420 C428 0.950 . S
H421 C433 0.950 . S
H422 C430 0.950 . S
H423 C432 0.950 . S
H424 C434 0.950 . S
H425 C436 0.950 . S
H426 C438 0.950 . S
H427 C439 0.950 . S
C428 H420 0.950 . S
C428 C429 1.386 . S
C428 C430 1.391 . S
C429 C428 1.386 . S
C429 C433 1.393 . S
C430 H422 0.950 . S
C430 C428 1.391 . S
C430 C431 1.400 . S
C431 C430 1.400 . S
C431 C432 1.398 . S
C431 C437 1.491 1_554 S
C432 H423 0.950 . S
C432 C431 1.398 . S
C432 C433 1.391 . S
C433 H421 0.950 . S
C433 C429 1.393 . S
C433 C432 1.391 . S
C434 H424 0.950 . S
C434 C435 1.386 . S
C434 C436 1.391 . S
C435 C434 1.386 . S
C435 C439 1.393 . S
C436 H425 0.950 . S
C436 C434 1.391 . S
C436 C437 1.400 . S
C437 C431 1.491 1_556 S
C437 C436 1.400 . S
C437 C438 1.398 . S
C438 H426 0.950 . S
C438 C437 1.398 . S
C438 C439 1.391 . S
C439 H427 0.950 . S
C439 C435 1.393 . S
C439 C438 1.391 . S
H440 C448 0.950 . S
H441 C453 0.950 . S
H442 C450 0.950 . S
H443 C452 0.950 . S
H444 C454 0.950 . S
H445 C456 0.950 . S
H446 C458 0.950 . S
H447 C459 0.950 . S
C448 H440 0.950 . S
C448 C449 1.386 . S
C448 C450 1.391 . S
C449 C448 1.386 . S
C449 C453 1.393 . S
C450 H442 0.950 . S
C450 C448 1.391 . S
C450 C451 1.400 . S
C451 C450 1.400 . S
C451 C452 1.398 . S
C451 C457 1.491 1_554 S
C452 H443 0.950 . S
C452 C451 1.398 . S
C452 C453 1.391 . S
C453 H441 0.950 . S
C453 C449 1.393 . S
C453 C452 1.391 . S
C454 H444 0.950 . S
C454 C455 1.386 . S
C454 C456 1.391 . S
C455 C454 1.386 . S
C455 C459 1.393 . S
C456 H445 0.950 . S
C456 C454 1.391 . S
C456 C457 1.400 . S
C457 C451 1.491 1_556 S
C457 C456 1.400 . S
C457 C458 1.398 . S
C458 H446 0.950 . S
C458 C457 1.398 . S
C458 C459 1.391 . S
C459 H447 0.950 . S
C459 C455 1.393 . S
C459 C458 1.391 . S
H460 C468 0.950 . S
H461 C473 0.950 . S
H462 C470 0.950 . S
H463 C472 0.950 . S
H464 C474 0.950 . S
H465 C476 0.950 . S
H466 C478 0.950 . S
H467 C479 0.950 . S
C468 H460 0.950 . S
C468 C469 1.386 . S
C468 C470 1.391 . S
C469 C468 1.386 . S
C469 C473 1.393 . S
C470 H462 0.950 . S
C470 C468 1.391 . S
C470 C471 1.400 . S
C471 C470 1.400 . S
C471 C472 1.398 . S
C471 C477 1.491 1_556 S
C472 H463 0.950 . S
C472 C471 1.398 . S
C472 C473 1.391 . S
C473 H461 0.950 . S
C473 C469 1.393 . S
C473 C472 1.391 . S
C474 H464 0.950 . S
C474 C475 1.386 . S
C474 C476 1.391 . S
C475 C474 1.386 . S
C475 C479 1.393 . S
C476 H465 0.950 . S
C476 C474 1.391 . S
C476 C477 1.400 . S
C477 C471 1.491 1_554 S
C477 C476 1.400 . S
C477 C478 1.398 . S
C478 H466 0.950 . S
C478 C477 1.398 . S
C478 C479 1.391 . S
C479 H467 0.950 . S
C479 C475 1.393 . S
C479 C478 1.391 . S
H480 C488 0.950 . S
H481 C493 0.950 . S
H482 C490 0.950 . S
H483 C492 0.950 . S
H484 C494 0.950 . S
H485 C496 0.950 . S
H486 C498 0.950 . S
H487 C499 0.950 . S
C488 H480 0.950 . S
C488 C489 1.386 . S
C488 C490 1.391 . S
C489 C488 1.386 . S
C489 C493 1.393 . S
C490 H482 0.950 . S
C490 C488 1.391 . S
C490 C491 1.400 . S
C491 C490 1.400 . S
C491 C492 1.398 . S
C491 C497 1.491 . S
C492 H483 0.950 . S
C492 C491 1.398 . S
C492 C493 1.391 . S
C493 H481 0.950 . S
C493 C489 1.393 . S
C493 C492 1.391 . S
C494 H484 0.950 . S
C494 C495 1.386 . S
C494 C496 1.391 . S
C495 C494 1.386 . S
C495 C499 1.393 . S
C496 H485 0.950 . S
C496 C494 1.391 . S
C496 C497 1.400 . S
C497 C491 1.491 . S
C497 C496 1.400 . S
C497 C498 1.398 . S
C498 H486 0.950 . S
C498 C497 1.398 . S
C498 C499 1.391 . S
C499 H487 0.950 . S
C499 C495 1.393 . S
C499 C498 1.391 . S
H500 C508 0.950 . S
H501 C513 0.950 . S
H502 C510 0.950 . S
H503 C512 0.950 . S
H504 C514 0.950 . S
H505 C516 0.950 . S
H506 C518 0.950 . S
H507 C519 0.950 . S
C508 H500 0.950 . S
C508 C509 1.386 . S
C508 C510 1.391 . S
C509 C508 1.386 . S
C509 C513 1.393 . S
C510 H502 0.950 . S
C510 C508 1.391 . S
C510 C511 1.400 . S
C511 C510 1.400 . S
C511 C512 1.398 . S
C511 C517 1.491 . S
C512 H503 0.950 . S
C512 C511 1.398 . S
C512 C513 1.391 . S
C513 H501 0.950 . S
C513 C509 1.393 . S
C513 C512 1.391 . S
C514 H504 0.950 . S
C514 C515 1.386 . S
C514 C516 1.391 . S
C515 C514 1.386 . S
C515 C519 1.393 . S
C516 H505 0.950 . S
C516 C514 1.391 . S
C516 C517 1.400 . S
C517 C511 1.491 . S
C517 C516 1.400 . S
C517 C518 1.398 . S
C518 H506 0.950 . S
C518 C517 1.398 . S
C518 C519 1.391 . S
C519 H507 0.950 . S
C519 C515 1.393 . S
C519 C518 1.391 . S
H520 C528 0.950 . S
H521 C533 0.950 . S
H522 C530 0.950 . S
H523 C532 0.950 . S
H524 C534 0.950 . S
H525 C536 0.950 . S
H526 C538 0.950 . S
H527 C539 0.950 . S
C528 H520 0.950 . S
C528 C529 1.386 . S
C528 C530 1.391 . S
C529 C528 1.386 . S
C529 C533 1.393 . S
C530 H522 0.950 . S
C530 C528 1.391 . S
C530 C531 1.400 . S
C531 C530 1.400 . S
C531 C532 1.398 . S
C531 C537 1.491 . S
C532 H523 0.950 . S
C532 C531 1.398 . S
C532 C533 1.391 . S
C533 H521 0.950 . S
C533 C529 1.393 . S
C533 C532 1.391 . S
C534 H524 0.950 . S
C534 C535 1.386 . S
C534 C536 1.391 . S
C535 C534 1.386 . S
C535 C539 1.393 . S
C536 H525 0.950 . S
C536 C534 1.391 . S
C536 C537 1.400 . S
C537 C531 1.491 . S
C537 C536 1.400 . S
C537 C538 1.398 . S
C538 H526 0.950 . S
C538 C537 1.398 . S
C538 C539 1.391 . S
C539 H527 0.950 . S
C539 C535 1.393 . S
C539 C538 1.391 . S
H540 C548 0.950 . S
H541 C553 0.950 . S
H542 C550 0.950 . S
H543 C552 0.950 . S
H544 C554 0.950 . S
H545 C556 0.950 . S
H546 C558 0.950 . S
H547 C559 0.950 . S
C548 H540 0.950 . S
C548 C549 1.386 . S
C548 C550 1.391 . S
C549 C548 1.386 . S
C549 C553 1.393 . S
C550 H542 0.950 . S
C550 C548 1.391 . S
C550 C551 1.400 . S
C551 C550 1.400 . S
C551 C552 1.398 . S
C551 C557 1.491 . S
C552 H543 0.950 . S
C552 C551 1.398 . S
C552 C553 1.391 . S
C553 H541 0.950 . S
C553 C549 1.393 . S
C553 C552 1.391 . S
C554 H544 0.950 . S
C554 C555 1.386 . S
C554 C556 1.391 . S
C555 C554 1.386 . S
C555 C559 1.393 . S
C556 H545 0.950 . S
C556 C554 1.391 . S
C556 C557 1.400 . S
C557 C551 1.491 . S
C557 C556 1.400 . S
C557 C558 1.398 . S
C558 H546 0.950 . S
C558 C557 1.398 . S
C558 C559 1.391 . S
C559 H547 0.950 . S
C559 C555 1.393 . S
C559 C558 1.391 . S
H560 C568 0.950 . S
H561 C573 0.950 . S
H562 C570 0.950 . S
H563 C572 0.950 . S
H564 C574 0.950 . S
H565 C576 0.950 . S
H566 C578 0.950 . S
H567 C579 0.950 . S
C568 H560 0.950 . S
C568 C569 1.386 . S
C568 C570 1.391 . S
C569 C568 1.386 . S
C569 C573 1.393 . S
C570 H562 0.950 . S
C570 C568 1.391 . S
C570 C571 1.400 . S
C571 C570 1.400 . S
C571 C572 1.398 . S
C571 C577 1.491 1_455 S
C572 H563 0.950 . S
C572 C571 1.398 . S
C572 C573 1.391 . S
C573 H561 0.950 . S
C573 C569 1.393 . S
C573 C572 1.391 . S
C574 H564 0.950 . S
C574 C575 1.386 . S
C574 C576 1.391 . S
C575 C574 1.386 . S
C575 C579 1.393 . S
C576 H565 0.950 . S
C576 C574 1.391 . S
C576 C577 1.400 . S
C577 C571 1.491 1_655 S
C577 C576 1.400 . S
C577 C578 1.398 . S
C578 H566 0.950 . S
C578 C577 1.398 . S
C578 C579 1.391 . S
C579 H567 0.950 . S
C579 C575 1.393 . S
C579 C578 1.391 . S
H580 C588 0.950 . S
H581 C593 0.950 . S
H582 C590 0.950 . S
H583 C592 0.950 . S
H584 C594 0.950 . S
H585 C596 0.950 . S
H586 C598 0.950 . S
H587 C599 0.950 . S
C588 H580 0.950 . S
C588 C589 1.386 . S
C588 C590 1.391 . S
C589 C588 1.386 . S
C589 C593 1.393 . S
C590 H582 0.950 . S
C590 C588 1.391 . S
C590 C591 1.400 . S
C591 C590 1.400 . S
C591 C592 1.398 . S
C591 C597 1.491 1_655 S
C592 H583 0.950 . S
C592 C591 1.398 . S
C592 C593 1.391 . S
C593 H581 0.950 . S
C593 C589 1.393 . S
C593 C592 1.391 . S
C594 H584 0.950 . S
C594 C595 1.386 . S
C594 C596 1.391 . S
C595 C594 1.386 . S
C595 C599 1.393 . S
C596 H585 0.950 . S
C596 C594 1.391 . S
C596 C597 1.400 . S
C597 C591 1.491 1_455 S
C597 C596 1.400 . S
C597 C598 1.398 . S
C598 H586 0.950 . S
C598 C597 1.398 . S
C598 C599 1.391 . S
C599 H587 0.950 . S
C599 C595 1.393 . S
C599 C598 1.391 . S
H600 C608 0.950 1_554 S
H601 C613 0.950 . S
H602 C610 0.950 1_554 S
H603 C612 0.950 . S
H604 C614 0.950 . S
H605 C616 0.950 . S
H606 C618 0.950 1_554 S
H607 C619 0.950 1_554 S
C608 H600 0.950 1_556 S
C608 C609 1.386 . S
C608 C610 1.391 . S
C609 C608 1.386 . S
C609 C613 1.393 . S
C610 H602 0.950 1_556 S
C610 C608 1.391 . S
C610 C611 1.400 . S
C611 C610 1.400 . S
C611 C612 1.398 . S
C611 C617 1.491 . S
C612 H603 0.950 . S
C612 C611 1.398 . S
C612 C613 1.391 . S
C613 H601 0.950 . S
C613 C609 1.393 . S
C613 C612 1.391 . S
C614 H604 0.950 . S
C614 C615 1.386 . S
C614 C616 1.391 . S
C615 C614 1.386 . S
C615 C619 1.393 . S
C616 H605 0.950 . S
C616 C614 1.391 . S
C616 C617 1.400 . S
C617 C611 1.491 . S
C617 C616 1.400 . S
C617 C618 1.398 . S
C618 H606 0.950 1_556 S
C618 C617 1.398 . S
C618 C619 1.391 . S
C619 H607 0.950 1_556 S
C619 C615 1.393 . S
C619 C618 1.391 . S
H620 C628 0.950 . S
H621 C633 0.950 . S
H622 C630 0.950 . S
H623 C632 0.950 . S
H624 C634 0.950 . S
H625 C636 0.950 . S
H626 C638 0.950 . S
H627 C639 0.950 . S
C628 H620 0.950 . S
C628 C629 1.386 . S
C628 C630 1.391 . S
C629 C628 1.386 . S
C629 C633 1.393 . S
C630 H622 0.950 . S
C630 C628 1.391 . S
C630 C631 1.400 . S
C631 C630 1.400 . S
C631 C632 1.398 . S
C631 C637 1.491 . S
C632 H623 0.950 . S
C632 C631 1.398 . S
C632 C633 1.391 . S
C633 H621 0.950 . S
C633 C629 1.393 . S
C633 C632 1.391 . S
C634 H624 0.950 . S
C634 C635 1.386 . S
C634 C636 1.391 . S
C635 C634 1.386 . S
C635 C639 1.393 . S
C636 H625 0.950 . S
C636 C634 1.391 . S
C636 C637 1.400 . S
C637 C631 1.491 . S
C637 C636 1.400 . S
C637 C638 1.398 . S
C638 H626 0.950 . S
C638 C637 1.398 . S
C638 C639 1.391 . S
C639 H627 0.950 . S
C639 C635 1.393 . S
C639 C638 1.391 . S
C169 C19 1.801 . S
C175 C148 1.801 . S
C189 C139 1.816 . S
C195 C28 1.816 . S
C209 C108 1.815 . S
C215 C59 1.815 . S
C229 C99 1.804 . S
C235 C68 1.804 . S
C249 C41 1.777 . S
C255 C1 1.773 . S
C269 C21 1.229 . S
C275 C61 1.224 . S
C289 C69 1.779 . S
C295 C29 1.769 . S
C309 C49 1.219 . S
C315 C9 1.232 . S
C329 C81 1.777 . S
C335 C121 1.773 . S
C349 C101 1.233 . S
C355 C141 1.218 . S
C369 C149 1.771 . S
C375 C109 1.778 . S
C389 C129 1.227 . S
C395 C89 1.216 . S
C409 C16 1.501 . S
C415 C6 1.501 . S
C429 C26 1.503 . S
C435 C36 1.503 . S
C449 C46 1.508 . S
C455 C56 1.508 . S
C469 C66 1.501 . S
C475 C76 1.501 . S
C489 C86 1.488 . S
C495 C96 1.488 . S
C509 C106 1.498 . S
C515 C116 1.498 . S
C529 C136 1.486 . S
C535 C126 1.486 . S
C549 C146 1.510 . S
C555 C156 1.510 . S
C569 C8 1.830 . S
C575 C39 1.804 . S
C589 C79 1.800 . S
C595 C48 1.834 . S
C609 C88 1.833 . S
C615 C119 1.802 . S
C629 C159 1.801 . S
C635 C128 1.833 . S
