# Generated by pormake.
# Topology fna, (5)-cn, num edge types: 1
# Building blocks:
#     Node 0, Type 0, BuildingBlock: XOMCOT_clean_sbu_0, # of connection points: 5
#     Node 1, Type 0, BuildingBlock: XOMCOT_clean_sbu_0, # of connection points: 5
#     Node 2, Type 0, BuildingBlock: XOMCOT_clean_sbu_0, # of connection points: 5
#     Node 3, Type 0, BuildingBlock: XOMCOT_clean_sbu_0, # of connection points: 5
#     Node 4, Type 0, BuildingBlock: XOMCOT_clean_sbu_0, # of connection points: 5
#     Node 5, Type 0, BuildingBlock: XOMCOT_clean_sbu_0, # of connection points: 5
#     Node 6, Type 0, BuildingBlock: XOMCOT_clean_sbu_0, # of connection points: 5
#     Node 7, Type 0, BuildingBlock: XOMCOT_clean_sbu_0, # of connection points: 5
#     Node 8, Type 0, BuildingBlock: XOMCOT_clean_sbu_0, # of connection points: 5
#     Node 9, Type 0, BuildingBlock: XOMCOT_clean_sbu_0, # of connection points: 5
#     Node 10, Type 0, BuildingBlock: XOMCOT_clean_sbu_0, # of connection points: 5
#     Node 11, Type 0, BuildingBlock: XOMCOT_clean_sbu_0, # of connection points: 5
#     Edge 12, Type (0, 0), BuildingBlock: XUDNAN_clean_linker_2, # of connection points: 2
#     Edge 13, Type (0, 0), BuildingBlock: XUDNAN_clean_linker_2, # of connection points: 2
#     Edge 14, Type (0, 0), BuildingBlock: XUDNAN_clean_linker_2, # of connection points: 2
#     Edge 15, Type (0, 0), BuildingBlock: XUDNAN_clean_linker_2, # of connection points: 2
#     Edge 16, Type (0, 0), BuildingBlock: XUDNAN_clean_linker_2, # of connection points: 2
#     Edge 17, Type (0, 0), BuildingBlock: XUDNAN_clean_linker_2, # of connection points: 2
#     Edge 18, Type (0, 0), BuildingBlock: XUDNAN_clean_linker_2, # of connection points: 2
#     Edge 19, Type (0, 0), BuildingBlock: XUDNAN_clean_linker_2, # of connection points: 2
#     Edge 20, Type (0, 0), BuildingBlock: XUDNAN_clean_linker_2, # of connection points: 2
#     Edge 21, Type (0, 0), BuildingBlock: XUDNAN_clean_linker_2, # of connection points: 2
#     Edge 22, Type (0, 0), BuildingBlock: XUDNAN_clean_linker_2, # of connection points: 2
#     Edge 23, Type (0, 0), BuildingBlock: XUDNAN_clean_linker_2, # of connection points: 2
#     Edge 24, Type (0, 0), BuildingBlock: XUDNAN_clean_linker_2, # of connection points: 2
#     Edge 25, Type (0, 0), BuildingBlock: XUDNAN_clean_linker_2, # of connection points: 2
#     Edge 26, Type (0, 0), BuildingBlock: XUDNAN_clean_linker_2, # of connection points: 2
#     Edge 27, Type (0, 0), BuildingBlock: XUDNAN_clean_linker_2, # of connection points: 2
#     Edge 28, Type (0, 0), BuildingBlock: XUDNAN_clean_linker_2, # of connection points: 2
#     Edge 29, Type (0, 0), BuildingBlock: XUDNAN_clean_linker_2, # of connection points: 2
#     Edge 30, Type (0, 0), BuildingBlock: XUDNAN_clean_linker_2, # of connection points: 2
#     Edge 31, Type (0, 0), BuildingBlock: XUDNAN_clean_linker_2, # of connection points: 2
#     Edge 32, Type (0, 0), BuildingBlock: XUDNAN_clean_linker_2, # of connection points: 2
#     Edge 33, Type (0, 0), BuildingBlock: XUDNAN_clean_linker_2, # of connection points: 2
#     Edge 34, Type (0, 0), BuildingBlock: XUDNAN_clean_linker_2, # of connection points: 2
#     Edge 35, Type (0, 0), BuildingBlock: XUDNAN_clean_linker_2, # of connection points: 2
#     Edge 36, Type (0, 0), BuildingBlock: XUDNAN_clean_linker_2, # of connection points: 2
#     Edge 37, Type (0, 0), BuildingBlock: XUDNAN_clean_linker_2, # of connection points: 2
#     Edge 38, Type (0, 0), BuildingBlock: XUDNAN_clean_linker_2, # of connection points: 2
#     Edge 39, Type (0, 0), BuildingBlock: XUDNAN_clean_linker_2, # of connection points: 2
#     Edge 40, Type (0, 0), BuildingBlock: XUDNAN_clean_linker_2, # of connection points: 2
#     Edge 41, Type (0, 0), BuildingBlock: XUDNAN_clean_linker_2, # of connection points: 2
# Relax obj value: 0.321
# Max RMSD: 0.211
# Mean RMSD: 0.211
data_MOF--net-fna--node1-XOMCOT_clean_sbu_0--edge1-XUDNAN_clean_linker_2
_symmetry_space_group_name_H-M    P1
_symmetry_Int_Tables_number       1
_symmetry_cell_setting            triclinic
loop_
_symmetry_equiv_pos_as_xyz
'x, y, z'
_cell_length_a     45.50646
_cell_length_b     45.544508
_cell_length_c     46.231966
_cell_angle_alpha  90.10005
_cell_angle_beta   89.990751
_cell_angle_gamma 119.89904
loop_
_atom_site_label
_atom_site_type_symbol
_atom_site_fract_x
_atom_site_fract_y
_atom_site_fract_z
_atom_type_partial_charge
Co0 Co 0.34099 0.29025 0.48092 0.0
C1 C 0.33794 0.24671 0.43195 0.0
C2 C 0.28882 0.23924 0.44264 0.0
C3 C 0.28494 0.21512 0.42259 0.0
N4 N 0.32206 0.25911 0.44853 0.0
N5 N 0.31583 0.21972 0.41598 0.0
H6 H 0.36484 0.25564 0.43307 0.0
H7 H 0.26852 0.24071 0.45345 0.0
C8 C 0.29583 0.31982 0.4939 0.0
O9 O 0.32207 0.34784 0.50335 0.0
N10 N 0.36035 0.32033 0.514 0.0
C11 C 0.39015 0.34969 0.51573 0.0
C12 C 0.39368 0.36267 0.54323 0.0
C13 C 0.34683 0.31531 0.54083 0.0
N14 N 0.3666 0.34088 0.55885 0.0
C15 C 0.39868 0.33226 0.44621 0.0
C16 C 0.38374 0.38323 0.43701 0.0
C17 C 0.41712 0.39013 0.43296 0.0
C18 C 0.42386 0.36346 0.43573 0.0
C19 C 0.35911 0.35137 0.44701 0.0
N20 N 0.3677 0.32754 0.45427 0.0
H21 H 0.40541 0.31306 0.4502 0.0
H22 H 0.33382 0.34688 0.44992 0.0
H23 H 0.40798 0.36151 0.49832 0.0
H24 H 0.32223 0.29433 0.54661 0.0
O25 O 0.37357 0.27565 0.48786 0.0
O26 O 0.32193 0.2522 0.50677 0.0
O27 O 0.3 0.29715 0.48102 0.0
C28 C 0.35091 0.2532 0.50495 0.0
H29 H 0.26111 0.19505 0.41423 0.0
H30 H 0.41408 0.38666 0.551 0.0
H31 H 0.37708 0.40273 0.43369 0.0
H32 H 0.44911 0.36737 0.43228 0.0
Co33 Co 0.05814 0.33528 0.64995 0.0
C34 C 0.0913 0.32138 0.60024 0.0
C35 C 0.04687 0.27668 0.61459 0.0
C36 C 0.06263 0.26759 0.59396 0.0
N37 N 0.0641 0.31062 0.61801 0.0
N38 N 0.0907 0.29569 0.58499 0.0
H39 H 0.1124 0.34696 0.59987 0.0
H40 H 0.02603 0.25912 0.62792 0.0
C41 C 0.98309 0.28108 0.6403 0.0
O42 O 0.98439 0.2816 0.61192 0.0
N43 N 0.0527 0.3587 0.6824 0.0
C44 C 0.06618 0.39217 0.68716 0.0
C45 C 0.05646 0.39658 0.71443 0.0
C46 C 0.03551 0.34337 0.70652 0.0
N47 N 0.03704 0.36574 0.7264 0.0
C48 C 0.07177 0.38412 0.60554 0.0
C49 C 0.01555 0.39072 0.61621 0.0
C50 C 0.04072 0.41359 0.59752 0.0
C51 C 0.06863 0.40956 0.59158 0.0
C52 C 0.01921 0.36498 0.62913 0.0
N53 N 0.04739 0.36226 0.62414 0.0
H54 H 0.09503 0.38374 0.6029 0.0
H55 H 1.00066 0.34904 0.64494 0.0
H56 H 0.08218 0.41185 0.67209 0.0
H57 H 0.02321 0.31628 0.70979 0.0
O58 O 0.10674 0.36464 0.65285 0.0
O59 O 0.07628 0.31558 0.67559 0.0
O60 O 1.00914 0.29986 0.65554 0.0
C61 C 0.1055 0.34265 0.67154 0.0
H62 H 0.0554 0.24193 0.5878 0.0
H63 H 0.06329 0.42056 0.72463 0.0
H64 H 0.99376 0.39334 0.62142 0.0
H65 H 0.08884 0.4272 0.57761 0.0
Co66 Co 0.72864 0.05251 0.81487 0.0
C67 C 0.77245 0.09402 0.76728 0.0
C68 C 0.77348 0.04767 0.77089 0.0
C69 C 0.79807 0.06853 0.75136 0.0
N70 N 0.75743 0.06375 0.7809 0.0
N71 N 0.7977 0.09793 0.74941 0.0
H72 H 0.76632 0.11365 0.77167 0.0
H73 H 0.76946 0.02359 0.77873 0.0
C74 C 0.69578 0.97775 0.82745 0.0
O75 O 0.67025 0.97843 0.83996 0.0
N76 N 0.70076 0.04322 0.84924 0.0
C77 C 0.67065 0.04221 0.8521 0.0
C78 C 0.66109 0.03688 0.88073 0.0
C79 C 0.70934 0.03935 0.87634 0.0
N80 N 0.68558 0.03532 0.89572 0.0
C81 C 0.68932 0.07452 0.78375 0.0
C82 C 0.63389 0.01138 0.77328 0.0
C83 C 0.63068 0.04021 0.77027 0.0
C84 C 0.65924 0.0721 0.77401 0.0
C85 C 0.66466 0.01494 0.78299 0.0
N86 N 0.69099 0.04614 0.79035 0.0
H87 H 0.71029 0.0994 0.78824 0.0
H88 H 0.66618 0.99238 0.7861 0.0
H89 H 0.65658 0.04562 0.83496 0.0
H90 H 0.73256 0.03964 0.88194 0.0
O91 O 0.74802 0.1003 0.82394 0.0
O92 O 0.76825 0.06741 0.83858 0.0
O93 O 0.71754 1.00318 0.8126 0.0
C94 C 0.77066 0.09701 0.8384 0.0
H95 H 0.81641 0.06338 0.74112 0.0
H96 H 0.63866 0.03564 0.89001 0.0
H97 H 0.61221 0.98631 0.7702 0.0
H98 H 0.65761 0.0949 0.77158 0.0
Co99 Co 0.68432 0.72541 0.9813 0.0
C100 C 0.69181 0.7691 0.93078 0.0
C101 C 0.7334 0.75977 0.9332 0.0
C102 C 0.73968 0.78265 0.91135 0.0
N103 N 0.70301 0.75061 0.94528 0.0
N104 N 0.71369 0.78879 0.91001 0.0
H105 H 0.66875 0.76929 0.93598 0.0
H106 H 0.75143 0.75281 0.94084 0.0
C107 C 0.73336 0.69857 0.97084 0.0
O108 O 0.72006 0.68559 0.94552 0.0
N109 N 0.66597 0.70179 0.01721 0.0
C110 C 0.63306 0.68091 0.02374 0.0
C111 C 0.63075 0.6722 0.0525 0.0
C112 C 0.68313 0.70609 0.04199 0.0
N113 N 0.66222 0.68828 0.06386 0.0
C114 C 0.63187 0.68306 0.94123 0.0
C115 C 0.625 0.62288 0.96158 0.0
C116 C 0.59969 0.62185 0.94374 0.0
C117 C 0.60401 0.65227 0.93241 0.0
C118 C 0.65234 0.65397 0.96974 0.0
N119 N 0.65499 0.68367 0.96042 0.0
H120 H 0.63325 0.7064 0.93454 0.0
H121 H 0.66951 0.65408 0.98592 0.0
H122 H 0.61215 0.67343 0.00887 0.0
H123 H 0.7102 0.72278 0.04416 0.0
O124 O 0.65377 0.74345 0.98477 0.0
O125 O 0.70643 0.76729 0.00205 0.0
O126 O 0.72237 0.71489 0.98549 0.0
C127 C 0.67837 0.76794 -0.00072 0.0
H128 H 0.76278 0.79561 0.8988 0.0
H129 H 0.60763 0.65678 0.0645 0.0
H130 H 0.6224 0.59987 0.97086 0.0
H131 H 0.58469 0.65241 0.91882 0.0
Co132 Co 0.96357 0.67862 0.14615 0.0
C133 C 0.92562 0.68259 0.09554 0.0
C134 C 0.96706 0.73127 0.10743 0.0
C135 C 0.94769 0.73581 0.08688 0.0
N136 N 0.95325 0.69788 0.1129 0.0
N137 N 0.92181 0.70517 0.07946 0.0
H138 H 0.90704 0.65595 0.09624 0.0
H139 H 0.98832 0.75117 0.11903 0.0
C140 C 0.0386 0.72087 0.15979 0.0
O141 O 0.03831 0.69475 0.17201 0.0
N142 N 0.97231 0.6592 0.18004 0.0
C143 C 0.96942 0.62849 0.18374 0.0
C144 C 0.97748 0.62589 0.21207 0.0
C145 C 0.98081 0.67418 0.2062 0.0
N146 N 0.98491 0.65485 0.22602 0.0
C147 C 0.94231 0.61999 0.11135 0.0
C148 C 1.00476 0.6254 0.10217 0.0
C149 C 0.9754 0.59588 0.09346 0.0
C150 C 0.94405 0.59383 0.09748 0.0
C151 C 1.00196 0.65172 0.11534 0.0
N152 N 0.97083 0.64825 0.12091 0.0
H153 H 0.91749 0.61644 0.11543 0.0
H154 H 0.02488 0.6742 0.12138 0.0
H155 H 0.96221 0.60934 0.16718 0.0
H156 H 0.98457 0.69919 0.21035 0.0
O157 O 0.91584 0.64948 0.15359 0.0
O158 O 0.94705 0.70131 0.17108 0.0
O159 O 0.01297 0.71723 0.14513 0.0
C160 C 0.9179 0.67352 0.17007 0.0
H161 H 0.95152 0.75977 0.07883 0.0
H162 H 0.97855 0.60467 0.22139 0.0
H163 H 0.02954 0.62806 0.0989 0.0
H164 H 0.92075 0.57139 0.09107 0.0
Co165 Co 0.29447 0.96218 0.31608 0.0
C166 C 0.23887 0.92243 0.27356 0.0
C167 C 0.26062 0.97576 0.26672 0.0
C168 C 0.23676 0.95881 0.24555 0.0
N169 N 0.26239 0.95308 0.28432 0.0
N170 N 0.2231 0.92527 0.24979 0.0
H171 H 0.23423 0.8984 0.2821 0.0
H172 H 0.27559 1.00283 0.26849 0.0
C173 C 0.32351 0.03906 0.30536 0.0
O174 O 0.33783 0.03975 0.28051 0.0
N175 N 0.32584 0.97 0.34735 0.0
C176 C 0.34414 0.95425 0.34996 0.0
C177 C 0.3568 0.95895 0.37752 0.0
C178 C 0.32784 0.98438 0.37335 0.0
N179 N 0.34634 0.97762 0.39224 0.0
C180 C 0.32478 0.94411 0.27091 0.0
C181 C 0.39064 0.99439 0.28237 0.0
C182 C 0.38514 0.96591 0.26654 0.0
C183 C 0.35181 0.94129 0.25972 0.0
C184 C 0.36292 0.99586 0.29371 0.0
N185 N 0.33045 0.97024 0.28887 0.0
H186 H 0.29938 0.92323 0.26782 0.0
H187 H 0.36792 0.01547 0.30933 0.0
H188 H 0.3457 0.93797 0.3337 0.0
H189 H 0.31264 0.99566 0.37934 0.0
O190 O 0.27592 0.91384 0.32242 0.0
O191 O 0.2582 0.94586 0.3437 0.0
O192 O 0.30628 0.01133 0.31917 0.0
C193 C 0.25642 0.9166 0.34161 0.0
H194 H 0.23005 0.97038 0.22826 0.0
H195 H 0.36992 0.9469 0.38689 0.0
H196 H 0.41606 0.01349 0.2886 0.0
H197 H 0.34668 0.91874 0.24777 0.0
Co198 Co 0.73224 0.67752 0.34937 0.0
C199 C 0.77543 0.67993 0.39831 0.0
C200 C 0.77864 0.72799 0.39115 0.0
C201 C 0.80278 0.73221 0.41125 0.0
N202 N 0.76149 0.69523 0.38296 0.0
N203 N 0.80092 0.70206 0.4156 0.0
H204 H 0.76878 0.65375 0.39536 0.0
H205 H 0.77545 0.74799 0.38187 0.0
C206 C 0.69966 0.71996 0.33769 0.0
O207 O 0.67196 0.69284 0.32893 0.0
N208 N 0.70417 0.65993 0.31509 0.0
C209 C 0.67534 0.63031 0.31057 0.0
C210 C 0.66501 0.62962 0.28238 0.0
C211 C 0.71125 0.67629 0.2896 0.0
N212 N 0.68761 0.65872 0.26928 0.0
C213 C 0.68859 0.61661 0.37967 0.0
C214 C 0.64094 0.63343 0.39738 0.0
C215 C 0.6334 0.59964 0.3998 0.0
C216 C 0.65854 0.59191 0.39217 0.0
C217 C 0.67175 0.65763 0.3851 0.0
N218 N 0.69397 0.64843 0.37433 0.0
H219 H 0.70667 0.60926 0.373 0.0
H220 H 0.67694 0.68333 0.38386 0.0
H221 H 0.66234 0.61063 0.32643 0.0
H222 H 0.73335 0.70087 0.28627 0.0
O223 O 0.74874 0.64661 0.3415 0.0
O224 O 0.77183 0.69906 0.3249 0.0
O225 O 0.72342 0.71727 0.35019 0.0
C226 C 0.77148 0.67038 0.32538 0.0
H227 H 0.82113 0.75592 0.42112 0.0
H228 H 0.64232 0.60941 0.27257 0.0
H229 H 0.62275 0.64094 0.40377 0.0
H230 H 0.65467 0.56661 0.39496 0.0
Co231 Co 0.06217 0.7255 0.5101 0.0
C232 C 0.09926 0.76869 0.56079 0.0
C233 C 0.05849 0.77614 0.54714 0.0
C234 C 0.07764 0.80069 0.56728 0.0
N235 N 0.07172 0.75566 0.54318 0.0
N236 N 0.10314 0.79584 0.57586 0.0
H237 H 0.11814 0.76094 0.56065 0.0
H238 H 0.03805 0.77524 0.53456 0.0
C239 C 0.98963 0.70784 0.52307 0.0
O240 O 0.99184 0.69955 0.54985 0.0
N241 N 0.05358 0.69703 0.47666 0.0
C242 C 0.06287 0.67355 0.47193 0.0
C243 C 0.05597 0.66315 0.44347 0.0
C244 C 0.04169 0.70095 0.45125 0.0
N245 N 0.043 0.68074 0.43062 0.0
C246 C 0.07095 0.68403 0.55213 0.0
C247 C 0.01281 0.62507 0.53663 0.0
C248 C 0.03771 0.62291 0.55266 0.0
C249 C 0.06625 0.65285 0.56174 0.0
C250 C 0.01829 0.65664 0.52774 0.0
N251 N 0.04771 0.68569 0.53451 0.0
H252 H 0.095 0.70622 0.5563 0.0
H253 H 1.00067 0.65708 0.51238 0.0
H254 H 0.07528 0.66578 0.48762 0.0
H255 H 0.03401 0.71963 0.44754 0.0
O256 O 0.10995 0.73994 0.50664 0.0
O257 O 0.08364 0.76427 0.48535 0.0
O258 O 0.01483 0.71831 0.50594 0.0
C259 C 0.11117 0.76284 0.48904 0.0
H260 H 0.074 0.82139 0.57416 0.0
H261 H 0.0622 0.6459 0.43257 0.0
H262 H 0.99064 0.60237 0.52888 0.0
H263 H 0.08635 0.65206 0.57366 0.0
Co264 Co 0.33865 0.05221 0.675 0.0
C265 C 0.33317 0.09536 0.71995 0.0
C266 C 0.28905 0.04624 0.72089 0.0
C267 C 0.28521 0.06679 0.74087 0.0
N268 N 0.31955 0.06411 0.70799 0.0
N269 N 0.31316 0.09782 0.74026 0.0
H270 H 0.357 0.11646 0.71312 0.0
H271 H 0.27013 0.02056 0.71562 0.0
C272 C 0.28651 0.97806 0.68862 0.0
O273 O 0.29888 0.97885 0.71446 0.0
N274 N 0.35798 0.04208 0.64203 0.0
C275 C 0.39128 0.05746 0.63548 0.0
C276 C 0.39474 0.04826 0.60789 0.0
C277 C 0.34158 0.02361 0.61858 0.0
N278 N 0.36353 0.02701 0.59756 0.0
C279 C 0.38668 0.06429 0.7197 0.0
C280 C 0.39417 0.00888 0.70776 0.0
C281 C 0.41635 0.03334 0.72743 0.0
C282 C 0.41185 0.0609 0.73383 0.0
C283 C 0.3689 0.01299 0.69438 0.0
N284 N 0.36558 0.04066 0.70018 0.0
H285 H 0.38583 0.08721 0.72312 0.0
H286 H 0.35329 0.99491 0.67805 0.0
H287 H 0.41149 0.07531 0.64933 0.0
H288 H 0.31427 0.00965 0.61625 0.0
O289 O 0.37119 0.09951 0.66877 0.0
O290 O 0.31957 0.07126 0.64959 0.0
O291 O 0.29906 1.00457 0.67294 0.0
C292 C 0.34841 0.09928 0.65153 0.0
H293 H 0.26319 0.0594 0.75434 0.0
H294 H 0.41816 0.05708 0.59602 0.0
H295 H 0.39692 0.98727 0.70217 0.0
H296 H 0.42897 0.08081 0.74835 0.0
Co297 Co 0.29338 0.33617 0.84165 0.0
C298 C 0.2441 0.32298 0.88935 0.0
C299 C 0.25285 0.28126 0.88423 0.0
C300 C 0.22874 0.27329 0.90541 0.0
N301 N 0.26321 0.31283 0.87439 0.0
N302 N 0.22315 0.29951 0.9086 0.0
H303 H 0.24515 0.34698 0.88608 0.0
H304 H 0.26054 0.26404 0.87588 0.0
C305 C 0.31769 0.28524 0.84921 0.0
O306 O 0.32969 0.29642 0.87521 0.0
N307 N 0.32192 0.35934 0.80877 0.0
C308 C 0.34194 0.39319 0.80643 0.0
C309 C 0.3521 0.40099 0.77818 0.0
C310 C 0.32003 0.34696 0.78185 0.0
N311 N 0.33824 0.37198 0.76278 0.0
C312 C 0.32919 0.37919 0.88926 0.0
C313 C 0.39289 0.39186 0.8728 0.0
C314 C 0.39005 0.4114 0.89487 0.0
C315 C 0.35768 0.40411 0.90367 0.0
C316 C 0.36363 0.36662 0.85929 0.0
N317 N 0.33224 0.36105 0.86711 0.0
H318 H 0.30491 0.37635 0.89463 0.0
H319 H 0.36639 0.3532 0.84114 0.0
H320 H 0.34695 0.41113 0.82372 0.0
H321 H 0.30347 0.32073 0.77592 0.0
O322 O 0.27804 0.36876 0.84037 0.0
O323 O 0.25451 0.31933 0.81704 0.0
O324 O 0.30269 0.29775 0.83478 0.0
C325 C 0.25544 0.34787 0.82214 0.0
H326 H 0.21524 0.24932 0.91662 0.0
H327 H 0.36702 0.42619 0.76927 0.0
H328 H 0.41752 0.39675 0.86544 0.0
H329 H 0.35447 0.41902 0.92034 0.0
Co330 Co 0.96976 0.2892 0.01117 0.0
C331 C 0.92606 0.23039 0.04875 0.0
C332 C 0.975 0.26197 0.06779 0.0
C333 C 0.9554 0.23634 0.08699 0.0
N334 N 0.95659 0.25824 0.04378 0.0
N335 N 0.92478 0.21669 0.07486 0.0
H336 H 0.90474 0.22056 0.03407 0.0
H337 H 1.00065 0.28228 0.0714 0.0
C338 C 0.04539 0.32653 0.00429 0.0
O339 O 0.04479 0.35262 0.99292 0.0
N340 N 0.98126 0.3199 0.97832 0.0
C341 C 0.97821 0.3479 0.97613 0.0
C342 C 0.98427 0.35919 0.94799 0.0
C343 C 0.98868 0.31447 0.95123 0.0
N344 N 0.99052 0.33792 0.9325 0.0
C345 C 0.93903 0.32091 0.04179 0.0
C346 C 0.99803 0.38001 0.05556 0.0
C347 C 0.96707 0.37963 0.05648 0.0
C348 C 0.93717 0.34899 0.05134 0.0
C349 C 0.99875 0.35124 0.04581 0.0
N350 N 0.96967 0.32325 0.0367 0.0
H351 H 0.91584 0.29821 0.03609 0.0
H352 H 0.02296 0.35267 0.04386 0.0
H353 H 0.97049 0.35878 0.99317 0.0
H354 H 0.9916 0.29318 0.94497 0.0
O355 O 0.92313 0.26695 0.99701 0.0
O356 O 0.96201 0.25322 0.98544 0.0
O357 O 0.01942 0.30359 0.01779 0.0
C358 C 0.93177 0.24851 0.98149 0.0
H359 H 0.96299 0.23235 0.10814 0.0
H360 H 0.98194 0.37995 0.93918 0.0
H361 H 0.02164 0.40307 0.05995 0.0
H362 H 0.91268 0.34747 0.05262 0.0
Co363 Co 0.68596 0.96035 0.17816 0.0
C364 C 0.69626 0.92004 0.22413 0.0
C365 C 0.73668 0.97163 0.22269 0.0
C366 C 0.74399 0.95492 0.24364 0.0
N367 N 0.70659 0.95001 0.21055 0.0
N368 N 0.71864 0.92244 0.24471 0.0
H369 H 0.67316 0.89693 0.21887 0.0
H370 H 0.75307 0.9976 0.21631 0.0
C371 C 0.7368 0.04188 0.18841 0.0
O372 O 0.73236 0.05606 0.21151 0.0
N373 N 0.66559 0.97038 0.14591 0.0
C374 C 0.6323 0.95533 0.13947 0.0
C375 C 0.6288 0.9653 0.11219 0.0
C376 C 0.68183 0.98899 0.12257 0.0
N377 N 0.66003 0.98636 0.10162 0.0
C378 C 0.62601 0.9295 0.21313 0.0
C379 C 0.62036 0.98691 0.21925 0.0
C380 C 0.59317 0.95574 0.22821 0.0
C381 C 0.59672 0.92686 0.22551 0.0
C382 C 0.64875 0.98828 0.20636 0.0
N383 N 0.65128 0.95978 0.20316 0.0
H384 H 0.62735 0.90673 0.20981 0.0
H385 H 0.66746 0.01208 0.19729 0.0
H386 H 0.61206 0.93709 0.153 0.0
H387 H 0.709 1.00211 0.12012 0.0
O388 O 0.66339 0.91337 0.16508 0.0
O389 O 0.71462 0.95379 0.15199 0.0
O390 O 0.71709 0.0102 0.18436 0.0
C391 C 0.68994 0.92295 0.14866 0.0
H392 H 0.76701 0.96578 0.25637 0.0
H393 H 0.60519 0.95683 0.10072 0.0
H394 H 0.61946 0.01013 0.2212 0.0
H395 H 0.57641 0.90198 0.23144 0.0
H396 H 0.30534 0.10307 0.61331 0.0
H397 H 0.40834 0.15929 0.64609 0.0
H398 H 0.42155 0.20406 0.60968 0.0
H399 H 0.3266 0.12172 0.53865 0.0
H400 H 0.28945 0.12465 0.53037 0.0
H401 H 0.28821 0.09744 0.55914 0.0
H402 H 0.26904 0.12822 0.59535 0.0
H403 H 0.26966 0.15511 0.56662 0.0
H404 H 0.29396 0.17361 0.59907 0.0
H405 H 0.42346 0.24134 0.56829 0.0
H406 H 0.41212 0.27153 0.52923 0.0
H407 H 0.30754 0.19049 0.5253 0.0
C408 C 0.33062 0.12493 0.6131 0.0
C409 C 0.35584 0.12787 0.63247 0.0
C410 C 0.38864 0.15675 0.63143 0.0
C411 C 0.39641 0.18209 0.61074 0.0
C412 C 0.37106 0.1779 0.59144 0.0
C413 C 0.33875 0.15019 0.5927 0.0
C414 C 0.31584 0.15157 0.56983 0.0
C415 C 0.30436 0.1221 0.54823 0.0
C416 C 0.28534 0.15219 0.58355 0.0
C417 C 0.34003 0.18491 0.55587 0.0
C418 C 0.37197 0.19943 0.56816 0.0
C419 C 0.39857 0.23022 0.55852 0.0
C420 C 0.392 0.24699 0.53624 0.0
C421 C 0.35903 0.23305 0.52444 0.0
C422 C 0.33294 0.2015 0.53407 0.0
H423 H 0.10414 0.30541 0.71753 0.0
H424 H 0.1703 0.39747 0.67038 0.0
H425 H 0.21489 0.41242 0.70759 0.0
H426 H 0.12878 0.34214 0.78865 0.0
H427 H 0.12529 0.30425 0.80415 0.0
H428 H 0.09882 0.30127 0.77401 0.0
H429 H 0.12074 0.26748 0.74449 0.0
H430 H 0.14657 0.26967 0.77474 0.0
H431 H 0.16576 0.28493 0.73982 0.0
H432 H 0.25182 0.41667 0.75059 0.0
H433 H 0.28031 0.40621 0.79172 0.0
H434 H 0.18888 0.31125 0.80923 0.0
C435 C 0.1281 0.32859 0.71473 0.0
C436 C 0.13394 0.35021 0.69102 0.0
C437 C 0.16549 0.38047 0.68837 0.0
C438 C 0.19075 0.38929 0.70951 0.0
C439 C 0.18366 0.36772 0.73311 0.0
C440 C 0.15316 0.33786 0.73561 0.0
C441 C 0.1517 0.31851 0.76251 0.0
C442 C 0.12454 0.31643 0.78356 0.0
C443 C 0.14588 0.28307 0.75492 0.0
C444 C 0.18679 0.34131 0.77426 0.0
C445 C 0.20462 0.37008 0.75753 0.0
C446 C 0.23797 0.39443 0.76397 0.0
C447 C 0.2538 0.3885 0.78748 0.0
C448 C 0.23632 0.35823 0.80362 0.0
C449 C 0.20233 0.33481 0.79736 0.0
H450 H 0.76704 0.13047 0.88616 0.0
H451 H 0.83638 0.12484 0.82512 0.0
H452 H 0.88501 0.16623 0.85423 0.0
H453 H 0.82202 0.22249 0.90541 0.0
H454 H 0.80972 0.21521 0.94294 0.0
H455 H 0.78038 0.18894 0.91531 0.0
H456 H 0.77381 0.13654 0.94171 0.0
H457 H 0.80451 0.16179 0.96873 0.0
H458 H 0.81035 0.13172 0.94771 0.0
H459 H 0.92447 0.20017 0.89186 0.0
H460 H 0.95556 0.23144 0.93494 0.0
H461 H 0.86238 0.21852 0.9727 0.0
C462 C 0.7926 0.13904 0.87862 0.0
C463 C 0.79853 0.12532 0.85337 0.0
C464 C 0.83185 0.13567 0.84434 0.0
C465 C 0.85944 0.15904 0.86069 0.0
C466 C 0.85301 0.17147 0.88599 0.0
C467 C 0.82056 0.16233 0.8949 0.0
C468 C 0.82111 0.17785 0.92417 0.0
C469 C 0.80751 0.20261 0.9218 0.0
C470 C 0.80129 0.15031 0.94691 0.0
C471 C 0.85885 0.19637 0.93047 0.0
C472 C 0.8765 0.19211 0.90805 0.0
C473 C 0.91114 0.20429 0.90936 0.0
C474 C 0.92849 0.22179 0.9341 0.0
C475 C 0.91137 0.22756 0.95707 0.0
C476 C 0.87606 0.21474 0.95526 0.0
H477 H 0.63992 0.76228 0.04632 0.0
H478 H 0.71265 0.83387 0.98551 0.0
H479 H 0.71981 0.88131 0.01634 0.0
H480 H 0.60305 0.81746 0.07024 0.0
H481 H 0.59906 0.80321 0.10713 0.0
H482 H 0.59462 0.77513 0.0778 0.0
H483 H 0.64155 0.76631 0.10065 0.0
H484 H 0.64677 0.7949 0.12967 0.0
H485 H 0.68264 0.80254 0.10772 0.0
H486 H 0.72697 0.91922 0.0562 0.0
H487 H 0.72879 0.94842 0.1012 0.0
H488 H 0.65024 0.85376 0.13783 0.0
C489 C 0.65597 0.78807 0.03899 0.0
C490 C 0.67511 0.79489 0.01332 0.0
C491 C 0.6973 0.82858 0.00481 0.0
C492 C 0.7016 0.85553 0.02224 0.0
C493 C 0.68355 0.84816 0.04808 0.0
C494 C 0.66065 0.81538 0.05632 0.0
C495 C 0.6469 0.81471 0.08647 0.0
C496 C 0.60863 0.80187 0.08534 0.0
C497 C 0.65496 0.79335 0.10734 0.0
C498 C 0.66677 0.85209 0.09422 0.0
C499 C 0.68761 0.87067 0.07159 0.0
C500 C 0.71031 0.90515 0.07388 0.0
C501 C 0.71142 0.9214 0.09976 0.0
C502 C 0.68975 0.90336 0.12311 0.0
C503 C 0.66701 0.86817 0.12029 0.0
H504 H 0.91715 0.71764 0.20975 0.0
H505 H 0.85717 0.61528 0.17634 0.0
H506 H 0.81467 0.60245 0.21463 0.0
H507 H 0.90167 0.69595 0.28449 0.0
H508 H 0.89941 0.73303 0.29448 0.0
H509 H 0.92502 0.73457 0.26417 0.0
H510 H 0.89253 0.75437 0.23067 0.0
H511 H 0.86724 0.75348 0.26097 0.0
H512 H 0.84693 0.72968 0.2287 0.0
H513 H 0.78068 0.59979 0.25812 0.0
H514 H 0.75271 0.61007 0.29959 0.0
H515 H 0.83352 0.71481 0.3031 0.0
C516 C 0.89481 0.69269 0.21019 0.0
C517 C 0.89036 0.66747 0.19009 0.0
C518 C 0.86097 0.63503 0.19149 0.0
C519 C 0.83684 0.62742 0.21327 0.0
C520 C 0.84252 0.65258 0.23329 0.0
C521 C 0.87045 0.68471 0.23167 0.0
C522 C 0.87034 0.70729 0.25564 0.0
C523 C 0.90093 0.71836 0.27588 0.0
C524 C 0.86917 0.73801 0.24325 0.0
C525 C 0.83763 0.68301 0.27067 0.0
C526 C 0.82238 0.65135 0.25785 0.0
C527 C 0.79228 0.62449 0.26829 0.0
C528 C 0.7768 0.63047 0.29198 0.0
C529 C 0.79121 0.66316 0.30444 0.0
C530 C 0.82217 0.68959 0.29391 0.0
H531 H 0.20071 0.85173 0.34194 0.0
H532 H 0.27796 0.9291 0.39619 0.0
H533 H 0.25455 0.89297 0.43883 0.0
H534 H 0.1362 0.83386 0.39041 0.0
H535 H 0.11186 0.78901 0.38353 0.0
H536 H 0.13904 0.81697 0.35586 0.0
H537 H 0.17003 0.7824 0.35236 0.0
H538 H 0.14273 0.75416 0.38009 0.0
H539 H 0.18812 0.77534 0.38447 0.0
H540 H 0.22099 0.8516 0.47632 0.0
H541 H 0.17389 0.81059 0.50732 0.0
H542 H 0.11413 0.76239 0.4308 0.0
C543 C 0.21313 0.86033 0.3627 0.0
C544 C 0.24202 0.89266 0.36576 0.0
C545 C 0.25675 0.90398 0.39333 0.0
C546 C 0.24359 0.88357 0.41771 0.0
C547 C 0.21504 0.85193 0.41432 0.0
C548 C 0.19953 0.84041 0.38764 0.0
C549 C 0.16592 0.80794 0.39103 0.0
C550 C 0.13653 0.81223 0.37955 0.0
C551 C 0.16677 0.7782 0.3761 0.0
C552 C 0.16458 0.80407 0.4237 0.0
C553 C 0.19378 0.82905 0.43658 0.0
C554 C 0.19808 0.83161 0.46658 0.0
C555 C 0.17141 0.80835 0.48399 0.0
C556 C 0.14087 0.78371 0.4712 0.0
C557 C 0.13755 0.78116 0.44081 0.0
H558 H 0.27657 0.15155 0.40801 0.0
H559 H 0.37197 0.23894 0.38322 0.0
H560 H 0.38419 0.20244 0.35149 0.0
H561 H 0.30751 0.09247 0.41057 0.0
H562 H 0.26882 0.05756 0.39665 0.0
H563 H 0.26758 0.09071 0.41694 0.0
H564 H 0.23674 0.10088 0.37434 0.0
H565 H 0.23799 0.06781 0.3539 0.0
H566 H 0.25565 0.10973 0.33886 0.0
H567 H 0.38452 0.15634 0.32055 0.0
H568 H 0.37559 0.10381 0.29665 0.0
H569 H 0.28139 0.04615 0.34378 0.0
C570 C 0.29991 0.16308 0.39574 0.0
C571 C 0.3232 0.19826 0.39786 0.0
C572 C 0.35382 0.21212 0.38195 0.0
C573 C 0.36088 0.19158 0.36379 0.0
C574 C 0.33724 0.15708 0.362 0.0
C575 C 0.30755 0.14286 0.37784 0.0
C576 C 0.28677 0.10495 0.37271 0.0
C577 C 0.28243 0.08527 0.40089 0.0
C578 C 0.25225 0.09529 0.35915 0.0
C579 C 0.3093 0.10003 0.35139 0.0
C580 C 0.33811 0.13045 0.34521 0.0
C581 C 0.36215 0.13237 0.3254 0.0
C582 C 0.35678 0.10244 0.31179 0.0
C583 C 0.32787 0.07087 0.31835 0.0
C584 C 0.30388 0.06985 0.33843 0.0
H585 H 0.27841 0.35491 0.53173 0.0
H586 H 0.23492 0.26967 0.4723 0.0
H587 H 0.17742 0.25654 0.4872 0.0
H588 H 0.22022 0.31421 0.58817 0.0
H589 H 0.21874 0.35133 0.59955 0.0
H590 H 0.2562 0.35577 0.58229 0.0
H591 H 0.25252 0.3948 0.54353 0.0
H592 H 0.21502 0.39052 0.56068 0.0
H593 H 0.21404 0.38006 0.52294 0.0
H594 H 0.12481 0.25099 0.51053 0.0
H595 H 0.08103 0.25261 0.54087 0.0
H596 H 0.15899 0.34065 0.58608 0.0
C597 C 0.25684 0.3339 0.52133 0.0
C598 C 0.26124 0.31356 0.5005 0.0
C599 C 0.23225 0.28577 0.48807 0.0
C600 C 0.19948 0.27815 0.49641 0.0
C601 C 0.19611 0.29847 0.51728 0.0
C602 C 0.22403 0.32578 0.52957 0.0
C603 C 0.21362 0.34243 0.55274 0.0
C604 C 0.22805 0.34082 0.58244 0.0
C605 C 0.22444 0.37913 0.54447 0.0
C606 C 0.17539 0.32001 0.5518 0.0
C607 C 0.16585 0.29495 0.53106 0.0
C608 C 0.13201 0.27058 0.52674 0.0
C609 C 0.10731 0.2716 0.5442 0.0
C610 C 0.11641 0.2967 0.56592 0.0
C611 C 0.15101 0.32145 0.56943 0.0
H612 H 0.83702 0.10402 0.70242 0.0
H613 H 0.81583 0.16264 0.7646 0.0
H614 H 0.85847 0.21525 0.74137 0.0
H615 H 0.92751 0.16172 0.70042 0.0
H616 H 0.93139 0.15545 0.66242 0.0
H617 H 0.89837 0.12201 0.68344 0.0
H618 H 0.85335 0.11957 0.6477 0.0
H619 H 0.88624 0.15314 0.62666 0.0
H620 H 0.85156 0.15753 0.64042 0.0
H621 H 0.90574 0.26189 0.71353 0.0
H622 H 0.95361 0.29931 0.6818 0.0
H623 H 0.94385 0.21169 0.63617 0.0
C624 C 0.84126 0.12788 0.71112 0.0
C625 C 0.82243 0.12884 0.7352 0.0
C626 C 0.82902 0.16082 0.74584 0.0
C627 C 0.8535 0.19104 0.73289 0.0
C628 C 0.87139 0.18913 0.70921 0.0
C629 C 0.86566 0.15843 0.69838 0.0
C630 C 0.88912 0.16367 0.67309 0.0
C631 C 0.91301 0.14989 0.68028 0.0
C632 C 0.86884 0.14752 0.64532 0.0
C633 C 0.90847 0.20207 0.67109 0.0
C634 C 0.89807 0.21619 0.69244 0.0
C635 C 0.91362 0.25113 0.69638 0.0
C636 C 0.94065 0.27218 0.6782 0.0
C637 C 0.95152 0.25838 0.65599 0.0
C638 C 0.93507 0.22287 0.65225 0.0
H639 H 0.6763 0.93849 0.87576 0.0
H640 H 0.72805 0.95226 0.79386 0.0
H641 H 0.73688 0.90402 0.80565 0.0
H642 H 0.7326 0.91932 0.91635 0.0
H643 H 0.69955 0.88963 0.93985 0.0
H644 H 0.69663 0.92439 0.92444 0.0
H645 H 0.63799 0.88224 0.90284 0.0
H646 H 0.64071 0.8473 0.91804 0.0
H647 H 0.63373 0.84837 0.87976 0.0
H648 H 0.73958 0.85386 0.82671 0.0
H649 H 0.7385 0.80786 0.85587 0.0
H650 H 0.6865 0.82838 0.9247 0.0
C651 C 0.68911 0.93108 0.86008 0.0
C652 C 0.7009 0.94865 0.83356 0.0
C653 C 0.71853 0.93892 0.81411 0.0
C654 C 0.72362 0.91158 0.82067 0.0
C655 C 0.7115 0.89472 0.84699 0.0
C656 C 0.69496 0.90441 0.86653 0.0
C657 C 0.68578 0.88329 0.8939 0.0
C658 C 0.70477 0.90548 0.92018 0.0
C659 C 0.64726 0.86416 0.8989 0.0
C660 C 0.69866 0.85928 0.88636 0.0
C661 C 0.71364 0.86646 0.85931 0.0
C662 C 0.72796 0.84811 0.84791 0.0
C663 C 0.72728 0.82206 0.86464 0.0
C664 C 0.71226 0.81433 0.89248 0.0
C665 C 0.69759 0.83318 0.9033 0.0
H666 H 0.76927 0.72641 0.02083 0.0
H667 H 0.76092 0.66142 0.94877 0.0
H668 H 0.80694 0.65426 0.96984 0.0
H669 H 0.85887 0.76968 0.02708 0.0
H670 H 0.85905 0.7716 0.06604 0.0
H671 H 0.82444 0.77015 0.04599 0.0
H672 H 0.78184 0.71726 0.07492 0.0
H673 H 0.81633 0.71849 0.09508 0.0
H674 H 0.78709 0.68057 0.07586 0.0
H675 H 0.85366 0.65355 -0.00041 0.0
H676 H 0.90025 0.66339 0.03331 0.0
H677 H 0.88004 0.73132 0.08396 0.0
C678 C 0.77701 0.71061 0.0094 0.0
C679 C 0.76136 0.69445 0.98305 0.0
C680 C 0.77245 0.67408 0.96892 0.0
C681 C 0.79852 0.66977 0.9808 0.0
C682 C 0.81332 0.68603 0.00681 0.0
C683 C 0.80306 0.7062 0.02084 0.0
C684 C 0.82361 0.72167 0.04811 0.0
C685 C 0.84263 0.76058 0.04669 0.0
C686 C 0.80086 0.70872 0.07508 0.0
C687 C 0.8478 0.70789 0.04681 0.0
C688 C 0.84095 0.68673 0.02321 0.0
C689 C 0.85935 0.67024 0.018 0.0
C690 C 0.88565 0.67587 0.03718 0.0
C691 C 0.89378 0.69835 0.06082 0.0
C692 C 0.87449 0.71439 0.06573 0.0
H693 H 0.17278 0.86269 0.26644 0.0
H694 H 0.21706 0.92719 0.19162 0.0
H695 H 0.17387 0.88271 0.16017 0.0
H696 H 0.15124 0.78355 0.23326 0.0
H697 H 0.11128 0.76003 0.25185 0.0
H698 H 0.14539 0.79727 0.26834 0.0
H699 H 0.10591 0.82271 0.27346 0.0
H700 H 0.07184 0.78569 0.25654 0.0
H701 H 0.08526 0.82708 0.24183 0.0
H702 H 0.12415 0.83112 0.13672 0.0
H703 H 0.07501 0.77511 0.1234 0.0
H704 H 0.06568 0.74353 0.21281 0.0
C705 C 0.17349 0.8673 0.24342 0.0
C706 C 0.19828 0.89855 0.23153 0.0
C707 C 0.19807 0.90371 0.2013 0.0
C708 C 0.17366 0.87853 0.18323 0.0
C709 C 0.1493 0.84821 0.19564 0.0
C710 C 0.14907 0.84246 0.22506 0.0
C711 C 0.11995 0.80776 0.23296 0.0
C712 C 0.13276 0.78586 0.24744 0.0
C713 C 0.09423 0.81101 0.25235 0.0
C714 C 0.10504 0.79432 0.20326 0.0
C715 C 0.12161 0.81832 0.18206 0.0
C716 C 0.11116 0.81204 0.15314 0.0
C717 C 0.08327 0.78028 0.14572 0.0
C718 C 0.06691 0.75502 0.16702 0.0
C719 C 0.078 0.76232 0.19607 0.0
H720 H 0.97847 0.74835 0.4866 0.0
H721 H 0.92713 0.65237 0.53173 0.0
H722 H 0.87313 0.63915 0.5077 0.0
H723 H 0.90911 0.76591 0.49321 0.0
H724 H 0.91706 0.78633 0.45844 0.0
H725 H 0.95146 0.78742 0.4786 0.0
H726 H 0.96596 0.76136 0.43481 0.0
H727 H 0.93147 0.75997 0.41459 0.0
H728 H 0.93362 0.72185 0.41965 0.0
H729 H 0.82516 0.63558 0.47635 0.0
H730 H 0.78603 0.64503 0.4455 0.0
H731 H 0.86827 0.74508 0.42393 0.0
C732 C 0.95574 0.72468 0.49155 0.0
C733 C 0.95679 0.70138 0.51106 0.0
C734 C 0.92666 0.6707 0.51712 0.0
C735 C 0.896 0.6629 0.50339 0.0
C736 C 0.89581 0.68636 0.48409 0.0
C737 C 0.92482 0.71692 0.47863 0.0
C738 C 0.91761 0.7385 0.45813 0.0
C739 C 0.9242 0.77149 0.47298 0.0
C740 C 0.9384 0.74584 0.43014 0.0
C741 C 0.88013 0.71519 0.45255 0.0
C742 C 0.86805 0.68504 0.4674 0.0
C743 C 0.83432 0.65927 0.46492 0.0
C744 C 0.8123 0.66475 0.44727 0.0
C745 C 0.82393 0.69593 0.43267 0.0
C746 C 0.85842 0.72125 0.43528 0.0
H747 H 0.2488 0.97041 0.63996 0.0
H748 H 0.26139 0.913 0.70887 0.0
H749 H 0.21713 0.85977 0.6864 0.0
H750 H 0.15886 0.91984 0.63383 0.0
H751 H 0.15853 0.92366 0.59504 0.0
H752 H 0.19188 0.95683 0.61607 0.0
H753 H 0.23675 0.95162 0.58545 0.0
H754 H 0.20353 0.91833 0.56434 0.0
H755 H 0.23451 0.91112 0.5823 0.0
H756 H 0.17246 0.81241 0.65497 0.0
H757 H 0.12714 0.77564 0.62034 0.0
H758 H 0.1416 0.86439 0.57407 0.0
C759 C 0.24228 0.94668 0.65045 0.0
C760 C 0.25867 0.94596 0.67628 0.0
C761 C 0.24916 0.91429 0.68921 0.0
C762 C 0.22417 0.8839 0.67648 0.0
C763 C 0.20874 0.88557 0.6509 0.0
C764 C 0.21724 0.91623 0.63821 0.0
C765 C 0.19633 0.91133 0.6112 0.0
C766 C 0.17514 0.92895 0.61424 0.0
C767 C 0.21914 0.92384 0.58424 0.0
C768 C 0.17411 0.8731 0.61097 0.0
C769 C 0.18217 0.85862 0.63367 0.0
C770 C 0.16579 0.82355 0.63732 0.0
C771 C 0.14021 0.80286 0.61758 0.0
C772 C 0.13071 0.81726 0.59491 0.0
C773 C 0.14808 0.85284 0.59154 0.0
H774 H 0.27175 0.21889 0.83718 0.0
H775 H 0.37742 0.29559 0.82801 0.0
H776 H 0.38777 0.25556 0.79942 0.0
H777 H 0.28801 0.14747 0.84483 0.0
H778 H 0.25015 0.11831 0.82547 0.0
H779 H 0.25125 0.15265 0.84581 0.0
H780 H 0.23406 0.17297 0.79986 0.0
H781 H 0.23306 0.13882 0.77937 0.0
H782 H 0.25925 0.18196 0.76751 0.0
H783 H 0.38626 0.20812 0.7711 0.0
H784 H 0.37428 0.15628 0.74568 0.0
H785 H 0.26881 0.10899 0.77269 0.0
C786 C 0.29712 0.22689 0.82946 0.0
C787 C 0.32403 0.25999 0.835 0.0
C788 C 0.35679 0.27004 0.82436 0.0
C789 C 0.36279 0.24756 0.80802 0.0
C790 C 0.33578 0.21502 0.80288 0.0
C791 C 0.30366 0.20449 0.81351 0.0
C792 C 0.27926 0.16801 0.80493 0.0
C793 C 0.26641 0.14527 0.83186 0.0
C794 C 0.24967 0.16531 0.78683 0.0
C795 C 0.30241 0.16008 0.78698 0.0
C796 C 0.33491 0.18751 0.78635 0.0
C797 C 0.36087 0.18648 0.7714 0.0
C798 C 0.35355 0.15667 0.75669 0.0
C799 C 0.32029 0.12803 0.75652 0.0
C800 C 0.2945 0.13001 0.77218 0.0
H801 H 0.08772 0.35206 0.95782 0.0
H802 H 0.0661 0.28661 0.0323 0.0
H803 H 0.11083 0.27407 0.01659 0.0
H804 H 0.09964 0.29835 0.90864 0.0
H805 H 0.13241 0.3328 0.88824 0.0
H806 H 0.10044 0.33825 0.9064 0.0
H807 H 0.14709 0.3904 0.93365 0.0
H808 H 0.17927 0.38518 0.91558 0.0
H809 H 0.1783 0.38629 0.95454 0.0
H810 H 0.15726 0.26791 0.99188 0.0
H811 H 0.20043 0.26728 0.95998 0.0
H812 H 0.18989 0.33506 0.90052 0.0
C813 C 0.09285 0.33565 0.97124 0.0
C814 C 0.0739 0.32087 0.99672 0.0
C815 C 0.08061 0.29856 0.01298 0.0
C816 C 0.10591 0.29128 0.00416 0.0
C817 C 0.12392 0.30611 0.9788 0.0
C818 C 0.11752 0.32768 0.96249 0.0
C819 C 0.13899 0.33881 0.93525 0.0
C820 C 0.11653 0.3263 0.90803 0.0
C821 C 0.1623 0.37747 0.93474 0.0
C822 C 0.15907 0.32069 0.93902 0.0
C823 C 0.14992 0.30189 0.96423 0.0
C824 C 0.16454 0.28251 0.9721 0.0
C825 C 0.18897 0.28218 0.95372 0.0
C826 C 0.19869 0.30107 0.92766 0.0
C827 C 0.1835 0.32071 0.92042 0.0
H828 H 0.77601 0.11123 0.18686 0.0
H829 H 0.76079 0.02025 0.14329 0.0
H830 H 0.80516 0.05537 0.1079 0.0
H831 H 0.79411 0.16379 0.12303 0.0
H832 H 0.82624 0.20145 0.14077 0.0
H833 H 0.79165 0.16919 0.16142 0.0
H834 H 0.83438 0.16491 0.19568 0.0
H835 H 0.86909 0.19716 0.17519 0.0
H836 H 0.86611 0.15659 0.18072 0.0
H837 H 0.85126 0.10087 0.07685 0.0
H838 H 0.89871 0.15289 0.05532 0.0
H839 H 0.88732 0.21375 0.12146 0.0
C840 C 0.78187 0.09861 0.16983 0.0
C841 C 0.76412 0.06284 0.16744 0.0
C842 C 0.77308 0.04751 0.14504 0.0
C843 C 0.79847 0.06731 0.12493 0.0
C844 C 0.81518 0.10248 0.12775 0.0
C845 C 0.80747 0.11799 0.14984 0.0
C846 C 0.83021 0.15618 0.14886 0.0
C847 C 0.8093 0.17368 0.14318 0.0
C848 C 0.85119 0.16948 0.17677 0.0
C849 C 0.85242 0.15973 0.12312 0.0
C850 C 0.84287 0.12849 0.11088 0.0
C851 C 0.85906 0.12539 0.08639 0.0
C852 C 0.88587 0.15491 0.07429 0.0
C853 C 0.89663 0.18692 0.08701 0.0
C854 C 0.87965 0.18936 0.11166 0.0
H855 H 0.68353 0.85349 0.23619 0.0
H856 H 0.7507 0.93169 0.29629 0.0
H857 H 0.75266 0.88856 0.32671 0.0
H858 H 0.63529 0.79025 0.29135 0.0
H859 H 0.63088 0.75527 0.26977 0.0
H860 H 0.63446 0.79232 0.25243 0.0
H861 H 0.68578 0.79888 0.22284 0.0
H862 H 0.68234 0.76192 0.24019 0.0
H863 H 0.72176 0.80149 0.24156 0.0
H864 H 0.75043 0.83744 0.3495 0.0
H865 H 0.74026 0.78093 0.36458 0.0
H866 H 0.67184 0.73535 0.29193 0.0
C867 C 0.69829 0.86155 0.2559 0.0
C868 C 0.71734 0.89631 0.26345 0.0
C869 C 0.73649 0.90551 0.28948 0.0
C870 C 0.73763 0.8811 0.30711 0.0
C871 C 0.71919 0.84729 0.29879 0.0
C872 C 0.69957 0.83737 0.27398 0.0
C873 C 0.68215 0.7992 0.27013 0.0
C874 C 0.64339 0.78333 0.27098 0.0
C875 C 0.69371 0.78984 0.24202 0.0
C876 C 0.69511 0.78943 0.29659 0.0
C877 C 0.7167 0.81758 0.3127 0.0
C878 C 0.73315 0.81511 0.33731 0.0
C879 C 0.72727 0.78298 0.34573 0.0
C880 C 0.70474 0.75372 0.32985 0.0
C881 C 0.68849 0.75716 0.305 0.0
H882 H 0.47177 0.41347 0.3961 0.0
H883 H 0.4272 0.44603 0.4629 0.0
H884 H 0.47729 0.50344 0.46153 0.0
H885 H 0.55642 0.45935 0.42152 0.0
H886 H 0.57532 0.47019 0.38607 0.0
H887 H 0.53518 0.43211 0.3911 0.0
H888 H 0.50798 0.45174 0.35196 0.0
H889 H 0.54814 0.48975 0.34661 0.0
H890 H 0.51106 0.49263 0.35538 0.0
H891 H 0.53385 0.55648 0.45493 0.0
H892 H 0.59124 0.60201 0.44149 0.0
H893 H 0.59788 0.53502 0.37813 0.0
C894 C 0.4724 0.4328 0.41019 0.0
C895 C 0.44542 0.42538 0.42938 0.0
C896 C 0.44724 0.45134 0.44756 0.0
C897 C 0.47572 0.48394 0.44714 0.0
C898 C 0.50209 0.49027 0.42829 0.0
C899 C 0.50054 0.46554 0.40992 0.0
C900 C 0.53245 0.47883 0.39194 0.0
C901 C 0.55093 0.45893 0.39804 0.0
C902 C 0.52442 0.47821 0.35956 0.0
C903 C 0.55233 0.51474 0.40333 0.0
C904 C 0.53446 0.52087 0.42431 0.0
C905 C 0.54797 0.5521 0.43831 0.0
C906 C 0.58054 0.57786 0.43045 0.0
C907 C 0.59921 0.57223 0.40878 0.0
C908 C 0.58465 0.54013 0.39512 0.0
H909 H 0.03909 0.4647 0.62733 0.0
H910 H 0.04005 0.42854 0.54074 0.0
H911 H 0.03885 0.47811 0.52018 0.0
H912 H 0.98445 0.49923 0.61347 0.0
H913 H 1.00785 0.53593 0.63618 0.0
H914 H 1.00781 0.49721 0.64417 0.0
H915 H 0.07344 0.52937 0.64261 0.0
H916 H 0.07367 0.56819 0.63463 0.0
H917 H 0.09499 0.55342 0.61086 0.0
H918 H 0.03572 0.5299 0.50915 0.0
H919 H 0.03497 0.58369 0.5078 0.0
H920 H 0.03995 0.58913 0.60147 0.0
C921 C 0.03869 0.4672 0.60405 0.0
C922 C 0.03907 0.44273 0.58545 0.0
C923 C 0.03943 0.44699 0.55517 0.0
C924 C 0.03876 0.47498 0.54338 0.0
C925 C 0.03835 0.49869 0.56225 0.0
C926 C 0.03873 0.49539 0.59193 0.0
C927 C 0.03954 0.52531 0.60725 0.0
C928 C 1.00803 0.51371 0.62639 0.0
C929 C 0.07237 0.54525 0.62487 0.0
C930 C 0.03892 0.5456 0.58152 0.0
C931 C 0.03804 0.52958 0.55582 0.0
C932 C 0.03651 0.54275 0.52909 0.0
C933 C 0.03589 0.57314 0.52855 0.0
C934 C 0.0371 0.59021 0.55453 0.0
C935 C 0.03893 0.57643 0.58136 0.0
H936 H 0.58793 0.02481 0.72343 0.0
H937 H 0.59873 0.0503 0.81462 0.0
H938 H 0.54361 0.04864 0.81411 0.0
H939 H 0.55112 0.0758 0.70396 0.0
H940 H 0.52263 0.04648 0.67733 0.0
H941 H 0.56213 0.04797 0.68507 0.0
H942 H 0.52965 0.98378 0.69662 0.0
H943 H 0.49002 0.98212 0.68896 0.0
H944 H 0.49648 0.96773 0.72342 0.0
H945 H 0.489 0.04624 0.80368 0.0
H946 H 0.43759 0.04392 0.78362 0.0
H947 H 0.46167 0.0205 0.69889 0.0
C948 C 0.57828 0.02959 0.74324 0.0
C949 C 0.59705 0.03738 0.76915 0.0
C950 C 0.58431 0.04411 0.79468 0.0
C951 C 0.55315 0.04321 0.79458 0.0
C952 C 0.53515 0.03563 0.76872 0.0
C953 C 0.54717 0.02901 0.74347 0.0
C954 C 0.52324 0.02294 0.71845 0.0
C955 C 0.54083 0.04991 0.69481 0.0
C956 C 0.509 0.987 0.70614 0.0
C957 C 0.49594 0.027 0.73367 0.0
C958 C 0.5034 0.03434 0.76265 0.0
C959 C 0.4827 0.0403 0.78106 0.0
C960 C 0.45364 0.03899 0.76949 0.0
C961 C 0.44553 0.03174 0.73982 0.0
C962 C 0.46688 0.02539 0.72179 0.0
H963 H 0.56528 0.58809 0.89418 0.0
H964 H 0.56023 0.58402 0.98788 0.0
H965 H 0.50613 0.53006 0.98544 0.0
H966 H 0.47445 0.55134 0.88144 0.0
H967 H 0.47403 0.52731 0.85027 0.0
H968 H 0.51174 0.56652 0.85916 0.0
H969 H 0.54629 0.53538 0.86015 0.0
H970 H 0.50864 0.49604 0.85144 0.0
H971 H 0.53282 0.49909 0.88331 0.0
H972 H 0.45318 0.47697 0.9734 0.0
H973 H 0.40421 0.42651 0.95206 0.0
H974 H 0.44374 0.46287 0.8661 0.0
C975 C 0.55256 0.5758 0.91407 0.0
C976 C 0.56689 0.58995 0.94123 0.0
C977 C 0.54975 0.57327 0.96689 0.0
C978 C 0.519 0.54273 0.96573 0.0
C979 C 0.50574 0.52906 0.93873 0.0
C980 C 0.52187 0.54489 0.91331 0.0
C981 C 0.50235 0.52399 0.88722 0.0
C982 C 0.4899 0.54345 0.86842 0.0
C983 C 0.52381 0.51297 0.86949 0.0
C984 C 0.47301 0.49397 0.90204 0.0
C985 C 0.47538 0.49765 0.93174 0.0
C986 C 0.45105 0.47367 0.95017 0.0
C987 C 0.42338 0.44514 0.9379 0.0
C988 C 0.42046 0.44068 0.90754 0.0
C989 C 0.44573 0.46538 0.88942 0.0
H990 H 0.99644 0.43151 0.09681 0.0
H991 H 0.93624 0.4002 0.01822 0.0
H992 H 0.93568 0.45399 0.01753 0.0
H993 H 0.95289 0.4719 0.12874 0.0
H994 H 0.99043 0.50572 0.14528 0.0
H995 H 0.98723 0.46516 0.1392 0.0
H996 H 0.04339 0.49435 0.11023 0.0
H997 H 0.04659 0.53499 0.116 0.0
H998 H 0.04732 0.52072 0.07975 0.0
H999 H 0.94064 0.50995 0.0251 0.0
H1000 H 0.94742 0.56416 0.04277 0.0
H1001 H 1.00377 0.56035 0.11691 0.0
C1002 C 0.98321 0.43615 0.07952 0.0
C1003 C 0.96616 0.41167 0.05767 0.0
C1004 C 0.94899 0.41843 0.0354 0.0
C1005 C 0.94878 0.449 0.03467 0.0
C1006 C 0.96575 0.47261 0.05644 0.0
C1007 C 0.98235 0.46654 0.07866 0.0
C1008 C 0.99712 0.49578 0.10005 0.0
C1009 C 0.98095 0.48393 0.13009 0.0
C1010 C 0.03592 0.51244 0.10158 0.0
C1011 C 0.98643 0.51921 0.08618 0.0
C1012 C 0.96849 0.50527 0.06096 0.0
C1013 C 0.95481 0.52128 0.04471 0.0
C1014 C 0.95884 0.55204 0.05483 0.0
C1015 C 0.97644 0.5665 0.08092 0.0
C1016 C 0.99091 0.55016 0.09654 0.0
H1017 H 0.44419 1.00202 0.23526 0.0
H1018 H 0.38938 0.91395 0.29005 0.0
H1019 H 0.43733 0.90299 0.28776 0.0
H1020 H 0.48048 0.96405 0.18848 0.0
H1021 H 0.52017 1.00289 0.18403 0.0
H1022 H 0.48187 1.00425 0.19064 0.0
H1023 H 0.51018 0.04319 0.23495 0.0
H1024 H 0.54845 0.04163 0.22865 0.0
H1025 H 0.52768 0.0294 0.26331 0.0
H1026 H 0.49213 0.90331 0.28169 0.0
H1027 H 0.54748 0.91056 0.26767 0.0
H1028 H 0.56461 0.99491 0.21245 0.0
C1029 C 0.44236 0.98034 0.24652 0.0
C1030 C 0.41314 0.95861 0.26266 0.0
C1031 C 0.41146 0.93053 0.27727 0.0
C1032 C 0.43862 0.92429 0.27627 0.0
C1033 C 0.46716 0.94615 0.26028 0.0
C1034 C 0.46906 0.97329 0.24525 0.0
C1035 C 0.50221 0.992 0.2288 0.0
C1036 C 0.49579 0.9907 0.19604 0.0
C1037 C 0.52337 0.02873 0.23958 0.0
C1038 C 0.51856 0.97116 0.23702 0.0
C1039 C 0.49813 0.9452 0.25554 0.0
C1040 C 0.50815 0.92321 0.26678 0.0
C1041 C 0.53966 0.92741 0.25846 0.0
C1042 C 0.56071 0.95304 0.23857 0.0
C1043 C 0.54977 0.97528 0.22795 0.0
H1044 H 0.34771 0.32757 0.73033 0.0
H1045 H 0.328 0.41119 0.72549 0.0
H1046 H 0.32986 0.40971 0.67216 0.0
H1047 H 0.40761 0.35599 0.67246 0.0
H1048 H 0.39475 0.31428 0.65862 0.0
H1049 H 0.38933 0.32001 0.6964 0.0
H1050 H 0.32535 0.27608 0.69243 0.0
H1051 H 0.33058 0.27019 0.65461 0.0
H1052 H 0.29984 0.28191 0.66573 0.0
H1053 H 0.33684 0.40166 0.62014 0.0
H1054 H 0.34933 0.38752 0.57155 0.0
H1055 H 0.36469 0.30914 0.60887 0.0
C1056 C 0.34332 0.34512 0.71786 0.0
C1057 C 0.33772 0.36952 0.7318 0.0
C1058 C 0.3326 0.39256 0.71505 0.0
C1059 C 0.33343 0.39177 0.68483 0.0
C1060 C 0.33955 0.36784 0.67166 0.0
C1061 C 0.34449 0.34493 0.68752 0.0
C1062 C 0.35259 0.32321 0.66781 0.0
C1063 C 0.38818 0.32871 0.67421 0.0
C1064 C 0.32546 0.28561 0.6703 0.0
C1065 C 0.35134 0.3375 0.6385 0.0
C1066 C 0.34372 0.36321 0.64132 0.0
C1067 C 0.34256 0.38142 0.61758 0.0
C1068 C 0.34969 0.37336 0.59021 0.0
C1069 C 0.35764 0.34729 0.58686 0.0
C1070 C 0.35817 0.32888 0.61116 0.0
H1071 H 0.05892 0.40563 0.77466 0.0
H1072 H 0.98201 0.30701 0.74307 0.0
H1073 H 0.96122 0.28978 0.79269 0.0
H1074 H 0.07825 0.37833 0.83892 0.0
H1075 H 0.08299 0.41313 0.86093 0.0
H1076 H 0.09103 0.4189 0.82265 0.0
H1077 H 0.04716 0.43908 0.81746 0.0
H1078 H 0.03923 0.43374 0.85581 0.0
H1079 H 1.0046 0.41262 0.83063 0.0
H1080 H 0.95241 0.28099 0.84571 0.0
H1081 H 0.952 0.28375 0.89916 0.0
H1082 H 0.03136 0.38885 0.89663 0.0
C1083 C 0.03727 0.3807 0.77808 0.0
C1084 C 0.02252 0.35751 0.75496 0.0
C1085 C 0.99435 0.32496 0.76046 0.0
C1086 C 0.98215 0.31497 0.78857 0.0
C1087 C 0.99797 0.33801 0.81094 0.0
C1088 C 0.02447 0.3704 0.80604 0.0
C1089 C 0.03716 0.38997 0.83413 0.0
C1090 C 0.07457 0.4007 0.83946 0.0
C1091 C 0.0317 0.42067 0.83453 0.0
C1092 C 0.01412 0.36321 0.85554 0.0
C1093 C 0.99183 0.33337 0.84165 0.0
C1094 C 0.96939 0.30434 0.85683 0.0
C1095 C 0.96951 0.30598 0.88706 0.0
C1096 C 0.99165 0.33645 0.90163 0.0
C1097 C 0.01407 0.36544 0.88572 0.0
H1098 H 0.63818 0.9888 0.9311 0.0
H1099 H 0.73814 0.0775 0.92898 0.0
H1100 H 0.7418 0.07606 0.98245 0.0
H1101 H 0.60787 1.00566 0.99679 0.0
H1102 H 0.58714 0.96244 0.00926 0.0
H1103 H 0.5921 0.9713 0.97107 0.0
H1104 H 0.62276 0.93653 0.96554 0.0
H1105 H 0.61774 0.92741 0.0037 0.0
H1106 H 0.65932 0.94694 0.98763 0.0
H1107 H 0.73377 0.06528 0.03577 0.0
H1108 H 0.71684 0.04372 0.08546 0.0
H1109 H 0.62343 0.9595 0.0524 0.0
C1110 C 0.66064 0.00788 0.94212 0.0
C1111 C 0.68778 0.03357 0.92644 0.0
C1112 C 0.71721 0.05787 0.94105 0.0
C1113 C 0.71939 0.05721 0.97123 0.0
C1114 C 0.69212 0.03157 0.98622 0.0
C1115 C 0.66354 1.00701 0.97216 0.0
C1116 C 0.63871 0.98111 0.99321 0.0
C1117 C 0.60443 0.9801 0.99254 0.0
C1118 C 0.63439 0.94592 0.98716 0.0
C1119 C 0.65728 0.99561 0.0214 0.0
C1120 C 0.68805 0.02466 0.01688 0.0
C1121 C 0.70982 0.04244 0.0396 0.0
C1122 C 0.70004 0.02995 0.06771 0.0
C1123 C 0.66882 0.99995 0.07284 0.0
C1124 C 0.64717 0.98277 0.0493 0.0
H1125 H 0.63505 0.63697 0.1027 0.0
H1126 H 0.70871 0.74355 0.09274 0.0
H1127 H 0.72218 0.74752 0.14481 0.0
H1128 H 0.60428 0.64317 0.17286 0.0
H1129 H 0.59996 0.604 0.18607 0.0
H1130 H 0.59577 0.60932 0.14797 0.0
H1131 H 0.64299 0.59497 0.13673 0.0
H1132 H 0.64713 0.58935 0.17477 0.0
H1133 H 0.68368 0.61876 0.15418 0.0
H1134 H 0.72527 0.74084 0.19775 0.0
H1135 H 0.72301 0.72302 0.24796 0.0
H1136 H 0.65022 0.61932 0.22364 0.0
C1137 C 0.65398 0.66106 0.11162 0.0
C1138 C 0.67094 0.68998 0.09386 0.0
C1139 C 0.69581 0.72108 0.106 0.0
C1140 C 0.7034 0.72361 0.13554 0.0
C1141 C 0.68609 0.69471 0.1525 0.0
C1142 C 0.66222 0.66391 0.14102 0.0
C1143 C 0.64804 0.63662 0.16403 0.0
C1144 C 0.60974 0.62245 0.16796 0.0
C1145 C 0.65595 0.60826 0.157 0.0
C1146 C 0.66774 0.65699 0.19021 0.0
C1147 C 0.68915 0.69049 0.18305 0.0
C1148 C 0.70913 0.71453 0.20356 0.0
C1149 C 0.70781 0.70396 0.23213 0.0
C1150 C 0.68709 0.66943 0.23999 0.0
C1151 C 0.66648 0.64581 0.21861 0.0
H1152 H 0.97619 0.6132 0.27172 0.0
H1153 H 0.02141 0.719 0.24697 0.0
H1154 H 0.04199 0.73627 0.29638 0.0
H1155 H 0.94885 0.62292 0.34201 0.0
H1156 H 0.95811 0.59307 0.35941 0.0
H1157 H 0.94716 0.58836 0.32158 0.0
H1158 H 1.00301 0.58903 0.30916 0.0
H1159 H 0.01413 0.59374 0.34695 0.0
H1160 H 0.04289 0.62403 0.32109 0.0
H1161 H 0.05553 0.74281 0.3482 0.0
H1162 H 0.06296 0.73787 0.40043 0.0
H1163 H 0.012 0.6286 0.39259 0.0
C1164 C 0.9907 0.63997 0.27659 0.0
C1165 C 0.99707 0.66464 0.25521 0.0
C1166 C 0.01578 0.69946 0.26275 0.0
C1167 C 0.02779 0.70964 0.29084 0.0
C1168 C 0.02093 0.68477 0.31131 0.0
C1169 C 1.00293 0.65067 0.30469 0.0
C1170 C 0.99865 0.6293 0.33119 0.0
C1171 C 0.96095 0.60711 0.339 0.0
C1172 C 0.0157 0.60776 0.32683 0.0
C1173 C 0.01723 0.65686 0.35356 0.0
C1174 C 0.0296 0.68862 0.34153 0.0
C1175 C 0.04624 0.71813 0.35789 0.0
C1176 C 0.05028 0.71512 0.38746 0.0
C1177 C 0.03827 0.68295 0.40025 0.0
C1178 C 0.02174 0.65344 0.38307 0.0
H1179 H 0.38027 0.06245 0.54791 0.0
H1180 H 0.32836 0.96114 0.58339 0.0
H1181 H 0.31719 0.93707 0.53373 0.0
H1182 H 0.3219 0.04306 0.48664 0.0
H1183 H 0.35495 0.07137 0.46243 0.0
H1184 H 0.35846 0.08033 0.50066 0.0
H1185 H 0.41667 0.08294 0.50161 0.0
H1186 H 0.41329 0.07385 0.46345 0.0
H1187 H 0.41983 0.04732 0.48847 0.0
H1188 H 0.31748 0.9248 0.48116 0.0
H1189 H 0.3219 0.92419 0.42794 0.0
H1190 H 0.3676 0.03334 0.42585 0.0
C1191 C 0.36641 0.03524 0.54496 0.0
C1192 C 0.35534 0.01334 0.56899 0.0
C1193 C 0.33692 0.97794 0.5649 0.0
C1194 C 0.3306 0.96423 0.53694 0.0
C1195 C 0.34222 0.98648 0.51355 0.0
C1196 C 0.35909 0.02122 0.5172 0.0
C1197 C 0.36817 0.03944 0.48839 0.0
C1198 C 0.34977 0.05974 0.48429 0.0
C1199 C 0.40678 0.06223 0.48531 0.0
C1200 C 0.35461 0.00951 0.46794 0.0
C1201 C 0.34008 0.97924 0.48299 0.0
C1202 C 0.32811 0.94823 0.4691 0.0
C1203 C 0.33082 0.94812 0.439 0.0
C1204 C 0.34458 0.97867 0.42311 0.0
C1205 C 0.35647 0.00972 0.4377 0.0
loop_
_geom_bond_atom_site_label_1
_geom_bond_atom_site_label_2
_geom_bond_distance
_geom_bond_site_symmetry_2
_ccdc_geom_bond_type
Co0 N4 2.148 . S
Co0 N10 2.128 . S
Co0 N20 2.194 . S
Co0 O25 2.351 . S
Co0 O26 2.155 . S
Co0 O27 2.096 . S
C1 N4 1.301 . S
C1 N5 1.328 . S
C1 H6 0.930 . S
C2 C3 1.333 . S
C2 N4 1.317 . S
C2 H7 0.930 . S
C3 C2 1.333 . S
C3 N5 1.350 . S
C3 H29 0.931 . S
N4 Co0 2.148 . S
N4 C1 1.301 . S
N4 C2 1.317 . S
N5 C1 1.328 . S
N5 C3 1.350 . S
H6 C1 0.930 . S
H7 C2 0.930 . S
C8 O9 1.224 . S
C8 O27 1.247 . S
O9 C8 1.224 . S
N10 Co0 2.128 . S
N10 C11 1.355 . S
N10 C13 1.311 . S
C11 N10 1.355 . S
C11 C12 1.363 . S
C11 H23 0.929 . S
C12 C11 1.363 . S
C12 N14 1.375 . S
C12 H30 0.931 . S
C13 N10 1.311 . S
C13 N14 1.347 . S
C13 H24 0.929 . S
N14 C12 1.375 . S
N14 C13 1.347 . S
C15 C18 1.365 . S
C15 N20 1.328 . S
C15 H21 0.929 . S
C16 C17 1.362 . S
C16 C19 1.378 . S
C16 H31 0.929 . S
C17 C16 1.362 . S
C17 C18 1.366 . S
C18 C15 1.365 . S
C18 C17 1.366 . S
C18 H32 0.930 . S
C19 C16 1.378 . S
C19 N20 1.315 . S
C19 H22 0.930 . S
N20 Co0 2.194 . S
N20 C15 1.328 . S
N20 C19 1.315 . S
H21 C15 0.929 . S
H22 C19 0.930 . S
H23 C11 0.929 . S
H24 C13 0.929 . S
O25 Co0 2.351 . S
O25 C28 1.244 . S
O26 Co0 2.155 . S
O26 C28 1.240 . S
O27 Co0 2.096 . S
O27 C8 1.247 . S
C28 O25 1.244 . S
C28 O26 1.240 . S
H29 C3 0.931 . S
H30 C12 0.931 . S
H31 C16 0.929 . S
H32 C18 0.930 . S
Co33 N37 2.148 . S
Co33 N43 2.128 . S
Co33 N53 2.194 . S
Co33 O58 2.351 . S
Co33 O59 2.155 . S
Co33 O60 2.096 . S
C34 N37 1.301 . S
C34 N38 1.328 . S
C34 H39 0.930 . S
C35 C36 1.333 . S
C35 N37 1.317 . S
C35 H40 0.930 . S
C36 C35 1.333 . S
C36 N38 1.350 . S
C36 H62 0.931 . S
N37 Co33 2.148 . S
N37 C34 1.301 . S
N37 C35 1.317 . S
N38 C34 1.328 . S
N38 C36 1.350 . S
H39 C34 0.930 . S
H40 C35 0.930 . S
C41 O42 1.224 . S
C41 O60 1.247 1_655 S
O42 C41 1.224 . S
N43 Co33 2.128 . S
N43 C44 1.355 . S
N43 C46 1.311 . S
C44 N43 1.355 . S
C44 C45 1.363 . S
C44 H56 0.929 . S
C45 C44 1.363 . S
C45 N47 1.375 . S
C45 H63 0.931 . S
C46 N43 1.311 . S
C46 N47 1.347 . S
C46 H57 0.933 . S
N47 C45 1.375 . S
N47 C46 1.347 . S
C48 C51 1.365 . S
C48 N53 1.328 . S
C48 H54 0.929 . S
C49 C50 1.362 . S
C49 C52 1.378 . S
C49 H64 0.929 . S
C50 C49 1.362 . S
C50 C51 1.366 . S
C51 C48 1.365 . S
C51 C50 1.366 . S
C51 H65 0.930 . S
C52 C49 1.378 . S
C52 N53 1.315 . S
C52 H55 0.930 . S
N53 Co33 2.194 . S
N53 C48 1.328 . S
N53 C52 1.315 . S
H54 C48 0.929 . S
H55 C52 0.930 . S
H56 C44 0.929 . S
H57 C46 0.933 . S
O58 Co33 2.351 . S
O58 C61 1.244 . S
O59 Co33 2.155 . S
O59 C61 1.240 . S
O60 Co33 2.096 . S
O60 C41 1.247 1_455 S
C61 O58 1.244 . S
C61 O59 1.240 . S
H62 C36 0.931 . S
H63 C45 0.931 . S
H64 C49 0.929 . S
H65 C51 0.930 . S
Co66 N70 2.148 . S
Co66 N76 2.128 . S
Co66 N86 2.194 . S
Co66 O91 2.351 . S
Co66 O92 2.155 . S
Co66 O93 2.096 . S
C67 N70 1.301 . S
C67 N71 1.328 . S
C67 H72 0.930 . S
C68 C69 1.333 . S
C68 N70 1.317 . S
C68 H73 0.930 . S
C69 C68 1.333 . S
C69 N71 1.350 . S
C69 H95 0.931 . S
N70 Co66 2.148 . S
N70 C67 1.301 . S
N70 C68 1.317 . S
N71 C67 1.328 . S
N71 C69 1.350 . S
H72 C67 0.930 . S
H73 C68 0.930 . S
C74 O75 1.224 . S
C74 O93 1.247 1_565 S
O75 C74 1.224 . S
N76 Co66 2.128 . S
N76 C77 1.355 . S
N76 C79 1.311 . S
C77 N76 1.355 . S
C77 C78 1.363 . S
C77 H89 0.929 . S
C78 C77 1.363 . S
C78 N80 1.375 . S
C78 H96 0.931 . S
C79 N76 1.311 . S
C79 N80 1.347 . S
C79 H90 0.953 . S
N80 C78 1.375 . S
N80 C79 1.347 . S
C81 C84 1.365 . S
C81 N86 1.328 . S
C81 H87 0.929 . S
C82 C83 1.362 . S
C82 C85 1.378 . S
C82 H97 0.929 . S
C83 C82 1.362 . S
C83 C84 1.366 . S
C84 C81 1.365 . S
C84 C83 1.366 . S
C84 H98 0.930 . S
C85 C82 1.378 . S
C85 N86 1.315 . S
C85 H88 0.930 . S
N86 Co66 2.194 . S
N86 C81 1.328 . S
N86 C85 1.315 . S
H87 C81 0.929 . S
H88 C85 0.930 . S
H89 C77 0.929 . S
H90 C79 0.953 . S
O91 Co66 2.351 . S
O91 C94 1.244 . S
O92 Co66 2.155 . S
O92 C94 1.240 . S
O93 Co66 2.096 . S
O93 C74 1.247 1_545 S
C94 O91 1.244 . S
C94 O92 1.240 . S
H95 C69 0.931 . S
H96 C78 0.931 . S
H97 C82 0.929 . S
H98 C84 0.930 . S
Co99 N103 2.149 . S
Co99 N109 2.128 1_556 S
Co99 N119 2.194 . S
Co99 O124 2.351 1_556 S
Co99 O125 2.154 1_556 S
Co99 O126 2.095 1_556 S
C100 N103 1.301 . S
C100 N104 1.328 . S
C100 H105 0.930 . S
C101 C102 1.333 . S
C101 N103 1.317 . S
C101 H106 0.930 . S
C102 C101 1.333 . S
C102 N104 1.350 . S
C102 H128 0.931 . S
N103 Co99 2.149 . S
N103 C100 1.301 . S
N103 C101 1.317 . S
N104 C100 1.328 . S
N104 C102 1.350 . S
H105 C100 0.930 . S
H106 C101 0.930 . S
C107 O108 1.224 . S
C107 O126 1.247 1_556 S
O108 C107 1.224 . S
N109 Co99 2.128 1_554 S
N109 C110 1.355 . S
N109 C112 1.311 . S
C110 N109 1.355 . S
C110 C111 1.363 . S
C110 H122 0.929 . S
C111 C110 1.363 . S
C111 N113 1.375 . S
C111 H129 0.931 . S
C112 N109 1.311 . S
C112 N113 1.347 . S
C112 H123 0.929 . S
N113 C111 1.375 . S
N113 C112 1.347 . S
C114 C117 1.365 . S
C114 N119 1.328 . S
C114 H120 0.929 . S
C115 C116 1.362 . S
C115 C118 1.378 . S
C115 H130 0.929 . S
C116 C115 1.362 . S
C116 C117 1.366 . S
C117 C114 1.365 . S
C117 C116 1.366 . S
C117 H131 0.930 . S
C118 C115 1.378 . S
C118 N119 1.315 . S
C118 H121 0.930 . S
N119 Co99 2.194 . S
N119 C114 1.328 . S
N119 C118 1.315 . S
H120 C114 0.929 . S
H121 C118 0.930 . S
H122 C110 0.929 . S
H123 C112 0.929 . S
O124 Co99 2.351 1_554 S
O124 C127 1.244 . S
O125 Co99 2.154 1_554 S
O125 C127 1.240 . S
O126 Co99 2.095 1_554 S
O126 C107 1.247 1_554 S
C127 O124 1.244 . S
C127 O125 1.240 . S
H128 C102 0.931 . S
H129 C111 0.931 . S
H130 C115 0.929 . S
H131 C117 0.930 . S
Co132 N136 2.148 . S
Co132 N142 2.128 . S
Co132 N152 2.194 . S
Co132 O157 2.351 . S
Co132 O158 2.155 . S
Co132 O159 2.096 . S
C133 N136 1.301 . S
C133 N137 1.328 . S
C133 H138 0.930 . S
C134 C135 1.333 . S
C134 N136 1.317 . S
C134 H139 0.930 . S
C135 C134 1.333 . S
C135 N137 1.350 . S
C135 H161 0.931 . S
N136 Co132 2.148 . S
N136 C133 1.301 . S
N136 C134 1.317 . S
N137 C133 1.328 . S
N137 C135 1.350 . S
H138 C133 0.930 . S
H139 C134 0.930 . S
C140 O141 1.224 . S
C140 O159 1.247 1_455 S
O141 C140 1.224 . S
N142 Co132 2.128 . S
N142 C143 1.355 . S
N142 C145 1.311 . S
C143 N142 1.355 . S
C143 C144 1.363 . S
C143 H155 0.929 . S
C144 C143 1.363 . S
C144 N146 1.375 . S
C144 H162 0.931 . S
C145 N142 1.311 . S
C145 N146 1.347 . S
C145 H156 0.933 . S
N146 C144 1.375 . S
N146 C145 1.347 . S
C147 C150 1.365 . S
C147 N152 1.328 . S
C147 H153 0.929 . S
C148 C149 1.362 . S
C148 C151 1.378 . S
C148 H163 0.929 . S
C149 C148 1.362 . S
C149 C150 1.366 . S
C150 C147 1.365 . S
C150 C149 1.366 . S
C150 H164 0.930 . S
C151 C148 1.378 . S
C151 N152 1.315 . S
C151 H154 0.930 . S
N152 Co132 2.194 . S
N152 C147 1.328 . S
N152 C151 1.315 . S
H153 C147 0.929 . S
H154 C151 0.930 . S
H155 C143 0.929 . S
H156 C145 0.933 . S
O157 Co132 2.351 . S
O157 C160 1.244 . S
O158 Co132 2.155 . S
O158 C160 1.240 . S
O159 Co132 2.096 . S
O159 C140 1.247 1_655 S
C160 O157 1.244 . S
C160 O158 1.240 . S
H161 C135 0.931 . S
H162 C144 0.931 . S
H163 C148 0.929 . S
H164 C150 0.930 . S
Co165 N169 2.148 . S
Co165 N175 2.128 . S
Co165 N185 2.194 . S
Co165 O190 2.351 . S
Co165 O191 2.155 . S
Co165 O192 2.096 . S
C166 N169 1.301 . S
C166 N170 1.328 . S
C166 H171 0.930 . S
C167 C168 1.333 . S
C167 N169 1.317 . S
C167 H172 0.930 . S
C168 C167 1.333 . S
C168 N170 1.350 . S
C168 H194 0.931 . S
N169 Co165 2.148 . S
N169 C166 1.301 . S
N169 C167 1.317 . S
N170 C166 1.328 . S
N170 C168 1.350 . S
H171 C166 0.930 . S
H172 C167 0.930 . S
C173 O174 1.224 . S
C173 O192 1.247 1_545 S
O174 C173 1.224 . S
N175 Co165 2.128 . S
N175 C176 1.355 . S
N175 C178 1.311 . S
C176 N175 1.355 . S
C176 C177 1.363 . S
C176 H188 0.929 . S
C177 C176 1.363 . S
C177 N179 1.375 . S
C177 H195 0.931 . S
C178 N175 1.311 . S
C178 N179 1.347 . S
C178 H189 0.953 . S
N179 C177 1.375 . S
N179 C178 1.347 . S
C180 C183 1.365 . S
C180 N185 1.328 . S
C180 H186 0.929 . S
C181 C182 1.362 . S
C181 C184 1.378 . S
C181 H196 0.929 . S
C182 C181 1.362 . S
C182 C183 1.366 . S
C183 C180 1.365 . S
C183 C182 1.366 . S
C183 H197 0.930 . S
C184 C181 1.378 . S
C184 N185 1.315 . S
C184 H187 0.930 . S
N185 Co165 2.194 . S
N185 C180 1.328 . S
N185 C184 1.315 . S
H186 C180 0.929 . S
H187 C184 0.930 . S
H188 C176 0.929 . S
H189 C178 0.953 . S
O190 Co165 2.351 . S
O190 C193 1.244 . S
O191 Co165 2.155 . S
O191 C193 1.240 . S
O192 Co165 2.096 . S
O192 C173 1.247 1_565 S
C193 O190 1.244 . S
C193 O191 1.240 . S
H194 C168 0.931 . S
H195 C177 0.931 . S
H196 C181 0.929 . S
H197 C183 0.930 . S
Co198 N202 2.148 . S
Co198 N208 2.128 . S
Co198 N218 2.194 . S
Co198 O223 2.351 . S
Co198 O224 2.155 . S
Co198 O225 2.096 . S
C199 N202 1.301 . S
C199 N203 1.328 . S
C199 H204 0.930 . S
C200 C201 1.333 . S
C200 N202 1.317 . S
C200 H205 0.930 . S
C201 C200 1.333 . S
C201 N203 1.350 . S
C201 H227 0.931 . S
N202 Co198 2.148 . S
N202 C199 1.301 . S
N202 C200 1.317 . S
N203 C199 1.328 . S
N203 C201 1.350 . S
H204 C199 0.930 . S
H205 C200 0.930 . S
C206 O207 1.224 . S
C206 O225 1.247 . S
O207 C206 1.224 . S
N208 Co198 2.128 . S
N208 C209 1.355 . S
N208 C211 1.311 . S
C209 N208 1.355 . S
C209 C210 1.363 . S
C209 H221 0.929 . S
C210 C209 1.363 . S
C210 N212 1.375 . S
C210 H228 0.931 . S
C211 N208 1.311 . S
C211 N212 1.347 . S
C211 H222 0.929 . S
N212 C210 1.375 . S
N212 C211 1.347 . S
C213 C216 1.365 . S
C213 N218 1.328 . S
C213 H219 0.929 . S
C214 C215 1.362 . S
C214 C217 1.378 . S
C214 H229 0.929 . S
C215 C214 1.362 . S
C215 C216 1.366 . S
C216 C213 1.365 . S
C216 C215 1.366 . S
C216 H230 0.930 . S
C217 C214 1.378 . S
C217 N218 1.315 . S
C217 H220 0.930 . S
N218 Co198 2.194 . S
N218 C213 1.328 . S
N218 C217 1.315 . S
H219 C213 0.929 . S
H220 C217 0.930 . S
H221 C209 0.929 . S
H222 C211 0.929 . S
O223 Co198 2.351 . S
O223 C226 1.244 . S
O224 Co198 2.155 . S
O224 C226 1.240 . S
O225 Co198 2.096 . S
O225 C206 1.247 . S
C226 O223 1.244 . S
C226 O224 1.240 . S
H227 C201 0.931 . S
H228 C210 0.931 . S
H229 C214 0.929 . S
H230 C216 0.930 . S
Co231 N235 2.148 . S
Co231 N241 2.128 . S
Co231 N251 2.194 . S
Co231 O256 2.351 . S
Co231 O257 2.155 . S
Co231 O258 2.096 . S
C232 N235 1.301 . S
C232 N236 1.328 . S
C232 H237 0.930 . S
C233 C234 1.333 . S
C233 N235 1.317 . S
C233 H238 0.930 . S
C234 C233 1.333 . S
C234 N236 1.350 . S
C234 H260 0.931 . S
N235 Co231 2.148 . S
N235 C232 1.301 . S
N235 C233 1.317 . S
N236 C232 1.328 . S
N236 C234 1.350 . S
H237 C232 0.930 . S
H238 C233 0.930 . S
C239 O240 1.224 . S
C239 O258 1.247 1_655 S
O240 C239 1.224 . S
N241 Co231 2.128 . S
N241 C242 1.355 . S
N241 C244 1.311 . S
C242 N241 1.355 . S
C242 C243 1.363 . S
C242 H254 0.929 . S
C243 C242 1.363 . S
C243 N245 1.375 . S
C243 H261 0.931 . S
C244 N241 1.311 . S
C244 N245 1.347 . S
C244 H255 0.953 . S
N245 C243 1.375 . S
N245 C244 1.347 . S
C246 C249 1.365 . S
C246 N251 1.328 . S
C246 H252 0.929 . S
C247 C248 1.362 . S
C247 C250 1.378 . S
C247 H262 0.929 . S
C248 C247 1.362 . S
C248 C249 1.366 . S
C249 C246 1.365 . S
C249 C248 1.366 . S
C249 H263 0.930 . S
C250 C247 1.378 . S
C250 N251 1.315 . S
C250 H253 0.930 . S
N251 Co231 2.194 . S
N251 C246 1.328 . S
N251 C250 1.315 . S
H252 C246 0.929 . S
H253 C250 0.930 . S
H254 C242 0.929 . S
H255 C244 0.953 . S
O256 Co231 2.351 . S
O256 C259 1.244 . S
O257 Co231 2.155 . S
O257 C259 1.240 . S
O258 Co231 2.096 . S
O258 C239 1.247 1_455 S
C259 O256 1.244 . S
C259 O257 1.240 . S
H260 C234 0.931 . S
H261 C243 0.931 . S
H262 C247 0.929 . S
H263 C249 0.930 . S
Co264 N268 2.148 . S
Co264 N274 2.128 . S
Co264 N284 2.194 . S
Co264 O289 2.351 . S
Co264 O290 2.155 . S
Co264 O291 2.096 . S
C265 N268 1.301 . S
C265 N269 1.328 . S
C265 H270 0.930 . S
C266 C267 1.333 . S
C266 N268 1.317 . S
C266 H271 0.930 . S
C267 C266 1.333 . S
C267 N269 1.350 . S
C267 H293 0.931 . S
N268 Co264 2.148 . S
N268 C265 1.301 . S
N268 C266 1.317 . S
N269 C265 1.328 . S
N269 C267 1.350 . S
H270 C265 0.930 . S
H271 C266 0.930 . S
C272 O273 1.224 . S
C272 O291 1.247 1_565 S
O273 C272 1.224 . S
N274 Co264 2.128 . S
N274 C275 1.355 . S
N274 C277 1.311 . S
C275 N274 1.355 . S
C275 C276 1.363 . S
C275 H287 0.929 . S
C276 C275 1.363 . S
C276 N278 1.375 . S
C276 H294 0.931 . S
C277 N274 1.311 . S
C277 N278 1.347 . S
C277 H288 0.933 . S
N278 C276 1.375 . S
N278 C277 1.347 . S
C279 C282 1.365 . S
C279 N284 1.328 . S
C279 H285 0.929 . S
C280 C281 1.362 . S
C280 C283 1.378 . S
C280 H295 0.929 . S
C281 C280 1.362 . S
C281 C282 1.366 . S
C282 C279 1.365 . S
C282 C281 1.366 . S
C282 H296 0.930 . S
C283 C280 1.378 . S
C283 N284 1.315 . S
C283 H286 0.930 . S
N284 Co264 2.194 . S
N284 C279 1.328 . S
N284 C283 1.315 . S
H285 C279 0.929 . S
H286 C283 0.930 . S
H287 C275 0.929 . S
H288 C277 0.933 . S
O289 Co264 2.351 . S
O289 C292 1.244 . S
O290 Co264 2.155 . S
O290 C292 1.240 . S
O291 Co264 2.096 . S
O291 C272 1.247 1_545 S
C292 O289 1.244 . S
C292 O290 1.240 . S
H293 C267 0.931 . S
H294 C276 0.931 . S
H295 C280 0.929 . S
H296 C282 0.930 . S
Co297 N301 2.148 . S
Co297 N307 2.128 . S
Co297 N317 2.194 . S
Co297 O322 2.351 . S
Co297 O323 2.155 . S
Co297 O324 2.096 . S
C298 N301 1.301 . S
C298 N302 1.328 . S
C298 H303 0.930 . S
C299 C300 1.333 . S
C299 N301 1.317 . S
C299 H304 0.930 . S
C300 C299 1.333 . S
C300 N302 1.350 . S
C300 H326 0.931 . S
N301 Co297 2.148 . S
N301 C298 1.301 . S
N301 C299 1.317 . S
N302 C298 1.328 . S
N302 C300 1.350 . S
H303 C298 0.930 . S
H304 C299 0.930 . S
C305 O306 1.224 . S
C305 O324 1.247 . S
O306 C305 1.224 . S
N307 Co297 2.128 . S
N307 C308 1.355 . S
N307 C310 1.311 . S
C308 N307 1.355 . S
C308 C309 1.363 . S
C308 H320 0.929 . S
C309 C308 1.363 . S
C309 N311 1.375 . S
C309 H327 0.931 . S
C310 N307 1.311 . S
C310 N311 1.347 . S
C310 H321 0.929 . S
N311 C309 1.375 . S
N311 C310 1.347 . S
C312 C315 1.365 . S
C312 N317 1.328 . S
C312 H318 0.929 . S
C313 C314 1.362 . S
C313 C316 1.378 . S
C313 H328 0.929 . S
C314 C313 1.362 . S
C314 C315 1.366 . S
C315 C312 1.365 . S
C315 C314 1.366 . S
C315 H329 0.930 . S
C316 C313 1.378 . S
C316 N317 1.315 . S
C316 H319 0.930 . S
N317 Co297 2.194 . S
N317 C312 1.328 . S
N317 C316 1.315 . S
H318 C312 0.929 . S
H319 C316 0.930 . S
H320 C308 0.929 . S
H321 C310 0.929 . S
O322 Co297 2.351 . S
O322 C325 1.244 . S
O323 Co297 2.155 . S
O323 C325 1.240 . S
O324 Co297 2.096 . S
O324 C305 1.247 . S
C325 O322 1.244 . S
C325 O323 1.240 . S
H326 C300 0.931 . S
H327 C309 0.931 . S
H328 C313 0.929 . S
H329 C315 0.930 . S
Co330 N334 2.148 1_556 S
Co330 N340 2.128 . S
Co330 N350 2.194 1_556 S
Co330 O355 2.351 . S
Co330 O356 2.155 . S
Co330 O357 2.096 . S
C331 N334 1.301 . S
C331 N335 1.328 . S
C331 H336 0.930 . S
C332 C333 1.333 . S
C332 N334 1.317 . S
C332 H337 0.930 . S
C333 C332 1.333 . S
C333 N335 1.350 . S
C333 H359 0.931 . S
N334 Co330 2.148 1_554 S
N334 C331 1.301 . S
N334 C332 1.317 . S
N335 C331 1.328 . S
N335 C333 1.350 . S
H336 C331 0.930 . S
H337 C332 0.930 . S
C338 O339 1.224 1_556 S
C338 O357 1.247 1_455 S
O339 C338 1.224 1_554 S
N340 Co330 2.128 . S
N340 C341 1.355 . S
N340 C343 1.311 . S
C341 N340 1.355 . S
C341 C342 1.363 . S
C341 H353 0.929 . S
C342 C341 1.363 . S
C342 N344 1.375 . S
C342 H360 0.931 . S
C343 N340 1.311 . S
C343 N344 1.347 . S
C343 H354 0.953 . S
N344 C342 1.375 . S
N344 C343 1.347 . S
C345 C348 1.365 . S
C345 N350 1.328 . S
C345 H351 0.929 . S
C346 C347 1.362 . S
C346 C349 1.378 . S
C346 H361 0.929 . S
C347 C346 1.362 . S
C347 C348 1.366 . S
C348 C345 1.365 . S
C348 C347 1.366 . S
C348 H362 0.930 . S
C349 C346 1.378 . S
C349 N350 1.315 . S
C349 H352 0.930 . S
N350 Co330 2.194 1_554 S
N350 C345 1.328 . S
N350 C349 1.315 . S
H351 C345 0.929 . S
H352 C349 0.930 . S
H353 C341 0.929 . S
H354 C343 0.953 . S
O355 Co330 2.351 . S
O355 C358 1.244 . S
O356 Co330 2.155 . S
O356 C358 1.240 . S
O357 Co330 2.096 . S
O357 C338 1.247 1_655 S
C358 O355 1.244 . S
C358 O356 1.240 . S
H359 C333 0.931 . S
H360 C342 0.931 . S
H361 C346 0.929 . S
H362 C348 0.930 . S
Co363 N367 2.148 . S
Co363 N373 2.128 . S
Co363 N383 2.194 . S
Co363 O388 2.351 . S
Co363 O389 2.155 . S
Co363 O390 2.096 . S
C364 N367 1.301 . S
C364 N368 1.328 . S
C364 H369 0.930 . S
C365 C366 1.333 . S
C365 N367 1.317 . S
C365 H370 0.930 . S
C366 C365 1.333 . S
C366 N368 1.350 . S
C366 H392 0.931 . S
N367 Co363 2.148 . S
N367 C364 1.301 . S
N367 C365 1.317 . S
N368 C364 1.328 . S
N368 C366 1.350 . S
H369 C364 0.930 . S
H370 C365 0.930 . S
C371 O372 1.224 . S
C371 O390 1.247 1_545 S
O372 C371 1.224 . S
N373 Co363 2.128 . S
N373 C374 1.355 . S
N373 C376 1.311 . S
C374 N373 1.355 . S
C374 C375 1.363 . S
C374 H386 0.929 . S
C375 C374 1.363 . S
C375 N377 1.375 . S
C375 H393 0.931 . S
C376 N373 1.311 . S
C376 N377 1.347 . S
C376 H387 0.933 . S
N377 C375 1.375 . S
N377 C376 1.347 . S
C378 C381 1.365 . S
C378 N383 1.328 . S
C378 H384 0.929 . S
C379 C380 1.362 . S
C379 C382 1.378 . S
C379 H394 0.929 . S
C380 C379 1.362 . S
C380 C381 1.366 . S
C381 C378 1.365 . S
C381 C380 1.366 . S
C381 H395 0.930 . S
C382 C379 1.378 . S
C382 N383 1.315 . S
C382 H385 0.930 . S
N383 Co363 2.194 . S
N383 C378 1.328 . S
N383 C382 1.315 . S
H384 C378 0.929 . S
H385 C382 0.930 . S
H386 C374 0.929 . S
H387 C376 0.933 . S
O388 Co363 2.351 . S
O388 C391 1.244 . S
O389 Co363 2.155 . S
O389 C391 1.240 . S
O390 Co363 2.096 . S
O390 C371 1.247 1_565 S
C391 O388 1.244 . S
C391 O389 1.240 . S
H392 C366 0.931 . S
H393 C375 0.931 . S
H394 C379 0.929 . S
H395 C381 0.930 . S
H396 C408 0.930 . S
H397 C410 0.930 . S
H398 C411 0.930 . S
H399 C415 0.959 . S
H400 C415 0.959 . S
H401 C415 0.961 . S
H402 C416 0.960 . S
H403 C416 0.961 . S
H404 C416 0.959 . S
H405 C419 0.929 . S
H406 C420 0.931 . S
H407 C422 0.930 . S
C408 H396 0.930 . S
C408 C409 1.399 . S
C408 C413 1.399 . S
C409 C408 1.399 . S
C409 C410 1.376 . S
C410 H397 0.930 . S
C410 C409 1.376 . S
C410 C411 1.388 . S
C411 H398 0.930 . S
C411 C410 1.388 . S
C411 C412 1.390 . S
C412 C411 1.390 . S
C412 C413 1.394 . S
C412 C418 1.465 . S
C413 C408 1.399 . S
C413 C412 1.394 . S
C413 C414 1.516 . S
C414 C413 1.516 . S
C414 C415 1.502 . S
C414 C416 1.561 . S
C414 C417 1.526 . S
C415 H399 0.959 . S
C415 H400 0.959 . S
C415 H401 0.961 . S
C415 C414 1.502 . S
C416 H402 0.960 . S
C416 H403 0.961 . S
C416 H404 0.959 . S
C416 C414 1.561 . S
C417 C414 1.526 . S
C417 C418 1.396 . S
C417 C422 1.390 . S
C418 C412 1.465 . S
C418 C417 1.396 . S
C418 C419 1.399 . S
C419 H405 0.929 . S
C419 C418 1.399 . S
C419 C420 1.385 . S
C420 H406 0.931 . S
C420 C419 1.385 . S
C420 C421 1.389 . S
C421 C420 1.389 . S
C421 C422 1.387 . S
C422 H407 0.930 . S
C422 C417 1.390 . S
C422 C421 1.387 . S
H423 C435 0.930 . S
H424 C437 0.930 . S
H425 C438 0.930 . S
H426 C442 0.959 . S
H427 C442 0.959 . S
H428 C442 0.961 . S
H429 C443 0.960 . S
H430 C443 0.961 . S
H431 C443 0.959 . S
H432 C446 0.929 . S
H433 C447 0.931 . S
H434 C449 0.930 . S
C435 H423 0.930 . S
C435 C436 1.399 . S
C435 C440 1.399 . S
C436 C435 1.399 . S
C436 C437 1.376 . S
C437 H424 0.930 . S
C437 C436 1.376 . S
C437 C438 1.388 . S
C438 H425 0.930 . S
C438 C437 1.388 . S
C438 C439 1.390 . S
C439 C438 1.390 . S
C439 C440 1.394 . S
C439 C445 1.465 . S
C440 C435 1.399 . S
C440 C439 1.394 . S
C440 C441 1.516 . S
C441 C440 1.516 . S
C441 C442 1.502 . S
C441 C443 1.561 . S
C441 C444 1.526 . S
C442 H426 0.959 . S
C442 H427 0.959 . S
C442 H428 0.961 . S
C442 C441 1.502 . S
C443 H429 0.960 . S
C443 H430 0.961 . S
C443 H431 0.959 . S
C443 C441 1.561 . S
C444 C441 1.526 . S
C444 C445 1.396 . S
C444 C449 1.390 . S
C445 C439 1.465 . S
C445 C444 1.396 . S
C445 C446 1.399 . S
C446 H432 0.929 . S
C446 C445 1.399 . S
C446 C447 1.385 . S
C447 H433 0.931 . S
C447 C446 1.385 . S
C447 C448 1.389 . S
C448 C447 1.389 . S
C448 C449 1.387 . S
C449 H434 0.930 . S
C449 C444 1.390 . S
C449 C448 1.387 . S
H450 C462 0.930 . S
H451 C464 0.930 . S
H452 C465 0.930 . S
H453 C469 0.959 . S
H454 C469 0.959 . S
H455 C469 0.961 . S
H456 C470 0.960 . S
H457 C470 0.961 . S
H458 C470 0.959 . S
H459 C473 0.929 . S
H460 C474 0.931 . S
H461 C476 0.930 . S
C462 H450 0.930 . S
C462 C463 1.399 . S
C462 C467 1.399 . S
C463 C462 1.399 . S
C463 C464 1.376 . S
C464 H451 0.930 . S
C464 C463 1.376 . S
C464 C465 1.388 . S
C465 H452 0.930 . S
C465 C464 1.388 . S
C465 C466 1.390 . S
C466 C465 1.390 . S
C466 C467 1.394 . S
C466 C472 1.465 . S
C467 C462 1.399 . S
C467 C466 1.394 . S
C467 C468 1.516 . S
C468 C467 1.516 . S
C468 C469 1.502 . S
C468 C470 1.561 . S
C468 C471 1.526 . S
C469 H453 0.959 . S
C469 H454 0.959 . S
C469 H455 0.961 . S
C469 C468 1.502 . S
C470 H456 0.960 . S
C470 H457 0.961 . S
C470 H458 0.959 . S
C470 C468 1.561 . S
C471 C468 1.526 . S
C471 C472 1.396 . S
C471 C476 1.390 . S
C472 C466 1.465 . S
C472 C471 1.396 . S
C472 C473 1.399 . S
C473 H459 0.929 . S
C473 C472 1.399 . S
C473 C474 1.385 . S
C474 H460 0.931 . S
C474 C473 1.385 . S
C474 C475 1.389 . S
C475 C474 1.389 . S
C475 C476 1.387 . S
C476 H461 0.930 . S
C476 C471 1.390 . S
C476 C475 1.387 . S
H477 C489 0.930 . S
H478 C491 0.930 . S
H479 C492 0.930 . S
H480 C496 0.959 . S
H481 C496 0.959 . S
H482 C496 0.961 . S
H483 C497 0.960 . S
H484 C497 0.961 . S
H485 C497 0.959 . S
H486 C500 0.929 . S
H487 C501 0.931 . S
H488 C503 0.930 . S
C489 H477 0.930 . S
C489 C490 1.399 . S
C489 C494 1.399 . S
C490 C489 1.399 . S
C490 C491 1.376 . S
C491 H478 0.930 . S
C491 C490 1.376 . S
C491 C492 1.388 . S
C492 H479 0.930 . S
C492 C491 1.388 . S
C492 C493 1.390 . S
C493 C492 1.390 . S
C493 C494 1.394 . S
C493 C499 1.465 . S
C494 C489 1.399 . S
C494 C493 1.394 . S
C494 C495 1.516 . S
C495 C494 1.516 . S
C495 C496 1.502 . S
C495 C497 1.561 . S
C495 C498 1.526 . S
C496 H480 0.959 . S
C496 H481 0.959 . S
C496 H482 0.961 . S
C496 C495 1.502 . S
C497 H483 0.960 . S
C497 H484 0.961 . S
C497 H485 0.959 . S
C497 C495 1.561 . S
C498 C495 1.526 . S
C498 C499 1.396 . S
C498 C503 1.390 . S
C499 C493 1.465 . S
C499 C498 1.396 . S
C499 C500 1.399 . S
C500 H486 0.929 . S
C500 C499 1.399 . S
C500 C501 1.385 . S
C501 H487 0.931 . S
C501 C500 1.385 . S
C501 C502 1.389 . S
C502 C501 1.389 . S
C502 C503 1.387 . S
C503 H488 0.930 . S
C503 C498 1.390 . S
C503 C502 1.387 . S
H504 C516 0.930 . S
H505 C518 0.930 . S
H506 C519 0.930 . S
H507 C523 0.959 . S
H508 C523 0.959 . S
H509 C523 0.961 . S
H510 C524 0.960 . S
H511 C524 0.961 . S
H512 C524 0.959 . S
H513 C527 0.929 . S
H514 C528 0.931 . S
H515 C530 0.930 . S
C516 H504 0.930 . S
C516 C517 1.399 . S
C516 C521 1.399 . S
C517 C516 1.399 . S
C517 C518 1.376 . S
C518 H505 0.930 . S
C518 C517 1.376 . S
C518 C519 1.388 . S
C519 H506 0.930 . S
C519 C518 1.388 . S
C519 C520 1.390 . S
C520 C519 1.390 . S
C520 C521 1.394 . S
C520 C526 1.465 . S
C521 C516 1.399 . S
C521 C520 1.394 . S
C521 C522 1.516 . S
C522 C521 1.516 . S
C522 C523 1.502 . S
C522 C524 1.561 . S
C522 C525 1.526 . S
C523 H507 0.959 . S
C523 H508 0.959 . S
C523 H509 0.961 . S
C523 C522 1.502 . S
C524 H510 0.960 . S
C524 H511 0.961 . S
C524 H512 0.959 . S
C524 C522 1.561 . S
C525 C522 1.526 . S
C525 C526 1.396 . S
C525 C530 1.390 . S
C526 C520 1.465 . S
C526 C525 1.396 . S
C526 C527 1.399 . S
C527 H513 0.929 . S
C527 C526 1.399 . S
C527 C528 1.385 . S
C528 H514 0.931 . S
C528 C527 1.385 . S
C528 C529 1.389 . S
C529 C528 1.389 . S
C529 C530 1.387 . S
C530 H515 0.930 . S
C530 C525 1.390 . S
C530 C529 1.387 . S
H531 C543 0.930 . S
H532 C545 0.930 . S
H533 C546 0.930 . S
H534 C550 0.959 . S
H535 C550 0.959 . S
H536 C550 0.961 . S
H537 C551 0.960 . S
H538 C551 0.961 . S
H539 C551 0.959 . S
H540 C554 0.929 . S
H541 C555 0.931 . S
H542 C557 0.930 . S
C543 H531 0.930 . S
C543 C544 1.399 . S
C543 C548 1.399 . S
C544 C543 1.399 . S
C544 C545 1.376 . S
C545 H532 0.930 . S
C545 C544 1.376 . S
C545 C546 1.388 . S
C546 H533 0.930 . S
C546 C545 1.388 . S
C546 C547 1.390 . S
C547 C546 1.390 . S
C547 C548 1.394 . S
C547 C553 1.465 . S
C548 C543 1.399 . S
C548 C547 1.394 . S
C548 C549 1.516 . S
C549 C548 1.516 . S
C549 C550 1.502 . S
C549 C551 1.561 . S
C549 C552 1.526 . S
C550 H534 0.959 . S
C550 H535 0.959 . S
C550 H536 0.961 . S
C550 C549 1.502 . S
C551 H537 0.960 . S
C551 H538 0.961 . S
C551 H539 0.959 . S
C551 C549 1.561 . S
C552 C549 1.526 . S
C552 C553 1.396 . S
C552 C557 1.390 . S
C553 C547 1.465 . S
C553 C552 1.396 . S
C553 C554 1.399 . S
C554 H540 0.929 . S
C554 C553 1.399 . S
C554 C555 1.385 . S
C555 H541 0.931 . S
C555 C554 1.385 . S
C555 C556 1.389 . S
C556 C555 1.389 . S
C556 C557 1.387 . S
C557 H542 0.930 . S
C557 C552 1.390 . S
C557 C556 1.387 . S
H558 C570 0.930 . S
H559 C572 0.930 . S
H560 C573 0.930 . S
H561 C577 0.959 . S
H562 C577 0.959 . S
H563 C577 0.961 . S
H564 C578 0.960 . S
H565 C578 0.961 . S
H566 C578 0.959 . S
H567 C581 0.929 . S
H568 C582 0.931 . S
H569 C584 0.930 . S
C570 H558 0.930 . S
C570 C571 1.399 . S
C570 C575 1.399 . S
C571 C570 1.399 . S
C571 C572 1.376 . S
C572 H559 0.930 . S
C572 C571 1.376 . S
C572 C573 1.388 . S
C573 H560 0.930 . S
C573 C572 1.388 . S
C573 C574 1.390 . S
C574 C573 1.390 . S
C574 C575 1.394 . S
C574 C580 1.465 . S
C575 C570 1.399 . S
C575 C574 1.394 . S
C575 C576 1.516 . S
C576 C575 1.516 . S
C576 C577 1.502 . S
C576 C578 1.561 . S
C576 C579 1.526 . S
C577 H561 0.959 . S
C577 H562 0.959 . S
C577 H563 0.961 . S
C577 C576 1.502 . S
C578 H564 0.960 . S
C578 H565 0.961 . S
C578 H566 0.959 . S
C578 C576 1.561 . S
C579 C576 1.526 . S
C579 C580 1.396 . S
C579 C584 1.390 . S
C580 C574 1.465 . S
C580 C579 1.396 . S
C580 C581 1.399 . S
C581 H567 0.929 . S
C581 C580 1.399 . S
C581 C582 1.385 . S
C582 H568 0.931 . S
C582 C581 1.385 . S
C582 C583 1.389 . S
C583 C582 1.389 . S
C583 C584 1.387 . S
C584 H569 0.930 . S
C584 C579 1.390 . S
C584 C583 1.387 . S
H585 C597 0.930 . S
H586 C599 0.930 . S
H587 C600 0.930 . S
H588 C604 0.959 . S
H589 C604 0.959 . S
H590 C604 0.961 . S
H591 C605 0.960 . S
H592 C605 0.961 . S
H593 C605 0.959 . S
H594 C608 0.929 . S
H595 C609 0.931 . S
H596 C611 0.930 . S
C597 H585 0.930 . S
C597 C598 1.399 . S
C597 C602 1.399 . S
C598 C597 1.399 . S
C598 C599 1.376 . S
C599 H586 0.930 . S
C599 C598 1.376 . S
C599 C600 1.388 . S
C600 H587 0.930 . S
C600 C599 1.388 . S
C600 C601 1.390 . S
C601 C600 1.390 . S
C601 C602 1.394 . S
C601 C607 1.465 . S
C602 C597 1.399 . S
C602 C601 1.394 . S
C602 C603 1.516 . S
C603 C602 1.516 . S
C603 C604 1.502 . S
C603 C605 1.561 . S
C603 C606 1.526 . S
C604 H588 0.959 . S
C604 H589 0.959 . S
C604 H590 0.961 . S
C604 C603 1.502 . S
C605 H591 0.960 . S
C605 H592 0.961 . S
C605 H593 0.959 . S
C605 C603 1.561 . S
C606 C603 1.526 . S
C606 C607 1.396 . S
C606 C611 1.390 . S
C607 C601 1.465 . S
C607 C606 1.396 . S
C607 C608 1.399 . S
C608 H594 0.929 . S
C608 C607 1.399 . S
C608 C609 1.385 . S
C609 H595 0.931 . S
C609 C608 1.385 . S
C609 C610 1.389 . S
C610 C609 1.389 . S
C610 C611 1.387 . S
C611 H596 0.930 . S
C611 C606 1.390 . S
C611 C610 1.387 . S
H612 C624 0.930 . S
H613 C626 0.930 . S
H614 C627 0.930 . S
H615 C631 0.959 . S
H616 C631 0.959 . S
H617 C631 0.961 . S
H618 C632 0.960 . S
H619 C632 0.961 . S
H620 C632 0.959 . S
H621 C635 0.929 . S
H622 C636 0.931 . S
H623 C638 0.930 . S
C624 H612 0.930 . S
C624 C625 1.399 . S
C624 C629 1.399 . S
C625 C624 1.399 . S
C625 C626 1.376 . S
C626 H613 0.930 . S
C626 C625 1.376 . S
C626 C627 1.388 . S
C627 H614 0.930 . S
C627 C626 1.388 . S
C627 C628 1.390 . S
C628 C627 1.390 . S
C628 C629 1.394 . S
C628 C634 1.465 . S
C629 C624 1.399 . S
C629 C628 1.394 . S
C629 C630 1.516 . S
C630 C629 1.516 . S
C630 C631 1.502 . S
C630 C632 1.561 . S
C630 C633 1.526 . S
C631 H615 0.959 . S
C631 H616 0.959 . S
C631 H617 0.961 . S
C631 C630 1.502 . S
C632 H618 0.960 . S
C632 H619 0.961 . S
C632 H620 0.959 . S
C632 C630 1.561 . S
C633 C630 1.526 . S
C633 C634 1.396 . S
C633 C638 1.390 . S
C634 C628 1.465 . S
C634 C633 1.396 . S
C634 C635 1.399 . S
C635 H621 0.929 . S
C635 C634 1.399 . S
C635 C636 1.385 . S
C636 H622 0.931 . S
C636 C635 1.385 . S
C636 C637 1.389 . S
C637 C636 1.389 . S
C637 C638 1.387 . S
C638 H623 0.930 . S
C638 C633 1.390 . S
C638 C637 1.387 . S
H639 C651 0.930 . S
H640 C653 0.930 . S
H641 C654 0.930 . S
H642 C658 0.959 . S
H643 C658 0.959 . S
H644 C658 0.961 . S
H645 C659 0.960 . S
H646 C659 0.961 . S
H647 C659 0.959 . S
H648 C662 0.929 . S
H649 C663 0.931 . S
H650 C665 0.930 . S
C651 H639 0.930 . S
C651 C652 1.399 . S
C651 C656 1.399 . S
C652 C651 1.399 . S
C652 C653 1.376 . S
C653 H640 0.930 . S
C653 C652 1.376 . S
C653 C654 1.388 . S
C654 H641 0.930 . S
C654 C653 1.388 . S
C654 C655 1.390 . S
C655 C654 1.390 . S
C655 C656 1.394 . S
C655 C661 1.465 . S
C656 C651 1.399 . S
C656 C655 1.394 . S
C656 C657 1.516 . S
C657 C656 1.516 . S
C657 C658 1.502 . S
C657 C659 1.561 . S
C657 C660 1.526 . S
C658 H642 0.959 . S
C658 H643 0.959 . S
C658 H644 0.961 . S
C658 C657 1.502 . S
C659 H645 0.960 . S
C659 H646 0.961 . S
C659 H647 0.959 . S
C659 C657 1.561 . S
C660 C657 1.526 . S
C660 C661 1.396 . S
C660 C665 1.390 . S
C661 C655 1.465 . S
C661 C660 1.396 . S
C661 C662 1.399 . S
C662 H648 0.929 . S
C662 C661 1.399 . S
C662 C663 1.385 . S
C663 H649 0.931 . S
C663 C662 1.385 . S
C663 C664 1.389 . S
C664 C663 1.389 . S
C664 C665 1.387 . S
C665 H650 0.930 . S
C665 C660 1.390 . S
C665 C664 1.387 . S
H666 C678 0.930 . S
H667 C680 0.930 . S
H668 C681 0.930 . S
H669 C685 0.959 . S
H670 C685 0.959 . S
H671 C685 0.961 . S
H672 C686 0.960 . S
H673 C686 0.961 . S
H674 C686 0.959 . S
H675 C689 0.929 . S
H676 C690 0.931 . S
H677 C692 0.930 . S
C678 H666 0.930 . S
C678 C679 1.399 . S
C678 C683 1.399 . S
C679 C678 1.399 . S
C679 C680 1.376 1_554 S
C680 H667 0.930 . S
C680 C679 1.376 1_556 S
C680 C681 1.388 . S
C681 H668 0.930 . S
C681 C680 1.388 . S
C681 C682 1.390 1_556 S
C682 C681 1.390 1_554 S
C682 C683 1.394 . S
C682 C688 1.465 . S
C683 C678 1.399 . S
C683 C682 1.394 . S
C683 C684 1.516 . S
C684 C683 1.516 . S
C684 C685 1.502 . S
C684 C686 1.561 . S
C684 C687 1.526 . S
C685 H669 0.959 . S
C685 H670 0.959 . S
C685 H671 0.961 . S
C685 C684 1.502 . S
C686 H672 0.960 . S
C686 H673 0.961 . S
C686 H674 0.959 . S
C686 C684 1.561 . S
C687 C684 1.526 . S
C687 C688 1.396 . S
C687 C692 1.390 . S
C688 C682 1.465 . S
C688 C687 1.396 . S
C688 C689 1.399 . S
C689 H675 0.929 . S
C689 C688 1.399 . S
C689 C690 1.385 . S
C690 H676 0.931 . S
C690 C689 1.385 . S
C690 C691 1.389 . S
C691 C690 1.389 . S
C691 C692 1.387 . S
C692 H677 0.930 . S
C692 C687 1.390 . S
C692 C691 1.387 . S
H693 C705 0.930 . S
H694 C707 0.930 . S
H695 C708 0.930 . S
H696 C712 0.959 . S
H697 C712 0.959 . S
H698 C712 0.961 . S
H699 C713 0.960 . S
H700 C713 0.961 . S
H701 C713 0.959 . S
H702 C716 0.929 . S
H703 C717 0.931 . S
H704 C719 0.930 . S
C705 H693 0.930 . S
C705 C706 1.399 . S
C705 C710 1.399 . S
C706 C705 1.399 . S
C706 C707 1.376 . S
C707 H694 0.930 . S
C707 C706 1.376 . S
C707 C708 1.388 . S
C708 H695 0.930 . S
C708 C707 1.388 . S
C708 C709 1.390 . S
C709 C708 1.390 . S
C709 C710 1.394 . S
C709 C715 1.465 . S
C710 C705 1.399 . S
C710 C709 1.394 . S
C710 C711 1.516 . S
C711 C710 1.516 . S
C711 C712 1.502 . S
C711 C713 1.561 . S
C711 C714 1.526 . S
C712 H696 0.959 . S
C712 H697 0.959 . S
C712 H698 0.961 . S
C712 C711 1.502 . S
C713 H699 0.960 . S
C713 H700 0.961 . S
C713 H701 0.959 . S
C713 C711 1.561 . S
C714 C711 1.526 . S
C714 C715 1.396 . S
C714 C719 1.390 . S
C715 C709 1.465 . S
C715 C714 1.396 . S
C715 C716 1.399 . S
C716 H702 0.929 . S
C716 C715 1.399 . S
C716 C717 1.385 . S
C717 H703 0.931 . S
C717 C716 1.385 . S
C717 C718 1.389 . S
C718 C717 1.389 . S
C718 C719 1.387 . S
C719 H704 0.930 . S
C719 C714 1.390 . S
C719 C718 1.387 . S
H720 C732 0.930 . S
H721 C734 0.930 . S
H722 C735 0.930 . S
H723 C739 0.959 . S
H724 C739 0.959 . S
H725 C739 0.961 . S
H726 C740 0.960 . S
H727 C740 0.961 . S
H728 C740 0.959 . S
H729 C743 0.929 . S
H730 C744 0.931 . S
H731 C746 0.930 . S
C732 H720 0.930 . S
C732 C733 1.399 . S
C732 C737 1.399 . S
C733 C732 1.399 . S
C733 C734 1.376 . S
C734 H721 0.930 . S
C734 C733 1.376 . S
C734 C735 1.388 . S
C735 H722 0.930 . S
C735 C734 1.388 . S
C735 C736 1.390 . S
C736 C735 1.390 . S
C736 C737 1.394 . S
C736 C742 1.465 . S
C737 C732 1.399 . S
C737 C736 1.394 . S
C737 C738 1.516 . S
C738 C737 1.516 . S
C738 C739 1.502 . S
C738 C740 1.561 . S
C738 C741 1.526 . S
C739 H723 0.959 . S
C739 H724 0.959 . S
C739 H725 0.961 . S
C739 C738 1.502 . S
C740 H726 0.960 . S
C740 H727 0.961 . S
C740 H728 0.959 . S
C740 C738 1.561 . S
C741 C738 1.526 . S
C741 C742 1.396 . S
C741 C746 1.390 . S
C742 C736 1.465 . S
C742 C741 1.396 . S
C742 C743 1.399 . S
C743 H729 0.929 . S
C743 C742 1.399 . S
C743 C744 1.385 . S
C744 H730 0.931 . S
C744 C743 1.385 . S
C744 C745 1.389 . S
C745 C744 1.389 . S
C745 C746 1.387 . S
C746 H731 0.930 . S
C746 C741 1.390 . S
C746 C745 1.387 . S
H747 C759 0.930 . S
H748 C761 0.930 . S
H749 C762 0.930 . S
H750 C766 0.959 . S
H751 C766 0.959 . S
H752 C766 0.961 . S
H753 C767 0.960 . S
H754 C767 0.961 . S
H755 C767 0.959 . S
H756 C770 0.929 . S
H757 C771 0.931 . S
H758 C773 0.930 . S
C759 H747 0.930 . S
C759 C760 1.399 . S
C759 C764 1.399 . S
C760 C759 1.399 . S
C760 C761 1.376 . S
C761 H748 0.930 . S
C761 C760 1.376 . S
C761 C762 1.388 . S
C762 H749 0.930 . S
C762 C761 1.388 . S
C762 C763 1.390 . S
C763 C762 1.390 . S
C763 C764 1.394 . S
C763 C769 1.465 . S
C764 C759 1.399 . S
C764 C763 1.394 . S
C764 C765 1.516 . S
C765 C764 1.516 . S
C765 C766 1.502 . S
C765 C767 1.561 . S
C765 C768 1.526 . S
C766 H750 0.959 . S
C766 H751 0.959 . S
C766 H752 0.961 . S
C766 C765 1.502 . S
C767 H753 0.960 . S
C767 H754 0.961 . S
C767 H755 0.959 . S
C767 C765 1.561 . S
C768 C765 1.526 . S
C768 C769 1.396 . S
C768 C773 1.390 . S
C769 C763 1.465 . S
C769 C768 1.396 . S
C769 C770 1.399 . S
C770 H756 0.929 . S
C770 C769 1.399 . S
C770 C771 1.385 . S
C771 H757 0.931 . S
C771 C770 1.385 . S
C771 C772 1.389 . S
C772 C771 1.389 . S
C772 C773 1.387 . S
C773 H758 0.930 . S
C773 C768 1.390 . S
C773 C772 1.387 . S
H774 C786 0.930 . S
H775 C788 0.930 . S
H776 C789 0.930 . S
H777 C793 0.959 . S
H778 C793 0.959 . S
H779 C793 0.961 . S
H780 C794 0.960 . S
H781 C794 0.961 . S
H782 C794 0.959 . S
H783 C797 0.929 . S
H784 C798 0.931 . S
H785 C800 0.930 . S
C786 H774 0.930 . S
C786 C787 1.399 . S
C786 C791 1.399 . S
C787 C786 1.399 . S
C787 C788 1.376 . S
C788 H775 0.930 . S
C788 C787 1.376 . S
C788 C789 1.388 . S
C789 H776 0.930 . S
C789 C788 1.388 . S
C789 C790 1.390 . S
C790 C789 1.390 . S
C790 C791 1.394 . S
C790 C796 1.465 . S
C791 C786 1.399 . S
C791 C790 1.394 . S
C791 C792 1.516 . S
C792 C791 1.516 . S
C792 C793 1.502 . S
C792 C794 1.561 . S
C792 C795 1.526 . S
C793 H777 0.959 . S
C793 H778 0.959 . S
C793 H779 0.961 . S
C793 C792 1.502 . S
C794 H780 0.960 . S
C794 H781 0.961 . S
C794 H782 0.959 . S
C794 C792 1.561 . S
C795 C792 1.526 . S
C795 C796 1.396 . S
C795 C800 1.390 . S
C796 C790 1.465 . S
C796 C795 1.396 . S
C796 C797 1.399 . S
C797 H783 0.929 . S
C797 C796 1.399 . S
C797 C798 1.385 . S
C798 H784 0.931 . S
C798 C797 1.385 . S
C798 C799 1.389 . S
C799 C798 1.389 . S
C799 C800 1.387 . S
C800 H785 0.930 . S
C800 C795 1.390 . S
C800 C799 1.387 . S
H801 C813 0.930 . S
H802 C815 0.930 . S
H803 C816 0.930 . S
H804 C820 0.959 . S
H805 C820 0.959 . S
H806 C820 0.961 . S
H807 C821 0.960 . S
H808 C821 0.961 . S
H809 C821 0.959 . S
H810 C824 0.929 . S
H811 C825 0.931 . S
H812 C827 0.930 . S
C813 H801 0.930 . S
C813 C814 1.399 . S
C813 C818 1.399 . S
C814 C813 1.399 . S
C814 C815 1.376 1_556 S
C815 H802 0.930 . S
C815 C814 1.376 1_554 S
C815 C816 1.388 . S
C816 H803 0.930 . S
C816 C815 1.388 . S
C816 C817 1.390 1_554 S
C817 C816 1.390 1_556 S
C817 C818 1.394 . S
C817 C823 1.465 . S
C818 C813 1.399 . S
C818 C817 1.394 . S
C818 C819 1.516 . S
C819 C818 1.516 . S
C819 C820 1.502 . S
C819 C821 1.561 . S
C819 C822 1.526 . S
C820 H804 0.959 . S
C820 H805 0.959 . S
C820 H806 0.961 . S
C820 C819 1.502 . S
C821 H807 0.960 . S
C821 H808 0.961 . S
C821 H809 0.959 . S
C821 C819 1.561 . S
C822 C819 1.526 . S
C822 C823 1.396 . S
C822 C827 1.390 . S
C823 C817 1.465 . S
C823 C822 1.396 . S
C823 C824 1.399 . S
C824 H810 0.929 . S
C824 C823 1.399 . S
C824 C825 1.385 . S
C825 H811 0.931 . S
C825 C824 1.385 . S
C825 C826 1.389 . S
C826 C825 1.389 . S
C826 C827 1.387 . S
C827 H812 0.930 . S
C827 C822 1.390 . S
C827 C826 1.387 . S
H828 C840 0.930 . S
H829 C842 0.930 . S
H830 C843 0.930 . S
H831 C847 0.959 . S
H832 C847 0.959 . S
H833 C847 0.961 . S
H834 C848 0.960 . S
H835 C848 0.961 . S
H836 C848 0.959 . S
H837 C851 0.929 . S
H838 C852 0.931 . S
H839 C854 0.930 . S
C840 H828 0.930 . S
C840 C841 1.399 . S
C840 C845 1.399 . S
C841 C840 1.399 . S
C841 C842 1.376 . S
C842 H829 0.930 . S
C842 C841 1.376 . S
C842 C843 1.388 . S
C843 H830 0.930 . S
C843 C842 1.388 . S
C843 C844 1.390 . S
C844 C843 1.390 . S
C844 C845 1.394 . S
C844 C850 1.465 . S
C845 C840 1.399 . S
C845 C844 1.394 . S
C845 C846 1.516 . S
C846 C845 1.516 . S
C846 C847 1.502 . S
C846 C848 1.561 . S
C846 C849 1.526 . S
C847 H831 0.959 . S
C847 H832 0.959 . S
C847 H833 0.961 . S
C847 C846 1.502 . S
C848 H834 0.960 . S
C848 H835 0.961 . S
C848 H836 0.959 . S
C848 C846 1.561 . S
C849 C846 1.526 . S
C849 C850 1.396 . S
C849 C854 1.390 . S
C850 C844 1.465 . S
C850 C849 1.396 . S
C850 C851 1.399 . S
C851 H837 0.929 . S
C851 C850 1.399 . S
C851 C852 1.385 . S
C852 H838 0.931 . S
C852 C851 1.385 . S
C852 C853 1.389 . S
C853 C852 1.389 . S
C853 C854 1.387 . S
C854 H839 0.930 . S
C854 C849 1.390 . S
C854 C853 1.387 . S
H855 C867 0.930 . S
H856 C869 0.930 . S
H857 C870 0.930 . S
H858 C874 0.959 . S
H859 C874 0.959 . S
H860 C874 0.961 . S
H861 C875 0.960 . S
H862 C875 0.961 . S
H863 C875 0.959 . S
H864 C878 0.929 . S
H865 C879 0.931 . S
H866 C881 0.930 . S
C867 H855 0.930 . S
C867 C868 1.399 . S
C867 C872 1.399 . S
C868 C867 1.399 . S
C868 C869 1.376 . S
C869 H856 0.930 . S
C869 C868 1.376 . S
C869 C870 1.388 . S
C870 H857 0.930 . S
C870 C869 1.388 . S
C870 C871 1.390 . S
C871 C870 1.390 . S
C871 C872 1.394 . S
C871 C877 1.465 . S
C872 C867 1.399 . S
C872 C871 1.394 . S
C872 C873 1.516 . S
C873 C872 1.516 . S
C873 C874 1.502 . S
C873 C875 1.561 . S
C873 C876 1.526 . S
C874 H858 0.959 . S
C874 H859 0.959 . S
C874 H860 0.961 . S
C874 C873 1.502 . S
C875 H861 0.960 . S
C875 H862 0.961 . S
C875 H863 0.959 . S
C875 C873 1.561 . S
C876 C873 1.526 . S
C876 C877 1.396 . S
C876 C881 1.390 . S
C877 C871 1.465 . S
C877 C876 1.396 . S
C877 C878 1.399 . S
C878 H864 0.929 . S
C878 C877 1.399 . S
C878 C879 1.385 . S
C879 H865 0.931 . S
C879 C878 1.385 . S
C879 C880 1.389 . S
C880 C879 1.389 . S
C880 C881 1.387 . S
C881 H866 0.930 . S
C881 C876 1.390 . S
C881 C880 1.387 . S
H882 C894 0.930 . S
H883 C896 0.930 . S
H884 C897 0.930 . S
H885 C901 0.959 . S
H886 C901 0.959 . S
H887 C901 0.961 . S
H888 C902 0.960 . S
H889 C902 0.961 . S
H890 C902 0.959 . S
H891 C905 0.929 . S
H892 C906 0.931 . S
H893 C908 0.930 . S
C894 H882 0.930 . S
C894 C895 1.399 . S
C894 C899 1.399 . S
C895 C894 1.399 . S
C895 C896 1.376 . S
C896 H883 0.930 . S
C896 C895 1.376 . S
C896 C897 1.388 . S
C897 H884 0.930 . S
C897 C896 1.388 . S
C897 C898 1.390 . S
C898 C897 1.390 . S
C898 C899 1.394 . S
C898 C904 1.465 . S
C899 C894 1.399 . S
C899 C898 1.394 . S
C899 C900 1.516 . S
C900 C899 1.516 . S
C900 C901 1.502 . S
C900 C902 1.561 . S
C900 C903 1.526 . S
C901 H885 0.959 . S
C901 H886 0.959 . S
C901 H887 0.961 . S
C901 C900 1.502 . S
C902 H888 0.960 . S
C902 H889 0.961 . S
C902 H890 0.959 . S
C902 C900 1.561 . S
C903 C900 1.526 . S
C903 C904 1.396 . S
C903 C908 1.390 . S
C904 C898 1.465 . S
C904 C903 1.396 . S
C904 C905 1.399 . S
C905 H891 0.929 . S
C905 C904 1.399 . S
C905 C906 1.385 . S
C906 H892 0.931 . S
C906 C905 1.385 . S
C906 C907 1.389 . S
C907 C906 1.389 . S
C907 C908 1.387 . S
C908 H893 0.930 . S
C908 C903 1.390 . S
C908 C907 1.387 . S
H909 C921 0.930 . S
H910 C923 0.930 . S
H911 C924 0.930 . S
H912 C928 0.982 . S
H913 C928 0.959 . S
H914 C928 0.961 . S
H915 C929 0.960 . S
H916 C929 0.961 . S
H917 C929 0.959 . S
H918 C932 0.929 . S
H919 C933 0.931 . S
H920 C935 0.930 . S
C921 H909 0.930 . S
C921 C922 1.399 . S
C921 C926 1.399 . S
C922 C921 1.399 . S
C922 C923 1.376 . S
C923 H910 0.930 . S
C923 C922 1.376 . S
C923 C924 1.388 . S
C924 H911 0.930 . S
C924 C923 1.388 . S
C924 C925 1.390 . S
C925 C924 1.390 . S
C925 C926 1.394 . S
C925 C931 1.465 . S
C926 C921 1.399 . S
C926 C925 1.394 . S
C926 C927 1.516 . S
C927 C926 1.516 . S
C927 C928 1.502 . S
C927 C929 1.561 . S
C927 C930 1.526 . S
C928 H912 0.982 . S
C928 H913 0.959 . S
C928 H914 0.961 . S
C928 C927 1.502 . S
C929 H915 0.960 . S
C929 H916 0.961 . S
C929 H917 0.959 . S
C929 C927 1.561 . S
C930 C927 1.526 . S
C930 C931 1.396 . S
C930 C935 1.390 . S
C931 C925 1.465 . S
C931 C930 1.396 . S
C931 C932 1.399 . S
C932 H918 0.929 . S
C932 C931 1.399 . S
C932 C933 1.385 . S
C933 H919 0.931 . S
C933 C932 1.385 . S
C933 C934 1.389 . S
C934 C933 1.389 . S
C934 C935 1.387 . S
C935 H920 0.930 . S
C935 C930 1.390 . S
C935 C934 1.387 . S
H936 C948 0.930 . S
H937 C950 0.930 . S
H938 C951 0.930 . S
H939 C955 0.959 . S
H940 C955 0.959 . S
H941 C955 0.961 . S
H942 C956 0.960 1_565 S
H943 C956 0.961 1_565 S
H944 C956 0.959 1_565 S
H945 C959 0.929 . S
H946 C960 0.931 . S
H947 C962 0.930 . S
C948 H936 0.930 . S
C948 C949 1.399 . S
C948 C953 1.399 . S
C949 C948 1.399 . S
C949 C950 1.376 . S
C950 H937 0.930 . S
C950 C949 1.376 . S
C950 C951 1.388 . S
C951 H938 0.930 . S
C951 C950 1.388 . S
C951 C952 1.390 . S
C952 C951 1.390 . S
C952 C953 1.394 . S
C952 C958 1.465 . S
C953 C948 1.399 . S
C953 C952 1.394 . S
C953 C954 1.516 . S
C954 C953 1.516 . S
C954 C955 1.502 . S
C954 C956 1.561 . S
C954 C957 1.526 . S
C955 H939 0.959 . S
C955 H940 0.959 . S
C955 H941 0.961 . S
C955 C954 1.502 . S
C956 H942 0.960 1_545 S
C956 H943 0.961 1_545 S
C956 H944 0.959 1_545 S
C956 C954 1.561 . S
C957 C954 1.526 . S
C957 C958 1.396 . S
C957 C962 1.390 . S
C958 C952 1.465 . S
C958 C957 1.396 . S
C958 C959 1.399 . S
C959 H945 0.929 . S
C959 C958 1.399 . S
C959 C960 1.385 . S
C960 H946 0.931 . S
C960 C959 1.385 . S
C960 C961 1.389 . S
C961 C960 1.389 . S
C961 C962 1.387 . S
C962 H947 0.930 . S
C962 C957 1.390 . S
C962 C961 1.387 . S
H963 C975 0.930 . S
H964 C977 0.930 . S
H965 C978 0.930 . S
H966 C982 0.959 . S
H967 C982 0.959 . S
H968 C982 0.961 . S
H969 C983 0.960 . S
H970 C983 0.961 . S
H971 C983 0.959 . S
H972 C986 0.929 . S
H973 C987 0.931 . S
H974 C989 0.930 . S
C975 H963 0.930 . S
C975 C976 1.399 . S
C975 C980 1.399 . S
C976 C975 1.399 . S
C976 C977 1.376 . S
C977 H964 0.930 . S
C977 C976 1.376 . S
C977 C978 1.388 . S
C978 H965 0.930 . S
C978 C977 1.388 . S
C978 C979 1.390 . S
C979 C978 1.390 . S
C979 C980 1.394 . S
C979 C985 1.465 . S
C980 C975 1.399 . S
C980 C979 1.394 . S
C980 C981 1.516 . S
C981 C980 1.516 . S
C981 C982 1.502 . S
C981 C983 1.561 . S
C981 C984 1.526 . S
C982 H966 0.959 . S
C982 H967 0.959 . S
C982 H968 0.961 . S
C982 C981 1.502 . S
C983 H969 0.960 . S
C983 H970 0.961 . S
C983 H971 0.959 . S
C983 C981 1.561 . S
C984 C981 1.526 . S
C984 C985 1.396 . S
C984 C989 1.390 . S
C985 C979 1.465 . S
C985 C984 1.396 . S
C985 C986 1.399 . S
C986 H972 0.929 . S
C986 C985 1.399 . S
C986 C987 1.385 . S
C987 H973 0.931 . S
C987 C986 1.385 . S
C987 C988 1.389 . S
C988 C987 1.389 . S
C988 C989 1.387 . S
C989 H974 0.930 . S
C989 C984 1.390 . S
C989 C988 1.387 . S
H990 C1002 0.930 . S
H991 C1004 0.930 . S
H992 C1005 0.930 . S
H993 C1009 0.959 . S
H994 C1009 0.959 . S
H995 C1009 0.961 . S
H996 C1010 0.960 . S
H997 C1010 0.961 . S
H998 C1010 0.959 . S
H999 C1013 0.929 . S
H1000 C1014 0.931 . S
H1001 C1016 0.930 . S
C1002 H990 0.930 . S
C1002 C1003 1.399 . S
C1002 C1007 1.399 . S
C1003 C1002 1.399 . S
C1003 C1004 1.376 . S
C1004 H991 0.930 . S
C1004 C1003 1.376 . S
C1004 C1005 1.388 . S
C1005 H992 0.930 . S
C1005 C1004 1.388 . S
C1005 C1006 1.390 . S
C1006 C1005 1.390 . S
C1006 C1007 1.394 . S
C1006 C1012 1.465 . S
C1007 C1002 1.399 . S
C1007 C1006 1.394 . S
C1007 C1008 1.516 . S
C1008 C1007 1.516 . S
C1008 C1009 1.502 . S
C1008 C1010 1.561 1_655 S
C1008 C1011 1.526 . S
C1009 H993 0.959 . S
C1009 H994 0.959 . S
C1009 H995 0.961 . S
C1009 C1008 1.502 . S
C1010 H996 0.960 . S
C1010 H997 0.961 . S
C1010 H998 0.959 . S
C1010 C1008 1.561 1_455 S
C1011 C1008 1.526 . S
C1011 C1012 1.396 . S
C1011 C1016 1.390 . S
C1012 C1006 1.465 . S
C1012 C1011 1.396 . S
C1012 C1013 1.399 . S
C1013 H999 0.929 . S
C1013 C1012 1.399 . S
C1013 C1014 1.385 . S
C1014 H1000 0.931 . S
C1014 C1013 1.385 . S
C1014 C1015 1.389 . S
C1015 C1014 1.389 . S
C1015 C1016 1.387 . S
C1016 H1001 0.930 . S
C1016 C1011 1.390 . S
C1016 C1015 1.387 . S
H1017 C1029 0.930 . S
H1018 C1031 0.930 . S
H1019 C1032 0.930 . S
H1020 C1036 0.959 . S
H1021 C1036 0.959 1_545 S
H1022 C1036 0.961 1_545 S
H1023 C1037 0.960 . S
H1024 C1037 0.961 . S
H1025 C1037 0.959 . S
H1026 C1040 0.929 . S
H1027 C1041 0.931 . S
H1028 C1043 0.930 . S
C1029 H1017 0.930 . S
C1029 C1030 1.399 . S
C1029 C1034 1.399 . S
C1030 C1029 1.399 . S
C1030 C1031 1.376 . S
C1031 H1018 0.930 . S
C1031 C1030 1.376 . S
C1031 C1032 1.388 . S
C1032 H1019 0.930 . S
C1032 C1031 1.388 . S
C1032 C1033 1.390 . S
C1033 C1032 1.390 . S
C1033 C1034 1.394 . S
C1033 C1039 1.465 . S
C1034 C1029 1.399 . S
C1034 C1033 1.394 . S
C1034 C1035 1.516 . S
C1035 C1034 1.516 . S
C1035 C1036 1.502 . S
C1035 C1037 1.561 1_565 S
C1035 C1038 1.526 . S
C1036 H1020 0.959 . S
C1036 H1021 0.959 1_565 S
C1036 H1022 0.961 1_565 S
C1036 C1035 1.502 . S
C1037 H1023 0.960 . S
C1037 H1024 0.961 . S
C1037 H1025 0.959 . S
C1037 C1035 1.561 1_545 S
C1038 C1035 1.526 . S
C1038 C1039 1.396 . S
C1038 C1043 1.390 . S
C1039 C1033 1.465 . S
C1039 C1038 1.396 . S
C1039 C1040 1.399 . S
C1040 H1026 0.929 . S
C1040 C1039 1.399 . S
C1040 C1041 1.385 . S
C1041 H1027 0.931 . S
C1041 C1040 1.385 . S
C1041 C1042 1.389 . S
C1042 C1041 1.389 . S
C1042 C1043 1.387 . S
C1043 H1028 0.930 . S
C1043 C1038 1.390 . S
C1043 C1042 1.387 . S
H1044 C1056 0.930 . S
H1045 C1058 0.930 . S
H1046 C1059 0.930 . S
H1047 C1063 0.959 . S
H1048 C1063 0.959 . S
H1049 C1063 0.961 . S
H1050 C1064 0.960 . S
H1051 C1064 0.961 . S
H1052 C1064 0.959 . S
H1053 C1067 0.929 . S
H1054 C1068 0.931 . S
H1055 C1070 0.930 . S
C1056 H1044 0.930 . S
C1056 C1057 1.399 . S
C1056 C1061 1.399 . S
C1057 C1056 1.399 . S
C1057 C1058 1.376 . S
C1058 H1045 0.930 . S
C1058 C1057 1.376 . S
C1058 C1059 1.388 . S
C1059 H1046 0.930 . S
C1059 C1058 1.388 . S
C1059 C1060 1.390 . S
C1060 C1059 1.390 . S
C1060 C1061 1.394 . S
C1060 C1066 1.465 . S
C1061 C1056 1.399 . S
C1061 C1060 1.394 . S
C1061 C1062 1.516 . S
C1062 C1061 1.516 . S
C1062 C1063 1.502 . S
C1062 C1064 1.561 . S
C1062 C1065 1.526 . S
C1063 H1047 0.959 . S
C1063 H1048 0.959 . S
C1063 H1049 0.961 . S
C1063 C1062 1.502 . S
C1064 H1050 0.960 . S
C1064 H1051 0.961 . S
C1064 H1052 0.959 . S
C1064 C1062 1.561 . S
C1065 C1062 1.526 . S
C1065 C1066 1.396 . S
C1065 C1070 1.390 . S
C1066 C1060 1.465 . S
C1066 C1065 1.396 . S
C1066 C1067 1.399 . S
C1067 H1053 0.929 . S
C1067 C1066 1.399 . S
C1067 C1068 1.385 . S
C1068 H1054 0.931 . S
C1068 C1067 1.385 . S
C1068 C1069 1.389 . S
C1069 C1068 1.389 . S
C1069 C1070 1.387 . S
C1070 H1055 0.930 . S
C1070 C1065 1.390 . S
C1070 C1069 1.387 . S
H1071 C1083 0.930 . S
H1072 C1085 0.930 . S
H1073 C1086 0.930 . S
H1074 C1090 0.959 . S
H1075 C1090 0.959 . S
H1076 C1090 0.961 . S
H1077 C1091 0.960 . S
H1078 C1091 0.961 . S
H1079 C1091 0.959 1_655 S
H1080 C1094 0.929 . S
H1081 C1095 0.931 . S
H1082 C1097 0.930 . S
C1083 H1071 0.930 . S
C1083 C1084 1.399 1_455 S
C1083 C1088 1.399 . S
C1084 C1083 1.399 1_655 S
C1084 C1085 1.376 . S
C1085 H1072 0.930 . S
C1085 C1084 1.376 . S
C1085 C1086 1.388 . S
C1086 H1073 0.930 . S
C1086 C1085 1.388 . S
C1086 C1087 1.390 . S
C1087 C1086 1.390 . S
C1087 C1088 1.394 1_655 S
C1087 C1093 1.465 . S
C1088 C1083 1.399 . S
C1088 C1087 1.394 1_455 S
C1088 C1089 1.516 . S
C1089 C1088 1.516 . S
C1089 C1090 1.502 . S
C1089 C1091 1.561 . S
C1089 C1092 1.526 . S
C1090 H1074 0.959 . S
C1090 H1075 0.959 . S
C1090 H1076 0.961 . S
C1090 C1089 1.502 . S
C1091 H1077 0.960 . S
C1091 H1078 0.961 . S
C1091 H1079 0.959 1_455 S
C1091 C1089 1.561 . S
C1092 C1089 1.526 . S
C1092 C1093 1.396 1_455 S
C1092 C1097 1.390 . S
C1093 C1087 1.465 . S
C1093 C1092 1.396 1_655 S
C1093 C1094 1.399 . S
C1094 H1080 0.929 . S
C1094 C1093 1.399 . S
C1094 C1095 1.385 . S
C1095 H1081 0.931 . S
C1095 C1094 1.385 . S
C1095 C1096 1.389 . S
C1096 C1095 1.389 . S
C1096 C1097 1.387 1_655 S
C1097 H1082 0.930 . S
C1097 C1092 1.390 . S
C1097 C1096 1.387 1_455 S
H1098 C1110 0.930 . S
H1099 C1112 0.930 . S
H1100 C1113 0.930 . S
H1101 C1117 0.959 . S
H1102 C1117 0.959 1_554 S
H1103 C1117 0.961 . S
H1104 C1118 0.960 . S
H1105 C1118 0.961 1_554 S
H1106 C1118 0.959 . S
H1107 C1121 0.929 . S
H1108 C1122 0.931 . S
H1109 C1124 0.930 . S
C1110 H1098 0.930 . S
C1110 C1111 1.399 1_565 S
C1110 C1115 1.399 . S
C1111 C1110 1.399 1_545 S
C1111 C1112 1.376 . S
C1112 H1099 0.930 . S
C1112 C1111 1.376 . S
C1112 C1113 1.388 . S
C1113 H1100 0.930 . S
C1113 C1112 1.388 . S
C1113 C1114 1.390 . S
C1114 C1113 1.390 . S
C1114 C1115 1.394 1_545 S
C1114 C1120 1.465 1_556 S
C1115 C1110 1.399 . S
C1115 C1114 1.394 1_565 S
C1115 C1116 1.516 . S
C1116 C1115 1.516 . S
C1116 C1117 1.502 . S
C1116 C1118 1.561 . S
C1116 C1119 1.526 1_556 S
C1117 H1101 0.959 . S
C1117 H1102 0.959 1_556 S
C1117 H1103 0.961 . S
C1117 C1116 1.502 . S
C1118 H1104 0.960 . S
C1118 H1105 0.961 1_556 S
C1118 H1106 0.959 . S
C1118 C1116 1.561 . S
C1119 C1116 1.526 1_554 S
C1119 C1120 1.396 1_565 S
C1119 C1124 1.390 . S
C1120 C1114 1.465 1_554 S
C1120 C1119 1.396 1_545 S
C1120 C1121 1.399 . S
C1121 H1107 0.929 . S
C1121 C1120 1.399 . S
C1121 C1122 1.385 . S
C1122 H1108 0.931 . S
C1122 C1121 1.385 . S
C1122 C1123 1.389 . S
C1123 C1122 1.389 . S
C1123 C1124 1.387 1_545 S
C1124 H1109 0.930 . S
C1124 C1119 1.390 . S
C1124 C1123 1.387 1_565 S
H1125 C1137 0.930 . S
H1126 C1139 0.930 . S
H1127 C1140 0.930 . S
H1128 C1144 0.959 . S
H1129 C1144 0.959 . S
H1130 C1144 0.961 . S
H1131 C1145 0.960 . S
H1132 C1145 0.961 . S
H1133 C1145 0.959 . S
H1134 C1148 0.929 . S
H1135 C1149 0.931 . S
H1136 C1151 0.930 . S
C1137 H1125 0.930 . S
C1137 C1138 1.399 . S
C1137 C1142 1.399 . S
C1138 C1137 1.399 . S
C1138 C1139 1.376 . S
C1139 H1126 0.930 . S
C1139 C1138 1.376 . S
C1139 C1140 1.388 . S
C1140 H1127 0.930 . S
C1140 C1139 1.388 . S
C1140 C1141 1.390 . S
C1141 C1140 1.390 . S
C1141 C1142 1.394 . S
C1141 C1147 1.465 . S
C1142 C1137 1.399 . S
C1142 C1141 1.394 . S
C1142 C1143 1.516 . S
C1143 C1142 1.516 . S
C1143 C1144 1.502 . S
C1143 C1145 1.561 . S
C1143 C1146 1.526 . S
C1144 H1128 0.959 . S
C1144 H1129 0.959 . S
C1144 H1130 0.961 . S
C1144 C1143 1.502 . S
C1145 H1131 0.960 . S
C1145 H1132 0.961 . S
C1145 H1133 0.959 . S
C1145 C1143 1.561 . S
C1146 C1143 1.526 . S
C1146 C1147 1.396 . S
C1146 C1151 1.390 . S
C1147 C1141 1.465 . S
C1147 C1146 1.396 . S
C1147 C1148 1.399 . S
C1148 H1134 0.929 . S
C1148 C1147 1.399 . S
C1148 C1149 1.385 . S
C1149 H1135 0.931 . S
C1149 C1148 1.385 . S
C1149 C1150 1.389 . S
C1150 C1149 1.389 . S
C1150 C1151 1.387 . S
C1151 H1136 0.930 . S
C1151 C1146 1.390 . S
C1151 C1150 1.387 . S
H1152 C1164 0.930 . S
H1153 C1166 0.930 . S
H1154 C1167 0.930 . S
H1155 C1171 0.959 . S
H1156 C1171 0.959 . S
H1157 C1171 0.961 . S
H1158 C1172 0.960 . S
H1159 C1172 0.961 . S
H1160 C1172 0.959 1_455 S
H1161 C1175 0.929 . S
H1162 C1176 0.931 . S
H1163 C1178 0.930 . S
C1164 H1152 0.930 . S
C1164 C1165 1.399 1_655 S
C1164 C1169 1.399 . S
C1165 C1164 1.399 1_455 S
C1165 C1166 1.376 . S
C1166 H1153 0.930 . S
C1166 C1165 1.376 . S
C1166 C1167 1.388 . S
C1167 H1154 0.930 . S
C1167 C1166 1.388 . S
C1167 C1168 1.390 . S
C1168 C1167 1.390 . S
C1168 C1169 1.394 1_455 S
C1168 C1174 1.465 . S
C1169 C1164 1.399 . S
C1169 C1168 1.394 1_655 S
C1169 C1170 1.516 . S
C1170 C1169 1.516 . S
C1170 C1171 1.502 . S
C1170 C1172 1.561 . S
C1170 C1173 1.526 . S
C1171 H1155 0.959 . S
C1171 H1156 0.959 . S
C1171 H1157 0.961 . S
C1171 C1170 1.502 . S
C1172 H1158 0.960 . S
C1172 H1159 0.961 . S
C1172 H1160 0.959 1_655 S
C1172 C1170 1.561 . S
C1173 C1170 1.526 . S
C1173 C1174 1.396 1_655 S
C1173 C1178 1.390 . S
C1174 C1168 1.465 . S
C1174 C1173 1.396 1_455 S
C1174 C1175 1.399 . S
C1175 H1161 0.929 . S
C1175 C1174 1.399 . S
C1175 C1176 1.385 . S
C1176 H1162 0.931 . S
C1176 C1175 1.385 . S
C1176 C1177 1.389 . S
C1177 C1176 1.389 . S
C1177 C1178 1.387 1_455 S
C1178 H1163 0.930 . S
C1178 C1173 1.390 . S
C1178 C1177 1.387 1_655 S
H1179 C1191 0.930 . S
H1180 C1193 0.930 . S
H1181 C1194 0.930 . S
H1182 C1198 0.959 . S
H1183 C1198 0.959 . S
H1184 C1198 0.961 . S
H1185 C1199 0.960 . S
H1186 C1199 0.961 . S
H1187 C1199 0.959 . S
H1188 C1202 0.929 . S
H1189 C1203 0.931 . S
H1190 C1205 0.930 . S
C1191 H1179 0.930 . S
C1191 C1192 1.399 1_545 S
C1191 C1196 1.399 . S
C1192 C1191 1.399 1_565 S
C1192 C1193 1.376 . S
C1193 H1180 0.930 . S
C1193 C1192 1.376 . S
C1193 C1194 1.388 . S
C1194 H1181 0.930 . S
C1194 C1193 1.388 . S
C1194 C1195 1.390 . S
C1195 C1194 1.390 . S
C1195 C1196 1.394 1_565 S
C1195 C1201 1.465 . S
C1196 C1191 1.399 . S
C1196 C1195 1.394 1_545 S
C1196 C1197 1.516 . S
C1197 C1196 1.516 . S
C1197 C1198 1.502 . S
C1197 C1199 1.561 . S
C1197 C1200 1.526 . S
C1198 H1182 0.959 . S
C1198 H1183 0.959 . S
C1198 H1184 0.961 . S
C1198 C1197 1.502 . S
C1199 H1185 0.960 . S
C1199 H1186 0.961 . S
C1199 H1187 0.959 . S
C1199 C1197 1.561 . S
C1200 C1197 1.526 . S
C1200 C1201 1.396 1_545 S
C1200 C1205 1.390 . S
C1201 C1195 1.465 . S
C1201 C1200 1.396 1_565 S
C1201 C1202 1.399 . S
C1202 H1188 0.929 . S
C1202 C1201 1.399 . S
C1202 C1203 1.385 . S
C1203 H1189 0.931 . S
C1203 C1202 1.385 . S
C1203 C1204 1.389 . S
C1204 C1203 1.389 . S
C1204 C1205 1.387 1_565 S
C1205 H1190 0.930 . S
C1205 C1200 1.390 . S
C1205 C1204 1.387 1_545 S
C409 C292 0.791 . S
C421 C28 0.693 . S
C436 C61 0.795 . S
C448 C325 0.674 . S
C463 C94 0.738 . S
C475 C358 0.654 . S
C490 C127 0.714 . S
C502 C391 0.670 . S
C517 C160 0.792 . S
C529 C226 0.692 . S
C544 C193 0.657 . S
C556 C259 0.790 . S
C571 N5 1.753 . S
C583 C173 1.748 . S
C598 C8 1.769 . S
C610 N38 1.725 . S
C625 N71 1.741 . S
C637 C41 1.730 . S
C652 C74 1.764 . S
C664 N104 1.745 . S
C679 C107 1.749 1_554 S
C691 N137 1.753 . S
C706 N170 1.740 . S
C718 C140 1.767 . S
C733 C239 1.730 . S
C745 N203 1.741 . S
C760 C272 1.746 . S
C772 N236 1.752 . S
C787 C305 1.723 . S
C799 N269 1.724 . S
C814 C338 1.767 . S
C826 N302 1.739 . S
C841 C371 1.750 . S
C853 N335 1.694 . S
C868 N368 1.713 . S
C880 C206 1.767 . S
C895 C17 1.299 . S
C907 C215 1.305 . S
C922 C50 1.301 . S
C934 C248 1.294 . S
C949 C83 1.295 . S
C961 C281 1.303 . S
C976 C116 1.296 . S
C988 C314 1.304 . S
C1003 C347 1.294 . S
C1015 C149 1.302 . S
C1030 C182 1.293 . S
C1042 C380 1.299 . S
C1057 N311 0.815 . S
C1069 N14 0.987 . S
C1084 N47 0.982 1_655 S
C1096 N344 0.824 . S
C1111 N80 0.836 . S
C1123 N377 0.969 1_545 S
C1138 N113 0.919 . S
C1150 N212 0.892 . S
C1165 N146 0.976 1_455 S
C1177 N245 0.831 . S
C1192 N278 0.978 1_565 S
C1204 N179 0.829 . S
