# Generated by pormake.
# Topology sod-a, (4)-cn, num edge types: 1
# Building blocks:
#     Node 0, Type 0, BuildingBlock: AZAVOO_clean_sbu_0, # of connection points: 4
#     Node 1, Type 0, BuildingBlock: AZAVOO_clean_sbu_0, # of connection points: 4
#     Node 2, Type 0, BuildingBlock: AZAVOO_clean_sbu_0, # of connection points: 4
#     Node 3, Type 0, BuildingBlock: AZAVOO_clean_sbu_0, # of connection points: 4
#     Node 4, Type 0, BuildingBlock: AZAVOO_clean_sbu_0, # of connection points: 4
#     Node 5, Type 0, BuildingBlock: AZAVOO_clean_sbu_0, # of connection points: 4
#     Node 6, Type 0, BuildingBlock: AZAVOO_clean_sbu_0, # of connection points: 4
#     Node 7, Type 0, BuildingBlock: AZAVOO_clean_sbu_0, # of connection points: 4
#     Node 8, Type 0, BuildingBlock: AZAVOO_clean_sbu_0, # of connection points: 4
#     Node 9, Type 0, BuildingBlock: AZAVOO_clean_sbu_0, # of connection points: 4
#     Node 10, Type 0, BuildingBlock: AZAVOO_clean_sbu_0, # of connection points: 4
#     Node 11, Type 0, BuildingBlock: AZAVOO_clean_sbu_0, # of connection points: 4
#     Node 12, Type 0, BuildingBlock: AZAVOO_clean_sbu_0, # of connection points: 4
#     Node 13, Type 0, BuildingBlock: AZAVOO_clean_sbu_0, # of connection points: 4
#     Node 14, Type 0, BuildingBlock: AZAVOO_clean_sbu_0, # of connection points: 4
#     Node 15, Type 0, BuildingBlock: AZAVOO_clean_sbu_0, # of connection points: 4
#     Node 16, Type 0, BuildingBlock: AZAVOO_clean_sbu_0, # of connection points: 4
#     Node 17, Type 0, BuildingBlock: AZAVOO_clean_sbu_0, # of connection points: 4
#     Node 18, Type 0, BuildingBlock: AZAVOO_clean_sbu_0, # of connection points: 4
#     Node 19, Type 0, BuildingBlock: AZAVOO_clean_sbu_0, # of connection points: 4
#     Node 20, Type 0, BuildingBlock: AZAVOO_clean_sbu_0, # of connection points: 4
#     Node 21, Type 0, BuildingBlock: AZAVOO_clean_sbu_0, # of connection points: 4
#     Node 22, Type 0, BuildingBlock: AZAVOO_clean_sbu_0, # of connection points: 4
#     Node 23, Type 0, BuildingBlock: AZAVOO_clean_sbu_0, # of connection points: 4
#     Node 24, Type 0, BuildingBlock: AZAVOO_clean_sbu_0, # of connection points: 4
#     Node 25, Type 0, BuildingBlock: AZAVOO_clean_sbu_0, # of connection points: 4
#     Node 26, Type 0, BuildingBlock: AZAVOO_clean_sbu_0, # of connection points: 4
#     Node 27, Type 0, BuildingBlock: AZAVOO_clean_sbu_0, # of connection points: 4
#     Node 28, Type 0, BuildingBlock: AZAVOO_clean_sbu_0, # of connection points: 4
#     Node 29, Type 0, BuildingBlock: AZAVOO_clean_sbu_0, # of connection points: 4
#     Node 30, Type 0, BuildingBlock: AZAVOO_clean_sbu_0, # of connection points: 4
#     Node 31, Type 0, BuildingBlock: AZAVOO_clean_sbu_0, # of connection points: 4
#     Node 32, Type 0, BuildingBlock: AZAVOO_clean_sbu_0, # of connection points: 4
#     Node 33, Type 0, BuildingBlock: AZAVOO_clean_sbu_0, # of connection points: 4
#     Node 34, Type 0, BuildingBlock: AZAVOO_clean_sbu_0, # of connection points: 4
#     Node 35, Type 0, BuildingBlock: AZAVOO_clean_sbu_0, # of connection points: 4
#     Node 36, Type 0, BuildingBlock: AZAVOO_clean_sbu_0, # of connection points: 4
#     Node 37, Type 0, BuildingBlock: AZAVOO_clean_sbu_0, # of connection points: 4
#     Node 38, Type 0, BuildingBlock: AZAVOO_clean_sbu_0, # of connection points: 4
#     Node 39, Type 0, BuildingBlock: AZAVOO_clean_sbu_0, # of connection points: 4
#     Node 40, Type 0, BuildingBlock: AZAVOO_clean_sbu_0, # of connection points: 4
#     Node 41, Type 0, BuildingBlock: AZAVOO_clean_sbu_0, # of connection points: 4
#     Node 42, Type 0, BuildingBlock: AZAVOO_clean_sbu_0, # of connection points: 4
#     Node 43, Type 0, BuildingBlock: AZAVOO_clean_sbu_0, # of connection points: 4
#     Node 44, Type 0, BuildingBlock: AZAVOO_clean_sbu_0, # of connection points: 4
#     Node 45, Type 0, BuildingBlock: AZAVOO_clean_sbu_0, # of connection points: 4
#     Node 46, Type 0, BuildingBlock: AZAVOO_clean_sbu_0, # of connection points: 4
#     Node 47, Type 0, BuildingBlock: AZAVOO_clean_sbu_0, # of connection points: 4
#     Edge 48, Type (0, 0), BuildingBlock: ZUJKAS_clean_linker_0, # of connection points: 2
#     Edge 49, Type (0, 0), BuildingBlock: ZUJKAS_clean_linker_0, # of connection points: 2
#     Edge 50, Type (0, 0), BuildingBlock: ZUJKAS_clean_linker_0, # of connection points: 2
#     Edge 51, Type (0, 0), BuildingBlock: ZUJKAS_clean_linker_0, # of connection points: 2
#     Edge 52, Type (0, 0), BuildingBlock: ZUJKAS_clean_linker_0, # of connection points: 2
#     Edge 53, Type (0, 0), BuildingBlock: ZUJKAS_clean_linker_0, # of connection points: 2
#     Edge 54, Type (0, 0), BuildingBlock: ZUJKAS_clean_linker_0, # of connection points: 2
#     Edge 55, Type (0, 0), BuildingBlock: ZUJKAS_clean_linker_0, # of connection points: 2
#     Edge 56, Type (0, 0), BuildingBlock: ZUJKAS_clean_linker_0, # of connection points: 2
#     Edge 57, Type (0, 0), BuildingBlock: ZUJKAS_clean_linker_0, # of connection points: 2
#     Edge 58, Type (0, 0), BuildingBlock: ZUJKAS_clean_linker_0, # of connection points: 2
#     Edge 59, Type (0, 0), BuildingBlock: ZUJKAS_clean_linker_0, # of connection points: 2
#     Edge 60, Type (0, 0), BuildingBlock: ZUJKAS_clean_linker_0, # of connection points: 2
#     Edge 61, Type (0, 0), BuildingBlock: ZUJKAS_clean_linker_0, # of connection points: 2
#     Edge 62, Type (0, 0), BuildingBlock: ZUJKAS_clean_linker_0, # of connection points: 2
#     Edge 63, Type (0, 0), BuildingBlock: ZUJKAS_clean_linker_0, # of connection points: 2
#     Edge 64, Type (0, 0), BuildingBlock: ZUJKAS_clean_linker_0, # of connection points: 2
#     Edge 65, Type (0, 0), BuildingBlock: ZUJKAS_clean_linker_0, # of connection points: 2
#     Edge 66, Type (0, 0), BuildingBlock: ZUJKAS_clean_linker_0, # of connection points: 2
#     Edge 67, Type (0, 0), BuildingBlock: ZUJKAS_clean_linker_0, # of connection points: 2
#     Edge 68, Type (0, 0), BuildingBlock: ZUJKAS_clean_linker_0, # of connection points: 2
#     Edge 69, Type (0, 0), BuildingBlock: ZUJKAS_clean_linker_0, # of connection points: 2
#     Edge 70, Type (0, 0), BuildingBlock: ZUJKAS_clean_linker_0, # of connection points: 2
#     Edge 71, Type (0, 0), BuildingBlock: ZUJKAS_clean_linker_0, # of connection points: 2
#     Edge 72, Type (0, 0), BuildingBlock: ZUJKAS_clean_linker_0, # of connection points: 2
#     Edge 73, Type (0, 0), BuildingBlock: ZUJKAS_clean_linker_0, # of connection points: 2
#     Edge 74, Type (0, 0), BuildingBlock: ZUJKAS_clean_linker_0, # of connection points: 2
#     Edge 75, Type (0, 0), BuildingBlock: ZUJKAS_clean_linker_0, # of connection points: 2
#     Edge 76, Type (0, 0), BuildingBlock: ZUJKAS_clean_linker_0, # of connection points: 2
#     Edge 77, Type (0, 0), BuildingBlock: ZUJKAS_clean_linker_0, # of connection points: 2
#     Edge 78, Type (0, 0), BuildingBlock: ZUJKAS_clean_linker_0, # of connection points: 2
#     Edge 79, Type (0, 0), BuildingBlock: ZUJKAS_clean_linker_0, # of connection points: 2
#     Edge 80, Type (0, 0), BuildingBlock: ZUJKAS_clean_linker_0, # of connection points: 2
#     Edge 81, Type (0, 0), BuildingBlock: ZUJKAS_clean_linker_0, # of connection points: 2
#     Edge 82, Type (0, 0), BuildingBlock: ZUJKAS_clean_linker_0, # of connection points: 2
#     Edge 83, Type (0, 0), BuildingBlock: ZUJKAS_clean_linker_0, # of connection points: 2
#     Edge 84, Type (0, 0), BuildingBlock: ZUJKAS_clean_linker_0, # of connection points: 2
#     Edge 85, Type (0, 0), BuildingBlock: ZUJKAS_clean_linker_0, # of connection points: 2
#     Edge 86, Type (0, 0), BuildingBlock: ZUJKAS_clean_linker_0, # of connection points: 2
#     Edge 87, Type (0, 0), BuildingBlock: ZUJKAS_clean_linker_0, # of connection points: 2
#     Edge 88, Type (0, 0), BuildingBlock: ZUJKAS_clean_linker_0, # of connection points: 2
#     Edge 89, Type (0, 0), BuildingBlock: ZUJKAS_clean_linker_0, # of connection points: 2
#     Edge 90, Type (0, 0), BuildingBlock: ZUJKAS_clean_linker_0, # of connection points: 2
#     Edge 91, Type (0, 0), BuildingBlock: ZUJKAS_clean_linker_0, # of connection points: 2
#     Edge 92, Type (0, 0), BuildingBlock: ZUJKAS_clean_linker_0, # of connection points: 2
#     Edge 93, Type (0, 0), BuildingBlock: ZUJKAS_clean_linker_0, # of connection points: 2
#     Edge 94, Type (0, 0), BuildingBlock: ZUJKAS_clean_linker_0, # of connection points: 2
#     Edge 95, Type (0, 0), BuildingBlock: ZUJKAS_clean_linker_0, # of connection points: 2
#     Edge 96, Type (0, 0), BuildingBlock: ZUJKAS_clean_linker_0, # of connection points: 2
#     Edge 97, Type (0, 0), BuildingBlock: ZUJKAS_clean_linker_0, # of connection points: 2
#     Edge 98, Type (0, 0), BuildingBlock: ZUJKAS_clean_linker_0, # of connection points: 2
#     Edge 99, Type (0, 0), BuildingBlock: ZUJKAS_clean_linker_0, # of connection points: 2
#     Edge 100, Type (0, 0), BuildingBlock: ZUJKAS_clean_linker_0, # of connection points: 2
#     Edge 101, Type (0, 0), BuildingBlock: ZUJKAS_clean_linker_0, # of connection points: 2
#     Edge 102, Type (0, 0), BuildingBlock: ZUJKAS_clean_linker_0, # of connection points: 2
#     Edge 103, Type (0, 0), BuildingBlock: ZUJKAS_clean_linker_0, # of connection points: 2
#     Edge 104, Type (0, 0), BuildingBlock: ZUJKAS_clean_linker_0, # of connection points: 2
#     Edge 105, Type (0, 0), BuildingBlock: ZUJKAS_clean_linker_0, # of connection points: 2
#     Edge 106, Type (0, 0), BuildingBlock: ZUJKAS_clean_linker_0, # of connection points: 2
#     Edge 107, Type (0, 0), BuildingBlock: ZUJKAS_clean_linker_0, # of connection points: 2
#     Edge 108, Type (0, 0), BuildingBlock: ZUJKAS_clean_linker_0, # of connection points: 2
#     Edge 109, Type (0, 0), BuildingBlock: ZUJKAS_clean_linker_0, # of connection points: 2
#     Edge 110, Type (0, 0), BuildingBlock: ZUJKAS_clean_linker_0, # of connection points: 2
#     Edge 111, Type (0, 0), BuildingBlock: ZUJKAS_clean_linker_0, # of connection points: 2
#     Edge 112, Type (0, 0), BuildingBlock: ZUJKAS_clean_linker_0, # of connection points: 2
#     Edge 113, Type (0, 0), BuildingBlock: ZUJKAS_clean_linker_0, # of connection points: 2
#     Edge 114, Type (0, 0), BuildingBlock: ZUJKAS_clean_linker_0, # of connection points: 2
#     Edge 115, Type (0, 0), BuildingBlock: ZUJKAS_clean_linker_0, # of connection points: 2
#     Edge 116, Type (0, 0), BuildingBlock: ZUJKAS_clean_linker_0, # of connection points: 2
#     Edge 117, Type (0, 0), BuildingBlock: ZUJKAS_clean_linker_0, # of connection points: 2
#     Edge 118, Type (0, 0), BuildingBlock: ZUJKAS_clean_linker_0, # of connection points: 2
#     Edge 119, Type (0, 0), BuildingBlock: ZUJKAS_clean_linker_0, # of connection points: 2
#     Edge 120, Type (0, 0), BuildingBlock: ZUJKAS_clean_linker_0, # of connection points: 2
#     Edge 121, Type (0, 0), BuildingBlock: ZUJKAS_clean_linker_0, # of connection points: 2
#     Edge 122, Type (0, 0), BuildingBlock: ZUJKAS_clean_linker_0, # of connection points: 2
#     Edge 123, Type (0, 0), BuildingBlock: ZUJKAS_clean_linker_0, # of connection points: 2
#     Edge 124, Type (0, 0), BuildingBlock: ZUJKAS_clean_linker_0, # of connection points: 2
#     Edge 125, Type (0, 0), BuildingBlock: ZUJKAS_clean_linker_0, # of connection points: 2
#     Edge 126, Type (0, 0), BuildingBlock: ZUJKAS_clean_linker_0, # of connection points: 2
#     Edge 127, Type (0, 0), BuildingBlock: ZUJKAS_clean_linker_0, # of connection points: 2
#     Edge 128, Type (0, 0), BuildingBlock: ZUJKAS_clean_linker_0, # of connection points: 2
#     Edge 129, Type (0, 0), BuildingBlock: ZUJKAS_clean_linker_0, # of connection points: 2
#     Edge 130, Type (0, 0), BuildingBlock: ZUJKAS_clean_linker_0, # of connection points: 2
#     Edge 131, Type (0, 0), BuildingBlock: ZUJKAS_clean_linker_0, # of connection points: 2
#     Edge 132, Type (0, 0), BuildingBlock: ZUJKAS_clean_linker_0, # of connection points: 2
#     Edge 133, Type (0, 0), BuildingBlock: ZUJKAS_clean_linker_0, # of connection points: 2
#     Edge 134, Type (0, 0), BuildingBlock: ZUJKAS_clean_linker_0, # of connection points: 2
#     Edge 135, Type (0, 0), BuildingBlock: ZUJKAS_clean_linker_0, # of connection points: 2
#     Edge 136, Type (0, 0), BuildingBlock: ZUJKAS_clean_linker_0, # of connection points: 2
#     Edge 137, Type (0, 0), BuildingBlock: ZUJKAS_clean_linker_0, # of connection points: 2
#     Edge 138, Type (0, 0), BuildingBlock: ZUJKAS_clean_linker_0, # of connection points: 2
#     Edge 139, Type (0, 0), BuildingBlock: ZUJKAS_clean_linker_0, # of connection points: 2
#     Edge 140, Type (0, 0), BuildingBlock: ZUJKAS_clean_linker_0, # of connection points: 2
#     Edge 141, Type (0, 0), BuildingBlock: ZUJKAS_clean_linker_0, # of connection points: 2
#     Edge 142, Type (0, 0), BuildingBlock: ZUJKAS_clean_linker_0, # of connection points: 2
#     Edge 143, Type (0, 0), BuildingBlock: ZUJKAS_clean_linker_0, # of connection points: 2
# Relax obj value: 0.803
# Max RMSD: 0.297
# Mean RMSD: 0.295
data_MOF--net-sod-a--node1-AZAVOO_clean_sbu_0--edge1-ZUJKAS_clean_linker_0
_symmetry_space_group_name_H-M    P1
_symmetry_Int_Tables_number       1
_symmetry_cell_setting            triclinic
loop_
_symmetry_equiv_pos_as_xyz
'x, y, z'
_cell_length_a     101.20316
_cell_length_b     101.09347
_cell_length_c     101.09413
_cell_angle_alpha  89.947881
_cell_angle_beta   89.942396
_cell_angle_gamma 89.941663
loop_
_atom_site_label
_atom_site_type_symbol
_atom_site_fract_x
_atom_site_fract_y
_atom_site_fract_z
_atom_type_partial_charge
Mg0 Mg 0.08741 0.43839 0.33064 0.0
O1 O 0.07061 0.45432 0.33338 0.0
O2 O 0.06489 0.46016 0.31262 0.0
Mg3 Mg 0.08133 0.45417 0.29824 0.0
C4 C 0.06306 0.46049 0.32516 0.0
C5 C 0.0772 0.44347 0.35832 0.0
O6 O 0.08895 0.43821 0.36002 0.0
O7 O 0.07027 0.42685 0.32104 0.0
O8 O 0.07956 0.43222 0.30235 0.0
O9 O 0.10424 0.45414 0.33427 0.0
O10 O 0.09234 0.45342 0.31671 0.0
C11 C 0.06983 0.42723 0.30847 0.0
C12 C 0.10165 0.45898 0.32285 0.0
O13 O 0.07399 0.44721 0.3467 0.0
Mg14 Mg 0.61821 0.08086 0.32163 0.0
O15 O 0.59734 0.07183 0.32021 0.0
O16 O 0.58856 0.07791 0.30086 0.0
Mg17 Mg 0.60421 0.08963 0.28941 0.0
C18 C 0.58777 0.07192 0.31196 0.0
C19 C 0.63021 0.07355 0.34852 0.0
O20 O 0.63439 0.08572 0.3467 0.0
O21 O 0.62591 0.06458 0.30786 0.0
O22 O 0.61683 0.07084 0.2887 0.0
O23 O 0.60887 0.0996 0.32917 0.0
O24 O 0.61325 0.09542 0.30816 0.0
C25 C 0.62393 0.06288 0.29548 0.0
C26 C 0.60791 0.10298 0.31684 0.0
O27 O 0.6227 0.0684 0.33987 0.0
Mg28 Mg 0.98333 0.60977 0.331 0.0
O29 O 0.99206 0.58868 0.33053 0.0
O30 O 0.98761 0.58022 0.31062 0.0
Mg31 Mg 0.97687 0.59588 0.29818 0.0
C32 C 0.99252 0.57917 0.32222 0.0
C33 C 0.98973 0.6233 0.35744 0.0
O34 O 0.97808 0.62823 0.35446 0.0
O35 O 0.0005 0.61743 0.31833 0.0
O36 O 0.99521 0.6091 0.29855 0.0
O37 O 0.96364 0.6009 0.33692 0.0
O38 O 0.96983 0.60509 0.31641 0.0
C39 C 0.00269 0.61607 0.30594 0.0
C40 C 0.96125 0.60022 0.32436 0.0
O41 O 0.99469 0.61453 0.34991 0.0
Mg42 Mg 0.44201 0.98306 0.33414 0.0
O43 O 0.46244 0.9925 0.3303 0.0
O44 O 0.4695 0.9852 0.31064 0.0
Mg45 Mg 0.45345 0.9721 0.30163 0.0
C46 C 0.47117 0.99203 0.32114 0.0
C47 C 0.43487 0.99205 0.36246 0.0
O48 O 0.43456 0.97911 0.36375 0.0
O49 O 0.43294 0.99795 0.31983 0.0
O50 O 0.4402 0.99052 0.30033 0.0
O51 O 0.45222 0.96541 0.34273 0.0
O52 O 0.44667 0.96749 0.32169 0.0
C53 C 0.43362 0.99881 0.30725 0.0
C54 C 0.45283 0.96099 0.33072 0.0
O55 O 0.43823 0.99697 0.35139 0.0
Mg56 Mg 0.07715 0.6204 0.73539 0.0
O57 O 0.06761 0.59993 0.73821 0.0
O58 O 0.07143 0.59359 0.75905 0.0
Mg59 Mg 0.08295 0.61 0.7697 0.0
C60 C 0.0666 0.59147 0.74757 0.0
C61 C 0.07035 0.6321 0.70795 0.0
O62 O 0.08151 0.63808 0.71081 0.0
O63 O 0.06007 0.62996 0.74699 0.0
O64 O 0.06535 0.62396 0.76765 0.0
O65 O 0.09648 0.60997 0.73072 0.0
O66 O 0.09043 0.6166 0.75057 0.0
C67 C 0.05807 0.63025 0.75947 0.0
C68 C 0.0987 0.61029 0.74334 0.0
O69 O 0.06594 0.62344 0.71595 0.0
Mg70 Mg 0.44611 0.0892 0.74036 0.0
O71 O 0.46605 0.07867 0.74361 0.0
O72 O 0.47436 0.08541 0.76297 0.0
Mg73 Mg 0.45852 0.09805 0.77315 0.0
C74 C 0.47524 0.07876 0.75226 0.0
C75 C 0.44112 0.07997 0.71082 0.0
O76 O 0.44386 0.0924 0.70819 0.0
O77 O 0.43645 0.07411 0.75403 0.0
O78 O 0.44492 0.07988 0.77359 0.0
O79 O 0.45739 0.10688 0.73291 0.0
O80 O 0.45119 0.1039 0.75366 0.0
C81 C 0.43768 0.07236 0.76649 0.0
C82 C 0.45772 0.11066 0.74514 0.0
O83 O 0.44181 0.0759 0.7227 0.0
Mg84 Mg 0.98954 0.43976 0.71648 0.0
O85 O 0.99829 0.45989 0.72532 0.0
O86 O 0.99125 0.46469 0.74594 0.0
Mg87 Mg 0.97993 0.44643 0.75253 0.0
C88 C 0.99792 0.46752 0.73557 0.0
C89 C 0.00579 0.46071 0.69919 0.0
O90 O 0.00913 0.47265 0.69533 0.0
O91 O 0.00766 0.42949 0.72647 0.0
O92 O 0.99714 0.43638 0.74386 0.0
O93 O 0.96953 0.4508 0.71257 0.0
O94 O 0.97479 0.44353 0.7318 0.0
C95 C 0.00703 0.43062 0.73897 0.0
C96 C 0.96684 0.45021 0.72491 0.0
O97 O 0.99935 0.45926 0.70999 0.0
Mg98 Mg 0.61549 0.97954 0.73693 0.0
O99 O 0.59595 0.99076 0.74065 0.0
O100 O 0.58951 0.98618 0.76135 0.0
Mg101 Mg 0.60558 0.97369 0.77131 0.0
C102 C 0.58768 0.9918 0.75017 0.0
C103 C 0.62638 0.98521 0.70915 0.0
O104 O 0.63043 0.97307 0.71144 0.0
O105 O 0.62623 0.99569 0.74847 0.0
O106 O 0.61975 0.9912 0.76914 0.0
O107 O 0.60365 0.96132 0.73189 0.0
O108 O 0.61103 0.96621 0.75182 0.0
C109 C 0.62634 0.99813 0.76087 0.0
C110 C 0.60393 0.95874 0.74445 0.0
O111 O 0.61904 0.99082 0.71768 0.0
Mg112 Mg 0.32448 0.08503 0.4475 0.0
O113 O 0.32096 0.07473 0.46745 0.0
O114 O 0.30136 0.08125 0.4753 0.0
Mg115 Mg 0.29205 0.09519 0.45995 0.0
C116 C 0.31201 0.07454 0.47638 0.0
C117 C 0.35159 0.07618 0.4369 0.0
O118 O 0.35113 0.08863 0.43318 0.0
O119 O 0.31017 0.07036 0.43791 0.0
O120 O 0.29076 0.0777 0.44562 0.0
O121 O 0.33273 0.10233 0.45865 0.0
O122 O 0.31181 0.10023 0.45272 0.0
C123 C 0.29757 0.0697 0.43858 0.0
C124 C 0.32068 0.10659 0.45916 0.0
O125 O 0.34197 0.07146 0.44346 0.0
Mg126 Mg 0.98752 0.33417 0.44431 0.0
O127 O 0.99725 0.3309 0.46477 0.0
O128 O 0.99205 0.31025 0.471 0.0
Mg129 Mg 0.98114 0.29978 0.45416 0.0
C130 C 0.99744 0.32146 0.47321 0.0
C131 C 0.99326 0.36119 0.43224 0.0
O132 O 0.98212 0.35739 0.42678 0.0
O133 O 0.00461 0.32263 0.43484 0.0
O134 O 0.9993 0.30199 0.44086 0.0
O135 O 0.96831 0.33896 0.45485 0.0
O136 O 0.97405 0.3191 0.44797 0.0
C137 C 0.00672 0.31017 0.43473 0.0
C138 C 0.96597 0.32637 0.45447 0.0
O139 O 0.99843 0.3538 0.44103 0.0
Mg140 Mg 0.73242 0.98183 0.44508 0.0
O141 O 0.73342 0.99077 0.46601 0.0
O142 O 0.75052 0.98148 0.47655 0.0
Mg143 Mg 0.76136 0.96806 0.46193 0.0
C144 C 0.7406 0.98932 0.47631 0.0
C145 C 0.70556 0.99254 0.43544 0.0
O146 O 0.70329 0.97978 0.43633 0.0
O147 O 0.74921 0.99577 0.43918 0.0
O148 O 0.76625 0.98673 0.44997 0.0
O149 O 0.72098 0.96482 0.45349 0.0
O150 O 0.74271 0.96528 0.45143 0.0
C151 C 0.76141 0.99568 0.44247 0.0
C152 C 0.73235 0.95951 0.45598 0.0
O153 O 0.71684 0.99692 0.43882 0.0
Mg154 Mg 0.08465 0.73012 0.44599 0.0
O155 O 0.0742 0.73579 0.46546 0.0
O156 O 0.0821 0.75547 0.47185 0.0
Mg157 Mg 0.09552 0.76336 0.45537 0.0
C158 C 0.07482 0.74532 0.47375 0.0
C159 C 0.07483 0.70325 0.43572 0.0
O160 O 0.08711 0.70358 0.43151 0.0
O161 O 0.07032 0.74374 0.4351 0.0
O162 O 0.07757 0.76362 0.44151 0.0
O163 O 0.10157 0.72265 0.45834 0.0
O164 O 0.10011 0.74291 0.45022 0.0
C165 C 0.06953 0.75635 0.43503 0.0
C166 C 0.10603 0.73465 0.45783 0.0
O167 O 0.07063 0.71272 0.44286 0.0
Mg168 Mg 0.33326 0.98718 0.62294 0.0
O169 O 0.32896 0.99529 0.60203 0.0
O170 O 0.30968 0.98678 0.59537 0.0
Mg171 Mg 0.30117 0.97444 0.61232 0.0
C172 C 0.31989 0.99394 0.59333 0.0
C173 C 0.36071 0.99735 0.63086 0.0
O174 O 0.36164 0.98459 0.63321 0.0
O175 O 0.31846 0.00211 0.63113 0.0
O176 O 0.29926 0.99372 0.62419 0.0
O177 O 0.3424 0.96936 0.61353 0.0
O178 O 0.32136 0.97097 0.61929 0.0
C179 C 0.30588 0.00261 0.63025 0.0
C180 C 0.33055 0.96454 0.61329 0.0
O181 O 0.3501 0.00181 0.62583 0.0
Mg182 Mg 0.08396 0.33036 0.62185 0.0
O183 O 0.07339 0.32665 0.60203 0.0
O184 O 0.0779 0.30584 0.59593 0.0
Mg185 Mg 0.09 0.2959 0.6124 0.0
C186 C 0.07248 0.31708 0.59382 0.0
C187 C 0.07406 0.35432 0.63653 0.0
O188 O 0.08183 0.348 0.64482 0.0
O189 O 0.06751 0.31895 0.63229 0.0
O190 O 0.07245 0.29814 0.62657 0.0
O191 O 0.10258 0.33514 0.61043 0.0
O192 O 0.09734 0.31535 0.618 0.0
C193 C 0.06537 0.30652 0.63283 0.0
C194 C 0.10512 0.3226 0.6111 0.0
O195 O 0.07268 0.34969 0.62493 0.0
Mg196 Mg 0.73235 0.0814 0.62017 0.0
O197 O 0.73397 0.07296 0.59907 0.0
O198 O 0.75077 0.08307 0.5888 0.0
Mg199 Mg 0.76121 0.0961 0.60398 0.0
C200 C 0.74107 0.07498 0.5888 0.0
C201 C 0.70557 0.06934 0.62899 0.0
O202 O 0.70272 0.08201 0.6288 0.0
O203 O 0.74944 0.0679 0.6264 0.0
O204 O 0.76633 0.07731 0.6157 0.0
O205 O 0.72063 0.09817 0.61167 0.0
O206 O 0.74231 0.09836 0.61429 0.0
C207 C 0.76165 0.06824 0.62317 0.0
C208 C 0.7319 0.10381 0.60945 0.0
O209 O 0.71711 0.06565 0.62561 0.0
Mg210 Mg 0.98182 0.73978 0.61843 0.0
O211 O 0.99225 0.74347 0.59852 0.0
O212 O 0.98694 0.76384 0.59158 0.0
Mg213 Mg 0.97498 0.77385 0.60804 0.0
C214 C 0.99277 0.75274 0.58992 0.0
C215 C 0.98873 0.71015 0.62532 0.0
O216 O 0.97579 0.70941 0.62606 0.0
O217 O 0.99794 0.75188 0.62851 0.0
O218 O 0.99316 0.7723 0.6215 0.0
O219 O 0.96347 0.73422 0.60701 0.0
O220 O 0.96799 0.75433 0.61417 0.0
C221 C 0.00036 0.76428 0.62811 0.0
C222 C 0.96058 0.74671 0.60728 0.0
O223 O 0.99401 0.72099 0.62174 0.0
Mg224 Mg 0.44479 0.3313 0.08104 0.0
O225 O 0.46492 0.32943 0.07045 0.0
O226 O 0.47502 0.31131 0.07813 0.0
Mg227 Mg 0.46077 0.30084 0.0922 0.0
C228 C 0.47486 0.32162 0.07081 0.0
C229 C 0.43283 0.35768 0.07184 0.0
O230 O 0.43078 0.3581 0.08467 0.0
O231 O 0.43615 0.31553 0.06721 0.0
O232 O 0.44686 0.29767 0.07463 0.0
O233 O 0.45543 0.34149 0.09755 0.0
O234 O 0.45165 0.31996 0.09667 0.0
C235 C 0.43876 0.30316 0.06664 0.0
C236 C 0.45745 0.32976 0.10229 0.0
O237 O 0.43878 0.34774 0.06697 0.0
Mg238 Mg 0.44831 0.72902 0.97878 0.0
O239 O 0.46878 0.72991 0.98884 0.0
O240 O 0.47898 0.74808 0.98143 0.0
Mg241 Mg 0.46462 0.75957 0.96832 0.0
C242 C 0.47885 0.73754 0.98841 0.0
C243 C 0.4296 0.70956 0.99134 0.0
O244 O 0.42234 0.71664 0.9832 0.0
O245 O 0.44063 0.74436 0.99365 0.0
O246 O 0.45162 0.76222 0.98664 0.0
O247 O 0.45817 0.71946 0.96126 0.0
O248 O 0.45486 0.74096 0.96353 0.0
C249 C 0.4437 0.75658 0.9947 0.0
C250 C 0.4601 0.7314 0.95703 0.0
O251 O 0.44186 0.71212 0.99219 0.0
Mg252 Mg 0.33051 0.45063 0.97584 0.0
O253 O 0.3289 0.47144 0.98493 0.0
O254 O 0.31135 0.48144 0.97593 0.0
Mg255 Mg 0.30094 0.46655 0.96251 0.0
C256 C 0.32135 0.48151 0.98363 0.0
C257 C 0.35665 0.43959 0.98616 0.0
O258 O 0.35784 0.43831 0.97328 0.0
O259 O 0.31405 0.44394 0.98984 0.0
O260 O 0.2966 0.45437 0.98117 0.0
O261 O 0.34155 0.4596 0.95884 0.0
O262 O 0.3199 0.4566 0.95943 0.0
C263 C 0.30177 0.44691 0.98997 0.0
C264 C 0.33005 0.46154 0.95359 0.0
O265 O 0.34626 0.44493 0.99078 0.0
Mg266 Mg 0.61805 0.32966 0.97764 0.0
O267 O 0.59692 0.32899 0.98609 0.0
O268 O 0.58703 0.31084 0.97828 0.0
Mg269 Mg 0.60214 0.29943 0.96589 0.0
C270 C 0.58684 0.32143 0.98516 0.0
C271 C 0.6353 0.34697 0.99527 0.0
O272 O 0.64352 0.33772 0.99126 0.0
O273 O 0.62408 0.31407 0.9929 0.0
O274 O 0.61397 0.29613 0.98494 0.0
O275 O 0.60993 0.33969 0.9597 0.0
O276 O 0.61241 0.31804 0.96181 0.0
C277 C 0.62118 0.30179 0.99361 0.0
C278 C 0.60777 0.32789 0.95523 0.0
O279 O 0.62333 0.34642 0.99159 0.0
Mg280 Mg 0.73474 0.62142 0.98717 0.0
O281 O 0.73561 0.60078 0.99703 0.0
O282 O 0.75623 0.59335 0.99396 0.0
Mg283 Mg 0.76867 0.60903 0.98345 0.0
C284 C 0.74446 0.59182 0.99829 0.0
C285 C 0.71043 0.62286 0.00772 0.0
O286 O 0.71785 0.61524 0.01519 0.0
O287 O 0.74559 0.63031 0.00509 0.0
O288 O 0.76602 0.62283 0.00109 0.0
O289 O 0.73076 0.61137 0.96751 0.0
O290 O 0.75051 0.61663 0.97494 0.0
C291 C 0.75788 0.62964 0.00794 0.0
C292 C 0.74347 0.61088 0.96614 0.0
O293 O 0.71453 0.62617 0.99629 0.0
Mg294 Mg 0.62062 0.74263 0.08128 0.0
O295 O 0.5998 0.74068 0.07231 0.0
O296 O 0.58836 0.75878 0.0778 0.0
Mg297 Mg 0.60203 0.77276 0.08918 0.0
C298 C 0.58915 0.74749 0.07219 0.0
C299 C 0.62237 0.7137 0.06836 0.0
O300 O 0.61104 0.71171 0.0744 0.0
O301 O 0.62632 0.75704 0.06466 0.0
O302 O 0.61469 0.77491 0.07056 0.0
O303 O 0.61247 0.73458 0.10052 0.0
O304 O 0.61383 0.75577 0.09537 0.0
C305 C 0.62272 0.76904 0.06278 0.0
C306 C 0.60999 0.7468 0.10345 0.0
O307 O 0.62795 0.72492 0.06927 0.0
Mg308 Mg 0.324 0.61957 0.08547 0.0
O309 O 0.3236 0.59933 0.07502 0.0
O310 O 0.30707 0.58742 0.08365 0.0
Mg311 Mg 0.29569 0.60078 0.09792 0.0
C312 C 0.31691 0.58864 0.07582 0.0
C313 C 0.35141 0.62463 0.07174 0.0
O314 O 0.35548 0.61725 0.08163 0.0
O315 O 0.30693 0.62622 0.07222 0.0
O316 O 0.29035 0.61403 0.08026 0.0
O317 O 0.33574 0.61025 0.10183 0.0
O318 O 0.31396 0.61175 0.10157 0.0
C319 C 0.29486 0.6225 0.07202 0.0
C320 C 0.32447 0.60709 0.10699 0.0
O321 O 0.33914 0.62706 0.07054 0.0
Mg322 Mg 0.73328 0.44381 0.08612 0.0
O323 O 0.73371 0.46413 0.07563 0.0
O324 O 0.75155 0.47484 0.0832 0.0
Mg325 Mg 0.76371 0.46054 0.0958 0.0
C326 C 0.74101 0.47442 0.07627 0.0
C327 C 0.70535 0.44104 0.0711 0.0
O328 O 0.70142 0.45133 0.078 0.0
O329 O 0.74852 0.43629 0.07143 0.0
O330 O 0.76663 0.4473 0.0775 0.0
O331 O 0.72358 0.45375 0.10342 0.0
O332 O 0.74513 0.45087 0.10114 0.0
C333 C 0.76068 0.43919 0.06985 0.0
C334 C 0.73547 0.45616 0.10749 0.0
O335 O 0.71703 0.43667 0.07251 0.0
Mg336 Mg 0.48521 0.94592 0.84356 0.0
O337 O 0.49699 0.96429 0.83765 0.0
O338 O 0.5007 0.964 0.81586 0.0
Mg339 Mg 0.49068 0.94536 0.80757 0.0
C340 C 0.50187 0.96945 0.82721 0.0
C341 C 0.48459 0.95508 0.87538 0.0
O342 O 0.47843 0.96204 0.88446 0.0
O343 O 0.46678 0.95586 0.83484 0.0
O344 O 0.47066 0.95431 0.81309 0.0
O345 O 0.50437 0.93438 0.84494 0.0
O346 O 0.49223 0.93582 0.82698 0.0
C347 C 0.46334 0.95768 0.82281 0.0
C348 C 0.50302 0.93207 0.83244 0.0
O349 O 0.48054 0.95584 0.86348 0.0
Mg350 Mg 0.12038 0.4898 0.83644 0.0
O351 O 0.10157 0.50234 0.836 0.0
O352 O 0.09986 0.51242 0.81643 0.0
Mg353 Mg 0.11699 0.50499 0.80352 0.0
C354 C 0.09559 0.51015 0.82811 0.0
C355 C 0.11287 0.48241 0.86773 0.0
O356 O 0.10612 0.47469 0.87572 0.0
O357 O 0.10972 0.47385 0.82417 0.0
O358 O 0.10824 0.4843 0.80475 0.0
O359 O 0.13179 0.50868 0.8412 0.0
O360 O 0.12876 0.50084 0.82117 0.0
C361 C 0.10607 0.47424 0.81206 0.0
C362 C 0.13321 0.51004 0.82856 0.0
O363 O 0.11255 0.47999 0.85538 0.0
Mg364 Mg 0.5761 0.12273 0.84255 0.0
O365 O 0.56367 0.10466 0.83708 0.0
O366 O 0.55859 0.10543 0.8156 0.0
Mg367 Mg 0.56848 0.12401 0.80698 0.0
C368 C 0.55804 0.09979 0.82691 0.0
C369 C 0.57784 0.11322 0.87418 0.0
O370 O 0.58428 0.10619 0.88301 0.0
O371 O 0.59387 0.11259 0.8326 0.0
O372 O 0.58859 0.11464 0.8112 0.0
O373 O 0.55728 0.13456 0.84523 0.0
O374 O 0.56837 0.13325 0.82655 0.0
C375 C 0.59649 0.11096 0.82033 0.0
C376 C 0.55797 0.13706 0.8327 0.0
O377 O 0.58152 0.11254 0.86215 0.0
Mg378 Mg 0.9369 0.56977 0.82886 0.0
O379 O 0.95764 0.56051 0.83092 0.0
O380 O 0.96549 0.55785 0.81039 0.0
Mg381 Mg 0.95062 0.56606 0.79545 0.0
C382 C 0.96666 0.55669 0.82292 0.0
C383 C 0.92356 0.57462 0.85507 0.0
O384 O 0.91488 0.57846 0.8462 0.0
O385 O 0.94671 0.59007 0.82534 0.0
O386 O 0.95334 0.58653 0.80449 0.0
O387 O 0.92822 0.54956 0.82596 0.0
O388 O 0.93501 0.56236 0.80967 0.0
C389 C 0.95198 0.59406 0.81454 0.0
C390 C 0.93062 0.55107 0.81349 0.0
O391 O 0.93522 0.57192 0.8512 0.0
Mg392 Mg 0.4885 0.11582 0.22062 0.0
O393 O 0.49905 0.09733 0.22825 0.0
O394 O 0.50303 0.09933 0.24987 0.0
Mg395 Mg 0.49414 0.11929 0.25635 0.0
C396 C 0.50375 0.09282 0.23906 0.0
C397 C 0.48839 0.10451 0.19006 0.0
O398 O 0.48396 0.09588 0.18143 0.0
O399 O 0.46943 0.10806 0.2301 0.0
O400 O 0.47362 0.11112 0.25162 0.0
O401 O 0.50854 0.12521 0.21816 0.0
O402 O 0.49633 0.12694 0.23614 0.0
C403 C 0.466 0.10745 0.24226 0.0
C404 C 0.50741 0.12901 0.23033 0.0
O405 O 0.48358 0.10438 0.2017 0.0
Mg406 Mg 0.94501 0.48985 0.22554 0.0
O407 O 0.96168 0.50341 0.23265 0.0
O408 O 0.95792 0.51 0.2534 0.0
Mg409 Mg 0.93956 0.49869 0.26039 0.0
C410 C 0.96486 0.51015 0.24283 0.0
C411 C 0.95831 0.48951 0.19576 0.0
O412 O 0.96763 0.48523 0.18777 0.0
O413 O 0.95472 0.47274 0.23701 0.0
O414 O 0.95151 0.47975 0.25772 0.0
O415 O 0.93344 0.50841 0.22111 0.0
O416 O 0.93236 0.49753 0.23997 0.0
C417 C 0.95627 0.47144 0.2495 0.0
C418 C 0.92932 0.50782 0.2332 0.0
O419 O 0.95776 0.48481 0.20743 0.0
Mg420 Mg 0.56972 0.93344 0.23346 0.0
O421 O 0.55953 0.95371 0.23672 0.0
O422 O 0.5613 0.95806 0.25836 0.0
Mg423 Mg 0.57226 0.94122 0.26878 0.0
C424 C 0.55751 0.96122 0.24672 0.0
C425 C 0.57084 0.92391 0.20572 0.0
O426 O 0.57626 0.91472 0.21316 0.0
O427 O 0.58972 0.94416 0.23481 0.0
O428 O 0.59052 0.94698 0.25678 0.0
O429 O 0.55088 0.92301 0.23815 0.0
O430 O 0.56593 0.92811 0.25304 0.0
C431 C 0.59571 0.94791 0.24529 0.0
C432 C 0.55431 0.92367 0.25045 0.0
O433 O 0.56806 0.93497 0.21103 0.0
Mg434 Mg 0.1198 0.57781 0.2233 0.0
O435 O 0.1002 0.56959 0.23104 0.0
O436 O 0.1005 0.57025 0.25317 0.0
Mg437 Mg 0.12112 0.57754 0.25965 0.0
C438 C 0.09464 0.56776 0.24224 0.0
C439 C 0.11103 0.57795 0.19124 0.0
O440 O 0.10376 0.58381 0.18221 0.0
O441 O 0.11264 0.5984 0.22976 0.0
O442 O 0.11527 0.59767 0.25167 0.0
O443 O 0.12852 0.55713 0.2236 0.0
O444 O 0.12891 0.57081 0.24051 0.0
C445 C 0.11219 0.60387 0.24114 0.0
C446 C 0.13085 0.55908 0.23601 0.0
O447 O 0.10995 0.58176 0.20319 0.0
Mg448 Mg 0.8404 0.49001 0.94552 0.0
O449 O 0.83587 0.50042 0.965 0.0
O450 O 0.81434 0.50508 0.96622 0.0
Mg451 Mg 0.80476 0.49684 0.94728 0.0
C452 C 0.82599 0.50534 0.9711 0.0
C453 C 0.8721 0.48876 0.95335 0.0
O454 O 0.88146 0.48345 0.96063 0.0
O455 O 0.83148 0.47111 0.95434 0.0
O456 O 0.8099 0.47599 0.95439 0.0
O457 O 0.84196 0.51023 0.93599 0.0
O458 O 0.8237 0.49844 0.93683 0.0
C459 C 0.81945 0.46802 0.95661 0.0
C460 C 0.82938 0.50939 0.9339 0.0
O461 O 0.86046 0.4841 0.95426 0.0
Mg462 Mg 0.57641 0.83415 0.93408 0.0
O463 O 0.56691 0.83021 0.95462 0.0
O464 O 0.57074 0.80879 0.95891 0.0
Mg465 Mg 0.58163 0.79908 0.94168 0.0
C466 C 0.56613 0.82009 0.96223 0.0
C467 C 0.57762 0.86282 0.92564 0.0
O468 O 0.585 0.85657 0.91695 0.0
O469 O 0.59654 0.83407 0.94455 0.0
O470 O 0.59909 0.81223 0.94721 0.0
O471 O 0.55771 0.82855 0.924 0.0
O472 O 0.57344 0.81431 0.92891 0.0
C473 C 0.60337 0.82406 0.94818 0.0
C474 C 0.56159 0.81639 0.92474 0.0
O475 O 0.57356 0.85646 0.93572 0.0
Mg476 Mg 0.22707 0.57349 0.94135 0.0
O477 O 0.23138 0.56095 0.96013 0.0
O478 O 0.25257 0.56496 0.96508 0.0
Mg479 Mg 0.26203 0.57825 0.94942 0.0
C480 C 0.24148 0.5595 0.96763 0.0
C481 C 0.19927 0.57317 0.93185 0.0
O482 O 0.20598 0.5805 0.92347 0.0
O483 O 0.2268 0.59194 0.95463 0.0
O484 O 0.24863 0.59472 0.95713 0.0
O485 O 0.23306 0.55683 0.92832 0.0
O486 O 0.24687 0.572 0.93557 0.0
C487 C 0.23672 0.59855 0.95882 0.0
C488 C 0.24507 0.56102 0.9294 0.0
O489 O 0.20493 0.56965 0.94253 0.0
Mg490 Mg 0.49025 0.22964 0.94525 0.0
O491 O 0.50416 0.22998 0.96383 0.0
O492 O 0.51031 0.25093 0.96753 0.0
Mg493 Mg 0.49377 0.26267 0.95813 0.0
C494 C 0.5113 0.23855 0.96986 0.0
C495 C 0.48745 0.20258 0.93324 0.0
O496 O 0.48163 0.21069 0.92491 0.0
O497 O 0.47133 0.23235 0.95796 0.0
O498 O 0.48119 0.24802 0.96971 0.0
O499 O 0.50759 0.23472 0.93241 0.0
O500 O 0.49413 0.24942 0.94128 0.0
C501 C 0.47091 0.24143 0.96676 0.0
C502 C 0.50458 0.24697 0.93453 0.0
O503 O 0.49083 0.20706 0.94451 0.0
Mg504 Mg 0.83333 0.57521 0.12831 0.0
O505 O 0.83293 0.5638 0.10845 0.0
O506 O 0.81188 0.56378 0.10167 0.0
Mg507 Mg 0.79915 0.57573 0.11597 0.0
C508 C 0.82397 0.56049 0.10017 0.0
C509 C 0.8596 0.57486 0.14138 0.0
O510 O 0.85091 0.57881 0.15021 0.0
O511 O 0.83271 0.59486 0.11665 0.0
O512 O 0.81131 0.59398 0.11094 0.0
O513 O 0.82744 0.55684 0.1393 0.0
O514 O 0.81326 0.5714 0.1315 0.0
C515 C 0.82242 0.59991 0.11126 0.0
C516 C 0.81531 0.56023 0.13717 0.0
O517 O 0.8558 0.57369 0.12944 0.0
Mg518 Mg 0.49142 0.84034 0.11498 0.0
O519 O 0.50388 0.83389 0.0972 0.0
O520 O 0.51083 0.81309 0.09983 0.0
Mg521 Mg 0.50088 0.80543 0.11877 0.0
C522 C 0.51045 0.82386 0.09322 0.0
C523 C 0.48928 0.87079 0.10335 0.0
O524 O 0.48449 0.87897 0.09445 0.0
O525 O 0.47379 0.82901 0.10612 0.0
O526 O 0.48099 0.80826 0.10853 0.0
O527 O 0.51061 0.84453 0.12561 0.0
O528 O 0.49993 0.82559 0.12667 0.0
C529 C 0.47232 0.81654 0.10456 0.0
C530 C 0.51025 0.83234 0.12948 0.0
O531 O 0.48544 0.8588 0.10318 0.0
Mg532 Mg 0.23062 0.48851 0.12405 0.0
O533 O 0.2335 0.49854 0.10385 0.0
O534 O 0.25179 0.48815 0.0967 0.0
Mg535 Mg 0.26369 0.47902 0.11404 0.0
C536 C 0.24171 0.49555 0.09466 0.0
C537 C 0.2027 0.48802 0.13482 0.0
O538 O 0.20939 0.48027 0.14284 0.0
O539 O 0.22894 0.46981 0.1112 0.0
O540 O 0.24837 0.46292 0.11788 0.0
O541 O 0.23833 0.50616 0.13514 0.0
O542 O 0.25105 0.49055 0.12712 0.0
C543 C 0.23836 0.46146 0.11045 0.0
C544 C 0.25013 0.50181 0.13289 0.0
O545 O 0.20843 0.4923 0.12446 0.0
Mg546 Mg 0.57781 0.22906 0.12653 0.0
O547 O 0.56918 0.2299 0.10561 0.0
O548 O 0.57746 0.24904 0.09802 0.0
Mg549 Mg 0.58528 0.26246 0.11492 0.0
C550 C 0.57134 0.23809 0.09617 0.0
C551 C 0.57675 0.20261 0.13994 0.0
O552 O 0.58137 0.21088 0.14882 0.0
O553 O 0.59757 0.22781 0.11516 0.0
O554 O 0.60113 0.24801 0.12169 0.0
O555 O 0.55874 0.23619 0.13559 0.0
O556 O 0.57396 0.24961 0.12804 0.0
C557 C 0.60448 0.23831 0.11451 0.0
C558 C 0.56231 0.24814 0.13281 0.0
O559 O 0.57529 0.20674 0.12814 0.0
Mg560 Mg 0.94228 0.83833 0.48377 0.0
O561 O 0.96062 0.83439 0.49645 0.0
O562 O 0.96037 0.81329 0.50308 0.0
Mg563 Mg 0.94242 0.80336 0.49351 0.0
C564 C 0.96568 0.82475 0.50287 0.0
C565 C 0.94924 0.86979 0.48026 0.0
O566 O 0.9553 0.87929 0.47382 0.0
O567 O 0.95273 0.8278 0.46662 0.0
O568 O 0.95231 0.80678 0.47344 0.0
O569 O 0.93086 0.84201 0.50257 0.0
O570 O 0.9325 0.82261 0.49273 0.0
C571 C 0.95549 0.81558 0.46494 0.0
C572 C 0.92882 0.82936 0.50283 0.0
O573 O 0.95141 0.85785 0.47694 0.0
Mg574 Mg 0.94425 0.22942 0.57505 0.0
O575 O 0.96361 0.23259 0.56379 0.0
O576 O 0.96508 0.25372 0.55753 0.0
Mg577 Mg 0.94686 0.26451 0.56583 0.0
C578 C 0.9697 0.24196 0.55792 0.0
C579 C 0.95114 0.19738 0.58006 0.0
O580 O 0.95724 0.18876 0.58763 0.0
O581 O 0.95345 0.23937 0.59318 0.0
O582 O 0.95438 0.26052 0.58679 0.0
O583 O 0.93381 0.22698 0.55528 0.0
O584 O 0.93582 0.24586 0.56585 0.0
C585 C 0.95631 0.25147 0.5954 0.0
C586 C 0.93226 0.23968 0.55541 0.0
O587 O 0.95254 0.20963 0.58257 0.0
Mg588 Mg 0.8294 0.93923 0.57142 0.0
O589 O 0.82753 0.95929 0.5603 0.0
O590 O 0.80685 0.96605 0.56465 0.0
Mg591 Mg 0.79538 0.95068 0.57656 0.0
C592 C 0.81824 0.96788 0.55947 0.0
C593 C 0.85371 0.92494 0.56719 0.0
O594 O 0.84385 0.91697 0.57003 0.0
O595 O 0.83085 0.95116 0.59079 0.0
O596 O 0.80935 0.95583 0.59345 0.0
O597 O 0.82207 0.92828 0.55369 0.0
O598 O 0.80913 0.93594 0.56942 0.0
C599 C 0.82128 0.95601 0.59752 0.0
C600 C 0.81026 0.93039 0.55804 0.0
O601 O 0.85171 0.93736 0.56802 0.0
Mg602 Mg 0.12123 0.84175 0.57153 0.0
O603 O 0.1018 0.83558 0.56199 0.0
O604 O 0.10242 0.81419 0.55655 0.0
Mg605 Mg 0.12232 0.80618 0.5642 0.0
C606 C 0.09649 0.82536 0.5569 0.0
C607 C 0.11156 0.87294 0.57405 0.0
O608 O 0.10354 0.88154 0.57957 0.0
O609 O 0.11412 0.83193 0.59069 0.0
O610 O 0.11529 0.81049 0.58531 0.0
O611 O 0.12911 0.84443 0.55087 0.0
O612 O 0.131 0.82598 0.56239 0.0
C613 C 0.1127 0.81969 0.59356 0.0
C614 C 0.13243 0.83209 0.55137 0.0
O615 O 0.11107 0.86097 0.57793 0.0
Mg616 Mg 0.21737 0.12063 0.57234 0.0
O617 O 0.22439 0.10163 0.56205 0.0
O618 O 0.24575 0.10364 0.55679 0.0
Mg619 Mg 0.25276 0.12363 0.56505 0.0
C620 C 0.23497 0.09706 0.55686 0.0
C621 C 0.18617 0.11231 0.57579 0.0
O622 O 0.17736 0.10394 0.58036 0.0
O623 O 0.22746 0.11305 0.59117 0.0
O624 O 0.24879 0.11552 0.58584 0.0
O625 O 0.21413 0.12933 0.55215 0.0
O626 O 0.23259 0.13136 0.56361 0.0
C627 C 0.23974 0.1121 0.59396 0.0
C628 C 0.22631 0.13314 0.55274 0.0
O629 O 0.19831 0.11007 0.57827 0.0
Mg630 Mg 0.12647 0.2263 0.49007 0.0
O631 O 0.10671 0.22996 0.50064 0.0
O632 O 0.10578 0.25111 0.50697 0.0
Mg633 Mg 0.12449 0.2614 0.49927 0.0
C634 C 0.10077 0.23953 0.50636 0.0
C635 C 0.11944 0.19443 0.48625 0.0
O636 O 0.11245 0.18556 0.47986 0.0
O637 O 0.11785 0.23642 0.47162 0.0
O638 O 0.11733 0.25752 0.47822 0.0
O639 O 0.13585 0.22338 0.51018 0.0
O640 O 0.13492 0.24243 0.49965 0.0
C641 C 0.1153 0.24864 0.46948 0.0
C642 C 0.13782 0.23602 0.5102 0.0
O643 O 0.1184 0.20648 0.48273 0.0
Mg644 Mg 0.83172 0.12692 0.49469 0.0
O645 O 0.82917 0.10623 0.50374 0.0
O646 O 0.811 0.09927 0.49307 0.0
Mg647 Mg 0.79897 0.11672 0.48438 0.0
C648 C 0.82108 0.09707 0.50042 0.0
C649 C 0.8599 0.13726 0.49327 0.0
O650 O 0.85346 0.14467 0.48475 0.0
O651 O 0.83391 0.11498 0.47547 0.0
O652 O 0.81438 0.12135 0.46853 0.0
O653 O 0.82348 0.13683 0.51285 0.0
O654 O 0.81122 0.12952 0.49655 0.0
C655 C 0.82466 0.1143 0.46696 0.0
C656 C 0.81181 0.13452 0.5082 0.0
O657 O 0.8539 0.12754 0.49853 0.0
Mg658 Mg 0.23724 0.93747 0.49156 0.0
O659 O 0.23867 0.9573 0.50297 0.0
O660 O 0.26011 0.96266 0.50383 0.0
Mg661 Mg 0.27215 0.94711 0.49268 0.0
C662 C 0.248 0.96507 0.50652 0.0
C663 C 0.20971 0.92709 0.4886 0.0
O664 O 0.21745 0.91805 0.48337 0.0
O665 O 0.23974 0.94934 0.47238 0.0
O666 O 0.26137 0.95368 0.47389 0.0
O667 O 0.2407 0.92616 0.51011 0.0
O668 O 0.25669 0.93277 0.49685 0.0
C669 C 0.25039 0.95428 0.46768 0.0
C670 C 0.25321 0.92754 0.50793 0.0
O671 O 0.21476 0.9382 0.49165 0.0
H672 H 0.06249 0.47379 0.34885 0.0
H673 H 0.04838 0.49277 0.3544 0.0
H674 H 0.02701 0.48753 0.3179 0.0
H675 H 0.04091 0.46866 0.31236 0.0
H676 H 0.04796 0.51522 0.33875 0.0
H677 H 0.99728 0.49573 0.34362 0.0
H678 H 0.01172 0.48528 0.34492 0.0
H679 H 0.00513 0.48961 0.32894 0.0
C680 C 0.05448 0.47642 0.34224 0.0
C681 C 0.05285 0.46977 0.33012 0.0
C682 C 0.04648 0.48731 0.34539 0.0
C683 C 0.03657 0.49154 0.33662 0.0
C684 C 0.0344 0.48434 0.32496 0.0
H685 H 0.99378 0.55627 0.30788 0.0
H686 H 0.00418 0.53539 0.31405 0.0
C687 C 0.04243 0.47358 0.32175 0.0
C688 C 0.02966 0.50438 0.33852 0.0
H689 H 0.99912 0.51864 0.33651 0.0
C690 C 0.03727 0.51599 0.33863 0.0
C691 C 0.01572 0.50538 0.33836 0.0
C692 C 0.007 0.49332 0.3391 0.0
C693 C 0.03134 0.52853 0.33754 0.0
C694 C 0.01744 0.52946 0.33647 0.0
C695 C 0.00979 0.5179 0.3372 0.0
C696 C 0.01076 0.54215 0.33323 0.0
C697 C 0.04004 0.54062 0.33668 0.0
C698 C 0.0109 0.55288 0.34203 0.0
C699 C 0.00496 0.56492 0.33852 0.0
C700 C 0.99877 0.56643 0.32613 0.0
C701 C 0.99851 0.55554 0.31745 0.0
C702 C 0.00441 0.54355 0.32099 0.0
H703 H 0.05066 0.53801 0.33565 0.0
H704 H 0.03712 0.54688 0.32814 0.0
H705 H 0.03884 0.5466 0.3458 0.0
H706 H 0.01561 0.55196 0.35161 0.0
H707 H 0.00529 0.57304 0.34548 0.0
H708 H 0.58237 0.05704 0.33408 0.0
H709 H 0.56257 0.04389 0.33858 0.0
H710 H 0.54568 0.05664 0.30156 0.0
H711 H 0.56527 0.06997 0.29706 0.0
H712 H 0.52765 0.05703 0.32242 0.0
H713 H 0.55431 0.00896 0.31988 0.0
H714 H 0.56068 0.02062 0.33166 0.0
H715 H 0.5616 0.02426 0.31429 0.0
C716 C 0.57443 0.05711 0.32691 0.0
C717 C 0.5755 0.06448 0.31513 0.0
C718 C 0.56314 0.04953 0.32948 0.0
C719 C 0.55275 0.04911 0.3203 0.0
C720 C 0.55361 0.05677 0.30875 0.0
H721 H 0.49202 0.99316 0.30394 0.0
H722 H 0.51168 0.00699 0.30537 0.0
C723 C 0.56486 0.06436 0.30618 0.0
C724 C 0.54106 0.04049 0.32247 0.0
H725 H 0.5315 0.00815 0.32444 0.0
C726 C 0.52848 0.04634 0.32298 0.0
C727 C 0.54218 0.02655 0.32308 0.0
C728 C 0.55539 0.01967 0.3221 0.0
C729 C 0.51697 0.03862 0.32383 0.0
C730 C 0.51809 0.02468 0.32437 0.0
C731 C 0.53068 0.01884 0.32412 0.0
C732 C 0.50631 0.01594 0.32405 0.0
C733 C 0.50369 0.04543 0.3236 0.0
C734 C 0.49684 0.01619 0.33421 0.0
C735 C 0.4855 0.00829 0.33341 0.0
C736 C 0.48346 0.99995 0.32245 0.0
C737 C 0.49318 0.99949 0.31249 0.0
C738 C 0.50447 0.00738 0.3133 0.0
H739 H 0.50449 0.05594 0.32048 0.0
H740 H 0.49681 0.04027 0.31679 0.0
H741 H 0.49933 0.04519 0.33367 0.0
H742 H 0.49819 0.02255 0.34272 0.0
H743 H 0.47828 0.00885 0.34131 0.0
H744 H 0.05596 0.58254 0.72422 0.0
H745 H 0.04503 0.56135 0.72012 0.0
H746 H 0.05089 0.55029 0.7609 0.0
H747 H 0.06201 0.57128 0.76506 0.0
H748 H 0.05725 0.53018 0.74341 0.0
H749 H 0.0078 0.55126 0.73197 0.0
H750 H 0.02115 0.55746 0.72202 0.0
H751 H 0.02079 0.56093 0.73944 0.0
C752 C 0.05489 0.57563 0.73234 0.0
C753 C 0.0598 0.57869 0.74501 0.0
C754 C 0.04859 0.56353 0.72998 0.0
C755 C 0.04697 0.55431 0.74025 0.0
C756 C 0.05199 0.55727 0.75284 0.0
H757 H 0.99354 0.48948 0.75062 0.0
H758 H 0.00597 0.51017 0.75067 0.0
C759 C 0.05832 0.56932 0.7552 0.0
C760 C 0.04008 0.54153 0.738 0.0
H761 H 0.0101 0.52811 0.73028 0.0
C762 C 0.04696 0.52971 0.74047 0.0
C763 C 0.02663 0.54095 0.73422 0.0
C764 C 0.01859 0.55331 0.73185 0.0
C765 C 0.04071 0.51734 0.73949 0.0
C766 C 0.02724 0.51677 0.73578 0.0
C767 C 0.02043 0.52858 0.73308 0.0
C768 C 0.01978 0.50412 0.73548 0.0
C769 C 0.04844 0.50504 0.74292 0.0
C770 C 0.02337 0.49383 0.72688 0.0
C771 C 0.01632 0.48191 0.72689 0.0
C772 C 0.00542 0.48013 0.73538 0.0
C773 C 0.00185 0.4905 0.74394 0.0
C774 C 0.00892 0.50237 0.74395 0.0
H775 H 0.05768 0.50739 0.74836 0.0
H776 H 0.04241 0.4982 0.74904 0.0
H777 H 0.0512 0.49981 0.73367 0.0
H778 H 0.03163 0.495 0.72016 0.0
H779 H 0.01956 0.47403 0.72043 0.0
H780 H 0.50032 0.08372 0.76071 0.0
H781 H 0.51987 0.06976 0.75797 0.0
H782 H 0.49643 0.04101 0.73692 0.0
H783 H 0.47706 0.05534 0.73897 0.0
H784 H 0.52467 0.04713 0.76757 0.0
H785 H 0.52745 0.04134 0.71331 0.0
H786 H 0.51656 0.05317 0.72103 0.0
H787 H 0.51169 0.03609 0.71944 0.0
C788 C 0.49941 0.0745 0.75533 0.0
C789 C 0.48719 0.07063 0.75002 0.0
C790 C 0.51059 0.06652 0.75376 0.0
C791 C 0.50975 0.05436 0.74705 0.0
C792 C 0.49751 0.0505 0.74174 0.0
H793 H 0.56432 0.99018 0.76358 0.0
H794 H 0.54537 0.00507 0.76207 0.0
C795 C 0.4864 0.05865 0.74302 0.0
C796 C 0.52142 0.04535 0.74658 0.0
H797 H 0.53991 0.02571 0.72617 0.0
C798 C 0.52805 0.04258 0.75846 0.0
C799 C 0.52604 0.03949 0.7347 0.0
C800 C 0.52014 0.0428 0.7214 0.0
C801 C 0.53896 0.03402 0.75888 0.0
C802 C 0.54306 0.02752 0.74716 0.0
C803 C 0.53663 0.03048 0.7352 0.0
C804 C 0.55407 0.01775 0.74715 0.0
C805 C 0.54613 0.03229 0.77186 0.0
C806 C 0.56497 0.01941 0.73869 0.0
C807 C 0.57572 0.01069 0.73931 0.0
C808 C 0.57582 1.00024 0.7485 0.0
C809 C 0.56466 0.99829 0.75657 0.0
C810 C 0.55385 0.00686 0.75577 0.0
H811 H 0.5446 0.04094 0.77847 0.0
H812 H 0.54222 0.02344 0.77703 0.0
H813 H 0.55692 0.03095 0.77032 0.0
H814 H 0.56534 0.02766 0.73185 0.0
H815 H 0.58416 0.01243 0.73293 0.0
H816 H 0.33334 0.05887 0.48243 0.0
H817 H 0.33642 0.04496 0.50199 0.0
H818 H 0.29841 0.05725 0.51686 0.0
H819 H 0.29529 0.07134 0.49748 0.0
H820 H 0.31821 0.05781 0.53592 0.0
H821 H 0.31777 0.00976 0.50927 0.0
H822 H 0.32969 0.02151 0.50333 0.0
H823 H 0.31235 0.025 0.50169 0.0
C824 C 0.32561 0.05863 0.48984 0.0
C825 C 0.31402 0.06619 0.48831 0.0
C826 C 0.32737 0.0506 0.50099 0.0
C827 C 0.31755 0.04991 0.51077 0.0
C828 C 0.30608 0.05759 0.50939 0.0
H829 H 0.30282 0.99324 0.57234 0.0
H830 H 0.30342 0.0067 0.55231 0.0
C831 C 0.30431 0.06563 0.49827 0.0
C832 C 0.31922 0.04129 0.52254 0.0
H833 H 0.32219 0.00904 0.53222 0.0
C834 C 0.31913 0.04715 0.53512 0.0
C835 C 0.32031 0.02738 0.52146 0.0
C836 C 0.31993 0.02048 0.50823 0.0
C837 C 0.32001 0.03947 0.54667 0.0
C838 C 0.32122 0.02557 0.54559 0.0
C839 C 0.32139 0.01971 0.53301 0.0
C840 C 0.32149 0.01688 0.55743 0.0
C841 C 0.3192 0.04628 0.55993 0.0
C842 C 0.33164 0.01791 0.56683 0.0
C843 C 0.33132 0.01025 0.57837 0.0
C844 C 0.32085 0.00137 0.58068 0.0
C845 C 0.31098 1.00004 0.57097 0.0
C846 C 0.31131 0.0077 0.55948 0.0
H847 H 0.31534 0.05653 0.55905 0.0
H848 H 0.31275 0.04067 0.56683 0.0
H849 H 0.32923 0.04679 0.56433 0.0
H850 H 0.33974 0.02474 0.56531 0.0
H851 H 0.33914 0.01146 0.58556 0.0
H852 H 0.98958 0.31233 0.4972 0.0
H853 H 0.0012 0.31408 0.51829 0.0
H854 H 0.03258 0.33573 0.49905 0.0
H855 H 0.02046 0.33473 0.47811 0.0
H856 H 0.02268 0.30372 0.52498 0.0
H857 H 0.02972 0.35752 0.53115 0.0
H858 H 0.019 0.35078 0.51862 0.0
H859 H 0.03655 0.35204 0.51575 0.0
C860 C 0.99885 0.31766 0.49755 0.0
C861 C 0.00413 0.3234 0.48605 0.0
C862 C 0.00551 0.31866 0.5096 0.0
C863 C 0.01776 0.32517 0.5104 0.0
C864 C 0.02298 0.33102 0.49888 0.0
H865 H 0.07511 0.3037 0.57053 0.0
H866 H 0.06204 0.3063 0.5504 0.0
C867 C 0.01611 0.33034 0.48687 0.0
C868 C 0.02546 0.32477 0.52297 0.0
H869 H 0.04356 0.34351 0.54449 0.0
C870 C 0.0271 0.31249 0.52929 0.0
C871 C 0.03113 0.33618 0.52881 0.0
C872 C 0.02888 0.34988 0.5233 0.0
C873 C 0.03434 0.31123 0.54105 0.0
C874 C 0.04073 0.32248 0.5464 0.0
C875 C 0.03889 0.33483 0.54028 0.0
C876 C 0.04929 0.32157 0.55836 0.0
C877 C 0.03474 0.29788 0.54775 0.0
C878 C 0.047 0.32979 0.56933 0.0
C879 C 0.05471 0.32855 0.58076 0.0
C880 C 0.06477 0.31896 0.58149 0.0
C881 C 0.06727 0.311 0.57037 0.0
C882 C 0.05974 0.31243 0.55888 0.0
H883 H 0.02599 0.2918 0.54509 0.0
H884 H 0.04367 0.29244 0.54445 0.0
H885 H 0.03505 0.29887 0.55869 0.0
H886 H 0.03907 0.337 0.56916 0.0
H887 H 0.05257 0.33486 0.58915 0.0
H888 H 0.72503 0.01147 0.47799 0.0
H889 H 0.72305 0.02662 0.49676 0.0
H890 H 0.74804 0.00108 0.52007 0.0
H891 H 0.7503 0.98602 0.50133 0.0
H892 H 0.71435 0.02434 0.52249 0.0
H893 H 0.76773 0.03611 0.52092 0.0
H894 H 0.75966 0.02679 0.50808 0.0
H895 H 0.76476 0.01876 0.52314 0.0
C896 C 0.73 0.009 0.48715 0.0
C897 C 0.738 0.99764 0.48809 0.0
C898 C 0.72886 0.01768 0.49787 0.0
C899 C 0.73565 0.01513 0.50969 0.0
C900 C 0.743 0.00341 0.51091 0.0
H901 H 0.72721 0.05188 0.58646 0.0
H902 H 0.72473 0.0382 0.56671 0.0
C903 C 0.74423 0.99479 0.50019 0.0
C904 C 0.73554 0.02494 0.52058 0.0
H905 H 0.75592 0.04353 0.53992 0.0
C906 C 0.72342 0.02862 0.52627 0.0
C907 C 0.74735 0.03074 0.52528 0.0
C908 C 0.76059 0.02801 0.51895 0.0
C909 C 0.72284 0.03765 0.53683 0.0
C910 C 0.73474 0.04287 0.542 0.0
C911 C 0.7468 0.03945 0.53605 0.0
C912 C 0.73507 0.05174 0.55371 0.0
C913 C 0.70949 0.04161 0.54218 0.0
C914 C 0.74184 0.06384 0.55305 0.0
C915 C 0.7435 0.07155 0.56439 0.0
C916 C 0.73837 0.06734 0.57661 0.0
C917 C 0.73121 0.05544 0.57717 0.0
C918 C 0.72969 0.04765 0.56585 0.0
H919 H 0.70162 0.04032 0.53463 0.0
H920 H 0.707 0.03522 0.55075 0.0
H921 H 0.70946 0.05207 0.54552 0.0
H922 H 0.74609 0.0672 0.5438 0.0
H923 H 0.74897 0.08072 0.56359 0.0
H924 H 0.05101 0.73308 0.4772 0.0
H925 H 0.0369 0.73358 0.49688 0.0
H926 H 0.06663 0.75598 0.51765 0.0
H927 H 0.08044 0.75609 0.49778 0.0
H928 H 0.03878 0.72485 0.52101 0.0
H929 H 0.03578 0.77945 0.52345 0.0
H930 H 0.04314 0.77097 0.50961 0.0
H931 H 0.05251 0.77376 0.5245 0.0
C932 C 0.05451 0.73811 0.48597 0.0
C933 C 0.06671 0.74474 0.4859 0.0
C934 C 0.04645 0.73839 0.49722 0.0
C935 C 0.05052 0.74514 0.50867 0.0
C936 C 0.06303 0.75115 0.50881 0.0
H937 H 0.01355 0.73584 0.5862 0.0
H938 H 0.02731 0.73352 0.56644 0.0
C939 C 0.07096 0.75114 0.49748 0.0
C940 C 0.04163 0.74595 0.52038 0.0
H941 H 0.0277 0.76769 0.54216 0.0
C942 C 0.03628 0.73423 0.52559 0.0
C943 C 0.03816 0.75821 0.52624 0.0
C944 C 0.04258 0.7713 0.52057 0.0
C945 C 0.02771 0.73439 0.53654 0.0
C946 C 0.02477 0.74659 0.54278 0.0
C947 C 0.03003 0.75831 0.53749 0.0
C948 C 0.01616 0.74755 0.55469 0.0
C949 C 0.02165 0.72151 0.54104 0.0
C950 C 0.00552 0.7565 0.55487 0.0
C951 C 0.99787 0.75811 0.56627 0.0
C952 C 0.0006 0.75069 0.57771 0.0
C953 C 0.01111 0.74159 0.57748 0.0
C954 C 0.01893 0.74017 0.56614 0.0
H955 H 0.02134 0.71417 0.53288 0.0
H956 H 0.02776 0.71725 0.54909 0.0
H957 H 0.01145 0.72299 0.54481 0.0
H958 H 0.00318 0.76233 0.54618 0.0
H959 H 0.9898 0.76515 0.56611 0.0
H960 H 0.58225 0.34296 0.00112 0.0
H961 H 0.56296 0.34706 0.01517 0.0
H962 H 0.54496 0.31113 0.00097 0.0
H963 H 0.56396 0.30712 0.98669 0.0
H964 H 0.52714 0.33147 0.00302 0.0
H965 H 0.55656 0.32669 0.04924 0.0
H966 H 0.56194 0.33935 0.03799 0.0
H967 H 0.56312 0.32226 0.03326 0.0
C968 C 0.57414 0.33598 0.0009 0.0
C969 C 0.57476 0.32461 0.99288 0.0
C970 C 0.56316 0.33831 0.00901 0.0
C971 C 0.55265 0.32926 0.00933 0.0
C972 C 0.55299 0.31822 0.00094 0.0
H973 H 0.49698 0.3064 0.06763 0.0
H974 H 0.51562 0.31028 0.05286 0.0
C975 C 0.56391 0.31592 0.9928 0.0
C976 C 0.54147 0.33085 0.01872 0.0
H977 H 0.53374 0.33023 0.05161 0.0
C978 C 0.52857 0.33134 0.01365 0.0
C979 C 0.54338 0.33059 0.03259 0.0
C980 C 0.55697 0.32959 0.03865 0.0
C981 C 0.5175 0.33112 0.02205 0.0
C982 C 0.5194 0.33066 0.03591 0.0
C983 C 0.53231 0.33064 0.04099 0.0
C984 C 0.50821 0.32888 0.04526 0.0
C985 C 0.50389 0.33073 0.01597 0.0
C986 C 0.49792 0.33817 0.04609 0.0
C987 C 0.48712 0.33591 0.05447 0.0
C988 C 0.48649 0.32439 0.06228 0.0
C989 C 0.49706 0.31534 0.06172 0.0
C990 C 0.50777 0.31756 0.0533 0.0
H991 H 0.50424 0.3283 0.00526 0.0
H992 H 0.49757 0.32332 0.02104 0.0
H993 H 0.49915 0.34057 0.01705 0.0
H994 H 0.49819 0.34712 0.04021 0.0
H995 H 0.47924 0.34316 0.05476 0.0
H996 H 0.50193 0.75144 0.98992 0.0
H997 H 0.52068 0.7474 0.00438 0.0
H998 H 0.50157 0.7126 0.01995 0.0
H999 H 0.48248 0.71671 0.0056 0.0
H1000 H 0.51094 0.7282 0.03947 0.0
H1001 H 0.55036 0.72087 0.00253 0.0
H1002 H 0.54153 0.73587 0.99918 0.0
H1003 H 0.53305 0.72023 0.99824 0.0
C1004 C 0.5017 0.74283 0.99629 0.0
C1005 C 0.49064 0.73442 0.99658 0.0
C1006 C 0.51253 0.74046 0.00449 0.0
C1007 C 0.51267 0.72955 0.01307 0.0
C1008 C 0.50173 0.72101 0.01331 0.0
H1009 H 0.58691 0.72435 0.05809 0.0
H1010 H 0.56798 0.71685 0.04503 0.0
C1011 C 0.49083 0.72338 0.0051 0.0
C1012 C 0.52381 0.72786 0.02247 0.0
H1013 H 0.55747 0.729 0.02402 0.0
C1014 C 0.52112 0.72809 0.0361 0.0
C1015 C 0.5371 0.72736 0.01814 0.0
C1016 C 0.54067 0.72591 0.00372 0.0
C1017 C 0.53135 0.72893 0.04543 0.0
C1018 C 0.54459 0.72988 0.04099 0.0
C1019 C 0.54732 0.72854 0.02744 0.0
C1020 C 0.55557 0.73357 0.05 0.0
C1021 C 0.52785 0.72907 0.05994 0.0
C1022 C 0.55491 0.74545 0.05714 0.0
C1023 C 0.56567 0.74976 0.0646 0.0
C1024 C 0.57745 0.74236 0.06499 0.0
C1025 C 0.57802 0.73032 0.05802 0.0
C1026 C 0.5672 0.726 0.05055 0.0
H1027 H 0.51859 0.72347 0.06182 0.0
H1028 H 0.53588 0.72476 0.06606 0.0
H1029 H 0.52616 0.73943 0.06313 0.0
H1030 H 0.54619 0.75166 0.0566 0.0
H1031 H 0.56484 0.75909 0.06981 0.0
H1032 H 0.33011 0.58955 0.05218 0.0
H1033 H 0.33301 0.5715 0.03629 0.0
H1034 H 0.31451 0.54445 0.06364 0.0
H1035 H 0.31101 0.56254 0.07924 0.0
H1036 H 0.34524 0.54784 0.036 0.0
H1037 H 0.29114 0.54031 0.03197 0.0
H1038 H 0.29816 0.5542 0.04062 0.0
H1039 H 0.29705 0.53827 0.04855 0.0
C1040 C 0.32675 0.57973 0.05484 0.0
C1041 C 0.32015 0.5775 0.06689 0.0
C1042 C 0.32842 0.56942 0.04576 0.0
C1043 C 0.32365 0.55669 0.04862 0.0
C1044 C 0.31787 0.55428 0.06102 0.0
H1045 H 0.33795 0.48398 0.00492 0.0
H1046 H 0.33968 0.50276 0.02004 0.0
C1047 C 0.31596 0.56461 0.06998 0.0
C1048 C 0.32416 0.54612 0.03845 0.0
H1049 H 0.30476 0.52434 0.02154 0.0
C1050 C 0.33639 0.54272 0.03279 0.0
C1051 C 0.31257 0.53961 0.03408 0.0
C1052 C 0.29898 0.54337 0.03901 0.0
C1053 C 0.33736 0.53284 0.02305 0.0
C1054 C 0.32583 0.52601 0.01909 0.0
C1055 C 0.31361 0.52952 0.02464 0.0
C1056 C 0.32603 0.51518 0.00918 0.0
C1057 C 0.35066 0.53001 0.01692 0.0
C1058 C 0.31777 0.51588 0.99806 0.0
C1059 C 0.31661 0.50511 0.98951 0.0
C1060 C 0.32371 0.49338 0.99189 0.0
C1061 C 0.33238 0.49288 0.00276 0.0
C1062 C 0.33345 0.50365 0.01138 0.0
H1063 H 0.35753 0.5385 0.01811 0.0
H1064 H 0.35514 0.52131 0.02189 0.0
H1065 H 0.3497 0.52774 0.00622 0.0
H1066 H 0.31194 0.52468 0.99618 0.0
H1067 H 0.30991 0.50589 0.98119 0.0
H1068 H 0.75777 0.56847 0.99673 0.0
H1069 H 0.75371 0.54822 0.00913 0.0
H1070 H 0.72004 0.56638 0.02803 0.0
H1071 H 0.72383 0.58668 0.01529 0.0
H1072 H 0.75529 0.54634 0.03517 0.0
H1073 H 0.70543 0.5301 0.01929 0.0
H1074 H 0.7148 0.54244 0.01039 0.0
H1075 H 0.70601 0.54683 0.02522 0.0
C1076 C 0.74939 0.56814 0.0034 0.0
C1077 C 0.74119 0.57925 0.0051 0.0
C1078 C 0.74706 0.55652 0.01047 0.0
C1079 C 0.73653 0.55571 0.01947 0.0
C1080 C 0.72807 0.56665 0.02095 0.0
H1081 H 0.74193 0.49983 0.08452 0.0
H1082 H 0.73884 0.51982 0.07125 0.0
C1083 C 0.73031 0.57829 0.01373 0.0
C1084 C 0.73537 0.54389 0.02814 0.0
H1085 H 0.71488 0.51874 0.03766 0.0
C1086 C 0.74645 0.5403 0.03567 0.0
C1087 C 0.72387 0.53594 0.02872 0.0
C1088 C 0.71188 0.53892 0.02038 0.0
C1089 C 0.74644 0.529 0.04369 0.0
C1090 C 0.73482 0.52125 0.04462 0.0
C1091 C 0.72371 0.52478 0.03707 0.0
C1092 C 0.73431 0.5093 0.05316 0.0
C1093 C 0.75906 0.5253 0.05076 0.0
C1094 C 0.73184 0.49677 0.04767 0.0
C1095 C 0.73329 0.48533 0.05539 0.0
C1096 C 0.73741 0.4863 0.06861 0.0
C1097 C 0.73906 0.49886 0.07427 0.0
C1098 C 0.73732 0.51026 0.06668 0.0
H1099 H 0.76785 0.5299 0.04603 0.0
H1100 H 0.75859 0.52888 0.06112 0.0
H1101 H 0.76051 0.51441 0.05091 0.0
H1102 H 0.72941 0.4958 0.03729 0.0
H1103 H 0.73192 0.47574 0.05083 0.0
H1104 H 0.51625 0.98246 0.80821 0.0
H1105 H 0.52606 0.00454 0.80969 0.0
H1106 H 0.51218 0.00816 0.84984 0.0
H1107 H 0.50239 0.9861 0.84854 0.0
H1108 H 0.50586 0.03017 0.83185 0.0
H1109 H 0.55904 0.01634 0.83219 0.0
H1110 H 0.54915 0.00861 0.81961 0.0
H1111 H 0.54609 0.0049 0.83671 0.0
C1112 C 0.51537 0.98789 0.8174 0.0
C1113 C 0.50852 0.98248 0.82825 0.0
C1114 C 0.52102 0.00048 0.81824 0.0
C1115 C 0.5199 0.00791 0.8299 0.0
C1116 C 0.51318 0.00254 0.84078 0.0
H1117 H 0.55917 0.08243 0.84766 0.0
H1118 H 0.54935 0.06039 0.84909 0.0
C1119 C 0.50762 0.98991 0.84 0.0
C1120 C 0.52526 0.02151 0.83054 0.0
H1121 H 0.55401 0.03913 0.82954 0.0
C1122 C 0.51638 0.03215 0.83141 0.0
C1123 C 0.53899 0.02401 0.83011 0.0
C1124 C 0.54893 0.01289 0.82971 0.0
C1125 C 0.52089 0.04528 0.83147 0.0
C1126 C 0.53459 0.04779 0.83058 0.0
C1127 C 0.54349 0.03715 0.8301 0.0
C1128 C 0.5399 0.06141 0.82995 0.0
C1129 C 0.511 0.0564 0.83252 0.0
C1130 C 0.53778 0.06928 0.81871 0.0
C1131 C 0.54345 0.08187 0.8178 0.0
C1132 C 0.5513 0.08682 0.82815 0.0
C1133 C 0.55315 0.07897 0.83952 0.0
C1134 C 0.54758 0.06635 0.84036 0.0
H1135 H 0.50113 0.05282 0.83576 0.0
H1136 H 0.51449 0.06403 0.8396 0.0
H1137 H 0.50988 0.0612 0.8227 0.0
H1138 H 0.53197 0.06557 0.81053 0.0
H1139 H 0.54179 0.08765 0.80893 0.0
H1140 H 0.98412 0.54081 0.81001 0.0
H1141 H 0.0054 0.53272 0.81788 0.0
H1142 H 0.99896 0.55174 0.85549 0.0
H1143 H 0.97741 0.55985 0.8477 0.0
H1144 H 0.02403 0.55756 0.84244 0.0
H1145 H 0.01449 0.50383 0.84592 0.0
H1146 H 0.00826 0.51089 0.83085 0.0
H1147 H 0.00144 0.51605 0.84646 0.0
C1148 C 0.98712 0.54318 0.82002 0.0
C1149 C 0.97908 0.551 0.82822 0.0
C1150 C 0.99926 0.53846 0.82453 0.0
C1151 C 0.00368 0.5415 0.83731 0.0
C1152 C 0.99565 0.54918 0.84564 0.0
H1153 H 0.08139 0.50495 0.85066 0.0
H1154 H 0.05961 0.5136 0.8567 0.0
C1155 C 0.98335 0.55378 0.84118 0.0
C1156 C 0.01716 0.53743 0.84129 0.0
H1157 H 0.03715 0.51026 0.8417 0.0
C1158 C 0.02689 0.54722 0.84263 0.0
C1159 C 0.02084 0.52395 0.84181 0.0
C1160 C 0.01068 0.51306 0.84133 0.0
C1161 C 0.04035 0.54385 0.84323 0.0
C1162 C 0.0441 0.5304 0.84225 0.0
C1163 C 0.03429 0.5206 0.84221 0.0
C1164 C 0.05794 0.52638 0.83961 0.0
C1165 C 0.05045 0.55474 0.84439 0.0
C1166 C 0.06424 0.53072 0.82801 0.0
C1167 C 0.07663 0.52574 0.82447 0.0
C1168 C 0.08297 0.51627 0.83244 0.0
C1169 C 0.0768 0.51223 0.84428 0.0
C1170 C 0.06436 0.51717 0.84777 0.0
H1171 H 0.04626 0.56349 0.84955 0.0
H1172 H 0.05936 0.55133 0.84982 0.0
H1173 H 0.05351 0.55792 0.83434 0.0
H1174 H 0.05935 0.53759 0.82141 0.0
H1175 H 0.08107 0.52909 0.81531 0.0
H1176 H 0.51409 0.07906 0.26008 0.0
H1177 H 0.52354 0.0568 0.25996 0.0
H1178 H 0.51698 0.0541 0.21791 0.0
H1179 H 0.50734 0.07625 0.21793 0.0
H1180 H 0.50858 0.03194 0.23124 0.0
H1181 H 0.55952 0.04499 0.24641 0.0
H1182 H 0.54716 0.05116 0.25755 0.0
H1183 H 0.54776 0.0572 0.24082 0.0
C1184 C 0.51473 0.07379 0.25078 0.0
C1185 C 0.50997 0.0795 0.23901 0.0
C1186 C 0.52021 0.06108 0.25072 0.0
C1187 C 0.52115 0.05386 0.23889 0.0
C1188 C 0.51642 0.05952 0.22714 0.0
H1189 H 0.54954 0.97299 0.22345 0.0
H1190 H 0.54052 0.99534 0.22057 0.0
C1191 C 0.51092 0.07221 0.22718 0.0
C1192 C 0.52663 0.04023 0.23886 0.0
H1193 H 0.55382 0.0221 0.24734 0.0
C1194 C 0.51852 0.02979 0.23464 0.0
C1195 C 0.53962 0.03746 0.24321 0.0
C1196 C 0.54907 0.0483 0.24713 0.0
C1197 C 0.52288 0.01659 0.23514 0.0
C1198 C 0.53573 0.0138 0.23986 0.0
C1199 C 0.54394 0.02427 0.24379 0.0
C1200 C 0.54067 1.00007 0.24144 0.0
C1201 C 0.51356 0.0057 0.23106 0.0
C1202 C 0.5438 0.99536 0.2541 0.0
C1203 C 0.54894 0.98266 0.25578 0.0
C1204 C 0.55118 0.97437 0.24482 0.0
C1205 C 0.54789 0.97906 0.23212 0.0
C1206 C 0.5427 0.99182 0.23045 0.0
H1207 H 0.50322 0.00928 0.23011 0.0
H1208 H 0.51671 0.00171 0.22133 0.0
H1209 H 0.5138 0.99746 0.23833 0.0
H1210 H 0.54231 0.00157 0.2627 0.0
H1211 H 0.55134 0.97943 0.26572 0.0
H1212 H 0.07711 0.56818 0.26291 0.0
H1213 H 0.05439 0.55998 0.26316 0.0
H1214 H 0.05836 0.54761 0.22252 0.0
H1215 H 0.08095 0.55611 0.22206 0.0
H1216 H 0.03489 0.55991 0.22696 0.0
H1217 H 0.04342 0.52173 0.26549 0.0
H1218 H 0.04768 0.53814 0.27069 0.0
H1219 H 0.05679 0.5304 0.25749 0.0
C1220 C 0.07318 0.56365 0.25404 0.0
C1221 C 0.0809 0.5627 0.2425 0.0
C1222 C 0.0602 0.55893 0.25421 0.0
C1223 C 0.05475 0.55294 0.24294 0.0
C1224 C 0.06237 0.55214 0.23136 0.0
H1225 H 0.9825 0.51236 0.2224 0.0
H1226 H 0.00373 0.52376 0.22239 0.0
C1227 C 0.0753 0.55699 0.23113 0.0
C1228 C 0.04112 0.54754 0.24316 0.0
H1229 H 0.02127 0.52511 0.25878 0.0
C1230 C 0.03191 0.55229 0.2339 0.0
C1231 C 0.03724 0.53758 0.25222 0.0
C1232 C 0.04682 0.53156 0.26195 0.0
C1233 C 0.01891 0.54744 0.23354 0.0
C1234 C 0.01506 0.53748 0.24259 0.0
C1235 C 0.02422 0.53281 0.25191 0.0
C1236 C 0.00175 0.53137 0.2423 0.0
C1237 C 0.00938 0.55313 0.22357 0.0
C1238 C 0.99363 0.53171 0.25356 0.0
C1239 C 0.9815 0.52509 0.25365 0.0
C1240 C 0.97729 0.51793 0.2425 0.0
C1241 C 0.98538 0.5178 0.23116 0.0
C1242 C 0.9975 0.5244 0.23109 0.0
H1243 H 0.0126 0.56302 0.22004 0.0
H1244 H 0.00888 0.54646 0.21487 0.0
H1245 H 0.99929 0.55401 0.22782 0.0
H1246 H 0.99676 0.53697 0.26234 0.0
H1247 H 0.97556 0.52539 0.26256 0.0
H1248 H 0.84929 0.5073 0.98476 0.0
H1249 H 0.85275 0.51634 0.0069 0.0
H1250 H 0.81126 0.52557 0.00977 0.0
H1251 H 0.80766 0.51666 0.98759 0.0
H1252 H 0.82887 0.54646 0.0176 0.0
H1253 H 0.8409 0.49845 0.04191 0.0
H1254 H 0.85019 0.50274 0.02736 0.0
H1255 H 0.83286 0.49931 0.02599 0.0
C1256 C 0.84087 0.51126 0.99007 0.0
C1257 C 0.82816 0.51119 0.98438 0.0
C1258 C 0.84289 0.51636 0.00276 0.0
C1259 C 0.83224 0.52146 0.01003 0.0
C1260 C 0.8196 0.52163 0.00432 0.0
H1261 H 0.80826 0.54413 0.08583 0.0
H1262 H 0.81299 0.53419 0.06433 0.0
C1263 C 0.81756 0.51651 0.99164 0.0
C1264 C 0.83416 0.52671 0.02357 0.0
H1265 H 0.84013 0.51735 0.05552 0.0
C1266 C 0.83151 0.54014 0.02586 0.0
C1267 C 0.83766 0.51843 0.03431 0.0
C1268 C 0.8405 0.50391 0.03237 0.0
C1269 C 0.83185 0.54542 0.03869 0.0
C1270 C 0.83483 0.53704 0.04947 0.0
C1271 C 0.83794 0.52372 0.04717 0.0
C1272 C 0.83296 0.54165 0.06321 0.0
C1273 C 0.82847 0.5598 0.04078 0.0
C1274 C 0.84279 0.54885 0.06981 0.0
C1275 C 0.84016 0.55448 0.08222 0.0
C1276 C 0.82759 0.55312 0.08804 0.0
C1277 C 0.81799 0.54545 0.08156 0.0
C1278 C 0.82068 0.53972 0.06931 0.0
H1279 H 0.82669 0.5651 0.03131 0.0
H1280 H 0.81946 0.56061 0.04701 0.0
H1281 H 0.83664 0.56478 0.04613 0.0
H1282 H 0.85232 0.55047 0.06518 0.0
H1283 H 0.84772 0.56039 0.08695 0.0
H1284 H 0.56771 0.80247 0.98259 0.0
H1285 H 0.55858 0.80445 0.00475 0.0
H1286 H 0.54224 0.84259 0.99483 0.0
H1287 H 0.55167 0.84084 0.97249 0.0
H1288 H 0.55435 0.84209 0.0196 0.0
H1289 H 0.52008 0.7997 0.01451 0.0
H1290 H 0.53687 0.7954 0.01081 0.0
H1291 H 0.52828 0.80711 0.00049 0.0
C1292 C 0.56209 0.81127 0.98501 0.0
C1293 C 0.56028 0.82143 0.97565 0.0
C1294 C 0.55685 0.81236 0.99772 0.0
C1295 C 0.54947 0.82352 0.00136 0.0
C1296 C 0.54781 0.83383 0.99217 0.0
H1297 H 0.50934 0.84389 0.075 0.0
H1298 H 0.51929 0.84447 0.05302 0.0
C1299 C 0.55317 0.8328 0.97941 0.0
C1300 C 0.54364 0.82434 0.01482 0.0
H1301 H 0.52356 0.80777 0.03636 0.0
C1302 C 0.54752 0.83467 0.02324 0.0
C1303 C 0.53474 0.81463 0.01957 0.0
C1304 C 0.52964 0.80366 0.01083 0.0
C1305 C 0.54307 0.83531 0.03641 0.0
C1306 C 0.53436 0.82545 0.0412 0.0
C1307 C 0.53034 0.81525 0.03271 0.0
C1308 C 0.5291 0.82554 0.05492 0.0
C1309 C 0.54801 0.84631 0.04517 0.0
C1310 C 0.53117 0.81462 0.06327 0.0
C1311 C 0.52538 0.81418 0.07583 0.0
C1312 C 0.51734 0.82464 0.08027 0.0
C1313 C 0.51551 0.83568 0.07196 0.0
C1314 C 0.52127 0.83608 0.05939 0.0
H1315 H 0.5572 0.85083 0.04122 0.0
H1316 H 0.54037 0.85418 0.04575 0.0
H1317 H 0.54994 0.84267 0.05536 0.0
H1318 H 0.53714 0.80635 0.05999 0.0
H1319 H 0.52705 0.80555 0.08197 0.0
H1320 H 0.25617 0.56244 0.98989 0.0
H1321 H 0.25452 0.5503 0.01061 0.0
H1322 H 0.22272 0.52691 0.99454 0.0
H1323 H 0.22392 0.5396 0.97382 0.0
H1324 H 0.2174 0.53307 0.01919 0.0
H1325 H 0.2687 0.51457 0.018 0.0
H1326 H 0.26853 0.53226 0.01733 0.0
H1327 H 0.26132 0.52283 0.00402 0.0
C1328 C 0.24887 0.55466 0.99069 0.0
C1329 C 0.2403 0.55185 0.98012 0.0
C1330 C 0.24799 0.54765 0.00256 0.0
C1331 C 0.23879 0.53737 0.00405 0.0
C1332 C 0.23001 0.53469 0.9936 0.0
H1333 H 0.2494 0.48435 0.07141 0.0
H1334 H 0.24711 0.49335 0.04911 0.0
C1335 C 0.23071 0.54192 0.98175 0.0
C1336 C 0.23827 0.52969 0.01663 0.0
H1337 H 0.25784 0.51381 0.0391 0.0
C1338 C 0.22621 0.5287 0.02347 0.0
C1339 C 0.24969 0.52373 0.02215 0.0
C1340 C 0.26273 0.52327 0.0149 0.0
C1341 C 0.22536 0.52236 0.03584 0.0
C1342 C 0.23698 0.51725 0.04177 0.0
C1343 C 0.24893 0.51786 0.03472 0.0
C1344 C 0.23713 0.51129 0.05528 0.0
C1345 C 0.21197 0.52106 0.04228 0.0
C1346 C 0.23218 0.51825 0.06626 0.0
C1347 C 0.23325 0.51297 0.07904 0.0
C1348 C 0.23965 0.50081 0.08113 0.0
C1349 C 0.24452 0.49381 0.07014 0.0
C1350 C 0.2432 0.49895 0.05737 0.0
H1351 H 0.20394 0.52113 0.03479 0.0
H1352 H 0.21121 0.51181 0.04816 0.0
H1353 H 0.21032 0.5296 0.04896 0.0
H1354 H 0.22781 0.52795 0.06503 0.0
H1355 H 0.2295 0.51864 0.08733 0.0
H1356 H 0.53139 0.25259 0.98099 0.0
H1357 H 0.54311 0.24777 0.00144 0.0
H1358 H 0.52251 0.21061 0.00482 0.0
H1359 H 0.51054 0.21543 0.98424 0.0
H1360 H 0.52078 0.2263 0.02742 0.0
H1361 H 0.57286 0.22252 0.01137 0.0
H1362 H 0.56497 0.2371 0.00502 0.0
H1363 H 0.5592 0.22104 0.99997 0.0
C1364 C 0.52951 0.24325 0.9859 0.0
C1365 C 0.51999 0.23441 0.98096 0.0
C1366 C 0.53631 0.24047 0.99758 0.0
C1367 C 0.53382 0.22876 0.00461 0.0
C1368 C 0.52467 0.21966 0.99949 0.0
H1369 H 0.55778 0.21603 0.08783 0.0
H1370 H 0.54909 0.21156 0.06569 0.0
C1371 C 0.51789 0.2224 0.9877 0.0
C1372 C 0.5398 0.22687 0.0179 0.0
H1373 H 0.56927 0.22808 0.0343 0.0
C1374 C 0.53139 0.2264 0.02895 0.0
C1375 C 0.55364 0.22702 0.01987 0.0
C1376 C 0.56319 0.22681 0.00841 0.0
C1377 C 0.53641 0.22694 0.0419 0.0
C1378 C 0.55024 0.22775 0.04385 0.0
C1379 C 0.55867 0.22756 0.0328 0.0
C1380 C 0.5561 0.2299 0.05716 0.0
C1381 C 0.52682 0.22742 0.05334 0.0
C1382 C 0.56331 0.24148 0.05964 0.0
C1383 C 0.56839 0.24403 0.07223 0.0
C1384 C 0.56636 0.23504 0.08268 0.0
C1385 C 0.55942 0.22325 0.08008 0.0
C1386 C 0.55438 0.2207 0.06743 0.0
H1387 H 0.51655 0.22945 0.05003 0.0
H1388 H 0.52687 0.21773 0.05851 0.0
H1389 H 0.52975 0.23514 0.06057 0.0
H1390 H 0.56482 0.2487 0.05186 0.0
H1391 H 0.57376 0.25315 0.07379 0.0
H1392 H 0.08002 0.84683 0.55798 0.0
H1393 H 0.05761 0.84877 0.54923 0.0
H1394 H 0.05983 0.80883 0.5345 0.0
H1395 H 0.08231 0.80674 0.5432 0.0
H1396 H 0.04981 0.82916 0.51603 0.0
H1397 H 0.02461 0.82919 0.56503 0.0
H1398 H 0.03809 0.84057 0.56283 0.0
H1399 H 0.04126 0.82311 0.56287 0.0
C1400 C 0.07578 0.83843 0.55288 0.0
C1401 C 0.08297 0.82658 0.55136 0.0
C1402 C 0.06295 0.83957 0.54793 0.0
C1403 C 0.05705 0.8289 0.54136 0.0
C1404 C 0.06423 0.81715 0.53961 0.0
H1405 H 0.9786 0.80751 0.51929 0.0
H1406 H 0.00058 0.81005 0.52894 0.0
C1407 C 0.07705 0.81597 0.54461 0.0
C1408 C 0.04338 0.82996 0.5363 0.0
H1409 H 0.01111 0.83126 0.54615 0.0
C1410 C 0.04134 0.82971 0.52258 0.0
C1411 C 0.03239 0.83068 0.54493 0.0
C1412 C 0.0341 0.83083 0.55975 0.0
C1413 C 0.02854 0.82996 0.51724 0.0
C1414 C 0.01755 0.83047 0.52588 0.0
C1415 C 0.01959 0.83092 0.53959 0.0
C1416 C 0.00386 0.82958 0.52084 0.0
C1417 C 0.02683 0.82927 0.50243 0.0
C1418 C 0.99834 0.83988 0.51336 0.0
C1419 C 0.98575 0.83849 0.50784 0.0
C1420 C 0.9785 0.82674 0.50968 0.0
C1421 C 0.98393 0.81665 0.51758 0.0
C1422 C 0.99648 0.81808 0.52314 0.0
H1423 H 0.03624 0.82693 0.49727 0.0
H1424 H 0.01937 0.82167 0.4998 0.0
H1425 H 0.02319 0.83896 0.49875 0.0
H1426 H 0.00386 0.84889 0.51162 0.0
H1427 H 0.98186 0.84649 0.50187 0.0
H1428 H 0.98398 0.25784 0.54124 0.0
H1429 H 0.00589 0.25358 0.53197 0.0
H1430 H 0.0069 0.21558 0.55132 0.0
H1431 H 0.98494 0.2197 0.56064 0.0
H1432 H 0.02964 0.23196 0.55566 0.0
H1433 H 0.01738 0.22719 0.50245 0.0
H1434 H 0.01016 0.24144 0.51023 0.0
H1435 H 0.00525 0.22516 0.51542 0.0
C1436 C 0.98879 0.24852 0.54345 0.0
C1437 C 0.98269 0.23913 0.55172 0.0
C1438 C 0.00128 0.24607 0.53807 0.0
C1439 C 0.00794 0.23421 0.54085 0.0
C1440 C 0.00187 0.22476 0.54899 0.0
H1441 H 0.08481 0.21779 0.5034 0.0
H1442 H 0.06251 0.21451 0.51229 0.0
C1443 C 0.98932 0.22714 0.55429 0.0
C1444 C 0.02159 0.23216 0.53595 0.0
H1445 H 0.04008 0.23142 0.50769 0.0
C1446 C 0.03193 0.23166 0.54518 0.0
C1447 C 0.02453 0.23152 0.52229 0.0
C1448 C 0.01375 0.23122 0.512 0.0
C1449 C 0.04518 0.23133 0.54107 0.0
C1450 C 0.04814 0.23166 0.5274 0.0
C1451 C 0.03779 0.23135 0.51818 0.0
C1452 C 0.06185 0.23327 0.52252 0.0
C1453 C 0.05593 0.23086 0.55139 0.0
C1454 C 0.06882 0.24494 0.52528 0.0
C1455 C 0.0815 0.2469 0.52017 0.0
C1456 C 0.0875 0.23721 0.51218 0.0
C1457 C 0.08052 0.22544 0.50955 0.0
C1458 C 0.06778 0.22355 0.5146 0.0
H1459 H 0.05218 0.22698 0.56097 0.0
H1460 H 0.06431 0.22458 0.54805 0.0
H1461 H 0.05972 0.24101 0.55308 0.0
H1462 H 0.06434 0.25266 0.53121 0.0
H1463 H 0.08656 0.25606 0.52241 0.0
H1464 H 0.83477 0.97375 0.53858 0.0
H1465 H 0.83735 0.9953 0.52757 0.0
H1466 H 0.81036 0.01279 0.55565 0.0
H1467 H 0.8073 0.99136 0.56615 0.0
H1468 H 0.80367 0.01978 0.53215 0.0
H1469 H 0.85764 0.02782 0.53698 0.0
H1470 H 0.85353 0.01279 0.52852 0.0
H1471 H 0.84913 0.01476 0.54566 0.0
C1472 C 0.82949 0.98225 0.54241 0.0
C1473 C 0.82073 0.98085 0.55312 0.0
C1474 C 0.83104 0.99458 0.53619 0.0
C1475 C 0.82415 0.00576 0.54084 0.0
C1476 C 0.81574 0.00436 0.5518 0.0
H1477 H 0.83453 0.08914 0.52262 0.0
H1478 H 0.83593 0.0667 0.53176 0.0
C1479 C 0.81398 0.99207 0.55779 0.0
C1480 C 0.82486 0.0188 0.53397 0.0
H1481 H 0.84584 0.04324 0.52368 0.0
C1482 C 0.81292 0.02489 0.53034 0.0
C1483 C 0.8369 0.02558 0.5317 0.0
C1484 C 0.85002 0.01998 0.53603 0.0
C1485 C 0.81262 0.03756 0.5247 0.0
C1486 C 0.82465 0.04418 0.52203 0.0
C1487 C 0.83663 0.0381 0.52559 0.0
C1488 C 0.82489 0.05756 0.51588 0.0
C1489 C 0.79933 0.04388 0.52216 0.0
C1490 C 0.8186 0.05983 0.50372 0.0
C1491 C 0.81759 0.07264 0.49861 0.0
C1492 C 0.82312 0.08343 0.50541 0.0
C1493 C 0.83011 0.08105 0.51719 0.0
C1494 C 0.83093 0.06822 0.52241 0.0
H1495 H 0.7915 0.03946 0.52847 0.0
H1496 H 0.79958 0.0547 0.52405 0.0
H1497 H 0.7965 0.04226 0.51168 0.0
H1498 H 0.81421 0.05172 0.49828 0.0
H1499 H 0.81239 0.0741 0.48936 0.0
H1500 H 0.21518 0.07861 0.55846 0.0
H1501 H 0.21543 0.05588 0.55018 0.0
H1502 H 0.25449 0.0619 0.5343 0.0
H1503 H 0.2544 0.08467 0.54253 0.0
H1504 H 0.23483 0.04881 0.51671 0.0
H1505 H 0.23948 0.02594 0.56664 0.0
H1506 H 0.22666 0.0381 0.56443 0.0
H1507 H 0.24366 0.04303 0.5635 0.0
C1508 C 0.22382 0.07516 0.55315 0.0
C1509 C 0.23481 0.08348 0.55123 0.0
C1510 C 0.22394 0.06213 0.54848 0.0
C1511 C 0.23502 0.05719 0.54176 0.0
C1512 C 0.24587 0.06554 0.53951 0.0
H1513 H 0.26472 0.98105 0.52039 0.0
H1514 H 0.26019 0.00306 0.52927 0.0
C1515 C 0.2458 0.07854 0.54425 0.0
C1516 C 0.23544 0.04325 0.53725 0.0
H1517 H 0.23822 0.01145 0.54842 0.0
C1518 C 0.23547 0.04062 0.52362 0.0
C1519 C 0.23633 0.03262 0.54632 0.0
C1520 C 0.23662 0.03497 0.56106 0.0
C1521 C 0.23645 0.02762 0.51882 0.0
C1522 C 0.23745 0.01701 0.52789 0.0
C1523 C 0.23733 0.01962 0.54152 0.0
C1524 C 0.23967 0.00326 0.52336 0.0
C1525 C 0.23682 0.02528 0.50409 0.0
C1526 C 0.22952 0.99596 0.51737 0.0
C1527 C 0.23204 0.98328 0.51236 0.0
C1528 C 0.24479 0.97777 0.51316 0.0
C1529 C 0.2548 0.985 0.51954 0.0
C1530 C 0.25224 0.99758 0.52464 0.0
H1531 H 0.2373 0.03467 0.49839 0.0
H1532 H 0.24549 0.01908 0.50145 0.0
H1533 H 0.2278 0.01983 0.50106 0.0
H1534 H 0.21973 1.00018 0.51637 0.0
H1535 H 0.22412 0.978 0.50747 0.0
H1536 H 0.08076 0.43545 0.38385 0.0
H1537 H 0.06413 0.42566 0.39835 0.0
H1538 H 0.03363 0.43613 0.3705 0.0
H1539 H 0.05025 0.44586 0.3558 0.0
H1540 H 0.03928 0.43302 0.4104 0.0
H1541 H 0.03418 0.39509 0.37087 0.0
H1542 H 0.04745 0.40698 0.37101 0.0
H1543 H 0.03119 0.41188 0.36586 0.0
C1544 C 0.07048 0.436 0.38094 0.0
C1545 C 0.06688 0.44119 0.36852 0.0
C1546 C 0.06097 0.4304 0.38927 0.0
C1547 C 0.0477 0.42987 0.38535 0.0
C1548 C 0.04387 0.43623 0.37359 0.0
H1549 H 0.98496 0.37795 0.41279 0.0
H1550 H 0.99722 0.39599 0.40249 0.0
C1551 C 0.05338 0.44186 0.36523 0.0
C1552 C 0.03834 0.42125 0.39269 0.0
H1553 H 0.02144 0.39214 0.39003 0.0
C1554 C 0.03528 0.42413 0.40594 0.0
C1555 C 0.03327 0.40957 0.38689 0.0
C1556 C 0.03674 0.40557 0.37292 0.0
C1557 C 0.02721 0.41567 0.4135 0.0
C1558 C 0.02227 0.40393 0.40772 0.0
C1559 C 0.0252 0.40116 0.39444 0.0
C1560 C 0.01428 0.39414 0.41522 0.0
C1561 C 0.02394 0.41937 0.42757 0.0
C1562 C 0.01973 0.38715 0.42593 0.0
C1563 C 0.01274 0.37673 0.43185 0.0
C1564 C 0.00019 0.37309 0.42712 0.0
C1565 C 0.9946 0.38044 0.41669 0.0
C1566 C 0.00159 0.39079 0.41078 0.0
H1567 H 0.02561 0.43007 0.42944 0.0
H1568 H 0.0135 0.41696 0.42994 0.0
H1569 H 0.03037 0.41366 0.43439 0.0
H1570 H 0.02961 0.38939 0.42937 0.0
H1571 H 0.01735 0.37127 0.43983 0.0
H1572 H 0.6237 0.04811 0.35528 0.0
H1573 H 0.63358 0.03451 0.37271 0.0
H1574 H 0.65821 0.0673 0.38431 0.0
H1575 H 0.64821 0.08101 0.36716 0.0
H1576 H 0.65928 0.02776 0.3739 0.0
H1577 H 0.6458 0.0542 0.4199 0.0
H1578 H 0.63779 0.05747 0.40428 0.0
H1579 H 0.65353 0.06486 0.40801 0.0
C1580 C 0.63105 0.05249 0.36169 0.0
C1581 C 0.63519 0.06564 0.35981 0.0
C1582 C 0.63668 0.04471 0.37165 0.0
C1583 C 0.64651 0.04994 0.37994 0.0
C1584 C 0.65042 0.06315 0.37827 0.0
H1585 H 0.70767 0.01909 0.43026 0.0
H1586 H 0.69217 0.03288 0.41773 0.0
C1587 C 0.64476 0.07095 0.36837 0.0
C1588 C 0.65363 0.04125 0.38939 0.0
H1589 H 0.66372 0.03864 0.42154 0.0
C1590 C 0.66008 0.03004 0.38436 0.0
C1591 C 0.65472 0.04427 0.40302 0.0
C1592 C 0.64748 0.05579 0.40915 0.0
C1593 C 0.66796 0.02201 0.39247 0.0
C1594 C 0.6693 0.0252 0.40601 0.0
C1595 C 0.66268 0.03627 0.41113 0.0
C1596 C 0.67786 0.01728 0.41485 0.0
C1597 C 0.67515 0.01041 0.38639 0.0
C1598 C 0.67472 0.00408 0.41769 0.0
C1599 C 0.68353 0.99618 0.42481 0.0
C1600 C 0.69564 0.00135 0.42925 0.0
C1601 C 0.69846 0.01478 0.42693 0.0
C1602 C 0.68962 0.02268 0.4198 0.0
H1603 H 0.67516 0.01086 0.37541 0.0
H1604 H 0.68554 0.01001 0.3899 0.0
H1605 H 0.67021 0.0011 0.38944 0.0
H1606 H 0.6656 0.99979 0.41409 0.0
H1607 H 0.68099 0.98591 0.42651 0.0
H1608 H 0.08081 0.68188 0.42028 0.0
H1609 H 0.0654 0.6665 0.40982 0.0
H1610 H 0.03276 0.68586 0.42921 0.0
H1611 H 0.04809 0.70134 0.43978 0.0
H1612 H 0.04311 0.64929 0.42212 0.0
H1613 H 0.02756 0.68897 0.38713 0.0
H1614 H 0.04318 0.68947 0.39573 0.0
H1615 H 0.02816 0.69296 0.40448 0.0
C1616 C 0.07038 0.68277 0.4225 0.0
C1617 C 0.06568 0.69293 0.43078 0.0
C1618 C 0.0616 0.67394 0.41653 0.0
C1619 C 0.04797 0.67513 0.41869 0.0
C1620 C 0.04326 0.68485 0.4274 0.0
H1621 H 0.98195 0.64233 0.37495 0.0
H1622 H 0.99555 0.65383 0.39122 0.0
C1623 C 0.05204 0.69367 0.43343 0.0
C1624 C 0.03865 0.66689 0.41101 0.0
H1625 H 0.01746 0.66823 0.38482 0.0
C1626 C 0.03744 0.65339 0.41399 0.0
C1627 C 0.03133 0.67232 0.40042 0.0
C1628 C 0.0326 0.68671 0.39662 0.0
C1629 C 0.02897 0.64516 0.40667 0.0
C1630 C 0.02177 0.65057 0.39595 0.0
C1631 C 0.02294 0.6641 0.39307 0.0
C1632 C 0.0132 0.6424 0.38729 0.0
C1633 C 0.02765 0.63083 0.41059 0.0
C1634 C 0.01855 0.63201 0.37978 0.0
C1635 C 0.01078 0.62537 0.37046 0.0
C1636 C 0.99754 0.6291 0.3684 0.0
C1637 C 0.99211 0.63921 0.37626 0.0
C1638 C 0.99987 0.64581 0.38557 0.0
H1639 H 0.03071 0.62917 0.42102 0.0
H1640 H 0.01732 0.62734 0.40936 0.0
H1641 H 0.03412 0.62473 0.40416 0.0
H1642 H 0.02888 0.62937 0.38073 0.0
H1643 H 0.01529 0.61766 0.36454 0.0
H1644 H 0.35604 0.05027 0.44346 0.0
H1645 H 0.37309 0.03558 0.43457 0.0
H1646 H 0.38868 0.06774 0.41124 0.0
H1647 H 0.37191 0.08253 0.42029 0.0
H1648 H 0.3754 0.02909 0.40899 0.0
H1649 H 0.42229 0.05178 0.42545 0.0
H1650 H 0.40652 0.05617 0.43259 0.0
H1651 H 0.4118 0.06347 0.41721 0.0
C1652 C 0.36324 0.05427 0.43661 0.0
C1653 C 0.36259 0.06756 0.43255 0.0
C1654 C 0.37299 0.04587 0.43156 0.0
C1655 C 0.38228 0.0506 0.42238 0.0
C1656 C 0.38185 0.06394 0.41857 0.0
H1657 H 0.43229 0.019 0.36226 0.0
H1658 H 0.42067 0.0327 0.37847 0.0
C1659 C 0.37216 0.07236 0.42367 0.0
C1660 C 0.39147 0.04132 0.4157 0.0
H1661 H 0.4238 0.03667 0.40708 0.0
C1662 C 0.38601 0.03061 0.40877 0.0
C1663 C 0.4053 0.04335 0.41537 0.0
C1664 C 0.41184 0.05424 0.42317 0.0
C1665 C 0.39392 0.02222 0.40108 0.0
C1666 C 0.40769 0.02449 0.40043 0.0
C1667 C 0.41323 0.03498 0.4076 0.0
C1668 C 0.41628 0.01648 0.39172 0.0
C1669 C 0.38741 0.01131 0.39326 0.0
C1670 C 0.41804 0.00293 0.39407 0.0
C1671 C 0.42464 0.99506 0.38483 0.0
C1672 C 0.42961 0.00064 0.37308 0.0
C1673 C 0.42851 0.01438 0.37116 0.0
C1674 C 0.4219 0.02223 0.38041 0.0
H1675 H 0.37649 0.01244 0.3929 0.0
H1676 H 0.39125 0.01108 0.38297 0.0
H1677 H 0.38968 0.00164 0.39794 0.0
H1678 H 0.41391 0.99836 0.40285 0.0
H1679 H 0.42542 0.98453 0.38667 0.0
H1680 H 0.04579 0.6235 0.70031 0.0
H1681 H 0.03166 0.63295 0.68304 0.0
H1682 H 0.06244 0.66062 0.67283 0.0
H1683 H 0.07666 0.65113 0.68983 0.0
H1684 H 0.02303 0.65835 0.68302 0.0
H1685 H 0.05034 0.64898 0.63657 0.0
H1686 H 0.05404 0.64035 0.65177 0.0
H1687 H 0.0605 0.65669 0.64886 0.0
C1688 C 0.04965 0.63142 0.6942 0.0
C1689 C 0.06235 0.63659 0.6965 0.0
C1690 C 0.04156 0.63681 0.68434 0.0
C1691 C 0.04604 0.64739 0.67652 0.0
C1692 C 0.05887 0.65226 0.6785 0.0
H1693 H 0.01555 0.70998 0.6289 0.0
H1694 H 0.02875 0.69315 0.64015 0.0
C1695 C 0.06696 0.64688 0.68833 0.0
C1696 C 0.03688 0.65435 0.66735 0.0
H1697 H 0.03403 0.66635 0.63586 0.0
C1698 C 0.0253 0.6599 0.67265 0.0
C1699 C 0.03989 0.65641 0.65383 0.0
C1700 C 0.05181 0.65018 0.64739 0.0
C1701 C 0.01701 0.66799 0.665 0.0
C1702 C 0.02023 0.6704 0.65157 0.0
C1703 C 0.03158 0.66451 0.64615 0.0
C1704 C 0.01241 0.67974 0.64334 0.0
C1705 C 0.00523 0.67441 0.67156 0.0
C1706 C 0.99892 0.67758 0.64096 0.0
C1707 C 0.9913 0.68724 0.63461 0.0
C1708 C 0.99707 0.69918 0.63039 0.0
C1709 C 0.01076 0.70094 0.63207 0.0
C1710 C 0.01834 0.69131 0.63849 0.0
H1711 H 0.00585 0.67393 0.68252 0.0
H1712 H 0.00434 0.68495 0.66856 0.0
H1713 H 0.9961 0.66921 0.66848 0.0
H1714 H 0.9942 0.66858 0.64435 0.0
H1715 H 0.98082 0.6855 0.63335 0.0
H1716 H 0.4317 0.05485 0.71384 0.0
H1717 H 0.4202 0.04141 0.69744 0.0
H1718 H 0.42639 0.07164 0.668 0.0
H1719 H 0.43791 0.08529 0.68439 0.0
H1720 H 0.39654 0.0526 0.68328 0.0
H1721 H 0.43687 0.0343 0.65048 0.0
H1722 H 0.43979 0.03889 0.66751 0.0
H1723 H 0.43695 0.05146 0.65533 0.0
C1724 C 0.43083 0.0586 0.70384 0.0
C1725 C 0.43566 0.0712 0.70045 0.0
C1726 C 0.42424 0.05089 0.69449 0.0
C1727 C 0.4225 0.05554 0.68155 0.0
C1728 C 0.42775 0.06786 0.67794 0.0
H1729 H 0.36117 0.02442 0.62926 0.0
H1730 H 0.37689 0.03942 0.63989 0.0
C1731 C 0.43429 0.07564 0.68732 0.0
C1732 C 0.41414 0.04797 0.67227 0.0
H1733 H 0.41508 0.02793 0.64511 0.0
C1734 C 0.40055 0.04729 0.67487 0.0
C1735 C 0.41948 0.04103 0.66139 0.0
C1736 C 0.43408 0.04133 0.65845 0.0
C1737 C 0.39213 0.03966 0.66696 0.0
C1738 C 0.39744 0.03267 0.65606 0.0
C1739 C 0.41104 0.03343 0.65339 0.0
C1740 C 0.38908 0.02379 0.64797 0.0
C1741 C 0.37768 0.03879 0.6706 0.0
C1742 C 0.39109 0.01008 0.64852 0.0
C1743 C 0.38217 0.00149 0.64242 0.0
C1744 C 0.37109 0.00647 0.63566 0.0
C1745 C 0.36954 0.02025 0.63448 0.0
C1746 C 0.37848 0.02884 0.64057 0.0
H1747 H 0.37572 0.04262 0.68071 0.0
H1748 H 0.3718 0.04475 0.66351 0.0
H1749 H 0.37417 0.0284 0.67006 0.0
H1750 H 0.39923 0.006 0.65416 0.0
H1751 H 0.38371 0.99094 0.64346 0.0
H1752 H 0.05554 0.36889 0.6229 0.0
H1753 H 0.04297 0.38803 0.63105 0.0
H1754 H 0.06317 0.38535 0.66849 0.0
H1755 H 0.0758 0.36648 0.66046 0.0
H1756 H 0.026 0.38933 0.65303 0.0
H1757 H 0.0677 0.42421 0.65874 0.0
H1758 H 0.06898 0.40925 0.64908 0.0
H1759 H 0.07076 0.40868 0.66678 0.0
C1760 C 0.05738 0.37247 0.63282 0.0
C1761 C 0.06672 0.36619 0.64101 0.0
C1762 C 0.05018 0.38338 0.63746 0.0
C1763 C 0.05229 0.38823 0.6503 0.0
C1764 C 0.06158 0.38196 0.65845 0.0
H1765 H 0.02079 0.44051 0.70807 0.0
H1766 H 0.03088 0.42273 0.69502 0.0
C1767 C 0.06875 0.3711 0.65385 0.0
C1768 C 0.04451 0.39952 0.65552 0.0
H1769 H 0.04793 0.42939 0.67089 0.0
C1770 C 0.03074 0.3982 0.65673 0.0
C1771 C 0.05072 0.41111 0.66028 0.0
C1772 C 0.06534 0.41348 0.65854 0.0
C1773 C 0.02313 0.40787 0.66321 0.0
C1774 C 0.02947 0.41909 0.66856 0.0
C1775 C 0.04313 0.42067 0.66689 0.0
C1776 C 0.02225 0.42905 0.67649 0.0
C1777 C 0.00846 0.40584 0.66482 0.0
C1778 C 0.01402 0.43841 0.67038 0.0
C1779 C 0.00822 0.44852 0.67786 0.0
C1780 C 0.01041 0.44923 0.69156 0.0
C1781 C 0.01847 0.43974 0.69766 0.0
C1782 C 0.02438 0.42974 0.69018 0.0
H1783 H 0.0052 0.39603 0.6611 0.0
H1784 H 0.00567 0.40673 0.67541 0.0
H1785 H 0.00307 0.41366 0.65931 0.0
H1786 H 0.01242 0.43812 0.65979 0.0
H1787 H 0.00223 0.45591 0.67294 0.0
H1788 H 0.70838 0.04247 0.63134 0.0
H1789 H 0.69302 0.02693 0.64173 0.0
H1790 H 0.66565 0.05882 0.6491 0.0
H1791 H 0.68079 0.07435 0.63852 0.0
H1792 H 0.68535 0.02814 0.66738 0.0
H1793 H 0.64109 0.03041 0.63525 0.0
H1794 H 0.657 0.03664 0.63009 0.0
H1795 H 0.64652 0.04641 0.64065 0.0
C1796 C 0.699 0.04614 0.63497 0.0
C1797 C 0.69584 0.05967 0.63414 0.0
C1798 C 0.69023 0.03724 0.6409 0.0
C1799 C 0.67811 0.04167 0.64605 0.0
C1800 C 0.67479 0.05511 0.64492 0.0
H1801 H 0.62201 0.01123 0.70268 0.0
H1802 H 0.63383 0.02436 0.68607 0.0
C1803 C 0.68353 0.064 0.63897 0.0
C1804 C 0.66959 0.03255 0.65377 0.0
H1805 H 0.6381 0.02064 0.65668 0.0
C1806 C 0.67507 0.02638 0.66493 0.0
C1807 C 0.65614 0.03032 0.65062 0.0
C1808 C 0.64986 0.0362 0.63843 0.0
C1809 C 0.66741 0.01831 0.67321 0.0
C1810 C 0.65394 0.01623 0.67017 0.0
C1811 C 0.64844 0.02228 0.65896 0.0
C1812 C 0.64547 0.00796 0.67879 0.0
C1813 C 0.6737 0.01235 0.68537 0.0
C1814 C 0.64781 0.99433 0.67983 0.0
C1815 C 0.64109 0.98681 0.68929 0.0
C1816 C 0.63192 0.99279 0.69788 0.0
C1817 C 0.62906 0.00633 0.69627 0.0
C1818 C 0.63578 0.01384 0.68678 0.0
H1819 H 0.68341 0.01691 0.68764 0.0
H1820 H 0.66713 0.01352 0.6941 0.0
H1821 H 0.67527 0.0016 0.68375 0.0
H1822 H 0.65517 0.9896 0.67365 0.0
H1823 H 0.64348 0.9764 0.69018 0.0
H1824 H 0.43571 0.36005 0.04505 0.0
H1825 H 0.42516 0.37625 0.0305 0.0
H1826 H 0.40682 0.39477 0.06428 0.0
H1827 H 0.4175 0.37879 0.07892 0.0
H1828 H 0.39839 0.37901 0.02791 0.0
H1829 H 0.42054 0.42658 0.04378 0.0
H1830 H 0.42765 0.41074 0.04803 0.0
H1831 H 0.41373 0.41705 0.05714 0.0
C1832 C 0.42959 0.36769 0.0494 0.0
C1833 C 0.4274 0.36811 0.06313 0.0
C1834 C 0.42359 0.37694 0.04108 0.0
C1835 C 0.41534 0.3868 0.04632 0.0
C1836 C 0.41338 0.38743 0.06005 0.0
H1837 H 0.35682 0.43958 0.01327 0.0
H1838 H 0.37199 0.42752 0.02782 0.0
C1839 C 0.41942 0.37821 0.06839 0.0
C1840 C 0.40781 0.39559 0.03735 0.0
H1841 H 0.40141 0.42795 0.02999 0.0
C1842 C 0.39916 0.38971 0.02827 0.0
C1843 C 0.40876 0.40954 0.03794 0.0
C1844 C 0.41826 0.41637 0.04716 0.0
C1845 C 0.39124 0.39739 0.01989 0.0
C1846 C 0.39214 0.41133 0.02052 0.0
C1847 C 0.40079 0.41725 0.02956 0.0
C1848 C 0.38397 0.41981 0.01187 0.0
C1849 C 0.38174 0.39056 0.01065 0.0
C1850 C 0.38598 0.41974 0.99815 0.0
C1851 C 0.37736 0.42659 0.98982 0.0
C1852 C 0.36659 0.43363 0.99509 0.0
C1853 C 0.36498 0.43419 0.0089 0.0
C1854 C 0.37364 0.42734 0.01723 0.0
H1855 H 0.38031 0.37999 0.0133 0.0
H1856 H 0.37197 0.39557 0.01074 0.0
H1857 H 0.38568 0.39102 1.00041 0.0
H1858 H 0.39401 0.41408 0.99387 0.0
H1859 H 0.37894 0.42603 0.97924 0.0
H1860 H 0.40358 0.70287 0.99225 0.0
H1861 H 0.39312 0.68582 0.00572 0.0
H1862 H 0.43105 0.67498 0.02186 0.0
H1863 H 0.44165 0.69226 0.00851 0.0
H1864 H 0.39754 0.65852 0.0062 0.0
H1865 H 0.40853 0.68172 0.0549 0.0
H1866 H 0.4103 0.69058 0.0395 0.0
H1867 H 0.42246 0.67856 0.04432 0.0
C1868 C 0.40974 0.69689 0.99866 0.0
C1869 C 0.42345 0.69898 0.99937 0.0
C1870 C 0.40373 0.68712 0.00633 0.0
C1871 C 0.41129 0.67924 0.01488 0.0
C1872 C 0.42502 0.68111 0.01548 0.0
H1873 H 0.37843 0.62329 0.07271 0.0
H1874 H 0.39426 0.63477 0.05841 0.0
C1875 C 0.43106 0.69095 0.00781 0.0
C1876 C 0.40457 0.66922 0.0232 0.0
H1877 H 0.396 0.66217 0.0551 0.0
C1878 C 0.3973 0.65923 0.0169 0.0
C1879 C 0.40436 0.67014 0.03716 0.0
C1880 C 0.41174 0.68087 0.04442 0.0
C1881 C 0.38951 0.65035 0.02417 0.0
C1882 C 0.38881 0.65165 0.03807 0.0
C1883 C 0.39654 0.66124 0.04443 0.0
C1884 C 0.37934 0.64389 0.04611 0.0
C1885 C 0.38196 0.63976 0.01689 0.0
C1886 C 0.36572 0.64524 0.04392 0.0
C1887 C 0.35666 0.63873 0.05205 0.0
C1888 C 0.36105 0.6308 0.0626 0.0
C1889 C 0.37472 0.6293 0.06466 0.0
C1890 C 0.38379 0.63586 0.05651 0.0
H1891 H 0.38659 0.63748 0.00718 0.0
H1892 H 0.38137 0.63052 0.0228 0.0
H1893 H 0.37175 0.6433 0.01499 0.0
H1894 H 0.36207 0.65162 0.03612 0.0
H1895 H 0.34621 0.64014 0.05022 0.0
H1896 H 0.66007 0.35039 0.00518 0.0
H1897 H 0.66863 0.36946 0.01718 0.0
H1898 H 0.63043 0.38827 0.01509 0.0
H1899 H 0.62168 0.3691 0.00311 0.0
H1900 H 0.6685 0.39631 0.00736 0.0
H1901 H 0.64101 0.39062 0.05485 0.0
H1902 H 0.64287 0.3771 0.04333 0.0
H1903 H 0.63171 0.3904 0.03969 0.0
C1904 C 0.65343 0.35852 0.00734 0.0
C1905 C 0.64019 0.35823 0.00319 0.0
C1906 C 0.65835 0.36942 0.01418 0.0
C1907 C 0.65014 0.38022 0.01706 0.0
C1908 C 0.63687 0.37994 0.01309 0.0
H1909 H 0.67928 0.4467 0.06567 0.0
H1910 H 0.66427 0.4341 0.05132 0.0
C1911 C 0.63191 0.369 0.00623 0.0
C1912 C 0.65579 0.39184 0.02386 0.0
H1913 H 0.65711 0.40731 0.05381 0.0
C1914 C 0.66588 0.39886 0.01745 0.0
C1915 C 0.6522 0.39524 0.03693 0.0
C1916 C 0.6414 0.38795 0.0442 0.0
C1917 C 0.67296 0.40877 0.02401 0.0
C1918 C 0.67003 0.41153 0.0374 0.0
C1919 C 0.65936 0.40512 0.04355 0.0
C1920 C 0.67899 0.41965 0.04561 0.0
C1921 C 0.68378 0.41594 0.01664 0.0
C1922 C 0.69212 0.41559 0.04724 0.0
C1923 C 0.70066 0.4227 0.05533 0.0
C1924 C 0.69621 0.43399 0.06213 0.0
C1925 C 0.68301 0.43807 0.06053 0.0
C1926 C 0.67443 0.4309 0.05236 0.0
H1927 H 0.6818 0.41614 0.00584 0.0
H1928 H 0.68489 0.42626 0.02022 0.0
H1929 H 0.69328 0.41067 0.01819 0.0
H1930 H 0.69575 0.40674 0.0424 0.0
H1931 H 0.71072 0.4192 0.05638 0.0
H1932 H 0.61364 0.68825 0.06443 0.0
H1933 H 0.62579 0.66992 0.05411 0.0
H1934 H 0.65848 0.69604 0.04614 0.0
H1935 H 0.64653 0.71433 0.05637 0.0
H1936 H 0.6377 0.66764 0.02766 0.0
H1937 H 0.67426 0.66499 0.06837 0.0
H1938 H 0.65852 0.67326 0.07007 0.0
H1939 H 0.67202 0.68136 0.0618 0.0
C1940 C 0.62338 0.69011 0.06041 0.0
C1941 C 0.62915 0.70274 0.06134 0.0
C1942 C 0.63029 0.67963 0.05451 0.0
C1943 C 0.6431 0.6816 0.04956 0.0
C1944 C 0.64869 0.69427 0.05009 0.0
H1945 H 0.69556 0.6426 0.99674 0.0
H1946 H 0.67743 0.65475 0.00694 0.0
C1947 C 0.6418 0.70473 0.05591 0.0
C1948 C 0.6509 0.67046 0.0441 0.0
H1949 H 0.68006 0.65406 0.0483 0.0
C1950 C 0.64688 0.66451 0.03223 0.0
C1951 C 0.66271 0.66621 0.05023 0.0
C1952 C 0.6671 0.67168 0.06339 0.0
C1953 C 0.65477 0.65491 0.02596 0.0
C1954 C 0.66708 0.65136 0.03162 0.0
C1955 C 0.6707 0.65682 0.04386 0.0
C1956 C 0.67684 0.64278 0.02471 0.0
C1957 C 0.64984 0.64874 0.01332 0.0
C1958 C 0.68269 0.63202 0.0313 0.0
C1959 C 0.69328 0.62517 0.02556 0.0
C1960 C 0.69822 0.62895 0.01312 0.0
C1961 C 0.69198 0.63937 0.00631 0.0
C1962 C 0.68149 0.64628 0.01209 0.0
H1963 H 0.63887 0.64871 0.01296 0.0
H1964 H 0.65342 0.65465 0.00478 0.0
H1965 H 0.65345 0.63843 0.01219 0.0
H1966 H 0.67932 0.62917 0.04106 0.0
H1967 H 0.69782 0.61717 0.03106 0.0
H1968 H 0.55662 0.87533 0.93741 0.0
H1969 H 0.54362 0.89353 0.92818 0.0
H1970 H 0.57154 0.89747 0.89618 0.0
H1971 H 0.58448 0.87912 0.90519 0.0
H1972 H 0.54836 0.91989 0.92094 0.0
H1973 H 0.53711 0.88878 0.87699 0.0
H1974 H 0.54481 0.88214 0.89165 0.0
H1975 H 0.55435 0.89165 0.88004 0.0
C1976 C 0.56016 0.88024 0.92857 0.0
C1977 C 0.57148 0.87563 0.92192 0.0
C1978 C 0.55269 0.89063 0.92328 0.0
C1979 C 0.55642 0.8966 0.9113 0.0
C1980 C 0.5683 0.89276 0.90525 0.0
H1981 H 0.50841 0.95145 0.86311 0.0
H1982 H 0.52707 0.93789 0.871 0.0
C1983 C 0.57573 0.88233 0.91048 0.0
C1984 C 0.54737 0.90613 0.90473 0.0
H1985 H 0.52744 0.90992 0.87769 0.0
C1986 C 0.54386 0.91776 0.91144 0.0
C1987 C 0.54153 0.90334 0.89231 0.0
C1988 C 0.54453 0.89076 0.88484 0.0
C1989 C 0.5345 0.92657 0.90616 0.0
C1990 C 0.52835 0.92355 0.89397 0.0
C1991 C 0.5322 0.91218 0.88703 0.0
C1992 C 0.51713 0.93146 0.88885 0.0
C1993 C 0.53117 0.93898 0.91374 0.0
C1994 C 0.50531 0.93204 0.89608 0.0
C1995 C 0.49466 0.93948 0.89146 0.0
C1996 C 0.49555 0.94636 0.87942 0.0
C1997 C 0.50733 0.94575 0.87211 0.0
C1998 C 0.51802 0.93821 0.87672 0.0
H1999 H 0.5392 0.94173 0.9207 0.0
H2000 H 0.52933 0.9474 0.90692 0.0
H2001 H 0.52206 0.93728 0.91962 0.0
H2002 H 0.50434 0.92674 0.90535 0.0
H2003 H 0.48571 0.93991 0.89733 0.0
H2004 H 0.18531 0.57826 0.90938 0.0
H2005 H 0.16855 0.56429 0.89923 0.0
H2006 H 0.16891 0.53877 0.93343 0.0
H2007 H 0.18596 0.55259 0.94359 0.0
H2008 H 0.17307 0.52529 0.91053 0.0
H2009 H 0.12948 0.55791 0.90465 0.0
H2010 H 0.14431 0.56505 0.89805 0.0
H2011 H 0.14304 0.56193 0.91553 0.0
C2012 C 0.1816 0.56986 0.91492 0.0
C2013 C 0.18706 0.5665 0.92727 0.0
C2014 C 0.17194 0.56191 0.9091 0.0
C2015 C 0.16741 0.55051 0.91558 0.0
C2016 C 0.17226 0.54754 0.92826 0.0
H2017 H 0.10593 0.4975 0.8887 0.0
H2018 H 0.1192 0.51432 0.89985 0.0
C2019 C 0.18195 0.55549 0.93409 0.0
C2020 C 0.15879 0.54097 0.9085 0.0
H2021 H 0.12963 0.53807 0.89175 0.0
C2022 C 0.16352 0.52806 0.90652 0.0
C2023 C 0.14633 0.54458 0.90328 0.0
C2024 C 0.14042 0.55809 0.90558 0.0
C2025 C 0.15622 0.5187 0.89935 0.0
C2026 C 0.14397 0.52244 0.89374 0.0
C2027 C 0.13913 0.53529 0.89588 0.0
C2028 C 0.13569 0.51291 0.88627 0.0
C2029 C 0.1616 0.50483 0.89806 0.0
C2030 C 0.14042 0.50671 0.87475 0.0
C2031 C 0.13285 0.49701 0.86841 0.0
C2032 C 0.12036 0.49357 0.87334 0.0
C2033 C 0.11551 0.50005 0.88464 0.0
C2034 C 0.12306 0.50967 0.89099 0.0
H2035 H 0.1693 0.50272 0.90561 0.0
H2036 H 0.1536 0.49739 0.89908 0.0
H2037 H 0.16617 0.50364 0.88815 0.0
H2038 H 0.15008 0.50917 0.87084 0.0
H2039 H 0.13696 0.49185 0.85997 0.0
H2040 H 0.5535 0.11675 0.86295 0.0
H2041 H 0.53508 0.13013 0.87169 0.0
H2042 H 0.55911 0.1413 0.90506 0.0
H2043 H 0.57752 0.12833 0.89618 0.0
H2044 H 0.53229 0.13059 0.9108 0.0
H2045 H 0.53297 0.172 0.87435 0.0
H2046 H 0.53341 0.15526 0.86827 0.0
H2047 H 0.54729 0.1617 0.87717 0.0
C2048 C 0.55494 0.12247 0.87188 0.0
C2049 C 0.56703 0.12193 0.87865 0.0
C2050 C 0.5444 0.12994 0.87696 0.0
C2051 C 0.5458 0.13678 0.88897 0.0
C2052 C 0.55785 0.13614 0.89576 0.0
H2053 H 0.50692 0.18719 0.94422 0.0
H2054 H 0.51923 0.1695 0.93332 0.0
C2055 C 0.56835 0.12877 0.89066 0.0
C2056 C 0.53472 0.14443 0.89479 0.0
H2057 H 0.51815 0.17371 0.89213 0.0
C2058 C 0.52907 0.13996 0.90666 0.0
C2059 C 0.53048 0.15655 0.88929 0.0
C2060 C 0.53633 0.16178 0.87659 0.0
C2061 C 0.51949 0.14746 0.91338 0.0
C2062 C 0.51574 0.15995 0.90827 0.0
C2063 C 0.52104 0.16416 0.8961 0.0
C2064 C 0.50705 0.16924 0.91571 0.0
C2065 C 0.5135 0.14192 0.92587 0.0
C2066 C 0.496 0.17493 0.90956 0.0
C2067 C 0.48901 0.18515 0.91574 0.0
C2068 C 0.49294 0.18993 0.9282 0.0
C2069 C 0.50353 0.18368 0.93469 0.0
C2070 C 0.51058 0.17351 0.92846 0.0
H2071 H 0.51373 0.13093 0.92586 0.0
H2072 H 0.51933 0.14534 0.9345 0.0
H2073 H 0.50311 0.14524 0.92716 0.0
H2074 H 0.49307 0.17182 0.89974 0.0
H2075 H 0.48089 0.18973 0.91046 0.0
H2076 H 0.89014 0.50799 0.95777 0.0
H2077 H 0.89757 0.52513 0.94241 0.0
H2078 H 0.86938 0.51155 0.91349 0.0
H2079 H 0.86212 0.4941 0.9288 0.0
H2080 H 0.89483 0.51385 0.90376 0.0
H2081 H 0.88054 0.55972 0.93018 0.0
H2082 H 0.88973 0.5483 0.94021 0.0
H2083 H 0.87365 0.54373 0.9342 0.0
C2084 C 0.88538 0.50881 0.94821 0.0
C2085 C 0.87538 0.49991 0.94453 0.0
C2086 C 0.88956 0.51866 0.93949 0.0
C2087 C 0.88385 0.51979 0.92691 0.0
C2088 C 0.87378 0.51096 0.92323 0.0
H2089 H 0.8991 0.57803 0.86596 0.0
H2090 H 0.8897 0.56574 0.88455 0.0
C2091 C 0.86957 0.50109 0.932 0.0
C2092 C 0.88928 0.52938 0.91723 0.0
H2093 H 0.89592 0.56217 0.91235 0.0
C2094 C 0.89498 0.52442 0.90559 0.0
C2095 C 0.88942 0.54317 0.91963 0.0
C2096 C 0.8829 0.54909 0.93167 0.0
C2097 C 0.90106 0.53284 0.89641 0.0
C2098 C 0.90166 0.54658 0.89904 0.0
C2099 C 0.89567 0.5516 0.9105 0.0
C2100 C 0.90796 0.55582 0.88958 0.0
C2101 C 0.90668 0.52699 0.88387 0.0
C2102 C 0.9215 0.55485 0.88673 0.0
C2103 C 0.92693 0.56187 0.87611 0.0
C2104 C 0.91887 0.56996 0.86816 0.0
C2105 C 0.90556 0.57179 0.8718 0.0
C2106 C 0.90016 0.56478 0.88243 0.0
H2107 H 0.90291 0.51684 0.88203 0.0
H2108 H 0.90425 0.53328 0.87519 0.0
H2109 H 0.9176 0.52644 0.88471 0.0
H2110 H 0.92773 0.54814 0.89231 0.0
H2111 H 0.93723 0.5603 0.87365 0.0
H2112 H 0.5778 0.19153 0.16452 0.0
H2113 H 0.56448 0.17328 0.17293 0.0
H2114 H 0.54853 0.1669 0.13392 0.0
H2115 H 0.5617 0.18535 0.12542 0.0
H2116 H 0.52933 0.17014 0.15291 0.0
H2117 H 0.56622 0.13324 0.16976 0.0
H2118 H 0.56907 0.14954 0.17615 0.0
H2119 H 0.57037 0.14661 0.15865 0.0
C2120 C 0.57169 0.18608 0.15764 0.0
C2121 C 0.57076 0.18997 0.1443 0.0
C2122 C 0.56412 0.17558 0.16247 0.0
C2123 C 0.55556 0.16868 0.15405 0.0
C2124 C 0.5551 0.17209 0.14058 0.0
H2125 H 0.50827 0.09992 0.17272 0.0
H2126 H 0.52468 0.11565 0.16446 0.0
C2127 C 0.56268 0.1826 0.13573 0.0
C2128 C 0.54614 0.15887 0.15955 0.0
H2129 H 0.54408 0.13021 0.17736 0.0
C2130 C 0.53256 0.16136 0.15818 0.0
C2131 C 0.55036 0.14743 0.16642 0.0
C2132 C 0.5648 0.14395 0.16774 0.0
C2133 C 0.52307 0.15279 0.16358 0.0
C2134 C 0.52729 0.14154 0.17076 0.0
C2135 C 0.54088 0.13895 0.172 0.0
C2136 C 0.51774 0.13196 0.17643 0.0
C2137 C 0.50863 0.15573 0.16133 0.0
C2138 C 0.5085 0.13587 0.18606 0.0
C2139 C 0.49905 0.12688 0.19076 0.0
C2140 C 0.49886 0.11383 0.18604 0.0
C2141 C 0.50826 0.10991 0.17658 0.0
C2142 C 0.51765 0.11886 0.17189 0.0
H2143 H 0.50713 0.16283 0.15307 0.0
H2144 H 0.50306 0.14654 0.15912 0.0
H2145 H 0.50438 0.16019 0.17043 0.0
H2146 H 0.50848 0.14589 0.18983 0.0
H2147 H 0.49173 0.13022 0.19783 0.0
H2148 H 0.96389 0.51029 0.17977 0.0
H2149 H 0.9484 0.52632 0.17032 0.0
H2150 H 0.91627 0.50746 0.19109 0.0
H2151 H 0.93178 0.49116 0.20032 0.0
H2152 H 0.91096 0.51194 0.16464 0.0
H2153 H 0.9301 0.55761 0.18816 0.0
H2154 H 0.94248 0.54811 0.17966 0.0
H2155 H 0.93438 0.54126 0.19395 0.0
C2156 C 0.95354 0.50968 0.18244 0.0
C2157 C 0.94903 0.49971 0.19102 0.0
C2158 C 0.94472 0.51888 0.1771 0.0
C2159 C 0.93122 0.51825 0.1802 0.0
C2160 C 0.92668 0.50821 0.18869 0.0
H2161 H 0.86949 0.57491 0.16642 0.0
H2162 H 0.88783 0.56183 0.17494 0.0
C2163 C 0.93553 0.499 0.19404 0.0
C2164 C 0.92177 0.52765 0.17404 0.0
H2165 H 0.9143 0.56048 0.17102 0.0
C2166 C 0.91167 0.52256 0.16604 0.0
C2167 C 0.92267 0.54148 0.17596 0.0
C2168 C 0.93291 0.54747 0.185 0.0
C2169 C 0.90244 0.53091 0.15987 0.0
C2170 C 0.90353 0.54478 0.16151 0.0
C2171 C 0.91362 0.54987 0.16957 0.0
C2172 C 0.89361 0.55405 0.15586 0.0
C2173 C 0.89137 0.52474 0.15202 0.0
C2174 C 0.89112 0.55453 0.14219 0.0
C2175 C 0.88051 0.56197 0.13726 0.0
C2176 C 0.87232 0.56914 0.14592 0.0
C2177 C 0.87551 0.56942 0.15946 0.0
C2178 C 0.88602 0.56194 0.16437 0.0
H2179 H 0.89015 0.51407 0.15435 0.0
H2180 H 0.88185 0.52986 0.15397 0.0
H2181 H 0.89361 0.52562 0.14131 0.0
H2182 H 0.89708 0.54878 0.13539 0.0
H2183 H 0.87839 0.56161 0.12676 0.0
H2184 H 0.50779 0.88973 0.09932 0.0
H2185 H 0.52302 0.8992 0.11549 0.0
H2186 H 0.50782 0.87282 0.1454 0.0
H2187 H 0.49219 0.86359 0.12927 0.0
H2188 H 0.50946 0.89838 0.15395 0.0
H2189 H 0.5568 0.88365 0.13058 0.0
H2190 H 0.54602 0.89253 0.11963 0.0
H2191 H 0.54114 0.87657 0.12582 0.0
C2192 C 0.50779 0.88585 0.10932 0.0
C2193 C 0.49905 0.8757 0.11299 0.0
C2194 C 0.51657 0.89121 0.11852 0.0
C2195 C 0.51678 0.88652 0.13158 0.0
C2196 C 0.50795 0.87646 0.13532 0.0
H2197 H 0.57409 0.90056 0.19268 0.0
H2198 H 0.56145 0.8925 0.17384 0.0
C2199 C 0.49913 0.87111 0.12609 0.0
C2200 C 0.52572 0.89263 0.14148 0.0
H2201 H 0.55814 0.89924 0.14815 0.0
C2202 C 0.52011 0.89855 0.15271 0.0
C2203 C 0.53962 0.89274 0.13988 0.0
C2204 C 0.54628 0.88592 0.1284 0.0
C2205 C 0.52799 0.90462 0.16237 0.0
C2206 C 0.54187 0.90509 0.16059 0.0
C2207 C 0.54749 0.89909 0.14939 0.0
C2208 C 0.55076 0.91079 0.17079 0.0
C2209 C 0.52139 0.91011 0.17459 0.0
C2210 C 0.54944 0.92399 0.17496 0.0
C2211 C 0.55662 0.92864 0.18585 0.0
C2212 C 0.56533 0.92018 0.19265 0.0
C2213 C 0.56738 0.90732 0.18776 0.0
C2214 C 0.56016 0.90267 0.17696 0.0
H2215 H 0.51124 0.90612 0.17591 0.0
H2216 H 0.52722 0.9078 0.1836 0.0
H2217 H 0.52062 0.92102 0.17369 0.0
H2218 H 0.5425 0.93055 0.1701 0.0
H2219 H 0.55488 0.93863 0.18929 0.0
H2220 H 0.11517 0.55383 0.20265 0.0
H2221 H 0.12913 0.53577 0.19414 0.0
H2222 H 0.14048 0.56029 0.16109 0.0
H2223 H 0.12682 0.57831 0.16972 0.0
H2224 H 0.13095 0.53435 0.15434 0.0
H2225 H 0.17023 0.53308 0.19291 0.0
H2226 H 0.15333 0.53265 0.19844 0.0
H2227 H 0.15962 0.54727 0.19061 0.0
C2228 C 0.12111 0.55548 0.1939 0.0
C2229 C 0.12035 0.56755 0.1871 0.0
C2230 C 0.1289 0.54514 0.18894 0.0
C2231 C 0.13594 0.54676 0.17706 0.0
C2232 C 0.13517 0.55886 0.1703 0.0
H2233 H 0.18919 0.50888 0.12399 0.0
H2234 H 0.17119 0.52134 0.13418 0.0
C2235 C 0.12743 0.56914 0.17526 0.0
C2236 C 0.14377 0.53581 0.17127 0.0
H2237 H 0.1723 0.51825 0.17516 0.0
C2238 C 0.13994 0.53073 0.15893 0.0
C2239 C 0.15539 0.53103 0.17735 0.0
C2240 C 0.16 0.53629 0.19052 0.0
C2241 C 0.14761 0.5212 0.15235 0.0
C2242 C 0.15958 0.51688 0.15813 0.0
C2243 C 0.16313 0.52159 0.17072 0.0
C2244 C 0.16907 0.50822 0.15099 0.0
C2245 C 0.14282 0.51589 0.13927 0.0
C2246 C 0.17381 0.49661 0.15696 0.0
C2247 C 0.18419 0.48952 0.1512 0.0
C2248 C 0.19009 0.49394 0.13938 0.0
C2249 C 0.18483 0.50515 0.13304 0.0
C2250 C 0.17448 0.51228 0.13884 0.0
H2251 H 0.13189 0.51658 0.13847 0.0
H2252 H 0.14713 0.52188 0.13113 0.0
H2253 H 0.14582 0.50542 0.13785 0.0
H2254 H 0.16979 0.4933 0.16633 0.0
H2255 H 0.18798 0.48091 0.15633 0.0
H2256 H 0.8562 0.90088 0.55587 0.0
H2257 H 0.87501 0.8917 0.54432 0.0
H2258 H 0.89783 0.92655 0.55346 0.0
H2259 H 0.87844 0.93629 0.56449 0.0
H2260 H 0.90209 0.9207 0.5296 0.0
H2261 H 0.90701 0.87358 0.55604 0.0
H2262 H 0.89039 0.87465 0.55018 0.0
H2263 H 0.89638 0.88657 0.56206 0.0
C2264 C 0.86526 0.90658 0.55564 0.0
C2265 C 0.86584 0.9193 0.56121 0.0
C2266 C 0.87612 0.9012 0.54911 0.0
C2267 C 0.88807 0.90817 0.54834 0.0
C2268 C 0.88878 0.92088 0.55404 0.0
H2269 H 0.95144 0.86479 0.50661 0.0
H2270 H 0.93802 0.87458 0.52438 0.0
C2271 C 0.87772 0.92644 0.56035 0.0
C2272 C 0.89922 0.90257 0.54047 0.0
H2273 H 0.91434 0.87329 0.53288 0.0
C2274 C 0.90495 0.9104 0.53053 0.0
C2275 C 0.90339 0.88923 0.54182 0.0
C2276 C 0.89906 0.88062 0.55323 0.0
C2277 C 0.91394 0.90505 0.5214 0.0
C2278 C 0.91679 0.89132 0.52176 0.0
C2279 C 0.91184 0.88371 0.53227 0.0
C2280 C 0.92451 0.88465 0.51112 0.0
C2281 C 0.92028 0.91427 0.5115 0.0
C2282 C 0.92108 0.88652 0.49777 0.0
C2283 C 0.92885 0.88114 0.48771 0.0
C2284 C 0.93987 0.87332 0.49078 0.0
C2285 C 0.94287 0.87069 0.50407 0.0
C2286 C 0.93525 0.87634 0.51418 0.0
H2287 H 0.92122 0.92441 0.5156 0.0
H2288 H 0.93025 0.91077 0.50851 0.0
H2289 H 0.91394 0.91493 0.50257 0.0
H2290 H 0.91255 0.89241 0.49511 0.0
H2291 H 0.92642 0.88331 0.47749 0.0
H2292 H 0.87516 0.15766 0.48427 0.0
H2293 H 0.8938 0.16802 0.49558 0.0
H2294 H 0.89171 0.13836 0.52621 0.0
H2295 H 0.87328 0.1278 0.51485 0.0
H2296 H 0.89189 0.17899 0.51964 0.0
H2297 H 0.93105 0.14091 0.52087 0.0
H2298 H 0.91702 0.13981 0.5099 0.0
H2299 H 0.91566 0.13449 0.52687 0.0
C2300 C 0.87889 0.15313 0.49323 0.0
C2301 C 0.87268 0.14193 0.49869 0.0
C2302 C 0.88953 0.15909 0.4997 0.0
C2303 C 0.89423 0.15394 0.51171 0.0
C2304 C 0.88847 0.14237 0.51682 0.0
H2305 H 0.93486 0.17627 0.58096 0.0
H2306 H 0.92192 0.1668 0.56289 0.0
C2307 C 0.87787 0.13636 0.51033 0.0
C2308 C 0.90401 0.16144 0.51967 0.0
H2309 H 0.93234 0.15792 0.53763 0.0
C2310 C 0.90089 0.17448 0.52336 0.0
C2311 C 0.91576 0.15559 0.52447 0.0
C2312 C 0.92014 0.14198 0.5202 0.0
C2313 C 0.90878 0.18152 0.53235 0.0
C2314 C 0.92011 0.17536 0.5377 0.0
C2315 C 0.92357 0.16257 0.53356 0.0
C2316 C 0.92781 0.18152 0.54851 0.0
C2317 C 0.90459 0.1952 0.53659 0.0
C2318 C 0.9354 0.19296 0.54639 0.0
C2319 C 0.94281 0.1984 0.55675 0.0
C2320 C 0.94259 0.19254 0.56934 0.0
C2321 C 0.93503 0.18108 0.57138 0.0
C2322 C 0.92769 0.17564 0.56107 0.0
H2323 H 0.89462 0.19786 0.53283 0.0
H2324 H 0.90454 0.19594 0.54755 0.0
H2325 H 0.91178 0.20256 0.53276 0.0
H2326 H 0.93583 0.19748 0.53668 0.0
H2327 H 0.94909 0.20685 0.55483 0.0
H2328 H 0.19643 0.90409 0.484 0.0
H2329 H 0.17792 0.89524 0.49667 0.0
H2330 H 0.17511 0.93182 0.51839 0.0
H2331 H 0.1938 0.94073 0.50586 0.0
H2332 H 0.17798 0.90983 0.53443 0.0
H2333 H 0.1381 0.90148 0.49782 0.0
H2334 H 0.15376 0.8946 0.49303 0.0
H2335 H 0.15198 0.91223 0.49459 0.0
C2336 C 0.19167 0.91041 0.49123 0.0
C2337 C 0.19668 0.92309 0.49398 0.0
C2338 C 0.18103 0.90533 0.49844 0.0
C2339 C 0.17511 0.91287 0.50846 0.0
C2340 C 0.17954 0.92584 0.51069 0.0
H2341 H 0.10759 0.89303 0.55678 0.0
H2342 H 0.12313 0.90206 0.54064 0.0
C2343 C 0.19019 0.93094 0.50346 0.0
C2344 C 0.16538 0.90671 0.51757 0.0
H2345 H 0.13554 0.89101 0.51882 0.0
C2346 C 0.16866 0.90579 0.53103 0.0
C2347 C 0.15324 0.90143 0.51312 0.0
C2348 C 0.14897 0.90257 0.49887 0.0
C2349 C 0.16018 0.89966 0.54016 0.0
C2350 C 0.14818 0.89409 0.53566 0.0
C2351 C 0.14483 0.89512 0.52221 0.0
C2352 C 0.1386 0.88791 0.54491 0.0
C2353 C 0.16402 0.89947 0.55458 0.0
C2354 C 0.14205 0.87679 0.55253 0.0
C2355 C 0.13317 0.87165 0.56186 0.0
C2356 C 0.12067 0.87743 0.56354 0.0
C2357 C 0.11715 0.88835 0.55567 0.0
C2358 C 0.126 0.89349 0.54641 0.0
H2359 H 0.17188 0.9068 0.5568 0.0
H2360 H 0.15536 0.90157 0.56099 0.0
H2361 H 0.16785 0.88951 0.55717 0.0
H2362 H 0.15167 0.87223 0.55142 0.0
H2363 H 0.13623 0.86342 0.568 0.0
H2364 H 0.19822 0.13654 0.5722 0.0
H2365 H 0.19016 0.15514 0.55866 0.0
H2366 H 0.15551 0.1326 0.5485 0.0
H2367 H 0.16365 0.11396 0.56148 0.0
H2368 H 0.18068 0.15283 0.52877 0.0
H2369 H 0.14342 0.17012 0.5652 0.0
H2370 H 0.15815 0.16114 0.56994 0.0
H2371 H 0.14432 0.15248 0.56299 0.0
C2372 C 0.18905 0.13547 0.56683 0.0
C2373 C 0.18173 0.12368 0.56767 0.0
C2374 C 0.1844 0.14614 0.55923 0.0
C2375 C 0.17223 0.14522 0.55264 0.0
C2376 C 0.16489 0.13351 0.55357 0.0
H2377 H 0.11452 0.17443 0.50321 0.0
H2378 H 0.12909 0.16532 0.52012 0.0
C2379 C 0.16957 0.12287 0.561 0.0
C2380 C 0.16694 0.15629 0.54463 0.0
H2381 H 0.14011 0.17665 0.54272 0.0
C2382 C 0.17202 0.15835 0.53188 0.0
C2383 C 0.15567 0.16341 0.54877 0.0
C2384 C 0.15009 0.1618 0.56252 0.0
C2385 C 0.16546 0.1666 0.52278 0.0
C2386 C 0.15365 0.17306 0.52666 0.0
C2387 C 0.14915 0.17169 0.53974 0.0
C2388 C 0.14477 0.1795 0.5169 0.0
C2389 C 0.17066 0.16755 0.50882 0.0
C2390 C 0.14864 0.19068 0.50956 0.0
C2391 C 0.14027 0.1959 0.49978 0.0
C2392 C 0.1279 0.1901 0.49735 0.0
C2393 C 0.12398 0.17914 0.50492 0.0
C2394 C 0.13228 0.17395 0.51461 0.0
H2395 H 0.17887 0.16047 0.50695 0.0
H2396 H 0.16264 0.16559 0.5016 0.0
H2397 H 0.17441 0.1777 0.50701 0.0
H2398 H 0.15818 0.19521 0.51124 0.0
H2399 H 0.14363 0.20417 0.49385 0.0
H2400 H 0.09201 0.47663 0.30543 0.0
H2401 H 0.10439 0.4918 0.29144 0.0
H2402 H 0.14046 0.48103 0.31143 0.0
H2403 H 0.12793 0.46564 0.32569 0.0
H2404 H 0.13741 0.50906 0.30552 0.0
H2405 H 0.12878 0.47802 0.2615 0.0
H2406 H 0.11372 0.48089 0.27044 0.0
H2407 H 0.12695 0.47182 0.27819 0.0
C2408 C 0.10256 0.47755 0.30696 0.0
C2409 C 0.10905 0.46983 0.3165 0.0
C2410 C 0.10963 0.48617 0.29891 0.0
C2411 C 0.12338 0.48719 0.30011 0.0
C2412 C 0.12986 0.48019 0.31023 0.0
H2413 H 0.14644 0.53705 0.23224 0.0
H2414 H 0.14974 0.51855 0.24788 0.0
C2415 C 0.12271 0.47151 0.31841 0.0
C2416 C 0.13063 0.49558 0.29053 0.0
H2417 H 0.13162 0.5016 0.25734 0.0
C2418 C 0.13654 0.50728 0.29498 0.0
C2419 C 0.12988 0.49307 0.27678 0.0
C2420 C 0.12462 0.48018 0.27145 0.0
C2421 C 0.14032 0.51719 0.286 0.0
C2422 C 0.13779 0.51542 0.27232 0.0
C2423 C 0.13335 0.50309 0.26782 0.0
C2424 C 0.13712 0.52683 0.2631 0.0
C2425 C 0.14628 0.52976 0.29133 0.0
C2426 C 0.12866 0.53733 0.26625 0.0
C2427 C 0.12679 0.5477 0.25743 0.0
C2428 C 0.13326 0.54792 0.24516 0.0
C2429 C 0.1415 0.53724 0.24175 0.0
C2430 C 0.14344 0.52675 0.25068 0.0
H2431 H 0.15248 0.52766 0.30015 0.0
H2432 H 0.15242 0.53485 0.28378 0.0
H2433 H 0.13825 0.53654 0.2945 0.0
H2434 H 0.12309 0.53731 0.27541 0.0
H2435 H 0.11976 0.55521 0.2601 0.0
H2436 H 0.50739 0.14273 0.25339 0.0
H2437 H 0.5254 0.14405 0.26942 0.0
H2438 H 0.55143 0.12458 0.24181 0.0
H2439 H 0.5334 0.12317 0.22569 0.0
H2440 H 0.54708 0.11146 0.26687 0.0
H2441 H 0.56126 0.16423 0.27323 0.0
H2442 H 0.54384 0.16066 0.27303 0.0
H2443 H 0.55349 0.1581 0.25835 0.0
C2444 C 0.51707 0.13908 0.25058 0.0
C2445 C 0.51899 0.13273 0.23835 0.0
C2446 C 0.52735 0.13991 0.25973 0.0
C2447 C 0.53973 0.13444 0.25677 0.0
C2448 C 0.54194 0.12893 0.24421 0.0
H2449 H 0.61142 0.11972 0.29641 0.0
H2450 H 0.59383 0.13037 0.28375 0.0
C2451 C 0.53166 0.12817 0.235 0.0
C2452 C 0.54957 0.13259 0.26741 0.0
H2453 H 0.57033 0.14884 0.28849 0.0
C2454 C 0.55216 0.11963 0.2716 0.0
C2455 C 0.55604 0.1433 0.27362 0.0
C2456 C 0.55363 0.15738 0.26932 0.0
C2457 C 0.56119 0.11703 0.28176 0.0
C2458 C 0.56772 0.12772 0.28797 0.0
C2459 C 0.56511 0.14072 0.28384 0.0
C2460 C 0.57838 0.1252 0.2976 0.0
C2461 C 0.564 0.10283 0.28552 0.0
C2462 C 0.57559 0.11954 0.30999 0.0
C2463 C 0.58569 0.11355 0.31733 0.0
C2464 C 0.59859 0.11311 0.31223 0.0
C2465 C 0.60154 0.12001 0.30053 0.0
C2466 C 0.59151 0.12608 0.2933 0.0
H2467 H 0.55939 0.0957 0.27856 0.0
H2468 H 0.57481 0.10098 0.28575 0.0
H2469 H 0.56005 0.10086 0.29558 0.0
H2470 H 0.56548 0.11877 0.31343 0.0
H2471 H 0.58316 0.10814 0.32623 0.0
H2472 H 0.94635 0.6066 0.30331 0.0
H2473 H 0.93382 0.59132 0.28956 0.0
H2474 H 0.94021 0.56028 0.31815 0.0
H2475 H 0.95281 0.5757 0.33205 0.0
H2476 H 0.95087 0.55536 0.29333 0.0
H2477 H 0.89876 0.57123 0.28807 0.0
H2478 H 0.91028 0.5846 0.28626 0.0
H2479 H 0.90898 0.57615 0.30188 0.0
C2480 C 0.94455 0.59668 0.30695 0.0
C2481 C 0.95046 0.5923 0.31873 0.0
C2482 C 0.93735 0.58796 0.2991 0.0
C2483 C 0.93599 0.57469 0.30286 0.0
C2484 C 0.94102 0.57054 0.31516 0.0
H2485 H 0.91275 0.50857 0.25419 0.0
H2486 H 0.91185 0.52612 0.2708 0.0
C2487 C 0.94814 0.57935 0.32313 0.0
C2488 C 0.93183 0.56488 0.29282 0.0
H2489 H 0.90751 0.5576 0.27052 0.0
C2490 C 0.94131 0.55571 0.28851 0.0
C2491 C 0.91939 0.56545 0.28645 0.0
C2492 C 0.90872 0.57481 0.29098 0.0
C2493 C 0.93887 0.5474 0.27772 0.0
C2494 C 0.92666 0.54834 0.27101 0.0
C2495 C 0.91695 0.55713 0.27557 0.0
C2496 C 0.92389 0.53973 0.25955 0.0
C2497 C 0.94942 0.53773 0.27344 0.0
C2498 C 0.93031 0.54195 0.24743 0.0
C2499 C 0.93075 0.53197 0.23785 0.0
C2500 C 0.92489 0.51966 0.24043 0.0
C2501 C 0.91732 0.51801 0.25198 0.0
C2502 C 0.91681 0.528 0.26148 0.0
H2503 H 0.95765 0.53709 0.28068 0.0
H2504 H 0.94512 0.52771 0.27214 0.0
H2505 H 0.95355 0.54088 0.26376 0.0
H2506 H 0.93587 0.55097 0.24584 0.0
H2507 H 0.93677 0.53344 0.2291 0.0
H2508 H 0.52752 0.92171 0.24816 0.0
H2509 H 0.51131 0.92208 0.2661 0.0
H2510 H 0.54281 0.92128 0.29479 0.0
H2511 H 0.55911 0.92102 0.27689 0.0
H2512 H 0.50601 0.90607 0.28902 0.0
H2513 H 0.52376 0.95671 0.30151 0.0
H2514 H 0.52835 0.9485 0.28636 0.0
H2515 H 0.53596 0.94379 0.30169 0.0
C2516 C 0.531 0.92137 0.25828 0.0
C2517 C 0.54458 0.92163 0.26113 0.0
C2518 C 0.52173 0.92155 0.26852 0.0
C2519 C 0.5259 0.92195 0.28174 0.0
C2520 C 0.53943 0.92122 0.28463 0.0
H2521 H 0.47482 0.95272 0.34414 0.0
H2522 H 0.49304 0.93956 0.33504 0.0
C2523 C 0.54871 0.9211 0.2744 0.0
C2524 C 0.51613 0.92451 0.29231 0.0
H2525 H 0.50535 0.94887 0.31298 0.0
C2526 C 0.50595 0.91533 0.29444 0.0
C2527 C 0.51612 0.9366 0.29935 0.0
C2528 C 0.52655 0.94704 0.2971 0.0
C2529 C 0.49549 0.91813 0.30312 0.0
C2530 C 0.49514 0.93049 0.30965 0.0
C2531 C 0.50569 0.93935 0.30804 0.0
C2532 C 0.48319 0.9354 0.31651 0.0
C2533 C 0.48474 0.90798 0.30498 0.0
C2534 C 0.47148 0.93706 0.30928 0.0
C2535 C 0.46113 0.94456 0.31443 0.0
C2536 C 0.46232 0.95062 0.32687 0.0
C2537 C 0.47362 0.94812 0.33455 0.0
C2538 C 0.48403 0.94063 0.32935 0.0
H2539 H 0.4886 0.8978 0.30348 0.0
H2540 H 0.48026 0.90864 0.31499 0.0
H2541 H 0.47687 0.9097 0.29753 0.0
H2542 H 0.47069 0.93337 0.29926 0.0
H2543 H 0.45249 0.94626 0.30833 0.0
H2544 H 0.14757 0.51272 0.80634 0.0
H2545 H 0.14744 0.53181 0.7915 0.0
H2546 H 0.1262 0.55443 0.82073 0.0
H2547 H 0.12632 0.53524 0.83573 0.0
H2548 H 0.11653 0.54337 0.7887 0.0
H2549 H 0.15876 0.57748 0.79779 0.0
H2550 H 0.16047 0.55981 0.80006 0.0
H2551 H 0.15066 0.56921 0.81142 0.0
C2552 C 0.1434 0.52196 0.80984 0.0
C2553 C 0.137 0.52256 0.82218 0.0
C2554 C 0.14331 0.53282 0.80134 0.0
C2555 C 0.13683 0.54447 0.80505 0.0
C2556 C 0.13139 0.54552 0.8178 0.0
H2557 H 0.10947 0.61418 0.76744 0.0
H2558 H 0.12093 0.59792 0.78101 0.0
C2559 C 0.13154 0.53462 0.82639 0.0
C2560 C 0.13363 0.55437 0.79479 0.0
H2561 H 0.14362 0.58352 0.78104 0.0
C2562 C 0.12246 0.55213 0.78693 0.0
C2563 C 0.14145 0.56569 0.7926 0.0
C2564 C 0.15355 0.56831 0.80086 0.0
C2565 C 0.11863 0.56115 0.77711 0.0
C2566 C 0.12644 0.57256 0.77484 0.0
C2567 C 0.13776 0.57468 0.78263 0.0
C2568 C 0.12204 0.58311 0.76562 0.0
C2569 C 0.10593 0.55864 0.76969 0.0
C2570 C 0.11949 0.58049 0.75218 0.0
C2571 C 0.11278 0.5898 0.74437 0.0
C2572 C 0.10863 0.60184 0.74992 0.0
C2573 C 0.11237 0.60489 0.76296 0.0
C2574 C 0.11898 0.59562 0.77073 0.0
H2575 H 0.10828 0.55511 0.75957 0.0
H2576 H 0.09975 0.55099 0.77459 0.0
H2577 H 0.10001 0.56786 0.76882 0.0
H2578 H 0.12207 0.571 0.74795 0.0
H2579 H 0.11006 0.58721 0.73434 0.0
H2580 H 0.45384 0.12911 0.76399 0.0
H2581 H 0.47103 0.13958 0.77735 0.0
H2582 H 0.50092 0.12298 0.75188 0.0
H2583 H 0.48367 0.11268 0.73828 0.0
H2584 H 0.49886 0.11449 0.78096 0.0
H2585 H 0.50195 0.16889 0.77285 0.0
H2586 H 0.48587 0.16122 0.77255 0.0
H2587 H 0.49758 0.15749 0.75978 0.0
C2588 C 0.46405 0.12825 0.76088 0.0
C2589 C 0.46747 0.12021 0.75008 0.0
C2590 C 0.47385 0.13422 0.76852 0.0
C2591 C 0.4872 0.13208 0.76555 0.0
C2592 C 0.49063 0.12487 0.75418 0.0
H2593 H 0.55805 0.1486 0.80852 0.0
H2594 H 0.53971 0.1493 0.7929 0.0
C2595 C 0.48079 0.11907 0.74638 0.0
C2596 C 0.49727 0.13505 0.77569 0.0
H2597 H 0.51369 0.16012 0.79115 0.0
C2598 C 0.50216 0.12445 0.78317 0.0
C2599 C 0.50142 0.14806 0.77853 0.0
C2600 C 0.49653 0.15963 0.77051 0.0
C2601 C 0.51113 0.1265 0.79352 0.0
C2602 C 0.51514 0.13956 0.79657 0.0
C2603 C 0.51037 0.15017 0.78895 0.0
C2604 C 0.52523 0.14206 0.80687 0.0
C2605 C 0.51645 0.11463 0.80089 0.0
C2606 C 0.52298 0.13851 0.82014 0.0
C2607 C 0.5335 0.13805 0.82912 0.0
C2608 C 0.54635 0.14114 0.82489 0.0
C2609 C 0.54826 0.14599 0.81199 0.0
C2610 C 0.53779 0.14644 0.80305 0.0
H2611 H 0.51443 0.10523 0.79557 0.0
H2612 H 0.52728 0.11551 0.80241 0.0
H2613 H 0.51166 0.11404 0.81075 0.0
H2614 H 0.51327 0.1353 0.82331 0.0
H2615 H 0.53175 0.1343 0.83901 0.0
H2616 H 0.93074 0.55225 0.78662 0.0
H2617 H 0.93291 0.5339 0.77111 0.0
H2618 H 0.93182 0.50619 0.80355 0.0
H2619 H 0.92982 0.5246 0.81924 0.0
H2620 H 0.9537 0.5034 0.7863 0.0
H2621 H 0.90667 0.50569 0.75823 0.0
H2622 H 0.91509 0.52126 0.75962 0.0
H2623 H 0.90871 0.51336 0.77423 0.0
C2624 C 0.93081 0.54225 0.79047 0.0
C2625 C 0.93021 0.53986 0.80415 0.0
C2626 C 0.93192 0.53177 0.78157 0.0
C2627 C 0.93237 0.5187 0.78617 0.0
C2628 C 0.93138 0.51623 0.79981 0.0
H2629 H 0.95417 0.44535 0.74792 0.0
H2630 H 0.94419 0.46175 0.76257 0.0
C2631 C 0.93021 0.52673 0.80874 0.0
C2632 C 0.93517 0.50779 0.77683 0.0
H2633 H 0.92394 0.49255 0.74886 0.0
C2634 C 0.94713 0.50091 0.77821 0.0
C2635 C 0.92663 0.5047 0.7662 0.0
C2636 C 0.9135 0.51155 0.76451 0.0
C2637 C 0.95094 0.49122 0.76907 0.0
C2638 C 0.94242 0.48816 0.7584 0.0
C2639 C 0.93042 0.49495 0.75705 0.0
C2640 C 0.94599 0.47788 0.74863 0.0
C2641 C 0.96421 0.48456 0.77068 0.0
C2642 C 0.94959 0.4814 0.73567 0.0
C2643 C 0.95527 0.47199 0.72721 0.0
C2644 C 0.95738 0.459 0.73168 0.0
C2645 C 0.95269 0.45531 0.74425 0.0
C2646 C 0.94705 0.46467 0.75266 0.0
H2647 H 0.97076 0.4901 0.77753 0.0
H2648 H 0.96274 0.47449 0.77478 0.0
H2649 H 0.96929 0.48357 0.76099 0.0
H2650 H 0.94879 0.49158 0.73241 0.0
H2651 H 0.95894 0.47512 0.71764 0.0
H2652 H 0.50159 0.92145 0.80789 0.0
H2653 H 0.51936 0.92016 0.79159 0.0
H2654 H 0.54743 0.93249 0.82113 0.0
H2655 H 0.52959 0.93403 0.83756 0.0
H2656 H 0.53528 0.94646 0.78862 0.0
H2657 H 0.56457 0.90053 0.79688 0.0
H2658 H 0.54713 0.90149 0.8007 0.0
H2659 H 0.55885 0.90978 0.81104 0.0
C2660 C 0.5116 0.92358 0.81103 0.0
C2661 C 0.51419 0.92803 0.82395 0.0
C2662 C 0.52173 0.92278 0.8017 0.0
C2663 C 0.53465 0.92623 0.80518 0.0
C2664 C 0.5375 0.92967 0.81833 0.0
H2665 H 0.60655 0.94727 0.76848 0.0
H2666 H 0.58916 0.93707 0.78163 0.0
C2667 C 0.52732 0.93052 0.8277 0.0
C2668 C 0.54458 0.92831 0.79466 0.0
H2669 H 0.57279 0.91576 0.78109 0.0
C2670 C 0.54342 0.9397 0.78684 0.0
C2671 C 0.55514 0.91947 0.7925 0.0
C2672 C 0.55658 0.90707 0.80065 0.0
C2673 C 0.55287 0.94279 0.77718 0.0
C2674 C 0.56354 0.93398 0.77498 0.0
C2675 C 0.56451 0.92239 0.78265 0.0
C2676 C 0.57458 0.93752 0.766 0.0
C2677 C 0.5517 0.95582 0.76994 0.0
C2678 C 0.57241 0.94047 0.75257 0.0
C2679 C 0.58237 0.94647 0.74501 0.0
C2680 C 0.59461 0.94948 0.75081 0.0
C2681 C 0.59713 0.94527 0.76382 0.0
C2682 C 0.58721 0.93938 0.77134 0.0
H2683 H 0.54457 0.96263 0.77481 0.0
H2684 H 0.56142 0.96086 0.76932 0.0
H2685 H 0.54815 0.954 0.75972 0.0
H2686 H 0.56281 0.93881 0.74816 0.0
H2687 H 0.58017 0.94956 0.73499 0.0
H2688 H 0.32037 0.10228 0.48542 0.0
H2689 H 0.30512 0.11281 0.5009 0.0
H2690 H 0.29548 0.14221 0.47143 0.0
H2691 H 0.30992 0.13089 0.45556 0.0
H2692 H 0.29954 0.13465 0.51271 0.0
H2693 H 0.26043 0.1255 0.47534 0.0
H2694 H 0.27716 0.11994 0.47309 0.0
H2695 H 0.27279 0.13693 0.46987 0.0
C2696 C 0.31535 0.11127 0.48244 0.0
C2697 C 0.31625 0.11583 0.46938 0.0
C2698 C 0.30656 0.11726 0.49125 0.0
C2699 C 0.29875 0.12802 0.48717 0.0
C2700 C 0.30099 0.1336 0.47463 0.0
H2701 H 0.24286 0.15382 0.54879 0.0
H2702 H 0.25979 0.15556 0.53152 0.0
C2703 C 0.30943 0.12732 0.46566 0.0
C2704 C 0.28736 0.13223 0.49545 0.0
H2705 H 0.25369 0.13476 0.49545 0.0
C2706 C 0.28951 0.13477 0.50892 0.0
C2707 C 0.27422 0.13214 0.49055 0.0
C2708 C 0.27096 0.12835 0.47647 0.0
C2709 C 0.27894 0.13666 0.51773 0.0
C2710 C 0.26582 0.13677 0.51278 0.0
C2711 C 0.26372 0.13481 0.49921 0.0
C2712 C 0.25411 0.13742 0.52164 0.0
C2713 C 0.28197 0.13763 0.53232 0.0
C2714 C 0.2445 0.12739 0.52109 0.0
C2715 C 0.23444 0.12679 0.53054 0.0
C2716 C 0.23398 0.13609 0.54079 0.0
C2717 C 0.24302 0.1466 0.54088 0.0
C2718 C 0.25283 0.14744 0.53117 0.0
H2719 H 0.29199 0.13378 0.53467 0.0
H2720 H 0.28165 0.14815 0.5354 0.0
H2721 H 0.27467 0.13201 0.5383 0.0
H2722 H 0.24521 0.11956 0.51381 0.0
H2723 H 0.22772 0.11845 0.53046 0.0
H2724 H 0.9216 0.26416 0.55446 0.0
H2725 H 0.92209 0.2795 0.5358 0.0
H2726 H 0.93718 0.24856 0.51065 0.0
H2727 H 0.9368 0.23305 0.52943 0.0
H2728 H 0.95066 0.28067 0.52171 0.0
H2729 H 0.90611 0.27326 0.49025 0.0
H2730 H 0.9056 0.27062 0.50794 0.0
H2731 H 0.91432 0.25919 0.4976 0.0
C2732 C 0.92465 0.2605 0.54486 0.0
C2733 C 0.92927 0.24745 0.5434 0.0
C2734 C 0.9249 0.26927 0.53423 0.0
C2735 C 0.92967 0.26514 0.52191 0.0
C2736 C 0.93335 0.25186 0.5201 0.0
H2737 H 0.95453 0.30252 0.45071 0.0
H2738 H 0.94366 0.28889 0.46735 0.0
C2739 C 0.93309 0.24301 0.5308 0.0
C2740 C 0.93273 0.27519 0.51174 0.0
H2741 H 0.92164 0.2892 0.48311 0.0
C2742 C 0.94431 0.28262 0.51329 0.0
C2743 C 0.9244 0.27759 0.50083 0.0
C2744 C 0.91186 0.26981 0.49895 0.0
C2745 C 0.94798 0.29226 0.50401 0.0
C2746 C 0.9396 0.29481 0.49308 0.0
C2747 C 0.92793 0.2874 0.4916 0.0
C2748 C 0.9436 0.30408 0.48241 0.0
C2749 C 0.96109 0.29919 0.50571 0.0
C2750 C 0.94649 0.31743 0.48508 0.0
C2751 C 0.95283 0.32527 0.47554 0.0
C2752 C 0.95626 0.31984 0.46322 0.0
C2753 C 0.95216 0.30691 0.46019 0.0
C2754 C 0.9459 0.29911 0.46968 0.0
H2755 H 0.96756 0.29401 0.51292 0.0
H2756 H 0.96641 0.2999 0.49613 0.0
H2757 H 0.95936 0.30937 0.50943 0.0
H2758 H 0.94452 0.32155 0.49476 0.0
H2759 H 0.95586 0.3352 0.47815 0.0
H2760 H 0.81005 0.92442 0.53175 0.0
H2761 H 0.7909 0.92358 0.5171 0.0
H2762 H 0.765 0.93029 0.55034 0.0
H2763 H 0.78415 0.93126 0.56509 0.0
H2764 H 0.76705 0.90845 0.51642 0.0
H2765 H 0.75821 0.96209 0.52586 0.0
H2766 H 0.77327 0.95395 0.53082 0.0
H2767 H 0.75831 0.95133 0.54001 0.0
C2768 C 0.80028 0.92555 0.53599 0.0
C2769 C 0.79862 0.92821 0.54953 0.0
C2770 C 0.78934 0.92502 0.52761 0.0
C2771 C 0.77658 0.92708 0.53262 0.0
C2772 C 0.77481 0.92891 0.54626 0.0
H2773 H 0.71676 0.95515 0.47764 0.0
H2774 H 0.72354 0.94333 0.4977 0.0
C2775 C 0.78576 0.9295 0.55465 0.0
C2776 C 0.76542 0.92855 0.5233 0.0
H2777 H 0.74603 0.95218 0.50907 0.0
C2778 C 0.76223 0.91793 0.51497 0.0
C2779 C 0.7591 0.94091 0.52149 0.0
C2780 C 0.7624 0.95278 0.52993 0.0
C2781 C 0.75341 0.91955 0.50438 0.0
C2782 C 0.74782 0.93216 0.50201 0.0
C2783 C 0.75026 0.94249 0.51094 0.0
C2784 C 0.74163 0.93567 0.48922 0.0
C2785 C 0.75055 0.90791 0.49554 0.0
C2786 C 0.74927 0.9348 0.47766 0.0
C2787 C 0.74545 0.94156 0.46628 0.0
C2788 C 0.73395 0.94931 0.46625 0.0
C2789 C 0.72562 0.94914 0.47737 0.0
C2790 C 0.7295 0.94243 0.48885 0.0
H2791 H 0.75104 0.89848 0.50118 0.0
H2792 H 0.74067 0.90876 0.49085 0.0
H2793 H 0.75814 0.90744 0.48762 0.0
H2794 H 0.7588 0.92991 0.47777 0.0
H2795 H 0.75205 0.94156 0.45782 0.0
H2796 H 0.10211 0.73406 0.48429 0.0
H2797 H 0.11107 0.75018 0.49991 0.0
H2798 H 0.13831 0.76392 0.47005 0.0
H2799 H 0.12864 0.74845 0.45415 0.0
H2800 H 0.13297 0.75804 0.51125 0.0
H2801 H 0.11711 0.7966 0.47561 0.0
H2802 H 0.1135 0.77934 0.47323 0.0
H2803 H 0.12952 0.78584 0.46893 0.0
C2804 C 0.11036 0.74017 0.48125 0.0
C2805 C 0.11474 0.74005 0.46808 0.0
C2806 C 0.11541 0.74947 0.49014 0.0
C2807 C 0.12505 0.75861 0.48601 0.0
C2808 C 0.13055 0.75732 0.47331 0.0
H2809 H 0.15282 0.81572 0.54544 0.0
H2810 H 0.15298 0.7985 0.52837 0.0
C2811 C 0.12521 0.74831 0.46431 0.0
C2812 C 0.12823 0.77022 0.49445 0.0
H2813 H 0.12794 0.80402 0.49481 0.0
C2814 C 0.13193 0.7681 0.50766 0.0
C2815 C 0.12652 0.78337 0.48985 0.0
C2816 C 0.12131 0.78645 0.47619 0.0
C2817 C 0.13379 0.77871 0.51643 0.0
C2818 C 0.13255 0.79188 0.5117 0.0
C2819 C 0.12908 0.79397 0.49842 0.0
C2820 C 0.13371 0.8036 0.52054 0.0
C2821 C 0.13635 0.7756 0.53082 0.0
C2822 C 0.12344 0.81298 0.52103 0.0
C2823 C 0.1237 0.82324 0.53029 0.0
C2824 C 0.13413 0.82414 0.53935 0.0
C2825 C 0.14475 0.81525 0.53843 0.0
C2826 C 0.14469 0.80526 0.52887 0.0
H2827 H 0.13313 0.76542 0.53342 0.0
H2828 H 0.14712 0.77624 0.53278 0.0
H2829 H 0.13114 0.78266 0.53742 0.0
H2830 H 0.11486 0.812 0.5147 0.0
H2831 H 0.11527 0.82981 0.53105 0.0
H2832 H 0.3417 0.95887 0.58935 0.0
H2833 H 0.33093 0.94664 0.5714 0.0
H2834 H 0.29993 0.93474 0.59814 0.0
H2835 H 0.31047 0.94711 0.616 0.0
H2836 H 0.31768 0.91899 0.56736 0.0
H2837 H 0.2847 0.96298 0.57056 0.0
H2838 H 0.30097 0.96266 0.57783 0.0
H2839 H 0.2875 0.95431 0.58584 0.0
C2840 C 0.3329 0.95317 0.59152 0.0
C2841 C 0.3268 0.95403 0.60398 0.0
C2842 C 0.32677 0.94621 0.58127 0.0
C2843 C 0.31459 0.93996 0.58347 0.0
C2844 C 0.30931 0.93956 0.59628 0.0
H2845 H 0.24811 0.92227 0.53388 0.0
H2846 H 0.26382 0.92268 0.55219 0.0
C2847 C 0.31532 0.94663 0.60645 0.0
C2848 C 0.30617 0.93624 0.57218 0.0
H2849 H 0.27853 0.94622 0.5557 0.0
C2850 C 0.30912 0.92489 0.56476 0.0
C2851 C 0.29512 0.9441 0.56879 0.0
C2852 C 0.29189 0.95676 0.57607 0.0
C2853 C 0.30101 0.92104 0.55414 0.0
C2854 C 0.28983 0.9288 0.55094 0.0
C2855 C 0.28702 0.9402 0.55831 0.0
C2856 C 0.28097 0.92571 0.53976 0.0
C2857 C 0.30431 0.90864 0.54654 0.0
C2858 C 0.28549 0.92692 0.52671 0.0
C2859 C 0.27652 0.92671 0.5162 0.0
C2860 C 0.2629 0.92543 0.51864 0.0
C2861 C 0.25853 0.92336 0.53168 0.0
C2862 C 0.26749 0.92356 0.54215 0.0
H2863 H 0.31141 0.90226 0.55199 0.0
H2864 H 0.29523 0.90286 0.54444 0.0
H2865 H 0.30885 0.91141 0.53693 0.0
H2866 H 0.29584 0.92877 0.52468 0.0
H2867 H 0.28022 0.92808 0.50625 0.0
H2868 H 0.11245 0.32947 0.5859 0.0
H2869 H 0.12344 0.3148 0.56988 0.0
H2870 H 0.12986 0.28593 0.60062 0.0
H2871 H 0.11887 0.3004 0.61656 0.0
H2872 H 0.15131 0.29515 0.57338 0.0
H2873 H 0.10069 0.27374 0.56904 0.0
H2874 H 0.10317 0.29102 0.5728 0.0
H2875 H 0.10675 0.27871 0.58504 0.0
C2876 C 0.1167 0.32024 0.58932 0.0
C2877 C 0.1148 0.31601 0.60242 0.0
C2878 C 0.12292 0.31187 0.58018 0.0
C2879 C 0.12738 0.29931 0.58413 0.0
C2880 C 0.12651 0.29561 0.59744 0.0
H2881 H 0.13384 0.22836 0.53597 0.0
H2882 H 0.13384 0.24292 0.55539 0.0
C2883 C 0.12023 0.30388 0.60651 0.0
C2884 C 0.13092 0.28923 0.57419 0.0
H2885 H 0.11751 0.26386 0.55655 0.0
C2886 C 0.14397 0.28828 0.56966 0.0
C2887 C 0.12132 0.28022 0.56958 0.0
C2888 C 0.10716 0.28089 0.57428 0.0
C2889 C 0.14766 0.27853 0.56045 0.0
C2890 C 0.13797 0.26968 0.55559 0.0
C2891 C 0.12496 0.27055 0.56036 0.0
C2892 C 0.14064 0.26021 0.54471 0.0
C2893 C 0.16191 0.27774 0.55612 0.0
C2894 C 0.14485 0.26497 0.53238 0.0
C2895 C 0.14494 0.25669 0.52138 0.0
C2896 C 0.14064 0.2435 0.52241 0.0
C2897 C 0.13726 0.23845 0.5349 0.0
C2898 C 0.1372 0.24678 0.54597 0.0
H2899 H 0.16863 0.28171 0.56384 0.0
H2900 H 0.16486 0.2674 0.55385 0.0
H2901 H 0.16326 0.28381 0.54707 0.0
H2902 H 0.14727 0.27532 0.53106 0.0
H2903 H 0.14768 0.26083 0.51188 0.0
H2904 H 0.8107 0.14118 0.5343 0.0
H2905 H 0.7913 0.14108 0.54868 0.0
H2906 H 0.76653 0.13146 0.51537 0.0
H2907 H 0.78595 0.13134 0.5009 0.0
H2908 H 0.76674 0.1546 0.54866 0.0
H2909 H 0.76095 0.10033 0.54074 0.0
H2910 H 0.77558 0.10913 0.53561 0.0
H2911 H 0.76059 0.11059 0.52623 0.0
C2912 C 0.80111 0.13919 0.52998 0.0
C2913 C 0.79989 0.13603 0.51651 0.0
C2914 C 0.79003 0.13918 0.53821 0.0
C2915 C 0.77753 0.13606 0.53312 0.0
C2916 C 0.77614 0.13366 0.51952 0.0
H2917 H 0.71708 0.107 0.5871 0.0
H2918 H 0.7243 0.11843 0.56696 0.0
C2919 C 0.78725 0.1336 0.51128 0.0
C2920 C 0.7663 0.13426 0.54234 0.0
H2921 H 0.74767 0.11015 0.55679 0.0
C2922 C 0.76237 0.14494 0.55029 0.0
C2923 C 0.76055 0.12166 0.54438 0.0
C2924 C 0.76465 0.10972 0.53638 0.0
C2925 C 0.75334 0.1432 0.5607 0.0
C2926 C 0.74828 0.13043 0.56328 0.0
C2927 C 0.7515 0.11996 0.55474 0.0
C2928 C 0.7417 0.12703 0.57593 0.0
C2929 C 0.74966 0.15494 0.56912 0.0
C2930 C 0.74877 0.12854 0.58776 0.0
C2931 C 0.7447 0.12201 0.5992 0.0
C2932 C 0.7335 0.11384 0.59901 0.0
C2933 C 0.72568 0.11336 0.58755 0.0
C2934 C 0.72983 0.11983 0.57603 0.0
H2935 H 0.74999 0.16424 0.56326 0.0
H2936 H 0.73964 0.15382 0.57346 0.0
H2937 H 0.7569 0.15591 0.5773 0.0
H2938 H 0.7581 0.13378 0.58789 0.0
H2939 H 0.75091 0.1225 0.60792 0.0
H2940 H 0.95401 0.73864 0.58225 0.0
H2941 H 0.94314 0.75234 0.56532 0.0
H2942 H 0.93549 0.78246 0.59448 0.0
H2943 H 0.94637 0.76896 0.61133 0.0
H2944 H 0.91457 0.77218 0.56795 0.0
H2945 H 0.96529 0.79303 0.5621 0.0
H2946 H 0.96281 0.77583 0.56624 0.0
H2947 H 0.95941 0.78836 0.57828 0.0
C2948 C 0.94953 0.74794 0.58513 0.0
C2949 C 0.95105 0.75279 0.59806 0.0
C2950 C 0.94338 0.75576 0.57547 0.0
C2951 C 0.93857 0.76838 0.57871 0.0
C2952 C 0.93909 0.77271 0.59184 0.0
H2953 H 0.93208 0.83766 0.52843 0.0
H2954 H 0.93185 0.8235 0.54815 0.0
C2955 C 0.94532 0.765 0.60143 0.0
C2956 C 0.93503 0.77792 0.56822 0.0
H2957 H 0.94844 0.80239 0.54927 0.0
C2958 C 0.92193 0.77879 0.56381 0.0
C2959 C 0.94466 0.78661 0.56304 0.0
C2960 C 0.95886 0.786 0.56758 0.0
C2961 C 0.91822 0.78817 0.5542 0.0
C2962 C 0.92792 0.79676 0.54887 0.0
C2963 C 0.94098 0.79592 0.55345 0.0
C2964 C 0.92515 0.80601 0.5378 0.0
C2965 C 0.90396 0.78889 0.54996 0.0
C2966 C 0.921 0.80101 0.52556 0.0
C2967 C 0.92105 0.80908 0.51436 0.0
C2968 C 0.9254 0.82226 0.51514 0.0
C2969 C 0.92861 0.82757 0.52756 0.0
C2970 C 0.92855 0.81946 0.5388 0.0
H2971 H 0.89726 0.78498 0.55776 0.0
H2972 H 0.901 0.7992 0.54758 0.0
H2973 H 0.90258 0.78275 0.54098 0.0
H2974 H 0.91858 0.79064 0.52446 0.0
H2975 H 0.91848 0.80474 0.50492 0.0
H2976 H 0.48156 0.34175 0.10318 0.0
H2977 H 0.50166 0.33188 0.11255 0.0
H2978 H 0.47829 0.30107 0.13047 0.0
H2979 H 0.45828 0.31071 0.12099 0.0
H2980 H 0.50808 0.31661 0.14285 0.0
H2981 H 0.50361 0.2887 0.09546 0.0
H2982 H 0.49812 0.30563 0.09696 0.0
H2983 H 0.48875 0.2926 0.10449 0.0
C2984 C 0.48067 0.33326 0.10966 0.0
C2985 C 0.46843 0.32693 0.11137 0.0
C2986 C 0.49214 0.32763 0.11497 0.0
C2987 C 0.49138 0.31577 0.12214 0.0
C2988 C 0.47901 0.31028 0.12502 0.0
H2989 H 0.53609 0.247 0.13885 0.0
H2990 H 0.51993 0.26493 0.1375 0.0
C2991 C 0.4676 0.31578 0.11961 0.0
C2992 C 0.50327 0.3076 0.12418 0.0
H2993 H 0.51931 0.28109 0.11083 0.0
C2994 C 0.51071 0.30896 0.1358 0.0
C2995 C 0.50657 0.29767 0.11492 0.0
C2996 C 0.49893 0.296 0.1022 0.0
C2997 C 0.52121 0.30027 0.13856 0.0
C2998 C 0.52415 0.29005 0.1295 0.0
C2999 C 0.51694 0.28895 0.11775 0.0
C3000 C 0.53425 0.27989 0.13221 0.0
C3001 C 0.52886 0.3017 0.15125 0.0
C3002 C 0.54764 0.28248 0.12982 0.0
C3003 C 0.55691 0.27223 0.1305 0.0
C3004 C 0.55287 0.25927 0.13354 0.0
C3005 C 0.53951 0.25686 0.13647 0.0
C3006 C 0.53027 0.26709 0.13573 0.0
H3007 H 0.52502 0.30987 0.15752 0.0
H3008 H 0.52841 0.29231 0.15696 0.0
H3009 H 0.53941 0.30365 0.14896 0.0
H3010 H 0.55083 0.2923 0.12697 0.0
H3011 H 0.56714 0.27441 0.1283 0.0
H3012 H 0.45854 0.75013 0.93817 0.0
H3013 H 0.47726 0.761 0.92751 0.0
H3014 H 0.50365 0.73188 0.94407 0.0
H3015 H 0.4848 0.7208 0.95466 0.0
H3016 H 0.49718 0.76883 0.94847 0.0
H3017 H 0.5185 0.74239 0.90504 0.0
H3018 H 0.50108 0.7414 0.90896 0.0
H3019 H 0.51288 0.7331 0.91923 0.0
C3020 C 0.46824 0.74566 0.93898 0.0
C3021 C 0.47027 0.73464 0.94717 0.0
C3022 C 0.47892 0.75188 0.93291 0.0
C3023 C 0.49179 0.74722 0.93501 0.0
C3024 C 0.49374 0.73548 0.94217 0.0
H3025 H 0.56622 0.78962 0.92623 0.0
H3026 H 0.54963 0.77211 0.92779 0.0
C3027 C 0.48298 0.72914 0.94817 0.0
C3028 C 0.50297 0.75622 0.93233 0.0
H3029 H 0.52889 0.76229 0.91158 0.0
C3030 C 0.50413 0.76741 0.94041 0.0
C3031 C 0.51209 0.75415 0.92198 0.0
C3032 C 0.51117 0.74214 0.91322 0.0
C3033 C 0.51406 0.77678 0.93828 0.0
C3034 C 0.52288 0.77508 0.92754 0.0
C3035 C 0.52199 0.76365 0.91968 0.0
C3036 C 0.53302 0.78517 0.92451 0.0
C3037 C 0.51509 0.78835 0.94767 0.0
C3038 C 0.5292 0.79819 0.92157 0.0
C3039 C 0.53861 0.80825 0.92097 0.0
C3040 C 0.55204 0.80544 0.92315 0.0
C3041 C 0.55594 0.79219 0.92494 0.0
C3042 C 0.54648 0.78214 0.92568 0.0
H3043 H 0.51012 0.78628 0.95725 0.0
H3044 H 0.52558 0.7909 0.94965 0.0
H3045 H 0.51021 0.79711 0.94318 0.0
H3046 H 0.51886 0.80067 0.92033 0.0
H3047 H 0.53527 0.8183 0.91935 0.0
H3048 H 0.34069 0.48619 0.95266 0.0
H3049 H 0.33015 0.50525 0.94197 0.0
H3050 H 0.30328 0.47907 0.92183 0.0
H3051 H 0.31354 0.46008 0.93273 0.0
H3052 H 0.31692 0.51243 0.91234 0.0
H3053 H 0.28533 0.50009 0.95587 0.0
H3054 H 0.30257 0.49565 0.95506 0.0
H3055 H 0.29067 0.48659 0.94557 0.0
C3056 C 0.33305 0.48447 0.94536 0.0
C3057 C 0.32785 0.47174 0.9435 0.0
C3058 C 0.32703 0.49536 0.93928 0.0
C3059 C 0.31593 0.4935 0.93119 0.0
C3060 C 0.31191 0.48064 0.92798 0.0
H3061 H 0.24398 0.53575 0.92015 0.0
H3062 H 0.26233 0.52027 0.91784 0.0
C3063 C 0.31775 0.46982 0.93421 0.0
C3064 C 0.30655 0.50447 0.92915 0.0
H3065 H 0.27764 0.51657 0.94152 0.0
C3066 C 0.30835 0.51343 0.9187 0.0
C3067 C 0.29547 0.50573 0.93759 0.0
C3068 C 0.29335 0.49658 0.94922 0.0
C3069 C 0.29903 0.52351 0.9163 0.0
C3070 C 0.2878 0.52449 0.92457 0.0
C3071 C 0.28621 0.51565 0.93512 0.0
C3072 C 0.27742 0.53458 0.92275 0.0
C3073 C 0.30105 0.53285 0.90486 0.0
C3074 C 0.2799 0.54785 0.92587 0.0
C3075 C 0.2694 0.55676 0.92723 0.0
C3076 C 0.25629 0.55244 0.92565 0.0
C3077 C 0.25395 0.53937 0.92158 0.0
C3078 C 0.26443 0.53051 0.92019 0.0
H3079 H 0.30902 0.52942 0.8981 0.0
H3080 H 0.29175 0.53396 0.89913 0.0
H3081 H 0.30379 0.54275 0.90871 0.0
H3082 H 0.28985 0.55113 0.92805 0.0
H3083 H 0.27155 0.56684 0.93008 0.0
H3084 H 0.53069 0.24532 0.92749 0.0
H3085 H 0.54631 0.26374 0.92538 0.0
H3086 H 0.5147 0.29155 0.93225 0.0
H3087 H 0.49909 0.27328 0.93446 0.0
H3088 H 0.54706 0.28739 0.90908 0.0
H3089 H 0.54094 0.29803 0.96282 0.0
H3090 H 0.53512 0.28291 0.95539 0.0
H3091 H 0.52608 0.29803 0.95311 0.0
C3092 C 0.52704 0.25537 0.92833 0.0
C3093 C 0.51373 0.25786 0.93134 0.0
C3094 C 0.53595 0.26586 0.92711 0.0
C3095 C 0.53165 0.27895 0.92887 0.0
C3096 C 0.51822 0.28149 0.93108 0.0
H3097 H 0.58541 0.34219 0.95043 0.0
H3098 H 0.56541 0.33353 0.93992 0.0
C3099 C 0.50934 0.27104 0.93234 0.0
C3100 C 0.54138 0.2898 0.92947 0.0
H3101 H 0.55633 0.31074 0.95119 0.0
C3102 C 0.549 0.29265 0.91822 0.0
C3103 C 0.54378 0.29669 0.9414 0.0
C3104 C 0.53614 0.29374 0.95392 0.0
C3105 C 0.55933 0.30189 0.91873 0.0
C3106 C 0.56215 0.30826 0.93084 0.0
C3107 C 0.55405 0.30594 0.94187 0.0
C3108 C 0.57466 0.31546 0.93312 0.0
C3109 C 0.56734 0.30449 0.90643 0.0
C3110 C 0.5866 0.30847 0.93218 0.0
C3111 C 0.59797 0.31336 0.93819 0.0
C3112 C 0.59756 0.32531 0.94523 0.0
C3113 C 0.58601 0.33301 0.94494 0.0
C3114 C 0.57457 0.32805 0.939 0.0
H3115 H 0.5613 0.30298 0.89738 0.0
H3116 H 0.57136 0.3147 0.90634 0.0
H3117 H 0.57573 0.29742 0.90605 0.0
H3118 H 0.58687 0.29863 0.92795 0.0
H3119 H 0.60676 0.30724 0.93833 0.0
H3120 H 0.83486 0.53558 0.93853 0.0
H3121 H 0.81882 0.55385 0.93826 0.0
H3122 H 0.78915 0.52763 0.9226 0.0
H3123 H 0.805 0.5094 0.9229 0.0
H3124 H 0.79969 0.56493 0.91758 0.0
H3125 H 0.77631 0.5395 0.96053 0.0
H3126 H 0.79288 0.53573 0.95508 0.0
H3127 H 0.77894 0.5297 0.94593 0.0
C3128 C 0.82504 0.53383 0.93466 0.0
C3129 C 0.82111 0.52105 0.9309 0.0
C3130 C 0.81589 0.54425 0.93454 0.0
C3131 C 0.80277 0.54199 0.93061 0.0
C3132 C 0.79918 0.52951 0.92581 0.0
H3133 H 0.73374 0.58875 0.95368 0.0
H3134 H 0.74683 0.57215 0.94165 0.0
C3135 C 0.80826 0.51913 0.92599 0.0
C3136 C 0.79247 0.55212 0.93297 0.0
H3137 H 0.76658 0.55929 0.95338 0.0
C3138 C 0.79238 0.5637 0.92534 0.0
C3139 C 0.78289 0.55039 0.94303 0.0
C3140 C 0.78273 0.53822 0.9517 0.0
C3141 C 0.78301 0.57372 0.92762 0.0
C3142 C 0.77371 0.5722 0.938 0.0
C3143 C 0.7736 0.56042 0.94535 0.0
C3144 C 0.76513 0.58321 0.94259 0.0
C3145 C 0.78319 0.58583 0.91889 0.0
C3146 C 0.77095 0.59506 0.94677 0.0
C3147 C 0.76351 0.60451 0.9535 0.0
C3148 C 0.75011 0.60225 0.95639 0.0
C3149 C 0.74402 0.59078 0.95151 0.0
C3150 C 0.75151 0.58128 0.9447 0.0
H3151 H 0.78696 0.5834 0.90885 0.0
H3152 H 0.77321 0.59029 0.91794 0.0
H3153 H 0.78995 0.59329 0.92324 0.0
H3154 H 0.78146 0.59668 0.94559 0.0
H3155 H 0.76847 0.61329 0.95711 0.0
H3156 H 0.61382 0.76612 0.12124 0.0
H3157 H 0.59643 0.77846 0.13247 0.0
H3158 H 0.56773 0.74974 0.11954 0.0
H3159 H 0.58528 0.7373 0.10825 0.0
H3160 H 0.56367 0.7748 0.10965 0.0
H3161 H 0.57097 0.7777 0.16382 0.0
H3162 H 0.58593 0.78053 0.15469 0.0
H3163 H 0.578 0.76464 0.15383 0.0
C3164 C 0.60392 0.76206 0.12143 0.0
C3165 C 0.60086 0.75073 0.11403 0.0
C3166 C 0.59397 0.76912 0.12786 0.0
C3167 C 0.58078 0.765 0.1269 0.0
C3168 C 0.57788 0.753 0.12051 0.0
H3169 H 0.51112 0.81093 0.14549 0.0
H3170 H 0.5292 0.79495 0.14698 0.0
C3171 C 0.5879 0.74583 0.11417 0.0
C3172 C 0.57012 0.77459 0.12996 0.0
H3173 H 0.55839 0.79541 0.15387 0.0
C3174 C 0.56238 0.77915 0.11937 0.0
C3175 C 0.56852 0.78033 0.14262 0.0
C3176 C 0.57621 0.77546 0.15442 0.0
C3177 C 0.5534 0.78956 0.12099 0.0
C3178 C 0.55224 0.79571 0.1335 0.0
C3179 C 0.55957 0.79086 0.14423 0.0
C3180 C 0.54285 0.80673 0.13552 0.0
C3181 C 0.54522 0.79396 0.10929 0.0
C3182 C 0.54486 0.81896 0.12922 0.0
C3183 C 0.53456 0.82818 0.12842 0.0
C3184 C 0.52215 0.82516 0.13384 0.0
C3185 C 0.52061 0.81346 0.14121 0.0
C3186 C 0.53091 0.80433 0.14208 0.0
H3187 H 0.54554 0.78668 0.10107 0.0
H3188 H 0.53476 0.7955 0.11224 0.0
H3189 H 0.54909 0.80352 0.10552 0.0
H3190 H 0.55407 0.82097 0.12413 0.0
H3191 H 0.53596 0.83707 0.1226 0.0
H3192 H 0.27617 0.49565 0.12862 0.0
H3193 H 0.29517 0.51049 0.13043 0.0
H3194 H 0.26954 0.5416 0.14443 0.0
H3195 H 0.25061 0.52684 0.14284 0.0
H3196 H 0.2972 0.5325 0.11586 0.0
H3197 H 0.30101 0.54653 0.16839 0.0
H3198 H 0.29184 0.53219 0.16298 0.0
H3199 H 0.28436 0.54838 0.16262 0.0
C3200 C 0.27462 0.50557 0.13232 0.0
C3201 C 0.26186 0.51012 0.13546 0.0
C3202 C 0.28551 0.51401 0.13341 0.0
C3203 C 0.28383 0.52709 0.13776 0.0
C3204 C 0.27116 0.53145 0.14141 0.0
H3205 H 0.30427 0.60299 0.12402 0.0
H3206 H 0.29849 0.58207 0.13448 0.0
C3207 C 0.2603 0.52303 0.14034 0.0
C3208 C 0.29472 0.5368 0.13656 0.0
H3209 H 0.30882 0.56301 0.15243 0.0
C3210 C 0.3001 0.53892 0.12394 0.0
C3211 C 0.29849 0.54514 0.14712 0.0
C3212 C 0.29371 0.54284 0.16106 0.0
C3213 C 0.30813 0.54989 0.1213 0.0
C3214 C 0.31109 0.55883 0.13166 0.0
C3215 C 0.30656 0.55613 0.14452 0.0
C3216 C 0.31653 0.57209 0.12872 0.0
C3217 C 0.31236 0.55247 0.1072 0.0
C3218 C 0.32897 0.57367 0.12276 0.0
C3219 C 0.33229 0.58568 0.11669 0.0
C3220 C 0.32316 0.59617 0.11657 0.0
C3221 C 0.3114 0.59499 0.12384 0.0
C3222 C 0.30811 0.58305 0.12987 0.0
H3223 H 0.30777 0.54546 0.10011 0.0
H3224 H 0.30967 0.5627 0.10421 0.0
H3225 H 0.32324 0.55146 0.10639 0.0
H3226 H 0.33568 0.56536 0.12194 0.0
H3227 H 0.34143 0.58634 0.11116 0.0
H3228 H 0.78894 0.56569 0.13616 0.0
H3229 H 0.77071 0.54988 0.1365 0.0
H3230 H 0.79826 0.51811 0.14363 0.0
H3231 H 0.81663 0.53384 0.14309 0.0
H3232 H 0.77003 0.5288 0.11794 0.0
H3233 H 0.76719 0.5105 0.16956 0.0
H3234 H 0.77477 0.5261 0.16518 0.0
H3235 H 0.78365 0.51087 0.16285 0.0
C3236 C 0.79114 0.55535 0.1379 0.0
C3237 C 0.80425 0.55096 0.13935 0.0
C3238 C 0.78069 0.54637 0.13821 0.0
C3239 C 0.78314 0.53288 0.1402 0.0
C3240 C 0.79615 0.52853 0.14232 0.0
H3241 H 0.75675 0.45789 0.12344 0.0
H3242 H 0.76517 0.47787 0.13393 0.0
C3243 C 0.80664 0.53751 0.14193 0.0
C3244 C 0.77244 0.52314 0.13831 0.0
H3245 H 0.75722 0.4968 0.15289 0.0
C3246 C 0.76695 0.52198 0.12565 0.0
C3247 C 0.76851 0.51432 0.14841 0.0
C3248 C 0.77374 0.51555 0.16231 0.0
C3249 C 0.75835 0.5116 0.12251 0.0
C3250 C 0.75489 0.50235 0.13245 0.0
C3251 C 0.7598 0.50397 0.14533 0.0
C3252 C 0.74813 0.48984 0.12902 0.0
C3253 C 0.7539 0.51003 0.10835 0.0
C3254 C 0.73541 0.48976 0.12345 0.0
C3255 C 0.73055 0.47828 0.11743 0.0
C3256 C 0.7384 0.46682 0.11694 0.0
C3257 C 0.75055 0.46663 0.12364 0.0
C3258 C 0.75535 0.47803 0.12965 0.0
H3259 H 0.75902 0.51698 0.10154 0.0
H3260 H 0.75578 0.49977 0.1049 0.0
H3261 H 0.74313 0.51195 0.10769 0.0
H3262 H 0.72962 0.49877 0.12303 0.0
H3263 H 0.72118 0.4787 0.11227 0.0
H3264 H 0.96625 0.60767 0.83317 0.0
H3265 H 0.9823 0.62517 0.82817 0.0
H3266 H 0.96799 0.62672 0.78798 0.0
H3267 H 0.95185 0.60983 0.79307 0.0
H3268 H 0.0007 0.61852 0.81225 0.0
H3269 H 0.97977 0.66364 0.79073 0.0
H3270 H 0.96982 0.65244 0.80048 0.0
H3271 H 0.97189 0.64989 0.7829 0.0
C3272 C 0.96608 0.61233 0.82351 0.0
C3273 C 0.95797 0.60731 0.81344 0.0
C3274 C 0.97529 0.62229 0.82063 0.0
C3275 C 0.97644 0.62732 0.80767 0.0
C3276 C 0.96723 0.62333 0.79811 0.0
H3277 H 0.03292 0.6299 0.74977 0.0
H3278 H 0.01289 0.63411 0.76278 0.0
C3279 C 0.95805 0.61349 0.80099 0.0
C3280 C 0.98887 0.63373 0.80314 0.0
H3281 H 0.00047 0.65545 0.77992 0.0
C3282 C 0.00072 0.62692 0.80557 0.0
C3283 C 0.98897 0.64466 0.79434 0.0
C3284 C 0.9769 0.65312 0.79211 0.0
C3285 C 0.01227 0.62985 0.79855 0.0
C3286 C 0.01206 0.64004 0.78893 0.0
C3287 C 0.00054 0.64756 0.78718 0.0
C3288 C 0.02335 0.64179 0.77978 0.0
C3289 C 0.02434 0.6213 0.80073 0.0
C3290 C 0.03572 0.64552 0.78473 0.0
C3291 C 0.04713 0.64291 0.77742 0.0
C3292 C 0.04629 0.63681 0.76496 0.0
C3293 C 0.03381 0.63466 0.75932 0.0
C3294 C 0.02237 0.63707 0.76675 0.0
H3295 H 0.02222 0.61261 0.80713 0.0
H3296 H 0.02829 0.61767 0.79114 0.0
H3297 H 0.03217 0.62724 0.80558 0.0
H3298 H 0.03665 0.64929 0.79471 0.0
H3299 H 0.05667 0.64475 0.78192 0.0
H3300 H 0.43881 0.06519 0.79251 0.0
H3301 H 0.43395 0.04355 0.80182 0.0
H3302 H 0.41842 0.03071 0.76427 0.0
H3303 H 0.42361 0.05233 0.75466 0.0
H3304 H 0.41258 0.02578 0.8044 0.0
H3305 H 0.45125 0.00771 0.76944 0.0
H3306 H 0.44818 0.02508 0.77197 0.0
H3307 H 0.43698 0.01538 0.76219 0.0
C3308 C 0.43413 0.05789 0.78624 0.0
C3309 C 0.43193 0.0604 0.77272 0.0
C3310 C 0.43127 0.04553 0.79164 0.0
C3311 C 0.4261 0.03545 0.78367 0.0
C3312 C 0.42265 0.0383 0.77052 0.0
H3313 H 0.44656 0.9547 0.80208 0.0
H3314 H 0.43211 0.97179 0.79298 0.0
C3315 C 0.4256 0.05068 0.76505 0.0
C3316 C 0.42635 0.02169 0.78866 0.0
H3317 H 0.44416 0.99323 0.78575 0.0
C3318 C 0.41926 0.01852 0.80019 0.0
C3319 C 0.43512 0.01226 0.78316 0.0
C3320 C 0.44341 0.01523 0.77107 0.0
C3321 C 0.42112 0.00635 0.80667 0.0
C3322 C 0.43046 0.99725 0.80158 0.0
C3323 C 0.43693 1.00015 0.78963 0.0
C3324 C 0.43514 0.98553 0.8091 0.0
C3325 C 0.4133 0.0035 0.81904 0.0
C3326 C 0.44097 0.98721 0.8216 0.0
C3327 C 0.44904 0.97732 0.82695 0.0
C3328 C 0.45161 0.96576 0.81971 0.0
C3329 C 0.44476 0.96356 0.80783 0.0
C3330 C 0.4365 0.97332 0.80263 0.0
H3331 H 0.40348 0.00843 0.81869 0.0
H3332 H 0.41182 0.99271 0.8205 0.0
H3333 H 0.41868 0.00749 0.82771 0.0
H3334 H 0.44035 0.99662 0.82667 0.0
H3335 H 0.45432 0.97932 0.83605 0.0
H3336 H 0.09788 0.45084 0.82374 0.0
H3337 H 0.08404 0.43358 0.81365 0.0
H3338 H 0.08284 0.45602 0.77734 0.0
H3339 H 0.09682 0.4727 0.78693 0.0
H3340 H 0.05991 0.43479 0.80532 0.0
H3341 H 0.08902 0.42074 0.76203 0.0
H3342 H 0.09629 0.42981 0.77558 0.0
H3343 H 0.08841 0.43842 0.76202 0.0
C3344 C 0.09489 0.45189 0.81351 0.0
C3345 C 0.09855 0.46314 0.80615 0.0
C3346 C 0.08699 0.44204 0.80776 0.0
C3347 C 0.08273 0.44327 0.79458 0.0
C3348 C 0.08644 0.45448 0.78731 0.0
H3349 H 0.01269 0.44447 0.7607 0.0
H3350 H 0.03108 0.44208 0.77547 0.0
C3351 C 0.09434 0.46417 0.79293 0.0
C3352 C 0.07315 0.43392 0.7886 0.0
H3353 H 0.06466 0.42288 0.75797 0.0
C3354 C 0.06111 0.43171 0.79511 0.0
C3355 C 0.07476 0.42927 0.77549 0.0
C3356 C 0.08792 0.42956 0.7685 0.0
C3357 C 0.05015 0.42675 0.78825 0.0
C3358 C 0.05115 0.4246 0.77442 0.0
C3359 C 0.06366 0.42495 0.76845 0.0
C3360 C 0.03934 0.42484 0.76571 0.0
C3361 C 0.03745 0.42462 0.79579 0.0
C3362 C 0.03813 0.41649 0.7546 0.0
C3363 C 0.0277 0.41824 0.7456 0.0
C3364 C 0.01831 0.42822 0.74779 0.0
C3365 C 0.01959 0.43646 0.75889 0.0
C3366 C 0.03004 0.43495 0.76756 0.0
H3367 H 0.03955 0.42013 0.8056 0.0
H3368 H 0.03263 0.43431 0.79767 0.0
H3369 H 0.03048 0.41811 0.79036 0.0
H3370 H 0.04535 0.40879 0.75278 0.0
H3371 H 0.02693 0.41183 0.73707 0.0
H3372 H 0.63268 0.02045 0.74686 0.0
H3373 H 0.63666 0.0424 0.75621 0.0
H3374 H 0.63733 0.02559 0.79543 0.0
H3375 H 0.63354 0.0037 0.7862 0.0
H3376 H 0.61685 0.0512 0.77212 0.0
H3377 H 0.66409 0.05528 0.79922 0.0
H3378 H 0.66133 0.04302 0.7865 0.0
H3379 H 0.65541 0.0403 0.80308 0.0
C3380 C 0.63425 0.02135 0.75742 0.0
C3381 C 0.63256 0.01039 0.76582 0.0
C3382 C 0.63653 0.0339 0.76275 0.0
C3383 C 0.63732 0.03564 0.77652 0.0
C3384 C 0.63699 0.02449 0.78478 0.0
H3385 H 0.60687 0.08924 0.83264 0.0
H3386 H 0.62049 0.07225 0.82194 0.0
C3387 C 0.63467 0.01198 0.77948 0.0
C3388 C 0.63534 0.04891 0.78239 0.0
H3389 H 0.64641 0.06983 0.80651 0.0
C3390 C 0.62349 0.05545 0.77939 0.0
C3391 C 0.64389 0.05429 0.79205 0.0
C3392 C 0.65695 0.04791 0.79532 0.0
C3393 C 0.61962 0.06684 0.7862 0.0
C3394 C 0.62799 0.07206 0.79611 0.0
C3395 C 0.64006 0.0658 0.79888 0.0
C3396 C 0.6237 0.08356 0.80405 0.0
C3397 C 0.60625 0.07281 0.78321 0.0
C3398 C 0.62173 0.09581 0.79784 0.0
C3399 C 0.61384 0.10541 0.80383 0.0
C3400 C 0.60799 0.10298 0.81621 0.0
C3401 C 0.61131 0.09138 0.82312 0.0
C3402 C 0.61908 0.08167 0.81702 0.0
H3403 H 0.60002 0.06616 0.7771 0.0
H3404 H 0.60085 0.07509 0.7925 0.0
H3405 H 0.60761 0.0822 0.77768 0.0
H3406 H 0.6253 0.09746 0.78787 0.0
H3407 H 0.61149 0.11431 0.79834 0.0
H3408 H 0.06066 0.44389 0.28969 0.0
H3409 H 0.03927 0.44384 0.27903 0.0
H3410 H 0.02876 0.40819 0.30016 0.0
H3411 H 0.05004 0.40898 0.31189 0.0
H3412 H 0.02802 0.42838 0.26294 0.0
H3413 H 0.99707 0.42885 0.30852 0.0
H3414 H 0.01474 0.43062 0.3092 0.0
H3415 H 0.00744 0.41462 0.30641 0.0
C3416 C 0.05379 0.43607 0.29217 0.0
C3417 C 0.05695 0.42651 0.30171 0.0
C3418 C 0.04154 0.43599 0.28598 0.0
C3419 C 0.03223 0.42609 0.28883 0.0
C3420 C 0.03555 0.41617 0.29804 0.0
H3421 H 0.96444 0.4481 0.23775 0.0
H3422 H 0.98072 0.4323 0.24653 0.0
C3423 C 0.04774 0.41655 0.30466 0.0
C3424 C 0.0191 0.42675 0.28221 0.0
H3425 H 0.9864 0.43217 0.28843 0.0
C3426 C 0.01888 0.42911 0.2685 0.0
C3427 C 0.00711 0.42741 0.28941 0.0
C3428 C 0.00654 0.42534 0.3042 0.0
C3429 C 0.00747 0.43374 0.26211 0.0
C3430 C 0.99565 0.43521 0.2695 0.0
C3431 C 0.99549 0.4312 0.28283 0.0
C3432 C 0.98435 0.44326 0.26458 0.0
C3433 C 0.00861 0.43818 0.24789 0.0
C3434 C 0.98034 0.45421 0.27211 0.0
C3435 C 0.9708 0.46289 0.26736 0.0
C3436 C 0.96514 0.46105 0.25481 0.0
C3437 C 0.96875 0.44985 0.2474 0.0
C3438 C 0.97813 0.44088 0.25236 0.0
H3439 H 0.01904 0.4386 0.24448 0.0
H3440 H 0.00329 0.4311 0.24144 0.0
H3441 H 0.00416 0.44813 0.24653 0.0
H3442 H 0.98496 0.45638 0.28152 0.0
H3443 H 0.96834 0.47142 0.27336 0.0
H3444 H 0.61959 0.05535 0.26997 0.0
H3445 H 0.62402 0.03396 0.26007 0.0
H3446 H 0.64423 0.02148 0.2955 0.0
H3447 H 0.63933 0.04287 0.30582 0.0
H3448 H 0.64484 0.01809 0.25412 0.0
H3449 H 0.614 0.99571 0.29398 0.0
H3450 H 0.61546 0.01334 0.29195 0.0
H3451 H 0.62868 0.00404 0.29938 0.0
C3452 C 0.62512 0.04817 0.27568 0.0
C3453 C 0.62882 0.05075 0.28885 0.0
C3454 C 0.62773 0.03593 0.26992 0.0
C3455 C 0.63419 0.026 0.27713 0.0
C3456 C 0.63893 0.0289 0.28987 0.0
H3457 H 0.6179 0.94447 0.25977 0.0
H3458 H 0.63314 0.9622 0.26573 0.0
C3459 C 0.63617 0.04114 0.29574 0.0
C3460 C 0.63433 0.01235 0.27177 0.0
H3461 H 0.6199 0.98226 0.27639 0.0
C3462 C 0.63962 0.01014 0.25909 0.0
C3463 C 0.62746 0.002 0.27823 0.0
C3464 C 0.62098 0.00385 0.29158 0.0
C3465 C 0.63768 0.99808 0.25246 0.0
C3466 C 0.63024 0.98802 0.25867 0.0
C3467 C 0.6257 0.98994 0.27166 0.0
C3468 C 0.62529 0.97618 0.25155 0.0
C3469 C 0.64326 0.99637 0.23874 0.0
C3470 C 0.61654 0.9778 0.24087 0.0
C3471 C 0.60798 0.96754 0.23727 0.0
C3472 C 0.60796 0.95568 0.24449 0.0
C3473 C 0.61781 0.95352 0.25402 0.0
C3474 C 0.62648 0.96367 0.25747 0.0
H3475 H 0.65231 0.00243 0.23737 0.0
H3476 H 0.64566 0.98585 0.23667 0.0
H3477 H 0.63585 0.99976 0.23139 0.0
H3478 H 0.61524 0.98741 0.2363 0.0
H3479 H 0.60033 0.96951 0.23004 0.0
H3480 H 0.11753 0.62381 0.25835 0.0
H3481 H 0.10025 0.63654 0.26945 0.0
H3482 H 0.07198 0.62333 0.24049 0.0
H3483 H 0.08928 0.61093 0.22914 0.0
H3484 H 0.0651 0.64831 0.25414 0.0
H3485 H 0.07862 0.60639 0.28742 0.0
H3486 H 0.09146 0.6181 0.28379 0.0
H3487 H 0.08503 0.60777 0.27085 0.0
C3488 C 0.10782 0.62433 0.25387 0.0
C3489 C 0.10465 0.61618 0.24307 0.0
C3490 C 0.09793 0.63154 0.26027 0.0
C3491 C 0.08479 0.63047 0.25604 0.0
C3492 C 0.08206 0.62418 0.24397 0.0
H3493 H 0.00738 0.61954 0.27966 0.0
H3494 H 0.02759 0.6271 0.26916 0.0
C3495 C 0.092 0.61713 0.23743 0.0
C3496 C 0.07385 0.63259 0.26554 0.0
H3497 H 0.05943 0.61796 0.29234 0.0
C3498 C 0.06396 0.64188 0.26266 0.0
C3499 C 0.07235 0.6241 0.27661 0.0
C3500 C 0.08234 0.61345 0.27986 0.0
C3501 C 0.05238 0.6426 0.27033 0.0
C3502 C 0.05062 0.63364 0.28096 0.0
C3503 C 0.06084 0.62489 0.28426 0.0
C3504 C 0.03766 0.6316 0.28748 0.0
C3505 C 0.042 0.65269 0.26677 0.0
C3506 C 0.03655 0.63155 0.30135 0.0
C3507 C 0.02496 0.62706 0.30746 0.0
C3508 C 0.01438 0.62237 0.29978 0.0
C3509 C 0.01536 0.62298 0.2859 0.0
C3510 C 0.02687 0.62751 0.27984 0.0
H3511 H 0.04653 0.66157 0.26216 0.0
H3512 H 0.03509 0.64831 0.25947 0.0
H3513 H 0.03623 0.6558 0.27559 0.0
H3514 H 0.04484 0.6345 0.30743 0.0
H3515 H 0.02452 0.62671 0.31816 0.0
H3516 H 0.4237 0.02144 0.31852 0.0
H3517 H 0.41982 0.04256 0.30738 0.0
H3518 H 0.42798 0.02428 0.26972 0.0
H3519 H 0.43162 0.00317 0.28066 0.0
H3520 H 0.44062 0.05336 0.29485 0.0
H3521 H 0.39932 0.05017 0.25939 0.0
H3522 H 0.40125 0.03867 0.27295 0.0
H3523 H 0.41033 0.03635 0.25779 0.0
C3524 C 0.4242 0.02179 0.30782 0.0
C3525 C 0.42819 0.01065 0.3005 0.0
C3526 C 0.42195 0.03388 0.30147 0.0
C3527 C 0.42353 0.035 0.2877 0.0
C3528 C 0.42643 0.02363 0.2803 0.0
H3529 H 0.45621 0.08499 0.23119 0.0
H3530 H 0.4418 0.0691 0.24238 0.0
C3531 C 0.42867 0.01157 0.28662 0.0
C3532 C 0.42495 0.04819 0.28145 0.0
H3533 H 0.41661 0.06608 0.25401 0.0
C3534 C 0.43511 0.05634 0.28614 0.0
C3535 C 0.41788 0.05196 0.26999 0.0
C3536 C 0.4065 0.04387 0.26482 0.0
C3537 C 0.43904 0.06767 0.2792 0.0
C3538 C 0.43232 0.07119 0.26742 0.0
C3539 C 0.4217 0.0634 0.26306 0.0
C3540 C 0.43733 0.08201 0.25887 0.0
C3541 C 0.451 0.07516 0.28408 0.0
C3542 C 0.43876 0.09485 0.26393 0.0
C3543 C 0.4472 0.10382 0.25769 0.0
C3544 C 0.45397 0.1002 0.2461 0.0
C3545 C 0.45106 0.08804 0.24009 0.0
C3546 C 0.44285 0.07894 0.2465 0.0
H3547 H 0.4566 0.06953 0.29168 0.0
H3548 H 0.45782 0.07748 0.27579 0.0
H3549 H 0.44777 0.08461 0.28863 0.0
H3550 H 0.43431 0.09751 0.27331 0.0
H3551 H 0.44921 0.1132 0.26246 0.0
H3552 H 0.78697 0.06383 0.61487 0.0
H3553 H 0.80034 0.04413 0.61831 0.0
H3554 H 0.77033 0.02802 0.64397 0.0
H3555 H 0.75655 0.0476 0.64019 0.0
H3556 H 0.81132 0.03047 0.63896 0.0
H3557 H 0.77179 0.00099 0.61466 0.0
H3558 H 0.77148 0.01879 0.61505 0.0
H3559 H 0.76675 0.00943 0.62943 0.0
C3560 C 0.78321 0.0562 0.62139 0.0
C3561 C 0.77053 0.05721 0.62705 0.0
C3562 C 0.79095 0.04495 0.6234 0.0
C3563 C 0.78623 0.03448 0.63118 0.0
C3564 C 0.77402 0.03586 0.63768 0.0
H3565 H 0.81079 0.95382 0.62203 0.0
H3566 H 0.80497 0.97296 0.63554 0.0
C3567 C 0.76618 0.04707 0.63554 0.0
C3568 C 0.79351 0.02172 0.63123 0.0
H3569 H 0.7911 0.98989 0.62044 0.0
C3570 C 0.80686 0.02152 0.6351 0.0
C3571 C 0.78773 0.01008 0.62606 0.0
C3572 C 0.7737 0.00979 0.62095 0.0
C3573 C 0.81464 0.01006 0.63368 0.0
C3574 C 0.80891 0.99856 0.62821 0.0
C3575 C 0.79545 0.99865 0.62483 0.0
C3576 C 0.81674 0.98678 0.62421 0.0
C3577 C 0.82894 0.01043 0.6378 0.0
C3578 C 0.82624 0.98798 0.61413 0.0
C3579 C 0.82982 0.97693 0.60658 0.0
C3580 C 0.82374 0.96467 0.60891 0.0
C3581 C 0.81572 0.96315 0.62015 0.0
C3582 C 0.8123 0.97412 0.6278 0.0
H3583 H 0.8306 0.0179 0.64567 0.0
H3584 H 0.83232 0.00062 0.64141 0.0
H3585 H 0.83509 0.01323 0.62915 0.0
H3586 H 0.82966 0.99764 0.61101 0.0
H3587 H 0.83582 0.97841 0.59782 0.0
H3588 H 0.02179 0.75015 0.63695 0.0
H3589 H 0.04402 0.75881 0.64068 0.0
H3590 H 0.02949 0.79857 0.63524 0.0
H3591 H 0.00732 0.79008 0.63178 0.0
H3592 H 0.05509 0.77111 0.61993 0.0
H3593 H 0.05768 0.80478 0.66275 0.0
H3594 H 0.04471 0.79264 0.66091 0.0
H3595 H 0.04359 0.80838 0.65262 0.0
C3596 C 0.02322 0.76076 0.63707 0.0
C3597 C 0.01282 0.76941 0.63382 0.0
C3598 C 0.03595 0.7657 0.63922 0.0
C3599 C 0.03844 0.77935 0.63829 0.0
C3600 C 0.02782 0.78804 0.63628 0.0
H3601 H 0.0919 0.83223 0.60513 0.0
H3602 H 0.07578 0.82186 0.6199 0.0
C3603 C 0.01513 0.78313 0.63413 0.0
C3604 C 0.05212 0.78425 0.6364 0.0
H3605 H 0.07302 0.80944 0.64467 0.0
C3606 C 0.05921 0.77923 0.62559 0.0
C3607 C 0.05738 0.79497 0.64367 0.0
C3608 C 0.05048 0.80041 0.65572 0.0
C3609 C 0.0709 0.78521 0.62122 0.0
C3610 C 0.07592 0.7963 0.62815 0.0
C3611 C 0.0692 0.80092 0.63941 0.0
C3612 C 0.08721 0.80398 0.62281 0.0
C3613 C 0.07718 0.78016 0.60862 0.0
C3614 C 0.09938 0.79778 0.62034 0.0
C3615 C 0.10846 0.80357 0.61169 0.0
C3616 C 0.10567 0.81583 0.60574 0.0
C3617 C 0.09431 0.82281 0.60963 0.0
C3618 C 0.08508 0.81687 0.61806 0.0
H3619 H 0.07052 0.77341 0.60308 0.0
H3620 H 0.07991 0.78849 0.602 0.0
H3621 H 0.08629 0.77458 0.61108 0.0
H3622 H 0.10135 0.78797 0.62418 0.0
H3623 H 0.1172 0.79804 0.60891 0.0
H3624 H 0.31649 0.0262 0.63839 0.0
H3625 H 0.30487 0.04731 0.64043 0.0
H3626 H 0.26774 0.02763 0.63349 0.0
H3627 H 0.27918 0.00653 0.63162 0.0
H3628 H 0.29184 0.05611 0.61849 0.0
H3629 H 0.25711 0.05528 0.66076 0.0
H3630 H 0.27103 0.04412 0.65952 0.0
H3631 H 0.25599 0.04074 0.65066 0.0
C3632 C 0.30581 0.02627 0.63776 0.0
C3633 C 0.2988 0.01468 0.63465 0.0
C3634 C 0.29918 0.03836 0.63894 0.0
C3635 C 0.28543 0.03905 0.63719 0.0
C3636 C 0.27831 0.02733 0.63515 0.0
H3637 H 0.2283 0.09012 0.6045 0.0
H3638 H 0.2395 0.07379 0.61844 0.0
C3639 C 0.28492 0.01526 0.63394 0.0
C3640 C 0.27892 0.05198 0.63488 0.0
H3641 H 0.252 0.07067 0.64315 0.0
C3642 C 0.28332 0.05948 0.62408 0.0
C3643 C 0.26767 0.0562 0.64205 0.0
C3644 C 0.26274 0.04871 0.65397 0.0
C3645 C 0.27643 0.0707 0.61979 0.0
C3646 C 0.265 0.07482 0.62678 0.0
C3647 C 0.26081 0.06757 0.63787 0.0
C3648 C 0.25678 0.08592 0.62184 0.0
C3649 C 0.28102 0.07751 0.60729 0.0
C3650 C 0.26235 0.09848 0.61995 0.0
C3651 C 0.25609 0.10771 0.6118 0.0
C3652 C 0.24397 0.10465 0.60577 0.0
C3653 C 0.2376 0.09276 0.60909 0.0
C3654 C 0.24401 0.0834 0.61702 0.0
H3655 H 0.28804 0.07131 0.60154 0.0
H3656 H 0.27252 0.08 0.60081 0.0
H3657 H 0.28615 0.08684 0.60992 0.0
H3658 H 0.27205 0.10073 0.62386 0.0
H3659 H 0.26116 0.11685 0.60945 0.0
H3660 H 0.96907 0.23515 0.61301 0.0
H3661 H 0.98498 0.24196 0.62991 0.0
H3662 H 0.97595 0.2829 0.62186 0.0
H3663 H 0.95996 0.27623 0.60531 0.0
H3664 H 0.0059 0.25523 0.6215 0.0
H3665 H 0.98289 0.28496 0.66084 0.0
H3666 H 0.97343 0.27391 0.65048 0.0
H3667 H 0.97717 0.29048 0.64501 0.0
C3668 C 0.97012 0.24558 0.6152 0.0
C3669 C 0.96343 0.25516 0.60765 0.0
C3670 C 0.9792 0.24946 0.62489 0.0
C3671 C 0.98162 0.26294 0.62724 0.0
C3672 C 0.97408 0.27244 0.62049 0.0
H3673 H 0.04086 0.3175 0.63214 0.0
H3674 H 0.02013 0.30562 0.63578 0.0
C3675 C 0.96505 0.26859 0.61085 0.0
C3676 C 0.99376 0.26722 0.63422 0.0
H3677 H 0.00554 0.29142 0.65458 0.0
C3678 C 0.00586 0.26282 0.62907 0.0
C3679 C 0.99369 0.2772 0.64402 0.0
C3680 C 0.98106 0.28179 0.65048 0.0
C3681 C 0.01777 0.26897 0.63247 0.0
C3682 C 0.01762 0.27958 0.64163 0.0
C3683 C 0.00564 0.28332 0.64756 0.0
C3684 C 0.02947 0.28796 0.64354 0.0
C3685 C 0.0302 0.26479 0.62527 0.0
C3686 C 0.04149 0.28235 0.64761 0.0
C3687 C 0.05334 0.28899 0.64521 0.0
C3688 C 0.05327 0.30151 0.63917 0.0
C3689 C 0.04116 0.30786 0.63683 0.0
C3690 C 0.02931 0.30107 0.63891 0.0
H3691 H 0.02808 0.25816 0.61678 0.0
H3692 H 0.03564 0.27354 0.6215 0.0
H3693 H 0.03675 0.25935 0.63219 0.0
H3694 H 0.04179 0.27238 0.65153 0.0
H3695 H 0.06259 0.28397 0.64722 0.0
H3696 H 0.75404 0.01955 0.4318 0.0
H3697 H 0.76749 0.03961 0.43049 0.0
H3698 H 0.80131 0.01791 0.44473 0.0
H3699 H 0.7881 0.99783 0.44586 0.0
H3700 H 0.77833 0.04998 0.45312 0.0
H3701 H 0.81785 0.04102 0.41617 0.0
H3702 H 0.80291 0.03125 0.41684 0.0
H3703 H 0.81624 0.02799 0.42814 0.0
C3704 C 0.76444 0.01894 0.43426 0.0
C3705 C 0.76995 0.00709 0.43904 0.0
C3706 C 0.7721 0.03043 0.43353 0.0
C3707 C 0.78543 0.03024 0.43742 0.0
C3708 C 0.79114 0.01825 0.44142 0.0
H3709 H 0.83556 0.08983 0.4712 0.0
H3710 H 0.8275 0.069 0.46186 0.0
C3711 C 0.78351 0.00678 0.44217 0.0
C3712 C 0.79276 0.04279 0.4392 0.0
H3713 H 0.82132 0.05903 0.43125 0.0
C3714 C 0.78763 0.05203 0.44819 0.0
C3715 C 0.805 0.04535 0.4329 0.0
C3716 C 0.81078 0.03593 0.42288 0.0
C3717 C 0.79451 0.06364 0.45125 0.0
C3718 C 0.80677 0.06615 0.44504 0.0
C3719 C 0.81191 0.05701 0.43597 0.0
C3720 C 0.81414 0.07836 0.44804 0.0
C3721 C 0.78875 0.07308 0.46129 0.0
C3722 C 0.80972 0.09044 0.44288 0.0
C3723 C 0.81425 0.10233 0.4482 0.0
C3724 C 0.82329 0.1023 0.45875 0.0
C3725 C 0.82869 0.09019 0.463 0.0
C3726 C 0.82407 0.07827 0.4577 0.0
H3727 H 0.77997 0.0689 0.46639 0.0
H3728 H 0.79628 0.07567 0.46883 0.0
H3729 H 0.78575 0.08237 0.45625 0.0
H3730 H 0.80202 0.09066 0.43543 0.0
H3731 H 0.80993 0.11151 0.44474 0.0
H3732 H 0.96018 0.79052 0.45616 0.0
H3733 H 0.97874 0.78322 0.44268 0.0
H3734 H 0.9895 0.82382 0.43526 0.0
H3735 H 0.97102 0.83128 0.44906 0.0
H3736 H 0.98983 0.78736 0.41714 0.0
H3737 H 0.02004 0.80915 0.45772 0.0
H3738 H 0.00237 0.80736 0.45902 0.0
H3739 H 0.00931 0.8203 0.449 0.0
C3740 C 0.96628 0.79794 0.45142 0.0
C3741 C 0.96431 0.81149 0.45396 0.0
C3742 C 0.97686 0.79373 0.44364 0.0
C3743 C 0.98566 0.80297 0.43823 0.0
C3744 C 0.98293 0.81653 0.43956 0.0
H3745 H 0.06771 0.78171 0.42609 0.0
H3746 H 0.04738 0.79412 0.42213 0.0
C3747 C 0.97232 0.82078 0.44739 0.0
C3748 C 0.99858 0.79827 0.43318 0.0
H3749 H 0.03096 0.79623 0.44219 0.0
C3750 C 0.9989 0.78948 0.42242 0.0
C3751 C 0.01038 0.80098 0.44017 0.0
C3752 C 0.01059 0.80987 0.45218 0.0
C3753 C 0.01066 0.78303 0.41873 0.0
C3754 C 0.02229 0.78529 0.42612 0.0
C3755 C 0.02207 0.79456 0.43645 0.0
C3756 C 0.03446 0.77724 0.42453 0.0
C3757 C 0.01043 0.7737 0.40711 0.0
C3758 C 0.03403 0.76348 0.42652 0.0
C3759 C 0.04567 0.75632 0.42863 0.0
C3760 C 0.05791 0.76288 0.42905 0.0
C3761 C 0.05841 0.77642 0.42593 0.0
C3762 C 0.0468 0.78352 0.42364 0.0
H3763 H 0.00276 0.77665 0.39983 0.0
H3764 H 0.02017 0.77332 0.40204 0.0
H3765 H 0.00796 0.76361 0.41066 0.0
H3766 H 0.02465 0.75844 0.42755 0.0
H3767 H 0.04496 0.74592 0.4311 0.0
H3768 H 0.22999 0.96969 0.45866 0.0
H3769 H 0.23237 0.98887 0.44402 0.0
H3770 H 0.27277 0.97771 0.4361 0.0
H3771 H 0.27035 0.95854 0.45034 0.0
H3772 H 0.24901 0.00682 0.45254 0.0
H3773 H 0.26407 0.99486 0.40169 0.0
H3774 H 0.256 0.9829 0.41225 0.0
H3775 H 0.27367 0.9852 0.41302 0.0
C3776 C 0.23914 0.97097 0.45324 0.0
C3777 C 0.25006 0.96276 0.45578 0.0
C3778 C 0.24051 0.98196 0.4449 0.0
C3779 C 0.25276 0.98478 0.43893 0.0
C3780 C 0.26315 0.97569 0.44033 0.0
H3781 H 0.30732 0.04505 0.43319 0.0
H3782 H 0.29421 0.02507 0.42943 0.0
C3783 C 0.26179 0.96477 0.44863 0.0
C3784 C 0.25583 0.99834 0.43422 0.0
H3785 H 0.27419 0.01497 0.41122 0.0
C3786 C 0.25411 0.00871 0.44328 0.0
C3787 C 0.2626 0.0008 0.42221 0.0
C3788 C 0.26406 0.99033 0.41171 0.0
C3789 C 0.25994 0.0211 0.44124 0.0
C3790 C 0.26748 0.02329 0.42964 0.0
C3791 C 0.26847 0.01324 0.42013 0.0
C3792 C 0.27552 0.03542 0.42816 0.0
C3793 C 0.25884 0.03138 0.45204 0.0
C3794 C 0.26944 0.04788 0.42789 0.0
C3795 C 0.27687 0.05927 0.43022 0.0
C3796 C 0.29053 0.05838 0.43263 0.0
C3797 C 0.29681 0.04604 0.43138 0.0
C3798 C 0.28933 0.03462 0.42923 0.0
H3799 H 0.2546 0.02726 0.46131 0.0
H3800 H 0.26868 0.03564 0.45433 0.0
H3801 H 0.25231 0.03953 0.44866 0.0
H3802 H 0.25882 0.04871 0.42685 0.0
H3803 H 0.27179 0.06868 0.43093 0.0
H3804 H 0.10017 0.23335 0.45292 0.0
H3805 H 0.08381 0.24154 0.43704 0.0
H3806 H 0.09743 0.28144 0.44353 0.0
H3807 H 0.11388 0.27335 0.45899 0.0
H3808 H 0.06494 0.25668 0.44657 0.0
H3809 H 0.08764 0.28414 0.40541 0.0
H3810 H 0.09689 0.27247 0.41531 0.0
H3811 H 0.09481 0.28935 0.42073 0.0
C3812 C 0.10005 0.24379 0.45051 0.0
C3813 C 0.10817 0.25273 0.45737 0.0
C3814 C 0.09068 0.24847 0.44144 0.0
C3815 C 0.08939 0.26212 0.43903 0.0
C3816 C 0.09836 0.27086 0.44495 0.0
H3817 H 0.03162 0.3203 0.43615 0.0
H3818 H 0.05208 0.30771 0.43284 0.0
C3819 C 0.10769 0.26621 0.45397 0.0
C3820 C 0.07718 0.26754 0.43293 0.0
H3821 H 0.06602 0.29245 0.41295 0.0
C3822 C 0.06512 0.2642 0.4389 0.0
C3823 C 0.07742 0.27745 0.42303 0.0
C3824 C 0.0899 0.28094 0.41568 0.0
C3825 C 0.05351 0.27118 0.43606 0.0
C3826 C 0.05388 0.28162 0.42672 0.0
C3827 C 0.06576 0.28447 0.42014 0.0
C3828 C 0.04232 0.29042 0.42488 0.0
C3829 C 0.04117 0.26793 0.44385 0.0
C3830 C 0.0302 0.2852 0.42067 0.0
C3831 C 0.01853 0.29226 0.42279 0.0
C3832 C 0.01887 0.30478 0.42879 0.0
C3833 C 0.03113 0.31069 0.43145 0.0
C3834 C 0.04281 0.30349 0.42957 0.0
H3835 H 0.04324 0.26134 0.4524 0.0
H3836 H 0.03641 0.27709 0.44761 0.0
H3837 H 0.03401 0.26281 0.43732 0.0
H3838 H 0.02965 0.27523 0.4168 0.0
H3839 H 0.00918 0.28755 0.42057 0.0
H3840 H 0.61543 0.79383 0.05507 0.0
H3841 H 0.62101 0.80524 0.03469 0.0
H3842 H 0.64634 0.77286 0.02328 0.0
H3843 H 0.64048 0.76104 0.04366 0.0
H3844 H 0.64387 0.81399 0.02266 0.0
H3845 H 0.61963 0.77409 0.99345 0.0
H3846 H 0.61827 0.77498 0.01119 0.0
H3847 H 0.63324 0.76906 0.00366 0.0
C3848 C 0.62228 0.7891 0.04833 0.0
C3849 C 0.62734 0.77638 0.05094 0.0
C3850 C 0.62553 0.79572 0.03669 0.0
C3851 C 0.63395 0.78984 0.02739 0.0
C3852 C 0.63963 0.77747 0.03024 0.0
H3853 H 0.62702 0.81166 0.94585 0.0
H3854 H 0.6407 0.80564 0.9648 0.0
C3855 C 0.63629 0.77074 0.04189 0.0
C3856 C 0.63557 0.79624 0.01429 0.0
H3857 H 0.62607 0.793 0.98215 0.0
C3858 C 0.64023 0.80933 0.01371 0.0
C3859 C 0.63078 0.79017 0.00265 0.0
C3860 C 0.6251 0.77635 0.0027 0.0
C3861 C 0.63969 0.81669 0.00192 0.0
C3862 C 0.63426 0.81083 0.99046 0.0
C3863 C 0.63036 0.79749 0.99089 0.0
C3864 C 0.63053 0.81854 0.97852 0.0
C3865 C 0.64458 0.83077 0.00195 0.0
C3866 C 0.62112 0.82872 0.97965 0.0
C3867 C 0.61352 0.83243 0.9687 0.0
C3868 C 0.61506 0.82576 0.95663 0.0
C3869 C 0.62571 0.81698 0.95506 0.0
C3870 C 0.63347 0.81347 0.96593 0.0
H3871 H 0.65276 0.83205 0.00916 0.0
H3872 H 0.64806 0.83387 0.992 0.0
H3873 H 0.6364 0.83742 0.00502 0.0
H3874 H 0.61848 0.83265 0.98926 0.0
H3875 H 0.60525 0.83908 0.97021 0.0
H3876 H 0.60264 0.22677 0.08996 0.0
H3877 H 0.61123 0.23598 0.06925 0.0
H3878 H 0.63191 0.26612 0.09111 0.0
H3879 H 0.62334 0.25706 0.11181 0.0
H3880 H 0.61261 0.27531 0.07279 0.0
H3881 H 0.64748 0.23967 0.04967 0.0
H3882 H 0.63232 0.23276 0.0559 0.0
H3883 H 0.64401 0.23979 0.06722 0.0
C3884 C 0.60945 0.23502 0.09039 0.0
C3885 C 0.61227 0.24125 0.1025 0.0
C3886 C 0.61434 0.24028 0.07854 0.0
C3887 C 0.62223 0.25171 0.07868 0.0
C3888 C 0.62588 0.25728 0.09082 0.0
H3889 H 0.63421 0.31039 0.01588 0.0
H3890 H 0.63707 0.29826 0.03667 0.0
C3891 C 0.62098 0.25208 0.10262 0.0
C3892 C 0.6248 0.2591 0.06631 0.0
H3893 H 0.63967 0.25727 0.03605 0.0
C3894 C 0.61868 0.27147 0.06481 0.0
C3895 C 0.63261 0.25397 0.05593 0.0
C3896 C 0.63959 0.24086 0.05723 0.0
C3897 C 0.61978 0.27868 0.05303 0.0
C3898 C 0.62752 0.27354 0.04256 0.0
C3899 C 0.63386 0.26125 0.04414 0.0
C3900 C 0.62807 0.28021 0.02952 0.0
C3901 C 0.61208 0.29142 0.05167 0.0
C3902 C 0.6228 0.27384 0.01842 0.0
C3903 C 0.62129 0.28066 0.00652 0.0
C3904 C 0.62499 0.29405 0.00549 0.0
C3905 C 0.63113 0.30015 0.01637 0.0
C3906 C 0.63271 0.29325 0.02828 0.0
H3907 H 0.60436 0.29241 0.05944 0.0
H3908 H 0.61893 0.29992 0.05263 0.0
H3909 H 0.60722 0.29204 0.04185 0.0
H3910 H 0.61923 0.26376 0.01914 0.0
H3911 H 0.61665 0.27558 0.99833 0.0
H3912 H 0.74506 0.63467 0.03142 0.0
H3913 H 0.75569 0.63993 0.0526 0.0
H3914 H 0.79328 0.64338 0.03269 0.0
H3915 H 0.78276 0.63853 0.01174 0.0
H3916 H 0.77258 0.62318 0.06222 0.0
H3917 H 0.79855 0.67077 0.06023 0.0
H3918 H 0.78551 0.66668 0.04874 0.0
H3919 H 0.80236 0.66177 0.04548 0.0
C3920 C 0.75548 0.63711 0.03154 0.0
C3921 C 0.76313 0.63601 0.01999 0.0
C3922 C 0.76156 0.6401 0.04363 0.0
C3923 C 0.77531 0.64216 0.04428 0.0
C3924 C 0.78265 0.64218 0.03251 0.0
H3925 H 0.83242 0.60475 0.08695 0.0
H3926 H 0.8218 0.62021 0.07166 0.0
C3927 C 0.77663 0.6392 0.02051 0.0
C3928 C 0.78249 0.64133 0.05707 0.0
H3929 H 0.81004 0.653 0.0728 0.0
C3930 C 0.78046 0.62997 0.06478 0.0
C3931 C 0.79283 0.65014 0.06047 0.0
C3932 C 0.79481 0.66309 0.05333 0.0
C3933 C 0.78914 0.62659 0.07501 0.0
C3934 C 0.80018 0.63476 0.07758 0.0
C3935 C 0.8017 0.64664 0.0706 0.0
C3936 C 0.81053 0.63023 0.08682 0.0
C3937 C 0.78694 0.61384 0.0825 0.0
C3938 C 0.80853 0.63157 0.10047 0.0
C3939 C 0.81467 0.62279 0.10921 0.0
C3940 C 0.82284 0.61265 0.10436 0.0
C3941 C 0.82639 0.61266 0.09095 0.0
C3942 C 0.82023 0.62143 0.08219 0.0
H3943 H 0.77761 0.60885 0.07959 0.0
H3944 H 0.79529 0.60695 0.08064 0.0
H3945 H 0.7866 0.61582 0.09329 0.0
H3946 H 0.80101 0.63823 0.1042 0.0
H3947 H 0.81162 0.6228 0.11949 0.0
H3948 H 0.45032 0.82977 0.09508 0.0
H3949 H 0.43392 0.82123 0.07938 0.0
H3950 H 0.45374 0.78337 0.07966 0.0
H3951 H 0.46924 0.79141 0.09571 0.0
H3952 H 0.43699 0.81527 0.05617 0.0
H3953 H 0.41844 0.76927 0.07662 0.0
H3954 H 0.42692 0.78099 0.08705 0.0
H3955 H 0.4359 0.7679 0.07873 0.0
C3956 C 0.45086 0.8195 0.09208 0.0
C3957 C 0.46114 0.81132 0.09665 0.0
C3958 C 0.44148 0.81461 0.0831 0.0
C3959 C 0.44232 0.80151 0.07843 0.0
C3960 C 0.45235 0.7933 0.08341 0.0
H3961 H 0.45571 0.77793 0.00525 0.0
H3962 H 0.44996 0.7899 0.02506 0.0
C3963 C 0.46145 0.79804 0.09253 0.0
C3964 C 0.43451 0.79689 0.06683 0.0
H3965 H 0.42582 0.76769 0.05247 0.0
C3966 C 0.43407 0.80498 0.05553 0.0
C3967 C 0.42987 0.7837 0.06583 0.0
C3968 C 0.42766 0.7751 0.07782 0.0
C3969 C 0.43118 0.79967 0.04306 0.0
C3970 C 0.42948 0.78582 0.04176 0.0
C3971 C 0.4278 0.7782 0.05326 0.0
C3972 C 0.43196 0.77893 0.02899 0.0
C3973 C 0.4307 0.8089 0.03133 0.0
C3974 C 0.42419 0.76819 0.02476 0.0
C3975 C 0.4278 0.76089 0.01351 0.0
C3976 C 0.43914 0.76434 0.00624 0.0
C3977 C 0.44675 0.77516 0.01042 0.0
C3978 C 0.44334 0.78218 0.02173 0.0
H3979 H 0.42558 0.81823 0.03407 0.0
H3980 H 0.44091 0.81158 0.02836 0.0
H3981 H 0.42551 0.80441 0.02277 0.0
H3982 H 0.41548 0.76531 0.03029 0.0
H3983 H 0.42179 0.75255 0.01054 0.0
H3984 H 0.22734 0.46585 0.08605 0.0
H3985 H 0.23583 0.45747 0.06501 0.0
H3986 H 0.26271 0.43182 0.08594 0.0
H3987 H 0.25436 0.44019 0.10701 0.0
H3988 H 0.27457 0.45122 0.06941 0.0
H3989 H 0.23601 0.42282 0.04265 0.0
H3990 H 0.23064 0.43818 0.04984 0.0
H3991 H 0.23588 0.4249 0.06041 0.0
C3992 C 0.23463 0.458 0.08619 0.0
C3993 C 0.24025 0.45373 0.09819 0.0
C3994 C 0.23948 0.45322 0.07414 0.0
C3995 C 0.24988 0.44401 0.07394 0.0
C3996 C 0.25466 0.43889 0.0859 0.0
H3997 H 0.30866 0.43149 0.01134 0.0
H3998 H 0.29585 0.42814 0.03163 0.0
C3999 C 0.24986 0.44368 0.09793 0.0
C4000 C 0.25732 0.44158 0.06157 0.0
H4001 H 0.25467 0.42987 0.03004 0.0
C4002 C 0.27031 0.44636 0.06085 0.0
C4003 C 0.25165 0.4354 0.05043 0.0
C4004 C 0.23781 0.42992 0.05083 0.0
C4005 C 0.27765 0.44558 0.04912 0.0
C4006 C 0.27198 0.43946 0.03789 0.0
C4007 C 0.25905 0.43443 0.03869 0.0
C4008 C 0.27889 0.43936 0.02495 0.0
C4009 C 0.29114 0.45195 0.0487 0.0
C4010 C 0.27328 0.44605 0.01419 0.0
C4011 C 0.28046 0.44781 0.00254 0.0
C4012 C 0.29346 0.44296 0.00142 0.0
C4013 C 0.29874 0.43548 0.01191 0.0
C4014 C 0.29146 0.43362 0.02354 0.0
H4015 H 0.29268 0.45886 0.05711 0.0
H4016 H 0.29885 0.44416 0.0493 0.0
H4017 H 0.29259 0.45751 0.03933 0.0
H4018 H 0.26356 0.4505 0.01502 0.0
H4019 H 0.276 0.45353 0.99465 0.0
H4020 H 0.41696 0.308 0.05088 0.0
H4021 H 0.40907 0.29446 0.03231 0.0
H4022 H 0.44107 0.26699 0.03906 0.0
H4023 H 0.44834 0.27981 0.05775 0.0
H4024 H 0.41858 0.28973 0.01038 0.0
H4025 H 0.41458 0.24046 0.03113 0.0
H4026 H 0.41551 0.25472 0.04183 0.0
H4027 H 0.43033 0.24596 0.03686 0.0
C4028 C 0.42207 0.29888 0.04854 0.0
C4029 C 0.4332 0.29493 0.05589 0.0
C4030 C 0.41754 0.29112 0.03795 0.0
C4031 C 0.42415 0.27936 0.03446 0.0
C4032 C 0.43527 0.27554 0.04185 0.0
H4033 H 0.46613 0.26553 0.97643 0.0
H4034 H 0.44797 0.27304 0.98949 0.0
C4035 C 0.43959 0.28306 0.0525 0.0
C4036 C 0.42102 0.27199 0.02209 0.0
H4037 H 0.42777 0.24156 0.00934 0.0
C4038 C 0.42 0.2791 0.01019 0.0
C4039 C 0.42192 0.258 0.02147 0.0
C4040 C 0.42044 0.24941 0.03358 0.0
C4041 C 0.42243 0.2729 0.99802 0.0
C4042 C 0.42679 0.25957 0.99791 0.0
C4043 C 0.42517 0.25196 0.0094 0.0
C4044 C 0.43656 0.25495 0.9879 0.0
C4045 C 0.42162 0.28105 0.98555 0.0
C4046 C 0.43665 0.24197 0.98277 0.0
C4047 C 0.44756 0.23736 0.97538 0.0
C4048 C 0.45851 0.24565 0.97331 0.0
C4049 C 0.45801 0.25872 0.97801 0.0
C4050 C 0.44734 0.26322 0.98527 0.0
H4051 H 0.41241 0.28704 0.9856 0.0
H4052 H 0.43001 0.28811 0.98519 0.0
H4053 H 0.42176 0.2748 0.97653 0.0
H4054 H 0.42854 0.23531 0.98484 0.0
H4055 H 0.44764 0.22727 0.97179 0.0
H4056 H 0.83282 0.45795 0.97759 0.0
H4057 H 0.82332 0.44378 0.99464 0.0
H4058 H 0.78924 0.43689 0.96995 0.0
H4059 H 0.79845 0.45168 0.95319 0.0
H4060 H 0.78216 0.44817 0.99144 0.0
H4061 H 0.81491 0.40721 0.00612 0.0
H4062 H 0.8241 0.42232 0.00562 0.0
H4063 H 0.81695 0.41587 0.99062 0.0
C4064 C 0.82361 0.4529 0.97555 0.0
C4065 C 0.8163 0.45597 0.96416 0.0
C4066 C 0.81818 0.44472 0.9853 0.0
C4067 C 0.80553 0.43923 0.98363 0.0
C4068 C 0.79899 0.44104 0.9715 0.0
H4069 H 0.75077 0.42433 0.04942 0.0
H4070 H 0.76131 0.4202 0.02803 0.0
C4071 C 0.80426 0.44946 0.96191 0.0
C4072 C 0.79802 0.43444 0.99533 0.0
H4073 H 0.80085 0.41634 0.02375 0.0
C4074 C 0.78606 0.44088 0.99828 0.0
C4075 C 0.80311 0.42503 0.00436 0.0
C4076 C 0.81541 0.41713 0.00142 0.0
C4077 C 0.77956 0.43888 0.01034 0.0
C4078 C 0.78509 0.43008 0.0197 0.0
C4079 C 0.79666 0.42309 0.01653 0.0
C4080 C 0.77981 0.42947 0.03333 0.0
C4081 C 0.76732 0.44692 0.01335 0.0
C4082 C 0.78699 0.4354 0.04358 0.0
C4083 C 0.78103 0.43777 0.0558 0.0
C4084 C 0.76775 0.43426 0.05799 0.0
C4085 C 0.76096 0.42729 0.04805 0.0
C4086 C 0.76696 0.42491 0.03581 0.0
H4087 H 0.76545 0.45467 0.00577 0.0
H4088 H 0.75861 0.44028 0.01366 0.0
H4089 H 0.76821 0.45178 0.02315 0.0
H4090 H 0.79693 0.43899 0.04184 0.0
H4091 H 0.78662 0.44302 0.06327 0.0
H4092 H 0.2698 0.61407 0.06671 0.0
H4093 H 0.25679 0.61839 0.04697 0.0
H4094 H 0.28645 0.6457 0.0331 0.0
H4095 H 0.29988 0.64106 0.05272 0.0
H4096 H 0.24565 0.63957 0.03401 0.0
H4097 H 0.28681 0.6176 0.0047 0.0
H4098 H 0.28654 0.61713 0.02251 0.0
H4099 H 0.29096 0.63212 0.014 0.0
C4100 C 0.27354 0.62115 0.05959 0.0
C4101 C 0.28605 0.62701 0.06119 0.0
C4102 C 0.26601 0.62367 0.04831 0.0
C4103 C 0.27076 0.63216 0.03843 0.0
C4104 C 0.28274 0.63888 0.04048 0.0
H4105 H 0.24784 0.62281 0.95721 0.0
H4106 H 0.25339 0.63642 0.97636 0.0
C4107 C 0.29038 0.63624 0.05171 0.0
C4108 C 0.26389 0.63258 0.02548 0.0
H4109 H 0.26738 0.62247 0.99353 0.0
C4110 C 0.25044 0.63606 0.02507 0.0
C4111 C 0.27013 0.62792 0.01385 0.0
C4112 C 0.28436 0.62337 0.01373 0.0
C4113 C 0.24296 0.63457 0.01344 0.0
C4114 C 0.2491 0.6294 0.002 0.0
C4115 C 0.26269 0.62658 0.00226 0.0
C4116 C 0.24161 0.62505 0.99015 0.0
C4117 C 0.22853 0.63827 0.0136 0.0
C4118 C 0.23227 0.61483 0.99133 0.0
C4119 C 0.22884 0.60723 0.98029 0.0
C4120 C 0.23493 0.60963 0.96805 0.0
C4121 C 0.24294 0.62086 0.96655 0.0
C4122 C 0.24617 0.62859 0.97751 0.0
H4123 H 0.22656 0.64625 0.0209 0.0
H4124 H 0.22513 0.64158 0.0037 0.0
H4125 H 0.22263 0.62951 0.01658 0.0
H4126 H 0.22878 0.61173 0.00098 0.0
H4127 H 0.22283 0.59847 0.98173 0.0
loop_
_geom_bond_atom_site_label_1
_geom_bond_atom_site_label_2
_geom_bond_distance
_geom_bond_site_symmetry_2
_ccdc_geom_bond_type
Mg0 O1 2.028 . S
Mg0 O7 1.986 . S
Mg0 O9 2.114 . S
Mg0 O10 2.251 . S
Mg0 O13 2.010 . S
O1 Mg0 2.028 . S
O1 C4 1.250 . S
O2 Mg3 2.028 . S
O2 C4 1.248 . S
Mg3 O2 2.028 . S
Mg3 O8 2.032 . S
Mg3 O10 2.079 . S
C4 O1 1.250 . S
C4 O2 1.248 . S
C5 O6 1.264 . S
C5 O13 1.249 . S
O6 C5 1.264 . S
O7 Mg0 1.986 . S
O7 C11 1.246 . S
O8 Mg3 2.032 . S
O8 C11 1.259 . S
O9 Mg0 2.114 . S
O9 C12 1.252 . S
O10 Mg0 2.251 . S
O10 Mg3 2.079 . S
O10 C12 1.273 . S
C11 O7 1.246 . S
C11 O8 1.259 . S
C12 O9 1.252 . S
C12 O10 1.273 . S
O13 Mg0 2.010 . S
O13 C5 1.249 . S
Mg14 O15 2.028 . S
Mg14 O21 1.986 . S
Mg14 O23 2.114 . S
Mg14 O24 2.251 . S
Mg14 O27 2.010 . S
O15 Mg14 2.028 . S
O15 C18 1.250 . S
O16 Mg17 2.028 . S
O16 C18 1.248 . S
Mg17 O16 2.028 . S
Mg17 O22 2.032 . S
Mg17 O24 2.079 . S
C18 O15 1.250 . S
C18 O16 1.248 . S
C19 O20 1.264 . S
C19 O27 1.249 . S
O20 C19 1.264 . S
O21 Mg14 1.986 . S
O21 C25 1.246 . S
O22 Mg17 2.032 . S
O22 C25 1.259 . S
O23 Mg14 2.114 . S
O23 C26 1.252 . S
O24 Mg14 2.251 . S
O24 Mg17 2.079 . S
O24 C26 1.273 . S
C25 O21 1.246 . S
C25 O22 1.259 . S
C26 O23 1.252 . S
C26 O24 1.273 . S
O27 Mg14 2.010 . S
O27 C19 1.249 . S
Mg28 O29 2.028 1_655 S
Mg28 O35 1.986 1_655 S
Mg28 O37 2.114 . S
Mg28 O38 2.251 . S
Mg28 O41 2.019 . S
O29 Mg28 2.028 1_455 S
O29 C32 1.250 . S
O30 Mg31 2.028 . S
O30 C32 1.248 . S
Mg31 O30 2.028 . S
Mg31 O36 2.032 . S
Mg31 O38 2.079 1_455 S
C32 O29 1.250 . S
C32 O30 1.248 . S
C33 O34 1.264 . S
C33 O41 1.265 . S
O34 C33 1.264 . S
O35 Mg28 1.986 1_455 S
O35 C39 1.246 . S
O36 Mg31 2.032 . S
O36 C39 1.259 . S
O37 Mg28 2.114 . S
O37 C40 1.252 . S
O38 Mg28 2.251 . S
O38 Mg31 2.079 1_655 S
O38 C40 1.273 . S
C39 O35 1.246 . S
C39 O36 1.259 . S
C40 O37 1.252 . S
C40 O38 1.273 . S
O41 Mg28 2.019 . S
O41 C33 1.265 . S
Mg42 O43 2.028 1_565 S
Mg42 O49 1.986 1_565 S
Mg42 O51 2.114 . S
Mg42 O52 2.251 . S
Mg42 O55 2.019 . S
O43 Mg42 2.028 1_545 S
O43 C46 1.250 . S
O44 Mg45 2.028 . S
O44 C46 1.248 . S
Mg45 O44 2.028 . S
Mg45 O50 2.032 . S
Mg45 O52 2.079 1_545 S
C46 O43 1.250 . S
C46 O44 1.248 . S
C47 O48 1.264 . S
C47 O55 1.265 . S
O48 C47 1.264 . S
O49 Mg42 1.986 1_545 S
O49 C53 1.246 . S
O50 Mg45 2.032 . S
O50 C53 1.259 . S
O51 Mg42 2.114 . S
O51 C54 1.252 . S
O52 Mg42 2.251 . S
O52 Mg45 2.079 1_565 S
O52 C54 1.273 . S
C53 O49 1.246 . S
C53 O50 1.259 . S
C54 O51 1.252 . S
C54 O52 1.273 . S
O55 Mg42 2.019 . S
O55 C47 1.265 . S
Mg56 O57 2.028 . S
Mg56 O63 1.986 . S
Mg56 O65 2.114 . S
Mg56 O66 2.251 . S
Mg56 O69 2.010 . S
O57 Mg56 2.028 . S
O57 C60 1.250 . S
O58 Mg59 2.028 . S
O58 C60 1.248 . S
Mg59 O58 2.028 . S
Mg59 O64 2.032 . S
Mg59 O66 2.079 . S
C60 O57 1.250 . S
C60 O58 1.248 . S
C61 O62 1.264 . S
C61 O69 1.249 . S
O62 C61 1.264 . S
O63 Mg56 1.986 . S
O63 C67 1.246 . S
O64 Mg59 2.032 . S
O64 C67 1.259 . S
O65 Mg56 2.114 . S
O65 C68 1.252 . S
O66 Mg56 2.251 . S
O66 Mg59 2.079 . S
O66 C68 1.273 . S
C67 O63 1.246 . S
C67 O64 1.259 . S
C68 O65 1.252 . S
C68 O66 1.273 . S
O69 Mg56 2.010 . S
O69 C61 1.249 . S
Mg70 O71 2.028 . S
Mg70 O77 1.986 . S
Mg70 O79 2.114 . S
Mg70 O80 2.251 . S
Mg70 O83 2.010 . S
O71 Mg70 2.028 . S
O71 C74 1.250 . S
O72 Mg73 2.028 . S
O72 C74 1.248 . S
Mg73 O72 2.028 . S
Mg73 O78 2.032 . S
Mg73 O80 2.079 . S
C74 O71 1.250 . S
C74 O72 1.248 . S
C75 O76 1.264 . S
C75 O83 1.249 . S
O76 C75 1.264 . S
O77 Mg70 1.986 . S
O77 C81 1.246 . S
O78 Mg73 2.032 . S
O78 C81 1.259 . S
O79 Mg70 2.114 . S
O79 C82 1.252 . S
O80 Mg70 2.251 . S
O80 Mg73 2.079 . S
O80 C82 1.273 . S
C81 O77 1.246 . S
C81 O78 1.259 . S
C82 O79 1.252 . S
C82 O80 1.273 . S
O83 Mg70 2.010 . S
O83 C75 1.249 . S
Mg84 O85 2.028 1_655 S
Mg84 O91 1.986 1_655 S
Mg84 O93 2.114 . S
Mg84 O94 2.251 . S
Mg84 O97 2.018 . S
O85 Mg84 2.028 1_455 S
O85 C88 1.250 . S
O86 Mg87 2.028 . S
O86 C88 1.248 . S
Mg87 O86 2.028 . S
Mg87 O92 2.032 . S
Mg87 O94 2.079 1_455 S
C88 O85 1.250 . S
C88 O86 1.248 . S
C89 O90 1.264 . S
C89 O97 1.263 . S
O90 C89 1.264 . S
O91 Mg84 1.986 1_455 S
O91 C95 1.246 . S
O92 Mg87 2.032 . S
O92 C95 1.259 . S
O93 Mg84 2.114 . S
O93 C96 1.252 . S
O94 Mg84 2.251 . S
O94 Mg87 2.079 1_655 S
O94 C96 1.273 . S
C95 O91 1.246 . S
C95 O92 1.259 . S
C96 O93 1.252 . S
C96 O94 1.273 . S
O97 Mg84 2.018 . S
O97 C89 1.263 . S
Mg98 O99 2.028 1_565 S
Mg98 O105 1.986 1_565 S
Mg98 O107 2.114 . S
Mg98 O108 2.251 . S
Mg98 O111 2.018 . S
O99 Mg98 2.028 1_545 S
O99 C102 1.250 . S
O100 Mg101 2.028 . S
O100 C102 1.248 . S
Mg101 O100 2.028 . S
Mg101 O106 2.032 . S
Mg101 O108 2.079 1_545 S
C102 O99 1.250 . S
C102 O100 1.248 . S
C103 O104 1.264 . S
C103 O111 1.264 . S
O104 C103 1.264 . S
O105 Mg98 1.986 1_545 S
O105 C109 1.246 . S
O106 Mg101 2.032 . S
O106 C109 1.259 . S
O107 Mg98 2.114 . S
O107 C110 1.252 . S
O108 Mg98 2.251 . S
O108 Mg101 2.079 1_565 S
O108 C110 1.273 . S
C109 O105 1.246 . S
C109 O106 1.259 . S
C110 O107 1.252 . S
C110 O108 1.273 . S
O111 Mg98 2.018 . S
O111 C103 1.264 . S
Mg112 O113 2.028 . S
Mg112 O119 1.986 . S
Mg112 O121 2.114 . S
Mg112 O122 2.251 . S
Mg112 O125 2.010 . S
O113 Mg112 2.028 . S
O113 C116 1.250 . S
O114 Mg115 2.028 . S
O114 C116 1.248 . S
Mg115 O114 2.028 . S
Mg115 O120 2.032 . S
Mg115 O122 2.079 . S
C116 O113 1.250 . S
C116 O114 1.248 . S
C117 O118 1.264 . S
C117 O125 1.249 . S
O118 C117 1.264 . S
O119 Mg112 1.986 . S
O119 C123 1.246 . S
O120 Mg115 2.032 . S
O120 C123 1.259 . S
O121 Mg112 2.114 . S
O121 C124 1.252 . S
O122 Mg112 2.251 . S
O122 Mg115 2.079 . S
O122 C124 1.273 . S
C123 O119 1.246 . S
C123 O120 1.259 . S
C124 O121 1.252 . S
C124 O122 1.273 . S
O125 Mg112 2.010 . S
O125 C117 1.249 . S
Mg126 O127 2.028 1_655 S
Mg126 O133 1.986 1_655 S
Mg126 O135 2.114 . S
Mg126 O136 2.251 . S
Mg126 O139 2.019 . S
O127 Mg126 2.028 1_455 S
O127 C130 1.250 . S
O128 Mg129 2.028 . S
O128 C130 1.248 . S
Mg129 O128 2.028 . S
Mg129 O134 2.032 . S
Mg129 O136 2.079 1_455 S
C130 O127 1.250 . S
C130 O128 1.248 . S
C131 O132 1.264 . S
C131 O139 1.265 . S
O132 C131 1.264 . S
O133 Mg126 1.986 1_455 S
O133 C137 1.246 . S
O134 Mg129 2.032 . S
O134 C137 1.259 . S
O135 Mg126 2.114 . S
O135 C138 1.252 . S
O136 Mg126 2.251 . S
O136 Mg129 2.079 1_655 S
O136 C138 1.273 . S
C137 O133 1.246 . S
C137 O134 1.259 . S
C138 O135 1.252 . S
C138 O136 1.273 . S
O139 Mg126 2.019 . S
O139 C131 1.265 . S
Mg140 O141 2.028 1_565 S
Mg140 O147 1.986 1_565 S
Mg140 O149 2.114 . S
Mg140 O150 2.251 . S
Mg140 O153 2.018 . S
O141 Mg140 2.028 1_545 S
O141 C144 1.250 . S
O142 Mg143 2.028 . S
O142 C144 1.248 . S
Mg143 O142 2.028 . S
Mg143 O148 2.032 . S
Mg143 O150 2.079 1_545 S
C144 O141 1.250 . S
C144 O142 1.248 . S
C145 O146 1.264 . S
C145 O153 1.263 . S
O146 C145 1.264 . S
O147 Mg140 1.986 1_545 S
O147 C151 1.246 . S
O148 Mg143 2.032 . S
O148 C151 1.259 . S
O149 Mg140 2.114 . S
O149 C152 1.252 . S
O150 Mg140 2.251 . S
O150 Mg143 2.079 1_565 S
O150 C152 1.273 . S
C151 O147 1.246 . S
C151 O148 1.259 . S
C152 O149 1.252 . S
C152 O150 1.273 . S
O153 Mg140 2.018 . S
O153 C145 1.263 . S
Mg154 O155 2.028 . S
Mg154 O161 1.986 . S
Mg154 O163 2.114 . S
Mg154 O164 2.251 . S
Mg154 O167 2.010 . S
O155 Mg154 2.028 . S
O155 C158 1.250 . S
O156 Mg157 2.028 . S
O156 C158 1.248 . S
Mg157 O156 2.028 . S
Mg157 O162 2.032 . S
Mg157 O164 2.079 . S
C158 O155 1.250 . S
C158 O156 1.248 . S
C159 O160 1.264 . S
C159 O167 1.249 . S
O160 C159 1.264 . S
O161 Mg154 1.986 . S
O161 C165 1.246 . S
O162 Mg157 2.032 . S
O162 C165 1.259 . S
O163 Mg154 2.114 . S
O163 C166 1.252 . S
O164 Mg154 2.251 . S
O164 Mg157 2.079 . S
O164 C166 1.273 . S
C165 O161 1.246 . S
C165 O162 1.259 . S
C166 O163 1.252 . S
C166 O164 1.273 . S
O167 Mg154 2.010 . S
O167 C159 1.249 . S
Mg168 O169 2.028 1_565 S
Mg168 O175 1.986 1_565 S
Mg168 O177 2.114 . S
Mg168 O178 2.251 . S
Mg168 O181 2.019 . S
O169 Mg168 2.028 1_545 S
O169 C172 1.250 . S
O170 Mg171 2.028 . S
O170 C172 1.248 . S
Mg171 O170 2.028 . S
Mg171 O176 2.032 . S
Mg171 O178 2.079 1_545 S
C172 O169 1.250 . S
C172 O170 1.248 . S
C173 O174 1.264 . S
C173 O181 1.265 . S
O174 C173 1.264 . S
O175 Mg168 1.986 1_545 S
O175 C179 1.246 . S
O176 Mg171 2.032 . S
O176 C179 1.259 . S
O177 Mg168 2.114 . S
O177 C180 1.252 . S
O178 Mg168 2.251 . S
O178 Mg171 2.079 1_565 S
O178 C180 1.273 . S
C179 O175 1.246 . S
C179 O176 1.259 . S
C180 O177 1.252 . S
C180 O178 1.273 . S
O181 Mg168 2.019 . S
O181 C173 1.265 . S
Mg182 O183 2.028 . S
Mg182 O189 1.986 . S
Mg182 O191 2.114 . S
Mg182 O192 2.251 . S
Mg182 O195 2.010 . S
O183 Mg182 2.028 . S
O183 C186 1.250 . S
O184 Mg185 2.028 . S
O184 C186 1.248 . S
Mg185 O184 2.028 . S
Mg185 O190 2.032 . S
Mg185 O192 2.079 . S
C186 O183 1.250 . S
C186 O184 1.248 . S
C187 O188 1.264 . S
C187 O195 1.249 . S
O188 C187 1.264 . S
O189 Mg182 1.986 . S
O189 C193 1.246 . S
O190 Mg185 2.032 . S
O190 C193 1.259 . S
O191 Mg182 2.114 . S
O191 C194 1.252 . S
O192 Mg182 2.251 . S
O192 Mg185 2.079 . S
O192 C194 1.273 . S
C193 O189 1.246 . S
C193 O190 1.259 . S
C194 O191 1.252 . S
C194 O192 1.273 . S
O195 Mg182 2.010 . S
O195 C187 1.249 . S
Mg196 O197 2.028 . S
Mg196 O203 1.986 . S
Mg196 O205 2.114 . S
Mg196 O206 2.251 . S
Mg196 O209 2.010 . S
O197 Mg196 2.028 . S
O197 C200 1.250 . S
O198 Mg199 2.028 . S
O198 C200 1.248 . S
Mg199 O198 2.028 . S
Mg199 O204 2.032 . S
Mg199 O206 2.079 . S
C200 O197 1.250 . S
C200 O198 1.248 . S
C201 O202 1.264 . S
C201 O209 1.249 . S
O202 C201 1.264 . S
O203 Mg196 1.986 . S
O203 C207 1.246 . S
O204 Mg199 2.032 . S
O204 C207 1.259 . S
O205 Mg196 2.114 . S
O205 C208 1.252 . S
O206 Mg196 2.251 . S
O206 Mg199 2.079 . S
O206 C208 1.273 . S
C207 O203 1.246 . S
C207 O204 1.259 . S
C208 O205 1.252 . S
C208 O206 1.273 . S
O209 Mg196 2.010 . S
O209 C201 1.249 . S
Mg210 O211 2.028 1_655 S
Mg210 O217 1.986 1_655 S
Mg210 O219 2.114 . S
Mg210 O220 2.251 . S
Mg210 O223 2.018 . S
O211 Mg210 2.028 1_455 S
O211 C214 1.250 . S
O212 Mg213 2.028 . S
O212 C214 1.248 . S
Mg213 O212 2.028 . S
Mg213 O218 2.032 . S
Mg213 O220 2.079 1_455 S
C214 O211 1.250 . S
C214 O212 1.248 . S
C215 O216 1.264 . S
C215 O223 1.264 . S
O216 C215 1.264 . S
O217 Mg210 1.986 1_455 S
O217 C221 1.246 . S
O218 Mg213 2.032 . S
O218 C221 1.259 . S
O219 Mg210 2.114 . S
O219 C222 1.252 . S
O220 Mg210 2.251 . S
O220 Mg213 2.079 1_655 S
O220 C222 1.273 . S
C221 O217 1.246 . S
C221 O218 1.259 . S
C222 O219 1.252 . S
C222 O220 1.273 . S
O223 Mg210 2.018 . S
O223 C215 1.264 . S
Mg224 O225 2.028 . S
Mg224 O231 1.986 . S
Mg224 O233 2.114 . S
Mg224 O234 2.251 . S
Mg224 O237 2.010 . S
O225 Mg224 2.028 . S
O225 C228 1.250 . S
O226 Mg227 2.028 . S
O226 C228 1.248 . S
Mg227 O226 2.028 . S
Mg227 O232 2.032 . S
Mg227 O234 2.079 . S
C228 O225 1.250 . S
C228 O226 1.248 . S
C229 O230 1.264 . S
C229 O237 1.249 . S
O230 C229 1.264 . S
O231 Mg224 1.986 . S
O231 C235 1.246 . S
O232 Mg227 2.032 . S
O232 C235 1.259 . S
O233 Mg224 2.114 . S
O233 C236 1.252 . S
O234 Mg224 2.251 . S
O234 Mg227 2.079 . S
O234 C236 1.273 . S
C235 O231 1.246 . S
C235 O232 1.259 . S
C236 O233 1.252 . S
C236 O234 1.273 . S
O237 Mg224 2.010 . S
O237 C229 1.249 . S
Mg238 O239 2.028 1_556 S
Mg238 O245 1.986 1_556 S
Mg238 O247 2.114 . S
Mg238 O248 2.251 . S
Mg238 O251 2.018 . S
O239 Mg238 2.028 1_554 S
O239 C242 1.250 . S
O240 Mg241 2.028 . S
O240 C242 1.248 . S
Mg241 O240 2.028 . S
Mg241 O246 2.032 . S
Mg241 O248 2.079 1_554 S
C242 O239 1.250 . S
C242 O240 1.248 . S
C243 O244 1.264 . S
C243 O251 1.263 . S
O244 C243 1.264 . S
O245 Mg238 1.986 1_554 S
O245 C249 1.246 . S
O246 Mg241 2.032 . S
O246 C249 1.259 . S
O247 Mg238 2.114 . S
O247 C250 1.252 . S
O248 Mg238 2.251 . S
O248 Mg241 2.079 1_556 S
O248 C250 1.273 . S
C249 O245 1.246 . S
C249 O246 1.259 . S
C250 O247 1.252 . S
C250 O248 1.273 . S
O251 Mg238 2.018 . S
O251 C243 1.263 . S
Mg252 O253 2.028 1_556 S
Mg252 O259 1.986 1_556 S
Mg252 O261 2.114 . S
Mg252 O262 2.251 . S
Mg252 O265 2.019 . S
O253 Mg252 2.028 1_554 S
O253 C256 1.250 . S
O254 Mg255 2.028 . S
O254 C256 1.248 . S
Mg255 O254 2.028 . S
Mg255 O260 2.032 . S
Mg255 O262 2.079 1_554 S
C256 O253 1.250 . S
C256 O254 1.248 . S
C257 O258 1.264 . S
C257 O265 1.265 . S
O258 C257 1.264 . S
O259 Mg252 1.986 1_554 S
O259 C263 1.246 . S
O260 Mg255 2.032 . S
O260 C263 1.259 . S
O261 Mg252 2.114 . S
O261 C264 1.252 . S
O262 Mg252 2.251 . S
O262 Mg255 2.079 1_556 S
O262 C264 1.273 . S
C263 O259 1.246 . S
C263 O260 1.259 . S
C264 O261 1.252 . S
C264 O262 1.273 . S
O265 Mg252 2.019 . S
O265 C257 1.265 . S
Mg266 O267 2.028 1_556 S
Mg266 O273 1.986 1_556 S
Mg266 O275 2.114 . S
Mg266 O276 2.251 . S
Mg266 O279 2.019 . S
O267 Mg266 2.028 1_554 S
O267 C270 1.250 . S
O268 Mg269 2.028 . S
O268 C270 1.248 . S
Mg269 O268 2.028 . S
Mg269 O274 2.032 . S
Mg269 O276 2.079 1_554 S
C270 O267 1.250 . S
C270 O268 1.248 . S
C271 O272 1.264 . S
C271 O279 1.265 . S
O272 C271 1.264 . S
O273 Mg266 1.986 1_554 S
O273 C277 1.246 . S
O274 Mg269 2.032 . S
O274 C277 1.259 . S
O275 Mg266 2.114 . S
O275 C278 1.252 . S
O276 Mg266 2.251 . S
O276 Mg269 2.079 1_556 S
O276 C278 1.273 . S
C277 O273 1.246 . S
C277 O274 1.259 . S
C278 O275 1.252 . S
C278 O276 1.273 . S
O279 Mg266 2.019 . S
O279 C271 1.265 . S
Mg280 O281 2.028 1_556 S
Mg280 O287 1.986 1_556 S
Mg280 O289 2.114 . S
Mg280 O290 2.251 . S
Mg280 O293 2.018 . S
O281 Mg280 2.028 1_554 S
O281 C284 1.250 . S
O282 Mg283 2.028 . S
O282 C284 1.248 . S
Mg283 O282 2.028 . S
Mg283 O288 2.032 . S
Mg283 O290 2.079 1_554 S
C284 O281 1.250 . S
C284 O282 1.248 . S
C285 O286 1.264 . S
C285 O293 1.264 . S
O286 C285 1.264 . S
O287 Mg280 1.986 1_554 S
O287 C291 1.246 . S
O288 Mg283 2.032 . S
O288 C291 1.259 . S
O289 Mg280 2.114 . S
O289 C292 1.252 . S
O290 Mg280 2.251 . S
O290 Mg283 2.079 1_556 S
O290 C292 1.273 . S
C291 O287 1.246 . S
C291 O288 1.259 . S
C292 O289 1.252 . S
C292 O290 1.273 . S
O293 Mg280 2.018 . S
O293 C285 1.264 . S
Mg294 O295 2.028 . S
Mg294 O301 1.986 . S
Mg294 O303 2.114 . S
Mg294 O304 2.251 . S
Mg294 O307 2.010 . S
O295 Mg294 2.028 . S
O295 C298 1.250 . S
O296 Mg297 2.028 . S
O296 C298 1.248 . S
Mg297 O296 2.028 . S
Mg297 O302 2.032 . S
Mg297 O304 2.079 . S
C298 O295 1.250 . S
C298 O296 1.248 . S
C299 O300 1.264 . S
C299 O307 1.249 . S
O300 C299 1.264 . S
O301 Mg294 1.986 . S
O301 C305 1.246 . S
O302 Mg297 2.032 . S
O302 C305 1.259 . S
O303 Mg294 2.114 . S
O303 C306 1.252 . S
O304 Mg294 2.251 . S
O304 Mg297 2.079 . S
O304 C306 1.273 . S
C305 O301 1.246 . S
C305 O302 1.259 . S
C306 O303 1.252 . S
C306 O304 1.273 . S
O307 Mg294 2.010 . S
O307 C299 1.249 . S
Mg308 O309 2.028 . S
Mg308 O315 1.986 . S
Mg308 O317 2.114 . S
Mg308 O318 2.251 . S
Mg308 O321 2.010 . S
O309 Mg308 2.028 . S
O309 C312 1.250 . S
O310 Mg311 2.028 . S
O310 C312 1.248 . S
Mg311 O310 2.028 . S
Mg311 O316 2.032 . S
Mg311 O318 2.079 . S
C312 O309 1.250 . S
C312 O310 1.248 . S
C313 O314 1.264 . S
C313 O321 1.249 . S
O314 C313 1.264 . S
O315 Mg308 1.986 . S
O315 C319 1.246 . S
O316 Mg311 2.032 . S
O316 C319 1.259 . S
O317 Mg308 2.114 . S
O317 C320 1.252 . S
O318 Mg308 2.251 . S
O318 Mg311 2.079 . S
O318 C320 1.273 . S
C319 O315 1.246 . S
C319 O316 1.259 . S
C320 O317 1.252 . S
C320 O318 1.273 . S
O321 Mg308 2.010 . S
O321 C313 1.249 . S
Mg322 O323 2.028 . S
Mg322 O329 1.986 . S
Mg322 O331 2.114 . S
Mg322 O332 2.251 . S
Mg322 O335 2.010 . S
O323 Mg322 2.028 . S
O323 C326 1.250 . S
O324 Mg325 2.028 . S
O324 C326 1.248 . S
Mg325 O324 2.028 . S
Mg325 O330 2.032 . S
Mg325 O332 2.079 . S
C326 O323 1.250 . S
C326 O324 1.248 . S
C327 O328 1.264 . S
C327 O335 1.249 . S
O328 C327 1.264 . S
O329 Mg322 1.986 . S
O329 C333 1.246 . S
O330 Mg325 2.032 . S
O330 C333 1.259 . S
O331 Mg322 2.114 . S
O331 C334 1.252 . S
O332 Mg322 2.251 . S
O332 Mg325 2.079 . S
O332 C334 1.273 . S
C333 O329 1.246 . S
C333 O330 1.259 . S
C334 O331 1.252 . S
C334 O332 1.273 . S
O335 Mg322 2.010 . S
O335 C327 1.249 . S
Mg336 O337 2.028 . S
Mg336 O343 1.986 . S
Mg336 O345 2.114 . S
Mg336 O346 2.251 . S
Mg336 O349 2.010 . S
O337 Mg336 2.028 . S
O337 C340 1.250 . S
O338 Mg339 2.028 . S
O338 C340 1.248 . S
Mg339 O338 2.028 . S
Mg339 O344 2.032 . S
Mg339 O346 2.079 . S
C340 O337 1.250 . S
C340 O338 1.248 . S
C341 O342 1.264 . S
C341 O349 1.249 . S
O342 C341 1.264 . S
O343 Mg336 1.986 . S
O343 C347 1.246 . S
O344 Mg339 2.032 . S
O344 C347 1.259 . S
O345 Mg336 2.114 . S
O345 C348 1.252 . S
O346 Mg336 2.251 . S
O346 Mg339 2.079 . S
O346 C348 1.273 . S
C347 O343 1.246 . S
C347 O344 1.259 . S
C348 O345 1.252 . S
C348 O346 1.273 . S
O349 Mg336 2.010 . S
O349 C341 1.249 . S
Mg350 O351 2.028 . S
Mg350 O357 1.986 . S
Mg350 O359 2.114 . S
Mg350 O360 2.251 . S
Mg350 O363 2.010 . S
O351 Mg350 2.028 . S
O351 C354 1.250 . S
O352 Mg353 2.028 . S
O352 C354 1.248 . S
Mg353 O352 2.028 . S
Mg353 O358 2.032 . S
Mg353 O360 2.079 . S
C354 O351 1.250 . S
C354 O352 1.248 . S
C355 O356 1.264 . S
C355 O363 1.249 . S
O356 C355 1.264 . S
O357 Mg350 1.986 . S
O357 C361 1.246 . S
O358 Mg353 2.032 . S
O358 C361 1.259 . S
O359 Mg350 2.114 . S
O359 C362 1.252 . S
O360 Mg350 2.251 . S
O360 Mg353 2.079 . S
O360 C362 1.273 . S
C361 O357 1.246 . S
C361 O358 1.259 . S
C362 O359 1.252 . S
C362 O360 1.273 . S
O363 Mg350 2.010 . S
O363 C355 1.249 . S
Mg364 O365 2.028 . S
Mg364 O371 1.986 . S
Mg364 O373 2.114 . S
Mg364 O374 2.251 . S
Mg364 O377 2.010 . S
O365 Mg364 2.028 . S
O365 C368 1.250 . S
O366 Mg367 2.028 . S
O366 C368 1.248 . S
Mg367 O366 2.028 . S
Mg367 O372 2.032 . S
Mg367 O374 2.079 . S
C368 O365 1.250 . S
C368 O366 1.248 . S
C369 O370 1.264 . S
C369 O377 1.249 . S
O370 C369 1.264 . S
O371 Mg364 1.986 . S
O371 C375 1.246 . S
O372 Mg367 2.032 . S
O372 C375 1.259 . S
O373 Mg364 2.114 . S
O373 C376 1.252 . S
O374 Mg364 2.251 . S
O374 Mg367 2.079 . S
O374 C376 1.273 . S
C375 O371 1.246 . S
C375 O372 1.259 . S
C376 O373 1.252 . S
C376 O374 1.273 . S
O377 Mg364 2.010 . S
O377 C369 1.249 . S
Mg378 O379 2.028 . S
Mg378 O385 1.986 . S
Mg378 O387 2.114 . S
Mg378 O388 2.251 . S
Mg378 O391 2.010 . S
O379 Mg378 2.028 . S
O379 C382 1.250 . S
O380 Mg381 2.028 . S
O380 C382 1.248 . S
Mg381 O380 2.028 . S
Mg381 O386 2.032 . S
Mg381 O388 2.079 . S
C382 O379 1.250 . S
C382 O380 1.248 . S
C383 O384 1.264 . S
C383 O391 1.249 . S
O384 C383 1.264 . S
O385 Mg378 1.986 . S
O385 C389 1.246 . S
O386 Mg381 2.032 . S
O386 C389 1.259 . S
O387 Mg378 2.114 . S
O387 C390 1.252 . S
O388 Mg378 2.251 . S
O388 Mg381 2.079 . S
O388 C390 1.273 . S
C389 O385 1.246 . S
C389 O386 1.259 . S
C390 O387 1.252 . S
C390 O388 1.273 . S
O391 Mg378 2.010 . S
O391 C383 1.249 . S
Mg392 O393 2.028 . S
Mg392 O399 1.986 . S
Mg392 O401 2.114 . S
Mg392 O402 2.251 . S
Mg392 O405 2.010 . S
O393 Mg392 2.028 . S
O393 C396 1.250 . S
O394 Mg395 2.028 . S
O394 C396 1.248 . S
Mg395 O394 2.028 . S
Mg395 O400 2.032 . S
Mg395 O402 2.079 . S
C396 O393 1.250 . S
C396 O394 1.248 . S
C397 O398 1.264 . S
C397 O405 1.249 . S
O398 C397 1.264 . S
O399 Mg392 1.986 . S
O399 C403 1.246 . S
O400 Mg395 2.032 . S
O400 C403 1.259 . S
O401 Mg392 2.114 . S
O401 C404 1.252 . S
O402 Mg392 2.251 . S
O402 Mg395 2.079 . S
O402 C404 1.273 . S
C403 O399 1.246 . S
C403 O400 1.259 . S
C404 O401 1.252 . S
C404 O402 1.273 . S
O405 Mg392 2.010 . S
O405 C397 1.249 . S
Mg406 O407 2.028 . S
Mg406 O413 1.986 . S
Mg406 O415 2.114 . S
Mg406 O416 2.251 . S
Mg406 O419 2.010 . S
O407 Mg406 2.028 . S
O407 C410 1.250 . S
O408 Mg409 2.028 . S
O408 C410 1.248 . S
Mg409 O408 2.028 . S
Mg409 O414 2.032 . S
Mg409 O416 2.079 . S
C410 O407 1.250 . S
C410 O408 1.248 . S
C411 O412 1.264 . S
C411 O419 1.249 . S
O412 C411 1.264 . S
O413 Mg406 1.986 . S
O413 C417 1.246 . S
O414 Mg409 2.032 . S
O414 C417 1.259 . S
O415 Mg406 2.114 . S
O415 C418 1.252 . S
O416 Mg406 2.251 . S
O416 Mg409 2.079 . S
O416 C418 1.273 . S
C417 O413 1.246 . S
C417 O414 1.259 . S
C418 O415 1.252 . S
C418 O416 1.273 . S
O419 Mg406 2.010 . S
O419 C411 1.249 . S
Mg420 O421 2.028 . S
Mg420 O427 1.986 . S
Mg420 O429 2.114 . S
Mg420 O430 2.251 . S
Mg420 O433 2.010 . S
O421 Mg420 2.028 . S
O421 C424 1.250 . S
O422 Mg423 2.028 . S
O422 C424 1.248 . S
Mg423 O422 2.028 . S
Mg423 O428 2.032 . S
Mg423 O430 2.079 . S
C424 O421 1.250 . S
C424 O422 1.248 . S
C425 O426 1.264 . S
C425 O433 1.249 . S
O426 C425 1.264 . S
O427 Mg420 1.986 . S
O427 C431 1.246 . S
O428 Mg423 2.032 . S
O428 C431 1.259 . S
O429 Mg420 2.114 . S
O429 C432 1.252 . S
O430 Mg420 2.251 . S
O430 Mg423 2.079 . S
O430 C432 1.273 . S
C431 O427 1.246 . S
C431 O428 1.259 . S
C432 O429 1.252 . S
C432 O430 1.273 . S
O433 Mg420 2.010 . S
O433 C425 1.249 . S
Mg434 O435 2.028 . S
Mg434 O441 1.986 . S
Mg434 O443 2.114 . S
Mg434 O444 2.251 . S
Mg434 O447 2.010 . S
O435 Mg434 2.028 . S
O435 C438 1.250 . S
O436 Mg437 2.028 . S
O436 C438 1.248 . S
Mg437 O436 2.028 . S
Mg437 O442 2.032 . S
Mg437 O444 2.079 . S
C438 O435 1.250 . S
C438 O436 1.248 . S
C439 O440 1.264 . S
C439 O447 1.249 . S
O440 C439 1.264 . S
O441 Mg434 1.986 . S
O441 C445 1.246 . S
O442 Mg437 2.032 . S
O442 C445 1.259 . S
O443 Mg434 2.114 . S
O443 C446 1.252 . S
O444 Mg434 2.251 . S
O444 Mg437 2.079 . S
O444 C446 1.273 . S
C445 O441 1.246 . S
C445 O442 1.259 . S
C446 O443 1.252 . S
C446 O444 1.273 . S
O447 Mg434 2.010 . S
O447 C439 1.249 . S
Mg448 O449 2.028 . S
Mg448 O455 1.986 . S
Mg448 O457 2.114 . S
Mg448 O458 2.251 . S
Mg448 O461 2.010 . S
O449 Mg448 2.028 . S
O449 C452 1.250 . S
O450 Mg451 2.028 . S
O450 C452 1.248 . S
Mg451 O450 2.028 . S
Mg451 O456 2.032 . S
Mg451 O458 2.079 . S
C452 O449 1.250 . S
C452 O450 1.248 . S
C453 O454 1.264 . S
C453 O461 1.249 . S
O454 C453 1.264 . S
O455 Mg448 1.986 . S
O455 C459 1.246 . S
O456 Mg451 2.032 . S
O456 C459 1.259 . S
O457 Mg448 2.114 . S
O457 C460 1.252 . S
O458 Mg448 2.251 . S
O458 Mg451 2.079 . S
O458 C460 1.273 . S
C459 O455 1.246 . S
C459 O456 1.259 . S
C460 O457 1.252 . S
C460 O458 1.273 . S
O461 Mg448 2.010 . S
O461 C453 1.249 . S
Mg462 O463 2.028 . S
Mg462 O469 1.986 . S
Mg462 O471 2.114 . S
Mg462 O472 2.251 . S
Mg462 O475 2.010 . S
O463 Mg462 2.028 . S
O463 C466 1.250 . S
O464 Mg465 2.028 . S
O464 C466 1.248 . S
Mg465 O464 2.028 . S
Mg465 O470 2.032 . S
Mg465 O472 2.079 . S
C466 O463 1.250 . S
C466 O464 1.248 . S
C467 O468 1.264 . S
C467 O475 1.249 . S
O468 C467 1.264 . S
O469 Mg462 1.986 . S
O469 C473 1.246 . S
O470 Mg465 2.032 . S
O470 C473 1.259 . S
O471 Mg462 2.114 . S
O471 C474 1.252 . S
O472 Mg462 2.251 . S
O472 Mg465 2.079 . S
O472 C474 1.273 . S
C473 O469 1.246 . S
C473 O470 1.259 . S
C474 O471 1.252 . S
C474 O472 1.273 . S
O475 Mg462 2.010 . S
O475 C467 1.249 . S
Mg476 O477 2.028 . S
Mg476 O483 1.986 . S
Mg476 O485 2.114 . S
Mg476 O486 2.251 . S
Mg476 O489 2.010 . S
O477 Mg476 2.028 . S
O477 C480 1.250 . S
O478 Mg479 2.028 . S
O478 C480 1.248 . S
Mg479 O478 2.028 . S
Mg479 O484 2.032 . S
Mg479 O486 2.079 . S
C480 O477 1.250 . S
C480 O478 1.248 . S
C481 O482 1.264 . S
C481 O489 1.249 . S
O482 C481 1.264 . S
O483 Mg476 1.986 . S
O483 C487 1.246 . S
O484 Mg479 2.032 . S
O484 C487 1.259 . S
O485 Mg476 2.114 . S
O485 C488 1.252 . S
O486 Mg476 2.251 . S
O486 Mg479 2.079 . S
O486 C488 1.273 . S
C487 O483 1.246 . S
C487 O484 1.259 . S
C488 O485 1.252 . S
C488 O486 1.273 . S
O489 Mg476 2.010 . S
O489 C481 1.249 . S
Mg490 O491 2.028 . S
Mg490 O497 1.986 . S
Mg490 O499 2.114 . S
Mg490 O500 2.251 . S
Mg490 O503 2.010 . S
O491 Mg490 2.028 . S
O491 C494 1.250 . S
O492 Mg493 2.028 . S
O492 C494 1.248 . S
Mg493 O492 2.028 . S
Mg493 O498 2.032 . S
Mg493 O500 2.079 . S
C494 O491 1.250 . S
C494 O492 1.248 . S
C495 O496 1.264 . S
C495 O503 1.249 . S
O496 C495 1.264 . S
O497 Mg490 1.986 . S
O497 C501 1.246 . S
O498 Mg493 2.032 . S
O498 C501 1.259 . S
O499 Mg490 2.114 . S
O499 C502 1.252 . S
O500 Mg490 2.251 . S
O500 Mg493 2.079 . S
O500 C502 1.273 . S
C501 O497 1.246 . S
C501 O498 1.259 . S
C502 O499 1.252 . S
C502 O500 1.273 . S
O503 Mg490 2.010 . S
O503 C495 1.249 . S
Mg504 O505 2.028 . S
Mg504 O511 1.986 . S
Mg504 O513 2.114 . S
Mg504 O514 2.251 . S
Mg504 O517 2.010 . S
O505 Mg504 2.028 . S
O505 C508 1.250 . S
O506 Mg507 2.028 . S
O506 C508 1.248 . S
Mg507 O506 2.028 . S
Mg507 O512 2.032 . S
Mg507 O514 2.079 . S
C508 O505 1.250 . S
C508 O506 1.248 . S
C509 O510 1.264 . S
C509 O517 1.249 . S
O510 C509 1.264 . S
O511 Mg504 1.986 . S
O511 C515 1.246 . S
O512 Mg507 2.032 . S
O512 C515 1.259 . S
O513 Mg504 2.114 . S
O513 C516 1.252 . S
O514 Mg504 2.251 . S
O514 Mg507 2.079 . S
O514 C516 1.273 . S
C515 O511 1.246 . S
C515 O512 1.259 . S
C516 O513 1.252 . S
C516 O514 1.273 . S
O517 Mg504 2.010 . S
O517 C509 1.249 . S
Mg518 O519 2.028 . S
Mg518 O525 1.986 . S
Mg518 O527 2.114 . S
Mg518 O528 2.251 . S
Mg518 O531 2.010 . S
O519 Mg518 2.028 . S
O519 C522 1.250 . S
O520 Mg521 2.028 . S
O520 C522 1.248 . S
Mg521 O520 2.028 . S
Mg521 O526 2.032 . S
Mg521 O528 2.079 . S
C522 O519 1.250 . S
C522 O520 1.248 . S
C523 O524 1.264 . S
C523 O531 1.249 . S
O524 C523 1.264 . S
O525 Mg518 1.986 . S
O525 C529 1.246 . S
O526 Mg521 2.032 . S
O526 C529 1.259 . S
O527 Mg518 2.114 . S
O527 C530 1.252 . S
O528 Mg518 2.251 . S
O528 Mg521 2.079 . S
O528 C530 1.273 . S
C529 O525 1.246 . S
C529 O526 1.259 . S
C530 O527 1.252 . S
C530 O528 1.273 . S
O531 Mg518 2.010 . S
O531 C523 1.249 . S
Mg532 O533 2.028 . S
Mg532 O539 1.986 . S
Mg532 O541 2.114 . S
Mg532 O542 2.251 . S
Mg532 O545 2.010 . S
O533 Mg532 2.028 . S
O533 C536 1.250 . S
O534 Mg535 2.028 . S
O534 C536 1.248 . S
Mg535 O534 2.028 . S
Mg535 O540 2.032 . S
Mg535 O542 2.079 . S
C536 O533 1.250 . S
C536 O534 1.248 . S
C537 O538 1.264 . S
C537 O545 1.249 . S
O538 C537 1.264 . S
O539 Mg532 1.986 . S
O539 C543 1.246 . S
O540 Mg535 2.032 . S
O540 C543 1.259 . S
O541 Mg532 2.114 . S
O541 C544 1.252 . S
O542 Mg532 2.251 . S
O542 Mg535 2.079 . S
O542 C544 1.273 . S
C543 O539 1.246 . S
C543 O540 1.259 . S
C544 O541 1.252 . S
C544 O542 1.273 . S
O545 Mg532 2.010 . S
O545 C537 1.249 . S
Mg546 O547 2.028 . S
Mg546 O553 1.986 . S
Mg546 O555 2.114 . S
Mg546 O556 2.251 . S
Mg546 O559 2.010 . S
O547 Mg546 2.028 . S
O547 C550 1.250 . S
O548 Mg549 2.028 . S
O548 C550 1.248 . S
Mg549 O548 2.028 . S
Mg549 O554 2.032 . S
Mg549 O556 2.079 . S
C550 O547 1.250 . S
C550 O548 1.248 . S
C551 O552 1.264 . S
C551 O559 1.249 . S
O552 C551 1.264 . S
O553 Mg546 1.986 . S
O553 C557 1.246 . S
O554 Mg549 2.032 . S
O554 C557 1.259 . S
O555 Mg546 2.114 . S
O555 C558 1.252 . S
O556 Mg546 2.251 . S
O556 Mg549 2.079 . S
O556 C558 1.273 . S
C557 O553 1.246 . S
C557 O554 1.259 . S
C558 O555 1.252 . S
C558 O556 1.273 . S
O559 Mg546 2.010 . S
O559 C551 1.249 . S
Mg560 O561 2.028 . S
Mg560 O567 1.986 . S
Mg560 O569 2.114 . S
Mg560 O570 2.251 . S
Mg560 O573 2.010 . S
O561 Mg560 2.028 . S
O561 C564 1.250 . S
O562 Mg563 2.028 . S
O562 C564 1.248 . S
Mg563 O562 2.028 . S
Mg563 O568 2.032 . S
Mg563 O570 2.079 . S
C564 O561 1.250 . S
C564 O562 1.248 . S
C565 O566 1.264 . S
C565 O573 1.249 . S
O566 C565 1.264 . S
O567 Mg560 1.986 . S
O567 C571 1.246 . S
O568 Mg563 2.032 . S
O568 C571 1.259 . S
O569 Mg560 2.114 . S
O569 C572 1.252 . S
O570 Mg560 2.251 . S
O570 Mg563 2.079 . S
O570 C572 1.273 . S
C571 O567 1.246 . S
C571 O568 1.259 . S
C572 O569 1.252 . S
C572 O570 1.273 . S
O573 Mg560 2.010 . S
O573 C565 1.249 . S
Mg574 O575 2.028 . S
Mg574 O581 1.986 . S
Mg574 O583 2.114 . S
Mg574 O584 2.251 . S
Mg574 O587 2.010 . S
O575 Mg574 2.028 . S
O575 C578 1.250 . S
O576 Mg577 2.028 . S
O576 C578 1.248 . S
Mg577 O576 2.028 . S
Mg577 O582 2.032 . S
Mg577 O584 2.079 . S
C578 O575 1.250 . S
C578 O576 1.248 . S
C579 O580 1.264 . S
C579 O587 1.249 . S
O580 C579 1.264 . S
O581 Mg574 1.986 . S
O581 C585 1.246 . S
O582 Mg577 2.032 . S
O582 C585 1.259 . S
O583 Mg574 2.114 . S
O583 C586 1.252 . S
O584 Mg574 2.251 . S
O584 Mg577 2.079 . S
O584 C586 1.273 . S
C585 O581 1.246 . S
C585 O582 1.259 . S
C586 O583 1.252 . S
C586 O584 1.273 . S
O587 Mg574 2.010 . S
O587 C579 1.249 . S
Mg588 O589 2.028 . S
Mg588 O595 1.986 . S
Mg588 O597 2.114 . S
Mg588 O598 2.251 . S
Mg588 O601 2.010 . S
O589 Mg588 2.028 . S
O589 C592 1.250 . S
O590 Mg591 2.028 . S
O590 C592 1.248 . S
Mg591 O590 2.028 . S
Mg591 O596 2.032 . S
Mg591 O598 2.079 . S
C592 O589 1.250 . S
C592 O590 1.248 . S
C593 O594 1.264 . S
C593 O601 1.249 . S
O594 C593 1.264 . S
O595 Mg588 1.986 . S
O595 C599 1.246 . S
O596 Mg591 2.032 . S
O596 C599 1.259 . S
O597 Mg588 2.114 . S
O597 C600 1.252 . S
O598 Mg588 2.251 . S
O598 Mg591 2.079 . S
O598 C600 1.273 . S
C599 O595 1.246 . S
C599 O596 1.259 . S
C600 O597 1.252 . S
C600 O598 1.273 . S
O601 Mg588 2.010 . S
O601 C593 1.249 . S
Mg602 O603 2.028 . S
Mg602 O609 1.986 . S
Mg602 O611 2.114 . S
Mg602 O612 2.251 . S
Mg602 O615 2.010 . S
O603 Mg602 2.028 . S
O603 C606 1.250 . S
O604 Mg605 2.028 . S
O604 C606 1.248 . S
Mg605 O604 2.028 . S
Mg605 O610 2.032 . S
Mg605 O612 2.079 . S
C606 O603 1.250 . S
C606 O604 1.248 . S
C607 O608 1.264 . S
C607 O615 1.249 . S
O608 C607 1.264 . S
O609 Mg602 1.986 . S
O609 C613 1.246 . S
O610 Mg605 2.032 . S
O610 C613 1.259 . S
O611 Mg602 2.114 . S
O611 C614 1.252 . S
O612 Mg602 2.251 . S
O612 Mg605 2.079 . S
O612 C614 1.273 . S
C613 O609 1.246 . S
C613 O610 1.259 . S
C614 O611 1.252 . S
C614 O612 1.273 . S
O615 Mg602 2.010 . S
O615 C607 1.249 . S
Mg616 O617 2.028 . S
Mg616 O623 1.986 . S
Mg616 O625 2.114 . S
Mg616 O626 2.251 . S
Mg616 O629 2.010 . S
O617 Mg616 2.028 . S
O617 C620 1.250 . S
O618 Mg619 2.028 . S
O618 C620 1.248 . S
Mg619 O618 2.028 . S
Mg619 O624 2.032 . S
Mg619 O626 2.079 . S
C620 O617 1.250 . S
C620 O618 1.248 . S
C621 O622 1.264 . S
C621 O629 1.249 . S
O622 C621 1.264 . S
O623 Mg616 1.986 . S
O623 C627 1.246 . S
O624 Mg619 2.032 . S
O624 C627 1.259 . S
O625 Mg616 2.114 . S
O625 C628 1.252 . S
O626 Mg616 2.251 . S
O626 Mg619 2.079 . S
O626 C628 1.273 . S
C627 O623 1.246 . S
C627 O624 1.259 . S
C628 O625 1.252 . S
C628 O626 1.273 . S
O629 Mg616 2.010 . S
O629 C621 1.249 . S
Mg630 O631 2.028 . S
Mg630 O637 1.986 . S
Mg630 O639 2.114 . S
Mg630 O640 2.251 . S
Mg630 O643 2.010 . S
O631 Mg630 2.028 . S
O631 C634 1.250 . S
O632 Mg633 2.028 . S
O632 C634 1.248 . S
Mg633 O632 2.028 . S
Mg633 O638 2.032 . S
Mg633 O640 2.079 . S
C634 O631 1.250 . S
C634 O632 1.248 . S
C635 O636 1.264 . S
C635 O643 1.249 . S
O636 C635 1.264 . S
O637 Mg630 1.986 . S
O637 C641 1.246 . S
O638 Mg633 2.032 . S
O638 C641 1.259 . S
O639 Mg630 2.114 . S
O639 C642 1.252 . S
O640 Mg630 2.251 . S
O640 Mg633 2.079 . S
O640 C642 1.273 . S
C641 O637 1.246 . S
C641 O638 1.259 . S
C642 O639 1.252 . S
C642 O640 1.273 . S
O643 Mg630 2.010 . S
O643 C635 1.249 . S
Mg644 O645 2.028 . S
Mg644 O651 1.986 . S
Mg644 O653 2.114 . S
Mg644 O654 2.251 . S
Mg644 O657 2.010 . S
O645 Mg644 2.028 . S
O645 C648 1.250 . S
O646 Mg647 2.028 . S
O646 C648 1.248 . S
Mg647 O646 2.028 . S
Mg647 O652 2.032 . S
Mg647 O654 2.079 . S
C648 O645 1.250 . S
C648 O646 1.248 . S
C649 O650 1.264 . S
C649 O657 1.249 . S
O650 C649 1.264 . S
O651 Mg644 1.986 . S
O651 C655 1.246 . S
O652 Mg647 2.032 . S
O652 C655 1.259 . S
O653 Mg644 2.114 . S
O653 C656 1.252 . S
O654 Mg644 2.251 . S
O654 Mg647 2.079 . S
O654 C656 1.273 . S
C655 O651 1.246 . S
C655 O652 1.259 . S
C656 O653 1.252 . S
C656 O654 1.273 . S
O657 Mg644 2.010 . S
O657 C649 1.249 . S
Mg658 O659 2.028 . S
Mg658 O665 1.986 . S
Mg658 O667 2.114 . S
Mg658 O668 2.251 . S
Mg658 O671 2.010 . S
O659 Mg658 2.028 . S
O659 C662 1.250 . S
O660 Mg661 2.028 . S
O660 C662 1.248 . S
Mg661 O660 2.028 . S
Mg661 O666 2.032 . S
Mg661 O668 2.079 . S
C662 O659 1.250 . S
C662 O660 1.248 . S
C663 O664 1.264 . S
C663 O671 1.249 . S
O664 C663 1.264 . S
O665 Mg658 1.986 . S
O665 C669 1.246 . S
O666 Mg661 2.032 . S
O666 C669 1.259 . S
O667 Mg658 2.114 . S
O667 C670 1.252 . S
O668 Mg658 2.251 . S
O668 Mg661 2.079 . S
O668 C670 1.273 . S
C669 O665 1.246 . S
C669 O666 1.259 . S
C670 O667 1.252 . S
C670 O668 1.273 . S
O671 Mg658 2.010 . S
O671 C663 1.249 . S
H672 C680 0.929 . S
H673 C682 0.930 . S
H674 C684 0.930 . S
H675 C687 0.929 . S
H676 C690 0.930 . S
H677 C692 0.960 . S
H678 C692 0.960 . S
H679 C692 0.960 . S
C680 H672 0.929 . S
C680 C681 1.377 . S
C680 C682 1.384 . S
C681 C680 1.377 . S
C681 C687 1.390 . S
C682 H673 0.930 . S
C682 C680 1.384 . S
C682 C683 1.372 . S
C683 C682 1.372 . S
C683 C684 1.400 . S
C683 C688 1.490 . S
C684 H674 0.930 . S
C684 C683 1.400 . S
C684 C687 1.386 . S
H685 C701 0.959 . S
H686 C702 0.931 . S
C687 H675 0.929 . S
C687 C681 1.390 . S
C687 C684 1.386 . S
C688 C683 1.490 . S
C688 C690 1.395 . S
C688 C691 1.403 . S
H689 C695 0.930 . S
C690 H676 0.930 . S
C690 C688 1.395 . S
C690 C693 1.403 . S
C691 C688 1.403 . S
C691 C692 1.524 . S
C691 C695 1.400 . S
C692 H677 0.960 . S
C692 H678 0.960 . S
C692 H679 0.960 . S
C692 C691 1.524 . S
C693 C690 1.403 . S
C693 C694 1.392 . S
C693 C697 1.495 . S
C694 C693 1.392 . S
C694 C695 1.385 . S
C694 C696 1.478 . S
C695 H689 0.930 . S
C695 C691 1.400 . S
C695 C694 1.385 . S
C696 C694 1.478 . S
C696 C698 1.381 . S
C696 C702 1.383 . S
C697 C693 1.495 . S
C697 H703 0.959 . S
C697 H704 0.961 . S
C697 H705 0.960 . S
C698 C696 1.381 . S
C698 C699 1.394 . S
C698 H706 0.930 . S
C699 C698 1.394 . S
C699 C700 1.383 . S
C699 H707 0.929 . S
C700 C699 1.383 . S
C700 C701 1.364 1_455 S
C701 H685 0.959 . S
C701 C700 1.364 1_655 S
C701 C702 1.364 1_655 S
C702 H686 0.931 . S
C702 C696 1.383 . S
C702 C701 1.364 1_455 S
H703 C697 0.959 . S
H704 C697 0.961 . S
H705 C697 0.960 . S
H706 C698 0.930 . S
H707 C699 0.929 . S
H708 C716 0.929 . S
H709 C718 0.930 . S
H710 C720 0.930 . S
H711 C723 0.929 . S
H712 C726 0.930 . S
H713 C728 0.960 . S
H714 C728 0.960 . S
H715 C728 0.960 . S
C716 H708 0.929 . S
C716 C717 1.377 . S
C716 C718 1.384 . S
C717 C716 1.377 . S
C717 C723 1.390 . S
C718 H709 0.930 . S
C718 C716 1.384 . S
C718 C719 1.372 . S
C719 C718 1.372 . S
C719 C720 1.400 . S
C719 C724 1.490 . S
C720 H710 0.930 . S
C720 C719 1.400 . S
C720 C723 1.386 . S
H721 C737 0.930 . S
H722 C738 0.931 . S
C723 H711 0.929 . S
C723 C717 1.390 . S
C723 C720 1.386 . S
C724 C719 1.490 . S
C724 C726 1.395 . S
C724 C727 1.403 . S
H725 C731 0.930 . S
C726 H712 0.930 . S
C726 C724 1.395 . S
C726 C729 1.403 . S
C727 C724 1.403 . S
C727 C728 1.524 . S
C727 C731 1.400 . S
C728 H713 0.960 . S
C728 H714 0.960 . S
C728 H715 0.960 . S
C728 C727 1.524 . S
C729 C726 1.403 . S
C729 C730 1.392 . S
C729 C733 1.495 . S
C730 C729 1.392 . S
C730 C731 1.385 . S
C730 C732 1.478 . S
C731 H725 0.930 . S
C731 C727 1.400 . S
C731 C730 1.385 . S
C732 C730 1.478 . S
C732 C734 1.381 . S
C732 C738 1.383 . S
C733 C729 1.495 . S
C733 H739 0.959 . S
C733 H740 0.961 . S
C733 H741 0.960 . S
C734 C732 1.381 . S
C734 C735 1.394 . S
C734 H742 0.930 . S
C735 C734 1.394 . S
C735 C736 1.383 . S
C735 H743 0.956 . S
C736 C735 1.383 . S
C736 C737 1.377 . S
C737 H721 0.930 . S
C737 C736 1.377 . S
C737 C738 1.379 . S
C738 H722 0.931 . S
C738 C732 1.383 . S
C738 C737 1.379 . S
H739 C733 0.959 . S
H740 C733 0.961 . S
H741 C733 0.960 . S
H742 C734 0.930 . S
H743 C735 0.956 . S
H744 C752 0.929 . S
H745 C754 0.930 . S
H746 C756 0.930 . S
H747 C759 0.929 . S
H748 C762 0.930 . S
H749 C764 0.960 . S
H750 C764 0.960 . S
H751 C764 0.960 . S
C752 H744 0.929 . S
C752 C753 1.377 . S
C752 C754 1.384 . S
C753 C752 1.377 . S
C753 C759 1.390 . S
C754 H745 0.930 . S
C754 C752 1.384 . S
C754 C755 1.372 . S
C755 C754 1.372 . S
C755 C756 1.400 . S
C755 C760 1.490 . S
C756 H746 0.930 . S
C756 C755 1.400 . S
C756 C759 1.386 . S
H757 C773 0.930 1_655 S
H758 C774 0.931 . S
C759 H747 0.929 . S
C759 C753 1.390 . S
C759 C756 1.386 . S
C760 C755 1.490 . S
C760 C762 1.395 . S
C760 C763 1.403 . S
H761 C767 0.930 . S
C762 H748 0.930 . S
C762 C760 1.395 . S
C762 C765 1.403 . S
C763 C760 1.403 . S
C763 C764 1.524 . S
C763 C767 1.400 . S
C764 H749 0.960 . S
C764 H750 0.960 . S
C764 H751 0.960 . S
C764 C763 1.524 . S
C765 C762 1.403 . S
C765 C766 1.392 . S
C765 C769 1.495 . S
C766 C765 1.392 . S
C766 C767 1.385 . S
C766 C768 1.478 . S
C767 H761 0.930 . S
C767 C763 1.400 . S
C767 C766 1.385 . S
C768 C766 1.478 . S
C768 C770 1.381 . S
C768 C774 1.383 . S
C769 C765 1.495 . S
C769 H775 0.959 . S
C769 H776 0.961 . S
C769 H777 0.960 . S
C770 C768 1.381 . S
C770 C771 1.394 . S
C770 H778 0.930 . S
C771 C770 1.394 . S
C771 C772 1.383 . S
C771 H779 0.929 . S
C772 C771 1.383 . S
C772 C773 1.377 . S
C773 H757 0.930 1_455 S
C773 C772 1.377 . S
C773 C774 1.379 . S
C774 H758 0.931 . S
C774 C768 1.383 . S
C774 C773 1.379 . S
H775 C769 0.959 . S
H776 C769 0.961 . S
H777 C769 0.960 . S
H778 C770 0.930 . S
H779 C771 0.929 . S
H780 C788 0.929 . S
H781 C790 0.930 . S
H782 C792 0.930 . S
H783 C795 0.929 . S
H784 C798 0.930 . S
H785 C800 0.960 . S
H786 C800 0.960 . S
H787 C800 0.960 . S
C788 H780 0.929 . S
C788 C789 1.377 . S
C788 C790 1.384 . S
C789 C788 1.377 . S
C789 C795 1.390 . S
C790 H781 0.930 . S
C790 C788 1.384 . S
C790 C791 1.372 . S
C791 C790 1.372 . S
C791 C792 1.400 . S
C791 C796 1.490 . S
C792 H782 0.930 . S
C792 C791 1.400 . S
C792 C795 1.386 . S
H793 C809 0.930 1_565 S
H794 C810 0.931 . S
C795 H783 0.929 . S
C795 C789 1.390 . S
C795 C792 1.386 . S
C796 C791 1.490 . S
C796 C798 1.395 . S
C796 C799 1.403 . S
H797 C803 0.930 . S
C798 H784 0.930 . S
C798 C796 1.395 . S
C798 C801 1.403 . S
C799 C796 1.403 . S
C799 C800 1.524 . S
C799 C803 1.400 . S
C800 H785 0.960 . S
C800 H786 0.960 . S
C800 H787 0.960 . S
C800 C799 1.524 . S
C801 C798 1.403 . S
C801 C802 1.392 . S
C801 C805 1.495 . S
C802 C801 1.392 . S
C802 C803 1.385 . S
C802 C804 1.478 . S
C803 H797 0.930 . S
C803 C799 1.400 . S
C803 C802 1.385 . S
C804 C802 1.478 . S
C804 C806 1.381 . S
C804 C810 1.383 . S
C805 C801 1.495 . S
C805 H811 0.959 . S
C805 H812 0.961 . S
C805 H813 0.960 . S
C806 C804 1.381 . S
C806 C807 1.394 . S
C806 H814 0.930 . S
C807 C806 1.394 . S
C807 C808 1.383 . S
C807 H815 0.929 . S
C808 C807 1.383 . S
C808 C809 1.377 . S
C809 H793 0.930 1_545 S
C809 C808 1.377 . S
C809 C810 1.379 . S
C810 H794 0.931 . S
C810 C804 1.383 . S
C810 C809 1.379 . S
H811 C805 0.959 . S
H812 C805 0.961 . S
H813 C805 0.960 . S
H814 C806 0.930 . S
H815 C807 0.929 . S
H816 C824 0.929 . S
H817 C826 0.930 . S
H818 C828 0.930 . S
H819 C831 0.929 . S
H820 C834 0.930 . S
H821 C836 0.960 . S
H822 C836 0.960 . S
H823 C836 0.960 . S
C824 H816 0.929 . S
C824 C825 1.377 . S
C824 C826 1.384 . S
C825 C824 1.377 . S
C825 C831 1.390 . S
C826 H817 0.930 . S
C826 C824 1.384 . S
C826 C827 1.372 . S
C827 C826 1.372 . S
C827 C828 1.400 . S
C827 C832 1.490 . S
C828 H818 0.930 . S
C828 C827 1.400 . S
C828 C831 1.386 . S
H829 C845 0.930 . S
H830 C846 0.931 . S
C831 H819 0.929 . S
C831 C825 1.390 . S
C831 C828 1.386 . S
C832 C827 1.490 . S
C832 C834 1.395 . S
C832 C835 1.403 . S
H833 C839 0.930 . S
C834 H820 0.930 . S
C834 C832 1.395 . S
C834 C837 1.403 . S
C835 C832 1.403 . S
C835 C836 1.524 . S
C835 C839 1.400 . S
C836 H821 0.960 . S
C836 H822 0.960 . S
C836 H823 0.960 . S
C836 C835 1.524 . S
C837 C834 1.403 . S
C837 C838 1.392 . S
C837 C841 1.495 . S
C838 C837 1.392 . S
C838 C839 1.385 . S
C838 C840 1.478 . S
C839 H833 0.930 . S
C839 C835 1.400 . S
C839 C838 1.385 . S
C840 C838 1.478 . S
C840 C842 1.381 . S
C840 C846 1.383 . S
C841 C837 1.495 . S
C841 H847 0.959 . S
C841 H848 0.961 . S
C841 H849 0.960 . S
C842 C840 1.381 . S
C842 C843 1.394 . S
C842 H850 0.930 . S
C843 C842 1.394 . S
C843 C844 1.383 . S
C843 H851 0.929 . S
C844 C843 1.383 . S
C844 C845 1.377 . S
C845 H829 0.930 . S
C845 C844 1.377 . S
C845 C846 1.379 . S
C846 H830 0.931 . S
C846 C840 1.383 . S
C846 C845 1.379 . S
H847 C841 0.959 . S
H848 C841 0.961 . S
H849 C841 0.960 . S
H850 C842 0.930 . S
H851 C843 0.929 . S
H852 C860 0.929 . S
H853 C862 0.904 1_655 S
H854 C864 0.930 . S
H855 C867 0.929 . S
H856 C870 0.930 . S
H857 C872 0.960 . S
H858 C872 0.960 . S
H859 C872 0.960 . S
C860 H852 0.929 . S
C860 C861 1.377 1_655 S
C860 C862 1.384 1_655 S
C861 C860 1.377 1_455 S
C861 C867 1.390 . S
C862 H853 0.904 1_455 S
C862 C860 1.384 1_455 S
C862 C863 1.372 . S
C863 C862 1.372 . S
C863 C864 1.400 . S
C863 C868 1.490 . S
C864 H854 0.930 . S
C864 C863 1.400 . S
C864 C867 1.386 . S
H865 C881 0.930 . S
H866 C882 0.931 . S
C867 H855 0.929 . S
C867 C861 1.390 . S
C867 C864 1.386 . S
C868 C863 1.490 . S
C868 C870 1.395 . S
C868 C871 1.403 . S
H869 C875 0.930 . S
C870 H856 0.930 . S
C870 C868 1.395 . S
C870 C873 1.403 . S
C871 C868 1.403 . S
C871 C872 1.524 . S
C871 C875 1.400 . S
C872 H857 0.960 . S
C872 H858 0.960 . S
C872 H859 0.960 . S
C872 C871 1.524 . S
C873 C870 1.403 . S
C873 C874 1.392 . S
C873 C877 1.495 . S
C874 C873 1.392 . S
C874 C875 1.385 . S
C874 C876 1.478 . S
C875 H869 0.930 . S
C875 C871 1.400 . S
C875 C874 1.385 . S
C876 C874 1.478 . S
C876 C878 1.381 . S
C876 C882 1.383 . S
C877 C873 1.495 . S
C877 H883 0.959 . S
C877 H884 0.961 . S
C877 H885 0.960 . S
C878 C876 1.381 . S
C878 C879 1.394 . S
C878 H886 0.930 . S
C879 C878 1.394 . S
C879 C880 1.383 . S
C879 H887 0.929 . S
C880 C879 1.383 . S
C880 C881 1.377 . S
C881 H865 0.930 . S
C881 C880 1.377 . S
C881 C882 1.379 . S
C882 H866 0.931 . S
C882 C876 1.383 . S
C882 C881 1.379 . S
H883 C877 0.959 . S
H884 C877 0.961 . S
H885 C877 0.960 . S
H886 C878 0.930 . S
H887 C879 0.929 . S
H888 C896 0.929 . S
H889 C898 0.930 . S
H890 C900 0.930 . S
H891 C903 0.965 . S
H892 C906 0.930 . S
H893 C908 0.960 . S
H894 C908 0.960 . S
H895 C908 0.960 . S
C896 H888 0.929 . S
C896 C897 1.377 . S
C896 C898 1.384 . S
C897 C896 1.377 . S
C897 C903 1.374 1_545 S
C898 H889 0.930 . S
C898 C896 1.384 . S
C898 C899 1.372 . S
C899 C898 1.372 . S
C899 C900 1.400 . S
C899 C904 1.490 . S
C900 H890 0.930 . S
C900 C899 1.400 . S
C900 C903 1.367 1_545 S
H901 C917 0.930 . S
H902 C918 0.931 . S
C903 H891 0.965 . S
C903 C897 1.374 1_565 S
C903 C900 1.367 1_565 S
C904 C899 1.490 . S
C904 C906 1.395 . S
C904 C907 1.403 . S
H905 C911 0.930 . S
C906 H892 0.930 . S
C906 C904 1.395 . S
C906 C909 1.403 . S
C907 C904 1.403 . S
C907 C908 1.524 . S
C907 C911 1.400 . S
C908 H893 0.960 . S
C908 H894 0.960 . S
C908 H895 0.960 . S
C908 C907 1.524 . S
C909 C906 1.403 . S
C909 C910 1.392 . S
C909 C913 1.495 . S
C910 C909 1.392 . S
C910 C911 1.385 . S
C910 C912 1.478 . S
C911 H905 0.930 . S
C911 C907 1.400 . S
C911 C910 1.385 . S
C912 C910 1.478 . S
C912 C914 1.381 . S
C912 C918 1.383 . S
C913 C909 1.495 . S
C913 H919 0.959 . S
C913 H920 0.961 . S
C913 H921 0.960 . S
C914 C912 1.381 . S
C914 C915 1.394 . S
C914 H922 0.930 . S
C915 C914 1.394 . S
C915 C916 1.383 . S
C915 H923 0.929 . S
C916 C915 1.383 . S
C916 C917 1.377 . S
C917 H901 0.930 . S
C917 C916 1.377 . S
C917 C918 1.379 . S
C918 H902 0.931 . S
C918 C912 1.383 . S
C918 C917 1.379 . S
H919 C913 0.959 . S
H920 C913 0.961 . S
H921 C913 0.960 . S
H922 C914 0.930 . S
H923 C915 0.929 . S
H924 C932 0.929 . S
H925 C934 0.930 . S
H926 C936 0.930 . S
H927 C939 0.929 . S
H928 C942 0.930 . S
H929 C944 0.960 . S
H930 C944 0.960 . S
H931 C944 0.960 . S
C932 H924 0.929 . S
C932 C933 1.377 . S
C932 C934 1.384 . S
C933 C932 1.377 . S
C933 C939 1.390 . S
C934 H925 0.930 . S
C934 C932 1.384 . S
C934 C935 1.372 . S
C935 C934 1.372 . S
C935 C936 1.400 . S
C935 C940 1.490 . S
C936 H926 0.930 . S
C936 C935 1.400 . S
C936 C939 1.386 . S
H937 C953 0.930 . S
H938 C954 0.931 . S
C939 H927 0.929 . S
C939 C933 1.390 . S
C939 C936 1.386 . S
C940 C935 1.490 . S
C940 C942 1.395 . S
C940 C943 1.403 . S
H941 C947 0.930 . S
C942 H928 0.930 . S
C942 C940 1.395 . S
C942 C945 1.403 . S
C943 C940 1.403 . S
C943 C944 1.524 . S
C943 C947 1.400 . S
C944 H929 0.960 . S
C944 H930 0.960 . S
C944 H931 0.960 . S
C944 C943 1.524 . S
C945 C942 1.403 . S
C945 C946 1.392 . S
C945 C949 1.495 . S
C946 C945 1.392 . S
C946 C947 1.385 . S
C946 C948 1.478 . S
C947 H941 0.930 . S
C947 C943 1.400 . S
C947 C946 1.385 . S
C948 C946 1.478 . S
C948 C950 1.381 . S
C948 C954 1.383 . S
C949 C945 1.495 . S
C949 H955 0.959 . S
C949 H956 0.961 . S
C949 H957 0.960 1_455 S
C950 C948 1.381 . S
C950 C951 1.394 1_455 S
C950 H958 0.944 . S
C951 C950 1.394 1_655 S
C951 C952 1.383 1_655 S
C951 H959 0.929 . S
C952 C951 1.383 1_455 S
C952 C953 1.377 . S
C953 H937 0.930 . S
C953 C952 1.377 . S
C953 C954 1.379 . S
C954 H938 0.931 . S
C954 C948 1.383 . S
C954 C953 1.379 . S
H955 C949 0.959 . S
H956 C949 0.961 . S
H957 C949 0.960 1_655 S
H958 C950 0.944 . S
H959 C951 0.929 . S
H960 C968 0.929 . S
H961 C970 0.930 . S
H962 C972 0.930 . S
H963 C975 0.929 . S
H964 C978 0.930 . S
H965 C980 0.960 . S
H966 C980 0.960 . S
H967 C980 0.960 . S
C968 H960 0.929 . S
C968 C969 1.377 . S
C968 C970 1.384 . S
C969 C968 1.377 . S
C969 C975 1.390 . S
C970 H961 0.930 . S
C970 C968 1.384 . S
C970 C971 1.372 . S
C971 C970 1.372 . S
C971 C972 1.400 . S
C971 C976 1.490 . S
C972 H962 0.930 . S
C972 C971 1.400 . S
C972 C975 1.386 . S
H973 C989 0.930 . S
H974 C990 0.931 . S
C975 H963 0.929 . S
C975 C969 1.390 . S
C975 C972 1.386 . S
C976 C971 1.490 . S
C976 C978 1.395 . S
C976 C979 1.403 . S
H977 C983 0.930 . S
C978 H964 0.930 . S
C978 C976 1.395 . S
C978 C981 1.403 . S
C979 C976 1.403 . S
C979 C980 1.524 . S
C979 C983 1.400 . S
C980 H965 0.960 . S
C980 H966 0.960 . S
C980 H967 0.960 . S
C980 C979 1.524 . S
C981 C978 1.403 . S
C981 C982 1.392 . S
C981 C985 1.495 . S
C982 C981 1.392 . S
C982 C983 1.385 . S
C982 C984 1.478 . S
C983 H977 0.930 . S
C983 C979 1.400 . S
C983 C982 1.385 . S
C984 C982 1.478 . S
C984 C986 1.381 . S
C984 C990 1.383 . S
C985 C981 1.495 . S
C985 H991 0.959 . S
C985 H992 0.961 . S
C985 H993 0.960 . S
C986 C984 1.381 . S
C986 C987 1.394 . S
C986 H994 0.930 . S
C987 C986 1.394 . S
C987 C988 1.383 . S
C987 H995 0.929 . S
C988 C987 1.383 . S
C988 C989 1.377 . S
C989 H973 0.930 . S
C989 C988 1.377 . S
C989 C990 1.379 . S
C990 H974 0.931 . S
C990 C984 1.383 . S
C990 C989 1.379 . S
H991 C985 0.959 . S
H992 C985 0.961 . S
H993 C985 0.960 . S
H994 C986 0.930 . S
H995 C987 0.929 . S
H996 C1004 0.929 . S
H997 C1006 0.930 . S
H998 C1008 0.930 . S
H999 C1011 0.929 1_556 S
H1000 C1014 0.930 . S
H1001 C1016 0.960 . S
H1002 C1016 0.960 . S
H1003 C1016 0.962 . S
C1004 H996 0.929 . S
C1004 C1005 1.377 . S
C1004 C1006 1.384 . S
C1005 C1004 1.377 . S
C1005 C1011 1.390 . S
C1006 H997 0.930 . S
C1006 C1004 1.384 . S
C1006 C1007 1.372 . S
C1007 C1006 1.372 . S
C1007 C1008 1.400 . S
C1007 C1012 1.490 . S
C1008 H998 0.930 . S
C1008 C1007 1.400 . S
C1008 C1011 1.386 . S
H1009 C1025 0.930 . S
H1010 C1026 0.931 . S
C1011 H999 0.929 1_554 S
C1011 C1005 1.390 . S
C1011 C1008 1.386 . S
C1012 C1007 1.490 . S
C1012 C1014 1.395 . S
C1012 C1015 1.403 . S
H1013 C1019 0.930 . S
C1014 H1000 0.930 . S
C1014 C1012 1.395 . S
C1014 C1017 1.403 . S
C1015 C1012 1.403 . S
C1015 C1016 1.524 . S
C1015 C1019 1.400 . S
C1016 H1001 0.960 . S
C1016 H1002 0.960 . S
C1016 H1003 0.962 . S
C1016 C1015 1.524 . S
C1017 C1014 1.403 . S
C1017 C1018 1.392 . S
C1017 C1021 1.495 . S
C1018 C1017 1.392 . S
C1018 C1019 1.385 . S
C1018 C1020 1.478 . S
C1019 H1013 0.930 . S
C1019 C1015 1.400 . S
C1019 C1018 1.385 . S
C1020 C1018 1.478 . S
C1020 C1022 1.381 . S
C1020 C1026 1.383 . S
C1021 C1017 1.495 . S
C1021 H1027 0.959 . S
C1021 H1028 0.961 . S
C1021 H1029 0.960 . S
C1022 C1020 1.381 . S
C1022 C1023 1.394 . S
C1022 H1030 0.930 . S
C1023 C1022 1.394 . S
C1023 C1024 1.383 . S
C1023 H1031 0.929 . S
C1024 C1023 1.383 . S
C1024 C1025 1.377 . S
C1025 H1009 0.930 . S
C1025 C1024 1.377 . S
C1025 C1026 1.379 . S
C1026 H1010 0.931 . S
C1026 C1020 1.383 . S
C1026 C1025 1.379 . S
H1027 C1021 0.959 . S
H1028 C1021 0.961 . S
H1029 C1021 0.960 . S
H1030 C1022 0.930 . S
H1031 C1023 0.929 . S
H1032 C1040 0.929 . S
H1033 C1042 0.930 . S
H1034 C1044 0.930 . S
H1035 C1047 0.929 . S
H1036 C1050 0.930 . S
H1037 C1052 0.960 . S
H1038 C1052 0.960 . S
H1039 C1052 0.960 . S
C1040 H1032 0.929 . S
C1040 C1041 1.377 . S
C1040 C1042 1.384 . S
C1041 C1040 1.377 . S
C1041 C1047 1.390 . S
C1042 H1033 0.930 . S
C1042 C1040 1.384 . S
C1042 C1043 1.372 . S
C1043 C1042 1.372 . S
C1043 C1044 1.400 . S
C1043 C1048 1.490 . S
C1044 H1034 0.930 . S
C1044 C1043 1.400 . S
C1044 C1047 1.386 . S
H1045 C1061 0.930 . S
H1046 C1062 0.931 . S
C1047 H1035 0.929 . S
C1047 C1041 1.390 . S
C1047 C1044 1.386 . S
C1048 C1043 1.490 . S
C1048 C1050 1.395 . S
C1048 C1051 1.403 . S
H1049 C1055 0.930 . S
C1050 H1036 0.930 . S
C1050 C1048 1.395 . S
C1050 C1053 1.403 . S
C1051 C1048 1.403 . S
C1051 C1052 1.524 . S
C1051 C1055 1.400 . S
C1052 H1037 0.960 . S
C1052 H1038 0.960 . S
C1052 H1039 0.960 . S
C1052 C1051 1.524 . S
C1053 C1050 1.403 . S
C1053 C1054 1.392 . S
C1053 C1057 1.495 . S
C1054 C1053 1.392 . S
C1054 C1055 1.385 . S
C1054 C1056 1.478 . S
C1055 H1049 0.930 . S
C1055 C1051 1.400 . S
C1055 C1054 1.385 . S
C1056 C1054 1.478 . S
C1056 C1058 1.381 . S
C1056 C1062 1.383 . S
C1057 C1053 1.495 . S
C1057 H1063 0.943 1_554 S
C1057 H1064 0.950 1_554 S
C1057 H1065 0.960 1_554 S
C1058 C1056 1.381 . S
C1058 C1059 1.394 . S
C1058 H1066 0.930 . S
C1059 C1058 1.394 . S
C1059 C1060 1.383 . S
C1059 H1067 0.929 1_554 S
C1060 C1059 1.383 . S
C1060 C1061 1.377 . S
C1061 H1045 0.930 . S
C1061 C1060 1.377 . S
C1061 C1062 1.379 . S
C1062 H1046 0.931 . S
C1062 C1056 1.383 . S
C1062 C1061 1.379 . S
H1063 C1057 0.943 1_556 S
H1064 C1057 0.950 1_556 S
H1065 C1057 0.960 1_556 S
H1066 C1058 0.930 . S
H1067 C1059 0.929 1_556 S
H1068 C1076 0.911 1_556 S
H1069 C1078 0.930 . S
H1070 C1080 0.930 . S
H1071 C1083 0.929 . S
H1072 C1086 0.930 . S
H1073 C1088 0.960 . S
H1074 C1088 0.960 . S
H1075 C1088 0.960 . S
C1076 H1068 0.911 1_554 S
C1076 C1077 1.377 . S
C1076 C1078 1.384 . S
C1077 C1076 1.377 . S
C1077 C1083 1.390 . S
C1078 H1069 0.930 . S
C1078 C1076 1.384 . S
C1078 C1079 1.372 . S
C1079 C1078 1.372 . S
C1079 C1080 1.400 . S
C1079 C1084 1.490 . S
C1080 H1070 0.930 . S
C1080 C1079 1.400 . S
C1080 C1083 1.386 . S
H1081 C1097 0.930 . S
H1082 C1098 0.931 . S
C1083 H1071 0.929 . S
C1083 C1077 1.390 . S
C1083 C1080 1.386 . S
C1084 C1079 1.490 . S
C1084 C1086 1.395 . S
C1084 C1087 1.403 . S
H1085 C1091 0.930 . S
C1086 H1072 0.930 . S
C1086 C1084 1.395 . S
C1086 C1089 1.403 . S
C1087 C1084 1.403 . S
C1087 C1088 1.524 . S
C1087 C1091 1.400 . S
C1088 H1073 0.960 . S
C1088 H1074 0.960 . S
C1088 H1075 0.960 . S
C1088 C1087 1.524 . S
C1089 C1086 1.403 . S
C1089 C1090 1.392 . S
C1089 C1093 1.495 . S
C1090 C1089 1.392 . S
C1090 C1091 1.385 . S
C1090 C1092 1.478 . S
C1091 H1085 0.930 . S
C1091 C1087 1.400 . S
C1091 C1090 1.385 . S
C1092 C1090 1.478 . S
C1092 C1094 1.381 . S
C1092 C1098 1.383 . S
C1093 C1089 1.495 . S
C1093 H1099 0.959 . S
C1093 H1100 0.961 . S
C1093 H1101 0.960 . S
C1094 C1092 1.381 . S
C1094 C1095 1.394 . S
C1094 H1102 0.930 . S
C1095 C1094 1.394 . S
C1095 C1096 1.383 . S
C1095 H1103 0.929 . S
C1096 C1095 1.383 . S
C1096 C1097 1.377 . S
C1097 H1081 0.930 . S
C1097 C1096 1.377 . S
C1097 C1098 1.379 . S
C1098 H1082 0.931 . S
C1098 C1092 1.383 . S
C1098 C1097 1.379 . S
H1099 C1093 0.959 . S
H1100 C1093 0.961 . S
H1101 C1093 0.960 . S
H1102 C1094 0.930 . S
H1103 C1095 0.929 . S
H1104 C1112 0.929 . S
H1105 C1114 0.930 . S
H1106 C1116 0.916 1_545 S
H1107 C1119 0.929 . S
H1108 C1122 0.930 . S
H1109 C1124 0.960 . S
H1110 C1124 0.960 . S
H1111 C1124 0.960 . S
C1112 H1104 0.929 . S
C1112 C1113 1.377 . S
C1112 C1114 1.384 1_565 S
C1113 C1112 1.377 . S
C1113 C1119 1.390 . S
C1114 H1105 0.930 . S
C1114 C1112 1.384 1_545 S
C1114 C1115 1.372 . S
C1115 C1114 1.372 . S
C1115 C1116 1.372 1_545 S
C1115 C1120 1.490 . S
C1116 H1106 0.916 1_565 S
C1116 C1115 1.372 1_565 S
C1116 C1119 1.429 . S
H1117 C1133 0.930 . S
H1118 C1134 0.931 . S
C1119 H1107 0.929 . S
C1119 C1113 1.390 . S
C1119 C1116 1.429 . S
C1120 C1115 1.490 . S
C1120 C1122 1.395 . S
C1120 C1123 1.403 . S
H1121 C1127 0.930 . S
C1122 H1108 0.930 . S
C1122 C1120 1.395 . S
C1122 C1125 1.403 . S
C1123 C1120 1.403 . S
C1123 C1124 1.524 . S
C1123 C1127 1.400 . S
C1124 H1109 0.960 . S
C1124 H1110 0.960 . S
C1124 H1111 0.960 . S
C1124 C1123 1.524 . S
C1125 C1122 1.403 . S
C1125 C1126 1.392 . S
C1125 C1129 1.495 . S
C1126 C1125 1.392 . S
C1126 C1127 1.385 . S
C1126 C1128 1.478 . S
C1127 H1121 0.930 . S
C1127 C1123 1.400 . S
C1127 C1126 1.385 . S
C1128 C1126 1.478 . S
C1128 C1130 1.381 . S
C1128 C1134 1.383 . S
C1129 C1125 1.495 . S
C1129 H1135 0.959 . S
C1129 H1136 0.961 . S
C1129 H1137 0.960 . S
C1130 C1128 1.381 . S
C1130 C1131 1.394 . S
C1130 H1138 0.930 . S
C1131 C1130 1.394 . S
C1131 C1132 1.383 . S
C1131 H1139 0.929 . S
C1132 C1131 1.383 . S
C1132 C1133 1.377 . S
C1133 H1117 0.930 . S
C1133 C1132 1.377 . S
C1133 C1134 1.379 . S
C1134 H1118 0.931 . S
C1134 C1128 1.383 . S
C1134 C1133 1.379 . S
H1135 C1129 0.959 . S
H1136 C1129 0.961 . S
H1137 C1129 0.960 . S
H1138 C1130 0.930 . S
H1139 C1131 0.929 . S
H1140 C1148 0.929 . S
H1141 C1150 0.930 . S
H1142 C1152 0.930 1_455 S
H1143 C1155 0.929 . S
H1144 C1158 0.930 . S
H1145 C1160 0.960 . S
H1146 C1160 0.960 . S
H1147 C1160 0.960 . S
C1148 H1140 0.929 . S
C1148 C1149 1.377 . S
C1148 C1150 1.384 1_655 S
C1149 C1148 1.377 . S
C1149 C1155 1.390 . S
C1150 H1141 0.930 . S
C1150 C1148 1.384 1_455 S
C1150 C1151 1.372 . S
C1151 C1150 1.372 . S
C1151 C1152 1.400 1_455 S
C1151 C1156 1.490 . S
C1152 H1142 0.930 1_655 S
C1152 C1151 1.400 1_655 S
C1152 C1155 1.385 . S
H1153 C1169 0.930 . S
H1154 C1170 0.931 . S
C1155 H1143 0.929 . S
C1155 C1149 1.390 . S
C1155 C1152 1.385 . S
C1156 C1151 1.490 . S
C1156 C1158 1.395 . S
C1156 C1159 1.403 . S
H1157 C1163 0.930 . S
C1158 H1144 0.930 . S
C1158 C1156 1.395 . S
C1158 C1161 1.403 . S
C1159 C1156 1.403 . S
C1159 C1160 1.524 . S
C1159 C1163 1.400 . S
C1160 H1145 0.960 . S
C1160 H1146 0.960 . S
C1160 H1147 0.960 . S
C1160 C1159 1.524 . S
C1161 C1158 1.403 . S
C1161 C1162 1.392 . S
C1161 C1165 1.495 . S
C1162 C1161 1.392 . S
C1162 C1163 1.385 . S
C1162 C1164 1.478 . S
C1163 H1157 0.930 . S
C1163 C1159 1.400 . S
C1163 C1162 1.385 . S
C1164 C1162 1.478 . S
C1164 C1166 1.381 . S
C1164 C1170 1.383 . S
C1165 C1161 1.495 . S
C1165 H1171 0.959 . S
C1165 H1172 0.961 . S
C1165 H1173 0.960 . S
C1166 C1164 1.381 . S
C1166 C1167 1.394 . S
C1166 H1174 0.930 . S
C1167 C1166 1.394 . S
C1167 C1168 1.383 . S
C1167 H1175 0.929 . S
C1168 C1167 1.383 . S
C1168 C1169 1.377 . S
C1169 H1153 0.930 . S
C1169 C1168 1.377 . S
C1169 C1170 1.379 . S
C1170 H1154 0.931 . S
C1170 C1164 1.383 . S
C1170 C1169 1.379 . S
H1171 C1165 0.959 . S
H1172 C1165 0.961 . S
H1173 C1165 0.960 . S
H1174 C1166 0.930 . S
H1175 C1167 0.929 . S
H1176 C1184 0.929 . S
H1177 C1186 0.930 . S
H1178 C1188 0.930 . S
H1179 C1191 0.929 . S
H1180 C1194 0.930 . S
H1181 C1196 0.960 . S
H1182 C1196 0.960 . S
H1183 C1196 0.960 . S
C1184 H1176 0.929 . S
C1184 C1185 1.377 . S
C1184 C1186 1.384 . S
C1185 C1184 1.377 . S
C1185 C1191 1.390 . S
C1186 H1177 0.930 . S
C1186 C1184 1.384 . S
C1186 C1187 1.372 . S
C1187 C1186 1.372 . S
C1187 C1188 1.400 . S
C1187 C1192 1.490 . S
C1188 H1178 0.930 . S
C1188 C1187 1.400 . S
C1188 C1191 1.386 . S
H1189 C1205 0.930 . S
H1190 C1206 0.931 . S
C1191 H1179 0.929 . S
C1191 C1185 1.390 . S
C1191 C1188 1.386 . S
C1192 C1187 1.490 . S
C1192 C1194 1.395 . S
C1192 C1195 1.403 . S
H1193 C1199 0.930 . S
C1194 H1180 0.930 . S
C1194 C1192 1.395 . S
C1194 C1197 1.403 . S
C1195 C1192 1.403 . S
C1195 C1196 1.524 . S
C1195 C1199 1.400 . S
C1196 H1181 0.960 . S
C1196 H1182 0.960 . S
C1196 H1183 0.960 . S
C1196 C1195 1.524 . S
C1197 C1194 1.403 . S
C1197 C1198 1.392 . S
C1197 C1201 1.495 . S
C1198 C1197 1.392 . S
C1198 C1199 1.385 . S
C1198 C1200 1.478 . S
C1199 H1193 0.930 . S
C1199 C1195 1.400 . S
C1199 C1198 1.385 . S
C1200 C1198 1.478 . S
C1200 C1202 1.381 1_545 S
C1200 C1206 1.383 . S
C1201 C1197 1.495 . S
C1201 H1207 0.959 . S
C1201 H1208 0.961 . S
C1201 H1209 0.960 . S
C1202 C1200 1.381 1_565 S
C1202 C1203 1.394 . S
C1202 H1210 0.930 . S
C1203 C1202 1.394 . S
C1203 C1204 1.383 . S
C1203 H1211 0.929 . S
C1204 C1203 1.383 . S
C1204 C1205 1.377 . S
C1205 H1189 0.930 . S
C1205 C1204 1.377 . S
C1205 C1206 1.379 1_565 S
C1206 H1190 0.931 . S
C1206 C1200 1.383 . S
C1206 C1205 1.379 1_545 S
H1207 C1201 0.959 . S
H1208 C1201 0.961 . S
H1209 C1201 0.960 . S
H1210 C1202 0.930 . S
H1211 C1203 0.929 . S
H1212 C1220 0.929 . S
H1213 C1222 0.930 . S
H1214 C1224 0.930 . S
H1215 C1227 0.929 . S
H1216 C1230 0.930 . S
H1217 C1232 0.960 . S
H1218 C1232 0.960 . S
H1219 C1232 0.960 . S
C1220 H1212 0.929 . S
C1220 C1221 1.377 . S
C1220 C1222 1.384 . S
C1221 C1220 1.377 . S
C1221 C1227 1.390 . S
C1222 H1213 0.930 . S
C1222 C1220 1.384 . S
C1222 C1223 1.372 . S
C1223 C1222 1.372 . S
C1223 C1224 1.400 . S
C1223 C1228 1.490 . S
C1224 H1214 0.930 . S
C1224 C1223 1.400 . S
C1224 C1227 1.386 . S
H1225 C1241 0.930 . S
H1226 C1242 0.931 . S
C1227 H1215 0.929 . S
C1227 C1221 1.390 . S
C1227 C1224 1.386 . S
C1228 C1223 1.490 . S
C1228 C1230 1.395 . S
C1228 C1231 1.403 . S
H1229 C1235 0.930 . S
C1230 H1216 0.930 . S
C1230 C1228 1.395 . S
C1230 C1233 1.403 . S
C1231 C1228 1.403 . S
C1231 C1232 1.524 . S
C1231 C1235 1.400 . S
C1232 H1217 0.960 . S
C1232 H1218 0.960 . S
C1232 H1219 0.960 . S
C1232 C1231 1.524 . S
C1233 C1230 1.403 . S
C1233 C1234 1.392 . S
C1233 C1237 1.495 . S
C1234 C1233 1.392 . S
C1234 C1235 1.385 . S
C1234 C1236 1.478 . S
C1235 H1229 0.930 . S
C1235 C1231 1.400 . S
C1235 C1234 1.385 . S
C1236 C1234 1.478 . S
C1236 C1238 1.381 1_455 S
C1236 C1242 1.383 . S
C1237 C1233 1.495 . S
C1237 H1243 0.959 . S
C1237 H1244 0.961 . S
C1237 H1245 0.960 . S
C1238 C1236 1.381 1_655 S
C1238 C1239 1.394 . S
C1238 H1246 0.930 . S
C1239 C1238 1.394 . S
C1239 C1240 1.383 . S
C1239 H1247 0.929 . S
C1240 C1239 1.383 . S
C1240 C1241 1.377 . S
C1241 H1225 0.930 . S
C1241 C1240 1.377 . S
C1241 C1242 1.379 1_655 S
C1242 H1226 0.931 . S
C1242 C1236 1.383 . S
C1242 C1241 1.379 1_455 S
H1243 C1237 0.959 . S
H1244 C1237 0.961 . S
H1245 C1237 0.960 . S
H1246 C1238 0.930 . S
H1247 C1239 0.929 . S
H1248 C1256 0.929 . S
H1249 C1258 0.930 . S
H1250 C1260 0.930 . S
H1251 C1263 0.929 . S
H1252 C1266 0.930 . S
H1253 C1268 0.960 . S
H1254 C1268 0.960 . S
H1255 C1268 0.960 . S
C1256 H1248 0.929 . S
C1256 C1257 1.377 . S
C1256 C1258 1.384 . S
C1257 C1256 1.377 . S
C1257 C1263 1.390 . S
C1258 H1249 0.930 . S
C1258 C1256 1.384 . S
C1258 C1259 1.372 1_556 S
C1259 C1258 1.372 1_554 S
C1259 C1260 1.400 . S
C1259 C1264 1.490 . S
C1260 H1250 0.930 . S
C1260 C1259 1.400 . S
C1260 C1263 1.386 1_554 S
H1261 C1277 0.930 . S
H1262 C1278 0.931 . S
C1263 H1251 0.929 . S
C1263 C1257 1.390 . S
C1263 C1260 1.386 1_556 S
C1264 C1259 1.490 . S
C1264 C1266 1.395 . S
C1264 C1267 1.403 . S
H1265 C1271 0.930 . S
C1266 H1252 0.930 . S
C1266 C1264 1.395 . S
C1266 C1269 1.403 . S
C1267 C1264 1.403 . S
C1267 C1268 1.524 . S
C1267 C1271 1.400 . S
C1268 H1253 0.960 . S
C1268 H1254 0.960 . S
C1268 H1255 0.960 . S
C1268 C1267 1.524 . S
C1269 C1266 1.403 . S
C1269 C1270 1.392 . S
C1269 C1273 1.495 . S
C1270 C1269 1.392 . S
C1270 C1271 1.385 . S
C1270 C1272 1.478 . S
C1271 H1265 0.930 . S
C1271 C1267 1.400 . S
C1271 C1270 1.385 . S
C1272 C1270 1.478 . S
C1272 C1274 1.381 . S
C1272 C1278 1.383 . S
C1273 C1269 1.495 . S
C1273 H1279 0.959 . S
C1273 H1280 0.961 . S
C1273 H1281 0.960 . S
C1274 C1272 1.381 . S
C1274 C1275 1.394 . S
C1274 H1282 0.930 . S
C1275 C1274 1.394 . S
C1275 C1276 1.383 . S
C1275 H1283 0.929 . S
C1276 C1275 1.383 . S
C1276 C1277 1.377 . S
C1277 H1261 0.930 . S
C1277 C1276 1.377 . S
C1277 C1278 1.379 . S
C1278 H1262 0.931 . S
C1278 C1272 1.383 . S
C1278 C1277 1.379 . S
H1279 C1273 0.959 . S
H1280 C1273 0.961 . S
H1281 C1273 0.960 . S
H1282 C1274 0.930 . S
H1283 C1275 0.929 . S
H1284 C1292 0.929 . S
H1285 C1294 0.930 . S
H1286 C1296 0.930 . S
H1287 C1299 0.929 . S
H1288 C1302 0.930 . S
H1289 C1304 0.960 . S
H1290 C1304 0.960 . S
H1291 C1304 0.960 . S
C1292 H1284 0.929 . S
C1292 C1293 1.377 . S
C1292 C1294 1.384 1_556 S
C1293 C1292 1.377 . S
C1293 C1299 1.390 . S
C1294 H1285 0.930 . S
C1294 C1292 1.384 1_554 S
C1294 C1295 1.372 . S
C1295 C1294 1.372 . S
C1295 C1296 1.400 1_554 S
C1295 C1300 1.490 . S
C1296 H1286 0.930 . S
C1296 C1295 1.400 1_556 S
C1296 C1299 1.386 . S
H1297 C1313 0.930 . S
H1298 C1314 0.931 . S
C1299 H1287 0.929 . S
C1299 C1293 1.390 . S
C1299 C1296 1.386 . S
C1300 C1295 1.490 . S
C1300 C1302 1.395 . S
C1300 C1303 1.403 . S
H1301 C1307 0.930 . S
C1302 H1288 0.930 . S
C1302 C1300 1.395 . S
C1302 C1305 1.403 . S
C1303 C1300 1.403 . S
C1303 C1304 1.524 . S
C1303 C1307 1.400 . S
C1304 H1289 0.960 . S
C1304 H1290 0.960 . S
C1304 H1291 0.960 . S
C1304 C1303 1.524 . S
C1305 C1302 1.403 . S
C1305 C1306 1.392 . S
C1305 C1309 1.495 . S
C1306 C1305 1.392 . S
C1306 C1307 1.385 . S
C1306 C1308 1.478 . S
C1307 H1301 0.930 . S
C1307 C1303 1.400 . S
C1307 C1306 1.385 . S
C1308 C1306 1.478 . S
C1308 C1310 1.381 . S
C1308 C1314 1.383 . S
C1309 C1305 1.495 . S
C1309 H1315 0.959 . S
C1309 H1316 0.961 . S
C1309 H1317 0.960 . S
C1310 C1308 1.381 . S
C1310 C1311 1.394 . S
C1310 H1318 0.930 . S
C1311 C1310 1.394 . S
C1311 C1312 1.383 . S
C1311 H1319 0.929 . S
C1312 C1311 1.383 . S
C1312 C1313 1.377 . S
C1313 H1297 0.930 . S
C1313 C1312 1.377 . S
C1313 C1314 1.379 . S
C1314 H1298 0.931 . S
C1314 C1308 1.383 . S
C1314 C1313 1.379 . S
H1315 C1309 0.959 . S
H1316 C1309 0.961 . S
H1317 C1309 0.960 . S
H1318 C1310 0.930 . S
H1319 C1311 0.929 . S
H1320 C1328 0.929 . S
H1321 C1330 0.930 . S
H1322 C1332 0.930 . S
H1323 C1335 0.929 . S
H1324 C1338 0.930 . S
H1325 C1340 0.960 . S
H1326 C1340 0.960 . S
H1327 C1340 0.960 . S
C1328 H1320 0.929 . S
C1328 C1329 1.377 . S
C1328 C1330 1.384 1_556 S
C1329 C1328 1.377 . S
C1329 C1335 1.390 . S
C1330 H1321 0.930 . S
C1330 C1328 1.384 1_554 S
C1330 C1331 1.372 . S
C1331 C1330 1.372 . S
C1331 C1332 1.400 1_554 S
C1331 C1336 1.490 . S
C1332 H1322 0.930 . S
C1332 C1331 1.400 1_556 S
C1332 C1335 1.386 . S
H1333 C1349 0.930 . S
H1334 C1350 0.931 . S
C1335 H1323 0.929 . S
C1335 C1329 1.390 . S
C1335 C1332 1.386 . S
C1336 C1331 1.490 . S
C1336 C1338 1.395 . S
C1336 C1339 1.403 . S
H1337 C1343 0.930 . S
C1338 H1324 0.930 . S
C1338 C1336 1.395 . S
C1338 C1341 1.403 . S
C1339 C1336 1.403 . S
C1339 C1340 1.524 . S
C1339 C1343 1.400 . S
C1340 H1325 0.960 . S
C1340 H1326 0.960 . S
C1340 H1327 0.960 . S
C1340 C1339 1.524 . S
C1341 C1338 1.403 . S
C1341 C1342 1.392 . S
C1341 C1345 1.495 . S
C1342 C1341 1.392 . S
C1342 C1343 1.385 . S
C1342 C1344 1.478 . S
C1343 H1337 0.930 . S
C1343 C1339 1.400 . S
C1343 C1342 1.385 . S
C1344 C1342 1.478 . S
C1344 C1346 1.381 . S
C1344 C1350 1.383 . S
C1345 C1341 1.495 . S
C1345 H1351 0.959 . S
C1345 H1352 0.961 . S
C1345 H1353 0.960 . S
C1346 C1344 1.381 . S
C1346 C1347 1.394 . S
C1346 H1354 0.930 . S
C1347 C1346 1.394 . S
C1347 C1348 1.383 . S
C1347 H1355 0.929 . S
C1348 C1347 1.383 . S
C1348 C1349 1.377 . S
C1349 H1333 0.930 . S
C1349 C1348 1.377 . S
C1349 C1350 1.379 . S
C1350 H1334 0.931 . S
C1350 C1344 1.383 . S
C1350 C1349 1.379 . S
H1351 C1345 0.959 . S
H1352 C1345 0.961 . S
H1353 C1345 0.960 . S
H1354 C1346 0.930 . S
H1355 C1347 0.929 . S
H1356 C1364 0.929 . S
H1357 C1366 0.930 . S
H1358 C1368 0.916 1_554 S
H1359 C1371 0.929 . S
H1360 C1374 0.930 . S
H1361 C1376 0.960 . S
H1362 C1376 0.960 . S
H1363 C1376 0.960 . S
C1364 H1356 0.929 . S
C1364 C1365 1.377 . S
C1364 C1366 1.384 1_556 S
C1365 C1364 1.377 . S
C1365 C1371 1.390 . S
C1366 H1357 0.930 . S
C1366 C1364 1.384 1_554 S
C1366 C1367 1.372 . S
C1367 C1366 1.372 . S
C1367 C1368 1.400 1_554 S
C1367 C1372 1.490 . S
C1368 H1358 0.916 1_556 S
C1368 C1367 1.400 1_556 S
C1368 C1371 1.386 . S
H1369 C1385 0.930 . S
H1370 C1386 0.931 . S
C1371 H1359 0.929 . S
C1371 C1365 1.390 . S
C1371 C1368 1.386 . S
C1372 C1367 1.490 . S
C1372 C1374 1.395 . S
C1372 C1375 1.403 . S
H1373 C1379 0.930 . S
C1374 H1360 0.930 . S
C1374 C1372 1.395 . S
C1374 C1377 1.403 . S
C1375 C1372 1.403 . S
C1375 C1376 1.524 . S
C1375 C1379 1.400 . S
C1376 H1361 0.960 . S
C1376 H1362 0.960 . S
C1376 H1363 0.960 . S
C1376 C1375 1.524 . S
C1377 C1374 1.403 . S
C1377 C1378 1.392 . S
C1377 C1381 1.495 . S
C1378 C1377 1.392 . S
C1378 C1379 1.385 . S
C1378 C1380 1.478 . S
C1379 H1373 0.930 . S
C1379 C1375 1.400 . S
C1379 C1378 1.385 . S
C1380 C1378 1.478 . S
C1380 C1382 1.381 . S
C1380 C1386 1.383 . S
C1381 C1377 1.495 . S
C1381 H1387 0.959 . S
C1381 H1388 0.961 . S
C1381 H1389 0.960 . S
C1382 C1380 1.381 . S
C1382 C1383 1.394 . S
C1382 H1390 0.930 . S
C1383 C1382 1.394 . S
C1383 C1384 1.383 . S
C1383 H1391 0.929 . S
C1384 C1383 1.383 . S
C1384 C1385 1.377 . S
C1385 H1369 0.930 . S
C1385 C1384 1.377 . S
C1385 C1386 1.379 . S
C1386 H1370 0.931 . S
C1386 C1380 1.383 . S
C1386 C1385 1.379 . S
H1387 C1381 0.959 . S
H1388 C1381 0.961 . S
H1389 C1381 0.960 . S
H1390 C1382 0.930 . S
H1391 C1383 0.929 . S
H1392 C1400 0.929 . S
H1393 C1402 0.930 . S
H1394 C1404 0.930 . S
H1395 C1407 0.929 . S
H1396 C1410 0.930 . S
H1397 C1412 0.960 . S
H1398 C1412 0.960 . S
H1399 C1412 0.960 . S
C1400 H1392 0.929 . S
C1400 C1401 1.377 . S
C1400 C1402 1.384 . S
C1401 C1400 1.377 . S
C1401 C1407 1.390 . S
C1402 H1393 0.930 . S
C1402 C1400 1.384 . S
C1402 C1403 1.372 . S
C1403 C1402 1.372 . S
C1403 C1404 1.400 . S
C1403 C1408 1.490 . S
C1404 H1394 0.930 . S
C1404 C1403 1.400 . S
C1404 C1407 1.386 . S
H1405 C1421 0.930 . S
H1406 C1422 0.926 1_455 S
C1407 H1395 0.929 . S
C1407 C1401 1.390 . S
C1407 C1404 1.386 . S
C1408 C1403 1.490 . S
C1408 C1410 1.395 . S
C1408 C1411 1.403 . S
H1409 C1415 0.930 . S
C1410 H1396 0.930 . S
C1410 C1408 1.395 . S
C1410 C1413 1.403 . S
C1411 C1408 1.403 . S
C1411 C1412 1.524 . S
C1411 C1415 1.400 . S
C1412 H1397 0.960 . S
C1412 H1398 0.960 . S
C1412 H1399 0.960 . S
C1412 C1411 1.524 . S
C1413 C1410 1.403 . S
C1413 C1414 1.392 . S
C1413 C1417 1.495 . S
C1414 C1413 1.392 . S
C1414 C1415 1.385 . S
C1414 C1416 1.478 . S
C1415 H1409 0.930 . S
C1415 C1411 1.400 . S
C1415 C1414 1.385 . S
C1416 C1414 1.478 . S
C1416 C1418 1.381 . S
C1416 C1422 1.370 1_455 S
C1417 C1413 1.495 . S
C1417 H1423 0.959 . S
C1417 H1424 0.961 . S
C1417 H1425 0.960 . S
C1418 C1416 1.381 . S
C1418 C1419 1.394 1_455 S
C1418 H1426 0.930 . S
C1419 C1418 1.394 1_655 S
C1419 C1420 1.383 . S
C1419 H1427 0.929 . S
C1420 C1419 1.383 . S
C1420 C1421 1.377 . S
C1421 H1405 0.930 . S
C1421 C1420 1.377 . S
C1421 C1422 1.398 . S
C1422 H1406 0.926 1_655 S
C1422 C1416 1.370 1_655 S
C1422 C1421 1.398 . S
H1423 C1417 0.959 . S
H1424 C1417 0.961 . S
H1425 C1417 0.960 . S
H1426 C1418 0.930 . S
H1427 C1419 0.929 . S
H1428 C1436 0.929 . S
H1429 C1438 0.930 1_455 S
H1430 C1440 0.930 . S
H1431 C1443 0.929 . S
H1432 C1446 0.930 . S
H1433 C1448 0.960 . S
H1434 C1448 0.960 . S
H1435 C1448 0.960 . S
C1436 H1428 0.929 . S
C1436 C1437 1.377 . S
C1436 C1438 1.384 . S
C1437 C1436 1.377 . S
C1437 C1443 1.390 . S
C1438 H1429 0.930 1_655 S
C1438 C1436 1.384 . S
C1438 C1439 1.372 1_655 S
C1439 C1438 1.372 1_455 S
C1439 C1440 1.400 . S
C1439 C1444 1.490 . S
C1440 H1430 0.930 . S
C1440 C1439 1.400 . S
C1440 C1443 1.386 1_455 S
H1441 C1457 0.930 . S
H1442 C1458 0.931 . S
C1443 H1431 0.929 . S
C1443 C1437 1.390 . S
C1443 C1440 1.386 1_655 S
C1444 C1439 1.490 . S
C1444 C1446 1.395 . S
C1444 C1447 1.403 . S
H1445 C1451 0.930 . S
C1446 H1432 0.930 . S
C1446 C1444 1.395 . S
C1446 C1449 1.403 . S
C1447 C1444 1.403 . S
C1447 C1448 1.524 . S
C1447 C1451 1.400 . S
C1448 H1433 0.960 . S
C1448 H1434 0.960 . S
C1448 H1435 0.960 . S
C1448 C1447 1.524 . S
C1449 C1446 1.403 . S
C1449 C1450 1.392 . S
C1449 C1453 1.495 . S
C1450 C1449 1.392 . S
C1450 C1451 1.385 . S
C1450 C1452 1.478 . S
C1451 H1445 0.930 . S
C1451 C1447 1.400 . S
C1451 C1450 1.385 . S
C1452 C1450 1.478 . S
C1452 C1454 1.381 . S
C1452 C1458 1.383 . S
C1453 C1449 1.495 . S
C1453 H1459 0.959 . S
C1453 H1460 0.961 . S
C1453 H1461 0.960 . S
C1454 C1452 1.381 . S
C1454 C1455 1.394 . S
C1454 H1462 0.930 . S
C1455 C1454 1.394 . S
C1455 C1456 1.383 . S
C1455 H1463 0.929 . S
C1456 C1455 1.383 . S
C1456 C1457 1.377 . S
C1457 H1441 0.930 . S
C1457 C1456 1.377 . S
C1457 C1458 1.379 . S
C1458 H1442 0.931 . S
C1458 C1452 1.383 . S
C1458 C1457 1.379 . S
H1459 C1453 0.959 . S
H1460 C1453 0.961 . S
H1461 C1453 0.960 . S
H1462 C1454 0.930 . S
H1463 C1455 0.929 . S
H1464 C1472 0.929 . S
H1465 C1474 0.930 . S
H1466 C1476 0.930 . S
H1467 C1479 0.929 . S
H1468 C1482 0.930 . S
H1469 C1484 0.960 . S
H1470 C1484 0.960 . S
H1471 C1484 0.960 . S
C1472 H1464 0.929 . S
C1472 C1473 1.377 . S
C1472 C1474 1.384 . S
C1473 C1472 1.377 . S
C1473 C1479 1.390 . S
C1474 H1465 0.930 . S
C1474 C1472 1.384 . S
C1474 C1475 1.372 1_565 S
C1475 C1474 1.372 1_545 S
C1475 C1476 1.400 . S
C1475 C1480 1.490 . S
C1476 H1466 0.930 . S
C1476 C1475 1.400 . S
C1476 C1479 1.386 1_545 S
H1477 C1493 0.930 . S
H1478 C1494 0.931 . S
C1479 H1467 0.929 . S
C1479 C1473 1.390 . S
C1479 C1476 1.386 1_565 S
C1480 C1475 1.490 . S
C1480 C1482 1.395 . S
C1480 C1483 1.403 . S
H1481 C1487 0.930 . S
C1482 H1468 0.930 . S
C1482 C1480 1.395 . S
C1482 C1485 1.403 . S
C1483 C1480 1.403 . S
C1483 C1484 1.524 . S
C1483 C1487 1.400 . S
C1484 H1469 0.960 . S
C1484 H1470 0.960 . S
C1484 H1471 0.960 . S
C1484 C1483 1.524 . S
C1485 C1482 1.403 . S
C1485 C1486 1.392 . S
C1485 C1489 1.495 . S
C1486 C1485 1.392 . S
C1486 C1487 1.385 . S
C1486 C1488 1.478 . S
C1487 H1481 0.930 . S
C1487 C1483 1.400 . S
C1487 C1486 1.385 . S
C1488 C1486 1.478 . S
C1488 C1490 1.381 . S
C1488 C1494 1.383 . S
C1489 C1485 1.495 . S
C1489 H1495 0.959 . S
C1489 H1496 0.961 . S
C1489 H1497 0.960 . S
C1490 C1488 1.381 . S
C1490 C1491 1.394 . S
C1490 H1498 0.930 . S
C1491 C1490 1.394 . S
C1491 C1492 1.383 . S
C1491 H1499 0.929 . S
C1492 C1491 1.383 . S
C1492 C1493 1.377 . S
C1493 H1477 0.930 . S
C1493 C1492 1.377 . S
C1493 C1494 1.379 . S
C1494 H1478 0.931 . S
C1494 C1488 1.383 . S
C1494 C1493 1.379 . S
H1495 C1489 0.959 . S
H1496 C1489 0.961 . S
H1497 C1489 0.960 . S
H1498 C1490 0.930 . S
H1499 C1491 0.929 . S
H1500 C1508 0.929 . S
H1501 C1510 0.930 . S
H1502 C1512 0.930 . S
H1503 C1515 0.929 . S
H1504 C1518 0.930 . S
H1505 C1520 0.960 . S
H1506 C1520 0.960 . S
H1507 C1520 0.960 . S
C1508 H1500 0.929 . S
C1508 C1509 1.377 . S
C1508 C1510 1.384 . S
C1509 C1508 1.377 . S
C1509 C1515 1.390 . S
C1510 H1501 0.930 . S
C1510 C1508 1.384 . S
C1510 C1511 1.372 . S
C1511 C1510 1.372 . S
C1511 C1512 1.400 . S
C1511 C1516 1.490 . S
C1512 H1502 0.930 . S
C1512 C1511 1.400 . S
C1512 C1515 1.386 . S
H1513 C1529 0.930 . S
H1514 C1530 0.927 1_545 S
C1515 H1503 0.929 . S
C1515 C1509 1.390 . S
C1515 C1512 1.386 . S
C1516 C1511 1.490 . S
C1516 C1518 1.395 . S
C1516 C1519 1.403 . S
H1517 C1523 0.930 . S
C1518 H1504 0.930 . S
C1518 C1516 1.395 . S
C1518 C1521 1.403 . S
C1519 C1516 1.403 . S
C1519 C1520 1.524 . S
C1519 C1523 1.400 . S
C1520 H1505 0.960 . S
C1520 H1506 0.960 . S
C1520 H1507 0.960 . S
C1520 C1519 1.524 . S
C1521 C1518 1.403 . S
C1521 C1522 1.392 . S
C1521 C1525 1.495 . S
C1522 C1521 1.392 . S
C1522 C1523 1.385 . S
C1522 C1524 1.478 . S
C1523 H1517 0.930 . S
C1523 C1519 1.400 . S
C1523 C1522 1.385 . S
C1524 C1522 1.478 . S
C1524 C1526 1.381 . S
C1524 C1530 1.383 1_545 S
C1525 C1521 1.495 . S
C1525 H1531 0.959 . S
C1525 H1532 0.961 . S
C1525 H1533 0.960 . S
C1526 C1524 1.381 . S
C1526 C1527 1.394 1_545 S
C1526 H1534 0.930 . S
C1527 C1526 1.394 1_565 S
C1527 C1528 1.383 . S
C1527 H1535 0.929 . S
C1528 C1527 1.383 . S
C1528 C1529 1.377 . S
C1529 H1513 0.930 . S
C1529 C1528 1.377 . S
C1529 C1530 1.379 . S
C1530 H1514 0.927 1_565 S
C1530 C1524 1.383 1_565 S
C1530 C1529 1.379 . S
H1531 C1525 0.959 . S
H1532 C1525 0.961 . S
H1533 C1525 0.960 . S
H1534 C1526 0.930 . S
H1535 C1527 0.929 . S
H1536 C1544 0.929 . S
H1537 C1546 0.930 . S
H1538 C1548 0.930 . S
H1539 C1551 0.929 . S
H1540 C1554 0.930 . S
H1541 C1556 0.960 . S
H1542 C1556 0.960 . S
H1543 C1556 0.960 . S
C1544 H1536 0.929 . S
C1544 C1545 1.377 . S
C1544 C1546 1.384 . S
C1545 C1544 1.377 . S
C1545 C1551 1.390 . S
C1546 H1537 0.930 . S
C1546 C1544 1.384 . S
C1546 C1547 1.372 . S
C1547 C1546 1.372 . S
C1547 C1548 1.400 . S
C1547 C1552 1.490 . S
C1548 H1538 0.930 . S
C1548 C1547 1.400 . S
C1548 C1551 1.386 . S
H1549 C1565 0.954 . S
H1550 C1566 0.931 . S
C1551 H1539 0.929 . S
C1551 C1545 1.390 . S
C1551 C1548 1.386 . S
C1552 C1547 1.490 . S
C1552 C1554 1.395 . S
C1552 C1555 1.403 . S
H1553 C1559 0.930 . S
C1554 H1540 0.930 . S
C1554 C1552 1.395 . S
C1554 C1557 1.403 . S
C1555 C1552 1.403 . S
C1555 C1556 1.524 . S
C1555 C1559 1.400 . S
C1556 H1541 0.960 . S
C1556 H1542 0.960 . S
C1556 H1543 0.960 . S
C1556 C1555 1.524 . S
C1557 C1554 1.403 . S
C1557 C1558 1.392 . S
C1557 C1561 1.495 . S
C1558 C1557 1.392 . S
C1558 C1559 1.385 . S
C1558 C1560 1.478 . S
C1559 H1553 0.930 . S
C1559 C1555 1.400 . S
C1559 C1558 1.385 . S
C1560 C1558 1.478 . S
C1560 C1562 1.381 . S
C1560 C1566 1.383 . S
C1561 C1557 1.495 . S
C1561 H1567 0.959 . S
C1561 H1568 0.961 . S
C1561 H1569 0.960 . S
C1562 C1560 1.381 . S
C1562 C1563 1.394 . S
C1562 H1570 0.930 . S
C1563 C1562 1.394 . S
C1563 C1564 1.383 . S
C1563 H1571 0.929 . S
C1564 C1563 1.383 . S
C1564 C1565 1.372 1_455 S
C1565 H1549 0.954 . S
C1565 C1564 1.372 1_655 S
C1565 C1566 1.361 1_655 S
C1566 H1550 0.931 . S
C1566 C1560 1.383 . S
C1566 C1565 1.361 1_455 S
H1567 C1561 0.959 . S
H1568 C1561 0.961 . S
H1569 C1561 0.960 . S
H1570 C1562 0.930 . S
H1571 C1563 0.929 . S
H1572 C1580 0.929 . S
H1573 C1582 0.930 . S
H1574 C1584 0.930 . S
H1575 C1587 0.929 . S
H1576 C1590 0.930 . S
H1577 C1592 0.960 . S
H1578 C1592 0.960 . S
H1579 C1592 0.960 . S
C1580 H1572 0.929 . S
C1580 C1581 1.377 . S
C1580 C1582 1.384 . S
C1581 C1580 1.377 . S
C1581 C1587 1.390 . S
C1582 H1573 0.930 . S
C1582 C1580 1.384 . S
C1582 C1583 1.372 . S
C1583 C1582 1.372 . S
C1583 C1584 1.400 . S
C1583 C1588 1.490 . S
C1584 H1574 0.930 . S
C1584 C1583 1.400 . S
C1584 C1587 1.386 . S
H1585 C1601 0.930 . S
H1586 C1602 0.931 . S
C1587 H1575 0.929 . S
C1587 C1581 1.390 . S
C1587 C1584 1.386 . S
C1588 C1583 1.490 . S
C1588 C1590 1.395 . S
C1588 C1591 1.403 . S
H1589 C1595 0.930 . S
C1590 H1576 0.930 . S
C1590 C1588 1.395 . S
C1590 C1593 1.403 . S
C1591 C1588 1.403 . S
C1591 C1592 1.524 . S
C1591 C1595 1.400 . S
C1592 H1577 0.960 . S
C1592 H1578 0.960 . S
C1592 H1579 0.960 . S
C1592 C1591 1.524 . S
C1593 C1590 1.403 . S
C1593 C1594 1.392 . S
C1593 C1597 1.495 . S
C1594 C1593 1.392 . S
C1594 C1595 1.385 . S
C1594 C1596 1.478 . S
C1595 H1589 0.930 . S
C1595 C1591 1.400 . S
C1595 C1594 1.385 . S
C1596 C1594 1.478 . S
C1596 C1598 1.381 . S
C1596 C1602 1.383 . S
C1597 C1593 1.495 . S
C1597 H1603 0.959 . S
C1597 H1604 0.961 . S
C1597 H1605 0.960 . S
C1598 C1596 1.381 . S
C1598 C1599 1.394 1_545 S
C1598 H1606 0.930 1_545 S
C1599 C1598 1.394 1_565 S
C1599 C1600 1.383 1_565 S
C1599 H1607 0.929 . S
C1600 C1599 1.383 1_545 S
C1600 C1601 1.377 . S
C1601 H1585 0.930 . S
C1601 C1600 1.377 . S
C1601 C1602 1.379 . S
C1602 H1586 0.931 . S
C1602 C1596 1.383 . S
C1602 C1601 1.379 . S
H1603 C1597 0.959 . S
H1604 C1597 0.961 . S
H1605 C1597 0.960 . S
H1606 C1598 0.930 1_565 S
H1607 C1599 0.929 . S
H1608 C1616 0.929 . S
H1609 C1618 0.930 . S
H1610 C1620 0.930 . S
H1611 C1623 0.929 . S
H1612 C1626 0.930 . S
H1613 C1628 0.960 . S
H1614 C1628 0.960 . S
H1615 C1628 0.960 . S
C1616 H1608 0.929 . S
C1616 C1617 1.377 . S
C1616 C1618 1.384 . S
C1617 C1616 1.377 . S
C1617 C1623 1.390 . S
C1618 H1609 0.930 . S
C1618 C1616 1.384 . S
C1618 C1619 1.372 . S
C1619 C1618 1.372 . S
C1619 C1620 1.400 . S
C1619 C1624 1.490 . S
C1620 H1610 0.930 . S
C1620 C1619 1.400 . S
C1620 C1623 1.386 . S
H1621 C1637 0.930 . S
H1622 C1638 0.928 1_655 S
C1623 H1611 0.929 . S
C1623 C1617 1.390 . S
C1623 C1620 1.386 . S
C1624 C1619 1.490 . S
C1624 C1626 1.395 . S
C1624 C1627 1.403 . S
H1625 C1631 0.930 . S
C1626 H1612 0.930 . S
C1626 C1624 1.395 . S
C1626 C1629 1.403 . S
C1627 C1624 1.403 . S
C1627 C1628 1.524 . S
C1627 C1631 1.400 . S
C1628 H1613 0.960 . S
C1628 H1614 0.960 . S
C1628 H1615 0.960 . S
C1628 C1627 1.524 . S
C1629 C1626 1.403 . S
C1629 C1630 1.392 . S
C1629 C1633 1.495 . S
C1630 C1629 1.392 . S
C1630 C1631 1.385 . S
C1630 C1632 1.478 . S
C1631 H1625 0.930 . S
C1631 C1627 1.400 . S
C1631 C1630 1.385 . S
C1632 C1630 1.478 . S
C1632 C1634 1.381 . S
C1632 C1638 1.383 . S
C1633 C1629 1.495 . S
C1633 H1639 0.959 . S
C1633 H1640 0.961 . S
C1633 H1641 0.960 . S
C1634 C1632 1.381 . S
C1634 C1635 1.394 . S
C1634 H1642 0.930 . S
C1635 C1634 1.394 . S
C1635 C1636 1.383 . S
C1635 H1643 0.929 . S
C1636 C1635 1.383 . S
C1636 C1637 1.377 1_455 S
C1637 H1621 0.930 . S
C1637 C1636 1.377 1_655 S
C1637 C1638 1.379 1_655 S
C1638 H1622 0.928 1_455 S
C1638 C1632 1.383 . S
C1638 C1637 1.379 1_455 S
H1639 C1633 0.959 . S
H1640 C1633 0.961 . S
H1641 C1633 0.960 . S
H1642 C1634 0.930 . S
H1643 C1635 0.929 . S
H1644 C1652 0.929 . S
H1645 C1654 0.930 . S
H1646 C1656 0.930 . S
H1647 C1659 0.929 . S
H1648 C1662 0.930 . S
H1649 C1664 0.960 . S
H1650 C1664 0.960 . S
H1651 C1664 0.960 . S
C1652 H1644 0.929 . S
C1652 C1653 1.377 . S
C1652 C1654 1.384 . S
C1653 C1652 1.377 . S
C1653 C1659 1.390 . S
C1654 H1645 0.930 . S
C1654 C1652 1.384 . S
C1654 C1655 1.372 . S
C1655 C1654 1.372 . S
C1655 C1656 1.400 . S
C1655 C1660 1.490 . S
C1656 H1646 0.930 . S
C1656 C1655 1.400 . S
C1656 C1659 1.386 . S
H1657 C1673 0.930 . S
H1658 C1674 0.931 . S
C1659 H1647 0.929 . S
C1659 C1653 1.390 . S
C1659 C1656 1.386 . S
C1660 C1655 1.490 . S
C1660 C1662 1.395 . S
C1660 C1663 1.403 . S
H1661 C1667 0.930 . S
C1662 H1648 0.930 . S
C1662 C1660 1.395 . S
C1662 C1665 1.403 . S
C1663 C1660 1.403 . S
C1663 C1664 1.524 . S
C1663 C1667 1.400 . S
C1664 H1649 0.960 . S
C1664 H1650 0.960 . S
C1664 H1651 0.960 . S
C1664 C1663 1.524 . S
C1665 C1662 1.403 . S
C1665 C1666 1.392 . S
C1665 C1669 1.495 . S
C1666 C1665 1.392 . S
C1666 C1667 1.385 . S
C1666 C1668 1.478 . S
C1667 H1661 0.930 . S
C1667 C1663 1.400 . S
C1667 C1666 1.385 . S
C1668 C1666 1.478 . S
C1668 C1670 1.381 . S
C1668 C1674 1.383 . S
C1669 C1665 1.495 . S
C1669 H1675 0.959 . S
C1669 H1676 0.961 . S
C1669 H1677 0.960 . S
C1670 C1668 1.381 . S
C1670 C1671 1.394 1_545 S
C1670 H1678 0.930 1_545 S
C1671 C1670 1.394 1_565 S
C1671 C1672 1.383 1_565 S
C1671 H1679 0.929 . S
C1672 C1671 1.383 1_545 S
C1672 C1673 1.377 . S
C1673 H1657 0.930 . S
C1673 C1672 1.377 . S
C1673 C1674 1.379 . S
C1674 H1658 0.931 . S
C1674 C1668 1.383 . S
C1674 C1673 1.379 . S
H1675 C1669 0.959 . S
H1676 C1669 0.961 . S
H1677 C1669 0.960 . S
H1678 C1670 0.930 1_565 S
H1679 C1671 0.929 . S
H1680 C1688 0.929 . S
H1681 C1690 0.930 . S
H1682 C1692 0.930 . S
H1683 C1695 0.929 . S
H1684 C1698 0.930 . S
H1685 C1700 0.960 . S
H1686 C1700 0.960 . S
H1687 C1700 0.960 . S
C1688 H1680 0.929 . S
C1688 C1689 1.377 . S
C1688 C1690 1.384 . S
C1689 C1688 1.377 . S
C1689 C1695 1.390 . S
C1690 H1681 0.930 . S
C1690 C1688 1.384 . S
C1690 C1691 1.372 . S
C1691 C1690 1.372 . S
C1691 C1692 1.400 . S
C1691 C1696 1.490 . S
C1692 H1682 0.930 . S
C1692 C1691 1.400 . S
C1692 C1695 1.386 . S
H1693 C1709 0.930 . S
H1694 C1710 0.931 . S
C1695 H1683 0.929 . S
C1695 C1689 1.390 . S
C1695 C1692 1.386 . S
C1696 C1691 1.490 . S
C1696 C1698 1.395 . S
C1696 C1699 1.403 . S
H1697 C1703 0.930 . S
C1698 H1684 0.930 . S
C1698 C1696 1.395 . S
C1698 C1701 1.403 . S
C1699 C1696 1.403 . S
C1699 C1700 1.524 . S
C1699 C1703 1.400 . S
C1700 H1685 0.960 . S
C1700 H1686 0.960 . S
C1700 H1687 0.960 . S
C1700 C1699 1.524 . S
C1701 C1698 1.403 . S
C1701 C1702 1.392 . S
C1701 C1705 1.495 . S
C1702 C1701 1.392 . S
C1702 C1703 1.385 . S
C1702 C1704 1.478 . S
C1703 H1697 0.930 . S
C1703 C1699 1.400 . S
C1703 C1702 1.385 . S
C1704 C1702 1.478 . S
C1704 C1706 1.381 . S
C1704 C1710 1.383 . S
C1705 C1701 1.495 . S
C1705 H1711 0.959 . S
C1705 H1712 0.961 . S
C1705 H1713 0.981 . S
C1706 C1704 1.381 . S
C1706 C1707 1.394 1_455 S
C1706 H1714 0.930 1_455 S
C1707 C1706 1.394 1_655 S
C1707 C1708 1.383 1_655 S
C1707 H1715 0.929 . S
C1708 C1707 1.383 1_455 S
C1708 C1709 1.377 . S
C1709 H1693 0.930 . S
C1709 C1708 1.377 . S
C1709 C1710 1.379 . S
C1710 H1694 0.931 . S
C1710 C1704 1.383 . S
C1710 C1709 1.379 . S
H1711 C1705 0.959 . S
H1712 C1705 0.961 . S
H1713 C1705 0.981 . S
H1714 C1706 0.930 1_655 S
H1715 C1707 0.929 . S
H1716 C1724 0.929 . S
H1717 C1726 0.930 . S
H1718 C1728 0.930 . S
H1719 C1731 0.929 . S
H1720 C1734 0.930 . S
H1721 C1736 0.960 . S
H1722 C1736 0.960 . S
H1723 C1736 0.960 . S
C1724 H1716 0.929 . S
C1724 C1725 1.377 . S
C1724 C1726 1.384 . S
C1725 C1724 1.377 . S
C1725 C1731 1.390 . S
C1726 H1717 0.930 . S
C1726 C1724 1.384 . S
C1726 C1727 1.372 . S
C1727 C1726 1.372 . S
C1727 C1728 1.400 . S
C1727 C1732 1.490 . S
C1728 H1718 0.930 . S
C1728 C1727 1.400 . S
C1728 C1731 1.386 . S
H1729 C1745 0.930 . S
H1730 C1746 0.931 . S
C1731 H1719 0.929 . S
C1731 C1725 1.390 . S
C1731 C1728 1.386 . S
C1732 C1727 1.490 . S
C1732 C1734 1.395 . S
C1732 C1735 1.403 . S
H1733 C1739 0.930 . S
C1734 H1720 0.930 . S
C1734 C1732 1.395 . S
C1734 C1737 1.403 . S
C1735 C1732 1.403 . S
C1735 C1736 1.524 . S
C1735 C1739 1.400 . S
C1736 H1721 0.960 . S
C1736 H1722 0.960 . S
C1736 H1723 0.960 . S
C1736 C1735 1.524 . S
C1737 C1734 1.403 . S
C1737 C1738 1.392 . S
C1737 C1741 1.495 . S
C1738 C1737 1.392 . S
C1738 C1739 1.385 . S
C1738 C1740 1.478 . S
C1739 H1733 0.930 . S
C1739 C1735 1.400 . S
C1739 C1738 1.385 . S
C1740 C1738 1.478 . S
C1740 C1742 1.381 . S
C1740 C1746 1.383 . S
C1741 C1737 1.495 . S
C1741 H1747 0.959 . S
C1741 H1748 0.961 . S
C1741 H1749 0.960 . S
C1742 C1740 1.381 . S
C1742 C1743 1.394 1_545 S
C1742 H1750 0.930 . S
C1743 C1742 1.394 1_565 S
C1743 C1744 1.383 1_565 S
C1743 H1751 0.929 . S
C1744 C1743 1.383 1_545 S
C1744 C1745 1.377 . S
C1745 H1729 0.930 . S
C1745 C1744 1.377 . S
C1745 C1746 1.379 . S
C1746 H1730 0.931 . S
C1746 C1740 1.383 . S
C1746 C1745 1.379 . S
H1747 C1741 0.959 . S
H1748 C1741 0.961 . S
H1749 C1741 0.960 . S
H1750 C1742 0.930 . S
H1751 C1743 0.929 . S
H1752 C1760 0.929 . S
H1753 C1762 0.930 . S
H1754 C1764 0.930 . S
H1755 C1767 0.929 . S
H1756 C1770 0.930 . S
H1757 C1772 0.960 . S
H1758 C1772 0.960 . S
H1759 C1772 0.960 . S
C1760 H1752 0.929 . S
C1760 C1761 1.377 . S
C1760 C1762 1.384 . S
C1761 C1760 1.377 . S
C1761 C1767 1.390 . S
C1762 H1753 0.930 . S
C1762 C1760 1.384 . S
C1762 C1763 1.372 . S
C1763 C1762 1.372 . S
C1763 C1764 1.400 . S
C1763 C1768 1.490 . S
C1764 H1754 0.930 . S
C1764 C1763 1.400 . S
C1764 C1767 1.386 . S
H1765 C1781 0.930 . S
H1766 C1782 0.931 . S
C1767 H1755 0.929 . S
C1767 C1761 1.390 . S
C1767 C1764 1.386 . S
C1768 C1763 1.490 . S
C1768 C1770 1.395 . S
C1768 C1771 1.403 . S
H1769 C1775 0.930 . S
C1770 H1756 0.930 . S
C1770 C1768 1.395 . S
C1770 C1773 1.403 . S
C1771 C1768 1.403 . S
C1771 C1772 1.524 . S
C1771 C1775 1.400 . S
C1772 H1757 0.960 . S
C1772 H1758 0.960 . S
C1772 H1759 0.960 . S
C1772 C1771 1.524 . S
C1773 C1770 1.403 . S
C1773 C1774 1.392 . S
C1773 C1777 1.495 . S
C1774 C1773 1.392 . S
C1774 C1775 1.385 . S
C1774 C1776 1.478 . S
C1775 H1769 0.930 . S
C1775 C1771 1.400 . S
C1775 C1774 1.385 . S
C1776 C1774 1.478 . S
C1776 C1778 1.381 . S
C1776 C1782 1.383 . S
C1777 C1773 1.495 . S
C1777 H1783 0.959 . S
C1777 H1784 0.961 . S
C1777 H1785 0.891 1_455 S
C1778 C1776 1.381 . S
C1778 C1779 1.394 1_455 S
C1778 H1786 0.930 1_455 S
C1779 C1778 1.394 1_655 S
C1779 C1780 1.383 1_655 S
C1779 H1787 0.929 . S
C1780 C1779 1.383 1_455 S
C1780 C1781 1.377 . S
C1781 H1765 0.930 . S
C1781 C1780 1.377 . S
C1781 C1782 1.379 . S
C1782 H1766 0.931 . S
C1782 C1776 1.383 . S
C1782 C1781 1.379 . S
H1783 C1777 0.959 . S
H1784 C1777 0.961 . S
H1785 C1777 0.891 1_655 S
H1786 C1778 0.930 1_655 S
H1787 C1779 0.929 . S
H1788 C1796 0.929 . S
H1789 C1798 0.930 . S
H1790 C1800 0.930 . S
H1791 C1803 0.929 . S
H1792 C1806 0.930 . S
H1793 C1808 0.960 . S
H1794 C1808 0.960 . S
H1795 C1808 0.960 . S
C1796 H1788 0.929 . S
C1796 C1797 1.377 . S
C1796 C1798 1.384 . S
C1797 C1796 1.377 . S
C1797 C1803 1.390 . S
C1798 H1789 0.930 . S
C1798 C1796 1.384 . S
C1798 C1799 1.372 . S
C1799 C1798 1.372 . S
C1799 C1800 1.400 . S
C1799 C1804 1.490 . S
C1800 H1790 0.930 . S
C1800 C1799 1.400 . S
C1800 C1803 1.386 . S
H1801 C1817 0.930 . S
H1802 C1818 0.931 . S
C1803 H1791 0.929 . S
C1803 C1797 1.390 . S
C1803 C1800 1.386 . S
C1804 C1799 1.490 . S
C1804 C1806 1.395 . S
C1804 C1807 1.403 . S
H1805 C1811 0.930 . S
C1806 H1792 0.930 . S
C1806 C1804 1.395 . S
C1806 C1809 1.403 . S
C1807 C1804 1.403 . S
C1807 C1808 1.524 . S
C1807 C1811 1.400 . S
C1808 H1793 0.960 . S
C1808 H1794 0.960 . S
C1808 H1795 0.960 . S
C1808 C1807 1.524 . S
C1809 C1806 1.403 . S
C1809 C1810 1.392 . S
C1809 C1813 1.495 . S
C1810 C1809 1.392 . S
C1810 C1811 1.385 . S
C1810 C1812 1.478 . S
C1811 H1805 0.930 . S
C1811 C1807 1.400 . S
C1811 C1810 1.385 . S
C1812 C1810 1.478 . S
C1812 C1814 1.381 . S
C1812 C1818 1.383 . S
C1813 C1809 1.495 . S
C1813 H1819 0.959 . S
C1813 H1820 0.961 . S
C1813 H1821 0.960 . S
C1814 C1812 1.381 . S
C1814 C1815 1.394 1_545 S
C1814 H1822 0.930 1_545 S
C1815 C1814 1.394 1_565 S
C1815 C1816 1.383 1_565 S
C1815 H1823 0.929 . S
C1816 C1815 1.383 1_545 S
C1816 C1817 1.377 . S
C1817 H1801 0.930 . S
C1817 C1816 1.377 . S
C1817 C1818 1.379 . S
C1818 H1802 0.931 . S
C1818 C1812 1.383 . S
C1818 C1817 1.379 . S
H1819 C1813 0.959 . S
H1820 C1813 0.961 . S
H1821 C1813 0.960 . S
H1822 C1814 0.930 1_565 S
H1823 C1815 0.929 . S
H1824 C1832 0.929 . S
H1825 C1834 0.930 . S
H1826 C1836 0.930 . S
H1827 C1839 0.929 . S
H1828 C1842 0.930 . S
H1829 C1844 0.960 . S
H1830 C1844 0.960 . S
H1831 C1844 0.960 . S
C1832 H1824 0.929 . S
C1832 C1833 1.377 . S
C1832 C1834 1.384 . S
C1833 C1832 1.377 . S
C1833 C1839 1.390 . S
C1834 H1825 0.930 . S
C1834 C1832 1.384 . S
C1834 C1835 1.372 . S
C1835 C1834 1.372 . S
C1835 C1836 1.400 . S
C1835 C1840 1.490 . S
C1836 H1826 0.930 . S
C1836 C1835 1.400 . S
C1836 C1839 1.386 . S
H1837 C1853 0.930 . S
H1838 C1854 0.931 . S
C1839 H1827 0.929 . S
C1839 C1833 1.390 . S
C1839 C1836 1.386 . S
C1840 C1835 1.490 . S
C1840 C1842 1.395 . S
C1840 C1843 1.403 . S
H1841 C1847 0.930 . S
C1842 H1828 0.930 . S
C1842 C1840 1.395 . S
C1842 C1845 1.403 . S
C1843 C1840 1.403 . S
C1843 C1844 1.524 . S
C1843 C1847 1.400 . S
C1844 H1829 0.960 . S
C1844 H1830 0.960 . S
C1844 H1831 0.960 . S
C1844 C1843 1.524 . S
C1845 C1842 1.403 . S
C1845 C1846 1.392 . S
C1845 C1849 1.495 . S
C1846 C1845 1.392 . S
C1846 C1847 1.385 . S
C1846 C1848 1.478 . S
C1847 H1841 0.930 . S
C1847 C1843 1.400 . S
C1847 C1846 1.385 . S
C1848 C1846 1.478 . S
C1848 C1850 1.381 . S
C1848 C1854 1.383 . S
C1849 C1845 1.495 . S
C1849 H1855 0.959 . S
C1849 H1856 0.961 . S
C1849 H1857 0.960 . S
C1850 C1848 1.381 . S
C1850 C1851 1.394 1_554 S
C1850 H1858 0.930 1_554 S
C1851 C1850 1.394 1_556 S
C1851 C1852 1.383 1_556 S
C1851 H1859 0.929 . S
C1852 C1851 1.383 1_554 S
C1852 C1853 1.377 . S
C1853 H1837 0.930 . S
C1853 C1852 1.377 . S
C1853 C1854 1.379 . S
C1854 H1838 0.931 . S
C1854 C1848 1.383 . S
C1854 C1853 1.379 . S
H1855 C1849 0.959 . S
H1856 C1849 0.961 . S
H1857 C1849 0.960 . S
H1858 C1850 0.930 1_556 S
H1859 C1851 0.929 . S
H1860 C1868 0.929 1_556 S
H1861 C1870 0.930 . S
H1862 C1872 0.930 . S
H1863 C1875 0.929 . S
H1864 C1878 0.930 . S
H1865 C1880 0.960 . S
H1866 C1880 0.960 . S
H1867 C1880 0.960 . S
C1868 H1860 0.929 1_554 S
C1868 C1869 1.377 . S
C1868 C1870 1.384 . S
C1869 C1868 1.377 . S
C1869 C1875 1.390 . S
C1870 H1861 0.930 . S
C1870 C1868 1.384 . S
C1870 C1871 1.372 . S
C1871 C1870 1.372 . S
C1871 C1872 1.400 . S
C1871 C1876 1.490 . S
C1872 H1862 0.930 . S
C1872 C1871 1.400 . S
C1872 C1875 1.386 . S
H1873 C1889 0.930 . S
H1874 C1890 0.931 . S
C1875 H1863 0.929 . S
C1875 C1869 1.390 . S
C1875 C1872 1.386 . S
C1876 C1871 1.490 . S
C1876 C1878 1.395 . S
C1876 C1879 1.403 . S
H1877 C1883 0.930 . S
C1878 H1864 0.930 . S
C1878 C1876 1.395 . S
C1878 C1881 1.403 . S
C1879 C1876 1.403 . S
C1879 C1880 1.524 . S
C1879 C1883 1.400 . S
C1880 H1865 0.960 . S
C1880 H1866 0.960 . S
C1880 H1867 0.960 . S
C1880 C1879 1.524 . S
C1881 C1878 1.403 . S
C1881 C1882 1.392 . S
C1881 C1885 1.495 . S
C1882 C1881 1.392 . S
C1882 C1883 1.385 . S
C1882 C1884 1.478 . S
C1883 H1877 0.930 . S
C1883 C1879 1.400 . S
C1883 C1882 1.385 . S
C1884 C1882 1.478 . S
C1884 C1886 1.381 . S
C1884 C1890 1.383 . S
C1885 C1881 1.495 . S
C1885 H1891 0.959 . S
C1885 H1892 0.961 . S
C1885 H1893 0.960 . S
C1886 C1884 1.381 . S
C1886 C1887 1.394 . S
C1886 H1894 0.930 . S
C1887 C1886 1.394 . S
C1887 C1888 1.383 . S
C1887 H1895 0.929 . S
C1888 C1887 1.383 . S
C1888 C1889 1.377 . S
C1889 H1873 0.930 . S
C1889 C1888 1.377 . S
C1889 C1890 1.379 . S
C1890 H1874 0.931 . S
C1890 C1884 1.383 . S
C1890 C1889 1.379 . S
H1891 C1885 0.959 . S
H1892 C1885 0.961 . S
H1893 C1885 0.960 . S
H1894 C1886 0.930 . S
H1895 C1887 0.929 . S
H1896 C1904 0.929 . S
H1897 C1906 0.930 . S
H1898 C1908 0.930 . S
H1899 C1911 0.959 . S
H1900 C1914 0.930 . S
H1901 C1916 0.960 . S
H1902 C1916 0.960 . S
H1903 C1916 0.960 . S
C1904 H1896 0.929 . S
C1904 C1905 1.377 . S
C1904 C1906 1.384 . S
C1905 C1904 1.377 . S
C1905 C1911 1.382 1_554 S
C1906 H1897 0.930 . S
C1906 C1904 1.384 . S
C1906 C1907 1.372 . S
C1907 C1906 1.372 . S
C1907 C1908 1.400 . S
C1907 C1912 1.490 . S
C1908 H1898 0.930 . S
C1908 C1907 1.400 . S
C1908 C1911 1.364 1_554 S
H1909 C1925 0.930 . S
H1910 C1926 0.931 . S
C1911 H1899 0.959 . S
C1911 C1905 1.382 1_556 S
C1911 C1908 1.364 1_556 S
C1912 C1907 1.490 . S
C1912 C1914 1.395 . S
C1912 C1915 1.403 . S
H1913 C1919 0.930 . S
C1914 H1900 0.930 . S
C1914 C1912 1.395 . S
C1914 C1917 1.403 . S
C1915 C1912 1.403 . S
C1915 C1916 1.524 . S
C1915 C1919 1.400 . S
C1916 H1901 0.960 . S
C1916 H1902 0.960 . S
C1916 H1903 0.960 . S
C1916 C1915 1.524 . S
C1917 C1914 1.403 . S
C1917 C1918 1.392 . S
C1917 C1921 1.495 . S
C1918 C1917 1.392 . S
C1918 C1919 1.385 . S
C1918 C1920 1.478 . S
C1919 H1913 0.930 . S
C1919 C1915 1.400 . S
C1919 C1918 1.385 . S
C1920 C1918 1.478 . S
C1920 C1922 1.381 . S
C1920 C1926 1.383 . S
C1921 C1917 1.495 . S
C1921 H1927 0.959 . S
C1921 H1928 0.961 . S
C1921 H1929 0.960 . S
C1922 C1920 1.381 . S
C1922 C1923 1.394 . S
C1922 H1930 0.930 . S
C1923 C1922 1.394 . S
C1923 C1924 1.383 . S
C1923 H1931 0.929 . S
C1924 C1923 1.383 . S
C1924 C1925 1.377 . S
C1925 H1909 0.930 . S
C1925 C1924 1.377 . S
C1925 C1926 1.379 . S
C1926 H1910 0.931 . S
C1926 C1920 1.383 . S
C1926 C1925 1.379 . S
H1927 C1921 0.959 . S
H1928 C1921 0.961 . S
H1929 C1921 0.960 . S
H1930 C1922 0.930 . S
H1931 C1923 0.929 . S
H1932 C1940 0.929 . S
H1933 C1942 0.930 . S
H1934 C1944 0.930 . S
H1935 C1947 0.929 . S
H1936 C1950 0.930 . S
H1937 C1952 0.960 . S
H1938 C1952 0.960 . S
H1939 C1952 0.960 . S
C1940 H1932 0.929 . S
C1940 C1941 1.377 . S
C1940 C1942 1.384 . S
C1941 C1940 1.377 . S
C1941 C1947 1.390 . S
C1942 H1933 0.930 . S
C1942 C1940 1.384 . S
C1942 C1943 1.372 . S
C1943 C1942 1.372 . S
C1943 C1944 1.400 . S
C1943 C1948 1.490 . S
C1944 H1934 0.930 . S
C1944 C1943 1.400 . S
C1944 C1947 1.386 . S
H1945 C1961 0.930 1_556 S
H1946 C1962 0.931 . S
C1947 H1935 0.929 . S
C1947 C1941 1.390 . S
C1947 C1944 1.386 . S
C1948 C1943 1.490 . S
C1948 C1950 1.395 . S
C1948 C1951 1.403 . S
H1949 C1955 0.930 . S
C1950 H1936 0.930 . S
C1950 C1948 1.395 . S
C1950 C1953 1.403 . S
C1951 C1948 1.403 . S
C1951 C1952 1.524 . S
C1951 C1955 1.400 . S
C1952 H1937 0.960 . S
C1952 H1938 0.960 . S
C1952 H1939 0.960 . S
C1952 C1951 1.524 . S
C1953 C1950 1.403 . S
C1953 C1954 1.392 . S
C1953 C1957 1.495 . S
C1954 C1953 1.392 . S
C1954 C1955 1.385 . S
C1954 C1956 1.478 . S
C1955 H1949 0.930 . S
C1955 C1951 1.400 . S
C1955 C1954 1.385 . S
C1956 C1954 1.478 . S
C1956 C1958 1.381 . S
C1956 C1962 1.383 . S
C1957 C1953 1.495 . S
C1957 H1963 0.959 . S
C1957 H1964 0.938 1_554 S
C1957 H1965 0.960 . S
C1958 C1956 1.381 . S
C1958 C1959 1.394 . S
C1958 H1966 0.930 . S
C1959 C1958 1.394 . S
C1959 C1960 1.383 . S
C1959 H1967 0.929 . S
C1960 C1959 1.383 . S
C1960 C1961 1.377 . S
C1961 H1945 0.930 1_554 S
C1961 C1960 1.377 . S
C1961 C1962 1.379 . S
C1962 H1946 0.931 . S
C1962 C1956 1.383 . S
C1962 C1961 1.379 . S
H1963 C1957 0.959 . S
H1964 C1957 0.938 1_556 S
H1965 C1957 0.960 . S
H1966 C1958 0.930 . S
H1967 C1959 0.929 . S
H1968 C1976 0.929 . S
H1969 C1978 0.930 . S
H1970 C1980 0.930 . S
H1971 C1983 0.929 . S
H1972 C1986 0.930 . S
H1973 C1988 0.960 . S
H1974 C1988 0.960 . S
H1975 C1988 0.960 . S
C1976 H1968 0.929 . S
C1976 C1977 1.377 . S
C1976 C1978 1.384 . S
C1977 C1976 1.377 . S
C1977 C1983 1.390 . S
C1978 H1969 0.930 . S
C1978 C1976 1.384 . S
C1978 C1979 1.372 . S
C1979 C1978 1.372 . S
C1979 C1980 1.400 . S
C1979 C1984 1.490 . S
C1980 H1970 0.930 . S
C1980 C1979 1.400 . S
C1980 C1983 1.386 . S
H1981 C1997 0.930 . S
H1982 C1998 0.931 . S
C1983 H1971 0.929 . S
C1983 C1977 1.390 . S
C1983 C1980 1.386 . S
C1984 C1979 1.490 . S
C1984 C1986 1.395 . S
C1984 C1987 1.403 . S
H1985 C1991 0.930 . S
C1986 H1972 0.930 . S
C1986 C1984 1.395 . S
C1986 C1989 1.403 . S
C1987 C1984 1.403 . S
C1987 C1988 1.524 . S
C1987 C1991 1.400 . S
C1988 H1973 0.960 . S
C1988 H1974 0.960 . S
C1988 H1975 0.960 . S
C1988 C1987 1.524 . S
C1989 C1986 1.403 . S
C1989 C1990 1.392 . S
C1989 C1993 1.495 . S
C1990 C1989 1.392 . S
C1990 C1991 1.385 . S
C1990 C1992 1.478 . S
C1991 H1985 0.930 . S
C1991 C1987 1.400 . S
C1991 C1990 1.385 . S
C1992 C1990 1.478 . S
C1992 C1994 1.381 . S
C1992 C1998 1.383 . S
C1993 C1989 1.495 . S
C1993 H1999 0.959 . S
C1993 H2000 0.961 . S
C1993 H2001 0.960 . S
C1994 C1992 1.381 . S
C1994 C1995 1.394 . S
C1994 H2002 0.930 . S
C1995 C1994 1.394 . S
C1995 C1996 1.383 . S
C1995 H2003 0.929 . S
C1996 C1995 1.383 . S
C1996 C1997 1.377 . S
C1997 H1981 0.930 . S
C1997 C1996 1.377 . S
C1997 C1998 1.379 . S
C1998 H1982 0.931 . S
C1998 C1992 1.383 . S
C1998 C1997 1.379 . S
H1999 C1993 0.959 . S
H2000 C1993 0.961 . S
H2001 C1993 0.960 . S
H2002 C1994 0.930 . S
H2003 C1995 0.929 . S
H2004 C2012 0.929 . S
H2005 C2014 0.930 . S
H2006 C2016 0.930 . S
H2007 C2019 0.929 . S
H2008 C2022 0.930 . S
H2009 C2024 0.960 . S
H2010 C2024 0.960 . S
H2011 C2024 0.960 . S
C2012 H2004 0.929 . S
C2012 C2013 1.377 . S
C2012 C2014 1.384 . S
C2013 C2012 1.377 . S
C2013 C2019 1.390 . S
C2014 H2005 0.930 . S
C2014 C2012 1.384 . S
C2014 C2015 1.372 . S
C2015 C2014 1.372 . S
C2015 C2016 1.400 . S
C2015 C2020 1.490 . S
C2016 H2006 0.930 . S
C2016 C2015 1.400 . S
C2016 C2019 1.386 . S
H2017 C2033 0.930 . S
H2018 C2034 0.931 . S
C2019 H2007 0.929 . S
C2019 C2013 1.390 . S
C2019 C2016 1.386 . S
C2020 C2015 1.490 . S
C2020 C2022 1.395 . S
C2020 C2023 1.403 . S
H2021 C2027 0.930 . S
C2022 H2008 0.930 . S
C2022 C2020 1.395 . S
C2022 C2025 1.403 . S
C2023 C2020 1.403 . S
C2023 C2024 1.524 . S
C2023 C2027 1.400 . S
C2024 H2009 0.960 . S
C2024 H2010 0.960 . S
C2024 H2011 0.960 . S
C2024 C2023 1.524 . S
C2025 C2022 1.403 . S
C2025 C2026 1.392 . S
C2025 C2029 1.495 . S
C2026 C2025 1.392 . S
C2026 C2027 1.385 . S
C2026 C2028 1.478 . S
C2027 H2021 0.930 . S
C2027 C2023 1.400 . S
C2027 C2026 1.385 . S
C2028 C2026 1.478 . S
C2028 C2030 1.381 . S
C2028 C2034 1.383 . S
C2029 C2025 1.495 . S
C2029 H2035 0.959 . S
C2029 H2036 0.961 . S
C2029 H2037 0.960 . S
C2030 C2028 1.381 . S
C2030 C2031 1.394 . S
C2030 H2038 0.930 . S
C2031 C2030 1.394 . S
C2031 C2032 1.383 . S
C2031 H2039 0.929 . S
C2032 C2031 1.383 . S
C2032 C2033 1.377 . S
C2033 H2017 0.930 . S
C2033 C2032 1.377 . S
C2033 C2034 1.379 . S
C2034 H2018 0.931 . S
C2034 C2028 1.383 . S
C2034 C2033 1.379 . S
H2035 C2029 0.959 . S
H2036 C2029 0.961 . S
H2037 C2029 0.960 . S
H2038 C2030 0.930 . S
H2039 C2031 0.929 . S
H2040 C2048 0.929 . S
H2041 C2050 0.930 . S
H2042 C2052 0.930 . S
H2043 C2055 0.929 . S
H2044 C2058 0.930 . S
H2045 C2060 0.960 . S
H2046 C2060 0.960 . S
H2047 C2060 0.960 . S
C2048 H2040 0.929 . S
C2048 C2049 1.377 . S
C2048 C2050 1.384 . S
C2049 C2048 1.377 . S
C2049 C2055 1.390 . S
C2050 H2041 0.930 . S
C2050 C2048 1.384 . S
C2050 C2051 1.372 . S
C2051 C2050 1.372 . S
C2051 C2052 1.400 . S
C2051 C2056 1.490 . S
C2052 H2042 0.930 . S
C2052 C2051 1.400 . S
C2052 C2055 1.386 . S
H2053 C2069 0.930 . S
H2054 C2070 0.931 . S
C2055 H2043 0.929 . S
C2055 C2049 1.390 . S
C2055 C2052 1.386 . S
C2056 C2051 1.490 . S
C2056 C2058 1.395 . S
C2056 C2059 1.403 . S
H2057 C2063 0.930 . S
C2058 H2044 0.930 . S
C2058 C2056 1.395 . S
C2058 C2061 1.403 . S
C2059 C2056 1.403 . S
C2059 C2060 1.524 . S
C2059 C2063 1.400 . S
C2060 H2045 0.960 . S
C2060 H2046 0.960 . S
C2060 H2047 0.960 . S
C2060 C2059 1.524 . S
C2061 C2058 1.403 . S
C2061 C2062 1.392 . S
C2061 C2065 1.495 . S
C2062 C2061 1.392 . S
C2062 C2063 1.385 . S
C2062 C2064 1.478 . S
C2063 H2057 0.930 . S
C2063 C2059 1.400 . S
C2063 C2062 1.385 . S
C2064 C2062 1.478 . S
C2064 C2066 1.381 . S
C2064 C2070 1.383 . S
C2065 C2061 1.495 . S
C2065 H2071 0.959 . S
C2065 H2072 0.961 . S
C2065 H2073 0.960 . S
C2066 C2064 1.381 . S
C2066 C2067 1.394 . S
C2066 H2074 0.930 . S
C2067 C2066 1.394 . S
C2067 C2068 1.383 . S
C2067 H2075 0.929 . S
C2068 C2067 1.383 . S
C2068 C2069 1.377 . S
C2069 H2053 0.930 . S
C2069 C2068 1.377 . S
C2069 C2070 1.379 . S
C2070 H2054 0.931 . S
C2070 C2064 1.383 . S
C2070 C2069 1.379 . S
H2071 C2065 0.959 . S
H2072 C2065 0.961 . S
H2073 C2065 0.960 . S
H2074 C2066 0.930 . S
H2075 C2067 0.929 . S
H2076 C2084 0.929 . S
H2077 C2086 0.930 . S
H2078 C2088 0.930 . S
H2079 C2091 0.929 . S
H2080 C2094 0.930 . S
H2081 C2096 0.960 . S
H2082 C2096 0.960 . S
H2083 C2096 0.960 . S
C2084 H2076 0.929 . S
C2084 C2085 1.377 . S
C2084 C2086 1.384 . S
C2085 C2084 1.377 . S
C2085 C2091 1.390 . S
C2086 H2077 0.930 . S
C2086 C2084 1.384 . S
C2086 C2087 1.372 . S
C2087 C2086 1.372 . S
C2087 C2088 1.400 . S
C2087 C2092 1.490 . S
C2088 H2078 0.930 . S
C2088 C2087 1.400 . S
C2088 C2091 1.386 . S
H2089 C2105 0.930 . S
H2090 C2106 0.931 . S
C2091 H2079 0.929 . S
C2091 C2085 1.390 . S
C2091 C2088 1.386 . S
C2092 C2087 1.490 . S
C2092 C2094 1.395 . S
C2092 C2095 1.403 . S
H2093 C2099 0.930 . S
C2094 H2080 0.930 . S
C2094 C2092 1.395 . S
C2094 C2097 1.403 . S
C2095 C2092 1.403 . S
C2095 C2096 1.524 . S
C2095 C2099 1.400 . S
C2096 H2081 0.960 . S
C2096 H2082 0.960 . S
C2096 H2083 0.960 . S
C2096 C2095 1.524 . S
C2097 C2094 1.403 . S
C2097 C2098 1.392 . S
C2097 C2101 1.495 . S
C2098 C2097 1.392 . S
C2098 C2099 1.385 . S
C2098 C2100 1.478 . S
C2099 H2093 0.930 . S
C2099 C2095 1.400 . S
C2099 C2098 1.385 . S
C2100 C2098 1.478 . S
C2100 C2102 1.381 . S
C2100 C2106 1.383 . S
C2101 C2097 1.495 . S
C2101 H2107 0.959 . S
C2101 H2108 0.961 . S
C2101 H2109 0.960 . S
C2102 C2100 1.381 . S
C2102 C2103 1.394 . S
C2102 H2110 0.930 . S
C2103 C2102 1.394 . S
C2103 C2104 1.383 . S
C2103 H2111 0.929 . S
C2104 C2103 1.383 . S
C2104 C2105 1.377 . S
C2105 H2089 0.930 . S
C2105 C2104 1.377 . S
C2105 C2106 1.379 . S
C2106 H2090 0.931 . S
C2106 C2100 1.383 . S
C2106 C2105 1.379 . S
H2107 C2101 0.959 . S
H2108 C2101 0.961 . S
H2109 C2101 0.960 . S
H2110 C2102 0.930 . S
H2111 C2103 0.929 . S
H2112 C2120 0.929 . S
H2113 C2122 0.930 . S
H2114 C2124 0.930 . S
H2115 C2127 0.929 . S
H2116 C2130 0.930 . S
H2117 C2132 0.960 . S
H2118 C2132 0.960 . S
H2119 C2132 0.960 . S
C2120 H2112 0.929 . S
C2120 C2121 1.377 . S
C2120 C2122 1.384 . S
C2121 C2120 1.377 . S
C2121 C2127 1.390 . S
C2122 H2113 0.930 . S
C2122 C2120 1.384 . S
C2122 C2123 1.372 . S
C2123 C2122 1.372 . S
C2123 C2124 1.400 . S
C2123 C2128 1.490 . S
C2124 H2114 0.930 . S
C2124 C2123 1.400 . S
C2124 C2127 1.386 . S
H2125 C2141 0.930 . S
H2126 C2142 0.931 . S
C2127 H2115 0.929 . S
C2127 C2121 1.390 . S
C2127 C2124 1.386 . S
C2128 C2123 1.490 . S
C2128 C2130 1.395 . S
C2128 C2131 1.403 . S
H2129 C2135 0.930 . S
C2130 H2116 0.930 . S
C2130 C2128 1.395 . S
C2130 C2133 1.403 . S
C2131 C2128 1.403 . S
C2131 C2132 1.524 . S
C2131 C2135 1.400 . S
C2132 H2117 0.960 . S
C2132 H2118 0.960 . S
C2132 H2119 0.960 . S
C2132 C2131 1.524 . S
C2133 C2130 1.403 . S
C2133 C2134 1.392 . S
C2133 C2137 1.495 . S
C2134 C2133 1.392 . S
C2134 C2135 1.385 . S
C2134 C2136 1.478 . S
C2135 H2129 0.930 . S
C2135 C2131 1.400 . S
C2135 C2134 1.385 . S
C2136 C2134 1.478 . S
C2136 C2138 1.381 . S
C2136 C2142 1.383 . S
C2137 C2133 1.495 . S
C2137 H2143 0.959 . S
C2137 H2144 0.961 . S
C2137 H2145 0.960 . S
C2138 C2136 1.381 . S
C2138 C2139 1.394 . S
C2138 H2146 0.930 . S
C2139 C2138 1.394 . S
C2139 C2140 1.383 . S
C2139 H2147 0.929 . S
C2140 C2139 1.383 . S
C2140 C2141 1.377 . S
C2141 H2125 0.930 . S
C2141 C2140 1.377 . S
C2141 C2142 1.379 . S
C2142 H2126 0.931 . S
C2142 C2136 1.383 . S
C2142 C2141 1.379 . S
H2143 C2137 0.959 . S
H2144 C2137 0.961 . S
H2145 C2137 0.960 . S
H2146 C2138 0.930 . S
H2147 C2139 0.929 . S
H2148 C2156 0.929 . S
H2149 C2158 0.930 . S
H2150 C2160 0.930 . S
H2151 C2163 0.929 . S
H2152 C2166 0.930 . S
H2153 C2168 0.960 . S
H2154 C2168 0.960 . S
H2155 C2168 0.960 . S
C2156 H2148 0.929 . S
C2156 C2157 1.377 . S
C2156 C2158 1.384 . S
C2157 C2156 1.377 . S
C2157 C2163 1.390 . S
C2158 H2149 0.930 . S
C2158 C2156 1.384 . S
C2158 C2159 1.372 . S
C2159 C2158 1.372 . S
C2159 C2160 1.400 . S
C2159 C2164 1.490 . S
C2160 H2150 0.930 . S
C2160 C2159 1.400 . S
C2160 C2163 1.386 . S
H2161 C2177 0.930 . S
H2162 C2178 0.931 . S
C2163 H2151 0.929 . S
C2163 C2157 1.390 . S
C2163 C2160 1.386 . S
C2164 C2159 1.490 . S
C2164 C2166 1.395 . S
C2164 C2167 1.403 . S
H2165 C2171 0.930 . S
C2166 H2152 0.930 . S
C2166 C2164 1.395 . S
C2166 C2169 1.403 . S
C2167 C2164 1.403 . S
C2167 C2168 1.524 . S
C2167 C2171 1.400 . S
C2168 H2153 0.960 . S
C2168 H2154 0.960 . S
C2168 H2155 0.960 . S
C2168 C2167 1.524 . S
C2169 C2166 1.403 . S
C2169 C2170 1.392 . S
C2169 C2173 1.495 . S
C2170 C2169 1.392 . S
C2170 C2171 1.385 . S
C2170 C2172 1.478 . S
C2171 H2165 0.930 . S
C2171 C2167 1.400 . S
C2171 C2170 1.385 . S
C2172 C2170 1.478 . S
C2172 C2174 1.381 . S
C2172 C2178 1.383 . S
C2173 C2169 1.495 . S
C2173 H2179 0.959 . S
C2173 H2180 0.961 . S
C2173 H2181 0.960 . S
C2174 C2172 1.381 . S
C2174 C2175 1.394 . S
C2174 H2182 0.930 . S
C2175 C2174 1.394 . S
C2175 C2176 1.383 . S
C2175 H2183 0.929 . S
C2176 C2175 1.383 . S
C2176 C2177 1.377 . S
C2177 H2161 0.930 . S
C2177 C2176 1.377 . S
C2177 C2178 1.379 . S
C2178 H2162 0.931 . S
C2178 C2172 1.383 . S
C2178 C2177 1.379 . S
H2179 C2173 0.959 . S
H2180 C2173 0.961 . S
H2181 C2173 0.960 . S
H2182 C2174 0.930 . S
H2183 C2175 0.929 . S
H2184 C2192 0.929 . S
H2185 C2194 0.930 . S
H2186 C2196 0.930 . S
H2187 C2199 0.929 . S
H2188 C2202 0.930 . S
H2189 C2204 0.960 . S
H2190 C2204 0.960 . S
H2191 C2204 0.960 . S
C2192 H2184 0.929 . S
C2192 C2193 1.377 . S
C2192 C2194 1.384 . S
C2193 C2192 1.377 . S
C2193 C2199 1.390 . S
C2194 H2185 0.930 . S
C2194 C2192 1.384 . S
C2194 C2195 1.372 . S
C2195 C2194 1.372 . S
C2195 C2196 1.400 . S
C2195 C2200 1.490 . S
C2196 H2186 0.930 . S
C2196 C2195 1.400 . S
C2196 C2199 1.386 . S
H2197 C2213 0.930 . S
H2198 C2214 0.931 . S
C2199 H2187 0.929 . S
C2199 C2193 1.390 . S
C2199 C2196 1.386 . S
C2200 C2195 1.490 . S
C2200 C2202 1.395 . S
C2200 C2203 1.403 . S
H2201 C2207 0.930 . S
C2202 H2188 0.930 . S
C2202 C2200 1.395 . S
C2202 C2205 1.403 . S
C2203 C2200 1.403 . S
C2203 C2204 1.524 . S
C2203 C2207 1.400 . S
C2204 H2189 0.960 . S
C2204 H2190 0.960 . S
C2204 H2191 0.960 . S
C2204 C2203 1.524 . S
C2205 C2202 1.403 . S
C2205 C2206 1.392 . S
C2205 C2209 1.495 . S
C2206 C2205 1.392 . S
C2206 C2207 1.385 . S
C2206 C2208 1.478 . S
C2207 H2201 0.930 . S
C2207 C2203 1.400 . S
C2207 C2206 1.385 . S
C2208 C2206 1.478 . S
C2208 C2210 1.381 . S
C2208 C2214 1.383 . S
C2209 C2205 1.495 . S
C2209 H2215 0.959 . S
C2209 H2216 0.961 . S
C2209 H2217 0.960 . S
C2210 C2208 1.381 . S
C2210 C2211 1.394 . S
C2210 H2218 0.930 . S
C2211 C2210 1.394 . S
C2211 C2212 1.383 . S
C2211 H2219 0.929 . S
C2212 C2211 1.383 . S
C2212 C2213 1.377 . S
C2213 H2197 0.930 . S
C2213 C2212 1.377 . S
C2213 C2214 1.379 . S
C2214 H2198 0.931 . S
C2214 C2208 1.383 . S
C2214 C2213 1.379 . S
H2215 C2209 0.959 . S
H2216 C2209 0.961 . S
H2217 C2209 0.960 . S
H2218 C2210 0.930 . S
H2219 C2211 0.929 . S
H2220 C2228 0.929 . S
H2221 C2230 0.930 . S
H2222 C2232 0.930 . S
H2223 C2235 0.929 . S
H2224 C2238 0.930 . S
H2225 C2240 0.960 . S
H2226 C2240 0.960 . S
H2227 C2240 0.960 . S
C2228 H2220 0.929 . S
C2228 C2229 1.377 . S
C2228 C2230 1.384 . S
C2229 C2228 1.377 . S
C2229 C2235 1.390 . S
C2230 H2221 0.930 . S
C2230 C2228 1.384 . S
C2230 C2231 1.372 . S
C2231 C2230 1.372 . S
C2231 C2232 1.400 . S
C2231 C2236 1.490 . S
C2232 H2222 0.930 . S
C2232 C2231 1.400 . S
C2232 C2235 1.386 . S
H2233 C2249 0.930 . S
H2234 C2250 0.931 . S
C2235 H2223 0.929 . S
C2235 C2229 1.390 . S
C2235 C2232 1.386 . S
C2236 C2231 1.490 . S
C2236 C2238 1.395 . S
C2236 C2239 1.403 . S
H2237 C2243 0.930 . S
C2238 H2224 0.930 . S
C2238 C2236 1.395 . S
C2238 C2241 1.403 . S
C2239 C2236 1.403 . S
C2239 C2240 1.524 . S
C2239 C2243 1.400 . S
C2240 H2225 0.960 . S
C2240 H2226 0.960 . S
C2240 H2227 0.960 . S
C2240 C2239 1.524 . S
C2241 C2238 1.403 . S
C2241 C2242 1.392 . S
C2241 C2245 1.495 . S
C2242 C2241 1.392 . S
C2242 C2243 1.385 . S
C2242 C2244 1.478 . S
C2243 H2237 0.930 . S
C2243 C2239 1.400 . S
C2243 C2242 1.385 . S
C2244 C2242 1.478 . S
C2244 C2246 1.381 . S
C2244 C2250 1.383 . S
C2245 C2241 1.495 . S
C2245 H2251 0.959 . S
C2245 H2252 0.961 . S
C2245 H2253 0.960 . S
C2246 C2244 1.381 . S
C2246 C2247 1.394 . S
C2246 H2254 0.930 . S
C2247 C2246 1.394 . S
C2247 C2248 1.383 . S
C2247 H2255 0.929 . S
C2248 C2247 1.383 . S
C2248 C2249 1.377 . S
C2249 H2233 0.930 . S
C2249 C2248 1.377 . S
C2249 C2250 1.379 . S
C2250 H2234 0.931 . S
C2250 C2244 1.383 . S
C2250 C2249 1.379 . S
H2251 C2245 0.959 . S
H2252 C2245 0.961 . S
H2253 C2245 0.960 . S
H2254 C2246 0.930 . S
H2255 C2247 0.929 . S
H2256 C2264 0.929 . S
H2257 C2266 0.930 . S
H2258 C2268 0.930 . S
H2259 C2271 0.929 . S
H2260 C2274 0.930 . S
H2261 C2276 0.960 . S
H2262 C2276 0.960 . S
H2263 C2276 0.960 . S
C2264 H2256 0.929 . S
C2264 C2265 1.377 . S
C2264 C2266 1.384 . S
C2265 C2264 1.377 . S
C2265 C2271 1.390 . S
C2266 H2257 0.930 . S
C2266 C2264 1.384 . S
C2266 C2267 1.372 . S
C2267 C2266 1.372 . S
C2267 C2268 1.400 . S
C2267 C2272 1.490 . S
C2268 H2258 0.930 . S
C2268 C2267 1.400 . S
C2268 C2271 1.386 . S
H2269 C2285 0.930 . S
H2270 C2286 0.931 . S
C2271 H2259 0.929 . S
C2271 C2265 1.390 . S
C2271 C2268 1.386 . S
C2272 C2267 1.490 . S
C2272 C2274 1.395 . S
C2272 C2275 1.403 . S
H2273 C2279 0.930 . S
C2274 H2260 0.930 . S
C2274 C2272 1.395 . S
C2274 C2277 1.403 . S
C2275 C2272 1.403 . S
C2275 C2276 1.524 . S
C2275 C2279 1.400 . S
C2276 H2261 0.960 . S
C2276 H2262 0.960 . S
C2276 H2263 0.960 . S
C2276 C2275 1.524 . S
C2277 C2274 1.403 . S
C2277 C2278 1.392 . S
C2277 C2281 1.495 . S
C2278 C2277 1.392 . S
C2278 C2279 1.385 . S
C2278 C2280 1.478 . S
C2279 H2273 0.930 . S
C2279 C2275 1.400 . S
C2279 C2278 1.385 . S
C2280 C2278 1.478 . S
C2280 C2282 1.381 . S
C2280 C2286 1.383 . S
C2281 C2277 1.495 . S
C2281 H2287 0.959 . S
C2281 H2288 0.961 . S
C2281 H2289 0.960 . S
C2282 C2280 1.381 . S
C2282 C2283 1.394 . S
C2282 H2290 0.930 . S
C2283 C2282 1.394 . S
C2283 C2284 1.383 . S
C2283 H2291 0.929 . S
C2284 C2283 1.383 . S
C2284 C2285 1.377 . S
C2285 H2269 0.930 . S
C2285 C2284 1.377 . S
C2285 C2286 1.379 . S
C2286 H2270 0.931 . S
C2286 C2280 1.383 . S
C2286 C2285 1.379 . S
H2287 C2281 0.959 . S
H2288 C2281 0.961 . S
H2289 C2281 0.960 . S
H2290 C2282 0.930 . S
H2291 C2283 0.929 . S
H2292 C2300 0.929 . S
H2293 C2302 0.930 . S
H2294 C2304 0.930 . S
H2295 C2307 0.929 . S
H2296 C2310 0.930 . S
H2297 C2312 0.960 . S
H2298 C2312 0.960 . S
H2299 C2312 0.960 . S
C2300 H2292 0.929 . S
C2300 C2301 1.377 . S
C2300 C2302 1.384 . S
C2301 C2300 1.377 . S
C2301 C2307 1.390 . S
C2302 H2293 0.930 . S
C2302 C2300 1.384 . S
C2302 C2303 1.372 . S
C2303 C2302 1.372 . S
C2303 C2304 1.400 . S
C2303 C2308 1.490 . S
C2304 H2294 0.930 . S
C2304 C2303 1.400 . S
C2304 C2307 1.386 . S
H2305 C2321 0.930 . S
H2306 C2322 0.931 . S
C2307 H2295 0.929 . S
C2307 C2301 1.390 . S
C2307 C2304 1.386 . S
C2308 C2303 1.490 . S
C2308 C2310 1.395 . S
C2308 C2311 1.403 . S
H2309 C2315 0.930 . S
C2310 H2296 0.930 . S
C2310 C2308 1.395 . S
C2310 C2313 1.403 . S
C2311 C2308 1.403 . S
C2311 C2312 1.524 . S
C2311 C2315 1.400 . S
C2312 H2297 0.960 . S
C2312 H2298 0.960 . S
C2312 H2299 0.960 . S
C2312 C2311 1.524 . S
C2313 C2310 1.403 . S
C2313 C2314 1.392 . S
C2313 C2317 1.495 . S
C2314 C2313 1.392 . S
C2314 C2315 1.385 . S
C2314 C2316 1.478 . S
C2315 H2309 0.930 . S
C2315 C2311 1.400 . S
C2315 C2314 1.385 . S
C2316 C2314 1.478 . S
C2316 C2318 1.381 . S
C2316 C2322 1.383 . S
C2317 C2313 1.495 . S
C2317 H2323 0.959 . S
C2317 H2324 0.961 . S
C2317 H2325 0.960 . S
C2318 C2316 1.381 . S
C2318 C2319 1.394 . S
C2318 H2326 0.930 . S
C2319 C2318 1.394 . S
C2319 C2320 1.383 . S
C2319 H2327 0.929 . S
C2320 C2319 1.383 . S
C2320 C2321 1.377 . S
C2321 H2305 0.930 . S
C2321 C2320 1.377 . S
C2321 C2322 1.379 . S
C2322 H2306 0.931 . S
C2322 C2316 1.383 . S
C2322 C2321 1.379 . S
H2323 C2317 0.959 . S
H2324 C2317 0.961 . S
H2325 C2317 0.960 . S
H2326 C2318 0.930 . S
H2327 C2319 0.929 . S
H2328 C2336 0.929 . S
H2329 C2338 0.930 . S
H2330 C2340 0.930 . S
H2331 C2343 0.929 . S
H2332 C2346 0.930 . S
H2333 C2348 0.960 . S
H2334 C2348 0.960 . S
H2335 C2348 0.960 . S
C2336 H2328 0.929 . S
C2336 C2337 1.377 . S
C2336 C2338 1.384 . S
C2337 C2336 1.377 . S
C2337 C2343 1.390 . S
C2338 H2329 0.930 . S
C2338 C2336 1.384 . S
C2338 C2339 1.372 . S
C2339 C2338 1.372 . S
C2339 C2340 1.400 . S
C2339 C2344 1.490 . S
C2340 H2330 0.930 . S
C2340 C2339 1.400 . S
C2340 C2343 1.386 . S
H2341 C2357 0.930 . S
H2342 C2358 0.931 . S
C2343 H2331 0.929 . S
C2343 C2337 1.390 . S
C2343 C2340 1.386 . S
C2344 C2339 1.490 . S
C2344 C2346 1.395 . S
C2344 C2347 1.403 . S
H2345 C2351 0.930 . S
C2346 H2332 0.930 . S
C2346 C2344 1.395 . S
C2346 C2349 1.403 . S
C2347 C2344 1.403 . S
C2347 C2348 1.524 . S
C2347 C2351 1.400 . S
C2348 H2333 0.960 . S
C2348 H2334 0.960 . S
C2348 H2335 0.960 . S
C2348 C2347 1.524 . S
C2349 C2346 1.403 . S
C2349 C2350 1.392 . S
C2349 C2353 1.495 . S
C2350 C2349 1.392 . S
C2350 C2351 1.385 . S
C2350 C2352 1.478 . S
C2351 H2345 0.930 . S
C2351 C2347 1.400 . S
C2351 C2350 1.385 . S
C2352 C2350 1.478 . S
C2352 C2354 1.381 . S
C2352 C2358 1.383 . S
C2353 C2349 1.495 . S
C2353 H2359 0.959 . S
C2353 H2360 0.961 . S
C2353 H2361 0.960 . S
C2354 C2352 1.381 . S
C2354 C2355 1.394 . S
C2354 H2362 0.930 . S
C2355 C2354 1.394 . S
C2355 C2356 1.383 . S
C2355 H2363 0.929 . S
C2356 C2355 1.383 . S
C2356 C2357 1.377 . S
C2357 H2341 0.930 . S
C2357 C2356 1.377 . S
C2357 C2358 1.379 . S
C2358 H2342 0.931 . S
C2358 C2352 1.383 . S
C2358 C2357 1.379 . S
H2359 C2353 0.959 . S
H2360 C2353 0.961 . S
H2361 C2353 0.960 . S
H2362 C2354 0.930 . S
H2363 C2355 0.929 . S
H2364 C2372 0.929 . S
H2365 C2374 0.930 . S
H2366 C2376 0.930 . S
H2367 C2379 0.929 . S
H2368 C2382 0.930 . S
H2369 C2384 0.960 . S
H2370 C2384 0.960 . S
H2371 C2384 0.960 . S
C2372 H2364 0.929 . S
C2372 C2373 1.377 . S
C2372 C2374 1.384 . S
C2373 C2372 1.377 . S
C2373 C2379 1.390 . S
C2374 H2365 0.930 . S
C2374 C2372 1.384 . S
C2374 C2375 1.372 . S
C2375 C2374 1.372 . S
C2375 C2376 1.400 . S
C2375 C2380 1.490 . S
C2376 H2366 0.930 . S
C2376 C2375 1.400 . S
C2376 C2379 1.386 . S
H2377 C2393 0.930 . S
H2378 C2394 0.931 . S
C2379 H2367 0.929 . S
C2379 C2373 1.390 . S
C2379 C2376 1.386 . S
C2380 C2375 1.490 . S
C2380 C2382 1.395 . S
C2380 C2383 1.403 . S
H2381 C2387 0.930 . S
C2382 H2368 0.930 . S
C2382 C2380 1.395 . S
C2382 C2385 1.403 . S
C2383 C2380 1.403 . S
C2383 C2384 1.524 . S
C2383 C2387 1.400 . S
C2384 H2369 0.960 . S
C2384 H2370 0.960 . S
C2384 H2371 0.960 . S
C2384 C2383 1.524 . S
C2385 C2382 1.403 . S
C2385 C2386 1.392 . S
C2385 C2389 1.495 . S
C2386 C2385 1.392 . S
C2386 C2387 1.385 . S
C2386 C2388 1.478 . S
C2387 H2381 0.930 . S
C2387 C2383 1.400 . S
C2387 C2386 1.385 . S
C2388 C2386 1.478 . S
C2388 C2390 1.381 . S
C2388 C2394 1.383 . S
C2389 C2385 1.495 . S
C2389 H2395 0.959 . S
C2389 H2396 0.961 . S
C2389 H2397 0.960 . S
C2390 C2388 1.381 . S
C2390 C2391 1.394 . S
C2390 H2398 0.930 . S
C2391 C2390 1.394 . S
C2391 C2392 1.383 . S
C2391 H2399 0.929 . S
C2392 C2391 1.383 . S
C2392 C2393 1.377 . S
C2393 H2377 0.930 . S
C2393 C2392 1.377 . S
C2393 C2394 1.379 . S
C2394 H2378 0.931 . S
C2394 C2388 1.383 . S
C2394 C2393 1.379 . S
H2395 C2389 0.959 . S
H2396 C2389 0.961 . S
H2397 C2389 0.960 . S
H2398 C2390 0.930 . S
H2399 C2391 0.929 . S
H2400 C2408 0.929 . S
H2401 C2410 0.930 . S
H2402 C2412 0.930 . S
H2403 C2415 0.929 . S
H2404 C2418 0.930 . S
H2405 C2420 0.960 . S
H2406 C2420 0.960 . S
H2407 C2420 0.960 . S
C2408 H2400 0.929 . S
C2408 C2409 1.377 . S
C2408 C2410 1.384 . S
C2409 C2408 1.377 . S
C2409 C2415 1.390 . S
C2410 H2401 0.930 . S
C2410 C2408 1.384 . S
C2410 C2411 1.372 . S
C2411 C2410 1.372 . S
C2411 C2412 1.400 . S
C2411 C2416 1.490 . S
C2412 H2402 0.930 . S
C2412 C2411 1.400 . S
C2412 C2415 1.386 . S
H2413 C2429 0.930 . S
H2414 C2430 0.931 . S
C2415 H2403 0.929 . S
C2415 C2409 1.390 . S
C2415 C2412 1.386 . S
C2416 C2411 1.490 . S
C2416 C2418 1.395 . S
C2416 C2419 1.403 . S
H2417 C2423 0.930 . S
C2418 H2404 0.930 . S
C2418 C2416 1.395 . S
C2418 C2421 1.403 . S
C2419 C2416 1.403 . S
C2419 C2420 1.524 . S
C2419 C2423 1.400 . S
C2420 H2405 0.960 . S
C2420 H2406 0.960 . S
C2420 H2407 0.960 . S
C2420 C2419 1.524 . S
C2421 C2418 1.403 . S
C2421 C2422 1.392 . S
C2421 C2425 1.495 . S
C2422 C2421 1.392 . S
C2422 C2423 1.385 . S
C2422 C2424 1.478 . S
C2423 H2417 0.930 . S
C2423 C2419 1.400 . S
C2423 C2422 1.385 . S
C2424 C2422 1.478 . S
C2424 C2426 1.381 . S
C2424 C2430 1.383 . S
C2425 C2421 1.495 . S
C2425 H2431 0.959 . S
C2425 H2432 0.961 . S
C2425 H2433 0.960 . S
C2426 C2424 1.381 . S
C2426 C2427 1.394 . S
C2426 H2434 0.930 . S
C2427 C2426 1.394 . S
C2427 C2428 1.383 . S
C2427 H2435 0.929 . S
C2428 C2427 1.383 . S
C2428 C2429 1.377 . S
C2429 H2413 0.930 . S
C2429 C2428 1.377 . S
C2429 C2430 1.379 . S
C2430 H2414 0.931 . S
C2430 C2424 1.383 . S
C2430 C2429 1.379 . S
H2431 C2425 0.959 . S
H2432 C2425 0.961 . S
H2433 C2425 0.960 . S
H2434 C2426 0.930 . S
H2435 C2427 0.929 . S
H2436 C2444 0.929 . S
H2437 C2446 0.930 . S
H2438 C2448 0.930 . S
H2439 C2451 0.929 . S
H2440 C2454 0.930 . S
H2441 C2456 0.960 . S
H2442 C2456 0.960 . S
H2443 C2456 0.960 . S
C2444 H2436 0.929 . S
C2444 C2445 1.377 . S
C2444 C2446 1.384 . S
C2445 C2444 1.377 . S
C2445 C2451 1.390 . S
C2446 H2437 0.930 . S
C2446 C2444 1.384 . S
C2446 C2447 1.372 . S
C2447 C2446 1.372 . S
C2447 C2448 1.400 . S
C2447 C2452 1.490 . S
C2448 H2438 0.930 . S
C2448 C2447 1.400 . S
C2448 C2451 1.386 . S
H2449 C2465 0.930 . S
H2450 C2466 0.931 . S
C2451 H2439 0.929 . S
C2451 C2445 1.390 . S
C2451 C2448 1.386 . S
C2452 C2447 1.490 . S
C2452 C2454 1.395 . S
C2452 C2455 1.403 . S
H2453 C2459 0.930 . S
C2454 H2440 0.930 . S
C2454 C2452 1.395 . S
C2454 C2457 1.403 . S
C2455 C2452 1.403 . S
C2455 C2456 1.524 . S
C2455 C2459 1.400 . S
C2456 H2441 0.960 . S
C2456 H2442 0.960 . S
C2456 H2443 0.960 . S
C2456 C2455 1.524 . S
C2457 C2454 1.403 . S
C2457 C2458 1.392 . S
C2457 C2461 1.495 . S
C2458 C2457 1.392 . S
C2458 C2459 1.385 . S
C2458 C2460 1.478 . S
C2459 H2453 0.930 . S
C2459 C2455 1.400 . S
C2459 C2458 1.385 . S
C2460 C2458 1.478 . S
C2460 C2462 1.381 . S
C2460 C2466 1.383 . S
C2461 C2457 1.495 . S
C2461 H2467 0.959 . S
C2461 H2468 0.961 . S
C2461 H2469 0.960 . S
C2462 C2460 1.381 . S
C2462 C2463 1.394 . S
C2462 H2470 0.930 . S
C2463 C2462 1.394 . S
C2463 C2464 1.383 . S
C2463 H2471 0.929 . S
C2464 C2463 1.383 . S
C2464 C2465 1.377 . S
C2465 H2449 0.930 . S
C2465 C2464 1.377 . S
C2465 C2466 1.379 . S
C2466 H2450 0.931 . S
C2466 C2460 1.383 . S
C2466 C2465 1.379 . S
H2467 C2461 0.959 . S
H2468 C2461 0.961 . S
H2469 C2461 0.960 . S
H2470 C2462 0.930 . S
H2471 C2463 0.929 . S
H2472 C2480 0.929 . S
H2473 C2482 0.930 . S
H2474 C2484 0.930 . S
H2475 C2487 0.929 . S
H2476 C2490 0.930 . S
H2477 C2492 0.960 . S
H2478 C2492 0.960 . S
H2479 C2492 0.960 . S
C2480 H2472 0.929 . S
C2480 C2481 1.377 . S
C2480 C2482 1.384 . S
C2481 C2480 1.377 . S
C2481 C2487 1.390 . S
C2482 H2473 0.930 . S
C2482 C2480 1.384 . S
C2482 C2483 1.372 . S
C2483 C2482 1.372 . S
C2483 C2484 1.400 . S
C2483 C2488 1.490 . S
C2484 H2474 0.930 . S
C2484 C2483 1.400 . S
C2484 C2487 1.386 . S
H2485 C2501 0.930 . S
H2486 C2502 0.931 . S
C2487 H2475 0.929 . S
C2487 C2481 1.390 . S
C2487 C2484 1.386 . S
C2488 C2483 1.490 . S
C2488 C2490 1.395 . S
C2488 C2491 1.403 . S
H2489 C2495 0.930 . S
C2490 H2476 0.930 . S
C2490 C2488 1.395 . S
C2490 C2493 1.403 . S
C2491 C2488 1.403 . S
C2491 C2492 1.524 . S
C2491 C2495 1.400 . S
C2492 H2477 0.960 . S
C2492 H2478 0.960 . S
C2492 H2479 0.960 . S
C2492 C2491 1.524 . S
C2493 C2490 1.403 . S
C2493 C2494 1.392 . S
C2493 C2497 1.495 . S
C2494 C2493 1.392 . S
C2494 C2495 1.385 . S
C2494 C2496 1.478 . S
C2495 H2489 0.930 . S
C2495 C2491 1.400 . S
C2495 C2494 1.385 . S
C2496 C2494 1.478 . S
C2496 C2498 1.381 . S
C2496 C2502 1.383 . S
C2497 C2493 1.495 . S
C2497 H2503 0.959 . S
C2497 H2504 0.961 . S
C2497 H2505 0.960 . S
C2498 C2496 1.381 . S
C2498 C2499 1.394 . S
C2498 H2506 0.930 . S
C2499 C2498 1.394 . S
C2499 C2500 1.383 . S
C2499 H2507 0.929 . S
C2500 C2499 1.383 . S
C2500 C2501 1.377 . S
C2501 H2485 0.930 . S
C2501 C2500 1.377 . S
C2501 C2502 1.379 . S
C2502 H2486 0.931 . S
C2502 C2496 1.383 . S
C2502 C2501 1.379 . S
H2503 C2497 0.959 . S
H2504 C2497 0.961 . S
H2505 C2497 0.960 . S
H2506 C2498 0.930 . S
H2507 C2499 0.929 . S
H2508 C2516 0.929 . S
H2509 C2518 0.930 . S
H2510 C2520 0.930 . S
H2511 C2523 0.929 . S
H2512 C2526 0.930 . S
H2513 C2528 0.960 . S
H2514 C2528 0.960 . S
H2515 C2528 0.960 . S
C2516 H2508 0.929 . S
C2516 C2517 1.377 . S
C2516 C2518 1.384 . S
C2517 C2516 1.377 . S
C2517 C2523 1.390 . S
C2518 H2509 0.930 . S
C2518 C2516 1.384 . S
C2518 C2519 1.372 . S
C2519 C2518 1.372 . S
C2519 C2520 1.400 . S
C2519 C2524 1.490 . S
C2520 H2510 0.930 . S
C2520 C2519 1.400 . S
C2520 C2523 1.386 . S
H2521 C2537 0.930 . S
H2522 C2538 0.931 . S
C2523 H2511 0.929 . S
C2523 C2517 1.390 . S
C2523 C2520 1.386 . S
C2524 C2519 1.490 . S
C2524 C2526 1.395 . S
C2524 C2527 1.403 . S
H2525 C2531 0.930 . S
C2526 H2512 0.930 . S
C2526 C2524 1.395 . S
C2526 C2529 1.403 . S
C2527 C2524 1.403 . S
C2527 C2528 1.524 . S
C2527 C2531 1.400 . S
C2528 H2513 0.960 . S
C2528 H2514 0.960 . S
C2528 H2515 0.960 . S
C2528 C2527 1.524 . S
C2529 C2526 1.403 . S
C2529 C2530 1.392 . S
C2529 C2533 1.495 . S
C2530 C2529 1.392 . S
C2530 C2531 1.385 . S
C2530 C2532 1.478 . S
C2531 H2525 0.930 . S
C2531 C2527 1.400 . S
C2531 C2530 1.385 . S
C2532 C2530 1.478 . S
C2532 C2534 1.381 . S
C2532 C2538 1.383 . S
C2533 C2529 1.495 . S
C2533 H2539 0.959 . S
C2533 H2540 0.961 . S
C2533 H2541 0.960 . S
C2534 C2532 1.381 . S
C2534 C2535 1.394 . S
C2534 H2542 0.930 . S
C2535 C2534 1.394 . S
C2535 C2536 1.383 . S
C2535 H2543 0.929 . S
C2536 C2535 1.383 . S
C2536 C2537 1.377 . S
C2537 H2521 0.930 . S
C2537 C2536 1.377 . S
C2537 C2538 1.379 . S
C2538 H2522 0.931 . S
C2538 C2532 1.383 . S
C2538 C2537 1.379 . S
H2539 C2533 0.959 . S
H2540 C2533 0.961 . S
H2541 C2533 0.960 . S
H2542 C2534 0.930 . S
H2543 C2535 0.929 . S
H2544 C2552 0.929 . S
H2545 C2554 0.930 . S
H2546 C2556 0.930 . S
H2547 C2559 0.929 . S
H2548 C2562 0.930 . S
H2549 C2564 0.960 . S
H2550 C2564 0.960 . S
H2551 C2564 0.960 . S
C2552 H2544 0.929 . S
C2552 C2553 1.377 . S
C2552 C2554 1.384 . S
C2553 C2552 1.377 . S
C2553 C2559 1.390 . S
C2554 H2545 0.930 . S
C2554 C2552 1.384 . S
C2554 C2555 1.372 . S
C2555 C2554 1.372 . S
C2555 C2556 1.400 . S
C2555 C2560 1.490 . S
C2556 H2546 0.930 . S
C2556 C2555 1.400 . S
C2556 C2559 1.386 . S
H2557 C2573 0.930 . S
H2558 C2574 0.931 . S
C2559 H2547 0.929 . S
C2559 C2553 1.390 . S
C2559 C2556 1.386 . S
C2560 C2555 1.490 . S
C2560 C2562 1.395 . S
C2560 C2563 1.403 . S
H2561 C2567 0.930 . S
C2562 H2548 0.930 . S
C2562 C2560 1.395 . S
C2562 C2565 1.403 . S
C2563 C2560 1.403 . S
C2563 C2564 1.524 . S
C2563 C2567 1.400 . S
C2564 H2549 0.960 . S
C2564 H2550 0.960 . S
C2564 H2551 0.960 . S
C2564 C2563 1.524 . S
C2565 C2562 1.403 . S
C2565 C2566 1.392 . S
C2565 C2569 1.495 . S
C2566 C2565 1.392 . S
C2566 C2567 1.385 . S
C2566 C2568 1.478 . S
C2567 H2561 0.930 . S
C2567 C2563 1.400 . S
C2567 C2566 1.385 . S
C2568 C2566 1.478 . S
C2568 C2570 1.381 . S
C2568 C2574 1.383 . S
C2569 C2565 1.495 . S
C2569 H2575 0.959 . S
C2569 H2576 0.961 . S
C2569 H2577 0.960 . S
C2570 C2568 1.381 . S
C2570 C2571 1.394 . S
C2570 H2578 0.930 . S
C2571 C2570 1.394 . S
C2571 C2572 1.383 . S
C2571 H2579 0.929 . S
C2572 C2571 1.383 . S
C2572 C2573 1.377 . S
C2573 H2557 0.930 . S
C2573 C2572 1.377 . S
C2573 C2574 1.379 . S
C2574 H2558 0.931 . S
C2574 C2568 1.383 . S
C2574 C2573 1.379 . S
H2575 C2569 0.959 . S
H2576 C2569 0.961 . S
H2577 C2569 0.960 . S
H2578 C2570 0.930 . S
H2579 C2571 0.929 . S
H2580 C2588 0.929 . S
H2581 C2590 0.930 . S
H2582 C2592 0.930 . S
H2583 C2595 0.929 . S
H2584 C2598 0.930 . S
H2585 C2600 0.960 . S
H2586 C2600 0.960 . S
H2587 C2600 0.960 . S
C2588 H2580 0.929 . S
C2588 C2589 1.377 . S
C2588 C2590 1.384 . S
C2589 C2588 1.377 . S
C2589 C2595 1.390 . S
C2590 H2581 0.930 . S
C2590 C2588 1.384 . S
C2590 C2591 1.372 . S
C2591 C2590 1.372 . S
C2591 C2592 1.400 . S
C2591 C2596 1.490 . S
C2592 H2582 0.930 . S
C2592 C2591 1.400 . S
C2592 C2595 1.386 . S
H2593 C2609 0.930 . S
H2594 C2610 0.931 . S
C2595 H2583 0.929 . S
C2595 C2589 1.390 . S
C2595 C2592 1.386 . S
C2596 C2591 1.490 . S
C2596 C2598 1.395 . S
C2596 C2599 1.403 . S
H2597 C2603 0.930 . S
C2598 H2584 0.930 . S
C2598 C2596 1.395 . S
C2598 C2601 1.403 . S
C2599 C2596 1.403 . S
C2599 C2600 1.524 . S
C2599 C2603 1.400 . S
C2600 H2585 0.960 . S
C2600 H2586 0.960 . S
C2600 H2587 0.960 . S
C2600 C2599 1.524 . S
C2601 C2598 1.403 . S
C2601 C2602 1.392 . S
C2601 C2605 1.495 . S
C2602 C2601 1.392 . S
C2602 C2603 1.385 . S
C2602 C2604 1.478 . S
C2603 H2597 0.930 . S
C2603 C2599 1.400 . S
C2603 C2602 1.385 . S
C2604 C2602 1.478 . S
C2604 C2606 1.381 . S
C2604 C2610 1.383 . S
C2605 C2601 1.495 . S
C2605 H2611 0.959 . S
C2605 H2612 0.961 . S
C2605 H2613 0.960 . S
C2606 C2604 1.381 . S
C2606 C2607 1.394 . S
C2606 H2614 0.930 . S
C2607 C2606 1.394 . S
C2607 C2608 1.383 . S
C2607 H2615 0.929 . S
C2608 C2607 1.383 . S
C2608 C2609 1.377 . S
C2609 H2593 0.930 . S
C2609 C2608 1.377 . S
C2609 C2610 1.379 . S
C2610 H2594 0.931 . S
C2610 C2604 1.383 . S
C2610 C2609 1.379 . S
H2611 C2605 0.959 . S
H2612 C2605 0.961 . S
H2613 C2605 0.960 . S
H2614 C2606 0.930 . S
H2615 C2607 0.929 . S
H2616 C2624 0.929 . S
H2617 C2626 0.930 . S
H2618 C2628 0.930 . S
H2619 C2631 0.929 . S
H2620 C2634 0.930 . S
H2621 C2636 0.960 . S
H2622 C2636 0.960 . S
H2623 C2636 0.960 . S
C2624 H2616 0.929 . S
C2624 C2625 1.377 . S
C2624 C2626 1.384 . S
C2625 C2624 1.377 . S
C2625 C2631 1.390 . S
C2626 H2617 0.930 . S
C2626 C2624 1.384 . S
C2626 C2627 1.372 . S
C2627 C2626 1.372 . S
C2627 C2628 1.400 . S
C2627 C2632 1.490 . S
C2628 H2618 0.930 . S
C2628 C2627 1.400 . S
C2628 C2631 1.386 . S
H2629 C2645 0.930 . S
H2630 C2646 0.931 . S
C2631 H2619 0.929 . S
C2631 C2625 1.390 . S
C2631 C2628 1.386 . S
C2632 C2627 1.490 . S
C2632 C2634 1.395 . S
C2632 C2635 1.403 . S
H2633 C2639 0.930 . S
C2634 H2620 0.930 . S
C2634 C2632 1.395 . S
C2634 C2637 1.403 . S
C2635 C2632 1.403 . S
C2635 C2636 1.524 . S
C2635 C2639 1.400 . S
C2636 H2621 0.960 . S
C2636 H2622 0.960 . S
C2636 H2623 0.960 . S
C2636 C2635 1.524 . S
C2637 C2634 1.403 . S
C2637 C2638 1.392 . S
C2637 C2641 1.495 . S
C2638 C2637 1.392 . S
C2638 C2639 1.385 . S
C2638 C2640 1.478 . S
C2639 H2633 0.930 . S
C2639 C2635 1.400 . S
C2639 C2638 1.385 . S
C2640 C2638 1.478 . S
C2640 C2642 1.381 . S
C2640 C2646 1.383 . S
C2641 C2637 1.495 . S
C2641 H2647 0.959 . S
C2641 H2648 0.961 . S
C2641 H2649 0.960 . S
C2642 C2640 1.381 . S
C2642 C2643 1.394 . S
C2642 H2650 0.930 . S
C2643 C2642 1.394 . S
C2643 C2644 1.383 . S
C2643 H2651 0.929 . S
C2644 C2643 1.383 . S
C2644 C2645 1.377 . S
C2645 H2629 0.930 . S
C2645 C2644 1.377 . S
C2645 C2646 1.379 . S
C2646 H2630 0.931 . S
C2646 C2640 1.383 . S
C2646 C2645 1.379 . S
H2647 C2641 0.959 . S
H2648 C2641 0.961 . S
H2649 C2641 0.960 . S
H2650 C2642 0.930 . S
H2651 C2643 0.929 . S
H2652 C2660 0.929 . S
H2653 C2662 0.930 . S
H2654 C2664 0.930 . S
H2655 C2667 0.929 . S
H2656 C2670 0.930 . S
H2657 C2672 0.960 . S
H2658 C2672 0.960 . S
H2659 C2672 0.960 . S
C2660 H2652 0.929 . S
C2660 C2661 1.377 . S
C2660 C2662 1.384 . S
C2661 C2660 1.377 . S
C2661 C2667 1.390 . S
C2662 H2653 0.930 . S
C2662 C2660 1.384 . S
C2662 C2663 1.372 . S
C2663 C2662 1.372 . S
C2663 C2664 1.400 . S
C2663 C2668 1.490 . S
C2664 H2654 0.930 . S
C2664 C2663 1.400 . S
C2664 C2667 1.386 . S
H2665 C2681 0.930 . S
H2666 C2682 0.931 . S
C2667 H2655 0.929 . S
C2667 C2661 1.390 . S
C2667 C2664 1.386 . S
C2668 C2663 1.490 . S
C2668 C2670 1.395 . S
C2668 C2671 1.403 . S
H2669 C2675 0.930 . S
C2670 H2656 0.930 . S
C2670 C2668 1.395 . S
C2670 C2673 1.403 . S
C2671 C2668 1.403 . S
C2671 C2672 1.524 . S
C2671 C2675 1.400 . S
C2672 H2657 0.960 . S
C2672 H2658 0.960 . S
C2672 H2659 0.960 . S
C2672 C2671 1.524 . S
C2673 C2670 1.403 . S
C2673 C2674 1.392 . S
C2673 C2677 1.495 . S
C2674 C2673 1.392 . S
C2674 C2675 1.385 . S
C2674 C2676 1.478 . S
C2675 H2669 0.930 . S
C2675 C2671 1.400 . S
C2675 C2674 1.385 . S
C2676 C2674 1.478 . S
C2676 C2678 1.381 . S
C2676 C2682 1.383 . S
C2677 C2673 1.495 . S
C2677 H2683 1.003 . S
C2677 H2684 0.961 . S
C2677 H2685 0.960 . S
C2678 C2676 1.381 . S
C2678 C2679 1.394 . S
C2678 H2686 0.930 . S
C2679 C2678 1.394 . S
C2679 C2680 1.383 . S
C2679 H2687 0.929 . S
C2680 C2679 1.383 . S
C2680 C2681 1.377 . S
C2681 H2665 0.930 . S
C2681 C2680 1.377 . S
C2681 C2682 1.379 . S
C2682 H2666 0.931 . S
C2682 C2676 1.383 . S
C2682 C2681 1.379 . S
H2683 C2677 1.003 . S
H2684 C2677 0.961 . S
H2685 C2677 0.960 . S
H2686 C2678 0.930 . S
H2687 C2679 0.929 . S
H2688 C2696 0.929 . S
H2689 C2698 0.930 . S
H2690 C2700 0.930 . S
H2691 C2703 0.929 . S
H2692 C2706 0.930 . S
H2693 C2708 0.960 . S
H2694 C2708 0.960 . S
H2695 C2708 0.960 . S
C2696 H2688 0.929 . S
C2696 C2697 1.377 . S
C2696 C2698 1.384 . S
C2697 C2696 1.377 . S
C2697 C2703 1.390 . S
C2698 H2689 0.930 . S
C2698 C2696 1.384 . S
C2698 C2699 1.372 . S
C2699 C2698 1.372 . S
C2699 C2700 1.400 . S
C2699 C2704 1.490 . S
C2700 H2690 0.930 . S
C2700 C2699 1.400 . S
C2700 C2703 1.386 . S
H2701 C2717 0.930 . S
H2702 C2718 0.931 . S
C2703 H2691 0.929 . S
C2703 C2697 1.390 . S
C2703 C2700 1.386 . S
C2704 C2699 1.490 . S
C2704 C2706 1.395 . S
C2704 C2707 1.403 . S
H2705 C2711 0.930 . S
C2706 H2692 0.930 . S
C2706 C2704 1.395 . S
C2706 C2709 1.403 . S
C2707 C2704 1.403 . S
C2707 C2708 1.524 . S
C2707 C2711 1.400 . S
C2708 H2693 0.960 . S
C2708 H2694 0.960 . S
C2708 H2695 0.960 . S
C2708 C2707 1.524 . S
C2709 C2706 1.403 . S
C2709 C2710 1.392 . S
C2709 C2713 1.495 . S
C2710 C2709 1.392 . S
C2710 C2711 1.385 . S
C2710 C2712 1.478 . S
C2711 H2705 0.930 . S
C2711 C2707 1.400 . S
C2711 C2710 1.385 . S
C2712 C2710 1.478 . S
C2712 C2714 1.381 . S
C2712 C2718 1.383 . S
C2713 C2709 1.495 . S
C2713 H2719 0.959 . S
C2713 H2720 0.961 . S
C2713 H2721 0.960 . S
C2714 C2712 1.381 . S
C2714 C2715 1.394 . S
C2714 H2722 0.930 . S
C2715 C2714 1.394 . S
C2715 C2716 1.383 . S
C2715 H2723 0.929 . S
C2716 C2715 1.383 . S
C2716 C2717 1.377 . S
C2717 H2701 0.930 . S
C2717 C2716 1.377 . S
C2717 C2718 1.379 . S
C2718 H2702 0.931 . S
C2718 C2712 1.383 . S
C2718 C2717 1.379 . S
H2719 C2713 0.959 . S
H2720 C2713 0.961 . S
H2721 C2713 0.960 . S
H2722 C2714 0.930 . S
H2723 C2715 0.929 . S
H2724 C2732 0.929 . S
H2725 C2734 0.930 . S
H2726 C2736 0.930 . S
H2727 C2739 0.929 . S
H2728 C2742 0.930 . S
H2729 C2744 0.960 . S
H2730 C2744 0.960 . S
H2731 C2744 0.960 . S
C2732 H2724 0.929 . S
C2732 C2733 1.377 . S
C2732 C2734 1.384 . S
C2733 C2732 1.377 . S
C2733 C2739 1.390 . S
C2734 H2725 0.930 . S
C2734 C2732 1.384 . S
C2734 C2735 1.372 . S
C2735 C2734 1.372 . S
C2735 C2736 1.400 . S
C2735 C2740 1.490 . S
C2736 H2726 0.930 . S
C2736 C2735 1.400 . S
C2736 C2739 1.386 . S
H2737 C2753 0.930 . S
H2738 C2754 0.931 . S
C2739 H2727 0.929 . S
C2739 C2733 1.390 . S
C2739 C2736 1.386 . S
C2740 C2735 1.490 . S
C2740 C2742 1.395 . S
C2740 C2743 1.403 . S
H2741 C2747 0.930 . S
C2742 H2728 0.930 . S
C2742 C2740 1.395 . S
C2742 C2745 1.403 . S
C2743 C2740 1.403 . S
C2743 C2744 1.524 . S
C2743 C2747 1.400 . S
C2744 H2729 0.960 . S
C2744 H2730 0.960 . S
C2744 H2731 0.960 . S
C2744 C2743 1.524 . S
C2745 C2742 1.403 . S
C2745 C2746 1.392 . S
C2745 C2749 1.495 . S
C2746 C2745 1.392 . S
C2746 C2747 1.385 . S
C2746 C2748 1.478 . S
C2747 H2741 0.930 . S
C2747 C2743 1.400 . S
C2747 C2746 1.385 . S
C2748 C2746 1.478 . S
C2748 C2750 1.381 . S
C2748 C2754 1.383 . S
C2749 C2745 1.495 . S
C2749 H2755 0.959 . S
C2749 H2756 0.961 . S
C2749 H2757 0.960 . S
C2750 C2748 1.381 . S
C2750 C2751 1.394 . S
C2750 H2758 0.930 . S
C2751 C2750 1.394 . S
C2751 C2752 1.383 . S
C2751 H2759 0.929 . S
C2752 C2751 1.383 . S
C2752 C2753 1.377 . S
C2753 H2737 0.930 . S
C2753 C2752 1.377 . S
C2753 C2754 1.379 . S
C2754 H2738 0.931 . S
C2754 C2748 1.383 . S
C2754 C2753 1.379 . S
H2755 C2749 0.959 . S
H2756 C2749 0.961 . S
H2757 C2749 0.960 . S
H2758 C2750 0.930 . S
H2759 C2751 0.929 . S
H2760 C2768 0.929 . S
H2761 C2770 0.930 . S
H2762 C2772 0.930 . S
H2763 C2775 0.929 . S
H2764 C2778 0.930 . S
H2765 C2780 0.960 . S
H2766 C2780 0.960 . S
H2767 C2780 0.960 . S
C2768 H2760 0.929 . S
C2768 C2769 1.377 . S
C2768 C2770 1.384 . S
C2769 C2768 1.377 . S
C2769 C2775 1.390 . S
C2770 H2761 0.930 . S
C2770 C2768 1.384 . S
C2770 C2771 1.372 . S
C2771 C2770 1.372 . S
C2771 C2772 1.400 . S
C2771 C2776 1.490 . S
C2772 H2762 0.930 . S
C2772 C2771 1.400 . S
C2772 C2775 1.386 . S
H2773 C2789 0.930 . S
H2774 C2790 0.931 . S
C2775 H2763 0.929 . S
C2775 C2769 1.390 . S
C2775 C2772 1.386 . S
C2776 C2771 1.490 . S
C2776 C2778 1.395 . S
C2776 C2779 1.403 . S
H2777 C2783 0.930 . S
C2778 H2764 0.930 . S
C2778 C2776 1.395 . S
C2778 C2781 1.403 . S
C2779 C2776 1.403 . S
C2779 C2780 1.524 . S
C2779 C2783 1.400 . S
C2780 H2765 0.960 . S
C2780 H2766 0.960 . S
C2780 H2767 0.960 . S
C2780 C2779 1.524 . S
C2781 C2778 1.403 . S
C2781 C2782 1.392 . S
C2781 C2785 1.495 . S
C2782 C2781 1.392 . S
C2782 C2783 1.385 . S
C2782 C2784 1.478 . S
C2783 H2777 0.930 . S
C2783 C2779 1.400 . S
C2783 C2782 1.385 . S
C2784 C2782 1.478 . S
C2784 C2786 1.381 . S
C2784 C2790 1.383 . S
C2785 C2781 1.495 . S
C2785 H2791 0.959 . S
C2785 H2792 0.961 . S
C2785 H2793 0.960 . S
C2786 C2784 1.381 . S
C2786 C2787 1.394 . S
C2786 H2794 0.930 . S
C2787 C2786 1.394 . S
C2787 C2788 1.383 . S
C2787 H2795 0.929 . S
C2788 C2787 1.383 . S
C2788 C2789 1.377 . S
C2789 H2773 0.930 . S
C2789 C2788 1.377 . S
C2789 C2790 1.379 . S
C2790 H2774 0.931 . S
C2790 C2784 1.383 . S
C2790 C2789 1.379 . S
H2791 C2785 0.959 . S
H2792 C2785 0.961 . S
H2793 C2785 0.960 . S
H2794 C2786 0.930 . S
H2795 C2787 0.929 . S
H2796 C2804 0.929 . S
H2797 C2806 0.930 . S
H2798 C2808 0.930 . S
H2799 C2811 0.929 . S
H2800 C2814 0.930 . S
H2801 C2816 0.960 . S
H2802 C2816 0.960 . S
H2803 C2816 0.960 . S
C2804 H2796 0.929 . S
C2804 C2805 1.377 . S
C2804 C2806 1.384 . S
C2805 C2804 1.377 . S
C2805 C2811 1.390 . S
C2806 H2797 0.930 . S
C2806 C2804 1.384 . S
C2806 C2807 1.372 . S
C2807 C2806 1.372 . S
C2807 C2808 1.400 . S
C2807 C2812 1.490 . S
C2808 H2798 0.930 . S
C2808 C2807 1.400 . S
C2808 C2811 1.386 . S
H2809 C2825 0.930 . S
H2810 C2826 0.931 . S
C2811 H2799 0.929 . S
C2811 C2805 1.390 . S
C2811 C2808 1.386 . S
C2812 C2807 1.490 . S
C2812 C2814 1.395 . S
C2812 C2815 1.403 . S
H2813 C2819 0.930 . S
C2814 H2800 0.930 . S
C2814 C2812 1.395 . S
C2814 C2817 1.403 . S
C2815 C2812 1.403 . S
C2815 C2816 1.524 . S
C2815 C2819 1.400 . S
C2816 H2801 0.960 . S
C2816 H2802 0.960 . S
C2816 H2803 0.960 . S
C2816 C2815 1.524 . S
C2817 C2814 1.403 . S
C2817 C2818 1.392 . S
C2817 C2821 1.495 . S
C2818 C2817 1.392 . S
C2818 C2819 1.385 . S
C2818 C2820 1.478 . S
C2819 H2813 0.930 . S
C2819 C2815 1.400 . S
C2819 C2818 1.385 . S
C2820 C2818 1.478 . S
C2820 C2822 1.381 . S
C2820 C2826 1.383 . S
C2821 C2817 1.495 . S
C2821 H2827 0.959 . S
C2821 H2828 0.961 . S
C2821 H2829 0.960 . S
C2822 C2820 1.381 . S
C2822 C2823 1.394 . S
C2822 H2830 0.930 . S
C2823 C2822 1.394 . S
C2823 C2824 1.383 . S
C2823 H2831 0.929 . S
C2824 C2823 1.383 . S
C2824 C2825 1.377 . S
C2825 H2809 0.930 . S
C2825 C2824 1.377 . S
C2825 C2826 1.379 . S
C2826 H2810 0.931 . S
C2826 C2820 1.383 . S
C2826 C2825 1.379 . S
H2827 C2821 0.959 . S
H2828 C2821 0.961 . S
H2829 C2821 0.960 . S
H2830 C2822 0.930 . S
H2831 C2823 0.929 . S
H2832 C2840 0.929 . S
H2833 C2842 0.930 . S
H2834 C2844 0.930 . S
H2835 C2847 0.929 . S
H2836 C2850 0.930 . S
H2837 C2852 0.960 . S
H2838 C2852 0.960 . S
H2839 C2852 0.960 . S
C2840 H2832 0.929 . S
C2840 C2841 1.377 . S
C2840 C2842 1.384 . S
C2841 C2840 1.377 . S
C2841 C2847 1.390 . S
C2842 H2833 0.930 . S
C2842 C2840 1.384 . S
C2842 C2843 1.372 . S
C2843 C2842 1.372 . S
C2843 C2844 1.400 . S
C2843 C2848 1.490 . S
C2844 H2834 0.930 . S
C2844 C2843 1.400 . S
C2844 C2847 1.386 . S
H2845 C2861 0.930 . S
H2846 C2862 0.931 . S
C2847 H2835 0.929 . S
C2847 C2841 1.390 . S
C2847 C2844 1.386 . S
C2848 C2843 1.490 . S
C2848 C2850 1.395 . S
C2848 C2851 1.403 . S
H2849 C2855 0.930 . S
C2850 H2836 0.930 . S
C2850 C2848 1.395 . S
C2850 C2853 1.403 . S
C2851 C2848 1.403 . S
C2851 C2852 1.524 . S
C2851 C2855 1.400 . S
C2852 H2837 0.960 . S
C2852 H2838 0.960 . S
C2852 H2839 0.960 . S
C2852 C2851 1.524 . S
C2853 C2850 1.403 . S
C2853 C2854 1.392 . S
C2853 C2857 1.495 . S
C2854 C2853 1.392 . S
C2854 C2855 1.385 . S
C2854 C2856 1.478 . S
C2855 H2849 0.930 . S
C2855 C2851 1.400 . S
C2855 C2854 1.385 . S
C2856 C2854 1.478 . S
C2856 C2858 1.381 . S
C2856 C2862 1.383 . S
C2857 C2853 1.495 . S
C2857 H2863 0.959 . S
C2857 H2864 0.961 . S
C2857 H2865 0.960 . S
C2858 C2856 1.381 . S
C2858 C2859 1.394 . S
C2858 H2866 0.930 . S
C2859 C2858 1.394 . S
C2859 C2860 1.383 . S
C2859 H2867 0.929 . S
C2860 C2859 1.383 . S
C2860 C2861 1.377 . S
C2861 H2845 0.930 . S
C2861 C2860 1.377 . S
C2861 C2862 1.379 . S
C2862 H2846 0.931 . S
C2862 C2856 1.383 . S
C2862 C2861 1.379 . S
H2863 C2857 0.959 . S
H2864 C2857 0.961 . S
H2865 C2857 0.960 . S
H2866 C2858 0.930 . S
H2867 C2859 0.929 . S
H2868 C2876 0.929 . S
H2869 C2878 0.930 . S
H2870 C2880 0.930 . S
H2871 C2883 0.929 . S
H2872 C2886 0.930 . S
H2873 C2888 0.960 . S
H2874 C2888 0.960 . S
H2875 C2888 0.960 . S
C2876 H2868 0.929 . S
C2876 C2877 1.377 . S
C2876 C2878 1.384 . S
C2877 C2876 1.377 . S
C2877 C2883 1.390 . S
C2878 H2869 0.930 . S
C2878 C2876 1.384 . S
C2878 C2879 1.372 . S
C2879 C2878 1.372 . S
C2879 C2880 1.400 . S
C2879 C2884 1.490 . S
C2880 H2870 0.930 . S
C2880 C2879 1.400 . S
C2880 C2883 1.386 . S
H2881 C2897 0.930 . S
H2882 C2898 0.931 . S
C2883 H2871 0.929 . S
C2883 C2877 1.390 . S
C2883 C2880 1.386 . S
C2884 C2879 1.490 . S
C2884 C2886 1.395 . S
C2884 C2887 1.403 . S
H2885 C2891 0.930 . S
C2886 H2872 0.930 . S
C2886 C2884 1.395 . S
C2886 C2889 1.403 . S
C2887 C2884 1.403 . S
C2887 C2888 1.524 . S
C2887 C2891 1.400 . S
C2888 H2873 0.960 . S
C2888 H2874 0.960 . S
C2888 H2875 0.960 . S
C2888 C2887 1.524 . S
C2889 C2886 1.403 . S
C2889 C2890 1.392 . S
C2889 C2893 1.495 . S
C2890 C2889 1.392 . S
C2890 C2891 1.385 . S
C2890 C2892 1.478 . S
C2891 H2885 0.930 . S
C2891 C2887 1.400 . S
C2891 C2890 1.385 . S
C2892 C2890 1.478 . S
C2892 C2894 1.381 . S
C2892 C2898 1.383 . S
C2893 C2889 1.495 . S
C2893 H2899 0.959 . S
C2893 H2900 0.961 . S
C2893 H2901 0.960 . S
C2894 C2892 1.381 . S
C2894 C2895 1.394 . S
C2894 H2902 0.930 . S
C2895 C2894 1.394 . S
C2895 C2896 1.383 . S
C2895 H2903 0.929 . S
C2896 C2895 1.383 . S
C2896 C2897 1.377 . S
C2897 H2881 0.930 . S
C2897 C2896 1.377 . S
C2897 C2898 1.379 . S
C2898 H2882 0.931 . S
C2898 C2892 1.383 . S
C2898 C2897 1.379 . S
H2899 C2893 0.959 . S
H2900 C2893 0.961 . S
H2901 C2893 0.960 . S
H2902 C2894 0.930 . S
H2903 C2895 0.929 . S
H2904 C2912 0.929 . S
H2905 C2914 0.930 . S
H2906 C2916 0.930 . S
H2907 C2919 0.929 . S
H2908 C2922 0.930 . S
H2909 C2924 0.960 . S
H2910 C2924 0.960 . S
H2911 C2924 0.960 . S
C2912 H2904 0.929 . S
C2912 C2913 1.377 . S
C2912 C2914 1.384 . S
C2913 C2912 1.377 . S
C2913 C2919 1.390 . S
C2914 H2905 0.930 . S
C2914 C2912 1.384 . S
C2914 C2915 1.372 . S
C2915 C2914 1.372 . S
C2915 C2916 1.400 . S
C2915 C2920 1.490 . S
C2916 H2906 0.930 . S
C2916 C2915 1.400 . S
C2916 C2919 1.386 . S
H2917 C2933 0.930 . S
H2918 C2934 0.931 . S
C2919 H2907 0.929 . S
C2919 C2913 1.390 . S
C2919 C2916 1.386 . S
C2920 C2915 1.490 . S
C2920 C2922 1.395 . S
C2920 C2923 1.403 . S
H2921 C2927 0.930 . S
C2922 H2908 0.930 . S
C2922 C2920 1.395 . S
C2922 C2925 1.403 . S
C2923 C2920 1.403 . S
C2923 C2924 1.524 . S
C2923 C2927 1.400 . S
C2924 H2909 0.960 . S
C2924 H2910 0.960 . S
C2924 H2911 0.960 . S
C2924 C2923 1.524 . S
C2925 C2922 1.403 . S
C2925 C2926 1.392 . S
C2925 C2929 1.495 . S
C2926 C2925 1.392 . S
C2926 C2927 1.385 . S
C2926 C2928 1.478 . S
C2927 H2921 0.930 . S
C2927 C2923 1.400 . S
C2927 C2926 1.385 . S
C2928 C2926 1.478 . S
C2928 C2930 1.381 . S
C2928 C2934 1.383 . S
C2929 C2925 1.495 . S
C2929 H2935 0.959 . S
C2929 H2936 0.961 . S
C2929 H2937 0.960 . S
C2930 C2928 1.381 . S
C2930 C2931 1.394 . S
C2930 H2938 0.930 . S
C2931 C2930 1.394 . S
C2931 C2932 1.383 . S
C2931 H2939 0.929 . S
C2932 C2931 1.383 . S
C2932 C2933 1.377 . S
C2933 H2917 0.930 . S
C2933 C2932 1.377 . S
C2933 C2934 1.379 . S
C2934 H2918 0.931 . S
C2934 C2928 1.383 . S
C2934 C2933 1.379 . S
H2935 C2929 0.959 . S
H2936 C2929 0.961 . S
H2937 C2929 0.960 . S
H2938 C2930 0.930 . S
H2939 C2931 0.929 . S
H2940 C2948 0.929 . S
H2941 C2950 0.930 . S
H2942 C2952 0.930 . S
H2943 C2955 0.929 . S
H2944 C2958 0.930 . S
H2945 C2960 0.960 . S
H2946 C2960 0.960 . S
H2947 C2960 0.960 . S
C2948 H2940 0.929 . S
C2948 C2949 1.377 . S
C2948 C2950 1.384 . S
C2949 C2948 1.377 . S
C2949 C2955 1.390 . S
C2950 H2941 0.930 . S
C2950 C2948 1.384 . S
C2950 C2951 1.372 . S
C2951 C2950 1.372 . S
C2951 C2952 1.400 . S
C2951 C2956 1.490 . S
C2952 H2942 0.930 . S
C2952 C2951 1.400 . S
C2952 C2955 1.386 . S
H2953 C2969 0.930 . S
H2954 C2970 0.931 . S
C2955 H2943 0.929 . S
C2955 C2949 1.390 . S
C2955 C2952 1.386 . S
C2956 C2951 1.490 . S
C2956 C2958 1.395 . S
C2956 C2959 1.403 . S
H2957 C2963 0.930 . S
C2958 H2944 0.930 . S
C2958 C2956 1.395 . S
C2958 C2961 1.403 . S
C2959 C2956 1.403 . S
C2959 C2960 1.524 . S
C2959 C2963 1.400 . S
C2960 H2945 0.960 . S
C2960 H2946 0.960 . S
C2960 H2947 0.960 . S
C2960 C2959 1.524 . S
C2961 C2958 1.403 . S
C2961 C2962 1.392 . S
C2961 C2965 1.495 . S
C2962 C2961 1.392 . S
C2962 C2963 1.385 . S
C2962 C2964 1.478 . S
C2963 H2957 0.930 . S
C2963 C2959 1.400 . S
C2963 C2962 1.385 . S
C2964 C2962 1.478 . S
C2964 C2966 1.381 . S
C2964 C2970 1.383 . S
C2965 C2961 1.495 . S
C2965 H2971 0.959 . S
C2965 H2972 0.961 . S
C2965 H2973 0.960 . S
C2966 C2964 1.381 . S
C2966 C2967 1.394 . S
C2966 H2974 0.930 . S
C2967 C2966 1.394 . S
C2967 C2968 1.383 . S
C2967 H2975 0.929 . S
C2968 C2967 1.383 . S
C2968 C2969 1.377 . S
C2969 H2953 0.930 . S
C2969 C2968 1.377 . S
C2969 C2970 1.379 . S
C2970 H2954 0.931 . S
C2970 C2964 1.383 . S
C2970 C2969 1.379 . S
H2971 C2965 0.959 . S
H2972 C2965 0.961 . S
H2973 C2965 0.960 . S
H2974 C2966 0.930 . S
H2975 C2967 0.929 . S
H2976 C2984 0.929 . S
H2977 C2986 0.930 . S
H2978 C2988 0.930 . S
H2979 C2991 0.929 . S
H2980 C2994 0.930 . S
H2981 C2996 0.960 . S
H2982 C2996 0.960 . S
H2983 C2996 0.960 . S
C2984 H2976 0.929 . S
C2984 C2985 1.377 . S
C2984 C2986 1.384 . S
C2985 C2984 1.377 . S
C2985 C2991 1.390 . S
C2986 H2977 0.930 . S
C2986 C2984 1.384 . S
C2986 C2987 1.372 . S
C2987 C2986 1.372 . S
C2987 C2988 1.400 . S
C2987 C2992 1.490 . S
C2988 H2978 0.930 . S
C2988 C2987 1.400 . S
C2988 C2991 1.386 . S
H2989 C3005 0.930 . S
H2990 C3006 0.931 . S
C2991 H2979 0.929 . S
C2991 C2985 1.390 . S
C2991 C2988 1.386 . S
C2992 C2987 1.490 . S
C2992 C2994 1.395 . S
C2992 C2995 1.403 . S
H2993 C2999 0.930 . S
C2994 H2980 0.930 . S
C2994 C2992 1.395 . S
C2994 C2997 1.403 . S
C2995 C2992 1.403 . S
C2995 C2996 1.524 . S
C2995 C2999 1.400 . S
C2996 H2981 0.960 . S
C2996 H2982 0.960 . S
C2996 H2983 0.960 . S
C2996 C2995 1.524 . S
C2997 C2994 1.403 . S
C2997 C2998 1.392 . S
C2997 C3001 1.495 . S
C2998 C2997 1.392 . S
C2998 C2999 1.385 . S
C2998 C3000 1.478 . S
C2999 H2993 0.930 . S
C2999 C2995 1.400 . S
C2999 C2998 1.385 . S
C3000 C2998 1.478 . S
C3000 C3002 1.381 . S
C3000 C3006 1.383 . S
C3001 C2997 1.495 . S
C3001 H3007 0.959 . S
C3001 H3008 0.961 . S
C3001 H3009 0.960 . S
C3002 C3000 1.381 . S
C3002 C3003 1.394 . S
C3002 H3010 0.930 . S
C3003 C3002 1.394 . S
C3003 C3004 1.383 . S
C3003 H3011 0.929 . S
C3004 C3003 1.383 . S
C3004 C3005 1.377 . S
C3005 H2989 0.930 . S
C3005 C3004 1.377 . S
C3005 C3006 1.379 . S
C3006 H2990 0.931 . S
C3006 C3000 1.383 . S
C3006 C3005 1.379 . S
H3007 C3001 0.959 . S
H3008 C3001 0.961 . S
H3009 C3001 0.960 . S
H3010 C3002 0.930 . S
H3011 C3003 0.929 . S
H3012 C3020 0.929 . S
H3013 C3022 0.930 . S
H3014 C3024 0.930 . S
H3015 C3027 0.929 . S
H3016 C3030 0.930 . S
H3017 C3032 0.960 . S
H3018 C3032 0.960 . S
H3019 C3032 0.960 . S
C3020 H3012 0.929 . S
C3020 C3021 1.377 . S
C3020 C3022 1.384 . S
C3021 C3020 1.377 . S
C3021 C3027 1.390 . S
C3022 H3013 0.930 . S
C3022 C3020 1.384 . S
C3022 C3023 1.372 . S
C3023 C3022 1.372 . S
C3023 C3024 1.400 . S
C3023 C3028 1.490 . S
C3024 H3014 0.930 . S
C3024 C3023 1.400 . S
C3024 C3027 1.386 . S
H3025 C3041 0.930 . S
H3026 C3042 0.931 . S
C3027 H3015 0.929 . S
C3027 C3021 1.390 . S
C3027 C3024 1.386 . S
C3028 C3023 1.490 . S
C3028 C3030 1.395 . S
C3028 C3031 1.403 . S
H3029 C3035 0.930 . S
C3030 H3016 0.930 . S
C3030 C3028 1.395 . S
C3030 C3033 1.403 . S
C3031 C3028 1.403 . S
C3031 C3032 1.524 . S
C3031 C3035 1.400 . S
C3032 H3017 0.960 . S
C3032 H3018 0.960 . S
C3032 H3019 0.960 . S
C3032 C3031 1.524 . S
C3033 C3030 1.403 . S
C3033 C3034 1.392 . S
C3033 C3037 1.495 . S
C3034 C3033 1.392 . S
C3034 C3035 1.385 . S
C3034 C3036 1.478 . S
C3035 H3029 0.930 . S
C3035 C3031 1.400 . S
C3035 C3034 1.385 . S
C3036 C3034 1.478 . S
C3036 C3038 1.381 . S
C3036 C3042 1.383 . S
C3037 C3033 1.495 . S
C3037 H3043 0.959 . S
C3037 H3044 0.961 . S
C3037 H3045 0.960 . S
C3038 C3036 1.381 . S
C3038 C3039 1.394 . S
C3038 H3046 0.930 . S
C3039 C3038 1.394 . S
C3039 C3040 1.383 . S
C3039 H3047 0.929 . S
C3040 C3039 1.383 . S
C3040 C3041 1.377 . S
C3041 H3025 0.930 . S
C3041 C3040 1.377 . S
C3041 C3042 1.379 . S
C3042 H3026 0.931 . S
C3042 C3036 1.383 . S
C3042 C3041 1.379 . S
H3043 C3037 0.959 . S
H3044 C3037 0.961 . S
H3045 C3037 0.960 . S
H3046 C3038 0.930 . S
H3047 C3039 0.929 . S
H3048 C3056 0.929 . S
H3049 C3058 0.930 . S
H3050 C3060 0.930 . S
H3051 C3063 0.929 . S
H3052 C3066 0.930 . S
H3053 C3068 0.960 . S
H3054 C3068 0.960 . S
H3055 C3068 0.960 . S
C3056 H3048 0.929 . S
C3056 C3057 1.377 . S
C3056 C3058 1.384 . S
C3057 C3056 1.377 . S
C3057 C3063 1.390 . S
C3058 H3049 0.930 . S
C3058 C3056 1.384 . S
C3058 C3059 1.372 . S
C3059 C3058 1.372 . S
C3059 C3060 1.400 . S
C3059 C3064 1.490 . S
C3060 H3050 0.930 . S
C3060 C3059 1.400 . S
C3060 C3063 1.386 . S
H3061 C3077 0.930 . S
H3062 C3078 0.931 . S
C3063 H3051 0.929 . S
C3063 C3057 1.390 . S
C3063 C3060 1.386 . S
C3064 C3059 1.490 . S
C3064 C3066 1.395 . S
C3064 C3067 1.403 . S
H3065 C3071 0.930 . S
C3066 H3052 0.930 . S
C3066 C3064 1.395 . S
C3066 C3069 1.403 . S
C3067 C3064 1.403 . S
C3067 C3068 1.524 . S
C3067 C3071 1.400 . S
C3068 H3053 0.960 . S
C3068 H3054 0.960 . S
C3068 H3055 0.960 . S
C3068 C3067 1.524 . S
C3069 C3066 1.403 . S
C3069 C3070 1.392 . S
C3069 C3073 1.495 . S
C3070 C3069 1.392 . S
C3070 C3071 1.385 . S
C3070 C3072 1.478 . S
C3071 H3065 0.930 . S
C3071 C3067 1.400 . S
C3071 C3070 1.385 . S
C3072 C3070 1.478 . S
C3072 C3074 1.381 . S
C3072 C3078 1.383 . S
C3073 C3069 1.495 . S
C3073 H3079 0.959 . S
C3073 H3080 0.961 . S
C3073 H3081 0.960 . S
C3074 C3072 1.381 . S
C3074 C3075 1.394 . S
C3074 H3082 0.930 . S
C3075 C3074 1.394 . S
C3075 C3076 1.383 . S
C3075 H3083 0.929 . S
C3076 C3075 1.383 . S
C3076 C3077 1.377 . S
C3077 H3061 0.930 . S
C3077 C3076 1.377 . S
C3077 C3078 1.379 . S
C3078 H3062 0.931 . S
C3078 C3072 1.383 . S
C3078 C3077 1.379 . S
H3079 C3073 0.959 . S
H3080 C3073 0.961 . S
H3081 C3073 0.960 . S
H3082 C3074 0.930 . S
H3083 C3075 0.929 . S
H3084 C3092 0.929 . S
H3085 C3094 0.930 . S
H3086 C3096 0.930 . S
H3087 C3099 0.929 . S
H3088 C3102 0.930 . S
H3089 C3104 0.960 . S
H3090 C3104 0.960 . S
H3091 C3104 0.960 . S
C3092 H3084 0.929 . S
C3092 C3093 1.377 . S
C3092 C3094 1.384 . S
C3093 C3092 1.377 . S
C3093 C3099 1.390 . S
C3094 H3085 0.930 . S
C3094 C3092 1.384 . S
C3094 C3095 1.372 . S
C3095 C3094 1.372 . S
C3095 C3096 1.400 . S
C3095 C3100 1.490 . S
C3096 H3086 0.930 . S
C3096 C3095 1.400 . S
C3096 C3099 1.386 . S
H3097 C3113 0.930 . S
H3098 C3114 0.931 . S
C3099 H3087 0.929 . S
C3099 C3093 1.390 . S
C3099 C3096 1.386 . S
C3100 C3095 1.490 . S
C3100 C3102 1.395 . S
C3100 C3103 1.403 . S
H3101 C3107 0.930 . S
C3102 H3088 0.930 . S
C3102 C3100 1.395 . S
C3102 C3105 1.403 . S
C3103 C3100 1.403 . S
C3103 C3104 1.524 . S
C3103 C3107 1.400 . S
C3104 H3089 0.960 . S
C3104 H3090 0.960 . S
C3104 H3091 0.960 . S
C3104 C3103 1.524 . S
C3105 C3102 1.403 . S
C3105 C3106 1.392 . S
C3105 C3109 1.495 . S
C3106 C3105 1.392 . S
C3106 C3107 1.385 . S
C3106 C3108 1.478 . S
C3107 H3101 0.930 . S
C3107 C3103 1.400 . S
C3107 C3106 1.385 . S
C3108 C3106 1.478 . S
C3108 C3110 1.381 . S
C3108 C3114 1.383 . S
C3109 C3105 1.495 . S
C3109 H3115 0.959 . S
C3109 H3116 0.961 . S
C3109 H3117 0.960 . S
C3110 C3108 1.381 . S
C3110 C3111 1.394 . S
C3110 H3118 0.930 . S
C3111 C3110 1.394 . S
C3111 C3112 1.383 . S
C3111 H3119 0.929 . S
C3112 C3111 1.383 . S
C3112 C3113 1.377 . S
C3113 H3097 0.930 . S
C3113 C3112 1.377 . S
C3113 C3114 1.379 . S
C3114 H3098 0.931 . S
C3114 C3108 1.383 . S
C3114 C3113 1.379 . S
H3115 C3109 0.959 . S
H3116 C3109 0.961 . S
H3117 C3109 0.960 . S
H3118 C3110 0.930 . S
H3119 C3111 0.929 . S
H3120 C3128 0.929 . S
H3121 C3130 0.930 . S
H3122 C3132 0.930 . S
H3123 C3135 0.929 . S
H3124 C3138 0.930 . S
H3125 C3140 0.960 . S
H3126 C3140 0.960 . S
H3127 C3140 0.960 . S
C3128 H3120 0.929 . S
C3128 C3129 1.377 . S
C3128 C3130 1.384 . S
C3129 C3128 1.377 . S
C3129 C3135 1.390 . S
C3130 H3121 0.930 . S
C3130 C3128 1.384 . S
C3130 C3131 1.372 . S
C3131 C3130 1.372 . S
C3131 C3132 1.400 . S
C3131 C3136 1.490 . S
C3132 H3122 0.930 . S
C3132 C3131 1.400 . S
C3132 C3135 1.386 . S
H3133 C3149 0.930 . S
H3134 C3150 0.931 . S
C3135 H3123 0.929 . S
C3135 C3129 1.390 . S
C3135 C3132 1.386 . S
C3136 C3131 1.490 . S
C3136 C3138 1.395 . S
C3136 C3139 1.403 . S
H3137 C3143 0.930 . S
C3138 H3124 0.930 . S
C3138 C3136 1.395 . S
C3138 C3141 1.403 . S
C3139 C3136 1.403 . S
C3139 C3140 1.524 . S
C3139 C3143 1.400 . S
C3140 H3125 0.960 . S
C3140 H3126 0.960 . S
C3140 H3127 0.960 . S
C3140 C3139 1.524 . S
C3141 C3138 1.403 . S
C3141 C3142 1.392 . S
C3141 C3145 1.495 . S
C3142 C3141 1.392 . S
C3142 C3143 1.385 . S
C3142 C3144 1.478 . S
C3143 H3137 0.930 . S
C3143 C3139 1.400 . S
C3143 C3142 1.385 . S
C3144 C3142 1.478 . S
C3144 C3146 1.381 . S
C3144 C3150 1.383 . S
C3145 C3141 1.495 . S
C3145 H3151 0.959 . S
C3145 H3152 0.961 . S
C3145 H3153 0.960 . S
C3146 C3144 1.381 . S
C3146 C3147 1.394 . S
C3146 H3154 0.930 . S
C3147 C3146 1.394 . S
C3147 C3148 1.383 . S
C3147 H3155 0.929 . S
C3148 C3147 1.383 . S
C3148 C3149 1.377 . S
C3149 H3133 0.930 . S
C3149 C3148 1.377 . S
C3149 C3150 1.379 . S
C3150 H3134 0.931 . S
C3150 C3144 1.383 . S
C3150 C3149 1.379 . S
H3151 C3145 0.959 . S
H3152 C3145 0.961 . S
H3153 C3145 0.960 . S
H3154 C3146 0.930 . S
H3155 C3147 0.929 . S
H3156 C3164 0.929 . S
H3157 C3166 0.930 . S
H3158 C3168 0.930 . S
H3159 C3171 0.929 . S
H3160 C3174 0.930 . S
H3161 C3176 0.960 . S
H3162 C3176 0.960 . S
H3163 C3176 0.960 . S
C3164 H3156 0.929 . S
C3164 C3165 1.377 . S
C3164 C3166 1.384 . S
C3165 C3164 1.377 . S
C3165 C3171 1.390 . S
C3166 H3157 0.930 . S
C3166 C3164 1.384 . S
C3166 C3167 1.372 . S
C3167 C3166 1.372 . S
C3167 C3168 1.400 . S
C3167 C3172 1.490 . S
C3168 H3158 0.930 . S
C3168 C3167 1.400 . S
C3168 C3171 1.386 . S
H3169 C3185 0.930 . S
H3170 C3186 0.931 . S
C3171 H3159 0.929 . S
C3171 C3165 1.390 . S
C3171 C3168 1.386 . S
C3172 C3167 1.490 . S
C3172 C3174 1.395 . S
C3172 C3175 1.403 . S
H3173 C3179 0.930 . S
C3174 H3160 0.930 . S
C3174 C3172 1.395 . S
C3174 C3177 1.403 . S
C3175 C3172 1.403 . S
C3175 C3176 1.524 . S
C3175 C3179 1.400 . S
C3176 H3161 0.960 . S
C3176 H3162 0.960 . S
C3176 H3163 0.960 . S
C3176 C3175 1.524 . S
C3177 C3174 1.403 . S
C3177 C3178 1.392 . S
C3177 C3181 1.495 . S
C3178 C3177 1.392 . S
C3178 C3179 1.385 . S
C3178 C3180 1.478 . S
C3179 H3173 0.930 . S
C3179 C3175 1.400 . S
C3179 C3178 1.385 . S
C3180 C3178 1.478 . S
C3180 C3182 1.381 . S
C3180 C3186 1.383 . S
C3181 C3177 1.495 . S
C3181 H3187 0.959 . S
C3181 H3188 0.961 . S
C3181 H3189 0.960 . S
C3182 C3180 1.381 . S
C3182 C3183 1.394 . S
C3182 H3190 0.930 . S
C3183 C3182 1.394 . S
C3183 C3184 1.383 . S
C3183 H3191 0.929 . S
C3184 C3183 1.383 . S
C3184 C3185 1.377 . S
C3185 H3169 0.930 . S
C3185 C3184 1.377 . S
C3185 C3186 1.379 . S
C3186 H3170 0.931 . S
C3186 C3180 1.383 . S
C3186 C3185 1.379 . S
H3187 C3181 0.959 . S
H3188 C3181 0.961 . S
H3189 C3181 0.960 . S
H3190 C3182 0.930 . S
H3191 C3183 0.929 . S
H3192 C3200 0.929 . S
H3193 C3202 0.930 . S
H3194 C3204 0.930 . S
H3195 C3207 0.929 . S
H3196 C3210 0.930 . S
H3197 C3212 0.960 . S
H3198 C3212 0.960 . S
H3199 C3212 0.960 . S
C3200 H3192 0.929 . S
C3200 C3201 1.377 . S
C3200 C3202 1.384 . S
C3201 C3200 1.377 . S
C3201 C3207 1.390 . S
C3202 H3193 0.930 . S
C3202 C3200 1.384 . S
C3202 C3203 1.372 . S
C3203 C3202 1.372 . S
C3203 C3204 1.400 . S
C3203 C3208 1.490 . S
C3204 H3194 0.930 . S
C3204 C3203 1.400 . S
C3204 C3207 1.386 . S
H3205 C3221 0.930 . S
H3206 C3222 0.931 . S
C3207 H3195 0.929 . S
C3207 C3201 1.390 . S
C3207 C3204 1.386 . S
C3208 C3203 1.490 . S
C3208 C3210 1.395 . S
C3208 C3211 1.403 . S
H3209 C3215 0.930 . S
C3210 H3196 0.930 . S
C3210 C3208 1.395 . S
C3210 C3213 1.403 . S
C3211 C3208 1.403 . S
C3211 C3212 1.524 . S
C3211 C3215 1.400 . S
C3212 H3197 0.960 . S
C3212 H3198 0.960 . S
C3212 H3199 0.960 . S
C3212 C3211 1.524 . S
C3213 C3210 1.403 . S
C3213 C3214 1.392 . S
C3213 C3217 1.495 . S
C3214 C3213 1.392 . S
C3214 C3215 1.385 . S
C3214 C3216 1.478 . S
C3215 H3209 0.930 . S
C3215 C3211 1.400 . S
C3215 C3214 1.385 . S
C3216 C3214 1.478 . S
C3216 C3218 1.381 . S
C3216 C3222 1.383 . S
C3217 C3213 1.495 . S
C3217 H3223 0.959 . S
C3217 H3224 0.961 . S
C3217 H3225 0.960 . S
C3218 C3216 1.381 . S
C3218 C3219 1.394 . S
C3218 H3226 0.930 . S
C3219 C3218 1.394 . S
C3219 C3220 1.383 . S
C3219 H3227 0.929 . S
C3220 C3219 1.383 . S
C3220 C3221 1.377 . S
C3221 H3205 0.930 . S
C3221 C3220 1.377 . S
C3221 C3222 1.379 . S
C3222 H3206 0.931 . S
C3222 C3216 1.383 . S
C3222 C3221 1.379 . S
H3223 C3217 0.959 . S
H3224 C3217 0.961 . S
H3225 C3217 0.960 . S
H3226 C3218 0.930 . S
H3227 C3219 0.929 . S
H3228 C3236 0.929 . S
H3229 C3238 0.930 . S
H3230 C3240 0.930 . S
H3231 C3243 0.929 . S
H3232 C3246 0.930 . S
H3233 C3248 0.960 . S
H3234 C3248 0.960 . S
H3235 C3248 0.960 . S
C3236 H3228 0.929 . S
C3236 C3237 1.377 . S
C3236 C3238 1.384 . S
C3237 C3236 1.377 . S
C3237 C3243 1.390 . S
C3238 H3229 0.930 . S
C3238 C3236 1.384 . S
C3238 C3239 1.372 . S
C3239 C3238 1.372 . S
C3239 C3240 1.400 . S
C3239 C3244 1.490 . S
C3240 H3230 0.930 . S
C3240 C3239 1.400 . S
C3240 C3243 1.386 . S
H3241 C3257 0.930 . S
H3242 C3258 0.931 . S
C3243 H3231 0.929 . S
C3243 C3237 1.390 . S
C3243 C3240 1.386 . S
C3244 C3239 1.490 . S
C3244 C3246 1.395 . S
C3244 C3247 1.403 . S
H3245 C3251 0.930 . S
C3246 H3232 0.930 . S
C3246 C3244 1.395 . S
C3246 C3249 1.403 . S
C3247 C3244 1.403 . S
C3247 C3248 1.524 . S
C3247 C3251 1.400 . S
C3248 H3233 0.960 . S
C3248 H3234 0.960 . S
C3248 H3235 0.960 . S
C3248 C3247 1.524 . S
C3249 C3246 1.403 . S
C3249 C3250 1.392 . S
C3249 C3253 1.495 . S
C3250 C3249 1.392 . S
C3250 C3251 1.385 . S
C3250 C3252 1.478 . S
C3251 H3245 0.930 . S
C3251 C3247 1.400 . S
C3251 C3250 1.385 . S
C3252 C3250 1.478 . S
C3252 C3254 1.381 . S
C3252 C3258 1.383 . S
C3253 C3249 1.495 . S
C3253 H3259 0.959 . S
C3253 H3260 0.961 . S
C3253 H3261 0.960 . S
C3254 C3252 1.381 . S
C3254 C3255 1.394 . S
C3254 H3262 0.930 . S
C3255 C3254 1.394 . S
C3255 C3256 1.383 . S
C3255 H3263 0.929 . S
C3256 C3255 1.383 . S
C3256 C3257 1.377 . S
C3257 H3241 0.930 . S
C3257 C3256 1.377 . S
C3257 C3258 1.379 . S
C3258 H3242 0.931 . S
C3258 C3252 1.383 . S
C3258 C3257 1.379 . S
H3259 C3253 0.959 . S
H3260 C3253 0.961 . S
H3261 C3253 0.960 . S
H3262 C3254 0.930 . S
H3263 C3255 0.929 . S
H3264 C3272 0.929 . S
H3265 C3274 0.930 . S
H3266 C3276 0.930 . S
H3267 C3279 0.929 . S
H3268 C3282 0.930 . S
H3269 C3284 0.960 . S
H3270 C3284 0.960 . S
H3271 C3284 0.960 . S
C3272 H3264 0.929 . S
C3272 C3273 1.377 . S
C3272 C3274 1.384 . S
C3273 C3272 1.377 . S
C3273 C3279 1.390 . S
C3274 H3265 0.930 . S
C3274 C3272 1.384 . S
C3274 C3275 1.372 . S
C3275 C3274 1.372 . S
C3275 C3276 1.400 . S
C3275 C3280 1.490 . S
C3276 H3266 0.930 . S
C3276 C3275 1.400 . S
C3276 C3279 1.386 . S
H3277 C3293 0.930 . S
H3278 C3294 0.931 . S
C3279 H3267 0.929 . S
C3279 C3273 1.390 . S
C3279 C3276 1.386 . S
C3280 C3275 1.490 . S
C3280 C3282 1.395 1_655 S
C3280 C3283 1.403 . S
H3281 C3287 0.930 . S
C3282 H3268 0.930 . S
C3282 C3280 1.395 1_455 S
C3282 C3285 1.403 . S
C3283 C3280 1.403 . S
C3283 C3284 1.524 . S
C3283 C3287 1.400 1_655 S
C3284 H3269 0.960 . S
C3284 H3270 0.960 . S
C3284 H3271 0.960 . S
C3284 C3283 1.524 . S
C3285 C3282 1.403 . S
C3285 C3286 1.392 . S
C3285 C3289 1.495 . S
C3286 C3285 1.392 . S
C3286 C3287 1.385 . S
C3286 C3288 1.478 . S
C3287 H3281 0.930 . S
C3287 C3283 1.400 1_455 S
C3287 C3286 1.385 . S
C3288 C3286 1.478 . S
C3288 C3290 1.381 . S
C3288 C3294 1.383 . S
C3289 C3285 1.495 . S
C3289 H3295 0.959 . S
C3289 H3296 0.961 . S
C3289 H3297 0.960 . S
C3290 C3288 1.381 . S
C3290 C3291 1.394 . S
C3290 H3298 0.930 . S
C3291 C3290 1.394 . S
C3291 C3292 1.383 . S
C3291 H3299 0.929 . S
C3292 C3291 1.383 . S
C3292 C3293 1.377 . S
C3293 H3277 0.930 . S
C3293 C3292 1.377 . S
C3293 C3294 1.379 . S
C3294 H3278 0.931 . S
C3294 C3288 1.383 . S
C3294 C3293 1.379 . S
H3295 C3289 0.959 . S
H3296 C3289 0.961 . S
H3297 C3289 0.960 . S
H3298 C3290 0.930 . S
H3299 C3291 0.929 . S
H3300 C3308 0.929 . S
H3301 C3310 0.930 . S
H3302 C3312 0.930 . S
H3303 C3315 0.929 . S
H3304 C3318 0.930 . S
H3305 C3320 0.960 . S
H3306 C3320 0.960 1_545 S
H3307 C3320 0.960 . S
C3308 H3300 0.929 . S
C3308 C3309 1.377 . S
C3308 C3310 1.384 . S
C3309 C3308 1.377 . S
C3309 C3315 1.390 . S
C3310 H3301 0.930 . S
C3310 C3308 1.384 . S
C3310 C3311 1.372 . S
C3311 C3310 1.372 . S
C3311 C3312 1.400 . S
C3311 C3316 1.490 . S
C3312 H3302 0.930 . S
C3312 C3311 1.400 . S
C3312 C3315 1.386 . S
H3313 C3329 0.930 . S
H3314 C3330 0.931 . S
C3315 H3303 0.929 . S
C3315 C3309 1.390 . S
C3315 C3312 1.386 . S
C3316 C3311 1.490 . S
C3316 C3318 1.395 . S
C3316 C3319 1.403 . S
H3317 C3323 0.930 . S
C3318 H3304 0.930 . S
C3318 C3316 1.395 . S
C3318 C3321 1.403 . S
C3319 C3316 1.403 . S
C3319 C3320 1.524 1_545 S
C3319 C3323 1.400 1_545 S
C3320 H3305 0.960 . S
C3320 H3306 0.960 1_565 S
C3320 H3307 0.960 . S
C3320 C3319 1.524 1_565 S
C3321 C3318 1.403 . S
C3321 C3322 1.392 1_545 S
C3321 C3325 1.495 . S
C3322 C3321 1.392 1_565 S
C3322 C3323 1.385 . S
C3322 C3324 1.478 . S
C3323 H3317 0.930 . S
C3323 C3319 1.400 1_565 S
C3323 C3322 1.385 . S
C3324 C3322 1.478 . S
C3324 C3326 1.381 . S
C3324 C3330 1.383 . S
C3325 C3321 1.495 . S
C3325 H3331 0.959 . S
C3325 H3332 0.961 . S
C3325 H3333 0.960 . S
C3326 C3324 1.381 . S
C3326 C3327 1.394 . S
C3326 H3334 0.930 . S
C3327 C3326 1.394 . S
C3327 C3328 1.383 . S
C3327 H3335 0.929 . S
C3328 C3327 1.383 . S
C3328 C3329 1.377 . S
C3329 H3313 0.930 . S
C3329 C3328 1.377 . S
C3329 C3330 1.379 . S
C3330 H3314 0.931 . S
C3330 C3324 1.383 . S
C3330 C3329 1.379 . S
H3331 C3325 0.959 . S
H3332 C3325 0.961 . S
H3333 C3325 0.960 . S
H3334 C3326 0.930 . S
H3335 C3327 0.929 . S
H3336 C3344 0.929 . S
H3337 C3346 0.930 . S
H3338 C3348 0.930 . S
H3339 C3351 0.929 . S
H3340 C3354 0.930 . S
H3341 C3356 0.960 . S
H3342 C3356 0.960 . S
H3343 C3356 0.960 . S
C3344 H3336 0.929 . S
C3344 C3345 1.377 . S
C3344 C3346 1.384 . S
C3345 C3344 1.377 . S
C3345 C3351 1.390 . S
C3346 H3337 0.930 . S
C3346 C3344 1.384 . S
C3346 C3347 1.372 . S
C3347 C3346 1.372 . S
C3347 C3348 1.400 . S
C3347 C3352 1.490 . S
C3348 H3338 0.930 . S
C3348 C3347 1.400 . S
C3348 C3351 1.386 . S
H3349 C3365 0.930 . S
H3350 C3366 0.931 . S
C3351 H3339 0.929 . S
C3351 C3345 1.390 . S
C3351 C3348 1.386 . S
C3352 C3347 1.490 . S
C3352 C3354 1.395 . S
C3352 C3355 1.403 . S
H3353 C3359 0.930 . S
C3354 H3340 0.930 . S
C3354 C3352 1.395 . S
C3354 C3357 1.403 . S
C3355 C3352 1.403 . S
C3355 C3356 1.524 . S
C3355 C3359 1.400 . S
C3356 H3341 0.960 . S
C3356 H3342 0.960 . S
C3356 H3343 0.960 . S
C3356 C3355 1.524 . S
C3357 C3354 1.403 . S
C3357 C3358 1.392 . S
C3357 C3361 1.495 . S
C3358 C3357 1.392 . S
C3358 C3359 1.385 . S
C3358 C3360 1.478 . S
C3359 H3353 0.930 . S
C3359 C3355 1.400 . S
C3359 C3358 1.385 . S
C3360 C3358 1.478 . S
C3360 C3362 1.381 . S
C3360 C3366 1.383 . S
C3361 C3357 1.495 . S
C3361 H3367 0.959 . S
C3361 H3368 0.961 . S
C3361 H3369 0.960 . S
C3362 C3360 1.381 . S
C3362 C3363 1.394 . S
C3362 H3370 0.930 . S
C3363 C3362 1.394 . S
C3363 C3364 1.383 . S
C3363 H3371 0.929 . S
C3364 C3363 1.383 . S
C3364 C3365 1.377 . S
C3365 H3349 0.930 . S
C3365 C3364 1.377 . S
C3365 C3366 1.379 . S
C3366 H3350 0.931 . S
C3366 C3360 1.383 . S
C3366 C3365 1.379 . S
H3367 C3361 0.959 . S
H3368 C3361 0.961 . S
H3369 C3361 0.960 . S
H3370 C3362 0.930 . S
H3371 C3363 0.929 . S
H3372 C3380 0.929 . S
H3373 C3382 0.930 . S
H3374 C3384 0.930 . S
H3375 C3387 0.929 . S
H3376 C3390 0.930 . S
H3377 C3392 0.960 . S
H3378 C3392 0.960 . S
H3379 C3392 0.960 . S
C3380 H3372 0.929 . S
C3380 C3381 1.377 . S
C3380 C3382 1.384 . S
C3381 C3380 1.377 . S
C3381 C3387 1.390 . S
C3382 H3373 0.930 . S
C3382 C3380 1.384 . S
C3382 C3383 1.372 . S
C3383 C3382 1.372 . S
C3383 C3384 1.400 . S
C3383 C3388 1.490 . S
C3384 H3374 0.930 . S
C3384 C3383 1.400 . S
C3384 C3387 1.386 . S
H3385 C3401 0.930 . S
H3386 C3402 0.931 . S
C3387 H3375 0.929 . S
C3387 C3381 1.390 . S
C3387 C3384 1.386 . S
C3388 C3383 1.490 . S
C3388 C3390 1.395 . S
C3388 C3391 1.403 . S
H3389 C3395 0.930 . S
C3390 H3376 0.930 . S
C3390 C3388 1.395 . S
C3390 C3393 1.403 . S
C3391 C3388 1.403 . S
C3391 C3392 1.524 . S
C3391 C3395 1.400 . S
C3392 H3377 0.960 . S
C3392 H3378 0.960 . S
C3392 H3379 0.960 . S
C3392 C3391 1.524 . S
C3393 C3390 1.403 . S
C3393 C3394 1.392 . S
C3393 C3397 1.495 . S
C3394 C3393 1.392 . S
C3394 C3395 1.385 . S
C3394 C3396 1.478 . S
C3395 H3389 0.930 . S
C3395 C3391 1.400 . S
C3395 C3394 1.385 . S
C3396 C3394 1.478 . S
C3396 C3398 1.381 . S
C3396 C3402 1.383 . S
C3397 C3393 1.495 . S
C3397 H3403 0.959 . S
C3397 H3404 0.961 . S
C3397 H3405 0.960 . S
C3398 C3396 1.381 . S
C3398 C3399 1.394 . S
C3398 H3406 0.930 . S
C3399 C3398 1.394 . S
C3399 C3400 1.383 . S
C3399 H3407 0.929 . S
C3400 C3399 1.383 . S
C3400 C3401 1.377 . S
C3401 H3385 0.930 . S
C3401 C3400 1.377 . S
C3401 C3402 1.379 . S
C3402 H3386 0.931 . S
C3402 C3396 1.383 . S
C3402 C3401 1.379 . S
H3403 C3397 0.959 . S
H3404 C3397 0.961 . S
H3405 C3397 0.960 . S
H3406 C3398 0.930 . S
H3407 C3399 0.929 . S
H3408 C3416 0.929 . S
H3409 C3418 0.930 . S
H3410 C3420 0.930 . S
H3411 C3423 0.929 . S
H3412 C3426 0.930 . S
H3413 C3428 0.960 . S
H3414 C3428 0.960 . S
H3415 C3428 0.960 1_455 S
C3416 H3408 0.929 . S
C3416 C3417 1.377 . S
C3416 C3418 1.384 . S
C3417 C3416 1.377 . S
C3417 C3423 1.390 . S
C3418 H3409 0.930 . S
C3418 C3416 1.384 . S
C3418 C3419 1.372 . S
C3419 C3418 1.372 . S
C3419 C3420 1.400 . S
C3419 C3424 1.490 . S
C3420 H3410 0.930 . S
C3420 C3419 1.400 . S
C3420 C3423 1.386 . S
H3421 C3437 0.930 . S
H3422 C3438 0.931 . S
C3423 H3411 0.929 . S
C3423 C3417 1.390 . S
C3423 C3420 1.386 . S
C3424 C3419 1.490 . S
C3424 C3426 1.395 . S
C3424 C3427 1.403 . S
H3425 C3431 0.930 . S
C3426 H3412 0.930 . S
C3426 C3424 1.395 . S
C3426 C3429 1.403 . S
C3427 C3424 1.403 . S
C3427 C3428 1.524 1_455 S
C3427 C3431 1.400 1_455 S
C3428 H3413 0.960 . S
C3428 H3414 0.960 . S
C3428 H3415 0.960 1_655 S
C3428 C3427 1.524 1_655 S
C3429 C3426 1.403 . S
C3429 C3430 1.392 1_455 S
C3429 C3433 1.495 . S
C3430 C3429 1.392 1_655 S
C3430 C3431 1.385 . S
C3430 C3432 1.478 . S
C3431 H3425 0.930 . S
C3431 C3427 1.400 1_655 S
C3431 C3430 1.385 . S
C3432 C3430 1.478 . S
C3432 C3434 1.381 . S
C3432 C3438 1.383 . S
C3433 C3429 1.495 . S
C3433 H3439 0.959 . S
C3433 H3440 0.961 . S
C3433 H3441 0.960 . S
C3434 C3432 1.381 . S
C3434 C3435 1.394 . S
C3434 H3442 0.930 . S
C3435 C3434 1.394 . S
C3435 C3436 1.383 . S
C3435 H3443 0.929 . S
C3436 C3435 1.383 . S
C3436 C3437 1.377 . S
C3437 H3421 0.930 . S
C3437 C3436 1.377 . S
C3437 C3438 1.379 . S
C3438 H3422 0.931 . S
C3438 C3432 1.383 . S
C3438 C3437 1.379 . S
H3439 C3433 0.959 . S
H3440 C3433 0.961 . S
H3441 C3433 0.960 . S
H3442 C3434 0.930 . S
H3443 C3435 0.929 . S
H3444 C3452 0.929 . S
H3445 C3454 0.930 . S
H3446 C3456 0.930 . S
H3447 C3459 0.929 . S
H3448 C3462 0.930 . S
H3449 C3464 0.892 1_565 S
H3450 C3464 1.020 . S
H3451 C3464 0.959 . S
C3452 H3444 0.929 . S
C3452 C3453 1.377 . S
C3452 C3454 1.384 . S
C3453 C3452 1.377 . S
C3453 C3459 1.390 . S
C3454 H3445 0.930 . S
C3454 C3452 1.384 . S
C3454 C3455 1.372 . S
C3455 C3454 1.372 . S
C3455 C3456 1.400 . S
C3455 C3460 1.490 . S
C3456 H3446 0.930 . S
C3456 C3455 1.400 . S
C3456 C3459 1.386 . S
H3457 C3473 0.930 . S
H3458 C3474 0.931 . S
C3459 H3447 0.929 . S
C3459 C3453 1.390 . S
C3459 C3456 1.386 . S
C3460 C3455 1.490 . S
C3460 C3462 1.395 . S
C3460 C3463 1.403 . S
H3461 C3467 0.930 . S
C3462 H3448 0.930 . S
C3462 C3460 1.395 . S
C3462 C3465 1.403 . S
C3463 C3460 1.403 . S
C3463 C3464 1.540 . S
C3463 C3467 1.400 1_545 S
C3464 H3449 0.892 1_545 S
C3464 H3450 1.020 . S
C3464 H3451 0.959 . S
C3464 C3463 1.540 . S
C3465 C3462 1.403 . S
C3465 C3466 1.392 1_545 S
C3465 C3469 1.495 . S
C3466 C3465 1.392 1_565 S
C3466 C3467 1.385 . S
C3466 C3468 1.478 . S
C3467 H3461 0.930 . S
C3467 C3463 1.400 1_565 S
C3467 C3466 1.385 . S
C3468 C3466 1.478 . S
C3468 C3470 1.381 . S
C3468 C3474 1.383 . S
C3469 C3465 1.495 . S
C3469 H3475 0.959 . S
C3469 H3476 0.961 . S
C3469 H3477 0.960 . S
C3470 C3468 1.381 . S
C3470 C3471 1.394 . S
C3470 H3478 0.930 . S
C3471 C3470 1.394 . S
C3471 C3472 1.383 . S
C3471 H3479 0.929 . S
C3472 C3471 1.383 . S
C3472 C3473 1.377 . S
C3473 H3457 0.930 . S
C3473 C3472 1.377 . S
C3473 C3474 1.379 . S
C3474 H3458 0.931 . S
C3474 C3468 1.383 . S
C3474 C3473 1.379 . S
H3475 C3469 0.959 . S
H3476 C3469 0.961 . S
H3477 C3469 0.960 . S
H3478 C3470 0.930 . S
H3479 C3471 0.929 . S
H3480 C3488 0.929 . S
H3481 C3490 0.930 . S
H3482 C3492 0.930 . S
H3483 C3495 0.929 . S
H3484 C3498 0.930 . S
H3485 C3500 0.960 . S
H3486 C3500 0.960 . S
H3487 C3500 0.960 . S
C3488 H3480 0.929 . S
C3488 C3489 1.377 . S
C3488 C3490 1.384 . S
C3489 C3488 1.377 . S
C3489 C3495 1.390 . S
C3490 H3481 0.930 . S
C3490 C3488 1.384 . S
C3490 C3491 1.372 . S
C3491 C3490 1.372 . S
C3491 C3492 1.400 . S
C3491 C3496 1.490 . S
C3492 H3482 0.930 . S
C3492 C3491 1.400 . S
C3492 C3495 1.386 . S
H3493 C3509 0.930 . S
H3494 C3510 0.931 . S
C3495 H3483 0.929 . S
C3495 C3489 1.390 . S
C3495 C3492 1.386 . S
C3496 C3491 1.490 . S
C3496 C3498 1.395 . S
C3496 C3499 1.403 . S
H3497 C3503 0.930 . S
C3498 H3484 0.930 . S
C3498 C3496 1.395 . S
C3498 C3501 1.403 . S
C3499 C3496 1.403 . S
C3499 C3500 1.524 . S
C3499 C3503 1.400 . S
C3500 H3485 0.960 . S
C3500 H3486 0.960 . S
C3500 H3487 0.960 . S
C3500 C3499 1.524 . S
C3501 C3498 1.403 . S
C3501 C3502 1.392 . S
C3501 C3505 1.495 . S
C3502 C3501 1.392 . S
C3502 C3503 1.385 . S
C3502 C3504 1.478 . S
C3503 H3497 0.930 . S
C3503 C3499 1.400 . S
C3503 C3502 1.385 . S
C3504 C3502 1.478 . S
C3504 C3506 1.381 . S
C3504 C3510 1.383 . S
C3505 C3501 1.495 . S
C3505 H3511 0.959 . S
C3505 H3512 0.961 . S
C3505 H3513 0.960 . S
C3506 C3504 1.381 . S
C3506 C3507 1.394 . S
C3506 H3514 0.930 . S
C3507 C3506 1.394 . S
C3507 C3508 1.383 . S
C3507 H3515 0.929 . S
C3508 C3507 1.383 . S
C3508 C3509 1.377 . S
C3509 H3493 0.930 . S
C3509 C3508 1.377 . S
C3509 C3510 1.379 . S
C3510 H3494 0.931 . S
C3510 C3504 1.383 . S
C3510 C3509 1.379 . S
H3511 C3505 0.959 . S
H3512 C3505 0.961 . S
H3513 C3505 0.960 . S
H3514 C3506 0.930 . S
H3515 C3507 0.929 . S
H3516 C3524 0.929 . S
H3517 C3526 0.930 . S
H3518 C3528 0.930 . S
H3519 C3531 0.929 . S
H3520 C3534 0.930 . S
H3521 C3536 0.960 . S
H3522 C3536 0.960 . S
H3523 C3536 0.960 . S
C3524 H3516 0.929 . S
C3524 C3525 1.377 . S
C3524 C3526 1.384 . S
C3525 C3524 1.377 . S
C3525 C3531 1.390 . S
C3526 H3517 0.930 . S
C3526 C3524 1.384 . S
C3526 C3527 1.372 . S
C3527 C3526 1.372 . S
C3527 C3528 1.400 . S
C3527 C3532 1.490 . S
C3528 H3518 0.930 . S
C3528 C3527 1.400 . S
C3528 C3531 1.386 . S
H3529 C3545 0.930 . S
H3530 C3546 0.931 . S
C3531 H3519 0.929 . S
C3531 C3525 1.390 . S
C3531 C3528 1.386 . S
C3532 C3527 1.490 . S
C3532 C3534 1.395 . S
C3532 C3535 1.403 . S
H3533 C3539 0.930 . S
C3534 H3520 0.930 . S
C3534 C3532 1.395 . S
C3534 C3537 1.403 . S
C3535 C3532 1.403 . S
C3535 C3536 1.524 . S
C3535 C3539 1.400 . S
C3536 H3521 0.960 . S
C3536 H3522 0.960 . S
C3536 H3523 0.960 . S
C3536 C3535 1.524 . S
C3537 C3534 1.403 . S
C3537 C3538 1.392 . S
C3537 C3541 1.495 . S
C3538 C3537 1.392 . S
C3538 C3539 1.385 . S
C3538 C3540 1.478 . S
C3539 H3533 0.930 . S
C3539 C3535 1.400 . S
C3539 C3538 1.385 . S
C3540 C3538 1.478 . S
C3540 C3542 1.381 . S
C3540 C3546 1.383 . S
C3541 C3537 1.495 . S
C3541 H3547 0.959 . S
C3541 H3548 0.961 . S
C3541 H3549 0.960 . S
C3542 C3540 1.381 . S
C3542 C3543 1.394 . S
C3542 H3550 0.930 . S
C3543 C3542 1.394 . S
C3543 C3544 1.383 . S
C3543 H3551 0.929 . S
C3544 C3543 1.383 . S
C3544 C3545 1.377 . S
C3545 H3529 0.930 . S
C3545 C3544 1.377 . S
C3545 C3546 1.379 . S
C3546 H3530 0.931 . S
C3546 C3540 1.383 . S
C3546 C3545 1.379 . S
H3547 C3541 0.959 . S
H3548 C3541 0.961 . S
H3549 C3541 0.960 . S
H3550 C3542 0.930 . S
H3551 C3543 0.929 . S
H3552 C3560 0.929 . S
H3553 C3562 0.930 . S
H3554 C3564 0.930 . S
H3555 C3567 0.929 . S
H3556 C3570 0.930 . S
H3557 C3572 0.960 . S
H3558 C3572 0.960 . S
H3559 C3572 0.960 . S
C3560 H3552 0.929 . S
C3560 C3561 1.377 . S
C3560 C3562 1.384 . S
C3561 C3560 1.377 . S
C3561 C3567 1.390 . S
C3562 H3553 0.930 . S
C3562 C3560 1.384 . S
C3562 C3563 1.372 . S
C3563 C3562 1.372 . S
C3563 C3564 1.400 . S
C3563 C3568 1.490 . S
C3564 H3554 0.930 . S
C3564 C3563 1.400 . S
C3564 C3567 1.386 . S
H3565 C3581 0.930 . S
H3566 C3582 0.931 . S
C3567 H3555 0.929 . S
C3567 C3561 1.390 . S
C3567 C3564 1.386 . S
C3568 C3563 1.490 . S
C3568 C3570 1.395 . S
C3568 C3571 1.403 . S
H3569 C3575 0.930 . S
C3570 H3556 0.930 . S
C3570 C3568 1.395 . S
C3570 C3573 1.403 . S
C3571 C3568 1.403 . S
C3571 C3572 1.524 1_545 S
C3571 C3575 1.400 1_545 S
C3572 H3557 0.960 . S
C3572 H3558 0.960 . S
C3572 H3559 0.960 . S
C3572 C3571 1.524 1_565 S
C3573 C3570 1.403 . S
C3573 C3574 1.392 1_545 S
C3573 C3577 1.495 . S
C3574 C3573 1.392 1_565 S
C3574 C3575 1.385 . S
C3574 C3576 1.478 . S
C3575 H3569 0.930 . S
C3575 C3571 1.400 1_565 S
C3575 C3574 1.385 . S
C3576 C3574 1.478 . S
C3576 C3578 1.381 . S
C3576 C3582 1.383 . S
C3577 C3573 1.495 . S
C3577 H3583 0.959 . S
C3577 H3584 0.961 . S
C3577 H3585 0.960 . S
C3578 C3576 1.381 . S
C3578 C3579 1.394 . S
C3578 H3586 0.930 . S
C3579 C3578 1.394 . S
C3579 C3580 1.383 . S
C3579 H3587 0.929 . S
C3580 C3579 1.383 . S
C3580 C3581 1.377 . S
C3581 H3565 0.930 . S
C3581 C3580 1.377 . S
C3581 C3582 1.379 . S
C3582 H3566 0.931 . S
C3582 C3576 1.383 . S
C3582 C3581 1.379 . S
H3583 C3577 0.959 . S
H3584 C3577 0.961 . S
H3585 C3577 0.960 . S
H3586 C3578 0.930 . S
H3587 C3579 0.929 . S
H3588 C3596 0.929 . S
H3589 C3598 0.930 . S
H3590 C3600 0.930 . S
H3591 C3603 0.929 . S
H3592 C3606 0.930 . S
H3593 C3608 0.960 . S
H3594 C3608 0.960 . S
H3595 C3608 0.960 . S
C3596 H3588 0.929 . S
C3596 C3597 1.377 . S
C3596 C3598 1.384 . S
C3597 C3596 1.377 . S
C3597 C3603 1.390 . S
C3598 H3589 0.930 . S
C3598 C3596 1.384 . S
C3598 C3599 1.372 . S
C3599 C3598 1.372 . S
C3599 C3600 1.400 . S
C3599 C3604 1.490 . S
C3600 H3590 0.930 . S
C3600 C3599 1.400 . S
C3600 C3603 1.386 . S
H3601 C3617 0.930 . S
H3602 C3618 0.931 . S
C3603 H3591 0.929 . S
C3603 C3597 1.390 . S
C3603 C3600 1.386 . S
C3604 C3599 1.490 . S
C3604 C3606 1.395 . S
C3604 C3607 1.403 . S
H3605 C3611 0.930 . S
C3606 H3592 0.930 . S
C3606 C3604 1.395 . S
C3606 C3609 1.403 . S
C3607 C3604 1.403 . S
C3607 C3608 1.524 . S
C3607 C3611 1.400 . S
C3608 H3593 0.960 . S
C3608 H3594 0.960 . S
C3608 H3595 0.960 . S
C3608 C3607 1.524 . S
C3609 C3606 1.403 . S
C3609 C3610 1.392 . S
C3609 C3613 1.495 . S
C3610 C3609 1.392 . S
C3610 C3611 1.385 . S
C3610 C3612 1.478 . S
C3611 H3605 0.930 . S
C3611 C3607 1.400 . S
C3611 C3610 1.385 . S
C3612 C3610 1.478 . S
C3612 C3614 1.381 . S
C3612 C3618 1.383 . S
C3613 C3609 1.495 . S
C3613 H3619 0.959 . S
C3613 H3620 0.961 . S
C3613 H3621 0.960 . S
C3614 C3612 1.381 . S
C3614 C3615 1.394 . S
C3614 H3622 0.930 . S
C3615 C3614 1.394 . S
C3615 C3616 1.383 . S
C3615 H3623 0.929 . S
C3616 C3615 1.383 . S
C3616 C3617 1.377 . S
C3617 H3601 0.930 . S
C3617 C3616 1.377 . S
C3617 C3618 1.379 . S
C3618 H3602 0.931 . S
C3618 C3612 1.383 . S
C3618 C3617 1.379 . S
H3619 C3613 0.959 . S
H3620 C3613 0.961 . S
H3621 C3613 0.960 . S
H3622 C3614 0.930 . S
H3623 C3615 0.929 . S
H3624 C3632 0.929 . S
H3625 C3634 0.930 . S
H3626 C3636 0.930 . S
H3627 C3639 0.929 . S
H3628 C3642 0.930 . S
H3629 C3644 0.960 . S
H3630 C3644 0.960 . S
H3631 C3644 0.960 . S
C3632 H3624 0.929 . S
C3632 C3633 1.377 . S
C3632 C3634 1.384 . S
C3633 C3632 1.377 . S
C3633 C3639 1.390 . S
C3634 H3625 0.930 . S
C3634 C3632 1.384 . S
C3634 C3635 1.372 . S
C3635 C3634 1.372 . S
C3635 C3636 1.400 . S
C3635 C3640 1.490 . S
C3636 H3626 0.930 . S
C3636 C3635 1.400 . S
C3636 C3639 1.386 . S
H3637 C3653 0.930 . S
H3638 C3654 0.931 . S
C3639 H3627 0.929 . S
C3639 C3633 1.390 . S
C3639 C3636 1.386 . S
C3640 C3635 1.490 . S
C3640 C3642 1.395 . S
C3640 C3643 1.403 . S
H3641 C3647 0.930 . S
C3642 H3628 0.930 . S
C3642 C3640 1.395 . S
C3642 C3645 1.403 . S
C3643 C3640 1.403 . S
C3643 C3644 1.524 . S
C3643 C3647 1.400 . S
C3644 H3629 0.960 . S
C3644 H3630 0.960 . S
C3644 H3631 0.960 . S
C3644 C3643 1.524 . S
C3645 C3642 1.403 . S
C3645 C3646 1.392 . S
C3645 C3649 1.495 . S
C3646 C3645 1.392 . S
C3646 C3647 1.385 . S
C3646 C3648 1.478 . S
C3647 H3641 0.930 . S
C3647 C3643 1.400 . S
C3647 C3646 1.385 . S
C3648 C3646 1.478 . S
C3648 C3650 1.381 . S
C3648 C3654 1.383 . S
C3649 C3645 1.495 . S
C3649 H3655 0.959 . S
C3649 H3656 0.961 . S
C3649 H3657 0.960 . S
C3650 C3648 1.381 . S
C3650 C3651 1.394 . S
C3650 H3658 0.930 . S
C3651 C3650 1.394 . S
C3651 C3652 1.383 . S
C3651 H3659 0.929 . S
C3652 C3651 1.383 . S
C3652 C3653 1.377 . S
C3653 H3637 0.930 . S
C3653 C3652 1.377 . S
C3653 C3654 1.379 . S
C3654 H3638 0.931 . S
C3654 C3648 1.383 . S
C3654 C3653 1.379 . S
H3655 C3649 0.959 . S
H3656 C3649 0.961 . S
H3657 C3649 0.960 . S
H3658 C3650 0.930 . S
H3659 C3651 0.929 . S
H3660 C3668 0.929 . S
H3661 C3670 0.930 . S
H3662 C3672 0.930 . S
H3663 C3675 0.929 . S
H3664 C3678 0.930 . S
H3665 C3680 0.960 . S
H3666 C3680 0.960 . S
H3667 C3680 0.960 . S
C3668 H3660 0.929 . S
C3668 C3669 1.377 . S
C3668 C3670 1.384 . S
C3669 C3668 1.377 . S
C3669 C3675 1.390 . S
C3670 H3661 0.930 . S
C3670 C3668 1.384 . S
C3670 C3671 1.372 . S
C3671 C3670 1.372 . S
C3671 C3672 1.400 . S
C3671 C3676 1.490 . S
C3672 H3662 0.930 . S
C3672 C3671 1.400 . S
C3672 C3675 1.386 . S
H3673 C3689 0.930 . S
H3674 C3690 0.931 . S
C3675 H3663 0.929 . S
C3675 C3669 1.390 . S
C3675 C3672 1.386 . S
C3676 C3671 1.490 . S
C3676 C3678 1.395 1_655 S
C3676 C3679 1.403 . S
H3677 C3683 0.930 . S
C3678 H3664 0.930 . S
C3678 C3676 1.395 1_455 S
C3678 C3681 1.403 . S
C3679 C3676 1.403 . S
C3679 C3680 1.524 . S
C3679 C3683 1.400 1_655 S
C3680 H3665 0.960 . S
C3680 H3666 0.960 . S
C3680 H3667 0.960 . S
C3680 C3679 1.524 . S
C3681 C3678 1.403 . S
C3681 C3682 1.392 . S
C3681 C3685 1.495 . S
C3682 C3681 1.392 . S
C3682 C3683 1.385 . S
C3682 C3684 1.478 . S
C3683 H3677 0.930 . S
C3683 C3679 1.400 1_455 S
C3683 C3682 1.385 . S
C3684 C3682 1.478 . S
C3684 C3686 1.381 . S
C3684 C3690 1.383 . S
C3685 C3681 1.495 . S
C3685 H3691 0.959 . S
C3685 H3692 0.961 . S
C3685 H3693 0.960 . S
C3686 C3684 1.381 . S
C3686 C3687 1.394 . S
C3686 H3694 0.930 . S
C3687 C3686 1.394 . S
C3687 C3688 1.383 . S
C3687 H3695 0.929 . S
C3688 C3687 1.383 . S
C3688 C3689 1.377 . S
C3689 H3673 0.930 . S
C3689 C3688 1.377 . S
C3689 C3690 1.379 . S
C3690 H3674 0.931 . S
C3690 C3684 1.383 . S
C3690 C3689 1.379 . S
H3691 C3685 0.959 . S
H3692 C3685 0.961 . S
H3693 C3685 0.960 . S
H3694 C3686 0.930 . S
H3695 C3687 0.929 . S
H3696 C3704 0.929 . S
H3697 C3706 0.930 . S
H3698 C3708 0.930 . S
H3699 C3711 0.929 . S
H3700 C3714 0.930 . S
H3701 C3716 0.960 . S
H3702 C3716 0.960 . S
H3703 C3716 0.960 . S
C3704 H3696 0.929 . S
C3704 C3705 1.377 . S
C3704 C3706 1.384 . S
C3705 C3704 1.377 . S
C3705 C3711 1.390 . S
C3706 H3697 0.930 . S
C3706 C3704 1.384 . S
C3706 C3707 1.372 . S
C3707 C3706 1.372 . S
C3707 C3708 1.400 . S
C3707 C3712 1.490 . S
C3708 H3698 0.930 . S
C3708 C3707 1.400 . S
C3708 C3711 1.386 . S
H3709 C3725 0.930 . S
H3710 C3726 0.931 . S
C3711 H3699 0.929 . S
C3711 C3705 1.390 . S
C3711 C3708 1.386 . S
C3712 C3707 1.490 . S
C3712 C3714 1.395 . S
C3712 C3715 1.403 . S
H3713 C3719 0.930 . S
C3714 H3700 0.930 . S
C3714 C3712 1.395 . S
C3714 C3717 1.403 . S
C3715 C3712 1.403 . S
C3715 C3716 1.524 . S
C3715 C3719 1.400 . S
C3716 H3701 0.960 . S
C3716 H3702 0.960 . S
C3716 H3703 0.960 . S
C3716 C3715 1.524 . S
C3717 C3714 1.403 . S
C3717 C3718 1.392 . S
C3717 C3721 1.495 . S
C3718 C3717 1.392 . S
C3718 C3719 1.385 . S
C3718 C3720 1.478 . S
C3719 H3713 0.930 . S
C3719 C3715 1.400 . S
C3719 C3718 1.385 . S
C3720 C3718 1.478 . S
C3720 C3722 1.381 . S
C3720 C3726 1.383 . S
C3721 C3717 1.495 . S
C3721 H3727 0.959 . S
C3721 H3728 0.961 . S
C3721 H3729 0.960 . S
C3722 C3720 1.381 . S
C3722 C3723 1.394 . S
C3722 H3730 0.930 . S
C3723 C3722 1.394 . S
C3723 C3724 1.383 . S
C3723 H3731 0.929 . S
C3724 C3723 1.383 . S
C3724 C3725 1.377 . S
C3725 H3709 0.930 . S
C3725 C3724 1.377 . S
C3725 C3726 1.379 . S
C3726 H3710 0.931 . S
C3726 C3720 1.383 . S
C3726 C3725 1.379 . S
H3727 C3721 0.959 . S
H3728 C3721 0.961 . S
H3729 C3721 0.960 . S
H3730 C3722 0.930 . S
H3731 C3723 0.929 . S
H3732 C3740 0.929 . S
H3733 C3742 0.930 . S
H3734 C3744 0.930 . S
H3735 C3747 0.929 . S
H3736 C3750 0.930 . S
H3737 C3752 0.960 . S
H3738 C3752 0.960 . S
H3739 C3752 0.960 . S
C3740 H3732 0.929 . S
C3740 C3741 1.377 . S
C3740 C3742 1.384 . S
C3741 C3740 1.377 . S
C3741 C3747 1.390 . S
C3742 H3733 0.930 . S
C3742 C3740 1.384 . S
C3742 C3743 1.372 . S
C3743 C3742 1.372 . S
C3743 C3744 1.400 . S
C3743 C3748 1.490 . S
C3744 H3734 0.930 . S
C3744 C3743 1.400 . S
C3744 C3747 1.386 . S
H3745 C3761 0.930 . S
H3746 C3762 0.931 . S
C3747 H3735 0.929 . S
C3747 C3741 1.390 . S
C3747 C3744 1.386 . S
C3748 C3743 1.490 . S
C3748 C3750 1.395 . S
C3748 C3751 1.403 1_655 S
H3749 C3755 0.930 . S
C3750 H3736 0.930 . S
C3750 C3748 1.395 . S
C3750 C3753 1.446 . S
C3751 C3748 1.403 1_455 S
C3751 C3752 1.524 . S
C3751 C3755 1.400 . S
C3752 H3737 0.960 . S
C3752 H3738 0.960 . S
C3752 H3739 0.960 . S
C3752 C3751 1.524 . S
C3753 C3750 1.446 . S
C3753 C3754 1.326 1_655 S
C3753 C3757 1.522 . S
C3754 C3753 1.326 1_455 S
C3754 C3755 1.385 . S
C3754 C3756 1.478 . S
C3755 H3749 0.930 . S
C3755 C3751 1.400 . S
C3755 C3754 1.385 . S
C3756 C3754 1.478 . S
C3756 C3758 1.381 . S
C3756 C3762 1.383 . S
C3757 C3753 1.522 . S
C3757 H3763 0.959 . S
C3757 H3764 0.961 . S
C3757 H3765 0.960 . S
C3758 C3756 1.381 . S
C3758 C3759 1.394 . S
C3758 H3766 0.930 . S
C3759 C3758 1.394 . S
C3759 C3760 1.383 . S
C3759 H3767 0.929 . S
C3760 C3759 1.383 . S
C3760 C3761 1.377 . S
C3761 H3745 0.930 . S
C3761 C3760 1.377 . S
C3761 C3762 1.379 . S
C3762 H3746 0.931 . S
C3762 C3756 1.383 . S
C3762 C3761 1.379 . S
H3763 C3757 0.959 . S
H3764 C3757 0.961 . S
H3765 C3757 0.960 . S
H3766 C3758 0.930 . S
H3767 C3759 0.929 . S
H3768 C3776 0.929 . S
H3769 C3778 0.930 . S
H3770 C3780 0.930 . S
H3771 C3783 0.929 . S
H3772 C3786 0.930 . S
H3773 C3788 0.960 . S
H3774 C3788 0.960 . S
H3775 C3788 0.960 . S
C3776 H3768 0.929 . S
C3776 C3777 1.377 . S
C3776 C3778 1.384 . S
C3777 C3776 1.377 . S
C3777 C3783 1.390 . S
C3778 H3769 0.930 . S
C3778 C3776 1.384 . S
C3778 C3779 1.372 . S
C3779 C3778 1.372 . S
C3779 C3780 1.400 . S
C3779 C3784 1.490 . S
C3780 H3770 0.930 . S
C3780 C3779 1.400 . S
C3780 C3783 1.386 . S
H3781 C3797 0.930 . S
H3782 C3798 0.931 . S
C3783 H3771 0.929 . S
C3783 C3777 1.390 . S
C3783 C3780 1.386 . S
C3784 C3779 1.490 . S
C3784 C3786 1.395 1_565 S
C3784 C3787 1.403 . S
H3785 C3791 0.930 . S
C3786 H3772 0.930 . S
C3786 C3784 1.395 1_545 S
C3786 C3789 1.403 . S
C3787 C3784 1.403 . S
C3787 C3788 1.524 . S
C3787 C3791 1.400 1_565 S
C3788 H3773 0.960 . S
C3788 H3774 0.960 . S
C3788 H3775 0.960 . S
C3788 C3787 1.524 . S
C3789 C3786 1.403 . S
C3789 C3790 1.392 . S
C3789 C3793 1.495 . S
C3790 C3789 1.392 . S
C3790 C3791 1.385 . S
C3790 C3792 1.478 . S
C3791 H3785 0.930 . S
C3791 C3787 1.400 1_545 S
C3791 C3790 1.385 . S
C3792 C3790 1.478 . S
C3792 C3794 1.381 . S
C3792 C3798 1.383 . S
C3793 C3789 1.495 . S
C3793 H3799 0.959 . S
C3793 H3800 0.961 . S
C3793 H3801 0.960 . S
C3794 C3792 1.381 . S
C3794 C3795 1.394 . S
C3794 H3802 0.930 . S
C3795 C3794 1.394 . S
C3795 C3796 1.383 . S
C3795 H3803 0.929 . S
C3796 C3795 1.383 . S
C3796 C3797 1.377 . S
C3797 H3781 0.930 . S
C3797 C3796 1.377 . S
C3797 C3798 1.379 . S
C3798 H3782 0.931 . S
C3798 C3792 1.383 . S
C3798 C3797 1.379 . S
H3799 C3793 0.959 . S
H3800 C3793 0.961 . S
H3801 C3793 0.960 . S
H3802 C3794 0.930 . S
H3803 C3795 0.929 . S
H3804 C3812 0.929 . S
H3805 C3814 0.930 . S
H3806 C3816 0.930 . S
H3807 C3819 0.929 . S
H3808 C3822 0.930 . S
H3809 C3824 0.960 . S
H3810 C3824 0.960 . S
H3811 C3824 0.960 . S
C3812 H3804 0.929 . S
C3812 C3813 1.377 . S
C3812 C3814 1.384 . S
C3813 C3812 1.377 . S
C3813 C3819 1.390 . S
C3814 H3805 0.930 . S
C3814 C3812 1.384 . S
C3814 C3815 1.372 . S
C3815 C3814 1.372 . S
C3815 C3816 1.400 . S
C3815 C3820 1.490 . S
C3816 H3806 0.930 . S
C3816 C3815 1.400 . S
C3816 C3819 1.386 . S
H3817 C3833 0.930 . S
H3818 C3834 0.931 . S
C3819 H3807 0.929 . S
C3819 C3813 1.390 . S
C3819 C3816 1.386 . S
C3820 C3815 1.490 . S
C3820 C3822 1.395 . S
C3820 C3823 1.403 . S
H3821 C3827 0.930 . S
C3822 H3808 0.930 . S
C3822 C3820 1.395 . S
C3822 C3825 1.403 . S
C3823 C3820 1.403 . S
C3823 C3824 1.524 . S
C3823 C3827 1.400 . S
C3824 H3809 0.960 . S
C3824 H3810 0.960 . S
C3824 H3811 0.960 . S
C3824 C3823 1.524 . S
C3825 C3822 1.403 . S
C3825 C3826 1.392 . S
C3825 C3829 1.495 . S
C3826 C3825 1.392 . S
C3826 C3827 1.385 . S
C3826 C3828 1.478 . S
C3827 H3821 0.930 . S
C3827 C3823 1.400 . S
C3827 C3826 1.385 . S
C3828 C3826 1.478 . S
C3828 C3830 1.381 . S
C3828 C3834 1.383 . S
C3829 C3825 1.495 . S
C3829 H3835 0.959 . S
C3829 H3836 0.961 . S
C3829 H3837 0.960 . S
C3830 C3828 1.381 . S
C3830 C3831 1.394 . S
C3830 H3838 0.930 . S
C3831 C3830 1.394 . S
C3831 C3832 1.383 . S
C3831 H3839 0.929 . S
C3832 C3831 1.383 . S
C3832 C3833 1.377 . S
C3833 H3817 0.930 . S
C3833 C3832 1.377 . S
C3833 C3834 1.379 . S
C3834 H3818 0.931 . S
C3834 C3828 1.383 . S
C3834 C3833 1.379 . S
H3835 C3829 0.959 . S
H3836 C3829 0.961 . S
H3837 C3829 0.960 . S
H3838 C3830 0.930 . S
H3839 C3831 0.929 . S
H3840 C3848 0.929 . S
H3841 C3850 0.930 . S
H3842 C3852 0.930 . S
H3843 C3855 0.929 . S
H3844 C3858 0.930 . S
H3845 C3860 0.960 . S
H3846 C3860 0.928 1_554 S
H3847 C3860 0.960 . S
C3848 H3840 0.929 . S
C3848 C3849 1.377 . S
C3848 C3850 1.384 . S
C3849 C3848 1.377 . S
C3849 C3855 1.390 . S
C3850 H3841 0.930 . S
C3850 C3848 1.384 . S
C3850 C3851 1.372 . S
C3851 C3850 1.372 . S
C3851 C3852 1.400 . S
C3851 C3856 1.490 . S
C3852 H3842 0.930 . S
C3852 C3851 1.400 . S
C3852 C3855 1.386 . S
H3853 C3869 0.930 . S
H3854 C3870 0.931 . S
C3855 H3843 0.929 . S
C3855 C3849 1.390 . S
C3855 C3852 1.386 . S
C3856 C3851 1.490 . S
C3856 C3858 1.395 . S
C3856 C3859 1.403 . S
H3857 C3863 0.930 . S
C3858 H3844 0.930 . S
C3858 C3856 1.395 . S
C3858 C3861 1.403 . S
C3859 C3856 1.403 . S
C3859 C3860 1.524 1_554 S
C3859 C3863 1.400 1_554 S
C3860 H3845 0.960 . S
C3860 H3846 0.928 1_556 S
C3860 H3847 0.960 . S
C3860 C3859 1.524 1_556 S
C3861 C3858 1.403 . S
C3861 C3862 1.392 1_554 S
C3861 C3865 1.495 . S
C3862 C3861 1.392 1_556 S
C3862 C3863 1.385 . S
C3862 C3864 1.478 . S
C3863 H3857 0.930 . S
C3863 C3859 1.400 1_556 S
C3863 C3862 1.385 . S
C3864 C3862 1.478 . S
C3864 C3866 1.381 . S
C3864 C3870 1.383 . S
C3865 C3861 1.495 . S
C3865 H3871 0.959 . S
C3865 H3872 0.961 . S
C3865 H3873 0.960 . S
C3866 C3864 1.381 . S
C3866 C3867 1.394 . S
C3866 H3874 0.930 . S
C3867 C3866 1.394 . S
C3867 C3868 1.383 . S
C3867 H3875 0.929 . S
C3868 C3867 1.383 . S
C3868 C3869 1.377 . S
C3869 H3853 0.930 . S
C3869 C3868 1.377 . S
C3869 C3870 1.379 . S
C3870 H3854 0.931 . S
C3870 C3864 1.383 . S
C3870 C3869 1.379 . S
H3871 C3865 0.959 . S
H3872 C3865 0.961 . S
H3873 C3865 0.960 . S
H3874 C3866 0.930 . S
H3875 C3867 0.929 . S
H3876 C3884 0.929 . S
H3877 C3886 0.930 . S
H3878 C3888 0.930 . S
H3879 C3891 0.929 . S
H3880 C3894 0.930 . S
H3881 C3896 0.960 . S
H3882 C3896 0.960 . S
H3883 C3896 0.960 . S
C3884 H3876 0.929 . S
C3884 C3885 1.377 . S
C3884 C3886 1.384 . S
C3885 C3884 1.377 . S
C3885 C3891 1.390 . S
C3886 H3877 0.930 . S
C3886 C3884 1.384 . S
C3886 C3887 1.372 . S
C3887 C3886 1.372 . S
C3887 C3888 1.400 . S
C3887 C3892 1.490 . S
C3888 H3878 0.930 . S
C3888 C3887 1.400 . S
C3888 C3891 1.386 . S
H3889 C3905 0.930 . S
H3890 C3906 0.931 . S
C3891 H3879 0.929 . S
C3891 C3885 1.390 . S
C3891 C3888 1.386 . S
C3892 C3887 1.490 . S
C3892 C3894 1.395 . S
C3892 C3895 1.403 . S
H3893 C3899 0.930 . S
C3894 H3880 0.930 . S
C3894 C3892 1.395 . S
C3894 C3897 1.403 . S
C3895 C3892 1.403 . S
C3895 C3896 1.524 . S
C3895 C3899 1.400 . S
C3896 H3881 0.960 . S
C3896 H3882 0.960 . S
C3896 H3883 0.960 . S
C3896 C3895 1.524 . S
C3897 C3894 1.403 . S
C3897 C3898 1.392 . S
C3897 C3901 1.495 . S
C3898 C3897 1.392 . S
C3898 C3899 1.385 . S
C3898 C3900 1.478 . S
C3899 H3893 0.930 . S
C3899 C3895 1.400 . S
C3899 C3898 1.385 . S
C3900 C3898 1.478 . S
C3900 C3902 1.381 . S
C3900 C3906 1.383 . S
C3901 C3897 1.495 . S
C3901 H3907 0.959 . S
C3901 H3908 0.961 . S
C3901 H3909 0.960 . S
C3902 C3900 1.381 . S
C3902 C3903 1.394 . S
C3902 H3910 0.930 . S
C3903 C3902 1.394 . S
C3903 C3904 1.383 . S
C3903 H3911 0.929 . S
C3904 C3903 1.383 . S
C3904 C3905 1.377 . S
C3905 H3889 0.930 . S
C3905 C3904 1.377 . S
C3905 C3906 1.379 . S
C3906 H3890 0.931 . S
C3906 C3900 1.383 . S
C3906 C3905 1.379 . S
H3907 C3901 0.959 . S
H3908 C3901 0.961 . S
H3909 C3901 0.960 . S
H3910 C3902 0.930 . S
H3911 C3903 0.929 . S
H3912 C3920 0.929 . S
H3913 C3922 0.930 . S
H3914 C3924 0.930 . S
H3915 C3927 0.929 . S
H3916 C3930 0.930 . S
H3917 C3932 0.960 . S
H3918 C3932 0.960 . S
H3919 C3932 0.960 . S
C3920 H3912 0.929 . S
C3920 C3921 1.377 . S
C3920 C3922 1.384 . S
C3921 C3920 1.377 . S
C3921 C3927 1.390 . S
C3922 H3913 0.930 . S
C3922 C3920 1.384 . S
C3922 C3923 1.372 . S
C3923 C3922 1.372 . S
C3923 C3924 1.400 . S
C3923 C3928 1.490 . S
C3924 H3914 0.930 . S
C3924 C3923 1.400 . S
C3924 C3927 1.386 . S
H3925 C3941 0.930 . S
H3926 C3942 0.931 . S
C3927 H3915 0.929 . S
C3927 C3921 1.390 . S
C3927 C3924 1.386 . S
C3928 C3923 1.490 . S
C3928 C3930 1.395 . S
C3928 C3931 1.403 . S
H3929 C3935 0.930 . S
C3930 H3916 0.930 . S
C3930 C3928 1.395 . S
C3930 C3933 1.403 . S
C3931 C3928 1.403 . S
C3931 C3932 1.524 . S
C3931 C3935 1.400 . S
C3932 H3917 0.960 . S
C3932 H3918 0.960 . S
C3932 H3919 0.960 . S
C3932 C3931 1.524 . S
C3933 C3930 1.403 . S
C3933 C3934 1.392 . S
C3933 C3937 1.495 . S
C3934 C3933 1.392 . S
C3934 C3935 1.385 . S
C3934 C3936 1.478 . S
C3935 H3929 0.930 . S
C3935 C3931 1.400 . S
C3935 C3934 1.385 . S
C3936 C3934 1.478 . S
C3936 C3938 1.381 . S
C3936 C3942 1.383 . S
C3937 C3933 1.495 . S
C3937 H3943 0.959 . S
C3937 H3944 0.961 . S
C3937 H3945 0.960 . S
C3938 C3936 1.381 . S
C3938 C3939 1.394 . S
C3938 H3946 0.930 . S
C3939 C3938 1.394 . S
C3939 C3940 1.383 . S
C3939 H3947 0.929 . S
C3940 C3939 1.383 . S
C3940 C3941 1.377 . S
C3941 H3925 0.930 . S
C3941 C3940 1.377 . S
C3941 C3942 1.379 . S
C3942 H3926 0.931 . S
C3942 C3936 1.383 . S
C3942 C3941 1.379 . S
H3943 C3937 0.959 . S
H3944 C3937 0.961 . S
H3945 C3937 0.960 . S
H3946 C3938 0.930 . S
H3947 C3939 0.929 . S
H3948 C3956 0.929 . S
H3949 C3958 0.930 . S
H3950 C3960 0.930 . S
H3951 C3963 0.929 . S
H3952 C3966 0.930 . S
H3953 C3968 0.960 . S
H3954 C3968 0.960 . S
H3955 C3968 0.960 . S
C3956 H3948 0.929 . S
C3956 C3957 1.377 . S
C3956 C3958 1.384 . S
C3957 C3956 1.377 . S
C3957 C3963 1.390 . S
C3958 H3949 0.930 . S
C3958 C3956 1.384 . S
C3958 C3959 1.372 . S
C3959 C3958 1.372 . S
C3959 C3960 1.400 . S
C3959 C3964 1.490 . S
C3960 H3950 0.930 . S
C3960 C3959 1.400 . S
C3960 C3963 1.386 . S
H3961 C3977 0.930 . S
H3962 C3978 0.931 . S
C3963 H3951 0.929 . S
C3963 C3957 1.390 . S
C3963 C3960 1.386 . S
C3964 C3959 1.490 . S
C3964 C3966 1.395 . S
C3964 C3967 1.403 . S
H3965 C3971 0.930 . S
C3966 H3952 0.930 . S
C3966 C3964 1.395 . S
C3966 C3969 1.403 . S
C3967 C3964 1.403 . S
C3967 C3968 1.524 . S
C3967 C3971 1.400 . S
C3968 H3953 0.960 . S
C3968 H3954 0.960 . S
C3968 H3955 0.960 . S
C3968 C3967 1.524 . S
C3969 C3966 1.403 . S
C3969 C3970 1.392 . S
C3969 C3973 1.495 . S
C3970 C3969 1.392 . S
C3970 C3971 1.385 . S
C3970 C3972 1.478 . S
C3971 H3965 0.930 . S
C3971 C3967 1.400 . S
C3971 C3970 1.385 . S
C3972 C3970 1.478 . S
C3972 C3974 1.381 . S
C3972 C3978 1.383 . S
C3973 C3969 1.495 . S
C3973 H3979 0.959 . S
C3973 H3980 0.961 . S
C3973 H3981 0.960 . S
C3974 C3972 1.381 . S
C3974 C3975 1.394 . S
C3974 H3982 0.930 . S
C3975 C3974 1.394 . S
C3975 C3976 1.383 . S
C3975 H3983 0.929 . S
C3976 C3975 1.383 . S
C3976 C3977 1.377 . S
C3977 H3961 0.930 . S
C3977 C3976 1.377 . S
C3977 C3978 1.379 . S
C3978 H3962 0.931 . S
C3978 C3972 1.383 . S
C3978 C3977 1.379 . S
H3979 C3973 0.959 . S
H3980 C3973 0.961 . S
H3981 C3973 0.960 . S
H3982 C3974 0.930 . S
H3983 C3975 0.929 . S
H3984 C3992 0.929 . S
H3985 C3994 0.930 . S
H3986 C3996 0.930 . S
H3987 C3999 0.929 . S
H3988 C4002 0.930 . S
H3989 C4004 0.960 . S
H3990 C4004 0.960 . S
H3991 C4004 0.960 . S
C3992 H3984 0.929 . S
C3992 C3993 1.377 . S
C3992 C3994 1.384 . S
C3993 C3992 1.377 . S
C3993 C3999 1.390 . S
C3994 H3985 0.930 . S
C3994 C3992 1.384 . S
C3994 C3995 1.372 . S
C3995 C3994 1.372 . S
C3995 C3996 1.400 . S
C3995 C4000 1.490 . S
C3996 H3986 0.930 . S
C3996 C3995 1.400 . S
C3996 C3999 1.386 . S
H3997 C4013 0.930 . S
H3998 C4014 0.931 . S
C3999 H3987 0.929 . S
C3999 C3993 1.390 . S
C3999 C3996 1.386 . S
C4000 C3995 1.490 . S
C4000 C4002 1.395 . S
C4000 C4003 1.403 . S
H4001 C4007 0.930 . S
C4002 H3988 0.930 . S
C4002 C4000 1.395 . S
C4002 C4005 1.403 . S
C4003 C4000 1.403 . S
C4003 C4004 1.524 . S
C4003 C4007 1.400 . S
C4004 H3989 0.960 . S
C4004 H3990 0.960 . S
C4004 H3991 0.960 . S
C4004 C4003 1.524 . S
C4005 C4002 1.403 . S
C4005 C4006 1.392 . S
C4005 C4009 1.495 . S
C4006 C4005 1.392 . S
C4006 C4007 1.385 . S
C4006 C4008 1.478 . S
C4007 H4001 0.930 . S
C4007 C4003 1.400 . S
C4007 C4006 1.385 . S
C4008 C4006 1.478 . S
C4008 C4010 1.381 . S
C4008 C4014 1.383 . S
C4009 C4005 1.495 . S
C4009 H4015 0.959 . S
C4009 H4016 0.961 . S
C4009 H4017 0.960 . S
C4010 C4008 1.381 . S
C4010 C4011 1.394 . S
C4010 H4018 0.930 . S
C4011 C4010 1.394 . S
C4011 C4012 1.383 . S
C4011 H4019 0.929 . S
C4012 C4011 1.383 . S
C4012 C4013 1.377 . S
C4013 H3997 0.930 . S
C4013 C4012 1.377 . S
C4013 C4014 1.379 . S
C4014 H3998 0.931 . S
C4014 C4008 1.383 . S
C4014 C4013 1.379 . S
H4015 C4009 0.959 . S
H4016 C4009 0.961 . S
H4017 C4009 0.960 . S
H4018 C4010 0.930 . S
H4019 C4011 0.929 . S
H4020 C4028 0.929 . S
H4021 C4030 0.930 . S
H4022 C4032 0.930 . S
H4023 C4035 0.929 . S
H4024 C4038 0.920 1_556 S
H4025 C4040 0.960 . S
H4026 C4040 0.960 . S
H4027 C4040 0.960 . S
C4028 H4020 0.929 . S
C4028 C4029 1.377 . S
C4028 C4030 1.384 . S
C4029 C4028 1.377 . S
C4029 C4035 1.390 . S
C4030 H4021 0.930 . S
C4030 C4028 1.384 . S
C4030 C4031 1.372 . S
C4031 C4030 1.372 . S
C4031 C4032 1.400 . S
C4031 C4036 1.490 . S
C4032 H4022 0.930 . S
C4032 C4031 1.400 . S
C4032 C4035 1.386 . S
H4033 C4049 0.930 . S
H4034 C4050 0.931 . S
C4035 H4023 0.929 . S
C4035 C4029 1.390 . S
C4035 C4032 1.386 . S
C4036 C4031 1.490 . S
C4036 C4038 1.445 . S
C4036 C4039 1.403 . S
H4037 C4043 0.930 . S
C4038 H4024 0.920 1_554 S
C4038 C4036 1.445 . S
C4038 C4041 1.364 1_554 S
C4039 C4036 1.403 . S
C4039 C4040 1.524 . S
C4039 C4043 1.400 . S
C4040 H4025 0.960 . S
C4040 H4026 0.960 . S
C4040 H4027 0.960 . S
C4040 C4039 1.524 . S
C4041 C4038 1.364 1_556 S
C4041 C4042 1.392 . S
C4041 C4045 1.495 . S
C4042 C4041 1.392 . S
C4042 C4043 1.385 1_556 S
C4042 C4044 1.478 . S
C4043 H4037 0.930 . S
C4043 C4039 1.400 . S
C4043 C4042 1.385 1_554 S
C4044 C4042 1.478 . S
C4044 C4046 1.381 . S
C4044 C4050 1.383 . S
C4045 C4041 1.495 . S
C4045 H4051 0.959 . S
C4045 H4052 0.961 . S
C4045 H4053 0.960 . S
C4046 C4044 1.381 . S
C4046 C4047 1.394 . S
C4046 H4054 0.930 . S
C4047 C4046 1.394 . S
C4047 C4048 1.383 . S
C4047 H4055 0.929 . S
C4048 C4047 1.383 . S
C4048 C4049 1.377 . S
C4049 H4033 0.930 . S
C4049 C4048 1.377 . S
C4049 C4050 1.379 . S
C4050 H4034 0.931 . S
C4050 C4044 1.383 . S
C4050 C4049 1.379 . S
H4051 C4045 0.959 . S
H4052 C4045 0.961 . S
H4053 C4045 0.960 . S
H4054 C4046 0.930 . S
H4055 C4047 0.929 . S
H4056 C4064 0.929 . S
H4057 C4066 0.930 . S
H4058 C4068 0.930 . S
H4059 C4071 0.929 . S
H4060 C4074 0.930 . S
H4061 C4076 0.960 . S
H4062 C4076 0.960 . S
H4063 C4076 0.960 1_556 S
C4064 H4056 0.929 . S
C4064 C4065 1.377 . S
C4064 C4066 1.384 . S
C4065 C4064 1.377 . S
C4065 C4071 1.390 . S
C4066 H4057 0.930 . S
C4066 C4064 1.384 . S
C4066 C4067 1.372 . S
C4067 C4066 1.372 . S
C4067 C4068 1.400 . S
C4067 C4072 1.490 . S
C4068 H4058 0.930 . S
C4068 C4067 1.400 . S
C4068 C4071 1.386 . S
H4069 C4085 0.930 . S
H4070 C4086 0.931 . S
C4071 H4059 0.929 . S
C4071 C4065 1.390 . S
C4071 C4068 1.386 . S
C4072 C4067 1.490 . S
C4072 C4074 1.395 . S
C4072 C4075 1.403 1_556 S
H4073 C4079 0.930 . S
C4074 H4060 0.930 . S
C4074 C4072 1.395 . S
C4074 C4077 1.403 1_556 S
C4075 C4072 1.403 1_554 S
C4075 C4076 1.524 . S
C4075 C4079 1.400 . S
C4076 H4061 0.960 . S
C4076 H4062 0.960 . S
C4076 H4063 0.960 1_554 S
C4076 C4075 1.524 . S
C4077 C4074 1.403 1_554 S
C4077 C4078 1.392 . S
C4077 C4081 1.495 . S
C4078 C4077 1.392 . S
C4078 C4079 1.385 . S
C4078 C4080 1.478 . S
C4079 H4073 0.930 . S
C4079 C4075 1.400 . S
C4079 C4078 1.385 . S
C4080 C4078 1.478 . S
C4080 C4082 1.381 . S
C4080 C4086 1.383 . S
C4081 C4077 1.495 . S
C4081 H4087 0.956 . S
C4081 H4088 0.961 . S
C4081 H4089 0.960 . S
C4082 C4080 1.381 . S
C4082 C4083 1.394 . S
C4082 H4090 0.930 . S
C4083 C4082 1.394 . S
C4083 C4084 1.383 . S
C4083 H4091 0.929 . S
C4084 C4083 1.383 . S
C4084 C4085 1.377 . S
C4085 H4069 0.930 . S
C4085 C4084 1.377 . S
C4085 C4086 1.379 . S
C4086 H4070 0.931 . S
C4086 C4080 1.383 . S
C4086 C4085 1.379 . S
H4087 C4081 0.956 . S
H4088 C4081 0.961 . S
H4089 C4081 0.960 . S
H4090 C4082 0.930 . S
H4091 C4083 0.929 . S
H4092 C4100 0.929 . S
H4093 C4102 0.930 . S
H4094 C4104 0.930 . S
H4095 C4107 0.929 . S
H4096 C4110 0.930 . S
H4097 C4112 0.960 . S
H4098 C4112 0.960 1_554 S
H4099 C4112 0.960 . S
C4100 H4092 0.929 . S
C4100 C4101 1.377 . S
C4100 C4102 1.384 . S
C4101 C4100 1.377 . S
C4101 C4107 1.390 . S
C4102 H4093 0.930 . S
C4102 C4100 1.384 . S
C4102 C4103 1.372 . S
C4103 C4102 1.372 . S
C4103 C4104 1.400 . S
C4103 C4108 1.490 . S
C4104 H4094 0.930 . S
C4104 C4103 1.400 . S
C4104 C4107 1.386 . S
H4105 C4121 0.930 . S
H4106 C4122 0.931 . S
C4107 H4095 0.929 . S
C4107 C4101 1.390 . S
C4107 C4104 1.386 . S
C4108 C4103 1.490 . S
C4108 C4110 1.395 . S
C4108 C4111 1.403 . S
H4109 C4115 0.930 . S
C4110 H4096 0.930 . S
C4110 C4108 1.395 . S
C4110 C4113 1.403 . S
C4111 C4108 1.403 . S
C4111 C4112 1.524 1_554 S
C4111 C4115 1.400 1_554 S
C4112 H4097 0.960 . S
C4112 H4098 0.960 1_556 S
C4112 H4099 0.960 . S
C4112 C4111 1.524 1_556 S
C4113 C4110 1.403 . S
C4113 C4114 1.392 1_554 S
C4113 C4117 1.495 . S
C4114 C4113 1.392 1_556 S
C4114 C4115 1.385 . S
C4114 C4116 1.478 . S
C4115 H4109 0.930 . S
C4115 C4111 1.400 1_556 S
C4115 C4114 1.385 . S
C4116 C4114 1.478 . S
C4116 C4118 1.381 . S
C4116 C4122 1.383 . S
C4117 C4113 1.495 . S
C4117 H4123 0.959 . S
C4117 H4124 0.961 . S
C4117 H4125 0.960 . S
C4118 C4116 1.381 . S
C4118 C4119 1.394 . S
C4118 H4126 0.930 . S
C4119 C4118 1.394 . S
C4119 C4120 1.383 . S
C4119 H4127 0.929 . S
C4120 C4119 1.383 . S
C4120 C4121 1.377 . S
C4121 H4105 0.930 . S
C4121 C4120 1.377 . S
C4121 C4122 1.379 . S
C4122 H4106 0.931 . S
C4122 C4116 1.383 . S
C4122 C4121 1.379 . S
H4123 C4117 0.959 . S
H4124 C4117 0.961 . S
H4125 C4117 0.960 . S
H4126 C4118 0.930 . S
H4127 C4119 0.929 . S
C681 C4 0.658 . S
C700 C32 0.566 . S
C717 C18 0.648 . S
C736 C46 0.704 . S
C753 C60 0.660 . S
C772 C88 0.626 . S
C789 C74 0.659 . S
C808 C102 0.586 . S
C825 C116 0.656 . S
C844 C172 0.662 . S
C861 C130 0.658 . S
C880 C186 0.565 . S
C897 C144 0.631 . S
C916 C200 0.739 . S
C933 C158 0.620 . S
C952 C214 0.709 . S
C969 C270 0.654 . S
C988 C228 0.669 . S
C1005 C242 0.621 . S
C1024 C298 0.675 . S
C1041 C312 0.621 . S
C1060 C256 0.674 . S
C1077 C284 0.635 . S
C1096 C326 0.580 . S
C1113 C340 0.625 . S
C1132 C368 0.639 . S
C1149 C382 0.625 . S
C1168 C354 0.629 . S
C1185 C396 0.623 . S
C1204 C424 0.719 . S
C1221 C438 0.642 . S
C1240 C410 0.728 . S
C1257 C452 0.649 . S
C1276 C508 0.550 . S
C1293 C466 0.635 . S
C1312 C522 0.736 . S
C1329 C480 0.631 . S
C1348 C536 0.738 . S
C1365 C494 0.622 . S
C1384 C550 0.653 . S
C1401 C606 0.660 . S
C1420 C564 0.637 . S
C1437 C578 0.633 . S
C1456 C634 0.580 . S
C1473 C592 0.644 . S
C1492 C648 0.553 . S
C1509 C620 0.661 . S
C1528 C662 0.617 . S
C1545 C5 1.115 . S
C1564 C131 1.159 1_455 S
C1581 C19 1.123 . S
C1600 C145 1.057 1_545 S
C1617 C159 1.109 . S
C1636 C33 1.171 1_455 S
C1653 C117 1.123 . S
C1672 C47 1.059 1_545 S
C1689 C61 1.125 . S
C1708 C215 1.068 1_455 S
C1725 C75 1.118 . S
C1744 C173 1.057 1_545 S
C1761 C187 1.125 . S
C1780 C89 1.069 1_455 S
C1797 C201 1.120 . S
C1816 C103 1.053 1_545 S
C1833 C229 1.122 . S
C1852 C257 1.056 1_554 S
C1869 C243 1.101 1_554 S
C1888 C313 1.109 . S
C1905 C271 1.116 1_554 S
C1924 C327 1.060 . S
C1941 C299 1.119 . S
C1960 C285 1.145 1_554 S
C1977 C467 1.120 . S
C1996 C341 1.183 . S
C2013 C481 1.126 . S
C2032 C355 1.079 . S
C2049 C369 1.114 . S
C2068 C495 1.178 . S
C2085 C453 1.137 . S
C2104 C383 1.076 . S
C2121 C551 1.122 . S
C2140 C397 1.095 . S
C2157 C411 1.138 . S
C2176 C509 1.103 . S
C2193 C523 1.139 . S
C2212 C425 1.112 . S
C2229 C439 1.115 . S
C2248 C537 1.174 . S
C2265 C593 1.117 . S
C2284 C565 1.181 . S
C2301 C649 1.135 . S
C2320 C579 1.065 . S
C2337 C663 1.125 . S
C2356 C607 1.074 . S
C2373 C621 1.119 . S
C2392 C635 1.108 . S
C2409 C12 0.609 . S
C2428 C446 0.279 . S
C2445 C404 0.290 . S
C2464 C26 0.523 . S
C2481 C40 0.613 . S
C2500 C418 0.264 . S
C2517 C432 0.273 . S
C2536 C54 0.646 . S
C2553 C362 0.296 . S
C2572 C68 0.577 . S
C2589 C82 0.642 . S
C2608 C376 0.252 . S
C2625 C390 0.278 . S
C2644 C96 0.573 . S
C2661 C348 0.293 . S
C2680 C110 0.523 . S
C2697 C124 0.606 . S
C2716 C628 0.291 . S
C2733 C586 0.296 . S
C2752 C138 0.532 . S
C2769 C600 0.270 . S
C2788 C152 0.662 . S
C2805 C166 0.607 . S
C2824 C614 0.288 . S
C2841 C180 0.601 . S
C2860 C670 0.320 . S
C2877 C194 0.603 . S
C2896 C642 0.300 . S
C2913 C656 0.272 . S
C2932 C208 0.712 . S
C2949 C222 0.601 . S
C2968 C572 0.324 . S
C2985 C236 0.603 . S
C3004 C558 0.303 . S
C3021 C250 0.640 . S
C3040 C474 0.282 . S
C3057 C264 0.600 . S
C3076 C488 0.323 . S
C3093 C502 0.272 . S
C3112 C278 0.684 . S
C3129 C460 0.277 . S
C3148 C292 0.621 . S
C3165 C306 0.630 . S
C3184 C530 0.231 . S
C3201 C544 0.294 . S
C3220 C320 0.527 . S
C3237 C516 0.297 . S
C3256 C334 0.531 . S
C3273 C389 0.908 . S
C3292 C67 0.387 . S
C3309 C81 0.421 . S
C3328 C347 0.910 . S
C3345 C361 0.906 . S
C3364 C95 0.439 . S
C3381 C109 0.430 . S
C3400 C375 0.859 . S
C3417 C11 0.433 . S
C3436 C417 0.843 . S
C3453 C25 0.419 . S
C3472 C431 0.942 . S
C3489 C445 0.889 . S
C3508 C39 0.533 . S
C3525 C53 0.458 . S
C3544 C403 0.828 . S
C3561 C207 0.422 . S
C3580 C599 0.886 . S
C3597 C221 0.459 . S
C3616 C613 0.834 . S
C3633 C179 0.458 . S
C3652 C627 0.895 . S
C3669 C585 0.907 . S
C3688 C193 0.451 . S
C3705 C151 0.459 . S
C3724 C655 0.867 . S
C3741 C571 0.875 . S
C3760 C165 0.503 . S
C3777 C669 0.904 . S
C3796 C123 0.342 . S
C3813 C641 0.908 . S
C3832 C137 0.432 . S
C3849 C305 0.420 . S
C3868 C473 0.904 . S
C3885 C557 0.883 . S
C3904 C277 0.394 . S
C3921 C291 0.443 . S
C3940 C515 0.821 . S
C3957 C529 0.907 . S
C3976 C249 0.420 . S
C3993 C543 0.886 . S
C4012 C263 0.385 . S
C4029 C235 0.453 . S
C4048 C501 0.924 . S
C4065 C459 0.887 . S
C4084 C333 0.381 . S
C4101 C319 0.420 . S
C4120 C487 0.914 . S
