# Generated by pormake.
# Topology lcv-e, (6)-cn, num edge types: 1
# Building blocks:
#     Node 0, Type 0, BuildingBlock: OJICUG_clean_sbu_0, # of connection points: 6
#     Node 1, Type 0, BuildingBlock: OJICUG_clean_sbu_0, # of connection points: 6
#     Node 2, Type 0, BuildingBlock: OJICUG_clean_sbu_0, # of connection points: 6
#     Node 3, Type 0, BuildingBlock: OJICUG_clean_sbu_0, # of connection points: 6
#     Node 4, Type 0, BuildingBlock: OJICUG_clean_sbu_0, # of connection points: 6
#     Node 5, Type 0, BuildingBlock: OJICUG_clean_sbu_0, # of connection points: 6
#     Node 6, Type 0, BuildingBlock: OJICUG_clean_sbu_0, # of connection points: 6
#     Node 7, Type 0, BuildingBlock: OJICUG_clean_sbu_0, # of connection points: 6
#     Node 8, Type 0, BuildingBlock: OJICUG_clean_sbu_0, # of connection points: 6
#     Node 9, Type 0, BuildingBlock: OJICUG_clean_sbu_0, # of connection points: 6
#     Node 10, Type 0, BuildingBlock: OJICUG_clean_sbu_0, # of connection points: 6
#     Node 11, Type 0, BuildingBlock: OJICUG_clean_sbu_0, # of connection points: 6
#     Node 12, Type 0, BuildingBlock: OJICUG_clean_sbu_0, # of connection points: 6
#     Node 13, Type 0, BuildingBlock: OJICUG_clean_sbu_0, # of connection points: 6
#     Node 14, Type 0, BuildingBlock: OJICUG_clean_sbu_0, # of connection points: 6
#     Node 15, Type 0, BuildingBlock: OJICUG_clean_sbu_0, # of connection points: 6
#     Node 16, Type 0, BuildingBlock: OJICUG_clean_sbu_0, # of connection points: 6
#     Node 17, Type 0, BuildingBlock: OJICUG_clean_sbu_0, # of connection points: 6
#     Node 18, Type 0, BuildingBlock: OJICUG_clean_sbu_0, # of connection points: 6
#     Node 19, Type 0, BuildingBlock: OJICUG_clean_sbu_0, # of connection points: 6
#     Node 20, Type 0, BuildingBlock: OJICUG_clean_sbu_0, # of connection points: 6
#     Node 21, Type 0, BuildingBlock: OJICUG_clean_sbu_0, # of connection points: 6
#     Node 22, Type 0, BuildingBlock: OJICUG_clean_sbu_0, # of connection points: 6
#     Node 23, Type 0, BuildingBlock: OJICUG_clean_sbu_0, # of connection points: 6
#     Edge 24, Type (0, 0), BuildingBlock: CIFDUS_clean_linker_0, # of connection points: 2
#     Edge 25, Type (0, 0), BuildingBlock: CIFDUS_clean_linker_0, # of connection points: 2
#     Edge 26, Type (0, 0), BuildingBlock: CIFDUS_clean_linker_0, # of connection points: 2
#     Edge 27, Type (0, 0), BuildingBlock: CIFDUS_clean_linker_0, # of connection points: 2
#     Edge 28, Type (0, 0), BuildingBlock: CIFDUS_clean_linker_0, # of connection points: 2
#     Edge 29, Type (0, 0), BuildingBlock: CIFDUS_clean_linker_0, # of connection points: 2
#     Edge 30, Type (0, 0), BuildingBlock: CIFDUS_clean_linker_0, # of connection points: 2
#     Edge 31, Type (0, 0), BuildingBlock: CIFDUS_clean_linker_0, # of connection points: 2
#     Edge 32, Type (0, 0), BuildingBlock: CIFDUS_clean_linker_0, # of connection points: 2
#     Edge 33, Type (0, 0), BuildingBlock: CIFDUS_clean_linker_0, # of connection points: 2
#     Edge 34, Type (0, 0), BuildingBlock: CIFDUS_clean_linker_0, # of connection points: 2
#     Edge 35, Type (0, 0), BuildingBlock: CIFDUS_clean_linker_0, # of connection points: 2
#     Edge 36, Type (0, 0), BuildingBlock: CIFDUS_clean_linker_0, # of connection points: 2
#     Edge 37, Type (0, 0), BuildingBlock: CIFDUS_clean_linker_0, # of connection points: 2
#     Edge 38, Type (0, 0), BuildingBlock: CIFDUS_clean_linker_0, # of connection points: 2
#     Edge 39, Type (0, 0), BuildingBlock: CIFDUS_clean_linker_0, # of connection points: 2
#     Edge 40, Type (0, 0), BuildingBlock: CIFDUS_clean_linker_0, # of connection points: 2
#     Edge 41, Type (0, 0), BuildingBlock: CIFDUS_clean_linker_0, # of connection points: 2
#     Edge 42, Type (0, 0), BuildingBlock: CIFDUS_clean_linker_0, # of connection points: 2
#     Edge 43, Type (0, 0), BuildingBlock: CIFDUS_clean_linker_0, # of connection points: 2
#     Edge 44, Type (0, 0), BuildingBlock: CIFDUS_clean_linker_0, # of connection points: 2
#     Edge 45, Type (0, 0), BuildingBlock: CIFDUS_clean_linker_0, # of connection points: 2
#     Edge 46, Type (0, 0), BuildingBlock: CIFDUS_clean_linker_0, # of connection points: 2
#     Edge 47, Type (0, 0), BuildingBlock: CIFDUS_clean_linker_0, # of connection points: 2
#     Edge 48, Type (0, 0), BuildingBlock: CIFDUS_clean_linker_0, # of connection points: 2
#     Edge 49, Type (0, 0), BuildingBlock: CIFDUS_clean_linker_0, # of connection points: 2
#     Edge 50, Type (0, 0), BuildingBlock: CIFDUS_clean_linker_0, # of connection points: 2
#     Edge 51, Type (0, 0), BuildingBlock: CIFDUS_clean_linker_0, # of connection points: 2
#     Edge 52, Type (0, 0), BuildingBlock: CIFDUS_clean_linker_0, # of connection points: 2
#     Edge 53, Type (0, 0), BuildingBlock: CIFDUS_clean_linker_0, # of connection points: 2
#     Edge 54, Type (0, 0), BuildingBlock: CIFDUS_clean_linker_0, # of connection points: 2
#     Edge 55, Type (0, 0), BuildingBlock: CIFDUS_clean_linker_0, # of connection points: 2
#     Edge 56, Type (0, 0), BuildingBlock: CIFDUS_clean_linker_0, # of connection points: 2
#     Edge 57, Type (0, 0), BuildingBlock: CIFDUS_clean_linker_0, # of connection points: 2
#     Edge 58, Type (0, 0), BuildingBlock: CIFDUS_clean_linker_0, # of connection points: 2
#     Edge 59, Type (0, 0), BuildingBlock: CIFDUS_clean_linker_0, # of connection points: 2
#     Edge 60, Type (0, 0), BuildingBlock: CIFDUS_clean_linker_0, # of connection points: 2
#     Edge 61, Type (0, 0), BuildingBlock: CIFDUS_clean_linker_0, # of connection points: 2
#     Edge 62, Type (0, 0), BuildingBlock: CIFDUS_clean_linker_0, # of connection points: 2
#     Edge 63, Type (0, 0), BuildingBlock: CIFDUS_clean_linker_0, # of connection points: 2
#     Edge 64, Type (0, 0), BuildingBlock: CIFDUS_clean_linker_0, # of connection points: 2
#     Edge 65, Type (0, 0), BuildingBlock: CIFDUS_clean_linker_0, # of connection points: 2
#     Edge 66, Type (0, 0), BuildingBlock: CIFDUS_clean_linker_0, # of connection points: 2
#     Edge 67, Type (0, 0), BuildingBlock: CIFDUS_clean_linker_0, # of connection points: 2
#     Edge 68, Type (0, 0), BuildingBlock: CIFDUS_clean_linker_0, # of connection points: 2
#     Edge 69, Type (0, 0), BuildingBlock: CIFDUS_clean_linker_0, # of connection points: 2
#     Edge 70, Type (0, 0), BuildingBlock: CIFDUS_clean_linker_0, # of connection points: 2
#     Edge 71, Type (0, 0), BuildingBlock: CIFDUS_clean_linker_0, # of connection points: 2
#     Edge 72, Type (0, 0), BuildingBlock: CIFDUS_clean_linker_0, # of connection points: 2
#     Edge 73, Type (0, 0), BuildingBlock: CIFDUS_clean_linker_0, # of connection points: 2
#     Edge 74, Type (0, 0), BuildingBlock: CIFDUS_clean_linker_0, # of connection points: 2
#     Edge 75, Type (0, 0), BuildingBlock: CIFDUS_clean_linker_0, # of connection points: 2
#     Edge 76, Type (0, 0), BuildingBlock: CIFDUS_clean_linker_0, # of connection points: 2
#     Edge 77, Type (0, 0), BuildingBlock: CIFDUS_clean_linker_0, # of connection points: 2
#     Edge 78, Type (0, 0), BuildingBlock: CIFDUS_clean_linker_0, # of connection points: 2
#     Edge 79, Type (0, 0), BuildingBlock: CIFDUS_clean_linker_0, # of connection points: 2
#     Edge 80, Type (0, 0), BuildingBlock: CIFDUS_clean_linker_0, # of connection points: 2
#     Edge 81, Type (0, 0), BuildingBlock: CIFDUS_clean_linker_0, # of connection points: 2
#     Edge 82, Type (0, 0), BuildingBlock: CIFDUS_clean_linker_0, # of connection points: 2
#     Edge 83, Type (0, 0), BuildingBlock: CIFDUS_clean_linker_0, # of connection points: 2
#     Edge 84, Type (0, 0), BuildingBlock: CIFDUS_clean_linker_0, # of connection points: 2
#     Edge 85, Type (0, 0), BuildingBlock: CIFDUS_clean_linker_0, # of connection points: 2
#     Edge 86, Type (0, 0), BuildingBlock: CIFDUS_clean_linker_0, # of connection points: 2
#     Edge 87, Type (0, 0), BuildingBlock: CIFDUS_clean_linker_0, # of connection points: 2
#     Edge 88, Type (0, 0), BuildingBlock: CIFDUS_clean_linker_0, # of connection points: 2
#     Edge 89, Type (0, 0), BuildingBlock: CIFDUS_clean_linker_0, # of connection points: 2
#     Edge 90, Type (0, 0), BuildingBlock: CIFDUS_clean_linker_0, # of connection points: 2
#     Edge 91, Type (0, 0), BuildingBlock: CIFDUS_clean_linker_0, # of connection points: 2
#     Edge 92, Type (0, 0), BuildingBlock: CIFDUS_clean_linker_0, # of connection points: 2
#     Edge 93, Type (0, 0), BuildingBlock: CIFDUS_clean_linker_0, # of connection points: 2
#     Edge 94, Type (0, 0), BuildingBlock: CIFDUS_clean_linker_0, # of connection points: 2
#     Edge 95, Type (0, 0), BuildingBlock: CIFDUS_clean_linker_0, # of connection points: 2
# Relax obj value: 0.527
# Max RMSD: 0.261
# Mean RMSD: 0.261
data_MOF--net-lcv-e--node1-OJICUG_clean_sbu_0--edge1-CIFDUS_clean_linker_0
_symmetry_space_group_name_H-M    P1
_symmetry_Int_Tables_number       1
_symmetry_cell_setting            triclinic
loop_
_symmetry_equiv_pos_as_xyz
'x, y, z'
_cell_length_a     46.867472
_cell_length_b     46.882323
_cell_length_c     46.841534
_cell_angle_alpha  90.793387
_cell_angle_beta   89.778118
_cell_angle_gamma 90.537035
loop_
_atom_site_label
_atom_site_type_symbol
_atom_site_fract_x
_atom_site_fract_y
_atom_site_fract_z
_atom_type_partial_charge
Sc0 Sc 0.09404 0.15224 0.27137 0.0
Sc1 Sc 0.04878 0.12001 0.22181 0.0
Sc2 Sc 0.02124 0.16066 0.27722 0.0
O3 O 0.05426 0.14497 0.25569 0.0
C4 C 0.06404 0.14329 0.32515 0.0
C5 C 0.08849 0.08652 0.26579 0.0
C6 C 0.99372 0.10227 0.25635 0.0
C7 C 0.10693 0.14944 0.20703 0.0
C8 C 0.06864 0.21122 0.27286 0.0
C9 C 1.00385 0.16889 0.21063 0.0
O10 O 0.07833 0.16224 0.31292 0.0
O11 O 0.07641 0.08968 0.24151 0.0
O12 O 0.9933 0.12438 0.2722 0.0
O13 O 0.11637 0.14498 0.23178 0.0
O14 O 0.0458 0.2003 0.28355 0.0
O15 O 0.01939 0.14823 0.20252 0.0
O16 O 0.08867 0.19631 0.26195 0.0
O17 O 0.08156 0.14322 0.20016 0.0
O18 O 1.00276 0.17806 0.23685 0.0
O19 O 0.09667 0.10762 0.28128 0.0
O20 O 0.03894 0.13852 0.31548 0.0
O21 O 0.01381 0.09674 0.239 0.0
Sc22 Sc 0.13495 0.80669 0.48077 0.0
Sc23 Sc 0.15271 0.74326 0.44751 0.0
Sc24 Sc 0.11185 0.74435 0.50969 0.0
O25 O 0.13235 0.76405 0.47897 0.0
C26 C 0.13396 0.79974 0.54443 0.0
C27 C 0.19702 0.78954 0.47374 0.0
C28 C 0.16851 0.70799 0.50237 0.0
C29 C 0.136 0.79695 0.41726 0.0
C30 C 0.07145 0.79618 0.48931 0.0
C31 C 0.0949 0.70727 0.45091 0.0
O32 O 0.12266 0.81278 0.5243 0.0
O33 O 0.18923 0.77158 0.45428 0.0
O34 O 0.14601 0.71457 0.51624 0.0
O35 O 0.14917 0.80882 0.43746 0.0
O36 O 0.07778 0.77504 0.50517 0.0
O37 O 0.11804 0.71437 0.43866 0.0
O38 O 0.08947 0.80851 0.47265 0.0
O39 O 0.13211 0.77027 0.41728 0.0
O40 O 0.08908 0.71562 0.47686 0.0
O41 O 0.17912 0.80118 0.4909 0.0
O42 O 0.13481 0.77231 0.54283 0.0
O43 O 0.173 0.71536 0.4767 0.0
Sc44 Sc 0.48945 0.85087 0.69375 0.0
Sc45 Sc 0.44829 0.85068 0.75416 0.0
Sc46 Sc 0.50543 0.89613 0.7483 0.0
O47 O 0.48035 0.8663 0.73152 0.0
C48 C 0.54813 0.86093 0.70441 0.0
C49 C 0.47287 0.79521 0.7305 0.0
C50 C 0.49809 0.85342 0.79601 0.0
C51 C 0.42413 0.85555 0.6931 0.0
C52 C 0.49721 0.91957 0.68935 0.0
C53 C 0.4408 0.91066 0.77201 0.0
O54 O 0.53067 0.84109 0.70873 0.0
O55 O 0.4657 0.80863 0.75307 0.0
O56 O 0.51695 0.86482 0.77986 0.0
O57 O 0.44777 0.86069 0.68093 0.0
O58 O 0.49239 0.92393 0.7158 0.0
O59 O 0.43089 0.89204 0.755 0.0
O60 O 0.50155 0.8945 0.67863 0.0
O61 O 0.42223 0.84249 0.71671 0.0
O62 O 0.46819 0.91244 0.77632 0.0
O63 O 0.47774 0.80821 0.70699 0.0
O64 O 0.54293 0.88477 0.71762 0.0
O65 O 0.47191 0.85948 0.79295 0.0
Sc66 Sc 0.37333 0.26519 0.98114 0.0
Sc67 Sc 0.39545 0.22432 0.92452 0.0
Sc68 Sc 0.42222 0.21168 0.99214 0.0
O69 O 0.39776 0.23461 0.96612 0.0
C70 C 0.43149 0.2753 0.01355 0.0
C71 C 0.40337 0.28817 0.92026 0.0
C72 C 0.45983 0.21247 0.93997 0.0
C73 C 0.33341 0.24864 0.93387 0.0
C74 C 0.3649 0.21276 0.02756 0.0
C75 C 0.38612 0.16936 0.95674 0.0
O76 O 0.40914 0.2846 1.00183 0.0
O77 O 0.41342 0.26387 0.9137 0.0
O78 O 0.45824 0.22014 0.96585 0.0
O79 O 0.33697 0.24741 0.96046 0.0
O80 O 0.38757 0.20063 0.01948 0.0
O81 O 0.37613 0.18602 0.93819 0.0
O82 O 0.35841 0.23802 0.0187 0.0
O83 O 0.35374 0.24338 0.91671 0.0
O84 O 0.41053 0.17346 0.96814 0.0
O85 O 0.38664 0.29208 0.94234 0.0
O86 O 0.43571 0.24876 0.01727 0.0
O87 O 0.43779 0.2062 0.92521 0.0
Sc88 Sc 0.04102 0.8811 0.28066 0.0
Sc89 Sc 0.99102 0.92686 0.30767 0.0
Sc90 Sc 0.98127 0.89331 0.2412 0.0
O91 O 1.00429 0.90088 0.27557 0.0
C92 C 0.04704 0.90697 0.21853 0.0
C93 C 0.05055 0.94622 0.29436 0.0
C94 C 0.95579 0.95317 0.25724 0.0
C95 C 0.02019 0.88024 0.34147 0.0
C96 C 0.00984 0.83227 0.24582 0.0
C97 C 0.94335 0.88049 0.30051 0.0
O98 O 0.05707 0.89589 0.24097 0.0
O99 O 0.02506 0.95488 0.29672 0.0
O100 O 0.96466 0.93559 0.23864 0.0
O101 O 0.02402 0.86512 0.31938 0.0
O102 O 0.99196 0.84947 0.23598 0.0
O103 O 0.95794 0.89767 0.31596 0.0
O104 O 0.02934 0.84025 0.26278 0.0
O105 O 0.01692 0.90689 0.33961 0.0
O106 O 0.94714 0.87769 0.27288 0.0
O107 O 0.05754 0.92043 0.29916 0.0
O108 O 0.01957 0.90835 0.21414 0.0
O109 O 0.96218 0.95113 0.28325 0.0
Sc110 Sc 0.37159 0.76827 0.54125 0.0
Sc111 Sc 0.40121 0.83297 0.56268 0.0
Sc112 Sc 0.35139 0.79817 0.60617 0.0
O113 O 0.37424 0.79935 0.56945 0.0
C114 C 0.3087 0.76318 0.5665 0.0
C115 C 0.36311 0.83041 0.50767 0.0
C116 C 0.34794 0.85851 0.58557 0.0
C117 C 0.43596 0.78637 0.53065 0.0
C118 C 0.38083 0.73798 0.60399 0.0
C119 C 0.41278 0.81096 0.62095 0.0
O120 O 0.32664 0.7611 0.54627 0.0
O121 O 0.37671 0.84489 0.52655 0.0
O122 O 0.33259 0.83724 0.5924 0.0
O123 O 0.41666 0.76779 0.53385 0.0
O124 O 0.36963 0.7585 0.618 0.0
O125 O 0.42505 0.81758 0.59778 0.0
O126 O 0.38218 0.73741 0.57626 0.0
O127 O 0.43173 0.8126 0.53511 0.0
O128 O 0.3874 0.81908 0.62588 0.0
O129 O 0.36105 0.80257 0.50845 0.0
O130 O 0.31439 0.77586 0.58992 0.0
O131 O 0.37447 0.85792 0.59015 0.0
Sc132 Sc 0.46407 0.10397 0.79825 0.0
Sc133 Sc 0.53331 0.07728 0.78899 0.0
Sc134 Sc 0.50278 0.12277 0.73968 0.0
O135 O 0.49952 0.10006 0.77526 0.0
C136 C 0.44001 0.09677 0.73372 0.0
C137 C 0.47982 0.03877 0.80211 0.0
C138 C 0.53556 0.06499 0.72391 0.0
C139 C 0.51285 0.1043 0.84613 0.0
C140 C 0.46922 0.16643 0.7773 0.0
C141 C 0.55767 0.13613 0.77816 0.0
O142 O 0.43637 0.10188 0.76043 0.0
O143 O 0.50658 0.043 0.80387 0.0
O144 O 0.52969 0.09082 0.71812 0.0
O145 O 0.48694 0.10508 0.83817 0.0
O146 O 0.47479 0.15629 0.75282 0.0
O147 O 0.56273 0.10973 0.7749 0.0
O148 O 0.46732 0.15056 0.79902 0.0
O149 O 0.53325 0.09756 0.82978 0.0
O150 O 0.53727 0.14687 0.76365 0.0
O151 O 0.46169 0.05854 0.79864 0.0
O152 O 0.46466 0.10036 0.7217 0.0
O153 O 0.53517 0.05553 0.74908 0.0
Sc154 Sc 0.18913 0.28816 0.04081 0.0
Sc155 Sc 0.16204 0.22073 0.02486 0.0
Sc156 Sc 0.14222 0.27669 0.98456 0.0
O157 O 0.16456 0.26248 0.01693 0.0
C158 C 0.13082 0.32199 0.0375 0.0
C159 C 0.17023 0.24504 0.08633 0.0
C160 C 0.10014 0.23898 0.01973 0.0
C161 C 0.2267 0.23375 0.02216 0.0
C162 C 0.1998 0.31239 0.97885 0.0
C163 C 0.1621 0.21677 0.96028 0.0
O164 O 0.15651 0.32017 0.04608 0.0
O165 O 0.17522 0.22503 0.06872 0.0
O166 O 0.10753 0.24812 0.99527 0.0
O167 O 0.22307 0.25664 0.03713 0.0
O168 O 0.17515 0.30553 0.96971 0.0
O169 O 0.14945 0.20775 0.98229 0.0
O170 O 0.20796 0.30741 1.0041 0.0
O171 O 0.20581 0.21888 0.01236 0.0
O172 O 0.16356 0.24384 0.95651 0.0
O173 O 0.17076 0.27086 0.07902 0.0
O174 O 0.12202 0.30829 0.01495 0.0
O175 O 0.11785 0.22716 0.03643 0.0
Sc176 Sc 0.2156 0.10365 0.15447 0.0
Sc177 Sc 0.16563 0.07194 0.1078 0.0
Sc178 Sc 0.2274 0.03609 0.12463 0.0
O179 O 0.20315 0.06983 0.12905 0.0
C180 C 0.26692 0.09544 0.11194 0.0
C181 C 0.19194 0.13057 0.1031 0.0
C182 C 0.19755 0.03257 0.0634 0.0
C183 C 0.15763 0.08495 0.17102 0.0
C184 C 0.24802 0.055 0.18693 0.0
C185 C 0.16163 0.01068 0.13613 0.0
O186 O 0.25083 0.11136 0.12708 0.0
O187 O 0.18211 0.11004 0.08823 0.0
O188 O 0.21728 0.02776 0.081 0.0
O189 O 0.1811 0.09395 0.18109 0.0
O190 O 0.2415 0.03642 0.16816 0.0
O191 O 0.15116 0.03301 0.12537 0.0
O192 O 0.2426 0.0812 0.18379 0.0
O193 O 0.14964 0.09238 0.14618 0.0
O194 O 0.18925 0.00738 0.13818 0.0
O195 O 0.18878 0.13011 0.1298 0.0
O196 O 0.26282 0.06772 0.10991 0.0
O197 O 0.17718 0.04936 0.06898 0.0
Sc198 Sc 0.18436 0.96837 0.39235 0.0
Sc199 Sc 0.24793 0.95314 0.3576 0.0
Sc200 Sc 0.24436 0.00963 0.40626 0.0
O201 O 0.22555 0.97753 0.3859 0.0
C202 C 0.18232 0.03532 0.3859 0.0
C203 C 0.19441 0.96822 0.32637 0.0
C204 C 0.27571 0.01155 0.34652 0.0
C205 C 0.21155 0.90984 0.38838 0.0
C206 C 0.20066 0.99154 0.45434 0.0
C207 C 0.28441 0.95139 0.4132 0.0
O208 O 0.17124 0.01062 0.38244 0.0
O209 O 0.22141 0.9692 0.32463 0.0
O210 O 0.26281 0.02416 0.36675 0.0
O211 O 0.19756 0.92694 0.40406 0.0
O212 O 0.22488 1.00112 0.44666 0.0
O213 O 0.27354 0.93845 0.39172 0.0
O214 O 0.18321 0.97951 0.43726 0.0
O215 O 0.22004 0.91698 0.36379 0.0
O216 O 0.27931 0.97823 0.41885 0.0
O217 O 0.18134 0.95709 0.34752 0.0
O218 O 0.20816 0.03899 0.3952 0.0
O219 O 0.27949 0.98491 0.34706 0.0
Sc220 Sc 0.27963 0.94029 0.61749 0.0
Sc221 Sc 0.28921 0.01057 0.60084 0.0
Sc222 Sc 0.23945 0.9888 0.65206 0.0
O223 O 0.26798 0.9806 0.6224 0.0
C224 C 0.21566 0.93002 0.6278 0.0
C225 C 0.2689 0.96065 0.55678 0.0
C226 C 0.22568 0.03202 0.60222 0.0
C227 C 0.33559 0.96743 0.60948 0.0
C228 C 0.28211 0.95246 0.68132 0.0
C229 C 0.29198 0.03482 0.66328 0.0
O230 O 0.24049 0.92131 0.63385 0.0
O231 O 0.28369 0.9833 0.56269 0.0
O232 O 0.21987 0.0219 0.62678 0.0
O233 O 0.31733 0.95336 0.59592 0.0
O234 O 0.25573 0.9541 0.6762 0.0
O235 O 0.29473 0.03885 0.63666 0.0
O236 O 0.2986 0.94532 0.6607 0.0
O237 O 0.33013 0.99333 0.61434 0.0
O238 O 0.27222 0.01814 0.67326 0.0
O239 O 0.26057 0.94325 0.57615 0.0
O240 O 0.21008 0.95686 0.63069 0.0
O241 O 0.24972 0.02915 0.58985 0.0
Sc242 Sc 0.25332 0.01796 0.86376 0.0
Sc243 Sc 0.30158 0.98912 0.9117 0.0
Sc244 Sc 0.30955 0.05833 0.88434 0.0
O245 O 0.2877 0.02202 0.88855 0.0
C246 C 0.28973 0.04917 0.82335 0.0
C247 C 0.29625 0.96651 0.84963 0.0
C248 C 0.35989 0.0133 0.88967 0.0
C249 C 0.23547 0.98151 0.91595 0.0
C250 C 0.24286 0.0778 0.89195 0.0
C251 C 0.31049 0.04384 0.95087 0.0
O252 O 0.26732 0.05213 0.83758 0.0
O253 O 0.2955 0.96 0.87597 0.0
O254 O 0.35032 0.03791 0.88446 0.0
O255 O 0.23215 0.98596 0.88949 0.0
O256 O 0.2692 0.08368 0.88605 0.0
O257 O 0.30977 0.01682 0.94775 0.0
O258 O 0.23265 0.05232 0.8884 0.0
O259 O 0.25964 0.98361 0.92781 0.0
O260 O 0.30975 0.06146 0.93017 0.0
O261 O 0.2801 0.98631 0.8399 0.0
O262 O 0.31261 0.05145 0.83735 0.0
O263 O 0.34468 0.99277 0.89827 0.0
Sc264 Sc 0.65768 0.31268 0.98099 0.0
Sc265 Sc 0.67071 0.26103 0.92967 0.0
Sc266 Sc 0.62107 0.24937 0.98228 0.0
O267 O 0.64887 0.27517 0.96324 0.0
C268 C 0.64587 0.28841 0.03573 0.0
C269 C 0.71954 0.28958 0.96342 0.0
C270 C 0.67326 0.212 0.97176 0.0
C271 C 0.66179 0.32766 0.91764 0.0
C272 C 0.5888 0.3043 0.98579 0.0
C273 C 0.61421 0.23365 0.9135 0.0
O274 O 0.66706 0.29331 0.02009 0.0
O275 O 0.71021 0.2668 0.9518 0.0
O276 O 0.65656 0.22163 0.99111 0.0
O277 O 0.65043 0.33266 0.94181 0.0
O278 O 0.58878 0.27973 0.97375 0.0
O279 O 0.63186 0.25325 0.90692 0.0
O280 O 0.61196 0.31761 0.99258 0.0
O281 O 0.67321 0.30371 0.91105 0.0
O282 O 0.61085 0.22622 0.93993 0.0
O283 O 0.70282 0.30968 0.9712 0.0
O284 O 0.62565 0.27247 0.02553 0.0
O285 O 0.66892 0.21801 0.94576 0.0
Sc286 Sc 0.97087 0.37102 0.18514 0.0
Sc287 Sc 0.96993 0.3569 0.25705 0.0
Sc288 Sc 0.0114 0.41226 0.23045 0.0
O289 O 0.98472 0.38006 0.22365 0.0
C290 C 0.03566 0.38457 0.16988 0.0
C291 C 0.99254 0.31275 0.21587 0.0
C292 C 0.02879 0.37146 0.27743 0.0
C293 C 0.92035 0.34737 0.21512 0.0
C294 C 0.97017 0.43815 0.18405 0.0
C295 C 0.95409 0.41815 0.2741 0.0
O296 O 0.01137 0.37373 0.16447 0.0
O297 O 0.99453 0.32174 0.24165 0.0
O298 O 0.03761 0.3849 0.25592 0.0
O299 O 0.9296 0.36921 0.20276 0.0
O300 O 0.98874 0.44007 0.20363 0.0
O301 O 0.94531 0.39271 0.26943 0.0
O302 O 0.96034 0.41451 0.17455 0.0
O303 O 0.93387 0.33671 0.23555 0.0
O304 O 0.97957 0.4268 0.26595 0.0
O305 O 0.98119 0.32725 0.19571 0.0
O306 O 0.04025 0.39901 0.1933 0.0
O307 O 1.00293 0.37369 0.28433 0.0
Sc308 Sc 0.86455 0.75984 0.48952 0.0
Sc309 Sc 0.89639 0.71984 0.43748 0.0
Sc310 Sc 0.91144 0.7056 0.5078 0.0
O311 O 0.89114 0.72949 0.47842 0.0
C312 C 0.92045 0.76879 0.52792 0.0
C313 C 0.88693 0.78602 0.43108 0.0
C314 C 0.95762 0.72038 0.46084 0.0
C315 C 0.83076 0.72722 0.44032 0.0
C316 C 0.85209 0.70729 0.53368 0.0
C317 C 0.89231 0.6625 0.46328 0.0
O318 O 0.89521 0.77612 0.52096 0.0
O319 O 0.88717 0.76085 0.42102 0.0
O320 O 0.94885 0.70375 0.48055 0.0
O321 O 0.83449 0.74796 0.45763 0.0
O322 O 0.87837 0.7067 0.5393 0.0
O323 O 0.90915 0.67796 0.44931 0.0
O324 O 0.84262 0.72624 0.51648 0.0
O325 O 0.85064 0.70971 0.43346 0.0
O326 O 0.89028 0.66772 0.48985 0.0
O327 O 0.88315 0.79079 0.45806 0.0
O328 O 0.92996 0.74361 0.52476 0.0
O329 O 0.94002 0.73272 0.4443 0.0
Sc330 Sc 0.90336 0.644 0.28834 0.0
Sc331 Sc 0.93954 0.59462 0.3303 0.0
Sc332 Sc 0.96742 0.61526 0.26519 0.0
O333 O 0.93702 0.61829 0.29434 0.0
C334 C 0.90421 0.60089 0.23497 0.0
C335 C 0.87775 0.59173 0.31371 0.0
C336 C 0.96296 0.55437 0.28357 0.0
C337 C 0.92931 0.65779 0.34687 0.0
C338 C 0.94643 0.67715 0.24875 0.0
C339 C 1.0 0.62761 0.3259 0.0
O340 O 0.89116 0.61809 0.25194 0.0
O341 O 0.89801 0.57711 0.32285 0.0
O342 O 0.98005 0.57397 0.27719 0.0
O343 O 0.92019 0.6679 0.32354 0.0
O344 O 0.96449 0.65743 0.24901 0.0
O345 O 0.98309 0.61014 0.33852 0.0
O346 O 0.92247 0.67493 0.26091 0.0
O347 O 0.92513 0.63179 0.35381 0.0
O348 O 0.99742 0.63304 0.29886 0.0
O349 O 0.87911 0.61842 0.31674 0.0
O350 O 0.93193 0.59731 0.23583 0.0
O351 O 0.94921 0.55605 0.30673 0.0
Sc352 Sc 0.56982 0.37659 0.77561 0.0
Sc353 Sc 0.51724 0.42564 0.7847 0.0
Sc354 Sc 0.51395 0.37458 0.73103 0.0
O355 O 0.53406 0.39243 0.76288 0.0
C356 C 0.57976 0.37719 0.70895 0.0
C357 C 0.57445 0.44469 0.76141 0.0
C358 C 0.48742 0.43386 0.72827 0.0
C359 C 0.55899 0.40499 0.82943 0.0
C360 C 0.53465 0.32032 0.76425 0.0
C361 C 0.47509 0.3754 0.79125 0.0
O362 O 0.58763 0.36943 0.73362 0.0
O363 O 0.54791 0.45119 0.76247 0.0
O364 O 0.50234 0.41577 0.71502 0.0
O365 O 0.5532 0.38173 0.81737 0.0
O366 O 0.52395 0.3314 0.74217 0.0
O367 O 0.48962 0.3951 0.80398 0.0
O368 O 0.55272 0.33371 0.77975 0.0
O369 O 0.5485 0.42712 0.81908 0.0
O370 O 0.47808 0.36924 0.76398 0.0
O371 O 0.58475 0.42094 0.77052 0.0
O372 O 0.55304 0.38063 0.70321 0.0
O373 O 0.48331 0.43112 0.75466 0.0
Sc374 Sc 0.53107 0.64763 0.71477 0.0
Sc375 Sc 0.57605 0.66199 0.77103 0.0
Sc376 Sc 0.50593 0.64168 0.7835 0.0
O377 O 0.53754 0.64986 0.75661 0.0
C378 C 0.47471 0.67321 0.729 0.0
C379 C 0.567 0.70399 0.72309 0.0
C380 C 0.53572 0.69491 0.81152 0.0
C381 C 0.58738 0.61789 0.72413 0.0
C382 C 0.49357 0.59553 0.73792 0.0
C383 C 0.56434 0.61283 0.81136 0.0
O384 O 0.49878 0.67819 0.71795 0.0
O385 O 0.57206 0.70115 0.74939 0.0
O386 O 0.51264 0.68373 0.80217 0.0
O387 O 0.56291 0.61656 0.71298 0.0
O388 O 0.49799 0.60114 0.76417 0.0
O389 O 0.58062 0.62401 0.79308 0.0
O390 O 0.50107 0.61211 0.71784 0.0
O391 O 0.59684 0.64082 0.73563 0.0
O392 O 0.53741 0.61936 0.81336 0.0
O393 O 0.55977 0.68305 0.70695 0.0
O394 O 0.4726 0.65966 0.75292 0.0
O395 O 0.55943 0.68236 0.80883 0.0
Sc396 Sc 0.88309 0.24499 0.02616 0.0
Sc397 Sc 0.88302 0.30811 0.06534 0.0
Sc398 Sc 0.85059 0.24711 0.09279 0.0
O399 O 0.87221 0.26683 0.06085 0.0
C400 C 0.825 0.2144 0.04048 0.0
C401 C 0.86184 0.30721 1.00099 0.0
C402 C 0.81721 0.30033 0.07995 0.0
C403 C 0.93855 0.28295 0.03584 0.0
C404 C 0.90227 0.20843 0.08324 0.0
C405 C 0.89184 0.284 0.12555 0.0
O406 O 0.84068 0.22694 0.02236 0.0
O407 O 0.86634 0.31981 0.02476 0.0
O408 O 0.8164 0.2736 0.08334 0.0
O409 O 0.92561 0.26091 0.02665 0.0
O410 O 0.88572 0.22132 0.10036 0.0
O411 O 0.90231 0.29753 0.10485 0.0
O412 O 0.90123 0.21127 0.05564 0.0
O413 O 0.92606 0.30347 0.04862 0.0
O414 O 0.86605 0.27599 0.12521 0.0
O415 O 0.86741 0.2803 0.99728 0.0
O416 O 0.83138 0.21423 0.06668 0.0
O417 O 0.84008 0.31549 0.08183 0.0
Sc418 Sc 0.64683 0.76917 0.5176 0.0
Sc419 Sc 0.69607 0.78694 0.57054 0.0
Sc420 Sc 0.65529 0.72332 0.57234 0.0
O421 O 0.66699 0.75901 0.55354 0.0
C422 C 0.59638 0.73702 0.54538 0.0
C423 C 0.64116 0.82013 0.56194 0.0
C424 C 0.65927 0.77021 0.62331 0.0
C425 C 0.70744 0.78981 0.50605 0.0
C426 C 0.66716 0.70507 0.50591 0.0
C427 C 0.72236 0.72754 0.58433 0.0
O428 O 0.60948 0.74372 0.52293 0.0
O429 O 0.66825 0.82172 0.55923 0.0
O430 O 0.65134 0.7464 0.61219 0.0
O431 O 0.68147 0.79655 0.50386 0.0
O432 O 0.66008 0.69884 0.53172 0.0
O433 O 0.72534 0.75443 0.58361 0.0
O434 O 0.66601 0.73101 0.49669 0.0
O435 O 0.7179 0.78504 0.53036 0.0
O436 O 0.69878 0.7145 0.58019 0.0
O437 O 0.6272 0.80302 0.54527 0.0
O438 O 0.60982 0.73069 0.56777 0.0
O439 O 0.67586 0.78794 0.61139 0.0
Sc440 Sc 0.75785 0.49656 0.60944 0.0
Sc441 Sc 0.73013 0.55529 0.64306 0.0
Sc442 Sc 0.69213 0.52023 0.58971 0.0
O443 O 0.72714 0.5243 0.61402 0.0
C444 C 0.74122 0.50907 0.54819 0.0
C445 C 0.78084 0.56367 0.59965 0.0
C446 C 0.69415 0.58416 0.60077 0.0
C447 C 0.77551 0.51609 0.67147 0.0
C448 C 0.70004 0.46017 0.61295 0.0
C449 C 0.67609 0.51959 0.65681 0.0
O450 O 0.74812 0.48955 0.56513 0.0
O451 O 0.76098 0.57486 0.61502 0.0
O452 O 0.69007 0.56517 0.58208 0.0
O453 O 0.77236 0.49666 0.65284 0.0
O454 O 0.69362 0.47437 0.59106 0.0
O455 O 0.69978 0.53033 0.66577 0.0
O456 O 0.72527 0.46337 0.62366 0.0
O457 O 0.76451 0.54026 0.66852 0.0
O458 O 0.66844 0.51938 0.63029 0.0
O459 O 0.78476 0.53599 0.59742 0.0
O460 O 0.71827 0.52266 0.55209 0.0
O461 O 0.69453 0.5767 0.62627 0.0
Sc462 Sc 0.69152 0.44192 0.87034 0.0
Sc463 Sc 0.75851 0.42863 0.84101 0.0
Sc464 Sc 0.74952 0.48469 0.88834 0.0
O465 O 0.73295 0.45213 0.86714 0.0
C466 C 0.68722 0.50909 0.86686 0.0
C467 C 0.70823 0.44583 0.80487 0.0
C468 C 0.78749 0.48644 0.8336 0.0
C469 C 0.72012 0.38404 0.86519 0.0
C470 C 0.70439 0.46372 0.93363 0.0
C471 C 0.78972 0.42689 0.89916 0.0
O472 O 0.67722 0.48412 0.86252 0.0
O473 O 0.73534 0.44639 0.80645 0.0
O474 O 0.77068 0.49948 0.8503 0.0
O475 O 0.70452 0.39989 0.88055 0.0
O476 O 0.72795 0.47496 0.92651 0.0
O477 O 0.7804 0.41313 0.87738 0.0
O478 O 0.68809 0.45037 0.91616 0.0
O479 O 0.72951 0.393 0.84167 0.0
O480 O 0.78392 0.45385 0.90352 0.0
O481 O 0.6921 0.43488 0.82414 0.0
O482 O 0.71302 0.51344 0.87606 0.0
O483 O 0.79171 0.46013 0.83661 0.0
Sc484 Sc 0.7161 0.47434 0.15239 0.0
Sc485 Sc 0.72674 0.40236 0.15019 0.0
Sc486 Sc 0.77357 0.44911 0.11368 0.0
O487 O 0.74068 0.44215 0.14018 0.0
C488 C 0.73163 0.49619 0.09125 0.0
C489 C 0.67125 0.42521 0.1376 0.0
C490 C 0.73144 0.40431 0.08252 0.0
C491 C 0.72169 0.43284 0.20724 0.0
C492 C 0.78315 0.4964 0.16266 0.0
C493 C 0.79186 0.39043 0.13997 0.0
O494 O 0.7153 0.4956 0.11262 0.0
O495 O 0.68395 0.41445 0.15808 0.0
O496 O 0.75318 0.42109 0.08307 0.0
O497 O 0.71194 0.45449 0.19411 0.0
O498 O 0.79273 0.47863 0.14406 0.0
O499 O 0.76689 0.38265 0.14634 0.0
O500 O 0.75593 0.4985 0.1683 0.0
O501 O 0.73374 0.41189 0.19451 0.0
O502 O 0.79812 0.41508 0.13094 0.0
O503 O 0.67927 0.45049 0.13127 0.0
O504 O 0.75501 0.48307 0.09034 0.0
O505 O 0.71898 0.39535 0.10516 0.0
Sc506 Sc 0.76689 0.51726 0.38945 0.0
Sc507 Sc 0.80302 0.56267 0.34744 0.0
Sc508 Sc 0.73056 0.56918 0.35053 0.0
O509 O 0.76603 0.54835 0.36172 0.0
C510 C 0.71218 0.50433 0.35082 0.0
C511 C 0.81951 0.49816 0.35156 0.0
C512 C 0.76527 0.55493 0.29393 0.0
C513 C 0.81242 0.55807 0.4116 0.0
C514 C 0.72252 0.56504 0.41644 0.0
C515 C 0.77363 0.61806 0.35315 0.0
O516 O 0.72844 0.49811 0.37162 0.0
O517 O 0.82731 0.52411 0.35377 0.0
O518 O 0.74584 0.56976 0.3063 0.0
O519 O 0.80706 0.53228 0.40563 0.0
O520 O 0.71187 0.56918 0.39207 0.0
O521 O 0.78436 0.60189 0.33465 0.0
O522 O 0.74279 0.54676 0.42007 0.0
O523 O 0.81149 0.57674 0.39184 0.0
O524 O 0.75031 0.60983 0.36412 0.0
O525 O 0.7941 0.49057 0.35963 0.0
O526 O 0.711 0.52908 0.33995 0.0
O527 O 0.78734 0.54634 0.30751 0.0
H528 H 0.08673 0.18728 0.17002 0.0
H529 H 0.16507 0.15284 0.20239 0.0
H530 H 0.19264 0.18457 0.17145 0.0
H531 H 0.19385 0.21851 0.13105 0.0
H532 H 0.11518 0.25252 0.09974 0.0
H533 H 0.08814 0.22516 0.1349 0.0
C534 C 0.10986 0.18635 0.16992 0.0
C535 C 0.12395 0.16708 0.18757 0.0
C536 C 0.12539 0.20475 0.15242 0.0
C537 C 0.15387 0.16702 0.18831 0.0
C538 C 0.16958 0.18517 0.17068 0.0
C539 C 0.17087 0.22004 0.13244 0.0
C540 C 0.15634 0.23695 0.11295 0.0
C541 C 0.15553 0.20364 0.15216 0.0
C542 C 0.12665 0.23975 0.11495 0.0
C543 C 0.11122 0.22376 0.13464 0.0
H544 H 0.08056 0.78776 0.4062 0.0
H545 H 0.14984 0.848 0.39556 0.0
H546 H 0.11654 0.88392 0.37904 0.0
H547 H 0.06856 0.89678 0.36502 0.0
H548 H 0.99999 0.83539 0.37115 0.0
H549 H 0.03179 0.80162 0.39409 0.0
C550 C 0.08833 0.80852 0.3995 0.0
C551 C 0.11743 0.81524 0.40113 0.0
C552 C 0.06908 0.82911 0.39076 0.0
C553 C 0.12741 0.84243 0.39359 0.0
C554 C 0.10842 0.86303 0.38478 0.0
C555 C 0.06038 0.87655 0.37281 0.0
C556 C 0.03227 0.86837 0.36693 0.0
C557 C 0.07924 0.85661 0.38343 0.0
C558 C 0.02164 0.84201 0.37619 0.0
C559 C 0.03995 0.82252 0.38847 0.0
H560 H 0.49642 0.74944 0.69847 0.0
H561 H 0.42894 0.76306 0.75699 0.0
H562 H 0.39458 0.76762 0.71805 0.0
H563 H 0.39147 0.78964 0.67023 0.0
H564 H 0.46333 0.7834 0.61245 0.0
H565 H 0.48899 0.75492 0.64691 0.0
C566 C 0.47381 0.75203 0.70234 0.0
C567 C 0.46526 0.76436 0.72843 0.0
C568 C 0.45587 0.75763 0.67915 0.0
C569 C 0.43633 0.76007 0.73522 0.0
C570 C 0.41673 0.76338 0.71303 0.0
C571 C 0.41252 0.78169 0.66495 0.0
C572 C 0.42628 0.79016 0.63974 0.0
C573 C 0.42741 0.76612 0.68507 0.0
C574 C 0.45295 0.77842 0.6325 0.0
C575 C 0.46747 0.76167 0.65193 0.0
H576 H 0.48381 0.1646 0.95639 0.0
H577 H 0.49397 0.23513 0.89928 0.0
H578 H 0.52323 0.20593 0.86731 0.0
H579 H 0.52869 0.15781 0.84866 0.0
H580 H 0.50866 0.08561 0.90085 0.0
H581 H 0.50053 0.11734 0.94204 0.0
C582 C 0.4939 0.1738 0.9377 0.0
C583 C 0.48685 0.2015 0.92967 0.0
C584 C 0.50809 0.15608 0.91825 0.0
C585 C 0.49936 0.21367 0.90551 0.0
C586 C 0.51572 0.19687 0.88715 0.0
C587 C 0.52451 0.14911 0.8696 0.0
C588 C 0.51956 0.11983 0.87225 0.0
C589 C 0.51783 0.16754 0.89212 0.0
C590 C 0.51274 0.10828 0.89881 0.0
C591 C 0.50788 0.12643 0.92214 0.0
H592 H 0.06838 0.03414 0.24706 0.0
H593 H 0.13363 0.0682 0.30082 0.0
H594 H 0.17012 0.05149 0.26748 0.0
H595 H 0.17797 0.05855 0.21698 0.0
H596 H 0.10518 0.05913 0.1608 0.0
H597 H 0.07738 0.03242 0.19595 0.0
C598 C 0.09097 0.03699 0.25144 0.0
C599 C 0.09875 0.05747 0.2723 0.0
C600 C 0.11012 0.03534 0.22849 0.0
C601 C 0.12705 0.05642 0.28188 0.0
C602 C 0.14789 0.04749 0.26236 0.0
C603 C 0.15606 0.05257 0.21217 0.0
C604 C 0.14282 0.06262 0.18735 0.0
C605 C 0.13918 0.042 0.23406 0.0
C606 C 0.11523 0.053 0.18054 0.0
C607 C 0.0995 0.0375 0.20058 0.0
H608 H 0.22347 0.90204 0.44347 0.0
H609 H 0.22496 0.85973 0.3611 0.0
H610 H 0.2364 0.81451 0.38391 0.0
H611 H 0.23252 0.78653 0.42742 0.0
H612 H 0.2242 0.82905 0.50895 0.0
H613 H 0.23204 0.87498 0.48651 0.0
C614 C 0.22644 0.88292 0.4305 0.0
C615 C 0.22193 0.88354 0.40093 0.0
C616 C 0.2327 0.85732 0.44366 0.0
C617 C 0.22744 0.85925 0.38407 0.0
C618 C 0.23422 0.83358 0.39706 0.0
C619 C 0.23373 0.80578 0.4405 0.0
C620 C 0.22405 0.80525 0.46896 0.0
C621 C 0.23509 0.83213 0.42695 0.0
C622 C 0.22925 0.82941 0.48635 0.0
C623 C 0.23306 0.85579 0.47349 0.0
H624 H 0.33052 0.91185 0.62211 0.0
H625 H 0.38109 0.98728 0.64115 0.0
H626 H 0.41081 0.95924 0.6732 0.0
H627 H 0.42509 0.91207 0.69076 0.0
H628 H 0.37081 0.8387 0.67591 0.0
H629 H 0.33843 0.86796 0.6477 0.0
C630 C 0.34818 0.92233 0.63302 0.0
C631 C 0.35424 0.95147 0.62861 0.0
C632 C 0.36408 0.90658 0.65207 0.0
C633 C 0.37652 0.96477 0.64374 0.0
C634 C 0.39334 0.9488 0.66206 0.0
C635 C 0.40583 0.9027 0.68166 0.0
C636 C 0.40064 0.87321 0.68388 0.0
C637 C 0.38765 0.91957 0.66575 0.0
C638 C 0.3754 0.86119 0.67334 0.0
C639 C 0.35719 0.87783 0.65717 0.0
H640 H 0.39945 0.11753 0.97791 0.0
H641 H 0.3294 0.17468 0.96357 0.0
H642 H 0.2953 0.13803 0.97761 0.0
H643 H 0.2858 0.08721 0.97985 0.0
H644 H 0.35513 0.0285 0.98449 0.0
H645 H 0.38888 0.06779 0.992 0.0
C646 C 0.37677 0.1219 0.97829 0.0
C647 C 0.3667 0.14797 0.96844 0.0
C648 C 0.35718 0.10038 0.98528 0.0
C649 C 0.33737 0.15404 0.96974 0.0
C650 C 0.3179 0.13332 0.97817 0.0
C651 C 0.30814 0.08316 0.98419 0.0
C652 C 0.31882 0.05592 0.97857 0.0
C653 C 0.32749 0.10593 0.98406 0.0
C654 C 0.3469 0.04994 0.98673 0.0
C655 C 0.36639 0.07247 0.98995 0.0
H656 H 0.09383 0.94098 0.25805 0.0
H657 H 0.05893 0.99628 0.32325 0.0
H658 H 0.10591 0.01792 0.33082 0.0
H659 H 0.15699 0.00987 0.32914 0.0
H660 H 0.19148 0.94623 0.27215 0.0
H661 H 0.14521 0.94115 0.24857 0.0
C662 C 0.09646 0.95875 0.27289 0.0
C663 C 0.0737 0.96667 0.29072 0.0
C664 C 0.12366 0.96975 0.27816 0.0
C665 C 0.07656 0.98976 0.30971 0.0
C666 C 0.10342 1.00183 0.31423 0.0
C667 C 0.15449 0.99582 0.31074 0.0
C668 C 0.17675 0.9776 0.30292 0.0
C669 C 0.12727 0.99043 0.3001 0.0
C670 C 0.17423 0.96018 0.27856 0.0
C671 C 0.14764 0.95686 0.26557 0.0
H672 H 0.31325 0.96604 0.51857 0.0
H673 H 0.233 0.92357 0.52294 0.0
H674 H 0.25633 0.87802 0.53218 0.0
H675 H 0.2967 0.8575 0.55862 0.0
H676 H 0.37515 0.90614 0.56665 0.0
H677 H 0.35602 0.94299 0.53622 0.0
C678 C 0.30105 0.9464 0.52083 0.0
C679 C 0.272 0.94814 0.52768 0.0
C680 C 0.31488 0.92223 0.53102 0.0
C681 C 0.2561 0.92289 0.523 0.0
C682 C 0.26932 0.89699 0.52918 0.0
C683 C 0.30972 0.87598 0.55347 0.0
C684 C 0.33683 0.8797 0.56575 0.0
C685 C 0.29833 0.89748 0.53676 0.0
C686 C 0.35385 0.9033 0.55813 0.0
C687 C 0.34313 0.92419 0.54041 0.0
H688 H 0.48601 0.01283 0.85229 0.0
H689 H 0.44528 1.00439 0.77049 0.0
H690 H 0.39999 0.99324 0.7934 0.0
H691 H 0.37086 1.00157 0.83593 0.0
H692 H 0.41032 0.01052 0.91843 0.0
H693 H 0.45784 0.00654 0.89624 0.0
C694 C 0.46765 0.00642 0.83958 0.0
C695 C 0.46785 0.01134 0.81015 0.0
C696 C 0.44144 1.00181 0.85315 0.0
C697 C 0.44485 1.00175 0.79344 0.0
C698 C 0.41879 0.99632 0.80655 0.0
C699 C 0.38993 1.0016 0.84904 0.0
C700 C 0.38779 0.00655 0.87837 0.0
C701 C 0.41657 0.99891 0.83627 0.0
C702 C 0.4121 0.00688 0.8956 0.0
C703 C 0.43902 1.00442 0.88297 0.0
H704 H 0.26448 0.23511 0.06665 0.0
H705 H 0.25568 0.19399 0.98564 0.0
H706 H 0.24332 0.14872 0.00838 0.0
H707 H 0.21546 0.12929 0.04955 0.0
H708 H 0.21853 0.17442 0.13041 0.0
H709 H 0.24859 0.21129 0.10985 0.0
C710 C 0.2605 0.21585 0.0541 0.0
C711 C 0.25391 0.21831 0.0252 0.0
C712 C 0.24906 0.19191 0.06767 0.0
C713 C 0.25592 0.19301 0.00873 0.0
C714 C 0.24777 0.16736 0.02163 0.0
C715 C 0.22297 0.147 0.06272 0.0
C716 C 0.21301 0.15044 0.0909 0.0
C717 C 0.24082 0.16785 0.05087 0.0
C718 C 0.22418 0.17259 0.10811 0.0
C719 C 0.24196 0.19331 0.09659 0.0
H720 H 0.75514 0.27122 0.92002 0.0
H721 H 0.75661 0.32622 0.99313 0.0
H722 H 0.76024 0.36817 0.96296 0.0
H723 H 0.74156 0.38678 0.91787 0.0
H724 H 0.73399 0.33132 0.84403 0.0
H725 H 0.75196 0.29126 0.87187 0.0
C726 C 0.75755 0.29247 0.92923 0.0
C727 C 0.74974 0.29719 0.95791 0.0
C728 C 0.75595 0.31597 0.91116 0.0
C729 C 0.75864 0.32311 0.97036 0.0
C730 C 0.75953 0.34713 0.95308 0.0
C731 C 0.74441 0.36605 0.90771 0.0
C732 C 0.73538 0.3613 0.87951 0.0
C733 C 0.75456 0.34356 0.92369 0.0
C734 C 0.74016 0.33489 0.86606 0.0
C735 C 0.75063 0.3122 0.88186 0.0
H736 H 0.90899 0.33813 0.161 0.0
H737 H 0.87246 0.33138 0.24508 0.0
H738 H 0.82452 0.33692 0.22515 0.0
H739 H 0.79692 0.35939 0.18716 0.0
H740 H 0.83738 0.37788 0.10656 0.0
H741 H 0.88013 0.35266 0.12136 0.0
C742 C 0.89027 0.33667 0.17469 0.0
C743 C 0.89378 0.33524 0.20429 0.0
C744 C 0.86377 0.34328 0.16362 0.0
C745 C 0.86994 0.33269 0.22216 0.0
C746 C 0.84271 0.33648 0.2108 0.0
C747 C 0.81489 0.35705 0.17264 0.0
C748 C 0.81474 0.37079 0.14621 0.0
C749 C 0.83986 0.34432 0.18208 0.0
C750 C 0.83772 0.36791 0.1273 0.0
C751 C 0.86192 0.35341 0.13569 0.0
H752 H 0.88855 0.65489 0.4063 0.0
H753 H 0.84058 0.64411 0.48429 0.0
H754 H 0.79705 0.63751 0.45675 0.0
H755 H 0.77216 0.6344 0.40974 0.0
H756 H 0.82174 0.64278 0.33272 0.0
H757 H 0.86419 0.6541 0.36065 0.0
C758 C 0.86864 0.65044 0.41735 0.0
C759 C 0.86778 0.65033 0.44742 0.0
C760 C 0.84362 0.64722 0.40143 0.0
C761 C 0.84193 0.64416 0.46122 0.0
C762 C 0.81698 0.6403 0.44534 0.0
C763 C 0.79235 0.6384 0.39925 0.0
C764 C 0.79417 0.63606 0.36939 0.0
C765 C 0.81737 0.64234 0.41547 0.0
C766 C 0.81992 0.64365 0.35579 0.0
C767 C 0.84438 0.64939 0.37169 0.0
H768 H 0.78924 0.51646 0.25311 0.0
H769 H 0.74833 0.59612 0.25281 0.0
H770 H 0.79428 0.62152 0.2529 0.0
H771 H 0.8386 0.61852 0.28148 0.0
H772 H 0.87493 0.53585 0.29697 0.0
H773 H 0.8394 0.51322 0.26641 0.0
C774 C 0.79094 0.53952 0.25208 0.0
C775 C 0.76773 0.55563 0.2621 0.0
C776 C 0.81758 0.55258 0.25737 0.0
C777 C 0.76777 0.58381 0.25227 0.0
C778 C 0.79403 0.59841 0.25286 0.0
C779 C 0.83933 0.59571 0.27736 0.0
C780 C 0.85865 0.57873 0.29223 0.0
C781 C 0.81837 0.58284 0.26039 0.0
C782 C 0.85975 0.54925 0.28631 0.0
C783 C 0.83974 0.53629 0.26837 0.0
H784 H 0.67688 0.49284 0.80465 0.0
H785 H 0.7075 0.42492 0.75031 0.0
H786 H 0.66647 0.43046 0.71895 0.0
H787 H 0.61515 0.43875 0.72162 0.0
H788 H 0.58179 0.49851 0.78332 0.0
H789 H 0.63011 0.51397 0.79558 0.0
C790 C 0.6751 0.48027 0.78511 0.0
C791 C 0.69415 0.45782 0.78009 0.0
C792 C 0.65032 0.48192 0.76877 0.0
C793 C 0.69255 0.44194 0.75464 0.0
C794 C 0.66892 0.44492 0.73694 0.0
C795 C 0.61862 0.45636 0.73649 0.0
C796 C 0.59556 0.46625 0.75295 0.0
C797 C 0.64634 0.46245 0.74577 0.0
C798 C 0.59954 0.48988 0.7712 0.0
C799 C 0.62723 0.49819 0.77872 0.0
H800 H 0.61283 0.73664 0.73536 0.0
H801 H 0.53922 0.73038 0.68068 0.0
H802 H 0.55992 0.76566 0.6488 0.0
H803 H 0.60471 0.78134 0.62841 0.0
H804 H 0.68232 0.77559 0.67651 0.0
H805 H 0.65502 0.76318 0.71934 0.0
C806 C 0.601 0.74396 0.71703 0.0
C807 C 0.57499 0.73082 0.70976 0.0
C808 C 0.61438 0.76179 0.69733 0.0
C809 C 0.55947 0.74024 0.68625 0.0
C810 C 0.57139 0.76021 0.668 0.0
C811 C 0.61529 0.77896 0.64882 0.0
C812 C 0.64508 0.77849 0.64968 0.0
C813 C 0.5998 0.76883 0.67198 0.0
C814 C 0.65922 0.77562 0.67571 0.0
C815 C 0.64362 0.76809 0.69995 0.0
H816 H 0.64151 0.38107 0.92544 0.0
H817 H 0.67221 0.32301 0.86001 0.0
H818 H 0.64878 0.35112 0.82362 0.0
H819 H 0.60821 0.38133 0.81346 0.0
H820 H 0.56972 0.43192 0.88049 0.0
H821 H 0.60787 0.41834 0.91322 0.0
C822 C 0.64358 0.37482 0.90314 0.0
C823 C 0.65725 0.34915 0.89549 0.0
C824 C 0.62815 0.38961 0.88277 0.0
C825 C 0.66098 0.34214 0.86651 0.0
C826 C 0.64747 0.35813 0.84573 0.0
C827 C 0.6087 0.39001 0.83505 0.0
C828 C 0.58587 0.40659 0.84518 0.0
C829 C 0.6291 0.38025 0.85402 0.0
C830 C 0.58695 0.41866 0.87263 0.0
C831 C 0.60855 0.41065 0.8913 0.0
H832 H 0.94866 0.27801 0.12111 0.0
H833 H 0.87845 0.26694 0.17996 0.0
H834 H 0.91222 0.25868 0.21879 0.0
H835 H 0.96073 0.26861 0.23696 0.0
H836 H 0.02933 0.28396 0.17889 0.0
H837 H 0.99797 0.27514 0.13821 0.0
C838 C 0.94066 0.27358 0.14238 0.0
C839 C 0.91123 0.2746 0.14817 0.0
C840 C 0.96002 0.26944 0.16441 0.0
C841 C 0.90112 0.26715 0.17534 0.0
C842 C 0.92039 0.26225 0.19745 0.0
C843 C 0.96906 0.26821 0.21532 0.0
C844 C 0.99513 0.28214 0.20974 0.0
C845 C 0.94984 0.26507 0.1925 0.0
C846 C 0.00763 0.2769 0.18295 0.0
C847 C 0.98948 0.27284 0.15962 0.0
H848 H 0.95942 0.641 0.39255 0.0
H849 H 0.94373 0.71398 0.33959 0.0
H850 H 0.97337 0.74384 0.37087 0.0
H851 H 0.99058 0.75081 0.42013 0.0
H852 H 1.00042 0.68032 0.4745 0.0
H853 H 0.98898 0.64676 0.43566 0.0
C854 C 0.96251 0.66337 0.38767 0.0
C855 C 0.94813 0.67566 0.36476 0.0
C856 C 0.97911 0.68035 0.40576 0.0
C857 C 0.9536 0.70436 0.35793 0.0
C858 C 0.97099 0.72134 0.37543 0.0
C859 C 0.9915 0.72788 0.42277 0.0
C860 C 0.9874 0.71679 0.45018 0.0
C861 C 0.9823 0.70992 0.40034 0.0
C862 C 0.99673 0.68866 0.45339 0.0
C863 C 0.98947 0.66944 0.43148 0.0
H864 H 0.68092 0.52764 0.71418 0.0
H865 H 0.62116 0.4985 0.65026 0.0
H866 H 0.5827 0.52254 0.67545 0.0
H867 H 0.573 0.56767 0.69941 0.0
H868 H 0.63753 0.60804 0.75225 0.0
H869 H 0.66761 0.56597 0.74676 0.0
C870 C 0.65927 0.52599 0.70613 0.0
C871 C 0.65422 0.51419 0.67884 0.0
C872 C 0.63868 0.54408 0.71762 0.0
C873 C 0.62591 0.50917 0.67033 0.0
C874 C 0.60401 0.52358 0.68437 0.0
C875 C 0.59354 0.56728 0.71 0.0
C876 C 0.60407 0.59162 0.7245 0.0
C877 C 0.6112 0.54403 0.70532 0.0
C878 C 0.62987 0.59013 0.73948 0.0
C879 C 0.64681 0.56596 0.73671 0.0
H880 H 0.81184 0.34342 0.04326 0.0
H881 H 0.76345 0.28471 0.09508 0.0
H882 H 0.71934 0.30921 0.08342 0.0
H883 H 0.69988 0.35532 0.07226 0.0
H884 H 0.74811 0.41634 0.0256 0.0
H885 H 0.78634 0.38187 0.01784 0.0
C886 C 0.7916 0.336 0.05182 0.0
C887 C 0.79075 0.31371 0.07143 0.0
C888 C 0.76658 0.35018 0.04522 0.0
C889 C 0.76443 0.30286 0.08103 0.0
C890 C 0.73925 0.31648 0.07402 0.0
C891 C 0.71795 0.36053 0.0589 0.0
C892 C 0.72531 0.38922 0.05512 0.0
C893 C 0.7405 0.34134 0.0579 0.0
C894 C 0.74505 0.39478 0.03313 0.0
C895 C 0.76736 0.37547 0.02947 0.0
H896 H 0.74749 0.69327 0.54625 0.0
H897 H 0.7514 0.71813 0.63443 0.0
H898 H 0.74384 0.66861 0.64867 0.0
H899 H 0.71931 0.62353 0.63583 0.0
H900 H 0.70331 0.60343 0.54709 0.0
H901 H 0.72783 0.64698 0.53296 0.0
C902 C 0.74813 0.68736 0.56859 0.0
C903 C 0.74668 0.70909 0.58936 0.0
C904 C 0.73812 0.66031 0.57619 0.0
C905 C 0.7503 0.70166 0.618 0.0
C906 C 0.74476 0.67355 0.62615 0.0
C907 C 0.72148 0.6285 0.61337 0.0
C908 C 0.7089 0.61064 0.59248 0.0
C909 C 0.73566 0.65355 0.60543 0.0
C910 C 0.71216 0.61723 0.56351 0.0
C911 C 0.72672 0.6418 0.5554 0.0
H912 H 0.93202 0.99383 0.29106 0.0
H913 H 0.95198 0.97414 0.20297 0.0
H914 H 0.95676 0.02477 0.19301 0.0
H915 H 0.97299 0.07027 0.21336 0.0
H916 H 0.96218 0.08786 0.30333 0.0
H917 H 0.93605 0.04284 0.30875 0.0
C918 C 0.93647 1.00069 0.26944 0.0
C919 C 0.94368 0.98046 0.24823 0.0
C920 C 0.94188 0.02953 0.26459 0.0
C921 C 0.94758 0.98939 0.21998 0.0
C922 C 0.95068 0.01835 0.21435 0.0
C923 C 0.96418 0.06451 0.23398 0.0
C924 C 0.97053 0.08128 0.25822 0.0
C925 C 0.95085 0.03806 0.23713 0.0
C926 C 0.95811 0.07465 0.2846 0.0
C927 C 0.9433 0.04891 0.28767 0.0
H928 H 0.29473 0.72178 0.52798 0.0
H929 H 0.25981 0.77179 0.59766 0.0
H930 H 0.21283 0.75035 0.58924 0.0
H931 H 0.18061 0.72523 0.55619 0.0
H932 H 0.21524 0.67815 0.48446 0.0
H933 H 0.26358 0.68965 0.50038 0.0
C934 C 0.27685 0.72804 0.54136 0.0
C935 C 0.28057 0.74908 0.56281 0.0
C936 C 0.24988 0.71599 0.53614 0.0
C937 C 0.2574 0.75615 0.58058 0.0
C938 C 0.23053 0.74389 0.57579 0.0
C939 C 0.19869 0.7163 0.54475 0.0
C940 C 0.19434 0.70132 0.51882 0.0
C941 C 0.22632 0.72469 0.5529 0.0
C942 C 0.21805 0.68988 0.50436 0.0
C943 C 0.24568 0.69697 0.51313 0.0
H944 H 0.5489 0.94308 0.68248 0.0
H945 H 0.46014 0.95537 0.66434 0.0
H946 H 0.46704 0.00716 0.66593 0.0
H947 H 0.49492 0.04681 0.6874 0.0
H948 H 0.582 0.03294 0.71208 0.0
H949 H 0.57985 0.98447 0.69234 0.0
C950 C 0.53154 0.95717 0.67707 0.0
C951 C 0.504 0.94559 0.67342 0.0
C952 C 0.53542 0.98686 0.6801 0.0
C953 C 0.48148 0.96392 0.66706 0.0
C954 C 0.4854 0.99355 0.66851 0.0
C955 C 0.51386 0.03366 0.6869 0.0
C956 C 0.53864 0.04336 0.701 0.0
C957 C 0.51177 1.00513 0.6772 0.0
C958 C 0.56284 0.02596 0.70103 0.0
C959 C 0.56144 0.99808 0.6901 0.0
H960 H 0.32283 0.30267 0.94711 0.0
H961 H 0.28817 0.23028 0.90106 0.0
H962 H 0.2409 0.25247 0.90148 0.0
H963 H 0.20852 0.28311 0.92989 0.0
H964 H 0.24362 0.35078 0.98257 0.0
H965 H 0.29138 0.34034 0.96458 0.0
C966 C 0.30498 0.29223 0.93641 0.0
C967 C 0.30851 0.26479 0.92459 0.0
C968 C 0.27774 0.30395 0.9389 0.0
C969 C 0.28568 0.25134 0.9105 0.0
C970 C 0.25862 0.2638 0.91127 0.0
C971 C 0.22643 0.29661 0.93616 0.0
C972 C 0.22276 0.31737 0.95791 0.0
C973 C 0.25406 0.28884 0.92753 0.0
C974 C 0.24605 0.33463 0.96598 0.0
C975 C 0.2734 0.3283 0.95606 0.0
H976 H 0.22713 0.95034 0.96269 0.0
H977 H 0.19044 0.01788 0.91412 0.0
H978 H 0.17097 0.03944 0.95781 0.0
H979 H 0.17609 0.0455 0.01046 0.0
H980 H 0.21754 0.97923 0.05766 0.0
H981 H 0.22364 0.95109 0.01431 0.0
C982 C 0.21357 0.96895 0.96159 0.0
C983 C 0.21095 0.98301 0.93557 0.0
C984 C 0.20451 0.9823 0.98687 0.0
C985 C 0.19306 0.00685 0.93409 0.0
C986 C 0.18251 0.01959 0.95918 0.0
C987 C 0.186 0.02472 0.01119 0.0
C988 C 0.19735 0.01499 0.037 0.0
C989 C 0.19008 0.00867 0.98584 0.0
C990 C 0.20963 0.98773 0.03784 0.0
C991 C 0.21287 0.97141 0.0131 0.0
H992 H 0.25349 0.08434 0.2377 0.0
H993 H 0.27121 1.00306 0.19721 0.0
H994 H 0.28633 0.98399 0.2427 0.0
H995 H 0.28878 0.98828 0.2946 0.0
H996 H 0.2688 0.06852 0.336 0.0
H997 H 0.26122 0.09017 0.28956 0.0
C998 C 0.26114 0.06262 0.23872 0.0
C999 C 0.26081 0.04511 0.21402 0.0
C1000 C 0.26943 0.05149 0.2652 0.0
C1001 C 0.27083 0.01698 0.21585 0.0
C1002 C 0.27956 1.00601 0.24191 0.0
C1003 C 0.28352 0.01072 0.29356 0.0
C1004 C 0.27912 0.02658 0.31893 0.0
C1005 C 0.27816 0.02278 0.26684 0.0
C1006 C 0.27226 0.05567 0.31692 0.0
C1007 C 0.26765 0.06805 0.29032 0.0
H1008 H 0.20222 0.04236 0.48063 0.0
H1009 H 0.17893 0.95437 0.49361 0.0
H1010 H 0.17303 0.96386 0.54499 0.0
H1011 H 0.18609 0.99438 0.58595 0.0
H1012 H 0.21566 0.08031 0.57224 0.0
H1013 H 0.20496 0.07555 0.52144 0.0
C1014 C 0.19523 0.02547 0.49473 0.0
C1015 C 0.19172 0.99761 0.48386 0.0
C1016 C 0.19239 0.03105 0.524 0.0
C1017 C 0.18207 0.97588 0.50184 0.0
C1018 C 0.17868 0.98135 0.5311 0.0
C1019 C 0.18848 0.01262 0.57207 0.0
C1020 C 0.20229 0.03742 0.58248 0.0
C1021 C 0.18519 0.00854 0.54254 0.0
C1022 C 0.20518 0.061 0.56456 0.0
C1023 C 0.19988 0.05793 0.53537 0.0
H1024 H 0.33211 0.02696 0.78589 0.0
H1025 H 0.24071 0.0353 0.79744 0.0
H1026 H 0.23213 1.00248 0.75894 0.0
H1027 H 0.2486 0.97055 0.72347 0.0
H1028 H 0.3375 0.96863 0.69949 0.0
H1029 H 0.34906 0.99898 0.74168 0.0
C1030 C 0.3104 0.02194 0.7796 0.0
C1031 C 0.28718 0.03322 0.79558 0.0
C1032 C 0.30508 1.0037 0.75555 0.0
C1033 C 0.25921 0.02673 0.78648 0.0
C1034 C 0.25406 0.00773 0.76431 0.0
C1035 C 0.27072 0.9766 0.727 0.0
C1036 C 0.29207 0.96694 0.7082 0.0
C1037 C 0.27668 0.9958 0.74913 0.0
C1038 C 0.32052 0.97529 0.71375 0.0
C1039 C 0.32703 0.99304 0.73766 0.0
H1040 H 0.97066 0.24074 0.05459 0.0
H1041 H 0.97584 0.32245 0.01397 0.0
H1042 H 0.02724 0.3158 1.00603 0.0
H1043 H 0.06908 0.28469 0.00735 0.0
H1044 H 0.065 0.20507 0.05229 0.0
H1045 H 0.01422 0.21307 0.0627 0.0
C1046 C 0.98328 0.2574 0.04478 0.0
C1047 C 0.9698 0.28198 0.03479 0.0
C1048 C 0.01261 0.25362 0.04101 0.0
C1049 C 0.986 0.30345 0.02182 0.0
C1050 C 0.01522 0.29954 0.01722 0.0
C1051 C 0.05716 0.26923 0.01972 0.0
C1052 C 0.07043 0.24404 0.0286 0.0
C1053 C 0.02851 0.2744 0.02617 0.0
C1054 C 0.05503 0.22439 0.045 0.0
C1055 C 0.02612 0.22898 0.05088 0.0
H1056 H 0.47808 0.27617 0.04893 0.0
H1057 H 0.44225 0.31659 0.97517 0.0
H1058 H 0.48893 0.33464 0.96163 0.0
H1059 H 0.54116 0.32886 0.9647 0.0
H1060 H 0.5769 0.29319 0.04068 0.0
H1061 H 0.52927 0.28406 0.05969 0.0
C1062 C 0.48034 0.28994 0.03063 0.0
C1063 C 0.4568 0.29441 0.01286 0.0
C1064 C 0.50738 0.3008 0.02302 0.0
C1065 C 0.45998 0.31261 0.9893 0.0
C1066 C 0.48682 0.3228 0.98126 0.0
C1067 C 0.53843 0.32047 0.98602 0.0
C1068 C 0.56233 0.31131 1.00109 0.0
C1069 C 0.51089 0.31561 0.99705 0.0
C1070 C 0.5587 0.3003 0.02864 0.0
C1071 C 0.53143 0.2948 0.03944 0.0
H1072 H 0.04932 0.24706 0.3137 0.0
H1073 H 0.09405 0.24516 0.2331 0.0
H1074 H 0.09076 0.29716 0.23018 0.0
H1075 H 0.06821 0.34147 0.24693 0.0
H1076 H 0.02161 0.3424 0.32662 0.0
H1077 H 0.03351 0.29252 0.33408 0.0
C1078 C 0.05876 0.25814 0.29575 0.0
C1079 C 0.07142 0.24248 0.27341 0.0
C1080 C 0.05653 0.28779 0.29414 0.0
C1081 C 0.08409 0.25691 0.25048 0.0
C1082 C 0.08211 0.28657 0.24878 0.0
C1083 C 0.06151 0.33107 0.26641 0.0
C1084 C 0.04369 0.34542 0.28603 0.0
C1085 C 0.06746 0.30208 0.27 0.0
C1086 C 0.03513 0.33165 0.31113 0.0
C1087 C 0.0417 0.30309 0.31527 0.0
H1088 H 0.0439 0.8044 0.53863 0.0
H1089 H 0.03313 0.81005 0.44768 0.0
H1090 H 0.98112 0.81166 0.45401 0.0
H1091 H 0.94011 0.79879 0.48438 0.0
H1092 H 0.95263 0.78426 0.57401 0.0
H1093 H 1.00235 0.80006 0.56987 0.0
C1094 C 0.03012 0.80693 0.52028 0.0
C1095 C 0.04206 0.80669 0.49265 0.0
C1096 C 1.0005 0.80621 0.52413 0.0
C1097 C 0.02428 0.81025 0.46903 0.0
C1098 C 0.99459 0.81086 0.47273 0.0
C1099 C 0.95339 0.80069 0.50327 0.0
C1100 C 0.94282 0.79078 0.52958 0.0
C1101 C 0.98252 0.80717 0.50004 0.0
C1102 C 0.96025 0.79233 0.55377 0.0
C1103 C 0.9888 0.80081 0.55121 0.0
H1104 H 0.56568 0.76624 0.50751 0.0
H1105 H 0.55668 0.71595 0.58363 0.0
H1106 H 0.50508 0.72483 0.58389 0.0
H1107 H 0.46327 0.74908 0.56353 0.0
H1108 H 0.47447 0.80348 0.4908 0.0
H1109 H 0.52492 0.79046 0.48781 0.0
C1110 C 0.55251 0.75676 0.52401 0.0
C1111 C 0.56498 0.74008 0.54534 0.0
C1112 C 0.52338 0.76273 0.5245 0.0
C1113 C 0.54756 0.72864 0.56687 0.0
C1114 C 0.51814 0.73376 0.56701 0.0
C1115 C 0.47679 0.75762 0.54676 0.0
C1116 C 0.4654 0.77673 0.52699 0.0
C1117 C 0.50591 0.751 0.54605 0.0
C1118 C 0.48296 0.78849 0.5059 0.0
C1119 C 0.51168 0.78112 0.50432 0.0
H1120 H 0.96167 0.80709 0.22582 0.0
H1121 H 0.04696 0.78831 0.25415 0.0
H1122 H 0.03571 0.73726 0.25249 0.0
H1123 H 0.99981 0.69904 0.24947 0.0
H1124 H 0.91319 0.71879 0.22657 0.0
H1125 H 0.92695 0.7686 0.21912 0.0
C1126 C 0.97806 0.79187 0.23106 0.0
C1127 C 1.00509 0.8015 0.24027 0.0
C1128 C 0.9711 0.76279 0.23117 0.0
C1129 C 0.02595 0.78144 0.24716 0.0
C1130 C 0.01951 0.75229 0.24627 0.0
C1131 C 0.98412 0.71409 0.24207 0.0
C1132 C 0.95553 0.70536 0.2385 0.0
C1133 C 0.99188 0.74283 0.23922 0.0
C1134 C 0.9353 0.72512 0.22944 0.0
C1135 C 0.94313 0.75356 0.22533 0.0
H1136 H 0.49794 0.20081 0.81535 0.0
H1137 H 0.44239 0.20228 0.74223 0.0
H1138 H 0.45795 0.25073 0.73171 0.0
H1139 H 0.49267 0.28911 0.7386 0.0
H1140 H 0.54742 0.28972 0.81249 0.0
H1141 H 0.5251 0.24497 0.82829 0.0
C1142 C 0.48827 0.21226 0.79796 0.0
C1143 C 0.46919 0.1979 0.77944 0.0
C1144 C 0.49789 0.24009 0.7915 0.0
C1145 C 0.45713 0.2129 0.75675 0.0
C1146 C 0.46637 0.24045 0.75043 0.0
C1147 C 0.50039 0.27931 0.75789 0.0
C1148 C 0.52283 0.29224 0.77348 0.0
C1149 C 0.48794 0.25353 0.7667 0.0
C1150 C 0.53122 0.27969 0.79922 0.0
C1151 C 0.51858 0.25406 0.80828 0.0
H1152 H 0.44866 0.47192 0.74628 0.0
H1153 H 0.51498 0.45919 0.68343 0.0
H1154 H 0.51825 0.51063 0.67615 0.0
H1155 H 0.51052 0.55875 0.6965 0.0
H1156 H 0.44877 0.57024 0.76405 0.0
H1157 H 0.43514 0.51994 0.76057 0.0
C1158 C 0.46318 0.48038 0.73033 0.0
C1159 C 0.48206 0.46202 0.716 0.0
C1160 C 0.46613 0.50988 0.72758 0.0
C1161 C 0.50038 0.473 0.69493 0.0
C1162 C 0.50251 0.50245 0.69102 0.0
C1163 C 0.49344 0.5503 0.70971 0.0
C1164 C 0.48083 0.56774 0.73073 0.0
C1165 C 0.48679 0.52109 0.70857 0.0
C1166 C 0.45889 0.55686 0.74799 0.0
C1167 C 0.45116 0.52818 0.74602 0.0
H1168 H 0.80498 0.20357 0.9867 0.0
H1169 H 0.7799 0.20265 0.07549 0.0
H1170 H 0.73011 0.19714 0.06193 0.0
H1171 H 0.69327 0.2007 0.02509 0.0
H1172 H 0.7183 0.20081 0.93625 0.0
H1173 H 0.76823 0.19789 0.94969 0.0
C1174 C 0.78869 0.20149 1.00308 0.0
C1175 C 0.79622 0.20407 0.03202 0.0
C1176 C 0.75991 0.19845 0.99518 0.0
C1177 C 0.77483 0.20091 0.05299 0.0
C1178 C 0.74622 0.19792 0.04529 0.0
C1179 C 0.70956 0.1993 0.00863 0.0
C1180 C 0.70196 0.20174 0.97976 0.0
C1181 C 0.73842 0.19786 0.01646 0.0
C1182 C 0.72342 0.19939 0.95872 0.0
C1183 C 0.75211 0.1979 0.96635 0.0
H1184 H 0.92 0.45292 0.20634 0.0
H1185 H 0.98791 0.48418 0.15314 0.0
H1186 H 0.99114 0.52782 0.18203 0.0
H1187 H 0.98504 0.54857 0.23009 0.0
H1188 H 0.91943 0.5156 0.28549 0.0
H1189 H 0.90629 0.47971 0.24947 0.0
C1190 C 0.93433 0.47011 0.20012 0.0
C1191 C 0.95513 0.46473 0.17912 0.0
C1192 C 0.93833 0.49328 0.21896 0.0
C1193 C 0.97244 0.4875 0.17009 0.0
C1194 C 0.97506 0.51196 0.1873 0.0
C1195 C 0.96785 0.53356 0.23434 0.0
C1196 C 0.95451 0.53332 0.26131 0.0
C1197 C 0.96 0.5136 0.2132 0.0
C1198 C 0.93138 0.51468 0.26579 0.0
C1199 C 0.92345 0.49465 0.24493 0.0
H1200 H 0.7242 0.73601 0.50087 0.0
H1201 H 0.7239 0.81555 0.45606 0.0
H1202 H 0.7573 0.79581 0.42038 0.0
H1203 H 0.79501 0.76034 0.41058 0.0
H1204 H 0.79906 0.68673 0.46341 0.0
H1205 H 0.75348 0.69691 0.48401 0.0
C1206 C 0.73074 0.74871 0.48273 0.0
C1207 C 0.72232 0.77727 0.48124 0.0
C1208 C 0.74991 0.73736 0.46279 0.0
C1209 C 0.73058 0.79358 0.45769 0.0
C1210 C 0.74958 0.78224 0.43734 0.0
C1211 C 0.78481 0.74561 0.42519 0.0
C1212 C 0.80036 0.72186 0.4346 0.0
C1213 C 0.76061 0.75465 0.44066 0.0
C1214 C 0.787 0.7032 0.45368 0.0
C1215 C 0.7615 0.71042 0.4671 0.0
H1216 H 0.74057 0.55857 0.51879 0.0
H1217 H 0.79006 0.48246 0.53074 0.0
H1218 H 0.82452 0.49855 0.49506 0.0
H1219 H 0.83553 0.5298 0.45493 0.0
H1220 H 0.77711 0.59664 0.43584 0.0
H1221 H 0.75568 0.59299 0.48283 0.0
C1222 C 0.75887 0.54543 0.5136 0.0
C1223 C 0.76208 0.51879 0.52656 0.0
C1224 C 0.77836 0.55452 0.49278 0.0
C1225 C 0.78653 0.50262 0.52037 0.0
C1226 C 0.80645 0.51196 0.50022 0.0
C1227 C 0.81859 0.54413 0.46151 0.0
C1228 C 0.80909 0.56484 0.44226 0.0
C1229 C 0.80194 0.53734 0.48549 0.0
C1230 C 0.78672 0.58259 0.45082 0.0
C1231 C 0.77301 0.57896 0.47699 0.0
H1232 H 0.77914 0.55024 0.71878 0.0
H1233 H 0.80147 0.4665 0.68673 0.0
H1234 H 0.81344 0.45183 0.73493 0.0
H1235 H 0.80905 0.46002 0.78637 0.0
H1236 H 0.78259 0.54242 0.81861 0.0
H1237 H 0.78157 0.56056 0.77005 0.0
C1238 C 0.7872 0.52894 0.72217 0.0
C1239 C 0.78878 0.50931 0.69919 0.0
C1240 C 0.79313 0.52033 0.75005 0.0
C1241 C 0.79962 0.48194 0.70403 0.0
C1242 C 0.80642 0.47349 0.73164 0.0
C1243 C 0.80382 0.4822 0.78293 0.0
C1244 C 0.79534 0.49966 0.8061 0.0
C1245 C 0.80199 0.4921 0.7549 0.0
C1246 C 0.78888 0.5284 0.80116 0.0
C1247 C 0.78808 0.53874 0.77336 0.0
H1248 H 0.69795 0.45904 0.06544 0.0
H1249 H 0.73792 0.54136 0.05519 0.0
H1250 H 0.72531 0.54055 1.00433 0.0
H1251 H 0.71156 0.51241 0.96244 0.0
H1252 H 0.67948 0.42647 0.97148 0.0
H1253 H 0.67939 0.4327 0.02367 0.0
C1254 C 0.70279 0.47723 0.05214 0.0
C1255 C 0.71826 0.50049 0.06366 0.0
C1256 C 0.69718 0.47559 0.02291 0.0
C1257 C 0.72559 0.52361 0.04655 0.0
C1258 C 0.71858 0.52294 0.01759 0.0
C1259 C 0.70391 0.49525 0.97589 0.0
C1260 C 0.696 0.46884 0.96346 0.0
C1261 C 0.70565 0.49846 1.00545 0.0
C1262 C 0.68565 0.4469 0.98074 0.0
C1263 C 0.68589 0.45042 0.01047 0.0
H1264 H 0.73993 0.45656 0.33608 0.0
H1265 H 0.66103 0.50117 0.32354 0.0
H1266 H 0.65414 0.4763 0.27791 0.0
H1267 H 0.67716 0.45294 0.23713 0.0
H1268 H 0.75897 0.41309 0.24711 0.0
H1269 H 0.75831 0.42489 0.29826 0.0
C1270 C 0.7205 0.45969 0.32404 0.0
C1271 C 0.70111 0.48084 0.33286 0.0
C1272 C 0.71789 0.44701 0.29688 0.0
C1273 C 0.67618 0.48499 0.31703 0.0
C1274 C 0.67253 0.47114 0.29075 0.0
C1275 C 0.69451 0.44625 0.2507 0.0
C1276 C 0.71844 0.43293 0.23849 0.0
C1277 C 0.69431 0.45388 0.27965 0.0
C1278 C 0.7405 0.42367 0.25615 0.0
C1279 C 0.74014 0.43052 0.28531 0.0
H1280 H 0.49252 0.72752 0.83266 0.0
H1281 H 0.58075 0.7314 0.80612 0.0
H1282 H 0.57868 0.78309 0.80397 0.0
H1283 H 0.549 0.82574 0.79996 0.0
H1284 H 0.46127 0.82212 0.82838 0.0
H1285 H 0.46635 0.77219 0.84023 0.0
C1286 C 0.5115 0.73977 0.82729 0.0
C1287 C 0.53644 0.72561 0.81892 0.0
C1288 C 0.51026 0.76962 0.82607 0.0
C1289 C 0.5611 0.74174 0.81246 0.0
C1290 C 0.55995 0.77138 0.81102 0.0
C1291 C 0.53128 0.81432 0.80963 0.0
C1292 C 0.50455 0.82738 0.81217 0.0
C1293 C 0.53421 0.7854 0.81633 0.0
C1294 C 0.48198 0.81241 0.8254 0.0
C1295 C 0.48475 0.78373 0.8321 0.0
H1296 H 0.1193 0.14727 0.34381 0.0
H1297 H 0.04712 0.08941 0.3428 0.0
H1298 H 0.07704 0.05205 0.3628 0.0
H1299 H 0.1244 0.03475 0.37753 0.0
H1300 H 0.19708 0.09194 0.37657 0.0
H1301 H 0.16623 0.13051 0.36042 0.0
C1302 C 0.10983 0.12661 0.34828 0.0
C1303 C 0.08057 0.12149 0.34175 0.0
C1304 C 0.12747 0.10492 0.35913 0.0
C1305 C 0.06918 0.09436 0.34774 0.0
C1306 C 0.08649 0.07283 0.35897 0.0
C1307 C 0.1337 0.05563 0.37384 0.0
C1308 C 0.16347 0.06007 0.37817 0.0
C1309 C 0.11578 0.07769 0.36424 0.0
C1310 C 0.17455 0.0876 0.37358 0.0
C1311 C 0.15681 0.1097 0.36421 0.0
H1312 H 0.12327 0.8557 0.55819 0.0
H1313 H 0.17978 0.78742 0.57976 0.0
H1314 H 0.20896 0.82116 0.6082 0.0
H1315 H 0.22046 0.87112 0.62407 0.0
H1316 H 0.16372 0.93916 0.6016 0.0
H1317 H 0.13284 0.90463 0.57657 0.0
C1318 C 0.1417 0.84788 0.56949 0.0
C1319 C 0.14897 0.81848 0.56671 0.0
C1320 C 0.1586 0.86768 0.58553 0.0
C1321 C 0.17316 0.80939 0.58163 0.0
C1322 C 0.19006 0.82895 0.59771 0.0
C1323 C 0.20114 0.87853 0.61406 0.0
C1324 C 0.19467 0.90826 0.61514 0.0
C1325 C 0.18332 0.8583 0.59943 0.0
C1326 C 0.16943 0.91683 0.60167 0.0
C1327 C 0.15174 0.89693 0.58713 0.0
H1328 H 0.38813 0.92821 0.75586 0.0
H1329 H 0.44115 0.92136 0.83035 0.0
H1330 H 0.40014 0.93377 0.86088 0.0
H1331 H 0.34905 0.9473 0.86636 0.0
H1332 H 0.29683 0.95567 0.79154 0.0
H1333 H 0.33711 0.94016 0.76153 0.0
C1334 C 0.391 0.93008 0.77878 0.0
C1335 C 0.41832 0.92462 0.79055 0.0
C1336 C 0.36717 0.93708 0.79622 0.0
C1337 C 0.42101 0.92632 0.82042 0.0
C1338 C 0.39726 0.93287 0.83794 0.0
C1339 C 0.34636 0.94603 0.84344 0.0
C1340 C 0.31973 0.95367 0.83129 0.0
C1341 C 0.37021 0.93845 0.82609 0.0
C1342 C 0.31701 0.95105 0.80153 0.0
C1343 C 0.34019 0.94238 0.78433 0.0
H1344 H 0.28179 0.15226 0.11793 0.0
H1345 H 0.3053 0.07718 0.06927 0.0
H1346 H 0.3388 0.10649 0.04155 0.0
H1347 H 0.35797 0.15441 0.02755 0.0
H1348 H 0.33019 0.22968 0.07307 0.0
H1349 H 0.30231 0.1994 0.10548 0.0
C1350 C 0.29365 0.14202 0.10083 0.0
C1351 C 0.28996 0.11202 0.09563 0.0
C1352 C 0.31168 0.15942 0.08368 0.0
C1353 C 0.30689 0.09983 0.07392 0.0
C1354 C 0.3258 0.11687 0.05759 0.0
C1355 C 0.34504 0.16447 0.04388 0.0
C1356 C 0.3457 0.19488 0.04685 0.0
C1357 C 0.32762 0.14685 0.06153 0.0
C1358 C 0.32975 0.20683 0.06937 0.0
C1359 C 0.31375 0.18932 0.088 0.0
H1360 H 0.04484 0.95067 0.17726 0.0
H1361 H 0.10343 0.89308 0.21698 0.0
H1362 H 0.14373 0.91846 0.19665 0.0
H1363 H 0.16411 0.96013 0.17011 0.0
H1364 H 0.10465 0.01297 0.12496 0.0
H1365 H 0.06496 0.98697 0.14446 0.0
C1366 C 0.06628 0.94314 0.18099 0.0
C1367 C 0.07025 0.91985 0.19937 0.0
C1368 C 0.09024 0.95767 0.16851 0.0
C1369 C 0.09887 0.91101 0.20345 0.0
C1370 C 0.12242 0.92569 0.1918 0.0
C1371 C 0.14261 0.96581 0.16414 0.0
C1372 C 0.13847 0.98966 0.1464 0.0
C1373 C 0.11865 0.94964 0.17475 0.0
C1374 C 0.10968 0.9956 0.13902 0.0
C1375 C 0.08631 0.98049 0.15016 0.0
H1376 H 0.28334 0.89303 0.4176 0.0
H1377 H 0.32795 0.9671 0.45087 0.0
H1378 H 0.35806 0.93585 0.47945 0.0
H1379 H 0.36982 0.88783 0.49733 0.0
H1380 H 0.32193 0.81424 0.46755 0.0
H1381 H 0.29502 0.84497 0.43552 0.0
C1382 C 0.29922 0.90263 0.4315 0.0
C1383 C 0.30277 0.93291 0.4321 0.0
C1384 C 0.31572 0.88447 0.44884 0.0
C1385 C 0.3242 0.94429 0.44993 0.0
C1386 C 0.34152 0.92624 0.46629 0.0
C1387 C 0.35339 0.87824 0.48402 0.0
C1388 C 0.34807 0.84824 0.4854 0.0
C1389 C 0.33714 0.89635 0.46636 0.0
C1390 C 0.32686 0.83684 0.46728 0.0
C1391 C 0.31116 0.85462 0.4491 0.0
H1392 H 0.34718 0.04421 0.64739 0.0
H1393 H 0.29166 0.05424 0.72033 0.0
H1394 H 0.33198 0.07426 0.74803 0.0
H1395 H 0.38361 0.0887 0.75157 0.0
H1396 H 0.43795 0.07847 0.67752 0.0
H1397 H 0.39761 0.05886 0.65053 0.0
C1398 C 0.34357 0.05089 0.66935 0.0
C1399 C 0.31587 0.04751 0.68155 0.0
C1400 C 0.36694 0.06238 0.68509 0.0
C1401 C 0.31237 0.0562 0.7102 0.0
C1402 C 0.33559 0.06778 0.72604 0.0
C1403 C 0.38676 0.08237 0.72945 0.0
C1404 C 0.4144 0.08552 0.7168 0.0
C1405 C 0.36308 0.07093 0.71376 0.0
C1406 C 0.41742 0.07678 0.68808 0.0
C1407 C 0.39418 0.06541 0.67254 0.0
H1408 H 0.15079 0.1594 0.95241 0.0
H1409 H 0.21157 0.22441 0.92933 0.0
H1410 H 0.24184 0.18815 0.90624 0.0
H1411 H 0.25218 0.13689 0.89432 0.0
H1412 H 0.1899 0.07256 0.91676 0.0
H1413 H 0.15958 0.10912 0.93818 0.0
C1414 C 0.17041 0.16583 0.94188 0.0
C1415 C 0.17844 0.19514 0.94224 0.0
C1416 C 0.18778 0.1446 0.92867 0.0
C1417 C 0.20428 0.20249 0.92872 0.0
C1418 C 0.22181 0.18151 0.91582 0.0
C1419 C 0.23189 0.13077 0.9037 0.0
C1420 C 0.22373 0.1014 0.90372 0.0
C1421 C 0.21398 0.15234 0.91584 0.0
C1422 C 0.19713 0.09453 0.91613 0.0
C1423 C 0.17962 0.11562 0.92851 0.0
H1424 H 0.14142 0.34765 0.09035 0.0
H1425 H 0.07303 0.33157 0.03067 0.0
H1426 H 0.03876 0.35027 0.06557 0.0
H1427 H 0.02751 0.36884 0.11385 0.0
H1428 H 0.09529 0.38544 0.17406 0.0
H1429 H 0.13029 0.36948 0.13804 0.0
C1430 C 0.11908 0.34858 0.08458 0.0
C1431 C 0.11016 0.33775 0.05732 0.0
C1432 C 0.09924 0.35953 0.10507 0.0
C1433 C 0.08089 0.33931 0.05104 0.0
C1434 C 0.06117 0.3501 0.07119 0.0
C1435 C 0.04997 0.36928 0.11931 0.0
C1436 C 0.05839 0.37849 0.14724 0.0
C1437 C 0.06999 0.35986 0.09843 0.0
C1438 C 0.08781 0.37885 0.15312 0.0
C1439 C 0.1079 0.36947 0.13241 0.0
H1440 H 0.55923 0.19486 0.79349 0.0
H1441 H 0.58798 0.11273 0.82162 0.0
H1442 H 0.60376 0.13372 0.86657 0.0
H1443 H 0.60973 0.17561 0.89951 0.0
H1444 H 0.58885 0.25881 0.86853 0.0
H1445 H 0.57296 0.23771 0.82336 0.0
C1446 C 0.56923 0.18151 0.80921 0.0
C1447 C 0.57134 0.15172 0.80371 0.0
C1448 C 0.57983 0.19405 0.83525 0.0
C1449 C 0.58519 0.13546 0.82474 0.0
C1450 C 0.59434 0.1475 0.85087 0.0
C1451 C 0.60044 0.18905 0.88343 0.0
C1452 C 0.59929 0.2189 0.88852 0.0
C1453 C 0.59132 0.17674 0.8568 0.0
C1454 C 0.58891 0.23578 0.86618 0.0
C1455 C 0.57949 0.22366 0.84015 0.0
H1456 H 0.92114 0.89168 0.3534 0.0
H1457 H 0.92432 0.82519 0.28878 0.0
H1458 H 0.9052 0.79109 0.32351 0.0
H1459 H 0.89299 0.77917 0.37316 0.0
H1460 H 0.89383 0.84481 0.43885 0.0
H1461 H 0.90651 0.88022 0.40261 0.0
C1462 C 0.91722 0.86981 0.34653 0.0
C1463 C 0.92428 0.86126 0.31802 0.0
C1464 C 0.90758 0.85006 0.36707 0.0
C1465 C 0.9188 0.83276 0.31003 0.0
C1466 C 0.90828 0.81313 0.33016 0.0
C1467 C 0.89568 0.80124 0.37987 0.0
C1468 C 0.89244 0.80902 0.40929 0.0
C1469 C 0.90347 0.82137 0.35893 0.0
C1470 C 0.89606 0.83793 0.4168 0.0
C1471 C 0.90337 0.85819 0.39595 0.0
H1472 H 0.95705 0.22242 0.097 0.0
H1473 H 0.89255 0.15773 0.10846 0.0
H1474 H 0.91619 0.1421 0.15193 0.0
H1475 H 0.95328 0.14963 0.18928 0.0
H1476 H 0.01973 0.21187 0.17571 0.0
H1477 H 0.99887 0.22364 0.12937 0.0
C1478 C 0.94919 0.20365 0.10777 0.0
C1479 C 0.92345 0.19066 0.09845 0.0
C1480 C 0.96272 0.19507 0.13324 0.0
C1481 C 0.91279 0.16751 0.11425 0.0
C1482 C 0.92594 0.15905 0.13967 0.0
C1483 C 0.96234 0.16687 0.17686 0.0
C1484 C 0.98682 0.18151 0.1872 0.0
C1485 C 0.95025 0.17352 0.15006 0.0
C1486 C 0.99972 0.20188 0.16948 0.0
C1487 C 0.98796 0.20838 0.1428 0.0
H1488 H 0.47542 0.673 0.67133 0.0
H1489 H 0.41804 0.68811 0.74205 0.0
H1490 H 0.38177 0.70494 0.7083 0.0
H1491 H 0.36962 0.72214 0.65945 0.0
H1492 H 0.42873 0.70763 0.58997 0.0
H1493 H 0.46115 0.68401 0.62264 0.0
C1494 C 0.45495 0.67985 0.67967 0.0
C1495 C 0.44995 0.67984 0.70966 0.0
C1496 C 0.43457 0.68986 0.66021 0.0
C1497 C 0.4228 0.68797 0.71941 0.0
C1498 C 0.40208 0.69768 0.69998 0.0
C1499 C 0.38921 0.71303 0.6512 0.0
C1500 C 0.39652 0.71678 0.6219 0.0
C1501 C 0.40813 0.6997 0.67042 0.0
C1502 C 0.42215 0.7049 0.61197 0.0
C1503 C 0.44092 0.69163 0.63084 0.0
H1504 H 0.07719 0.71821 0.39643 0.0
H1505 H 0.06868 0.655 0.4618 0.0
H1506 H 0.04241 0.62368 0.42822 0.0
H1507 H 0.01934 0.615 0.38062 0.0
H1508 H 0.02745 0.67901 0.31574 0.0
H1509 H 0.05544 0.70905 0.34863 0.0
C1510 C 0.06912 0.69777 0.40362 0.0
C1511 C 0.07454 0.68957 0.4323 0.0
C1512 C 0.05372 0.67985 0.38403 0.0
C1513 C 0.06439 0.66255 0.44051 0.0
C1514 C 0.04967 0.64436 0.42098 0.0
C1515 C 0.02762 0.63528 0.3733 0.0
C1516 C 0.02111 0.6442 0.34499 0.0
C1517 C 0.04385 0.65284 0.3927 0.0
C1518 C 0.03208 0.67096 0.33676 0.0
C1519 C 0.04801 0.68842 0.35586 0.0
H1520 H 0.4093 0.28128 0.86306 0.0
H1521 H 0.41534 0.34611 0.92902 0.0
H1522 H 0.43582 0.37941 0.89404 0.0
H1523 H 0.45618 0.38839 0.84574 0.0
H1524 H 0.45099 0.32238 0.78067 0.0
H1525 H 0.42604 0.29131 0.81433 0.0
C1526 C 0.41473 0.30285 0.86989 0.0
C1527 C 0.41073 0.311 0.89898 0.0
C1528 C 0.42692 0.32159 0.84974 0.0
C1529 C 0.41777 0.33916 0.90701 0.0
C1530 C 0.42979 0.35811 0.88694 0.0
C1531 C 0.44926 0.36736 0.83863 0.0
C1532 C 0.45566 0.35797 0.81025 0.0
C1533 C 0.43507 0.34935 0.85838 0.0
C1534 C 0.44631 0.33054 0.80191 0.0
C1535 C 0.43215 0.31263 0.82134 0.0
H1536 H 0.6293 0.50541 0.85769 0.0
H1537 H 0.69802 0.56729 0.86275 0.0
H1538 H 0.66446 0.60507 0.85054 0.0
H1539 H 0.61666 0.61996 0.83474 0.0
H1540 H 0.54843 0.55804 0.8275 0.0
H1541 H 0.58059 0.52099 0.84502 0.0
C1542 C 0.63717 0.52717 0.85634 0.0
C1543 C 0.66672 0.53315 0.86101 0.0
C1544 C 0.61761 0.54886 0.84921 0.0
C1545 C 0.67582 0.56172 0.85928 0.0
C1546 C 0.65649 0.58338 0.85227 0.0
C1547 C 0.60846 0.5985 0.83776 0.0
C1548 C 0.57968 0.59212 0.83015 0.0
C1549 C 0.62746 0.57716 0.84684 0.0
C1550 C 0.5699 0.564 0.83384 0.0
C1551 C 0.58858 0.54268 0.84341 0.0
H1552 H 0.65683 0.36878 0.14532 0.0
H1553 H 0.65561 0.43374 0.08102 0.0
H1554 H 0.64366 0.39729 0.04479 0.0
H1555 H 0.64098 0.34619 0.03018 0.0
H1556 H 0.64298 0.28112 0.09413 0.0
H1557 H 0.64743 0.31824 0.13149 0.0
C1558 C 0.65336 0.37527 0.1235 0.0
C1559 C 0.65759 0.40448 0.11621 0.0
C1560 C 0.64684 0.35393 0.10256 0.0
C1561 C 0.65279 0.41187 0.08762 0.0
C1562 C 0.64599 0.39084 0.06677 0.0
C1563 C 0.64109 0.34001 0.05237 0.0
C1564 C 0.64094 0.31047 0.05912 0.0
C1565 C 0.64383 0.36168 0.07379 0.0
C1566 C 0.64236 0.30332 0.0881 0.0
C1567 C 0.64519 0.32471 0.1095 0.0
H1568 H 0.87822 0.5034 0.35132 0.0
H1569 H 0.81078 0.44794 0.32052 0.0
H1570 H 0.84608 0.41979 0.2937 0.0
H1571 H 0.89585 0.41169 0.2775 0.0
H1572 H 0.96377 0.46599 0.30929 0.0
H1573 H 0.92871 0.4932 0.33759 0.0
C1574 C 0.8711 0.48489 0.33909 0.0
C1575 C 0.84135 0.47795 0.33836 0.0
C1576 C 0.89177 0.46857 0.32371 0.0
C1577 C 0.83313 0.45383 0.3221 0.0
C1578 C 0.85346 0.43782 0.30646 0.0
C1579 C 0.90325 0.42957 0.29049 0.0
C1580 C 0.93296 0.43676 0.29062 0.0
C1581 C 0.8828 0.44517 0.30679 0.0
C1582 C 0.94146 0.45994 0.30809 0.0
C1583 C 0.92125 0.47541 0.32455 0.0
H1584 H 0.77037 0.59816 0.5536 0.0
H1585 H 0.83448 0.57997 0.6161 0.0
H1586 H 0.86087 0.62324 0.60277 0.0
H1587 H 0.86469 0.668 0.57523 0.0
H1588 H 0.80036 0.68705 0.51314 0.0
H1589 H 0.77672 0.64137 0.5227 0.0
C1590 C 0.79047 0.60332 0.56384 0.0
C1591 C 0.80053 0.58516 0.58563 0.0
C1592 C 0.80544 0.62884 0.55629 0.0
C1593 C 0.82646 0.59274 0.59884 0.0
C1594 C 0.84136 0.61791 0.59149 0.0
C1595 C 0.84496 0.66273 0.56428 0.0
C1596 C 0.83426 0.68186 0.54358 0.0
C1597 C 0.83073 0.63657 0.57077 0.0
C1598 C 0.80903 0.67359 0.52942 0.0
C1599 C 0.79532 0.64728 0.5351 0.0
H1600 H 0.69951 0.41565 0.654 0.0
H1601 H 0.64345 0.46744 0.60386 0.0
H1602 H 0.60214 0.44592 0.62616 0.0
H1603 H 0.58028 0.41433 0.66244 0.0
H1604 H 0.63531 0.35973 0.71039 0.0
H1605 H 0.67703 0.37936 0.68627 0.0
C1606 C 0.67834 0.4221 0.64772 0.0
C1607 C 0.67545 0.44369 0.627 0.0
C1608 C 0.65366 0.4088 0.66031 0.0
C1609 C 0.64722 0.45108 0.61945 0.0
C1610 C 0.6231 0.4387 0.63234 0.0
C1611 C 0.60125 0.4061 0.66716 0.0
C1612 C 0.60395 0.38529 0.68857 0.0
C1613 C 0.62582 0.41771 0.65309 0.0
C1614 C 0.6319 0.37561 0.69422 0.0
C1615 C 0.65615 0.38701 0.68041 0.0
H1616 H 0.84682 0.3639 1.00476 0.0
H1617 H 0.84825 0.29356 0.94431 0.0
H1618 H 0.82842 0.32476 0.90774 0.0
H1619 H 0.80989 0.37182 0.89299 0.0
H1620 H 0.80647 0.44122 0.95441 0.0
H1621 H 0.82842 0.41067 0.99012 0.0
C1622 C 0.84302 0.35509 0.98359 0.0
C1623 C 0.84949 0.32587 0.97768 0.0
C1624 C 0.83146 0.37326 0.9626 0.0
C1625 C 0.84388 0.31558 0.94987 0.0
C1626 C 0.83255 0.33361 0.92883 0.0
C1627 C 0.81416 0.38062 0.91408 0.0
C1628 C 0.80636 0.40939 0.92056 0.0
C1629 C 0.82628 0.36252 0.9349 0.0
C1630 C 0.8122 0.41966 0.94831 0.0
C1631 C 0.82464 0.40196 0.96892 0.0
H1632 H 0.79354 0.55565 0.16775 0.0
H1633 H 0.82722 0.47442 0.19206 0.0
H1634 H 0.86964 0.4979 0.21176 0.0
H1635 H 0.89719 0.54226 0.22471 0.0
H1636 H 0.86324 0.62342 0.20144 0.0
H1637 H 0.82226 0.59982 0.17894 0.0
C1638 C 0.80984 0.5431 0.17787 0.0
C1639 C 0.80623 0.513 0.17897 0.0
C1640 C 0.83504 0.55693 0.18894 0.0
C1641 C 0.82861 0.49749 0.19136 0.0
C1642 C 0.85333 0.51097 0.20236 0.0
C1643 C 0.88149 0.55469 0.21377 0.0
C1644 C 0.8843 0.58484 0.21445 0.0
C1645 C 0.85702 0.54075 0.20134 0.0
C1646 C 0.8625 0.60031 0.20097 0.0
C1647 C 0.8386 0.58674 0.18829 0.0
H1648 H 0.67002 0.64611 0.51539 0.0
H1649 H 0.68992 0.70934 0.45196 0.0
H1650 H 0.71009 0.67242 0.42106 0.0
H1651 H 0.72112 0.62223 0.41071 0.0
H1652 H 0.7008 0.55748 0.47194 0.0
H1653 H 0.68086 0.59438 0.50412 0.0
C1654 C 0.67865 0.65192 0.49476 0.0
C1655 C 0.67825 0.68116 0.48644 0.0
C1656 C 0.69023 0.6301 0.47653 0.0
C1657 C 0.68967 0.68758 0.4594 0.0
C1658 C 0.70136 0.66628 0.44156 0.0
C1659 C 0.71301 0.61608 0.43142 0.0
C1660 C 0.71334 0.58681 0.43891 0.0
C1661 C 0.70177 0.63753 0.44982 0.0
C1662 C 0.7017 0.5796 0.46562 0.0
C1663 C 0.69028 0.60092 0.48411 0.0
H1664 H 0.6056 0.8698 0.68607 0.0
H1665 H 0.52219 0.84554 0.65494 0.0
H1666 H 0.54213 0.83199 0.60921 0.0
H1667 H 0.58362 0.82284 0.57777 0.0
H1668 H 0.66724 0.84877 0.60663 0.0
H1669 H 0.64715 0.86542 0.65194 0.0
C1670 C 0.59163 0.86241 0.66908 0.0
C1671 C 0.56196 0.85932 0.67475 0.0
C1672 C 0.60345 0.8543 0.64178 0.0
C1673 C 0.54486 0.84878 0.65197 0.0
C1674 C 0.55635 0.84067 0.62541 0.0
C1675 C 0.5975 0.83262 0.59364 0.0
C1676 C 0.6272 0.83416 0.58811 0.0
C1677 C 0.58568 0.84275 0.62004 0.0
C1678 C 0.64437 0.84702 0.60962 0.0
C1679 C 0.63284 0.8566 0.63593 0.0
loop_
_geom_bond_atom_site_label_1
_geom_bond_atom_site_label_2
_geom_bond_distance
_geom_bond_site_symmetry_2
_ccdc_geom_bond_type
Sc0 O3 2.025 . S
Sc0 O10 2.105 . S
Sc0 O13 2.105 . S
Sc0 O16 2.105 . S
Sc0 O19 2.105 . S
Sc1 O3 2.025 . S
Sc1 O11 2.105 . S
Sc1 O15 2.105 1_455 S
Sc1 O17 2.105 . S
Sc1 O21 2.105 1_455 S
Sc2 O3 2.025 1_655 S
Sc2 O12 2.105 . S
Sc2 O14 2.105 . S
Sc2 O18 2.105 . S
Sc2 O20 2.105 1_655 S
O3 Sc0 2.025 . S
O3 Sc1 2.025 . S
O3 Sc2 2.025 1_455 S
C4 O10 1.268 . S
C4 O20 1.268 . S
C5 O11 1.268 . S
C5 O19 1.268 . S
C6 O12 1.268 . S
C6 O21 1.268 . S
C7 O13 1.268 . S
C7 O17 1.268 . S
C8 O14 1.268 1_455 S
C8 O16 1.268 . S
C9 O15 1.268 . S
C9 O18 1.268 . S
O10 Sc0 2.105 . S
O10 C4 1.268 . S
O11 Sc1 2.105 . S
O11 C5 1.268 . S
O12 Sc2 2.105 . S
O12 C6 1.268 . S
O13 Sc0 2.105 . S
O13 C7 1.268 . S
O14 Sc2 2.105 . S
O14 C8 1.268 1_655 S
O15 Sc1 2.105 1_655 S
O15 C9 1.268 . S
O16 Sc0 2.105 . S
O16 C8 1.268 . S
O17 Sc1 2.105 . S
O17 C7 1.268 . S
O18 Sc2 2.105 . S
O18 C9 1.268 . S
O19 Sc0 2.105 . S
O19 C5 1.268 . S
O20 Sc2 2.105 1_455 S
O20 C4 1.268 . S
O21 Sc1 2.105 1_655 S
O21 C6 1.268 . S
Sc22 O25 2.025 . S
Sc22 O32 2.105 . S
Sc22 O35 2.105 . S
Sc22 O38 2.105 . S
Sc22 O41 2.105 . S
Sc23 O25 2.025 . S
Sc23 O33 2.105 . S
Sc23 O37 2.105 . S
Sc23 O39 2.105 . S
Sc23 O43 2.105 . S
Sc24 O25 2.025 . S
Sc24 O34 2.105 . S
Sc24 O36 2.105 . S
Sc24 O40 2.105 . S
Sc24 O42 2.105 . S
O25 Sc22 2.025 . S
O25 Sc23 2.025 . S
O25 Sc24 2.025 . S
C26 O32 1.268 . S
C26 O42 1.268 . S
C27 O33 1.268 . S
C27 O41 1.268 . S
C28 O34 1.268 . S
C28 O43 1.268 . S
C29 O35 1.268 . S
C29 O39 1.268 . S
C30 O36 1.268 . S
C30 O38 1.268 . S
C31 O37 1.268 . S
C31 O40 1.268 . S
O32 Sc22 2.105 . S
O32 C26 1.268 . S
O33 Sc23 2.105 . S
O33 C27 1.268 . S
O34 Sc24 2.105 . S
O34 C28 1.268 . S
O35 Sc22 2.105 . S
O35 C29 1.268 . S
O36 Sc24 2.105 . S
O36 C30 1.268 . S
O37 Sc23 2.105 . S
O37 C31 1.268 . S
O38 Sc22 2.105 . S
O38 C30 1.268 . S
O39 Sc23 2.105 . S
O39 C29 1.268 . S
O40 Sc24 2.105 . S
O40 C31 1.268 . S
O41 Sc22 2.105 . S
O41 C27 1.268 . S
O42 Sc24 2.105 . S
O42 C26 1.268 . S
O43 Sc23 2.105 . S
O43 C28 1.268 . S
Sc44 O47 2.025 . S
Sc44 O54 2.105 . S
Sc44 O57 2.105 . S
Sc44 O60 2.105 . S
Sc44 O63 2.105 . S
Sc45 O47 2.025 . S
Sc45 O55 2.105 . S
Sc45 O59 2.105 . S
Sc45 O61 2.105 . S
Sc45 O65 2.105 . S
Sc46 O47 2.025 . S
Sc46 O56 2.105 . S
Sc46 O58 2.105 . S
Sc46 O62 2.105 . S
Sc46 O64 2.105 . S
O47 Sc44 2.025 . S
O47 Sc45 2.025 . S
O47 Sc46 2.025 . S
C48 O54 1.268 . S
C48 O64 1.268 . S
C49 O55 1.268 . S
C49 O63 1.268 . S
C50 O56 1.268 . S
C50 O65 1.268 . S
C51 O57 1.268 . S
C51 O61 1.268 . S
C52 O58 1.268 . S
C52 O60 1.268 . S
C53 O59 1.268 . S
C53 O62 1.268 . S
O54 Sc44 2.105 . S
O54 C48 1.268 . S
O55 Sc45 2.105 . S
O55 C49 1.268 . S
O56 Sc46 2.105 . S
O56 C50 1.268 . S
O57 Sc44 2.105 . S
O57 C51 1.268 . S
O58 Sc46 2.105 . S
O58 C52 1.268 . S
O59 Sc45 2.105 . S
O59 C53 1.268 . S
O60 Sc44 2.105 . S
O60 C52 1.268 . S
O61 Sc45 2.105 . S
O61 C51 1.268 . S
O62 Sc46 2.105 . S
O62 C53 1.268 . S
O63 Sc44 2.105 . S
O63 C49 1.268 . S
O64 Sc46 2.105 . S
O64 C48 1.268 . S
O65 Sc45 2.105 . S
O65 C50 1.268 . S
Sc66 O69 2.025 1_554 S
Sc66 O76 2.105 . S
Sc66 O79 2.105 . S
Sc66 O82 2.105 . S
Sc66 O85 2.105 1_554 S
Sc67 O69 2.025 . S
Sc67 O77 2.105 . S
Sc67 O81 2.105 . S
Sc67 O83 2.105 . S
Sc67 O87 2.105 . S
Sc68 O69 2.025 . S
Sc68 O78 2.105 . S
Sc68 O80 2.105 1_556 S
Sc68 O84 2.105 . S
Sc68 O86 2.105 1_556 S
O69 Sc66 2.025 1_556 S
O69 Sc67 2.025 . S
O69 Sc68 2.025 . S
C70 O76 1.268 . S
C70 O86 1.268 . S
C71 O77 1.268 . S
C71 O85 1.268 . S
C72 O78 1.268 . S
C72 O87 1.268 . S
C73 O79 1.268 1_556 S
C73 O83 1.268 . S
C74 O80 1.268 . S
C74 O82 1.268 . S
C75 O81 1.268 . S
C75 O84 1.268 . S
O76 Sc66 2.105 . S
O76 C70 1.268 . S
O77 Sc67 2.105 . S
O77 C71 1.268 . S
O78 Sc68 2.105 . S
O78 C72 1.268 . S
O79 Sc66 2.105 . S
O79 C73 1.268 1_554 S
O80 Sc68 2.105 1_554 S
O80 C74 1.268 . S
O81 Sc67 2.105 . S
O81 C75 1.268 . S
O82 Sc66 2.105 . S
O82 C74 1.268 . S
O83 Sc67 2.105 . S
O83 C73 1.268 . S
O84 Sc68 2.105 . S
O84 C75 1.268 . S
O85 Sc66 2.105 1_556 S
O85 C71 1.268 . S
O86 Sc68 2.105 1_554 S
O86 C70 1.268 . S
O87 Sc67 2.105 . S
O87 C72 1.268 . S
Sc88 O91 2.025 . S
Sc88 O98 2.105 . S
Sc88 O101 2.105 . S
Sc88 O104 2.105 . S
Sc88 O107 2.105 . S
Sc89 O91 2.025 . S
Sc89 O99 2.105 . S
Sc89 O103 2.105 1_455 S
Sc89 O105 2.105 . S
Sc89 O109 2.105 1_455 S
Sc90 O91 2.025 1_655 S
Sc90 O100 2.105 . S
Sc90 O102 2.105 . S
Sc90 O106 2.105 . S
Sc90 O108 2.105 1_655 S
O91 Sc88 2.025 . S
O91 Sc89 2.025 . S
O91 Sc90 2.025 1_455 S
C92 O98 1.268 . S
C92 O108 1.268 . S
C93 O99 1.268 . S
C93 O107 1.268 . S
C94 O100 1.268 . S
C94 O109 1.268 . S
C95 O101 1.268 . S
C95 O105 1.268 . S
C96 O102 1.268 1_455 S
C96 O104 1.268 . S
C97 O103 1.268 . S
C97 O106 1.268 . S
O98 Sc88 2.105 . S
O98 C92 1.268 . S
O99 Sc89 2.105 . S
O99 C93 1.268 . S
O100 Sc90 2.105 . S
O100 C94 1.268 . S
O101 Sc88 2.105 . S
O101 C95 1.268 . S
O102 Sc90 2.105 . S
O102 C96 1.268 1_655 S
O103 Sc89 2.105 1_655 S
O103 C97 1.268 . S
O104 Sc88 2.105 . S
O104 C96 1.268 . S
O105 Sc89 2.105 . S
O105 C95 1.268 . S
O106 Sc90 2.105 . S
O106 C97 1.268 . S
O107 Sc88 2.105 . S
O107 C93 1.268 . S
O108 Sc90 2.105 1_455 S
O108 C92 1.268 . S
O109 Sc89 2.105 1_655 S
O109 C94 1.268 . S
Sc110 O113 2.025 . S
Sc110 O120 2.105 . S
Sc110 O123 2.105 . S
Sc110 O126 2.105 . S
Sc110 O129 2.105 . S
Sc111 O113 2.025 . S
Sc111 O121 2.105 . S
Sc111 O125 2.105 . S
Sc111 O127 2.105 . S
Sc111 O131 2.105 . S
Sc112 O113 2.025 . S
Sc112 O122 2.105 . S
Sc112 O124 2.105 . S
Sc112 O128 2.105 . S
Sc112 O130 2.105 . S
O113 Sc110 2.025 . S
O113 Sc111 2.025 . S
O113 Sc112 2.025 . S
C114 O120 1.268 . S
C114 O130 1.268 . S
C115 O121 1.268 . S
C115 O129 1.268 . S
C116 O122 1.268 . S
C116 O131 1.268 . S
C117 O123 1.268 . S
C117 O127 1.268 . S
C118 O124 1.268 . S
C118 O126 1.268 . S
C119 O125 1.268 . S
C119 O128 1.268 . S
O120 Sc110 2.105 . S
O120 C114 1.268 . S
O121 Sc111 2.105 . S
O121 C115 1.268 . S
O122 Sc112 2.105 . S
O122 C116 1.268 . S
O123 Sc110 2.105 . S
O123 C117 1.268 . S
O124 Sc112 2.105 . S
O124 C118 1.268 . S
O125 Sc111 2.105 . S
O125 C119 1.268 . S
O126 Sc110 2.105 . S
O126 C118 1.268 . S
O127 Sc111 2.105 . S
O127 C117 1.268 . S
O128 Sc112 2.105 . S
O128 C119 1.268 . S
O129 Sc110 2.105 . S
O129 C115 1.268 . S
O130 Sc112 2.105 . S
O130 C114 1.268 . S
O131 Sc111 2.105 . S
O131 C116 1.268 . S
Sc132 O135 2.025 . S
Sc132 O142 2.105 . S
Sc132 O145 2.105 . S
Sc132 O148 2.105 . S
Sc132 O151 2.105 . S
Sc133 O135 2.025 . S
Sc133 O143 2.105 . S
Sc133 O147 2.105 . S
Sc133 O149 2.105 . S
Sc133 O153 2.105 . S
Sc134 O135 2.025 . S
Sc134 O144 2.105 . S
Sc134 O146 2.105 . S
Sc134 O150 2.105 . S
Sc134 O152 2.105 . S
O135 Sc132 2.025 . S
O135 Sc133 2.025 . S
O135 Sc134 2.025 . S
C136 O142 1.268 . S
C136 O152 1.268 . S
C137 O143 1.268 . S
C137 O151 1.268 . S
C138 O144 1.268 . S
C138 O153 1.268 . S
C139 O145 1.268 . S
C139 O149 1.268 . S
C140 O146 1.268 . S
C140 O148 1.268 . S
C141 O147 1.268 . S
C141 O150 1.268 . S
O142 Sc132 2.105 . S
O142 C136 1.268 . S
O143 Sc133 2.105 . S
O143 C137 1.268 . S
O144 Sc134 2.105 . S
O144 C138 1.268 . S
O145 Sc132 2.105 . S
O145 C139 1.268 . S
O146 Sc134 2.105 . S
O146 C140 1.268 . S
O147 Sc133 2.105 . S
O147 C141 1.268 . S
O148 Sc132 2.105 . S
O148 C140 1.268 . S
O149 Sc133 2.105 . S
O149 C139 1.268 . S
O150 Sc134 2.105 . S
O150 C141 1.268 . S
O151 Sc132 2.105 . S
O151 C137 1.268 . S
O152 Sc134 2.105 . S
O152 C136 1.268 . S
O153 Sc133 2.105 . S
O153 C138 1.268 . S
Sc154 O157 2.025 . S
Sc154 O164 2.105 . S
Sc154 O167 2.105 . S
Sc154 O170 2.105 . S
Sc154 O173 2.105 . S
Sc155 O157 2.025 . S
Sc155 O165 2.105 . S
Sc155 O169 2.105 1_554 S
Sc155 O171 2.105 . S
Sc155 O175 2.105 1_554 S
Sc156 O157 2.025 1_556 S
Sc156 O166 2.105 . S
Sc156 O168 2.105 . S
Sc156 O172 2.105 . S
Sc156 O174 2.105 1_556 S
O157 Sc154 2.025 . S
O157 Sc155 2.025 . S
O157 Sc156 2.025 1_554 S
C158 O164 1.268 . S
C158 O174 1.268 . S
C159 O165 1.268 . S
C159 O173 1.268 . S
C160 O166 1.268 . S
C160 O175 1.268 . S
C161 O167 1.268 . S
C161 O171 1.268 . S
C162 O168 1.268 1_554 S
C162 O170 1.268 . S
C163 O169 1.268 . S
C163 O172 1.268 . S
O164 Sc154 2.105 . S
O164 C158 1.268 . S
O165 Sc155 2.105 . S
O165 C159 1.268 . S
O166 Sc156 2.105 . S
O166 C160 1.268 . S
O167 Sc154 2.105 . S
O167 C161 1.268 . S
O168 Sc156 2.105 . S
O168 C162 1.268 1_556 S
O169 Sc155 2.105 1_556 S
O169 C163 1.268 . S
O170 Sc154 2.105 . S
O170 C162 1.268 . S
O171 Sc155 2.105 . S
O171 C161 1.268 . S
O172 Sc156 2.105 . S
O172 C163 1.268 . S
O173 Sc154 2.105 . S
O173 C159 1.268 . S
O174 Sc156 2.105 1_554 S
O174 C158 1.268 . S
O175 Sc155 2.105 1_556 S
O175 C160 1.268 . S
Sc176 O179 2.025 . S
Sc176 O186 2.105 . S
Sc176 O189 2.105 . S
Sc176 O192 2.105 . S
Sc176 O195 2.105 . S
Sc177 O179 2.025 . S
Sc177 O187 2.105 . S
Sc177 O191 2.105 1_545 S
Sc177 O193 2.105 . S
Sc177 O197 2.105 1_545 S
Sc178 O179 2.025 1_565 S
Sc178 O188 2.105 . S
Sc178 O190 2.105 . S
Sc178 O194 2.105 . S
Sc178 O196 2.105 1_565 S
O179 Sc176 2.025 . S
O179 Sc177 2.025 . S
O179 Sc178 2.025 1_545 S
C180 O186 1.268 . S
C180 O196 1.268 . S
C181 O187 1.268 . S
C181 O195 1.268 . S
C182 O188 1.268 . S
C182 O197 1.268 . S
C183 O189 1.268 . S
C183 O193 1.268 . S
C184 O190 1.268 1_545 S
C184 O192 1.268 . S
C185 O191 1.268 . S
C185 O194 1.268 . S
O186 Sc176 2.105 . S
O186 C180 1.268 . S
O187 Sc177 2.105 . S
O187 C181 1.268 . S
O188 Sc178 2.105 . S
O188 C182 1.268 . S
O189 Sc176 2.105 . S
O189 C183 1.268 . S
O190 Sc178 2.105 . S
O190 C184 1.268 1_565 S
O191 Sc177 2.105 1_565 S
O191 C185 1.268 . S
O192 Sc176 2.105 . S
O192 C184 1.268 . S
O193 Sc177 2.105 . S
O193 C183 1.268 . S
O194 Sc178 2.105 . S
O194 C185 1.268 . S
O195 Sc176 2.105 . S
O195 C181 1.268 . S
O196 Sc178 2.105 1_545 S
O196 C180 1.268 . S
O197 Sc177 2.105 1_565 S
O197 C182 1.268 . S
Sc198 O201 2.025 . S
Sc198 O208 2.105 1_565 S
Sc198 O211 2.105 . S
Sc198 O214 2.105 1_565 S
Sc198 O217 2.105 . S
Sc199 O201 2.025 . S
Sc199 O209 2.105 . S
Sc199 O213 2.105 . S
Sc199 O215 2.105 . S
Sc199 O219 2.105 . S
Sc200 O201 2.025 1_545 S
Sc200 O210 2.105 . S
Sc200 O212 2.105 . S
Sc200 O216 2.105 1_545 S
Sc200 O218 2.105 . S
O201 Sc198 2.025 . S
O201 Sc199 2.025 . S
O201 Sc200 2.025 1_565 S
C202 O208 1.268 . S
C202 O218 1.268 . S
C203 O209 1.268 . S
C203 O217 1.268 . S
C204 O210 1.268 1_565 S
C204 O219 1.268 . S
C205 O211 1.268 . S
C205 O215 1.268 . S
C206 O212 1.268 . S
C206 O214 1.268 . S
C207 O213 1.268 . S
C207 O216 1.268 . S
O208 Sc198 2.105 1_545 S
O208 C202 1.268 . S
O209 Sc199 2.105 . S
O209 C203 1.268 . S
O210 Sc200 2.105 . S
O210 C204 1.268 1_545 S
O211 Sc198 2.105 . S
O211 C205 1.268 . S
O212 Sc200 2.105 . S
O212 C206 1.268 . S
O213 Sc199 2.105 . S
O213 C207 1.268 . S
O214 Sc198 2.105 1_545 S
O214 C206 1.268 . S
O215 Sc199 2.105 . S
O215 C205 1.268 . S
O216 Sc200 2.105 1_565 S
O216 C207 1.268 . S
O217 Sc198 2.105 . S
O217 C203 1.268 . S
O218 Sc200 2.105 . S
O218 C202 1.268 . S
O219 Sc199 2.105 . S
O219 C204 1.268 . S
Sc220 O223 2.025 . S
Sc220 O230 2.105 . S
Sc220 O233 2.105 . S
Sc220 O236 2.105 . S
Sc220 O239 2.105 . S
Sc221 O223 2.025 . S
Sc221 O231 2.105 . S
Sc221 O235 2.105 1_565 S
Sc221 O237 2.105 . S
Sc221 O241 2.105 1_565 S
Sc222 O223 2.025 1_545 S
Sc222 O232 2.105 . S
Sc222 O234 2.105 . S
Sc222 O238 2.105 . S
Sc222 O240 2.105 1_545 S
O223 Sc220 2.025 . S
O223 Sc221 2.025 . S
O223 Sc222 2.025 1_565 S
C224 O230 1.268 . S
C224 O240 1.268 . S
C225 O231 1.268 . S
C225 O239 1.268 . S
C226 O232 1.268 . S
C226 O241 1.268 . S
C227 O233 1.268 . S
C227 O237 1.268 . S
C228 O234 1.268 1_565 S
C228 O236 1.268 . S
C229 O235 1.268 . S
C229 O238 1.268 . S
O230 Sc220 2.105 . S
O230 C224 1.268 . S
O231 Sc221 2.105 . S
O231 C225 1.268 . S
O232 Sc222 2.105 . S
O232 C226 1.268 . S
O233 Sc220 2.105 . S
O233 C227 1.268 . S
O234 Sc222 2.105 . S
O234 C228 1.268 1_545 S
O235 Sc221 2.105 1_545 S
O235 C229 1.268 . S
O236 Sc220 2.105 . S
O236 C228 1.268 . S
O237 Sc221 2.105 . S
O237 C227 1.268 . S
O238 Sc222 2.105 . S
O238 C229 1.268 . S
O239 Sc220 2.105 . S
O239 C225 1.268 . S
O240 Sc222 2.105 1_565 S
O240 C224 1.268 . S
O241 Sc221 2.105 1_545 S
O241 C226 1.268 . S
Sc242 O245 2.025 1_565 S
Sc242 O252 2.105 . S
Sc242 O255 2.105 . S
Sc242 O258 2.105 1_565 S
Sc242 O261 2.105 . S
Sc243 O245 2.025 . S
Sc243 O253 2.105 1_545 S
Sc243 O257 2.105 . S
Sc243 O259 2.105 1_545 S
Sc243 O263 2.105 . S
Sc244 O245 2.025 . S
Sc244 O254 2.105 . S
Sc244 O256 2.105 . S
Sc244 O260 2.105 . S
Sc244 O262 2.105 . S
O245 Sc242 2.025 1_545 S
O245 Sc243 2.025 . S
O245 Sc244 2.025 . S
C246 O252 1.268 1_545 S
C246 O262 1.268 . S
C247 O253 1.268 . S
C247 O261 1.268 . S
C248 O254 1.268 . S
C248 O263 1.268 . S
C249 O255 1.268 . S
C249 O259 1.268 . S
C250 O256 1.268 . S
C250 O258 1.268 . S
C251 O257 1.268 . S
C251 O260 1.268 . S
O252 Sc242 2.105 . S
O252 C246 1.268 1_565 S
O253 Sc243 2.105 1_565 S
O253 C247 1.268 . S
O254 Sc244 2.105 . S
O254 C248 1.268 . S
O255 Sc242 2.105 . S
O255 C249 1.268 . S
O256 Sc244 2.105 . S
O256 C250 1.268 . S
O257 Sc243 2.105 . S
O257 C251 1.268 . S
O258 Sc242 2.105 1_545 S
O258 C250 1.268 . S
O259 Sc243 2.105 1_565 S
O259 C249 1.268 . S
O260 Sc244 2.105 . S
O260 C251 1.268 . S
O261 Sc242 2.105 . S
O261 C247 1.268 . S
O262 Sc244 2.105 . S
O262 C246 1.268 . S
O263 Sc243 2.105 . S
O263 C248 1.268 . S
Sc264 O267 2.025 . S
Sc264 O274 2.105 1_556 S
Sc264 O277 2.105 . S
Sc264 O280 2.105 1_556 S
Sc264 O283 2.105 . S
Sc265 O267 2.025 . S
Sc265 O275 2.105 . S
Sc265 O279 2.105 . S
Sc265 O281 2.105 . S
Sc265 O285 2.105 . S
Sc266 O267 2.025 1_554 S
Sc266 O276 2.105 . S
Sc266 O278 2.105 . S
Sc266 O282 2.105 1_554 S
Sc266 O284 2.105 . S
O267 Sc264 2.025 . S
O267 Sc265 2.025 . S
O267 Sc266 2.025 1_556 S
C268 O274 1.268 . S
C268 O284 1.268 . S
C269 O275 1.268 . S
C269 O283 1.268 . S
C270 O276 1.268 1_556 S
C270 O285 1.268 . S
C271 O277 1.268 . S
C271 O281 1.268 . S
C272 O278 1.268 . S
C272 O280 1.268 . S
C273 O279 1.268 . S
C273 O282 1.268 . S
O274 Sc264 2.105 1_554 S
O274 C268 1.268 . S
O275 Sc265 2.105 . S
O275 C269 1.268 . S
O276 Sc266 2.105 . S
O276 C270 1.268 1_554 S
O277 Sc264 2.105 . S
O277 C271 1.268 . S
O278 Sc266 2.105 . S
O278 C272 1.268 . S
O279 Sc265 2.105 . S
O279 C273 1.268 . S
O280 Sc264 2.105 1_554 S
O280 C272 1.268 . S
O281 Sc265 2.105 . S
O281 C271 1.268 . S
O282 Sc266 2.105 1_556 S
O282 C273 1.268 . S
O283 Sc264 2.105 . S
O283 C269 1.268 . S
O284 Sc266 2.105 . S
O284 C268 1.268 . S
O285 Sc265 2.105 . S
O285 C270 1.268 . S
Sc286 O289 2.025 . S
Sc286 O296 2.105 1_655 S
Sc286 O299 2.105 . S
Sc286 O302 2.105 1_655 S
Sc286 O305 2.105 . S
Sc287 O289 2.025 . S
Sc287 O297 2.105 . S
Sc287 O301 2.105 . S
Sc287 O303 2.105 . S
Sc287 O307 2.105 . S
Sc288 O289 2.025 1_455 S
Sc288 O298 2.105 . S
Sc288 O300 2.105 . S
Sc288 O304 2.105 1_455 S
Sc288 O306 2.105 . S
O289 Sc286 2.025 . S
O289 Sc287 2.025 . S
O289 Sc288 2.025 1_655 S
C290 O296 1.268 . S
C290 O306 1.268 . S
C291 O297 1.268 . S
C291 O305 1.268 . S
C292 O298 1.268 1_655 S
C292 O307 1.268 . S
C293 O299 1.268 . S
C293 O303 1.268 . S
C294 O300 1.268 . S
C294 O302 1.268 . S
C295 O301 1.268 . S
C295 O304 1.268 . S
O296 Sc286 2.105 1_455 S
O296 C290 1.268 . S
O297 Sc287 2.105 . S
O297 C291 1.268 . S
O298 Sc288 2.105 . S
O298 C292 1.268 1_455 S
O299 Sc286 2.105 . S
O299 C293 1.268 . S
O300 Sc288 2.105 . S
O300 C294 1.268 . S
O301 Sc287 2.105 . S
O301 C295 1.268 . S
O302 Sc286 2.105 1_455 S
O302 C294 1.268 . S
O303 Sc287 2.105 . S
O303 C293 1.268 . S
O304 Sc288 2.105 1_655 S
O304 C295 1.268 . S
O305 Sc286 2.105 . S
O305 C291 1.268 . S
O306 Sc288 2.105 . S
O306 C290 1.268 . S
O307 Sc287 2.105 . S
O307 C292 1.268 . S
Sc308 O311 2.025 . S
Sc308 O318 2.105 . S
Sc308 O321 2.105 . S
Sc308 O324 2.105 . S
Sc308 O327 2.105 . S
Sc309 O311 2.025 . S
Sc309 O319 2.105 . S
Sc309 O323 2.105 . S
Sc309 O325 2.105 . S
Sc309 O329 2.105 . S
Sc310 O311 2.025 . S
Sc310 O320 2.105 . S
Sc310 O322 2.105 . S
Sc310 O326 2.105 . S
Sc310 O328 2.105 . S
O311 Sc308 2.025 . S
O311 Sc309 2.025 . S
O311 Sc310 2.025 . S
C312 O318 1.268 . S
C312 O328 1.268 . S
C313 O319 1.268 . S
C313 O327 1.268 . S
C314 O320 1.268 . S
C314 O329 1.268 . S
C315 O321 1.268 . S
C315 O325 1.268 . S
C316 O322 1.268 . S
C316 O324 1.268 . S
C317 O323 1.268 . S
C317 O326 1.268 . S
O318 Sc308 2.105 . S
O318 C312 1.268 . S
O319 Sc309 2.105 . S
O319 C313 1.268 . S
O320 Sc310 2.105 . S
O320 C314 1.268 . S
O321 Sc308 2.105 . S
O321 C315 1.268 . S
O322 Sc310 2.105 . S
O322 C316 1.268 . S
O323 Sc309 2.105 . S
O323 C317 1.268 . S
O324 Sc308 2.105 . S
O324 C316 1.268 . S
O325 Sc309 2.105 . S
O325 C315 1.268 . S
O326 Sc310 2.105 . S
O326 C317 1.268 . S
O327 Sc308 2.105 . S
O327 C313 1.268 . S
O328 Sc310 2.105 . S
O328 C312 1.268 . S
O329 Sc309 2.105 . S
O329 C314 1.268 . S
Sc330 O333 2.025 . S
Sc330 O340 2.105 . S
Sc330 O343 2.105 . S
Sc330 O346 2.105 . S
Sc330 O349 2.105 . S
Sc331 O333 2.025 . S
Sc331 O341 2.105 . S
Sc331 O345 2.105 1_655 S
Sc331 O347 2.105 . S
Sc331 O351 2.105 1_655 S
Sc332 O333 2.025 1_455 S
Sc332 O342 2.105 . S
Sc332 O344 2.105 . S
Sc332 O348 2.105 . S
Sc332 O350 2.105 1_455 S
O333 Sc330 2.025 . S
O333 Sc331 2.025 . S
O333 Sc332 2.025 1_655 S
C334 O340 1.268 . S
C334 O350 1.268 . S
C335 O341 1.268 . S
C335 O349 1.268 . S
C336 O342 1.268 . S
C336 O351 1.268 . S
C337 O343 1.268 . S
C337 O347 1.268 . S
C338 O344 1.268 1_655 S
C338 O346 1.268 . S
C339 O345 1.268 . S
C339 O348 1.268 . S
O340 Sc330 2.105 . S
O340 C334 1.268 . S
O341 Sc331 2.105 . S
O341 C335 1.268 . S
O342 Sc332 2.105 . S
O342 C336 1.268 . S
O343 Sc330 2.105 . S
O343 C337 1.268 . S
O344 Sc332 2.105 . S
O344 C338 1.268 1_455 S
O345 Sc331 2.105 1_455 S
O345 C339 1.268 . S
O346 Sc330 2.105 . S
O346 C338 1.268 . S
O347 Sc331 2.105 . S
O347 C337 1.268 . S
O348 Sc332 2.105 . S
O348 C339 1.268 . S
O349 Sc330 2.105 . S
O349 C335 1.268 . S
O350 Sc332 2.105 1_655 S
O350 C334 1.268 . S
O351 Sc331 2.105 1_455 S
O351 C336 1.268 . S
Sc352 O355 2.025 . S
Sc352 O362 2.105 . S
Sc352 O365 2.105 . S
Sc352 O368 2.105 . S
Sc352 O371 2.105 . S
Sc353 O355 2.025 . S
Sc353 O363 2.105 . S
Sc353 O367 2.105 . S
Sc353 O369 2.105 . S
Sc353 O373 2.105 . S
Sc354 O355 2.025 . S
Sc354 O364 2.105 . S
Sc354 O366 2.105 . S
Sc354 O370 2.105 . S
Sc354 O372 2.105 . S
O355 Sc352 2.025 . S
O355 Sc353 2.025 . S
O355 Sc354 2.025 . S
C356 O362 1.268 . S
C356 O372 1.268 . S
C357 O363 1.268 . S
C357 O371 1.268 . S
C358 O364 1.268 . S
C358 O373 1.268 . S
C359 O365 1.268 . S
C359 O369 1.268 . S
C360 O366 1.268 . S
C360 O368 1.268 . S
C361 O367 1.268 . S
C361 O370 1.268 . S
O362 Sc352 2.105 . S
O362 C356 1.268 . S
O363 Sc353 2.105 . S
O363 C357 1.268 . S
O364 Sc354 2.105 . S
O364 C358 1.268 . S
O365 Sc352 2.105 . S
O365 C359 1.268 . S
O366 Sc354 2.105 . S
O366 C360 1.268 . S
O367 Sc353 2.105 . S
O367 C361 1.268 . S
O368 Sc352 2.105 . S
O368 C360 1.268 . S
O369 Sc353 2.105 . S
O369 C359 1.268 . S
O370 Sc354 2.105 . S
O370 C361 1.268 . S
O371 Sc352 2.105 . S
O371 C357 1.268 . S
O372 Sc354 2.105 . S
O372 C356 1.268 . S
O373 Sc353 2.105 . S
O373 C358 1.268 . S
Sc374 O377 2.025 . S
Sc374 O384 2.105 . S
Sc374 O387 2.105 . S
Sc374 O390 2.105 . S
Sc374 O393 2.105 . S
Sc375 O377 2.025 . S
Sc375 O385 2.105 . S
Sc375 O389 2.105 . S
Sc375 O391 2.105 . S
Sc375 O395 2.105 . S
Sc376 O377 2.025 . S
Sc376 O386 2.105 . S
Sc376 O388 2.105 . S
Sc376 O392 2.105 . S
Sc376 O394 2.105 . S
O377 Sc374 2.025 . S
O377 Sc375 2.025 . S
O377 Sc376 2.025 . S
C378 O384 1.268 . S
C378 O394 1.268 . S
C379 O385 1.268 . S
C379 O393 1.268 . S
C380 O386 1.268 . S
C380 O395 1.268 . S
C381 O387 1.268 . S
C381 O391 1.268 . S
C382 O388 1.268 . S
C382 O390 1.268 . S
C383 O389 1.268 . S
C383 O392 1.268 . S
O384 Sc374 2.105 . S
O384 C378 1.268 . S
O385 Sc375 2.105 . S
O385 C379 1.268 . S
O386 Sc376 2.105 . S
O386 C380 1.268 . S
O387 Sc374 2.105 . S
O387 C381 1.268 . S
O388 Sc376 2.105 . S
O388 C382 1.268 . S
O389 Sc375 2.105 . S
O389 C383 1.268 . S
O390 Sc374 2.105 . S
O390 C382 1.268 . S
O391 Sc375 2.105 . S
O391 C381 1.268 . S
O392 Sc376 2.105 . S
O392 C383 1.268 . S
O393 Sc374 2.105 . S
O393 C379 1.268 . S
O394 Sc376 2.105 . S
O394 C378 1.268 . S
O395 Sc375 2.105 . S
O395 C380 1.268 . S
Sc396 O399 2.025 1_556 S
Sc396 O406 2.105 . S
Sc396 O409 2.105 . S
Sc396 O412 2.105 1_556 S
Sc396 O415 2.105 . S
Sc397 O399 2.025 . S
Sc397 O407 2.105 1_554 S
Sc397 O411 2.105 . S
Sc397 O413 2.105 1_554 S
Sc397 O417 2.105 . S
Sc398 O399 2.025 . S
Sc398 O408 2.105 . S
Sc398 O410 2.105 . S
Sc398 O414 2.105 . S
Sc398 O416 2.105 . S
O399 Sc396 2.025 1_554 S
O399 Sc397 2.025 . S
O399 Sc398 2.025 . S
C400 O406 1.268 1_554 S
C400 O416 1.268 . S
C401 O407 1.268 . S
C401 O415 1.268 . S
C402 O408 1.268 . S
C402 O417 1.268 . S
C403 O409 1.268 . S
C403 O413 1.268 . S
C404 O410 1.268 . S
C404 O412 1.268 . S
C405 O411 1.268 . S
C405 O414 1.268 . S
O406 Sc396 2.105 . S
O406 C400 1.268 1_556 S
O407 Sc397 2.105 1_556 S
O407 C401 1.268 . S
O408 Sc398 2.105 . S
O408 C402 1.268 . S
O409 Sc396 2.105 . S
O409 C403 1.268 . S
O410 Sc398 2.105 . S
O410 C404 1.268 . S
O411 Sc397 2.105 . S
O411 C405 1.268 . S
O412 Sc396 2.105 1_554 S
O412 C404 1.268 . S
O413 Sc397 2.105 1_556 S
O413 C403 1.268 . S
O414 Sc398 2.105 . S
O414 C405 1.268 . S
O415 Sc396 2.105 . S
O415 C401 1.268 . S
O416 Sc398 2.105 . S
O416 C400 1.268 . S
O417 Sc397 2.105 . S
O417 C402 1.268 . S
Sc418 O421 2.025 . S
Sc418 O428 2.105 . S
Sc418 O431 2.105 . S
Sc418 O434 2.105 . S
Sc418 O437 2.105 . S
Sc419 O421 2.025 . S
Sc419 O429 2.105 . S
Sc419 O433 2.105 . S
Sc419 O435 2.105 . S
Sc419 O439 2.105 . S
Sc420 O421 2.025 . S
Sc420 O430 2.105 . S
Sc420 O432 2.105 . S
Sc420 O436 2.105 . S
Sc420 O438 2.105 . S
O421 Sc418 2.025 . S
O421 Sc419 2.025 . S
O421 Sc420 2.025 . S
C422 O428 1.268 . S
C422 O438 1.268 . S
C423 O429 1.268 . S
C423 O437 1.268 . S
C424 O430 1.268 . S
C424 O439 1.268 . S
C425 O431 1.268 . S
C425 O435 1.268 . S
C426 O432 1.268 . S
C426 O434 1.268 . S
C427 O433 1.268 . S
C427 O436 1.268 . S
O428 Sc418 2.105 . S
O428 C422 1.268 . S
O429 Sc419 2.105 . S
O429 C423 1.268 . S
O430 Sc420 2.105 . S
O430 C424 1.268 . S
O431 Sc418 2.105 . S
O431 C425 1.268 . S
O432 Sc420 2.105 . S
O432 C426 1.268 . S
O433 Sc419 2.105 . S
O433 C427 1.268 . S
O434 Sc418 2.105 . S
O434 C426 1.268 . S
O435 Sc419 2.105 . S
O435 C425 1.268 . S
O436 Sc420 2.105 . S
O436 C427 1.268 . S
O437 Sc418 2.105 . S
O437 C423 1.268 . S
O438 Sc420 2.105 . S
O438 C422 1.268 . S
O439 Sc419 2.105 . S
O439 C424 1.268 . S
Sc440 O443 2.025 . S
Sc440 O450 2.105 . S
Sc440 O453 2.105 . S
Sc440 O456 2.105 . S
Sc440 O459 2.105 . S
Sc441 O443 2.025 . S
Sc441 O451 2.105 . S
Sc441 O455 2.105 . S
Sc441 O457 2.105 . S
Sc441 O461 2.105 . S
Sc442 O443 2.025 . S
Sc442 O452 2.105 . S
Sc442 O454 2.105 . S
Sc442 O458 2.105 . S
Sc442 O460 2.105 . S
O443 Sc440 2.025 . S
O443 Sc441 2.025 . S
O443 Sc442 2.025 . S
C444 O450 1.268 . S
C444 O460 1.268 . S
C445 O451 1.268 . S
C445 O459 1.268 . S
C446 O452 1.268 . S
C446 O461 1.268 . S
C447 O453 1.268 . S
C447 O457 1.268 . S
C448 O454 1.268 . S
C448 O456 1.268 . S
C449 O455 1.268 . S
C449 O458 1.268 . S
O450 Sc440 2.105 . S
O450 C444 1.268 . S
O451 Sc441 2.105 . S
O451 C445 1.268 . S
O452 Sc442 2.105 . S
O452 C446 1.268 . S
O453 Sc440 2.105 . S
O453 C447 1.268 . S
O454 Sc442 2.105 . S
O454 C448 1.268 . S
O455 Sc441 2.105 . S
O455 C449 1.268 . S
O456 Sc440 2.105 . S
O456 C448 1.268 . S
O457 Sc441 2.105 . S
O457 C447 1.268 . S
O458 Sc442 2.105 . S
O458 C449 1.268 . S
O459 Sc440 2.105 . S
O459 C445 1.268 . S
O460 Sc442 2.105 . S
O460 C444 1.268 . S
O461 Sc441 2.105 . S
O461 C446 1.268 . S
Sc462 O465 2.025 . S
Sc462 O472 2.105 . S
Sc462 O475 2.105 . S
Sc462 O478 2.105 . S
Sc462 O481 2.105 . S
Sc463 O465 2.025 . S
Sc463 O473 2.105 . S
Sc463 O477 2.105 . S
Sc463 O479 2.105 . S
Sc463 O483 2.105 . S
Sc464 O465 2.025 . S
Sc464 O474 2.105 . S
Sc464 O476 2.105 . S
Sc464 O480 2.105 . S
Sc464 O482 2.105 . S
O465 Sc462 2.025 . S
O465 Sc463 2.025 . S
O465 Sc464 2.025 . S
C466 O472 1.268 . S
C466 O482 1.268 . S
C467 O473 1.268 . S
C467 O481 1.268 . S
C468 O474 1.268 . S
C468 O483 1.268 . S
C469 O475 1.268 . S
C469 O479 1.268 . S
C470 O476 1.268 . S
C470 O478 1.268 . S
C471 O477 1.268 . S
C471 O480 1.268 . S
O472 Sc462 2.105 . S
O472 C466 1.268 . S
O473 Sc463 2.105 . S
O473 C467 1.268 . S
O474 Sc464 2.105 . S
O474 C468 1.268 . S
O475 Sc462 2.105 . S
O475 C469 1.268 . S
O476 Sc464 2.105 . S
O476 C470 1.268 . S
O477 Sc463 2.105 . S
O477 C471 1.268 . S
O478 Sc462 2.105 . S
O478 C470 1.268 . S
O479 Sc463 2.105 . S
O479 C469 1.268 . S
O480 Sc464 2.105 . S
O480 C471 1.268 . S
O481 Sc462 2.105 . S
O481 C467 1.268 . S
O482 Sc464 2.105 . S
O482 C466 1.268 . S
O483 Sc463 2.105 . S
O483 C468 1.268 . S
Sc484 O487 2.025 . S
Sc484 O494 2.105 . S
Sc484 O497 2.105 . S
Sc484 O500 2.105 . S
Sc484 O503 2.105 . S
Sc485 O487 2.025 . S
Sc485 O495 2.105 . S
Sc485 O499 2.105 . S
Sc485 O501 2.105 . S
Sc485 O505 2.105 . S
Sc486 O487 2.025 . S
Sc486 O496 2.105 . S
Sc486 O498 2.105 . S
Sc486 O502 2.105 . S
Sc486 O504 2.105 . S
O487 Sc484 2.025 . S
O487 Sc485 2.025 . S
O487 Sc486 2.025 . S
C488 O494 1.268 . S
C488 O504 1.268 . S
C489 O495 1.268 . S
C489 O503 1.268 . S
C490 O496 1.268 . S
C490 O505 1.268 . S
C491 O497 1.268 . S
C491 O501 1.268 . S
C492 O498 1.268 . S
C492 O500 1.268 . S
C493 O499 1.268 . S
C493 O502 1.268 . S
O494 Sc484 2.105 . S
O494 C488 1.268 . S
O495 Sc485 2.105 . S
O495 C489 1.268 . S
O496 Sc486 2.105 . S
O496 C490 1.268 . S
O497 Sc484 2.105 . S
O497 C491 1.268 . S
O498 Sc486 2.105 . S
O498 C492 1.268 . S
O499 Sc485 2.105 . S
O499 C493 1.268 . S
O500 Sc484 2.105 . S
O500 C492 1.268 . S
O501 Sc485 2.105 . S
O501 C491 1.268 . S
O502 Sc486 2.105 . S
O502 C493 1.268 . S
O503 Sc484 2.105 . S
O503 C489 1.268 . S
O504 Sc486 2.105 . S
O504 C488 1.268 . S
O505 Sc485 2.105 . S
O505 C490 1.268 . S
Sc506 O509 2.025 . S
Sc506 O516 2.105 . S
Sc506 O519 2.105 . S
Sc506 O522 2.105 . S
Sc506 O525 2.105 . S
Sc507 O509 2.025 . S
Sc507 O517 2.105 . S
Sc507 O521 2.105 . S
Sc507 O523 2.105 . S
Sc507 O527 2.105 . S
Sc508 O509 2.025 . S
Sc508 O518 2.105 . S
Sc508 O520 2.105 . S
Sc508 O524 2.105 . S
Sc508 O526 2.105 . S
O509 Sc506 2.025 . S
O509 Sc507 2.025 . S
O509 Sc508 2.025 . S
C510 O516 1.268 . S
C510 O526 1.268 . S
C511 O517 1.268 . S
C511 O525 1.268 . S
C512 O518 1.268 . S
C512 O527 1.268 . S
C513 O519 1.268 . S
C513 O523 1.268 . S
C514 O520 1.268 . S
C514 O522 1.268 . S
C515 O521 1.268 . S
C515 O524 1.268 . S
O516 Sc506 2.105 . S
O516 C510 1.268 . S
O517 Sc507 2.105 . S
O517 C511 1.268 . S
O518 Sc508 2.105 . S
O518 C512 1.268 . S
O519 Sc506 2.105 . S
O519 C513 1.268 . S
O520 Sc508 2.105 . S
O520 C514 1.268 . S
O521 Sc507 2.105 . S
O521 C515 1.268 . S
O522 Sc506 2.105 . S
O522 C514 1.268 . S
O523 Sc507 2.105 . S
O523 C513 1.268 . S
O524 Sc508 2.105 . S
O524 C515 1.268 . S
O525 Sc506 2.105 . S
O525 C511 1.268 . S
O526 Sc508 2.105 . S
O526 C510 1.268 . S
O527 Sc507 2.105 . S
O527 C512 1.268 . S
H528 C534 0.930 . S
H529 C537 0.930 . S
H530 C538 0.930 . S
H531 C539 0.930 . S
H532 C542 0.930 . S
H533 C543 0.930 . S
C534 H528 0.930 . S
C534 C535 1.355 . S
C534 C536 1.415 . S
C535 C534 1.355 . S
C535 C537 1.419 . S
C536 C534 1.415 . S
C536 C541 1.425 . S
C536 C543 1.409 . S
C537 H529 0.930 . S
C537 C535 1.419 . S
C537 C538 1.362 . S
C538 H530 0.930 . S
C538 C537 1.362 . S
C538 C541 1.409 . S
C539 H531 0.930 . S
C539 C540 1.355 . S
C539 C541 1.415 . S
C540 C539 1.355 . S
C540 C542 1.419 . S
C541 C536 1.425 . S
C541 C538 1.409 . S
C541 C539 1.415 . S
C542 H532 0.930 . S
C542 C540 1.419 . S
C542 C543 1.362 . S
C543 H533 0.930 . S
C543 C536 1.409 . S
C543 C542 1.362 . S
H544 C550 0.930 . S
H545 C553 0.930 . S
H546 C554 0.930 . S
H547 C555 0.930 . S
H548 C558 0.930 . S
H549 C559 0.930 . S
C550 H544 0.930 . S
C550 C551 1.355 . S
C550 C552 1.415 . S
C551 C550 1.355 . S
C551 C553 1.419 . S
C552 C550 1.415 . S
C552 C557 1.425 . S
C552 C559 1.409 . S
C553 H545 0.930 . S
C553 C551 1.419 . S
C553 C554 1.362 . S
C554 H546 0.930 . S
C554 C553 1.362 . S
C554 C557 1.409 . S
C555 H547 0.930 . S
C555 C556 1.355 . S
C555 C557 1.415 . S
C556 C555 1.355 . S
C556 C558 1.419 . S
C557 C552 1.425 . S
C557 C554 1.409 . S
C557 C555 1.415 . S
C558 H548 0.930 . S
C558 C556 1.419 . S
C558 C559 1.362 . S
C559 H549 0.930 . S
C559 C552 1.409 . S
C559 C558 1.362 . S
H560 C566 0.930 . S
H561 C569 0.930 . S
H562 C570 0.930 . S
H563 C571 0.930 . S
H564 C574 0.930 . S
H565 C575 0.930 . S
C566 H560 0.930 . S
C566 C567 1.355 . S
C566 C568 1.415 . S
C567 C566 1.355 . S
C567 C569 1.419 . S
C568 C566 1.415 . S
C568 C573 1.425 . S
C568 C575 1.409 . S
C569 H561 0.930 . S
C569 C567 1.419 . S
C569 C570 1.362 . S
C570 H562 0.930 . S
C570 C569 1.362 . S
C570 C573 1.409 . S
C571 H563 0.930 . S
C571 C572 1.355 . S
C571 C573 1.415 . S
C572 C571 1.355 . S
C572 C574 1.419 . S
C573 C568 1.425 . S
C573 C570 1.409 . S
C573 C571 1.415 . S
C574 H564 0.930 . S
C574 C572 1.419 . S
C574 C575 1.362 . S
C575 H565 0.930 . S
C575 C568 1.409 . S
C575 C574 1.362 . S
H576 C582 0.930 . S
H577 C585 0.930 . S
H578 C586 0.930 . S
H579 C587 0.930 . S
H580 C590 0.930 . S
H581 C591 0.930 . S
C582 H576 0.930 . S
C582 C583 1.355 . S
C582 C584 1.415 . S
C583 C582 1.355 . S
C583 C585 1.419 . S
C584 C582 1.415 . S
C584 C589 1.425 . S
C584 C591 1.409 . S
C585 H577 0.930 . S
C585 C583 1.419 . S
C585 C586 1.362 . S
C586 H578 0.930 . S
C586 C585 1.362 . S
C586 C589 1.409 . S
C587 H579 0.930 . S
C587 C588 1.355 . S
C587 C589 1.415 . S
C588 C587 1.355 . S
C588 C590 1.419 . S
C589 C584 1.425 . S
C589 C586 1.409 . S
C589 C587 1.415 . S
C590 H580 0.930 . S
C590 C588 1.419 . S
C590 C591 1.362 . S
C591 H581 0.930 . S
C591 C584 1.409 . S
C591 C590 1.362 . S
H592 C598 0.930 . S
H593 C601 0.930 . S
H594 C602 0.930 . S
H595 C603 0.930 . S
H596 C606 0.930 1_565 S
H597 C607 0.930 . S
C598 H592 0.930 . S
C598 C599 1.355 . S
C598 C600 1.415 . S
C599 C598 1.355 . S
C599 C601 1.419 . S
C600 C598 1.415 . S
C600 C605 1.425 . S
C600 C607 1.409 . S
C601 H593 0.930 . S
C601 C599 1.419 . S
C601 C602 1.362 . S
C602 H594 0.930 . S
C602 C601 1.362 . S
C602 C605 1.409 . S
C603 H595 0.930 . S
C603 C604 1.355 . S
C603 C605 1.415 . S
C604 C603 1.355 . S
C604 C606 1.419 . S
C605 C600 1.425 . S
C605 C602 1.409 . S
C605 C603 1.415 . S
C606 H596 0.930 1_545 S
C606 C604 1.419 . S
C606 C607 1.362 . S
C607 H597 0.930 . S
C607 C600 1.409 . S
C607 C606 1.362 . S
H608 C614 0.930 . S
H609 C617 0.930 . S
H610 C618 0.930 . S
H611 C619 0.930 . S
H612 C622 0.930 . S
H613 C623 0.930 . S
C614 H608 0.930 . S
C614 C615 1.355 . S
C614 C616 1.415 . S
C615 C614 1.355 . S
C615 C617 1.419 . S
C616 C614 1.415 . S
C616 C621 1.425 . S
C616 C623 1.409 . S
C617 H609 0.930 . S
C617 C615 1.419 . S
C617 C618 1.362 . S
C618 H610 0.930 . S
C618 C617 1.362 . S
C618 C621 1.409 . S
C619 H611 0.930 . S
C619 C620 1.355 . S
C619 C621 1.415 . S
C620 C619 1.355 . S
C620 C622 1.419 . S
C621 C616 1.425 . S
C621 C618 1.409 . S
C621 C619 1.415 . S
C622 H612 0.930 . S
C622 C620 1.419 . S
C622 C623 1.362 . S
C623 H613 0.930 . S
C623 C616 1.409 . S
C623 C622 1.362 . S
H624 C630 0.930 . S
H625 C633 0.930 . S
H626 C634 0.930 . S
H627 C635 0.930 . S
H628 C638 0.930 . S
H629 C639 0.930 . S
C630 H624 0.930 . S
C630 C631 1.355 . S
C630 C632 1.415 . S
C631 C630 1.355 . S
C631 C633 1.419 . S
C632 C630 1.415 . S
C632 C637 1.425 . S
C632 C639 1.409 . S
C633 H625 0.930 . S
C633 C631 1.419 . S
C633 C634 1.362 . S
C634 H626 0.930 . S
C634 C633 1.362 . S
C634 C637 1.409 . S
C635 H627 0.930 . S
C635 C636 1.355 . S
C635 C637 1.415 . S
C636 C635 1.355 . S
C636 C638 1.419 . S
C637 C632 1.425 . S
C637 C634 1.409 . S
C637 C635 1.415 . S
C638 H628 0.930 . S
C638 C636 1.419 . S
C638 C639 1.362 . S
C639 H629 0.930 . S
C639 C632 1.409 . S
C639 C638 1.362 . S
H640 C646 0.930 . S
H641 C649 0.930 . S
H642 C650 0.930 . S
H643 C651 0.930 . S
H644 C654 0.930 . S
H645 C655 0.930 . S
C646 H640 0.930 . S
C646 C647 1.355 . S
C646 C648 1.415 . S
C647 C646 1.355 . S
C647 C649 1.419 . S
C648 C646 1.415 . S
C648 C653 1.425 . S
C648 C655 1.409 . S
C649 H641 0.930 . S
C649 C647 1.419 . S
C649 C650 1.362 . S
C650 H642 0.930 . S
C650 C649 1.362 . S
C650 C653 1.409 . S
C651 H643 0.930 . S
C651 C652 1.355 . S
C651 C653 1.415 . S
C652 C651 1.355 . S
C652 C654 1.419 . S
C653 C648 1.425 . S
C653 C650 1.409 . S
C653 C651 1.415 . S
C654 H644 0.930 . S
C654 C652 1.419 . S
C654 C655 1.362 . S
C655 H645 0.930 . S
C655 C648 1.409 . S
C655 C654 1.362 . S
H656 C662 0.930 . S
H657 C665 0.930 . S
H658 C666 0.930 . S
H659 C667 0.930 . S
H660 C670 0.930 . S
H661 C671 0.930 . S
C662 H656 0.930 . S
C662 C663 1.355 . S
C662 C664 1.415 . S
C663 C662 1.355 . S
C663 C665 1.419 . S
C664 C662 1.415 . S
C664 C669 1.425 . S
C664 C671 1.409 . S
C665 H657 0.930 . S
C665 C663 1.419 . S
C665 C666 1.362 . S
C666 H658 0.930 . S
C666 C665 1.362 . S
C666 C669 1.409 . S
C667 H659 0.930 . S
C667 C668 1.355 . S
C667 C669 1.415 . S
C668 C667 1.355 . S
C668 C670 1.419 . S
C669 C664 1.425 . S
C669 C666 1.409 . S
C669 C667 1.415 . S
C670 H660 0.930 . S
C670 C668 1.419 . S
C670 C671 1.362 . S
C671 H661 0.930 . S
C671 C664 1.409 . S
C671 C670 1.362 . S
H672 C678 0.930 . S
H673 C681 0.930 . S
H674 C682 0.930 . S
H675 C683 0.930 . S
H676 C686 0.930 . S
H677 C687 0.930 . S
C678 H672 0.930 . S
C678 C679 1.355 . S
C678 C680 1.415 . S
C679 C678 1.355 . S
C679 C681 1.419 . S
C680 C678 1.415 . S
C680 C685 1.425 . S
C680 C687 1.409 . S
C681 H673 0.930 . S
C681 C679 1.419 . S
C681 C682 1.362 . S
C682 H674 0.930 . S
C682 C681 1.362 . S
C682 C685 1.409 . S
C683 H675 0.930 . S
C683 C684 1.355 . S
C683 C685 1.415 . S
C684 C683 1.355 . S
C684 C686 1.419 . S
C685 C680 1.425 . S
C685 C682 1.409 . S
C685 C683 1.415 . S
C686 H676 0.930 . S
C686 C684 1.419 . S
C686 C687 1.362 . S
C687 H677 0.930 . S
C687 C680 1.409 . S
C687 C686 1.362 . S
H688 C694 0.930 . S
H689 C697 0.930 . S
H690 C698 0.930 . S
H691 C699 0.930 . S
H692 C702 0.930 . S
H693 C703 0.930 . S
C694 H688 0.930 . S
C694 C695 1.355 . S
C694 C696 1.415 . S
C695 C694 1.355 . S
C695 C697 1.419 . S
C696 C694 1.415 . S
C696 C701 1.425 . S
C696 C703 1.409 . S
C697 H689 0.930 . S
C697 C695 1.419 . S
C697 C698 1.362 . S
C698 H690 0.930 . S
C698 C697 1.362 . S
C698 C701 1.409 . S
C699 H691 0.930 . S
C699 C700 1.355 . S
C699 C701 1.415 . S
C700 C699 1.355 . S
C700 C702 1.419 . S
C701 C696 1.425 . S
C701 C698 1.409 . S
C701 C699 1.415 . S
C702 H692 0.930 . S
C702 C700 1.419 . S
C702 C703 1.362 . S
C703 H693 0.930 . S
C703 C696 1.409 . S
C703 C702 1.362 . S
H704 C710 0.930 . S
H705 C713 0.930 . S
H706 C714 0.930 . S
H707 C715 0.930 . S
H708 C718 0.930 . S
H709 C719 0.930 . S
C710 H704 0.930 . S
C710 C711 1.355 . S
C710 C712 1.415 . S
C711 C710 1.355 . S
C711 C713 1.419 . S
C712 C710 1.415 . S
C712 C717 1.425 . S
C712 C719 1.409 . S
C713 H705 0.930 . S
C713 C711 1.419 . S
C713 C714 1.362 . S
C714 H706 0.930 . S
C714 C713 1.362 . S
C714 C717 1.409 . S
C715 H707 0.930 . S
C715 C716 1.355 . S
C715 C717 1.415 . S
C716 C715 1.355 . S
C716 C718 1.419 . S
C717 C712 1.425 . S
C717 C714 1.409 . S
C717 C715 1.415 . S
C718 H708 0.930 . S
C718 C716 1.419 . S
C718 C719 1.362 . S
C719 H709 0.930 . S
C719 C712 1.409 . S
C719 C718 1.362 . S
H720 C726 0.930 . S
H721 C729 0.930 1_554 S
H722 C730 0.930 . S
H723 C731 0.930 . S
H724 C734 0.930 . S
H725 C735 0.930 . S
C726 H720 0.930 . S
C726 C727 1.355 . S
C726 C728 1.415 . S
C727 C726 1.355 . S
C727 C729 1.419 . S
C728 C726 1.415 . S
C728 C733 1.425 . S
C728 C735 1.409 . S
C729 H721 0.930 1_556 S
C729 C727 1.419 . S
C729 C730 1.362 . S
C730 H722 0.930 . S
C730 C729 1.362 . S
C730 C733 1.409 . S
C731 H723 0.930 . S
C731 C732 1.355 . S
C731 C733 1.415 . S
C732 C731 1.355 . S
C732 C734 1.419 . S
C733 C728 1.425 . S
C733 C730 1.409 . S
C733 C731 1.415 . S
C734 H724 0.930 . S
C734 C732 1.419 . S
C734 C735 1.362 . S
C735 H725 0.930 . S
C735 C728 1.409 . S
C735 C734 1.362 . S
H736 C742 0.930 . S
H737 C745 0.930 . S
H738 C746 0.930 . S
H739 C747 0.930 . S
H740 C750 0.930 . S
H741 C751 0.930 . S
C742 H736 0.930 . S
C742 C743 1.355 . S
C742 C744 1.415 . S
C743 C742 1.355 . S
C743 C745 1.419 . S
C744 C742 1.415 . S
C744 C749 1.425 . S
C744 C751 1.409 . S
C745 H737 0.930 . S
C745 C743 1.419 . S
C745 C746 1.362 . S
C746 H738 0.930 . S
C746 C745 1.362 . S
C746 C749 1.409 . S
C747 H739 0.930 . S
C747 C748 1.355 . S
C747 C749 1.415 . S
C748 C747 1.355 . S
C748 C750 1.419 . S
C749 C744 1.425 . S
C749 C746 1.409 . S
C749 C747 1.415 . S
C750 H740 0.930 . S
C750 C748 1.419 . S
C750 C751 1.362 . S
C751 H741 0.930 . S
C751 C744 1.409 . S
C751 C750 1.362 . S
H752 C758 0.930 . S
H753 C761 0.930 . S
H754 C762 0.930 . S
H755 C763 0.930 . S
H756 C766 0.930 . S
H757 C767 0.930 . S
C758 H752 0.930 . S
C758 C759 1.355 . S
C758 C760 1.415 . S
C759 C758 1.355 . S
C759 C761 1.419 . S
C760 C758 1.415 . S
C760 C765 1.425 . S
C760 C767 1.409 . S
C761 H753 0.930 . S
C761 C759 1.419 . S
C761 C762 1.362 . S
C762 H754 0.930 . S
C762 C761 1.362 . S
C762 C765 1.409 . S
C763 H755 0.930 . S
C763 C764 1.355 . S
C763 C765 1.415 . S
C764 C763 1.355 . S
C764 C766 1.419 . S
C765 C760 1.425 . S
C765 C762 1.409 . S
C765 C763 1.415 . S
C766 H756 0.930 . S
C766 C764 1.419 . S
C766 C767 1.362 . S
C767 H757 0.930 . S
C767 C760 1.409 . S
C767 C766 1.362 . S
H768 C774 0.930 . S
H769 C777 0.930 . S
H770 C778 0.930 . S
H771 C779 0.930 . S
H772 C782 0.930 . S
H773 C783 0.930 . S
C774 H768 0.930 . S
C774 C775 1.355 . S
C774 C776 1.415 . S
C775 C774 1.355 . S
C775 C777 1.419 . S
C776 C774 1.415 . S
C776 C781 1.425 . S
C776 C783 1.409 . S
C777 H769 0.930 . S
C777 C775 1.419 . S
C777 C778 1.362 . S
C778 H770 0.930 . S
C778 C777 1.362 . S
C778 C781 1.409 . S
C779 H771 0.930 . S
C779 C780 1.355 . S
C779 C781 1.415 . S
C780 C779 1.355 . S
C780 C782 1.419 . S
C781 C776 1.425 . S
C781 C778 1.409 . S
C781 C779 1.415 . S
C782 H772 0.930 . S
C782 C780 1.419 . S
C782 C783 1.362 . S
C783 H773 0.930 . S
C783 C776 1.409 . S
C783 C782 1.362 . S
H784 C790 0.930 . S
H785 C793 0.930 . S
H786 C794 0.930 . S
H787 C795 0.930 . S
H788 C798 0.930 . S
H789 C799 0.930 . S
C790 H784 0.930 . S
C790 C791 1.355 . S
C790 C792 1.415 . S
C791 C790 1.355 . S
C791 C793 1.419 . S
C792 C790 1.415 . S
C792 C797 1.425 . S
C792 C799 1.409 . S
C793 H785 0.930 . S
C793 C791 1.419 . S
C793 C794 1.362 . S
C794 H786 0.930 . S
C794 C793 1.362 . S
C794 C797 1.409 . S
C795 H787 0.930 . S
C795 C796 1.355 . S
C795 C797 1.415 . S
C796 C795 1.355 . S
C796 C798 1.419 . S
C797 C792 1.425 . S
C797 C794 1.409 . S
C797 C795 1.415 . S
C798 H788 0.930 . S
C798 C796 1.419 . S
C798 C799 1.362 . S
C799 H789 0.930 . S
C799 C792 1.409 . S
C799 C798 1.362 . S
H800 C806 0.930 . S
H801 C809 0.930 . S
H802 C810 0.930 . S
H803 C811 0.930 . S
H804 C814 0.930 . S
H805 C815 0.930 . S
C806 H800 0.930 . S
C806 C807 1.355 . S
C806 C808 1.415 . S
C807 C806 1.355 . S
C807 C809 1.419 . S
C808 C806 1.415 . S
C808 C813 1.425 . S
C808 C815 1.409 . S
C809 H801 0.930 . S
C809 C807 1.419 . S
C809 C810 1.362 . S
C810 H802 0.930 . S
C810 C809 1.362 . S
C810 C813 1.409 . S
C811 H803 0.930 . S
C811 C812 1.355 . S
C811 C813 1.415 . S
C812 C811 1.355 . S
C812 C814 1.419 . S
C813 C808 1.425 . S
C813 C810 1.409 . S
C813 C811 1.415 . S
C814 H804 0.930 . S
C814 C812 1.419 . S
C814 C815 1.362 . S
C815 H805 0.930 . S
C815 C808 1.409 . S
C815 C814 1.362 . S
H816 C822 0.930 . S
H817 C825 0.930 . S
H818 C826 0.930 . S
H819 C827 0.930 . S
H820 C830 0.930 . S
H821 C831 0.930 . S
C822 H816 0.930 . S
C822 C823 1.355 . S
C822 C824 1.415 . S
C823 C822 1.355 . S
C823 C825 1.419 . S
C824 C822 1.415 . S
C824 C829 1.425 . S
C824 C831 1.409 . S
C825 H817 0.930 . S
C825 C823 1.419 . S
C825 C826 1.362 . S
C826 H818 0.930 . S
C826 C825 1.362 . S
C826 C829 1.409 . S
C827 H819 0.930 . S
C827 C828 1.355 . S
C827 C829 1.415 . S
C828 C827 1.355 . S
C828 C830 1.419 . S
C829 C824 1.425 . S
C829 C826 1.409 . S
C829 C827 1.415 . S
C830 H820 0.930 . S
C830 C828 1.419 . S
C830 C831 1.362 . S
C831 H821 0.930 . S
C831 C824 1.409 . S
C831 C830 1.362 . S
H832 C838 0.930 . S
H833 C841 0.930 . S
H834 C842 0.930 . S
H835 C843 0.930 . S
H836 C846 0.930 1_455 S
H837 C847 0.930 . S
C838 H832 0.930 . S
C838 C839 1.355 . S
C838 C840 1.415 . S
C839 C838 1.355 . S
C839 C841 1.419 . S
C840 C838 1.415 . S
C840 C845 1.425 . S
C840 C847 1.409 . S
C841 H833 0.930 . S
C841 C839 1.419 . S
C841 C842 1.362 . S
C842 H834 0.930 . S
C842 C841 1.362 . S
C842 C845 1.409 . S
C843 H835 0.930 . S
C843 C844 1.355 . S
C843 C845 1.415 . S
C844 C843 1.355 . S
C844 C846 1.419 . S
C845 C840 1.425 . S
C845 C842 1.409 . S
C845 C843 1.415 . S
C846 H836 0.930 1_655 S
C846 C844 1.419 . S
C846 C847 1.362 . S
C847 H837 0.930 . S
C847 C840 1.409 . S
C847 C846 1.362 . S
H848 C854 0.930 . S
H849 C857 0.930 . S
H850 C858 0.930 . S
H851 C859 0.930 . S
H852 C862 0.930 . S
H853 C863 0.930 . S
C854 H848 0.930 . S
C854 C855 1.355 . S
C854 C856 1.415 . S
C855 C854 1.355 . S
C855 C857 1.419 . S
C856 C854 1.415 . S
C856 C861 1.425 . S
C856 C863 1.409 . S
C857 H849 0.930 . S
C857 C855 1.419 . S
C857 C858 1.362 . S
C858 H850 0.930 . S
C858 C857 1.362 . S
C858 C861 1.409 . S
C859 H851 0.930 . S
C859 C860 1.355 . S
C859 C861 1.415 . S
C860 C859 1.355 . S
C860 C862 1.419 . S
C861 C856 1.425 . S
C861 C858 1.409 . S
C861 C859 1.415 . S
C862 H852 0.930 . S
C862 C860 1.419 . S
C862 C863 1.362 . S
C863 H853 0.930 . S
C863 C856 1.409 . S
C863 C862 1.362 . S
H864 C870 0.930 . S
H865 C873 0.930 . S
H866 C874 0.930 . S
H867 C875 0.930 . S
H868 C878 0.930 . S
H869 C879 0.930 . S
C870 H864 0.930 . S
C870 C871 1.355 . S
C870 C872 1.415 . S
C871 C870 1.355 . S
C871 C873 1.419 . S
C872 C870 1.415 . S
C872 C877 1.425 . S
C872 C879 1.409 . S
C873 H865 0.930 . S
C873 C871 1.419 . S
C873 C874 1.362 . S
C874 H866 0.930 . S
C874 C873 1.362 . S
C874 C877 1.409 . S
C875 H867 0.930 . S
C875 C876 1.355 . S
C875 C877 1.415 . S
C876 C875 1.355 . S
C876 C878 1.419 . S
C877 C872 1.425 . S
C877 C874 1.409 . S
C877 C875 1.415 . S
C878 H868 0.930 . S
C878 C876 1.419 . S
C878 C879 1.362 . S
C879 H869 0.930 . S
C879 C872 1.409 . S
C879 C878 1.362 . S
H880 C886 0.930 . S
H881 C889 0.930 . S
H882 C890 0.930 . S
H883 C891 0.930 . S
H884 C894 0.930 . S
H885 C895 0.930 . S
C886 H880 0.930 . S
C886 C887 1.355 . S
C886 C888 1.415 . S
C887 C886 1.355 . S
C887 C889 1.419 . S
C888 C886 1.415 . S
C888 C893 1.425 . S
C888 C895 1.409 . S
C889 H881 0.930 . S
C889 C887 1.419 . S
C889 C890 1.362 . S
C890 H882 0.930 . S
C890 C889 1.362 . S
C890 C893 1.409 . S
C891 H883 0.930 . S
C891 C892 1.355 . S
C891 C893 1.415 . S
C892 C891 1.355 . S
C892 C894 1.419 . S
C893 C888 1.425 . S
C893 C890 1.409 . S
C893 C891 1.415 . S
C894 H884 0.930 . S
C894 C892 1.419 . S
C894 C895 1.362 . S
C895 H885 0.930 . S
C895 C888 1.409 . S
C895 C894 1.362 . S
H896 C902 0.930 . S
H897 C905 0.930 . S
H898 C906 0.930 . S
H899 C907 0.930 . S
H900 C910 0.930 . S
H901 C911 0.930 . S
C902 H896 0.930 . S
C902 C903 1.355 . S
C902 C904 1.415 . S
C903 C902 1.355 . S
C903 C905 1.419 . S
C904 C902 1.415 . S
C904 C909 1.425 . S
C904 C911 1.409 . S
C905 H897 0.930 . S
C905 C903 1.419 . S
C905 C906 1.362 . S
C906 H898 0.930 . S
C906 C905 1.362 . S
C906 C909 1.409 . S
C907 H899 0.930 . S
C907 C908 1.355 . S
C907 C909 1.415 . S
C908 C907 1.355 . S
C908 C910 1.419 . S
C909 C904 1.425 . S
C909 C906 1.409 . S
C909 C907 1.415 . S
C910 H900 0.930 . S
C910 C908 1.419 . S
C910 C911 1.362 . S
C911 H901 0.930 . S
C911 C904 1.409 . S
C911 C910 1.362 . S
H912 C918 0.930 . S
H913 C921 0.930 . S
H914 C922 0.930 . S
H915 C923 0.930 1_455 S
H916 C926 0.930 . S
H917 C927 0.930 . S
C918 H912 0.930 . S
C918 C919 1.355 . S
C918 C920 1.415 . S
C919 C918 1.355 . S
C919 C921 1.419 1_655 S
C920 C918 1.415 . S
C920 C925 1.425 1_565 S
C920 C927 1.409 1_565 S
C921 H913 0.930 . S
C921 C919 1.419 1_455 S
C921 C922 1.362 . S
C922 H914 0.930 . S
C922 C921 1.362 . S
C922 C925 1.409 1_465 S
C923 H915 0.930 1_655 S
C923 C924 1.355 . S
C923 C925 1.415 . S
C924 C923 1.355 . S
C924 C926 1.419 . S
C925 C920 1.425 1_545 S
C925 C922 1.409 1_645 S
C925 C923 1.415 . S
C926 H916 0.930 . S
C926 C924 1.419 . S
C926 C927 1.362 . S
C927 H917 0.930 . S
C927 C920 1.409 1_545 S
C927 C926 1.362 . S
H928 C934 0.930 . S
H929 C937 0.930 . S
H930 C938 0.930 . S
H931 C939 0.930 . S
H932 C942 0.930 . S
H933 C943 0.930 . S
C934 H928 0.930 . S
C934 C935 1.355 . S
C934 C936 1.415 . S
C935 C934 1.355 . S
C935 C937 1.419 . S
C936 C934 1.415 . S
C936 C941 1.425 . S
C936 C943 1.409 . S
C937 H929 0.930 . S
C937 C935 1.419 . S
C937 C938 1.362 . S
C938 H930 0.930 . S
C938 C937 1.362 . S
C938 C941 1.409 . S
C939 H931 0.930 . S
C939 C940 1.355 . S
C939 C941 1.415 . S
C940 C939 1.355 . S
C940 C942 1.419 . S
C941 C936 1.425 . S
C941 C938 1.409 . S
C941 C939 1.415 . S
C942 H932 0.930 . S
C942 C940 1.419 . S
C942 C943 1.362 . S
C943 H933 0.930 . S
C943 C936 1.409 . S
C943 C942 1.362 . S
H944 C950 0.930 . S
H945 C953 0.930 . S
H946 C954 0.930 . S
H947 C955 0.930 . S
H948 C958 0.930 . S
H949 C959 0.930 . S
C950 H944 0.930 . S
C950 C951 1.355 . S
C950 C952 1.415 . S
C951 C950 1.355 . S
C951 C953 1.419 . S
C952 C950 1.415 . S
C952 C957 1.425 1_565 S
C952 C959 1.409 1_565 S
C953 H945 0.930 . S
C953 C951 1.419 . S
C953 C954 1.362 . S
C954 H946 0.930 . S
C954 C953 1.362 . S
C954 C957 1.409 1_565 S
C955 H947 0.930 . S
C955 C956 1.355 . S
C955 C957 1.415 . S
C956 C955 1.355 . S
C956 C958 1.419 . S
C957 C952 1.425 1_545 S
C957 C954 1.409 1_545 S
C957 C955 1.415 . S
C958 H948 0.930 . S
C958 C956 1.419 . S
C958 C959 1.362 . S
C959 H949 0.930 . S
C959 C952 1.409 1_545 S
C959 C958 1.362 . S
H960 C966 0.930 . S
H961 C969 0.930 . S
H962 C970 0.930 . S
H963 C971 0.930 . S
H964 C974 0.930 . S
H965 C975 0.930 . S
C966 H960 0.930 . S
C966 C967 1.355 1_554 S
C966 C968 1.415 . S
C967 C966 1.355 1_556 S
C967 C969 1.419 . S
C968 C966 1.415 . S
C968 C973 1.425 1_554 S
C968 C975 1.409 . S
C969 H961 0.930 . S
C969 C967 1.419 . S
C969 C970 1.362 . S
C970 H962 0.930 . S
C970 C969 1.362 . S
C970 C973 1.409 . S
C971 H963 0.930 . S
C971 C972 1.355 1_556 S
C971 C973 1.415 . S
C972 C971 1.355 1_554 S
C972 C974 1.419 . S
C973 C968 1.425 1_556 S
C973 C970 1.409 . S
C973 C971 1.415 . S
C974 H964 0.930 . S
C974 C972 1.419 . S
C974 C975 1.362 . S
C975 H965 0.930 . S
C975 C968 1.409 . S
C975 C974 1.362 . S
H976 C982 0.930 . S
H977 C985 0.930 . S
H978 C986 0.930 . S
H979 C987 0.930 . S
H980 C990 0.930 . S
H981 C991 0.930 . S
C982 H976 0.930 . S
C982 C983 1.355 . S
C982 C984 1.415 . S
C983 C982 1.355 . S
C983 C985 1.419 . S
C984 C982 1.415 . S
C984 C989 1.425 1_556 S
C984 C991 1.409 1_556 S
C985 H977 0.930 . S
C985 C983 1.419 . S
C985 C986 1.362 . S
C986 H978 0.930 . S
C986 C985 1.362 . S
C986 C989 1.409 1_556 S
C987 H979 0.930 . S
C987 C988 1.355 . S
C987 C989 1.415 . S
C988 C987 1.355 . S
C988 C990 1.419 . S
C989 C984 1.425 1_554 S
C989 C986 1.409 1_554 S
C989 C987 1.415 . S
C990 H980 0.930 . S
C990 C988 1.419 . S
C990 C991 1.362 . S
C991 H981 0.930 . S
C991 C984 1.409 1_554 S
C991 C990 1.362 . S
H992 C998 0.930 . S
H993 C1001 0.930 . S
H994 C1002 0.930 . S
H995 C1003 0.930 . S
H996 C1006 0.930 . S
H997 C1007 0.930 . S
C998 H992 0.930 . S
C998 C999 1.355 1_565 S
C998 C1000 1.415 . S
C999 C998 1.355 1_545 S
C999 C1001 1.419 . S
C1000 C998 1.415 . S
C1000 C1005 1.425 1_565 S
C1000 C1007 1.409 . S
C1001 H993 0.930 . S
C1001 C999 1.419 . S
C1001 C1002 1.362 . S
C1002 H994 0.930 . S
C1002 C1001 1.362 . S
C1002 C1005 1.409 . S
C1003 H995 0.930 . S
C1003 C1004 1.355 1_545 S
C1003 C1005 1.415 . S
C1004 C1003 1.355 1_565 S
C1004 C1006 1.419 . S
C1005 C1000 1.425 1_545 S
C1005 C1002 1.409 . S
C1005 C1003 1.415 . S
C1006 H996 0.930 . S
C1006 C1004 1.419 . S
C1006 C1007 1.362 . S
C1007 H997 0.930 . S
C1007 C1000 1.409 . S
C1007 C1006 1.362 . S
H1008 C1014 0.930 . S
H1009 C1017 0.930 . S
H1010 C1018 0.930 . S
H1011 C1019 0.930 1_565 S
H1012 C1022 0.930 . S
H1013 C1023 0.930 . S
C1014 H1008 0.930 . S
C1014 C1015 1.355 . S
C1014 C1016 1.415 . S
C1015 C1014 1.355 . S
C1015 C1017 1.419 1_545 S
C1016 C1014 1.415 . S
C1016 C1021 1.425 . S
C1016 C1023 1.409 . S
C1017 H1009 0.930 . S
C1017 C1015 1.419 1_565 S
C1017 C1018 1.362 . S
C1018 H1010 0.930 . S
C1018 C1017 1.362 . S
C1018 C1021 1.409 1_565 S
C1019 H1011 0.930 1_545 S
C1019 C1020 1.355 . S
C1019 C1021 1.415 . S
C1020 C1019 1.355 . S
C1020 C1022 1.419 . S
C1021 C1016 1.425 . S
C1021 C1018 1.409 1_545 S
C1021 C1019 1.415 . S
C1022 H1012 0.930 . S
C1022 C1020 1.419 . S
C1022 C1023 1.362 . S
C1023 H1013 0.930 . S
C1023 C1016 1.409 . S
C1023 C1022 1.362 . S
H1024 C1030 0.930 . S
H1025 C1033 0.930 . S
H1026 C1034 0.930 . S
H1027 C1035 0.930 . S
H1028 C1038 0.930 . S
H1029 C1039 0.930 . S
C1030 H1024 0.930 . S
C1030 C1031 1.355 1_545 S
C1030 C1032 1.415 . S
C1031 C1030 1.355 1_565 S
C1031 C1033 1.419 . S
C1032 C1030 1.415 . S
C1032 C1037 1.425 1_545 S
C1032 C1039 1.409 . S
C1033 H1025 0.930 . S
C1033 C1031 1.419 . S
C1033 C1034 1.362 . S
C1034 H1026 0.930 . S
C1034 C1033 1.362 . S
C1034 C1037 1.409 . S
C1035 H1027 0.930 . S
C1035 C1036 1.355 1_565 S
C1035 C1037 1.415 . S
C1036 C1035 1.355 1_545 S
C1036 C1038 1.419 . S
C1037 C1032 1.425 1_565 S
C1037 C1034 1.409 . S
C1037 C1035 1.415 . S
C1038 H1028 0.930 . S
C1038 C1036 1.419 . S
C1038 C1039 1.362 . S
C1039 H1029 0.930 . S
C1039 C1032 1.409 . S
C1039 C1038 1.362 . S
H1040 C1046 0.930 . S
H1041 C1049 0.930 . S
H1042 C1050 0.930 . S
H1043 C1051 0.930 1_554 S
H1044 C1054 0.930 . S
H1045 C1055 0.930 . S
C1046 H1040 0.930 . S
C1046 C1047 1.355 . S
C1046 C1048 1.415 . S
C1047 C1046 1.355 . S
C1047 C1049 1.419 1_556 S
C1048 C1046 1.415 . S
C1048 C1053 1.425 1_655 S
C1048 C1055 1.409 1_655 S
C1049 H1041 0.930 . S
C1049 C1047 1.419 1_554 S
C1049 C1050 1.362 . S
C1050 H1042 0.930 . S
C1050 C1049 1.362 . S
C1050 C1053 1.409 1_654 S
C1051 H1043 0.930 1_556 S
C1051 C1052 1.355 . S
C1051 C1053 1.415 . S
C1052 C1051 1.355 . S
C1052 C1054 1.419 . S
C1053 C1048 1.425 1_455 S
C1053 C1050 1.409 1_456 S
C1053 C1051 1.415 . S
C1054 H1044 0.930 . S
C1054 C1052 1.419 . S
C1054 C1055 1.362 . S
C1055 H1045 0.930 . S
C1055 C1048 1.409 1_455 S
C1055 C1054 1.362 . S
H1056 C1062 0.930 . S
H1057 C1065 0.930 1_556 S
H1058 C1066 0.930 1_556 S
H1059 C1067 0.952 . S
H1060 C1070 0.930 . S
H1061 C1071 0.930 . S
C1062 H1056 0.930 . S
C1062 C1063 1.355 . S
C1062 C1064 1.415 . S
C1063 C1062 1.355 . S
C1063 C1065 1.419 . S
C1064 C1062 1.415 . S
C1064 C1069 1.425 . S
C1064 C1071 1.409 . S
C1065 H1057 0.930 1_554 S
C1065 C1063 1.419 . S
C1065 C1066 1.362 . S
C1066 H1058 0.930 1_554 S
C1066 C1065 1.362 . S
C1066 C1069 1.409 . S
C1067 H1059 0.952 . S
C1067 C1068 1.355 . S
C1067 C1069 1.415 . S
C1068 C1067 1.355 . S
C1068 C1070 1.419 . S
C1069 C1064 1.425 . S
C1069 C1066 1.409 . S
C1069 C1067 1.415 . S
C1070 H1060 0.930 . S
C1070 C1068 1.419 . S
C1070 C1071 1.362 . S
C1071 H1061 0.930 . S
C1071 C1064 1.409 . S
C1071 C1070 1.362 . S
H1072 C1078 0.930 . S
H1073 C1081 0.930 . S
H1074 C1082 0.930 . S
H1075 C1083 0.930 . S
H1076 C1086 0.930 . S
H1077 C1087 0.930 . S
C1078 H1072 0.930 . S
C1078 C1079 1.355 1_655 S
C1078 C1080 1.415 . S
C1079 C1078 1.355 1_455 S
C1079 C1081 1.419 . S
C1080 C1078 1.415 . S
C1080 C1085 1.425 1_655 S
C1080 C1087 1.409 . S
C1081 H1073 0.930 . S
C1081 C1079 1.419 . S
C1081 C1082 1.362 . S
C1082 H1074 0.930 . S
C1082 C1081 1.362 . S
C1082 C1085 1.409 . S
C1083 H1075 0.930 . S
C1083 C1084 1.355 1_455 S
C1083 C1085 1.415 . S
C1084 C1083 1.355 1_655 S
C1084 C1086 1.419 . S
C1085 C1080 1.425 1_455 S
C1085 C1082 1.409 . S
C1085 C1083 1.415 . S
C1086 H1076 0.930 . S
C1086 C1084 1.419 . S
C1086 C1087 1.362 . S
C1087 H1077 0.930 . S
C1087 C1080 1.409 . S
C1087 C1086 1.362 . S
H1088 C1094 0.930 . S
H1089 C1097 0.930 . S
H1090 C1098 0.930 . S
H1091 C1099 0.930 . S
H1092 C1102 0.930 . S
H1093 C1103 0.930 . S
C1094 H1088 0.930 . S
C1094 C1095 1.355 . S
C1094 C1096 1.415 . S
C1095 C1094 1.355 . S
C1095 C1097 1.419 . S
C1096 C1094 1.415 . S
C1096 C1101 1.425 1_455 S
C1096 C1103 1.409 1_455 S
C1097 H1089 0.930 . S
C1097 C1095 1.419 . S
C1097 C1098 1.362 . S
C1098 H1090 0.930 . S
C1098 C1097 1.362 . S
C1098 C1101 1.409 1_455 S
C1099 H1091 0.930 . S
C1099 C1100 1.355 . S
C1099 C1101 1.415 . S
C1100 C1099 1.355 . S
C1100 C1102 1.419 . S
C1101 C1096 1.425 1_655 S
C1101 C1098 1.409 1_655 S
C1101 C1099 1.415 . S
C1102 H1092 0.930 . S
C1102 C1100 1.419 . S
C1102 C1103 1.362 . S
C1103 H1093 0.930 . S
C1103 C1096 1.409 1_655 S
C1103 C1102 1.362 . S
H1104 C1110 0.930 . S
H1105 C1113 0.930 . S
H1106 C1114 0.930 . S
H1107 C1115 0.930 . S
H1108 C1118 0.930 . S
H1109 C1119 0.930 . S
C1110 H1104 0.930 . S
C1110 C1111 1.355 . S
C1110 C1112 1.415 . S
C1111 C1110 1.355 . S
C1111 C1113 1.419 . S
C1112 C1110 1.415 . S
C1112 C1117 1.425 . S
C1112 C1119 1.409 . S
C1113 H1105 0.930 . S
C1113 C1111 1.419 . S
C1113 C1114 1.362 . S
C1114 H1106 0.930 . S
C1114 C1113 1.362 . S
C1114 C1117 1.409 . S
C1115 H1107 0.930 . S
C1115 C1116 1.355 . S
C1115 C1117 1.415 . S
C1116 C1115 1.355 . S
C1116 C1118 1.419 . S
C1117 C1112 1.425 . S
C1117 C1114 1.409 . S
C1117 C1115 1.415 . S
C1118 H1108 0.930 . S
C1118 C1116 1.419 . S
C1118 C1119 1.362 . S
C1119 H1109 0.930 . S
C1119 C1112 1.409 . S
C1119 C1118 1.362 . S
H1120 C1126 0.930 . S
H1121 C1129 0.930 . S
H1122 C1130 0.930 . S
H1123 C1131 0.930 . S
H1124 C1134 0.930 . S
H1125 C1135 0.930 . S
C1126 H1120 0.930 . S
C1126 C1127 1.355 1_655 S
C1126 C1128 1.415 . S
C1127 C1126 1.355 1_455 S
C1127 C1129 1.419 . S
C1128 C1126 1.415 . S
C1128 C1133 1.425 1_655 S
C1128 C1135 1.409 . S
C1129 H1121 0.930 . S
C1129 C1127 1.419 . S
C1129 C1130 1.362 . S
C1130 H1122 0.930 . S
C1130 C1129 1.362 . S
C1130 C1133 1.409 . S
C1131 H1123 0.930 . S
C1131 C1132 1.355 1_455 S
C1131 C1133 1.415 . S
C1132 C1131 1.355 1_655 S
C1132 C1134 1.419 . S
C1133 C1128 1.425 1_455 S
C1133 C1130 1.409 . S
C1133 C1131 1.415 . S
C1134 H1124 0.930 . S
C1134 C1132 1.419 . S
C1134 C1135 1.362 . S
C1135 H1125 0.930 . S
C1135 C1128 1.409 . S
C1135 C1134 1.362 . S
H1136 C1142 0.930 . S
H1137 C1145 0.930 . S
H1138 C1146 0.930 . S
H1139 C1147 0.930 . S
H1140 C1150 0.930 . S
H1141 C1151 0.930 . S
C1142 H1136 0.930 . S
C1142 C1143 1.355 . S
C1142 C1144 1.415 . S
C1143 C1142 1.355 . S
C1143 C1145 1.419 . S
C1144 C1142 1.415 . S
C1144 C1149 1.425 . S
C1144 C1151 1.409 . S
C1145 H1137 0.930 . S
C1145 C1143 1.419 . S
C1145 C1146 1.362 . S
C1146 H1138 0.930 . S
C1146 C1145 1.362 . S
C1146 C1149 1.409 . S
C1147 H1139 0.930 . S
C1147 C1148 1.355 . S
C1147 C1149 1.415 . S
C1148 C1147 1.355 . S
C1148 C1150 1.419 . S
C1149 C1144 1.425 . S
C1149 C1146 1.409 . S
C1149 C1147 1.415 . S
C1150 H1140 0.930 . S
C1150 C1148 1.419 . S
C1150 C1151 1.362 . S
C1151 H1141 0.930 . S
C1151 C1144 1.409 . S
C1151 C1150 1.362 . S
H1152 C1158 0.930 . S
H1153 C1161 0.930 . S
H1154 C1162 0.930 . S
H1155 C1163 0.930 . S
H1156 C1166 0.930 . S
H1157 C1167 0.930 . S
C1158 H1152 0.930 . S
C1158 C1159 1.355 . S
C1158 C1160 1.415 . S
C1159 C1158 1.355 . S
C1159 C1161 1.419 . S
C1160 C1158 1.415 . S
C1160 C1165 1.425 . S
C1160 C1167 1.409 . S
C1161 H1153 0.930 . S
C1161 C1159 1.419 . S
C1161 C1162 1.362 . S
C1162 H1154 0.930 . S
C1162 C1161 1.362 . S
C1162 C1165 1.409 . S
C1163 H1155 0.930 . S
C1163 C1164 1.355 . S
C1163 C1165 1.415 . S
C1164 C1163 1.355 . S
C1164 C1166 1.419 . S
C1165 C1160 1.425 . S
C1165 C1162 1.409 . S
C1165 C1163 1.415 . S
C1166 H1156 0.930 . S
C1166 C1164 1.419 . S
C1166 C1167 1.362 . S
C1167 H1157 0.930 . S
C1167 C1160 1.409 . S
C1167 C1166 1.362 . S
H1168 C1174 0.930 . S
H1169 C1177 0.930 . S
H1170 C1178 0.930 . S
H1171 C1179 0.930 . S
H1172 C1182 0.930 . S
H1173 C1183 0.930 . S
C1174 H1168 0.930 . S
C1174 C1175 1.355 1_556 S
C1174 C1176 1.415 . S
C1175 C1174 1.355 1_554 S
C1175 C1177 1.419 . S
C1176 C1174 1.415 . S
C1176 C1181 1.425 1_556 S
C1176 C1183 1.409 . S
C1177 H1169 0.930 . S
C1177 C1175 1.419 . S
C1177 C1178 1.362 . S
C1178 H1170 0.930 . S
C1178 C1177 1.362 . S
C1178 C1181 1.409 . S
C1179 H1171 0.930 . S
C1179 C1180 1.355 1_554 S
C1179 C1181 1.415 . S
C1180 C1179 1.355 1_556 S
C1180 C1182 1.419 . S
C1181 C1176 1.425 1_554 S
C1181 C1178 1.409 . S
C1181 C1179 1.415 . S
C1182 H1172 0.930 . S
C1182 C1180 1.419 . S
C1182 C1183 1.362 . S
C1183 H1173 0.930 . S
C1183 C1176 1.409 . S
C1183 C1182 1.362 . S
H1184 C1190 0.930 1_655 S
H1185 C1193 0.930 . S
H1186 C1194 0.930 . S
H1187 C1195 0.930 . S
H1188 C1198 0.930 . S
H1189 C1199 0.930 . S
C1190 H1184 0.930 1_455 S
C1190 C1191 1.355 . S
C1190 C1192 1.415 . S
C1191 C1190 1.355 . S
C1191 C1193 1.419 . S
C1192 C1190 1.415 . S
C1192 C1197 1.425 . S
C1192 C1199 1.409 1_455 S
C1193 H1185 0.930 . S
C1193 C1191 1.419 . S
C1193 C1194 1.362 . S
C1194 H1186 0.930 . S
C1194 C1193 1.362 . S
C1194 C1197 1.409 . S
C1195 H1187 0.930 . S
C1195 C1196 1.355 . S
C1195 C1197 1.415 . S
C1196 C1195 1.355 . S
C1196 C1198 1.419 1_455 S
C1197 C1192 1.425 . S
C1197 C1194 1.409 . S
C1197 C1195 1.415 . S
C1198 H1188 0.930 . S
C1198 C1196 1.419 1_655 S
C1198 C1199 1.362 . S
C1199 H1189 0.930 . S
C1199 C1192 1.409 1_655 S
C1199 C1198 1.362 . S
H1200 C1206 0.930 . S
H1201 C1209 0.930 . S
H1202 C1210 0.930 . S
H1203 C1211 0.930 . S
H1204 C1214 0.930 . S
H1205 C1215 0.930 . S
C1206 H1200 0.930 . S
C1206 C1207 1.355 . S
C1206 C1208 1.415 . S
C1207 C1206 1.355 . S
C1207 C1209 1.419 . S
C1208 C1206 1.415 . S
C1208 C1213 1.425 . S
C1208 C1215 1.409 . S
C1209 H1201 0.930 . S
C1209 C1207 1.419 . S
C1209 C1210 1.362 . S
C1210 H1202 0.930 . S
C1210 C1209 1.362 . S
C1210 C1213 1.409 . S
C1211 H1203 0.930 . S
C1211 C1212 1.355 . S
C1211 C1213 1.415 . S
C1212 C1211 1.355 . S
C1212 C1214 1.419 . S
C1213 C1208 1.425 . S
C1213 C1210 1.409 . S
C1213 C1211 1.415 . S
C1214 H1204 0.930 . S
C1214 C1212 1.419 . S
C1214 C1215 1.362 . S
C1215 H1205 0.930 . S
C1215 C1208 1.409 . S
C1215 C1214 1.362 . S
H1216 C1222 0.930 . S
H1217 C1225 0.930 . S
H1218 C1226 0.930 . S
H1219 C1227 0.930 . S
H1220 C1230 0.930 . S
H1221 C1231 0.930 . S
C1222 H1216 0.930 . S
C1222 C1223 1.355 . S
C1222 C1224 1.415 . S
C1223 C1222 1.355 . S
C1223 C1225 1.419 . S
C1224 C1222 1.415 . S
C1224 C1229 1.425 . S
C1224 C1231 1.409 . S
C1225 H1217 0.930 . S
C1225 C1223 1.419 . S
C1225 C1226 1.362 . S
C1226 H1218 0.930 . S
C1226 C1225 1.362 . S
C1226 C1229 1.409 . S
C1227 H1219 0.930 . S
C1227 C1228 1.355 . S
C1227 C1229 1.415 . S
C1228 C1227 1.355 . S
C1228 C1230 1.419 . S
C1229 C1224 1.425 . S
C1229 C1226 1.409 . S
C1229 C1227 1.415 . S
C1230 H1220 0.930 . S
C1230 C1228 1.419 . S
C1230 C1231 1.362 . S
C1231 H1221 0.930 . S
C1231 C1224 1.409 . S
C1231 C1230 1.362 . S
H1232 C1238 0.930 . S
H1233 C1241 0.930 . S
H1234 C1242 0.930 . S
H1235 C1243 0.930 . S
H1236 C1246 0.930 . S
H1237 C1247 0.930 . S
C1238 H1232 0.930 . S
C1238 C1239 1.355 . S
C1238 C1240 1.415 . S
C1239 C1238 1.355 . S
C1239 C1241 1.419 . S
C1240 C1238 1.415 . S
C1240 C1245 1.425 . S
C1240 C1247 1.409 . S
C1241 H1233 0.930 . S
C1241 C1239 1.419 . S
C1241 C1242 1.362 . S
C1242 H1234 0.930 . S
C1242 C1241 1.362 . S
C1242 C1245 1.409 . S
C1243 H1235 0.930 . S
C1243 C1244 1.355 . S
C1243 C1245 1.415 . S
C1244 C1243 1.355 . S
C1244 C1246 1.419 . S
C1245 C1240 1.425 . S
C1245 C1242 1.409 . S
C1245 C1243 1.415 . S
C1246 H1236 0.930 . S
C1246 C1244 1.419 . S
C1246 C1247 1.362 . S
C1247 H1237 0.930 . S
C1247 C1240 1.409 . S
C1247 C1246 1.362 . S
H1248 C1254 0.930 . S
H1249 C1257 0.930 . S
H1250 C1258 0.930 . S
H1251 C1259 0.930 . S
H1252 C1262 0.930 . S
H1253 C1263 0.930 . S
C1254 H1248 0.930 . S
C1254 C1255 1.355 . S
C1254 C1256 1.415 . S
C1255 C1254 1.355 . S
C1255 C1257 1.419 . S
C1256 C1254 1.415 . S
C1256 C1261 1.425 1_554 S
C1256 C1263 1.409 1_554 S
C1257 H1249 0.930 . S
C1257 C1255 1.419 . S
C1257 C1258 1.362 . S
C1258 H1250 0.930 . S
C1258 C1257 1.362 . S
C1258 C1261 1.409 1_554 S
C1259 H1251 0.930 . S
C1259 C1260 1.355 . S
C1259 C1261 1.415 . S
C1260 C1259 1.355 . S
C1260 C1262 1.419 . S
C1261 C1256 1.425 1_556 S
C1261 C1258 1.409 1_556 S
C1261 C1259 1.415 . S
C1262 H1252 0.930 . S
C1262 C1260 1.419 . S
C1262 C1263 1.362 . S
C1263 H1253 0.930 . S
C1263 C1256 1.409 1_556 S
C1263 C1262 1.362 . S
H1264 C1270 0.930 . S
H1265 C1273 0.930 . S
H1266 C1274 0.930 . S
H1267 C1275 0.930 . S
H1268 C1278 0.930 . S
H1269 C1279 0.930 . S
C1270 H1264 0.930 . S
C1270 C1271 1.355 . S
C1270 C1272 1.415 . S
C1271 C1270 1.355 . S
C1271 C1273 1.419 . S
C1272 C1270 1.415 . S
C1272 C1277 1.425 . S
C1272 C1279 1.409 . S
C1273 H1265 0.930 . S
C1273 C1271 1.419 . S
C1273 C1274 1.362 . S
C1274 H1266 0.930 . S
C1274 C1273 1.362 . S
C1274 C1277 1.409 . S
C1275 H1267 0.930 . S
C1275 C1276 1.355 . S
C1275 C1277 1.415 . S
C1276 C1275 1.355 . S
C1276 C1278 1.419 . S
C1277 C1272 1.425 . S
C1277 C1274 1.409 . S
C1277 C1275 1.415 . S
C1278 H1268 0.930 . S
C1278 C1276 1.419 . S
C1278 C1279 1.362 . S
C1279 H1269 0.930 . S
C1279 C1272 1.409 . S
C1279 C1278 1.362 . S
H1280 C1286 0.930 . S
H1281 C1289 0.930 . S
H1282 C1290 0.930 . S
H1283 C1291 0.930 . S
H1284 C1294 0.930 . S
H1285 C1295 0.930 . S
C1286 H1280 0.930 . S
C1286 C1287 1.355 . S
C1286 C1288 1.415 . S
C1287 C1286 1.355 . S
C1287 C1289 1.419 . S
C1288 C1286 1.415 . S
C1288 C1293 1.425 . S
C1288 C1295 1.409 . S
C1289 H1281 0.930 . S
C1289 C1287 1.419 . S
C1289 C1290 1.362 . S
C1290 H1282 0.930 . S
C1290 C1289 1.362 . S
C1290 C1293 1.409 . S
C1291 H1283 0.930 . S
C1291 C1292 1.355 . S
C1291 C1293 1.415 . S
C1292 C1291 1.355 . S
C1292 C1294 1.419 . S
C1293 C1288 1.425 . S
C1293 C1290 1.409 . S
C1293 C1291 1.415 . S
C1294 H1284 0.930 . S
C1294 C1292 1.419 . S
C1294 C1295 1.362 . S
C1295 H1285 0.930 . S
C1295 C1288 1.409 . S
C1295 C1294 1.362 . S
H1296 C1302 0.930 . S
H1297 C1305 0.930 . S
H1298 C1306 0.930 . S
H1299 C1307 0.930 . S
H1300 C1310 0.930 . S
H1301 C1311 0.930 . S
C1302 H1296 0.930 . S
C1302 C1303 1.355 . S
C1302 C1304 1.415 . S
C1303 C1302 1.355 . S
C1303 C1305 1.419 . S
C1304 C1302 1.415 . S
C1304 C1309 1.425 . S
C1304 C1311 1.409 . S
C1305 H1297 0.930 . S
C1305 C1303 1.419 . S
C1305 C1306 1.362 . S
C1306 H1298 0.930 . S
C1306 C1305 1.362 . S
C1306 C1309 1.409 . S
C1307 H1299 0.930 . S
C1307 C1308 1.355 . S
C1307 C1309 1.415 . S
C1308 C1307 1.355 . S
C1308 C1310 1.419 . S
C1309 C1304 1.425 . S
C1309 C1306 1.409 . S
C1309 C1307 1.415 . S
C1310 H1300 0.930 . S
C1310 C1308 1.419 . S
C1310 C1311 1.362 . S
C1311 H1301 0.930 . S
C1311 C1304 1.409 . S
C1311 C1310 1.362 . S
H1312 C1318 0.930 . S
H1313 C1321 0.930 . S
H1314 C1322 0.930 . S
H1315 C1323 0.930 . S
H1316 C1326 0.930 . S
H1317 C1327 0.930 . S
C1318 H1312 0.930 . S
C1318 C1319 1.355 . S
C1318 C1320 1.415 . S
C1319 C1318 1.355 . S
C1319 C1321 1.419 . S
C1320 C1318 1.415 . S
C1320 C1325 1.425 . S
C1320 C1327 1.409 . S
C1321 H1313 0.930 . S
C1321 C1319 1.419 . S
C1321 C1322 1.362 . S
C1322 H1314 0.930 . S
C1322 C1321 1.362 . S
C1322 C1325 1.409 . S
C1323 H1315 0.930 . S
C1323 C1324 1.355 . S
C1323 C1325 1.415 . S
C1324 C1323 1.355 . S
C1324 C1326 1.419 . S
C1325 C1320 1.425 . S
C1325 C1322 1.409 . S
C1325 C1323 1.415 . S
C1326 H1316 0.930 . S
C1326 C1324 1.419 . S
C1326 C1327 1.362 . S
C1327 H1317 0.930 . S
C1327 C1320 1.409 . S
C1327 C1326 1.362 . S
H1328 C1334 0.930 . S
H1329 C1337 0.930 . S
H1330 C1338 0.930 . S
H1331 C1339 0.930 . S
H1332 C1342 0.930 . S
H1333 C1343 0.930 . S
C1334 H1328 0.930 . S
C1334 C1335 1.355 . S
C1334 C1336 1.415 . S
C1335 C1334 1.355 . S
C1335 C1337 1.419 . S
C1336 C1334 1.415 . S
C1336 C1341 1.425 . S
C1336 C1343 1.409 . S
C1337 H1329 0.930 . S
C1337 C1335 1.419 . S
C1337 C1338 1.362 . S
C1338 H1330 0.930 . S
C1338 C1337 1.362 . S
C1338 C1341 1.409 . S
C1339 H1331 0.930 . S
C1339 C1340 1.355 . S
C1339 C1341 1.415 . S
C1340 C1339 1.355 . S
C1340 C1342 1.419 . S
C1341 C1336 1.425 . S
C1341 C1338 1.409 . S
C1341 C1339 1.415 . S
C1342 H1332 0.930 . S
C1342 C1340 1.419 . S
C1342 C1343 1.362 . S
C1343 H1333 0.930 . S
C1343 C1336 1.409 . S
C1343 C1342 1.362 . S
H1344 C1350 0.930 . S
H1345 C1353 0.930 . S
H1346 C1354 0.930 . S
H1347 C1355 0.930 . S
H1348 C1358 0.930 . S
H1349 C1359 0.930 . S
C1350 H1344 0.930 . S
C1350 C1351 1.355 . S
C1350 C1352 1.415 . S
C1351 C1350 1.355 . S
C1351 C1353 1.419 . S
C1352 C1350 1.415 . S
C1352 C1357 1.425 . S
C1352 C1359 1.409 . S
C1353 H1345 0.930 . S
C1353 C1351 1.419 . S
C1353 C1354 1.362 . S
C1354 H1346 0.930 . S
C1354 C1353 1.362 . S
C1354 C1357 1.409 . S
C1355 H1347 0.930 . S
C1355 C1356 1.355 . S
C1355 C1357 1.415 . S
C1356 C1355 1.355 . S
C1356 C1358 1.419 . S
C1357 C1352 1.425 . S
C1357 C1354 1.409 . S
C1357 C1355 1.415 . S
C1358 H1348 0.930 . S
C1358 C1356 1.419 . S
C1358 C1359 1.362 . S
C1359 H1349 0.930 . S
C1359 C1352 1.409 . S
C1359 C1358 1.362 . S
H1360 C1366 0.930 . S
H1361 C1369 0.930 . S
H1362 C1370 0.930 . S
H1363 C1371 0.930 . S
H1364 C1374 0.930 . S
H1365 C1375 0.930 . S
C1366 H1360 0.930 . S
C1366 C1367 1.355 . S
C1366 C1368 1.415 . S
C1367 C1366 1.355 . S
C1367 C1369 1.419 . S
C1368 C1366 1.415 . S
C1368 C1373 1.425 . S
C1368 C1375 1.409 . S
C1369 H1361 0.930 . S
C1369 C1367 1.419 . S
C1369 C1370 1.362 . S
C1370 H1362 0.930 . S
C1370 C1369 1.362 . S
C1370 C1373 1.409 . S
C1371 H1363 0.930 . S
C1371 C1372 1.355 . S
C1371 C1373 1.415 . S
C1372 C1371 1.355 . S
C1372 C1374 1.419 . S
C1373 C1368 1.425 . S
C1373 C1370 1.409 . S
C1373 C1371 1.415 . S
C1374 H1364 0.930 . S
C1374 C1372 1.419 . S
C1374 C1375 1.362 . S
C1375 H1365 0.930 . S
C1375 C1368 1.409 . S
C1375 C1374 1.362 . S
H1376 C1382 0.930 . S
H1377 C1385 0.930 . S
H1378 C1386 0.930 . S
H1379 C1387 0.930 . S
H1380 C1390 0.930 . S
H1381 C1391 0.930 . S
C1382 H1376 0.930 . S
C1382 C1383 1.355 . S
C1382 C1384 1.415 . S
C1383 C1382 1.355 . S
C1383 C1385 1.419 . S
C1384 C1382 1.415 . S
C1384 C1389 1.425 . S
C1384 C1391 1.409 . S
C1385 H1377 0.930 . S
C1385 C1383 1.419 . S
C1385 C1386 1.362 . S
C1386 H1378 0.930 . S
C1386 C1385 1.362 . S
C1386 C1389 1.409 . S
C1387 H1379 0.930 . S
C1387 C1388 1.355 . S
C1387 C1389 1.415 . S
C1388 C1387 1.355 . S
C1388 C1390 1.419 . S
C1389 C1384 1.425 . S
C1389 C1386 1.409 . S
C1389 C1387 1.415 . S
C1390 H1380 0.930 . S
C1390 C1388 1.419 . S
C1390 C1391 1.362 . S
C1391 H1381 0.930 . S
C1391 C1384 1.409 . S
C1391 C1390 1.362 . S
H1392 C1398 0.930 . S
H1393 C1401 0.930 . S
H1394 C1402 0.930 . S
H1395 C1403 0.930 . S
H1396 C1406 0.930 . S
H1397 C1407 0.930 . S
C1398 H1392 0.930 . S
C1398 C1399 1.355 . S
C1398 C1400 1.415 . S
C1399 C1398 1.355 . S
C1399 C1401 1.419 . S
C1400 C1398 1.415 . S
C1400 C1405 1.425 . S
C1400 C1407 1.409 . S
C1401 H1393 0.930 . S
C1401 C1399 1.419 . S
C1401 C1402 1.362 . S
C1402 H1394 0.930 . S
C1402 C1401 1.362 . S
C1402 C1405 1.409 . S
C1403 H1395 0.930 . S
C1403 C1404 1.355 . S
C1403 C1405 1.415 . S
C1404 C1403 1.355 . S
C1404 C1406 1.419 . S
C1405 C1400 1.425 . S
C1405 C1402 1.409 . S
C1405 C1403 1.415 . S
C1406 H1396 0.930 . S
C1406 C1404 1.419 . S
C1406 C1407 1.362 . S
C1407 H1397 0.930 . S
C1407 C1400 1.409 . S
C1407 C1406 1.362 . S
H1408 C1414 0.930 . S
H1409 C1417 0.930 . S
H1410 C1418 0.930 . S
H1411 C1419 0.930 . S
H1412 C1422 0.930 . S
H1413 C1423 0.930 . S
C1414 H1408 0.930 . S
C1414 C1415 1.355 . S
C1414 C1416 1.415 . S
C1415 C1414 1.355 . S
C1415 C1417 1.419 . S
C1416 C1414 1.415 . S
C1416 C1421 1.425 . S
C1416 C1423 1.409 . S
C1417 H1409 0.930 . S
C1417 C1415 1.419 . S
C1417 C1418 1.362 . S
C1418 H1410 0.930 . S
C1418 C1417 1.362 . S
C1418 C1421 1.409 . S
C1419 H1411 0.930 . S
C1419 C1420 1.355 . S
C1419 C1421 1.415 . S
C1420 C1419 1.355 . S
C1420 C1422 1.419 . S
C1421 C1416 1.425 . S
C1421 C1418 1.409 . S
C1421 C1419 1.415 . S
C1422 H1412 0.930 . S
C1422 C1420 1.419 . S
C1422 C1423 1.362 . S
C1423 H1413 0.930 . S
C1423 C1416 1.409 . S
C1423 C1422 1.362 . S
H1424 C1430 0.930 . S
H1425 C1433 0.930 . S
H1426 C1434 0.930 . S
H1427 C1435 0.930 . S
H1428 C1438 0.930 . S
H1429 C1439 0.930 . S
C1430 H1424 0.930 . S
C1430 C1431 1.355 . S
C1430 C1432 1.415 . S
C1431 C1430 1.355 . S
C1431 C1433 1.419 . S
C1432 C1430 1.415 . S
C1432 C1437 1.425 . S
C1432 C1439 1.409 . S
C1433 H1425 0.930 . S
C1433 C1431 1.419 . S
C1433 C1434 1.362 . S
C1434 H1426 0.930 . S
C1434 C1433 1.362 . S
C1434 C1437 1.409 . S
C1435 H1427 0.930 . S
C1435 C1436 1.355 . S
C1435 C1437 1.415 . S
C1436 C1435 1.355 . S
C1436 C1438 1.419 . S
C1437 C1432 1.425 . S
C1437 C1434 1.409 . S
C1437 C1435 1.415 . S
C1438 H1428 0.930 . S
C1438 C1436 1.419 . S
C1438 C1439 1.362 . S
C1439 H1429 0.930 . S
C1439 C1432 1.409 . S
C1439 C1438 1.362 . S
H1440 C1446 0.930 . S
H1441 C1449 0.930 . S
H1442 C1450 0.930 . S
H1443 C1451 0.930 . S
H1444 C1454 0.930 . S
H1445 C1455 0.930 . S
C1446 H1440 0.930 . S
C1446 C1447 1.355 . S
C1446 C1448 1.415 . S
C1447 C1446 1.355 . S
C1447 C1449 1.419 . S
C1448 C1446 1.415 . S
C1448 C1453 1.425 . S
C1448 C1455 1.409 . S
C1449 H1441 0.930 . S
C1449 C1447 1.419 . S
C1449 C1450 1.362 . S
C1450 H1442 0.930 . S
C1450 C1449 1.362 . S
C1450 C1453 1.409 . S
C1451 H1443 0.930 . S
C1451 C1452 1.355 . S
C1451 C1453 1.415 . S
C1452 C1451 1.355 . S
C1452 C1454 1.419 . S
C1453 C1448 1.425 . S
C1453 C1450 1.409 . S
C1453 C1451 1.415 . S
C1454 H1444 0.930 . S
C1454 C1452 1.419 . S
C1454 C1455 1.362 . S
C1455 H1445 0.930 . S
C1455 C1448 1.409 . S
C1455 C1454 1.362 . S
H1456 C1462 0.930 . S
H1457 C1465 0.930 . S
H1458 C1466 0.930 . S
H1459 C1467 0.930 . S
H1460 C1470 0.930 . S
H1461 C1471 0.930 . S
C1462 H1456 0.930 . S
C1462 C1463 1.355 . S
C1462 C1464 1.415 . S
C1463 C1462 1.355 . S
C1463 C1465 1.419 . S
C1464 C1462 1.415 . S
C1464 C1469 1.425 . S
C1464 C1471 1.409 . S
C1465 H1457 0.930 . S
C1465 C1463 1.419 . S
C1465 C1466 1.362 . S
C1466 H1458 0.930 . S
C1466 C1465 1.362 . S
C1466 C1469 1.409 . S
C1467 H1459 0.930 . S
C1467 C1468 1.355 . S
C1467 C1469 1.415 . S
C1468 C1467 1.355 . S
C1468 C1470 1.419 . S
C1469 C1464 1.425 . S
C1469 C1466 1.409 . S
C1469 C1467 1.415 . S
C1470 H1460 0.930 . S
C1470 C1468 1.419 . S
C1470 C1471 1.362 . S
C1471 H1461 0.930 . S
C1471 C1464 1.409 . S
C1471 C1470 1.362 . S
H1472 C1478 0.930 . S
H1473 C1481 0.930 . S
H1474 C1482 0.930 . S
H1475 C1483 0.930 . S
H1476 C1486 0.930 . S
H1477 C1487 0.930 . S
C1478 H1472 0.930 . S
C1478 C1479 1.355 . S
C1478 C1480 1.415 . S
C1479 C1478 1.355 . S
C1479 C1481 1.419 . S
C1480 C1478 1.415 . S
C1480 C1485 1.425 . S
C1480 C1487 1.409 . S
C1481 H1473 0.930 . S
C1481 C1479 1.419 . S
C1481 C1482 1.362 . S
C1482 H1474 0.930 . S
C1482 C1481 1.362 . S
C1482 C1485 1.409 . S
C1483 H1475 0.930 . S
C1483 C1484 1.355 . S
C1483 C1485 1.415 . S
C1484 C1483 1.355 . S
C1484 C1486 1.419 . S
C1485 C1480 1.425 . S
C1485 C1482 1.409 . S
C1485 C1483 1.415 . S
C1486 H1476 0.930 . S
C1486 C1484 1.419 . S
C1486 C1487 1.362 . S
C1487 H1477 0.930 . S
C1487 C1480 1.409 . S
C1487 C1486 1.362 . S
H1488 C1494 0.930 . S
H1489 C1497 0.930 . S
H1490 C1498 0.930 . S
H1491 C1499 0.930 . S
H1492 C1502 0.930 . S
H1493 C1503 0.930 . S
C1494 H1488 0.930 . S
C1494 C1495 1.355 . S
C1494 C1496 1.415 . S
C1495 C1494 1.355 . S
C1495 C1497 1.419 . S
C1496 C1494 1.415 . S
C1496 C1501 1.425 . S
C1496 C1503 1.409 . S
C1497 H1489 0.930 . S
C1497 C1495 1.419 . S
C1497 C1498 1.362 . S
C1498 H1490 0.930 . S
C1498 C1497 1.362 . S
C1498 C1501 1.409 . S
C1499 H1491 0.930 . S
C1499 C1500 1.355 . S
C1499 C1501 1.415 . S
C1500 C1499 1.355 . S
C1500 C1502 1.419 . S
C1501 C1496 1.425 . S
C1501 C1498 1.409 . S
C1501 C1499 1.415 . S
C1502 H1492 0.930 . S
C1502 C1500 1.419 . S
C1502 C1503 1.362 . S
C1503 H1493 0.930 . S
C1503 C1496 1.409 . S
C1503 C1502 1.362 . S
H1504 C1510 0.930 . S
H1505 C1513 0.930 . S
H1506 C1514 0.930 . S
H1507 C1515 0.930 . S
H1508 C1518 0.930 . S
H1509 C1519 0.930 . S
C1510 H1504 0.930 . S
C1510 C1511 1.355 . S
C1510 C1512 1.415 . S
C1511 C1510 1.355 . S
C1511 C1513 1.419 . S
C1512 C1510 1.415 . S
C1512 C1517 1.425 . S
C1512 C1519 1.409 . S
C1513 H1505 0.930 . S
C1513 C1511 1.419 . S
C1513 C1514 1.362 . S
C1514 H1506 0.930 . S
C1514 C1513 1.362 . S
C1514 C1517 1.409 . S
C1515 H1507 0.930 . S
C1515 C1516 1.355 . S
C1515 C1517 1.415 . S
C1516 C1515 1.355 . S
C1516 C1518 1.419 . S
C1517 C1512 1.425 . S
C1517 C1514 1.409 . S
C1517 C1515 1.415 . S
C1518 H1508 0.930 . S
C1518 C1516 1.419 . S
C1518 C1519 1.362 . S
C1519 H1509 0.930 . S
C1519 C1512 1.409 . S
C1519 C1518 1.362 . S
H1520 C1526 0.930 . S
H1521 C1529 0.930 . S
H1522 C1530 0.930 . S
H1523 C1531 0.930 . S
H1524 C1534 0.930 . S
H1525 C1535 0.930 . S
C1526 H1520 0.930 . S
C1526 C1527 1.355 . S
C1526 C1528 1.415 . S
C1527 C1526 1.355 . S
C1527 C1529 1.419 . S
C1528 C1526 1.415 . S
C1528 C1533 1.425 . S
C1528 C1535 1.409 . S
C1529 H1521 0.930 . S
C1529 C1527 1.419 . S
C1529 C1530 1.362 . S
C1530 H1522 0.930 . S
C1530 C1529 1.362 . S
C1530 C1533 1.409 . S
C1531 H1523 0.930 . S
C1531 C1532 1.355 . S
C1531 C1533 1.415 . S
C1532 C1531 1.355 . S
C1532 C1534 1.419 . S
C1533 C1528 1.425 . S
C1533 C1530 1.409 . S
C1533 C1531 1.415 . S
C1534 H1524 0.930 . S
C1534 C1532 1.419 . S
C1534 C1535 1.362 . S
C1535 H1525 0.930 . S
C1535 C1528 1.409 . S
C1535 C1534 1.362 . S
H1536 C1542 0.930 . S
H1537 C1545 0.930 . S
H1538 C1546 0.930 . S
H1539 C1547 0.930 . S
H1540 C1550 0.930 . S
H1541 C1551 0.930 . S
C1542 H1536 0.930 . S
C1542 C1543 1.355 . S
C1542 C1544 1.415 . S
C1543 C1542 1.355 . S
C1543 C1545 1.419 . S
C1544 C1542 1.415 . S
C1544 C1549 1.425 . S
C1544 C1551 1.409 . S
C1545 H1537 0.930 . S
C1545 C1543 1.419 . S
C1545 C1546 1.362 . S
C1546 H1538 0.930 . S
C1546 C1545 1.362 . S
C1546 C1549 1.409 . S
C1547 H1539 0.930 . S
C1547 C1548 1.355 . S
C1547 C1549 1.415 . S
C1548 C1547 1.355 . S
C1548 C1550 1.419 . S
C1549 C1544 1.425 . S
C1549 C1546 1.409 . S
C1549 C1547 1.415 . S
C1550 H1540 0.930 . S
C1550 C1548 1.419 . S
C1550 C1551 1.362 . S
C1551 H1541 0.930 . S
C1551 C1544 1.409 . S
C1551 C1550 1.362 . S
H1552 C1558 0.930 . S
H1553 C1561 0.930 . S
H1554 C1562 0.930 . S
H1555 C1563 0.930 . S
H1556 C1566 0.930 . S
H1557 C1567 0.930 . S
C1558 H1552 0.930 . S
C1558 C1559 1.355 . S
C1558 C1560 1.415 . S
C1559 C1558 1.355 . S
C1559 C1561 1.419 . S
C1560 C1558 1.415 . S
C1560 C1565 1.425 . S
C1560 C1567 1.409 . S
C1561 H1553 0.930 . S
C1561 C1559 1.419 . S
C1561 C1562 1.362 . S
C1562 H1554 0.930 . S
C1562 C1561 1.362 . S
C1562 C1565 1.409 . S
C1563 H1555 0.930 . S
C1563 C1564 1.355 . S
C1563 C1565 1.415 . S
C1564 C1563 1.355 . S
C1564 C1566 1.419 . S
C1565 C1560 1.425 . S
C1565 C1562 1.409 . S
C1565 C1563 1.415 . S
C1566 H1556 0.930 . S
C1566 C1564 1.419 . S
C1566 C1567 1.362 . S
C1567 H1557 0.930 . S
C1567 C1560 1.409 . S
C1567 C1566 1.362 . S
H1568 C1574 0.930 . S
H1569 C1577 0.930 . S
H1570 C1578 0.930 . S
H1571 C1579 0.930 . S
H1572 C1582 0.930 . S
H1573 C1583 0.930 . S
C1574 H1568 0.930 . S
C1574 C1575 1.355 . S
C1574 C1576 1.415 . S
C1575 C1574 1.355 . S
C1575 C1577 1.419 . S
C1576 C1574 1.415 . S
C1576 C1581 1.425 . S
C1576 C1583 1.409 . S
C1577 H1569 0.930 . S
C1577 C1575 1.419 . S
C1577 C1578 1.362 . S
C1578 H1570 0.930 . S
C1578 C1577 1.362 . S
C1578 C1581 1.409 . S
C1579 H1571 0.930 . S
C1579 C1580 1.355 . S
C1579 C1581 1.415 . S
C1580 C1579 1.355 . S
C1580 C1582 1.419 . S
C1581 C1576 1.425 . S
C1581 C1578 1.409 . S
C1581 C1579 1.415 . S
C1582 H1572 0.930 . S
C1582 C1580 1.419 . S
C1582 C1583 1.362 . S
C1583 H1573 0.930 . S
C1583 C1576 1.409 . S
C1583 C1582 1.362 . S
H1584 C1590 0.930 . S
H1585 C1593 0.930 . S
H1586 C1594 0.930 . S
H1587 C1595 0.930 . S
H1588 C1598 0.930 . S
H1589 C1599 0.930 . S
C1590 H1584 0.930 . S
C1590 C1591 1.355 . S
C1590 C1592 1.415 . S
C1591 C1590 1.355 . S
C1591 C1593 1.419 . S
C1592 C1590 1.415 . S
C1592 C1597 1.425 . S
C1592 C1599 1.409 . S
C1593 H1585 0.930 . S
C1593 C1591 1.419 . S
C1593 C1594 1.362 . S
C1594 H1586 0.930 . S
C1594 C1593 1.362 . S
C1594 C1597 1.409 . S
C1595 H1587 0.930 . S
C1595 C1596 1.355 . S
C1595 C1597 1.415 . S
C1596 C1595 1.355 . S
C1596 C1598 1.419 . S
C1597 C1592 1.425 . S
C1597 C1594 1.409 . S
C1597 C1595 1.415 . S
C1598 H1588 0.930 . S
C1598 C1596 1.419 . S
C1598 C1599 1.362 . S
C1599 H1589 0.930 . S
C1599 C1592 1.409 . S
C1599 C1598 1.362 . S
H1600 C1606 0.930 . S
H1601 C1609 0.930 . S
H1602 C1610 0.930 . S
H1603 C1611 0.930 . S
H1604 C1614 0.930 . S
H1605 C1615 0.930 . S
C1606 H1600 0.930 . S
C1606 C1607 1.355 . S
C1606 C1608 1.415 . S
C1607 C1606 1.355 . S
C1607 C1609 1.419 . S
C1608 C1606 1.415 . S
C1608 C1613 1.425 . S
C1608 C1615 1.409 . S
C1609 H1601 0.930 . S
C1609 C1607 1.419 . S
C1609 C1610 1.362 . S
C1610 H1602 0.930 . S
C1610 C1609 1.362 . S
C1610 C1613 1.409 . S
C1611 H1603 0.930 . S
C1611 C1612 1.355 . S
C1611 C1613 1.415 . S
C1612 C1611 1.355 . S
C1612 C1614 1.419 . S
C1613 C1608 1.425 . S
C1613 C1610 1.409 . S
C1613 C1611 1.415 . S
C1614 H1604 0.930 . S
C1614 C1612 1.419 . S
C1614 C1615 1.362 . S
C1615 H1605 0.930 . S
C1615 C1608 1.409 . S
C1615 C1614 1.362 . S
H1616 C1622 0.930 . S
H1617 C1625 0.930 . S
H1618 C1626 0.930 . S
H1619 C1627 0.930 . S
H1620 C1630 0.930 . S
H1621 C1631 0.930 . S
C1622 H1616 0.930 . S
C1622 C1623 1.355 . S
C1622 C1624 1.415 . S
C1623 C1622 1.355 . S
C1623 C1625 1.419 . S
C1624 C1622 1.415 . S
C1624 C1629 1.425 . S
C1624 C1631 1.409 . S
C1625 H1617 0.930 . S
C1625 C1623 1.419 . S
C1625 C1626 1.362 . S
C1626 H1618 0.930 . S
C1626 C1625 1.362 . S
C1626 C1629 1.409 . S
C1627 H1619 0.930 . S
C1627 C1628 1.355 . S
C1627 C1629 1.415 . S
C1628 C1627 1.355 . S
C1628 C1630 1.419 . S
C1629 C1624 1.425 . S
C1629 C1626 1.409 . S
C1629 C1627 1.415 . S
C1630 H1620 0.930 . S
C1630 C1628 1.419 . S
C1630 C1631 1.362 . S
C1631 H1621 0.930 . S
C1631 C1624 1.409 . S
C1631 C1630 1.362 . S
H1632 C1638 0.930 . S
H1633 C1641 0.930 . S
H1634 C1642 0.930 . S
H1635 C1643 0.930 . S
H1636 C1646 0.930 . S
H1637 C1647 0.930 . S
C1638 H1632 0.930 . S
C1638 C1639 1.355 . S
C1638 C1640 1.415 . S
C1639 C1638 1.355 . S
C1639 C1641 1.419 . S
C1640 C1638 1.415 . S
C1640 C1645 1.425 . S
C1640 C1647 1.409 . S
C1641 H1633 0.930 . S
C1641 C1639 1.419 . S
C1641 C1642 1.362 . S
C1642 H1634 0.930 . S
C1642 C1641 1.362 . S
C1642 C1645 1.409 . S
C1643 H1635 0.930 . S
C1643 C1644 1.355 . S
C1643 C1645 1.415 . S
C1644 C1643 1.355 . S
C1644 C1646 1.419 . S
C1645 C1640 1.425 . S
C1645 C1642 1.409 . S
C1645 C1643 1.415 . S
C1646 H1636 0.930 . S
C1646 C1644 1.419 . S
C1646 C1647 1.362 . S
C1647 H1637 0.930 . S
C1647 C1640 1.409 . S
C1647 C1646 1.362 . S
H1648 C1654 0.930 . S
H1649 C1657 0.930 . S
H1650 C1658 0.930 . S
H1651 C1659 0.930 . S
H1652 C1662 0.930 . S
H1653 C1663 0.930 . S
C1654 H1648 0.930 . S
C1654 C1655 1.355 . S
C1654 C1656 1.415 . S
C1655 C1654 1.355 . S
C1655 C1657 1.419 . S
C1656 C1654 1.415 . S
C1656 C1661 1.425 . S
C1656 C1663 1.409 . S
C1657 H1649 0.930 . S
C1657 C1655 1.419 . S
C1657 C1658 1.362 . S
C1658 H1650 0.930 . S
C1658 C1657 1.362 . S
C1658 C1661 1.409 . S
C1659 H1651 0.930 . S
C1659 C1660 1.355 . S
C1659 C1661 1.415 . S
C1660 C1659 1.355 . S
C1660 C1662 1.419 . S
C1661 C1656 1.425 . S
C1661 C1658 1.409 . S
C1661 C1659 1.415 . S
C1662 H1652 0.930 . S
C1662 C1660 1.419 . S
C1662 C1663 1.362 . S
C1663 H1653 0.930 . S
C1663 C1656 1.409 . S
C1663 C1662 1.362 . S
H1664 C1670 0.930 . S
H1665 C1673 0.930 . S
H1666 C1674 0.930 . S
H1667 C1675 0.930 . S
H1668 C1678 0.930 . S
H1669 C1679 0.930 . S
C1670 H1664 0.930 . S
C1670 C1671 1.355 . S
C1670 C1672 1.415 . S
C1671 C1670 1.355 . S
C1671 C1673 1.419 . S
C1672 C1670 1.415 . S
C1672 C1677 1.425 . S
C1672 C1679 1.409 . S
C1673 H1665 0.930 . S
C1673 C1671 1.419 . S
C1673 C1674 1.362 . S
C1674 H1666 0.930 . S
C1674 C1673 1.362 . S
C1674 C1677 1.409 . S
C1675 H1667 0.930 . S
C1675 C1676 1.355 . S
C1675 C1677 1.415 . S
C1676 C1675 1.355 . S
C1676 C1678 1.419 . S
C1677 C1672 1.425 . S
C1677 C1674 1.409 . S
C1677 C1675 1.415 . S
C1678 H1668 0.930 . S
C1678 C1676 1.419 . S
C1678 C1679 1.362 . S
C1679 H1669 0.930 . S
C1679 C1672 1.409 . S
C1679 C1678 1.362 . S
C535 C7 0.853 . S
C540 C159 0.885 . S
C551 C29 0.884 . S
C556 C95 0.853 . S
C567 C49 0.875 . S
C572 C119 0.864 . S
C583 C72 0.894 . S
C588 C139 0.813 . S
C599 C5 0.810 . S
C604 C183 0.898 . S
C615 C205 0.902 . S
C620 C27 0.806 . S
C631 C227 0.882 . S
C636 C51 0.823 . S
C647 C75 0.897 . S
C652 C251 0.838 . S
C663 C93 0.915 . S
C668 C203 0.812 . S
C679 C225 0.917 . S
C684 C116 0.799 . S
C695 C137 0.906 . S
C700 C248 0.826 . S
C711 C161 0.839 . S
C716 C181 0.866 . S
C727 C269 0.907 . S
C732 C469 0.803 . S
C743 C293 0.877 . S
C748 C493 0.828 . S
C759 C317 0.918 . S
C764 C515 0.805 . S
C775 C512 0.820 . S
C780 C335 0.910 . S
C791 C467 0.863 . S
C796 C357 0.875 . S
C807 C379 0.896 . S
C812 C424 0.811 . S
C823 C271 0.912 . S
C828 C359 0.817 . S
C839 C405 0.829 . S
C844 C291 0.876 . S
C855 C337 0.917 . S
C860 C314 0.809 . S
C871 C449 0.817 . S
C876 C381 0.889 . S
C887 C402 0.876 . S
C892 C490 0.863 . S
C903 C427 0.807 . S
C908 C446 0.901 . S
C919 C94 0.538 . S
C924 C6 0.572 . S
C935 C114 0.491 . S
C940 C28 0.501 . S
C951 C52 0.545 . S
C956 C138 0.577 . S
C967 C73 0.493 . S
C972 C162 0.518 . S
C983 C249 0.588 . S
C988 C182 0.578 . S
C999 C184 0.518 . S
C1004 C204 0.555 . S
C1015 C206 0.543 . S
C1020 C226 0.575 . S
C1031 C246 0.588 1_565 S
C1036 C228 0.580 1_545 S
C1047 C403 0.546 . S
C1052 C160 0.578 . S
C1063 C70 0.581 . S
C1068 C272 0.588 . S
C1079 C8 0.492 . S
C1084 C292 0.516 . S
C1095 C30 0.491 . S
C1100 C312 0.506 . S
C1111 C422 0.491 . S
C1116 C117 0.505 . S
C1127 C96 0.491 . S
C1132 C338 0.512 . S
C1143 C140 0.501 . S
C1148 C360 0.491 . S
C1159 C358 0.524 . S
C1164 C382 0.560 . S
C1175 C400 0.533 . S
C1180 C270 0.569 . S
C1191 C294 0.568 . S
C1196 C336 0.532 . S
C1207 C425 0.516 . S
C1212 C315 0.493 . S
C1223 C444 0.512 . S
C1228 C513 0.548 . S
C1239 C447 0.575 . S
C1244 C468 0.542 . S
C1255 C488 0.503 . S
C1260 C470 0.491 . S
C1271 C510 0.492 . S
C1276 C491 0.498 . S
C1287 C380 0.512 . S
C1292 C50 0.548 . S
C1303 C4 2.210 . S
C1308 C202 2.223 . S
C1319 C26 2.228 . S
C1324 C224 2.224 . S
C1335 C53 2.196 . S
C1340 C247 2.179 . S
C1351 C180 2.227 . S
C1356 C74 2.216 . S
C1367 C92 2.169 . S
C1372 C185 2.163 . S
C1383 C207 2.195 . S
C1388 C115 2.178 . S
C1399 C229 2.185 . S
C1404 C136 2.171 . S
C1415 C163 2.205 . S
C1420 C250 2.187 . S
C1431 C158 2.168 . S
C1436 C290 2.181 . S
C1447 C141 2.215 . S
C1452 C273 2.199 . S
C1463 C97 2.184 . S
C1468 C313 2.202 . S
C1479 C404 2.183 . S
C1484 C9 2.170 . S
C1495 C378 2.223 . S
C1500 C118 2.229 . S
C1511 C31 2.213 . S
C1516 C339 2.225 . S
C1527 C71 2.229 . S
C1532 C361 2.228 . S
C1543 C466 2.213 . S
C1548 C383 2.225 . S
C1559 C489 2.217 . S
C1564 C268 2.227 . S
C1575 C511 2.212 . S
C1580 C295 2.225 . S
C1591 C445 2.210 . S
C1596 C316 2.193 . S
C1607 C448 2.174 . S
C1612 C356 2.165 . S
C1623 C401 2.210 . S
C1628 C471 2.224 . S
C1639 C492 2.165 . S
C1644 C334 2.162 . S
C1655 C426 2.207 . S
C1660 C514 2.190 . S
C1671 C48 2.164 . S
C1676 C423 2.166 . S
