# Generated by pormake.
# Topology wjq, (5)-cn, num edge types: 1
# Building blocks:
#     Node 0, Type 0, BuildingBlock: BEQFEK_clean_sbu_0, # of connection points: 5
#     Node 1, Type 0, BuildingBlock: BEQFEK_clean_sbu_0, # of connection points: 5
#     Node 2, Type 0, BuildingBlock: BEQFEK_clean_sbu_0, # of connection points: 5
#     Node 3, Type 0, BuildingBlock: BEQFEK_clean_sbu_0, # of connection points: 5
#     Node 4, Type 0, BuildingBlock: BEQFEK_clean_sbu_0, # of connection points: 5
#     Node 5, Type 0, BuildingBlock: BEQFEK_clean_sbu_0, # of connection points: 5
#     Node 6, Type 0, BuildingBlock: BEQFEK_clean_sbu_0, # of connection points: 5
#     Node 7, Type 0, BuildingBlock: BEQFEK_clean_sbu_0, # of connection points: 5
#     Node 8, Type 0, BuildingBlock: BEQFEK_clean_sbu_0, # of connection points: 5
#     Node 9, Type 0, BuildingBlock: BEQFEK_clean_sbu_0, # of connection points: 5
#     Node 10, Type 0, BuildingBlock: BEQFEK_clean_sbu_0, # of connection points: 5
#     Node 11, Type 0, BuildingBlock: BEQFEK_clean_sbu_0, # of connection points: 5
#     Edge 12, Type (0, 0), BuildingBlock: UVAHIK_clean_linker_0, # of connection points: 2
#     Edge 13, Type (0, 0), BuildingBlock: UVAHIK_clean_linker_0, # of connection points: 2
#     Edge 14, Type (0, 0), BuildingBlock: UVAHIK_clean_linker_0, # of connection points: 2
#     Edge 15, Type (0, 0), BuildingBlock: UVAHIK_clean_linker_0, # of connection points: 2
#     Edge 16, Type (0, 0), BuildingBlock: UVAHIK_clean_linker_0, # of connection points: 2
#     Edge 17, Type (0, 0), BuildingBlock: UVAHIK_clean_linker_0, # of connection points: 2
#     Edge 18, Type (0, 0), BuildingBlock: UVAHIK_clean_linker_0, # of connection points: 2
#     Edge 19, Type (0, 0), BuildingBlock: UVAHIK_clean_linker_0, # of connection points: 2
#     Edge 20, Type (0, 0), BuildingBlock: UVAHIK_clean_linker_0, # of connection points: 2
#     Edge 21, Type (0, 0), BuildingBlock: UVAHIK_clean_linker_0, # of connection points: 2
#     Edge 22, Type (0, 0), BuildingBlock: UVAHIK_clean_linker_0, # of connection points: 2
#     Edge 23, Type (0, 0), BuildingBlock: UVAHIK_clean_linker_0, # of connection points: 2
#     Edge 24, Type (0, 0), BuildingBlock: UVAHIK_clean_linker_0, # of connection points: 2
#     Edge 25, Type (0, 0), BuildingBlock: UVAHIK_clean_linker_0, # of connection points: 2
#     Edge 26, Type (0, 0), BuildingBlock: UVAHIK_clean_linker_0, # of connection points: 2
#     Edge 27, Type (0, 0), BuildingBlock: UVAHIK_clean_linker_0, # of connection points: 2
#     Edge 28, Type (0, 0), BuildingBlock: UVAHIK_clean_linker_0, # of connection points: 2
#     Edge 29, Type (0, 0), BuildingBlock: UVAHIK_clean_linker_0, # of connection points: 2
#     Edge 30, Type (0, 0), BuildingBlock: UVAHIK_clean_linker_0, # of connection points: 2
#     Edge 31, Type (0, 0), BuildingBlock: UVAHIK_clean_linker_0, # of connection points: 2
#     Edge 32, Type (0, 0), BuildingBlock: UVAHIK_clean_linker_0, # of connection points: 2
#     Edge 33, Type (0, 0), BuildingBlock: UVAHIK_clean_linker_0, # of connection points: 2
#     Edge 34, Type (0, 0), BuildingBlock: UVAHIK_clean_linker_0, # of connection points: 2
#     Edge 35, Type (0, 0), BuildingBlock: UVAHIK_clean_linker_0, # of connection points: 2
#     Edge 36, Type (0, 0), BuildingBlock: UVAHIK_clean_linker_0, # of connection points: 2
#     Edge 37, Type (0, 0), BuildingBlock: UVAHIK_clean_linker_0, # of connection points: 2
#     Edge 38, Type (0, 0), BuildingBlock: UVAHIK_clean_linker_0, # of connection points: 2
#     Edge 39, Type (0, 0), BuildingBlock: UVAHIK_clean_linker_0, # of connection points: 2
#     Edge 40, Type (0, 0), BuildingBlock: UVAHIK_clean_linker_0, # of connection points: 2
#     Edge 41, Type (0, 0), BuildingBlock: UVAHIK_clean_linker_0, # of connection points: 2
# Relax obj value: 0.358
# Max RMSD: 0.171
# Mean RMSD: 0.171
data_MOF--net-wjq--node1-BEQFEK_clean_sbu_0--edge1-UVAHIK_clean_linker_0
_symmetry_space_group_name_H-M    P1
_symmetry_Int_Tables_number       1
_symmetry_cell_setting            triclinic
loop_
_symmetry_equiv_pos_as_xyz
'x, y, z'
_cell_length_a     43.144092
_cell_length_b     43.111174
_cell_length_c     97.432911
_cell_angle_alpha  90.034383
_cell_angle_beta   89.992
_cell_angle_gamma 120.05558
loop_
_atom_site_label
_atom_site_type_symbol
_atom_site_fract_x
_atom_site_fract_y
_atom_site_fract_z
_atom_type_partial_charge
Co0 Co 0.22023 0.14742 0.07677 0.0
Co1 Co 0.29175 0.20996 0.06551 0.0
C2 C 0.22032 0.20204 0.05775 0.0
O3 O 0.20401 0.17474 0.06545 0.0
O4 O 0.25434 0.21849 0.0568 0.0
C5 C 0.16163 0.12308 0.09447 0.0
O6 O 0.17387 0.1577 0.09552 0.0
C7 C 0.34765 0.28526 0.06347 0.0
C8 C 0.39347 0.28164 0.05526 0.0
C9 C 0.38339 0.30592 0.05966 0.0
N10 N 0.33742 0.25053 0.0616 0.0
N11 N 0.36489 0.24854 0.05666 0.0
C12 C 0.32302 0.29811 0.06831 0.0
H13 H 0.2947 0.27747 0.06672 0.0
H14 H 0.32689 0.3038 0.07947 0.0
H15 H 0.3288 0.32305 0.06286 0.0
C16 C 0.25929 0.17133 0.10313 0.0
N17 N 0.25644 0.17574 0.08958 0.0
N18 N 0.28687 0.2025 0.08506 0.0
C19 C 0.31004 0.21608 0.09574 0.0
C20 C 0.29294 0.19711 0.10756 0.0
C21 C 0.23275 0.13969 0.11134 0.0
H22 H 0.2198 0.11538 0.10483 0.0
H23 H 0.21213 0.14523 0.11553 0.0
H24 H 0.2458 0.13435 0.12012 0.0
O25 O 0.23731 0.1225 0.06458 0.0
O26 O 0.28834 0.16694 0.05623 0.0
H27 H 0.36144 0.23827 0.08616 0.0
H28 H 0.36318 0.24852 0.10427 0.0
C29 C 0.34838 0.24493 0.09454 0.0
H30 H 0.34968 0.27056 0.09195 0.0
H31 H 0.36415 0.22457 0.05429 0.0
O32 O 0.17751 0.11194 0.08663 0.0
C33 C 0.26483 0.1337 0.05692 0.0
Co34 Co 0.06697 0.22325 0.4144 0.0
Co35 Co 0.08095 0.29479 0.40122 0.0
C36 C 0.01519 0.225 0.39413 0.0
O37 O 0.02497 0.20849 0.40228 0.0
O38 O 0.03388 0.25891 0.39282 0.0
C39 C 0.02596 0.16555 0.43179 0.0
O40 O 0.00447 0.17882 0.43083 0.0
C41 C 0.06555 0.35174 0.39577 0.0
C42 C 0.11872 0.39823 0.39111 0.0
C43 C 0.08286 0.38787 0.39256 0.0
N44 N 0.08992 0.34112 0.39614 0.0
N45 N 0.12165 0.3689 0.39322 0.0
C46 C 0.02721 0.3284 0.39986 0.0
H47 H 0.02453 0.30727 0.40707 0.0
H48 H 0.01655 0.34444 0.40472 0.0
H49 H 0.01108 0.3152 0.39056 0.0
C50 C 0.08327 0.26588 0.43981 0.0
N51 N 0.07619 0.26154 0.42625 0.0
N52 N 0.08259 0.29218 0.42088 0.0
C53 C 0.09407 0.3171 0.43098 0.0
C54 C 0.09443 0.30105 0.44332 0.0
C55 C 0.08465 0.23852 0.44887 0.0
H56 H 0.05706 0.21848 0.45205 0.0
H57 H 0.10072 0.25083 0.45827 0.0
H58 H 0.09651 0.22465 0.44323 0.0
O59 O 0.10958 0.23649 0.40284 0.0
O60 O 0.11836 0.28663 0.39276 0.0
H61 H 0.11536 0.37125 0.43852 0.0
H62 H 0.08546 0.35915 0.42399 0.0
C63 C 0.10708 0.35602 0.42874 0.0
H64 H 0.13015 0.3672 0.42158 0.0
H65 H 0.1454 0.36806 0.39303 0.0
O66 O 0.05557 0.18069 0.42537 0.0
C67 C 0.12671 0.26238 0.39451 0.0
Co68 Co 0.84264 0.07145 0.74487 0.0
Co69 Co 0.78312 0.08347 0.73248 0.0
C70 C 0.78697 0.01733 0.72581 0.0
O71 O 0.81417 0.02792 0.73355 0.0
O72 O 0.77157 0.03583 0.72457 0.0
C73 C 0.86275 0.03346 0.76245 0.0
O74 O 0.82804 0.01107 0.76213 0.0
C75 C 0.70986 0.06608 0.7278 0.0
C76 C 0.71493 0.11846 0.72291 0.0
C77 C 0.69015 0.08244 0.72465 0.0
N78 N 0.74469 0.09114 0.72785 0.0
N79 N 0.74767 0.1224 0.7248 0.0
C80 C 0.69591 0.02799 0.73204 0.0
H81 H 0.71481 0.02624 0.73929 0.0
H82 H 0.66916 0.01669 0.73692 0.0
H83 H 0.69342 0.01179 0.72282 0.0
C84 C 0.81905 0.08992 0.77055 0.0
N85 N 0.8149 0.08165 0.75707 0.0
N86 N 0.78959 0.08685 0.75203 0.0
C87 C 0.77673 0.09852 0.76226 0.0
C88 C 0.79478 0.10044 0.77433 0.0
C89 C 0.84867 0.09221 0.77931 0.0
H90 H 0.87401 0.10424 0.77339 0.0
H91 H 0.84175 0.06485 0.78256 0.0
H92 H 0.85276 0.10847 0.78867 0.0
O93 O 0.87012 0.11263 0.73244 0.0
O94 O 0.82746 0.12051 0.72312 0.0
H95 H 0.76076 0.13314 0.75294 0.0
H96 H 0.74385 0.11929 0.77018 0.0
C97 C 0.75001 0.11057 0.76033 0.0
H98 H 0.72499 0.08826 0.75599 0.0
H99 H 0.77195 0.14649 0.72433 0.0
O100 O 0.87575 0.06222 0.75551 0.0
C101 C 0.86027 0.12899 0.72418 0.0
Co102 Co 0.77054 0.84833 0.07922 0.0
Co103 Co 0.69942 0.7865 0.06732 0.0
C104 C 0.77101 0.79451 0.05987 0.0
O105 O 0.78709 0.82152 0.06774 0.0
O106 O 0.73703 0.77811 0.05876 0.0
C107 C 0.82907 0.87238 0.09707 0.0
O108 O 0.81716 0.8378 0.09798 0.0
C109 C 0.64357 0.71135 0.06491 0.0
C110 C 0.59825 0.71511 0.05624 0.0
C111 C 0.60808 0.69075 0.06077 0.0
N112 N 0.6539 0.74611 0.06308 0.0
N113 N 0.62673 0.7482 0.05787 0.0
C114 C 0.66793 0.69845 0.07001 0.0
H115 H 0.66324 0.69234 0.08112 0.0
H116 H 0.66266 0.67374 0.06449 0.0
H117 H 0.69633 0.71924 0.06874 0.0
C118 C 0.73053 0.82336 0.10529 0.0
N119 N 0.73388 0.81946 0.09173 0.0
N120 N 0.70349 0.79321 0.08695 0.0
C121 C 0.67979 0.77946 0.09746 0.0
C122 C 0.69653 0.79777 0.10945 0.0
C123 C 0.75701 0.85449 0.11374 0.0
H124 H 0.77013 0.87914 0.10743 0.0
H125 H 0.77754 0.84864 0.11781 0.0
H126 H 0.74392 0.85945 0.12261 0.0
O127 O 0.75381 0.87387 0.06723 0.0
O128 O 0.70347 0.82994 0.05815 0.0
H129 H 0.62904 0.75836 0.08743 0.0
H130 H 0.62606 0.74769 0.10554 0.0
C131 C 0.64132 0.75118 0.09594 0.0
H132 H 0.63961 0.72534 0.09337 0.0
H133 H 0.6276 0.7722 0.05547 0.0
O134 O 0.81296 0.88345 0.08933 0.0
C135 C 0.72685 0.86311 0.05931 0.0
Co136 Co 0.91687 0.76709 0.41179 0.0
Co137 Co 0.91097 0.69701 0.40013 0.0
C138 C 0.97326 0.76986 0.39294 0.0
O139 O 0.96084 0.78526 0.40044 0.0
O140 O 0.95706 0.7358 0.39203 0.0
C141 C 0.9504 0.83 0.42764 0.0
O142 O 0.97811 0.82544 0.42608 0.0
C143 C 0.93199 0.64232 0.39826 0.0
C144 C 0.88418 0.59671 0.38896 0.0
C145 C 0.91812 0.60702 0.39394 0.0
N146 N 0.90723 0.652 0.39606 0.0
N147 N 0.87872 0.62464 0.3905 0.0
C148 C 0.96847 0.66719 0.40394 0.0
H149 H 0.97514 0.69544 0.40304 0.0
H150 H 0.96898 0.66147 0.41501 0.0
H151 H 0.98903 0.66346 0.39855 0.0
C152 C 0.90235 0.72746 0.43782 0.0
N153 N 0.91049 0.73108 0.42435 0.0
N154 N 0.90678 0.70083 0.41961 0.0
C155 C 0.8957 0.6768 0.43002 0.0
C156 C 0.89301 0.69314 0.44191 0.0
C157 C 0.89928 0.75482 0.44629 0.0
H158 H 0.92632 0.77841 0.44779 0.0
H159 H 0.88752 0.74427 0.45654 0.0
H160 H 0.88239 0.76358 0.44086 0.0
O161 O 0.87483 0.74868 0.39945 0.0
O162 O 0.87179 0.69975 0.39038 0.0
H163 H 0.8705 0.62244 0.4377 0.0
H164 H 0.90763 0.63515 0.42616 0.0
C165 C 0.88393 0.63797 0.42832 0.0
H166 H 0.86538 0.62683 0.41946 0.0
H167 H 0.85555 0.62504 0.38775 0.0
O168 O 0.92079 0.80805 0.42207 0.0
C169 C 0.86037 0.72181 0.39139 0.0
Co170 Co 0.15236 0.92592 0.74485 0.0
Co171 Co 0.21124 0.91159 0.73325 0.0
C172 C 0.20653 0.97721 0.7252 0.0
O173 O 0.18063 0.96907 0.73339 0.0
O174 O 0.22047 0.95733 0.7241 0.0
C175 C 0.12643 0.96363 0.76034 0.0
O176 O 0.15903 0.99059 0.75843 0.0
C177 C 0.28573 0.92929 0.7313 0.0
C178 C 0.28147 0.88003 0.72255 0.0
C179 C 0.30607 0.91407 0.72722 0.0
N180 N 0.25096 0.90522 0.7293 0.0
N181 N 0.24854 0.87581 0.72406 0.0
C182 C 0.29877 0.9665 0.73654 0.0
H183 H 0.27787 0.97403 0.73553 0.0
H184 H 0.30532 0.96775 0.7476 0.0
H185 H 0.3232 0.98607 0.73092 0.0
C186 C 0.17669 0.9116 0.77113 0.0
N187 N 0.18037 0.9174 0.75748 0.0
N188 N 0.20483 0.91044 0.75281 0.0
C189 C 0.21729 0.89955 0.76344 0.0
C190 C 0.2002 0.90049 0.77543 0.0
C191 C 0.14756 0.91153 0.77954 0.0
H192 H 0.12167 0.89658 0.77406 0.0
H193 H 0.15376 0.93953 0.78112 0.0
H194 H 0.14463 0.89886 0.78972 0.0
O195 O 0.12583 0.88372 0.73267 0.0
O196 O 0.1674 0.87261 0.7244 0.0
H197 H 0.23455 0.86638 0.75359 0.0
H198 H 0.24563 0.87406 0.77168 0.0
C199 C 0.24322 0.88629 0.76203 0.0
H200 H 0.26995 0.90906 0.75937 0.0
H201 H 0.22446 0.85293 0.72151 0.0
O202 O 0.11742 0.93334 0.75506 0.0
C203 C 0.13491 0.86537 0.72514 0.0
Co204 Co 0.84135 0.77372 0.60796 0.0
Co205 Co 0.78289 0.70171 0.6205 0.0
C206 C 0.78644 0.77136 0.62759 0.0
O207 O 0.81325 0.78826 0.61969 0.0
O208 O 0.77131 0.73743 0.62877 0.0
C209 C 0.86112 0.83302 0.5909 0.0
O210 O 0.8267 0.82176 0.59181 0.0
C211 C 0.70997 0.64514 0.62537 0.0
C212 C 0.71566 0.59805 0.62995 0.0
C213 C 0.69061 0.60895 0.62842 0.0
N214 N 0.74488 0.65532 0.62518 0.0
N215 N 0.74823 0.62716 0.62804 0.0
C216 C 0.6956 0.66904 0.62136 0.0
H217 H 0.71423 0.68998 0.61412 0.0
H218 H 0.66876 0.65341 0.61655 0.0
H219 H 0.69314 0.68247 0.63068 0.0
C220 C 0.8178 0.73173 0.58236 0.0
N221 N 0.81336 0.73577 0.5958 0.0
N222 N 0.7885 0.705 0.60087 0.0
C223 C 0.77606 0.68038 0.59065 0.0
C224 C 0.7943 0.69659 0.57859 0.0
C225 C 0.8462 0.76021 0.57351 0.0
H226 H 0.87235 0.77266 0.5789 0.0
H227 H 0.83908 0.78113 0.57145 0.0
H228 H 0.8488 0.74962 0.56347 0.0
O229 O 0.86969 0.75999 0.61983 0.0
O230 O 0.82786 0.70931 0.62946 0.0
H231 H 0.76227 0.6303 0.59999 0.0
H232 H 0.74444 0.62629 0.58287 0.0
C233 C 0.7505 0.64128 0.59269 0.0
H234 H 0.72527 0.63757 0.5972 0.0
H235 H 0.77263 0.62764 0.62835 0.0
O236 O 0.8739 0.81624 0.59727 0.0
C237 C 0.86054 0.73376 0.62802 0.0
Co238 Co 0.0698 0.84475 0.94184 0.0
Co239 Co 0.08046 0.78388 0.9539 0.0
C240 C 0.01753 0.79215 0.96209 0.0
O241 O 0.02787 0.8187 0.95404 0.0
O242 O 0.0351 0.77573 0.96305 0.0
C243 C 0.03097 0.86464 0.92489 0.0
O244 O 0.00877 0.8299 0.92549 0.0
C245 C 0.0617 0.70897 0.95658 0.0
C246 C 0.11172 0.71327 0.96445 0.0
C247 C 0.07714 0.68862 0.96037 0.0
N248 N 0.0862 0.74383 0.95814 0.0
N249 N 0.11602 0.74625 0.96288 0.0
C250 C 0.02398 0.69577 0.95197 0.0
H251 H 0.02166 0.68945 0.94086 0.0
H252 H 0.00508 0.67116 0.95766 0.0
H253 H 0.01634 0.71647 0.95344 0.0
C254 C 0.08286 0.81847 0.91582 0.0
N255 N 0.07647 0.81507 0.92943 0.0
N256 N 0.08131 0.78931 0.93424 0.0
C257 C 0.09093 0.7754 0.92368 0.0
C258 C 0.09155 0.79308 0.91164 0.0
C259 C 0.08665 0.84922 0.90734 0.0
H260 H 0.09894 0.87415 0.91351 0.0
H261 H 0.05983 0.84328 0.90377 0.0
H262 H 0.10368 0.85379 0.89818 0.0
O263 O 0.11334 0.8715 0.95312 0.0
O264 O 0.12055 0.82824 0.96239 0.0
H265 H 0.12238 0.75592 0.93338 0.0
H266 H 0.11262 0.74349 0.91547 0.0
C267 C 0.10186 0.74768 0.9252 0.0
H268 H 0.0783 0.72192 0.92827 0.0
H269 H 0.13935 0.77039 0.96497 0.0
O270 O 0.06027 0.87807 0.9315 0.0
C271 C 0.13026 0.86134 0.96093 0.0
Co272 Co 0.21906 0.07063 0.27555 0.0
Co273 Co 0.29115 0.08182 0.28707 0.0
C274 C 0.22071 0.01759 0.29506 0.0
O275 O 0.20406 0.02796 0.28727 0.0
O276 O 0.25472 0.0356 0.29594 0.0
C277 C 0.16111 0.03118 0.25852 0.0
O278 O 0.17503 0.01018 0.259 0.0
C279 C 0.34859 0.06503 0.28932 0.0
C280 C 0.39335 0.11522 0.29765 0.0
C281 C 0.38431 0.08112 0.29324 0.0
N282 N 0.33736 0.08873 0.29113 0.0
N283 N 0.36418 0.11866 0.29614 0.0
C284 C 0.32488 0.02733 0.28446 0.0
H285 H 0.29633 0.01882 0.28592 0.0
H286 H 0.32913 0.02566 0.27332 0.0
H287 H 0.33122 0.00867 0.28997 0.0
C288 C 0.2583 0.08593 0.24933 0.0
N289 N 0.25564 0.07907 0.2629 0.0
N290 N 0.28641 0.0839 0.2675 0.0
C291 C 0.30973 0.09409 0.25686 0.0
C292 C 0.29234 0.09501 0.24497 0.0
C293 C 0.23087 0.08927 0.24101 0.0
H294 H 0.21768 0.10067 0.24735 0.0
H295 H 0.21046 0.06238 0.23727 0.0
H296 H 0.24309 0.10684 0.23196 0.0
O297 O 0.23472 0.11295 0.28757 0.0
O298 O 0.28591 0.12045 0.29613 0.0
H299 H 0.36083 0.12499 0.26654 0.0
H300 H 0.36321 0.11663 0.24846 0.0
C301 C 0.34844 0.10508 0.25816 0.0
H302 H 0.35075 0.08134 0.26081 0.0
H303 H 0.36261 0.14144 0.29849 0.0
O304 O 0.17584 0.0603 0.2653 0.0
C305 C 0.26198 0.12955 0.29536 0.0
Co306 Co 0.15674 0.22353 0.60707 0.0
Co307 Co 0.21294 0.29595 0.62018 0.0
C308 C 0.20929 0.22534 0.62715 0.0
O309 O 0.18443 0.20806 0.61849 0.0
O310 O 0.22233 0.25894 0.62885 0.0
C311 C 0.12995 0.1595 0.59135 0.0
O312 O 0.16102 0.16237 0.59425 0.0
C313 C 0.28663 0.35361 0.62224 0.0
C314 C 0.28213 0.39645 0.63286 0.0
C315 C 0.30681 0.38855 0.62709 0.0
N316 N 0.25195 0.34184 0.62488 0.0
N317 N 0.24934 0.36752 0.63123 0.0
C318 C 0.29961 0.33081 0.61564 0.0
H319 H 0.27907 0.30207 0.61631 0.0
H320 H 0.30481 0.33776 0.6046 0.0
H321 H 0.32476 0.33538 0.62056 0.0
C322 C 0.18165 0.2656 0.58169 0.0
N323 N 0.18546 0.26168 0.59519 0.0
N324 N 0.20796 0.29303 0.60054 0.0
C325 C 0.21861 0.31817 0.59055 0.0
C326 C 0.20221 0.30151 0.57826 0.0
C327 C 0.15613 0.23599 0.57246 0.0
H328 H 0.12828 0.22603 0.57601 0.0
H329 H 0.16183 0.21366 0.57289 0.0
H330 H 0.15862 0.24487 0.56163 0.0
O331 O 0.12856 0.23747 0.61919 0.0
O332 O 0.16829 0.28936 0.62871 0.0
H333 H 0.22902 0.36428 0.60241 0.0
H334 H 0.23813 0.37303 0.58423 0.0
C335 C 0.23946 0.35768 0.59313 0.0
H336 H 0.26788 0.36583 0.59501 0.0
H337 H 0.22525 0.36528 0.63445 0.0
O338 O 0.12249 0.18245 0.59605 0.0
C339 C 0.13618 0.26379 0.62718 0.0
Co340 Co 0.91979 0.14976 0.94122 0.0
Co341 Co 0.90872 0.21028 0.95326 0.0
C342 C 0.97375 0.20458 0.96044 0.0
O343 O 0.96301 0.17733 0.9527 0.0
O344 O 0.95575 0.22058 0.96153 0.0
C345 C 0.95722 0.12387 0.9257 0.0
O346 O 0.98432 0.15613 0.92808 0.0
C347 C 0.92721 0.28415 0.95769 0.0
C348 C 0.8751 0.27976 0.96247 0.0
C349 C 0.91119 0.30426 0.96076 0.0
N350 N 0.90187 0.24939 0.95767 0.0
N351 N 0.87078 0.24683 0.96064 0.0
C352 C 0.96527 0.2976 0.95358 0.0
H353 H 0.96692 0.27827 0.94651 0.0
H354 H 0.97684 0.3242 0.94855 0.0
H355 H 0.98126 0.3003 0.96289 0.0
C356 C 0.90349 0.17388 0.91537 0.0
N357 N 0.91133 0.17833 0.92886 0.0
N358 N 0.906 0.20374 0.9337 0.0
C359 C 0.89445 0.21628 0.92332 0.0
C360 C 0.89238 0.1976 0.91136 0.0
C361 C 0.90426 0.14565 0.90664 0.0
H362 H 0.88684 0.11888 0.91125 0.0
H363 H 0.93202 0.15058 0.90623 0.0
H364 H 0.89545 0.14582 0.89597 0.0
O365 O 0.87791 0.12326 0.95342 0.0
O366 O 0.87038 0.16642 0.96246 0.0
H367 H 0.85899 0.23129 0.93256 0.0
H368 H 0.87239 0.24795 0.91527 0.0
C369 C 0.88149 0.24234 0.92514 0.0
H370 H 0.90341 0.26774 0.92941 0.0
H371 H 0.84654 0.22269 0.96113 0.0
O372 O 0.92665 0.11493 0.93066 0.0
C373 C 0.86136 0.13344 0.96143 0.0
Co374 Co 0.76689 0.91807 0.27757 0.0
Co375 Co 0.69672 0.91223 0.28886 0.0
C376 C 0.76925 0.97402 0.29661 0.0
O377 O 0.78477 0.96164 0.28916 0.0
O378 O 0.7352 0.95794 0.29732 0.0
C379 C 0.82902 0.9528 0.26166 0.0
O380 O 0.82312 0.97969 0.26323 0.0
C381 C 0.64245 0.93367 0.29082 0.0
C382 C 0.59583 0.88494 0.29911 0.0
C383 C 0.60684 0.91946 0.29464 0.0
N384 N 0.65173 0.90853 0.29276 0.0
N385 N 0.6238 0.87949 0.29775 0.0
C386 C 0.66785 0.9709 0.28589 0.0
H387 H 0.66409 0.97259 0.27471 0.0
H388 H 0.66278 0.99065 0.29125 0.0
H389 H 0.69596 0.97792 0.28751 0.0
C390 C 0.72896 0.90606 0.2512 0.0
N391 N 0.73148 0.91236 0.26482 0.0
N392 N 0.70124 0.90902 0.26934 0.0
C393 C 0.67831 0.90018 0.25862 0.0
C394 C 0.69547 0.89865 0.24675 0.0
C395 C 0.7561 0.90222 0.24289 0.0
H396 H 0.76593 0.88685 0.24876 0.0
H397 H 0.77897 0.9292 0.24057 0.0
H398 H 0.74479 0.88809 0.23305 0.0
O399 O 0.74805 0.87548 0.28959 0.0
O400 O 0.69897 0.87247 0.29844 0.0
H401 H 0.62688 0.87183 0.26826 0.0
H402 H 0.62526 0.87992 0.25009 0.0
C403 C 0.64016 0.89126 0.25979 0.0
H404 H 0.63935 0.91593 0.26226 0.0
H405 H 0.62379 0.85591 0.30017 0.0
O406 O 0.80829 0.92302 0.26739 0.0
C407 C 0.72088 0.86087 0.29748 0.0
C408 C 0.55832 0.63435 0.05072 0.0
C409 C 0.58479 0.65126 0.06084 0.0
C410 C 0.53635 0.59709 0.0506 0.0
C411 C 0.50599 0.51676 0.07281 0.0
H412 H 0.47745 0.46626 0.03807 0.0
C413 C 0.40286 0.3662 0.07016 0.0
C414 C 0.40673 0.3454 0.05994 0.0
C415 C 0.4245 0.40342 0.07016 0.0
C416 C 0.48553 0.47985 0.04787 0.0
H417 H 0.60686 0.6422 0.07941 0.0
H418 H 0.57065 0.5776 0.0787 0.0
H419 H 0.51564 0.53106 0.03826 0.0
H420 H 0.43782 0.3472 0.04218 0.0
H421 H 0.47671 0.4121 0.0425 0.0
H422 H 0.47743 0.46554 0.08245 0.0
C423 C 0.56654 0.59294 0.07085 0.0
C424 C 0.50698 0.51716 0.04798 0.0
C425 C 0.58809 0.63017 0.07107 0.0
C426 C 0.43382 0.36256 0.05007 0.0
C427 C 0.45587 0.39981 0.05018 0.0
C428 C 0.48501 0.47947 0.0727 0.0
C429 C 0.5404 0.57585 0.06061 0.0
C430 C 0.51742 0.53612 0.06045 0.0
C431 C 0.45127 0.42077 0.06017 0.0
C432 C 0.47432 0.4605 0.06024 0.0
H433 H 0.55476 0.64993 0.0428 0.0
H434 H 0.51599 0.58501 0.04274 0.0
H435 H 0.51298 0.53037 0.08263 0.0
H436 H 0.38356 0.35393 0.07832 0.0
H437 H 0.41995 0.41855 0.07798 0.0
C438 C 0.08394 0.44452 0.39874 0.0
C439 C 0.06728 0.41142 0.3919 0.0
C440 C 0.06811 0.46595 0.39882 0.0
C441 C 0.00819 0.48667 0.37996 0.0
H442 H 0.98938 0.51617 0.41511 0.0
C443 C 0.92513 0.55744 0.38397 0.0
C444 C 0.93506 0.58436 0.39394 0.0
C445 C 0.94094 0.53599 0.38372 0.0
C446 C -0.00505 0.50877 0.40518 0.0
H447 H 0.02222 0.3754 0.37923 0.0
H448 H -0.00514 0.41335 0.3791 0.0
H449 H 0.01931 0.48097 0.41431 0.0
H450 H 0.96754 0.60763 0.41217 0.0
H451 H -0.00306 0.57252 0.41113 0.0
H452 H 0.98506 0.51528 0.37072 0.0
C453 C 0.01978 0.42236 0.38458 0.0
C454 C 0.01194 0.48844 0.40476 0.0
C455 C 0.03526 0.40063 0.38473 0.0
C456 C 0.96043 0.58859 0.4039 0.0
C457 C 0.97671 0.56761 0.40352 0.0
C458 C 0.99178 0.50756 0.38035 0.0
C459 C 0.03584 0.45497 0.39178 0.0
C460 C 0.01856 0.47713 0.39216 0.0
C461 C 0.96728 0.54106 0.3934 0.0
C462 C 0.9848 0.5188 0.39298 0.0
H463 H 0.10867 0.45334 0.40434 0.0
H464 H 0.08108 0.49114 0.40435 0.0
H465 H 0.01329 0.47843 0.37011 0.0
H466 H 0.90526 0.55306 0.37626 0.0
H467 H 0.93224 0.51526 0.37598 0.0
C468 C 0.63021 0.03353 0.717 0.0
C469 C 0.65089 0.0658 0.7241 0.0
C470 C 0.59291 0.01714 0.71687 0.0
C471 C 0.51814 0.03443 0.72453 0.0
H472 H 0.46191 0.93059 0.72519 0.0
C473 C 0.36719 0.95546 0.73705 0.0
C474 C 0.34555 0.93014 0.72712 0.0
C475 C 0.40441 0.97162 0.73644 0.0
C476 C 0.47736 0.95959 0.72493 0.0
H477 H 0.64932 0.10662 0.7365 0.0
H478 H 0.58415 0.07745 0.73681 0.0
H479 H 0.52712 0.96012 0.72467 0.0
H480 H 0.34603 0.90014 0.70932 0.0
H481 H 0.41128 0.9277 0.70854 0.0
H482 H 0.46807 0.03356 0.72535 0.0
C483 C 0.59648 0.06508 0.731 0.0
C484 C 0.51471 0.9766 0.72455 0.0
C485 C 0.63382 0.08176 0.7309 0.0
C486 C 0.36196 0.91987 0.71703 0.0
C487 C 0.39922 0.93559 0.71656 0.0
C488 C 0.48084 0.0174 0.72517 0.0
C489 C 0.57548 0.03245 0.72402 0.0
C490 C 0.53564 0.01428 0.72432 0.0
C491 C 0.42073 0.96204 0.72613 0.0
C492 C 0.46017 0.97987 0.72536 0.0
H493 H 0.64291 0.0211 0.71145 0.0
H494 H 0.57782 0.99257 0.71109 0.0
H495 H 0.53317 0.06341 0.72408 0.0
H496 H 0.35563 0.96257 0.74545 0.0
H497 H 0.42048 0.99135 0.74413 0.0
C498 C 0.63058 0.5968 0.63642 0.0
C499 C 0.65139 0.58593 0.62899 0.0
C500 C 0.59329 0.57558 0.63652 0.0
C501 C 0.51878 0.51246 0.61598 0.0
H502 H 0.4653 0.48091 0.65002 0.0
C503 C 0.36751 0.41091 0.61639 0.0
C504 C 0.34621 0.41273 0.62691 0.0
C505 C 0.40469 0.43272 0.6167 0.0
C506 C 0.47966 0.49001 0.64041 0.0
H507 H 0.65007 0.5445 0.61601 0.0
H508 H 0.58451 0.50768 0.61588 0.0
H509 H 0.53043 0.51762 0.65067 0.0
H510 H 0.34721 0.44089 0.64549 0.0
H511 H 0.41187 0.48027 0.64568 0.0
H512 H 0.46842 0.48632 0.60564 0.0
C513 C 0.59713 0.53247 0.62168 0.0
C514 C 0.51698 0.51079 0.64081 0.0
C515 C 0.63447 0.55334 0.62181 0.0
C516 C 0.36287 0.43835 0.63734 0.0
C517 C 0.40006 0.46068 0.63753 0.0
C518 C 0.48144 0.49231 0.61556 0.0
C519 C 0.57628 0.5435 0.629 0.0
C520 C 0.53681 0.52189 0.62861 0.0
C521 C 0.42156 0.45779 0.62731 0.0
C522 C 0.46133 0.48049 0.62777 0.0
H523 H 0.64316 0.62167 0.64216 0.0
H524 H 0.5777 0.58458 0.64222 0.0
H525 H 0.53359 0.52118 0.60644 0.0
H526 H 0.35572 0.39299 0.60778 0.0
H527 H 0.42015 0.42946 0.60866 0.0
C528 C 0.96056 0.36413 0.96836 0.0
C529 C 0.92811 0.34359 0.96137 0.0
C530 C 0.9768 0.40145 0.96874 0.0
C531 C 0.95836 0.47602 0.96233 0.0
H532 H 0.06203 0.53336 0.96123 0.0
C533 C 0.03521 0.62749 0.95066 0.0
C534 C 0.06109 0.64911 0.96042 0.0
C535 C 0.01935 0.59026 0.95113 0.0
C536 C 0.03307 0.51759 0.96163 0.0
H537 H 0.88687 0.34548 0.94939 0.0
H538 H 0.91574 0.41066 0.94951 0.0
H539 H 0.0332 0.46812 0.96121 0.0
H540 H 0.09235 0.64861 0.97776 0.0
H541 H 0.06529 0.58332 0.97828 0.0
H542 H 0.95852 0.5258 0.96219 0.0
C543 C 0.92839 0.39819 0.95505 0.0
C544 C 0.01648 0.48022 0.9617 0.0
C545 C 0.91188 0.36084 0.95489 0.0
C546 C 0.07216 0.63268 0.9702 0.0
C547 C 0.05673 0.5954 0.97051 0.0
C548 C 0.97497 0.51334 0.96201 0.0
C549 C 0.96111 0.41904 0.96197 0.0
C550 C 0.97887 0.4589 0.96205 0.0
C551 C 0.02979 0.57389 0.96111 0.0
C552 C 0.01243 0.53442 0.96166 0.0
H553 H 0.97317 0.35131 0.97369 0.0
H554 H 0.00147 0.41641 0.97446 0.0
H555 H 0.92943 0.46065 0.96291 0.0
H556 H 0.02747 0.6391 0.94248 0.0
H557 H -0.00076 0.57422 0.94355 0.0
C558 C 0.58901 0.9614 0.28408 0.0
C559 C 0.58439 0.93652 0.29432 0.0
C560 C 0.56819 0.97782 0.28404 0.0
C561 C 0.50806 0.99485 0.30619 0.0
H562 H 0.48147 0.01818 0.27134 0.0
C563 C 0.43499 0.07604 0.30317 0.0
C564 C 0.4084 0.06594 0.29308 0.0
C565 C 0.45741 0.06131 0.30326 0.0
C566 C 0.48825 0.01152 0.28118 0.0
H567 H 0.55281 0.90774 0.31207 0.0
H568 H 0.51527 0.93515 0.31166 0.0
H569 H 0.51641 0.98836 0.27164 0.0
H570 H 0.38666 0.0347 0.27448 0.0
H571 H 0.42366 0.00726 0.27515 0.0
H572 H 0.47823 0.01634 0.3157 0.0
C573 C 0.53613 0.94326 0.30401 0.0
C574 C 0.50888 0.99489 0.28135 0.0
C575 C 0.55738 0.92724 0.30416 0.0
C576 C 0.40554 0.04178 0.28281 0.0
C577 C 0.42753 0.02667 0.283 0.0
C578 C 0.48694 0.01101 0.30601 0.0
C579 C 0.54148 0.96901 0.29401 0.0
C580 C 0.51916 0.98641 0.29386 0.0
C581 C 0.45368 0.0361 0.29326 0.0
C582 C 0.47676 0.01955 0.29349 0.0
H583 H 0.60824 0.96794 0.27593 0.0
H584 H 0.57329 -0.00239 0.27621 0.0
H585 H 0.51587 0.98922 0.31602 0.0
H586 H 0.43821 0.09504 0.3111 0.0
H587 H 0.47778 0.06987 0.31114 0.0
C588 C 0.16319 0.88145 0.98319 0.0
C589 C 0.15954 0.88866 0.96943 0.0
C590 C 0.18589 0.90928 0.99201 0.0
C591 C 0.22627 0.00806 0.99454 0.0
H592 H 0.26309 0.99407 0.02886 0.0
C593 C 0.28622 0.11904 0.03527 0.0
C594 C 0.26735 0.10771 0.04773 0.0
C595 C 0.28314 0.09386 0.02548 0.0
C596 C 0.25322 -0.0016 0.01925 0.0
H597 H 0.17908 0.92964 0.95373 0.0
H598 H 0.22041 0.97773 0.9688 0.0
H599 H 0.24037 0.94691 0.01144 0.0
H600 H 0.23295 0.06129 0.06017 0.0
H601 H 0.22814 0.01748 0.04319 0.0
H602 H 0.239 0.05943 1.00241 0.0
C603 C 0.20451 0.95112 0.97307 0.0
C604 C 0.23991 0.97131 1.00929 0.0
C605 C 0.18111 0.92351 0.96436 0.0
C606 C 0.2476 0.07083 0.05062 0.0
C607 C 0.24503 0.04573 0.04094 0.0
C608 C 0.24016 0.03529 1.00436 0.0
C609 C 0.20602 0.94478 0.98717 0.0
C610 C 0.22525 0.97533 0.99695 0.0
C611 C 0.26172 0.05698 0.02809 0.0
C612 C 0.25287 0.03038 0.01696 0.0
H613 H 0.14665 0.85481 0.98737 0.0
H614 H 0.18587 0.90313 1.00278 0.0
H615 H 0.21462 0.01219 0.98538 0.0
H616 H 0.30164 0.14726 0.03274 0.0
H617 H 0.2964 0.1032 0.01567 0.0
C618 C 0.15916 0.27474 0.37217 0.0
C619 C 0.15445 0.2621 0.38572 0.0
C620 C 0.18096 0.2691 0.3631 0.0
C621 C 0.23414 0.26121 0.34542 0.0
H622 H 0.23012 0.16996 0.3501 0.0
C623 C 0.24286 0.17339 0.30231 0.0
C624 C 0.26346 0.15704 0.30487 0.0
C625 C 0.23932 0.1946 0.31235 0.0
C626 C 0.23203 0.19582 0.34877 0.0
H627 H 0.17108 0.23643 0.40076 0.0
H628 H 0.21092 0.2286 0.38525 0.0
H629 H 0.20531 0.19095 0.36769 0.0
H630 H 0.29814 0.15176 0.31966 0.0
H631 H 0.29106 0.18805 0.33733 0.0
H632 H 0.25846 0.26413 0.32586 0.0
C633 C 0.19646 0.24123 0.38134 0.0
C634 C 0.21795 0.20809 0.35892 0.0
C635 C 0.1739 0.24601 0.3903 0.0
C636 C 0.28211 0.16402 0.31736 0.0
C637 C 0.278 0.18466 0.3275 0.0
C638 C 0.24753 0.24846 0.33512 0.0
C639 C 0.19924 0.25141 0.36745 0.0
C640 C 0.21821 0.2407 0.35732 0.0
C641 C 0.25583 0.19933 0.3252 0.0
C642 C 0.24612 0.21542 0.33665 0.0
H643 H 0.14429 0.28704 0.36834 0.0
H644 H 0.18183 0.27698 0.3525 0.0
H645 H 0.23566 0.2868 0.3439 0.0
H646 H 0.22831 0.16865 0.29275 0.0
H647 H 0.22189 0.20544 0.31037 0.0
C648 C 0.07197 0.24544 0.63091 0.0
C649 C 0.10737 0.26262 0.63573 0.0
C650 C 0.04392 0.23983 0.63964 0.0
C651 C 0.98829 0.20582 0.66166 0.0
H652 H 0.0003 0.26221 0.69433 0.0
C653 C 0.87636 0.1618 0.70178 0.0
C654 C 0.88704 0.15563 0.71464 0.0
C655 C 0.90192 0.18196 0.69181 0.0
C656 C -0.00344 0.24642 0.68518 0.0
H657 H 0.14146 0.28859 0.65328 0.0
H658 H 0.09261 0.27711 0.66874 0.0
H659 H 0.0471 0.28535 0.67679 0.0
H660 H 0.93284 0.16798 0.7275 0.0
H661 H 0.97746 0.20397 0.71016 0.0
H662 H 0.93761 0.16715 0.67006 0.0
C663 C 0.08625 0.26899 0.65812 0.0
C664 C 0.02346 0.25944 0.67516 0.0
C665 C 0.11439 0.27546 0.64927 0.0
C666 C 0.9238 0.17213 0.71766 0.0
C667 C 0.94934 0.19287 0.70778 0.0
C668 C 0.96118 0.19326 0.6715 0.0
C669 C 0.05045 0.25025 0.65353 0.0
C670 C 0.02012 0.23889 0.66341 0.0
C671 C 0.9386 0.19695 0.69462 0.0
C672 C 0.96538 0.21303 0.68349 0.0
H673 H 0.06589 0.23567 0.62045 0.0
H674 H 0.01698 0.22641 0.63553 0.0
H675 H 0.98476 0.18864 0.653 0.0
H676 H 0.84825 0.14937 0.69913 0.0
H677 H 0.89303 0.18483 0.68173 0.0
C678 C 0.71456 0.88162 0.0366 0.0
C679 C 0.72502 0.88976 0.05037 0.0
C680 C 0.71975 0.9088 0.02743 0.0
C681 C 0.77735 0.00759 0.02415 0.0
H682 H 0.72669 0.99123 0.98965 0.0
C683 C 0.82539 0.11751 0.98313 0.0
C684 C 0.83361 0.10671 0.97068 0.0
C685 C 0.804 0.09203 0.99293 0.0
C686 C 0.74086 0.9962 0.9993 0.0
H687 H 0.74586 0.93175 0.0657 0.0
H688 H 0.75268 0.9787 0.05002 0.0
H689 H 0.7028 0.94475 1.00732 0.0
H690 H 0.82352 0.0607 0.95832 0.0
H691 H 0.78569 0.01629 0.97536 0.0
H692 H 0.81534 0.05896 0.01609 0.0
C693 C 0.74227 0.95186 0.04601 0.0
C694 C 0.72739 0.9695 1.00941 0.0
C695 C 0.73801 0.9249 0.05507 0.0
C696 C 0.81787 0.06988 0.96785 0.0
C697 C 0.79602 0.04443 0.97756 0.0
C698 C 0.79036 0.0344 0.01418 0.0
C699 C 0.73478 0.94457 0.03193 0.0
C700 C 0.74597 0.97446 0.02185 0.0
C701 C 0.7899 0.0553 0.99038 0.0
C702 C 0.77275 0.02869 1.00154 0.0
H703 H 0.7047 0.85474 0.0327 0.0
H704 H 0.7139 0.90193 0.01669 0.0
H705 H 0.79308 0.01241 0.03338 0.0
H706 H 0.83709 0.14566 0.98562 0.0
H707 H 0.79951 0.10107 1.00272 0.0
C708 C 0.71679 0.80212 0.30235 0.0
C709 C 0.71807 0.83339 0.30711 0.0
C710 C 0.71999 0.77896 0.31155 0.0
C711 C 0.73186 0.76725 0.34947 0.0
H712 H 0.78047 0.71962 0.33482 0.0
C713 C 0.80156 0.71733 0.38635 0.0
C714 C 0.83326 0.71945 0.38168 0.0
C715 C 0.77847 0.72051 0.3771 0.0
C716 C 0.76754 0.73328 0.33921 0.0
H717 H 0.72321 0.86516 0.32503 0.0
H718 H 0.73171 0.82698 0.34092 0.0
H719 H 0.75782 0.74689 0.31935 0.0
H720 H 0.86594 0.72619 0.36389 0.0
H721 H 0.82783 0.73466 0.34795 0.0
H722 H 0.74535 0.75745 0.36935 0.0
C723 C 0.72621 0.81849 0.33033 0.0
C724 C 0.75349 0.74833 0.3302 0.0
C725 C 0.72159 0.84078 0.32119 0.0
C726 C 0.84124 0.72392 0.36765 0.0
C727 C 0.81898 0.7285 0.35849 0.0
C728 C 0.74723 0.75355 0.35849 0.0
C729 C 0.72629 0.78751 0.32565 0.0
C730 C 0.73631 0.76658 0.33517 0.0
C731 C 0.78748 0.72758 0.36307 0.0
C732 C 0.76632 0.73725 0.35352 0.0
H733 H 0.71403 0.79599 0.29148 0.0
H734 H 0.71853 0.75494 0.30746 0.0
H735 H 0.71755 0.77951 0.35386 0.0
H736 H 0.79499 0.71384 0.39718 0.0
H737 H 0.75409 0.71834 0.38111 0.0
C738 C 0.07101 0.82294 0.71891 0.0
C739 C 0.10766 0.8379 0.71596 0.0
C740 C 0.04515 0.80185 0.70918 0.0
C741 C 0.034 0.79873 0.6728 0.0
H742 H 0.94489 0.7101 0.67892 0.0
C743 C 0.92363 0.74856 0.63208 0.0
C744 C 0.88833 0.73372 0.63684 0.0
C745 C 0.95104 0.75322 0.64098 0.0
C746 C 0.96945 0.73505 0.67705 0.0
H747 H 0.14586 0.84088 0.70079 0.0
H748 H 0.10055 0.80477 0.68363 0.0
H749 H 0.99161 0.73253 0.69649 0.0
H750 H 0.85366 0.71092 0.65448 0.0
H751 H 0.90152 0.72085 0.67023 0.0
H752 H 0.01156 0.80327 0.65398 0.0
C753 C 0.09198 0.80914 0.69354 0.0
C754 C -0.00371 0.74765 0.68708 0.0
C755 C 0.11784 0.82967 0.70338 0.0
C756 C 0.88065 0.72222 0.65053 0.0
C757 C 0.90822 0.72779 0.65954 0.0
C758 C 0.00699 0.78663 0.66292 0.0
C759 C 0.05547 0.79585 0.69623 0.0
C760 C 0.02863 0.77983 0.6851 0.0
C761 C 0.94401 0.74425 0.65498 0.0
C762 C 0.97404 0.75485 0.66495 0.0
H763 H 0.06236 0.8287 0.72853 0.0
H764 H 0.01719 0.7921 0.71146 0.0
H765 H 0.05847 0.82396 0.67111 0.0
H766 H 0.93017 0.75724 0.62152 0.0
H767 H 0.97791 0.76482 0.63691 0.0
C768 C 0.11436 0.0607 0.09994 0.0
C769 C 0.13102 0.09744 0.10283 0.0
C770 C 0.08394 0.03644 0.10715 0.0
C771 C 0.00833 0.03455 0.12466 0.0
H772 H 0.97734 0.93328 0.12374 0.0
C773 C 0.87461 0.88637 0.11553 0.0
C774 C 0.86011 0.89814 0.10523 0.0
C775 C 0.90569 0.9109 0.12247 0.0
C776 C 0.98534 0.96136 0.12452 0.0
H777 H 0.13071 0.13749 0.11622 0.0
H778 H 0.07766 0.09488 0.12904 0.0
H779 H 0.0407 0.97686 0.12371 0.0
H780 H 0.86537 0.94483 0.09469 0.0
H781 H 0.91997 0.98709 0.10619 0.0
H782 H 0.95296 0.01904 0.12541 0.0
C783 C 0.08761 0.08491 0.12097 0.0
C784 C 0.02183 0.98645 0.12428 0.0
C785 C 0.11792 0.10931 0.11361 0.0
C786 C 0.87605 0.93491 0.10252 0.0
C787 C 0.90721 0.95929 0.10931 0.0
C788 C 0.97186 0.00946 0.12525 0.0
C789 C 0.06965 0.04827 0.11756 0.0
C790 C 0.03352 0.02319 0.12312 0.0
C791 C 0.92302 0.94755 0.11912 0.0
C792 C 0.95995 0.97269 0.12395 0.0
H793 H 0.12395 0.05073 0.09173 0.0
H794 H 0.07057 0.00865 0.10396 0.0
H795 H 0.01622 0.06262 0.12401 0.0
H796 H 0.86242 0.85817 0.11801 0.0
H797 H 0.91681 0.90099 0.13011 0.0
C798 C 0.9806 0.1128 0.4452 0.0
C799 C 0.01538 0.13278 0.43982 0.0
C800 C 0.96919 0.07933 0.45115 0.0
C801 C -0.00066 0.01574 0.46199 0.0
H802 H 0.91674 0.94747 0.44105 0.0
C803 C 0.98716 0.88927 0.43905 0.0
C804 C 0.95341 0.86003 0.43588 0.0
C805 C 0.98996 0.91935 0.44559 0.0
C806 C 0.93917 0.96575 0.44737 0.0
H807 H 0.06654 0.13508 0.43761 0.0
H808 H 0.04653 0.07662 0.44772 0.0
H809 H 0.93079 0.0091 0.44236 0.0
H810 H 0.8961 0.83772 0.43817 0.0
H811 H 0.90097 0.89005 0.44981 0.0
H812 H 0.0088 0.97249 0.4663 0.0
C813 C 0.02805 0.08671 0.44746 0.0
C814 C 0.94725 0.00128 0.44812 0.0
C815 C 0.0394 0.12005 0.44148 0.0
C816 C 0.9225 0.86029 0.44023 0.0
C817 C 0.92529 0.8902 0.44692 0.0
C818 C 0.99113 0.98006 0.4613 0.0
C819 C 0.99245 0.06542 0.45187 0.0
C820 C 0.97851 0.027 0.45478 0.0
C821 C 0.95902 0.9206 0.44922 0.0
C822 C 0.96211 0.95517 0.45332 0.0
H823 H 0.96163 0.12217 0.44423 0.0
H824 H 0.9417 0.06359 0.45458 0.0
H825 H 0.02326 0.03496 0.46741 0.0
H826 H 0.01144 0.88968 0.43589 0.0
H827 H 0.01639 0.94242 0.44702 0.0
C828 C 0.87301 0.99169 0.77701 0.0
C829 C 0.88647 0.02518 0.77059 0.0
C830 C 0.89632 0.98239 0.78328 0.0
C831 C 0.99164 0.01711 0.79313 0.0
H832 H 0.97687 0.9306 0.7751 0.0
C833 C 0.10497 0.0023 0.7708 0.0
C834 C 0.10045 0.96812 0.76863 0.0
C835 C 0.07821 0.00606 0.77729 0.0
C836 C 0.98123 0.95425 0.78063 0.0
H837 H 0.93433 0.07637 0.76678 0.0
H838 H 0.97493 0.05993 0.77741 0.0
H839 H 0.92857 0.94353 0.77588 0.0
H840 H 0.06636 0.91138 0.77275 0.0
H841 H 0.01999 0.91799 0.78436 0.0
H842 H 0.0452 0.02874 0.79715 0.0
C843 C 0.94646 0.0409 0.77774 0.0
C844 C 0.95336 0.96168 0.78107 0.0
C845 C 0.92322 0.05016 0.77146 0.0
C846 C 0.07009 0.93801 0.774 0.0
C847 C 0.0436 0.9418 0.78068 0.0
C848 C 0.01957 0.00957 0.79275 0.0
C849 C 0.93341 0.00646 0.78327 0.0
C850 C 0.9589 0.99411 0.78664 0.0
C851 C 0.04666 0.97572 0.7819 0.0
C852 C 0.01522 0.97903 0.78581 0.0
H853 H 0.84471 0.97207 0.77668 0.0
H854 H 0.88552 0.95578 0.78758 0.0
H855 H -0.00361 0.04201 0.79771 0.0
H856 H 0.12827 0.02597 0.76684 0.0
H857 H 0.08135 0.03257 0.77789 0.0
C858 C 0.92104 0.87505 0.58097 0.0
C859 C 0.8847 0.86445 0.58243 0.0
C860 C 0.94431 0.90681 0.57423 0.0
C861 C 0.95388 0.99405 0.57024 0.0
H862 H 0.04394 0.0144 0.55374 0.0
C863 C 0.07484 0.13184 0.57689 0.0
C864 C 0.10374 0.13005 0.58267 0.0
C865 C 0.04769 0.10236 0.57002 0.0
C866 C 0.01879 0.00919 0.5582 0.0
H867 H 0.84353 0.87709 0.57694 0.0
H868 H 0.8844 0.93292 0.56519 0.0
H869 H 0.9933 0.95313 0.55363 0.0
H870 H 0.12849 0.09727 0.58486 0.0
H871 H 0.08047 0.04527 0.5734 0.0
H872 H 0.97972 0.04915 0.57579 0.0
C873 C 0.89489 0.91677 0.5694 0.0
C874 C 0.98982 0.97418 0.55811 0.0
C875 C 0.87155 0.8849 0.57617 0.0
C876 C 0.10634 0.09925 0.58061 0.0
C877 C 0.07896 0.06958 0.57388 0.0
C878 C 0.98277 0.02893 0.57035 0.0
C879 C 0.93172 0.92865 0.56879 0.0
C880 C 0.95781 0.96599 0.56486 0.0
C881 C 0.04869 0.07037 0.56896 0.0
C882 C 0.01614 0.03647 0.56506 0.0
H883 H 0.9319 0.85959 0.58552 0.0
H884 H 0.97257 0.91536 0.57411 0.0
H885 H 0.92969 0.98868 0.57559 0.0
H886 H 0.0726 0.15564 0.57805 0.0
H887 H 0.02507 0.10403 0.56612 0.0
C888 C 0.04663 0.9246 0.91556 0.0
C889 C 0.02218 0.88772 0.91657 0.0
C890 C 0.03694 0.94714 0.90896 0.0
C891 C 0.95693 0.95213 0.90482 0.0
H892 H 0.02344 0.04401 0.88863 0.0
C893 C 0.93204 0.06805 0.91167 0.0
C894 C 0.96194 0.09826 0.91725 0.0
C895 C 0.9361 0.04182 0.90488 0.0
C896 C 0.0044 0.01834 0.89303 0.0
H897 H 0.96959 0.84501 0.91044 0.0
H898 H 0.95254 0.88459 0.89898 0.0
H899 H 0.03757 0.99575 0.88848 0.0
H900 H 0.01972 0.12617 0.91925 0.0
H901 H 0.02675 0.07977 0.90799 0.0
H902 H 0.92514 0.97512 0.91042 0.0
C903 C 0.97906 0.89603 0.90341 0.0
C904 C 0.01243 0.99073 0.8929 0.0
C905 C 0.98879 0.87344 0.91001 0.0
C906 C -0.00381 0.10298 0.91514 0.0
C907 C 0.00021 0.07652 0.90852 0.0
C908 C 0.949 0.97969 0.90502 0.0
C909 C 0.0026 0.93325 0.90324 0.0
C910 C 0.98968 0.95807 0.89948 0.0
C911 C 0.97006 0.04505 0.90374 0.0
C912 C 0.97361 0.01372 0.89983 0.0
H913 H 0.07276 0.93634 0.92036 0.0
H914 H 0.05554 0.97573 0.90917 0.0
H915 H 0.93892 0.92737 0.91006 0.0
H916 H 0.90536 0.06418 0.91287 0.0
H917 H 0.91243 0.01824 0.90107 0.0
C918 C 0.11063 0.9875 0.24377 0.0
C919 C 0.12902 0.02122 0.25016 0.0
C920 C 0.07802 0.97655 0.2372 0.0
C921 C 0.01422 0.00648 0.22652 0.0
H922 H 0.94524 0.9204 0.24555 0.0
C923 C 0.88759 0.99083 0.25005 0.0
C924 C 0.85868 0.95671 0.253 0.0
C925 C 0.91741 0.99439 0.24307 0.0
C926 C 0.96371 0.94383 0.23972 0.0
H927 H 0.1295 0.07119 0.2536 0.0
H928 H 0.07239 0.05187 0.24243 0.0
H929 H 0.00705 0.93537 0.24456 0.0
H930 H 0.83642 0.89965 0.24979 0.0
H931 H 0.88819 0.90585 0.23731 0.0
H932 H 0.97091 0.01593 0.22242 0.0
C933 C 0.08315 0.03393 0.24236 0.0
C934 C -0.00063 0.95244 0.23916 0.0
C935 C 0.11565 0.04482 0.24896 0.0
C936 C 0.85882 0.92628 0.24794 0.0
C937 C 0.88839 0.92984 0.24076 0.0
C938 C 0.97838 -0.0023 0.22699 0.0
C939 C 0.06337 -0.0008 0.23687 0.0
C940 C 0.02529 0.98494 0.23331 0.0
C941 C 0.91864 0.96387 0.23873 0.0
C942 C 0.95322 0.96746 0.23437 0.0
H943 H 0.1206 0.96894 0.24436 0.0
H944 H 0.06341 0.94974 0.23296 0.0
H945 H 0.03364 0.03137 0.22171 0.0
H946 H 0.88801 0.01474 0.25375 0.0
H947 H 0.94034 0.02101 0.24188 0.0
C948 C 0.02641 0.19857 0.96762 0.0
C949 C 0.00565 0.21514 0.96932 0.0
C950 C 0.05347 0.20459 0.97698 0.0
C951 C 0.11908 0.23178 0.99531 0.0
H952 H 0.09514 0.22896 0.03381 0.0
C953 C 0.21507 0.23766 0.03824 0.0
C954 C 0.1989 0.21247 0.04887 0.0
C955 C 0.19413 0.24403 0.02888 0.0
C956 C 0.10229 0.2298 0.0231 0.0
H957 H -0.00165 0.25239 0.98199 0.0
H958 H 0.04581 0.26307 0.9983 0.0
H959 H 0.0547 0.22911 0.01636 0.0
H960 H 0.14791 0.17541 0.05827 0.0
H961 H 0.1117 0.18641 0.04205 0.0
H962 H 0.16597 0.23104 1.00204 0.0
C963 C 0.04076 0.24501 0.98977 0.0
C964 C 0.07926 0.23031 0.01308 0.0
C965 C 0.01373 0.23912 0.98035 0.0
C966 C 0.1614 0.19498 0.05023 0.0
C967 C 0.14055 0.20145 0.04094 0.0
C968 C 0.14216 0.23137 1.00533 0.0
C969 C 0.06056 0.2273 0.98835 0.0
C970 C 0.08698 0.23062 0.99903 0.0
C971 C 0.15652 0.22556 0.02998 0.0
C972 C 0.13377 0.2297 0.01937 0.0
H973 H 0.02106 0.17995 0.95927 0.0
H974 H 0.06781 0.19017 0.97559 0.0
H975 H 0.12616 0.23246 0.9846 0.0
H976 H 0.24385 0.25169 0.03687 0.0
H977 H 0.20741 0.26314 0.02069 0.0
C978 C 0.96194 0.16647 0.38709 0.0
C979 C 0.9837 0.20364 0.38507 0.0
C980 C 0.9353 0.14522 0.37761 0.0
C981 C 0.87074 0.10699 0.35872 0.0
H982 H 0.89775 0.12467 0.32035 0.0
C983 C 0.77556 0.01663 0.3156 0.0
C984 C 0.7914 0.00585 0.30544 0.0
C985 C 0.79682 0.04405 0.32489 0.0
C986 C 0.88975 0.11932 0.33101 0.0
H987 H 0.99325 0.24771 0.37166 0.0
H988 H 0.94656 0.21057 0.35513 0.0
H989 H 0.93782 0.1658 0.3378 0.0
H990 H 0.84224 0.01668 0.29681 0.0
H991 H 0.87904 0.06415 0.31292 0.0
H992 H 0.82327 0.05981 0.35198 0.0
C993 C 0.95047 0.19784 0.36402 0.0
C994 C 0.91258 0.14318 0.34103 0.0
C995 C 0.97706 0.2192 0.37357 0.0
C996 C 0.82901 0.02416 0.30448 0.0
C997 C 0.8502 0.05162 0.31371 0.0
C998 C 0.84785 0.08321 0.3487 0.0
C999 C 0.92967 0.16045 0.36579 0.0
C1000 C 0.90369 0.13702 0.35505 0.0
C1001 C 0.83445 0.06155 0.32419 0.0
C1002 C 0.85731 0.0887 0.33472 0.0
H1003 H 0.96618 0.15347 0.39582 0.0
H1004 H 0.92013 0.11654 0.37928 0.0
H1005 H 0.8628 0.10157 0.36939 0.0
H1006 H 0.74671 0.00323 0.31665 0.0
H1007 H 0.78374 0.0513 0.33271 0.0
C1008 C 0.79174 0.82962 0.63506 0.0
C1009 C 0.77545 0.79221 0.63656 0.0
C1010 C 0.78531 0.85018 0.64452 0.0
C1011 C 0.75851 0.84852 0.68061 0.0
H1012 H 0.75793 0.93493 0.67007 0.0
C1013 C 0.79284 0.96464 0.71843 0.0
C1014 C 0.77588 0.98512 0.71703 0.0
C1015 C 0.78631 0.9374 0.70906 0.0
C1016 C 0.75753 0.91065 0.67323 0.0
H1017 H 0.73823 0.74702 0.64897 0.0
H1018 H 0.72678 0.78293 0.66544 0.0
H1019 H 0.75714 0.89449 0.6524 0.0
H1020 H 0.73732 0.99162 0.70493 0.0
H1021 H 0.72567 0.94383 0.68864 0.0
H1022 H 0.75909 0.86478 0.70144 0.0
C1023 C 0.74498 0.79639 0.65701 0.0
C1024 C 0.7575 0.88762 0.66306 0.0
C1025 C 0.75132 0.77575 0.64749 0.0
C1026 C 0.75095 0.97651 0.70633 0.0
C1027 C 0.74449 0.94927 0.69691 0.0
C1028 C 0.7586 0.87158 0.69077 0.0
C1029 C 0.76242 0.83398 0.6558 0.0
C1030 C 0.75865 0.85656 0.6666 0.0
C1031 C 0.76263 0.92981 0.69799 0.0
C1032 C 0.75876 0.90332 0.68723 0.0
H1033 H 0.81047 0.84332 0.62679 0.0
H1034 H 0.79954 0.87902 0.64329 0.0
H1035 H 0.75968 0.82504 0.68376 0.0
H1036 H 0.8122 0.9704 0.72653 0.0
H1037 H 0.80107 0.92334 0.71019 0.0
C1038 C 0.83014 0.80186 0.05247 0.0
C1039 C 0.79267 0.7844 0.05097 0.0
C1040 C 0.85122 0.79574 0.04317 0.0
C1041 C 0.88988 0.76801 0.0252 0.0
H1042 H 0.86671 0.76656 0.98668 0.0
C1043 C 0.97825 0.75865 0.98229 0.0
C1044 C 0.98636 0.78259 0.97126 0.0
C1045 C 0.9515 0.75312 0.9918 0.0
C1046 C 0.87361 0.76693 0.99739 0.0
H1047 H 0.74802 0.74559 0.03872 0.0
H1048 H 0.78485 0.73474 0.02253 0.0
H1049 H 0.82667 0.76759 1.0041 0.0
H1050 H 0.97146 0.81833 0.96136 0.0
H1051 H 0.92524 0.80878 0.97784 0.0
H1052 H 0.93752 0.76874 0.01847 0.0
C1053 C 0.79793 0.75356 0.03084 0.0
C1054 C 0.85039 0.7671 1.00741 0.0
C1055 C 0.77677 0.75958 0.0402 0.0
C1056 C 0.96607 0.79971 0.9697 0.0
C1057 C 0.93931 0.79407 0.97915 0.0
C1058 C 0.91306 0.76774 0.01518 0.0
C1059 C 0.83551 0.77202 0.03206 0.0
C1060 C 0.8585 0.76828 0.02145 0.0
C1061 C 0.93203 0.77118 0.99046 0.0
C1062 C 0.90558 0.76785 1.00113 0.0
H1063 H 0.84342 0.82115 0.06062 0.0
H1064 H 0.88004 0.81074 0.04439 0.0
H1065 H 0.89682 0.76849 0.03591 0.0
H1066 H 0.99327 0.74497 0.98382 0.0
H1067 H 0.94632 0.73495 1.00028 0.0
C1068 C 0.21561 0.9791 0.31541 0.0
C1069 C 0.19958 0.98614 0.30417 0.0
C1070 C 0.19462 0.95243 0.32499 0.0
C1071 C 0.14106 0.91428 0.34829 0.0
H1072 H 0.05708 0.8253 0.33744 0.0
C1073 C 0.02354 0.82983 0.3853 0.0
C1074 C 0.00509 0.79222 0.38415 0.0
C1075 C 0.05073 0.85127 0.37603 0.0
C1076 C 0.08066 0.84978 0.34069 0.0
H1077 H 0.14895 0.96931 0.29391 0.0
H1078 H 0.11266 0.92309 0.31049 0.0
H1079 H 0.098 0.86524 0.31994 0.0
H1080 H 0.002 0.74778 0.37256 0.0
H1081 H 0.04957 0.78522 0.35643 0.0
H1082 H 0.12355 0.89895 0.36903 0.0
C1083 C 0.14141 0.93802 0.31193 0.0
C1084 C 0.10395 0.87291 0.33062 0.0
C1085 C 0.16229 0.96475 0.30243 0.0
C1086 C 0.01553 0.77662 0.37376 0.0
C1087 C 0.04265 0.79812 0.36444 0.0
C1088 C 0.11768 0.89122 0.35836 0.0
C1089 C 0.15715 0.93194 0.3235 0.0
C1090 C 0.13419 0.90574 0.33426 0.0
C1091 C 0.06021 0.83576 0.3653 0.0
C1092 C 0.08685 0.85888 0.35469 0.0
H1093 H 0.24422 0.99501 0.3171 0.0
H1094 H 0.20771 0.94818 0.33368 0.0
H1095 H 0.16388 0.93943 0.35149 0.0
H1096 H 0.01632 0.84287 0.39315 0.0
H1097 H 0.06334 0.88011 0.37697 0.0
C1098 C 0.21116 0.03605 0.71914 0.0
C1099 C 0.21765 0.00806 0.71576 0.0
C1100 C 0.21727 0.0627 0.70953 0.0
C1101 C 0.21118 0.07407 0.67342 0.0
H1102 H 0.26913 0.17642 0.67947 0.0
C1103 C 0.21709 0.17256 0.6321 0.0
C1104 C 0.22002 0.20501 0.63641 0.0
C1105 C 0.22251 0.15088 0.64135 0.0
C1106 C 0.25233 0.14798 0.67763 0.0
H1107 H 0.23637 0.98662 0.69969 0.0
H1108 H 0.24586 0.03258 0.68277 0.0
H1109 H 0.26761 0.13477 0.6968 0.0
H1110 H 0.23154 0.24048 0.65378 0.0
H1111 H 0.2391 0.20211 0.67008 0.0
H1112 H 0.19376 0.08645 0.65481 0.0
C1113 C 0.23661 0.03409 0.69295 0.0
C1114 C 0.25179 0.12415 0.68756 0.0
C1115 C 0.23136 0.00794 0.70267 0.0
C1116 C 0.22951 0.2158 0.6501 0.0
C1117 C 0.23398 0.19367 0.65947 0.0
C1118 C 0.21097 0.09777 0.66366 0.0
C1119 C 0.22916 0.06144 0.69623 0.0
C1120 C 0.23121 0.08698 0.68554 0.0
C1121 C 0.22992 0.16046 0.65532 0.0
C1122 C 0.23151 0.13521 0.66558 0.0
H1123 H 0.20056 0.03689 0.72913 0.0
H1124 H 0.21116 0.0834 0.71229 0.0
H1125 H 0.19469 0.04549 0.6717 0.0
H1126 H 0.21005 0.16363 0.62157 0.0
H1127 H 0.22028 0.12628 0.63752 0.0
C1128 C 0.33343 0.19149 0.12468 0.0
C1129 C 0.3067 0.20001 0.12172 0.0
C1130 C 0.33955 0.18514 0.13828 0.0
C1131 C 0.28745 0.15005 0.1697 0.0
H1132 H 0.37749 0.17787 0.188 0.0
C1133 C 0.28823 0.08306 0.21992 0.0
C1134 C 0.30623 0.10638 0.23086 0.0
C1135 C 0.29439 0.09559 0.20642 0.0
C1136 C 0.35219 0.16994 0.18299 0.0
H1137 H 0.267 0.21073 0.13051 0.0
H1138 H 0.27792 0.20029 0.15419 0.0
H1139 H 0.37757 0.20126 0.16494 0.0
H1140 H 0.34609 0.16063 0.2363 0.0
H1141 H 0.35731 0.18273 0.21254 0.0
H1142 H 0.26189 0.11879 0.18752 0.0
C1143 C 0.29394 0.19809 0.1461 0.0
C1144 C 0.35224 0.18319 0.1698 0.0
C1145 C 0.28792 0.20442 0.13258 0.0
C1146 C 0.33234 0.14201 0.228 0.0
C1147 C 0.33861 0.15464 0.21442 0.0
C1148 C 0.28741 0.13656 0.18271 0.0
C1149 C 0.31879 0.18697 0.14907 0.0
C1150 C 0.31978 0.17356 0.16306 0.0
C1151 C 0.31861 0.13184 0.20354 0.0
C1152 C 0.3197 0.14624 0.18953 0.0
H1153 H 0.34779 0.18731 0.11643 0.0
H1154 H 0.35876 0.17648 0.14024 0.0
H1155 H 0.26198 0.14165 0.16474 0.0
H1156 H 0.2678 0.05553 0.22189 0.0
H1157 H 0.27897 0.07722 0.19826 0.0
C1158 C 0.14666 0.3397 0.45842 0.0
C1159 C 0.10953 0.31778 0.45676 0.0
C1160 C 0.16161 0.34903 0.4716 0.0
C1161 C 0.14052 0.35182 0.50835 0.0
H1162 H 0.21411 0.32726 0.5153 0.0
C1163 C 0.16448 0.31247 0.56188 0.0
C1164 C 0.19834 0.318 0.56552 0.0
C1165 C 0.15848 0.32195 0.54886 0.0
C1166 C 0.19422 0.33513 0.51356 0.0
H1167 H 0.05877 0.28934 0.46732 0.0
H1168 H 0.08458 0.30638 0.49033 0.0
H1169 H 0.1946 0.32736 0.49184 0.0
H1170 H 0.2531 0.33973 0.55882 0.0
H1171 H 0.24304 0.35733 0.53601 0.0
H1172 H 0.13967 0.35914 0.53004 0.0
C1173 C 0.10226 0.31654 0.48153 0.0
C1174 C 0.18295 0.33508 0.50007 0.0
C1175 C 0.08743 0.30681 0.46839 0.0
C1176 C 0.22676 0.33524 0.55621 0.0
C1177 C 0.22082 0.3449 0.54312 0.0
C1178 C 0.15203 0.35226 0.52182 0.0
C1179 C 0.1396 0.3369 0.48332 0.0
C1180 C 0.15526 0.34242 0.49735 0.0
C1181 C 0.18631 0.33748 0.53914 0.0
C1182 C 0.17826 0.34281 0.52467 0.0
H1183 H 0.16422 0.34791 0.44957 0.0
H1184 H 0.19045 0.36484 0.47265 0.0
H1185 H 0.11947 0.35809 0.50656 0.0
H1186 H 0.14215 0.29916 0.56892 0.0
H1187 H 0.13146 0.31527 0.54622 0.0
C1188 C 0.84366 0.16493 0.89429 0.0
C1189 C 0.87481 0.19649 0.89816 0.0
C1190 C 0.83041 0.16056 0.88092 0.0
C1191 C 0.86222 0.19343 0.84577 0.0
H1192 H 0.76205 0.13095 0.83677 0.0
C1193 C 0.81551 0.1535 0.78971 0.0
C1194 C 0.7942 0.11641 0.78769 0.0
C1195 C 0.82145 0.16797 0.80297 0.0
C1196 C 0.79012 0.14851 0.83912 0.0
H1197 H 0.91539 0.24918 0.89147 0.0
H1198 H 0.89176 0.24217 0.86806 0.0
H1199 H 0.77952 0.14932 0.86054 0.0
H1200 H 0.76174 0.06537 0.79768 0.0
H1201 H 0.77128 0.09053 0.82086 0.0
H1202 H 0.87277 0.19219 0.82436 0.0
C1203 C 0.87793 0.22034 0.87526 0.0
C1204 C 0.80021 0.15898 0.85276 0.0
C1205 C 0.89128 0.22461 0.88869 0.0
C1206 C 0.77765 0.09414 0.79901 0.0
C1207 C 0.78321 0.1086 0.81226 0.0
C1208 C 0.85208 0.18323 0.83212 0.0
C1209 C 0.84789 0.18781 0.87107 0.0
C1210 C 0.83652 0.18085 0.85635 0.0
C1211 C 0.80601 0.14557 0.81444 0.0
C1212 C 0.816 0.15996 0.82867 0.0
H1213 H 0.8306 0.14283 0.90145 0.0
H1214 H 0.80757 0.13497 0.87814 0.0
H1215 H 0.89047 0.2098 0.84808 0.0
H1216 H 0.82904 0.17103 0.7811 0.0
H1217 H 0.83897 0.19655 0.8043 0.0
C1218 C 0.70003 0.91149 0.22176 0.0
C1219 C 0.6816 0.888 0.2326 0.0
C1220 C 0.69392 0.89928 0.20821 0.0
C1221 C 0.63584 0.82573 0.18448 0.0
H1222 H 0.72617 0.85252 0.16661 0.0
C1223 C 0.65589 0.8041 0.12627 0.0
C1224 C 0.6821 0.79472 0.12349 0.0
C1225 C 0.64948 0.81052 0.13983 0.0
C1226 C 0.70067 0.84457 0.17146 0.0
H1227 H 0.64096 0.8339 0.23781 0.0
H1228 H 0.62982 0.81238 0.21396 0.0
H1229 H 0.72612 0.87551 0.18937 0.0
H1230 H 0.72052 0.78257 0.13256 0.0
H1231 H 0.7091 0.79319 0.15615 0.0
H1232 H 0.61057 0.79472 0.16634 0.0
C1233 C 0.64884 0.84033 0.21596 0.0
C1234 C 0.70064 0.85813 0.18446 0.0
C1235 C 0.65506 0.85263 0.22959 0.0
C1236 C 0.69999 0.78951 0.13448 0.0
C1237 C 0.6937 0.79595 0.14795 0.0
C1238 C 0.63587 0.81242 0.1713 0.0
C1239 C 0.6693 0.86321 0.20519 0.0
C1240 C 0.66831 0.84895 0.19115 0.0
C1241 C 0.66945 0.80794 0.15075 0.0
C1242 C 0.66837 0.8215 0.16471 0.0
H1243 H 0.72079 0.93881 0.22386 0.0
H1244 H 0.70972 0.9177 0.20013 0.0
H1245 H 0.61051 0.81818 0.18939 0.0
H1246 H 0.64225 0.80891 0.11793 0.0
H1247 H 0.63074 0.81986 0.14166 0.0
C1248 C 0.89761 0.67924 0.46642 0.0
C1249 C 0.87619 0.67665 0.45517 0.0
C1250 C 0.88301 0.67097 0.47966 0.0
C1251 C 0.81157 0.67232 0.49959 0.0
H1252 H 0.83943 0.62813 0.52797 0.0
C1253 C 0.76795 0.67012 0.55569 0.0
C1254 C 0.79506 0.67965 0.56547 0.0
C1255 C 0.77236 0.66101 0.5423 0.0
C1256 C 0.83148 0.6407 0.52019 0.0
H1257 H 0.82285 0.66271 0.44869 0.0
H1258 H 0.79704 0.64788 0.4718 0.0
H1259 H 0.8579 0.6283 0.50425 0.0
H1260 H 0.84702 0.6854 0.56933 0.0
H1261 H 0.85515 0.67005 0.54604 0.0
H1262 H 0.78651 0.68616 0.51548 0.0
C1263 C 0.82508 0.65627 0.47046 0.0
C1264 C 0.84204 0.64072 0.50658 0.0
C1265 C 0.83967 0.66432 0.45723 0.0
C1266 C 0.82566 0.67789 0.56193 0.0
C1267 C 0.8302 0.66898 0.54857 0.0
C1268 C 0.80123 0.67254 0.51318 0.0
C1269 C 0.84679 0.66042 0.4819 0.0
C1270 C 0.83268 0.65702 0.49614 0.0
C1271 C 0.8041 0.66144 0.53843 0.0
C1272 C 0.81155 0.65729 0.52374 0.0
H1273 H 0.92602 0.6894 0.46506 0.0
H1274 H 0.90059 0.67487 0.48823 0.0
H1275 H 0.80433 0.68562 0.49186 0.0
H1276 H 0.74417 0.67141 0.55822 0.0
H1277 H 0.75137 0.6547 0.53486 0.0
C1278 C 0.2087 0.91117 0.80058 0.0
C1279 C 0.20172 0.88796 0.78944 0.0
C1280 C 0.2017 0.89796 0.81399 0.0
C1281 C 0.18133 0.82169 0.83681 0.0
H1282 H 0.12077 0.85145 0.85524 0.0
C1283 C 0.13876 0.79931 0.89496 0.0
C1284 C 0.10321 0.7903 0.89761 0.0
C1285 C 0.15199 0.80598 0.88146 0.0
C1286 C 0.13751 0.84271 0.85022 0.0
H1287 H 0.18392 0.83317 0.78353 0.0
H1288 H 0.17217 0.80995 0.80713 0.0
H1289 H 0.14498 0.87544 0.83267 0.0
H1290 H 0.05306 0.77898 0.88834 0.0
H1291 H 0.07592 0.79035 0.86486 0.0
H1292 H 0.17378 0.78905 0.85461 0.0
C1293 C 0.18318 0.83841 0.80547 0.0
C1294 C 0.15173 0.85679 0.83735 0.0
C1295 C 0.19003 0.85167 0.79199 0.0
C1296 C 0.0805 0.78566 0.88653 0.0
C1297 C 0.09368 0.79248 0.87312 0.0
C1298 C 0.16746 0.80795 0.84988 0.0
C1299 C 0.18759 0.86121 0.81656 0.0
C1300 C 0.17376 0.84647 0.83046 0.0
C1301 C 0.1299 0.80408 0.87048 0.0
C1302 C 0.14511 0.81811 0.85665 0.0
H1303 H 0.21754 0.93921 0.79884 0.0
H1304 H 0.2058 0.91626 0.82233 0.0
H1305 H 0.19822 0.81327 0.83173 0.0
H1306 H 0.15694 0.80369 0.90336 0.0
H1307 H 0.18005 0.81502 0.87973 0.0
loop_
_geom_bond_atom_site_label_1
_geom_bond_atom_site_label_2
_geom_bond_distance
_geom_bond_site_symmetry_2
_ccdc_geom_bond_type
Co0 O3 1.970 . S
Co0 N17 1.989 . S
Co0 O25 1.967 . S
Co0 O32 1.920 . S
Co1 O4 1.966 . S
Co1 N10 2.022 . S
Co1 N18 1.993 . S
Co1 O26 1.941 . S
C2 O3 1.258 . S
C2 O4 1.263 . S
O3 Co0 1.970 . S
O3 C2 1.258 . S
O4 Co1 1.966 . S
O4 C2 1.263 . S
C5 O6 1.235 . S
C5 O32 1.289 . S
O6 C5 1.235 . S
C7 C9 1.400 . S
C7 N10 1.351 . S
C7 C12 1.501 . S
C8 C9 1.387 . S
C8 N11 1.341 . S
C9 C7 1.400 . S
C9 C8 1.387 . S
N10 Co1 2.022 . S
N10 C7 1.351 . S
N10 N11 1.365 . S
N11 C8 1.341 . S
N11 N10 1.365 . S
N11 H31 0.862 . S
C12 C7 1.501 . S
C12 H13 0.961 . S
C12 H14 0.961 . S
C12 H15 0.960 . S
H13 C12 0.961 . S
H14 C12 0.961 . S
H15 C12 0.960 . S
C16 N17 1.342 . S
C16 C20 1.401 . S
C16 C21 1.499 . S
N17 Co0 1.989 . S
N17 C16 1.342 . S
N17 N18 1.388 . S
N18 Co1 1.993 . S
N18 N17 1.388 . S
N18 C19 1.346 . S
C19 N18 1.346 . S
C19 C20 1.396 . S
C19 C29 1.510 . S
C20 C16 1.401 . S
C20 C19 1.396 . S
C21 C16 1.499 . S
C21 H22 0.959 . S
C21 H23 0.960 . S
C21 H24 0.961 . S
H22 C21 0.959 . S
H23 C21 0.960 . S
H24 C21 0.961 . S
O25 Co0 1.967 . S
O25 C33 1.258 . S
O26 Co1 1.941 . S
O26 C33 1.266 . S
H27 C29 0.959 . S
H28 C29 0.961 . S
C29 C19 1.510 . S
C29 H27 0.959 . S
C29 H28 0.961 . S
C29 H30 0.960 . S
H30 C29 0.960 . S
H31 N11 0.862 . S
O32 Co0 1.920 . S
O32 C5 1.289 . S
C33 O25 1.258 . S
C33 O26 1.266 . S
Co34 O37 1.970 . S
Co34 N51 1.989 . S
Co34 O59 1.967 . S
Co34 O66 1.920 . S
Co35 O38 1.966 . S
Co35 N44 2.022 . S
Co35 N52 1.993 . S
Co35 O60 1.941 . S
C36 O37 1.258 . S
C36 O38 1.263 . S
O37 Co34 1.970 . S
O37 C36 1.258 . S
O38 Co35 1.966 . S
O38 C36 1.263 . S
C39 O40 1.235 . S
C39 O66 1.289 . S
O40 C39 1.235 . S
C41 C43 1.400 . S
C41 N44 1.351 . S
C41 C46 1.501 . S
C42 C43 1.387 . S
C42 N45 1.341 . S
C43 C41 1.400 . S
C43 C42 1.387 . S
N44 Co35 2.022 . S
N44 C41 1.351 . S
N44 N45 1.365 . S
N45 C42 1.341 . S
N45 N44 1.365 . S
N45 H65 0.862 . S
C46 C41 1.501 . S
C46 H47 0.961 . S
C46 H48 0.961 . S
C46 H49 0.960 . S
H47 C46 0.961 . S
H48 C46 0.961 . S
H49 C46 0.960 . S
C50 N51 1.342 . S
C50 C54 1.401 . S
C50 C55 1.499 . S
N51 Co34 1.989 . S
N51 C50 1.342 . S
N51 N52 1.388 . S
N52 Co35 1.993 . S
N52 N51 1.388 . S
N52 C53 1.346 . S
C53 N52 1.346 . S
C53 C54 1.396 . S
C53 C63 1.510 . S
C54 C50 1.401 . S
C54 C53 1.396 . S
C55 C50 1.499 . S
C55 H56 0.959 . S
C55 H57 0.960 . S
C55 H58 0.961 . S
H56 C55 0.959 . S
H57 C55 0.960 . S
H58 C55 0.961 . S
O59 Co34 1.967 . S
O59 C67 1.258 . S
O60 Co35 1.941 . S
O60 C67 1.266 . S
H61 C63 0.959 . S
H62 C63 0.961 . S
C63 C53 1.510 . S
C63 H61 0.959 . S
C63 H62 0.961 . S
C63 H64 0.960 . S
H64 C63 0.960 . S
H65 N45 0.862 . S
O66 Co34 1.920 . S
O66 C39 1.289 . S
C67 O59 1.258 . S
C67 O60 1.266 . S
Co68 O71 1.970 . S
Co68 N85 1.989 . S
Co68 O93 1.967 . S
Co68 O100 1.920 . S
Co69 O72 1.966 . S
Co69 N78 2.022 . S
Co69 N86 1.993 . S
Co69 O94 1.941 . S
C70 O71 1.258 . S
C70 O72 1.263 . S
O71 Co68 1.970 . S
O71 C70 1.258 . S
O72 Co69 1.966 . S
O72 C70 1.263 . S
C73 O74 1.235 . S
C73 O100 1.289 . S
O74 C73 1.235 . S
C75 C77 1.400 . S
C75 N78 1.351 . S
C75 C80 1.501 . S
C76 C77 1.387 . S
C76 N79 1.341 . S
C77 C75 1.400 . S
C77 C76 1.387 . S
N78 Co69 2.022 . S
N78 C75 1.351 . S
N78 N79 1.365 . S
N79 C76 1.341 . S
N79 N78 1.365 . S
N79 H99 0.862 . S
C80 C75 1.501 . S
C80 H81 0.961 . S
C80 H82 0.961 . S
C80 H83 0.960 . S
H81 C80 0.961 . S
H82 C80 0.961 . S
H83 C80 0.960 . S
C84 N85 1.342 . S
C84 C88 1.401 . S
C84 C89 1.499 . S
N85 Co68 1.989 . S
N85 C84 1.342 . S
N85 N86 1.388 . S
N86 Co69 1.993 . S
N86 N85 1.388 . S
N86 C87 1.346 . S
C87 N86 1.346 . S
C87 C88 1.396 . S
C87 C97 1.510 . S
C88 C84 1.401 . S
C88 C87 1.396 . S
C89 C84 1.499 . S
C89 H90 0.959 . S
C89 H91 0.960 . S
C89 H92 0.961 . S
H90 C89 0.959 . S
H91 C89 0.960 . S
H92 C89 0.961 . S
O93 Co68 1.967 . S
O93 C101 1.258 . S
O94 Co69 1.941 . S
O94 C101 1.266 . S
H95 C97 0.959 . S
H96 C97 0.961 . S
C97 C87 1.510 . S
C97 H95 0.959 . S
C97 H96 0.961 . S
C97 H98 0.960 . S
H98 C97 0.960 . S
H99 N79 0.862 . S
O100 Co68 1.920 . S
O100 C73 1.289 . S
C101 O93 1.258 . S
C101 O94 1.266 . S
Co102 O105 1.970 . S
Co102 N119 1.989 . S
Co102 O127 1.967 . S
Co102 O134 1.920 . S
Co103 O106 1.966 . S
Co103 N112 2.022 . S
Co103 N120 1.993 . S
Co103 O128 1.941 . S
C104 O105 1.258 . S
C104 O106 1.263 . S
O105 Co102 1.970 . S
O105 C104 1.258 . S
O106 Co103 1.966 . S
O106 C104 1.263 . S
C107 O108 1.235 . S
C107 O134 1.289 . S
O108 C107 1.235 . S
C109 C111 1.400 . S
C109 N112 1.351 . S
C109 C114 1.501 . S
C110 C111 1.387 . S
C110 N113 1.341 . S
C111 C109 1.400 . S
C111 C110 1.387 . S
N112 Co103 2.022 . S
N112 C109 1.351 . S
N112 N113 1.365 . S
N113 C110 1.341 . S
N113 N112 1.365 . S
N113 H133 0.862 . S
C114 C109 1.501 . S
C114 H115 0.961 . S
C114 H116 0.961 . S
C114 H117 0.960 . S
H115 C114 0.961 . S
H116 C114 0.961 . S
H117 C114 0.960 . S
C118 N119 1.342 . S
C118 C122 1.401 . S
C118 C123 1.499 . S
N119 Co102 1.989 . S
N119 C118 1.342 . S
N119 N120 1.388 . S
N120 Co103 1.993 . S
N120 N119 1.388 . S
N120 C121 1.346 . S
C121 N120 1.346 . S
C121 C122 1.396 . S
C121 C131 1.510 . S
C122 C118 1.401 . S
C122 C121 1.396 . S
C123 C118 1.499 . S
C123 H124 0.959 . S
C123 H125 0.960 . S
C123 H126 0.961 . S
H124 C123 0.959 . S
H125 C123 0.960 . S
H126 C123 0.961 . S
O127 Co102 1.967 . S
O127 C135 1.258 . S
O128 Co103 1.941 . S
O128 C135 1.266 . S
H129 C131 0.959 . S
H130 C131 0.961 . S
C131 C121 1.510 . S
C131 H129 0.959 . S
C131 H130 0.961 . S
C131 H132 0.960 . S
H132 C131 0.960 . S
H133 N113 0.862 . S
O134 Co102 1.920 . S
O134 C107 1.289 . S
C135 O127 1.258 . S
C135 O128 1.266 . S
Co136 O139 1.970 . S
Co136 N153 1.989 . S
Co136 O161 1.967 . S
Co136 O168 1.920 . S
Co137 O140 1.966 . S
Co137 N146 2.022 . S
Co137 N154 1.993 . S
Co137 O162 1.941 . S
C138 O139 1.258 . S
C138 O140 1.263 . S
O139 Co136 1.970 . S
O139 C138 1.258 . S
O140 Co137 1.966 . S
O140 C138 1.263 . S
C141 O142 1.235 . S
C141 O168 1.289 . S
O142 C141 1.235 . S
C143 C145 1.400 . S
C143 N146 1.351 . S
C143 C148 1.501 . S
C144 C145 1.387 . S
C144 N147 1.341 . S
C145 C143 1.400 . S
C145 C144 1.387 . S
N146 Co137 2.022 . S
N146 C143 1.351 . S
N146 N147 1.365 . S
N147 C144 1.341 . S
N147 N146 1.365 . S
N147 H167 0.862 . S
C148 C143 1.501 . S
C148 H149 0.961 . S
C148 H150 0.961 . S
C148 H151 0.960 . S
H149 C148 0.961 . S
H150 C148 0.961 . S
H151 C148 0.960 . S
C152 N153 1.342 . S
C152 C156 1.401 . S
C152 C157 1.499 . S
N153 Co136 1.989 . S
N153 C152 1.342 . S
N153 N154 1.388 . S
N154 Co137 1.993 . S
N154 N153 1.388 . S
N154 C155 1.346 . S
C155 N154 1.346 . S
C155 C156 1.396 . S
C155 C165 1.510 . S
C156 C152 1.401 . S
C156 C155 1.396 . S
C157 C152 1.499 . S
C157 H158 0.959 . S
C157 H159 0.960 . S
C157 H160 0.961 . S
H158 C157 0.959 . S
H159 C157 0.960 . S
H160 C157 0.961 . S
O161 Co136 1.967 . S
O161 C169 1.258 . S
O162 Co137 1.941 . S
O162 C169 1.266 . S
H163 C165 0.959 . S
H164 C165 0.961 . S
C165 C155 1.510 . S
C165 H163 0.959 . S
C165 H164 0.961 . S
C165 H166 0.960 . S
H166 C165 0.960 . S
H167 N147 0.862 . S
O168 Co136 1.920 . S
O168 C141 1.289 . S
C169 O161 1.258 . S
C169 O162 1.266 . S
Co170 O173 1.970 . S
Co170 N187 1.989 . S
Co170 O195 1.967 . S
Co170 O202 1.920 . S
Co171 O174 1.966 . S
Co171 N180 2.022 . S
Co171 N188 1.993 . S
Co171 O196 1.941 . S
C172 O173 1.258 . S
C172 O174 1.263 . S
O173 Co170 1.970 . S
O173 C172 1.258 . S
O174 Co171 1.966 . S
O174 C172 1.263 . S
C175 O176 1.235 . S
C175 O202 1.289 . S
O176 C175 1.235 . S
C177 C179 1.400 . S
C177 N180 1.351 . S
C177 C182 1.501 . S
C178 C179 1.387 . S
C178 N181 1.341 . S
C179 C177 1.400 . S
C179 C178 1.387 . S
N180 Co171 2.022 . S
N180 C177 1.351 . S
N180 N181 1.365 . S
N181 C178 1.341 . S
N181 N180 1.365 . S
N181 H201 0.862 . S
C182 C177 1.501 . S
C182 H183 0.961 . S
C182 H184 0.961 . S
C182 H185 0.960 . S
H183 C182 0.961 . S
H184 C182 0.961 . S
H185 C182 0.960 . S
C186 N187 1.342 . S
C186 C190 1.401 . S
C186 C191 1.499 . S
N187 Co170 1.989 . S
N187 C186 1.342 . S
N187 N188 1.388 . S
N188 Co171 1.993 . S
N188 N187 1.388 . S
N188 C189 1.346 . S
C189 N188 1.346 . S
C189 C190 1.396 . S
C189 C199 1.510 . S
C190 C186 1.401 . S
C190 C189 1.396 . S
C191 C186 1.499 . S
C191 H192 0.959 . S
C191 H193 0.960 . S
C191 H194 0.961 . S
H192 C191 0.959 . S
H193 C191 0.960 . S
H194 C191 0.961 . S
O195 Co170 1.967 . S
O195 C203 1.258 . S
O196 Co171 1.941 . S
O196 C203 1.266 . S
H197 C199 0.959 . S
H198 C199 0.961 . S
C199 C189 1.510 . S
C199 H197 0.959 . S
C199 H198 0.961 . S
C199 H200 0.960 . S
H200 C199 0.960 . S
H201 N181 0.862 . S
O202 Co170 1.920 . S
O202 C175 1.289 . S
C203 O195 1.258 . S
C203 O196 1.266 . S
Co204 O207 1.970 . S
Co204 N221 1.989 . S
Co204 O229 1.967 . S
Co204 O236 1.920 . S
Co205 O208 1.966 . S
Co205 N214 2.022 . S
Co205 N222 1.993 . S
Co205 O230 1.941 . S
C206 O207 1.258 . S
C206 O208 1.263 . S
O207 Co204 1.970 . S
O207 C206 1.258 . S
O208 Co205 1.966 . S
O208 C206 1.263 . S
C209 O210 1.235 . S
C209 O236 1.289 . S
O210 C209 1.235 . S
C211 C213 1.400 . S
C211 N214 1.351 . S
C211 C216 1.501 . S
C212 C213 1.387 . S
C212 N215 1.341 . S
C213 C211 1.400 . S
C213 C212 1.387 . S
N214 Co205 2.022 . S
N214 C211 1.351 . S
N214 N215 1.365 . S
N215 C212 1.341 . S
N215 N214 1.365 . S
N215 H235 0.862 . S
C216 C211 1.501 . S
C216 H217 0.961 . S
C216 H218 0.961 . S
C216 H219 0.960 . S
H217 C216 0.961 . S
H218 C216 0.961 . S
H219 C216 0.960 . S
C220 N221 1.342 . S
C220 C224 1.401 . S
C220 C225 1.499 . S
N221 Co204 1.989 . S
N221 C220 1.342 . S
N221 N222 1.388 . S
N222 Co205 1.993 . S
N222 N221 1.388 . S
N222 C223 1.346 . S
C223 N222 1.346 . S
C223 C224 1.396 . S
C223 C233 1.510 . S
C224 C220 1.401 . S
C224 C223 1.396 . S
C225 C220 1.499 . S
C225 H226 0.959 . S
C225 H227 0.960 . S
C225 H228 0.961 . S
H226 C225 0.959 . S
H227 C225 0.960 . S
H228 C225 0.961 . S
O229 Co204 1.967 . S
O229 C237 1.258 . S
O230 Co205 1.941 . S
O230 C237 1.266 . S
H231 C233 0.959 . S
H232 C233 0.961 . S
C233 C223 1.510 . S
C233 H231 0.959 . S
C233 H232 0.961 . S
C233 H234 0.960 . S
H234 C233 0.960 . S
H235 N215 0.862 . S
O236 Co204 1.920 . S
O236 C209 1.289 . S
C237 O229 1.258 . S
C237 O230 1.266 . S
Co238 O241 1.970 . S
Co238 N255 1.989 . S
Co238 O263 1.967 . S
Co238 O270 1.920 . S
Co239 O242 1.966 . S
Co239 N248 2.022 . S
Co239 N256 1.993 . S
Co239 O264 1.941 . S
C240 O241 1.258 . S
C240 O242 1.263 . S
O241 Co238 1.970 . S
O241 C240 1.258 . S
O242 Co239 1.966 . S
O242 C240 1.263 . S
C243 O244 1.235 . S
C243 O270 1.289 . S
O244 C243 1.235 . S
C245 C247 1.400 . S
C245 N248 1.351 . S
C245 C250 1.501 . S
C246 C247 1.387 . S
C246 N249 1.341 . S
C247 C245 1.400 . S
C247 C246 1.387 . S
N248 Co239 2.022 . S
N248 C245 1.351 . S
N248 N249 1.365 . S
N249 C246 1.341 . S
N249 N248 1.365 . S
N249 H269 0.862 . S
C250 C245 1.501 . S
C250 H251 0.961 . S
C250 H252 0.961 . S
C250 H253 0.960 . S
H251 C250 0.961 . S
H252 C250 0.961 . S
H253 C250 0.960 . S
C254 N255 1.342 . S
C254 C258 1.401 . S
C254 C259 1.499 . S
N255 Co238 1.989 . S
N255 C254 1.342 . S
N255 N256 1.388 . S
N256 Co239 1.993 . S
N256 N255 1.388 . S
N256 C257 1.346 . S
C257 N256 1.346 . S
C257 C258 1.396 . S
C257 C267 1.510 . S
C258 C254 1.401 . S
C258 C257 1.396 . S
C259 C254 1.499 . S
C259 H260 0.959 . S
C259 H261 0.960 . S
C259 H262 0.961 . S
H260 C259 0.959 . S
H261 C259 0.960 . S
H262 C259 0.961 . S
O263 Co238 1.967 . S
O263 C271 1.258 . S
O264 Co239 1.941 . S
O264 C271 1.266 . S
H265 C267 0.959 . S
H266 C267 0.961 . S
C267 C257 1.510 . S
C267 H265 0.959 . S
C267 H266 0.961 . S
C267 H268 0.960 . S
H268 C267 0.960 . S
H269 N249 0.862 . S
O270 Co238 1.920 . S
O270 C243 1.289 . S
C271 O263 1.258 . S
C271 O264 1.266 . S
Co272 O275 1.970 . S
Co272 N289 1.989 . S
Co272 O297 1.967 . S
Co272 O304 1.920 . S
Co273 O276 1.966 . S
Co273 N282 2.022 . S
Co273 N290 1.993 . S
Co273 O298 1.941 . S
C274 O275 1.258 . S
C274 O276 1.263 . S
O275 Co272 1.970 . S
O275 C274 1.258 . S
O276 Co273 1.966 . S
O276 C274 1.263 . S
C277 O278 1.235 . S
C277 O304 1.289 . S
O278 C277 1.235 . S
C279 C281 1.400 . S
C279 N282 1.351 . S
C279 C284 1.501 . S
C280 C281 1.387 . S
C280 N283 1.341 . S
C281 C279 1.400 . S
C281 C280 1.387 . S
N282 Co273 2.022 . S
N282 C279 1.351 . S
N282 N283 1.365 . S
N283 C280 1.341 . S
N283 N282 1.365 . S
N283 H303 0.862 . S
C284 C279 1.501 . S
C284 H285 0.961 . S
C284 H286 0.961 . S
C284 H287 0.960 . S
H285 C284 0.961 . S
H286 C284 0.961 . S
H287 C284 0.960 . S
C288 N289 1.342 . S
C288 C292 1.401 . S
C288 C293 1.499 . S
N289 Co272 1.989 . S
N289 C288 1.342 . S
N289 N290 1.388 . S
N290 Co273 1.993 . S
N290 N289 1.388 . S
N290 C291 1.346 . S
C291 N290 1.346 . S
C291 C292 1.396 . S
C291 C301 1.510 . S
C292 C288 1.401 . S
C292 C291 1.396 . S
C293 C288 1.499 . S
C293 H294 0.959 . S
C293 H295 0.960 . S
C293 H296 0.961 . S
H294 C293 0.959 . S
H295 C293 0.960 . S
H296 C293 0.961 . S
O297 Co272 1.967 . S
O297 C305 1.258 . S
O298 Co273 1.941 . S
O298 C305 1.266 . S
H299 C301 0.959 . S
H300 C301 0.961 . S
C301 C291 1.510 . S
C301 H299 0.959 . S
C301 H300 0.961 . S
C301 H302 0.960 . S
H302 C301 0.960 . S
H303 N283 0.862 . S
O304 Co272 1.920 . S
O304 C277 1.289 . S
C305 O297 1.258 . S
C305 O298 1.266 . S
Co306 O309 1.970 . S
Co306 N323 1.989 . S
Co306 O331 1.967 . S
Co306 O338 1.920 . S
Co307 O310 1.966 . S
Co307 N316 2.022 . S
Co307 N324 1.993 . S
Co307 O332 1.941 . S
C308 O309 1.258 . S
C308 O310 1.263 . S
O309 Co306 1.970 . S
O309 C308 1.258 . S
O310 Co307 1.966 . S
O310 C308 1.263 . S
C311 O312 1.235 . S
C311 O338 1.289 . S
O312 C311 1.235 . S
C313 C315 1.400 . S
C313 N316 1.351 . S
C313 C318 1.501 . S
C314 C315 1.387 . S
C314 N317 1.341 . S
C315 C313 1.400 . S
C315 C314 1.387 . S
N316 Co307 2.022 . S
N316 C313 1.351 . S
N316 N317 1.365 . S
N317 C314 1.341 . S
N317 N316 1.365 . S
N317 H337 0.862 . S
C318 C313 1.501 . S
C318 H319 0.961 . S
C318 H320 0.961 . S
C318 H321 0.960 . S
H319 C318 0.961 . S
H320 C318 0.961 . S
H321 C318 0.960 . S
C322 N323 1.342 . S
C322 C326 1.401 . S
C322 C327 1.499 . S
N323 Co306 1.989 . S
N323 C322 1.342 . S
N323 N324 1.388 . S
N324 Co307 1.993 . S
N324 N323 1.388 . S
N324 C325 1.346 . S
C325 N324 1.346 . S
C325 C326 1.396 . S
C325 C335 1.510 . S
C326 C322 1.401 . S
C326 C325 1.396 . S
C327 C322 1.499 . S
C327 H328 0.959 . S
C327 H329 0.960 . S
C327 H330 0.961 . S
H328 C327 0.959 . S
H329 C327 0.960 . S
H330 C327 0.961 . S
O331 Co306 1.967 . S
O331 C339 1.258 . S
O332 Co307 1.941 . S
O332 C339 1.266 . S
H333 C335 0.959 . S
H334 C335 0.961 . S
C335 C325 1.510 . S
C335 H333 0.959 . S
C335 H334 0.961 . S
C335 H336 0.960 . S
H336 C335 0.960 . S
H337 N317 0.862 . S
O338 Co306 1.920 . S
O338 C311 1.289 . S
C339 O331 1.258 . S
C339 O332 1.266 . S
Co340 O343 1.970 . S
Co340 N357 1.989 . S
Co340 O365 1.967 . S
Co340 O372 1.920 . S
Co341 O344 1.966 . S
Co341 N350 2.022 . S
Co341 N358 1.993 . S
Co341 O366 1.941 . S
C342 O343 1.258 . S
C342 O344 1.263 . S
O343 Co340 1.970 . S
O343 C342 1.258 . S
O344 Co341 1.966 . S
O344 C342 1.263 . S
C345 O346 1.235 . S
C345 O372 1.289 . S
O346 C345 1.235 . S
C347 C349 1.400 . S
C347 N350 1.351 . S
C347 C352 1.501 . S
C348 C349 1.387 . S
C348 N351 1.341 . S
C349 C347 1.400 . S
C349 C348 1.387 . S
N350 Co341 2.022 . S
N350 C347 1.351 . S
N350 N351 1.365 . S
N351 C348 1.341 . S
N351 N350 1.365 . S
N351 H371 0.862 . S
C352 C347 1.501 . S
C352 H353 0.961 . S
C352 H354 0.961 . S
C352 H355 0.960 . S
H353 C352 0.961 . S
H354 C352 0.961 . S
H355 C352 0.960 . S
C356 N357 1.342 . S
C356 C360 1.401 . S
C356 C361 1.499 . S
N357 Co340 1.989 . S
N357 C356 1.342 . S
N357 N358 1.388 . S
N358 Co341 1.993 . S
N358 N357 1.388 . S
N358 C359 1.346 . S
C359 N358 1.346 . S
C359 C360 1.396 . S
C359 C369 1.510 . S
C360 C356 1.401 . S
C360 C359 1.396 . S
C361 C356 1.499 . S
C361 H362 0.959 . S
C361 H363 0.960 . S
C361 H364 0.961 . S
H362 C361 0.959 . S
H363 C361 0.960 . S
H364 C361 0.961 . S
O365 Co340 1.967 . S
O365 C373 1.258 . S
O366 Co341 1.941 . S
O366 C373 1.266 . S
H367 C369 0.959 . S
H368 C369 0.961 . S
C369 C359 1.510 . S
C369 H367 0.959 . S
C369 H368 0.961 . S
C369 H370 0.960 . S
H370 C369 0.960 . S
H371 N351 0.862 . S
O372 Co340 1.920 . S
O372 C345 1.289 . S
C373 O365 1.258 . S
C373 O366 1.266 . S
Co374 O377 1.970 . S
Co374 N391 1.989 . S
Co374 O399 1.967 . S
Co374 O406 1.920 . S
Co375 O378 1.966 . S
Co375 N384 2.022 . S
Co375 N392 1.993 . S
Co375 O400 1.941 . S
C376 O377 1.258 . S
C376 O378 1.263 . S
O377 Co374 1.970 . S
O377 C376 1.258 . S
O378 Co375 1.966 . S
O378 C376 1.263 . S
C379 O380 1.235 . S
C379 O406 1.289 . S
O380 C379 1.235 . S
C381 C383 1.400 . S
C381 N384 1.351 . S
C381 C386 1.501 . S
C382 C383 1.387 . S
C382 N385 1.341 . S
C383 C381 1.400 . S
C383 C382 1.387 . S
N384 Co375 2.022 . S
N384 C381 1.351 . S
N384 N385 1.365 . S
N385 C382 1.341 . S
N385 N384 1.365 . S
N385 H405 0.862 . S
C386 C381 1.501 . S
C386 H387 0.961 . S
C386 H388 0.961 . S
C386 H389 0.960 . S
H387 C386 0.961 . S
H388 C386 0.961 . S
H389 C386 0.960 . S
C390 N391 1.342 . S
C390 C394 1.401 . S
C390 C395 1.499 . S
N391 Co374 1.989 . S
N391 C390 1.342 . S
N391 N392 1.388 . S
N392 Co375 1.993 . S
N392 N391 1.388 . S
N392 C393 1.346 . S
C393 N392 1.346 . S
C393 C394 1.396 . S
C393 C403 1.510 . S
C394 C390 1.401 . S
C394 C393 1.396 . S
C395 C390 1.499 . S
C395 H396 0.959 . S
C395 H397 0.960 . S
C395 H398 0.961 . S
H396 C395 0.959 . S
H397 C395 0.960 . S
H398 C395 0.961 . S
O399 Co374 1.967 . S
O399 C407 1.258 . S
O400 Co375 1.941 . S
O400 C407 1.266 . S
H401 C403 0.959 . S
H402 C403 0.961 . S
C403 C393 1.510 . S
C403 H401 0.959 . S
C403 H402 0.961 . S
C403 H404 0.960 . S
H404 C403 0.960 . S
H405 N385 0.862 . S
O406 Co374 1.920 . S
O406 C379 1.289 . S
C407 O399 1.258 . S
C407 O400 1.266 . S
C408 C409 1.349 . S
C408 C410 1.327 . S
C408 H433 0.950 . S
C409 C408 1.349 . S
C409 C425 1.349 . S
C410 C408 1.327 . S
C410 C429 1.429 . S
C410 H434 0.950 . S
C411 C428 1.574 . S
C411 C430 1.368 . S
C411 H435 0.949 . S
H412 C416 0.949 . S
C413 C414 1.349 . S
C413 C415 1.327 . S
C413 H436 0.950 . S
C414 C413 1.349 . S
C414 C426 1.349 . S
C415 C413 1.327 . S
C415 C431 1.429 . S
C415 H437 0.950 . S
C416 H412 0.949 . S
C416 C424 1.574 . S
C416 C432 1.368 . S
H417 C425 0.950 . S
H418 C423 0.950 . S
H419 C424 0.949 . S
H420 C426 0.950 . S
H421 C427 0.950 . S
H422 C428 0.949 . S
C423 H418 0.950 . S
C423 C425 1.327 . S
C423 C429 1.429 . S
C424 C416 1.574 . S
C424 H419 0.949 . S
C424 C430 1.368 . S
C425 C409 1.349 . S
C425 H417 0.950 . S
C425 C423 1.327 . S
C426 C414 1.349 . S
C426 H420 0.950 . S
C426 C427 1.327 . S
C427 H421 0.950 . S
C427 C426 1.327 . S
C427 C431 1.429 . S
C428 C411 1.574 . S
C428 H422 0.949 . S
C428 C432 1.368 . S
C429 C410 1.429 . S
C429 C423 1.429 . S
C429 C430 1.523 . S
C430 C411 1.368 . S
C430 C424 1.368 . S
C430 C429 1.523 . S
C431 C415 1.429 . S
C431 C427 1.429 . S
C431 C432 1.523 . S
C432 C416 1.368 . S
C432 C428 1.368 . S
C432 C431 1.523 . S
H433 C408 0.950 . S
H434 C410 0.950 . S
H435 C411 0.949 . S
H436 C413 0.950 . S
H437 C415 0.950 . S
C438 C439 1.349 . S
C438 C440 1.327 . S
C438 H463 0.950 . S
C439 C438 1.349 . S
C439 C455 1.349 . S
C440 C438 1.327 . S
C440 C459 1.429 . S
C440 H464 0.950 . S
C441 C458 1.574 . S
C441 C460 1.368 1_655 S
C441 H465 0.949 . S
H442 C446 0.949 . S
C443 C444 1.349 . S
C443 C445 1.327 . S
C443 H466 0.950 . S
C444 C443 1.349 . S
C444 C456 1.349 . S
C445 C443 1.327 . S
C445 C461 1.429 . S
C445 H467 0.950 . S
C446 H442 0.949 . S
C446 C454 1.574 . S
C446 C462 1.368 1_455 S
H447 C455 0.950 . S
H448 C453 0.950 . S
H449 C454 0.949 . S
H450 C456 0.950 . S
H451 C457 0.950 . S
H452 C458 0.949 . S
C453 H448 0.950 . S
C453 C455 1.327 . S
C453 C459 1.429 . S
C454 C446 1.574 . S
C454 H449 0.949 . S
C454 C460 1.368 . S
C455 C439 1.349 . S
C455 H447 0.950 . S
C455 C453 1.327 . S
C456 C444 1.349 . S
C456 H450 0.950 . S
C456 C457 1.327 . S
C457 H451 0.950 . S
C457 C456 1.327 . S
C457 C461 1.429 . S
C458 C441 1.574 . S
C458 H452 0.949 . S
C458 C462 1.368 . S
C459 C440 1.429 . S
C459 C453 1.429 . S
C459 C460 1.523 . S
C460 C441 1.368 1_455 S
C460 C454 1.368 . S
C460 C459 1.523 . S
C461 C445 1.429 . S
C461 C457 1.429 . S
C461 C462 1.523 . S
C462 C446 1.368 1_655 S
C462 C458 1.368 . S
C462 C461 1.523 . S
H463 C438 0.950 . S
H464 C440 0.950 . S
H465 C441 0.949 . S
H466 C443 0.950 . S
H467 C445 0.950 . S
C468 C469 1.349 . S
C468 C470 1.327 . S
C468 H493 0.950 . S
C469 C468 1.349 . S
C469 C485 1.349 . S
C470 C468 1.327 . S
C470 C489 1.429 . S
C470 H494 0.950 . S
C471 C488 1.574 . S
C471 C490 1.368 . S
C471 H495 0.949 . S
H472 C476 0.949 . S
C473 C474 1.349 . S
C473 C475 1.327 . S
C473 H496 0.950 . S
C474 C473 1.349 . S
C474 C486 1.349 . S
C475 C473 1.327 . S
C475 C491 1.429 . S
C475 H497 0.950 . S
C476 H472 0.949 . S
C476 C484 1.574 . S
C476 C492 1.368 . S
H477 C485 0.950 . S
H478 C483 0.950 . S
H479 C484 0.949 . S
H480 C486 0.950 . S
H481 C487 0.950 . S
H482 C488 0.949 . S
C483 H478 0.950 . S
C483 C485 1.327 . S
C483 C489 1.429 . S
C484 C476 1.574 . S
C484 H479 0.949 . S
C484 C490 1.368 1_565 S
C485 C469 1.349 . S
C485 H477 0.950 . S
C485 C483 1.327 . S
C486 C474 1.349 . S
C486 H480 0.950 . S
C486 C487 1.327 . S
C487 H481 0.950 . S
C487 C486 1.327 . S
C487 C491 1.429 . S
C488 C471 1.574 . S
C488 H482 0.949 . S
C488 C492 1.368 1_545 S
C489 C470 1.429 . S
C489 C483 1.429 . S
C489 C490 1.523 . S
C490 C471 1.368 . S
C490 C484 1.368 1_545 S
C490 C489 1.523 . S
C491 C475 1.429 . S
C491 C487 1.429 . S
C491 C492 1.523 . S
C492 C476 1.368 . S
C492 C488 1.368 1_565 S
C492 C491 1.523 . S
H493 C468 0.950 . S
H494 C470 0.950 . S
H495 C471 0.949 . S
H496 C473 0.950 . S
H497 C475 0.950 . S
C498 C499 1.349 . S
C498 C500 1.327 . S
C498 H523 0.950 . S
C499 C498 1.349 . S
C499 C515 1.349 . S
C500 C498 1.327 . S
C500 C519 1.429 . S
C500 H524 0.950 . S
C501 C518 1.574 . S
C501 C520 1.368 . S
C501 H525 0.949 . S
H502 C506 0.949 . S
C503 C504 1.349 . S
C503 C505 1.327 . S
C503 H526 0.950 . S
C504 C503 1.349 . S
C504 C516 1.349 . S
C505 C503 1.327 . S
C505 C521 1.429 . S
C505 H527 0.950 . S
C506 H502 0.949 . S
C506 C514 1.574 . S
C506 C522 1.368 . S
H507 C515 0.950 . S
H508 C513 0.950 . S
H509 C514 0.949 . S
H510 C516 0.950 . S
H511 C517 0.950 . S
H512 C518 0.949 . S
C513 H508 0.950 . S
C513 C515 1.327 . S
C513 C519 1.429 . S
C514 C506 1.574 . S
C514 H509 0.949 . S
C514 C520 1.368 . S
C515 C499 1.349 . S
C515 H507 0.950 . S
C515 C513 1.327 . S
C516 C504 1.349 . S
C516 H510 0.950 . S
C516 C517 1.327 . S
C517 H511 0.950 . S
C517 C516 1.327 . S
C517 C521 1.429 . S
C518 C501 1.574 . S
C518 H512 0.949 . S
C518 C522 1.368 . S
C519 C500 1.429 . S
C519 C513 1.429 . S
C519 C520 1.523 . S
C520 C501 1.368 . S
C520 C514 1.368 . S
C520 C519 1.523 . S
C521 C505 1.429 . S
C521 C517 1.429 . S
C521 C522 1.523 . S
C522 C506 1.368 . S
C522 C518 1.368 . S
C522 C521 1.523 . S
H523 C498 0.950 . S
H524 C500 0.950 . S
H525 C501 0.949 . S
H526 C503 0.950 . S
H527 C505 0.950 . S
C528 C529 1.349 . S
C528 C530 1.327 . S
C528 H553 0.950 . S
C529 C528 1.349 . S
C529 C545 1.349 . S
C530 C528 1.327 . S
C530 C549 1.429 . S
C530 H554 0.950 . S
C531 C548 1.574 . S
C531 C550 1.368 . S
C531 H555 0.949 . S
H532 C536 0.949 . S
C533 C534 1.349 . S
C533 C535 1.327 . S
C533 H556 0.950 . S
C534 C533 1.349 . S
C534 C546 1.349 . S
C535 C533 1.327 . S
C535 C551 1.429 . S
C535 H557 0.950 . S
C536 H532 0.949 . S
C536 C544 1.574 . S
C536 C552 1.368 . S
H537 C545 0.950 . S
H538 C543 0.950 . S
H539 C544 0.949 . S
H540 C546 0.950 . S
H541 C547 0.950 . S
H542 C548 0.949 . S
C543 H538 0.950 . S
C543 C545 1.327 . S
C543 C549 1.429 . S
C544 C536 1.574 . S
C544 H539 0.949 . S
C544 C550 1.368 1_455 S
C545 C529 1.349 . S
C545 H537 0.950 . S
C545 C543 1.327 . S
C546 C534 1.349 . S
C546 H540 0.950 . S
C546 C547 1.327 . S
C547 H541 0.950 . S
C547 C546 1.327 . S
C547 C551 1.429 . S
C548 C531 1.574 . S
C548 H542 0.949 . S
C548 C552 1.368 1_655 S
C549 C530 1.429 . S
C549 C543 1.429 . S
C549 C550 1.523 . S
C550 C531 1.368 . S
C550 C544 1.368 1_655 S
C550 C549 1.523 . S
C551 C535 1.429 . S
C551 C547 1.429 . S
C551 C552 1.523 . S
C552 C536 1.368 . S
C552 C548 1.368 1_455 S
C552 C551 1.523 . S
H553 C528 0.950 . S
H554 C530 0.950 . S
H555 C531 0.949 . S
H556 C533 0.950 . S
H557 C535 0.950 . S
C558 C559 1.349 . S
C558 C560 1.327 . S
C558 H583 0.950 . S
C559 C558 1.349 . S
C559 C575 1.349 . S
C560 C558 1.327 . S
C560 C579 1.429 . S
C560 H584 0.950 . S
C561 C578 1.574 . S
C561 C580 1.368 1_545 S
C561 H585 0.949 . S
H562 C566 0.949 . S
C563 C564 1.349 . S
C563 C565 1.327 . S
C563 H586 0.950 . S
C564 C563 1.349 . S
C564 C576 1.349 . S
C565 C563 1.327 . S
C565 C581 1.429 . S
C565 H587 0.950 . S
C566 H562 0.949 . S
C566 C574 1.574 . S
C566 C582 1.368 1_565 S
H567 C575 0.950 . S
H568 C573 0.950 . S
H569 C574 0.949 . S
H570 C576 0.950 . S
H571 C577 0.950 . S
H572 C578 0.949 . S
C573 H568 0.950 . S
C573 C575 1.327 . S
C573 C579 1.429 . S
C574 C566 1.574 . S
C574 H569 0.949 . S
C574 C580 1.368 . S
C575 C559 1.349 . S
C575 H567 0.950 . S
C575 C573 1.327 . S
C576 C564 1.349 . S
C576 H570 0.950 . S
C576 C577 1.327 . S
C577 H571 0.950 . S
C577 C576 1.327 . S
C577 C581 1.429 . S
C578 C561 1.574 . S
C578 H572 0.949 . S
C578 C582 1.368 . S
C579 C560 1.429 . S
C579 C573 1.429 . S
C579 C580 1.523 . S
C580 C561 1.368 1_565 S
C580 C574 1.368 . S
C580 C579 1.523 . S
C581 C565 1.429 . S
C581 C577 1.429 . S
C581 C582 1.523 . S
C582 C566 1.368 1_545 S
C582 C578 1.368 . S
C582 C581 1.523 . S
H583 C558 0.950 . S
H584 C560 0.950 . S
H585 C561 0.949 . S
H586 C563 0.950 . S
H587 C565 0.950 . S
C588 C589 1.349 . S
C588 C590 1.327 . S
C588 H613 0.950 . S
C589 C588 1.349 . S
C589 C605 1.349 . S
C590 C588 1.327 . S
C590 C609 1.429 . S
C590 H614 0.950 . S
C591 C608 1.574 . S
C591 C610 1.368 1_545 S
C591 H615 0.949 . S
H592 C596 0.949 . S
C593 C594 1.349 . S
C593 C595 1.327 . S
C593 H616 0.950 . S
C594 C593 1.349 . S
C594 C606 1.349 . S
C595 C593 1.327 . S
C595 C611 1.429 . S
C595 H617 0.950 . S
C596 H592 0.949 . S
C596 C604 1.574 . S
C596 C612 1.368 1_565 S
H597 C605 0.950 . S
H598 C603 0.950 . S
H599 C604 0.949 . S
H600 C606 0.950 . S
H601 C607 0.950 . S
H602 C608 0.949 . S
C603 H598 0.950 . S
C603 C605 1.327 . S
C603 C609 1.429 . S
C604 C596 1.574 . S
C604 H599 0.949 . S
C604 C610 1.368 1_554 S
C605 C589 1.349 . S
C605 H597 0.950 . S
C605 C603 1.327 . S
C606 C594 1.349 . S
C606 H600 0.950 . S
C606 C607 1.327 . S
C607 H601 0.950 . S
C607 C606 1.327 . S
C607 C611 1.429 . S
C608 C591 1.574 . S
C608 H602 0.949 . S
C608 C612 1.368 1_556 S
C609 C590 1.429 . S
C609 C603 1.429 . S
C609 C610 1.523 . S
C610 C591 1.368 1_565 S
C610 C604 1.368 1_556 S
C610 C609 1.523 . S
C611 C595 1.429 . S
C611 C607 1.429 . S
C611 C612 1.523 . S
C612 C596 1.368 1_545 S
C612 C608 1.368 1_554 S
C612 C611 1.523 . S
H613 C588 0.950 . S
H614 C590 0.950 . S
H615 C591 0.949 . S
H616 C593 0.950 . S
H617 C595 0.950 . S
C618 C619 1.349 . S
C618 C620 1.327 . S
C618 H643 0.950 . S
C619 C618 1.349 . S
C619 C635 1.349 . S
C620 C618 1.327 . S
C620 C639 1.429 . S
C620 H644 0.950 . S
C621 C638 1.574 . S
C621 C640 1.368 . S
C621 H645 0.949 . S
H622 C626 0.949 . S
C623 C624 1.349 . S
C623 C625 1.327 . S
C623 H646 0.950 . S
C624 C623 1.349 . S
C624 C636 1.349 . S
C625 C623 1.327 . S
C625 C641 1.429 . S
C625 H647 0.950 . S
C626 H622 0.949 . S
C626 C634 1.574 . S
C626 C642 1.368 . S
H627 C635 0.950 . S
H628 C633 0.950 . S
H629 C634 0.949 . S
H630 C636 0.950 . S
H631 C637 0.950 . S
H632 C638 0.949 . S
C633 H628 0.950 . S
C633 C635 1.327 . S
C633 C639 1.429 . S
C634 C626 1.574 . S
C634 H629 0.949 . S
C634 C640 1.368 . S
C635 C619 1.349 . S
C635 H627 0.950 . S
C635 C633 1.327 . S
C636 C624 1.349 . S
C636 H630 0.950 . S
C636 C637 1.327 . S
C637 H631 0.950 . S
C637 C636 1.327 . S
C637 C641 1.429 . S
C638 C621 1.574 . S
C638 H632 0.949 . S
C638 C642 1.368 . S
C639 C620 1.429 . S
C639 C633 1.429 . S
C639 C640 1.523 . S
C640 C621 1.368 . S
C640 C634 1.368 . S
C640 C639 1.523 . S
C641 C625 1.429 . S
C641 C637 1.429 . S
C641 C642 1.523 . S
C642 C626 1.368 . S
C642 C638 1.368 . S
C642 C641 1.523 . S
H643 C618 0.950 . S
H644 C620 0.950 . S
H645 C621 0.949 . S
H646 C623 0.950 . S
H647 C625 0.950 . S
C648 C649 1.349 . S
C648 C650 1.327 . S
C648 H673 0.950 . S
C649 C648 1.349 . S
C649 C665 1.349 . S
C650 C648 1.327 . S
C650 C669 1.429 . S
C650 H674 0.950 . S
C651 C668 1.574 1_455 S
C651 C670 1.368 . S
C651 H675 0.949 . S
H652 C656 0.949 . S
C653 C654 1.349 . S
C653 C655 1.327 . S
C653 H676 0.950 . S
C654 C653 1.349 . S
C654 C666 1.349 . S
C655 C653 1.327 . S
C655 C671 1.429 . S
C655 H677 0.950 . S
C656 H652 0.949 . S
C656 C664 1.574 1_655 S
C656 C672 1.368 . S
H657 C665 0.950 . S
H658 C663 0.950 . S
H659 C664 0.949 . S
H660 C666 0.950 . S
H661 C667 0.950 . S
H662 C668 0.949 . S
C663 H658 0.950 . S
C663 C665 1.327 . S
C663 C669 1.429 . S
C664 C656 1.574 1_455 S
C664 H659 0.949 . S
C664 C670 1.368 . S
C665 C649 1.349 . S
C665 H657 0.950 . S
C665 C663 1.327 . S
C666 C654 1.349 . S
C666 H660 0.950 . S
C666 C667 1.327 . S
C667 H661 0.950 . S
C667 C666 1.327 . S
C667 C671 1.429 . S
C668 C651 1.574 1_655 S
C668 H662 0.949 . S
C668 C672 1.368 . S
C669 C650 1.429 . S
C669 C663 1.429 . S
C669 C670 1.523 . S
C670 C651 1.368 . S
C670 C664 1.368 . S
C670 C669 1.523 . S
C671 C655 1.429 . S
C671 C667 1.429 . S
C671 C672 1.523 . S
C672 C656 1.368 . S
C672 C668 1.368 . S
C672 C671 1.523 . S
H673 C648 0.950 . S
H674 C650 0.950 . S
H675 C651 0.949 . S
H676 C653 0.950 . S
H677 C655 0.950 . S
C678 C679 1.349 . S
C678 C680 1.327 . S
C678 H703 0.950 . S
C679 C678 1.349 . S
C679 C695 1.349 . S
C680 C678 1.327 . S
C680 C699 1.429 . S
C680 H704 0.950 . S
C681 C698 1.574 1_565 S
C681 C700 1.368 . S
C681 H705 0.949 . S
H682 C686 0.949 . S
C683 C684 1.349 . S
C683 C685 1.327 . S
C683 H706 0.950 . S
C684 C683 1.349 . S
C684 C696 1.349 . S
C685 C683 1.327 . S
C685 C701 1.429 . S
C685 H707 0.950 . S
C686 H682 0.949 . S
C686 C694 1.574 1_545 S
C686 C702 1.368 . S
H687 C695 0.950 . S
H688 C693 0.950 . S
H689 C694 0.949 . S
H690 C696 0.950 . S
H691 C697 0.950 . S
H692 C698 0.949 . S
C693 H688 0.950 . S
C693 C695 1.327 . S
C693 C699 1.429 . S
C694 C686 1.574 1_565 S
C694 H689 0.949 . S
C694 C700 1.368 1_556 S
C695 C679 1.349 . S
C695 H687 0.950 . S
C695 C693 1.327 . S
C696 C684 1.349 . S
C696 H690 0.950 . S
C696 C697 1.327 . S
C697 H691 0.950 . S
C697 C696 1.327 . S
C697 C701 1.429 . S
C698 C681 1.574 1_545 S
C698 H692 0.949 . S
C698 C702 1.368 1_554 S
C699 C680 1.429 . S
C699 C693 1.429 . S
C699 C700 1.523 . S
C700 C681 1.368 . S
C700 C694 1.368 1_554 S
C700 C699 1.523 . S
C701 C685 1.429 . S
C701 C697 1.429 . S
C701 C702 1.523 . S
C702 C686 1.368 . S
C702 C698 1.368 1_556 S
C702 C701 1.523 . S
H703 C678 0.950 . S
H704 C680 0.950 . S
H705 C681 0.949 . S
H706 C683 0.950 . S
H707 C685 0.950 . S
C708 C709 1.349 . S
C708 C710 1.327 . S
C708 H733 0.950 . S
C709 C708 1.349 . S
C709 C725 1.349 . S
C710 C708 1.327 . S
C710 C729 1.429 . S
C710 H734 0.950 . S
C711 C728 1.574 . S
C711 C730 1.368 . S
C711 H735 0.949 . S
H712 C716 0.949 . S
C713 C714 1.349 . S
C713 C715 1.327 . S
C713 H736 0.950 . S
C714 C713 1.349 . S
C714 C726 1.349 . S
C715 C713 1.327 . S
C715 C731 1.429 . S
C715 H737 0.950 . S
C716 H712 0.949 . S
C716 C724 1.574 . S
C716 C732 1.368 . S
H717 C725 0.950 . S
H718 C723 0.950 . S
H719 C724 0.949 . S
H720 C726 0.950 . S
H721 C727 0.950 . S
H722 C728 0.949 . S
C723 H718 0.950 . S
C723 C725 1.327 . S
C723 C729 1.429 . S
C724 C716 1.574 . S
C724 H719 0.949 . S
C724 C730 1.368 . S
C725 C709 1.349 . S
C725 H717 0.950 . S
C725 C723 1.327 . S
C726 C714 1.349 . S
C726 H720 0.950 . S
C726 C727 1.327 . S
C727 H721 0.950 . S
C727 C726 1.327 . S
C727 C731 1.429 . S
C728 C711 1.574 . S
C728 H722 0.949 . S
C728 C732 1.368 . S
C729 C710 1.429 . S
C729 C723 1.429 . S
C729 C730 1.523 . S
C730 C711 1.368 . S
C730 C724 1.368 . S
C730 C729 1.523 . S
C731 C715 1.429 . S
C731 C727 1.429 . S
C731 C732 1.523 . S
C732 C716 1.368 . S
C732 C728 1.368 . S
C732 C731 1.523 . S
H733 C708 0.950 . S
H734 C710 0.950 . S
H735 C711 0.949 . S
H736 C713 0.950 . S
H737 C715 0.950 . S
C738 C739 1.349 . S
C738 C740 1.327 . S
C738 H763 0.950 . S
C739 C738 1.349 . S
C739 C755 1.349 . S
C740 C738 1.327 . S
C740 C759 1.429 . S
C740 H764 0.950 . S
C741 C758 1.574 . S
C741 C760 1.368 . S
C741 H765 0.949 . S
H742 C746 0.949 . S
C743 C744 1.349 . S
C743 C745 1.327 . S
C743 H766 0.950 . S
C744 C743 1.349 . S
C744 C756 1.349 . S
C745 C743 1.327 . S
C745 C761 1.429 . S
C745 H767 0.950 . S
C746 H742 0.949 . S
C746 C754 1.574 . S
C746 C762 1.368 . S
H747 C755 0.950 . S
H748 C753 0.950 . S
H749 C754 0.949 . S
H750 C756 0.950 . S
H751 C757 0.950 . S
H752 C758 0.949 . S
C753 H748 0.950 . S
C753 C755 1.327 . S
C753 C759 1.429 . S
C754 C746 1.574 . S
C754 H749 0.949 . S
C754 C760 1.368 1_655 S
C755 C739 1.349 . S
C755 H747 0.950 . S
C755 C753 1.327 . S
C756 C744 1.349 . S
C756 H750 0.950 . S
C756 C757 1.327 . S
C757 H751 0.950 . S
C757 C756 1.327 . S
C757 C761 1.429 . S
C758 C741 1.574 . S
C758 H752 0.949 . S
C758 C762 1.368 1_455 S
C759 C740 1.429 . S
C759 C753 1.429 . S
C759 C760 1.523 . S
C760 C741 1.368 . S
C760 C754 1.368 1_455 S
C760 C759 1.523 . S
C761 C745 1.429 . S
C761 C757 1.429 . S
C761 C762 1.523 . S
C762 C746 1.368 . S
C762 C758 1.368 1_655 S
C762 C761 1.523 . S
H763 C738 0.950 . S
H764 C740 0.950 . S
H765 C741 0.949 . S
H766 C743 0.950 . S
H767 C745 0.950 . S
C768 C769 1.349 . S
C768 C770 1.327 . S
C768 H793 0.950 . S
C769 C768 1.349 . S
C769 C785 1.349 . S
C770 C768 1.327 . S
C770 C789 1.429 . S
C770 H794 0.950 . S
C771 C788 1.574 1_455 S
C771 C790 1.368 . S
C771 H795 0.949 . S
H772 C776 0.949 . S
C773 C774 1.349 . S
C773 C775 1.327 . S
C773 H796 0.950 . S
C774 C773 1.349 . S
C774 C786 1.349 . S
C775 C773 1.327 . S
C775 C791 1.429 . S
C775 H797 0.950 . S
C776 H772 0.949 . S
C776 C784 1.574 1_655 S
C776 C792 1.368 . S
H777 C785 0.950 . S
H778 C783 0.950 . S
H779 C784 0.949 . S
H780 C786 0.950 . S
H781 C787 0.950 . S
H782 C788 0.949 . S
C783 H778 0.950 . S
C783 C785 1.327 . S
C783 C789 1.429 . S
C784 C776 1.574 1_455 S
C784 H779 0.949 . S
C784 C790 1.368 1_565 S
C785 C769 1.349 . S
C785 H777 0.950 . S
C785 C783 1.327 . S
C786 C774 1.349 . S
C786 H780 0.950 . S
C786 C787 1.327 . S
C787 H781 0.950 . S
C787 C786 1.327 . S
C787 C791 1.429 . S
C788 C771 1.574 1_655 S
C788 H782 0.949 . S
C788 C792 1.368 1_545 S
C789 C770 1.429 . S
C789 C783 1.429 . S
C789 C790 1.523 . S
C790 C771 1.368 . S
C790 C784 1.368 1_545 S
C790 C789 1.523 . S
C791 C775 1.429 . S
C791 C787 1.429 . S
C791 C792 1.523 . S
C792 C776 1.368 . S
C792 C788 1.368 1_565 S
C792 C791 1.523 . S
H793 C768 0.950 . S
H794 C770 0.950 . S
H795 C771 0.949 . S
H796 C773 0.950 . S
H797 C775 0.950 . S
C798 C799 1.349 . S
C798 C800 1.327 . S
C798 H823 0.950 . S
C799 C798 1.349 . S
C799 C815 1.349 . S
C800 C798 1.327 . S
C800 C819 1.429 . S
C800 H824 0.950 . S
C801 C818 1.574 1_545 S
C801 C820 1.368 . S
C801 H825 0.949 . S
H802 C806 0.949 . S
C803 C804 1.349 . S
C803 C805 1.327 . S
C803 H826 0.950 . S
C804 C803 1.349 . S
C804 C816 1.349 . S
C805 C803 1.327 . S
C805 C821 1.429 . S
C805 H827 0.950 . S
C806 H802 0.949 . S
C806 C814 1.574 1_565 S
C806 C822 1.368 . S
H807 C815 0.950 . S
H808 C813 0.950 . S
H809 C814 0.949 . S
H810 C816 0.950 . S
H811 C817 0.950 . S
H812 C818 0.949 . S
C813 H808 0.950 . S
C813 C815 1.327 . S
C813 C819 1.429 . S
C814 C806 1.574 1_545 S
C814 H809 0.949 . S
C814 C820 1.368 1_655 S
C815 C799 1.349 . S
C815 H807 0.950 . S
C815 C813 1.327 . S
C816 C804 1.349 . S
C816 H810 0.950 . S
C816 C817 1.327 . S
C817 H811 0.950 . S
C817 C816 1.327 . S
C817 C821 1.429 . S
C818 C801 1.574 1_565 S
C818 H812 0.949 . S
C818 C822 1.368 1_455 S
C819 C800 1.429 . S
C819 C813 1.429 . S
C819 C820 1.523 . S
C820 C801 1.368 . S
C820 C814 1.368 1_455 S
C820 C819 1.523 . S
C821 C805 1.429 . S
C821 C817 1.429 . S
C821 C822 1.523 . S
C822 C806 1.368 . S
C822 C818 1.368 1_655 S
C822 C821 1.523 . S
H823 C798 0.950 . S
H824 C800 0.950 . S
H825 C801 0.949 . S
H826 C803 0.950 . S
H827 C805 0.950 . S
C828 C829 1.349 . S
C828 C830 1.327 . S
C828 H853 0.950 . S
C829 C828 1.349 . S
C829 C845 1.349 . S
C830 C828 1.327 . S
C830 C849 1.429 . S
C830 H854 0.950 . S
C831 C848 1.574 . S
C831 C850 1.368 1_455 S
C831 H855 0.949 . S
H832 C836 0.949 . S
C833 C834 1.349 . S
C833 C835 1.327 . S
C833 H856 0.950 . S
C834 C833 1.349 . S
C834 C846 1.349 . S
C835 C833 1.327 . S
C835 C851 1.429 . S
C835 H857 0.950 . S
C836 H832 0.949 . S
C836 C844 1.574 . S
C836 C852 1.368 1_655 S
H837 C845 0.950 . S
H838 C843 0.950 . S
H839 C844 0.949 . S
H840 C846 0.950 . S
H841 C847 0.950 . S
H842 C848 0.949 . S
C843 H838 0.950 . S
C843 C845 1.327 . S
C843 C849 1.429 . S
C844 C836 1.574 . S
C844 H839 0.949 . S
C844 C850 1.368 1_565 S
C845 C829 1.349 . S
C845 H837 0.950 . S
C845 C843 1.327 . S
C846 C834 1.349 . S
C846 H840 0.950 . S
C846 C847 1.327 . S
C847 H841 0.950 . S
C847 C846 1.327 . S
C847 C851 1.429 . S
C848 C831 1.574 . S
C848 H842 0.949 . S
C848 C852 1.368 1_545 S
C849 C830 1.429 . S
C849 C843 1.429 . S
C849 C850 1.523 . S
C850 C831 1.368 1_655 S
C850 C844 1.368 1_545 S
C850 C849 1.523 . S
C851 C835 1.429 . S
C851 C847 1.429 . S
C851 C852 1.523 . S
C852 C836 1.368 1_455 S
C852 C848 1.368 1_565 S
C852 C851 1.523 . S
H853 C828 0.950 . S
H854 C830 0.950 . S
H855 C831 0.949 . S
H856 C833 0.950 . S
H857 C835 0.950 . S
C858 C859 1.349 . S
C858 C860 1.327 . S
C858 H883 0.950 . S
C859 C858 1.349 . S
C859 C875 1.349 . S
C860 C858 1.327 . S
C860 C879 1.429 . S
C860 H884 0.950 . S
C861 C878 1.574 1_565 S
C861 C880 1.368 . S
C861 H885 0.949 . S
H862 C866 0.949 . S
C863 C864 1.349 . S
C863 C865 1.327 . S
C863 H886 0.950 . S
C864 C863 1.349 . S
C864 C876 1.349 . S
C865 C863 1.327 . S
C865 C881 1.429 . S
C865 H887 0.950 . S
C866 H862 0.949 . S
C866 C874 1.574 1_545 S
C866 C882 1.368 . S
H867 C875 0.950 . S
H868 C873 0.950 . S
H869 C874 0.949 . S
H870 C876 0.950 . S
H871 C877 0.950 . S
H872 C878 0.949 . S
C873 H868 0.950 . S
C873 C875 1.327 . S
C873 C879 1.429 . S
C874 C866 1.574 1_565 S
C874 H869 0.949 . S
C874 C880 1.368 1_455 S
C875 C859 1.349 . S
C875 H867 0.950 . S
C875 C873 1.327 . S
C876 C864 1.349 . S
C876 H870 0.950 . S
C876 C877 1.327 . S
C877 H871 0.950 . S
C877 C876 1.327 . S
C877 C881 1.429 . S
C878 C861 1.574 1_545 S
C878 H872 0.949 . S
C878 C882 1.368 1_655 S
C879 C860 1.429 . S
C879 C873 1.429 . S
C879 C880 1.523 . S
C880 C861 1.368 . S
C880 C874 1.368 1_655 S
C880 C879 1.523 . S
C881 C865 1.429 . S
C881 C877 1.429 . S
C881 C882 1.523 . S
C882 C866 1.368 . S
C882 C878 1.368 1_455 S
C882 C881 1.523 . S
H883 C858 0.950 . S
H884 C860 0.950 . S
H885 C861 0.949 . S
H886 C863 0.950 . S
H887 C865 0.950 . S
C888 C889 1.349 . S
C888 C890 1.327 . S
C888 H913 0.950 . S
C889 C888 1.349 . S
C889 C905 1.349 . S
C890 C888 1.327 . S
C890 C909 1.429 . S
C890 H914 0.950 . S
C891 C908 1.574 . S
C891 C910 1.368 1_655 S
C891 H915 0.949 . S
H892 C896 0.949 . S
C893 C894 1.349 . S
C893 C895 1.327 . S
C893 H916 0.950 . S
C894 C893 1.349 . S
C894 C906 1.349 . S
C895 C893 1.327 . S
C895 C911 1.429 . S
C895 H917 0.950 . S
C896 H892 0.949 . S
C896 C904 1.574 . S
C896 C912 1.368 1_455 S
H897 C905 0.950 . S
H898 C903 0.950 . S
H899 C904 0.949 . S
H900 C906 0.950 . S
H901 C907 0.950 . S
H902 C908 0.949 . S
C903 H898 0.950 . S
C903 C905 1.327 . S
C903 C909 1.429 . S
C904 C896 1.574 . S
C904 H899 0.949 . S
C904 C910 1.368 1_545 S
C905 C889 1.349 . S
C905 H897 0.950 . S
C905 C903 1.327 . S
C906 C894 1.349 . S
C906 H900 0.950 . S
C906 C907 1.327 . S
C907 H901 0.950 . S
C907 C906 1.327 . S
C907 C911 1.429 . S
C908 C891 1.574 . S
C908 H902 0.949 . S
C908 C912 1.368 1_565 S
C909 C890 1.429 . S
C909 C903 1.429 . S
C909 C910 1.523 . S
C910 C891 1.368 1_455 S
C910 C904 1.368 1_565 S
C910 C909 1.523 . S
C911 C895 1.429 . S
C911 C907 1.429 . S
C911 C912 1.523 . S
C912 C896 1.368 1_655 S
C912 C908 1.368 1_545 S
C912 C911 1.523 . S
H913 C888 0.950 . S
H914 C890 0.950 . S
H915 C891 0.949 . S
H916 C893 0.950 . S
H917 C895 0.950 . S
C918 C919 1.349 . S
C918 C920 1.327 . S
C918 H943 0.950 . S
C919 C918 1.349 . S
C919 C935 1.349 . S
C920 C918 1.327 . S
C920 C939 1.429 . S
C920 H944 0.950 . S
C921 C938 1.574 1_455 S
C921 C940 1.368 . S
C921 H945 0.949 . S
H922 C926 0.949 . S
C923 C924 1.349 . S
C923 C925 1.327 . S
C923 H946 0.950 . S
C924 C923 1.349 . S
C924 C936 1.349 . S
C925 C923 1.327 . S
C925 C941 1.429 . S
C925 H947 0.950 . S
C926 H922 0.949 . S
C926 C934 1.574 1_655 S
C926 C942 1.368 . S
H927 C935 0.950 . S
H928 C933 0.950 . S
H929 C934 0.949 . S
H930 C936 0.950 . S
H931 C937 0.950 . S
H932 C938 0.949 . S
C933 H928 0.950 . S
C933 C935 1.327 . S
C933 C939 1.429 . S
C934 C926 1.574 1_455 S
C934 H929 0.949 . S
C934 C940 1.368 1_565 S
C935 C919 1.349 . S
C935 H927 0.950 . S
C935 C933 1.327 . S
C936 C924 1.349 . S
C936 H930 0.950 . S
C936 C937 1.327 . S
C937 H931 0.950 . S
C937 C936 1.327 . S
C937 C941 1.429 . S
C938 C921 1.574 1_655 S
C938 H932 0.949 . S
C938 C942 1.368 1_545 S
C939 C920 1.429 . S
C939 C933 1.429 . S
C939 C940 1.523 . S
C940 C921 1.368 . S
C940 C934 1.368 1_545 S
C940 C939 1.523 . S
C941 C925 1.429 . S
C941 C937 1.429 . S
C941 C942 1.523 . S
C942 C926 1.368 . S
C942 C938 1.368 1_565 S
C942 C941 1.523 . S
H943 C918 0.950 . S
H944 C920 0.950 . S
H945 C921 0.949 . S
H946 C923 0.950 . S
H947 C925 0.950 . S
C948 C949 1.349 1_455 S
C948 C950 1.327 . S
C948 H973 0.950 1_455 S
C949 C948 1.349 1_655 S
C949 C965 1.349 1_655 S
C950 C948 1.327 . S
C950 C969 1.429 . S
C950 H974 0.950 . S
C951 C968 1.574 . S
C951 C970 1.368 1_554 S
C951 H975 0.949 . S
H952 C956 0.949 . S
C953 C954 1.349 . S
C953 C955 1.327 . S
C953 H976 0.950 . S
C954 C953 1.349 . S
C954 C966 1.349 . S
C955 C953 1.327 . S
C955 C971 1.429 . S
C955 H977 0.950 . S
C956 H952 0.949 . S
C956 C964 1.574 . S
C956 C972 1.368 1_556 S
H957 C965 0.950 . S
H958 C963 0.950 . S
H959 C964 0.949 . S
H960 C966 0.950 . S
H961 C967 0.950 . S
H962 C968 0.949 . S
C963 H958 0.950 . S
C963 C965 1.327 . S
C963 C969 1.429 . S
C964 C956 1.574 . S
C964 H959 0.949 . S
C964 C970 1.368 . S
C965 C949 1.349 1_455 S
C965 H957 0.950 . S
C965 C963 1.327 . S
C966 C954 1.349 . S
C966 H960 0.950 . S
C966 C967 1.327 . S
C967 H961 0.950 . S
C967 C966 1.327 . S
C967 C971 1.429 . S
C968 C951 1.574 . S
C968 H962 0.949 . S
C968 C972 1.368 . S
C969 C950 1.429 . S
C969 C963 1.429 . S
C969 C970 1.523 . S
C970 C951 1.368 1_556 S
C970 C964 1.368 . S
C970 C969 1.523 . S
C971 C955 1.429 . S
C971 C967 1.429 . S
C971 C972 1.523 . S
C972 C956 1.368 1_554 S
C972 C968 1.368 . S
C972 C971 1.523 . S
H973 C948 0.950 1_655 S
H974 C950 0.950 . S
H975 C951 0.949 . S
H976 C953 0.950 . S
H977 C955 0.950 . S
C978 C979 1.349 . S
C978 C980 1.327 1_455 S
C978 H1003 0.950 . S
C979 C978 1.349 . S
C979 C995 1.349 1_455 S
C980 C978 1.327 1_655 S
C980 C999 1.429 . S
C980 H1004 0.950 . S
C981 C998 1.574 . S
C981 C1000 1.368 . S
C981 H1005 0.949 . S
H982 C986 0.949 . S
C983 C984 1.349 1_545 S
C983 C985 1.327 . S
C983 H1006 0.950 . S
C984 C983 1.349 1_565 S
C984 C996 1.349 . S
C985 C983 1.327 . S
C985 C1001 1.429 . S
C985 H1007 0.950 . S
C986 H982 0.949 . S
C986 C994 1.574 . S
C986 C1002 1.368 . S
H987 C995 0.950 . S
H988 C993 0.950 . S
H989 C994 0.949 . S
H990 C996 0.950 . S
H991 C997 0.950 . S
H992 C998 0.949 . S
C993 H988 0.950 . S
C993 C995 1.327 . S
C993 C999 1.429 . S
C994 C986 1.574 . S
C994 H989 0.949 . S
C994 C1000 1.368 . S
C995 C979 1.349 1_655 S
C995 H987 0.950 . S
C995 C993 1.327 . S
C996 C984 1.349 . S
C996 H990 0.950 . S
C996 C997 1.327 1_565 S
C997 H991 0.950 . S
C997 C996 1.327 1_545 S
C997 C1001 1.429 . S
C998 C981 1.574 . S
C998 H992 0.949 . S
C998 C1002 1.368 . S
C999 C980 1.429 . S
C999 C993 1.429 . S
C999 C1000 1.523 . S
C1000 C981 1.368 . S
C1000 C994 1.368 . S
C1000 C999 1.523 . S
C1001 C985 1.429 . S
C1001 C997 1.429 . S
C1001 C1002 1.523 . S
C1002 C986 1.368 . S
C1002 C998 1.368 . S
C1002 C1001 1.523 . S
H1003 C978 0.950 . S
H1004 C980 0.950 . S
H1005 C981 0.949 . S
H1006 C983 0.950 . S
H1007 C985 0.950 . S
C1008 C1009 1.349 . S
C1008 C1010 1.327 . S
C1008 H1033 0.950 . S
C1009 C1008 1.349 . S
C1009 C1025 1.349 . S
C1010 C1008 1.327 . S
C1010 C1029 1.429 . S
C1010 H1034 0.950 . S
C1011 C1028 1.574 . S
C1011 C1030 1.368 . S
C1011 H1035 0.949 . S
H1012 C1016 0.949 . S
C1013 C1014 1.349 1_565 S
C1013 C1015 1.327 . S
C1013 H1036 0.950 . S
C1014 C1013 1.349 1_545 S
C1014 C1026 1.349 . S
C1015 C1013 1.327 . S
C1015 C1031 1.429 . S
C1015 H1037 0.950 . S
C1016 H1012 0.949 . S
C1016 C1024 1.574 . S
C1016 C1032 1.368 . S
H1017 C1025 0.950 . S
H1018 C1023 0.950 . S
H1019 C1024 0.949 . S
H1020 C1026 0.950 . S
H1021 C1027 0.950 . S
H1022 C1028 0.949 . S
C1023 H1018 0.950 . S
C1023 C1025 1.327 . S
C1023 C1029 1.429 . S
C1024 C1016 1.574 . S
C1024 H1019 0.949 . S
C1024 C1030 1.368 . S
C1025 C1009 1.349 . S
C1025 H1017 0.950 . S
C1025 C1023 1.327 . S
C1026 C1014 1.349 . S
C1026 H1020 0.950 . S
C1026 C1027 1.327 1_545 S
C1027 H1021 0.950 . S
C1027 C1026 1.327 1_565 S
C1027 C1031 1.429 . S
C1028 C1011 1.574 . S
C1028 H1022 0.949 . S
C1028 C1032 1.368 . S
C1029 C1010 1.429 . S
C1029 C1023 1.429 . S
C1029 C1030 1.523 . S
C1030 C1011 1.368 . S
C1030 C1024 1.368 . S
C1030 C1029 1.523 . S
C1031 C1015 1.429 . S
C1031 C1027 1.429 . S
C1031 C1032 1.523 . S
C1032 C1016 1.368 . S
C1032 C1028 1.368 . S
C1032 C1031 1.523 . S
H1033 C1008 0.950 . S
H1034 C1010 0.950 . S
H1035 C1011 0.949 . S
H1036 C1013 0.950 . S
H1037 C1015 0.950 . S
C1038 C1039 1.349 . S
C1038 C1040 1.327 . S
C1038 H1063 0.950 . S
C1039 C1038 1.349 . S
C1039 C1055 1.349 . S
C1040 C1038 1.327 . S
C1040 C1059 1.429 . S
C1040 H1064 0.950 . S
C1041 C1058 1.574 . S
C1041 C1060 1.368 1_556 S
C1041 H1065 0.949 . S
H1042 C1046 0.949 . S
C1043 C1044 1.349 1_655 S
C1043 C1045 1.327 . S
C1043 H1066 0.950 . S
C1044 C1043 1.349 1_455 S
C1044 C1056 1.349 . S
C1045 C1043 1.327 . S
C1045 C1061 1.429 . S
C1045 H1067 0.950 . S
C1046 H1042 0.949 . S
C1046 C1054 1.574 . S
C1046 C1062 1.368 1_554 S
H1047 C1055 0.950 . S
H1048 C1053 0.950 . S
H1049 C1054 0.949 . S
H1050 C1056 0.950 . S
H1051 C1057 0.950 . S
H1052 C1058 0.949 . S
C1053 H1048 0.950 . S
C1053 C1055 1.327 . S
C1053 C1059 1.429 . S
C1054 C1046 1.574 . S
C1054 H1049 0.949 . S
C1054 C1060 1.368 . S
C1055 C1039 1.349 . S
C1055 H1047 0.950 . S
C1055 C1053 1.327 . S
C1056 C1044 1.349 . S
C1056 H1050 0.950 . S
C1056 C1057 1.327 1_455 S
C1057 H1051 0.950 . S
C1057 C1056 1.327 1_655 S
C1057 C1061 1.429 . S
C1058 C1041 1.574 . S
C1058 H1052 0.949 . S
C1058 C1062 1.368 . S
C1059 C1040 1.429 . S
C1059 C1053 1.429 . S
C1059 C1060 1.523 . S
C1060 C1041 1.368 1_554 S
C1060 C1054 1.368 . S
C1060 C1059 1.523 . S
C1061 C1045 1.429 . S
C1061 C1057 1.429 . S
C1061 C1062 1.523 . S
C1062 C1046 1.368 1_556 S
C1062 C1058 1.368 . S
C1062 C1061 1.523 . S
H1063 C1038 0.950 . S
H1064 C1040 0.950 . S
H1065 C1041 0.949 . S
H1066 C1043 0.950 . S
H1067 C1045 0.950 . S
C1068 C1069 1.349 1_565 S
C1068 C1070 1.327 . S
C1068 H1093 0.950 . S
C1069 C1068 1.349 1_545 S
C1069 C1085 1.349 . S
C1070 C1068 1.327 . S
C1070 C1089 1.429 . S
C1070 H1094 0.950 . S
C1071 C1088 1.574 . S
C1071 C1090 1.368 . S
C1071 H1095 0.949 . S
H1072 C1076 0.949 . S
C1073 C1074 1.349 . S
C1073 C1075 1.327 1_655 S
C1073 H1096 0.950 . S
C1074 C1073 1.349 . S
C1074 C1086 1.349 1_655 S
C1075 C1073 1.327 1_455 S
C1075 C1091 1.429 . S
C1075 H1097 0.950 . S
C1076 H1072 0.949 . S
C1076 C1084 1.574 . S
C1076 C1092 1.368 . S
H1077 C1085 0.950 . S
H1078 C1083 0.950 . S
H1079 C1084 0.949 . S
H1080 C1086 0.950 . S
H1081 C1087 0.950 . S
H1082 C1088 0.949 . S
C1083 H1078 0.950 . S
C1083 C1085 1.327 1_565 S
C1083 C1089 1.429 . S
C1084 C1076 1.574 . S
C1084 H1079 0.949 . S
C1084 C1090 1.368 . S
C1085 C1069 1.349 . S
C1085 H1077 0.950 . S
C1085 C1083 1.327 1_545 S
C1086 C1074 1.349 1_455 S
C1086 H1080 0.950 . S
C1086 C1087 1.327 . S
C1087 H1081 0.950 . S
C1087 C1086 1.327 . S
C1087 C1091 1.429 . S
C1088 C1071 1.574 . S
C1088 H1082 0.949 . S
C1088 C1092 1.368 . S
C1089 C1070 1.429 . S
C1089 C1083 1.429 . S
C1089 C1090 1.523 . S
C1090 C1071 1.368 . S
C1090 C1084 1.368 . S
C1090 C1089 1.523 . S
C1091 C1075 1.429 . S
C1091 C1087 1.429 . S
C1091 C1092 1.523 . S
C1092 C1076 1.368 . S
C1092 C1088 1.368 . S
C1092 C1091 1.523 . S
H1093 C1068 0.950 . S
H1094 C1070 0.950 . S
H1095 C1071 0.949 . S
H1096 C1073 0.950 . S
H1097 C1075 0.950 . S
C1098 C1099 1.349 1_545 S
C1098 C1100 1.327 . S
C1098 H1123 0.950 . S
C1099 C1098 1.349 1_565 S
C1099 C1115 1.349 . S
C1100 C1098 1.327 . S
C1100 C1119 1.429 . S
C1100 H1124 0.950 . S
C1101 C1118 1.574 . S
C1101 C1120 1.368 . S
C1101 H1125 0.949 . S
H1102 C1106 0.949 . S
C1103 C1104 1.349 . S
C1103 C1105 1.327 . S
C1103 H1126 0.950 . S
C1104 C1103 1.349 . S
C1104 C1116 1.349 . S
C1105 C1103 1.327 . S
C1105 C1121 1.429 . S
C1105 H1127 0.950 . S
C1106 H1102 0.949 . S
C1106 C1114 1.574 . S
C1106 C1122 1.368 . S
H1107 C1115 0.950 . S
H1108 C1113 0.950 . S
H1109 C1114 0.949 . S
H1110 C1116 0.950 . S
H1111 C1117 0.950 . S
H1112 C1118 0.949 . S
C1113 H1108 0.950 . S
C1113 C1115 1.327 1_545 S
C1113 C1119 1.429 . S
C1114 C1106 1.574 . S
C1114 H1109 0.949 . S
C1114 C1120 1.368 . S
C1115 C1099 1.349 . S
C1115 H1107 0.950 . S
C1115 C1113 1.327 1_565 S
C1116 C1104 1.349 . S
C1116 H1110 0.950 . S
C1116 C1117 1.327 . S
C1117 H1111 0.950 . S
C1117 C1116 1.327 . S
C1117 C1121 1.429 . S
C1118 C1101 1.574 . S
C1118 H1112 0.949 . S
C1118 C1122 1.368 . S
C1119 C1100 1.429 . S
C1119 C1113 1.429 . S
C1119 C1120 1.523 . S
C1120 C1101 1.368 . S
C1120 C1114 1.368 . S
C1120 C1119 1.523 . S
C1121 C1105 1.429 . S
C1121 C1117 1.429 . S
C1121 C1122 1.523 . S
C1122 C1106 1.368 . S
C1122 C1118 1.368 . S
C1122 C1121 1.523 . S
H1123 C1098 0.950 . S
H1124 C1100 0.950 . S
H1125 C1101 0.949 . S
H1126 C1103 0.950 . S
H1127 C1105 0.950 . S
C1128 C1129 1.349 . S
C1128 C1130 1.327 . S
C1128 H1153 0.950 . S
C1129 C1128 1.349 . S
C1129 C1145 1.349 . S
C1130 C1128 1.327 . S
C1130 C1149 1.429 . S
C1130 H1154 0.950 . S
C1131 C1148 1.574 . S
C1131 C1150 1.368 . S
C1131 H1155 0.949 . S
H1132 C1136 0.949 . S
C1133 C1134 1.349 . S
C1133 C1135 1.327 . S
C1133 H1156 0.950 . S
C1134 C1133 1.349 . S
C1134 C1146 1.349 . S
C1135 C1133 1.327 . S
C1135 C1151 1.429 . S
C1135 H1157 0.950 . S
C1136 H1132 0.949 . S
C1136 C1144 1.574 . S
C1136 C1152 1.368 . S
H1137 C1145 0.950 . S
H1138 C1143 0.950 . S
H1139 C1144 0.949 . S
H1140 C1146 0.950 . S
H1141 C1147 0.950 . S
H1142 C1148 0.949 . S
C1143 H1138 0.950 . S
C1143 C1145 1.327 . S
C1143 C1149 1.429 . S
C1144 C1136 1.574 . S
C1144 H1139 0.949 . S
C1144 C1150 1.368 . S
C1145 C1129 1.349 . S
C1145 H1137 0.950 . S
C1145 C1143 1.327 . S
C1146 C1134 1.349 . S
C1146 H1140 0.950 . S
C1146 C1147 1.327 . S
C1147 H1141 0.950 . S
C1147 C1146 1.327 . S
C1147 C1151 1.429 . S
C1148 C1131 1.574 . S
C1148 H1142 0.949 . S
C1148 C1152 1.368 . S
C1149 C1130 1.429 . S
C1149 C1143 1.429 . S
C1149 C1150 1.523 . S
C1150 C1131 1.368 . S
C1150 C1144 1.368 . S
C1150 C1149 1.523 . S
C1151 C1135 1.429 . S
C1151 C1147 1.429 . S
C1151 C1152 1.523 . S
C1152 C1136 1.368 . S
C1152 C1148 1.368 . S
C1152 C1151 1.523 . S
H1153 C1128 0.950 . S
H1154 C1130 0.950 . S
H1155 C1131 0.949 . S
H1156 C1133 0.950 . S
H1157 C1135 0.950 . S
C1158 C1159 1.349 . S
C1158 C1160 1.327 . S
C1158 H1183 0.950 . S
C1159 C1158 1.349 . S
C1159 C1175 1.349 . S
C1160 C1158 1.327 . S
C1160 C1179 1.429 . S
C1160 H1184 0.950 . S
C1161 C1178 1.574 . S
C1161 C1180 1.368 . S
C1161 H1185 0.949 . S
H1162 C1166 0.949 . S
C1163 C1164 1.349 . S
C1163 C1165 1.327 . S
C1163 H1186 0.950 . S
C1164 C1163 1.349 . S
C1164 C1176 1.349 . S
C1165 C1163 1.327 . S
C1165 C1181 1.429 . S
C1165 H1187 0.950 . S
C1166 H1162 0.949 . S
C1166 C1174 1.574 . S
C1166 C1182 1.368 . S
H1167 C1175 0.950 . S
H1168 C1173 0.950 . S
H1169 C1174 0.949 . S
H1170 C1176 0.950 . S
H1171 C1177 0.950 . S
H1172 C1178 0.949 . S
C1173 H1168 0.950 . S
C1173 C1175 1.327 . S
C1173 C1179 1.429 . S
C1174 C1166 1.574 . S
C1174 H1169 0.949 . S
C1174 C1180 1.368 . S
C1175 C1159 1.349 . S
C1175 H1167 0.950 . S
C1175 C1173 1.327 . S
C1176 C1164 1.349 . S
C1176 H1170 0.950 . S
C1176 C1177 1.327 . S
C1177 H1171 0.950 . S
C1177 C1176 1.327 . S
C1177 C1181 1.429 . S
C1178 C1161 1.574 . S
C1178 H1172 0.949 . S
C1178 C1182 1.368 . S
C1179 C1160 1.429 . S
C1179 C1173 1.429 . S
C1179 C1180 1.523 . S
C1180 C1161 1.368 . S
C1180 C1174 1.368 . S
C1180 C1179 1.523 . S
C1181 C1165 1.429 . S
C1181 C1177 1.429 . S
C1181 C1182 1.523 . S
C1182 C1166 1.368 . S
C1182 C1178 1.368 . S
C1182 C1181 1.523 . S
H1183 C1158 0.950 . S
H1184 C1160 0.950 . S
H1185 C1161 0.949 . S
H1186 C1163 0.950 . S
H1187 C1165 0.950 . S
C1188 C1189 1.349 . S
C1188 C1190 1.327 . S
C1188 H1213 0.950 . S
C1189 C1188 1.349 . S
C1189 C1205 1.349 . S
C1190 C1188 1.327 . S
C1190 C1209 1.429 . S
C1190 H1214 0.950 . S
C1191 C1208 1.574 . S
C1191 C1210 1.368 . S
C1191 H1215 0.949 . S
H1192 C1196 0.949 . S
C1193 C1194 1.349 . S
C1193 C1195 1.327 . S
C1193 H1216 0.950 . S
C1194 C1193 1.349 . S
C1194 C1206 1.349 . S
C1195 C1193 1.327 . S
C1195 C1211 1.429 . S
C1195 H1217 0.950 . S
C1196 H1192 0.949 . S
C1196 C1204 1.574 . S
C1196 C1212 1.368 . S
H1197 C1205 0.950 . S
H1198 C1203 0.950 . S
H1199 C1204 0.949 . S
H1200 C1206 0.950 . S
H1201 C1207 0.950 . S
H1202 C1208 0.949 . S
C1203 H1198 0.950 . S
C1203 C1205 1.327 . S
C1203 C1209 1.429 . S
C1204 C1196 1.574 . S
C1204 H1199 0.949 . S
C1204 C1210 1.368 . S
C1205 C1189 1.349 . S
C1205 H1197 0.950 . S
C1205 C1203 1.327 . S
C1206 C1194 1.349 . S
C1206 H1200 0.950 . S
C1206 C1207 1.327 . S
C1207 H1201 0.950 . S
C1207 C1206 1.327 . S
C1207 C1211 1.429 . S
C1208 C1191 1.574 . S
C1208 H1202 0.949 . S
C1208 C1212 1.368 . S
C1209 C1190 1.429 . S
C1209 C1203 1.429 . S
C1209 C1210 1.523 . S
C1210 C1191 1.368 . S
C1210 C1204 1.368 . S
C1210 C1209 1.523 . S
C1211 C1195 1.429 . S
C1211 C1207 1.429 . S
C1211 C1212 1.523 . S
C1212 C1196 1.368 . S
C1212 C1208 1.368 . S
C1212 C1211 1.523 . S
H1213 C1188 0.950 . S
H1214 C1190 0.950 . S
H1215 C1191 0.949 . S
H1216 C1193 0.950 . S
H1217 C1195 0.950 . S
C1218 C1219 1.349 . S
C1218 C1220 1.327 . S
C1218 H1243 0.950 . S
C1219 C1218 1.349 . S
C1219 C1235 1.349 . S
C1220 C1218 1.327 . S
C1220 C1239 1.429 . S
C1220 H1244 0.950 . S
C1221 C1238 1.574 . S
C1221 C1240 1.368 . S
C1221 H1245 0.949 . S
H1222 C1226 0.949 . S
C1223 C1224 1.349 . S
C1223 C1225 1.327 . S
C1223 H1246 0.950 . S
C1224 C1223 1.349 . S
C1224 C1236 1.349 . S
C1225 C1223 1.327 . S
C1225 C1241 1.429 . S
C1225 H1247 0.950 . S
C1226 H1222 0.949 . S
C1226 C1234 1.574 . S
C1226 C1242 1.368 . S
H1227 C1235 0.950 . S
H1228 C1233 0.950 . S
H1229 C1234 0.949 . S
H1230 C1236 0.950 . S
H1231 C1237 0.950 . S
H1232 C1238 0.949 . S
C1233 H1228 0.950 . S
C1233 C1235 1.327 . S
C1233 C1239 1.429 . S
C1234 C1226 1.574 . S
C1234 H1229 0.949 . S
C1234 C1240 1.368 . S
C1235 C1219 1.349 . S
C1235 H1227 0.950 . S
C1235 C1233 1.327 . S
C1236 C1224 1.349 . S
C1236 H1230 0.950 . S
C1236 C1237 1.327 . S
C1237 H1231 0.950 . S
C1237 C1236 1.327 . S
C1237 C1241 1.429 . S
C1238 C1221 1.574 . S
C1238 H1232 0.949 . S
C1238 C1242 1.368 . S
C1239 C1220 1.429 . S
C1239 C1233 1.429 . S
C1239 C1240 1.523 . S
C1240 C1221 1.368 . S
C1240 C1234 1.368 . S
C1240 C1239 1.523 . S
C1241 C1225 1.429 . S
C1241 C1237 1.429 . S
C1241 C1242 1.523 . S
C1242 C1226 1.368 . S
C1242 C1238 1.368 . S
C1242 C1241 1.523 . S
H1243 C1218 0.950 . S
H1244 C1220 0.950 . S
H1245 C1221 0.949 . S
H1246 C1223 0.950 . S
H1247 C1225 0.950 . S
C1248 C1249 1.349 . S
C1248 C1250 1.327 . S
C1248 H1273 0.950 . S
C1249 C1248 1.349 . S
C1249 C1265 1.349 . S
C1250 C1248 1.327 . S
C1250 C1269 1.429 . S
C1250 H1274 0.950 . S
C1251 C1268 1.574 . S
C1251 C1270 1.368 . S
C1251 H1275 0.949 . S
H1252 C1256 0.949 . S
C1253 C1254 1.349 . S
C1253 C1255 1.327 . S
C1253 H1276 0.950 . S
C1254 C1253 1.349 . S
C1254 C1266 1.349 . S
C1255 C1253 1.327 . S
C1255 C1271 1.429 . S
C1255 H1277 0.950 . S
C1256 H1252 0.949 . S
C1256 C1264 1.574 . S
C1256 C1272 1.368 . S
H1257 C1265 0.950 . S
H1258 C1263 0.950 . S
H1259 C1264 0.949 . S
H1260 C1266 0.950 . S
H1261 C1267 0.950 . S
H1262 C1268 0.949 . S
C1263 H1258 0.950 . S
C1263 C1265 1.327 . S
C1263 C1269 1.429 . S
C1264 C1256 1.574 . S
C1264 H1259 0.949 . S
C1264 C1270 1.368 . S
C1265 C1249 1.349 . S
C1265 H1257 0.950 . S
C1265 C1263 1.327 . S
C1266 C1254 1.349 . S
C1266 H1260 0.950 . S
C1266 C1267 1.327 . S
C1267 H1261 0.950 . S
C1267 C1266 1.327 . S
C1267 C1271 1.429 . S
C1268 C1251 1.574 . S
C1268 H1262 0.949 . S
C1268 C1272 1.368 . S
C1269 C1250 1.429 . S
C1269 C1263 1.429 . S
C1269 C1270 1.523 . S
C1270 C1251 1.368 . S
C1270 C1264 1.368 . S
C1270 C1269 1.523 . S
C1271 C1255 1.429 . S
C1271 C1267 1.429 . S
C1271 C1272 1.523 . S
C1272 C1256 1.368 . S
C1272 C1268 1.368 . S
C1272 C1271 1.523 . S
H1273 C1248 0.950 . S
H1274 C1250 0.950 . S
H1275 C1251 0.949 . S
H1276 C1253 0.950 . S
H1277 C1255 0.950 . S
C1278 C1279 1.349 . S
C1278 C1280 1.327 . S
C1278 H1303 0.950 . S
C1279 C1278 1.349 . S
C1279 C1295 1.349 . S
C1280 C1278 1.327 . S
C1280 C1299 1.429 . S
C1280 H1304 0.950 . S
C1281 C1298 1.574 . S
C1281 C1300 1.368 . S
C1281 H1305 0.949 . S
H1282 C1286 0.949 . S
C1283 C1284 1.349 . S
C1283 C1285 1.327 . S
C1283 H1306 0.950 . S
C1284 C1283 1.349 . S
C1284 C1296 1.349 . S
C1285 C1283 1.327 . S
C1285 C1301 1.429 . S
C1285 H1307 0.950 . S
C1286 H1282 0.949 . S
C1286 C1294 1.574 . S
C1286 C1302 1.368 . S
H1287 C1295 0.950 . S
H1288 C1293 0.950 . S
H1289 C1294 0.949 . S
H1290 C1296 0.950 . S
H1291 C1297 0.950 . S
H1292 C1298 0.949 . S
C1293 H1288 0.950 . S
C1293 C1295 1.327 . S
C1293 C1299 1.429 . S
C1294 C1286 1.574 . S
C1294 H1289 0.949 . S
C1294 C1300 1.368 . S
C1295 C1279 1.349 . S
C1295 H1287 0.950 . S
C1295 C1293 1.327 . S
C1296 C1284 1.349 . S
C1296 H1290 0.950 . S
C1296 C1297 1.327 . S
C1297 H1291 0.950 . S
C1297 C1296 1.327 . S
C1297 C1301 1.429 . S
C1298 C1281 1.574 . S
C1298 H1292 0.949 . S
C1298 C1302 1.368 . S
C1299 C1280 1.429 . S
C1299 C1293 1.429 . S
C1299 C1300 1.523 . S
C1300 C1281 1.368 . S
C1300 C1294 1.368 . S
C1300 C1299 1.523 . S
C1301 C1285 1.429 . S
C1301 C1297 1.429 . S
C1301 C1302 1.523 . S
C1302 C1286 1.368 . S
C1302 C1298 1.368 . S
C1302 C1301 1.523 . S
H1303 C1278 0.950 . S
H1304 C1280 0.950 . S
H1305 C1281 0.949 . S
H1306 C1283 0.950 . S
H1307 C1285 0.950 . S
C409 C111 1.669 . S
C414 C9 1.669 . S
C439 C43 1.669 . S
C444 C145 1.669 . S
C469 C77 1.669 . S
C474 C179 1.669 . S
C499 C213 1.669 . S
C504 C315 1.669 . S
C529 C349 1.669 . S
C534 C247 1.669 . S
C559 C383 1.669 . S
C564 C281 1.669 . S
C589 C271 0.879 . S
C594 C33 0.879 . S
C619 C67 0.878 . S
C624 C305 0.878 . S
C649 C339 0.879 . S
C654 C101 0.879 . S
C679 C135 0.879 . S
C684 C373 0.879 . S
C709 C407 0.878 . S
C714 C169 0.878 . S
C739 C203 0.879 . S
C744 C237 0.879 . S
C769 C5 0.393 . S
C774 C107 0.393 . S
C799 C39 0.393 . S
C804 C141 0.393 . S
C829 C73 0.393 . S
C834 C175 0.393 . S
C859 C209 0.393 . S
C864 C311 0.393 . S
C889 C243 0.393 . S
C894 C345 0.393 . S
C919 C277 0.393 . S
C924 C379 0.393 . S
C949 C342 1.368 . S
C954 C2 1.368 . S
C979 C36 1.368 . S
C984 C376 1.368 . S
C1009 C206 1.368 . S
C1014 C70 1.368 . S
C1039 C104 1.369 . S
C1044 C240 1.369 . S
C1069 C274 1.368 . S
C1074 C138 1.368 . S
C1099 C172 1.369 . S
C1104 C308 1.369 . S
C1129 C20 1.784 . S
C1134 C292 1.784 . S
C1159 C54 1.784 . S
C1164 C326 1.784 . S
C1189 C360 1.784 . S
C1194 C88 1.784 . S
C1219 C394 1.784 . S
C1224 C122 1.784 . S
C1249 C156 1.784 . S
C1254 C224 1.784 . S
C1279 C190 1.783 . S
C1284 C258 1.783 . S
