# Generated by pormake.
# Topology vbm, (6)-cn, num edge types: 1
# Building blocks:
#     Node 0, Type 0, BuildingBlock: VOLQOD_clean_sbu_1, # of connection points: 6
#     Node 1, Type 0, BuildingBlock: VOLQOD_clean_sbu_1, # of connection points: 6
#     Node 2, Type 0, BuildingBlock: VOLQOD_clean_sbu_1, # of connection points: 6
#     Node 3, Type 0, BuildingBlock: VOLQOD_clean_sbu_1, # of connection points: 6
#     Node 4, Type 0, BuildingBlock: VOLQOD_clean_sbu_1, # of connection points: 6
#     Node 5, Type 0, BuildingBlock: VOLQOD_clean_sbu_1, # of connection points: 6
#     Node 6, Type 0, BuildingBlock: VOLQOD_clean_sbu_1, # of connection points: 6
#     Node 7, Type 0, BuildingBlock: VOLQOD_clean_sbu_1, # of connection points: 6
#     Node 8, Type 0, BuildingBlock: VOLQOD_clean_sbu_1, # of connection points: 6
#     Node 9, Type 0, BuildingBlock: VOLQOD_clean_sbu_1, # of connection points: 6
#     Node 10, Type 0, BuildingBlock: VOLQOD_clean_sbu_1, # of connection points: 6
#     Node 11, Type 0, BuildingBlock: VOLQOD_clean_sbu_1, # of connection points: 6
#     Node 12, Type 0, BuildingBlock: VOLQOD_clean_sbu_1, # of connection points: 6
#     Node 13, Type 0, BuildingBlock: VOLQOD_clean_sbu_1, # of connection points: 6
#     Node 14, Type 0, BuildingBlock: VOLQOD_clean_sbu_1, # of connection points: 6
#     Node 15, Type 0, BuildingBlock: VOLQOD_clean_sbu_1, # of connection points: 6
#     Edge 16, Type (0, 0), BuildingBlock: OJICUG_clean_linker_0, # of connection points: 2
#     Edge 17, Type (0, 0), BuildingBlock: OJICUG_clean_linker_0, # of connection points: 2
#     Edge 18, Type (0, 0), BuildingBlock: OJICUG_clean_linker_0, # of connection points: 2
#     Edge 19, Type (0, 0), BuildingBlock: OJICUG_clean_linker_0, # of connection points: 2
#     Edge 20, Type (0, 0), BuildingBlock: OJICUG_clean_linker_0, # of connection points: 2
#     Edge 21, Type (0, 0), BuildingBlock: OJICUG_clean_linker_0, # of connection points: 2
#     Edge 22, Type (0, 0), BuildingBlock: OJICUG_clean_linker_0, # of connection points: 2
#     Edge 23, Type (0, 0), BuildingBlock: OJICUG_clean_linker_0, # of connection points: 2
#     Edge 24, Type (0, 0), BuildingBlock: OJICUG_clean_linker_0, # of connection points: 2
#     Edge 25, Type (0, 0), BuildingBlock: OJICUG_clean_linker_0, # of connection points: 2
#     Edge 26, Type (0, 0), BuildingBlock: OJICUG_clean_linker_0, # of connection points: 2
#     Edge 27, Type (0, 0), BuildingBlock: OJICUG_clean_linker_0, # of connection points: 2
#     Edge 28, Type (0, 0), BuildingBlock: OJICUG_clean_linker_0, # of connection points: 2
#     Edge 29, Type (0, 0), BuildingBlock: OJICUG_clean_linker_0, # of connection points: 2
#     Edge 30, Type (0, 0), BuildingBlock: OJICUG_clean_linker_0, # of connection points: 2
#     Edge 31, Type (0, 0), BuildingBlock: OJICUG_clean_linker_0, # of connection points: 2
#     Edge 32, Type (0, 0), BuildingBlock: OJICUG_clean_linker_0, # of connection points: 2
#     Edge 33, Type (0, 0), BuildingBlock: OJICUG_clean_linker_0, # of connection points: 2
#     Edge 34, Type (0, 0), BuildingBlock: OJICUG_clean_linker_0, # of connection points: 2
#     Edge 35, Type (0, 0), BuildingBlock: OJICUG_clean_linker_0, # of connection points: 2
#     Edge 36, Type (0, 0), BuildingBlock: OJICUG_clean_linker_0, # of connection points: 2
#     Edge 37, Type (0, 0), BuildingBlock: OJICUG_clean_linker_0, # of connection points: 2
#     Edge 38, Type (0, 0), BuildingBlock: OJICUG_clean_linker_0, # of connection points: 2
#     Edge 39, Type (0, 0), BuildingBlock: OJICUG_clean_linker_0, # of connection points: 2
#     Edge 40, Type (0, 0), BuildingBlock: OJICUG_clean_linker_0, # of connection points: 2
#     Edge 41, Type (0, 0), BuildingBlock: OJICUG_clean_linker_0, # of connection points: 2
#     Edge 42, Type (0, 0), BuildingBlock: OJICUG_clean_linker_0, # of connection points: 2
#     Edge 43, Type (0, 0), BuildingBlock: OJICUG_clean_linker_0, # of connection points: 2
#     Edge 44, Type (0, 0), BuildingBlock: OJICUG_clean_linker_0, # of connection points: 2
#     Edge 45, Type (0, 0), BuildingBlock: OJICUG_clean_linker_0, # of connection points: 2
#     Edge 46, Type (0, 0), BuildingBlock: OJICUG_clean_linker_0, # of connection points: 2
#     Edge 47, Type (0, 0), BuildingBlock: OJICUG_clean_linker_0, # of connection points: 2
#     Edge 48, Type (0, 0), BuildingBlock: OJICUG_clean_linker_0, # of connection points: 2
#     Edge 49, Type (0, 0), BuildingBlock: OJICUG_clean_linker_0, # of connection points: 2
#     Edge 50, Type (0, 0), BuildingBlock: OJICUG_clean_linker_0, # of connection points: 2
#     Edge 51, Type (0, 0), BuildingBlock: OJICUG_clean_linker_0, # of connection points: 2
#     Edge 52, Type (0, 0), BuildingBlock: OJICUG_clean_linker_0, # of connection points: 2
#     Edge 53, Type (0, 0), BuildingBlock: OJICUG_clean_linker_0, # of connection points: 2
#     Edge 54, Type (0, 0), BuildingBlock: OJICUG_clean_linker_0, # of connection points: 2
#     Edge 55, Type (0, 0), BuildingBlock: OJICUG_clean_linker_0, # of connection points: 2
#     Edge 56, Type (0, 0), BuildingBlock: OJICUG_clean_linker_0, # of connection points: 2
#     Edge 57, Type (0, 0), BuildingBlock: OJICUG_clean_linker_0, # of connection points: 2
#     Edge 58, Type (0, 0), BuildingBlock: OJICUG_clean_linker_0, # of connection points: 2
#     Edge 59, Type (0, 0), BuildingBlock: OJICUG_clean_linker_0, # of connection points: 2
#     Edge 60, Type (0, 0), BuildingBlock: OJICUG_clean_linker_0, # of connection points: 2
#     Edge 61, Type (0, 0), BuildingBlock: OJICUG_clean_linker_0, # of connection points: 2
#     Edge 62, Type (0, 0), BuildingBlock: OJICUG_clean_linker_0, # of connection points: 2
#     Edge 63, Type (0, 0), BuildingBlock: OJICUG_clean_linker_0, # of connection points: 2
# Relax obj value: 0.099
# Max RMSD: 0.119
# Mean RMSD: 0.118
data_MOF--net-vbm--node1-VOLQOD_clean_sbu_1--edge1-OJICUG_clean_linker_0
_symmetry_space_group_name_H-M    P1
_symmetry_Int_Tables_number       1
_symmetry_cell_setting            triclinic
loop_
_symmetry_equiv_pos_as_xyz
'x, y, z'
_cell_length_a     49.330141
_cell_length_b     12.924174
_cell_length_c     52.016103
_cell_angle_alpha  90.006434
_cell_angle_beta   89.972906
_cell_angle_gamma 89.955249
loop_
_atom_site_label
_atom_site_type_symbol
_atom_site_fract_x
_atom_site_fract_y
_atom_site_fract_z
_atom_type_partial_charge
O0 O 0.108 0.25606 0.09311 0.0
Zn1 Zn 0.09852 0.10455 0.08832 0.0
O2 O 0.12146 0.02058 0.11033 0.0
Zn3 Zn 0.15009 0.95301 0.09024 0.0
Zn4 Zn 0.13704 0.10787 0.13627 0.0
Zn5 Zn 0.09962 0.92191 0.12831 0.0
O6 O 0.15053 0.7963 0.09744 0.0
O7 O 0.11363 0.78249 0.12194 0.0
O8 O 0.10508 0.06787 0.05139 0.0
O9 O 0.14176 0.96777 0.05279 0.0
O10 O 0.18606 0.02955 0.09547 0.0
O11 O 0.176 0.12199 0.13019 0.0
O12 O 0.1316 0.05698 0.1721 0.0
O13 O 0.05871 0.07406 0.09457 0.0
O14 O 0.0994 0.9395 0.16662 0.0
O15 O 0.06199 0.92528 0.11585 0.0
C16 C 0.11731 0.30328 0.11275 0.0
C17 C 0.13348 0.74204 0.11015 0.0
C18 C 0.19263 0.09433 0.11292 0.0
C19 C 0.12318 0.01381 0.04029 0.0
C20 C 0.11475 -0.00771 0.18115 0.0
C21 C 0.04806 -0.00765 0.1039 0.0
O22 O 0.12489 0.25433 0.13272 0.0
O23 O 0.87501 0.64961 0.09393 0.0
Zn24 Zn 0.88369 0.80077 0.08904 0.0
O25 O 0.86022 0.88421 0.11056 0.0
Zn26 Zn 0.83303 0.95776 0.08996 0.0
Zn27 Zn 0.84297 0.79595 0.13537 0.0
Zn28 Zn 0.88216 0.97843 0.12975 0.0
O29 O 0.83486 0.11283 0.09687 0.0
O30 O 0.86895 0.11986 0.12484 0.0
O31 O 0.87748 0.83608 0.05226 0.0
O32 O 0.84119 0.93857 0.05233 0.0
O33 O 0.79547 0.8971 0.0961 0.0
O34 O 0.80437 0.78071 0.12647 0.0
O35 O 0.84667 0.8467 0.17171 0.0
O36 O 0.92335 0.83199 0.09515 0.0
O37 O 0.88176 0.95265 0.16754 0.0
O38 O 0.92 0.97743 0.11768 0.0
C39 C 0.86531 0.60258 0.11339 0.0
C40 C 0.85075 0.16367 0.11153 0.0
C41 C 0.78812 0.82319 0.11079 0.0
C42 C 0.85989 0.89013 0.04051 0.0
C43 C 0.86483 0.90438 0.18146 0.0
C44 C 0.93398 0.9124 0.10512 0.0
O45 O 0.85624 0.65136 0.1328 0.0
O46 O 0.10827 0.65353 0.37597 0.0
Zn47 Zn 0.09914 0.80452 0.3809 0.0
O48 O 0.12321 0.88977 0.36036 0.0
Zn49 Zn 0.15019 0.95772 0.38232 0.0
Zn50 Zn 0.14104 0.80596 0.33481 0.0
Zn51 Zn 0.10155 -0.01131 0.34203 0.0
O52 O 0.14936 0.11407 0.3764 0.0
O53 O 0.11583 0.1281 0.34792 0.0
O54 O 0.10419 0.83664 0.4181 0.0
O55 O 0.14128 0.93426 0.41956 0.0
O56 O 0.18763 0.8958 0.37605 0.0
O57 O 0.18057 0.81009 0.3396 0.0
O58 O 0.13323 0.84873 0.29868 0.0
O59 O 0.05968 0.83635 0.37384 0.0
O60 O 0.10124 0.9675 0.30389 0.0
O61 O 0.06365 -0.0116 0.35429 0.0
C62 C 0.12129 0.60746 0.35815 0.0
C63 C 0.13418 0.1682 0.36177 0.0
C64 C 0.19623 0.84119 0.35731 0.0
C65 C 0.12191 0.88697 0.43063 0.0
C66 C 0.11609 0.91202 0.28947 0.0
C67 C 0.04933 0.91993 0.36528 0.0
O68 O 0.13255 0.657 0.33994 0.0
O69 O 0.87446 0.25783 0.3778 0.0
Zn70 Zn 0.88414 0.10629 0.38242 0.0
O71 O 0.86125 0.02299 0.36024 0.0
Zn72 Zn 0.8323 0.95603 0.38006 0.0
Zn73 Zn 0.84612 0.1115 0.33431 0.0
Zn74 Zn 0.88302 0.92387 0.34235 0.0
O75 O 0.83182 0.79907 0.37288 0.0
O76 O 0.86946 0.78456 0.34943 0.0
O77 O 0.87751 0.06838 0.41929 0.0
O78 O 0.84051 0.97022 0.41752 0.0
O79 O 0.79641 0.03383 0.37473 0.0
O80 O 0.80738 0.12894 0.34073 0.0
O81 O 0.85062 0.0587 0.29849 0.0
O82 O 0.92402 0.07656 0.376 0.0
O83 O 0.88213 0.9384 0.30403 0.0
O84 O 0.92096 0.9295 0.35397 0.0
C85 C 0.86586 0.30562 0.35796 0.0
C86 C 0.84935 0.7444 0.36084 0.0
C87 C 0.79036 0.10067 0.35758 0.0
C88 C 0.85918 0.01491 0.4302 0.0
C89 C 0.8668 -0.00865 0.28949 0.0
C90 C 0.93485 -0.00376 0.36607 0.0
O91 O 0.85909 0.25713 0.33765 0.0
O92 O 0.88517 0.64991 0.83913 0.0
Zn93 Zn 0.89019 0.80527 0.8351 0.0
O94 O 0.86625 0.87737 0.85933 0.0
Zn95 Zn 0.83815 0.95512 0.84111 0.0
Zn96 Zn 0.84851 0.78281 0.88231 0.0
Zn97 Zn 0.88798 0.96734 0.88052 0.0
O98 O 0.8423 0.10855 0.84816 0.0
O99 O 0.88128 0.11153 0.86982 0.0
O100 O 0.88109 0.84583 0.79863 0.0
O101 O 0.84388 0.94119 0.80343 0.0
O102 O 0.8001 0.89951 0.8476 0.0
O103 O 0.80916 0.78236 0.87752 0.0
O104 O 0.8541 0.81423 0.91931 0.0
O105 O 0.9296 0.84433 0.84062 0.0
O106 O 0.88048 0.95312 0.91832 0.0
O107 O 0.92724 0.94452 0.87526 0.0
C108 C 0.87196 0.59766 0.85577 0.0
C109 C 0.86227 0.15743 0.85795 0.0
C110 C 0.79251 0.82904 0.86313 0.0
C111 C 0.86168 0.89879 0.78926 0.0
C112 C 0.86672 0.88649 0.93067 0.0
C113 C 0.9409 0.89853 0.85803 0.0
O114 O 0.85862 0.6401 0.87378 0.0
O115 O 0.11393 0.24096 0.84091 0.0
Zn116 Zn 0.10497 0.08775 0.83703 0.0
O117 O 0.12886 0.00749 0.85924 0.0
Zn118 Zn 0.15691 0.93941 0.83902 0.0
Zn119 Zn 0.14846 0.09366 0.88279 0.0
Zn120 Zn 0.10837 0.9115 0.87936 0.0
O121 O 0.1588 0.78528 0.84823 0.0
O122 O 0.11933 0.77051 0.869 0.0
O123 O 0.11014 0.04361 0.80018 0.0
O124 O 0.14621 0.94073 0.80214 0.0
O125 O 0.19164 0.0257 0.84098 0.0
O126 O 0.18777 0.06545 0.88193 0.0
O127 O 0.13775 0.074 0.91919 0.0
O128 O 0.06547 0.0558 0.84448 0.0
O129 O 0.11282 0.93124 0.91756 0.0
O130 O 0.06915 0.92554 0.87222 0.0
C131 C 0.13074 0.28821 0.85547 0.0
C132 C 0.13978 0.73036 0.85792 0.0
C133 C 0.20108 0.06856 0.86113 0.0
C134 C 0.12733 0.98404 0.78947 0.0
C135 C 0.12445 0.00271 0.93022 0.0
C136 C 0.05487 -0.01438 0.85846 0.0
O137 O 0.14468 0.24069 0.87231 0.0
O138 O 0.86727 0.23436 0.629 0.0
Zn139 Zn 0.87617 0.08122 0.63312 0.0
O140 O 0.85218 0.00052 0.61118 0.0
Zn141 Zn 0.82416 0.9332 0.63161 0.0
Zn142 Zn 0.83244 0.08644 0.58768 0.0
Zn143 Zn 0.8726 0.90438 0.59096 0.0
O144 O 0.82233 0.77878 0.62263 0.0
O145 O 0.86131 0.7635 0.60105 0.0
O146 O 0.87091 0.03913 0.67005 0.0
O147 O 0.83481 0.93643 0.66854 0.0
O148 O 0.78937 0.01932 0.62933 0.0
O149 O 0.79328 0.05549 0.58822 0.0
O150 O 0.84352 0.06854 0.55136 0.0
O151 O 0.91565 0.04788 0.62583 0.0
O152 O 0.86849 0.92567 0.55276 0.0
O153 O 0.9118 0.91671 0.59838 0.0
C154 C 0.85001 0.28131 0.61484 0.0
C155 C 0.84104 0.72362 0.61245 0.0
C156 C 0.77991 0.0604 0.60896 0.0
C157 C 0.8537 0.98049 0.68101 0.0
C158 C 0.85697 -0.00219 0.54022 0.0
C159 C 0.92616 0.97669 0.61207 0.0
O160 O 0.8357 0.2335 0.59835 0.0
O161 O 0.09598 0.64039 0.63232 0.0
Zn162 Zn 0.0909 0.79592 0.63616 0.0
O163 O 0.11479 0.86731 0.61175 0.0
Zn164 Zn 0.1429 0.94541 0.62979 0.0
Zn165 Zn 0.13258 0.77233 0.58886 0.0
Zn166 Zn 0.09296 0.95705 0.59055 0.0
O167 O 0.13857 0.09858 0.62269 0.0
O168 O 0.09951 0.10155 0.60118 0.0
O169 O 0.09997 0.83808 0.67256 0.0
O170 O 0.13729 0.93238 0.66747 0.0
O171 O 0.181 0.89076 0.62309 0.0
O172 O 0.17207 0.77286 0.59332 0.0
O173 O 0.12662 0.80269 0.55183 0.0
O174 O 0.05143 0.8345 0.63058 0.0
O175 O 0.10044 0.94232 0.55277 0.0
O176 O 0.05372 0.93384 0.59579 0.0
C177 C 0.10922 0.5878 0.61576 0.0
C178 C 0.11856 0.14748 0.61298 0.0
C179 C 0.18869 0.82042 0.60756 0.0
C180 C 0.11944 0.89107 0.68177 0.0
C181 C 0.11402 0.87501 0.54044 0.0
C182 C 0.04009 0.88811 0.61307 0.0
O183 O 0.1226 0.62986 0.59772 0.0
O184 O 0.59425 0.81656 0.0974 0.0
Zn185 Zn 0.58699 0.66471 0.0919 0.0
O186 O 0.60978 0.58296 0.11435 0.0
Zn187 Zn 0.63691 0.5059 0.09453 0.0
Zn188 Zn 0.62754 0.67451 0.1378 0.0
Zn189 Zn 0.58775 0.49405 0.13539 0.0
O190 O 0.63358 0.35198 0.10198 0.0
O191 O 0.5992 0.35034 0.12978 0.0
O192 O 0.59477 0.63135 0.05522 0.0
O193 O 0.62996 0.52384 0.05667 0.0
O194 O 0.6748 0.56409 0.10049 0.0
O195 O 0.66522 0.69571 0.12651 0.0
O196 O 0.62769 0.62096 0.17393 0.0
O197 O 0.54758 0.62954 0.09677 0.0
O198 O 0.59153 0.51897 0.17337 0.0
O199 O 0.54919 0.49961 0.12471 0.0
C200 C 0.6028 0.86414 0.11725 0.0
C201 C 0.61698 0.30368 0.11649 0.0
C202 C 0.68171 0.64628 0.11239 0.0
C203 C 0.61235 0.57504 0.04411 0.0
C204 C 0.6105 0.56431 0.18547 0.0
C205 C 0.53605 0.55757 0.10942 0.0
O206 O 0.61196 0.81595 0.13669 0.0
O207 O 0.36127 0.21283 0.09035 0.0
Zn208 Zn 0.37243 0.36193 0.08453 0.0
O209 O 0.34947 0.45366 0.1042 0.0
Zn210 Zn 0.3221 0.51623 0.08236 0.0
Zn211 Zn 0.33131 0.37711 0.13086 0.0
Zn212 Zn 0.37096 0.55746 0.12012 0.0
O213 O 0.31821 0.67166 0.09024 0.0
O214 O 0.35498 0.69574 0.11441 0.0
O215 O 0.36756 0.39091 0.04691 0.0
O216 O 0.33396 0.50568 0.04545 0.0
O217 O 0.28813 0.42734 0.0869 0.0
O218 O 0.29202 0.40564 0.12889 0.0
O219 O 0.34401 0.41456 0.16627 0.0
O220 O 0.41206 0.39153 0.09263 0.0
O221 O 0.37414 0.53777 0.15815 0.0
O222 O 0.408 0.55453 0.10606 0.0
C223 C 0.34593 0.17064 0.10709 0.0
C224 C 0.33418 0.73053 0.10294 0.0
C225 C 0.27895 0.39222 0.10813 0.0
C226 C 0.35202 0.45115 0.03435 0.0
C227 C 0.36161 0.47963 0.17384 0.0
C228 C 0.42239 0.4793 0.09827 0.0
O229 O 0.33441 0.22379 0.12459 0.0
O230 O 0.62243 0.22396 0.37684 0.0
Zn231 Zn 0.61122 0.37292 0.38277 0.0
O232 O 0.63449 0.46491 0.36356 0.0
Zn233 Zn 0.6613 0.52731 0.38611 0.0
Zn234 Zn 0.65351 0.38873 0.33727 0.0
Zn235 Zn 0.61336 0.56856 0.34707 0.0
O236 O 0.6653 0.68273 0.37826 0.0
O237 O 0.62921 0.70684 0.35315 0.0
O238 O 0.61556 0.39999 0.42053 0.0
O239 O 0.64871 0.51615 0.42284 0.0
O240 O 0.69535 0.43791 0.38232 0.0
O241 O 0.69264 0.41889 0.34021 0.0
O242 O 0.64174 0.42571 0.30149 0.0
O243 O 0.57172 0.40338 0.37433 0.0
O244 O 0.61127 0.54857 0.30895 0.0
O245 O 0.57586 0.5654 0.36021 0.0
C246 C 0.63837 0.18192 0.36057 0.0
C247 C 0.6497 0.74159 0.36512 0.0
C248 C 0.70506 0.40347 0.36124 0.0
C249 C 0.63068 0.46025 0.43351 0.0
C250 C 0.62428 0.49066 0.29353 0.0
C251 C 0.5614 0.49067 0.36818 0.0
O252 O 0.65052 0.23523 0.3435 0.0
O253 O 0.38814 0.82371 0.36888 0.0
Zn254 Zn 0.39612 0.67262 0.37467 0.0
O255 O 0.37332 0.58914 0.35249 0.0
Zn256 Zn 0.34609 0.51553 0.37302 0.0
Zn257 Zn 0.35565 0.67672 0.32781 0.0
Zn258 Zn 0.39564 0.49634 0.33264 0.0
O259 O 0.34805 0.36082 0.36566 0.0
O260 O 0.38326 0.35444 0.33882 0.0
O261 O 0.38873 0.64102 0.41165 0.0
O262 O 0.35369 0.53308 0.41055 0.0
O263 O 0.30864 0.57859 0.36791 0.0
O264 O 0.31687 0.68821 0.33598 0.0
O265 O 0.35847 0.62452 0.29186 0.0
O266 O 0.43572 0.63905 0.36964 0.0
O267 O 0.39316 0.51581 0.29432 0.0
O268 O 0.43399 0.50189 0.34392 0.0
C269 C 0.37816 0.87075 0.34955 0.0
C270 C 0.36472 0.3103 0.35166 0.0
C271 C 0.30084 0.64845 0.35226 0.0
C272 C 0.37127 0.58476 0.42294 0.0
C273 C 0.37542 0.56403 0.28128 0.0
C274 C 0.44721 0.56376 0.35814 0.0
O275 O 0.36844 0.82212 0.3304 0.0
O276 O 0.36828 0.22559 0.83368 0.0
Zn277 Zn 0.37684 0.38046 0.83116 0.0
O278 O 0.35217 0.4583 0.8529 0.0
Zn279 Zn 0.32347 0.52261 0.83283 0.0
Zn280 Zn 0.33486 0.36812 0.87677 0.0
Zn281 Zn 0.37059 0.55747 0.87358 0.0
O282 O 0.32156 0.67903 0.84037 0.0
O283 O 0.36081 0.69695 0.86121 0.0
O284 O 0.37206 0.42658 0.79452 0.0
O285 O 0.33344 0.51553 0.79557 0.0
O286 O 0.28916 0.43546 0.83749 0.0
O287 O 0.2957 0.39996 0.87846 0.0
O288 O 0.34932 0.37956 0.91246 0.0
O289 O 0.41571 0.41558 0.84021 0.0
O290 O 0.36251 0.54347 0.91153 0.0
O291 O 0.41032 0.54152 0.86904 0.0
C292 C 0.35094 0.17713 0.84744 0.0
C293 C 0.34061 0.73548 0.84945 0.0
C294 C 0.28117 0.39397 0.85841 0.0
C295 C 0.35357 0.47851 0.78333 0.0
C296 C 0.35684 0.46141 0.92395 0.0
C297 C 0.42541 0.48371 0.85538 0.0
O298 O 0.337 0.22315 0.86451 0.0
O299 O 0.59609 0.82021 0.84252 0.0
Zn300 Zn 0.59076 0.66548 0.83785 0.0
O301 O 0.61376 0.59179 0.86258 0.0
Zn302 Zn 0.64192 0.51305 0.8448 0.0
Zn303 Zn 0.63149 0.68445 0.88613 0.0
Zn304 Zn 0.59118 0.50256 0.88315 0.0
O305 O 0.63826 0.36034 0.85284 0.0
O306 O 0.59835 0.35805 0.87298 0.0
O307 O 0.60047 0.62485 0.80144 0.0
O308 O 0.63627 0.52281 0.80706 0.0
O309 O 0.67965 0.57193 0.85055 0.0
O310 O 0.67091 0.68734 0.88098 0.0
O311 O 0.62546 0.65075 0.92308 0.0
O312 O 0.55112 0.62812 0.84238 0.0
O313 O 0.59716 0.51768 0.92114 0.0
O314 O 0.55216 0.52544 0.87661 0.0
C315 C 0.60854 0.87128 0.85988 0.0
C316 C 0.61794 0.31177 0.86208 0.0
C317 C 0.68736 0.64257 0.86597 0.0
C318 C 0.6193 0.56773 0.79249 0.0
C319 C 0.61145 0.58105 0.93398 0.0
C320 C 0.53916 0.57306 0.85922 0.0
O321 O 0.62113 0.82762 0.8782 0.0
O322 O 0.38478 0.81708 0.62509 0.0
Zn323 Zn 0.39047 0.66223 0.6298 0.0
O324 O 0.36797 0.58737 0.60491 0.0
Zn325 Zn 0.34015 0.50796 0.62301 0.0
Zn326 Zn 0.35048 0.68117 0.58148 0.0
Zn327 Zn 0.39041 0.50049 0.58347 0.0
O328 O 0.34465 0.35487 0.61545 0.0
O329 O 0.38115 0.35472 0.59016 0.0
O330 O 0.3809 0.62252 0.66625 0.0
O331 O 0.34541 0.51929 0.66076 0.0
O332 O 0.30236 0.56653 0.61688 0.0
O333 O 0.31136 0.69039 0.58855 0.0
O334 O 0.35454 0.64516 0.54443 0.0
O335 O 0.43021 0.62463 0.62532 0.0
O336 O 0.38654 0.52512 0.54564 0.0
O337 O 0.42916 0.51693 0.59198 0.0
C338 C 0.37523 0.86723 0.60598 0.0
C339 C 0.36292 0.30719 0.6027 0.0
C340 C 0.29484 0.64212 0.60283 0.0
C341 C 0.3622 0.56525 0.67528 0.0
C342 C 0.37056 0.58325 0.53312 0.0
C343 C 0.44211 0.56603 0.60914 0.0
O344 O 0.36406 0.82248 0.58702 0.0
O345 O 0.61352 0.2218 0.63445 0.0
Zn346 Zn 0.60481 0.37647 0.637 0.0
O347 O 0.62929 0.45428 0.61506 0.0
Zn348 Zn 0.65797 0.5188 0.63506 0.0
Zn349 Zn 0.64656 0.36435 0.59098 0.0
Zn350 Zn 0.61061 0.55382 0.5947 0.0
O351 O 0.66004 0.67491 0.62725 0.0
O352 O 0.62029 0.693 0.60727 0.0
O353 O 0.60958 0.4232 0.67361 0.0
O354 O 0.64795 0.51333 0.67231 0.0
O355 O 0.69216 0.43066 0.63073 0.0
O356 O 0.68589 0.39365 0.58979 0.0
O357 O 0.63258 0.37864 0.55511 0.0
O358 O 0.56586 0.41068 0.62811 0.0
O359 O 0.61867 0.54171 0.55671 0.0
O360 O 0.57091 0.537 0.59934 0.0
C361 C 0.6304 0.17308 0.62023 0.0
C362 C 0.64075 0.73143 0.61863 0.0
C363 C 0.70023 0.38795 0.60999 0.0
C364 C 0.62794 0.47615 0.68467 0.0
C365 C 0.62481 0.46096 0.54395 0.0
C366 C 0.55598 0.47874 0.61302 0.0
O367 O 0.64395 0.21892 0.60286 0.0
C368 C 0.22774 0.18907 0.08723 0.0
C369 C 0.21767 0.15611 0.11115 0.0
H370 H 0.25453 0.29274 0.06731 0.0
C371 C 0.22781 0.20165 0.13367 0.0
H372 H 0.21979 0.15694 0.06954 0.0
C373 C 0.24685 0.28068 0.13241 0.0
C374 C 0.25652 0.31624 0.10858 0.0
H375 H 0.22021 0.17869 0.15237 0.0
H376 H 0.25396 0.31407 0.15028 0.0
C377 C 0.24703 0.26871 0.08595 0.0
C378 C 0.75769 0.67043 0.10993 0.0
C379 C 0.76087 0.77857 0.10866 0.0
H380 H 0.72986 0.54296 0.11137 0.0
C381 C 0.73797 0.8419 0.10663 0.0
H382 H 0.77522 0.6201 0.11125 0.0
C383 C 0.71215 0.79785 0.10734 0.0
C384 C 0.70897 0.68986 0.10928 0.0
H385 H 0.74001 0.92526 0.10561 0.0
H386 H 0.6946 0.8483 0.10668 0.0
C387 C 0.7319 0.6262 0.10985 0.0
C388 C 0.26068 0.70742 0.37785 0.0
C389 C 0.27349 0.6932 0.35398 0.0
H390 H 0.22627 0.77045 0.39781 0.0
C391 C 0.26151 0.73406 0.33172 0.0
H392 H 0.26986 0.67837 0.39534 0.0
C393 C 0.23693 0.78652 0.33314 0.0
C394 C 0.22407 0.80112 0.35691 0.0
H395 H 0.27113 0.72512 0.31311 0.0
H396 H 0.22778 0.8148 0.31555 0.0
C397 C 0.23618 0.76201 0.37934 0.0
C398 C 0.7552 0.19713 0.38289 0.0
C399 C 0.76542 0.16321 0.3591 0.0
H400 H 0.72857 0.30278 0.40244 0.0
C401 C 0.75566 0.20886 0.33645 0.0
H402 H 0.76288 0.16493 0.40068 0.0
C403 C 0.73691 0.28905 0.33743 0.0
C404 C 0.72712 0.32568 0.36113 0.0
H405 H 0.76339 0.18517 0.31785 0.0
H406 H 0.73015 0.32254 0.31945 0.0
C407 C 0.73616 0.2779 0.3839 0.0
C408 C 0.72747 0.71699 0.88772 0.0
C409 C 0.71502 0.68399 0.86491 0.0
H410 H 0.76187 0.79036 0.90485 0.0
C411 C 0.72744 0.70539 0.84119 0.0
H412 H 0.71802 0.70269 0.9062 0.0
C413 C 0.75199 0.75961 0.84038 0.0
C414 C 0.76455 0.79093 0.8633 0.0
H415 H 0.71782 0.68272 0.82334 0.0
H416 H 0.76159 0.77385 0.82198 0.0
C417 C 0.75221 0.76857 0.88694 0.0
C418 C 0.24919 0.27319 0.83541 0.0
C419 C 0.25918 0.31593 0.85843 0.0
H420 H 0.22352 0.15862 0.81804 0.0
C421 C 0.25108 0.27189 0.8819 0.0
H422 H 0.25544 0.30396 0.81698 0.0
C423 C 0.23364 0.18741 0.88247 0.0
C424 C 0.22342 0.14478 0.8596 0.0
H425 H 0.25857 0.30175 0.90002 0.0
H426 H 0.22772 0.15675 0.90103 0.0
C427 C 0.23145 0.18832 0.83599 0.0
C428 C 0.73004 0.26269 0.58712 0.0
C429 C 0.72209 0.30923 0.61036 0.0
H430 H 0.75322 0.14519 0.56863 0.0
C431 C 0.73209 0.26845 0.63359 0.0
H432 H 0.72253 0.29093 0.56885 0.0
C433 C 0.74974 0.18316 0.63346 0.0
C434 C 0.75765 0.1372 0.6101 0.0
H435 H 0.72595 0.30116 0.65186 0.0
H436 H 0.7577 0.15503 0.65156 0.0
C437 C 0.74739 0.17779 0.58701 0.0
C438 C 0.2295 0.74961 0.62957 0.0
C439 C 0.21684 0.78454 0.60701 0.0
H440 H 0.26403 0.67199 0.64578 0.0
C441 C 0.22945 0.76839 0.58319 0.0
H442 H 0.21969 0.75907 0.64806 0.0
C443 C 0.25457 0.71947 0.58189 0.0
C444 C 0.26709 0.68271 0.60431 0.0
H445 H 0.21972 0.793 0.56554 0.0
H446 H 0.26419 0.70977 0.5633 0.0
C447 C 0.2544 0.69785 0.6282 0.0
C448 C 0.09053 0.94246 0.2488 0.0
C449 C 0.1153 0.92873 0.26163 0.0
H450 H 0.07095 0.97107 0.21262 0.0
C451 C 0.13968 0.93628 0.24791 0.0
H452 H 0.07152 0.93718 0.25916 0.0
C453 C 0.13938 0.95942 0.22176 0.0
C454 C 0.11467 0.97191 0.20883 0.0
H455 H 0.159 0.92695 0.25754 0.0
H456 H 0.15845 0.9659 0.21154 0.0
C457 C 0.0902 0.9619 0.22237 0.0
C458 C 0.89071 0.94935 0.24865 0.0
C459 C 0.86648 0.96912 0.26187 0.0
H460 H 0.90913 0.91497 0.21228 0.0
C461 C 0.84168 0.96402 0.24873 0.0
H462 H 0.91003 0.95261 0.25852 0.0
C463 C 0.84109 0.93878 0.22267 0.0
C464 C 0.86536 0.92167 0.20928 0.0
H465 H 0.82274 0.97795 0.25871 0.0
H466 H 0.82176 0.93552 0.21282 0.0
C467 C 0.89019 0.92767 0.22236 0.0
C468 C 0.8815 0.95365 0.72053 0.0
C469 C 0.85597 0.9602 0.7087 0.0
H470 H 0.90335 0.92544 0.7555 0.0
C471 C 0.8325 0.94334 0.72335 0.0
H472 H 0.89988 0.96534 0.7095 0.0
C473 C 0.83447 0.92251 0.74956 0.0
C474 C 0.85996 0.91518 0.76139 0.0
H475 H 0.8126 0.94782 0.71461 0.0
H476 H 0.81604 0.9116 0.76058 0.0
C477 C 0.8835 0.9298 0.74667 0.0
C478 C 0.14852 0.94196 0.74742 0.0
C479 C 0.12505 0.96119 0.7619 0.0
H480 H 0.16501 0.90532 0.71048 0.0
C481 C 0.09953 0.95373 0.75008 0.0
H482 H 0.16842 0.94699 0.75615 0.0
C483 C 0.09755 0.92672 0.72413 0.0
C484 C 0.1211 0.90973 0.70957 0.0
H485 H 0.08115 0.96712 0.761 0.0
H486 H 0.07771 0.92188 0.71529 0.0
C487 C 0.14658 0.9179 0.72138 0.0
C488 C 0.64294 0.50589 0.24934 0.0
C489 C 0.62039 0.50493 0.26578 0.0
H490 H 0.65739 0.529 0.21094 0.0
C491 C 0.59445 0.5235 0.2557 0.0
H492 H 0.66316 0.49276 0.2568 0.0
C493 C 0.59107 0.54153 0.2294 0.0
C494 C 0.61373 0.54515 0.21311 0.0
H495 H 0.57681 0.52332 0.26812 0.0
H496 H 0.57088 0.55469 0.22188 0.0
C497 C 0.63968 0.52754 0.22326 0.0
C498 C 0.39512 0.53615 0.23757 0.0
C499 C 0.37246 0.54115 0.25383 0.0
H500 H 0.40929 0.51457 0.19889 0.0
C501 C 0.34655 0.52161 0.24386 0.0
H502 H 0.41528 0.55063 0.245 0.0
C503 C 0.34326 0.49722 0.21797 0.0
C504 C 0.36574 0.49533 0.20149 0.0
H505 H 0.32885 0.52402 0.2562 0.0
H506 H 0.32303 0.48305 0.21066 0.0
C507 C 0.39171 0.51538 0.21138 0.0
C508 C 0.33252 0.51083 0.74061 0.0
C509 C 0.35593 0.50034 0.75569 0.0
H510 H 0.3163 0.53877 0.70311 0.0
C511 C 0.38151 0.51469 0.74434 0.0
H512 H 0.31258 0.50035 0.74897 0.0
C513 C 0.3836 0.53974 0.71828 0.0
C514 C 0.36017 0.54787 0.70312 0.0
H515 H 0.39984 0.50808 0.75569 0.0
H516 H 0.4035 0.55004 0.70986 0.0
C517 C 0.33464 0.53292 0.71446 0.0
C518 C 0.59785 0.53933 0.74961 0.0
C519 C 0.62129 0.54925 0.76469 0.0
H520 H 0.58162 0.50503 0.71234 0.0
C521 C 0.64683 0.53477 0.75332 0.0
H522 H 0.57793 0.5492 0.75806 0.0
C523 C 0.64896 0.51137 0.72724 0.0
C524 C 0.62555 0.4991 0.71226 0.0
H525 H 0.66519 0.54196 0.76461 0.0
H526 H 0.66891 0.50132 0.71888 0.0
C527 C 0.59995 0.51299 0.72362 0.0
C528 C 0.09933 -0.01083 0.97166 0.0
C529 C 0.12385 0.00104 0.95833 0.0
H530 H 0.07985 -0.01301 0.00857 0.0
C531 C 0.14806 0.0147 0.97203 0.0
H532 H 0.08046 0.97897 0.96131 0.0
C533 C 0.14784 0.01604 -0.0012 0.0
C534 C 0.12328 0.00735 0.01218 0.0
H535 H 0.16717 0.02372 0.962 0.0
H536 H 0.16677 0.02663 0.00903 0.0
C537 C 0.09899 -0.00578 -0.0015 0.0
C538 C 0.88813 0.91079 0.97349 0.0
C539 C 0.86485 0.89342 0.95869 0.0
H540 H 0.90475 0.92076 0.01148 0.0
C541 C 0.83972 0.87937 0.97087 0.0
H542 H 0.90768 0.92147 0.96437 0.0
C543 C 0.83789 0.88234 -0.00238 0.0
C544 C 0.86134 0.89572 0.01244 0.0
H545 H 0.82151 0.86631 0.95968 0.0
H546 H 0.81837 0.87068 0.00673 0.0
C547 C 0.88646 0.91006 0.00026 0.0
C548 C 0.09485 0.903 0.47075 0.0
C549 C 0.12006 0.88878 0.45872 0.0
H550 H 0.07333 0.91273 0.50653 0.0
C551 C 0.1433 0.87276 0.47368 0.0
H552 H 0.0767 0.9157 0.45944 0.0
C553 C 0.14122 0.86769 0.50038 0.0
C554 C 0.11603 0.88218 0.51243 0.0
H555 H 0.16289 0.86115 0.46469 0.0
H556 H 0.1593 0.85313 0.51165 0.0
C557 C 0.09292 0.9016 0.49752 0.0
C558 C 0.88245 -0.01385 0.49893 0.0
C559 C 0.85783 -0.00233 0.51211 0.0
H560 H 0.90225 -0.01424 0.46216 0.0
C561 C 0.83376 0.01276 0.49828 0.0
H562 H 0.90122 0.97491 0.50938 0.0
C563 C 0.83422 0.01581 0.47153 0.0
C564 C 0.85888 0.00737 0.4583 0.0
H565 H 0.81457 0.02158 0.50819 0.0
H566 H 0.81538 0.02739 0.4612 0.0
C567 C 0.88304 -0.00714 0.47211 0.0
C568 C 0.63668 0.58104 0.0023 0.0
C569 C 0.61235 0.57053 0.01598 0.0
H570 H 0.65526 0.59535 0.9652 0.0
C571 C 0.58782 0.56002 0.00259 0.0
H572 H 0.65578 0.58979 0.01235 0.0
C573 C 0.58761 0.55994 0.97577 0.0
C574 C 0.61182 0.57416 0.96209 0.0
H575 H 0.56884 0.55167 0.0129 0.0
H576 H 0.56848 0.55205 0.96573 0.0
C577 C 0.63636 0.58469 0.97549 0.0
C578 C 0.35027 0.55067 0.96605 0.0
C579 C 0.35756 0.46161 0.95221 0.0
H580 H 0.34221 0.61641 0.00312 0.0
C581 C 0.36394 0.37047 0.96559 0.0
H582 H 0.34509 0.62165 0.95611 0.0
C583 C 0.36286 0.36808 -0.00762 0.0
C584 C 0.35463 0.45596 0.00619 0.0
H585 H 0.36966 0.30086 0.95531 0.0
H586 H 0.36768 0.29655 0.00223 0.0
C587 C 0.34844 0.54745 -0.00716 0.0
C588 C 0.61976 0.37323 0.47497 0.0
C589 C 0.62774 0.46271 0.46168 0.0
H590 H 0.61294 0.30244 0.51162 0.0
C591 C 0.63346 0.5533 0.47556 0.0
H592 H 0.61531 0.30231 0.4647 0.0
C593 C 0.6314 0.55409 0.50237 0.0
C594 C 0.62436 0.46348 0.51567 0.0
H595 H 0.63952 0.62342 0.46571 0.0
H596 H 0.63622 0.62445 0.51272 0.0
C597 C 0.61845 0.37321 0.50176 0.0
C598 C 0.39538 0.57384 0.49158 0.0
C599 C 0.37075 0.58001 0.50497 0.0
H600 H 0.41481 0.57327 0.45469 0.0
C601 C 0.34629 0.58559 0.49129 0.0
H602 H 0.41446 0.56998 0.50184 0.0
C603 C 0.34644 0.58428 0.46448 0.0
C604 C 0.37111 0.58102 0.45108 0.0
H605 H 0.32708 0.59011 0.50134 0.0
H606 H 0.32736 0.58851 0.45423 0.0
C607 C 0.39558 0.57617 0.46476 0.0
C608 C 0.97265 0.03513 0.10242 0.0
C609 C 0.96307 0.93259 0.10221 0.0
H610 H 0.00735 0.13481 0.10252 0.0
C611 C 0.98155 0.85067 0.10041 0.0
H612 H 0.95868 0.09972 0.1035 0.0
C613 C 0.00929 0.87085 0.10028 0.0
C614 C 0.01889 0.97325 0.10134 0.0
H615 H 0.97462 0.77115 0.10016 0.0
H616 H 0.02328 0.80619 0.09975 0.0
C617 C 0.00039 0.05539 0.10169 0.0
C618 C 0.98241 0.06057 0.36897 0.0
C619 C 0.96411 0.97786 0.36836 0.0
H620 H 0.02404 0.10648 0.36813 0.0
C621 C 0.97399 0.87572 0.36849 0.0
H622 H 0.97524 0.13983 0.36888 0.0
C623 C 0.00178 0.85647 0.36848 0.0
C624 C 0.0201 0.93912 0.36777 0.0
H625 H 0.96019 0.81053 0.36828 0.0
H626 H 0.00889 0.77715 0.36808 0.0
C627 C 0.01023 0.04132 0.36839 0.0
C628 C 0.01208 0.94379 0.88113 0.0
C629 C 0.02549 0.96839 0.85815 0.0
H630 H 0.97451 0.90272 0.89899 0.0
C631 C 0.01116 0.96627 0.83485 0.0
H632 H 0.02286 0.94414 0.89928 0.0
C633 C 0.98375 0.93856 0.83457 0.0
C634 C 0.97029 0.91558 0.85767 0.0
H635 H 0.0213 0.98339 0.81687 0.0
H636 H 0.97291 0.93778 0.81646 0.0
C637 C 0.9846 0.91929 0.88094 0.0
C638 C 0.96981 0.95791 0.63586 0.0
C639 C 0.95551 0.95838 0.61254 0.0
H640 H 0.00804 0.93054 0.65443 0.0
C641 C 0.96892 0.93155 0.58971 0.0
H642 H 0.95967 0.97677 0.65374 0.0
C643 C -0.00361 0.90669 0.59005 0.0
C644 C 0.01068 0.90486 0.61335 0.0
H645 H 0.95817 0.93062 0.57154 0.0
H646 H 0.0065 0.88857 0.5721 0.0
C647 C -0.00279 0.92985 0.63631 0.0
C648 C 0.46231 0.5936 0.09281 0.0
C649 C 0.45183 0.49467 0.09798 0.0
H650 H 0.49735 0.69108 0.09227 0.0
C651 C 0.46932 0.41544 0.10585 0.0
H652 H 0.4491 0.65593 0.08669 0.0
C653 C 0.49677 0.43629 0.10967 0.0
C654 C 0.50715 0.53608 0.10516 0.0
H655 H 0.46161 0.33893 0.11017 0.0
H656 H 0.50985 0.37438 0.11627 0.0
C657 C 0.48982 0.61388 0.0961 0.0
C658 C 0.48677 0.44365 0.35896 0.0
C659 C 0.47625 0.54408 0.36221 0.0
H660 H 0.52213 0.34718 0.35907 0.0
C661 C 0.49365 0.62453 0.36949 0.0
H662 H 0.47367 0.37982 0.35371 0.0
C663 C 0.52132 0.60586 0.37231 0.0
C664 C 0.53192 0.50604 0.36843 0.0
H665 H 0.48603 0.70237 0.37228 0.0
H666 H 0.53452 0.66997 0.37713 0.0
C667 C 0.51438 0.42454 0.36232 0.0
C668 C 0.46714 0.52635 0.87974 0.0
C669 C 0.45472 0.50236 0.85623 0.0
H670 H 0.50394 0.56722 0.89901 0.0
C671 C 0.46997 0.50597 0.83346 0.0
H672 H 0.45564 0.52487 0.89749 0.0
C673 C 0.49732 0.53424 0.83421 0.0
C674 C 0.50981 0.55629 0.85782 0.0
H675 H 0.46061 0.48938 0.81508 0.0
H676 H 0.50887 0.53594 0.8165 0.0
C677 C 0.49459 0.55138 0.88058 0.0
C678 C 0.48663 0.54358 0.58785 0.0
C679 C 0.47146 0.54916 0.61062 0.0
H680 H 0.52558 0.51724 0.57091 0.0
C681 C 0.48402 0.52832 0.63426 0.0
H682 H 0.47722 0.55856 0.56939 0.0
C683 C 0.51142 0.50067 0.63502 0.0
C684 C 0.52663 0.49652 0.61222 0.0
H685 H 0.47249 0.53066 0.65198 0.0
H686 H 0.52087 0.48507 0.65341 0.0
C687 C 0.51412 0.51917 0.58868 0.0
C688 C 0.13258 0.57244 0.08746 0.0
C689 C 0.13461 0.62866 0.11044 0.0
H690 H 0.12454 0.42494 0.07011 0.0
C691 C 0.13124 0.57739 0.13399 0.0
H692 H 0.13436 0.61125 0.06907 0.0
C693 C 0.12549 0.47191 0.13465 0.0
C694 C 0.12236 0.41584 0.11172 0.0
H695 H 0.13214 0.61995 0.15193 0.0
H696 H 0.12286 0.43478 0.15316 0.0
C697 C 0.12631 0.46672 0.08808 0.0
C698 C 0.85494 0.3281 0.13529 0.0
C699 C 0.85053 0.27685 0.11189 0.0
H700 H 0.86333 0.47164 0.15403 0.0
C701 C 0.85098 0.33301 0.08884 0.0
H702 H 0.85504 0.28564 0.15326 0.0
C703 C 0.85669 0.43896 0.08918 0.0
C704 C 0.86146 0.48993 0.11263 0.0
H705 H 0.8482 0.29425 0.07056 0.0
H706 H 0.85712 0.48106 0.07118 0.0
C707 C 0.86004 0.43393 0.13569 0.0
C708 C 0.13558 0.3329 0.33795 0.0
C709 C 0.13567 0.28117 0.36164 0.0
H710 H 0.13085 0.47698 0.31832 0.0
C711 C 0.13148 0.33714 0.38438 0.0
H712 H 0.13828 0.29043 0.32016 0.0
C713 C 0.12622 0.44343 0.38329 0.0
C714 C 0.12561 0.49491 0.35948 0.0
H715 H 0.13082 0.29788 0.40277 0.0
H716 H 0.12265 0.48523 0.40103 0.0
C717 C 0.13096 0.43908 0.33689 0.0
C718 C 0.85651 0.46878 0.38273 0.0
C719 C 0.86064 0.41819 0.35907 0.0
H720 H 0.84828 0.61307 0.40184 0.0
C721 C 0.85759 0.47461 0.33618 0.0
H722 H 0.85822 0.4268 0.40068 0.0
C723 C 0.85172 0.58004 0.33691 0.0
C724 C 0.84819 0.63101 0.36049 0.0
H725 H 0.86036 0.43782 0.31765 0.0
H726 H 0.85089 0.62285 0.31901 0.0
C727 C 0.85016 0.57449 0.38343 0.0
C728 C 0.84123 0.33224 0.85618 0.0
C729 C 0.86437 0.26983 0.85492 0.0
H730 H 0.82586 0.48691 0.85775 0.0
C731 C 0.89003 0.31578 0.85176 0.0
H732 H 0.82131 0.29833 0.85856 0.0
C733 C 0.89259 0.42317 0.8506 0.0
C734 C 0.86959 0.48541 0.85333 0.0
H735 H 0.90814 0.26856 0.85046 0.0
H736 H 0.91253 0.45746 0.84877 0.0
C737 C 0.84388 0.43952 0.85577 0.0
C738 C 0.11244 0.4636 0.84578 0.0
C739 C 0.1342 0.40109 0.85334 0.0
H740 H 0.09739 0.61781 0.84162 0.0
C741 C 0.15898 0.44778 0.86025 0.0
H742 H 0.09319 0.42971 0.84035 0.0
C743 C 0.1616 0.55562 0.86044 0.0
C744 C 0.13925 0.6177 0.85433 0.0
H745 H 0.1762 0.40091 0.8659 0.0
H746 H 0.18054 0.59024 0.86648 0.0
C747 C 0.11485 0.57096 0.84659 0.0
C748 C 0.86608 0.56397 0.6234 0.0
C749 C 0.84157 0.61093 0.61599 0.0
H750 H 0.8878 0.4226 0.62936 0.0
C751 C 0.81912 0.54904 0.6102 0.0
H752 H 0.88363 0.61066 0.62813 0.0
C753 C 0.82171 0.44115 0.61037 0.0
C754 C 0.84658 0.39426 0.61695 0.0
H755 H 0.80009 0.58384 0.60442 0.0
H756 H 0.8044 0.39441 0.60497 0.0
C757 C 0.86848 0.45661 0.62419 0.0
C758 C 0.09081 0.30626 0.61899 0.0
C759 C 0.11647 0.25989 0.61608 0.0
H760 H 0.06841 0.44833 0.62198 0.0
C761 C 0.13968 0.32188 0.61534 0.0
H762 H 0.07262 0.2594 0.61991 0.0
C763 C 0.13714 0.42919 0.616 0.0
C764 C 0.11146 0.47552 0.61818 0.0
H765 H 0.15962 0.28768 0.61318 0.0
H766 H 0.15524 0.47627 0.61437 0.0
C767 C 0.08834 0.41367 0.62038 0.0
C768 C 0.60492 0.03315 0.13981 0.0
C769 C 0.60568 0.97709 0.11675 0.0
H770 H 0.60825 0.18154 0.15769 0.0
C771 C 0.61207 0.02827 0.09369 0.0
H772 H 0.60035 -0.00489 0.15786 0.0
C773 C 0.61755 0.13432 0.09373 0.0
C774 C 0.61611 0.19048 0.11675 0.0
H775 H 0.61332 -0.01396 0.07573 0.0
H776 H 0.62191 0.17296 0.07572 0.0
C777 C 0.60975 0.1392 0.13976 0.0
C778 C 0.3284 0.89605 0.12633 0.0
C779 C 0.3309 0.84341 0.10286 0.0
H780 H 0.33093 0.04128 0.14604 0.0
C781 C 0.33708 0.89938 0.08052 0.0
H782 H 0.32435 0.8537 0.1439 0.0
C783 C 0.34192 0.00597 0.08187 0.0
C784 C 0.34023 0.05841 0.10552 0.0
H785 H 0.33986 0.85969 0.06236 0.0
H786 H 0.34739 0.04703 0.06447 0.0
C787 C 0.33256 0.00292 0.12759 0.0
C788 C 0.6417 0.01738 0.38591 0.0
C789 C 0.64399 0.06964 0.36228 0.0
H790 H 0.64316 0.87122 0.40551 0.0
C791 C 0.65212 0.01388 0.34039 0.0
H792 H 0.63587 0.05866 0.40318 0.0
C793 C 0.65612 0.9069 0.34177 0.0
C794 C 0.65302 0.85445 0.36521 0.0
H795 H 0.65422 0.05213 0.32197 0.0
H796 H 0.66054 0.86435 0.32431 0.0
C797 C 0.6464 0.91071 0.38739 0.0
C798 C 0.36991 0.03445 0.37377 0.0
C799 C 0.37475 0.98357 0.35031 0.0
H800 H 0.36161 0.17922 0.39246 0.0
C801 C 0.37388 0.03999 0.3273 0.0
H802 H 0.36996 -0.008 0.39172 0.0
C803 C 0.3692 0.14615 0.32778 0.0
C804 C 0.36458 0.19717 0.35119 0.0
H805 H 0.37727 0.00229 0.30897 0.0
H806 H 0.36965 0.18895 0.30986 0.0
C807 C 0.36456 0.14065 0.37417 0.0
C808 C 0.36569 0.89381 0.83716 0.0
C809 C 0.3412 0.84787 0.84502 0.0
H810 H 0.38784 0.03432 0.83122 0.0
C811 C 0.31905 0.91094 0.85116 0.0
H812 H 0.38304 0.84626 0.83222 0.0
C813 C 0.32201 0.0187 0.85111 0.0
C814 C 0.34697 0.06459 0.84437 0.0
H815 H 0.30005 0.87711 0.85735 0.0
H816 H 0.30496 0.06613 0.85698 0.0
C817 C 0.36846 0.00121 0.83653 0.0
C818 C 0.63905 0.13704 0.86241 0.0
C819 C 0.61607 0.19927 0.85938 0.0
H820 H 0.65429 0.98253 0.86532 0.0
C821 C 0.59071 0.15317 0.85465 0.0
H822 H 0.65874 0.17116 0.86603 0.0
C823 C 0.58825 0.04575 0.85357 0.0
C824 C 0.611 0.98367 0.85795 0.0
H825 H 0.57275 0.20031 0.85199 0.0
H826 H 0.56852 0.01135 0.85037 0.0
C827 C 0.63644 0.02974 0.86208 0.0
C828 C 0.36549 0.03408 0.62812 0.0
C829 C 0.37435 0.9804 0.60621 0.0
H830 H 0.35375 0.18107 0.64387 0.0
C831 C 0.37854 0.03419 0.58315 0.0
H832 H 0.3616 -0.00669 0.64594 0.0
C833 C 0.37417 0.14036 0.58198 0.0
C834 C 0.36483 0.19411 0.60368 0.0
H835 H 0.38503 -0.00619 0.56595 0.0
H836 H 0.37794 0.18048 0.56404 0.0
C837 C 0.36045 0.14047 0.62678 0.0
C838 C 0.66222 0.90666 0.61608 0.0
C839 C 0.64029 0.84385 0.62298 0.0
H840 H 0.67607 0.0616 0.60956 0.0
C841 C 0.61602 0.89007 0.63139 0.0
H842 H 0.68103 0.87259 0.60943 0.0
C843 C 0.61323 -0.00251 0.63186 0.0
C844 C 0.63445 0.06055 0.62329 0.0
H845 H 0.59885 0.8427 0.63689 0.0
H846 H 0.59401 0.03082 0.63764 0.0
C847 C 0.65922 0.01441 0.61597 0.0
loop_
_geom_bond_atom_site_label_1
_geom_bond_atom_site_label_2
_geom_bond_distance
_geom_bond_site_symmetry_2
_ccdc_geom_bond_type
O0 Zn1 1.953 . S
O0 C16 1.225 . S
Zn1 O0 1.953 . S
Zn1 O2 1.949 . S
Zn1 O8 1.919 . S
Zn1 O13 1.924 . S
O2 Zn1 1.949 . S
O2 Zn3 1.923 1_545 S
O2 Zn4 1.950 . S
O2 Zn5 1.945 1_545 S
Zn3 O2 1.923 1_565 S
Zn3 O6 1.933 . S
Zn3 O9 1.941 1_565 S
Zn3 O10 1.965 1_565 S
Zn4 O2 1.950 . S
Zn4 O11 1.938 . S
Zn4 O12 1.906 . S
Zn4 O22 1.953 . S
Zn5 O2 1.945 1_565 S
Zn5 O7 1.932 . S
Zn5 O14 1.977 . S
Zn5 O15 1.910 . S
O6 Zn3 1.933 . S
O6 C17 1.226 . S
O7 Zn5 1.932 . S
O7 C17 1.307 . S
O8 Zn1 1.919 . S
O8 C19 1.253 . S
O9 Zn3 1.941 1_545 S
O9 C19 1.284 . S
O10 Zn3 1.965 1_545 S
O10 C18 1.303 . S
O11 Zn4 1.938 . S
O11 C18 1.247 . S
O12 Zn4 1.906 . S
O12 C20 1.304 . S
O13 Zn1 1.924 . S
O13 C21 1.311 . S
O14 Zn5 1.977 . S
O14 C20 1.272 1_565 S
O15 Zn5 1.910 . S
O15 C21 1.231 1_565 S
C16 O0 1.225 . S
C16 O22 1.298 . S
C17 O6 1.226 . S
C17 O7 1.307 . S
C18 O10 1.303 . S
C18 O11 1.247 . S
C19 O8 1.253 . S
C19 O9 1.284 . S
C20 O12 1.304 . S
C20 O14 1.272 1_545 S
C21 O13 1.311 . S
C21 O15 1.231 1_545 S
O22 Zn4 1.953 . S
O22 C16 1.298 . S
O23 Zn24 1.953 . S
O23 C39 1.225 . S
Zn24 O23 1.953 . S
Zn24 O25 1.949 . S
Zn24 O31 1.919 . S
Zn24 O36 1.924 . S
O25 Zn24 1.949 . S
O25 Zn26 1.923 1_565 S
O25 Zn27 1.950 . S
O25 Zn28 1.945 1_565 S
Zn26 O25 1.923 1_545 S
Zn26 O29 1.933 . S
Zn26 O32 1.941 1_545 S
Zn26 O33 1.965 1_545 S
Zn27 O25 1.950 . S
Zn27 O34 1.938 . S
Zn27 O35 1.906 . S
Zn27 O45 1.953 . S
Zn28 O25 1.945 1_545 S
Zn28 O30 1.932 . S
Zn28 O37 1.977 . S
Zn28 O38 1.910 . S
O29 Zn26 1.933 . S
O29 C40 1.226 . S
O30 Zn28 1.932 . S
O30 C40 1.307 . S
O31 Zn24 1.919 . S
O31 C42 1.253 . S
O32 Zn26 1.941 1_565 S
O32 C42 1.284 . S
O33 Zn26 1.965 1_565 S
O33 C41 1.303 . S
O34 Zn27 1.938 . S
O34 C41 1.247 . S
O35 Zn27 1.906 . S
O35 C43 1.304 . S
O36 Zn24 1.924 . S
O36 C44 1.311 . S
O37 Zn28 1.977 . S
O37 C43 1.272 1_545 S
O38 Zn28 1.910 . S
O38 C44 1.231 1_545 S
C39 O23 1.225 . S
C39 O45 1.298 . S
C40 O29 1.226 . S
C40 O30 1.307 . S
C41 O33 1.303 . S
C41 O34 1.247 . S
C42 O31 1.253 . S
C42 O32 1.284 . S
C43 O35 1.304 . S
C43 O37 1.272 1_565 S
C44 O36 1.311 . S
C44 O38 1.231 1_565 S
O45 Zn27 1.953 . S
O45 C39 1.298 . S
O46 Zn47 1.953 . S
O46 C62 1.225 . S
Zn47 O46 1.953 . S
Zn47 O48 1.949 . S
Zn47 O54 1.919 . S
Zn47 O59 1.924 . S
O48 Zn47 1.949 . S
O48 Zn49 1.923 1_565 S
O48 Zn50 1.950 . S
O48 Zn51 1.945 1_565 S
Zn49 O48 1.923 1_545 S
Zn49 O52 1.933 . S
Zn49 O55 1.941 1_545 S
Zn49 O56 1.965 1_545 S
Zn50 O48 1.950 . S
Zn50 O57 1.938 . S
Zn50 O58 1.906 . S
Zn50 O68 1.953 . S
Zn51 O48 1.945 1_545 S
Zn51 O53 1.932 . S
Zn51 O60 1.977 . S
Zn51 O61 1.910 . S
O52 Zn49 1.933 . S
O52 C63 1.226 . S
O53 Zn51 1.932 . S
O53 C63 1.307 . S
O54 Zn47 1.919 . S
O54 C65 1.253 . S
O55 Zn49 1.941 1_565 S
O55 C65 1.284 . S
O56 Zn49 1.965 1_565 S
O56 C64 1.303 . S
O57 Zn50 1.938 . S
O57 C64 1.247 . S
O58 Zn50 1.906 . S
O58 C66 1.304 . S
O59 Zn47 1.924 . S
O59 C67 1.311 . S
O60 Zn51 1.977 . S
O60 C66 1.272 1_545 S
O61 Zn51 1.910 . S
O61 C67 1.231 1_545 S
C62 O46 1.225 . S
C62 O68 1.298 . S
C63 O52 1.226 . S
C63 O53 1.307 . S
C64 O56 1.303 . S
C64 O57 1.247 . S
C65 O54 1.253 . S
C65 O55 1.284 . S
C66 O58 1.304 . S
C66 O60 1.272 1_565 S
C67 O59 1.311 . S
C67 O61 1.231 1_565 S
O68 Zn50 1.953 . S
O68 C62 1.298 . S
O69 Zn70 1.953 . S
O69 C85 1.225 . S
Zn70 O69 1.953 . S
Zn70 O71 1.949 . S
Zn70 O77 1.919 . S
Zn70 O82 1.924 . S
O71 Zn70 1.949 . S
O71 Zn72 1.923 1_545 S
O71 Zn73 1.950 . S
O71 Zn74 1.945 1_545 S
Zn72 O71 1.923 1_565 S
Zn72 O75 1.933 . S
Zn72 O78 1.941 1_565 S
Zn72 O79 1.965 1_565 S
Zn73 O71 1.950 . S
Zn73 O80 1.938 . S
Zn73 O81 1.906 . S
Zn73 O91 1.953 . S
Zn74 O71 1.945 1_565 S
Zn74 O76 1.932 . S
Zn74 O83 1.977 . S
Zn74 O84 1.910 . S
O75 Zn72 1.933 . S
O75 C86 1.226 . S
O76 Zn74 1.932 . S
O76 C86 1.307 . S
O77 Zn70 1.919 . S
O77 C88 1.253 . S
O78 Zn72 1.941 1_545 S
O78 C88 1.284 . S
O79 Zn72 1.965 1_545 S
O79 C87 1.303 . S
O80 Zn73 1.938 . S
O80 C87 1.247 . S
O81 Zn73 1.906 . S
O81 C89 1.304 . S
O82 Zn70 1.924 . S
O82 C90 1.311 . S
O83 Zn74 1.977 . S
O83 C89 1.272 1_565 S
O84 Zn74 1.910 . S
O84 C90 1.231 1_565 S
C85 O69 1.225 . S
C85 O91 1.298 . S
C86 O75 1.226 . S
C86 O76 1.307 . S
C87 O79 1.303 . S
C87 O80 1.247 . S
C88 O77 1.253 . S
C88 O78 1.284 . S
C89 O81 1.304 . S
C89 O83 1.272 1_545 S
C90 O82 1.311 . S
C90 O84 1.231 1_545 S
O91 Zn73 1.953 . S
O91 C85 1.298 . S
O92 Zn93 1.953 . S
O92 C108 1.225 . S
Zn93 O92 1.953 . S
Zn93 O94 1.949 . S
Zn93 O100 1.919 . S
Zn93 O105 1.924 . S
O94 Zn93 1.949 . S
O94 Zn95 1.923 1_565 S
O94 Zn96 1.950 . S
O94 Zn97 1.945 1_565 S
Zn95 O94 1.923 1_545 S
Zn95 O98 1.933 . S
Zn95 O101 1.941 . S
Zn95 O102 1.965 1_545 S
Zn96 O94 1.950 . S
Zn96 O103 1.938 . S
Zn96 O104 1.906 . S
Zn96 O114 1.953 . S
Zn97 O94 1.945 1_545 S
Zn97 O99 1.932 . S
Zn97 O106 1.977 . S
Zn97 O107 1.910 . S
O98 Zn95 1.933 . S
O98 C109 1.226 . S
O99 Zn97 1.932 . S
O99 C109 1.307 . S
O100 Zn93 1.919 . S
O100 C111 1.253 . S
O101 Zn95 1.941 . S
O101 C111 1.283 1_545 S
O102 Zn95 1.965 1_565 S
O102 C110 1.303 . S
O103 Zn96 1.938 . S
O103 C110 1.247 . S
O104 Zn96 1.906 . S
O104 C112 1.304 . S
O105 Zn93 1.924 . S
O105 C113 1.311 . S
O106 Zn97 1.977 . S
O106 C112 1.272 1_545 S
O107 Zn97 1.910 . S
O107 C113 1.231 1_545 S
C108 O92 1.225 . S
C108 O114 1.298 . S
C109 O98 1.226 . S
C109 O99 1.307 . S
C110 O102 1.303 . S
C110 O103 1.247 . S
C111 O100 1.253 . S
C111 O101 1.283 1_565 S
C112 O104 1.304 . S
C112 O106 1.272 1_565 S
C113 O105 1.311 . S
C113 O107 1.231 1_565 S
O114 Zn96 1.953 . S
O114 C108 1.298 . S
O115 Zn116 1.953 . S
O115 C131 1.225 . S
Zn116 O115 1.953 . S
Zn116 O117 1.949 . S
Zn116 O123 1.919 . S
Zn116 O128 1.924 . S
O117 Zn116 1.949 . S
O117 Zn118 1.923 1_545 S
O117 Zn119 1.950 . S
O117 Zn120 1.945 1_545 S
Zn118 O117 1.923 1_565 S
Zn118 O121 1.933 . S
Zn118 O124 1.941 . S
Zn118 O125 1.965 1_565 S
Zn119 O117 1.950 . S
Zn119 O126 1.938 . S
Zn119 O127 1.906 . S
Zn119 O137 1.953 . S
Zn120 O117 1.945 1_565 S
Zn120 O122 1.932 . S
Zn120 O129 1.977 . S
Zn120 O130 1.910 . S
O121 Zn118 1.933 . S
O121 C132 1.226 . S
O122 Zn120 1.932 . S
O122 C132 1.307 . S
O123 Zn116 1.919 . S
O123 C134 1.253 . S
O124 Zn118 1.941 . S
O124 C134 1.283 1_565 S
O125 Zn118 1.965 1_545 S
O125 C133 1.303 . S
O126 Zn119 1.938 . S
O126 C133 1.247 . S
O127 Zn119 1.906 . S
O127 C135 1.304 . S
O128 Zn116 1.924 . S
O128 C136 1.311 . S
O129 Zn120 1.977 . S
O129 C135 1.272 1_565 S
O130 Zn120 1.910 . S
O130 C136 1.231 1_565 S
C131 O115 1.225 . S
C131 O137 1.298 . S
C132 O121 1.226 . S
C132 O122 1.307 . S
C133 O125 1.303 . S
C133 O126 1.247 . S
C134 O123 1.253 . S
C134 O124 1.283 1_545 S
C135 O127 1.304 . S
C135 O129 1.272 1_545 S
C136 O128 1.311 . S
C136 O130 1.231 1_545 S
O137 Zn119 1.953 . S
O137 C131 1.298 . S
O138 Zn139 1.953 . S
O138 C154 1.225 . S
Zn139 O138 1.953 . S
Zn139 O140 1.949 . S
Zn139 O146 1.919 . S
Zn139 O151 1.924 . S
O140 Zn139 1.949 . S
O140 Zn141 1.923 1_545 S
O140 Zn142 1.950 . S
O140 Zn143 1.945 1_545 S
Zn141 O140 1.923 1_565 S
Zn141 O144 1.933 . S
Zn141 O147 1.941 . S
Zn141 O148 1.965 1_565 S
Zn142 O140 1.950 . S
Zn142 O149 1.938 . S
Zn142 O150 1.906 . S
Zn142 O160 1.953 . S
Zn143 O140 1.945 1_565 S
Zn143 O145 1.932 . S
Zn143 O152 1.977 . S
Zn143 O153 1.910 . S
O144 Zn141 1.933 . S
O144 C155 1.226 . S
O145 Zn143 1.932 . S
O145 C155 1.307 . S
O146 Zn139 1.919 . S
O146 C157 1.253 . S
O147 Zn141 1.941 . S
O147 C157 1.283 1_565 S
O148 Zn141 1.965 1_545 S
O148 C156 1.303 . S
O149 Zn142 1.938 . S
O149 C156 1.247 . S
O150 Zn142 1.906 . S
O150 C158 1.304 . S
O151 Zn139 1.924 . S
O151 C159 1.311 . S
O152 Zn143 1.977 . S
O152 C158 1.272 1_565 S
O153 Zn143 1.910 . S
O153 C159 1.231 1_565 S
C154 O138 1.225 . S
C154 O160 1.298 . S
C155 O144 1.226 . S
C155 O145 1.307 . S
C156 O148 1.303 . S
C156 O149 1.247 . S
C157 O146 1.253 . S
C157 O147 1.283 1_545 S
C158 O150 1.304 . S
C158 O152 1.272 1_545 S
C159 O151 1.311 . S
C159 O153 1.231 1_545 S
O160 Zn142 1.953 . S
O160 C154 1.298 . S
O161 Zn162 1.953 . S
O161 C177 1.225 . S
Zn162 O161 1.953 . S
Zn162 O163 1.949 . S
Zn162 O169 1.919 . S
Zn162 O174 1.924 . S
O163 Zn162 1.949 . S
O163 Zn164 1.923 1_565 S
O163 Zn165 1.950 . S
O163 Zn166 1.945 1_565 S
Zn164 O163 1.923 1_545 S
Zn164 O167 1.933 . S
Zn164 O170 1.941 . S
Zn164 O171 1.965 1_545 S
Zn165 O163 1.950 . S
Zn165 O172 1.938 . S
Zn165 O173 1.906 . S
Zn165 O183 1.953 . S
Zn166 O163 1.945 1_545 S
Zn166 O168 1.932 . S
Zn166 O175 1.977 . S
Zn166 O176 1.910 . S
O167 Zn164 1.933 . S
O167 C178 1.226 . S
O168 Zn166 1.932 . S
O168 C178 1.307 . S
O169 Zn162 1.919 . S
O169 C180 1.253 . S
O170 Zn164 1.941 . S
O170 C180 1.283 1_545 S
O171 Zn164 1.965 1_565 S
O171 C179 1.303 . S
O172 Zn165 1.938 . S
O172 C179 1.247 . S
O173 Zn165 1.906 . S
O173 C181 1.304 . S
O174 Zn162 1.924 . S
O174 C182 1.311 . S
O175 Zn166 1.977 . S
O175 C181 1.272 1_545 S
O176 Zn166 1.910 . S
O176 C182 1.231 1_545 S
C177 O161 1.225 . S
C177 O183 1.298 . S
C178 O167 1.226 . S
C178 O168 1.307 . S
C179 O171 1.303 . S
C179 O172 1.247 . S
C180 O169 1.253 . S
C180 O170 1.283 1_565 S
C181 O173 1.304 . S
C181 O175 1.272 1_565 S
C182 O174 1.311 . S
C182 O176 1.231 1_565 S
O183 Zn165 1.953 . S
O183 C177 1.298 . S
O184 Zn185 1.953 . S
O184 C200 1.225 . S
Zn185 O184 1.953 . S
Zn185 O186 1.949 . S
Zn185 O192 1.919 . S
Zn185 O197 1.924 . S
O186 Zn185 1.949 . S
O186 Zn187 1.923 . S
O186 Zn188 1.950 . S
O186 Zn189 1.945 . S
Zn187 O186 1.923 . S
Zn187 O190 1.933 . S
Zn187 O193 1.941 . S
Zn187 O194 1.965 . S
Zn188 O186 1.950 . S
Zn188 O195 1.938 . S
Zn188 O196 1.906 . S
Zn188 O206 1.953 . S
Zn189 O186 1.945 . S
Zn189 O191 1.932 . S
Zn189 O198 1.977 . S
Zn189 O199 1.910 . S
O190 Zn187 1.933 . S
O190 C201 1.226 . S
O191 Zn189 1.932 . S
O191 C201 1.307 . S
O192 Zn185 1.919 . S
O192 C203 1.253 . S
O193 Zn187 1.941 . S
O193 C203 1.283 . S
O194 Zn187 1.965 . S
O194 C202 1.303 . S
O195 Zn188 1.938 . S
O195 C202 1.247 . S
O196 Zn188 1.906 . S
O196 C204 1.304 . S
O197 Zn185 1.924 . S
O197 C205 1.311 . S
O198 Zn189 1.977 . S
O198 C204 1.272 . S
O199 Zn189 1.910 . S
O199 C205 1.231 . S
C200 O184 1.225 . S
C200 O206 1.298 . S
C201 O190 1.226 . S
C201 O191 1.307 . S
C202 O194 1.303 . S
C202 O195 1.247 . S
C203 O192 1.253 . S
C203 O193 1.283 . S
C204 O196 1.304 . S
C204 O198 1.272 . S
C205 O197 1.311 . S
C205 O199 1.231 . S
O206 Zn188 1.953 . S
O206 C200 1.298 . S
O207 Zn208 1.953 . S
O207 C223 1.225 . S
Zn208 O207 1.953 . S
Zn208 O209 1.949 . S
Zn208 O215 1.919 . S
Zn208 O220 1.924 . S
O209 Zn208 1.949 . S
O209 Zn210 1.923 . S
O209 Zn211 1.950 . S
O209 Zn212 1.945 . S
Zn210 O209 1.923 . S
Zn210 O213 1.933 . S
Zn210 O216 1.941 . S
Zn210 O217 1.965 . S
Zn211 O209 1.950 . S
Zn211 O218 1.938 . S
Zn211 O219 1.906 . S
Zn211 O229 1.953 . S
Zn212 O209 1.945 . S
Zn212 O214 1.932 . S
Zn212 O221 1.977 . S
Zn212 O222 1.910 . S
O213 Zn210 1.933 . S
O213 C224 1.226 . S
O214 Zn212 1.932 . S
O214 C224 1.307 . S
O215 Zn208 1.919 . S
O215 C226 1.253 . S
O216 Zn210 1.941 . S
O216 C226 1.283 . S
O217 Zn210 1.965 . S
O217 C225 1.303 . S
O218 Zn211 1.938 . S
O218 C225 1.247 . S
O219 Zn211 1.906 . S
O219 C227 1.304 . S
O220 Zn208 1.924 . S
O220 C228 1.311 . S
O221 Zn212 1.977 . S
O221 C227 1.272 . S
O222 Zn212 1.910 . S
O222 C228 1.231 . S
C223 O207 1.225 . S
C223 O229 1.298 . S
C224 O213 1.226 . S
C224 O214 1.307 . S
C225 O217 1.303 . S
C225 O218 1.247 . S
C226 O215 1.253 . S
C226 O216 1.283 . S
C227 O219 1.304 . S
C227 O221 1.272 . S
C228 O220 1.311 . S
C228 O222 1.231 . S
O229 Zn211 1.953 . S
O229 C223 1.298 . S
O230 Zn231 1.953 . S
O230 C246 1.225 . S
Zn231 O230 1.953 . S
Zn231 O232 1.949 . S
Zn231 O238 1.919 . S
Zn231 O243 1.924 . S
O232 Zn231 1.949 . S
O232 Zn233 1.923 . S
O232 Zn234 1.950 . S
O232 Zn235 1.945 . S
Zn233 O232 1.923 . S
Zn233 O236 1.933 . S
Zn233 O239 1.941 . S
Zn233 O240 1.965 . S
Zn234 O232 1.950 . S
Zn234 O241 1.938 . S
Zn234 O242 1.906 . S
Zn234 O252 1.953 . S
Zn235 O232 1.945 . S
Zn235 O237 1.932 . S
Zn235 O244 1.977 . S
Zn235 O245 1.910 . S
O236 Zn233 1.933 . S
O236 C247 1.226 . S
O237 Zn235 1.932 . S
O237 C247 1.307 . S
O238 Zn231 1.919 . S
O238 C249 1.253 . S
O239 Zn233 1.941 . S
O239 C249 1.283 . S
O240 Zn233 1.965 . S
O240 C248 1.303 . S
O241 Zn234 1.938 . S
O241 C248 1.247 . S
O242 Zn234 1.906 . S
O242 C250 1.304 . S
O243 Zn231 1.924 . S
O243 C251 1.311 . S
O244 Zn235 1.977 . S
O244 C250 1.272 . S
O245 Zn235 1.910 . S
O245 C251 1.231 . S
C246 O230 1.225 . S
C246 O252 1.298 . S
C247 O236 1.226 . S
C247 O237 1.307 . S
C248 O240 1.303 . S
C248 O241 1.247 . S
C249 O238 1.253 . S
C249 O239 1.283 . S
C250 O242 1.304 . S
C250 O244 1.272 . S
C251 O243 1.311 . S
C251 O245 1.231 . S
O252 Zn234 1.953 . S
O252 C246 1.298 . S
O253 Zn254 1.953 . S
O253 C269 1.225 . S
Zn254 O253 1.953 . S
Zn254 O255 1.949 . S
Zn254 O261 1.919 . S
Zn254 O266 1.924 . S
O255 Zn254 1.949 . S
O255 Zn256 1.923 . S
O255 Zn257 1.950 . S
O255 Zn258 1.945 . S
Zn256 O255 1.923 . S
Zn256 O259 1.933 . S
Zn256 O262 1.941 . S
Zn256 O263 1.965 . S
Zn257 O255 1.950 . S
Zn257 O264 1.938 . S
Zn257 O265 1.906 . S
Zn257 O275 1.953 . S
Zn258 O255 1.945 . S
Zn258 O260 1.932 . S
Zn258 O267 1.977 . S
Zn258 O268 1.910 . S
O259 Zn256 1.933 . S
O259 C270 1.226 . S
O260 Zn258 1.932 . S
O260 C270 1.307 . S
O261 Zn254 1.919 . S
O261 C272 1.253 . S
O262 Zn256 1.941 . S
O262 C272 1.283 . S
O263 Zn256 1.965 . S
O263 C271 1.303 . S
O264 Zn257 1.938 . S
O264 C271 1.247 . S
O265 Zn257 1.906 . S
O265 C273 1.304 . S
O266 Zn254 1.924 . S
O266 C274 1.311 . S
O267 Zn258 1.977 . S
O267 C273 1.272 . S
O268 Zn258 1.910 . S
O268 C274 1.231 . S
C269 O253 1.225 . S
C269 O275 1.298 . S
C270 O259 1.226 . S
C270 O260 1.307 . S
C271 O263 1.303 . S
C271 O264 1.247 . S
C272 O261 1.253 . S
C272 O262 1.283 . S
C273 O265 1.304 . S
C273 O267 1.272 . S
C274 O266 1.311 . S
C274 O268 1.231 . S
O275 Zn257 1.953 . S
O275 C269 1.298 . S
O276 Zn277 1.953 . S
O276 C292 1.225 . S
Zn277 O276 1.953 . S
Zn277 O278 1.949 . S
Zn277 O284 1.919 . S
Zn277 O289 1.924 . S
O278 Zn277 1.949 . S
O278 Zn279 1.923 . S
O278 Zn280 1.950 . S
O278 Zn281 1.945 . S
Zn279 O278 1.923 . S
Zn279 O282 1.933 . S
Zn279 O285 1.941 . S
Zn279 O286 1.965 . S
Zn280 O278 1.950 . S
Zn280 O287 1.938 . S
Zn280 O288 1.906 . S
Zn280 O298 1.953 . S
Zn281 O278 1.945 . S
Zn281 O283 1.932 . S
Zn281 O290 1.977 . S
Zn281 O291 1.910 . S
O282 Zn279 1.933 . S
O282 C293 1.226 . S
O283 Zn281 1.932 . S
O283 C293 1.307 . S
O284 Zn277 1.919 . S
O284 C295 1.253 . S
O285 Zn279 1.941 . S
O285 C295 1.283 . S
O286 Zn279 1.965 . S
O286 C294 1.303 . S
O287 Zn280 1.938 . S
O287 C294 1.247 . S
O288 Zn280 1.906 . S
O288 C296 1.304 . S
O289 Zn277 1.924 . S
O289 C297 1.311 . S
O290 Zn281 1.977 . S
O290 C296 1.272 . S
O291 Zn281 1.910 . S
O291 C297 1.231 . S
C292 O276 1.225 . S
C292 O298 1.298 . S
C293 O282 1.226 . S
C293 O283 1.307 . S
C294 O286 1.303 . S
C294 O287 1.247 . S
C295 O284 1.253 . S
C295 O285 1.283 . S
C296 O288 1.304 . S
C296 O290 1.272 . S
C297 O289 1.311 . S
C297 O291 1.231 . S
O298 Zn280 1.953 . S
O298 C292 1.298 . S
O299 Zn300 1.953 . S
O299 C315 1.225 . S
Zn300 O299 1.953 . S
Zn300 O301 1.949 . S
Zn300 O307 1.919 . S
Zn300 O312 1.924 . S
O301 Zn300 1.949 . S
O301 Zn302 1.923 . S
O301 Zn303 1.950 . S
O301 Zn304 1.945 . S
Zn302 O301 1.923 . S
Zn302 O305 1.933 . S
Zn302 O308 1.941 . S
Zn302 O309 1.965 . S
Zn303 O301 1.950 . S
Zn303 O310 1.938 . S
Zn303 O311 1.906 . S
Zn303 O321 1.953 . S
Zn304 O301 1.945 . S
Zn304 O306 1.932 . S
Zn304 O313 1.977 . S
Zn304 O314 1.910 . S
O305 Zn302 1.933 . S
O305 C316 1.226 . S
O306 Zn304 1.932 . S
O306 C316 1.307 . S
O307 Zn300 1.919 . S
O307 C318 1.253 . S
O308 Zn302 1.941 . S
O308 C318 1.283 . S
O309 Zn302 1.965 . S
O309 C317 1.303 . S
O310 Zn303 1.938 . S
O310 C317 1.247 . S
O311 Zn303 1.906 . S
O311 C319 1.304 . S
O312 Zn300 1.924 . S
O312 C320 1.311 . S
O313 Zn304 1.977 . S
O313 C319 1.272 . S
O314 Zn304 1.910 . S
O314 C320 1.231 . S
C315 O299 1.225 . S
C315 O321 1.298 . S
C316 O305 1.226 . S
C316 O306 1.307 . S
C317 O309 1.303 . S
C317 O310 1.247 . S
C318 O307 1.253 . S
C318 O308 1.283 . S
C319 O311 1.304 . S
C319 O313 1.272 . S
C320 O312 1.311 . S
C320 O314 1.231 . S
O321 Zn303 1.953 . S
O321 C315 1.298 . S
O322 Zn323 1.953 . S
O322 C338 1.225 . S
Zn323 O322 1.953 . S
Zn323 O324 1.949 . S
Zn323 O330 1.919 . S
Zn323 O335 1.924 . S
O324 Zn323 1.949 . S
O324 Zn325 1.923 . S
O324 Zn326 1.950 . S
O324 Zn327 1.945 . S
Zn325 O324 1.923 . S
Zn325 O328 1.933 . S
Zn325 O331 1.941 . S
Zn325 O332 1.965 . S
Zn326 O324 1.950 . S
Zn326 O333 1.938 . S
Zn326 O334 1.906 . S
Zn326 O344 1.953 . S
Zn327 O324 1.945 . S
Zn327 O329 1.932 . S
Zn327 O336 1.977 . S
Zn327 O337 1.910 . S
O328 Zn325 1.933 . S
O328 C339 1.226 . S
O329 Zn327 1.932 . S
O329 C339 1.307 . S
O330 Zn323 1.919 . S
O330 C341 1.253 . S
O331 Zn325 1.941 . S
O331 C341 1.283 . S
O332 Zn325 1.965 . S
O332 C340 1.303 . S
O333 Zn326 1.938 . S
O333 C340 1.247 . S
O334 Zn326 1.906 . S
O334 C342 1.304 . S
O335 Zn323 1.924 . S
O335 C343 1.311 . S
O336 Zn327 1.977 . S
O336 C342 1.272 . S
O337 Zn327 1.910 . S
O337 C343 1.231 . S
C338 O322 1.225 . S
C338 O344 1.298 . S
C339 O328 1.226 . S
C339 O329 1.307 . S
C340 O332 1.303 . S
C340 O333 1.247 . S
C341 O330 1.253 . S
C341 O331 1.283 . S
C342 O334 1.304 . S
C342 O336 1.272 . S
C343 O335 1.311 . S
C343 O337 1.231 . S
O344 Zn326 1.953 . S
O344 C338 1.298 . S
O345 Zn346 1.953 . S
O345 C361 1.225 . S
Zn346 O345 1.953 . S
Zn346 O347 1.949 . S
Zn346 O353 1.919 . S
Zn346 O358 1.924 . S
O347 Zn346 1.949 . S
O347 Zn348 1.923 . S
O347 Zn349 1.950 . S
O347 Zn350 1.945 . S
Zn348 O347 1.923 . S
Zn348 O351 1.933 . S
Zn348 O354 1.941 . S
Zn348 O355 1.965 . S
Zn349 O347 1.950 . S
Zn349 O356 1.938 . S
Zn349 O357 1.906 . S
Zn349 O367 1.953 . S
Zn350 O347 1.945 . S
Zn350 O352 1.932 . S
Zn350 O359 1.977 . S
Zn350 O360 1.910 . S
O351 Zn348 1.933 . S
O351 C362 1.226 . S
O352 Zn350 1.932 . S
O352 C362 1.307 . S
O353 Zn346 1.919 . S
O353 C364 1.253 . S
O354 Zn348 1.941 . S
O354 C364 1.283 . S
O355 Zn348 1.965 . S
O355 C363 1.303 . S
O356 Zn349 1.938 . S
O356 C363 1.247 . S
O357 Zn349 1.906 . S
O357 C365 1.304 . S
O358 Zn346 1.924 . S
O358 C366 1.311 . S
O359 Zn350 1.977 . S
O359 C365 1.272 . S
O360 Zn350 1.910 . S
O360 C366 1.231 . S
C361 O345 1.225 . S
C361 O367 1.298 . S
C362 O351 1.226 . S
C362 O352 1.307 . S
C363 O355 1.303 . S
C363 O356 1.247 . S
C364 O353 1.253 . S
C364 O354 1.283 . S
C365 O357 1.304 . S
C365 O359 1.272 . S
C366 O358 1.311 . S
C366 O360 1.231 . S
O367 Zn349 1.953 . S
O367 C361 1.298 . S
C368 C369 1.387 . S
C368 H372 0.950 . S
C368 C377 1.390 . S
C369 C368 1.387 . S
C369 C371 1.387 . S
H370 C377 0.950 . S
C371 C369 1.387 . S
C371 C373 1.390 . S
C371 H375 0.950 . S
H372 C368 0.950 . S
C373 C371 1.390 . S
C373 C374 1.387 . S
C373 H376 0.950 . S
C374 C373 1.387 . S
C374 C377 1.387 . S
H375 C371 0.950 . S
H376 C373 0.950 . S
C377 C368 1.390 . S
C377 H370 0.950 . S
C377 C374 1.387 . S
C378 C379 1.387 . S
C378 H382 0.950 . S
C378 C387 1.390 . S
C379 C378 1.387 . S
C379 C381 1.387 . S
H380 C387 0.950 . S
C381 C379 1.387 . S
C381 C383 1.390 . S
C381 H385 0.950 . S
H382 C378 0.950 . S
C383 C381 1.390 . S
C383 C384 1.387 . S
C383 H386 0.950 . S
C384 C383 1.387 . S
C384 C387 1.387 . S
H385 C381 0.950 . S
H386 C383 0.950 . S
C387 C378 1.390 . S
C387 H380 0.950 . S
C387 C384 1.387 . S
C388 C389 1.387 . S
C388 H392 0.950 . S
C388 C397 1.390 . S
C389 C388 1.387 . S
C389 C391 1.387 . S
H390 C397 0.950 . S
C391 C389 1.387 . S
C391 C393 1.390 . S
C391 H395 0.950 . S
H392 C388 0.950 . S
C393 C391 1.390 . S
C393 C394 1.387 . S
C393 H396 0.950 . S
C394 C393 1.387 . S
C394 C397 1.387 . S
H395 C391 0.950 . S
H396 C393 0.950 . S
C397 C388 1.390 . S
C397 H390 0.950 . S
C397 C394 1.387 . S
C398 C399 1.387 . S
C398 H402 0.950 . S
C398 C407 1.390 . S
C399 C398 1.387 . S
C399 C401 1.387 . S
H400 C407 0.950 . S
C401 C399 1.387 . S
C401 C403 1.390 . S
C401 H405 0.950 . S
H402 C398 0.950 . S
C403 C401 1.390 . S
C403 C404 1.387 . S
C403 H406 0.950 . S
C404 C403 1.387 . S
C404 C407 1.387 . S
H405 C401 0.950 . S
H406 C403 0.950 . S
C407 C398 1.390 . S
C407 H400 0.950 . S
C407 C404 1.387 . S
C408 C409 1.387 . S
C408 H412 0.950 . S
C408 C417 1.390 . S
C409 C408 1.387 . S
C409 C411 1.387 . S
H410 C417 0.950 . S
C411 C409 1.387 . S
C411 C413 1.390 . S
C411 H415 0.950 . S
H412 C408 0.950 . S
C413 C411 1.390 . S
C413 C414 1.387 . S
C413 H416 0.950 . S
C414 C413 1.387 . S
C414 C417 1.387 . S
H415 C411 0.950 . S
H416 C413 0.950 . S
C417 C408 1.390 . S
C417 H410 0.950 . S
C417 C414 1.387 . S
C418 C419 1.387 . S
C418 H422 0.950 . S
C418 C427 1.390 . S
C419 C418 1.387 . S
C419 C421 1.387 . S
H420 C427 0.950 . S
C421 C419 1.387 . S
C421 C423 1.390 . S
C421 H425 0.950 . S
H422 C418 0.950 . S
C423 C421 1.390 . S
C423 C424 1.387 . S
C423 H426 0.950 . S
C424 C423 1.387 . S
C424 C427 1.387 . S
H425 C421 0.950 . S
H426 C423 0.950 . S
C427 C418 1.390 . S
C427 H420 0.950 . S
C427 C424 1.387 . S
C428 C429 1.387 . S
C428 H432 0.950 . S
C428 C437 1.390 . S
C429 C428 1.387 . S
C429 C431 1.387 . S
H430 C437 0.950 . S
C431 C429 1.387 . S
C431 C433 1.390 . S
C431 H435 0.950 . S
H432 C428 0.950 . S
C433 C431 1.390 . S
C433 C434 1.387 . S
C433 H436 0.950 . S
C434 C433 1.387 . S
C434 C437 1.387 . S
H435 C431 0.950 . S
H436 C433 0.950 . S
C437 C428 1.390 . S
C437 H430 0.950 . S
C437 C434 1.387 . S
C438 C439 1.387 . S
C438 H442 0.950 . S
C438 C447 1.390 . S
C439 C438 1.387 . S
C439 C441 1.387 . S
H440 C447 0.950 . S
C441 C439 1.387 . S
C441 C443 1.390 . S
C441 H445 0.950 . S
H442 C438 0.950 . S
C443 C441 1.390 . S
C443 C444 1.387 . S
C443 H446 0.950 . S
C444 C443 1.387 . S
C444 C447 1.387 . S
H445 C441 0.950 . S
H446 C443 0.950 . S
C447 C438 1.390 . S
C447 H440 0.950 . S
C447 C444 1.387 . S
C448 C449 1.387 . S
C448 H452 0.950 . S
C448 C457 1.390 1_545 S
C449 C448 1.387 . S
C449 C451 1.387 . S
H450 C457 0.950 . S
C451 C449 1.387 . S
C451 C453 1.390 1_545 S
C451 H455 0.950 . S
H452 C448 0.950 . S
C453 C451 1.390 1_565 S
C453 C454 1.387 . S
C453 H456 0.950 . S
C454 C453 1.387 . S
C454 C457 1.387 . S
H455 C451 0.950 . S
H456 C453 0.950 . S
C457 C448 1.390 1_565 S
C457 H450 0.950 . S
C457 C454 1.387 . S
C458 C459 1.387 . S
C458 H462 0.950 . S
C458 C467 1.390 1_565 S
C459 C458 1.387 . S
C459 C461 1.387 . S
H460 C467 0.950 . S
C461 C459 1.387 . S
C461 C463 1.390 1_565 S
C461 H465 0.950 . S
H462 C458 0.950 . S
C463 C461 1.390 1_545 S
C463 C464 1.387 . S
C463 H466 0.950 . S
C464 C463 1.387 . S
C464 C467 1.387 . S
H465 C461 0.950 . S
H466 C463 0.950 . S
C467 C458 1.390 1_545 S
C467 H460 0.950 . S
C467 C464 1.387 . S
C468 C469 1.387 . S
C468 H472 0.950 . S
C468 C477 1.390 1_565 S
C469 C468 1.387 . S
C469 C471 1.387 . S
H470 C477 0.950 . S
C471 C469 1.387 . S
C471 C473 1.390 1_565 S
C471 H475 0.950 . S
H472 C468 0.950 . S
C473 C471 1.390 1_545 S
C473 C474 1.387 . S
C473 H476 0.950 . S
C474 C473 1.387 . S
C474 C477 1.387 . S
H475 C471 0.950 . S
H476 C473 0.950 . S
C477 C468 1.390 1_545 S
C477 H470 0.950 . S
C477 C474 1.387 . S
C478 C479 1.387 . S
C478 H482 0.950 . S
C478 C487 1.390 1_565 S
C479 C478 1.387 . S
C479 C481 1.387 . S
H480 C487 0.950 . S
C481 C479 1.387 . S
C481 C483 1.390 1_565 S
C481 H485 0.950 . S
H482 C478 0.950 . S
C483 C481 1.390 1_545 S
C483 C484 1.387 . S
C483 H486 0.950 . S
C484 C483 1.387 . S
C484 C487 1.387 . S
H485 C481 0.950 . S
H486 C483 0.950 . S
C487 C478 1.390 1_545 S
C487 H480 0.950 . S
C487 C484 1.387 . S
C488 C489 1.387 . S
C488 H492 0.950 . S
C488 C497 1.390 . S
C489 C488 1.387 . S
C489 C491 1.387 . S
H490 C497 0.950 . S
C491 C489 1.387 . S
C491 C493 1.390 . S
C491 H495 0.950 . S
H492 C488 0.950 . S
C493 C491 1.390 . S
C493 C494 1.387 . S
C493 H496 0.950 . S
C494 C493 1.387 . S
C494 C497 1.387 . S
H495 C491 0.950 . S
H496 C493 0.950 . S
C497 C488 1.390 . S
C497 H490 0.950 . S
C497 C494 1.387 . S
C498 C499 1.387 . S
C498 H502 0.950 . S
C498 C507 1.390 . S
C499 C498 1.387 . S
C499 C501 1.387 . S
H500 C507 0.950 . S
C501 C499 1.387 . S
C501 C503 1.390 . S
C501 H505 0.950 . S
H502 C498 0.950 . S
C503 C501 1.390 . S
C503 C504 1.387 . S
C503 H506 0.950 . S
C504 C503 1.387 . S
C504 C507 1.387 . S
H505 C501 0.950 . S
H506 C503 0.950 . S
C507 C498 1.390 . S
C507 H500 0.950 . S
C507 C504 1.387 . S
C508 C509 1.387 . S
C508 H512 0.950 . S
C508 C517 1.390 . S
C509 C508 1.387 . S
C509 C511 1.387 . S
H510 C517 0.950 . S
C511 C509 1.387 . S
C511 C513 1.390 . S
C511 H515 0.950 . S
H512 C508 0.950 . S
C513 C511 1.390 . S
C513 C514 1.387 . S
C513 H516 0.950 . S
C514 C513 1.387 . S
C514 C517 1.387 . S
H515 C511 0.950 . S
H516 C513 0.950 . S
C517 C508 1.390 . S
C517 H510 0.950 . S
C517 C514 1.387 . S
C518 C519 1.387 . S
C518 H522 0.950 . S
C518 C527 1.390 . S
C519 C518 1.387 . S
C519 C521 1.387 . S
H520 C527 0.950 . S
C521 C519 1.387 . S
C521 C523 1.390 . S
C521 H525 0.950 . S
H522 C518 0.950 . S
C523 C521 1.390 . S
C523 C524 1.387 . S
C523 H526 0.950 . S
C524 C523 1.387 . S
C524 C527 1.387 . S
H525 C521 0.950 . S
H526 C523 0.950 . S
C527 C518 1.390 . S
C527 H520 0.950 . S
C527 C524 1.387 . S
C528 C529 1.391 . S
C528 H532 0.950 . S
C528 C537 1.390 1_556 S
C529 C528 1.391 . S
C529 C531 1.383 1_565 S
H530 C537 0.950 . S
C531 C529 1.383 1_545 S
C531 C533 1.390 1_556 S
C531 H535 0.950 . S
H532 C528 0.950 . S
C533 C531 1.390 1_554 S
C533 C534 1.387 . S
C533 H536 0.950 . S
C534 C533 1.387 . S
C534 C537 1.387 1_545 S
H535 C531 0.950 . S
H536 C533 0.950 . S
C537 C528 1.390 1_554 S
C537 H530 0.950 . S
C537 C534 1.387 1_565 S
C538 C539 1.390 . S
C538 H542 0.950 . S
C538 C547 1.390 1_556 S
C539 C538 1.390 . S
C539 C541 1.385 1_545 S
H540 C547 0.950 . S
C541 C539 1.385 1_565 S
C541 C543 1.390 1_556 S
C541 H545 0.950 . S
H542 C538 0.950 . S
C543 C541 1.390 1_554 S
C543 C544 1.387 . S
C543 H546 0.950 . S
C544 C543 1.387 . S
C544 C547 1.387 1_565 S
H545 C541 0.950 . S
H546 C543 0.950 . S
C547 C538 1.390 1_554 S
C547 H540 0.950 . S
C547 C544 1.387 1_545 S
C548 C549 1.387 1_545 S
C548 H552 0.950 . S
C548 C557 1.390 . S
C549 C548 1.387 1_565 S
C549 C551 1.387 . S
H550 C557 0.950 . S
C551 C549 1.387 . S
C551 C553 1.390 . S
C551 H555 0.950 . S
H552 C548 0.950 . S
C553 C551 1.390 . S
C553 C554 1.382 1_565 S
C553 H556 0.950 . S
C554 C553 1.382 1_545 S
C554 C557 1.393 . S
H555 C551 0.950 . S
H556 C553 0.950 . S
C557 C548 1.390 . S
C557 H550 0.950 . S
C557 C554 1.393 . S
C558 C559 1.392 . S
C558 H562 0.950 . S
C558 C567 1.390 . S
C559 C558 1.392 . S
C559 C561 1.383 1_565 S
H560 C567 0.950 . S
C561 C559 1.383 1_545 S
C561 C563 1.390 . S
C561 H565 0.950 . S
H562 C558 0.950 . S
C563 C561 1.390 . S
C563 C564 1.387 . S
C563 H566 0.950 . S
C564 C563 1.387 . S
C564 C567 1.387 1_545 S
H565 C561 0.950 . S
H566 C563 0.950 . S
C567 C558 1.390 . S
C567 H560 0.950 . S
C567 C564 1.387 1_565 S
C568 C569 1.387 . S
C568 H572 0.950 . S
C568 C577 1.390 1_554 S
C569 C568 1.387 . S
C569 C571 1.387 . S
H570 C577 0.950 . S
C571 C569 1.387 . S
C571 C573 1.390 1_554 S
C571 H575 0.950 . S
H572 C568 0.950 . S
C573 C571 1.390 1_556 S
C573 C574 1.387 . S
C573 H576 0.950 . S
C574 C573 1.387 . S
C574 C577 1.387 . S
H575 C571 0.950 . S
H576 C573 0.950 . S
C577 C568 1.390 1_556 S
C577 H570 0.950 . S
C577 C574 1.387 . S
C578 C579 1.387 . S
C578 H582 0.950 . S
C578 C587 1.390 1_556 S
C579 C578 1.387 . S
C579 C581 1.387 . S
H580 C587 0.950 . S
C581 C579 1.387 . S
C581 C583 1.390 1_556 S
C581 H585 0.950 . S
H582 C578 0.950 . S
C583 C581 1.390 1_554 S
C583 C584 1.387 . S
C583 H586 0.950 . S
C584 C583 1.387 . S
C584 C587 1.387 . S
H585 C581 0.950 . S
H586 C583 0.950 . S
C587 C578 1.390 1_554 S
C587 H580 0.950 . S
C587 C584 1.387 . S
C588 C589 1.387 . S
C588 H592 0.950 . S
C588 C597 1.390 . S
C589 C588 1.387 . S
C589 C591 1.387 . S
H590 C597 0.950 . S
C591 C589 1.387 . S
C591 C593 1.390 . S
C591 H595 0.950 . S
H592 C588 0.950 . S
C593 C591 1.390 . S
C593 C594 1.387 . S
C593 H596 0.950 . S
C594 C593 1.387 . S
C594 C597 1.387 . S
H595 C591 0.950 . S
H596 C593 0.950 . S
C597 C588 1.390 . S
C597 H590 0.950 . S
C597 C594 1.387 . S
C598 C599 1.387 . S
C598 H602 0.950 . S
C598 C607 1.390 . S
C599 C598 1.387 . S
C599 C601 1.387 . S
H600 C607 0.950 . S
C601 C599 1.387 . S
C601 C603 1.390 . S
C601 H605 0.950 . S
H602 C598 0.950 . S
C603 C601 1.390 . S
C603 C604 1.387 . S
C603 H606 0.950 . S
C604 C603 1.387 . S
C604 C607 1.387 . S
H605 C601 0.950 . S
H606 C603 0.950 . S
C607 C598 1.390 . S
C607 H600 0.950 . S
C607 C604 1.387 . S
C608 C609 1.387 . S
C608 H612 0.950 . S
C608 C617 1.390 1_665 S
C609 C608 1.387 . S
C609 C611 1.387 . S
H610 C617 0.950 . S
C611 C609 1.387 . S
C611 C613 1.390 1_665 S
C611 H615 0.950 . S
H612 C608 0.950 . S
C613 C611 1.390 1_445 S
C613 C614 1.387 . S
C613 H616 0.950 . S
C614 C613 1.387 . S
C614 C617 1.387 . S
H615 C611 0.950 . S
H616 C613 0.950 . S
C617 C608 1.390 1_445 S
C617 H610 0.950 . S
C617 C614 1.387 . S
C618 C619 1.387 . S
C618 H622 0.950 . S
C618 C627 1.390 1_645 S
C619 C618 1.387 . S
C619 C621 1.387 . S
H620 C627 0.950 . S
C621 C619 1.387 . S
C621 C623 1.390 1_645 S
C621 H625 0.950 . S
H622 C618 0.950 . S
C623 C621 1.390 1_465 S
C623 C624 1.387 . S
C623 H626 0.950 . S
C624 C623 1.387 . S
C624 C627 1.387 . S
H625 C621 0.950 . S
H626 C623 0.950 . S
C627 C618 1.390 1_465 S
C627 H620 0.950 . S
C627 C624 1.387 . S
C628 C629 1.387 . S
C628 H632 0.950 . S
C628 C637 1.390 1_445 S
C629 C628 1.387 . S
C629 C631 1.387 . S
H630 C637 0.950 . S
C631 C629 1.387 . S
C631 C633 1.390 1_445 S
C631 H635 0.950 . S
H632 C628 0.950 . S
C633 C631 1.390 1_665 S
C633 C634 1.387 . S
C633 H636 0.950 . S
C634 C633 1.387 . S
C634 C637 1.387 . S
H635 C631 0.950 . S
H636 C633 0.950 . S
C637 C628 1.390 1_665 S
C637 H630 0.950 . S
C637 C634 1.387 . S
C638 C639 1.387 . S
C638 H642 0.950 . S
C638 C647 1.390 1_645 S
C639 C638 1.387 . S
C639 C641 1.387 . S
H640 C647 0.950 . S
C641 C639 1.387 . S
C641 C643 1.390 1_645 S
C641 H645 0.950 . S
H642 C638 0.950 . S
C643 C641 1.390 1_465 S
C643 C644 1.387 . S
C643 H646 0.950 . S
C644 C643 1.387 . S
C644 C647 1.387 . S
H645 C641 0.950 . S
H646 C643 0.950 . S
C647 C638 1.390 1_465 S
C647 H640 0.950 . S
C647 C644 1.387 . S
C648 C649 1.387 . S
C648 H652 0.950 . S
C648 C657 1.390 . S
C649 C648 1.387 . S
C649 C651 1.387 . S
H650 C657 0.950 . S
C651 C649 1.387 . S
C651 C653 1.390 . S
C651 H655 0.950 . S
H652 C648 0.950 . S
C653 C651 1.390 . S
C653 C654 1.387 . S
C653 H656 0.950 . S
C654 C653 1.387 . S
C654 C657 1.387 . S
H655 C651 0.950 . S
H656 C653 0.950 . S
C657 C648 1.390 . S
C657 H650 0.950 . S
C657 C654 1.387 . S
C658 C659 1.387 . S
C658 H662 0.950 . S
C658 C667 1.390 . S
C659 C658 1.387 . S
C659 C661 1.387 . S
H660 C667 0.950 . S
C661 C659 1.387 . S
C661 C663 1.390 . S
C661 H665 0.950 . S
H662 C658 0.950 . S
C663 C661 1.390 . S
C663 C664 1.387 . S
C663 H666 0.950 . S
C664 C663 1.387 . S
C664 C667 1.387 . S
H665 C661 0.950 . S
H666 C663 0.950 . S
C667 C658 1.390 . S
C667 H660 0.950 . S
C667 C664 1.387 . S
C668 C669 1.387 . S
C668 H672 0.950 . S
C668 C677 1.390 . S
C669 C668 1.387 . S
C669 C671 1.387 . S
H670 C677 0.950 . S
C671 C669 1.387 . S
C671 C673 1.390 . S
C671 H675 0.950 . S
H672 C668 0.950 . S
C673 C671 1.390 . S
C673 C674 1.387 . S
C673 H676 0.950 . S
C674 C673 1.387 . S
C674 C677 1.387 . S
H675 C671 0.950 . S
H676 C673 0.950 . S
C677 C668 1.390 . S
C677 H670 0.950 . S
C677 C674 1.387 . S
C678 C679 1.387 . S
C678 H682 0.950 . S
C678 C687 1.390 . S
C679 C678 1.387 . S
C679 C681 1.387 . S
H680 C687 0.950 . S
C681 C679 1.387 . S
C681 C683 1.390 . S
C681 H685 0.950 . S
H682 C678 0.950 . S
C683 C681 1.390 . S
C683 C684 1.387 . S
C683 H686 0.950 . S
C684 C683 1.387 . S
C684 C687 1.387 . S
H685 C681 0.950 . S
H686 C683 0.950 . S
C687 C678 1.390 . S
C687 H680 0.950 . S
C687 C684 1.387 . S
C688 C689 1.387 . S
C688 H692 0.950 . S
C688 C697 1.390 . S
C689 C688 1.387 . S
C689 C691 1.387 . S
H690 C697 0.950 . S
C691 C689 1.387 . S
C691 C693 1.390 . S
C691 H695 0.950 . S
H692 C688 0.950 . S
C693 C691 1.390 . S
C693 C694 1.387 . S
C693 H696 0.950 . S
C694 C693 1.387 . S
C694 C697 1.387 . S
H695 C691 0.950 . S
H696 C693 0.950 . S
C697 C688 1.390 . S
C697 H690 0.950 . S
C697 C694 1.387 . S
C698 C699 1.387 . S
C698 H702 0.950 . S
C698 C707 1.390 . S
C699 C698 1.387 . S
C699 C701 1.387 . S
H700 C707 0.950 . S
C701 C699 1.387 . S
C701 C703 1.390 . S
C701 H705 0.950 . S
H702 C698 0.950 . S
C703 C701 1.390 . S
C703 C704 1.387 . S
C703 H706 0.950 . S
C704 C703 1.387 . S
C704 C707 1.387 . S
H705 C701 0.950 . S
H706 C703 0.950 . S
C707 C698 1.390 . S
C707 H700 0.950 . S
C707 C704 1.387 . S
C708 C709 1.387 . S
C708 H712 0.950 . S
C708 C717 1.390 . S
C709 C708 1.387 . S
C709 C711 1.387 . S
H710 C717 0.950 . S
C711 C709 1.387 . S
C711 C713 1.390 . S
C711 H715 0.950 . S
H712 C708 0.950 . S
C713 C711 1.390 . S
C713 C714 1.387 . S
C713 H716 0.950 . S
C714 C713 1.387 . S
C714 C717 1.387 . S
H715 C711 0.950 . S
H716 C713 0.950 . S
C717 C708 1.390 . S
C717 H710 0.950 . S
C717 C714 1.387 . S
C718 C719 1.387 . S
C718 H722 0.950 . S
C718 C727 1.390 . S
C719 C718 1.387 . S
C719 C721 1.387 . S
H720 C727 0.950 . S
C721 C719 1.387 . S
C721 C723 1.390 . S
C721 H725 0.950 . S
H722 C718 0.950 . S
C723 C721 1.390 . S
C723 C724 1.387 . S
C723 H726 0.950 . S
C724 C723 1.387 . S
C724 C727 1.387 . S
H725 C721 0.950 . S
H726 C723 0.950 . S
C727 C718 1.390 . S
C727 H720 0.950 . S
C727 C724 1.387 . S
C728 C729 1.387 . S
C728 H732 0.950 . S
C728 C737 1.390 . S
C729 C728 1.387 . S
C729 C731 1.387 . S
H730 C737 0.950 . S
C731 C729 1.387 . S
C731 C733 1.390 . S
C731 H735 0.950 . S
H732 C728 0.950 . S
C733 C731 1.390 . S
C733 C734 1.387 . S
C733 H736 0.950 . S
C734 C733 1.387 . S
C734 C737 1.387 . S
H735 C731 0.950 . S
H736 C733 0.950 . S
C737 C728 1.390 . S
C737 H730 0.950 . S
C737 C734 1.387 . S
C738 C739 1.387 . S
C738 H742 0.950 . S
C738 C747 1.390 . S
C739 C738 1.387 . S
C739 C741 1.387 . S
H740 C747 0.950 . S
C741 C739 1.387 . S
C741 C743 1.390 . S
C741 H745 0.950 . S
H742 C738 0.950 . S
C743 C741 1.390 . S
C743 C744 1.387 . S
C743 H746 0.950 . S
C744 C743 1.387 . S
C744 C747 1.387 . S
H745 C741 0.950 . S
H746 C743 0.950 . S
C747 C738 1.390 . S
C747 H740 0.950 . S
C747 C744 1.387 . S
C748 C749 1.387 . S
C748 H752 0.950 . S
C748 C757 1.390 . S
C749 C748 1.387 . S
C749 C751 1.387 . S
H750 C757 0.950 . S
C751 C749 1.387 . S
C751 C753 1.390 . S
C751 H755 0.950 . S
H752 C748 0.950 . S
C753 C751 1.390 . S
C753 C754 1.387 . S
C753 H756 0.950 . S
C754 C753 1.387 . S
C754 C757 1.387 . S
H755 C751 0.950 . S
H756 C753 0.950 . S
C757 C748 1.390 . S
C757 H750 0.950 . S
C757 C754 1.387 . S
C758 C759 1.387 . S
C758 H762 0.950 . S
C758 C767 1.390 . S
C759 C758 1.387 . S
C759 C761 1.387 . S
H760 C767 0.950 . S
C761 C759 1.387 . S
C761 C763 1.390 . S
C761 H765 0.950 . S
H762 C758 0.950 . S
C763 C761 1.390 . S
C763 C764 1.387 . S
C763 H766 0.950 . S
C764 C763 1.387 . S
C764 C767 1.387 . S
H765 C761 0.950 . S
H766 C763 0.950 . S
C767 C758 1.390 . S
C767 H760 0.950 . S
C767 C764 1.387 . S
C768 C769 1.388 . S
C768 H772 0.950 . S
C768 C777 1.390 1_565 S
C769 C768 1.388 . S
C769 C771 1.387 . S
H770 C777 0.950 . S
C771 C769 1.387 . S
C771 C773 1.390 1_565 S
C771 H775 0.950 . S
H772 C768 0.950 . S
C773 C771 1.390 1_545 S
C773 C774 1.387 . S
C773 H776 0.950 . S
C774 C773 1.387 . S
C774 C777 1.387 . S
H775 C771 0.950 . S
H776 C773 0.950 . S
C777 C768 1.390 1_545 S
C777 H770 0.950 . S
C777 C774 1.387 . S
C778 C779 1.387 . S
C778 H782 0.950 . S
C778 C787 1.390 1_565 S
C779 C778 1.387 . S
C779 C781 1.387 . S
H780 C787 0.950 . S
C781 C779 1.387 . S
C781 C783 1.390 1_565 S
C781 H785 0.950 . S
H782 C778 0.950 . S
C783 C781 1.390 1_545 S
C783 C784 1.387 . S
C783 H786 0.950 . S
C784 C783 1.387 . S
C784 C787 1.387 . S
H785 C781 0.950 . S
H786 C783 0.950 . S
C787 C778 1.390 1_545 S
C787 H780 0.950 . S
C787 C784 1.387 . S
C788 C789 1.387 . S
C788 H792 0.950 . S
C788 C797 1.390 1_545 S
C789 C788 1.387 . S
C789 C791 1.389 . S
H790 C797 0.950 . S
C791 C789 1.389 . S
C791 C793 1.387 1_545 S
C791 H795 0.951 . S
H792 C788 0.950 . S
C793 C791 1.387 1_565 S
C793 C794 1.387 . S
C793 H796 0.950 . S
C794 C793 1.387 . S
C794 C797 1.387 . S
H795 C791 0.951 . S
H796 C793 0.950 . S
C797 C788 1.390 1_565 S
C797 H790 0.950 . S
C797 C794 1.387 . S
C798 C799 1.387 . S
C798 H802 0.950 . S
C798 C807 1.390 1_565 S
C799 C798 1.387 . S
C799 C801 1.384 1_565 S
H800 C807 0.950 . S
C801 C799 1.384 1_545 S
C801 C803 1.397 . S
C801 H805 0.947 1_545 S
H802 C798 0.950 . S
C803 C801 1.397 . S
C803 C804 1.387 . S
C803 H806 0.950 . S
C804 C803 1.387 . S
C804 C807 1.387 . S
H805 C801 0.947 1_565 S
H806 C803 0.950 . S
C807 C798 1.390 1_545 S
C807 H800 0.950 . S
C807 C804 1.387 . S
C808 C809 1.387 . S
C808 H812 0.950 . S
C808 C817 1.390 1_565 S
C809 C808 1.387 . S
C809 C811 1.387 . S
H810 C817 0.950 . S
C811 C809 1.387 . S
C811 C813 1.390 1_565 S
C811 H815 0.950 . S
H812 C808 0.950 . S
C813 C811 1.390 1_545 S
C813 C814 1.387 . S
C813 H816 0.950 . S
C814 C813 1.387 . S
C814 C817 1.387 . S
H815 C811 0.950 . S
H816 C813 0.950 . S
C817 C808 1.390 1_545 S
C817 H810 0.950 . S
C817 C814 1.387 . S
C818 C819 1.387 . S
C818 H822 0.950 . S
C818 C827 1.390 1_545 S
C819 C818 1.387 . S
C819 C821 1.387 . S
H820 C827 0.950 . S
C821 C819 1.387 . S
C821 C823 1.390 1_545 S
C821 H825 0.950 . S
H822 C818 0.950 . S
C823 C821 1.390 1_565 S
C823 C824 1.387 . S
C823 H826 0.950 . S
C824 C823 1.387 . S
C824 C827 1.387 . S
H825 C821 0.950 . S
H826 C823 0.950 . S
C827 C818 1.390 1_565 S
C827 H820 0.950 . S
C827 C824 1.387 . S
C828 C829 1.387 . S
C828 H832 0.950 . S
C828 C837 1.390 1_565 S
C829 C828 1.387 . S
C829 C831 1.387 . S
H830 C837 0.950 . S
C831 C829 1.387 . S
C831 C833 1.390 1_565 S
C831 H835 0.950 . S
H832 C828 0.950 . S
C833 C831 1.390 1_545 S
C833 C834 1.387 . S
C833 H836 0.950 . S
C834 C833 1.387 . S
C834 C837 1.387 . S
H835 C831 0.950 . S
H836 C833 0.950 . S
C837 C828 1.390 1_545 S
C837 H830 0.950 . S
C837 C834 1.387 . S
C838 C839 1.387 . S
C838 H842 0.950 . S
C838 C847 1.390 1_565 S
C839 C838 1.387 . S
C839 C841 1.387 . S
H840 C847 0.950 . S
C841 C839 1.387 . S
C841 C843 1.390 . S
C841 H845 0.950 . S
H842 C838 0.950 . S
C843 C841 1.390 . S
C843 C844 1.387 1_565 S
C843 H846 0.950 1_565 S
C844 C843 1.387 1_545 S
C844 C847 1.387 . S
H845 C841 0.950 . S
H846 C843 0.950 1_545 S
C847 C838 1.390 1_545 S
C847 H840 0.950 . S
C847 C844 1.387 . S
C369 C18 1.553 . S
C374 C225 1.553 . S
C379 C41 1.553 . S
C384 C202 1.553 . S
C389 C271 1.553 . S
C394 C64 1.553 . S
C399 C87 1.553 . S
C404 C248 1.553 . S
C409 C317 1.494 . S
C414 C110 1.494 . S
C419 C294 1.494 . S
C424 C133 1.494 . S
C429 C363 1.494 . S
C434 C156 1.494 . S
C439 C179 1.494 . S
C444 C340 1.494 . S
C449 C66 1.452 1_545 S
C454 C20 1.452 1_565 S
C459 C89 1.452 1_565 S
C464 C43 1.452 1_545 S
C469 C157 1.440 1_565 S
C474 C111 1.440 1_545 S
C479 C134 1.436 1_565 S
C484 C180 1.436 1_545 S
C489 C250 1.455 . S
C494 C204 1.455 . S
C499 C273 1.452 . S
C504 C227 1.452 . S
C509 C295 1.436 . S
C514 C341 1.436 . S
C519 C318 1.440 . S
C524 C364 1.440 . S
C529 C135 1.460 1_565 S
C534 C19 1.455 . S
C539 C112 1.460 1_545 S
C544 C42 1.455 . S
C549 C65 1.455 . S
C554 C181 1.460 1_545 S
C559 C158 1.460 1_565 S
C564 C88 1.455 . S
C569 C203 1.454 . S
C574 C319 1.463 . S
C579 C296 1.462 . S
C584 C226 1.454 . S
C589 C249 1.455 . S
C594 C365 1.462 . S
C599 C342 1.461 . S
C604 C272 1.456 . S
C609 C44 1.483 . S
C614 C21 1.483 . S
C619 C90 1.480 . S
C624 C67 1.480 . S
C629 C136 1.555 . S
C634 C113 1.555 . S
C639 C159 1.559 . S
C644 C182 1.559 . S
C649 C228 1.480 . S
C654 C205 1.480 . S
C659 C274 1.483 . S
C664 C251 1.483 . S
C669 C297 1.555 . S
C674 C320 1.555 . S
C679 C343 1.555 . S
C684 C366 1.555 . S
C689 C17 1.373 . S
C694 C16 1.369 . S
C699 C40 1.375 . S
C704 C39 1.371 . S
C709 C63 1.375 . S
C714 C62 1.371 . S
C719 C85 1.368 . S
C724 C86 1.373 . S
C729 C109 1.377 . S
C734 C108 1.372 . S
C739 C131 1.370 . S
C744 C132 1.375 . S
C749 C155 1.375 . S
C754 C154 1.370 . S
C759 C178 1.375 . S
C764 C177 1.370 . S
C769 C200 1.371 . S
C774 C201 1.375 . S
C779 C224 1.375 . S
C784 C223 1.371 . S
C789 C246 1.368 . S
C794 C247 1.373 . S
C799 C269 1.368 . S
C804 C270 1.373 . S
C809 C293 1.375 . S
C814 C292 1.370 . S
C819 C316 1.377 . S
C824 C315 1.372 . S
C829 C338 1.370 . S
C834 C339 1.375 . S
C839 C362 1.377 . S
C844 C361 1.372 . S
