# Generated by pormake.
# Topology smu, (6)-cn, num edge types: 1
# Building blocks:
#     Node 0, Type 0, BuildingBlock: BETDAH_clean_sbu_0, # of connection points: 6
#     Node 1, Type 0, BuildingBlock: BETDAH_clean_sbu_0, # of connection points: 6
#     Node 2, Type 0, BuildingBlock: BETDAH_clean_sbu_0, # of connection points: 6
#     Node 3, Type 0, BuildingBlock: BETDAH_clean_sbu_0, # of connection points: 6
#     Node 4, Type 0, BuildingBlock: BETDAH_clean_sbu_0, # of connection points: 6
#     Node 5, Type 0, BuildingBlock: BETDAH_clean_sbu_0, # of connection points: 6
#     Edge 6, Type (0, 0), BuildingBlock: ZUJKAS_clean_linker_0, # of connection points: 2
#     Edge 7, Type (0, 0), BuildingBlock: ZUJKAS_clean_linker_0, # of connection points: 2
#     Edge 8, Type (0, 0), BuildingBlock: ZUJKAS_clean_linker_0, # of connection points: 2
#     Edge 9, Type (0, 0), BuildingBlock: ZUJKAS_clean_linker_0, # of connection points: 2
#     Edge 10, Type (0, 0), BuildingBlock: ZUJKAS_clean_linker_0, # of connection points: 2
#     Edge 11, Type (0, 0), BuildingBlock: ZUJKAS_clean_linker_0, # of connection points: 2
#     Edge 12, Type (0, 0), BuildingBlock: ZUJKAS_clean_linker_0, # of connection points: 2
#     Edge 13, Type (0, 0), BuildingBlock: ZUJKAS_clean_linker_0, # of connection points: 2
#     Edge 14, Type (0, 0), BuildingBlock: ZUJKAS_clean_linker_0, # of connection points: 2
#     Edge 15, Type (0, 0), BuildingBlock: ZUJKAS_clean_linker_0, # of connection points: 2
#     Edge 16, Type (0, 0), BuildingBlock: ZUJKAS_clean_linker_0, # of connection points: 2
#     Edge 17, Type (0, 0), BuildingBlock: ZUJKAS_clean_linker_0, # of connection points: 2
#     Edge 18, Type (0, 0), BuildingBlock: ZUJKAS_clean_linker_0, # of connection points: 2
#     Edge 19, Type (0, 0), BuildingBlock: ZUJKAS_clean_linker_0, # of connection points: 2
#     Edge 20, Type (0, 0), BuildingBlock: ZUJKAS_clean_linker_0, # of connection points: 2
#     Edge 21, Type (0, 0), BuildingBlock: ZUJKAS_clean_linker_0, # of connection points: 2
#     Edge 22, Type (0, 0), BuildingBlock: ZUJKAS_clean_linker_0, # of connection points: 2
#     Edge 23, Type (0, 0), BuildingBlock: ZUJKAS_clean_linker_0, # of connection points: 2
# Relax obj value: 0.209
# Max RMSD: 0.299
# Mean RMSD: 0.299
data_MOF--net-smu--node1-BETDAH_clean_sbu_0--edge1-ZUJKAS_clean_linker_0
_symmetry_space_group_name_H-M    P1
_symmetry_Int_Tables_number       1
_symmetry_cell_setting            triclinic
loop_
_symmetry_equiv_pos_as_xyz
'x, y, z'
_cell_length_a     47.571695
_cell_length_b     47.407858
_cell_length_c     34.561926
_cell_angle_alpha  89.696637
_cell_angle_beta   90.40627
_cell_angle_gamma 120.12699
loop_
_atom_site_label
_atom_site_type_symbol
_atom_site_fract_x
_atom_site_fract_y
_atom_site_fract_z
_atom_type_partial_charge
Ho0 Ho 0.38389 0.10061 0.2798 0.0
Ho1 Ho 0.33133 0.11412 0.3064 0.0
C2 C 0.40232 0.1751 0.29244 0.0
C3 C 0.43275 0.10174 0.24503 0.0
C4 C 0.46841 0.11813 0.25124 0.0
C5 C 0.48939 0.13082 0.21946 0.0
C6 C 0.52313 0.14567 0.22451 0.0
C7 C 0.53671 0.148 0.26152 0.0
C8 C 0.51561 0.1356 0.29341 0.0
C9 C 0.48187 0.12097 0.28836 0.0
C10 C 0.37072 0.08815 0.35614 0.0
C11 C 0.31311 0.04191 0.2928 0.0
C12 C 0.29486 0.13212 0.34175 0.0
C13 C 0.27677 0.14908 0.33222 0.0
C14 C 0.24827 0.14085 0.35253 0.0
C15 C 0.23068 0.15659 0.34449 0.0
C16 C 0.24125 0.1811 0.31595 0.0
C17 C 0.26973 0.18905 0.29527 0.0
C18 C 0.28731 0.17317 0.30331 0.0
C19 C 0.32634 0.09862 0.23002 0.0
O20 O 0.41318 0.1543 0.29389 0.0
O21 O 0.37086 0.1648 0.29174 0.0
O22 O 0.41445 0.07955 0.2702 0.0
O23 O 0.42095 0.12037 0.23518 0.0
O24 O 0.38092 0.07331 0.33396 0.0
O25 O 0.37077 0.11144 0.33769 0.0
O26 O 0.31167 0.06125 0.31912 0.0
O27 O 0.33728 0.05344 0.26754 0.0
O28 O 0.32653 0.14942 0.34102 0.0
O29 O 0.28385 0.10336 0.32648 0.0
O30 O 0.30211 0.09354 0.25155 0.0
O31 O 0.35233 0.11508 0.2491 0.0
H32 H 0.47961 0.12897 0.19057 0.0
H33 H 0.53856 0.15464 0.19926 0.0
H34 H 0.52519 0.13736 0.32237 0.0
H35 H 0.46633 0.11171 0.3135 0.0
H36 H 0.23957 0.12215 0.37473 0.0
H37 H 0.20857 0.1493 0.36048 0.0
H38 H 0.27877 0.20793 0.27333 0.0
H39 H 0.3092 0.17983 0.28711 0.0
Ho40 Ho 0.74621 0.66472 0.28625 0.0
Ho41 Ho 0.81913 0.7067 0.30035 0.0
C42 C 0.78681 0.62932 0.29826 0.0
C43 C 0.68622 0.62874 0.26431 0.0
C44 C 0.66411 0.59303 0.26656 0.0
C45 C 0.6735 0.57337 0.28701 0.0
C46 C 0.65284 0.53951 0.28895 0.0
C47 C 0.62226 0.52441 0.27042 0.0
C48 C 0.61301 0.5443 0.24991 0.0
C49 C 0.63374 0.57823 0.248 0.0
C50 C 0.76446 0.67278 0.36252 0.0
C51 C 0.78026 0.74401 0.28936 0.0
C52 C 0.87955 0.73348 0.32124 0.0
C53 C 0.9125 0.75975 0.30994 0.0
C54 C 0.92911 0.78798 0.33266 0.0
C55 C 0.96173 0.81085 0.32533 0.0
C56 C 0.97864 0.80587 0.2953 0.0
C57 C 0.96165 0.7781 0.27184 0.0
C58 C 0.92904 0.75534 0.27907 0.0
C59 C 0.80085 0.70535 0.22583 0.0
O60 O 0.76219 0.62785 0.27881 0.0
O61 O 0.80726 0.65604 0.31701 0.0
O62 O 0.69479 0.64408 0.2974 0.0
O63 O 0.71089 0.6385 0.24096 0.0
O64 O 0.74211 0.64571 0.34736 0.0
O65 O 0.77621 0.69388 0.3361 0.0
O66 O 0.80619 0.74536 0.30544 0.0
O67 O 0.75505 0.71625 0.27669 0.0
O68 O 0.86511 0.70833 0.29815 0.0
O69 O 0.85939 0.7418 0.33584 0.0
O70 O 0.82603 0.7296 0.24169 0.0
O71 O 0.7889 0.6815 0.24909 0.0
H72 H 0.69684 0.58426 0.3016 0.0
H73 H 0.66072 0.52523 0.30547 0.0
H74 H 0.58991 0.53362 0.23481 0.0
H75 H 0.62609 0.5929 0.23187 0.0
H76 H 0.91715 0.79195 0.35684 0.0
H77 H 0.97386 0.83219 0.34363 0.0
H78 H 0.97388 0.77315 0.24881 0.0
H79 H 0.9172 0.73371 0.26117 0.0
Ho80 Ho 0.95691 0.30667 0.28025 0.0
Ho81 Ho 0.93094 0.2361 0.30546 0.0
C82 C 0.87986 0.26178 0.29883 0.0
C83 C 0.96685 0.36159 0.25133 0.0
C84 C 0.94666 0.37716 0.24837 0.0
C85 C 0.95576 0.40396 0.22377 0.0
C86 C 0.9388 0.42111 0.22435 0.0
C87 C 0.91238 0.41172 0.24959 0.0
C88 C 0.9027 0.38407 0.27313 0.0
C89 C 0.91977 0.3672 0.27273 0.0
C90 C 0.96783 0.29984 0.35554 0.0
C91 C 1.00646 0.28052 0.2906 0.0
C92 C 0.90318 0.17845 0.33615 0.0
C93 C 0.89843 0.14549 0.33144 0.0
C94 C 0.8855 0.12351 0.36237 0.0
C95 C 0.87457 0.09039 0.35689 0.0
C96 C 0.87632 0.0786 0.32026 0.0
C97 C 0.89099 0.10104 0.28975 0.0
C98 C 0.90186 0.13423 0.29526 0.0
C99 C 0.94582 0.24784 0.22899 0.0
O100 O 0.90356 0.29016 0.28644 0.0
O101 O 0.8852 0.23824 0.30971 0.0
O102 O 0.97459 0.3581 0.28656 0.0
O103 O 0.95831 0.33563 0.2303 0.0
O104 O 0.98764 0.32338 0.33329 0.0
O105 O 0.94178 0.28087 0.33737 0.0
O106 O 0.98456 0.25851 0.31425 0.0
O107 O 0.99964 0.29927 0.26816 0.0
O108 O 0.88996 0.18762 0.3093 0.0
O109 O 0.93171 0.20204 0.34747 0.0
O110 O 0.94857 0.22632 0.24924 0.0
O111 O 0.93287 0.25996 0.24972 0.0
H112 H 0.97662 0.41229 0.20502 0.0
H113 H 0.94719 0.44244 0.20608 0.0
H114 H 0.88219 0.37571 0.29243 0.0
H115 H 0.91253 0.34701 0.29251 0.0
H116 H 0.88248 0.13171 0.39044 0.0
H117 H 0.86398 0.07387 0.38115 0.0
H118 H 0.89259 0.09274 0.26115 0.0
H119 H 0.91152 0.1508 0.27089 0.0
Ho120 Ho 0.13052 0.33062 0.80417 0.0
Ho121 Ho 0.10016 0.37269 0.78959 0.0
C122 C 0.05405 0.29435 0.79953 0.0
C123 C 0.16438 0.30394 0.82465 0.0
C124 C 0.17117 0.27794 0.81273 0.0
C125 C 0.15419 0.24666 0.82931 0.0
C126 C 0.16322 0.22339 0.82127 0.0
C127 C 0.18958 0.23094 0.79671 0.0
C128 C 0.20599 0.26195 0.77941 0.0
C129 C 0.19698 0.28518 0.78741 0.0
C130 C 0.11159 0.32989 0.73015 0.0
C131 C 0.17629 0.40794 0.79867 0.0
C132 C 0.07633 0.40864 0.76744 0.0
C133 C 0.09111 0.44469 0.76649 0.0
C134 C 0.12086 0.4647 0.74775 0.0
C135 C 0.13582 0.49874 0.74963 0.0
C136 C 0.12164 0.51379 0.77062 0.0
C137 C 0.09163 0.49365 0.78893 0.0
C138 C 0.07656 0.45957 0.78679 0.0
C139 C 0.11209 0.36627 0.86603 0.0
O140 O 0.07895 0.294 0.81624 0.0
O141 O 0.05706 0.32101 0.78257 0.0
O142 O 0.1751 0.32935 0.8019 0.0
O143 O 0.13582 0.29534 0.83914 0.0
O144 O 0.11181 0.30563 0.74712 0.0
O145 O 0.12468 0.35457 0.75201 0.0
O146 O 0.15278 0.40912 0.77972 0.0
O147 O 0.17028 0.3816 0.81828 0.0
O148 O 0.07139 0.39546 0.80182 0.0
O149 O 0.08799 0.39587 0.74343 0.0
O150 O 0.11645 0.39302 0.85019 0.0
O151 O 0.10191 0.34482 0.8402 0.0
H152 H 0.13442 0.24038 0.84922 0.0
H153 H 0.14979 0.19958 0.83473 0.0
H154 H 0.22668 0.26879 0.76082 0.0
H155 H 0.21096 0.30919 0.77459 0.0
H156 H 0.13293 0.45411 0.73202 0.0
H157 H 0.15856 0.51324 0.73457 0.0
H158 H 0.0801 0.50413 0.80586 0.0
H159 H 0.05381 0.44479 0.8018 0.0
Ho160 Ho 0.23638 0.91765 0.80345 0.0
Ho161 Ho 0.30591 0.93851 0.78246 0.0
C162 C 0.28551 0.99244 0.79069 0.0
C163 C 0.17809 0.89344 0.83073 0.0
C164 C 0.14615 0.88961 0.82075 0.0
C165 C 0.12389 0.88365 0.8504 0.0
C166 C 0.09144 0.8736 0.84166 0.0
C167 C 0.08049 0.86907 0.80299 0.0
C168 C 0.10335 0.87684 0.77326 0.0
C169 C 0.13587 0.88701 0.78205 0.0
C170 C 0.2503 0.93397 0.72763 0.0
C171 C 0.25612 0.86181 0.79899 0.0
C172 C 0.36039 0.94625 0.75587 0.0
C173 C 0.37563 0.92581 0.75212 0.0
C174 C 0.4044 0.93734 0.73095 0.0
C175 C 0.4214 0.92026 0.73127 0.0
C176 C 0.40985 0.89116 0.75266 0.0
C177 C 0.3804 0.87914 0.7728 0.0
C178 C 0.36364 0.89642 0.77277 0.0
C179 C 0.29865 0.95087 0.85699 0.0
O180 O 0.26231 0.97131 0.81369 0.0
O181 O 0.30299 0.98386 0.76906 0.0
O182 O 0.18757 0.87758 0.80865 0.0
O183 O 0.2019 0.9224 0.84029 0.0
O184 O 0.22919 0.9374 0.74722 0.0
O185 O 0.26076 0.91902 0.74828 0.0
O186 O 0.28606 0.88434 0.7899 0.0
O187 O 0.23361 0.86931 0.80647 0.0
O188 O 0.35617 0.95253 0.79131 0.0
O189 O 0.33528 0.93932 0.73384 0.0
O190 O 0.32324 0.96929 0.83534 0.0
O191 O 0.27872 0.92518 0.83869 0.0
H192 H 0.13128 0.8854 0.88043 0.0
H193 H 0.07474 0.86859 0.86529 0.0
H194 H 0.09584 0.87352 0.74319 0.0
H195 H 0.1526 0.89133 0.75865 0.0
H196 H 0.41428 0.9601 0.71509 0.0
H197 H 0.44384 0.93005 0.71517 0.0
H198 H 0.371 0.8571 0.78998 0.0
H199 H 0.34198 0.88746 0.79011 0.0
Ho200 Ho 0.70819 0.79901 0.80026 0.0
Ho201 Ho 0.66615 0.72772 0.77707 0.0
C202 C 0.74299 0.75841 0.7827 0.0
C203 C 0.7374 0.85713 0.82933 0.0
C204 C 0.76571 0.88988 0.8227 0.0
C205 C 0.78099 0.91021 0.8545 0.0
C206 C 0.80446 0.943 0.84899 0.0
C207 C 0.81299 0.95623 0.81147 0.0
C208 C 0.79864 0.93534 0.77959 0.0
C209 C 0.77526 0.90248 0.78514 0.0
C210 C 0.7096 0.78719 0.72359 0.0
C211 C 0.63094 0.76979 0.79535 0.0
C212 C 0.62314 0.67057 0.75179 0.0
C213 C 0.5878 0.65311 0.7441 0.0
C214 C 0.57117 0.6698 0.73502 0.0
C215 C 0.53706 0.65311 0.73398 0.0
C216 C 0.51892 0.61941 0.74209 0.0
C217 C 0.53591 0.60277 0.74999 0.0
C218 C 0.56989 0.61944 0.75097 0.0
C219 C 0.68842 0.73699 0.8507 0.0
O220 O 0.74268 0.78027 0.80608 0.0
O221 O 0.7169 0.73788 0.76215 0.0
O222 O 0.71421 0.84698 0.80339 0.0
O223 O 0.74269 0.83397 0.84161 0.0
O224 O 0.73376 0.80982 0.74281 0.0
O225 O 0.68512 0.77379 0.74542 0.0
O226 O 0.62752 0.74205 0.7824 0.0
O227 O 0.65929 0.79389 0.80668 0.0
O228 O 0.63091 0.67736 0.78818 0.0
O229 O 0.64219 0.69471 0.72884 0.0
O230 O 0.6861 0.7144 0.82789 0.0
O231 O 0.67796 0.75384 0.83387 0.0
H232 H 0.77398 0.90101 0.8837 0.0
H233 H 0.81552 0.95812 0.87422 0.0
H234 H 0.80443 0.94463 0.75029 0.0
H235 H 0.76376 0.88726 0.76008 0.0
H236 H 0.58449 0.69584 0.72981 0.0
H237 H 0.52491 0.6667 0.72729 0.0
H238 H 0.52299 0.57704 0.75705 0.0
H239 H 0.5822 0.60618 0.75864 0.0
H240 H 0.24532 0.93183 0.90514 0.0
H241 H 0.24617 0.95418 0.96998 0.0
H242 H 0.35075 1.01102 0.96579 0.0
H243 H 0.34999 0.9897 0.90178 0.0
H244 H 0.27746 0.95636 0.04201 0.0
H245 H 0.32612 0.08073 0.98239 0.0
H246 H 0.30907 0.04498 0.95204 0.0
H247 H 0.35033 0.06304 0.96929 0.0
C248 C 0.2684 0.94874 0.91843 0.0
C249 C 0.29755 0.95922 0.89817 0.0
C250 C 0.26891 0.96162 0.95536 0.0
C251 C 0.29854 0.98504 0.97242 0.0
C252 C 0.32754 0.99381 0.95296 0.0
H253 H 0.37385 0.10439 0.17977 0.0
H254 H 0.36592 0.0757 0.11794 0.0
C255 C 0.32704 0.98135 0.91633 0.0
C256 C 0.2999 1.00137 1.00991 0.0
H257 H 0.3305 0.07687 0.05093 0.0
C258 C 0.28867 0.98266 0.0439 0.0
C259 C 0.31456 0.03577 1.01257 0.0
C260 C 0.32541 0.05728 0.97708 0.0
C261 C 0.29282 0.99748 0.08045 0.0
C262 C 0.30838 0.03193 0.08311 0.0
C263 C 0.31898 0.05053 0.04905 0.0
C264 C 0.31336 0.04918 0.12083 0.0
C265 C 0.28138 0.9762 0.11609 0.0
C266 C 0.28658 0.04436 0.14274 0.0
C267 C 0.2911 0.06087 0.17775 0.0
C268 C 0.32252 0.08263 0.19185 0.0
C269 C 0.34939 0.08776 0.16978 0.0
C270 C 0.34484 0.07134 0.13447 0.0
H271 H 0.27723 0.95135 0.11034 0.0
H272 H 0.2993 0.98725 0.14006 0.0
H273 H 0.25809 0.97376 0.12585 0.0
H274 H 0.26208 0.02795 0.13262 0.0
H275 H 0.26983 0.0563 0.19402 0.0
H276 H 0.66234 0.74206 0.67516 0.0
H277 H 0.67058 0.71867 0.61574 0.0
H278 H 0.77433 0.77944 0.62925 0.0
H279 H 0.7663 0.80253 0.68829 0.0
H280 H 0.70512 0.75231 0.54646 0.0
H281 H 0.76063 0.68645 0.61719 0.0
H282 H 0.7374 0.70058 0.64357 0.0
H283 H 0.77878 0.72864 0.63051 0.0
C284 C 0.68685 0.75022 0.66548 0.0
C285 C 0.71364 0.77388 0.68659 0.0
C286 C 0.69155 0.73695 0.63153 0.0
C287 C 0.72311 0.74687 0.61839 0.0
C288 C 0.74979 0.77093 0.63913 0.0
H289 H 0.79561 0.73352 0.39466 0.0
H290 H 0.78528 0.74981 0.45767 0.0
C291 C 0.74512 0.78432 0.67274 0.0
C292 C 0.72845 0.73289 0.58254 0.0
H293 H 0.76466 0.69122 0.54843 0.0
C294 C 0.7179 0.73874 0.54694 0.0
C295 C 0.74501 0.71501 0.58314 0.0
C296 C 0.7559 0.70699 0.62065 0.0
C297 C 0.72433 0.72809 0.5119 0.0
C298 C 0.74184 0.7112 0.51238 0.0
C299 C 0.75152 0.70443 0.54805 0.0
C300 C 0.7505 0.70079 0.47592 0.0
C301 C 0.71243 0.73506 0.47447 0.0
C302 C 0.73533 0.66767 0.46581 0.0
C303 C 0.74115 0.65823 0.42968 0.0
C304 C 0.76248 0.68177 0.40315 0.0
C305 C 0.77901 0.71476 0.41434 0.0
C306 C 0.77299 0.72416 0.45028 0.0
H307 H 0.69398 0.74247 0.47943 0.0
H308 H 0.73327 0.75518 0.459 0.0
H309 H 0.70171 0.71329 0.4554 0.0
H310 H 0.71802 0.64921 0.48526 0.0
H311 H 0.72804 0.63265 0.42194 0.0
H312 H 0.93869 0.28834 0.17762 0.0
H313 H 0.96933 0.31203 0.11765 0.0
H314 H 1.02241 0.2615 0.1369 0.0
H315 H 0.99218 0.23811 0.19669 0.0
H316 H 0.06223 0.32935 0.11609 0.0
H317 H 0.95802 0.26133 1.01529 0.0
H318 H 0.95194 0.28327 0.05355 0.0
H319 H 0.95709 0.24917 0.06509 0.0
C320 C 0.95697 0.28244 0.16906 0.0
C321 C 0.96306 0.26145 0.1919 0.0
C322 C 0.97433 0.2958 0.1347 0.0
C323 C 0.99809 0.28842 0.12261 0.0
C324 C 1.00422 0.26755 0.14555 0.0
H325 H 0.0868 0.30651 0.89994 0.0
H326 H 0.06123 0.2897 0.96344 0.0
C327 C 0.98675 0.25403 0.17962 0.0
C328 C 1.01655 0.30213 0.08604 0.0
H329 H 1.00823 0.29925 0.98754 0.0
C330 C 0.05042 0.32295 0.08797 0.0
C331 C 1.00119 0.29348 0.04934 0.0
C332 C 0.9651 0.2704 0.04539 0.0
C333 C 0.06926 0.33535 0.05424 0.0
C334 C 0.05386 0.32676 1.01757 0.0
C335 C 1.02001 0.30596 1.01566 0.0
C336 C 0.07241 0.33804 0.9807 0.0
C337 C 0.1056 0.35689 0.05792 0.0
C338 C 0.08786 0.37099 0.96944 0.0
C339 C 0.10252 0.38073 0.93293 0.0
C340 C 0.10197 0.35765 0.90703 0.0
C341 C 0.08772 0.32494 0.91915 0.0
C342 C 0.07294 0.31523 0.95542 0.0
H343 H 0.11436 0.35668 0.08775 0.0
H344 H 0.1182 0.349 1.03745 0.0
H345 H 0.11246 0.38234 0.05046 0.0
H346 H 0.08752 0.38899 0.9883 0.0
H347 H 0.11309 0.40605 0.9244 0.0
H348 H 0.33475 0.10389 0.40541 0.0
H349 H 0.31528 0.0814 0.47079 0.0
H350 H 0.36403 0.02573 0.46285 0.0
H351 H 0.38331 0.04783 0.39855 0.0
H352 H 0.27605 1.01374 0.49133 0.0
H353 H 0.39416 0.06949 0.5687 0.0
H354 H 0.38899 0.08465 0.52272 0.0
H355 H 0.39388 0.04942 0.5247 0.0
C356 C 0.3417 0.08731 0.41802 0.0
C357 C 0.3608 0.07788 0.3969 0.0
C358 C 0.33046 0.07433 0.45525 0.0
C359 C 0.33859 0.05218 0.47212 0.0
C360 C 0.35794 0.04322 0.45104 0.0
H361 H 0.29267 0.92852 0.67778 0.0
H362 H 0.3138 0.95746 0.61596 0.0
C363 C 0.36885 0.05584 0.41405 0.0
C364 C 0.32575 0.03679 0.51072 0.0
H365 H 0.34951 0.02426 0.59989 0.0
C366 C 0.29208 1.01639 0.51525 0.0
C367 C 0.34662 0.03984 0.54189 0.0
C368 C 0.38291 0.06227 0.53949 0.0
C369 C 0.27884 0.9983 0.54948 0.0
C370 C 0.29976 1.00109 0.58053 0.0
C371 C 0.33341 0.02182 0.57615 0.0
C372 C 0.28711 0.98336 0.61807 0.0
C373 C 0.24259 0.97549 0.55151 0.0
C374 C 0.26548 0.98849 0.64023 0.0
C375 C 0.2535 0.97205 0.67533 0.0
C376 C 0.2631 0.95028 0.68964 0.0
C377 C 0.28501 0.94528 0.66775 0.0
C378 C 0.29701 0.96178 0.63237 0.0
H379 H 0.23138 0.969 0.52222 0.0
H380 H 0.23671 0.95269 0.56719 0.0
H381 H 0.23135 0.98765 0.56725 0.0
H382 H 0.25804 1.00554 0.63056 0.0
H383 H 0.23694 0.97681 0.6916 0.0
H384 H 0.67992 0.76798 0.91384 0.0
H385 H 0.69744 0.76712 0.98123 0.0
H386 H 0.74167 0.71164 0.94446 0.0
H387 H 0.72465 0.71251 0.87823 0.0
H388 H 0.68185 0.70884 1.0281 0.0
H389 H 0.81426 0.78814 1.00603 0.0
H390 H 0.78445 0.78747 0.97281 0.0
H391 H 0.79537 0.75627 0.9707 0.0
C392 C 0.69377 0.75606 0.92027 0.0
C393 C 0.7009 0.74031 0.89082 0.0
C394 C 0.70357 0.75538 0.95869 0.0
C395 C 0.72105 0.73945 0.96784 0.0
C396 C 0.72857 0.72437 0.93816 0.0
H397 H 0.75418 0.65766 0.17855 0.0
H398 H 0.73231 0.66618 0.11754 0.0
C399 C 0.71868 0.72482 0.90024 0.0
C400 C 0.73114 0.73747 1.00819 0.0
H401 H 0.79809 0.75392 0.06206 0.0
C402 C 0.70726 0.71909 1.03583 0.0
C403 C 0.76428 0.75089 1.0183 0.0
C404 C 0.7911 0.77206 0.99053 0.0
C405 C 0.71568 0.71293 0.07286 0.0
C406 C 0.74884 0.72499 0.08224 0.0
C407 C 0.77265 0.74425 0.05491 0.0
C408 C 0.75982 0.71898 0.12044 0.0
C409 C 0.68901 0.69375 0.10161 0.0
C410 C 0.78281 0.7456 0.14221 0.0
C411 C 0.79558 0.74073 0.17642 0.0
C412 C 0.78562 0.7091 0.19004 0.0
C413 C 0.76209 0.68229 0.16888 0.0
C414 C 0.74946 0.68719 0.13416 0.0
H415 H 0.66653 0.69432 0.09425 0.0
H416 H 0.68303 0.66792 0.10128 0.0
H417 H 0.69675 0.70333 0.13139 0.0
H418 H 0.79123 0.77032 0.13246 0.0
H419 H 0.81345 0.76197 0.1922 0.0
H420 H 0.94284 0.24796 0.40711 0.0
H421 H 0.96065 0.24935 0.47482 0.0
H422 H 1.02574 0.35305 0.46528 0.0
H423 H 1.00871 0.35175 0.39847 0.0
H424 H 0.03082 0.27592 0.49667 0.0
H425 H 0.97592 0.34074 0.56922 0.0
H426 H 0.96012 0.31857 0.52448 0.0
H427 H 0.99576 0.3584 0.52415 0.0
C428 C 0.9605 0.27102 0.41982 0.0
C429 C 0.97437 0.29971 0.39752 0.0
C430 C 0.97073 0.27182 0.45837 0.0
C431 C 0.9943 0.30142 0.47522 0.0
C432 C 1.00723 0.33006 0.45318 0.0
H433 H 0.11396 0.37784 0.68221 0.0
H434 H 0.08414 0.36987 0.62088 0.0
C435 C 0.99752 0.3292 0.41485 0.0
C436 C 1.00776 0.30273 0.51459 0.0
H437 H 1.01871 0.33875 0.60318 0.0
C438 C 0.02775 0.28915 0.52022 0.0
C439 C 1.00427 0.3206 0.54499 0.0
C440 C 0.98266 0.33524 0.54068 0.0
C441 C 0.04518 0.29384 0.55495 0.0
C442 C 0.04187 0.31192 0.5854 0.0
C443 C 1.0214 0.32503 0.57993 0.0
C444 C 0.0592 0.31709 0.62317 0.0
C445 C 0.06804 0.28053 0.55797 0.0
C446 C 0.0546 0.29023 0.64532 0.0
C447 C 0.07173 0.29477 0.67989 0.0
C448 C 0.09351 0.32629 0.69364 0.0
C449 C 0.0974 0.3533 0.67228 0.0
C450 C 0.08037 0.34872 0.63728 0.0
H451 H 0.07508 0.27618 0.52898 0.0
H452 H 0.09047 0.29742 0.57419 0.0
H453 H 0.05575 0.25684 0.57353 0.0
H454 H 0.03774 0.26563 0.63582 0.0
H455 H 0.06773 0.27341 0.69601 0.0
H456 H 0.58592 0.20303 0.22719 0.0
H457 H 0.64474 0.22552 0.23407 0.0
H458 H 0.62768 0.1489 0.31463 0.0
H459 H 0.56897 0.12602 0.30755 0.0
H460 H 0.68538 0.24652 0.30391 0.0
H461 H 0.68607 0.14346 0.22924 0.0
H462 H 0.6526 0.15109 0.22514 0.0
H463 H 0.65711 0.13183 0.26775 0.0
C464 C 0.59467 0.19086 0.24624 0.0
C465 C 0.57261 0.16258 0.26667 0.0
C466 C 0.62832 0.20389 0.25032 0.0
C467 C 0.64065 0.18872 0.27455 0.0
C468 C 0.61875 0.16084 0.29545 0.0
H469 H 0.82696 0.20985 0.33153 0.0
H470 H 0.77011 0.19512 0.32632 0.0
C471 C 0.58515 0.14793 0.2916 0.0
C472 C 0.67633 0.20165 0.27764 0.0
H473 H 0.73487 0.18171 0.26044 0.0
C474 C 0.69631 0.23249 0.29422 0.0
C475 C 0.69056 0.18337 0.26489 0.0
C476 C 0.67061 0.15071 0.24544 0.0
C477 C 0.72994 0.24501 0.29957 0.0
C478 C 0.74411 0.22649 0.28727 0.0
C479 C 0.72411 0.19591 0.27006 0.0
C480 C 0.77933 0.2376 0.29289 0.0
C481 C 0.74975 0.27744 0.31953 0.0
C482 C 0.80382 0.26674 0.27627 0.0
C483 C 0.83667 0.27545 0.27943 0.0
C484 C 0.84567 0.25498 0.29891 0.0
C485 C 0.82109 0.22624 0.31621 0.0
C486 C 0.78843 0.21769 0.31321 0.0
H487 H 0.73415 0.2844 0.33595 0.0
H488 H 0.76775 0.27696 0.33974 0.0
H489 H 0.76318 0.29661 0.29749 0.0
H490 H 0.79749 0.28226 0.25978 0.0
H491 H 0.85485 0.29759 0.26545 0.0
H492 H 0.55565 0.48987 0.27772 0.0
H493 H 0.51986 0.43071 0.28155 0.0
H494 H 0.60271 0.41735 0.27203 0.0
H495 H 0.63867 0.47641 0.26774 0.0
H496 H 0.51044 0.38241 0.22854 0.0
H497 H 0.55709 0.36329 0.36803 0.0
H498 H 0.56608 0.40314 0.35153 0.0
H499 H 0.58769 0.38444 0.33197 0.0
C500 C 0.56633 0.47442 0.27616 0.0
C501 C 0.60021 0.48816 0.27258 0.0
C502 C 0.54578 0.44052 0.27858 0.0
C503 C 0.55855 0.41948 0.27775 0.0
C504 C 0.59228 0.43302 0.27372 0.0
H505 H 0.46912 0.20666 0.28832 0.0
H506 H 0.50714 0.26552 0.28397 0.0
C507 C 0.61285 0.46691 0.27126 0.0
C508 C 0.53649 0.3834 0.28014 0.0
H509 H 0.51923 0.31584 0.33403 0.0
C510 C 0.5123 0.36789 0.25169 0.0
C511 C 0.53899 0.36431 0.3102 0.0
C512 C 0.56365 0.37959 0.34239 0.0
C513 C 0.49086 0.33395 0.25221 0.0
C514 C 0.49309 0.31489 0.28252 0.0
C515 C 0.51746 0.33035 0.3108 0.0
C516 C 0.46997 0.27904 0.28574 0.0
C517 C 0.46643 0.31873 0.21976 0.0
C518 C 0.4364 0.26692 0.28894 0.0
C519 C 0.4146 0.23331 0.29135 0.0
C520 C 0.42581 0.21089 0.29098 0.0
C521 C 0.45954 0.22311 0.28862 0.0
C522 C 0.48135 0.25681 0.28613 0.0
H523 H 0.47397 0.33455 0.19362 0.0
H524 H 0.463 0.29456 0.2117 0.0
H525 H 0.44268 0.31528 0.22931 0.0
H526 H 0.42699 0.2835 0.2897 0.0
H527 H 0.38888 0.22494 0.29347 0.0
H528 H 0.89718 0.4421 0.19167 0.0
H529 H 0.87192 0.47591 0.19832 0.0
H530 H 0.86495 0.45974 0.32157 0.0
H531 H 0.89057 0.42648 0.31542 0.0
H532 H 0.80736 0.45316 0.2867 0.0
H533 H 0.91828 0.56869 0.24513 0.0
H534 H 0.90513 0.5357 0.21131 0.0
H535 H 0.91938 0.53239 0.25843 0.0
C536 C 0.89048 0.44588 0.22023 0.0
C537 C 0.896 0.43149 0.25298 0.0
C538 C 0.87595 0.46516 0.22396 0.0
C539 C 0.86677 0.47056 0.26049 0.0
C540 C 0.87172 0.45581 0.29308 0.0
H541 H 0.83467 0.62449 0.33644 0.0
H542 H 0.85111 0.58387 0.32737 0.0
C543 C 0.88627 0.43664 0.28943 0.0
C544 C 0.85272 0.49217 0.26513 0.0
H545 H 0.87096 0.57142 0.25695 0.0
C546 C 0.82117 0.479 0.28003 0.0
C547 C 0.87093 0.52593 0.25686 0.0
C548 C 0.90541 0.54171 0.24234 0.0
C549 C 0.80735 0.49871 0.28688 0.0
C550 C 0.8255 0.53243 0.27831 0.0
C551 C 0.857 0.54553 0.26331 0.0
C552 C 0.81304 0.55502 0.28616 0.0
C553 C 0.77385 0.48352 0.30423 0.0
C554 C 0.78571 0.55205 0.26651 0.0
C555 C 0.77609 0.57532 0.27173 0.0
C556 C 0.79377 0.6021 0.29652 0.0
C557 C 0.82044 0.60428 0.31707 0.0
C558 C 0.82999 0.58109 0.31185 0.0
H559 H 0.76608 0.45909 0.31682 0.0
H560 H 0.773 0.4994 0.32715 0.0
H561 H 0.75613 0.48061 0.28133 0.0
H562 H 0.7725 0.53239 0.24613 0.0
H563 H 0.75555 0.57296 0.25528 0.0
H564 H 0.09408 0.55288 0.77253 0.0
H565 H 0.12145 0.61215 0.77964 0.0
H566 H 0.21435 0.6171 0.78238 0.0
H567 H 0.18729 0.55773 0.77667 0.0
H568 H 0.16909 0.65122 0.84397 0.0
H569 H 0.21986 0.68371 0.69514 0.0
H570 H 0.18498 0.64448 0.70638 0.0
H571 H 0.22479 0.65357 0.72148 0.0
C572 C 0.12031 0.56639 0.77502 0.0
C573 C 0.13834 0.55021 0.77395 0.0
C574 C 0.13593 0.60037 0.77882 0.0
C575 C 0.16994 0.61906 0.78119 0.0
C576 C 0.1881 0.60319 0.78006 0.0
H577 H 0.29361 0.83339 0.78473 0.0
H578 H 0.27561 0.77495 0.78332 0.0
C579 C 0.17251 0.56917 0.77658 0.0
C580 C 0.18626 0.65508 0.78571 0.0
H581 H 0.23128 0.72706 0.73726 0.0
C582 C 0.18279 0.66784 0.82071 0.0
C583 C 0.20453 0.67672 0.75556 0.0
C584 C 0.20879 0.66415 0.71735 0.0
C585 C 0.19679 0.70164 0.82626 0.0
C586 C 0.21392 0.72335 0.7955 0.0
C587 C 0.21814 0.71056 0.76083 0.0
C588 C 0.22561 0.75901 0.79784 0.0
C589 C 0.1933 0.7137 0.86525 0.0
C590 C 0.2036 0.76965 0.8061 0.0
C591 C 0.21386 0.80289 0.80731 0.0
C592 C 0.24641 0.8266 0.79969 0.0
C593 C 0.26849 0.81597 0.79112 0.0
C594 C 0.25818 0.7825 0.79016 0.0
H595 H 0.19027 0.69621 0.8886 0.0
H596 H 0.21469 0.73781 0.87228 0.0
H597 H 0.17128 0.71613 0.86504 0.0
H598 H 0.17818 0.75218 0.81096 0.0
H599 H 0.19592 0.80988 0.81358 0.0
H600 H 0.38833 0.82545 0.74898 0.0
H601 H 0.42039 0.79826 0.75756 0.0
H602 H 0.50715 0.89168 0.77257 0.0
H603 H 0.47543 0.919 0.76417 0.0
H604 H 0.48216 0.81259 0.71288 0.0
H605 H 0.49792 0.83307 0.87165 0.0
H606 H 0.46517 0.83319 0.84495 0.0
H607 H 0.50553 0.86775 0.8425 0.0
C608 C 0.41424 0.8402 0.75409 0.0
C609 C 0.4293 0.87444 0.75585 0.0
C610 C 0.43252 0.82462 0.75884 0.0
C611 C 0.46609 0.84294 0.76598 0.0
C612 C 0.48124 0.87708 0.76729 0.0
H613 H 0.6314 0.82542 0.81619 0.0
H614 H 0.58829 0.8383 0.80936 0.0
C615 C 0.46309 0.89267 0.76218 0.0
C616 C 0.4855 0.82665 0.77251 0.0
H617 H 0.52997 0.81424 0.84145 0.0
C618 C 0.49235 0.81252 0.74103 0.0
C619 C 0.49867 0.82661 0.80927 0.0
C620 C 0.49136 0.84072 0.84421 0.0
C621 C 0.5134 0.79982 0.74495 0.0
C622 C 0.52732 0.80052 0.78163 0.0
C623 C 0.51936 0.8136 0.81335 0.0
C624 C 0.55263 0.79099 0.7871 0.0
C625 C 0.52186 0.78736 0.70936 0.0
C626 C 0.54696 0.75969 0.7777 0.0
C627 C 0.57195 0.75216 0.78135 0.0
C628 C 0.60297 0.77572 0.79484 0.0
C629 C 0.60798 0.80654 0.80561 0.0
C630 C 0.58323 0.81404 0.80173 0.0
H631 H 0.51498 0.79522 0.68231 0.0
H632 H 0.54829 0.79602 0.70852 0.0
H633 H 0.50853 0.76031 0.70995 0.0
H634 H 0.52333 0.74114 0.76729 0.0
H635 H 0.56709 0.72814 0.77305 0.0
H636 H 0.23018 0.4131 0.83427 0.0
H637 H 0.28683 0.45458 0.82422 0.0
H638 H 0.25716 0.50618 0.74623 0.0
H639 H 0.20006 0.46433 0.75572 0.0
H640 H 0.30535 0.49769 0.7157 0.0
H641 H 0.34014 0.54711 0.86389 0.0
H642 H 0.32178 0.50356 0.8629 0.0
H643 H 0.29828 0.52218 0.8489 0.0
C644 C 0.23553 0.43349 0.81541 0.0
C645 C 0.21042 0.43532 0.79587 0.0
C646 C 0.26806 0.45736 0.80985 0.0
C647 C 0.27637 0.48381 0.78486 0.0
C648 C 0.25137 0.4861 0.76582 0.0
H649 H 0.47979 0.6416 0.77104 0.0
H650 H 0.42067 0.61144 0.77818 0.0
C651 C 0.21871 0.46219 0.77139 0.0
C652 C 0.3112 0.5077 0.77683 0.0
H653 H 0.38397 0.55814 0.82097 0.0
C654 C 0.32247 0.51122 0.73866 0.0
C655 C 0.33357 0.52577 0.80663 0.0
C656 C 0.32279 0.52476 0.84781 0.0
C657 C 0.35558 0.53121 0.72974 0.0
C658 C 0.37826 0.54771 0.7599 0.0
C659 C 0.36677 0.54524 0.79784 0.0
C660 C 0.41403 0.56678 0.75304 0.0
C661 C 0.36587 0.53448 0.688 0.0
C662 C 0.43016 0.55187 0.73641 0.0
C663 C 0.46394 0.5692 0.73178 0.0
C664 C 0.4826 0.6018 0.74417 0.0
C665 C 0.46632 0.61677 0.76054 0.0
C666 C 0.43246 0.59943 0.76499 0.0
H667 H 0.34551 0.52959 0.66804 0.0
H668 H 0.38661 0.5592 0.68178 0.0
H669 H 0.37346 0.51634 0.68174 0.0
H670 H 0.4167 0.52653 0.72772 0.0
H671 H 0.47545 0.55687 0.71873 0.0
H672 H 0.2284 0.20038 0.24583 0.0
H673 H 0.1966 0.22728 0.2337 0.0
H674 H 0.17887 0.22609 0.35602 0.0
H675 H 0.21155 0.2006 0.36852 0.0
H676 H 0.13304 0.20515 0.24834 0.0
H677 H 0.20687 0.31931 0.32974 0.0
H678 H 0.22187 0.29223 0.31768 0.0
H679 H 0.19642 0.2843 0.3594 0.0
C680 C 0.21826 0.20641 0.27024 0.0
C681 C 0.22264 0.19827 0.3082 0.0
C682 C 0.1999 0.22163 0.26321 0.0
C683 C 0.18577 0.22929 0.29398 0.0
C684 C 0.19013 0.22121 0.33183 0.0
H685 H 0.03636 0.26628 0.34796 0.0
H686 H 0.08356 0.25921 0.34302 0.0
C687 C 0.20848 0.20611 0.33888 0.0
C688 C 0.16485 0.24395 0.28672 0.0
H689 H 0.15083 0.30411 0.31789 0.0
C690 C 0.13731 0.2272 0.26285 0.0
C691 C 0.17049 0.27288 0.30538 0.0
C692 C 0.20073 0.29339 0.32914 0.0
C693 C 0.11422 0.23735 0.25928 0.0
C694 C 0.11891 0.26511 0.27989 0.0
C695 C 0.14723 0.2828 0.30215 0.0
C696 C 0.09274 0.27342 0.28283 0.0
C697 C 0.08399 0.21725 0.23534 0.0
C698 C 0.08282 0.28487 0.25089 0.0
C699 C 0.05582 0.28931 0.25376 0.0
C700 C 0.03824 0.28195 0.28848 0.0
C701 C 0.04926 0.27196 0.32074 0.0
C702 C 0.07628 0.26793 0.31799 0.0
H703 H 0.08249 0.19457 0.22426 0.0
H704 H 0.06197 0.21055 0.25277 0.0
H705 H 0.08383 0.23187 0.21025 0.0
H706 H 0.0954 0.28952 0.22355 0.0
H707 H 0.0478 0.29691 0.2284 0.0
H708 H 1.02553 0.83573 0.35119 0.0
H709 H 0.08397 0.87098 0.34255 0.0
H710 H 0.07146 0.86074 0.21877 0.0
H711 H 1.01267 0.82658 0.22703 0.0
H712 H 0.12722 0.85634 0.30829 0.0
H713 H 0.1262 0.95901 0.23096 0.0
H714 H 0.09094 0.9276 0.25559 0.0
H715 H 0.10206 0.91967 0.20903 0.0
C716 C 0.03502 0.84148 0.32205 0.0
C717 C 1.01421 0.82844 0.28981 0.0
C718 C 0.06855 0.86138 0.31718 0.0
C719 C 0.08213 0.86878 0.28001 0.0
C720 C 0.06153 0.85583 0.24772 0.0
H721 H 0.28768 1.00671 0.22619 0.0
H722 H 0.23267 0.95956 0.21817 0.0
C723 C 0.02791 0.836 0.25254 0.0
C724 C 0.11791 0.88961 0.27551 0.0
H725 H 0.17717 0.96332 0.24122 0.0
C726 C 0.13812 0.87963 0.29336 0.0
C727 C 0.13219 0.91987 0.25571 0.0
C728 C 0.11182 0.93241 0.23696 0.0
C729 C 0.17212 0.89946 0.29294 0.0
C730 C 0.18631 0.93023 0.2745 0.0
C731 C 0.16623 0.93961 0.25515 0.0
C732 C 0.22128 0.95479 0.27923 0.0
C733 C 0.19257 0.88756 0.31283 0.0
C734 C 0.23333 0.96721 0.31621 0.0
C735 C 0.26444 0.99412 0.32076 0.0
C736 C 0.28423 1.00913 0.28845 0.0
C737 C 0.27306 0.99543 0.25163 0.0
C738 C 0.2416 0.96864 0.247 0.0
H739 H 0.17958 0.86051 0.31451 0.0
H740 H 0.21597 0.8962 0.29756 0.0
H741 H 0.19801 0.89716 0.34282 0.0
H742 H 0.21796 0.95732 0.3414 0.0
H743 H 0.27238 1.00425 0.34946 0.0
H744 H 0.90064 0.04642 0.27878 0.0
H745 H 0.87548 0.9876 0.26821 0.0
H746 H 0.79257 0.97127 0.33546 0.0
H747 H 0.81769 0.02993 0.3464 0.0
H748 H 0.81327 0.93037 0.35658 0.0
H749 H 0.80191 0.92833 0.19715 0.0
H750 H 0.84284 0.95529 0.21291 0.0
H751 H 0.81122 0.9639 0.22546 0.0
C752 C 0.87692 0.03032 0.29098 0.0
C753 C 0.86124 0.04288 0.31353 0.0
C754 C 0.86245 0.9967 0.28475 0.0
C755 C 0.8318 0.97499 0.3004 0.0
C756 C 0.81614 0.9875 0.32292 0.0
H757 H 0.73126 0.7583 0.29931 0.0
H758 H 0.73753 0.8133 0.29942 0.0
C759 C 0.83065 0.02105 0.32936 0.0
C760 C 0.81694 0.93917 0.29512 0.0
H761 H 0.7978 0.88026 0.22682 0.0
C762 C 0.80927 0.91932 0.32819 0.0
C763 C 0.81144 0.92465 0.25806 0.0
C764 C 0.81696 0.94411 0.22139 0.0
C765 C 0.79807 0.88578 0.32523 0.0
C766 C 0.79429 0.87169 0.28826 0.0
C767 C 0.80064 0.89117 0.25514 0.0
C768 C 0.78842 0.83809 0.28385 0.0
C769 C 0.79203 0.86587 0.36163 0.0
C770 C 0.81463 0.83396 0.27409 0.0
C771 C 0.8112 0.80302 0.27444 0.0
C772 C 0.78135 0.77544 0.28406 0.0
C773 C 0.75446 0.7792 0.29169 0.0
C774 C 0.75806 0.8105 0.29191 0.0
H775 H 0.79792 0.88092 0.38821 0.0
H776 H 0.76609 0.84645 0.36275 0.0
H777 H 0.80687 0.85378 0.36146 0.0
H778 H 0.8382 0.85491 0.26774 0.0
H779 H 0.83224 0.80073 0.26806 0.0
H780 H 0.21127 0.21745 0.72958 0.0
H781 H 0.2322 0.17999 0.72115 0.0
H782 H 0.21529 0.15397 0.8419 0.0
H783 H 0.19482 0.19149 0.85075 0.0
H784 H 0.2853 0.17919 0.76062 0.0
H785 H 0.16781 0.06574 0.78504 0.0
H786 H 0.17047 0.10427 0.77399 0.0
H787 H 0.17805 0.09555 0.82241 0.0
C788 C 0.21208 0.2038 0.75437 0.0
C789 C 0.20109 0.20729 0.7908 0.0
C790 C 0.224 0.18239 0.74945 0.0
C791 C 0.22492 0.16394 0.78078 0.0
C792 C 0.21419 0.16752 0.81716 0.0
H793 H 0.279 0.02692 0.84814 0.0
H794 H 0.26901 0.07237 0.84106 0.0
C795 C 0.20234 0.18888 0.82213 0.0
C796 C 0.23722 0.14099 0.77592 0.0
H797 H 0.21557 0.0613 0.7893 0.0
C798 C 0.27002 0.15332 0.76631 0.0
C799 C 0.21712 0.10724 0.78301 0.0
C800 C 0.18132 0.0923 0.79131 0.0
C801 C 0.28364 0.13294 0.76578 0.0
C802 C 0.26384 0.09954 0.77484 0.0
C803 C 0.23077 0.08704 0.78271 0.0
C804 C 0.27696 0.07721 0.77926 0.0
C805 C 0.31929 0.14732 0.75727 0.0
C806 C 0.28621 0.06584 0.74703 0.0
C807 C 0.29233 0.03993 0.75111 0.0
C808 C 0.28875 0.02494 0.78735 0.0
C809 C 0.28182 0.03801 0.81986 0.0
C810 C 0.27604 0.06391 0.81585 0.0
H811 H 0.33206 0.17431 0.7546 0.0
H812 H 0.33113 0.14064 0.78052 0.0
H813 H 0.32214 0.13708 0.72975 0.0
H814 H 0.28671 0.07559 0.71847 0.0
H815 H 0.29729 0.03004 0.72557 0.0
H816 H 0.02888 0.81975 0.84135 0.0
H817 H 0.97111 0.79621 0.82736 0.0
H818 H 0.99375 0.8604 0.72917 0.0
H819 H 0.05183 0.88513 0.74392 0.0
H820 H 0.94704 0.85978 0.77311 0.0
H821 H 0.91483 0.73236 0.74491 0.0
H822 H 0.93507 0.74646 0.79065 0.0
H823 H 0.95643 0.76542 0.74664 0.0
C824 C 1.02168 0.82912 0.81691 0.0
C825 C 0.04516 0.85455 0.79392 0.0
C826 C 0.98855 0.81515 0.80851 0.0
C827 C 0.978 0.82596 0.77666 0.0
C828 C 1.0013 0.85135 0.75361 0.0
H829 H 0.76904 0.74554 0.71867 0.0
H830 H 0.82612 0.75937 0.71122 0.0
C831 C 0.03452 0.86541 0.76203 0.0
C832 C 0.94262 0.81238 0.76941 0.0
H833 H 0.87019 0.74083 0.76125 0.0
C834 C 0.93037 0.83383 0.76977 0.0
C835 C 0.92074 0.77852 0.76455 0.0
C836 C 0.93248 0.75442 0.76123 0.0
C837 C 0.89684 0.82223 0.76777 0.0
C838 C 0.87489 0.78825 0.76576 0.0
C839 C 0.88707 0.76685 0.76314 0.0
C840 C 0.83948 0.77491 0.7706 0.0
C841 C 0.88497 0.84635 0.76914 0.0
C842 C 0.82796 0.77774 0.8067 0.0
C843 C 0.79577 0.77 0.81094 0.0
C844 C 0.77427 0.75906 0.77919 0.0
C845 C 0.78507 0.75383 0.74361 0.0
C846 C 0.81764 0.76184 0.73931 0.0
H847 H 0.90444 0.87135 0.76129 0.0
H848 H 0.86398 0.83893 0.74925 0.0
H849 H 0.87682 0.84708 0.79894 0.0
H850 H 0.84432 0.78738 0.83128 0.0
H851 H 0.78804 0.77395 0.83882 0.0
H852 H 1.00839 0.26838 0.7414 0.0
H853 H 0.96302 0.21175 0.73757 0.0
H854 H 0.98504 0.19386 0.85331 0.0
H855 H 0.03037 0.24971 0.85686 0.0
H856 H 0.98387 0.15049 0.80013 0.0
H857 H 0.87258 0.1605 0.78746 0.0
H858 H 0.90456 0.18436 0.75376 0.0
H859 H 0.91091 0.19373 0.80443 0.0
C860 C 1.0028 0.25255 0.76635 0.0
C861 C 1.0228 0.26331 0.79941 0.0
C862 C 0.97696 0.22022 0.76414 0.0
C863 C 0.97063 0.19853 0.79519 0.0
C864 C 0.98953 0.21005 0.82895 0.0
H865 H 0.81667 1.00687 0.85344 0.0
H866 H 0.85453 0.06514 0.84539 0.0
C867 C 1.01537 0.242 0.83099 0.0
C868 C 0.94663 0.16313 0.79188 0.0
H869 H 0.86558 0.10755 0.78417 0.0
C870 C 0.958 0.14109 0.7964 0.0
C871 C 0.91293 0.15095 0.78716 0.0
C872 C 0.89932 0.1735 0.7832 0.0
C873 C 0.93662 0.10728 0.79737 0.0
C874 C 0.90287 0.095 0.79277 0.0
C875 C 0.89148 0.117 0.78745 0.0
C876 C 0.87897 0.05955 0.79599 0.0
C877 C 0.95032 0.08511 0.80494 0.0
C878 C 0.87982 0.03695 0.77062 0.0
C879 C 0.8585 1.00345 0.77554 0.0
C880 C 0.83569 0.99188 0.80578 0.0
C881 C 0.83438 1.01475 0.83043 0.0
C882 C 0.85576 0.04816 0.82558 0.0
H883 H 0.97545 0.09865 0.81681 0.0
H884 H 0.93487 0.0654 0.82559 0.0
H885 H 0.95107 0.07362 0.77738 0.0
H886 H 0.89718 0.04519 0.74719 0.0
H887 H 0.86029 0.98662 0.75604 0.0
loop_
_geom_bond_atom_site_label_1
_geom_bond_atom_site_label_2
_geom_bond_distance
_geom_bond_site_symmetry_2
_ccdc_geom_bond_type
Ho0 C3 2.811 . S
Ho0 O20 2.322 . S
Ho0 O22 2.378 . S
Ho0 O23 2.524 . S
Ho0 O24 2.381 . S
Ho0 O25 2.669 . S
Ho0 O27 2.346 . S
Ho0 O31 2.305 . S
Ho1 C12 2.811 . S
Ho1 O21 2.346 . S
Ho1 O25 2.305 . S
Ho1 O26 2.322 . S
Ho1 O28 2.378 . S
Ho1 O29 2.524 . S
Ho1 O30 2.381 . S
Ho1 O31 2.669 . S
C2 O20 1.259 . S
C2 O21 1.268 . S
C3 Ho0 2.811 . S
C3 C4 1.488 . S
C3 O22 1.215 . S
C3 O23 1.289 . S
C4 C3 1.488 . S
C4 C5 1.348 . S
C4 C9 1.413 . S
C5 C4 1.348 . S
C5 C6 1.442 . S
C5 H32 0.930 . S
C6 C5 1.442 . S
C6 C7 1.381 . S
C6 H33 0.931 . S
C7 C6 1.381 . S
C7 C8 1.321 . S
C8 C7 1.321 . S
C8 C9 1.403 . S
C8 H34 0.934 . S
C9 C4 1.413 . S
C9 C8 1.403 . S
C9 H35 0.930 . S
C10 O24 1.275 . S
C10 O25 1.256 . S
C11 O26 1.259 . S
C11 O27 1.268 . S
C12 Ho1 2.811 . S
C12 C13 1.488 . S
C12 O28 1.215 . S
C12 O29 1.289 . S
C13 C12 1.488 . S
C13 C14 1.348 . S
C13 C18 1.413 . S
C14 C13 1.348 . S
C14 C15 1.442 . S
C14 H36 0.930 . S
C15 C14 1.442 . S
C15 C16 1.381 . S
C15 H37 0.931 . S
C16 C15 1.381 . S
C16 C17 1.321 . S
C17 C16 1.321 . S
C17 C18 1.403 . S
C17 H38 0.934 . S
C18 C13 1.413 . S
C18 C17 1.403 . S
C18 H39 0.930 . S
C19 O30 1.275 . S
C19 O31 1.256 . S
O20 Ho0 2.322 . S
O20 C2 1.259 . S
O21 Ho1 2.346 . S
O21 C2 1.268 . S
O22 Ho0 2.378 . S
O22 C3 1.215 . S
O23 Ho0 2.524 . S
O23 C3 1.289 . S
O24 Ho0 2.381 . S
O24 C10 1.275 . S
O25 Ho0 2.669 . S
O25 Ho1 2.305 . S
O25 C10 1.256 . S
O26 Ho1 2.322 . S
O26 C11 1.259 . S
O27 Ho0 2.346 . S
O27 C11 1.268 . S
O28 Ho1 2.378 . S
O28 C12 1.215 . S
O29 Ho1 2.524 . S
O29 C12 1.289 . S
O30 Ho1 2.381 . S
O30 C19 1.275 . S
O31 Ho0 2.305 . S
O31 Ho1 2.669 . S
O31 C19 1.256 . S
H32 C5 0.930 . S
H33 C6 0.931 . S
H34 C8 0.934 . S
H35 C9 0.930 . S
H36 C14 0.930 . S
H37 C15 0.931 . S
H38 C17 0.934 . S
H39 C18 0.930 . S
Ho40 C43 2.811 . S
Ho40 O60 2.322 . S
Ho40 O62 2.378 . S
Ho40 O63 2.524 . S
Ho40 O64 2.381 . S
Ho40 O65 2.669 . S
Ho40 O67 2.346 . S
Ho40 O71 2.305 . S
Ho41 C52 2.811 . S
Ho41 O61 2.346 . S
Ho41 O65 2.305 . S
Ho41 O66 2.322 . S
Ho41 O68 2.378 . S
Ho41 O69 2.524 . S
Ho41 O70 2.381 . S
Ho41 O71 2.669 . S
C42 O60 1.259 . S
C42 O61 1.268 . S
C43 Ho40 2.811 . S
C43 C44 1.488 . S
C43 O62 1.215 . S
C43 O63 1.289 . S
C44 C43 1.488 . S
C44 C45 1.348 . S
C44 C49 1.413 . S
C45 C44 1.348 . S
C45 C46 1.442 . S
C45 H72 0.930 . S
C46 C45 1.442 . S
C46 C47 1.381 . S
C46 H73 0.931 . S
C47 C46 1.381 . S
C47 C48 1.321 . S
C48 C47 1.321 . S
C48 C49 1.403 . S
C48 H74 0.934 . S
C49 C44 1.413 . S
C49 C48 1.403 . S
C49 H75 0.930 . S
C50 O64 1.275 . S
C50 O65 1.256 . S
C51 O66 1.259 . S
C51 O67 1.268 . S
C52 Ho41 2.811 . S
C52 C53 1.488 . S
C52 O68 1.215 . S
C52 O69 1.289 . S
C53 C52 1.488 . S
C53 C54 1.348 . S
C53 C58 1.413 . S
C54 C53 1.348 . S
C54 C55 1.442 . S
C54 H76 0.930 . S
C55 C54 1.442 . S
C55 C56 1.381 . S
C55 H77 0.931 . S
C56 C55 1.381 . S
C56 C57 1.321 . S
C57 C56 1.321 . S
C57 C58 1.403 . S
C57 H78 0.934 . S
C58 C53 1.413 . S
C58 C57 1.403 . S
C58 H79 0.930 . S
C59 O70 1.275 . S
C59 O71 1.256 . S
O60 Ho40 2.322 . S
O60 C42 1.259 . S
O61 Ho41 2.346 . S
O61 C42 1.268 . S
O62 Ho40 2.378 . S
O62 C43 1.215 . S
O63 Ho40 2.524 . S
O63 C43 1.289 . S
O64 Ho40 2.381 . S
O64 C50 1.275 . S
O65 Ho40 2.669 . S
O65 Ho41 2.305 . S
O65 C50 1.256 . S
O66 Ho41 2.322 . S
O66 C51 1.259 . S
O67 Ho40 2.346 . S
O67 C51 1.268 . S
O68 Ho41 2.378 . S
O68 C52 1.215 . S
O69 Ho41 2.524 . S
O69 C52 1.289 . S
O70 Ho41 2.381 . S
O70 C59 1.275 . S
O71 Ho40 2.305 . S
O71 Ho41 2.669 . S
O71 C59 1.256 . S
H72 C45 0.930 . S
H73 C46 0.931 . S
H74 C48 0.934 . S
H75 C49 0.930 . S
H76 C54 0.930 . S
H77 C55 0.931 . S
H78 C57 0.934 . S
H79 C58 0.930 . S
Ho80 C83 2.811 . S
Ho80 O100 2.322 . S
Ho80 O102 2.378 . S
Ho80 O103 2.524 . S
Ho80 O104 2.381 . S
Ho80 O105 2.669 . S
Ho80 O107 2.346 . S
Ho80 O111 2.305 . S
Ho81 C92 2.811 . S
Ho81 O101 2.346 . S
Ho81 O105 2.305 . S
Ho81 O106 2.322 . S
Ho81 O108 2.378 . S
Ho81 O109 2.524 . S
Ho81 O110 2.381 . S
Ho81 O111 2.669 . S
C82 O100 1.259 . S
C82 O101 1.268 . S
C83 Ho80 2.811 . S
C83 C84 1.488 . S
C83 O102 1.215 . S
C83 O103 1.289 . S
C84 C83 1.488 . S
C84 C85 1.348 . S
C84 C89 1.413 . S
C85 C84 1.348 . S
C85 C86 1.442 . S
C85 H112 0.930 . S
C86 C85 1.442 . S
C86 C87 1.381 . S
C86 H113 0.931 . S
C87 C86 1.381 . S
C87 C88 1.321 . S
C88 C87 1.321 . S
C88 C89 1.403 . S
C88 H114 0.934 . S
C89 C84 1.413 . S
C89 C88 1.403 . S
C89 H115 0.930 . S
C90 O104 1.275 . S
C90 O105 1.256 . S
C91 O106 1.259 . S
C91 O107 1.268 . S
C92 Ho81 2.811 . S
C92 C93 1.488 . S
C92 O108 1.215 . S
C92 O109 1.289 . S
C93 C92 1.488 . S
C93 C94 1.348 . S
C93 C98 1.413 . S
C94 C93 1.348 . S
C94 C95 1.442 . S
C94 H116 0.930 . S
C95 C94 1.442 . S
C95 C96 1.381 . S
C95 H117 0.931 . S
C96 C95 1.381 . S
C96 C97 1.321 . S
C97 C96 1.321 . S
C97 C98 1.403 . S
C97 H118 0.934 . S
C98 C93 1.413 . S
C98 C97 1.403 . S
C98 H119 0.930 . S
C99 O110 1.275 . S
C99 O111 1.256 . S
O100 Ho80 2.322 . S
O100 C82 1.259 . S
O101 Ho81 2.346 . S
O101 C82 1.268 . S
O102 Ho80 2.378 . S
O102 C83 1.215 . S
O103 Ho80 2.524 . S
O103 C83 1.289 . S
O104 Ho80 2.381 . S
O104 C90 1.275 . S
O105 Ho80 2.669 . S
O105 Ho81 2.305 . S
O105 C90 1.256 . S
O106 Ho81 2.322 . S
O106 C91 1.259 . S
O107 Ho80 2.346 . S
O107 C91 1.268 . S
O108 Ho81 2.378 . S
O108 C92 1.215 . S
O109 Ho81 2.524 . S
O109 C92 1.289 . S
O110 Ho81 2.381 . S
O110 C99 1.275 . S
O111 Ho80 2.305 . S
O111 Ho81 2.669 . S
O111 C99 1.256 . S
H112 C85 0.930 . S
H113 C86 0.931 . S
H114 C88 0.934 . S
H115 C89 0.930 . S
H116 C94 0.930 . S
H117 C95 0.931 . S
H118 C97 0.934 . S
H119 C98 0.930 . S
Ho120 C123 2.811 . S
Ho120 O140 2.322 . S
Ho120 O142 2.378 . S
Ho120 O143 2.524 . S
Ho120 O144 2.381 . S
Ho120 O145 2.669 . S
Ho120 O147 2.346 . S
Ho120 O151 2.305 . S
Ho121 C132 2.811 . S
Ho121 O141 2.346 . S
Ho121 O145 2.305 . S
Ho121 O146 2.322 . S
Ho121 O148 2.378 . S
Ho121 O149 2.524 . S
Ho121 O150 2.381 . S
Ho121 O151 2.669 . S
C122 O140 1.259 . S
C122 O141 1.268 . S
C123 Ho120 2.811 . S
C123 C124 1.488 . S
C123 O142 1.215 . S
C123 O143 1.289 . S
C124 C123 1.488 . S
C124 C125 1.348 . S
C124 C129 1.413 . S
C125 C124 1.348 . S
C125 C126 1.442 . S
C125 H152 0.930 . S
C126 C125 1.442 . S
C126 C127 1.381 . S
C126 H153 0.931 . S
C127 C126 1.381 . S
C127 C128 1.321 . S
C128 C127 1.321 . S
C128 C129 1.403 . S
C128 H154 0.934 . S
C129 C124 1.413 . S
C129 C128 1.403 . S
C129 H155 0.930 . S
C130 O144 1.275 . S
C130 O145 1.256 . S
C131 O146 1.259 . S
C131 O147 1.268 . S
C132 Ho121 2.811 . S
C132 C133 1.488 . S
C132 O148 1.215 . S
C132 O149 1.289 . S
C133 C132 1.488 . S
C133 C134 1.348 . S
C133 C138 1.413 . S
C134 C133 1.348 . S
C134 C135 1.442 . S
C134 H156 0.930 . S
C135 C134 1.442 . S
C135 C136 1.381 . S
C135 H157 0.931 . S
C136 C135 1.381 . S
C136 C137 1.321 . S
C137 C136 1.321 . S
C137 C138 1.403 . S
C137 H158 0.934 . S
C138 C133 1.413 . S
C138 C137 1.403 . S
C138 H159 0.930 . S
C139 O150 1.275 . S
C139 O151 1.256 . S
O140 Ho120 2.322 . S
O140 C122 1.259 . S
O141 Ho121 2.346 . S
O141 C122 1.268 . S
O142 Ho120 2.378 . S
O142 C123 1.215 . S
O143 Ho120 2.524 . S
O143 C123 1.289 . S
O144 Ho120 2.381 . S
O144 C130 1.275 . S
O145 Ho120 2.669 . S
O145 Ho121 2.305 . S
O145 C130 1.256 . S
O146 Ho121 2.322 . S
O146 C131 1.259 . S
O147 Ho120 2.346 . S
O147 C131 1.268 . S
O148 Ho121 2.378 . S
O148 C132 1.215 . S
O149 Ho121 2.524 . S
O149 C132 1.289 . S
O150 Ho121 2.381 . S
O150 C139 1.275 . S
O151 Ho120 2.305 . S
O151 Ho121 2.669 . S
O151 C139 1.256 . S
H152 C125 0.930 . S
H153 C126 0.931 . S
H154 C128 0.934 . S
H155 C129 0.930 . S
H156 C134 0.930 . S
H157 C135 0.931 . S
H158 C137 0.934 . S
H159 C138 0.930 . S
Ho160 C163 2.811 . S
Ho160 O180 2.322 . S
Ho160 O182 2.378 . S
Ho160 O183 2.524 . S
Ho160 O184 2.381 . S
Ho160 O185 2.669 . S
Ho160 O187 2.346 . S
Ho160 O191 2.305 . S
Ho161 C172 2.811 . S
Ho161 O181 2.346 . S
Ho161 O185 2.305 . S
Ho161 O186 2.322 . S
Ho161 O188 2.378 . S
Ho161 O189 2.524 . S
Ho161 O190 2.381 . S
Ho161 O191 2.669 . S
C162 O180 1.259 . S
C162 O181 1.268 . S
C163 Ho160 2.811 . S
C163 C164 1.488 . S
C163 O182 1.215 . S
C163 O183 1.289 . S
C164 C163 1.488 . S
C164 C165 1.348 . S
C164 C169 1.413 . S
C165 C164 1.348 . S
C165 C166 1.442 . S
C165 H192 0.930 . S
C166 C165 1.442 . S
C166 C167 1.381 . S
C166 H193 0.931 . S
C167 C166 1.381 . S
C167 C168 1.321 . S
C168 C167 1.321 . S
C168 C169 1.403 . S
C168 H194 0.934 . S
C169 C164 1.413 . S
C169 C168 1.403 . S
C169 H195 0.930 . S
C170 O184 1.275 . S
C170 O185 1.256 . S
C171 O186 1.259 . S
C171 O187 1.268 . S
C172 Ho161 2.811 . S
C172 C173 1.488 . S
C172 O188 1.215 . S
C172 O189 1.289 . S
C173 C172 1.488 . S
C173 C174 1.348 . S
C173 C178 1.413 . S
C174 C173 1.348 . S
C174 C175 1.442 . S
C174 H196 0.930 . S
C175 C174 1.442 . S
C175 C176 1.381 . S
C175 H197 0.931 . S
C176 C175 1.381 . S
C176 C177 1.321 . S
C177 C176 1.321 . S
C177 C178 1.403 . S
C177 H198 0.934 . S
C178 C173 1.413 . S
C178 C177 1.403 . S
C178 H199 0.930 . S
C179 O190 1.275 . S
C179 O191 1.256 . S
O180 Ho160 2.322 . S
O180 C162 1.259 . S
O181 Ho161 2.346 . S
O181 C162 1.268 . S
O182 Ho160 2.378 . S
O182 C163 1.215 . S
O183 Ho160 2.524 . S
O183 C163 1.289 . S
O184 Ho160 2.381 . S
O184 C170 1.275 . S
O185 Ho160 2.669 . S
O185 Ho161 2.305 . S
O185 C170 1.256 . S
O186 Ho161 2.322 . S
O186 C171 1.259 . S
O187 Ho160 2.346 . S
O187 C171 1.268 . S
O188 Ho161 2.378 . S
O188 C172 1.215 . S
O189 Ho161 2.524 . S
O189 C172 1.289 . S
O190 Ho161 2.381 . S
O190 C179 1.275 . S
O191 Ho160 2.305 . S
O191 Ho161 2.669 . S
O191 C179 1.256 . S
H192 C165 0.930 . S
H193 C166 0.931 . S
H194 C168 0.934 . S
H195 C169 0.930 . S
H196 C174 0.930 . S
H197 C175 0.931 . S
H198 C177 0.934 . S
H199 C178 0.930 . S
Ho200 C203 2.811 . S
Ho200 O220 2.322 . S
Ho200 O222 2.378 . S
Ho200 O223 2.524 . S
Ho200 O224 2.381 . S
Ho200 O225 2.669 . S
Ho200 O227 2.346 . S
Ho200 O231 2.305 . S
Ho201 C212 2.811 . S
Ho201 O221 2.346 . S
Ho201 O225 2.305 . S
Ho201 O226 2.322 . S
Ho201 O228 2.378 . S
Ho201 O229 2.524 . S
Ho201 O230 2.381 . S
Ho201 O231 2.669 . S
C202 O220 1.259 . S
C202 O221 1.268 . S
C203 Ho200 2.811 . S
C203 C204 1.488 . S
C203 O222 1.215 . S
C203 O223 1.289 . S
C204 C203 1.488 . S
C204 C205 1.348 . S
C204 C209 1.413 . S
C205 C204 1.348 . S
C205 C206 1.442 . S
C205 H232 0.930 . S
C206 C205 1.442 . S
C206 C207 1.381 . S
C206 H233 0.931 . S
C207 C206 1.381 . S
C207 C208 1.321 . S
C208 C207 1.321 . S
C208 C209 1.403 . S
C208 H234 0.934 . S
C209 C204 1.413 . S
C209 C208 1.403 . S
C209 H235 0.930 . S
C210 O224 1.275 . S
C210 O225 1.256 . S
C211 O226 1.259 . S
C211 O227 1.268 . S
C212 Ho201 2.811 . S
C212 C213 1.488 . S
C212 O228 1.215 . S
C212 O229 1.289 . S
C213 C212 1.488 . S
C213 C214 1.348 . S
C213 C218 1.413 . S
C214 C213 1.348 . S
C214 C215 1.442 . S
C214 H236 0.930 . S
C215 C214 1.442 . S
C215 C216 1.381 . S
C215 H237 0.931 . S
C216 C215 1.381 . S
C216 C217 1.321 . S
C217 C216 1.321 . S
C217 C218 1.403 . S
C217 H238 0.934 . S
C218 C213 1.413 . S
C218 C217 1.403 . S
C218 H239 0.930 . S
C219 O230 1.275 . S
C219 O231 1.256 . S
O220 Ho200 2.322 . S
O220 C202 1.259 . S
O221 Ho201 2.346 . S
O221 C202 1.268 . S
O222 Ho200 2.378 . S
O222 C203 1.215 . S
O223 Ho200 2.524 . S
O223 C203 1.289 . S
O224 Ho200 2.381 . S
O224 C210 1.275 . S
O225 Ho200 2.669 . S
O225 Ho201 2.305 . S
O225 C210 1.256 . S
O226 Ho201 2.322 . S
O226 C211 1.259 . S
O227 Ho200 2.346 . S
O227 C211 1.268 . S
O228 Ho201 2.378 . S
O228 C212 1.215 . S
O229 Ho201 2.524 . S
O229 C212 1.289 . S
O230 Ho201 2.381 . S
O230 C219 1.275 . S
O231 Ho200 2.305 . S
O231 Ho201 2.669 . S
O231 C219 1.256 . S
H232 C205 0.930 . S
H233 C206 0.931 . S
H234 C208 0.934 . S
H235 C209 0.930 . S
H236 C214 0.930 . S
H237 C215 0.931 . S
H238 C217 0.934 . S
H239 C218 0.930 . S
H240 C248 0.929 . S
H241 C250 0.930 . S
H242 C252 0.930 . S
H243 C255 0.929 . S
H244 C258 0.930 . S
H245 C260 0.960 1_545 S
H246 C260 0.960 1_545 S
H247 C260 0.960 . S
C248 H240 0.929 . S
C248 C249 1.377 . S
C248 C250 1.384 . S
C249 C248 1.377 . S
C249 C255 1.390 . S
C250 H241 0.930 . S
C250 C248 1.384 . S
C250 C251 1.372 . S
C251 C250 1.372 . S
C251 C252 1.400 . S
C251 C256 1.490 . S
C252 H242 0.930 . S
C252 C251 1.400 . S
C252 C255 1.386 . S
H253 C269 0.930 . S
H254 C270 0.931 . S
C255 H243 0.929 . S
C255 C249 1.390 . S
C255 C252 1.386 . S
C256 C251 1.490 . S
C256 C258 1.395 . S
C256 C259 1.403 . S
H257 C263 0.930 . S
C258 H244 0.930 . S
C258 C256 1.395 . S
C258 C261 1.403 1_566 S
C259 C256 1.403 . S
C259 C260 1.524 . S
C259 C263 1.400 1_566 S
C260 H245 0.960 1_565 S
C260 H246 0.960 1_565 S
C260 H247 0.960 . S
C260 C259 1.524 . S
C261 C258 1.403 1_544 S
C261 C262 1.392 . S
C261 C265 1.495 . S
C262 C261 1.392 . S
C262 C263 1.385 . S
C262 C264 1.478 . S
C263 H257 0.930 . S
C263 C259 1.400 1_544 S
C263 C262 1.385 . S
C264 C262 1.478 . S
C264 C266 1.381 . S
C264 C270 1.383 . S
C265 C261 1.495 . S
C265 H271 0.959 . S
C265 H272 0.961 . S
C265 H273 0.960 . S
C266 C264 1.381 . S
C266 C267 1.394 . S
C266 H274 0.930 . S
C267 C266 1.394 . S
C267 C268 1.383 . S
C267 H275 0.929 . S
C268 C267 1.383 . S
C268 C269 1.377 . S
C269 H253 0.930 . S
C269 C268 1.377 . S
C269 C270 1.379 . S
C270 H254 0.931 . S
C270 C264 1.383 . S
C270 C269 1.379 . S
H271 C265 0.959 . S
H272 C265 0.961 . S
H273 C265 0.960 . S
H274 C266 0.930 . S
H275 C267 0.929 . S
H276 C284 0.929 . S
H277 C286 0.930 . S
H278 C288 0.930 . S
H279 C291 0.929 . S
H280 C294 0.930 . S
H281 C296 0.960 . S
H282 C296 0.960 . S
H283 C296 0.960 . S
C284 H276 0.929 . S
C284 C285 1.377 . S
C284 C286 1.384 . S
C285 C284 1.377 . S
C285 C291 1.390 . S
C286 H277 0.930 . S
C286 C284 1.384 . S
C286 C287 1.372 . S
C287 C286 1.372 . S
C287 C288 1.400 . S
C287 C292 1.490 . S
C288 H278 0.930 . S
C288 C287 1.400 . S
C288 C291 1.386 . S
H289 C305 0.930 . S
H290 C306 0.931 . S
C291 H279 0.929 . S
C291 C285 1.390 . S
C291 C288 1.386 . S
C292 C287 1.490 . S
C292 C294 1.395 . S
C292 C295 1.403 . S
H293 C299 0.930 . S
C294 H280 0.930 . S
C294 C292 1.395 . S
C294 C297 1.403 . S
C295 C292 1.403 . S
C295 C296 1.524 . S
C295 C299 1.400 . S
C296 H281 0.960 . S
C296 H282 0.960 . S
C296 H283 0.960 . S
C296 C295 1.524 . S
C297 C294 1.403 . S
C297 C298 1.392 . S
C297 C301 1.495 . S
C298 C297 1.392 . S
C298 C299 1.385 . S
C298 C300 1.478 . S
C299 H293 0.930 . S
C299 C295 1.400 . S
C299 C298 1.385 . S
C300 C298 1.478 . S
C300 C302 1.381 . S
C300 C306 1.383 . S
C301 C297 1.495 . S
C301 H307 0.959 . S
C301 H308 0.961 . S
C301 H309 0.960 . S
C302 C300 1.381 . S
C302 C303 1.394 . S
C302 H310 0.930 . S
C303 C302 1.394 . S
C303 C304 1.383 . S
C303 H311 0.929 . S
C304 C303 1.383 . S
C304 C305 1.377 . S
C305 H289 0.930 . S
C305 C304 1.377 . S
C305 C306 1.379 . S
C306 H290 0.931 . S
C306 C300 1.383 . S
C306 C305 1.379 . S
H307 C301 0.959 . S
H308 C301 0.961 . S
H309 C301 0.960 . S
H310 C302 0.930 . S
H311 C303 0.929 . S
H312 C320 0.929 . S
H313 C322 0.930 . S
H314 C324 0.930 . S
H315 C327 0.929 . S
H316 C330 0.933 . S
H317 C332 0.960 1_556 S
H318 C332 0.960 . S
H319 C332 0.960 . S
C320 H312 0.929 . S
C320 C321 1.377 . S
C320 C322 1.384 . S
C321 C320 1.377 . S
C321 C327 1.390 . S
C322 H313 0.930 . S
C322 C320 1.384 . S
C322 C323 1.372 . S
C323 C322 1.372 . S
C323 C324 1.400 . S
C323 C328 1.490 . S
C324 H314 0.930 . S
C324 C323 1.400 . S
C324 C327 1.386 . S
H325 C341 0.930 . S
H326 C342 0.931 . S
C327 H315 0.929 . S
C327 C321 1.390 . S
C327 C324 1.386 . S
C328 C323 1.490 . S
C328 C330 1.396 . S
C328 C331 1.403 . S
H329 C335 0.930 . S
C330 H316 0.933 . S
C330 C328 1.396 . S
C330 C333 1.400 1_654 S
C331 C328 1.403 . S
C331 C332 1.524 . S
C331 C335 1.400 1_554 S
C332 H317 0.960 1_554 S
C332 H318 0.960 . S
C332 H319 0.960 . S
C332 C331 1.524 . S
C333 C330 1.400 1_456 S
C333 C334 1.392 . S
C333 C337 1.495 . S
C334 C333 1.392 . S
C334 C335 1.385 1_455 S
C334 C336 1.478 . S
C335 H329 0.930 . S
C335 C331 1.400 1_556 S
C335 C334 1.385 1_655 S
C336 C334 1.478 . S
C336 C338 1.381 . S
C336 C342 1.383 . S
C337 C333 1.495 . S
C337 H343 0.959 1_556 S
C337 H344 0.961 . S
C337 H345 0.960 . S
C338 C336 1.381 . S
C338 C339 1.394 . S
C338 H346 0.930 . S
C339 C338 1.394 . S
C339 C340 1.383 . S
C339 H347 0.929 . S
C340 C339 1.383 . S
C340 C341 1.377 . S
C341 H325 0.930 . S
C341 C340 1.377 . S
C341 C342 1.379 . S
C342 H326 0.931 . S
C342 C336 1.383 . S
C342 C341 1.379 . S
H343 C337 0.959 1_554 S
H344 C337 0.961 . S
H345 C337 0.960 . S
H346 C338 0.930 . S
H347 C339 0.929 . S
H348 C356 0.929 . S
H349 C358 0.930 . S
H350 C360 0.930 . S
H351 C363 0.929 . S
H352 C366 0.930 . S
H353 C368 0.960 . S
H354 C368 0.960 . S
H355 C368 0.960 . S
C356 H348 0.929 . S
C356 C357 1.377 . S
C356 C358 1.384 . S
C357 C356 1.377 . S
C357 C363 1.390 . S
C358 H349 0.930 . S
C358 C356 1.384 . S
C358 C359 1.372 . S
C359 C358 1.372 . S
C359 C360 1.400 . S
C359 C364 1.490 . S
C360 H350 0.930 . S
C360 C359 1.400 . S
C360 C363 1.386 . S
H361 C377 0.930 . S
H362 C378 0.931 . S
C363 H351 0.929 . S
C363 C357 1.390 . S
C363 C360 1.386 . S
C364 C359 1.490 . S
C364 C366 1.395 1_545 S
C364 C367 1.403 . S
H365 C371 0.930 . S
C366 H352 0.930 . S
C366 C364 1.395 1_565 S
C366 C369 1.403 . S
C367 C364 1.403 . S
C367 C368 1.524 . S
C367 C371 1.400 . S
C368 H353 0.960 . S
C368 H354 0.960 . S
C368 H355 0.960 . S
C368 C367 1.524 . S
C369 C366 1.403 . S
C369 C370 1.392 . S
C369 C373 1.495 . S
C370 C369 1.392 . S
C370 C371 1.385 1_565 S
C370 C372 1.478 . S
C371 H365 0.930 . S
C371 C367 1.400 . S
C371 C370 1.385 1_545 S
C372 C370 1.478 . S
C372 C374 1.381 . S
C372 C378 1.383 . S
C373 C369 1.495 . S
C373 H379 0.959 . S
C373 H380 0.961 . S
C373 H381 0.960 . S
C374 C372 1.381 . S
C374 C375 1.394 . S
C374 H382 0.930 . S
C375 C374 1.394 . S
C375 C376 1.383 . S
C375 H383 0.929 . S
C376 C375 1.383 . S
C376 C377 1.377 . S
C377 H361 0.930 . S
C377 C376 1.377 . S
C377 C378 1.379 . S
C378 H362 0.931 . S
C378 C372 1.383 . S
C378 C377 1.379 . S
H379 C373 0.959 . S
H380 C373 0.961 . S
H381 C373 0.960 . S
H382 C374 0.930 . S
H383 C375 0.929 . S
H384 C392 0.929 . S
H385 C394 0.930 . S
H386 C396 0.930 . S
H387 C399 0.929 . S
H388 C402 0.930 . S
H389 C404 0.960 . S
H390 C404 0.960 . S
H391 C404 0.960 . S
C392 H384 0.929 . S
C392 C393 1.377 . S
C392 C394 1.384 . S
C393 C392 1.377 . S
C393 C399 1.390 . S
C394 H385 0.930 . S
C394 C392 1.384 . S
C394 C395 1.372 . S
C395 C394 1.372 . S
C395 C396 1.400 . S
C395 C400 1.490 . S
C396 H386 0.930 . S
C396 C395 1.400 . S
C396 C399 1.386 . S
H397 C413 0.930 . S
H398 C414 0.931 . S
C399 H387 0.929 . S
C399 C393 1.390 . S
C399 C396 1.386 . S
C400 C395 1.490 . S
C400 C402 1.395 . S
C400 C403 1.403 . S
H401 C407 0.930 . S
C402 H388 0.930 . S
C402 C400 1.395 . S
C402 C405 1.403 1_556 S
C403 C400 1.403 . S
C403 C404 1.524 . S
C403 C407 1.400 1_556 S
C404 H389 0.960 . S
C404 H390 0.960 . S
C404 H391 0.960 . S
C404 C403 1.524 . S
C405 C402 1.403 1_554 S
C405 C406 1.392 . S
C405 C409 1.495 . S
C406 C405 1.392 . S
C406 C407 1.385 . S
C406 C408 1.478 . S
C407 H401 0.930 . S
C407 C403 1.400 1_554 S
C407 C406 1.385 . S
C408 C406 1.478 . S
C408 C410 1.381 . S
C408 C414 1.383 . S
C409 C405 1.495 . S
C409 H415 0.959 . S
C409 H416 0.961 . S
C409 H417 0.960 . S
C410 C408 1.381 . S
C410 C411 1.394 . S
C410 H418 0.930 . S
C411 C410 1.394 . S
C411 C412 1.383 . S
C411 H419 0.929 . S
C412 C411 1.383 . S
C412 C413 1.377 . S
C413 H397 0.930 . S
C413 C412 1.377 . S
C413 C414 1.379 . S
C414 H398 0.931 . S
C414 C408 1.383 . S
C414 C413 1.379 . S
H415 C409 0.959 . S
H416 C409 0.961 . S
H417 C409 0.960 . S
H418 C410 0.930 . S
H419 C411 0.929 . S
H420 C428 0.929 . S
H421 C430 0.930 . S
H422 C432 0.930 . S
H423 C435 0.929 . S
H424 C438 0.930 . S
H425 C440 0.960 . S
H426 C440 0.960 . S
H427 C440 0.960 . S
C428 H420 0.929 . S
C428 C429 1.377 . S
C428 C430 1.384 . S
C429 C428 1.377 . S
C429 C435 1.390 . S
C430 H421 0.930 . S
C430 C428 1.384 . S
C430 C431 1.372 . S
C431 C430 1.372 . S
C431 C432 1.400 . S
C431 C436 1.490 . S
C432 H422 0.930 . S
C432 C431 1.400 . S
C432 C435 1.386 . S
H433 C449 0.930 . S
H434 C450 0.931 . S
C435 H423 0.929 . S
C435 C429 1.390 . S
C435 C432 1.386 . S
C436 C431 1.490 . S
C436 C438 1.395 1_655 S
C436 C439 1.403 . S
H437 C443 0.930 . S
C438 H424 0.930 . S
C438 C436 1.395 1_455 S
C438 C441 1.403 . S
C439 C436 1.403 . S
C439 C440 1.524 . S
C439 C443 1.400 . S
C440 H425 0.960 . S
C440 H426 0.960 . S
C440 H427 0.960 . S
C440 C439 1.524 . S
C441 C438 1.403 . S
C441 C442 1.392 . S
C441 C445 1.495 . S
C442 C441 1.392 . S
C442 C443 1.385 1_455 S
C442 C444 1.478 . S
C443 H437 0.930 . S
C443 C439 1.400 . S
C443 C442 1.385 1_655 S
C444 C442 1.478 . S
C444 C446 1.381 . S
C444 C450 1.383 . S
C445 C441 1.495 . S
C445 H451 0.959 . S
C445 H452 0.961 . S
C445 H453 0.960 . S
C446 C444 1.381 . S
C446 C447 1.394 . S
C446 H454 0.930 . S
C447 C446 1.394 . S
C447 C448 1.383 . S
C447 H455 0.929 . S
C448 C447 1.383 . S
C448 C449 1.377 . S
C449 H433 0.930 . S
C449 C448 1.377 . S
C449 C450 1.379 . S
C450 H434 0.931 . S
C450 C444 1.383 . S
C450 C449 1.379 . S
H451 C445 0.959 . S
H452 C445 0.961 . S
H453 C445 0.960 . S
H454 C446 0.930 . S
H455 C447 0.929 . S
H456 C464 0.929 . S
H457 C466 0.930 . S
H458 C468 0.930 . S
H459 C471 0.929 . S
H460 C474 0.930 . S
H461 C476 0.960 . S
H462 C476 0.960 . S
H463 C476 0.960 . S
C464 H456 0.929 . S
C464 C465 1.377 . S
C464 C466 1.384 . S
C465 C464 1.377 . S
C465 C471 1.390 . S
C466 H457 0.930 . S
C466 C464 1.384 . S
C466 C467 1.372 . S
C467 C466 1.372 . S
C467 C468 1.400 . S
C467 C472 1.490 . S
C468 H458 0.930 . S
C468 C467 1.400 . S
C468 C471 1.386 . S
H469 C485 0.930 . S
H470 C486 0.931 . S
C471 H459 0.929 . S
C471 C465 1.390 . S
C471 C468 1.386 . S
C472 C467 1.490 . S
C472 C474 1.395 . S
C472 C475 1.403 . S
H473 C479 0.930 . S
C474 H460 0.930 . S
C474 C472 1.395 . S
C474 C477 1.403 . S
C475 C472 1.403 . S
C475 C476 1.524 . S
C475 C479 1.400 . S
C476 H461 0.960 . S
C476 H462 0.960 . S
C476 H463 0.960 . S
C476 C475 1.524 . S
C477 C474 1.403 . S
C477 C478 1.392 . S
C477 C481 1.495 . S
C478 C477 1.392 . S
C478 C479 1.385 . S
C478 C480 1.478 . S
C479 H473 0.930 . S
C479 C475 1.400 . S
C479 C478 1.385 . S
C480 C478 1.478 . S
C480 C482 1.381 . S
C480 C486 1.383 . S
C481 C477 1.495 . S
C481 H487 0.959 . S
C481 H488 0.961 . S
C481 H489 0.960 . S
C482 C480 1.381 . S
C482 C483 1.394 . S
C482 H490 0.930 . S
C483 C482 1.394 . S
C483 C484 1.383 . S
C483 H491 0.929 . S
C484 C483 1.383 . S
C484 C485 1.377 . S
C485 H469 0.930 . S
C485 C484 1.377 . S
C485 C486 1.379 . S
C486 H470 0.931 . S
C486 C480 1.383 . S
C486 C485 1.379 . S
H487 C481 0.959 . S
H488 C481 0.961 . S
H489 C481 0.960 . S
H490 C482 0.930 . S
H491 C483 0.929 . S
H492 C500 0.929 . S
H493 C502 0.930 . S
H494 C504 0.930 . S
H495 C507 0.929 . S
H496 C510 0.930 . S
H497 C512 0.960 . S
H498 C512 0.960 . S
H499 C512 0.960 . S
C500 H492 0.929 . S
C500 C501 1.377 . S
C500 C502 1.384 . S
C501 C500 1.377 . S
C501 C507 1.390 . S
C502 H493 0.930 . S
C502 C500 1.384 . S
C502 C503 1.372 . S
C503 C502 1.372 . S
C503 C504 1.400 . S
C503 C508 1.490 . S
C504 H494 0.930 . S
C504 C503 1.400 . S
C504 C507 1.386 . S
H505 C521 0.930 . S
H506 C522 0.931 . S
C507 H495 0.929 . S
C507 C501 1.390 . S
C507 C504 1.386 . S
C508 C503 1.490 . S
C508 C510 1.395 . S
C508 C511 1.403 . S
H509 C515 0.930 . S
C510 H496 0.930 . S
C510 C508 1.395 . S
C510 C513 1.403 . S
C511 C508 1.403 . S
C511 C512 1.524 . S
C511 C515 1.400 . S
C512 H497 0.960 . S
C512 H498 0.960 . S
C512 H499 0.960 . S
C512 C511 1.524 . S
C513 C510 1.403 . S
C513 C514 1.392 . S
C513 C517 1.495 . S
C514 C513 1.392 . S
C514 C515 1.385 . S
C514 C516 1.478 . S
C515 H509 0.930 . S
C515 C511 1.400 . S
C515 C514 1.385 . S
C516 C514 1.478 . S
C516 C518 1.381 . S
C516 C522 1.383 . S
C517 C513 1.495 . S
C517 H523 0.959 . S
C517 H524 0.961 . S
C517 H525 0.960 . S
C518 C516 1.381 . S
C518 C519 1.394 . S
C518 H526 0.930 . S
C519 C518 1.394 . S
C519 C520 1.383 . S
C519 H527 0.929 . S
C520 C519 1.383 . S
C520 C521 1.377 . S
C521 H505 0.930 . S
C521 C520 1.377 . S
C521 C522 1.379 . S
C522 H506 0.931 . S
C522 C516 1.383 . S
C522 C521 1.379 . S
H523 C517 0.959 . S
H524 C517 0.961 . S
H525 C517 0.960 . S
H526 C518 0.930 . S
H527 C519 0.929 . S
H528 C536 0.929 . S
H529 C538 0.930 . S
H530 C540 0.930 . S
H531 C543 0.929 . S
H532 C546 0.930 . S
H533 C548 0.960 . S
H534 C548 0.960 . S
H535 C548 0.960 . S
C536 H528 0.929 . S
C536 C537 1.377 . S
C536 C538 1.384 . S
C537 C536 1.377 . S
C537 C543 1.390 . S
C538 H529 0.930 . S
C538 C536 1.384 . S
C538 C539 1.372 . S
C539 C538 1.372 . S
C539 C540 1.400 . S
C539 C544 1.490 . S
C540 H530 0.930 . S
C540 C539 1.400 . S
C540 C543 1.386 . S
H541 C557 0.930 . S
H542 C558 0.931 . S
C543 H531 0.929 . S
C543 C537 1.390 . S
C543 C540 1.386 . S
C544 C539 1.490 . S
C544 C546 1.395 . S
C544 C547 1.403 . S
H545 C551 0.930 . S
C546 H532 0.930 . S
C546 C544 1.395 . S
C546 C549 1.403 . S
C547 C544 1.403 . S
C547 C548 1.524 . S
C547 C551 1.400 . S
C548 H533 0.960 . S
C548 H534 0.960 . S
C548 H535 0.960 . S
C548 C547 1.524 . S
C549 C546 1.403 . S
C549 C550 1.392 . S
C549 C553 1.495 . S
C550 C549 1.392 . S
C550 C551 1.385 . S
C550 C552 1.478 . S
C551 H545 0.930 . S
C551 C547 1.400 . S
C551 C550 1.385 . S
C552 C550 1.478 . S
C552 C554 1.381 . S
C552 C558 1.383 . S
C553 C549 1.495 . S
C553 H559 0.959 . S
C553 H560 0.961 . S
C553 H561 0.960 . S
C554 C552 1.381 . S
C554 C555 1.394 . S
C554 H562 0.930 . S
C555 C554 1.394 . S
C555 C556 1.383 . S
C555 H563 0.929 . S
C556 C555 1.383 . S
C556 C557 1.377 . S
C557 H541 0.930 . S
C557 C556 1.377 . S
C557 C558 1.379 . S
C558 H542 0.931 . S
C558 C552 1.383 . S
C558 C557 1.379 . S
H559 C553 0.959 . S
H560 C553 0.961 . S
H561 C553 0.960 . S
H562 C554 0.930 . S
H563 C555 0.929 . S
H564 C572 0.929 . S
H565 C574 0.930 . S
H566 C576 0.930 . S
H567 C579 0.929 . S
H568 C582 0.930 . S
H569 C584 0.960 . S
H570 C584 0.960 . S
H571 C584 0.960 . S
C572 H564 0.929 . S
C572 C573 1.377 . S
C572 C574 1.384 . S
C573 C572 1.377 . S
C573 C579 1.390 . S
C574 H565 0.930 . S
C574 C572 1.384 . S
C574 C575 1.372 . S
C575 C574 1.372 . S
C575 C576 1.400 . S
C575 C580 1.490 . S
C576 H566 0.930 . S
C576 C575 1.400 . S
C576 C579 1.386 . S
H577 C593 0.930 . S
H578 C594 0.931 . S
C579 H567 0.929 . S
C579 C573 1.390 . S
C579 C576 1.386 . S
C580 C575 1.490 . S
C580 C582 1.395 . S
C580 C583 1.403 . S
H581 C587 0.930 . S
C582 H568 0.930 . S
C582 C580 1.395 . S
C582 C585 1.403 . S
C583 C580 1.403 . S
C583 C584 1.524 . S
C583 C587 1.400 . S
C584 H569 0.960 . S
C584 H570 0.960 . S
C584 H571 0.960 . S
C584 C583 1.524 . S
C585 C582 1.403 . S
C585 C586 1.392 . S
C585 C589 1.495 . S
C586 C585 1.392 . S
C586 C587 1.385 . S
C586 C588 1.478 . S
C587 H581 0.930 . S
C587 C583 1.400 . S
C587 C586 1.385 . S
C588 C586 1.478 . S
C588 C590 1.381 . S
C588 C594 1.383 . S
C589 C585 1.495 . S
C589 H595 0.959 . S
C589 H596 0.961 . S
C589 H597 0.960 . S
C590 C588 1.381 . S
C590 C591 1.394 . S
C590 H598 0.930 . S
C591 C590 1.394 . S
C591 C592 1.383 . S
C591 H599 0.929 . S
C592 C591 1.383 . S
C592 C593 1.377 . S
C593 H577 0.930 . S
C593 C592 1.377 . S
C593 C594 1.379 . S
C594 H578 0.931 . S
C594 C588 1.383 . S
C594 C593 1.379 . S
H595 C589 0.959 . S
H596 C589 0.961 . S
H597 C589 0.960 . S
H598 C590 0.930 . S
H599 C591 0.929 . S
H600 C608 0.929 . S
H601 C610 0.930 . S
H602 C612 0.930 . S
H603 C615 0.929 . S
H604 C618 0.930 . S
H605 C620 0.960 . S
H606 C620 0.960 . S
H607 C620 0.960 . S
C608 H600 0.929 . S
C608 C609 1.377 . S
C608 C610 1.384 . S
C609 C608 1.377 . S
C609 C615 1.390 . S
C610 H601 0.930 . S
C610 C608 1.384 . S
C610 C611 1.372 . S
C611 C610 1.372 . S
C611 C612 1.400 . S
C611 C616 1.490 . S
C612 H602 0.930 . S
C612 C611 1.400 . S
C612 C615 1.386 . S
H613 C629 0.930 . S
H614 C630 0.931 . S
C615 H603 0.929 . S
C615 C609 1.390 . S
C615 C612 1.386 . S
C616 C611 1.490 . S
C616 C618 1.395 . S
C616 C619 1.403 . S
H617 C623 0.930 . S
C618 H604 0.930 . S
C618 C616 1.395 . S
C618 C621 1.403 . S
C619 C616 1.403 . S
C619 C620 1.524 . S
C619 C623 1.400 . S
C620 H605 0.960 . S
C620 H606 0.960 . S
C620 H607 0.960 . S
C620 C619 1.524 . S
C621 C618 1.403 . S
C621 C622 1.392 . S
C621 C625 1.495 . S
C622 C621 1.392 . S
C622 C623 1.385 . S
C622 C624 1.478 . S
C623 H617 0.930 . S
C623 C619 1.400 . S
C623 C622 1.385 . S
C624 C622 1.478 . S
C624 C626 1.381 . S
C624 C630 1.383 . S
C625 C621 1.495 . S
C625 H631 0.959 . S
C625 H632 0.961 . S
C625 H633 0.960 . S
C626 C624 1.381 . S
C626 C627 1.394 . S
C626 H634 0.930 . S
C627 C626 1.394 . S
C627 C628 1.383 . S
C627 H635 0.929 . S
C628 C627 1.383 . S
C628 C629 1.377 . S
C629 H613 0.930 . S
C629 C628 1.377 . S
C629 C630 1.379 . S
C630 H614 0.931 . S
C630 C624 1.383 . S
C630 C629 1.379 . S
H631 C625 0.959 . S
H632 C625 0.961 . S
H633 C625 0.960 . S
H634 C626 0.930 . S
H635 C627 0.929 . S
H636 C644 0.929 . S
H637 C646 0.930 . S
H638 C648 0.930 . S
H639 C651 0.929 . S
H640 C654 0.930 . S
H641 C656 0.960 . S
H642 C656 0.960 . S
H643 C656 0.960 . S
C644 H636 0.929 . S
C644 C645 1.377 . S
C644 C646 1.384 . S
C645 C644 1.377 . S
C645 C651 1.390 . S
C646 H637 0.930 . S
C646 C644 1.384 . S
C646 C647 1.372 . S
C647 C646 1.372 . S
C647 C648 1.400 . S
C647 C652 1.490 . S
C648 H638 0.930 . S
C648 C647 1.400 . S
C648 C651 1.386 . S
H649 C665 0.930 . S
H650 C666 0.931 . S
C651 H639 0.929 . S
C651 C645 1.390 . S
C651 C648 1.386 . S
C652 C647 1.490 . S
C652 C654 1.395 . S
C652 C655 1.403 . S
H653 C659 0.930 . S
C654 H640 0.930 . S
C654 C652 1.395 . S
C654 C657 1.403 . S
C655 C652 1.403 . S
C655 C656 1.524 . S
C655 C659 1.400 . S
C656 H641 0.960 . S
C656 H642 0.960 . S
C656 H643 0.960 . S
C656 C655 1.524 . S
C657 C654 1.403 . S
C657 C658 1.392 . S
C657 C661 1.495 . S
C658 C657 1.392 . S
C658 C659 1.385 . S
C658 C660 1.478 . S
C659 H653 0.930 . S
C659 C655 1.400 . S
C659 C658 1.385 . S
C660 C658 1.478 . S
C660 C662 1.381 . S
C660 C666 1.383 . S
C661 C657 1.495 . S
C661 H667 0.959 . S
C661 H668 0.961 . S
C661 H669 0.960 . S
C662 C660 1.381 . S
C662 C663 1.394 . S
C662 H670 0.930 . S
C663 C662 1.394 . S
C663 C664 1.383 . S
C663 H671 0.929 . S
C664 C663 1.383 . S
C664 C665 1.377 . S
C665 H649 0.930 . S
C665 C664 1.377 . S
C665 C666 1.379 . S
C666 H650 0.931 . S
C666 C660 1.383 . S
C666 C665 1.379 . S
H667 C661 0.959 . S
H668 C661 0.961 . S
H669 C661 0.960 . S
H670 C662 0.930 . S
H671 C663 0.929 . S
H672 C680 0.929 . S
H673 C682 0.930 . S
H674 C684 0.930 . S
H675 C687 0.929 . S
H676 C690 0.930 . S
H677 C692 0.960 . S
H678 C692 0.960 . S
H679 C692 0.960 . S
C680 H672 0.929 . S
C680 C681 1.377 . S
C680 C682 1.384 . S
C681 C680 1.377 . S
C681 C687 1.390 . S
C682 H673 0.930 . S
C682 C680 1.384 . S
C682 C683 1.372 . S
C683 C682 1.372 . S
C683 C684 1.400 . S
C683 C688 1.490 . S
C684 H674 0.930 . S
C684 C683 1.400 . S
C684 C687 1.386 . S
H685 C701 0.930 . S
H686 C702 0.931 1_455 S
C687 H675 0.929 . S
C687 C681 1.390 . S
C687 C684 1.386 . S
C688 C683 1.490 . S
C688 C690 1.395 . S
C688 C691 1.403 . S
H689 C695 0.930 . S
C690 H676 0.930 . S
C690 C688 1.395 . S
C690 C693 1.403 . S
C691 C688 1.403 . S
C691 C692 1.524 . S
C691 C695 1.400 . S
C692 H677 0.960 . S
C692 H678 0.960 . S
C692 H679 0.960 . S
C692 C691 1.524 . S
C693 C690 1.403 . S
C693 C694 1.392 . S
C693 C697 1.495 1_455 S
C694 C693 1.392 . S
C694 C695 1.385 . S
C694 C696 1.511 . S
C695 H689 0.930 . S
C695 C691 1.400 . S
C695 C694 1.385 . S
C696 C694 1.511 . S
C696 C698 1.363 1_455 S
C696 C702 1.369 1_455 S
C697 C693 1.495 1_655 S
C697 H703 0.959 . S
C697 H704 0.961 . S
C697 H705 0.960 . S
C698 C696 1.363 1_655 S
C698 C699 1.394 . S
C698 H706 0.930 . S
C699 C698 1.394 . S
C699 C700 1.383 . S
C699 H707 0.929 . S
C700 C699 1.383 . S
C700 C701 1.377 . S
C701 H685 0.930 . S
C701 C700 1.377 . S
C701 C702 1.379 . S
C702 H686 0.931 1_655 S
C702 C696 1.369 1_655 S
C702 C701 1.379 . S
H703 C697 0.959 . S
H704 C697 0.961 . S
H705 C697 0.960 . S
H706 C698 0.930 . S
H707 C699 0.929 . S
H708 C716 0.929 . S
H709 C718 0.930 . S
H710 C720 0.930 . S
H711 C723 0.929 . S
H712 C726 0.930 . S
H713 C728 0.960 1_545 S
H714 C728 0.960 . S
H715 C728 0.960 . S
C716 H708 0.929 . S
C716 C717 1.377 . S
C716 C718 1.384 1_655 S
C717 C716 1.377 . S
C717 C723 1.390 . S
C718 H709 0.930 . S
C718 C716 1.384 1_455 S
C718 C719 1.372 . S
C719 C718 1.372 . S
C719 C720 1.400 . S
C719 C724 1.490 . S
C720 H710 0.930 . S
C720 C719 1.400 . S
C720 C723 1.386 1_455 S
H721 C737 0.930 . S
H722 C738 0.931 . S
C723 H711 0.929 . S
C723 C717 1.390 . S
C723 C720 1.386 1_655 S
C724 C719 1.490 . S
C724 C726 1.395 . S
C724 C727 1.403 . S
H725 C731 0.930 1_545 S
C726 H712 0.930 . S
C726 C724 1.395 . S
C726 C729 1.403 . S
C727 C724 1.403 . S
C727 C728 1.524 . S
C727 C731 1.400 . S
C728 H713 0.960 1_565 S
C728 H714 0.960 . S
C728 H715 0.960 . S
C728 C727 1.524 . S
C729 C726 1.403 . S
C729 C730 1.392 . S
C729 C733 1.495 . S
C730 C729 1.392 . S
C730 C731 1.385 . S
C730 C732 1.478 . S
C731 H725 0.930 1_565 S
C731 C727 1.400 . S
C731 C730 1.385 . S
C732 C730 1.478 . S
C732 C734 1.381 . S
C732 C738 1.383 1_565 S
C733 C729 1.495 . S
C733 H739 0.959 . S
C733 H740 0.961 . S
C733 H741 0.960 . S
C734 C732 1.381 . S
C734 C735 1.394 1_565 S
C734 H742 0.930 . S
C735 C734 1.394 1_545 S
C735 C736 1.383 . S
C735 H743 0.929 . S
C736 C735 1.383 . S
C736 C737 1.377 . S
C737 H721 0.930 . S
C737 C736 1.377 . S
C737 C738 1.379 . S
C738 H722 0.931 . S
C738 C732 1.383 1_545 S
C738 C737 1.379 . S
H739 C733 0.959 . S
H740 C733 0.961 . S
H741 C733 0.960 . S
H742 C734 0.930 . S
H743 C735 0.929 . S
H744 C752 0.929 . S
H745 C754 0.930 . S
H746 C756 0.930 . S
H747 C759 0.929 . S
H748 C762 0.930 . S
H749 C764 0.960 . S
H750 C764 0.960 . S
H751 C764 0.960 . S
C752 H744 0.929 . S
C752 C753 1.377 . S
C752 C754 1.384 1_545 S
C753 C752 1.377 . S
C753 C759 1.390 . S
C754 H745 0.930 . S
C754 C752 1.384 1_565 S
C754 C755 1.372 . S
C755 C754 1.372 . S
C755 C756 1.400 . S
C755 C760 1.490 . S
C756 H746 0.930 . S
C756 C755 1.400 . S
C756 C759 1.386 1_565 S
H757 C773 0.930 . S
H758 C774 0.931 . S
C759 H747 0.929 . S
C759 C753 1.390 . S
C759 C756 1.386 1_545 S
C760 C755 1.490 . S
C760 C762 1.395 . S
C760 C763 1.403 . S
H761 C767 0.930 . S
C762 H748 0.930 . S
C762 C760 1.395 . S
C762 C765 1.403 . S
C763 C760 1.403 . S
C763 C764 1.524 . S
C763 C767 1.400 . S
C764 H749 0.960 . S
C764 H750 0.960 . S
C764 H751 0.960 . S
C764 C763 1.524 . S
C765 C762 1.403 . S
C765 C766 1.392 . S
C765 C769 1.495 . S
C766 C765 1.392 . S
C766 C767 1.385 . S
C766 C768 1.478 . S
C767 H761 0.930 . S
C767 C763 1.400 . S
C767 C766 1.385 . S
C768 C766 1.478 . S
C768 C770 1.381 . S
C768 C774 1.383 . S
C769 C765 1.495 . S
C769 H775 0.959 . S
C769 H776 0.961 . S
C769 H777 0.960 . S
C770 C768 1.381 . S
C770 C771 1.394 . S
C770 H778 0.930 . S
C771 C770 1.394 . S
C771 C772 1.383 . S
C771 H779 0.929 . S
C772 C771 1.383 . S
C772 C773 1.377 . S
C773 H757 0.930 . S
C773 C772 1.377 . S
C773 C774 1.379 . S
C774 H758 0.931 . S
C774 C768 1.383 . S
C774 C773 1.379 . S
H775 C769 0.959 . S
H776 C769 0.961 . S
H777 C769 0.960 . S
H778 C770 0.930 . S
H779 C771 0.929 . S
H780 C788 0.929 . S
H781 C790 0.930 . S
H782 C792 0.930 . S
H783 C795 0.929 . S
H784 C798 0.930 . S
H785 C800 0.960 1_565 S
H786 C800 0.960 . S
H787 C800 0.960 . S
C788 H780 0.929 . S
C788 C789 1.377 . S
C788 C790 1.384 . S
C789 C788 1.377 . S
C789 C795 1.390 . S
C790 H781 0.930 . S
C790 C788 1.384 . S
C790 C791 1.372 . S
C791 C790 1.372 . S
C791 C792 1.400 . S
C791 C796 1.490 . S
C792 H782 0.930 . S
C792 C791 1.400 . S
C792 C795 1.386 . S
H793 C809 0.930 . S
H794 C810 0.931 . S
C795 H783 0.929 . S
C795 C789 1.390 . S
C795 C792 1.386 . S
C796 C791 1.490 . S
C796 C798 1.395 . S
C796 C799 1.403 . S
H797 C803 0.930 1_565 S
C798 H784 0.930 . S
C798 C796 1.395 . S
C798 C801 1.403 . S
C799 C796 1.403 . S
C799 C800 1.524 . S
C799 C803 1.400 . S
C800 H785 0.960 1_545 S
C800 H786 0.960 . S
C800 H787 0.960 . S
C800 C799 1.524 . S
C801 C798 1.403 . S
C801 C802 1.392 . S
C801 C805 1.495 . S
C802 C801 1.392 . S
C802 C803 1.385 . S
C802 C804 1.478 . S
C803 H797 0.930 1_545 S
C803 C799 1.400 . S
C803 C802 1.385 . S
C804 C802 1.478 . S
C804 C806 1.368 1_545 S
C804 C810 1.383 . S
C805 C801 1.495 . S
C805 H811 0.959 . S
C805 H812 0.961 . S
C805 H813 0.960 . S
C806 C804 1.368 1_565 S
C806 C807 1.419 . S
C806 H814 0.918 1_565 S
C807 C806 1.419 . S
C807 C808 1.383 . S
C807 H815 0.929 . S
C808 C807 1.383 . S
C808 C809 1.377 . S
C809 H793 0.930 . S
C809 C808 1.377 . S
C809 C810 1.379 1_565 S
C810 H794 0.931 . S
C810 C804 1.383 . S
C810 C809 1.379 1_545 S
H811 C805 0.959 . S
H812 C805 0.961 . S
H813 C805 0.960 . S
H814 C806 0.918 1_545 S
H815 C807 0.929 . S
H816 C824 0.929 . S
H817 C826 0.930 . S
H818 C828 0.930 . S
H819 C831 0.929 . S
H820 C834 0.930 . S
H821 C836 0.960 . S
H822 C836 0.960 . S
H823 C836 0.960 . S
C824 H816 0.929 . S
C824 C825 1.377 . S
C824 C826 1.384 1_455 S
C825 C824 1.377 . S
C825 C831 1.390 . S
C826 H817 0.930 . S
C826 C824 1.384 1_655 S
C826 C827 1.372 . S
C827 C826 1.372 . S
C827 C828 1.400 . S
C827 C832 1.490 . S
C828 H818 0.930 . S
C828 C827 1.400 . S
C828 C831 1.386 1_655 S
H829 C845 0.930 . S
H830 C846 0.931 . S
C831 H819 0.929 . S
C831 C825 1.390 . S
C831 C828 1.386 1_455 S
C832 C827 1.490 . S
C832 C834 1.395 . S
C832 C835 1.403 . S
H833 C839 0.930 . S
C834 H820 0.930 . S
C834 C832 1.395 . S
C834 C837 1.403 . S
C835 C832 1.403 . S
C835 C836 1.524 . S
C835 C839 1.400 . S
C836 H821 0.960 . S
C836 H822 0.960 . S
C836 H823 0.960 . S
C836 C835 1.524 . S
C837 C834 1.403 . S
C837 C838 1.392 . S
C837 C841 1.495 . S
C838 C837 1.392 . S
C838 C839 1.385 . S
C838 C840 1.478 . S
C839 H833 0.930 . S
C839 C835 1.400 . S
C839 C838 1.385 . S
C840 C838 1.478 . S
C840 C842 1.381 . S
C840 C846 1.383 . S
C841 C837 1.495 . S
C841 H847 0.959 . S
C841 H848 0.961 . S
C841 H849 0.960 . S
C842 C840 1.381 . S
C842 C843 1.394 . S
C842 H850 0.930 . S
C843 C842 1.394 . S
C843 C844 1.383 . S
C843 H851 0.929 . S
C844 C843 1.383 . S
C844 C845 1.377 . S
C845 H829 0.930 . S
C845 C844 1.377 . S
C845 C846 1.379 . S
C846 H830 0.931 . S
C846 C840 1.383 . S
C846 C845 1.379 . S
H847 C841 0.959 . S
H848 C841 0.961 . S
H849 C841 0.960 . S
H850 C842 0.930 . S
H851 C843 0.929 . S
H852 C860 0.929 . S
H853 C862 0.930 . S
H854 C864 0.930 . S
H855 C867 0.953 . S
H856 C870 0.930 1_455 S
H857 C872 0.960 . S
H858 C872 0.960 . S
H859 C872 0.960 . S
C860 H852 0.929 . S
C860 C861 1.377 . S
C860 C862 1.384 . S
C861 C860 1.377 . S
C861 C867 1.390 . S
C862 H853 0.930 . S
C862 C860 1.384 . S
C862 C863 1.372 1_455 S
C863 C862 1.372 1_655 S
C863 C864 1.400 . S
C863 C868 1.490 . S
C864 H854 0.930 . S
C864 C863 1.400 . S
C864 C867 1.386 1_655 S
H865 C881 0.930 . S
H866 C882 0.931 . S
C867 H855 0.953 . S
C867 C861 1.390 . S
C867 C864 1.386 1_455 S
C868 C863 1.490 . S
C868 C870 1.395 . S
C868 C871 1.403 . S
H869 C875 0.930 . S
C870 H856 0.930 1_655 S
C870 C868 1.395 . S
C870 C873 1.403 . S
C871 C868 1.403 . S
C871 C872 1.524 . S
C871 C875 1.400 . S
C872 H857 0.960 . S
C872 H858 0.960 . S
C872 H859 0.960 . S
C872 C871 1.524 . S
C873 C870 1.403 . S
C873 C874 1.392 . S
C873 C877 1.495 . S
C874 C873 1.392 . S
C874 C875 1.385 . S
C874 C876 1.478 . S
C875 H869 0.930 . S
C875 C871 1.400 . S
C875 C874 1.385 . S
C876 C874 1.478 . S
C876 C878 1.381 . S
C876 C882 1.383 . S
C877 C873 1.495 . S
C877 H883 0.959 1_655 S
C877 H884 0.961 . S
C877 H885 0.960 . S
C878 C876 1.381 . S
C878 C879 1.394 1_545 S
C878 H886 0.930 . S
C879 C878 1.394 1_565 S
C879 C880 1.383 . S
C879 H887 0.929 . S
C880 C879 1.383 . S
C880 C881 1.377 . S
C881 H865 0.930 . S
C881 C880 1.377 . S
C881 C882 1.379 1_565 S
C882 H866 0.931 . S
C882 C876 1.383 . S
C882 C881 1.379 1_545 S
H883 C877 0.959 1_455 S
H884 C877 0.961 . S
H885 C877 0.960 . S
H886 C878 0.930 . S
H887 C879 0.929 . S
C249 C179 2.331 . S
C268 C19 2.451 . S
C285 C210 2.471 . S
C304 C50 2.306 . S
C321 C99 2.474 . S
C340 C139 2.333 . S
C357 C10 2.342 . S
C376 C170 2.471 . S
C393 C219 2.341 . S
C412 C59 2.472 . S
C429 C90 2.342 . S
C448 C130 2.473 . S
C465 C7 1.905 . S
C484 C82 1.865 . S
C501 C47 1.901 . S
C520 C2 1.827 . S
C537 C87 1.904 . S
C556 C42 1.861 . S
C573 C136 1.906 . S
C592 C171 1.835 . S
C609 C176 1.904 . S
C628 C211 1.868 . S
C645 C131 1.848 . S
C664 C216 1.906 . S
C681 C16 1.027 . S
C700 C91 1.031 . S
C717 C56 1.037 . S
C736 C11 1.068 . S
C753 C96 1.033 . S
C772 C51 1.044 . S
C789 C127 1.038 . S
C808 C162 1.064 . S
C825 C167 1.029 . S
C844 C202 1.036 . S
C861 C122 1.051 . S
C880 C207 1.069 . S
