# Generated by pormake.
# Topology uoa, (4)-cn, num edge types: 1
# Building blocks:
#     Node 0, Type 0, BuildingBlock: KUFVIS_clean_sbu_0, # of connection points: 4
#     Node 1, Type 0, BuildingBlock: KUFVIS_clean_sbu_0, # of connection points: 4
#     Node 2, Type 0, BuildingBlock: KUFVIS_clean_sbu_0, # of connection points: 4
#     Node 3, Type 0, BuildingBlock: KUFVIS_clean_sbu_0, # of connection points: 4
#     Node 4, Type 0, BuildingBlock: KUFVIS_clean_sbu_0, # of connection points: 4
#     Node 5, Type 0, BuildingBlock: KUFVIS_clean_sbu_0, # of connection points: 4
#     Node 6, Type 0, BuildingBlock: KUFVIS_clean_sbu_0, # of connection points: 4
#     Node 7, Type 0, BuildingBlock: KUFVIS_clean_sbu_0, # of connection points: 4
#     Node 8, Type 0, BuildingBlock: KUFVIS_clean_sbu_0, # of connection points: 4
#     Node 9, Type 0, BuildingBlock: KUFVIS_clean_sbu_0, # of connection points: 4
#     Node 10, Type 0, BuildingBlock: KUFVIS_clean_sbu_0, # of connection points: 4
#     Node 11, Type 0, BuildingBlock: KUFVIS_clean_sbu_0, # of connection points: 4
#     Node 12, Type 0, BuildingBlock: KUFVIS_clean_sbu_0, # of connection points: 4
#     Node 13, Type 0, BuildingBlock: KUFVIS_clean_sbu_0, # of connection points: 4
#     Node 14, Type 0, BuildingBlock: KUFVIS_clean_sbu_0, # of connection points: 4
#     Node 15, Type 0, BuildingBlock: KUFVIS_clean_sbu_0, # of connection points: 4
#     Node 16, Type 0, BuildingBlock: KUFVIS_clean_sbu_0, # of connection points: 4
#     Node 17, Type 0, BuildingBlock: KUFVIS_clean_sbu_0, # of connection points: 4
#     Node 18, Type 0, BuildingBlock: KUFVIS_clean_sbu_0, # of connection points: 4
#     Node 19, Type 0, BuildingBlock: KUFVIS_clean_sbu_0, # of connection points: 4
#     Node 20, Type 0, BuildingBlock: KUFVIS_clean_sbu_0, # of connection points: 4
#     Node 21, Type 0, BuildingBlock: KUFVIS_clean_sbu_0, # of connection points: 4
#     Node 22, Type 0, BuildingBlock: KUFVIS_clean_sbu_0, # of connection points: 4
#     Node 23, Type 0, BuildingBlock: KUFVIS_clean_sbu_0, # of connection points: 4
#     Node 24, Type 0, BuildingBlock: KUFVIS_clean_sbu_0, # of connection points: 4
#     Node 25, Type 0, BuildingBlock: KUFVIS_clean_sbu_0, # of connection points: 4
#     Node 26, Type 0, BuildingBlock: KUFVIS_clean_sbu_0, # of connection points: 4
#     Node 27, Type 0, BuildingBlock: KUFVIS_clean_sbu_0, # of connection points: 4
#     Node 28, Type 0, BuildingBlock: KUFVIS_clean_sbu_0, # of connection points: 4
#     Node 29, Type 0, BuildingBlock: KUFVIS_clean_sbu_0, # of connection points: 4
#     Node 30, Type 0, BuildingBlock: KUFVIS_clean_sbu_0, # of connection points: 4
#     Node 31, Type 0, BuildingBlock: KUFVIS_clean_sbu_0, # of connection points: 4
#     Edge 32, Type (0, 0), BuildingBlock: OJICUG_clean_linker_0, # of connection points: 2
#     Edge 33, Type (0, 0), BuildingBlock: OJICUG_clean_linker_0, # of connection points: 2
#     Edge 34, Type (0, 0), BuildingBlock: OJICUG_clean_linker_0, # of connection points: 2
#     Edge 35, Type (0, 0), BuildingBlock: OJICUG_clean_linker_0, # of connection points: 2
#     Edge 36, Type (0, 0), BuildingBlock: OJICUG_clean_linker_0, # of connection points: 2
#     Edge 37, Type (0, 0), BuildingBlock: OJICUG_clean_linker_0, # of connection points: 2
#     Edge 38, Type (0, 0), BuildingBlock: OJICUG_clean_linker_0, # of connection points: 2
#     Edge 39, Type (0, 0), BuildingBlock: OJICUG_clean_linker_0, # of connection points: 2
#     Edge 40, Type (0, 0), BuildingBlock: OJICUG_clean_linker_0, # of connection points: 2
#     Edge 41, Type (0, 0), BuildingBlock: OJICUG_clean_linker_0, # of connection points: 2
#     Edge 42, Type (0, 0), BuildingBlock: OJICUG_clean_linker_0, # of connection points: 2
#     Edge 43, Type (0, 0), BuildingBlock: OJICUG_clean_linker_0, # of connection points: 2
#     Edge 44, Type (0, 0), BuildingBlock: OJICUG_clean_linker_0, # of connection points: 2
#     Edge 45, Type (0, 0), BuildingBlock: OJICUG_clean_linker_0, # of connection points: 2
#     Edge 46, Type (0, 0), BuildingBlock: OJICUG_clean_linker_0, # of connection points: 2
#     Edge 47, Type (0, 0), BuildingBlock: OJICUG_clean_linker_0, # of connection points: 2
#     Edge 48, Type (0, 0), BuildingBlock: OJICUG_clean_linker_0, # of connection points: 2
#     Edge 49, Type (0, 0), BuildingBlock: OJICUG_clean_linker_0, # of connection points: 2
#     Edge 50, Type (0, 0), BuildingBlock: OJICUG_clean_linker_0, # of connection points: 2
#     Edge 51, Type (0, 0), BuildingBlock: OJICUG_clean_linker_0, # of connection points: 2
#     Edge 52, Type (0, 0), BuildingBlock: OJICUG_clean_linker_0, # of connection points: 2
#     Edge 53, Type (0, 0), BuildingBlock: OJICUG_clean_linker_0, # of connection points: 2
#     Edge 54, Type (0, 0), BuildingBlock: OJICUG_clean_linker_0, # of connection points: 2
#     Edge 55, Type (0, 0), BuildingBlock: OJICUG_clean_linker_0, # of connection points: 2
#     Edge 56, Type (0, 0), BuildingBlock: OJICUG_clean_linker_0, # of connection points: 2
#     Edge 57, Type (0, 0), BuildingBlock: OJICUG_clean_linker_0, # of connection points: 2
#     Edge 58, Type (0, 0), BuildingBlock: OJICUG_clean_linker_0, # of connection points: 2
#     Edge 59, Type (0, 0), BuildingBlock: OJICUG_clean_linker_0, # of connection points: 2
#     Edge 60, Type (0, 0), BuildingBlock: OJICUG_clean_linker_0, # of connection points: 2
#     Edge 61, Type (0, 0), BuildingBlock: OJICUG_clean_linker_0, # of connection points: 2
#     Edge 62, Type (0, 0), BuildingBlock: OJICUG_clean_linker_0, # of connection points: 2
#     Edge 63, Type (0, 0), BuildingBlock: OJICUG_clean_linker_0, # of connection points: 2
#     Edge 64, Type (0, 0), BuildingBlock: OJICUG_clean_linker_0, # of connection points: 2
#     Edge 65, Type (0, 0), BuildingBlock: OJICUG_clean_linker_0, # of connection points: 2
#     Edge 66, Type (0, 0), BuildingBlock: OJICUG_clean_linker_0, # of connection points: 2
#     Edge 67, Type (0, 0), BuildingBlock: OJICUG_clean_linker_0, # of connection points: 2
#     Edge 68, Type (0, 0), BuildingBlock: OJICUG_clean_linker_0, # of connection points: 2
#     Edge 69, Type (0, 0), BuildingBlock: OJICUG_clean_linker_0, # of connection points: 2
#     Edge 70, Type (0, 0), BuildingBlock: OJICUG_clean_linker_0, # of connection points: 2
#     Edge 71, Type (0, 0), BuildingBlock: OJICUG_clean_linker_0, # of connection points: 2
#     Edge 72, Type (0, 0), BuildingBlock: OJICUG_clean_linker_0, # of connection points: 2
#     Edge 73, Type (0, 0), BuildingBlock: OJICUG_clean_linker_0, # of connection points: 2
#     Edge 74, Type (0, 0), BuildingBlock: OJICUG_clean_linker_0, # of connection points: 2
#     Edge 75, Type (0, 0), BuildingBlock: OJICUG_clean_linker_0, # of connection points: 2
#     Edge 76, Type (0, 0), BuildingBlock: OJICUG_clean_linker_0, # of connection points: 2
#     Edge 77, Type (0, 0), BuildingBlock: OJICUG_clean_linker_0, # of connection points: 2
#     Edge 78, Type (0, 0), BuildingBlock: OJICUG_clean_linker_0, # of connection points: 2
#     Edge 79, Type (0, 0), BuildingBlock: OJICUG_clean_linker_0, # of connection points: 2
#     Edge 80, Type (0, 0), BuildingBlock: OJICUG_clean_linker_0, # of connection points: 2
#     Edge 81, Type (0, 0), BuildingBlock: OJICUG_clean_linker_0, # of connection points: 2
#     Edge 82, Type (0, 0), BuildingBlock: OJICUG_clean_linker_0, # of connection points: 2
#     Edge 83, Type (0, 0), BuildingBlock: OJICUG_clean_linker_0, # of connection points: 2
#     Edge 84, Type (0, 0), BuildingBlock: OJICUG_clean_linker_0, # of connection points: 2
#     Edge 85, Type (0, 0), BuildingBlock: OJICUG_clean_linker_0, # of connection points: 2
#     Edge 86, Type (0, 0), BuildingBlock: OJICUG_clean_linker_0, # of connection points: 2
#     Edge 87, Type (0, 0), BuildingBlock: OJICUG_clean_linker_0, # of connection points: 2
#     Edge 88, Type (0, 0), BuildingBlock: OJICUG_clean_linker_0, # of connection points: 2
#     Edge 89, Type (0, 0), BuildingBlock: OJICUG_clean_linker_0, # of connection points: 2
#     Edge 90, Type (0, 0), BuildingBlock: OJICUG_clean_linker_0, # of connection points: 2
#     Edge 91, Type (0, 0), BuildingBlock: OJICUG_clean_linker_0, # of connection points: 2
#     Edge 92, Type (0, 0), BuildingBlock: OJICUG_clean_linker_0, # of connection points: 2
#     Edge 93, Type (0, 0), BuildingBlock: OJICUG_clean_linker_0, # of connection points: 2
#     Edge 94, Type (0, 0), BuildingBlock: OJICUG_clean_linker_0, # of connection points: 2
#     Edge 95, Type (0, 0), BuildingBlock: OJICUG_clean_linker_0, # of connection points: 2
# Relax obj value: 0.182
# Max RMSD: 0.288
# Mean RMSD: 0.246
data_MOF--net-uoa--node1-KUFVIS_clean_sbu_0--edge1-OJICUG_clean_linker_0
_symmetry_space_group_name_H-M    P1
_symmetry_Int_Tables_number       1
_symmetry_cell_setting            triclinic
loop_
_symmetry_equiv_pos_as_xyz
'x, y, z'
_cell_length_a     52.604937
_cell_length_b     58.676014
_cell_length_c     19.432847
_cell_angle_alpha  90.000035
_cell_angle_beta   89.997463
_cell_angle_gamma 90.066177
loop_
_atom_site_label
_atom_site_type_symbol
_atom_site_fract_x
_atom_site_fract_y
_atom_site_fract_z
_atom_type_partial_charge
Mn0 Mn 0.01407 0.08883 0.99205 0.0
Mn1 Mn 0.99309 0.14292 0.97898 0.0
C2 C 0.01269 0.1065 0.88643 0.0
C3 C 0.00277 0.0501 0.99365 0.0
C4 C 0.0458 0.13076 0.03112 0.0
O5 O 0.997 0.09412 0.08306 0.0
O6 O 0.98221 0.12999 0.06976 0.0
C7 C 0.93779 0.13373 0.97272 0.0
N8 N 0.95917 0.14261 0.94366 0.0
C9 C 0.93552 0.15635 0.84611 0.0
C10 C 0.91321 0.14748 0.87521 0.0
C11 C 0.91437 0.13607 0.9387 0.0
C12 C 0.95827 0.15358 0.88253 0.0
H13 H 0.9386 0.12496 0.02152 0.0
C14 C 0.98529 0.11165 0.10472 0.0
O15 O 0.02409 0.0571 0.0205 0.0
O16 O 0.9884 0.0655 0.96653 0.0
N17 N 0.00209 0.15733 0.89393 0.0
C18 C 0.02548 0.16379 0.87107 0.0
C19 C 0.02779 0.17473 0.80711 0.0
C20 C 0.00601 0.17894 0.76734 0.0
C21 C 0.98212 0.17215 0.79193 0.0
C22 C 0.98099 0.1614 0.85622 0.0
H23 H 0.04228 0.16027 0.90087 0.0
O24 O 0.02717 0.08888 0.89582 0.0
O25 O 0.99935 0.11298 0.9392 0.0
O26 O 0.04396 0.10903 0.0258 0.0
O27 O 0.02817 0.14465 0.014 0.0
C28 C 0.95942 0.17539 0.75482 0.0
C29 C 0.93613 0.16763 0.78211 0.0
H30 H 0.89513 0.14921 0.84906 0.0
H31 H 0.89725 0.1291 0.96137 0.0
H32 H 0.04632 0.17977 0.78831 0.0
H33 H 0.00787 0.18724 0.7178 0.0
H34 H 0.95966 0.18374 0.70511 0.0
H35 H 0.91885 0.17036 0.75323 0.0
Mn36 Mn 0.15627 0.7863 0.28164 0.0
Mn37 Mn 0.09555 0.77036 0.26032 0.0
C38 C 0.1387 0.78543 0.17262 0.0
C39 C 0.19855 0.77492 0.28589 0.0
C40 C 0.11096 0.81624 0.3197 0.0
O41 O 0.14828 0.76963 0.37033 0.0
O42 O 0.10771 0.75857 0.35121 0.0
C43 C 0.10714 0.72146 0.24521 0.0
N44 N 0.09588 0.74064 0.22018 0.0
C45 C 0.08697 0.72226 0.11209 0.0
C46 C 0.09842 0.70234 0.13686 0.0
C47 C 0.10874 0.70202 0.20349 0.0
C48 C 0.08631 0.7413 0.15563 0.0
H49 H 0.1157 0.72127 0.29568 0.0
C50 C 0.12791 0.75937 0.38817 0.0
O51 O 0.19152 0.79419 0.31302 0.0
O52 O 0.18121 0.76251 0.25744 0.0
N53 N 0.08193 0.78032 0.17398 0.0
C54 C 0.07632 0.80189 0.1531 0.0
C55 C 0.06716 0.80549 0.08606 0.0
C56 C 0.0641 0.78697 0.04111 0.0
C57 C 0.07026 0.76497 0.06347 0.0
C58 C 0.0787 0.7623 0.13137 0.0
H59 H 0.07916 0.81622 0.18708 0.0
O60 O 0.15807 0.79848 0.18534 0.0
O61 O 0.12977 0.77467 0.22572 0.0
O62 O 0.13501 0.81357 0.31467 0.0
O63 O 0.09455 0.80136 0.3007 0.0
C64 C 0.06937 0.74575 0.0201 0.0
C65 C 0.0779 0.72443 0.04424 0.0
H66 H 0.10014 0.68743 0.10436 0.0
H67 H 0.11822 0.6869 0.22231 0.0
H68 H 0.06283 0.82248 0.06836 0.0
H69 H 0.05751 0.78992 0.98906 0.0
H70 H 0.06298 0.74733 0.96732 0.0
H71 H 0.07813 0.70997 0.00955 0.0
Mn72 Mn 0.48559 0.91297 0.48658 0.0
Mn73 Mn 0.50662 0.85889 0.47416 0.0
C74 C 0.48699 0.89515 0.38117 0.0
C75 C 0.49678 0.95173 0.48739 0.0
C76 C 0.45393 0.87108 0.52643 0.0
O77 O 0.50272 0.90785 0.57763 0.0
O78 O 0.51754 0.87197 0.56471 0.0
C79 C 0.56193 0.86807 0.46762 0.0
N80 N 0.54053 0.85916 0.43872 0.0
C81 C 0.56414 0.84527 0.34129 0.0
C82 C 0.58647 0.85416 0.37023 0.0
C83 C 0.58533 0.86566 0.43358 0.0
C84 C 0.5414 0.8481 0.37772 0.0
H85 H 0.56113 0.8769 0.51632 0.0
C86 C 0.51446 0.89035 0.59946 0.0
O87 O 0.4755 0.94474 0.51448 0.0
O88 O 0.5112 0.9363 0.46058 0.0
N89 N 0.49759 0.84437 0.38933 0.0
C90 C 0.47418 0.83788 0.36662 0.0
C91 C 0.47185 0.82686 0.3028 0.0
C92 C 0.49361 0.82259 0.26301 0.0
C93 C 0.51751 0.82941 0.28744 0.0
C94 C 0.51867 0.84025 0.35159 0.0
H95 H 0.4574 0.84144 0.39644 0.0
O96 O 0.47246 0.91274 0.39038 0.0
O97 O 0.50034 0.88876 0.43401 0.0
O98 O 0.45575 0.8928 0.52076 0.0
O99 O 0.47157 0.85719 0.50938 0.0
C100 C 0.5402 0.82611 0.25032 0.0
C101 C 0.5635 0.83389 0.27745 0.0
H102 H 0.60454 0.85238 0.34408 0.0
H103 H 0.60246 0.87265 0.45613 0.0
H104 H 0.45331 0.82179 0.28412 0.0
H105 H 0.49173 0.81422 0.21359 0.0
H106 H 0.53994 0.81768 0.20072 0.0
H107 H 0.58077 0.8311 0.24857 0.0
Mn108 Mn 0.34125 0.21642 0.78426 0.0
Mn109 Mn 0.40232 0.2311 0.76177 0.0
C110 C 0.35851 0.21732 0.67495 0.0
C111 C 0.29919 0.2283 0.78964 0.0
C112 C 0.38593 0.18526 0.81895 0.0
O113 O 0.34987 0.23268 0.87309 0.0
O114 O 0.39086 0.24244 0.85391 0.0
C115 C 0.39199 0.28035 0.75077 0.0
N116 N 0.40257 0.26114 0.72384 0.0
C117 C 0.41127 0.28018 0.61667 0.0
C118 C 0.40049 0.30012 0.64339 0.0
C119 C 0.39069 0.30016 0.71059 0.0
C120 C 0.41174 0.26079 0.65883 0.0
H121 H 0.38378 0.28034 0.80166 0.0
C122 C 0.37067 0.24217 0.89104 0.0
O123 O 0.30601 0.20889 0.81622 0.0
O124 O 0.31664 0.24063 0.76131 0.0
N125 N 0.41528 0.22157 0.67422 0.0
C126 C 0.42019 0.20006 0.65151 0.0
C127 C 0.42875 0.19681 0.58372 0.0
C128 C 0.432 0.21561 0.53999 0.0
C129 C 0.4266 0.23755 0.56426 0.0
C130 C 0.41869 0.23985 0.63276 0.0
H131 H 0.41723 0.18551 0.68457 0.0
O132 O 0.3389 0.20457 0.68771 0.0
O133 O 0.36784 0.22779 0.72807 0.0
O134 O 0.36197 0.18869 0.81602 0.0
O135 O 0.40272 0.19973 0.79946 0.0
C136 C 0.42768 0.25708 0.5222 0.0
C137 C 0.41985 0.27836 0.54825 0.0
H138 H 0.39894 0.31531 0.61202 0.0
H139 H 0.38177 0.31533 0.73101 0.0
H140 H 0.43241 0.17987 0.56451 0.0
H141 H 0.43812 0.21294 0.48738 0.0
H142 H 0.43366 0.25578 0.46901 0.0
H143 H 0.41975 0.29309 0.5146 0.0
Mn144 Mn 0.01557 0.91616 0.51115 0.0
Mn145 Mn 0.99492 0.86196 0.52428 0.0
C146 C 0.01409 0.89858 0.61693 0.0
C147 C 0.00402 0.95475 0.50924 0.0
C148 C 0.04764 0.87452 0.47267 0.0
O149 O 0.99874 0.91067 0.4198 0.0
O150 O 0.98395 0.87478 0.43342 0.0
C151 C 0.93959 0.87089 0.53061 0.0
N152 N 0.961 0.86209 0.55962 0.0
C153 C 0.93748 0.84859 0.65775 0.0
C154 C 0.91514 0.85736 0.62871 0.0
C155 C 0.91622 0.86861 0.56493 0.0
C156 C 0.96017 0.85128 0.62101 0.0
H157 H 0.94035 0.87958 0.48167 0.0
C158 C 0.98705 0.89308 0.39823 0.0
O159 O 0.02544 0.94793 0.48269 0.0
O160 O 0.98968 0.93925 0.53613 0.0
N161 N 0.00399 0.84768 0.60942 0.0
C162 C 0.02741 0.84132 0.63222 0.0
C163 C 0.02979 0.83052 0.69638 0.0
C164 C 0.00806 0.82636 0.73643 0.0
C165 C 0.98414 0.83303 0.71188 0.0
C166 C 0.98294 0.8436 0.64734 0.0
H167 H 0.04417 0.84479 0.60219 0.0
O168 O 0.02846 0.9163 0.60763 0.0
O169 O 0.00094 0.89195 0.56395 0.0
O170 O 0.04566 0.89623 0.4781 0.0
O171 O 0.03004 0.86049 0.48932 0.0
C172 C 0.96149 0.82986 0.74931 0.0
C173 C 0.93818 0.83752 0.72208 0.0
H174 H 0.8971 0.85571 0.65514 0.0
H175 H 0.89908 0.87552 0.54232 0.0
H176 H 0.04835 0.82557 0.71513 0.0
H177 H 0.00998 0.81819 0.78615 0.0
H178 H 0.9618 0.82168 0.79927 0.0
H179 H 0.92094 0.83489 0.75125 0.0
Mn180 Mn 0.34334 0.7852 0.72241 0.0
Mn181 Mn 0.40353 0.76793 0.74436 0.0
C182 C 0.36097 0.78466 0.8314 0.0
C183 C 0.30071 0.77448 0.71928 0.0
C184 C 0.38966 0.81387 0.68285 0.0
O185 O 0.35073 0.76789 0.63446 0.0
O186 O 0.39102 0.75619 0.65382 0.0
C187 C 0.3897 0.71956 0.76138 0.0
N188 N 0.40199 0.73839 0.78549 0.0
C189 C 0.41002 0.72019 0.89432 0.0
C190 C 0.39748 0.70066 0.87052 0.0
C191 C 0.38707 0.70042 0.80403 0.0
C192 C 0.41161 0.73898 0.84999 0.0
H193 H 0.38109 0.71946 0.71098 0.0
C194 C 0.37085 0.75725 0.61684 0.0
O195 O 0.30813 0.79347 0.69103 0.0
O196 O 0.31783 0.76201 0.74821 0.0
N197 N 0.41757 0.77777 0.83034 0.0
C198 C 0.42417 0.79921 0.85039 0.0
C199 C 0.43361 0.80275 0.91721 0.0
C200 C 0.43588 0.78432 0.9628 0.0
C201 C 0.42871 0.76246 0.94127 0.0
C202 C 0.42011 0.75982 0.87351 0.0
H203 H 0.42195 0.81348 0.81587 0.0
O204 O 0.34197 0.79802 0.81804 0.0
O205 O 0.36953 0.7734 0.77882 0.0
O206 O 0.3655 0.81179 0.68777 0.0
O207 O 0.4056 0.79874 0.70292 0.0
C208 C 0.42878 0.7434 0.98535 0.0
C209 C 0.41924 0.72231 0.96205 0.0
H210 H 0.39501 0.68602 0.90367 0.0
H211 H 0.37685 0.68556 0.78593 0.0
H212 H 0.43877 0.81964 0.93423 0.0
H213 H 0.44267 0.78725 0.01469 0.0
H214 H 0.43527 0.74497 0.03803 0.0
H215 H 0.41832 0.70802 0.99731 0.0
Mn216 Mn 0.48288 0.08522 0.00246 0.0
Mn217 Mn 0.50198 0.13989 0.01435 0.0
C218 C 0.48426 0.10296 0.10804 0.0
C219 C 0.49523 0.04688 0.00065 0.0
C220 C 0.44958 0.12592 0.9638 0.0
O221 O 0.49922 0.09105 0.91045 0.0
O222 O 0.5135 0.12712 0.92394 0.0
C223 C 0.55757 0.13242 0.02156 0.0
N224 N 0.53582 0.1407 0.05015 0.0
C225 C 0.55866 0.15473 0.14879 0.0
C226 C 0.58133 0.1465 0.1202 0.0
C227 C 0.58077 0.13525 0.05637 0.0
C228 C 0.53615 0.15151 0.11159 0.0
H229 H 0.5572 0.12373 0.9726 0.0
C230 C 0.51065 0.10877 0.88879 0.0
O231 O 0.4736 0.05332 0.97456 0.0
O232 O 0.50942 0.06264 0.02683 0.0
N233 N 0.49228 0.15411 0.09906 0.0
C234 C 0.46864 0.16013 0.12103 0.0
C235 C 0.46576 0.17091 0.18506 0.0
C236 C 0.48724 0.17547 0.22573 0.0
C237 C 0.5114 0.16924 0.20187 0.0
C238 C 0.5131 0.15865 0.13744 0.0
H239 H 0.4521 0.15651 0.09027 0.0
O240 O 0.47039 0.0849 0.09934 0.0
O241 O 0.49698 0.10983 0.0546 0.0
O242 O 0.45211 0.10432 0.97033 0.0
O243 O 0.46686 0.14042 0.97895 0.0
C244 C 0.53384 0.17291 0.23979 0.0
C245 C 0.55745 0.16577 0.2131 0.0
H246 H 0.59924 0.14858 0.14701 0.0
H247 H 0.59817 0.12876 0.03409 0.0
H248 H 0.44703 0.1756 0.20315 0.0
H249 H 0.48494 0.18364 0.27532 0.0
H250 H 0.53315 0.18112 0.2897 0.0
H251 H 0.57451 0.16879 0.24266 0.0
Mn252 Mn 0.15554 0.21793 0.22473 0.0
Mn253 Mn 0.09516 0.2346 0.24689 0.0
C254 C 0.138 0.2185 0.33383 0.0
C255 C 0.19805 0.2289 0.2212 0.0
C256 C 0.10958 0.18872 0.18591 0.0
O257 O 0.14785 0.23505 0.13656 0.0
O258 O 0.10744 0.24641 0.15616 0.0
C259 C 0.10831 0.28314 0.26348 0.0
N260 N 0.09631 0.26419 0.2878 0.0
C261 C 0.08813 0.28238 0.39656 0.0
C262 C 0.10033 0.30205 0.3725 0.0
C263 C 0.11069 0.30234 0.30595 0.0
C264 C 0.08677 0.26353 0.35239 0.0
H265 H 0.11689 0.28329 0.21303 0.0
C266 C 0.12758 0.2455 0.11903 0.0
O267 O 0.19074 0.20983 0.19323 0.0
O268 O 0.18086 0.24136 0.24995 0.0
N269 N 0.08135 0.22466 0.33306 0.0
C270 C 0.07514 0.20316 0.35337 0.0
C271 C 0.06587 0.19956 0.42033 0.0
C272 C 0.06336 0.21799 0.46579 0.0
C273 C 0.07014 0.23992 0.444 0.0
C274 C 0.0786 0.24262 0.37613 0.0
H275 H 0.07756 0.18888 0.31898 0.0
O276 O 0.15714 0.2053 0.32057 0.0
O277 O 0.12927 0.22959 0.28114 0.0
O278 O 0.1337 0.19106 0.19071 0.0
O279 O 0.09346 0.20373 0.20572 0.0
C280 C 0.06985 0.25902 0.48794 0.0
C281 C 0.07903 0.2802 0.4644 0.0
H282 H 0.1026 0.31674 0.40552 0.0
H283 H 0.1207 0.31729 0.28769 0.0
H284 H 0.06103 0.18261 0.43757 0.0
H285 H 0.0567 0.21502 0.51778 0.0
H286 H 0.06346 0.2574 0.54072 0.0
H287 H 0.07978 0.29453 0.49955 0.0
Mn288 Mn 0.95724 0.91739 0.00648 0.0
Mn289 Mn 0.9767 0.8633 0.03068 0.0
C290 C 0.9583 0.90233 0.11568 0.0
C291 C 0.96965 0.95573 0.99723 0.0
C292 C 0.92436 0.8753 0.97606 0.0
O293 O 0.97388 0.90951 0.91641 0.0
O294 O 0.98767 0.87372 0.93724 0.0
C295 C 0.03179 0.87334 0.03595 0.0
N296 N 0.01064 0.86425 0.06566 0.0
C297 C 0.03405 0.85404 0.16742 0.0
C298 C 0.05611 0.86322 0.13784 0.0
C299 C 0.05497 0.8729 0.07179 0.0
C300 C 0.01152 0.8549 0.12918 0.0
H301 H 0.03091 0.88106 0.98557 0.0
C302 C 0.98493 0.89118 0.89832 0.0
O303 O 0.94812 0.94869 0.97176 0.0
O304 O 0.98366 0.94057 0.02677 0.0
N305 N 0.96767 0.85112 0.1187 0.0
C306 C 0.94414 0.84637 0.14414 0.0
C307 C 0.94176 0.83809 0.21166 0.0
C308 C 0.96354 0.83423 0.25163 0.0
C309 C 0.98753 0.83933 0.22446 0.0
C310 C 0.98877 0.84776 0.15709 0.0
H311 H 0.92732 0.84967 0.11395 0.0
O312 O 0.94436 0.92003 0.10273 0.0
O313 O 0.97118 0.89421 0.06413 0.0
O314 O 0.92683 0.89706 0.97767 0.0
O315 O 0.94146 0.86125 0.99593 0.0
C316 C 0.01014 0.83739 0.26275 0.0
C317 C 0.03336 0.84468 0.23413 0.0
H318 H 0.07399 0.86303 0.16544 0.0
H319 H 0.07189 0.8801 0.0487 0.0
H320 H 0.9232 0.83537 0.23378 0.0
H321 H 0.96154 0.8281 0.30394 0.0
H322 H 0.00978 0.83086 0.31489 0.0
H323 H 0.05049 0.84335 0.2644 0.0
Mn324 Mn 0.84 0.22507 0.73681 0.0
Mn325 Mn 0.79546 0.20824 0.62281 0.0
C326 C 0.80014 0.24127 0.73946 0.0
C327 C 0.8585 0.22261 0.8456 0.0
C328 C 0.83743 0.24112 0.58678 0.0
O329 O 0.85492 0.19533 0.70072 0.0
O330 O 0.82491 0.18683 0.62192 0.0
C331 C 0.77974 0.16616 0.69516 0.0
N332 N 0.77365 0.18662 0.66659 0.0
C333 C 0.72925 0.18107 0.69131 0.0
C334 C 0.73502 0.15986 0.72063 0.0
C335 C 0.76039 0.15241 0.72274 0.0
C336 C 0.74932 0.19398 0.66445 0.0
H337 H 0.79922 0.1604 0.69682 0.0
C338 C 0.84624 0.18306 0.65172 0.0
O339 O 0.87063 0.23202 0.79461 0.0
O340 O 0.83705 0.21289 0.83128 0.0
N341 N 0.76593 0.22712 0.61645 0.0
C342 C 0.76386 0.24868 0.59114 0.0
C343 C 0.73985 0.25909 0.58822 0.0
C344 C 0.71819 0.24707 0.60987 0.0
C345 C 0.72077 0.22481 0.63518 0.0
C346 C 0.74519 0.21536 0.63722 0.0
H347 H 0.78047 0.25791 0.57398 0.0
O348 O 0.81952 0.25183 0.76533 0.0
O349 O 0.80455 0.22127 0.71247 0.0
O350 O 0.84894 0.24078 0.64474 0.0
O351 O 0.81679 0.23041 0.57434 0.0
C352 C 0.70021 0.2119 0.6606 0.0
C353 C 0.70444 0.19006 0.6887 0.0
H354 H 0.72016 0.14924 0.74218 0.0
H355 H 0.76501 0.13611 0.74556 0.0
H356 H 0.73803 0.27633 0.56903 0.0
H357 H 0.69975 0.25521 0.60777 0.0
H358 H 0.68114 0.21875 0.66009 0.0
H359 H 0.68852 0.18046 0.709 0.0
Mn360 Mn 0.54201 0.08452 0.49763 0.0
Mn361 Mn 0.52246 0.13862 0.52056 0.0
C362 C 0.54036 0.09961 0.6068 0.0
C363 C 0.52949 0.04622 0.48811 0.0
C364 C 0.5749 0.1264 0.4666 0.0
O365 O 0.52592 0.09254 0.40671 0.0
O366 O 0.51097 0.12794 0.42792 0.0
C367 C 0.46734 0.12904 0.52798 0.0
N368 N 0.48872 0.13802 0.55677 0.0
C369 C 0.4659 0.14875 0.65899 0.0
C370 C 0.44362 0.13966 0.63037 0.0
C371 C 0.44434 0.12978 0.56455 0.0
C372 C 0.48824 0.14758 0.62003 0.0
H373 H 0.46791 0.12116 0.47778 0.0
C374 C 0.5143 0.11061 0.38877 0.0
O375 O 0.55119 0.05317 0.46348 0.0
O376 O 0.51534 0.06146 0.51676 0.0
N377 N 0.53207 0.15093 0.60793 0.0
C378 C 0.5558 0.15532 0.63259 0.0
C379 C 0.55862 0.16351 0.70005 0.0
C380 C 0.53709 0.16776 0.74067 0.0
C381 C 0.51288 0.16302 0.71425 0.0
C382 C 0.5112 0.15455 0.647 0.0
H383 H 0.57244 0.15182 0.60184 0.0
O384 O 0.55425 0.08183 0.5945 0.0
O385 O 0.52785 0.10776 0.55462 0.0
O386 O 0.57274 0.10466 0.47037 0.0
O387 O 0.5575 0.14044 0.48432 0.0
C388 C 0.49048 0.16531 0.75323 0.0
C389 C 0.46701 0.15827 0.72548 0.0
H390 H 0.42587 0.14007 0.65847 0.0
H391 H 0.42724 0.12267 0.54224 0.0
H392 H 0.57733 0.16588 0.72157 0.0
H393 H 0.53942 0.17386 0.7929 0.0
H394 H 0.49117 0.1719 0.80528 0.0
H395 H 0.45005 0.15985 0.75632 0.0
Mn396 Mn 0.66003 0.77756 0.23384 0.0
Mn397 Mn 0.70456 0.79426 0.11964 0.0
C398 C 0.69992 0.76143 0.2368 0.0
C399 C 0.64146 0.7802 0.34249 0.0
C400 C 0.66265 0.76129 0.08408 0.0
O401 O 0.64507 0.8072 0.19724 0.0
O402 O 0.67508 0.81563 0.11836 0.0
C403 C 0.7202 0.83649 0.19133 0.0
N404 N 0.72633 0.81598 0.16312 0.0
C405 C 0.77071 0.82164 0.18779 0.0
C406 C 0.7649 0.8429 0.21674 0.0
C407 C 0.73952 0.85032 0.21869 0.0
C408 C 0.75067 0.80865 0.16114 0.0
H409 H 0.70071 0.84223 0.19286 0.0
C410 C 0.65373 0.8194 0.14804 0.0
O411 O 0.62938 0.77068 0.2916 0.0
O412 O 0.66291 0.78991 0.32812 0.0
N413 N 0.73413 0.77541 0.11363 0.0
C414 C 0.73624 0.75382 0.08857 0.0
C415 C 0.76027 0.74344 0.08575 0.0
C416 C 0.78191 0.75553 0.10729 0.0
C417 C 0.77928 0.77782 0.13235 0.0
C418 C 0.75484 0.78723 0.13425 0.0
H419 H 0.71965 0.74454 0.07149 0.0
O420 O 0.68057 0.75088 0.2628 0.0
O421 O 0.69547 0.78137 0.20949 0.0
O422 O 0.65113 0.76171 0.14202 0.0
O423 O 0.68328 0.77198 0.07149 0.0
C424 C 0.79981 0.7908 0.15759 0.0
C425 C 0.79554 0.81267 0.18534 0.0
H426 H 0.77974 0.85358 0.23812 0.0
H427 H 0.73487 0.86666 0.24123 0.0
H428 H 0.76213 0.7262 0.0667 0.0
H429 H 0.80037 0.74741 0.10526 0.0
H430 H 0.81889 0.78398 0.15719 0.0
H431 H 0.81144 0.82233 0.20549 0.0
Mn432 Mn 0.95723 0.08686 0.49676 0.0
Mn433 Mn 0.97553 0.14129 0.47215 0.0
C434 C 0.95767 0.10193 0.38768 0.0
C435 C 0.97016 0.04875 0.50594 0.0
C436 C 0.92352 0.12834 0.52705 0.0
O437 O 0.97395 0.09499 0.58648 0.0
O438 O 0.98649 0.13117 0.56583 0.0
C439 C 0.03075 0.13196 0.46759 0.0
N440 N 0.00955 0.14082 0.43764 0.0
C441 C 0.03298 0.15119 0.33602 0.0
C442 C 0.0551 0.14225 0.36585 0.0
C443 C 0.05397 0.1326 0.43195 0.0
C444 C 0.01041 0.15011 0.37405 0.0
H445 H 0.02989 0.12425 0.51799 0.0
C446 C 0.98437 0.11361 0.60464 0.0
O447 O 0.9486 0.05552 0.53179 0.0
O448 O 0.98392 0.06406 0.47602 0.0
N449 N 0.96648 0.15329 0.38391 0.0
C450 C 0.94294 0.15775 0.35817 0.0
C451 C 0.94059 0.16604 0.29064 0.0
C452 C 0.96238 0.17015 0.25094 0.0
C453 C 0.98638 0.16534 0.27841 0.0
C454 C 0.98761 0.15693 0.34582 0.0
H455 H 0.92612 0.15421 0.38813 0.0
O456 O 0.9441 0.084 0.40089 0.0
O457 O 0.9706 0.11026 0.43888 0.0
O458 O 0.92659 0.10666 0.52613 0.0
O459 O 0.94017 0.14274 0.50643 0.0
C460 C 0.00903 0.16753 0.24038 0.0
C461 C 0.0323 0.1605 0.26925 0.0
H462 H 0.073 0.14259 0.33838 0.0
H463 H 0.07093 0.12559 0.45522 0.0
H464 H 0.92204 0.16857 0.26824 0.0
H465 H 0.96041 0.17627 0.19862 0.0
H466 H 0.00868 0.17404 0.18821 0.0
H467 H 0.04946 0.16199 0.23916 0.0
Mn468 Mn 0.65901 0.22683 0.26984 0.0
Mn469 Mn 0.70301 0.20802 0.38254 0.0
C470 C 0.69936 0.2422 0.26825 0.0
C471 C 0.64022 0.22545 0.16127 0.0
C472 C 0.66178 0.24141 0.42098 0.0
O473 O 0.64327 0.19713 0.30407 0.0
O474 O 0.67334 0.18677 0.38053 0.0
C475 C 0.71846 0.16665 0.30635 0.0
N476 N 0.72471 0.18675 0.33704 0.0
C477 C 0.7691 0.18118 0.31253 0.0
C478 C 0.76317 0.16033 0.28104 0.0
C479 C 0.73774 0.15308 0.27778 0.0
C480 C 0.7491 0.19392 0.34035 0.0
H481 H 0.69893 0.16104 0.30376 0.0
C482 C 0.65183 0.18386 0.35079 0.0
O483 O 0.6285 0.23482 0.21296 0.0
O484 O 0.66145 0.21523 0.17461 0.0
N485 N 0.73272 0.22664 0.39122 0.0
C486 C 0.73492 0.24797 0.41824 0.0
C487 C 0.75902 0.25825 0.42213 0.0
C488 C 0.78061 0.24631 0.39979 0.0
C489 C 0.77788 0.22429 0.3727 0.0
C490 C 0.75338 0.21498 0.36963 0.0
H491 H 0.71837 0.25714 0.43591 0.0
O492 O 0.6803 0.25331 0.24291 0.0
O493 O 0.69434 0.22211 0.29392 0.0
O494 O 0.65061 0.24216 0.36262 0.0
O495 O 0.68181 0.22982 0.43305 0.0
C496 C 0.79836 0.21152 0.34642 0.0
C497 C 0.79398 0.19 0.31631 0.0
H498 H 0.77797 0.14986 0.25868 0.0
H499 H 0.733 0.13706 0.25327 0.0
H500 H 0.76095 0.27532 0.44258 0.0
H501 H 0.79912 0.25435 0.4027 0.0
H502 H 0.81749 0.21825 0.34777 0.0
H503 H 0.80985 0.18052 0.29533 0.0
Mn504 Mn 0.54253 0.91499 0.99152 0.0
Mn505 Mn 0.52435 0.86056 0.96684 0.0
C506 C 0.54216 0.89993 0.88244 0.0
C507 C 0.52953 0.95306 0.00032 0.0
C508 C 0.57632 0.87358 0.0218 0.0
O509 O 0.52576 0.90687 0.08124 0.0
O510 O 0.51346 0.87062 0.06064 0.0
C511 C 0.46913 0.86992 0.9627 0.0
N512 N 0.49029 0.86104 0.93258 0.0
C513 C 0.46676 0.85082 0.831 0.0
C514 C 0.44469 0.85979 0.861 0.0
C515 C 0.44589 0.86937 0.92717 0.0
C516 C 0.48936 0.85181 0.86891 0.0
H517 H 0.47004 0.8776 0.01313 0.0
C518 C 0.51547 0.88819 0.09943 0.0
O519 O 0.55108 0.94637 0.02638 0.0
O520 O 0.51581 0.93769 0.97056 0.0
N521 N 0.5333 0.8486 0.87845 0.0
C522 C 0.55681 0.84417 0.85249 0.0
C523 C 0.55909 0.83592 0.78489 0.0
C524 C 0.53726 0.83185 0.74532 0.0
C525 C 0.51328 0.83666 0.77299 0.0
C526 C 0.51212 0.845 0.84048 0.0
H527 H 0.57366 0.84773 0.88232 0.0
O528 O 0.55572 0.91786 0.89572 0.0
O529 O 0.52922 0.89158 0.93361 0.0
O530 O 0.57316 0.89525 0.02105 0.0
O531 O 0.55975 0.85913 0.00093 0.0
C532 C 0.4906 0.83454 0.73506 0.0
C533 C 0.46737 0.84158 0.76412 0.0
H534 H 0.42676 0.85951 0.83361 0.0
H535 H 0.42896 0.87641 0.95057 0.0
H536 H 0.57761 0.83339 0.76232 0.0
H537 H 0.53918 0.82578 0.69293 0.0
H538 H 0.4909 0.8281 0.68282 0.0
H539 H 0.45018 0.84018 0.73408 0.0
Mn540 Mn 0.84056 0.77686 0.76978 0.0
Mn541 Mn 0.79635 0.79437 0.88371 0.0
C542 C 0.80036 0.76109 0.76746 0.0
C543 C 0.85921 0.77883 0.66107 0.0
C544 C 0.83781 0.76111 0.92004 0.0
O545 O 0.85598 0.80655 0.80538 0.0
O546 O 0.82611 0.81551 0.88403 0.0
C547 C 0.78119 0.83648 0.81081 0.0
N548 N 0.77482 0.81612 0.83969 0.0
C549 C 0.7305 0.82204 0.81502 0.0
C550 C 0.73655 0.84315 0.78539 0.0
C551 C 0.76202 0.85037 0.78311 0.0
C552 C 0.7504 0.80898 0.84201 0.0
H553 H 0.80075 0.84206 0.80901 0.0
C554 C 0.84747 0.81903 0.85411 0.0
O555 O 0.87111 0.76941 0.71238 0.0
O556 O 0.8379 0.78884 0.67496 0.0
N557 N 0.76656 0.77579 0.89052 0.0
C558 C 0.76421 0.75428 0.91614 0.0
C559 C 0.74006 0.74408 0.91919 0.0
C560 C 0.71855 0.75627 0.89735 0.0
C561 C 0.72143 0.77846 0.87175 0.0
C562 C 0.74598 0.7877 0.86957 0.0
H563 H 0.78069 0.74493 0.93341 0.0
O564 O 0.81956 0.75028 0.74176 0.0
O565 O 0.80514 0.78108 0.79412 0.0
O566 O 0.84924 0.76122 0.86199 0.0
O567 O 0.81739 0.77209 0.93256 0.0
C568 C 0.70105 0.79152 0.84619 0.0
C569 C 0.70557 0.81328 0.81781 0.0
H570 H 0.72184 0.85387 0.76373 0.0
H571 H 0.76686 0.86659 0.76005 0.0
H572 H 0.738 0.7269 0.93862 0.0
H573 H 0.70001 0.74828 0.89956 0.0
H574 H 0.68189 0.78485 0.84682 0.0
H575 H 0.68977 0.82299 0.79742 0.0
Mn576 Mn 0.51374 0.59031 0.48687 0.0
Mn577 Mn 0.49294 0.64447 0.4747 0.0
C578 C 0.51241 0.60819 0.38155 0.0
C579 C 0.50243 0.55159 0.4875 0.0
C580 C 0.5456 0.6321 0.52672 0.0
O581 O 0.49664 0.59544 0.57797 0.0
O582 O 0.48204 0.6314 0.56527 0.0
C583 C 0.4376 0.63545 0.46846 0.0
N584 N 0.459 0.6443 0.43946 0.0
C585 C 0.43536 0.65826 0.34216 0.0
C586 C 0.41303 0.64942 0.37122 0.0
C587 C 0.41418 0.63791 0.43455 0.0
C588 C 0.45812 0.65537 0.37847 0.0
H589 H 0.43839 0.6266 0.51715 0.0
C590 C 0.48501 0.61298 0.59991 0.0
O591 O 0.52373 0.5585 0.51461 0.0
O592 O 0.48806 0.56706 0.46079 0.0
N593 N 0.50195 0.659 0.38986 0.0
C594 C 0.52536 0.66546 0.36707 0.0
C595 C 0.52768 0.67649 0.30325 0.0
C596 C 0.5059 0.6808 0.26356 0.0
C597 C 0.482 0.67402 0.28809 0.0
C598 C 0.48086 0.66317 0.35222 0.0
H599 H 0.54215 0.66188 0.39683 0.0
O600 O 0.52687 0.59056 0.39068 0.0
O601 O 0.49908 0.6146 0.43442 0.0
O602 O 0.54366 0.61038 0.52109 0.0
O603 O 0.52803 0.64607 0.50971 0.0
C604 C 0.4593 0.67738 0.2511 0.0
C605 C 0.43599 0.66964 0.27833 0.0
H606 H 0.39494 0.65125 0.34516 0.0
H607 H 0.39704 0.63096 0.45719 0.0
H608 H 0.54622 0.68153 0.2845 0.0
H609 H 0.50777 0.68918 0.21415 0.0
H610 H 0.45955 0.68581 0.20151 0.0
H611 H 0.41871 0.67249 0.24956 0.0
Mn612 Mn 0.6574 0.28672 0.7827 0.0
Mn613 Mn 0.59635 0.27198 0.76027 0.0
C614 C 0.64011 0.2859 0.67342 0.0
C615 C 0.69947 0.27479 0.78784 0.0
C616 C 0.61267 0.31778 0.81786 0.0
O617 O 0.64884 0.27038 0.87144 0.0
O618 O 0.60786 0.26056 0.85227 0.0
C619 C 0.60686 0.22278 0.74868 0.0
N620 N 0.59619 0.24198 0.72201 0.0
C621 C 0.58754 0.22305 0.61464 0.0
C622 C 0.5984 0.2031 0.6411 0.0
C623 C 0.60825 0.20303 0.70825 0.0
C624 C 0.587 0.24238 0.65703 0.0
H625 H 0.61511 0.22275 0.79953 0.0
C626 C 0.62805 0.26084 0.88938 0.0
O627 O 0.69268 0.29419 0.81458 0.0
O628 O 0.68199 0.26252 0.75945 0.0
N629 N 0.58334 0.28158 0.67286 0.0
C630 C 0.57832 0.3031 0.65042 0.0
C631 C 0.56971 0.3064 0.58272 0.0
C632 C 0.56651 0.28765 0.53877 0.0
C633 C 0.57202 0.2657 0.56276 0.0
C634 C 0.57997 0.26333 0.6312 0.0
H635 H 0.58123 0.31761 0.68366 0.0
O636 O 0.65971 0.29866 0.68624 0.0
O637 O 0.6308 0.27539 0.72651 0.0
O638 O 0.63664 0.3144 0.81476 0.0
O639 O 0.59591 0.3033 0.79831 0.0
C640 C 0.571 0.24621 0.52048 0.0
C641 C 0.57892 0.22492 0.54627 0.0
H642 H 0.6 0.18795 0.60956 0.0
H643 H 0.61726 0.18786 0.72844 0.0
H644 H 0.56594 0.32336 0.56373 0.0
H645 H 0.56035 0.29036 0.48621 0.0
H646 H 0.56498 0.24756 0.46733 0.0
H647 H 0.57906 0.21024 0.51245 0.0
Mn648 Mn 0.9852 0.41325 0.98855 0.0
Mn649 Mn 0.00618 0.35915 0.97608 0.0
C650 C 0.98645 0.3954 0.88319 0.0
C651 C 0.9965 0.452 0.98922 0.0
C652 C 0.95352 0.37136 0.02856 0.0
O653 O 0.0024 0.40814 0.07947 0.0
O654 O 0.01712 0.37222 0.06662 0.0
C655 C 0.06149 0.36825 0.96948 0.0
N656 N 0.04008 0.35937 0.9406 0.0
C657 C 0.06368 0.34532 0.84337 0.0
C658 C 0.08602 0.35417 0.87229 0.0
C659 C 0.0849 0.36575 0.93552 0.0
C660 C 0.04093 0.34825 0.87971 0.0
H661 H 0.06071 0.37712 0.01812 0.0
C662 C 0.0141 0.39063 0.10132 0.0
O663 O 0.97523 0.44507 0.01646 0.0
O664 O 0.01083 0.43653 0.96231 0.0
N665 N 0.99711 0.34462 0.89129 0.0
C666 C 0.97369 0.33818 0.86856 0.0
C667 C 0.97134 0.32712 0.8048 0.0
C668 C 0.9931 0.32275 0.76511 0.0
C669 C 0.01701 0.32953 0.78955 0.0
C670 C 0.01818 0.34042 0.85361 0.0
H671 H 0.95691 0.34183 0.89829 0.0
O672 O 0.97196 0.41301 0.89248 0.0
O673 O -0.00013 0.38901 0.93591 0.0
O674 O 0.95535 0.39309 0.02301 0.0
O675 O 0.97114 0.35747 0.01134 0.0
C676 C 0.0397 0.32612 0.75252 0.0
C677 C 0.06302 0.33387 0.77964 0.0
H678 H 0.1041 0.35231 0.84622 0.0
H679 H 0.10205 0.3727 0.95807 0.0
H680 H 0.95278 0.3221 0.7861 0.0
H681 H 0.9912 0.31435 0.71575 0.0
H682 H 0.03943 0.31764 0.70301 0.0
H683 H 0.0803 0.33097 0.75087 0.0
Mn684 Mn 0.843 0.71705 0.28223 0.0
Mn685 Mn 0.9038 0.73264 0.26044 0.0
C686 C 0.86051 0.71771 0.17317 0.0
C687 C 0.80077 0.72854 0.28645 0.0
C688 C 0.88818 0.68678 0.31916 0.0
O689 O 0.8511 0.73374 0.37078 0.0
O690 O 0.89186 0.74424 0.3518 0.0
C691 C 0.89219 0.78158 0.24656 0.0
N692 N 0.90349 0.76248 0.22106 0.0
C693 C 0.91219 0.78112 0.11325 0.0
C694 C 0.90072 0.80096 0.13853 0.0
C695 C 0.89048 0.80111 0.20524 0.0
C696 C 0.91296 0.76198 0.15638 0.0
H697 H 0.88369 0.78165 0.2971 0.0
C698 C 0.87164 0.7437 0.38873 0.0
O699 O 0.80774 0.70928 0.31377 0.0
O700 O 0.81814 0.7409 0.25795 0.0
N701 N 0.91728 0.7229 0.1737 0.0
C702 C 0.92286 0.70138 0.15224 0.0
C703 C 0.9319 0.69796 0.085 0.0
C704 C 0.93491 0.71659 0.04046 0.0
C705 C 0.92881 0.73854 0.06344 0.0
C706 C 0.92049 0.74104 0.13152 0.0
H707 H 0.92009 0.68696 0.18591 0.0
O708 O 0.84107 0.70477 0.18612 0.0
O709 O 0.86952 0.72853 0.22607 0.0
O710 O 0.86415 0.68973 0.31523 0.0
O711 O 0.90472 0.7015 0.29977 0.0
C712 C 0.92965 0.75787 0.02051 0.0
C713 C 0.92116 0.77913 0.04524 0.0
H714 H 0.89891 0.81592 0.10636 0.0
H715 H 0.88099 0.81618 0.22446 0.0
H716 H 0.93618 0.68101 0.06683 0.0
H717 H 0.9414 0.71378 0.98825 0.0
H718 H 0.93594 0.75642 0.96761 0.0
H719 H 0.92084 0.79367 0.01087 0.0
Mn720 Mn 0.51602 0.41794 0.00241 0.0
Mn721 Mn 0.49658 0.36336 0.01416 0.0
C722 C 0.51456 0.40016 0.10794 0.0
C723 C 0.50386 0.45634 0.00085 0.0
C724 C 0.54907 0.37707 0.9636 0.0
O725 O 0.49961 0.41225 0.91044 0.0
O726 O 0.4852 0.37621 0.92374 0.0
C727 C 0.44104 0.37114 0.02118 0.0
N728 N 0.46271 0.36274 0.04984 0.0
C729 C 0.43973 0.34883 0.14838 0.0
C730 C 0.41713 0.35719 0.11972 0.0
C731 C 0.41781 0.36845 0.0559 0.0
C732 C 0.46228 0.35192 0.11126 0.0
H733 H 0.4415 0.37985 0.97224 0.0
C734 C 0.48811 0.39456 0.88869 0.0
O735 O 0.52546 0.44983 0.97465 0.0
O736 O 0.48962 0.44062 0.02699 0.0
N737 N 0.50613 0.34906 0.09888 0.0
C738 C 0.52972 0.34292 0.12095 0.0
C739 C 0.53248 0.33211 0.18498 0.0
C740 C 0.51095 0.32767 0.22556 0.0
C741 C 0.48685 0.33403 0.20161 0.0
C742 C 0.48527 0.34464 0.13719 0.0
H743 H 0.54631 0.34646 0.09028 0.0
O744 O 0.52855 0.41815 0.09926 0.0
O745 O 0.50178 0.39337 0.05449 0.0
O746 O 0.54665 0.39869 0.97007 0.0
O747 O 0.53172 0.36265 0.97888 0.0
C748 C 0.46436 0.33049 0.23945 0.0
C749 C 0.44083 0.33777 0.21268 0.0
H750 H 0.39919 0.35522 0.14648 0.0
H751 H 0.40047 0.37504 0.03358 0.0
H752 H 0.55117 0.32731 0.20315 0.0
H753 H 0.51317 0.31947 0.27514 0.0
H754 H 0.46497 0.32228 0.28935 0.0
H755 H 0.42373 0.33486 0.24219 0.0
Mn756 Mn 0.84351 0.28495 0.22431 0.0
Mn757 Mn 0.90375 0.26782 0.24621 0.0
C758 C 0.86108 0.28418 0.33337 0.0
C759 C 0.80092 0.27419 0.22072 0.0
C760 C 0.88971 0.31381 0.18518 0.0
O761 O 0.85105 0.26783 0.13604 0.0
O762 O 0.89131 0.25608 0.15561 0.0
C763 C 0.89026 0.21935 0.26288 0.0
N764 N 0.90236 0.23824 0.28719 0.0
C765 C 0.91046 0.22002 0.39595 0.0
C766 C 0.89813 0.2004 0.37191 0.0
C767 C 0.88778 0.20015 0.30535 0.0
C768 C 0.91192 0.23886 0.35176 0.0
H769 H 0.88169 0.21923 0.21241 0.0
C770 C 0.87118 0.25719 0.11849 0.0
O771 O 0.80835 0.29324 0.1929 0.0
O772 O 0.81803 0.26164 0.24945 0.0
N773 N 0.91769 0.27768 0.33229 0.0
C774 C 0.92415 0.29914 0.35246 0.0
C775 C 0.93352 0.30269 0.41933 0.0
C776 C 0.93586 0.28425 0.46487 0.0
C777 C 0.92883 0.26237 0.44322 0.0
C778 C 0.92028 0.25971 0.37541 0.0
H779 H 0.92186 0.31341 0.31799 0.0
O780 O 0.84204 0.29752 0.32025 0.0
O781 O 0.86971 0.27309 0.28058 0.0
O782 O 0.86557 0.31169 0.19033 0.0
O783 O 0.90569 0.29866 0.20487 0.0
C784 C 0.92898 0.24328 0.4872 0.0
C785 C 0.91961 0.22215 0.46375 0.0
H786 H 0.89578 0.18571 0.40492 0.0
H787 H 0.87771 0.18524 0.28706 0.0
H788 H 0.93859 0.3196 0.43643 0.0
H789 H 0.9426 0.28718 0.5168 0.0
H790 H 0.93543 0.24486 0.53993 0.0
H791 H 0.91877 0.20784 0.49892 0.0
Mn792 Mn 0.98401 0.58612 0.50543 0.0
Mn793 Mn 0.00459 0.64037 0.51745 0.0
C794 C 0.98564 0.60389 0.6109 0.0
C795 C 0.99548 0.54753 0.50402 0.0
C796 C 0.95179 0.62763 0.46698 0.0
O797 O 0.00067 0.59147 0.41372 0.0
O798 O 0.01541 0.6274 0.4267 0.0
C799 C 0.05994 0.63148 0.52319 0.0
N800 N 0.03857 0.64031 0.55236 0.0
C801 C 0.06222 0.65381 0.65026 0.0
C802 C 0.08451 0.645 0.62105 0.0
C803 C 0.08335 0.63374 0.5573 0.0
C804 C 0.03948 0.65113 0.61372 0.0
H805 H 0.05911 0.62277 0.47429 0.0
C806 C 0.01232 0.60904 0.39181 0.0
O807 O 0.97403 0.55434 0.4776 0.0
O808 O 0.00992 0.56306 0.5304 0.0
N809 N 0.99565 0.6548 0.60248 0.0
C810 C 0.97229 0.66133 0.62525 0.0
C811 C 0.97 0.67219 0.68933 0.0
C812 C 0.99178 0.67628 0.72928 0.0
C813 C 0.01565 0.66949 0.70467 0.0
C814 C 0.01676 0.65885 0.64021 0.0
H815 H 0.95551 0.658 0.59517 0.0
O816 O 0.97129 0.58613 0.60206 0.0
O817 O 0.9987 0.61044 0.55768 0.0
O818 O 0.95385 0.60595 0.47265 0.0
O819 O 0.96938 0.64175 0.48297 0.0
C820 C 0.03834 0.67262 0.74191 0.0
C821 C 0.06161 0.66489 0.71456 0.0
H822 H 0.10259 0.64664 0.64733 0.0
H823 H 0.10045 0.62681 0.53455 0.0
H824 H 0.95149 0.67729 0.70806 0.0
H825 H 0.98993 0.68451 0.77892 0.0
H826 H 0.03811 0.68085 0.79182 0.0
H827 H 0.07888 0.66749 0.74361 0.0
Mn828 Mn 0.65633 0.71818 0.72124 0.0
Mn829 Mn 0.5961 0.73532 0.74337 0.0
C830 C 0.63873 0.71872 0.83026 0.0
C831 C 0.69895 0.72895 0.71804 0.0
C832 C 0.61004 0.68937 0.68211 0.0
O833 O 0.64887 0.73546 0.63328 0.0
O834 O 0.60852 0.74699 0.65265 0.0
C835 C 0.60987 0.78372 0.75987 0.0
N836 N 0.59762 0.76491 0.78421 0.0
C837 C 0.58968 0.7832 0.89296 0.0
C838 C 0.60219 0.80272 0.8689 0.0
C839 C 0.61253 0.8029 0.80234 0.0
C840 C 0.58806 0.76436 0.84879 0.0
H841 H 0.61844 0.78378 0.70941 0.0
C842 C 0.62868 0.746 0.61565 0.0
O843 O 0.69155 0.70995 0.68982 0.0
O844 O 0.68181 0.74142 0.74692 0.0
N845 N 0.58214 0.72555 0.82953 0.0
C846 C 0.57559 0.70412 0.84983 0.0
C847 C 0.56624 0.70064 0.91675 0.0
C848 C 0.56398 0.7191 0.96219 0.0
C849 C 0.57109 0.74095 0.94041 0.0
C850 C 0.57962 0.74354 0.87256 0.0
H851 H 0.5778 0.68981 0.81542 0.0
O852 O 0.65776 0.70539 0.8169 0.0
O853 O 0.63013 0.72995 0.77768 0.0
O854 O 0.6342 0.69155 0.68672 0.0
O855 O 0.59407 0.70446 0.70227 0.0
C856 C 0.57105 0.76006 0.98433 0.0
C857 C 0.58054 0.78114 0.96078 0.0
H858 H 0.60468 0.81738 0.90192 0.0
H859 H 0.62272 0.81775 0.78404 0.0
H860 H 0.56113 0.68375 0.93397 0.0
H861 H 0.55726 0.71622 0.01417 0.0
H862 H 0.56462 0.75853 0.03708 0.0
H863 H 0.58149 0.79545 0.99592 0.0
Mn864 Mn 0.45685 0.41889 0.49747 0.0
Mn865 Mn 0.47625 0.36476 0.52064 0.0
C866 C 0.45847 0.40386 0.60671 0.0
C867 C 0.46947 0.45716 0.48783 0.0
C868 C 0.42382 0.37706 0.46682 0.0
O869 O 0.47288 0.41079 0.40655 0.0
O870 O 0.48773 0.37536 0.42789 0.0
C871 C 0.5314 0.37423 0.52782 0.0
N872 N 0.51001 0.3653 0.55672 0.0
C873 C 0.53285 0.35456 0.6589 0.0
C874 C 0.55515 0.36359 0.63016 0.0
C875 C 0.55442 0.37344 0.56431 0.0
C876 C 0.5105 0.35577 0.62002 0.0
H877 H 0.53083 0.38208 0.47759 0.0
C878 C 0.48444 0.39268 0.38867 0.0
O879 O 0.44775 0.45025 0.46324 0.0
O880 O 0.48359 0.44189 0.51646 0.0
N881 N 0.46665 0.35251 0.6081 0.0
C882 C 0.44292 0.34817 0.63285 0.0
C883 C 0.44011 0.34001 0.70036 0.0
C884 C 0.46165 0.33574 0.74092 0.0
C885 C 0.48586 0.34042 0.7144 0.0
C886 C 0.48753 0.34886 0.64711 0.0
H887 H 0.42627 0.35167 0.60214 0.0
O888 O 0.44463 0.42166 0.59434 0.0
O889 O 0.47095 0.39564 0.55455 0.0
O890 O 0.42605 0.39881 0.47039 0.0
O891 O 0.44119 0.36299 0.48457 0.0
C892 C 0.50827 0.3381 0.7533 0.0
C893 C 0.53175 0.34508 0.72543 0.0
H894 H 0.57291 0.36315 0.6582 0.0
H895 H 0.57153 0.38051 0.5419 0.0
H896 H 0.42139 0.33769 0.72193 0.0
H897 H 0.45932 0.32967 0.79318 0.0
H898 H 0.50759 0.33154 0.80538 0.0
H899 H 0.54872 0.34347 0.75621 0.0
Mn900 Mn 0.33939 0.72581 0.23488 0.0
Mn901 Mn 0.29493 0.70915 0.1204 0.0
C902 C 0.29948 0.74195 0.23768 0.0
C903 C 0.35791 0.72315 0.34359 0.0
C904 C 0.33683 0.74217 0.08517 0.0
O905 O 0.35438 0.69617 0.19827 0.0
O906 O 0.32447 0.68785 0.11905 0.0
C907 C 0.2794 0.66684 0.19179 0.0
N908 N 0.27321 0.68735 0.16368 0.0
C909 C 0.22884 0.68156 0.18816 0.0
C910 C 0.2347 0.6603 0.217 0.0
C911 C 0.2601 0.65294 0.21899 0.0
C912 C 0.24885 0.69463 0.16166 0.0
H913 H 0.2989 0.66115 0.19335 0.0
C914 C 0.34578 0.68403 0.14884 0.0
O915 O 0.37001 0.73267 0.29275 0.0
O916 O 0.33646 0.71345 0.32916 0.0
N917 N 0.26531 0.72794 0.11441 0.0
C918 C 0.26315 0.74954 0.08949 0.0
C919 C 0.23908 0.75986 0.08665 0.0
C920 C 0.21747 0.74769 0.10801 0.0
C921 C 0.22016 0.7254 0.13293 0.0
C922 C 0.24463 0.71605 0.13488 0.0
H923 H 0.27972 0.75888 0.07255 0.0
O924 O 0.31882 0.75248 0.26381 0.0
O925 O 0.30395 0.72201 0.21036 0.0
O926 O 0.34834 0.74168 0.14311 0.0
O927 O 0.31617 0.73152 0.07247 0.0
C928 C 0.19966 0.71234 0.15803 0.0
C929 C 0.20398 0.69046 0.18567 0.0
H930 H 0.21988 0.64957 0.23826 0.0
H931 H 0.26479 0.6366 0.24144 0.0
H932 H 0.23717 0.77711 0.06773 0.0
H933 H 0.19898 0.75576 0.10596 0.0
H934 H 0.18056 0.71911 0.15763 0.0
H935 H 0.1881 0.68075 0.20571 0.0
Mn936 Mn 0.04252 0.58462 0.00014 0.0
Mn937 Mn 0.02345 0.63882 0.02452 0.0
C938 C 0.04131 0.59956 0.10949 0.0
C939 C 0.02979 0.54636 0.99049 0.0
C940 C 0.07576 0.62649 0.97023 0.0
O941 O 0.02619 0.59278 0.90984 0.0
O942 O 0.01225 0.6285 0.93121 0.0
C943 C 0.96823 0.62944 0.03021 0.0
N944 N 0.98956 0.63823 0.05982 0.0
C945 C 0.9664 0.64881 0.16164 0.0
C946 C 0.94416 0.63993 0.13219 0.0
C947 C 0.94509 0.63022 0.06615 0.0
C948 C 0.98888 0.64762 0.1233 0.0
H949 H 0.96894 0.62171 0.97982 0.0
C950 C 0.01509 0.61112 0.892 0.0
O951 O 0.05144 0.55327 0.9654 0.0
O952 O 0.01582 0.56162 0.01971 0.0
N953 N 0.03277 0.65088 0.11247 0.0
C954 C 0.0564 0.65528 0.13776 0.0
C955 C 0.05899 0.66345 0.20533 0.0
C956 C 0.03732 0.66761 0.24546 0.0
C957 C 0.01321 0.66288 0.2184 0.0
C958 C 0.01176 0.65448 0.15103 0.0
H959 H 0.07314 0.65181 0.10741 0.0
O960 O 0.0551 0.58176 0.09661 0.0
O961 O 0.02864 0.60784 0.05778 0.0
O962 O 0.07323 0.60474 0.9722 0.0
O963 O 0.05864 0.6406 0.98946 0.0
C964 C 0.99067 0.66515 0.25681 0.0
C965 C 0.96729 0.6582 0.22831 0.0
H966 H 0.92631 0.64038 0.15985 0.0
H967 H 0.92803 0.62326 0.04316 0.0
H968 H 0.07763 0.66587 0.2273 0.0
H969 H 0.03947 0.67369 0.29778 0.0
H970 H 0.99118 0.67167 0.30894 0.0
H971 H 0.95021 0.65979 0.25865 0.0
Mn972 Mn 0.15857 0.27766 0.73743 0.0
Mn973 Mn 0.20326 0.29433 0.62356 0.0
C974 C 0.19845 0.26151 0.74064 0.0
C975 C 0.13997 0.2802 0.84611 0.0
C976 C 0.16137 0.26137 0.58763 0.0
O977 O 0.14367 0.30734 0.70077 0.0
O978 O 0.17377 0.31567 0.62204 0.0
C979 C 0.21877 0.33656 0.69541 0.0
N980 N 0.22496 0.31607 0.66721 0.0
C981 C 0.26931 0.32177 0.69217 0.0
C982 C 0.26345 0.34301 0.72112 0.0
C983 C 0.23806 0.35041 0.72292 0.0
C984 C 0.24931 0.30875 0.66538 0.0
H985 H 0.19928 0.34228 0.69683 0.0
C986 C 0.1524 0.31949 0.65155 0.0
O987 O 0.1279 0.27074 0.79511 0.0
O988 O 0.16139 0.28996 0.83181 0.0
N989 N 0.23285 0.2755 0.61778 0.0
C990 C 0.235 0.25391 0.59272 0.0
C991 C 0.25906 0.24356 0.59003 0.0
C992 C 0.28066 0.25568 0.61167 0.0
C993 C 0.27798 0.27796 0.63672 0.0
C994 C 0.25353 0.28735 0.6385 0.0
H995 H 0.21844 0.24461 0.57555 0.0
O996 O 0.17906 0.25096 0.76644 0.0
O997 O 0.19406 0.28145 0.71334 0.0
O998 O 0.14977 0.26183 0.64544 0.0
O999 O 0.18205 0.27203 0.57525 0.0
C1000 C 0.29848 0.29096 0.66208 0.0
C1001 C 0.29415 0.31283 0.68985 0.0
H1002 H 0.27825 0.35371 0.7426 0.0
H1003 H 0.23337 0.36674 0.74545 0.0
H1004 H 0.26096 0.22632 0.57101 0.0
H1005 H 0.29913 0.24758 0.60974 0.0
H1006 H 0.31757 0.28417 0.66178 0.0
H1007 H 0.31003 0.3225 0.71011 0.0
Mn1008 Mn 0.45687 0.58834 0.992 0.0
Mn1009 Mn 0.47505 0.64277 0.96722 0.0
C1010 C 0.45725 0.60339 0.88288 0.0
C1011 C 0.46984 0.55026 0.00082 0.0
C1012 C 0.42309 0.62977 0.02232 0.0
O1013 O 0.47365 0.59648 0.08169 0.0
O1014 O 0.48596 0.63272 0.06101 0.0
C1015 C 0.53028 0.63343 0.963 0.0
N1016 N 0.5091 0.6423 0.93291 0.0
C1017 C 0.53262 0.65257 0.83133 0.0
C1018 C 0.5547 0.64361 0.86131 0.0
C1019 C 0.55351 0.63401 0.92745 0.0
C1020 C 0.51001 0.65154 0.86926 0.0
H1021 H 0.52937 0.62575 0.01342 0.0
C1022 C 0.48395 0.61516 0.09984 0.0
O1023 O 0.4483 0.55697 0.02689 0.0
O1024 O 0.48357 0.56561 0.97104 0.0
N1025 N 0.46608 0.65471 0.87884 0.0
C1026 C 0.44256 0.6591 0.85288 0.0
C1027 C 0.44026 0.66736 0.78529 0.0
C1028 C 0.46208 0.67146 0.74571 0.0
C1029 C 0.48607 0.66668 0.77337 0.0
C1030 C 0.48724 0.65834 0.84085 0.0
H1031 H 0.42572 0.65552 0.88271 0.0
O1032 O 0.44368 0.58547 0.8962 0.0
O1033 O 0.47019 0.61174 0.93405 0.0
O1034 O 0.42624 0.6081 0.02155 0.0
O1035 O 0.43966 0.64421 0.00139 0.0
C1036 C 0.50874 0.66883 0.73543 0.0
C1037 C 0.53199 0.66182 0.76448 0.0
H1038 H 0.57262 0.64391 0.83391 0.0
H1039 H 0.57045 0.62699 0.95084 0.0
H1040 H 0.42173 0.66986 0.76272 0.0
H1041 H 0.46015 0.67753 0.69333 0.0
H1042 H 0.50843 0.67528 0.6832 0.0
H1043 H 0.54917 0.66326 0.73444 0.0
Mn1044 Mn 0.15921 0.72625 0.76942 0.0
Mn1045 Mn 0.20332 0.70856 0.88338 0.0
C1046 C 0.19934 0.74214 0.76784 0.0
C1047 C 0.14071 0.72437 0.66053 0.0
C1048 C 0.1616 0.7416 0.92009 0.0
O1049 O 0.1439 0.69641 0.8042 0.0
O1050 O 0.17378 0.68719 0.88255 0.0
C1051 C 0.21901 0.66681 0.80947 0.0
N1052 N 0.22514 0.68712 0.83903 0.0
C1053 C 0.26955 0.68162 0.81473 0.0
C1054 C 0.26375 0.66056 0.78441 0.0
C1055 C 0.23836 0.65316 0.7816 0.0
C1056 C 0.24949 0.69443 0.84188 0.0
H1057 H 0.19951 0.66109 0.80723 0.0
C1058 C 0.15247 0.68371 0.85232 0.0
O1059 O 0.1287 0.73367 0.71185 0.0
O1060 O 0.16206 0.71446 0.67445 0.0
N1061 N 0.23293 0.72736 0.8911 0.0
C1062 C 0.23502 0.74883 0.91713 0.0
C1063 C 0.25906 0.75923 0.92058 0.0
C1064 C 0.28072 0.74727 0.89876 0.0
C1065 C 0.2781 0.7251 0.87268 0.0
C1066 C 0.25365 0.71567 0.87007 0.0
H1067 H 0.21841 0.75802 0.93438 0.0
O1068 O 0.18014 0.75296 0.74213 0.0
O1069 O 0.19459 0.72208 0.79406 0.0
O1070 O 0.15034 0.74169 0.86181 0.0
O1071 O 0.18198 0.73054 0.93264 0.0
C1072 C 0.29865 0.71228 0.847 0.0
C1073 C 0.29439 0.69057 0.81801 0.0
H1074 H 0.27861 0.65003 0.7626 0.0
H1075 H 0.23371 0.63698 0.75798 0.0
H1076 H 0.26091 0.77639 0.94031 0.0
H1077 H 0.29919 0.7554 0.9013 0.0
H1078 H 0.31773 0.71911 0.84793 0.0
H1079 H 0.31031 0.68105 0.79751 0.0
Mn1080 Mn 0.04167 0.4153 0.4937 0.0
Mn1081 Mn 0.02353 0.36085 0.46859 0.0
C1082 C 0.04143 0.40028 0.38455 0.0
C1083 C 0.02879 0.4534 0.5027 0.0
C1084 C 0.07541 0.37384 0.52412 0.0
O1085 O 0.02475 0.40714 0.58315 0.0
O1086 O 0.01256 0.37087 0.56238 0.0
C1087 C 0.96829 0.37009 0.46416 0.0
N1088 N 0.98951 0.3613 0.43412 0.0
C1089 C 0.96607 0.35093 0.33251 0.0
C1090 C 0.94394 0.35981 0.36244 0.0
C1091 C 0.94506 0.36943 0.42857 0.0
C1092 C 0.98866 0.35204 0.37048 0.0
H1093 H 0.96914 0.37777 0.5146 0.0
C1094 C 0.01449 0.38843 0.60122 0.0
O1095 O 0.05028 0.4466 0.52891 0.0
O1096 O 0.01505 0.43812 0.47261 0.0
N1097 N 0.03259 0.34895 0.38023 0.0
C1098 C 0.05614 0.34459 0.35438 0.0
C1099 C 0.0585 0.33635 0.28679 0.0
C1100 C 0.0367 0.33219 0.24714 0.0
C1101 C 0.01269 0.33693 0.2747 0.0
C1102 C 0.01146 0.34528 0.34217 0.0
H1103 H 0.07296 0.34819 0.38428 0.0
O1104 O 0.05499 0.41819 0.39805 0.0
O1105 O 0.0284 0.39192 0.43554 0.0
O1106 O 0.07223 0.39551 0.52353 0.0
O1107 O 0.05889 0.35941 0.50288 0.0
C1108 C 0.99004 0.33471 0.23671 0.0
C1109 C 0.96676 0.34166 0.26569 0.0
H1110 H 0.92603 0.35944 0.33502 0.0
H1111 H 0.92809 0.37639 0.45192 0.0
H1112 H 0.07704 0.33388 0.26431 0.0
H1113 H 0.03868 0.32612 0.19476 0.0
H1114 H 0.99039 0.32824 0.1845 0.0
H1115 H 0.94959 0.34015 0.23563 0.0
Mn1116 Mn 0.33981 0.27641 0.27132 0.0
Mn1117 Mn 0.29577 0.29519 0.38396 0.0
C1118 C 0.29949 0.261 0.26975 0.0
C1119 C 0.3586 0.27776 0.16275 0.0
C1120 C 0.33708 0.26189 0.42251 0.0
O1121 O 0.35548 0.30615 0.30544 0.0
O1122 O 0.32536 0.31653 0.38178 0.0
C1123 C 0.28013 0.33649 0.30769 0.0
N1124 N 0.27397 0.31638 0.33843 0.0
C1125 C 0.22955 0.32179 0.31398 0.0
C1126 C 0.23538 0.34264 0.28243 0.0
C1127 C 0.26079 0.34999 0.27911 0.0
C1128 C 0.24961 0.30912 0.34181 0.0
H1129 H 0.29964 0.34216 0.30506 0.0
C1130 C 0.34687 0.31946 0.35201 0.0
O1131 O 0.37033 0.26844 0.21449 0.0
O1132 O 0.33736 0.28797 0.17605 0.0
N1133 N 0.26614 0.27648 0.39277 0.0
C1134 C 0.26403 0.25514 0.41981 0.0
C1135 C 0.23998 0.24477 0.42371 0.0
C1136 C 0.21833 0.25663 0.40135 0.0
C1137 C 0.22096 0.27866 0.37424 0.0
C1138 C 0.24542 0.28806 0.37115 0.0
H1139 H 0.28062 0.24603 0.43749 0.0
O1140 O 0.31857 0.24989 0.24447 0.0
O1141 O 0.30448 0.2811 0.29539 0.0
O1142 O 0.34824 0.26111 0.36413 0.0
O1143 O 0.31705 0.27349 0.43456 0.0
C1144 C 0.20042 0.29135 0.34795 0.0
C1145 C 0.2047 0.31288 0.3178 0.0
H1146 H 0.22053 0.35306 0.26006 0.0
H1147 H 0.26545 0.36601 0.25455 0.0
H1148 H 0.23812 0.2277 0.44418 0.0
H1149 H 0.19986 0.24853 0.40427 0.0
H1150 H 0.18132 0.28454 0.34933 0.0
H1151 H 0.18879 0.3223 0.29681 0.0
C1152 C 0.01711 0.11893 0.69646 0.0
C1153 C 0.99174 0.11548 0.67698 0.0
H1154 H 0.04389 0.11852 0.78011 0.0
C1155 C 0.9732 0.1115 0.72739 0.0
H1156 H 0.03164 0.12184 0.65794 0.0
C1157 C 0.98002 0.11007 0.79638 0.0
C1158 C 0.0055 0.11254 0.81598 0.0
H1159 H 0.95352 0.10876 0.71308 0.0
H1160 H 0.96555 0.10592 0.83406 0.0
C1161 C 0.02405 0.11704 0.7658 0.0
C1162 C 0.14733 0.74016 0.04014 0.0
C1163 C 0.14981 0.75284 0.97953 0.0
H1164 H 0.14207 0.74084 0.14842 0.0
C1165 C 0.14469 0.77634 0.98057 0.0
H1166 H 0.15133 0.72203 0.0406 0.0
C1167 C 0.13899 0.7872 0.04321 0.0
C1168 C 0.13785 0.7745 0.10449 0.0
H1169 H 0.14687 0.78645 0.93432 0.0
H1170 H 0.13679 0.80555 0.04443 0.0
C1171 C 0.14165 0.75089 0.1018 0.0
C1172 C 0.52658 0.89027 0.22226 0.0
C1173 C 0.50809 0.88628 0.17177 0.0
H1174 H 0.53417 0.8958 0.32899 0.0
C1175 C 0.48272 0.88273 0.19116 0.0
H1176 H 0.54626 0.89309 0.20802 0.0
C1177 C 0.47574 0.88456 0.2605 0.0
C1178 C 0.49425 0.8891 0.31076 0.0
H1179 H 0.46821 0.8798 0.15259 0.0
H1180 H 0.4559 0.88303 0.27473 0.0
C1181 C 0.51973 0.89163 0.29125 0.0
C1182 C 0.35088 0.26295 0.5431 0.0
C1183 C 0.3484 0.25041 0.48222 0.0
H1184 H 0.35596 0.26202 0.65149 0.0
C1185 C 0.35307 0.22684 0.483 0.0
H1186 H 0.34723 0.28114 0.54374 0.0
C1187 C 0.35834 0.21578 0.54558 0.0
C1188 C 0.35953 0.22836 0.60704 0.0
H1189 H 0.35089 0.21684 0.43652 0.0
H1190 H 0.36022 0.1974 0.54654 0.0
C1191 C 0.35621 0.25204 0.60471 0.0
C1192 C 0.01792 0.88604 0.807 0.0
C1193 C 0.99251 0.88956 0.82604 0.0
H1194 H 0.04493 0.88646 0.72388 0.0
C1195 C 0.97416 0.89369 0.77528 0.0
H1196 H 0.03232 0.88301 0.84576 0.0
C1197 C 0.98118 0.89516 0.70644 0.0
C1198 C 0.00669 0.89261 0.6873 0.0
H1199 H 0.95444 0.89644 0.78919 0.0
H1200 H 0.96684 0.89937 0.66848 0.0
C1201 C 0.02507 0.88801 0.73781 0.0
C1202 C 0.36067 0.78699 0.96083 0.0
C1203 C 0.36146 0.77403 0.89998 0.0
H1204 H 0.35273 0.78679 0.06976 0.0
C1205 C 0.35695 0.75054 0.90344 0.0
H1206 H 0.36338 0.80528 0.95898 0.0
C1207 C 0.35107 0.74014 0.96543 0.0
C1208 C 0.34893 0.75308 0.02561 0.0
H1209 H 0.35617 0.74035 0.85718 0.0
H1210 H 0.34659 0.7221 0.96552 0.0
C1211 C 0.35465 0.77648 0.02384 0.0
C1212 C 0.4736 0.1135 0.22916 0.0
C1213 C 0.49185 0.1091 0.17815 0.0
H1214 H 0.46666 0.11835 0.33731 0.0
C1215 C 0.51746 0.10679 0.19664 0.0
H1216 H 0.45367 0.11487 0.21575 0.0
C1217 C 0.5247 0.10822 0.26535 0.0
C1218 C 0.50646 0.11211 0.31661 0.0
H1219 H 0.53172 0.10277 0.15827 0.0
H1220 H 0.54449 0.10565 0.27874 0.0
C1221 C 0.48096 0.11546 0.29819 0.0
C1222 C 0.1475 0.26323 0.4675 0.0
C1223 C 0.14946 0.25038 0.52792 0.0
H1224 H 0.14268 0.26288 0.35911 0.0
C1225 C 0.14382 0.22697 0.52629 0.0
H1226 H 0.15194 0.28129 0.46747 0.0
C1227 C 0.13803 0.21635 0.46328 0.0
C1228 C 0.13739 0.22923 0.40226 0.0
H1229 H 0.14561 0.21673 0.57239 0.0
H1230 H 0.13537 0.19806 0.46161 0.0
C1231 C 0.14182 0.25274 0.4055 0.0
C1232 C 0.9977 0.89785 0.27565 0.0
C1233 C 0.97925 0.89333 0.32592 0.0
H1234 H 0.00528 0.90387 0.16907 0.0
C1235 C 0.95372 0.89079 0.30662 0.0
H1236 H 0.01749 0.89999 0.2898 0.0
C1237 C 0.94668 0.89343 0.23753 0.0
C1238 C 0.9653 0.89756 0.18722 0.0
H1239 H 0.93923 0.8876 0.34503 0.0
H1240 H 0.92682 0.89217 0.22329 0.0
C1241 C 0.99078 0.8999 0.20684 0.0
C1242 C 0.84984 0.23137 0.03572 0.0
C1243 C 0.87076 0.24511 0.05211 0.0
H1244 H 0.83029 0.2125 0.95843 0.0
C1245 C 0.88993 0.24851 0.00278 0.0
H1246 H 0.83499 0.22833 0.0733 0.0
C1247 C 0.88706 0.23979 0.93594 0.0
C1248 C 0.86526 0.22715 0.91833 0.0
H1249 H 0.90626 0.25907 0.0146 0.0
H1250 H 0.90117 0.24394 0.89733 0.0
C1251 C 0.8473 0.2222 0.96992 0.0
C1252 C 0.54423 0.11111 0.79788 0.0
C1253 C 0.51864 0.10859 0.81658 0.0
H1254 H 0.57141 0.10973 0.71523 0.0
C1255 C 0.50035 0.10418 0.7658 0.0
H1256 H 0.55861 0.11422 0.83667 0.0
C1257 C 0.5075 0.1022 0.69709 0.0
C1258 C 0.53306 0.10449 0.6781 0.0
H1259 H 0.48051 0.10204 0.77947 0.0
H1260 H 0.49312 0.09828 0.65893 0.0
C1261 C 0.5515 0.10854 0.72894 0.0
C1262 C 0.60995 0.75453 0.49985 0.0
C1263 C 0.62906 0.75806 0.54923 0.0
H1264 H 0.59878 0.7589 0.39427 0.0
C1265 C 0.64994 0.77184 0.53279 0.0
H1266 H 0.59365 0.74393 0.5117 0.0
C1267 C 0.65251 0.78091 0.46688 0.0
C1268 C 0.63462 0.77581 0.41525 0.0
H1269 H 0.66475 0.77498 0.57041 0.0
H1270 H 0.66949 0.79064 0.45535 0.0
C1271 C 0.61285 0.76315 0.4329 0.0
C1272 C 0.98978 0.10504 0.29586 0.0
C1273 C 0.96431 0.10685 0.31604 0.0
H1274 H 0.01622 0.10551 0.21231 0.0
C1275 C 0.94544 0.1106 0.2662 0.0
H1276 H 0.00449 0.10136 0.33328 0.0
C1277 C 0.95219 0.11337 0.19695 0.0
C1278 C 0.97771 0.11137 0.17712 0.0
H1279 H 0.9256 0.11144 0.28091 0.0
H1280 H 0.93751 0.11623 0.15885 0.0
C1281 C 0.99642 0.10725 0.22693 0.0
C1282 C 0.61219 0.24413 0.07256 0.0
C1283 C 0.63322 0.23035 0.08894 0.0
H1284 H 0.59379 0.2645 0.99505 0.0
C1285 C 0.65039 0.22447 0.03637 0.0
H1286 H 0.59868 0.249 0.11194 0.0
C1287 C 0.64798 0.2338 0.97077 0.0
C1288 C 0.62796 0.24868 0.9556 0.0
H1289 H 0.66677 0.21385 0.04688 0.0
H1290 H 0.66231 0.22998 0.93237 0.0
C1291 C 0.60943 0.25306 0.00593 0.0
C1292 C 0.50336 0.8948 0.7217 0.0
C1293 C 0.52206 0.8907 0.67183 0.0
H1294 H 0.49533 0.9006 0.82812 0.0
C1295 C 0.54759 0.88866 0.69162 0.0
H1296 H 0.48357 0.89656 0.70712 0.0
C1297 C 0.55435 0.89136 0.76087 0.0
C1298 C 0.53549 0.89508 0.81077 0.0
H1299 H 0.56226 0.88579 0.65348 0.0
H1300 H 0.57419 0.89049 0.77555 0.0
C1301 C 0.51003 0.89694 0.79064 0.0
C1302 C 0.88752 0.76091 0.57154 0.0
C1303 C 0.86607 0.77408 0.58852 0.0
H1304 H 0.90636 0.74108 0.49353 0.0
C1305 C 0.84847 0.77941 0.53645 0.0
H1306 H 0.90136 0.75646 0.61053 0.0
C1307 C 0.85096 0.77013 0.47079 0.0
C1308 C 0.87147 0.75586 0.45502 0.0
H1309 H 0.83175 0.78953 0.54743 0.0
H1310 H 0.83634 0.77351 0.43281 0.0
C1311 C 0.89034 0.75205 0.50484 0.0
C1312 C 0.51672 0.62058 0.19154 0.0
C1313 C 0.49134 0.61709 0.17217 0.0
H1314 H 0.54353 0.62024 0.2751 0.0
C1315 C 0.47282 0.61317 0.22267 0.0
H1316 H 0.53123 0.62345 0.15295 0.0
C1317 C 0.47968 0.61182 0.29166 0.0
C1318 C 0.50516 0.61428 0.31116 0.0
H1319 H 0.45314 0.6104 0.20844 0.0
H1320 H 0.46522 0.60769 0.32942 0.0
C1321 C 0.52369 0.61876 0.26088 0.0
C1322 C 0.64563 0.27642 0.48147 0.0
C1323 C 0.65043 0.25287 0.4807 0.0
H1324 H 0.63831 0.30582 0.545 0.0
C1325 C 0.64799 0.24031 0.54158 0.0
H1326 H 0.64777 0.28642 0.43499 0.0
C1327 C 0.64259 0.25121 0.60318 0.0
C1328 C 0.63914 0.27486 0.6055 0.0
H1329 H 0.65173 0.22214 0.54223 0.0
H1330 H 0.64289 0.24122 0.64996 0.0
C1331 C 0.64029 0.28745 0.54404 0.0
C1332 C 0.02579 0.3903 0.72391 0.0
C1333 C 0.00719 0.38646 0.67359 0.0
H1334 H 0.03356 0.39575 0.83056 0.0
C1335 C 0.98182 0.38306 0.69321 0.0
H1336 H 0.04546 0.393 0.70948 0.0
C1337 C 0.97495 0.38489 0.76263 0.0
C1338 C 0.99357 0.38929 0.81272 0.0
H1339 H 0.96724 0.38026 0.65476 0.0
H1340 H 0.95512 0.38348 0.77705 0.0
C1341 C 0.01904 0.39167 0.79296 0.0
C1342 C 0.86016 0.71563 0.04385 0.0
C1343 C 0.86144 0.72848 0.10484 0.0
H1344 H 0.85218 0.71618 0.935 0.0
C1345 C 0.85785 0.75211 0.10169 0.0
H1346 H 0.86218 0.69728 0.04546 0.0
C1347 C 0.85225 0.76273 0.03982 0.0
C1348 C 0.84961 0.74991 0.97952 0.0
H1349 H 0.85752 0.76227 0.14809 0.0
H1350 H 0.8484 0.78088 0.0399 0.0
C1351 C 0.8545 0.72639 0.98102 0.0
C1352 C 0.52513 0.38956 0.22907 0.0
C1353 C 0.50691 0.39406 0.17805 0.0
H1354 H 0.53203 0.38468 0.33722 0.0
C1355 C 0.48132 0.3965 0.19652 0.0
H1356 H 0.54505 0.38809 0.21566 0.0
C1357 C 0.47407 0.39511 0.26523 0.0
C1358 C 0.49227 0.39113 0.31651 0.0
H1359 H 0.46709 0.4006 0.15815 0.0
H1360 H 0.45429 0.39779 0.27861 0.0
C1361 C 0.51775 0.38764 0.2981 0.0
C1362 C 0.86109 0.28616 0.46287 0.0
C1363 C 0.86159 0.27337 0.40168 0.0
H1364 H 0.85357 0.28568 0.57201 0.0
C1365 C 0.85693 0.24989 0.40463 0.0
H1366 H 0.86394 0.30443 0.46143 0.0
C1367 C 0.85118 0.23935 0.4665 0.0
C1368 C 0.84937 0.25212 0.5271 0.0
H1369 H 0.85598 0.23982 0.35811 0.0
H1370 H 0.84658 0.22132 0.46623 0.0
C1371 C 0.85524 0.27549 0.52576 0.0
C1372 C 0.02577 0.60871 0.76885 0.0
C1373 C 0.00747 0.61285 0.81976 0.0
H1374 H 0.03297 0.60306 0.66197 0.0
C1375 C 0.98207 0.6165 0.8009 0.0
H1376 H 0.04548 0.60586 0.78262 0.0
C1377 C 0.97485 0.61461 0.73175 0.0
C1378 C 0.99317 0.60995 0.6811 0.0
H1379 H 0.96772 0.61957 0.83977 0.0
H1380 H 0.95498 0.61622 0.71797 0.0
C1381 C 0.01868 0.60731 0.70004 0.0
C1382 C 0.64487 0.72698 0.02272 0.0
C1383 C 0.65061 0.75036 0.02445 0.0
H1384 H 0.63619 0.69815 0.95791 0.0
C1385 C 0.64857 0.76328 0.96419 0.0
H1386 H 0.64672 0.71669 0.06871 0.0
C1387 C 0.64276 0.75286 0.90219 0.0
C1388 C 0.63822 0.72937 0.8988 0.0
H1389 H 0.65306 0.78132 0.96425 0.0
H1390 H 0.64361 0.76304 0.85588 0.0
C1391 C 0.63892 0.71644 0.9597 0.0
C1392 C 0.49844 0.39919 0.76573 0.0
C1393 C 0.48013 0.39481 0.81649 0.0
H1394 H 0.50571 0.40508 0.65888 0.0
C1395 C 0.45453 0.39237 0.79777 0.0
H1396 H 0.51829 0.40126 0.77942 0.0
C1397 C 0.44728 0.39498 0.72883 0.0
C1398 C 0.46574 0.39897 0.67802 0.0
H1399 H 0.44014 0.38929 0.83654 0.0
H1400 H 0.42736 0.39384 0.71511 0.0
C1401 C 0.49131 0.4012 0.69703 0.0
C1402 C 0.3468 0.72251 0.46796 0.0
C1403 C 0.36474 0.7275 0.41637 0.0
H1404 H 0.33457 0.72849 0.57149 0.0
C1405 C 0.3866 0.74003 0.43409 0.0
H1406 H 0.32974 0.71289 0.45638 0.0
C1407 C 0.38955 0.74862 0.50106 0.0
C1408 C 0.3704 0.74519 0.55042 0.0
H1409 H 0.40071 0.7442 0.39549 0.0
H1410 H 0.40593 0.75911 0.51296 0.0
C1411 C 0.34942 0.73155 0.5339 0.0
C1412 C 0.05284 0.60827 0.23147 0.0
C1413 C 0.03425 0.60436 0.18097 0.0
H1414 H 0.06024 0.61398 0.33903 0.0
C1415 C 0.00871 0.60227 0.20035 0.0
H1416 H 0.07274 0.60932 0.21742 0.0
C1417 C 0.00173 0.60436 0.26912 0.0
C1418 C 0.02017 0.60868 0.31956 0.0
H1419 H 0.99421 0.59846 0.16242 0.0
H1420 H 0.98189 0.60242 0.28311 0.0
C1421 C 0.04576 0.61095 0.30049 0.0
C1422 C 0.11154 0.26282 0.93646 0.0
C1423 C 0.13321 0.27564 0.91886 0.0
H1424 H 0.09252 0.24337 0.01508 0.0
C1425 C 0.15111 0.28072 0.97049 0.0
H1426 H 0.09747 0.25856 0.89783 0.0
C1427 C 0.14865 0.27152 0.03628 0.0
C1428 C 0.12787 0.25761 0.05265 0.0
H1429 H 0.16802 0.29057 0.95903 0.0
H1430 H 0.16347 0.27469 0.07387 0.0
C1431 C 0.10875 0.25407 0.0033 0.0
C1432 C 0.45186 0.61463 0.69203 0.0
C1433 C 0.4774 0.61262 0.67228 0.0
H1434 H 0.42524 0.61277 0.77591 0.0
C1435 C 0.49609 0.60854 0.72217 0.0
H1436 H 0.4372 0.61748 0.65387 0.0
C1437 C 0.48941 0.60639 0.79111 0.0
C1438 C 0.46393 0.60823 0.8112 0.0
H1439 H 0.51589 0.60679 0.70762 0.0
H1440 H 0.5041 0.60274 0.82861 0.0
C1441 C 0.44508 0.61192 0.76127 0.0
C1442 C 0.14895 0.7332 0.47028 0.0
C1443 C 0.12823 0.74723 0.45445 0.0
H1444 H 0.16839 0.71403 0.54699 0.0
C1445 C 0.1093 0.75086 0.50425 0.0
H1446 H 0.16361 0.72998 0.43234 0.0
C1447 C 0.11223 0.74205 0.57097 0.0
C1448 C 0.13384 0.72911 0.58799 0.0
H1449 H 0.09314 0.76165 0.49289 0.0
H1450 H 0.09831 0.74635 0.60992 0.0
C1451 C 0.15154 0.72396 0.53596 0.0
C1452 C 0.04715 0.38907 0.19373 0.0
C1453 C 0.02163 0.39096 0.17375 0.0
H1454 H 0.07365 0.39103 0.27789 0.0
C1455 C 0.00285 0.39497 0.22346 0.0
H1456 H 0.06188 0.38628 0.15571 0.0
C1457 C 0.00942 0.39716 0.29244 0.0
C1458 C 0.03488 0.39543 0.31279 0.0
H1459 H 0.98307 0.39664 0.20872 0.0
H1460 H 0.99466 0.40075 0.32979 0.0
C1461 C 0.05382 0.39181 0.26304 0.0
C1462 C 0.3484 0.27865 0.03787 0.0
C1463 C 0.36558 0.27281 0.09044 0.0
H1464 H 0.33645 0.27308 0.93395 0.0
C1465 C 0.3866 0.25899 0.07411 0.0
H1466 H 0.33204 0.2893 0.04834 0.0
C1467 C 0.38932 0.25 0.00755 0.0
C1468 C 0.37078 0.25436 0.95724 0.0
H1469 H 0.40011 0.25414 0.11351 0.0
H1470 H 0.40495 0.23854 0.99671 0.0
C1471 C 0.35078 0.26927 0.97234 0.0
C1472 C 0.97125 0.01953 0.96378 0.0
C1473 C 0.99464 0.02586 0.99374 0.0
H1474 H 0.94498 0.99253 0.94113 0.0
C1475 C 0.00977 0.0089 0.02373 0.0
H1476 H 0.9591 0.03219 0.9401 0.0
C1477 C 0.00163 0.98617 0.02416 0.0
C1478 C 0.97816 0.97985 0.99465 0.0
H1479 H 0.02784 0.01317 0.04714 0.0
H1480 H 0.01375 0.97354 0.0481 0.0
C1481 C 0.9631 0.99679 0.96424 0.0
C1482 C 0.23078 0.74422 0.2924 0.0
C1483 C 0.22514 0.7674 0.28321 0.0
H1484 H 0.25917 0.7181 0.28684 0.0
C1485 C 0.24442 0.78242 0.26251 0.0
H1486 H 0.21617 0.73237 0.3088 0.0
C1487 C 0.26869 0.77405 0.24733 0.0
C1488 C 0.27386 0.75062 0.25262 0.0
H1489 H 0.24041 0.80034 0.25476 0.0
H1490 H 0.28321 0.78576 0.22958 0.0
C1491 C 0.25513 0.73598 0.27858 0.0
C1492 C 0.49751 0.0158 0.51525 0.0
C1493 C 0.52104 0.02207 0.48602 0.0
H1494 H 0.47137 0.98879 0.53879 0.0
C1495 C 0.53627 0.00506 0.45666 0.0
H1496 H 0.48525 0.02848 0.5384 0.0
C1497 C 0.52824 0.98229 0.45698 0.0
C1498 C 0.5048 0.976 0.48671 0.0
H1499 H 0.55446 0.00929 0.43383 0.0
H1500 H 0.54054 0.96958 0.4341 0.0
C1501 C 0.48949 0.99303 0.51561 0.0
C1502 C 0.26708 0.25912 0.79601 0.0
C1503 C 0.27265 0.23592 0.78683 0.0
H1504 H 0.23875 0.28529 0.79027 0.0
C1505 C 0.25336 0.22095 0.76594 0.0
H1506 H 0.2817 0.27093 0.81254 0.0
C1507 C 0.22915 0.22937 0.75054 0.0
C1508 C 0.22403 0.2528 0.75581 0.0
H1509 H 0.25733 0.20302 0.7582 0.0
H1510 H 0.21462 0.21769 0.73262 0.0
C1511 C 0.24276 0.2674 0.782 0.0
C1512 C 0.97233 0.98503 0.53932 0.0
C1513 C 0.99574 0.97891 0.50922 0.0
H1514 H 0.94587 0.01179 0.56216 0.0
C1515 C 0.01074 0.99599 0.47922 0.0
H1516 H 0.96028 0.97227 0.56304 0.0
C1517 C 0.00242 0.01865 0.47886 0.0
C1518 C 0.97892 0.02474 0.50849 0.0
H1519 H 0.02883 0.99187 0.45572 0.0
H1520 H 0.01442 0.03139 0.45489 0.0
C1521 C 0.96402 0.00769 0.53896 0.0
C1522 C 0.23061 0.77403 0.75923 0.0
C1523 C 0.22511 0.75066 0.75318 0.0
H1524 H 0.25922 0.80013 0.75216 0.0
C1525 C 0.24362 0.73599 0.72644 0.0
H1526 H 0.21628 0.78579 0.7776 0.0
C1527 C 0.26804 0.74409 0.71246 0.0
C1528 C 0.274 0.7672 0.72221 0.0
H1529 H 0.23933 0.71817 0.71755 0.0
H1530 H 0.28246 0.73218 0.69542 0.0
C1531 C 0.25496 0.78227 0.74388 0.0
C1532 C 0.49713 0.98293 0.97282 0.0
C1533 C 0.52072 0.97705 0.00222 0.0
H1534 H 0.47055 0.00948 0.94911 0.0
C1535 C 0.53568 0.99429 0.03159 0.0
H1536 H 0.48509 0.97005 0.94969 0.0
C1537 C 0.52729 0.01693 0.03109 0.0
C1538 C 0.50376 0.02281 0.00125 0.0
H1539 H 0.55391 0.99034 0.05454 0.0
H1540 H 0.53934 0.02985 0.05398 0.0
C1541 C 0.48874 0.00554 0.97235 0.0
C1542 C 0.23081 0.25923 0.21411 0.0
C1543 C 0.22474 0.23617 0.22444 0.0
H1544 H 0.25967 0.28503 0.21853 0.0
C1545 C 0.24367 0.2211 0.24687 0.0
H1546 H 0.21647 0.27112 0.1965 0.0
C1547 C 0.26801 0.2293 0.26228 0.0
C1548 C 0.27365 0.25261 0.25547 0.0
H1549 H 0.23931 0.20329 0.25563 0.0
H1550 H 0.28226 0.21754 0.28117 0.0
C1551 C 0.25526 0.26727 0.22806 0.0
C1552 C 0.75576 0.23552 0.78055 0.0
C1553 C 0.77456 0.25004 0.7543 0.0
H1554 H 0.7168 0.23213 0.81104 0.0
C1555 C 0.76952 0.27349 0.74876 0.0
H1556 H 0.75972 0.21763 0.78903 0.0
C1557 C 0.74533 0.28198 0.76404 0.0
C1558 C 0.72598 0.26709 0.78505 0.0
H1559 H 0.78409 0.28511 0.73079 0.0
H1560 H 0.74142 0.29992 0.75613 0.0
C1561 C 0.73147 0.24389 0.79442 0.0
C1562 C 0.74421 0.76746 0.27814 0.0
C1563 C 0.72553 0.75279 0.25199 0.0
H1564 H 0.7831 0.77111 0.30888 0.0
C1565 C 0.73073 0.72936 0.24687 0.0
H1566 H 0.74013 0.78534 0.28628 0.0
C1567 C 0.75497 0.72102 0.26246 0.0
C1568 C 0.77419 0.73605 0.28339 0.0
H1569 H 0.71625 0.71763 0.22898 0.0
H1570 H 0.75901 0.7031 0.25487 0.0
C1571 C 0.76853 0.75924 0.29235 0.0
C1572 C 0.74361 0.23591 0.22674 0.0
C1573 C 0.72522 0.25057 0.25411 0.0
H1574 H 0.78243 0.23203 0.19546 0.0
C1575 C 0.73089 0.27388 0.26111 0.0
H1576 H 0.73919 0.21817 0.21708 0.0
C1577 C 0.75527 0.28205 0.24598 0.0
C1578 C 0.7742 0.26698 0.22363 0.0
H1579 H 0.71664 0.28564 0.27997 0.0
H1580 H 0.75965 0.29985 0.25492 0.0
C1581 C 0.76809 0.24394 0.21304 0.0
C1582 C 0.73166 0.75934 0.71187 0.0
C1583 C 0.72567 0.73621 0.72115 0.0
H1584 H 0.7604 0.78522 0.71754 0.0
C1585 C 0.74469 0.72107 0.74254 0.0
H1586 H 0.71726 0.7713 0.69505 0.0
C1587 C 0.76904 0.72926 0.75809 0.0
C1588 C 0.77458 0.75264 0.75253 0.0
H1589 H 0.74041 0.7032 0.75045 0.0
H1590 H 0.78336 0.71744 0.77626 0.0
C1591 C 0.75609 0.76739 0.72605 0.0
C1592 C 0.50962 0.51025 0.51545 0.0
C1593 C 0.49434 0.52733 0.48668 0.0
H1594 H 0.51378 0.47478 0.53803 0.0
C1595 C 0.47088 0.52111 0.45695 0.0
H1596 H 0.52776 0.51443 0.53861 0.0
C1597 C 0.46279 0.49835 0.45653 0.0
C1598 C 0.47799 0.48129 0.48577 0.0
H1599 H 0.45861 0.53386 0.43418 0.0
H1600 H 0.44459 0.49417 0.43372 0.0
C1601 C 0.50155 0.4875 0.51497 0.0
C1602 C 0.98951 0.49333 0.01796 0.0
C1603 C 0.00464 0.47625 0.98858 0.0
H1604 H 0.98555 0.52877 0.04129 0.0
C1605 C 0.02805 0.48247 0.95852 0.0
H1606 H 0.97141 0.48914 0.04141 0.0
C1607 C 0.03623 0.5052 0.95835 0.0
C1608 C 0.02118 0.52225 0.98822 0.0
H1609 H 0.04021 0.46973 0.93527 0.0
H1610 H 0.05439 0.50937 0.93526 0.0
C1611 C 0.99767 0.51605 0.01775 0.0
C1612 C 0.47194 0.48638 0.03151 0.0
C1613 C 0.49543 0.48044 0.00157 0.0
H1614 H 0.4454 0.51302 0.05509 0.0
C1615 C 0.51049 0.49769 0.97266 0.0
H1616 H 0.45985 0.47349 0.05441 0.0
C1617 C 0.50217 0.52032 0.9732 0.0
C1618 C 0.4786 0.52625 0.00269 0.0
H1619 H 0.52865 0.49371 0.94935 0.0
H1620 H 0.51423 0.53318 0.95005 0.0
C1621 C 0.46361 0.50904 0.03208 0.0
C1622 C 0.03516 0.4945 0.53496 0.0
C1623 C 0.02014 0.47744 0.50489 0.0
H1624 H 0.03913 0.52995 0.55817 0.0
C1625 C 0.99668 0.48357 0.47515 0.0
H1626 H 0.05329 0.49036 0.55821 0.0
C1627 C 0.98851 0.50626 0.47498 0.0
C1628 C 0.00363 0.52335 0.50453 0.0
H1629 H 0.9846 0.47083 0.45148 0.0
H1630 H 0.97044 0.51041 0.4514 0.0
C1631 C 0.027 0.5172 0.53477 0.0
C1632 C 0.07819 0.16143 0.03489 0.0
C1633 C 0.06842 0.14125 0.06336 0.0
H1634 H 0.09931 0.19208 0.05215 0.0
C1635 C 0.07634 0.13468 0.12965 0.0
H1636 H 0.07244 0.16697 0.98417 0.0
C1637 C 0.09188 0.14925 0.16895 0.0
C1638 C 0.09955 0.17038 0.14203 0.0
H1639 H 0.06868 0.11943 0.15331 0.0
H1640 H 0.09618 0.14487 0.22181 0.0
C1641 C 0.09358 0.17583 0.07379 0.0
C1642 C 0.09299 0.85559 0.33429 0.0
C1643 C 0.10136 0.83493 0.36274 0.0
H1644 H 0.06926 0.88508 0.3485 0.0
C1645 C 0.09625 0.83016 0.43196 0.0
H1646 H 0.09666 0.85945 0.28071 0.0
C1647 C 0.08089 0.84468 0.47048 0.0
C1648 C 0.07035 0.86429 0.44057 0.0
H1649 H 0.10252 0.81426 0.45475 0.0
H1650 H 0.07574 0.83962 0.52212 0.0
C1651 C 0.07752 0.87028 0.37318 0.0
C1652 C 0.40623 0.82607 0.57067 0.0
C1653 C 0.39993 0.83194 0.63837 0.0
H1654 H 0.42772 0.83439 0.48119 0.0
C1655 C 0.40749 0.85323 0.66435 0.0
H1656 H 0.40061 0.80968 0.54977 0.0
C1657 C 0.42315 0.86758 0.62466 0.0
C1658 C 0.43134 0.86063 0.55897 0.0
H1659 H 0.40297 0.85793 0.71683 0.0
H1660 H 0.43066 0.88301 0.64765 0.0
C1661 C 0.42176 0.84024 0.53141 0.0
C1662 C 0.41307 0.15252 0.96596 0.0
C1663 C 0.42658 0.13536 0.93151 0.0
H1664 H 0.38886 0.18168 0.95617 0.0
C1665 C 0.4223 0.13194 0.86088 0.0
H1666 H 0.4161 0.15555 0.02025 0.0
C1667 C 0.40671 0.14702 0.82409 0.0
C1668 C 0.39525 0.16548 0.85774 0.0
H1669 H 0.43293 0.11911 0.83298 0.0
H1670 H 0.40521 0.14536 0.76878 0.0
C1671 C 0.39744 0.16743 0.92936 0.0
C1672 C 0.8658 0.83899 0.95619 0.0
C1673 C 0.8644 0.83662 0.88418 0.0
H1674 H 0.88607 0.85331 0.04185 0.0
C1675 C 0.88087 0.84958 0.84286 0.0
H1676 H 0.85353 0.82904 0.98944 0.0
C1677 C 0.89919 0.86383 0.87309 0.0
C1678 C 0.90143 0.86514 0.94506 0.0
H1679 H 0.87999 0.84821 0.78735 0.0
H1680 H 0.91255 0.87278 0.84032 0.0
C1681 C 0.88436 0.85288 0.98631 0.0
C1682 C 0.88285 0.14972 0.51814 0.0
C1683 C 0.90049 0.13796 0.55877 0.0
H1684 H 0.85146 0.1729 0.51614 0.0
C1685 C 0.89855 0.13915 0.6308 0.0
H1686 H 0.88425 0.14924 0.46255 0.0
C1687 C 0.88 0.15292 0.6617 0.0
C1688 C 0.86306 0.16556 0.621 0.0
H1689 H 0.9123 0.13051 0.66307 0.0
H1690 H 0.87936 0.15426 0.71724 0.0
C1691 C 0.86411 0.1632 0.54894 0.0
C1692 C 0.63541 0.16015 0.44841 0.0
C1693 C 0.63491 0.16568 0.37785 0.0
H1694 H 0.61653 0.14317 0.53209 0.0
C1695 C 0.61648 0.15542 0.33574 0.0
H1696 H 0.64921 0.16796 0.48242 0.0
C1697 C 0.59805 0.14093 0.3642 0.0
C1698 C 0.59775 0.13651 0.43524 0.0
H1699 H 0.61587 0.15918 0.28123 0.0
H1700 H 0.5832 0.13418 0.33134 0.0
C1701 C 0.6168 0.1459 0.47695 0.0
C1702 C 0.6009 0.86272 0.1261 0.0
C1703 C 0.59929 0.86407 0.05405 0.0
H1704 H 0.61992 0.84768 0.21289 0.0
C1705 C 0.61734 0.85267 0.01379 0.0
H1706 H 0.58686 0.87111 0.15807 0.0
C1707 C 0.63613 0.83935 0.04497 0.0
C1708 C 0.63686 0.8368 0.11702 0.0
H1709 H 0.61624 0.85334 0.95817 0.0
H1710 H 0.64911 0.8299 0.01241 0.0
C1711 C 0.61952 0.84913 0.15736 0.0
C1712 C 0.57612 0.63573 0.62538 0.0
C1713 C 0.56826 0.64244 0.55917 0.0
H1714 H 0.59609 0.64563 0.71762 0.0
C1715 C 0.57822 0.66258 0.53092 0.0
H1716 H 0.56831 0.62052 0.64888 0.0
C1717 C 0.59382 0.67678 0.56992 0.0
C1718 C 0.59979 0.67118 0.63806 0.0
H1719 H 0.57251 0.66823 0.48028 0.0
H1720 H 0.59973 0.693 0.54843 0.0
C1721 C 0.59183 0.65011 0.66481 0.0
C1722 C 0.57655 0.37118 0.8609 0.0
C1723 C 0.57202 0.36751 0.93131 0.0
H1724 H 0.59381 0.35802 0.76867 0.0
C1725 C 0.58526 0.35009 0.96538 0.0
H1726 H 0.56614 0.38421 0.83326 0.0
C1727 C 0.60086 0.33522 0.92858 0.0
C1728 C 0.60333 0.33746 0.85711 0.0
H1729 H 0.58203 0.34686 0.01949 0.0
H1730 H 0.60924 0.3208 0.95505 0.0
C1731 C 0.59213 0.35613 0.82388 0.0
C1732 C 0.90712 0.35334 0.16643 0.0
C1733 C 0.89986 0.33194 0.14066 0.0
H1734 H 0.93 0.3833 0.14955 0.0
C1735 C 0.90622 0.32607 0.07301 0.0
H1736 H 0.9025 0.35806 0.21882 0.0
C1737 C 0.92157 0.34035 0.03364 0.0
C1738 C 0.93095 0.36085 0.06105 0.0
H1739 H 0.90078 0.30962 0.05222 0.0
H1740 H 0.92759 0.33451 0.98348 0.0
C1741 C 0.92265 0.36779 0.12667 0.0
C1742 C 0.9172 0.65623 0.46778 0.0
C1743 C 0.92896 0.63768 0.43523 0.0
H1744 H 0.89445 0.6862 0.45556 0.0
C1745 C 0.92297 0.6329 0.36618 0.0
H1746 H 0.92147 0.66031 0.5208 0.0
C1747 C 0.90743 0.64786 0.32862 0.0
C1748 C 0.89775 0.66756 0.36002 0.0
H1749 H 0.93222 0.61896 0.33959 0.0
H1750 H 0.90465 0.64504 0.27408 0.0
C1751 C 0.90169 0.67102 0.43052 0.0
C1752 C 0.36337 0.3432 0.44943 0.0
C1753 C 0.36374 0.3377 0.37885 0.0
H1754 H 0.38237 0.36019 0.53288 0.0
C1755 C 0.38203 0.34806 0.33647 0.0
H1756 H 0.34968 0.33531 0.48362 0.0
C1757 C 0.40045 0.3626 0.36469 0.0
C1758 C 0.4009 0.36697 0.43575 0.0
H1759 H 0.38252 0.34432 0.28194 0.0
H1760 H 0.41521 0.36941 0.33162 0.0
C1761 C 0.38199 0.35749 0.47773 0.0
C1762 C 0.36332 0.66404 0.04575 0.0
C1763 C 0.36266 0.66664 0.11779 0.0
H1764 H 0.38311 0.64997 0.95888 0.0
C1765 C 0.38004 0.65433 0.15807 0.0
H1766 H 0.35031 0.67346 0.01322 0.0
C1767 C 0.39862 0.64071 0.12675 0.0
C1768 C 0.40015 0.63931 0.05469 0.0
H1769 H 0.37969 0.6558 0.21359 0.0
H1770 H 0.41269 0.63234 0.15867 0.0
C1771 C 0.38207 0.65068 0.01451 0.0
C1772 C 0.1162 0.64816 0.98177 0.0
C1773 C 0.09879 0.6366 0.93972 0.0
H1774 H 0.14721 0.67178 0.98662 0.0
C1775 C 0.10065 0.63889 0.8679 0.0
H1776 H 0.11473 0.64705 0.03728 0.0
C1777 C 0.11893 0.65341 0.83874 0.0
C1778 C 0.1357 0.66572 0.88096 0.0
H1779 H 0.08701 0.63051 0.83459 0.0
H1780 H 0.11952 0.65553 0.78342 0.0
C1781 C 0.1347 0.66234 0.95265 0.0
C1782 C 0.10009 0.36329 0.6286 0.0
C1783 C 0.09833 0.36428 0.5565 0.0
H1784 H 0.11909 0.34845 0.71577 0.0
C1785 C 0.11609 0.35244 0.5165 0.0
H1786 H 0.08626 0.37201 0.6604 0.0
C1787 C 0.13475 0.33905 0.54798 0.0
C1788 C 0.13562 0.33687 0.62012 0.0
H1789 H 0.11487 0.35281 0.46087 0.0
H1790 H 0.14751 0.32928 0.51565 0.0
C1791 C 0.11857 0.34962 0.66019 0.0
loop_
_geom_bond_atom_site_label_1
_geom_bond_atom_site_label_2
_geom_bond_distance
_geom_bond_site_symmetry_2
_ccdc_geom_bond_type
Mn0 O5 2.095 1_455 S
Mn0 O15 2.162 . S
Mn0 O16 2.297 1_455 S
Mn0 O24 2.385 1_554 S
Mn0 O25 2.209 1_455 S
Mn0 O26 2.094 . S
Mn1 O6 2.121 . S
Mn1 N8 2.257 . S
Mn1 N17 2.282 1_554 S
Mn1 O25 2.215 . S
Mn1 O27 2.117 1_655 S
C2 O24 1.234 1_655 S
C2 O25 1.283 1_556 S
C3 O15 1.302 . S
C3 O16 1.217 1_455 S
C4 O26 1.240 . S
C4 O27 1.264 . S
O5 Mn0 2.095 1_655 S
O5 C14 1.250 . S
O6 Mn1 2.121 . S
O6 C14 1.258 . S
C7 N8 1.326 . S
C7 C11 1.460 . S
C7 H13 0.929 . S
N8 Mn1 2.257 . S
N8 C7 1.326 . S
N8 C12 1.362 1_554 S
C9 C10 1.258 1_556 S
C9 C12 1.431 . S
C9 C29 1.449 . S
C10 C9 1.258 1_554 S
C10 C11 1.477 . S
C10 H30 0.931 1_554 S
C11 C7 1.460 . S
C11 C10 1.477 . S
C11 H31 0.930 . S
C12 N8 1.362 1_556 S
C12 C9 1.431 . S
C12 C22 1.476 . S
H13 C7 0.929 . S
C14 O5 1.250 . S
C14 O6 1.258 . S
O15 Mn0 2.162 . S
O15 C3 1.302 . S
O16 Mn0 2.297 1_655 S
O16 C3 1.217 1_655 S
N17 Mn1 2.282 1_556 S
N17 C18 1.328 1_655 S
N17 C22 1.318 . S
C18 N17 1.328 1_455 S
C18 C19 1.457 . S
C18 H23 0.929 . S
C19 C18 1.457 . S
C19 C20 1.291 1_455 S
C19 H32 0.931 . S
C20 C19 1.291 1_655 S
C20 C21 1.373 . S
C20 H33 0.929 . S
C21 C20 1.373 . S
C21 C22 1.396 . S
C21 C28 1.403 . S
C22 C12 1.476 . S
C22 N17 1.318 . S
C22 C21 1.396 . S
H23 C18 0.929 . S
O24 Mn0 2.385 1_556 S
O24 C2 1.234 1_455 S
O25 Mn0 2.209 1_655 S
O25 Mn1 2.215 . S
O25 C2 1.283 1_554 S
O26 Mn0 2.094 . S
O26 C4 1.240 . S
O27 Mn1 2.117 1_455 S
O27 C4 1.264 . S
C28 C21 1.403 . S
C28 C29 1.399 . S
C28 H34 0.929 . S
C29 C9 1.449 . S
C29 C28 1.399 . S
C29 H35 0.930 . S
H30 C10 0.931 1_556 S
H31 C11 0.930 . S
H32 C19 0.931 . S
H33 C20 0.929 . S
H34 C28 0.929 . S
H35 C29 0.930 . S
Mn36 O41 2.095 . S
Mn36 O51 2.162 . S
Mn36 O52 2.297 . S
Mn36 O60 2.385 . S
Mn36 O61 2.209 . S
Mn36 O62 2.094 . S
Mn37 O42 2.121 . S
Mn37 N44 2.257 . S
Mn37 N53 2.282 . S
Mn37 O61 2.215 . S
Mn37 O63 2.117 . S
C38 O60 1.234 . S
C38 O61 1.283 . S
C39 O51 1.281 . S
C39 O52 1.236 . S
C40 O62 1.240 . S
C40 O63 1.264 . S
O41 Mn36 2.095 . S
O41 C50 1.250 . S
O42 Mn37 2.121 . S
O42 C50 1.258 . S
C43 N44 1.326 . S
C43 C47 1.460 . S
C43 H49 0.929 . S
N44 Mn37 2.257 . S
N44 C43 1.326 . S
N44 C48 1.362 . S
C45 C46 1.258 . S
C45 C48 1.431 . S
C45 C65 1.449 . S
C46 C45 1.258 . S
C46 C47 1.477 . S
C46 H66 0.931 . S
C47 C43 1.460 . S
C47 C46 1.477 . S
C47 H67 0.930 . S
C48 N44 1.362 . S
C48 C45 1.431 . S
C48 C58 1.476 . S
H49 C43 0.929 . S
C50 O41 1.250 . S
C50 O42 1.258 . S
O51 Mn36 2.162 . S
O51 C39 1.281 . S
O52 Mn36 2.297 . S
O52 C39 1.236 . S
N53 Mn37 2.282 . S
N53 C54 1.328 . S
N53 C58 1.318 . S
C54 N53 1.328 . S
C54 C55 1.457 . S
C54 H59 0.929 . S
C55 C54 1.457 . S
C55 C56 1.291 . S
C55 H68 0.931 . S
C56 C55 1.291 . S
C56 C57 1.373 . S
C56 H69 0.929 . S
C57 C56 1.373 . S
C57 C58 1.396 . S
C57 C64 1.403 . S
C58 C48 1.476 . S
C58 N53 1.318 . S
C58 C57 1.396 . S
H59 C54 0.929 . S
O60 Mn36 2.385 . S
O60 C38 1.234 . S
O61 Mn36 2.209 . S
O61 Mn37 2.215 . S
O61 C38 1.283 . S
O62 Mn36 2.094 . S
O62 C40 1.240 . S
O63 Mn37 2.117 . S
O63 C40 1.264 . S
C64 C57 1.403 . S
C64 C65 1.399 . S
C64 H70 0.929 . S
C65 C45 1.449 . S
C65 C64 1.399 . S
C65 H71 0.930 . S
H66 C46 0.931 . S
H67 C47 0.930 . S
H68 C55 0.931 . S
H69 C56 0.929 . S
H70 C64 0.929 . S
H71 C65 0.930 . S
Mn72 O77 2.095 . S
Mn72 O87 2.162 . S
Mn72 O88 2.297 . S
Mn72 O96 2.385 . S
Mn72 O97 2.209 . S
Mn72 O98 2.094 . S
Mn73 O78 2.121 . S
Mn73 N80 2.257 . S
Mn73 N89 2.282 . S
Mn73 O97 2.215 . S
Mn73 O99 2.117 . S
C74 O96 1.234 . S
C74 O97 1.283 . S
C75 O87 1.281 . S
C75 O88 1.236 . S
C76 O98 1.240 . S
C76 O99 1.264 . S
O77 Mn72 2.095 . S
O77 C86 1.250 . S
O78 Mn73 2.121 . S
O78 C86 1.258 . S
C79 N80 1.326 . S
C79 C83 1.460 . S
C79 H85 0.929 . S
N80 Mn73 2.257 . S
N80 C79 1.326 . S
N80 C84 1.362 . S
C81 C82 1.258 . S
C81 C84 1.431 . S
C81 C101 1.449 . S
C82 C81 1.258 . S
C82 C83 1.477 . S
C82 H102 0.931 . S
C83 C79 1.460 . S
C83 C82 1.477 . S
C83 H103 0.930 . S
C84 N80 1.362 . S
C84 C81 1.431 . S
C84 C94 1.476 . S
H85 C79 0.929 . S
C86 O77 1.250 . S
C86 O78 1.258 . S
O87 Mn72 2.162 . S
O87 C75 1.281 . S
O88 Mn72 2.297 . S
O88 C75 1.236 . S
N89 Mn73 2.282 . S
N89 C90 1.328 . S
N89 C94 1.318 . S
C90 N89 1.328 . S
C90 C91 1.457 . S
C90 H95 0.929 . S
C91 C90 1.457 . S
C91 C92 1.291 . S
C91 H104 0.931 . S
C92 C91 1.291 . S
C92 C93 1.373 . S
C92 H105 0.929 . S
C93 C92 1.373 . S
C93 C94 1.396 . S
C93 C100 1.403 . S
C94 C84 1.476 . S
C94 N89 1.318 . S
C94 C93 1.396 . S
H95 C90 0.929 . S
O96 Mn72 2.385 . S
O96 C74 1.234 . S
O97 Mn72 2.209 . S
O97 Mn73 2.215 . S
O97 C74 1.283 . S
O98 Mn72 2.094 . S
O98 C76 1.240 . S
O99 Mn73 2.117 . S
O99 C76 1.264 . S
C100 C93 1.403 . S
C100 C101 1.399 . S
C100 H106 0.929 . S
C101 C81 1.449 . S
C101 C100 1.399 . S
C101 H107 0.930 . S
H102 C82 0.931 . S
H103 C83 0.930 . S
H104 C91 0.931 . S
H105 C92 0.929 . S
H106 C100 0.929 . S
H107 C101 0.930 . S
Mn108 O113 2.095 . S
Mn108 O123 2.162 . S
Mn108 O124 2.297 . S
Mn108 O132 2.385 . S
Mn108 O133 2.209 . S
Mn108 O134 2.094 . S
Mn109 O114 2.121 . S
Mn109 N116 2.257 . S
Mn109 N125 2.282 . S
Mn109 O133 2.215 . S
Mn109 O135 2.117 . S
C110 O132 1.234 . S
C110 O133 1.283 . S
C111 O123 1.281 . S
C111 O124 1.236 . S
C112 O134 1.240 . S
C112 O135 1.264 . S
O113 Mn108 2.095 . S
O113 C122 1.250 . S
O114 Mn109 2.121 . S
O114 C122 1.258 . S
C115 N116 1.326 . S
C115 C119 1.460 . S
C115 H121 0.929 . S
N116 Mn109 2.257 . S
N116 C115 1.326 . S
N116 C120 1.362 . S
C117 C118 1.258 . S
C117 C120 1.431 . S
C117 C137 1.449 . S
C118 C117 1.258 . S
C118 C119 1.477 . S
C118 H138 0.931 . S
C119 C115 1.460 . S
C119 C118 1.477 . S
C119 H139 0.930 . S
C120 N116 1.362 . S
C120 C117 1.431 . S
C120 C130 1.476 . S
H121 C115 0.929 . S
C122 O113 1.250 . S
C122 O114 1.258 . S
O123 Mn108 2.162 . S
O123 C111 1.281 . S
O124 Mn108 2.297 . S
O124 C111 1.236 . S
N125 Mn109 2.282 . S
N125 C126 1.328 . S
N125 C130 1.318 . S
C126 N125 1.328 . S
C126 C127 1.457 . S
C126 H131 0.929 . S
C127 C126 1.457 . S
C127 C128 1.291 . S
C127 H140 0.931 . S
C128 C127 1.291 . S
C128 C129 1.373 . S
C128 H141 0.929 . S
C129 C128 1.373 . S
C129 C130 1.396 . S
C129 C136 1.403 . S
C130 C120 1.476 . S
C130 N125 1.318 . S
C130 C129 1.396 . S
H131 C126 0.929 . S
O132 Mn108 2.385 . S
O132 C110 1.234 . S
O133 Mn108 2.209 . S
O133 Mn109 2.215 . S
O133 C110 1.283 . S
O134 Mn108 2.094 . S
O134 C112 1.240 . S
O135 Mn109 2.117 . S
O135 C112 1.264 . S
C136 C129 1.403 . S
C136 C137 1.399 . S
C136 H142 0.929 . S
C137 C117 1.449 . S
C137 C136 1.399 . S
C137 H143 0.930 . S
H138 C118 0.931 . S
H139 C119 0.930 . S
H140 C127 0.931 . S
H141 C128 0.929 . S
H142 C136 0.929 . S
H143 C137 0.930 . S
Mn144 O149 2.095 1_455 S
Mn144 O159 2.162 . S
Mn144 O160 2.297 1_455 S
Mn144 O168 2.385 . S
Mn144 O169 2.209 1_455 S
Mn144 O170 2.094 . S
Mn145 O150 2.121 . S
Mn145 N152 2.257 . S
Mn145 N161 2.282 . S
Mn145 O169 2.215 . S
Mn145 O171 2.117 1_655 S
C146 O168 1.234 1_655 S
C146 O169 1.283 . S
C147 O159 1.303 . S
C147 O160 1.216 1_455 S
C148 O170 1.240 . S
C148 O171 1.264 . S
O149 Mn144 2.095 1_655 S
O149 C158 1.250 . S
O150 Mn145 2.121 . S
O150 C158 1.258 . S
C151 N152 1.326 . S
C151 C155 1.460 . S
C151 H157 0.929 . S
N152 Mn145 2.257 . S
N152 C151 1.326 . S
N152 C156 1.362 . S
C153 C154 1.258 . S
C153 C156 1.431 . S
C153 C173 1.449 . S
C154 C153 1.258 . S
C154 C155 1.477 . S
C154 H174 0.931 . S
C155 C151 1.460 . S
C155 C154 1.477 . S
C155 H175 0.930 . S
C156 N152 1.362 . S
C156 C153 1.431 . S
C156 C166 1.476 . S
H157 C151 0.929 . S
C158 O149 1.250 . S
C158 O150 1.258 . S
O159 Mn144 2.162 . S
O159 C147 1.303 . S
O160 Mn144 2.297 1_655 S
O160 C147 1.216 1_655 S
N161 Mn145 2.282 . S
N161 C162 1.328 1_655 S
N161 C166 1.318 . S
C162 N161 1.328 1_455 S
C162 C163 1.457 . S
C162 H167 0.929 . S
C163 C162 1.457 . S
C163 C164 1.291 1_455 S
C163 H176 0.931 . S
C164 C163 1.291 1_655 S
C164 C165 1.373 . S
C164 H177 0.929 . S
C165 C164 1.373 . S
C165 C166 1.396 . S
C165 C172 1.403 . S
C166 C156 1.476 . S
C166 N161 1.318 . S
C166 C165 1.396 . S
H167 C162 0.929 . S
O168 Mn144 2.385 . S
O168 C146 1.234 1_455 S
O169 Mn144 2.209 1_655 S
O169 Mn145 2.215 . S
O169 C146 1.283 . S
O170 Mn144 2.094 . S
O170 C148 1.240 . S
O171 Mn145 2.117 1_455 S
O171 C148 1.264 . S
C172 C165 1.403 . S
C172 C173 1.399 . S
C172 H178 0.929 . S
C173 C153 1.449 . S
C173 C172 1.399 . S
C173 H179 0.930 . S
H174 C154 0.931 . S
H175 C155 0.930 . S
H176 C163 0.931 . S
H177 C164 0.929 . S
H178 C172 0.929 . S
H179 C173 0.930 . S
Mn180 O185 2.095 . S
Mn180 O195 2.162 . S
Mn180 O196 2.297 . S
Mn180 O204 2.385 . S
Mn180 O205 2.209 . S
Mn180 O206 2.094 . S
Mn181 O186 2.121 . S
Mn181 N188 2.257 . S
Mn181 N197 2.282 . S
Mn181 O205 2.215 . S
Mn181 O207 2.117 . S
C182 O204 1.234 . S
C182 O205 1.283 . S
C183 O195 1.281 . S
C183 O196 1.236 . S
C184 O206 1.240 . S
C184 O207 1.264 . S
O185 Mn180 2.095 . S
O185 C194 1.250 . S
O186 Mn181 2.121 . S
O186 C194 1.258 . S
C187 N188 1.326 . S
C187 C191 1.460 . S
C187 H193 0.929 . S
N188 Mn181 2.257 . S
N188 C187 1.326 . S
N188 C192 1.362 . S
C189 C190 1.258 . S
C189 C192 1.431 . S
C189 C209 1.449 . S
C190 C189 1.258 . S
C190 C191 1.477 . S
C190 H210 0.931 . S
C191 C187 1.460 . S
C191 C190 1.477 . S
C191 H211 0.930 . S
C192 N188 1.362 . S
C192 C189 1.431 . S
C192 C202 1.476 . S
H193 C187 0.929 . S
C194 O185 1.250 . S
C194 O186 1.258 . S
O195 Mn180 2.162 . S
O195 C183 1.281 . S
O196 Mn180 2.297 . S
O196 C183 1.236 . S
N197 Mn181 2.282 . S
N197 C198 1.328 . S
N197 C202 1.318 . S
C198 N197 1.328 . S
C198 C199 1.457 . S
C198 H203 0.929 . S
C199 C198 1.457 . S
C199 C200 1.291 . S
C199 H212 0.931 . S
C200 C199 1.291 . S
C200 C201 1.373 . S
C200 H213 0.929 . S
C201 C200 1.373 . S
C201 C202 1.396 . S
C201 C208 1.403 . S
C202 C192 1.476 . S
C202 N197 1.318 . S
C202 C201 1.396 . S
H203 C198 0.929 . S
O204 Mn180 2.385 . S
O204 C182 1.234 . S
O205 Mn180 2.209 . S
O205 Mn181 2.215 . S
O205 C182 1.283 . S
O206 Mn180 2.094 . S
O206 C184 1.240 . S
O207 Mn181 2.117 . S
O207 C184 1.264 . S
C208 C201 1.403 . S
C208 C209 1.399 . S
C208 H214 0.929 . S
C209 C189 1.449 . S
C209 C208 1.399 . S
C209 H215 0.930 . S
H210 C190 0.931 . S
H211 C191 0.930 . S
H212 C199 0.931 . S
H213 C200 0.929 . S
H214 C208 0.929 . S
H215 C209 0.930 . S
Mn216 O221 2.095 . S
Mn216 O231 2.162 . S
Mn216 O232 2.297 . S
Mn216 O240 2.385 1_556 S
Mn216 O241 2.209 . S
Mn216 O242 2.094 . S
Mn217 O222 2.121 . S
Mn217 N224 2.257 . S
Mn217 N233 2.282 1_556 S
Mn217 O241 2.215 . S
Mn217 O243 2.117 . S
C218 O240 1.234 . S
C218 O241 1.283 1_554 S
C219 O231 1.281 . S
C219 O232 1.236 . S
C220 O242 1.240 . S
C220 O243 1.264 . S
O221 Mn216 2.095 . S
O221 C230 1.250 . S
O222 Mn217 2.121 . S
O222 C230 1.258 . S
C223 N224 1.326 . S
C223 C227 1.460 . S
C223 H229 0.929 . S
N224 Mn217 2.257 . S
N224 C223 1.326 . S
N224 C228 1.362 1_556 S
C225 C226 1.258 1_554 S
C225 C228 1.431 . S
C225 C245 1.449 . S
C226 C225 1.258 1_556 S
C226 C227 1.477 . S
C226 H246 0.931 1_556 S
C227 C223 1.460 . S
C227 C226 1.477 . S
C227 H247 0.930 . S
C228 N224 1.362 1_554 S
C228 C225 1.431 . S
C228 C238 1.476 . S
H229 C223 0.929 . S
C230 O221 1.250 . S
C230 O222 1.258 . S
O231 Mn216 2.162 . S
O231 C219 1.281 . S
O232 Mn216 2.297 . S
O232 C219 1.236 . S
N233 Mn217 2.282 1_554 S
N233 C234 1.328 . S
N233 C238 1.318 . S
C234 N233 1.328 . S
C234 C235 1.457 . S
C234 H239 0.929 . S
C235 C234 1.457 . S
C235 C236 1.291 . S
C235 H248 0.931 . S
C236 C235 1.291 . S
C236 C237 1.373 . S
C236 H249 0.929 . S
C237 C236 1.373 . S
C237 C238 1.396 . S
C237 C244 1.403 . S
C238 C228 1.476 . S
C238 N233 1.318 . S
C238 C237 1.396 . S
H239 C234 0.929 . S
O240 Mn216 2.385 1_554 S
O240 C218 1.234 . S
O241 Mn216 2.209 . S
O241 Mn217 2.215 . S
O241 C218 1.283 1_556 S
O242 Mn216 2.094 . S
O242 C220 1.240 . S
O243 Mn217 2.117 . S
O243 C220 1.264 . S
C244 C237 1.403 . S
C244 C245 1.399 . S
C244 H250 0.929 . S
C245 C225 1.449 . S
C245 C244 1.399 . S
C245 H251 0.930 . S
H246 C226 0.931 1_554 S
H247 C227 0.930 . S
H248 C235 0.931 . S
H249 C236 0.929 . S
H250 C244 0.929 . S
H251 C245 0.930 . S
Mn252 O257 2.095 . S
Mn252 O267 2.162 . S
Mn252 O268 2.297 . S
Mn252 O276 2.385 . S
Mn252 O277 2.209 . S
Mn252 O278 2.094 . S
Mn253 O258 2.121 . S
Mn253 N260 2.257 . S
Mn253 N269 2.282 . S
Mn253 O277 2.215 . S
Mn253 O279 2.117 . S
C254 O276 1.234 . S
C254 O277 1.283 . S
C255 O267 1.281 . S
C255 O268 1.236 . S
C256 O278 1.240 . S
C256 O279 1.264 . S
O257 Mn252 2.095 . S
O257 C266 1.250 . S
O258 Mn253 2.121 . S
O258 C266 1.258 . S
C259 N260 1.326 . S
C259 C263 1.460 . S
C259 H265 0.929 . S
N260 Mn253 2.257 . S
N260 C259 1.326 . S
N260 C264 1.362 . S
C261 C262 1.258 . S
C261 C264 1.431 . S
C261 C281 1.449 . S
C262 C261 1.258 . S
C262 C263 1.477 . S
C262 H282 0.931 . S
C263 C259 1.460 . S
C263 C262 1.477 . S
C263 H283 0.930 . S
C264 N260 1.362 . S
C264 C261 1.431 . S
C264 C274 1.476 . S
H265 C259 0.929 . S
C266 O257 1.250 . S
C266 O258 1.258 . S
O267 Mn252 2.162 . S
O267 C255 1.281 . S
O268 Mn252 2.297 . S
O268 C255 1.236 . S
N269 Mn253 2.282 . S
N269 C270 1.328 . S
N269 C274 1.318 . S
C270 N269 1.328 . S
C270 C271 1.457 . S
C270 H275 0.929 . S
C271 C270 1.457 . S
C271 C272 1.291 . S
C271 H284 0.931 . S
C272 C271 1.291 . S
C272 C273 1.373 . S
C272 H285 0.929 . S
C273 C272 1.373 . S
C273 C274 1.396 . S
C273 C280 1.403 . S
C274 C264 1.476 . S
C274 N269 1.318 . S
C274 C273 1.396 . S
H275 C270 0.929 . S
O276 Mn252 2.385 . S
O276 C254 1.234 . S
O277 Mn252 2.209 . S
O277 Mn253 2.215 . S
O277 C254 1.283 . S
O278 Mn252 2.094 . S
O278 C256 1.240 . S
O279 Mn253 2.117 . S
O279 C256 1.264 . S
C280 C273 1.403 . S
C280 C281 1.399 . S
C280 H286 0.929 . S
C281 C261 1.449 . S
C281 C280 1.399 . S
C281 H287 0.930 . S
H282 C262 0.931 . S
H283 C263 0.930 . S
H284 C271 0.931 . S
H285 C272 0.929 . S
H286 C280 0.929 . S
H287 C281 0.930 . S
Mn288 O293 2.095 . S
Mn288 O303 2.162 . S
Mn288 O304 2.297 . S
Mn288 O312 2.385 1_556 S
Mn288 O313 2.209 . S
Mn288 O314 2.094 . S
Mn289 O294 2.121 . S
Mn289 N296 2.257 1_655 S
Mn289 N305 2.282 1_556 S
Mn289 O313 2.215 . S
Mn289 O315 2.117 . S
C290 O312 1.234 . S
C290 O313 1.283 1_554 S
C291 O303 1.281 . S
C291 O304 1.236 . S
C292 O314 1.240 . S
C292 O315 1.264 . S
O293 Mn288 2.095 . S
O293 C302 1.250 . S
O294 Mn289 2.121 . S
O294 C302 1.258 . S
C295 N296 1.326 . S
C295 C299 1.460 . S
C295 H301 0.929 . S
N296 Mn289 2.257 1_455 S
N296 C295 1.326 . S
N296 C300 1.362 1_556 S
C297 C298 1.258 1_554 S
C297 C300 1.431 . S
C297 C317 1.449 . S
C298 C297 1.258 1_556 S
C298 C299 1.477 . S
C298 H318 0.931 1_556 S
C299 C295 1.460 . S
C299 C298 1.477 . S
C299 H319 0.930 . S
C300 N296 1.362 1_554 S
C300 C297 1.431 . S
C300 C310 1.476 . S
H301 C295 0.929 . S
C302 O293 1.250 . S
C302 O294 1.258 . S
O303 Mn288 2.162 . S
O303 C291 1.281 . S
O304 Mn288 2.297 . S
O304 C291 1.236 . S
N305 Mn289 2.282 1_554 S
N305 C306 1.328 . S
N305 C310 1.318 1_655 S
C306 N305 1.328 . S
C306 C307 1.457 . S
C306 H311 0.929 . S
C307 C306 1.457 . S
C307 C308 1.291 . S
C307 H320 0.931 . S
C308 C307 1.291 . S
C308 C309 1.373 1_655 S
C308 H321 0.929 . S
C309 C308 1.373 1_455 S
C309 C310 1.396 . S
C309 C316 1.403 . S
C310 C300 1.476 . S
C310 N305 1.318 1_455 S
C310 C309 1.396 . S
H311 C306 0.929 . S
O312 Mn288 2.385 1_554 S
O312 C290 1.234 . S
O313 Mn288 2.209 . S
O313 Mn289 2.215 . S
O313 C290 1.283 1_556 S
O314 Mn288 2.094 . S
O314 C292 1.240 . S
O315 Mn289 2.117 . S
O315 C292 1.264 . S
C316 C309 1.403 . S
C316 C317 1.399 . S
C316 H322 0.929 . S
C317 C297 1.449 . S
C317 C316 1.399 . S
C317 H323 0.930 . S
H318 C298 0.931 1_554 S
H319 C299 0.930 . S
H320 C307 0.931 . S
H321 C308 0.929 . S
H322 C316 0.929 . S
H323 C317 0.930 . S
Mn324 O329 2.095 . S
Mn324 O339 2.162 . S
Mn324 O340 2.297 . S
Mn324 O348 2.385 . S
Mn324 O349 2.209 . S
Mn324 O350 2.094 . S
Mn325 O330 2.121 . S
Mn325 N332 2.257 . S
Mn325 N341 2.282 . S
Mn325 O349 2.215 . S
Mn325 O351 2.117 . S
C326 O348 1.234 . S
C326 O349 1.283 . S
C327 O339 1.281 . S
C327 O340 1.236 . S
C328 O350 1.240 . S
C328 O351 1.264 . S
O329 Mn324 2.095 . S
O329 C338 1.250 . S
O330 Mn325 2.121 . S
O330 C338 1.258 . S
C331 N332 1.326 . S
C331 C335 1.460 . S
C331 H337 0.929 . S
N332 Mn325 2.257 . S
N332 C331 1.326 . S
N332 C336 1.362 . S
C333 C334 1.258 . S
C333 C336 1.431 . S
C333 C353 1.449 . S
C334 C333 1.258 . S
C334 C335 1.477 . S
C334 H354 0.931 . S
C335 C331 1.460 . S
C335 C334 1.477 . S
C335 H355 0.930 . S
C336 N332 1.362 . S
C336 C333 1.431 . S
C336 C346 1.476 . S
H337 C331 0.929 . S
C338 O329 1.250 . S
C338 O330 1.258 . S
O339 Mn324 2.162 . S
O339 C327 1.281 . S
O340 Mn324 2.297 . S
O340 C327 1.236 . S
N341 Mn325 2.282 . S
N341 C342 1.328 . S
N341 C346 1.318 . S
C342 N341 1.328 . S
C342 C343 1.457 . S
C342 H347 0.929 . S
C343 C342 1.457 . S
C343 C344 1.291 . S
C343 H356 0.931 . S
C344 C343 1.291 . S
C344 C345 1.373 . S
C344 H357 0.929 . S
C345 C344 1.373 . S
C345 C346 1.396 . S
C345 C352 1.403 . S
C346 C336 1.476 . S
C346 N341 1.318 . S
C346 C345 1.396 . S
H347 C342 0.929 . S
O348 Mn324 2.385 . S
O348 C326 1.234 . S
O349 Mn324 2.209 . S
O349 Mn325 2.215 . S
O349 C326 1.283 . S
O350 Mn324 2.094 . S
O350 C328 1.240 . S
O351 Mn325 2.117 . S
O351 C328 1.264 . S
C352 C345 1.403 . S
C352 C353 1.399 . S
C352 H358 0.929 . S
C353 C333 1.449 . S
C353 C352 1.399 . S
C353 H359 0.930 . S
H354 C334 0.931 . S
H355 C335 0.930 . S
H356 C343 0.931 . S
H357 C344 0.929 . S
H358 C352 0.929 . S
H359 C353 0.930 . S
Mn360 O365 2.095 . S
Mn360 O375 2.162 . S
Mn360 O376 2.297 . S
Mn360 O384 2.385 . S
Mn360 O385 2.209 . S
Mn360 O386 2.094 . S
Mn361 O366 2.121 . S
Mn361 N368 2.257 . S
Mn361 N377 2.282 . S
Mn361 O385 2.215 . S
Mn361 O387 2.117 . S
C362 O384 1.234 . S
C362 O385 1.283 . S
C363 O375 1.281 . S
C363 O376 1.236 . S
C364 O386 1.240 . S
C364 O387 1.264 . S
O365 Mn360 2.095 . S
O365 C374 1.250 . S
O366 Mn361 2.121 . S
O366 C374 1.258 . S
C367 N368 1.326 . S
C367 C371 1.460 . S
C367 H373 0.929 . S
N368 Mn361 2.257 . S
N368 C367 1.326 . S
N368 C372 1.362 . S
C369 C370 1.258 . S
C369 C372 1.431 . S
C369 C389 1.449 . S
C370 C369 1.258 . S
C370 C371 1.477 . S
C370 H390 0.931 . S
C371 C367 1.460 . S
C371 C370 1.477 . S
C371 H391 0.930 . S
C372 N368 1.362 . S
C372 C369 1.431 . S
C372 C382 1.476 . S
H373 C367 0.929 . S
C374 O365 1.250 . S
C374 O366 1.258 . S
O375 Mn360 2.162 . S
O375 C363 1.281 . S
O376 Mn360 2.297 . S
O376 C363 1.236 . S
N377 Mn361 2.282 . S
N377 C378 1.328 . S
N377 C382 1.318 . S
C378 N377 1.328 . S
C378 C379 1.457 . S
C378 H383 0.929 . S
C379 C378 1.457 . S
C379 C380 1.291 . S
C379 H392 0.931 . S
C380 C379 1.291 . S
C380 C381 1.373 . S
C380 H393 0.929 . S
C381 C380 1.373 . S
C381 C382 1.396 . S
C381 C388 1.403 . S
C382 C372 1.476 . S
C382 N377 1.318 . S
C382 C381 1.396 . S
H383 C378 0.929 . S
O384 Mn360 2.385 . S
O384 C362 1.234 . S
O385 Mn360 2.209 . S
O385 Mn361 2.215 . S
O385 C362 1.283 . S
O386 Mn360 2.094 . S
O386 C364 1.240 . S
O387 Mn361 2.117 . S
O387 C364 1.264 . S
C388 C381 1.403 . S
C388 C389 1.399 . S
C388 H394 0.929 . S
C389 C369 1.449 . S
C389 C388 1.399 . S
C389 H395 0.930 . S
H390 C370 0.931 . S
H391 C371 0.930 . S
H392 C379 0.931 . S
H393 C380 0.929 . S
H394 C388 0.929 . S
H395 C389 0.930 . S
Mn396 O401 2.095 . S
Mn396 O411 2.162 . S
Mn396 O412 2.297 . S
Mn396 O420 2.385 . S
Mn396 O421 2.209 . S
Mn396 O422 2.094 . S
Mn397 O402 2.121 . S
Mn397 N404 2.257 . S
Mn397 N413 2.282 . S
Mn397 O421 2.215 . S
Mn397 O423 2.117 . S
C398 O420 1.234 . S
C398 O421 1.283 . S
C399 O411 1.281 . S
C399 O412 1.236 . S
C400 O422 1.240 . S
C400 O423 1.264 . S
O401 Mn396 2.095 . S
O401 C410 1.250 . S
O402 Mn397 2.121 . S
O402 C410 1.258 . S
C403 N404 1.326 . S
C403 C407 1.460 . S
C403 H409 0.929 . S
N404 Mn397 2.257 . S
N404 C403 1.326 . S
N404 C408 1.362 . S
C405 C406 1.258 . S
C405 C408 1.431 . S
C405 C425 1.449 . S
C406 C405 1.258 . S
C406 C407 1.477 . S
C406 H426 0.931 . S
C407 C403 1.460 . S
C407 C406 1.477 . S
C407 H427 0.930 . S
C408 N404 1.362 . S
C408 C405 1.431 . S
C408 C418 1.476 . S
H409 C403 0.929 . S
C410 O401 1.250 . S
C410 O402 1.258 . S
O411 Mn396 2.162 . S
O411 C399 1.281 . S
O412 Mn396 2.297 . S
O412 C399 1.236 . S
N413 Mn397 2.282 . S
N413 C414 1.328 . S
N413 C418 1.318 . S
C414 N413 1.328 . S
C414 C415 1.461 . S
C414 H419 0.929 . S
C415 C414 1.461 . S
C415 C416 1.293 . S
C415 H428 0.925 1_554 S
C416 C415 1.293 . S
C416 C417 1.373 . S
C416 H429 0.929 1_554 S
C417 C416 1.373 . S
C417 C418 1.396 . S
C417 C424 1.403 . S
C418 C408 1.476 . S
C418 N413 1.318 . S
C418 C417 1.396 . S
H419 C414 0.929 . S
O420 Mn396 2.385 . S
O420 C398 1.234 . S
O421 Mn396 2.209 . S
O421 Mn397 2.215 . S
O421 C398 1.283 . S
O422 Mn396 2.094 . S
O422 C400 1.240 . S
O423 Mn397 2.117 . S
O423 C400 1.264 . S
C424 C417 1.403 . S
C424 C425 1.399 . S
C424 H430 0.929 . S
C425 C405 1.449 . S
C425 C424 1.399 . S
C425 H431 0.930 . S
H426 C406 0.931 . S
H427 C407 0.930 . S
H428 C415 0.925 1_556 S
H429 C416 0.929 1_556 S
H430 C424 0.929 . S
H431 C425 0.930 . S
Mn432 O437 2.095 . S
Mn432 O447 2.162 . S
Mn432 O448 2.297 . S
Mn432 O456 2.385 . S
Mn432 O457 2.209 . S
Mn432 O458 2.094 . S
Mn433 O438 2.121 . S
Mn433 N440 2.257 1_655 S
Mn433 N449 2.282 . S
Mn433 O457 2.215 . S
Mn433 O459 2.117 . S
C434 O456 1.234 . S
C434 O457 1.283 . S
C435 O447 1.281 . S
C435 O448 1.236 . S
C436 O458 1.240 . S
C436 O459 1.264 . S
O437 Mn432 2.095 . S
O437 C446 1.250 . S
O438 Mn433 2.121 . S
O438 C446 1.258 . S
C439 N440 1.326 . S
C439 C443 1.460 . S
C439 H445 0.929 . S
N440 Mn433 2.257 1_455 S
N440 C439 1.326 . S
N440 C444 1.362 . S
C441 C442 1.258 . S
C441 C444 1.431 . S
C441 C461 1.449 . S
C442 C441 1.258 . S
C442 C443 1.477 . S
C442 H462 0.931 . S
C443 C439 1.460 . S
C443 C442 1.477 . S
C443 H463 0.930 . S
C444 N440 1.362 . S
C444 C441 1.431 . S
C444 C454 1.476 . S
H445 C439 0.929 . S
C446 O437 1.250 . S
C446 O438 1.258 . S
O447 Mn432 2.162 . S
O447 C435 1.281 . S
O448 Mn432 2.297 . S
O448 C435 1.236 . S
N449 Mn433 2.282 . S
N449 C450 1.328 . S
N449 C454 1.318 1_655 S
C450 N449 1.328 . S
C450 C451 1.457 . S
C450 H455 0.929 . S
C451 C450 1.457 . S
C451 C452 1.291 . S
C451 H464 0.931 . S
C452 C451 1.291 . S
C452 C453 1.373 1_655 S
C452 H465 0.929 . S
C453 C452 1.373 1_455 S
C453 C454 1.396 . S
C453 C460 1.403 . S
C454 C444 1.476 . S
C454 N449 1.318 1_455 S
C454 C453 1.396 . S
H455 C450 0.929 . S
O456 Mn432 2.385 . S
O456 C434 1.234 . S
O457 Mn432 2.209 . S
O457 Mn433 2.215 . S
O457 C434 1.283 . S
O458 Mn432 2.094 . S
O458 C436 1.240 . S
O459 Mn433 2.117 . S
O459 C436 1.264 . S
C460 C453 1.403 . S
C460 C461 1.399 . S
C460 H466 0.929 . S
C461 C441 1.449 . S
C461 C460 1.399 . S
C461 H467 0.930 . S
H462 C442 0.931 . S
H463 C443 0.930 . S
H464 C451 0.931 . S
H465 C452 0.929 . S
H466 C460 0.929 . S
H467 C461 0.930 . S
Mn468 O473 2.095 . S
Mn468 O483 2.162 . S
Mn468 O484 2.297 . S
Mn468 O492 2.385 . S
Mn468 O493 2.209 . S
Mn468 O494 2.094 . S
Mn469 O474 2.121 . S
Mn469 N476 2.257 . S
Mn469 N485 2.282 . S
Mn469 O493 2.215 . S
Mn469 O495 2.117 . S
C470 O492 1.234 . S
C470 O493 1.283 . S
C471 O483 1.281 . S
C471 O484 1.236 . S
C472 O494 1.240 . S
C472 O495 1.264 . S
O473 Mn468 2.095 . S
O473 C482 1.250 . S
O474 Mn469 2.121 . S
O474 C482 1.258 . S
C475 N476 1.326 . S
C475 C479 1.460 . S
C475 H481 0.929 . S
N476 Mn469 2.257 . S
N476 C475 1.326 . S
N476 C480 1.362 . S
C477 C478 1.258 . S
C477 C480 1.431 . S
C477 C497 1.449 . S
C478 C477 1.258 . S
C478 C479 1.477 . S
C478 H498 0.931 . S
C479 C475 1.460 . S
C479 C478 1.477 . S
C479 H499 0.930 . S
C480 N476 1.362 . S
C480 C477 1.431 . S
C480 C490 1.476 . S
H481 C475 0.929 . S
C482 O473 1.250 . S
C482 O474 1.258 . S
O483 Mn468 2.162 . S
O483 C471 1.281 . S
O484 Mn468 2.297 . S
O484 C471 1.236 . S
N485 Mn469 2.282 . S
N485 C486 1.328 . S
N485 C490 1.318 . S
C486 N485 1.328 . S
C486 C487 1.457 . S
C486 H491 0.929 . S
C487 C486 1.457 . S
C487 C488 1.291 . S
C487 H500 0.931 . S
C488 C487 1.291 . S
C488 C489 1.373 . S
C488 H501 0.929 . S
C489 C488 1.373 . S
C489 C490 1.396 . S
C489 C496 1.403 . S
C490 C480 1.476 . S
C490 N485 1.318 . S
C490 C489 1.396 . S
H491 C486 0.929 . S
O492 Mn468 2.385 . S
O492 C470 1.234 . S
O493 Mn468 2.209 . S
O493 Mn469 2.215 . S
O493 C470 1.283 . S
O494 Mn468 2.094 . S
O494 C472 1.240 . S
O495 Mn469 2.117 . S
O495 C472 1.264 . S
C496 C489 1.403 . S
C496 C497 1.399 . S
C496 H502 0.929 . S
C497 C477 1.449 . S
C497 C496 1.399 . S
C497 H503 0.930 . S
H498 C478 0.931 . S
H499 C479 0.930 . S
H500 C487 0.931 . S
H501 C488 0.929 . S
H502 C496 0.929 . S
H503 C497 0.930 . S
Mn504 O509 2.095 . S
Mn504 O519 2.162 . S
Mn504 O520 2.297 . S
Mn504 O528 2.385 1_554 S
Mn504 O529 2.209 . S
Mn504 O530 2.094 . S
Mn505 O510 2.121 . S
Mn505 N512 2.257 . S
Mn505 N521 2.282 1_554 S
Mn505 O529 2.215 . S
Mn505 O531 2.117 . S
C506 O528 1.234 . S
C506 O529 1.283 1_556 S
C507 O519 1.281 . S
C507 O520 1.236 . S
C508 O530 1.240 . S
C508 O531 1.264 . S
O509 Mn504 2.095 . S
O509 C518 1.250 . S
O510 Mn505 2.121 . S
O510 C518 1.258 . S
C511 N512 1.326 . S
C511 C515 1.460 . S
C511 H517 0.929 . S
N512 Mn505 2.257 . S
N512 C511 1.326 . S
N512 C516 1.362 1_554 S
C513 C514 1.258 1_556 S
C513 C516 1.431 . S
C513 C533 1.449 . S
C514 C513 1.258 1_554 S
C514 C515 1.477 . S
C514 H534 0.931 1_554 S
C515 C511 1.460 . S
C515 C514 1.477 . S
C515 H535 0.930 . S
C516 N512 1.362 1_556 S
C516 C513 1.431 . S
C516 C526 1.476 . S
H517 C511 0.929 . S
C518 O509 1.250 . S
C518 O510 1.258 . S
O519 Mn504 2.162 . S
O519 C507 1.281 . S
O520 Mn504 2.297 . S
O520 C507 1.236 . S
N521 Mn505 2.282 1_556 S
N521 C522 1.328 . S
N521 C526 1.318 . S
C522 N521 1.328 . S
C522 C523 1.457 . S
C522 H527 0.929 . S
C523 C522 1.457 . S
C523 C524 1.291 . S
C523 H536 0.931 . S
C524 C523 1.291 . S
C524 C525 1.373 . S
C524 H537 0.929 . S
C525 C524 1.373 . S
C525 C526 1.396 . S
C525 C532 1.403 . S
C526 C516 1.476 . S
C526 N521 1.318 . S
C526 C525 1.396 . S
H527 C522 0.929 . S
O528 Mn504 2.385 1_556 S
O528 C506 1.234 . S
O529 Mn504 2.209 . S
O529 Mn505 2.215 . S
O529 C506 1.283 1_554 S
O530 Mn504 2.094 . S
O530 C508 1.240 . S
O531 Mn505 2.117 . S
O531 C508 1.264 . S
C532 C525 1.403 . S
C532 C533 1.399 . S
C532 H538 0.929 . S
C533 C513 1.449 . S
C533 C532 1.399 . S
C533 H539 0.930 . S
H534 C514 0.931 1_556 S
H535 C515 0.930 . S
H536 C523 0.931 . S
H537 C524 0.929 . S
H538 C532 0.929 . S
H539 C533 0.930 . S
Mn540 O545 2.095 . S
Mn540 O555 2.162 . S
Mn540 O556 2.297 . S
Mn540 O564 2.385 . S
Mn540 O565 2.209 . S
Mn540 O566 2.094 . S
Mn541 O546 2.121 . S
Mn541 N548 2.257 . S
Mn541 N557 2.282 . S
Mn541 O565 2.215 . S
Mn541 O567 2.117 . S
C542 O564 1.234 . S
C542 O565 1.283 . S
C543 O555 1.281 . S
C543 O556 1.236 . S
C544 O566 1.240 . S
C544 O567 1.264 . S
O545 Mn540 2.095 . S
O545 C554 1.250 . S
O546 Mn541 2.121 . S
O546 C554 1.258 . S
C547 N548 1.326 . S
C547 C551 1.460 . S
C547 H553 0.929 . S
N548 Mn541 2.257 . S
N548 C547 1.326 . S
N548 C552 1.362 . S
C549 C550 1.258 . S
C549 C552 1.431 . S
C549 C569 1.449 . S
C550 C549 1.258 . S
C550 C551 1.477 . S
C550 H570 0.931 . S
C551 C547 1.460 . S
C551 C550 1.477 . S
C551 H571 0.930 . S
C552 N548 1.362 . S
C552 C549 1.431 . S
C552 C562 1.476 . S
H553 C547 0.929 . S
C554 O545 1.250 . S
C554 O546 1.258 . S
O555 Mn540 2.162 . S
O555 C543 1.281 . S
O556 Mn540 2.297 . S
O556 C543 1.236 . S
N557 Mn541 2.282 . S
N557 C558 1.328 . S
N557 C562 1.318 . S
C558 N557 1.328 . S
C558 C559 1.460 . S
C558 H563 0.929 . S
C559 C558 1.460 . S
C559 C560 1.292 . S
C559 H572 0.926 1_556 S
C560 C559 1.292 . S
C560 C561 1.373 . S
C560 H573 0.929 1_556 S
C561 C560 1.373 . S
C561 C562 1.396 . S
C561 C568 1.403 . S
C562 C552 1.476 . S
C562 N557 1.318 . S
C562 C561 1.396 . S
H563 C558 0.929 . S
O564 Mn540 2.385 . S
O564 C542 1.234 . S
O565 Mn540 2.209 . S
O565 Mn541 2.215 . S
O565 C542 1.283 . S
O566 Mn540 2.094 . S
O566 C544 1.240 . S
O567 Mn541 2.117 . S
O567 C544 1.264 . S
C568 C561 1.403 . S
C568 C569 1.399 . S
C568 H574 0.929 . S
C569 C549 1.449 . S
C569 C568 1.399 . S
C569 H575 0.930 . S
H570 C550 0.931 . S
H571 C551 0.930 . S
H572 C559 0.926 1_554 S
H573 C560 0.929 1_554 S
H574 C568 0.929 . S
H575 C569 0.930 . S
Mn576 O581 2.095 . S
Mn576 O591 2.162 . S
Mn576 O592 2.297 . S
Mn576 O600 2.385 . S
Mn576 O601 2.209 . S
Mn576 O602 2.094 . S
Mn577 O582 2.121 . S
Mn577 N584 2.257 . S
Mn577 N593 2.282 . S
Mn577 O601 2.215 . S
Mn577 O603 2.117 . S
C578 O600 1.234 . S
C578 O601 1.283 . S
C579 O591 1.281 . S
C579 O592 1.236 . S
C580 O602 1.240 . S
C580 O603 1.264 . S
O581 Mn576 2.095 . S
O581 C590 1.250 . S
O582 Mn577 2.121 . S
O582 C590 1.258 . S
C583 N584 1.326 . S
C583 C587 1.460 . S
C583 H589 0.929 . S
N584 Mn577 2.257 . S
N584 C583 1.326 . S
N584 C588 1.362 . S
C585 C586 1.258 . S
C585 C588 1.431 . S
C585 C605 1.449 . S
C586 C585 1.258 . S
C586 C587 1.477 . S
C586 H606 0.931 . S
C587 C583 1.460 . S
C587 C586 1.477 . S
C587 H607 0.930 . S
C588 N584 1.362 . S
C588 C585 1.431 . S
C588 C598 1.476 . S
H589 C583 0.929 . S
C590 O581 1.250 . S
C590 O582 1.258 . S
O591 Mn576 2.162 . S
O591 C579 1.281 . S
O592 Mn576 2.297 . S
O592 C579 1.236 . S
N593 Mn577 2.282 . S
N593 C594 1.328 . S
N593 C598 1.318 . S
C594 N593 1.328 . S
C594 C595 1.457 . S
C594 H599 0.929 . S
C595 C594 1.457 . S
C595 C596 1.291 . S
C595 H608 0.931 . S
C596 C595 1.291 . S
C596 C597 1.373 . S
C596 H609 0.929 . S
C597 C596 1.373 . S
C597 C598 1.396 . S
C597 C604 1.403 . S
C598 C588 1.476 . S
C598 N593 1.318 . S
C598 C597 1.396 . S
H599 C594 0.929 . S
O600 Mn576 2.385 . S
O600 C578 1.234 . S
O601 Mn576 2.209 . S
O601 Mn577 2.215 . S
O601 C578 1.283 . S
O602 Mn576 2.094 . S
O602 C580 1.240 . S
O603 Mn577 2.117 . S
O603 C580 1.264 . S
C604 C597 1.403 . S
C604 C605 1.399 . S
C604 H610 0.929 . S
C605 C585 1.449 . S
C605 C604 1.399 . S
C605 H611 0.930 . S
H606 C586 0.931 . S
H607 C587 0.930 . S
H608 C595 0.931 . S
H609 C596 0.929 . S
H610 C604 0.929 . S
H611 C605 0.930 . S
Mn612 O617 2.095 . S
Mn612 O627 2.162 . S
Mn612 O628 2.297 . S
Mn612 O636 2.385 . S
Mn612 O637 2.209 . S
Mn612 O638 2.094 . S
Mn613 O618 2.121 . S
Mn613 N620 2.257 . S
Mn613 N629 2.282 . S
Mn613 O637 2.215 . S
Mn613 O639 2.117 . S
C614 O636 1.234 . S
C614 O637 1.283 . S
C615 O627 1.281 . S
C615 O628 1.236 . S
C616 O638 1.240 . S
C616 O639 1.264 . S
O617 Mn612 2.095 . S
O617 C626 1.250 . S
O618 Mn613 2.121 . S
O618 C626 1.258 . S
C619 N620 1.326 . S
C619 C623 1.460 . S
C619 H625 0.929 . S
N620 Mn613 2.257 . S
N620 C619 1.326 . S
N620 C624 1.362 . S
C621 C622 1.258 . S
C621 C624 1.431 . S
C621 C641 1.449 . S
C622 C621 1.258 . S
C622 C623 1.477 . S
C622 H642 0.931 . S
C623 C619 1.460 . S
C623 C622 1.477 . S
C623 H643 0.930 . S
C624 N620 1.362 . S
C624 C621 1.431 . S
C624 C634 1.476 . S
H625 C619 0.929 . S
C626 O617 1.250 . S
C626 O618 1.258 . S
O627 Mn612 2.162 . S
O627 C615 1.281 . S
O628 Mn612 2.297 . S
O628 C615 1.236 . S
N629 Mn613 2.282 . S
N629 C630 1.328 . S
N629 C634 1.318 . S
C630 N629 1.328 . S
C630 C631 1.457 . S
C630 H635 0.929 . S
C631 C630 1.457 . S
C631 C632 1.291 . S
C631 H644 0.931 . S
C632 C631 1.291 . S
C632 C633 1.373 . S
C632 H645 0.929 . S
C633 C632 1.373 . S
C633 C634 1.396 . S
C633 C640 1.403 . S
C634 C624 1.476 . S
C634 N629 1.318 . S
C634 C633 1.396 . S
H635 C630 0.929 . S
O636 Mn612 2.385 . S
O636 C614 1.234 . S
O637 Mn612 2.209 . S
O637 Mn613 2.215 . S
O637 C614 1.283 . S
O638 Mn612 2.094 . S
O638 C616 1.240 . S
O639 Mn613 2.117 . S
O639 C616 1.264 . S
C640 C633 1.403 . S
C640 C641 1.399 . S
C640 H646 0.929 . S
C641 C621 1.449 . S
C641 C640 1.399 . S
C641 H647 0.930 . S
H642 C622 0.931 . S
H643 C623 0.930 . S
H644 C631 0.931 . S
H645 C632 0.929 . S
H646 C640 0.929 . S
H647 C641 0.930 . S
Mn648 O653 2.095 1_655 S
Mn648 O663 2.162 . S
Mn648 O664 2.297 1_655 S
Mn648 O672 2.385 1_554 S
Mn648 O673 2.209 1_655 S
Mn648 O674 2.094 . S
Mn649 O654 2.121 . S
Mn649 N656 2.257 . S
Mn649 N665 2.282 1_554 S
Mn649 O673 2.215 . S
Mn649 O675 2.117 1_455 S
C650 O672 1.234 1_455 S
C650 O673 1.283 1_556 S
C651 O663 1.307 . S
C651 O664 1.212 1_655 S
C652 O674 1.240 . S
C652 O675 1.264 . S
O653 Mn648 2.095 1_455 S
O653 C662 1.250 . S
O654 Mn649 2.121 . S
O654 C662 1.258 . S
C655 N656 1.326 . S
C655 C659 1.460 . S
C655 H661 0.929 . S
N656 Mn649 2.257 . S
N656 C655 1.326 . S
N656 C660 1.362 1_554 S
C657 C658 1.258 1_556 S
C657 C660 1.431 . S
C657 C677 1.449 . S
C658 C657 1.258 1_554 S
C658 C659 1.477 . S
C658 H678 0.931 1_554 S
C659 C655 1.460 . S
C659 C658 1.477 . S
C659 H679 0.930 . S
C660 N656 1.362 1_556 S
C660 C657 1.431 . S
C660 C670 1.476 . S
H661 C655 0.929 . S
C662 O653 1.250 . S
C662 O654 1.258 . S
O663 Mn648 2.162 . S
O663 C651 1.307 . S
O664 Mn648 2.297 1_455 S
O664 C651 1.212 1_455 S
N665 Mn649 2.282 1_556 S
N665 C666 1.328 1_455 S
N665 C670 1.318 . S
C666 N665 1.328 1_655 S
C666 C667 1.457 . S
C666 H671 0.929 . S
C667 C666 1.457 . S
C667 C668 1.291 1_655 S
C667 H680 0.931 . S
C668 C667 1.291 1_455 S
C668 C669 1.373 . S
C668 H681 0.929 . S
C669 C668 1.373 . S
C669 C670 1.396 . S
C669 C676 1.403 . S
C670 C660 1.476 . S
C670 N665 1.318 . S
C670 C669 1.396 . S
H671 C666 0.929 . S
O672 Mn648 2.385 1_556 S
O672 C650 1.234 1_655 S
O673 Mn648 2.209 1_455 S
O673 Mn649 2.215 . S
O673 C650 1.283 1_554 S
O674 Mn648 2.094 . S
O674 C652 1.240 . S
O675 Mn649 2.117 1_655 S
O675 C652 1.264 . S
C676 C669 1.403 . S
C676 C677 1.399 . S
C676 H682 0.929 . S
C677 C657 1.449 . S
C677 C676 1.399 . S
C677 H683 0.930 . S
H678 C658 0.931 1_556 S
H679 C659 0.930 . S
H680 C667 0.931 . S
H681 C668 0.929 . S
H682 C676 0.929 . S
H683 C677 0.930 . S
Mn684 O689 2.095 . S
Mn684 O699 2.162 . S
Mn684 O700 2.297 . S
Mn684 O708 2.385 . S
Mn684 O709 2.209 . S
Mn684 O710 2.094 . S
Mn685 O690 2.121 . S
Mn685 N692 2.257 . S
Mn685 N701 2.282 . S
Mn685 O709 2.215 . S
Mn685 O711 2.117 . S
C686 O708 1.234 . S
C686 O709 1.283 . S
C687 O699 1.281 . S
C687 O700 1.236 . S
C688 O710 1.240 . S
C688 O711 1.264 . S
O689 Mn684 2.095 . S
O689 C698 1.250 . S
O690 Mn685 2.121 . S
O690 C698 1.258 . S
C691 N692 1.326 . S
C691 C695 1.460 . S
C691 H697 0.929 . S
N692 Mn685 2.257 . S
N692 C691 1.326 . S
N692 C696 1.362 . S
C693 C694 1.258 . S
C693 C696 1.431 . S
C693 C713 1.449 . S
C694 C693 1.258 . S
C694 C695 1.477 . S
C694 H714 0.931 . S
C695 C691 1.460 . S
C695 C694 1.477 . S
C695 H715 0.930 . S
C696 N692 1.362 . S
C696 C693 1.431 . S
C696 C706 1.476 . S
H697 C691 0.929 . S
C698 O689 1.250 . S
C698 O690 1.258 . S
O699 Mn684 2.162 . S
O699 C687 1.281 . S
O700 Mn684 2.297 . S
O700 C687 1.236 . S
N701 Mn685 2.282 . S
N701 C702 1.328 . S
N701 C706 1.318 . S
C702 N701 1.328 . S
C702 C703 1.457 . S
C702 H707 0.929 . S
C703 C702 1.457 . S
C703 C704 1.291 . S
C703 H716 0.931 . S
C704 C703 1.291 . S
C704 C705 1.373 . S
C704 H717 0.929 . S
C705 C704 1.373 . S
C705 C706 1.396 . S
C705 C712 1.403 . S
C706 C696 1.476 . S
C706 N701 1.318 . S
C706 C705 1.396 . S
H707 C702 0.929 . S
O708 Mn684 2.385 . S
O708 C686 1.234 . S
O709 Mn684 2.209 . S
O709 Mn685 2.215 . S
O709 C686 1.283 . S
O710 Mn684 2.094 . S
O710 C688 1.240 . S
O711 Mn685 2.117 . S
O711 C688 1.264 . S
C712 C705 1.403 . S
C712 C713 1.399 . S
C712 H718 0.929 . S
C713 C693 1.449 . S
C713 C712 1.399 . S
C713 H719 0.930 . S
H714 C694 0.931 . S
H715 C695 0.930 . S
H716 C703 0.931 . S
H717 C704 0.929 . S
H718 C712 0.929 . S
H719 C713 0.930 . S
Mn720 O725 2.095 . S
Mn720 O735 2.162 . S
Mn720 O736 2.297 . S
Mn720 O744 2.385 1_556 S
Mn720 O745 2.209 . S
Mn720 O746 2.094 . S
Mn721 O726 2.121 . S
Mn721 N728 2.257 . S
Mn721 N737 2.282 1_556 S
Mn721 O745 2.215 . S
Mn721 O747 2.117 . S
C722 O744 1.234 . S
C722 O745 1.283 1_554 S
C723 O735 1.281 . S
C723 O736 1.236 . S
C724 O746 1.240 . S
C724 O747 1.264 . S
O725 Mn720 2.095 . S
O725 C734 1.250 . S
O726 Mn721 2.121 . S
O726 C734 1.258 . S
C727 N728 1.326 . S
C727 C731 1.460 . S
C727 H733 0.929 . S
N728 Mn721 2.257 . S
N728 C727 1.326 . S
N728 C732 1.362 1_556 S
C729 C730 1.258 1_554 S
C729 C732 1.431 . S
C729 C749 1.449 . S
C730 C729 1.258 1_556 S
C730 C731 1.477 . S
C730 H750 0.931 1_556 S
C731 C727 1.460 . S
C731 C730 1.477 . S
C731 H751 0.930 . S
C732 N728 1.362 1_554 S
C732 C729 1.431 . S
C732 C742 1.476 . S
H733 C727 0.929 . S
C734 O725 1.250 . S
C734 O726 1.258 . S
O735 Mn720 2.162 . S
O735 C723 1.281 . S
O736 Mn720 2.297 . S
O736 C723 1.236 . S
N737 Mn721 2.282 1_554 S
N737 C738 1.328 . S
N737 C742 1.318 . S
C738 N737 1.328 . S
C738 C739 1.457 . S
C738 H743 0.929 . S
C739 C738 1.457 . S
C739 C740 1.291 . S
C739 H752 0.931 . S
C740 C739 1.291 . S
C740 C741 1.373 . S
C740 H753 0.929 . S
C741 C740 1.373 . S
C741 C742 1.396 . S
C741 C748 1.403 . S
C742 C732 1.476 . S
C742 N737 1.318 . S
C742 C741 1.396 . S
H743 C738 0.929 . S
O744 Mn720 2.385 1_554 S
O744 C722 1.234 . S
O745 Mn720 2.209 . S
O745 Mn721 2.215 . S
O745 C722 1.283 1_556 S
O746 Mn720 2.094 . S
O746 C724 1.240 . S
O747 Mn721 2.117 . S
O747 C724 1.264 . S
C748 C741 1.403 . S
C748 C749 1.399 . S
C748 H754 0.929 . S
C749 C729 1.449 . S
C749 C748 1.399 . S
C749 H755 0.930 . S
H750 C730 0.931 1_554 S
H751 C731 0.930 . S
H752 C739 0.931 . S
H753 C740 0.929 . S
H754 C748 0.929 . S
H755 C749 0.930 . S
Mn756 O761 2.095 . S
Mn756 O771 2.162 . S
Mn756 O772 2.297 . S
Mn756 O780 2.385 . S
Mn756 O781 2.209 . S
Mn756 O782 2.094 . S
Mn757 O762 2.121 . S
Mn757 N764 2.257 . S
Mn757 N773 2.282 . S
Mn757 O781 2.215 . S
Mn757 O783 2.117 . S
C758 O780 1.234 . S
C758 O781 1.283 . S
C759 O771 1.281 . S
C759 O772 1.236 . S
C760 O782 1.240 . S
C760 O783 1.264 . S
O761 Mn756 2.095 . S
O761 C770 1.250 . S
O762 Mn757 2.121 . S
O762 C770 1.258 . S
C763 N764 1.326 . S
C763 C767 1.460 . S
C763 H769 0.929 . S
N764 Mn757 2.257 . S
N764 C763 1.326 . S
N764 C768 1.362 . S
C765 C766 1.258 . S
C765 C768 1.431 . S
C765 C785 1.449 . S
C766 C765 1.258 . S
C766 C767 1.477 . S
C766 H786 0.931 . S
C767 C763 1.460 . S
C767 C766 1.477 . S
C767 H787 0.930 . S
C768 N764 1.362 . S
C768 C765 1.431 . S
C768 C778 1.476 . S
H769 C763 0.929 . S
C770 O761 1.250 . S
C770 O762 1.258 . S
O771 Mn756 2.162 . S
O771 C759 1.281 . S
O772 Mn756 2.297 . S
O772 C759 1.236 . S
N773 Mn757 2.282 . S
N773 C774 1.328 . S
N773 C778 1.318 . S
C774 N773 1.328 . S
C774 C775 1.457 . S
C774 H779 0.929 . S
C775 C774 1.457 . S
C775 C776 1.291 . S
C775 H788 0.931 . S
C776 C775 1.291 . S
C776 C777 1.373 . S
C776 H789 0.929 . S
C777 C776 1.373 . S
C777 C778 1.396 . S
C777 C784 1.403 . S
C778 C768 1.476 . S
C778 N773 1.318 . S
C778 C777 1.396 . S
H779 C774 0.929 . S
O780 Mn756 2.385 . S
O780 C758 1.234 . S
O781 Mn756 2.209 . S
O781 Mn757 2.215 . S
O781 C758 1.283 . S
O782 Mn756 2.094 . S
O782 C760 1.240 . S
O783 Mn757 2.117 . S
O783 C760 1.264 . S
C784 C777 1.403 . S
C784 C785 1.399 . S
C784 H790 0.929 . S
C785 C765 1.449 . S
C785 C784 1.399 . S
C785 H791 0.930 . S
H786 C766 0.931 . S
H787 C767 0.930 . S
H788 C775 0.931 . S
H789 C776 0.929 . S
H790 C784 0.929 . S
H791 C785 0.930 . S
Mn792 O797 2.095 1_655 S
Mn792 O807 2.162 . S
Mn792 O808 2.297 1_655 S
Mn792 O816 2.385 . S
Mn792 O817 2.209 1_655 S
Mn792 O818 2.094 . S
Mn793 O798 2.121 . S
Mn793 N800 2.257 . S
Mn793 N809 2.282 . S
Mn793 O817 2.215 . S
Mn793 O819 2.117 1_455 S
C794 O816 1.234 1_455 S
C794 O817 1.283 . S
C795 O807 1.308 . S
C795 O808 1.212 1_655 S
C796 O818 1.240 . S
C796 O819 1.264 . S
O797 Mn792 2.095 1_455 S
O797 C806 1.250 . S
O798 Mn793 2.121 . S
O798 C806 1.258 . S
C799 N800 1.326 . S
C799 C803 1.460 . S
C799 H805 0.929 . S
N800 Mn793 2.257 . S
N800 C799 1.326 . S
N800 C804 1.362 . S
C801 C802 1.258 . S
C801 C804 1.431 . S
C801 C821 1.449 . S
C802 C801 1.258 . S
C802 C803 1.477 . S
C802 H822 0.931 . S
C803 C799 1.460 . S
C803 C802 1.477 . S
C803 H823 0.930 . S
C804 N800 1.362 . S
C804 C801 1.431 . S
C804 C814 1.476 . S
H805 C799 0.929 . S
C806 O797 1.250 . S
C806 O798 1.258 . S
O807 Mn792 2.162 . S
O807 C795 1.308 . S
O808 Mn792 2.297 1_455 S
O808 C795 1.212 1_455 S
N809 Mn793 2.282 . S
N809 C810 1.328 1_455 S
N809 C814 1.318 . S
C810 N809 1.328 1_655 S
C810 C811 1.457 . S
C810 H815 0.929 . S
C811 C810 1.457 . S
C811 C812 1.291 1_655 S
C811 H824 0.931 . S
C812 C811 1.291 1_455 S
C812 C813 1.373 . S
C812 H825 0.929 . S
C813 C812 1.373 . S
C813 C814 1.396 . S
C813 C820 1.403 . S
C814 C804 1.476 . S
C814 N809 1.318 . S
C814 C813 1.396 . S
H815 C810 0.929 . S
O816 Mn792 2.385 . S
O816 C794 1.234 1_655 S
O817 Mn792 2.209 1_455 S
O817 Mn793 2.215 . S
O817 C794 1.283 . S
O818 Mn792 2.094 . S
O818 C796 1.240 . S
O819 Mn793 2.117 1_655 S
O819 C796 1.264 . S
C820 C813 1.403 . S
C820 C821 1.399 . S
C820 H826 0.929 . S
C821 C801 1.449 . S
C821 C820 1.399 . S
C821 H827 0.930 . S
H822 C802 0.931 . S
H823 C803 0.930 . S
H824 C811 0.931 . S
H825 C812 0.929 . S
H826 C820 0.929 . S
H827 C821 0.930 . S
Mn828 O833 2.095 . S
Mn828 O843 2.162 . S
Mn828 O844 2.297 . S
Mn828 O852 2.385 . S
Mn828 O853 2.209 . S
Mn828 O854 2.094 . S
Mn829 O834 2.121 . S
Mn829 N836 2.257 . S
Mn829 N845 2.282 . S
Mn829 O853 2.215 . S
Mn829 O855 2.117 . S
C830 O852 1.234 . S
C830 O853 1.283 . S
C831 O843 1.281 . S
C831 O844 1.236 . S
C832 O854 1.240 . S
C832 O855 1.264 . S
O833 Mn828 2.095 . S
O833 C842 1.250 . S
O834 Mn829 2.121 . S
O834 C842 1.258 . S
C835 N836 1.326 . S
C835 C839 1.460 . S
C835 H841 0.929 . S
N836 Mn829 2.257 . S
N836 C835 1.326 . S
N836 C840 1.362 . S
C837 C838 1.258 . S
C837 C840 1.431 . S
C837 C857 1.449 . S
C838 C837 1.258 . S
C838 C839 1.477 . S
C838 H858 0.931 . S
C839 C835 1.460 . S
C839 C838 1.477 . S
C839 H859 0.930 . S
C840 N836 1.362 . S
C840 C837 1.431 . S
C840 C850 1.476 . S
H841 C835 0.929 . S
C842 O833 1.250 . S
C842 O834 1.258 . S
O843 Mn828 2.162 . S
O843 C831 1.281 . S
O844 Mn828 2.297 . S
O844 C831 1.236 . S
N845 Mn829 2.282 . S
N845 C846 1.328 . S
N845 C850 1.318 . S
C846 N845 1.328 . S
C846 C847 1.457 . S
C846 H851 0.929 . S
C847 C846 1.457 . S
C847 C848 1.291 . S
C847 H860 0.931 . S
C848 C847 1.291 . S
C848 C849 1.373 . S
C848 H861 0.929 . S
C849 C848 1.373 . S
C849 C850 1.396 . S
C849 C856 1.403 . S
C850 C840 1.476 . S
C850 N845 1.318 . S
C850 C849 1.396 . S
H851 C846 0.929 . S
O852 Mn828 2.385 . S
O852 C830 1.234 . S
O853 Mn828 2.209 . S
O853 Mn829 2.215 . S
O853 C830 1.283 . S
O854 Mn828 2.094 . S
O854 C832 1.240 . S
O855 Mn829 2.117 . S
O855 C832 1.264 . S
C856 C849 1.403 . S
C856 C857 1.399 . S
C856 H862 0.929 . S
C857 C837 1.449 . S
C857 C856 1.399 . S
C857 H863 0.930 . S
H858 C838 0.931 . S
H859 C839 0.930 . S
H860 C847 0.931 . S
H861 C848 0.929 . S
H862 C856 0.929 . S
H863 C857 0.930 . S
Mn864 O869 2.095 . S
Mn864 O879 2.162 . S
Mn864 O880 2.297 . S
Mn864 O888 2.385 . S
Mn864 O889 2.209 . S
Mn864 O890 2.094 . S
Mn865 O870 2.121 . S
Mn865 N872 2.257 . S
Mn865 N881 2.282 . S
Mn865 O889 2.215 . S
Mn865 O891 2.117 . S
C866 O888 1.234 . S
C866 O889 1.283 . S
C867 O879 1.281 . S
C867 O880 1.236 . S
C868 O890 1.240 . S
C868 O891 1.264 . S
O869 Mn864 2.095 . S
O869 C878 1.250 . S
O870 Mn865 2.121 . S
O870 C878 1.258 . S
C871 N872 1.326 . S
C871 C875 1.460 . S
C871 H877 0.929 . S
N872 Mn865 2.257 . S
N872 C871 1.326 . S
N872 C876 1.362 . S
C873 C874 1.258 . S
C873 C876 1.431 . S
C873 C893 1.449 . S
C874 C873 1.258 . S
C874 C875 1.477 . S
C874 H894 0.931 . S
C875 C871 1.460 . S
C875 C874 1.477 . S
C875 H895 0.930 . S
C876 N872 1.362 . S
C876 C873 1.431 . S
C876 C886 1.476 . S
H877 C871 0.929 . S
C878 O869 1.250 . S
C878 O870 1.258 . S
O879 Mn864 2.162 . S
O879 C867 1.281 . S
O880 Mn864 2.297 . S
O880 C867 1.236 . S
N881 Mn865 2.282 . S
N881 C882 1.328 . S
N881 C886 1.318 . S
C882 N881 1.328 . S
C882 C883 1.457 . S
C882 H887 0.929 . S
C883 C882 1.457 . S
C883 C884 1.291 . S
C883 H896 0.931 . S
C884 C883 1.291 . S
C884 C885 1.373 . S
C884 H897 0.929 . S
C885 C884 1.373 . S
C885 C886 1.396 . S
C885 C892 1.403 . S
C886 C876 1.476 . S
C886 N881 1.318 . S
C886 C885 1.396 . S
H887 C882 0.929 . S
O888 Mn864 2.385 . S
O888 C866 1.234 . S
O889 Mn864 2.209 . S
O889 Mn865 2.215 . S
O889 C866 1.283 . S
O890 Mn864 2.094 . S
O890 C868 1.240 . S
O891 Mn865 2.117 . S
O891 C868 1.264 . S
C892 C885 1.403 . S
C892 C893 1.399 . S
C892 H898 0.929 . S
C893 C873 1.449 . S
C893 C892 1.399 . S
C893 H899 0.930 . S
H894 C874 0.931 . S
H895 C875 0.930 . S
H896 C883 0.931 . S
H897 C884 0.929 . S
H898 C892 0.929 . S
H899 C893 0.930 . S
Mn900 O905 2.095 . S
Mn900 O915 2.162 . S
Mn900 O916 2.297 . S
Mn900 O924 2.385 . S
Mn900 O925 2.209 . S
Mn900 O926 2.094 . S
Mn901 O906 2.121 . S
Mn901 N908 2.257 . S
Mn901 N917 2.282 . S
Mn901 O925 2.215 . S
Mn901 O927 2.117 . S
C902 O924 1.234 . S
C902 O925 1.283 . S
C903 O915 1.281 . S
C903 O916 1.236 . S
C904 O926 1.240 . S
C904 O927 1.264 . S
O905 Mn900 2.095 . S
O905 C914 1.250 . S
O906 Mn901 2.121 . S
O906 C914 1.258 . S
C907 N908 1.326 . S
C907 C911 1.460 . S
C907 H913 0.929 . S
N908 Mn901 2.257 . S
N908 C907 1.326 . S
N908 C912 1.362 . S
C909 C910 1.258 . S
C909 C912 1.431 . S
C909 C929 1.449 . S
C910 C909 1.258 . S
C910 C911 1.477 . S
C910 H930 0.931 . S
C911 C907 1.460 . S
C911 C910 1.477 . S
C911 H931 0.930 . S
C912 N908 1.362 . S
C912 C909 1.431 . S
C912 C922 1.476 . S
H913 C907 0.929 . S
C914 O905 1.250 . S
C914 O906 1.258 . S
O915 Mn900 2.162 . S
O915 C903 1.281 . S
O916 Mn900 2.297 . S
O916 C903 1.236 . S
N917 Mn901 2.282 . S
N917 C918 1.328 . S
N917 C922 1.318 . S
C918 N917 1.328 . S
C918 C919 1.461 . S
C918 H923 0.929 . S
C919 C918 1.461 . S
C919 C920 1.293 . S
C919 H932 0.925 1_554 S
C920 C919 1.293 . S
C920 C921 1.373 . S
C920 H933 0.929 1_554 S
C921 C920 1.373 . S
C921 C922 1.396 . S
C921 C928 1.403 . S
C922 C912 1.476 . S
C922 N917 1.318 . S
C922 C921 1.396 . S
H923 C918 0.929 . S
O924 Mn900 2.385 . S
O924 C902 1.234 . S
O925 Mn900 2.209 . S
O925 Mn901 2.215 . S
O925 C902 1.283 . S
O926 Mn900 2.094 . S
O926 C904 1.240 . S
O927 Mn901 2.117 . S
O927 C904 1.264 . S
C928 C921 1.403 . S
C928 C929 1.399 . S
C928 H934 0.929 . S
C929 C909 1.449 . S
C929 C928 1.399 . S
C929 H935 0.930 . S
H930 C910 0.931 . S
H931 C911 0.930 . S
H932 C919 0.925 1_556 S
H933 C920 0.929 1_556 S
H934 C928 0.929 . S
H935 C929 0.930 . S
Mn936 O941 2.095 . S
Mn936 O951 2.162 . S
Mn936 O952 2.297 . S
Mn936 O960 2.385 1_556 S
Mn936 O961 2.209 . S
Mn936 O962 2.094 . S
Mn937 O942 2.121 . S
Mn937 N944 2.257 1_455 S
Mn937 N953 2.282 1_556 S
Mn937 O961 2.215 . S
Mn937 O963 2.117 . S
C938 O960 1.234 . S
C938 O961 1.283 1_554 S
C939 O951 1.281 . S
C939 O952 1.236 . S
C940 O962 1.240 . S
C940 O963 1.264 . S
O941 Mn936 2.095 . S
O941 C950 1.250 . S
O942 Mn937 2.121 . S
O942 C950 1.258 . S
C943 N944 1.326 . S
C943 C947 1.460 . S
C943 H949 0.929 . S
N944 Mn937 2.257 1_655 S
N944 C943 1.326 . S
N944 C948 1.362 1_556 S
C945 C946 1.258 1_554 S
C945 C948 1.431 . S
C945 C965 1.449 . S
C946 C945 1.258 1_556 S
C946 C947 1.477 . S
C946 H966 0.931 1_556 S
C947 C943 1.460 . S
C947 C946 1.477 . S
C947 H967 0.930 . S
C948 N944 1.362 1_554 S
C948 C945 1.431 . S
C948 C958 1.476 . S
H949 C943 0.929 . S
C950 O941 1.250 . S
C950 O942 1.258 . S
O951 Mn936 2.162 . S
O951 C939 1.281 . S
O952 Mn936 2.297 . S
O952 C939 1.236 . S
N953 Mn937 2.282 1_554 S
N953 C954 1.328 . S
N953 C958 1.318 1_455 S
C954 N953 1.328 . S
C954 C955 1.457 . S
C954 H959 0.929 . S
C955 C954 1.457 . S
C955 C956 1.291 . S
C955 H968 0.931 . S
C956 C955 1.291 . S
C956 C957 1.373 1_455 S
C956 H969 0.929 . S
C957 C956 1.373 1_655 S
C957 C958 1.396 . S
C957 C964 1.403 . S
C958 C948 1.476 . S
C958 N953 1.318 1_655 S
C958 C957 1.396 . S
H959 C954 0.929 . S
O960 Mn936 2.385 1_554 S
O960 C938 1.234 . S
O961 Mn936 2.209 . S
O961 Mn937 2.215 . S
O961 C938 1.283 1_556 S
O962 Mn936 2.094 . S
O962 C940 1.240 . S
O963 Mn937 2.117 . S
O963 C940 1.264 . S
C964 C957 1.403 . S
C964 C965 1.399 . S
C964 H970 0.929 . S
C965 C945 1.449 . S
C965 C964 1.399 . S
C965 H971 0.930 . S
H966 C946 0.931 1_554 S
H967 C947 0.930 . S
H968 C955 0.931 . S
H969 C956 0.929 . S
H970 C964 0.929 . S
H971 C965 0.930 . S
Mn972 O977 2.095 . S
Mn972 O987 2.162 . S
Mn972 O988 2.297 . S
Mn972 O996 2.385 . S
Mn972 O997 2.209 . S
Mn972 O998 2.094 . S
Mn973 O978 2.121 . S
Mn973 N980 2.257 . S
Mn973 N989 2.282 . S
Mn973 O997 2.215 . S
Mn973 O999 2.117 . S
C974 O996 1.234 . S
C974 O997 1.283 . S
C975 O987 1.281 . S
C975 O988 1.236 . S
C976 O998 1.240 . S
C976 O999 1.264 . S
O977 Mn972 2.095 . S
O977 C986 1.250 . S
O978 Mn973 2.121 . S
O978 C986 1.258 . S
C979 N980 1.326 . S
C979 C983 1.460 . S
C979 H985 0.929 . S
N980 Mn973 2.257 . S
N980 C979 1.326 . S
N980 C984 1.362 . S
C981 C982 1.258 . S
C981 C984 1.431 . S
C981 C1001 1.449 . S
C982 C981 1.258 . S
C982 C983 1.477 . S
C982 H1002 0.931 . S
C983 C979 1.460 . S
C983 C982 1.477 . S
C983 H1003 0.930 . S
C984 N980 1.362 . S
C984 C981 1.431 . S
C984 C994 1.476 . S
H985 C979 0.929 . S
C986 O977 1.250 . S
C986 O978 1.258 . S
O987 Mn972 2.162 . S
O987 C975 1.281 . S
O988 Mn972 2.297 . S
O988 C975 1.236 . S
N989 Mn973 2.282 . S
N989 C990 1.328 . S
N989 C994 1.318 . S
C990 N989 1.328 . S
C990 C991 1.457 . S
C990 H995 0.929 . S
C991 C990 1.457 . S
C991 C992 1.291 . S
C991 H1004 0.931 . S
C992 C991 1.291 . S
C992 C993 1.373 . S
C992 H1005 0.929 . S
C993 C992 1.373 . S
C993 C994 1.396 . S
C993 C1000 1.403 . S
C994 C984 1.476 . S
C994 N989 1.318 . S
C994 C993 1.396 . S
H995 C990 0.929 . S
O996 Mn972 2.385 . S
O996 C974 1.234 . S
O997 Mn972 2.209 . S
O997 Mn973 2.215 . S
O997 C974 1.283 . S
O998 Mn972 2.094 . S
O998 C976 1.240 . S
O999 Mn973 2.117 . S
O999 C976 1.264 . S
C1000 C993 1.403 . S
C1000 C1001 1.399 . S
C1000 H1006 0.929 . S
C1001 C981 1.449 . S
C1001 C1000 1.399 . S
C1001 H1007 0.930 . S
H1002 C982 0.931 . S
H1003 C983 0.930 . S
H1004 C991 0.931 . S
H1005 C992 0.929 . S
H1006 C1000 0.929 . S
H1007 C1001 0.930 . S
Mn1008 O1013 2.095 . S
Mn1008 O1023 2.162 . S
Mn1008 O1024 2.297 . S
Mn1008 O1032 2.385 1_554 S
Mn1008 O1033 2.209 . S
Mn1008 O1034 2.094 . S
Mn1009 O1014 2.121 . S
Mn1009 N1016 2.257 . S
Mn1009 N1025 2.282 1_554 S
Mn1009 O1033 2.215 . S
Mn1009 O1035 2.117 . S
C1010 O1032 1.234 . S
C1010 O1033 1.283 1_556 S
C1011 O1023 1.281 . S
C1011 O1024 1.236 . S
C1012 O1034 1.240 . S
C1012 O1035 1.264 . S
O1013 Mn1008 2.095 . S
O1013 C1022 1.250 . S
O1014 Mn1009 2.121 . S
O1014 C1022 1.258 . S
C1015 N1016 1.326 . S
C1015 C1019 1.460 . S
C1015 H1021 0.929 . S
N1016 Mn1009 2.257 . S
N1016 C1015 1.326 . S
N1016 C1020 1.362 1_554 S
C1017 C1018 1.258 1_556 S
C1017 C1020 1.431 . S
C1017 C1037 1.449 . S
C1018 C1017 1.258 1_554 S
C1018 C1019 1.477 . S
C1018 H1038 0.931 1_554 S
C1019 C1015 1.460 . S
C1019 C1018 1.477 . S
C1019 H1039 0.930 . S
C1020 N1016 1.362 1_556 S
C1020 C1017 1.431 . S
C1020 C1030 1.476 . S
H1021 C1015 0.929 . S
C1022 O1013 1.250 . S
C1022 O1014 1.258 . S
O1023 Mn1008 2.162 . S
O1023 C1011 1.281 . S
O1024 Mn1008 2.297 . S
O1024 C1011 1.236 . S
N1025 Mn1009 2.282 1_556 S
N1025 C1026 1.328 . S
N1025 C1030 1.318 . S
C1026 N1025 1.328 . S
C1026 C1027 1.457 . S
C1026 H1031 0.929 . S
C1027 C1026 1.457 . S
C1027 C1028 1.291 . S
C1027 H1040 0.931 . S
C1028 C1027 1.291 . S
C1028 C1029 1.373 . S
C1028 H1041 0.929 . S
C1029 C1028 1.373 . S
C1029 C1030 1.396 . S
C1029 C1036 1.403 . S
C1030 C1020 1.476 . S
C1030 N1025 1.318 . S
C1030 C1029 1.396 . S
H1031 C1026 0.929 . S
O1032 Mn1008 2.385 1_556 S
O1032 C1010 1.234 . S
O1033 Mn1008 2.209 . S
O1033 Mn1009 2.215 . S
O1033 C1010 1.283 1_554 S
O1034 Mn1008 2.094 . S
O1034 C1012 1.240 . S
O1035 Mn1009 2.117 . S
O1035 C1012 1.264 . S
C1036 C1029 1.403 . S
C1036 C1037 1.399 . S
C1036 H1042 0.929 . S
C1037 C1017 1.449 . S
C1037 C1036 1.399 . S
C1037 H1043 0.930 . S
H1038 C1018 0.931 1_556 S
H1039 C1019 0.930 . S
H1040 C1027 0.931 . S
H1041 C1028 0.929 . S
H1042 C1036 0.929 . S
H1043 C1037 0.930 . S
Mn1044 O1049 2.095 . S
Mn1044 O1059 2.162 . S
Mn1044 O1060 2.297 . S
Mn1044 O1068 2.385 . S
Mn1044 O1069 2.209 . S
Mn1044 O1070 2.094 . S
Mn1045 O1050 2.121 . S
Mn1045 N1052 2.257 . S
Mn1045 N1061 2.282 . S
Mn1045 O1069 2.215 . S
Mn1045 O1071 2.117 . S
C1046 O1068 1.234 . S
C1046 O1069 1.283 . S
C1047 O1059 1.281 . S
C1047 O1060 1.236 . S
C1048 O1070 1.240 . S
C1048 O1071 1.264 . S
O1049 Mn1044 2.095 . S
O1049 C1058 1.250 . S
O1050 Mn1045 2.121 . S
O1050 C1058 1.258 . S
C1051 N1052 1.326 . S
C1051 C1055 1.460 . S
C1051 H1057 0.929 . S
N1052 Mn1045 2.257 . S
N1052 C1051 1.326 . S
N1052 C1056 1.362 . S
C1053 C1054 1.258 . S
C1053 C1056 1.431 . S
C1053 C1073 1.449 . S
C1054 C1053 1.258 . S
C1054 C1055 1.477 . S
C1054 H1074 0.931 . S
C1055 C1051 1.460 . S
C1055 C1054 1.477 . S
C1055 H1075 0.930 . S
C1056 N1052 1.362 . S
C1056 C1053 1.431 . S
C1056 C1066 1.476 . S
H1057 C1051 0.929 . S
C1058 O1049 1.250 . S
C1058 O1050 1.258 . S
O1059 Mn1044 2.162 . S
O1059 C1047 1.281 . S
O1060 Mn1044 2.297 . S
O1060 C1047 1.236 . S
N1061 Mn1045 2.282 . S
N1061 C1062 1.328 . S
N1061 C1066 1.318 . S
C1062 N1061 1.328 . S
C1062 C1063 1.460 . S
C1062 H1067 0.929 . S
C1063 C1062 1.460 . S
C1063 C1064 1.292 . S
C1063 H1076 0.926 1_556 S
C1064 C1063 1.292 . S
C1064 C1065 1.373 . S
C1064 H1077 0.929 1_556 S
C1065 C1064 1.373 . S
C1065 C1066 1.396 . S
C1065 C1072 1.403 . S
C1066 C1056 1.476 . S
C1066 N1061 1.318 . S
C1066 C1065 1.396 . S
H1067 C1062 0.929 . S
O1068 Mn1044 2.385 . S
O1068 C1046 1.234 . S
O1069 Mn1044 2.209 . S
O1069 Mn1045 2.215 . S
O1069 C1046 1.283 . S
O1070 Mn1044 2.094 . S
O1070 C1048 1.240 . S
O1071 Mn1045 2.117 . S
O1071 C1048 1.264 . S
C1072 C1065 1.403 . S
C1072 C1073 1.399 . S
C1072 H1078 0.929 . S
C1073 C1053 1.449 . S
C1073 C1072 1.399 . S
C1073 H1079 0.930 . S
H1074 C1054 0.931 . S
H1075 C1055 0.930 . S
H1076 C1063 0.926 1_554 S
H1077 C1064 0.929 1_554 S
H1078 C1072 0.929 . S
H1079 C1073 0.930 . S
Mn1080 O1085 2.095 . S
Mn1080 O1095 2.162 . S
Mn1080 O1096 2.297 . S
Mn1080 O1104 2.385 . S
Mn1080 O1105 2.209 . S
Mn1080 O1106 2.094 . S
Mn1081 O1086 2.121 . S
Mn1081 N1088 2.257 1_455 S
Mn1081 N1097 2.282 . S
Mn1081 O1105 2.215 . S
Mn1081 O1107 2.117 . S
C1082 O1104 1.234 . S
C1082 O1105 1.283 . S
C1083 O1095 1.281 . S
C1083 O1096 1.236 . S
C1084 O1106 1.240 . S
C1084 O1107 1.264 . S
O1085 Mn1080 2.095 . S
O1085 C1094 1.250 . S
O1086 Mn1081 2.121 . S
O1086 C1094 1.258 . S
C1087 N1088 1.326 . S
C1087 C1091 1.460 . S
C1087 H1093 0.929 . S
N1088 Mn1081 2.257 1_655 S
N1088 C1087 1.326 . S
N1088 C1092 1.362 . S
C1089 C1090 1.258 . S
C1089 C1092 1.431 . S
C1089 C1109 1.449 . S
C1090 C1089 1.258 . S
C1090 C1091 1.477 . S
C1090 H1110 0.931 . S
C1091 C1087 1.460 . S
C1091 C1090 1.477 . S
C1091 H1111 0.930 . S
C1092 N1088 1.362 . S
C1092 C1089 1.431 . S
C1092 C1102 1.476 . S
H1093 C1087 0.929 . S
C1094 O1085 1.250 . S
C1094 O1086 1.258 . S
O1095 Mn1080 2.162 . S
O1095 C1083 1.281 . S
O1096 Mn1080 2.297 . S
O1096 C1083 1.236 . S
N1097 Mn1081 2.282 . S
N1097 C1098 1.328 . S
N1097 C1102 1.318 1_455 S
C1098 N1097 1.328 . S
C1098 C1099 1.457 . S
C1098 H1103 0.929 . S
C1099 C1098 1.457 . S
C1099 C1100 1.291 . S
C1099 H1112 0.931 . S
C1100 C1099 1.291 . S
C1100 C1101 1.373 1_455 S
C1100 H1113 0.929 . S
C1101 C1100 1.373 1_655 S
C1101 C1102 1.396 . S
C1101 C1108 1.403 . S
C1102 C1092 1.476 . S
C1102 N1097 1.318 1_655 S
C1102 C1101 1.396 . S
H1103 C1098 0.929 . S
O1104 Mn1080 2.385 . S
O1104 C1082 1.234 . S
O1105 Mn1080 2.209 . S
O1105 Mn1081 2.215 . S
O1105 C1082 1.283 . S
O1106 Mn1080 2.094 . S
O1106 C1084 1.240 . S
O1107 Mn1081 2.117 . S
O1107 C1084 1.264 . S
C1108 C1101 1.403 . S
C1108 C1109 1.399 . S
C1108 H1114 0.929 . S
C1109 C1089 1.449 . S
C1109 C1108 1.399 . S
C1109 H1115 0.930 . S
H1110 C1090 0.931 . S
H1111 C1091 0.930 . S
H1112 C1099 0.931 . S
H1113 C1100 0.929 . S
H1114 C1108 0.929 . S
H1115 C1109 0.930 . S
Mn1116 O1121 2.095 . S
Mn1116 O1131 2.162 . S
Mn1116 O1132 2.297 . S
Mn1116 O1140 2.385 . S
Mn1116 O1141 2.209 . S
Mn1116 O1142 2.094 . S
Mn1117 O1122 2.121 . S
Mn1117 N1124 2.257 . S
Mn1117 N1133 2.282 . S
Mn1117 O1141 2.215 . S
Mn1117 O1143 2.117 . S
C1118 O1140 1.234 . S
C1118 O1141 1.283 . S
C1119 O1131 1.281 . S
C1119 O1132 1.236 . S
C1120 O1142 1.240 . S
C1120 O1143 1.264 . S
O1121 Mn1116 2.095 . S
O1121 C1130 1.250 . S
O1122 Mn1117 2.121 . S
O1122 C1130 1.258 . S
C1123 N1124 1.326 . S
C1123 C1127 1.460 . S
C1123 H1129 0.929 . S
N1124 Mn1117 2.257 . S
N1124 C1123 1.326 . S
N1124 C1128 1.362 . S
C1125 C1126 1.258 . S
C1125 C1128 1.431 . S
C1125 C1145 1.449 . S
C1126 C1125 1.258 . S
C1126 C1127 1.477 . S
C1126 H1146 0.931 . S
C1127 C1123 1.460 . S
C1127 C1126 1.477 . S
C1127 H1147 0.930 . S
C1128 N1124 1.362 . S
C1128 C1125 1.431 . S
C1128 C1138 1.476 . S
H1129 C1123 0.929 . S
C1130 O1121 1.250 . S
C1130 O1122 1.258 . S
O1131 Mn1116 2.162 . S
O1131 C1119 1.281 . S
O1132 Mn1116 2.297 . S
O1132 C1119 1.236 . S
N1133 Mn1117 2.282 . S
N1133 C1134 1.328 . S
N1133 C1138 1.318 . S
C1134 N1133 1.328 . S
C1134 C1135 1.457 . S
C1134 H1139 0.929 . S
C1135 C1134 1.457 . S
C1135 C1136 1.291 . S
C1135 H1148 0.931 . S
C1136 C1135 1.291 . S
C1136 C1137 1.373 . S
C1136 H1149 0.929 . S
C1137 C1136 1.373 . S
C1137 C1138 1.396 . S
C1137 C1144 1.403 . S
C1138 C1128 1.476 . S
C1138 N1133 1.318 . S
C1138 C1137 1.396 . S
H1139 C1134 0.929 . S
O1140 Mn1116 2.385 . S
O1140 C1118 1.234 . S
O1141 Mn1116 2.209 . S
O1141 Mn1117 2.215 . S
O1141 C1118 1.283 . S
O1142 Mn1116 2.094 . S
O1142 C1120 1.240 . S
O1143 Mn1117 2.117 . S
O1143 C1120 1.264 . S
C1144 C1137 1.403 . S
C1144 C1145 1.399 . S
C1144 H1150 0.929 . S
C1145 C1125 1.449 . S
C1145 C1144 1.399 . S
C1145 H1151 0.930 . S
H1146 C1126 0.931 . S
H1147 C1127 0.930 . S
H1148 C1135 0.931 . S
H1149 C1136 0.929 . S
H1150 C1144 0.929 . S
H1151 C1145 0.930 . S
C1152 C1153 1.387 . S
C1152 H1156 0.950 . S
C1152 C1161 1.390 . S
C1153 C1152 1.387 . S
C1153 C1155 1.387 . S
H1154 C1161 0.950 . S
C1155 C1153 1.387 . S
C1155 C1157 1.390 . S
C1155 H1159 0.950 . S
H1156 C1152 0.950 . S
C1157 C1155 1.390 . S
C1157 C1158 1.387 . S
C1157 H1160 0.950 . S
C1158 C1157 1.387 . S
C1158 C1161 1.387 . S
H1159 C1155 0.950 . S
H1160 C1157 0.950 . S
C1161 C1152 1.390 . S
C1161 H1154 0.950 . S
C1161 C1158 1.387 . S
C1162 C1163 1.387 . S
C1162 H1166 0.950 . S
C1162 C1171 1.390 . S
C1163 C1162 1.387 . S
C1163 C1165 1.387 . S
H1164 C1171 0.950 . S
C1165 C1163 1.387 . S
C1165 C1167 1.390 . S
C1165 H1169 0.950 . S
H1166 C1162 0.950 . S
C1167 C1165 1.390 . S
C1167 C1168 1.387 . S
C1167 H1170 0.950 . S
C1168 C1167 1.387 . S
C1168 C1171 1.387 . S
H1169 C1165 0.950 . S
H1170 C1167 0.950 . S
C1171 C1162 1.390 . S
C1171 H1164 0.950 . S
C1171 C1168 1.387 . S
C1172 C1173 1.387 . S
C1172 H1176 0.950 . S
C1172 C1181 1.390 . S
C1173 C1172 1.387 . S
C1173 C1175 1.387 . S
H1174 C1181 0.950 . S
C1175 C1173 1.387 . S
C1175 C1177 1.390 . S
C1175 H1179 0.950 . S
H1176 C1172 0.950 . S
C1177 C1175 1.390 . S
C1177 C1178 1.387 . S
C1177 H1180 0.950 . S
C1178 C1177 1.387 . S
C1178 C1181 1.387 . S
H1179 C1175 0.950 . S
H1180 C1177 0.950 . S
C1181 C1172 1.390 . S
C1181 H1174 0.950 . S
C1181 C1178 1.387 . S
C1182 C1183 1.387 . S
C1182 H1186 0.950 . S
C1182 C1191 1.390 . S
C1183 C1182 1.387 . S
C1183 C1185 1.387 . S
H1184 C1191 0.950 . S
C1185 C1183 1.387 . S
C1185 C1187 1.390 . S
C1185 H1189 0.950 . S
H1186 C1182 0.950 . S
C1187 C1185 1.390 . S
C1187 C1188 1.387 . S
C1187 H1190 0.950 . S
C1188 C1187 1.387 . S
C1188 C1191 1.387 . S
H1189 C1185 0.950 . S
H1190 C1187 0.950 . S
C1191 C1182 1.390 . S
C1191 H1184 0.950 . S
C1191 C1188 1.387 . S
C1192 C1193 1.387 . S
C1192 H1196 0.950 . S
C1192 C1201 1.390 . S
C1193 C1192 1.387 . S
C1193 C1195 1.387 . S
H1194 C1201 0.950 . S
C1195 C1193 1.387 . S
C1195 C1197 1.390 . S
C1195 H1199 0.950 . S
H1196 C1192 0.950 . S
C1197 C1195 1.390 . S
C1197 C1198 1.387 . S
C1197 H1200 0.950 . S
C1198 C1197 1.387 . S
C1198 C1201 1.387 . S
H1199 C1195 0.950 . S
H1200 C1197 0.950 . S
C1201 C1192 1.390 . S
C1201 H1194 0.950 . S
C1201 C1198 1.387 . S
C1202 C1203 1.387 . S
C1202 H1206 0.950 . S
C1202 C1211 1.390 . S
C1203 C1202 1.387 . S
C1203 C1205 1.387 . S
H1204 C1211 0.950 . S
C1205 C1203 1.387 . S
C1205 C1207 1.390 . S
C1205 H1209 0.950 . S
H1206 C1202 0.950 . S
C1207 C1205 1.390 . S
C1207 C1208 1.387 . S
C1207 H1210 0.950 . S
C1208 C1207 1.387 . S
C1208 C1211 1.387 . S
H1209 C1205 0.950 . S
H1210 C1207 0.950 . S
C1211 C1202 1.390 . S
C1211 H1204 0.950 . S
C1211 C1208 1.387 . S
C1212 C1213 1.387 . S
C1212 H1216 0.950 . S
C1212 C1221 1.390 . S
C1213 C1212 1.387 . S
C1213 C1215 1.387 . S
H1214 C1221 0.950 . S
C1215 C1213 1.387 . S
C1215 C1217 1.390 . S
C1215 H1219 0.950 . S
H1216 C1212 0.950 . S
C1217 C1215 1.390 . S
C1217 C1218 1.387 . S
C1217 H1220 0.950 . S
C1218 C1217 1.387 . S
C1218 C1221 1.387 . S
H1219 C1215 0.950 . S
H1220 C1217 0.950 . S
C1221 C1212 1.390 . S
C1221 H1214 0.950 . S
C1221 C1218 1.387 . S
C1222 C1223 1.387 . S
C1222 H1226 0.950 . S
C1222 C1231 1.390 . S
C1223 C1222 1.387 . S
C1223 C1225 1.387 . S
H1224 C1231 0.950 . S
C1225 C1223 1.387 . S
C1225 C1227 1.390 . S
C1225 H1229 0.950 . S
H1226 C1222 0.950 . S
C1227 C1225 1.390 . S
C1227 C1228 1.387 . S
C1227 H1230 0.950 . S
C1228 C1227 1.387 . S
C1228 C1231 1.387 . S
H1229 C1225 0.950 . S
H1230 C1227 0.950 . S
C1231 C1222 1.390 . S
C1231 H1224 0.950 . S
C1231 C1228 1.387 . S
C1232 C1233 1.387 . S
C1232 H1236 0.950 1_655 S
C1232 C1241 1.390 1_655 S
C1233 C1232 1.387 . S
C1233 C1235 1.387 . S
H1234 C1241 0.952 . S
C1235 C1233 1.387 . S
C1235 C1237 1.390 . S
C1235 H1239 0.950 . S
H1236 C1232 0.950 1_455 S
C1237 C1235 1.390 . S
C1237 C1238 1.387 . S
C1237 H1240 0.950 . S
C1238 C1237 1.387 . S
C1238 C1241 1.386 1_655 S
H1239 C1235 0.950 . S
H1240 C1237 0.950 . S
C1241 C1232 1.390 1_455 S
C1241 H1234 0.952 . S
C1241 C1238 1.386 1_455 S
C1242 C1243 1.387 1_556 S
C1242 H1246 0.950 . S
C1242 C1251 1.390 . S
C1243 C1242 1.387 1_554 S
C1243 C1245 1.387 1_554 S
H1244 C1251 0.950 . S
C1245 C1243 1.387 1_556 S
C1245 C1247 1.390 . S
C1245 H1249 0.950 1_556 S
H1246 C1242 0.950 . S
C1247 C1245 1.390 . S
C1247 C1248 1.387 . S
C1247 H1250 0.950 . S
C1248 C1247 1.387 . S
C1248 C1251 1.387 . S
H1249 C1245 0.950 1_554 S
H1250 C1247 0.950 . S
C1251 C1242 1.390 . S
C1251 H1244 0.950 . S
C1251 C1248 1.387 . S
C1252 C1253 1.387 . S
C1252 H1256 0.950 . S
C1252 C1261 1.390 . S
C1253 C1252 1.387 . S
C1253 C1255 1.387 . S
H1254 C1261 0.950 . S
C1255 C1253 1.387 . S
C1255 C1257 1.390 . S
C1255 H1259 0.950 . S
H1256 C1252 0.950 . S
C1257 C1255 1.390 . S
C1257 C1258 1.387 . S
C1257 H1260 0.950 . S
C1258 C1257 1.387 . S
C1258 C1261 1.387 . S
H1259 C1255 0.950 . S
H1260 C1257 0.950 . S
C1261 C1252 1.390 . S
C1261 H1254 0.950 . S
C1261 C1258 1.387 . S
C1262 C1263 1.387 . S
C1262 H1266 0.950 . S
C1262 C1271 1.390 . S
C1263 C1262 1.387 . S
C1263 C1265 1.387 . S
H1264 C1271 0.950 . S
C1265 C1263 1.387 . S
C1265 C1267 1.390 . S
C1265 H1269 0.950 . S
H1266 C1262 0.950 . S
C1267 C1265 1.390 . S
C1267 C1268 1.387 . S
C1267 H1270 0.950 . S
C1268 C1267 1.387 . S
C1268 C1271 1.387 . S
H1269 C1265 0.950 . S
H1270 C1267 0.950 . S
C1271 C1262 1.390 . S
C1271 H1264 0.950 . S
C1271 C1268 1.387 . S
C1272 C1273 1.387 . S
C1272 H1276 0.950 . S
C1272 C1281 1.390 . S
C1273 C1272 1.387 . S
C1273 C1275 1.387 . S
H1274 C1281 0.950 . S
C1275 C1273 1.387 . S
C1275 C1277 1.390 . S
C1275 H1279 0.950 . S
H1276 C1272 0.950 . S
C1277 C1275 1.390 . S
C1277 C1278 1.387 . S
C1277 H1280 0.950 . S
C1278 C1277 1.387 . S
C1278 C1281 1.387 . S
H1279 C1275 0.950 . S
H1280 C1277 0.950 . S
C1281 C1272 1.390 . S
C1281 H1274 0.950 . S
C1281 C1278 1.387 . S
C1282 C1283 1.387 . S
C1282 H1286 0.950 . S
C1282 C1291 1.390 . S
C1283 C1282 1.387 . S
C1283 C1285 1.387 . S
H1284 C1291 0.950 1_556 S
C1285 C1283 1.387 . S
C1285 C1287 1.390 . S
C1285 H1289 0.950 . S
H1286 C1282 0.950 . S
C1287 C1285 1.390 . S
C1287 C1288 1.387 1_554 S
C1287 H1290 0.950 . S
C1288 C1287 1.387 1_556 S
C1288 C1291 1.387 1_556 S
H1289 C1285 0.950 . S
H1290 C1287 0.950 . S
C1291 C1282 1.390 . S
C1291 H1284 0.950 1_554 S
C1291 C1288 1.387 1_554 S
C1292 C1293 1.387 . S
C1292 H1296 0.950 . S
C1292 C1301 1.390 . S
C1293 C1292 1.387 . S
C1293 C1295 1.387 . S
H1294 C1301 0.950 . S
C1295 C1293 1.387 . S
C1295 C1297 1.390 . S
C1295 H1299 0.950 . S
H1296 C1292 0.950 . S
C1297 C1295 1.390 . S
C1297 C1298 1.387 . S
C1297 H1300 0.950 . S
C1298 C1297 1.387 . S
C1298 C1301 1.387 . S
H1299 C1295 0.950 . S
H1300 C1297 0.950 . S
C1301 C1292 1.390 . S
C1301 H1294 0.950 . S
C1301 C1298 1.387 . S
C1302 C1303 1.387 . S
C1302 H1306 0.950 . S
C1302 C1311 1.390 . S
C1303 C1302 1.387 . S
C1303 C1305 1.387 . S
H1304 C1311 0.950 . S
C1305 C1303 1.387 . S
C1305 C1307 1.390 . S
C1305 H1309 0.950 . S
H1306 C1302 0.950 . S
C1307 C1305 1.390 . S
C1307 C1308 1.387 . S
C1307 H1310 0.950 . S
C1308 C1307 1.387 . S
C1308 C1311 1.387 . S
H1309 C1305 0.950 . S
H1310 C1307 0.950 . S
C1311 C1302 1.390 . S
C1311 H1304 0.950 . S
C1311 C1308 1.387 . S
C1312 C1313 1.387 . S
C1312 H1316 0.950 . S
C1312 C1321 1.390 . S
C1313 C1312 1.387 . S
C1313 C1315 1.387 . S
H1314 C1321 0.950 . S
C1315 C1313 1.387 . S
C1315 C1317 1.390 . S
C1315 H1319 0.950 . S
H1316 C1312 0.950 . S
C1317 C1315 1.390 . S
C1317 C1318 1.387 . S
C1317 H1320 0.950 . S
C1318 C1317 1.387 . S
C1318 C1321 1.387 . S
H1319 C1315 0.950 . S
H1320 C1317 0.950 . S
C1321 C1312 1.390 . S
C1321 H1314 0.950 . S
C1321 C1318 1.387 . S
C1322 C1323 1.387 . S
C1322 H1326 0.950 . S
C1322 C1331 1.390 . S
C1323 C1322 1.387 . S
C1323 C1325 1.387 . S
H1324 C1331 0.950 . S
C1325 C1323 1.387 . S
C1325 C1327 1.390 . S
C1325 H1329 0.950 . S
H1326 C1322 0.950 . S
C1327 C1325 1.390 . S
C1327 C1328 1.387 . S
C1327 H1330 0.950 . S
C1328 C1327 1.387 . S
C1328 C1331 1.387 . S
H1329 C1325 0.950 . S
H1330 C1327 0.950 . S
C1331 C1322 1.390 . S
C1331 H1324 0.950 . S
C1331 C1328 1.387 . S
C1332 C1333 1.387 . S
C1332 H1336 0.950 . S
C1332 C1341 1.390 . S
C1333 C1332 1.387 . S
C1333 C1335 1.387 . S
H1334 C1341 0.950 . S
C1335 C1333 1.387 . S
C1335 C1337 1.390 . S
C1335 H1339 0.950 1_455 S
H1336 C1332 0.950 . S
C1337 C1335 1.390 . S
C1337 C1338 1.387 . S
C1337 H1340 0.950 1_455 S
C1338 C1337 1.387 . S
C1338 C1341 1.387 . S
H1339 C1335 0.950 1_655 S
H1340 C1337 0.950 1_655 S
C1341 C1332 1.390 . S
C1341 H1334 0.950 . S
C1341 C1338 1.387 . S
C1342 C1343 1.387 . S
C1342 H1346 0.950 . S
C1342 C1351 1.390 . S
C1343 C1342 1.387 . S
C1343 C1345 1.387 . S
H1344 C1351 0.950 . S
C1345 C1343 1.387 . S
C1345 C1347 1.390 . S
C1345 H1349 0.950 . S
H1346 C1342 0.950 . S
C1347 C1345 1.390 . S
C1347 C1348 1.387 . S
C1347 H1350 0.950 . S
C1348 C1347 1.387 . S
C1348 C1351 1.387 . S
H1349 C1345 0.950 . S
H1350 C1347 0.950 . S
C1351 C1342 1.390 . S
C1351 H1344 0.950 . S
C1351 C1348 1.387 . S
C1352 C1353 1.387 . S
C1352 H1356 0.950 . S
C1352 C1361 1.390 . S
C1353 C1352 1.387 . S
C1353 C1355 1.387 . S
H1354 C1361 0.950 . S
C1355 C1353 1.387 . S
C1355 C1357 1.390 . S
C1355 H1359 0.950 . S
H1356 C1352 0.950 . S
C1357 C1355 1.390 . S
C1357 C1358 1.387 . S
C1357 H1360 0.950 . S
C1358 C1357 1.387 . S
C1358 C1361 1.387 . S
H1359 C1355 0.950 . S
H1360 C1357 0.950 . S
C1361 C1352 1.390 . S
C1361 H1354 0.950 . S
C1361 C1358 1.387 . S
C1362 C1363 1.387 . S
C1362 H1366 0.950 . S
C1362 C1371 1.390 . S
C1363 C1362 1.387 . S
C1363 C1365 1.387 . S
H1364 C1371 0.950 . S
C1365 C1363 1.387 . S
C1365 C1367 1.390 . S
C1365 H1369 0.950 . S
H1366 C1362 0.950 . S
C1367 C1365 1.390 . S
C1367 C1368 1.387 . S
C1367 H1370 0.950 . S
C1368 C1367 1.387 . S
C1368 C1371 1.387 . S
H1369 C1365 0.950 . S
H1370 C1367 0.950 . S
C1371 C1362 1.390 . S
C1371 H1364 0.950 . S
C1371 C1368 1.387 . S
C1372 C1373 1.387 . S
C1372 H1376 0.950 . S
C1372 C1381 1.390 . S
C1373 C1372 1.387 . S
C1373 C1375 1.387 . S
H1374 C1381 0.950 . S
C1375 C1373 1.387 . S
C1375 C1377 1.390 . S
C1375 H1379 0.950 . S
H1376 C1372 0.950 . S
C1377 C1375 1.390 . S
C1377 C1378 1.387 . S
C1377 H1380 0.950 . S
C1378 C1377 1.387 . S
C1378 C1381 1.387 . S
H1379 C1375 0.950 . S
H1380 C1377 0.950 . S
C1381 C1372 1.390 . S
C1381 H1374 0.950 . S
C1381 C1378 1.387 . S
C1382 C1383 1.387 . S
C1382 H1386 0.950 . S
C1382 C1391 1.390 . S
C1383 C1382 1.387 . S
C1383 C1385 1.387 . S
H1384 C1391 0.950 . S
C1385 C1383 1.387 . S
C1385 C1387 1.390 . S
C1385 H1389 0.950 . S
H1386 C1382 0.950 . S
C1387 C1385 1.390 . S
C1387 C1388 1.387 . S
C1387 H1390 0.950 . S
C1388 C1387 1.387 . S
C1388 C1391 1.387 . S
H1389 C1385 0.950 . S
H1390 C1387 0.950 . S
C1391 C1382 1.390 . S
C1391 H1384 0.950 . S
C1391 C1388 1.387 . S
C1392 C1393 1.387 . S
C1392 H1396 0.950 . S
C1392 C1401 1.390 . S
C1393 C1392 1.387 . S
C1393 C1395 1.387 . S
H1394 C1401 0.950 . S
C1395 C1393 1.387 . S
C1395 C1397 1.390 . S
C1395 H1399 0.950 . S
H1396 C1392 0.950 . S
C1397 C1395 1.390 . S
C1397 C1398 1.387 . S
C1397 H1400 0.950 . S
C1398 C1397 1.387 . S
C1398 C1401 1.387 . S
H1399 C1395 0.950 . S
H1400 C1397 0.950 . S
C1401 C1392 1.390 . S
C1401 H1394 0.950 . S
C1401 C1398 1.387 . S
C1402 C1403 1.387 . S
C1402 H1406 0.950 . S
C1402 C1411 1.390 . S
C1403 C1402 1.387 . S
C1403 C1405 1.387 . S
H1404 C1411 0.950 . S
C1405 C1403 1.387 . S
C1405 C1407 1.390 . S
C1405 H1409 0.950 . S
H1406 C1402 0.950 . S
C1407 C1405 1.390 . S
C1407 C1408 1.387 . S
C1407 H1410 0.950 . S
C1408 C1407 1.387 . S
C1408 C1411 1.387 . S
H1409 C1405 0.950 . S
H1410 C1407 0.950 . S
C1411 C1402 1.390 . S
C1411 H1404 0.950 . S
C1411 C1408 1.387 . S
C1412 C1413 1.387 . S
C1412 H1416 0.950 . S
C1412 C1421 1.390 . S
C1413 C1412 1.387 . S
C1413 C1415 1.387 . S
H1414 C1421 0.950 . S
C1415 C1413 1.387 . S
C1415 C1417 1.390 . S
C1415 H1419 0.950 . S
H1416 C1412 0.950 . S
C1417 C1415 1.390 . S
C1417 C1418 1.387 . S
C1417 H1420 0.950 . S
C1418 C1417 1.387 . S
C1418 C1421 1.387 . S
H1419 C1415 0.950 . S
H1420 C1417 0.950 . S
C1421 C1412 1.390 . S
C1421 H1414 0.950 . S
C1421 C1418 1.387 . S
C1422 C1423 1.387 . S
C1422 H1426 0.950 . S
C1422 C1431 1.390 . S
C1423 C1422 1.387 . S
C1423 C1425 1.387 . S
H1424 C1431 0.950 1_554 S
C1425 C1423 1.387 . S
C1425 C1427 1.390 . S
C1425 H1429 0.950 . S
H1426 C1422 0.950 . S
C1427 C1425 1.390 . S
C1427 C1428 1.387 1_556 S
C1427 H1430 0.950 . S
C1428 C1427 1.387 1_554 S
C1428 C1431 1.387 1_554 S
H1429 C1425 0.950 . S
H1430 C1427 0.950 . S
C1431 C1422 1.390 . S
C1431 H1424 0.950 1_556 S
C1431 C1428 1.387 1_556 S
C1432 C1433 1.387 . S
C1432 H1436 0.950 . S
C1432 C1441 1.390 . S
C1433 C1432 1.387 . S
C1433 C1435 1.387 . S
H1434 C1441 0.950 . S
C1435 C1433 1.387 . S
C1435 C1437 1.390 . S
C1435 H1439 0.950 . S
H1436 C1432 0.950 . S
C1437 C1435 1.390 . S
C1437 C1438 1.387 . S
C1437 H1440 0.950 . S
C1438 C1437 1.387 . S
C1438 C1441 1.387 . S
H1439 C1435 0.950 . S
H1440 C1437 0.950 . S
C1441 C1432 1.390 . S
C1441 H1434 0.950 . S
C1441 C1438 1.387 . S
C1442 C1443 1.387 . S
C1442 H1446 0.950 . S
C1442 C1451 1.390 . S
C1443 C1442 1.387 . S
C1443 C1445 1.387 . S
H1444 C1451 0.950 . S
C1445 C1443 1.387 . S
C1445 C1447 1.390 . S
C1445 H1449 0.950 . S
H1446 C1442 0.950 . S
C1447 C1445 1.390 . S
C1447 C1448 1.387 . S
C1447 H1450 0.950 . S
C1448 C1447 1.387 . S
C1448 C1451 1.387 . S
H1449 C1445 0.950 . S
H1450 C1447 0.950 . S
C1451 C1442 1.390 . S
C1451 H1444 0.950 . S
C1451 C1448 1.387 . S
C1452 C1453 1.387 . S
C1452 H1456 0.950 . S
C1452 C1461 1.390 . S
C1453 C1452 1.387 . S
C1453 C1455 1.387 . S
H1454 C1461 0.950 . S
C1455 C1453 1.387 . S
C1455 C1457 1.390 . S
C1455 H1459 0.950 . S
H1456 C1452 0.950 . S
C1457 C1455 1.390 . S
C1457 C1458 1.387 . S
C1457 H1460 0.950 1_455 S
C1458 C1457 1.387 . S
C1458 C1461 1.387 . S
H1459 C1455 0.950 . S
H1460 C1457 0.950 1_655 S
C1461 C1452 1.390 . S
C1461 H1454 0.950 . S
C1461 C1458 1.387 . S
C1462 C1463 1.387 . S
C1462 H1466 0.950 . S
C1462 C1471 1.390 . S
C1463 C1462 1.387 . S
C1463 C1465 1.387 . S
H1464 C1471 0.950 . S
C1465 C1463 1.387 . S
C1465 C1467 1.390 . S
C1465 H1469 0.950 . S
H1466 C1462 0.950 . S
C1467 C1465 1.390 . S
C1467 C1468 1.387 1_554 S
C1467 H1470 0.950 1_554 S
C1468 C1467 1.387 1_556 S
C1468 C1471 1.387 1_556 S
H1469 C1465 0.950 . S
H1470 C1467 0.950 1_556 S
C1471 C1462 1.390 . S
C1471 H1464 0.950 . S
C1471 C1468 1.387 1_554 S
C1472 C1473 1.387 1_556 S
C1472 H1476 0.950 . S
C1472 C1481 1.390 1_545 S
C1473 C1472 1.387 1_554 S
C1473 C1475 1.410 . S
H1474 C1481 0.950 . S
C1475 C1473 1.410 . S
C1475 C1477 1.364 1_545 S
C1475 H1479 0.954 . S
H1476 C1472 0.950 . S
C1477 C1475 1.364 1_565 S
C1477 C1478 1.387 1_554 S
C1477 H1480 0.950 . S
C1478 C1477 1.387 1_556 S
C1478 C1481 1.387 . S
H1479 C1475 0.954 . S
H1480 C1477 0.950 . S
C1481 C1472 1.390 1_565 S
C1481 H1474 0.950 . S
C1481 C1478 1.387 . S
C1482 C1483 1.387 . S
C1482 H1486 0.950 . S
C1482 C1491 1.390 . S
C1483 C1482 1.387 . S
C1483 C1485 1.387 . S
H1484 C1491 0.950 . S
C1485 C1483 1.387 . S
C1485 C1487 1.390 . S
C1485 H1489 0.950 . S
H1486 C1482 0.950 . S
C1487 C1485 1.390 . S
C1487 C1488 1.387 . S
C1487 H1490 0.950 . S
C1488 C1487 1.387 . S
C1488 C1491 1.387 . S
H1489 C1485 0.950 . S
H1490 C1487 0.950 . S
C1491 C1482 1.390 . S
C1491 H1484 0.950 . S
C1491 C1488 1.387 . S
C1492 C1493 1.387 . S
C1492 H1496 0.950 . S
C1492 C1501 1.401 . S
C1493 C1492 1.387 . S
C1493 C1495 1.387 . S
H1494 C1501 0.948 1_565 S
C1495 C1493 1.387 . S
C1495 C1497 1.390 1_545 S
C1495 H1499 0.950 . S
H1496 C1492 0.950 . S
C1497 C1495 1.390 1_565 S
C1497 C1498 1.387 . S
C1497 H1500 0.950 . S
C1498 C1497 1.387 . S
C1498 C1501 1.378 1_565 S
H1499 C1495 0.950 . S
H1500 C1497 0.950 . S
C1501 C1492 1.401 . S
C1501 H1494 0.948 1_545 S
C1501 C1498 1.378 1_545 S
C1502 C1503 1.387 . S
C1502 H1506 0.950 . S
C1502 C1511 1.390 . S
C1503 C1502 1.387 . S
C1503 C1505 1.387 . S
H1504 C1511 0.950 . S
C1505 C1503 1.387 . S
C1505 C1507 1.390 . S
C1505 H1509 0.950 . S
H1506 C1502 0.950 . S
C1507 C1505 1.390 . S
C1507 C1508 1.387 . S
C1507 H1510 0.950 . S
C1508 C1507 1.387 . S
C1508 C1511 1.387 . S
H1509 C1505 0.950 . S
H1510 C1507 0.950 . S
C1511 C1502 1.390 . S
C1511 H1504 0.950 . S
C1511 C1508 1.387 . S
C1512 C1513 1.387 . S
C1512 H1516 0.950 . S
C1512 C1521 1.396 . S
C1513 C1512 1.387 . S
C1513 C1515 1.387 1_565 S
H1514 C1521 0.950 . S
C1515 C1513 1.387 1_545 S
C1515 C1517 1.390 . S
C1515 H1519 0.950 . S
H1516 C1512 0.950 . S
C1517 C1515 1.390 . S
C1517 C1518 1.387 . S
C1517 H1520 0.950 . S
C1518 C1517 1.387 . S
C1518 C1521 1.381 1_545 S
H1519 C1515 0.950 . S
H1520 C1517 0.950 . S
C1521 C1512 1.396 . S
C1521 H1514 0.950 . S
C1521 C1518 1.381 1_565 S
C1522 C1523 1.387 . S
C1522 H1526 0.950 . S
C1522 C1531 1.390 . S
C1523 C1522 1.387 . S
C1523 C1525 1.387 . S
H1524 C1531 0.950 . S
C1525 C1523 1.387 . S
C1525 C1527 1.390 . S
C1525 H1529 0.950 . S
H1526 C1522 0.950 . S
C1527 C1525 1.390 . S
C1527 C1528 1.387 . S
C1527 H1530 0.950 . S
C1528 C1527 1.387 . S
C1528 C1531 1.387 . S
H1529 C1525 0.950 . S
H1530 C1527 0.950 . S
C1531 C1522 1.390 . S
C1531 H1524 0.950 . S
C1531 C1528 1.387 . S
C1532 C1533 1.387 1_556 S
C1532 H1536 0.950 . S
C1532 C1541 1.390 . S
C1533 C1532 1.387 1_554 S
C1533 C1535 1.368 1_565 S
H1534 C1541 0.950 . S
C1535 C1533 1.368 1_545 S
C1535 C1537 1.408 . S
C1535 H1539 0.952 . S
H1536 C1532 0.950 . S
C1537 C1535 1.408 . S
C1537 C1538 1.387 1_554 S
C1537 H1540 0.950 . S
C1538 C1537 1.387 1_556 S
C1538 C1541 1.387 1_545 S
H1539 C1535 0.952 . S
H1540 C1537 0.950 . S
C1541 C1532 1.390 . S
C1541 H1534 0.950 . S
C1541 C1538 1.387 1_565 S
C1542 C1543 1.387 . S
C1542 H1546 0.950 . S
C1542 C1551 1.390 . S
C1543 C1542 1.387 . S
C1543 C1545 1.387 . S
H1544 C1551 0.950 . S
C1545 C1543 1.387 . S
C1545 C1547 1.390 . S
C1545 H1549 0.950 . S
H1546 C1542 0.950 . S
C1547 C1545 1.390 . S
C1547 C1548 1.387 . S
C1547 H1550 0.950 . S
C1548 C1547 1.387 . S
C1548 C1551 1.387 . S
H1549 C1545 0.950 . S
H1550 C1547 0.950 . S
C1551 C1542 1.390 . S
C1551 H1544 0.950 . S
C1551 C1548 1.387 . S
C1552 C1553 1.387 . S
C1552 H1556 0.950 . S
C1552 C1561 1.390 . S
C1553 C1552 1.387 . S
C1553 C1555 1.387 . S
H1554 C1561 0.950 . S
C1555 C1553 1.387 . S
C1555 C1557 1.390 . S
C1555 H1559 0.950 . S
H1556 C1552 0.950 . S
C1557 C1555 1.390 . S
C1557 C1558 1.387 . S
C1557 H1560 0.950 . S
C1558 C1557 1.387 . S
C1558 C1561 1.387 . S
H1559 C1555 0.950 . S
H1560 C1557 0.950 . S
C1561 C1552 1.390 . S
C1561 H1554 0.950 . S
C1561 C1558 1.387 . S
C1562 C1563 1.387 . S
C1562 H1566 0.950 . S
C1562 C1571 1.390 . S
C1563 C1562 1.387 . S
C1563 C1565 1.387 . S
H1564 C1571 0.950 . S
C1565 C1563 1.387 . S
C1565 C1567 1.390 . S
C1565 H1569 0.950 . S
H1566 C1562 0.950 . S
C1567 C1565 1.390 . S
C1567 C1568 1.387 . S
C1567 H1570 0.950 . S
C1568 C1567 1.387 . S
C1568 C1571 1.387 . S
H1569 C1565 0.950 . S
H1570 C1567 0.950 . S
C1571 C1562 1.390 . S
C1571 H1564 0.950 . S
C1571 C1568 1.387 . S
C1572 C1573 1.387 . S
C1572 H1576 0.950 . S
C1572 C1581 1.390 . S
C1573 C1572 1.387 . S
C1573 C1575 1.387 . S
H1574 C1581 0.950 . S
C1575 C1573 1.387 . S
C1575 C1577 1.390 . S
C1575 H1579 0.950 . S
H1576 C1572 0.950 . S
C1577 C1575 1.390 . S
C1577 C1578 1.387 . S
C1577 H1580 0.950 . S
C1578 C1577 1.387 . S
C1578 C1581 1.387 . S
H1579 C1575 0.950 . S
H1580 C1577 0.950 . S
C1581 C1572 1.390 . S
C1581 H1574 0.950 . S
C1581 C1578 1.387 . S
C1582 C1583 1.387 . S
C1582 H1586 0.950 . S
C1582 C1591 1.390 . S
C1583 C1582 1.387 . S
C1583 C1585 1.387 . S
H1584 C1591 0.950 . S
C1585 C1583 1.387 . S
C1585 C1587 1.390 . S
C1585 H1589 0.950 . S
H1586 C1582 0.950 . S
C1587 C1585 1.390 . S
C1587 C1588 1.387 . S
C1587 H1590 0.950 . S
C1588 C1587 1.387 . S
C1588 C1591 1.387 . S
H1589 C1585 0.950 . S
H1590 C1587 0.950 . S
C1591 C1582 1.390 . S
C1591 H1584 0.950 . S
C1591 C1588 1.387 . S
C1592 C1593 1.387 . S
C1592 H1596 0.950 . S
C1592 C1601 1.390 . S
C1593 C1592 1.387 . S
C1593 C1595 1.387 . S
H1594 C1601 0.950 . S
C1595 C1593 1.387 . S
C1595 C1597 1.390 . S
C1595 H1599 0.950 . S
H1596 C1592 0.950 . S
C1597 C1595 1.390 . S
C1597 C1598 1.387 . S
C1597 H1600 0.950 . S
C1598 C1597 1.387 . S
C1598 C1601 1.387 . S
H1599 C1595 0.950 . S
H1600 C1597 0.950 . S
C1601 C1592 1.390 . S
C1601 H1594 0.950 . S
C1601 C1598 1.387 . S
C1602 C1603 1.387 . S
C1602 H1606 0.950 . S
C1602 C1611 1.390 . S
C1603 C1602 1.387 . S
C1603 C1605 1.387 1_554 S
H1604 C1611 0.950 . S
C1605 C1603 1.387 1_556 S
C1605 C1607 1.390 . S
C1605 H1609 0.950 1_455 S
H1606 C1602 0.950 . S
C1607 C1605 1.390 . S
C1607 C1608 1.387 . S
C1607 H1610 0.950 . S
C1608 C1607 1.387 . S
C1608 C1611 1.387 1_556 S
H1609 C1605 0.950 1_655 S
H1610 C1607 0.950 . S
C1611 C1602 1.390 . S
C1611 H1604 0.950 . S
C1611 C1608 1.387 1_554 S
C1612 C1613 1.387 1_554 S
C1612 H1616 0.950 . S
C1612 C1621 1.390 . S
C1613 C1612 1.387 1_556 S
C1613 C1615 1.387 . S
H1614 C1621 0.950 . S
C1615 C1613 1.387 . S
C1615 C1617 1.390 . S
C1615 H1619 0.950 . S
H1616 C1612 0.950 . S
C1617 C1615 1.390 . S
C1617 C1618 1.387 1_556 S
C1617 H1620 0.950 . S
C1618 C1617 1.387 1_554 S
C1618 C1621 1.387 . S
H1619 C1615 0.950 . S
H1620 C1617 0.950 . S
C1621 C1612 1.390 . S
C1621 H1614 0.950 . S
C1621 C1618 1.387 . S
C1622 C1623 1.387 . S
C1622 H1626 0.950 . S
C1622 C1631 1.390 . S
C1623 C1622 1.387 . S
C1623 C1625 1.387 . S
H1624 C1631 0.950 . S
C1625 C1623 1.387 . S
C1625 C1627 1.390 1_455 S
C1625 H1629 0.950 . S
H1626 C1622 0.950 . S
C1627 C1625 1.390 1_655 S
C1627 C1628 1.387 1_655 S
C1627 H1630 0.950 . S
C1628 C1627 1.387 1_455 S
C1628 C1631 1.387 . S
H1629 C1625 0.950 . S
H1630 C1627 0.950 . S
C1631 C1622 1.390 . S
C1631 H1624 0.950 . S
C1631 C1628 1.387 . S
C1632 C1633 1.387 . S
C1632 H1636 0.950 . S
C1632 C1641 1.390 . S
C1633 C1632 1.387 . S
C1633 C1635 1.387 . S
H1634 C1641 0.950 . S
C1635 C1633 1.387 . S
C1635 C1637 1.390 . S
C1635 H1639 0.950 . S
H1636 C1632 0.950 . S
C1637 C1635 1.390 . S
C1637 C1638 1.387 . S
C1637 H1640 0.950 . S
C1638 C1637 1.387 . S
C1638 C1641 1.387 . S
H1639 C1635 0.950 . S
H1640 C1637 0.950 . S
C1641 C1632 1.390 . S
C1641 H1634 0.950 . S
C1641 C1638 1.387 . S
C1642 C1643 1.387 . S
C1642 H1646 0.950 . S
C1642 C1651 1.390 . S
C1643 C1642 1.387 . S
C1643 C1645 1.387 . S
H1644 C1651 0.950 . S
C1645 C1643 1.387 . S
C1645 C1647 1.390 . S
C1645 H1649 0.950 . S
H1646 C1642 0.950 . S
C1647 C1645 1.390 . S
C1647 C1648 1.387 . S
C1647 H1650 0.950 . S
C1648 C1647 1.387 . S
C1648 C1651 1.387 . S
H1649 C1645 0.950 . S
H1650 C1647 0.950 . S
C1651 C1642 1.390 . S
C1651 H1644 0.950 . S
C1651 C1648 1.387 . S
C1652 C1653 1.387 . S
C1652 H1656 0.950 . S
C1652 C1661 1.390 . S
C1653 C1652 1.387 . S
C1653 C1655 1.387 . S
H1654 C1661 0.950 . S
C1655 C1653 1.387 . S
C1655 C1657 1.390 . S
C1655 H1659 0.950 . S
H1656 C1652 0.950 . S
C1657 C1655 1.390 . S
C1657 C1658 1.387 . S
C1657 H1660 0.950 . S
C1658 C1657 1.387 . S
C1658 C1661 1.387 . S
H1659 C1655 0.950 . S
H1660 C1657 0.950 . S
C1661 C1652 1.390 . S
C1661 H1654 0.950 . S
C1661 C1658 1.387 . S
C1662 C1663 1.387 . S
C1662 H1666 0.950 . S
C1662 C1671 1.390 . S
C1663 C1662 1.387 . S
C1663 C1665 1.387 . S
H1664 C1671 0.950 . S
C1665 C1663 1.387 . S
C1665 C1667 1.390 . S
C1665 H1669 0.950 . S
H1666 C1662 0.950 . S
C1667 C1665 1.390 . S
C1667 C1668 1.387 . S
C1667 H1670 0.950 . S
C1668 C1667 1.387 . S
C1668 C1671 1.387 . S
H1669 C1665 0.950 . S
H1670 C1667 0.950 . S
C1671 C1662 1.390 . S
C1671 H1664 0.950 . S
C1671 C1668 1.387 . S
C1672 C1673 1.387 . S
C1672 H1676 0.950 . S
C1672 C1681 1.390 . S
C1673 C1672 1.387 . S
C1673 C1675 1.387 . S
H1674 C1681 0.950 . S
C1675 C1673 1.387 . S
C1675 C1677 1.390 . S
C1675 H1679 0.950 . S
H1676 C1672 0.950 . S
C1677 C1675 1.390 . S
C1677 C1678 1.387 . S
C1677 H1680 0.950 . S
C1678 C1677 1.387 . S
C1678 C1681 1.387 . S
H1679 C1675 0.950 . S
H1680 C1677 0.950 . S
C1681 C1672 1.390 . S
C1681 H1674 0.950 . S
C1681 C1678 1.387 . S
C1682 C1683 1.387 . S
C1682 H1686 0.950 . S
C1682 C1691 1.390 . S
C1683 C1682 1.387 . S
C1683 C1685 1.387 . S
H1684 C1691 0.950 . S
C1685 C1683 1.387 . S
C1685 C1687 1.390 . S
C1685 H1689 0.950 . S
H1686 C1682 0.950 . S
C1687 C1685 1.390 . S
C1687 C1688 1.387 . S
C1687 H1690 0.950 . S
C1688 C1687 1.387 . S
C1688 C1691 1.387 . S
H1689 C1685 0.950 . S
H1690 C1687 0.950 . S
C1691 C1682 1.390 . S
C1691 H1684 0.950 . S
C1691 C1688 1.387 . S
C1692 C1693 1.387 . S
C1692 H1696 0.950 . S
C1692 C1701 1.390 . S
C1693 C1692 1.387 . S
C1693 C1695 1.387 . S
H1694 C1701 0.950 . S
C1695 C1693 1.387 . S
C1695 C1697 1.390 . S
C1695 H1699 0.950 . S
H1696 C1692 0.950 . S
C1697 C1695 1.390 . S
C1697 C1698 1.387 . S
C1697 H1700 0.950 . S
C1698 C1697 1.387 . S
C1698 C1701 1.387 . S
H1699 C1695 0.950 . S
H1700 C1697 0.950 . S
C1701 C1692 1.390 . S
C1701 H1694 0.950 . S
C1701 C1698 1.387 . S
C1702 C1703 1.387 . S
C1702 H1706 0.950 . S
C1702 C1711 1.390 . S
C1703 C1702 1.387 . S
C1703 C1705 1.387 . S
H1704 C1711 0.950 . S
C1705 C1703 1.387 . S
C1705 C1707 1.390 . S
C1705 H1709 0.950 . S
H1706 C1702 0.950 . S
C1707 C1705 1.390 . S
C1707 C1708 1.387 . S
C1707 H1710 0.950 . S
C1708 C1707 1.387 . S
C1708 C1711 1.387 . S
H1709 C1705 0.950 . S
H1710 C1707 0.950 . S
C1711 C1702 1.390 . S
C1711 H1704 0.950 . S
C1711 C1708 1.387 . S
C1712 C1713 1.387 . S
C1712 H1716 0.950 . S
C1712 C1721 1.390 . S
C1713 C1712 1.387 . S
C1713 C1715 1.387 . S
H1714 C1721 0.950 . S
C1715 C1713 1.387 . S
C1715 C1717 1.390 . S
C1715 H1719 0.950 . S
H1716 C1712 0.950 . S
C1717 C1715 1.390 . S
C1717 C1718 1.387 . S
C1717 H1720 0.950 . S
C1718 C1717 1.387 . S
C1718 C1721 1.387 . S
H1719 C1715 0.950 . S
H1720 C1717 0.950 . S
C1721 C1712 1.390 . S
C1721 H1714 0.950 . S
C1721 C1718 1.387 . S
C1722 C1723 1.387 . S
C1722 H1726 0.950 . S
C1722 C1731 1.390 . S
C1723 C1722 1.387 . S
C1723 C1725 1.387 . S
H1724 C1731 0.950 . S
C1725 C1723 1.387 . S
C1725 C1727 1.390 . S
C1725 H1729 0.950 . S
H1726 C1722 0.950 . S
C1727 C1725 1.390 . S
C1727 C1728 1.387 . S
C1727 H1730 0.950 . S
C1728 C1727 1.387 . S
C1728 C1731 1.387 . S
H1729 C1725 0.950 . S
H1730 C1727 0.950 . S
C1731 C1722 1.390 . S
C1731 H1724 0.950 . S
C1731 C1728 1.387 . S
C1732 C1733 1.387 . S
C1732 H1736 0.950 . S
C1732 C1741 1.390 . S
C1733 C1732 1.387 . S
C1733 C1735 1.387 . S
H1734 C1741 0.950 . S
C1735 C1733 1.387 . S
C1735 C1737 1.390 . S
C1735 H1739 0.950 . S
H1736 C1732 0.950 . S
C1737 C1735 1.390 . S
C1737 C1738 1.387 . S
C1737 H1740 0.950 . S
C1738 C1737 1.387 . S
C1738 C1741 1.387 . S
H1739 C1735 0.950 . S
H1740 C1737 0.950 . S
C1741 C1732 1.390 . S
C1741 H1734 0.950 . S
C1741 C1738 1.387 . S
C1742 C1743 1.387 . S
C1742 H1746 0.950 . S
C1742 C1751 1.390 . S
C1743 C1742 1.387 . S
C1743 C1745 1.387 . S
H1744 C1751 0.950 . S
C1745 C1743 1.387 . S
C1745 C1747 1.390 . S
C1745 H1749 0.950 . S
H1746 C1742 0.950 . S
C1747 C1745 1.390 . S
C1747 C1748 1.387 . S
C1747 H1750 0.950 . S
C1748 C1747 1.387 . S
C1748 C1751 1.387 . S
H1749 C1745 0.950 . S
H1750 C1747 0.950 . S
C1751 C1742 1.390 . S
C1751 H1744 0.950 . S
C1751 C1748 1.387 . S
C1752 C1753 1.387 . S
C1752 H1756 0.950 . S
C1752 C1761 1.390 . S
C1753 C1752 1.387 . S
C1753 C1755 1.387 . S
H1754 C1761 0.950 . S
C1755 C1753 1.387 . S
C1755 C1757 1.390 . S
C1755 H1759 0.950 . S
H1756 C1752 0.950 . S
C1757 C1755 1.390 . S
C1757 C1758 1.387 . S
C1757 H1760 0.950 . S
C1758 C1757 1.387 . S
C1758 C1761 1.387 . S
H1759 C1755 0.950 . S
H1760 C1757 0.950 . S
C1761 C1752 1.390 . S
C1761 H1754 0.950 . S
C1761 C1758 1.387 . S
C1762 C1763 1.387 . S
C1762 H1766 0.950 . S
C1762 C1771 1.390 . S
C1763 C1762 1.387 . S
C1763 C1765 1.387 . S
H1764 C1771 0.950 . S
C1765 C1763 1.387 . S
C1765 C1767 1.390 . S
C1765 H1769 0.950 . S
H1766 C1762 0.950 . S
C1767 C1765 1.390 . S
C1767 C1768 1.387 . S
C1767 H1770 0.950 . S
C1768 C1767 1.387 . S
C1768 C1771 1.387 . S
H1769 C1765 0.950 . S
H1770 C1767 0.950 . S
C1771 C1762 1.390 . S
C1771 H1764 0.950 . S
C1771 C1768 1.387 . S
C1772 C1773 1.387 . S
C1772 H1776 0.950 . S
C1772 C1781 1.390 . S
C1773 C1772 1.387 . S
C1773 C1775 1.387 . S
H1774 C1781 0.950 . S
C1775 C1773 1.387 . S
C1775 C1777 1.390 . S
C1775 H1779 0.950 . S
H1776 C1772 0.950 . S
C1777 C1775 1.390 . S
C1777 C1778 1.387 . S
C1777 H1780 0.950 . S
C1778 C1777 1.387 . S
C1778 C1781 1.387 . S
H1779 C1775 0.950 . S
H1780 C1777 0.950 . S
C1781 C1772 1.390 . S
C1781 H1774 0.950 . S
C1781 C1778 1.387 . S
C1782 C1783 1.387 . S
C1782 H1786 0.950 . S
C1782 C1791 1.390 . S
C1783 C1782 1.387 . S
C1783 C1785 1.387 . S
H1784 C1791 0.950 . S
C1785 C1783 1.387 . S
C1785 C1787 1.390 . S
C1785 H1789 0.950 . S
H1786 C1782 0.950 . S
C1787 C1785 1.390 . S
C1787 C1788 1.387 . S
C1787 H1790 0.950 . S
C1788 C1787 1.387 . S
C1788 C1791 1.387 . S
H1789 C1785 0.950 . S
H1790 C1787 0.950 . S
C1791 C1782 1.390 . S
C1791 H1784 0.950 . S
C1791 C1788 1.387 . S
C1153 C446 1.318 . S
C1158 C2 1.283 . S
C1163 C1048 1.121 1_554 S
C1168 C38 1.067 . S
C1173 C518 1.315 . S
C1178 C74 1.278 . S
C1183 C1120 1.121 . S
C1188 C110 1.067 . S
C1193 C302 1.318 . S
C1198 C146 1.282 . S
C1203 C182 1.069 . S
C1208 C904 1.119 1_556 S
C1213 C218 1.278 . S
C1218 C374 1.315 . S
C1223 C976 1.122 . S
C1228 C254 1.069 . S
C1233 C158 1.290 . S
C1238 C290 1.255 . S
C1243 C770 1.108 . S
C1248 C327 1.147 . S
C1253 C230 1.289 . S
C1258 C362 1.254 . S
C1263 C842 1.111 . S
C1268 C399 1.149 . S
C1273 C434 1.250 . S
C1278 C14 1.286 . S
C1283 C471 1.150 . S
C1288 C626 1.112 . S
C1293 C86 1.286 . S
C1298 C506 1.250 . S
C1303 C543 1.148 . S
C1308 C698 1.110 . S
C1313 C1022 1.318 . S
C1318 C578 1.282 . S
C1323 C472 1.120 . S
C1328 C614 1.071 . S
C1333 C1094 1.317 . S
C1338 C650 1.281 . S
C1343 C686 1.070 . S
C1348 C544 1.119 1_554 S
C1353 C722 1.282 . S
C1358 C878 1.318 . S
C1363 C758 1.070 . S
C1368 C328 1.119 . S
C1373 C950 1.315 . S
C1378 C794 1.278 . S
C1383 C400 1.120 1_556 S
C1388 C830 1.071 . S
C1393 C734 1.291 . S
C1398 C866 1.255 . S
C1403 C903 1.147 . S
C1408 C194 1.109 . S
C1413 C938 1.250 . S
C1418 C806 1.286 . S
C1423 C975 1.149 . S
C1428 C266 1.111 . S
C1433 C590 1.290 . S
C1438 C1010 1.255 . S
C1443 C50 1.107 . S
C1448 C1047 1.146 . S
C1453 C662 1.289 . S
C1458 C1082 1.254 . S
C1463 C1119 1.147 . S
C1468 C122 1.108 . S
C1473 C3 1.522 1_655 S
C1478 C291 1.507 . S
C1483 C39 1.493 . S
C1488 C902 1.438 . S
C1493 C363 1.511 . S
C1498 C75 1.533 . S
C1503 C111 1.495 . S
C1508 C974 1.441 . S
C1513 C147 1.522 1_655 S
C1518 C435 1.507 . S
C1523 C1046 1.437 . S
C1528 C183 1.492 . S
C1533 C507 1.510 . S
C1538 C219 1.533 . S
C1543 C255 1.494 . S
C1548 C1118 1.440 . S
C1553 C326 1.441 . S
C1558 C615 1.494 . S
C1563 C398 1.439 . S
C1568 C687 1.493 . S
C1573 C470 1.441 . S
C1578 C759 1.494 . S
C1583 C831 1.494 . S
C1588 C542 1.441 . S
C1593 C579 1.533 . S
C1598 C867 1.511 . S
C1603 C651 1.524 1_455 S
C1608 C939 1.511 . S
C1613 C723 1.530 . S
C1618 C1011 1.507 . S
C1623 C1083 1.511 . S
C1628 C795 1.523 1_455 S
C1633 C4 1.397 . S
C1638 C256 1.389 . S
C1643 C40 1.390 . S
C1648 C148 1.395 . S
C1653 C184 1.389 . S
C1658 C76 1.397 . S
C1663 C220 1.396 . S
C1668 C112 1.389 . S
C1673 C554 1.302 . S
C1678 C292 1.348 . S
C1683 C436 1.348 . S
C1688 C338 1.304 . S
C1693 C482 1.304 . S
C1698 C364 1.348 . S
C1703 C508 1.351 . S
C1708 C410 1.306 . S
C1713 C580 1.395 . S
C1718 C832 1.391 . S
C1723 C724 1.395 . S
C1728 C616 1.392 . S
C1733 C760 1.391 . S
C1738 C652 1.395 . S
C1743 C796 1.396 . S
C1748 C688 1.389 . S
C1753 C1130 1.303 . S
C1758 C868 1.348 . S
C1763 C914 1.304 . S
C1768 C1012 1.348 . S
C1773 C940 1.348 . S
C1778 C1058 1.303 . S
C1783 C1084 1.351 . S
C1788 C986 1.306 . S
