# Generated by pormake.
# Topology ske, (6)-cn, num edge types: 1
# Building blocks:
#     Node 0, Type 0, BuildingBlock: CUWYAW_clean_sbu_0, # of connection points: 6
#     Node 1, Type 0, BuildingBlock: CUWYAW_clean_sbu_0, # of connection points: 6
#     Node 2, Type 0, BuildingBlock: CUWYAW_clean_sbu_0, # of connection points: 6
#     Node 3, Type 0, BuildingBlock: CUWYAW_clean_sbu_0, # of connection points: 6
#     Node 4, Type 0, BuildingBlock: CUWYAW_clean_sbu_0, # of connection points: 6
#     Node 5, Type 0, BuildingBlock: CUWYAW_clean_sbu_0, # of connection points: 6
#     Node 6, Type 0, BuildingBlock: CUWYAW_clean_sbu_0, # of connection points: 6
#     Node 7, Type 0, BuildingBlock: CUWYAW_clean_sbu_0, # of connection points: 6
#     Edge 8, Type (0, 0), BuildingBlock: UVAHIK_clean_linker_0, # of connection points: 2
#     Edge 9, Type (0, 0), BuildingBlock: UVAHIK_clean_linker_0, # of connection points: 2
#     Edge 10, Type (0, 0), BuildingBlock: UVAHIK_clean_linker_0, # of connection points: 2
#     Edge 11, Type (0, 0), BuildingBlock: UVAHIK_clean_linker_0, # of connection points: 2
#     Edge 12, Type (0, 0), BuildingBlock: UVAHIK_clean_linker_0, # of connection points: 2
#     Edge 13, Type (0, 0), BuildingBlock: UVAHIK_clean_linker_0, # of connection points: 2
#     Edge 14, Type (0, 0), BuildingBlock: UVAHIK_clean_linker_0, # of connection points: 2
#     Edge 15, Type (0, 0), BuildingBlock: UVAHIK_clean_linker_0, # of connection points: 2
#     Edge 16, Type (0, 0), BuildingBlock: UVAHIK_clean_linker_0, # of connection points: 2
#     Edge 17, Type (0, 0), BuildingBlock: UVAHIK_clean_linker_0, # of connection points: 2
#     Edge 18, Type (0, 0), BuildingBlock: UVAHIK_clean_linker_0, # of connection points: 2
#     Edge 19, Type (0, 0), BuildingBlock: UVAHIK_clean_linker_0, # of connection points: 2
#     Edge 20, Type (0, 0), BuildingBlock: UVAHIK_clean_linker_0, # of connection points: 2
#     Edge 21, Type (0, 0), BuildingBlock: UVAHIK_clean_linker_0, # of connection points: 2
#     Edge 22, Type (0, 0), BuildingBlock: UVAHIK_clean_linker_0, # of connection points: 2
#     Edge 23, Type (0, 0), BuildingBlock: UVAHIK_clean_linker_0, # of connection points: 2
#     Edge 24, Type (0, 0), BuildingBlock: UVAHIK_clean_linker_0, # of connection points: 2
#     Edge 25, Type (0, 0), BuildingBlock: UVAHIK_clean_linker_0, # of connection points: 2
#     Edge 26, Type (0, 0), BuildingBlock: UVAHIK_clean_linker_0, # of connection points: 2
#     Edge 27, Type (0, 0), BuildingBlock: UVAHIK_clean_linker_0, # of connection points: 2
#     Edge 28, Type (0, 0), BuildingBlock: UVAHIK_clean_linker_0, # of connection points: 2
#     Edge 29, Type (0, 0), BuildingBlock: UVAHIK_clean_linker_0, # of connection points: 2
#     Edge 30, Type (0, 0), BuildingBlock: UVAHIK_clean_linker_0, # of connection points: 2
#     Edge 31, Type (0, 0), BuildingBlock: UVAHIK_clean_linker_0, # of connection points: 2
# Relax obj value: 0.180
# Max RMSD: 0.190
# Mean RMSD: 0.184
data_MOF--net-ske--node1-CUWYAW_clean_sbu_0--edge1-UVAHIK_clean_linker_0
_symmetry_space_group_name_H-M    P1
_symmetry_Int_Tables_number       1
_symmetry_cell_setting            triclinic
loop_
_symmetry_equiv_pos_as_xyz
'x, y, z'
_cell_length_a     120.46984
_cell_length_b     37.800328
_cell_length_c     20.104509
_cell_angle_alpha  89.889106
_cell_angle_beta   89.949511
_cell_angle_gamma 98.123184
loop_
_atom_site_label
_atom_site_type_symbol
_atom_site_fract_x
_atom_site_fract_y
_atom_site_fract_z
_atom_type_partial_charge
C0 C 0.17193 0.23235 0.5479 0.0
Eu1 Eu 0.15214 0.25288 0.53903 0.0
C2 C 0.18264 0.2367 0.58547 0.0
C3 C 0.1894 0.27008 0.59129 0.0
C4 C 0.20014 0.27268 0.61934 0.0
C5 C 0.20439 0.24198 0.64213 0.0
C6 C 0.19743 0.20883 0.6383 0.0
C7 C 0.18671 0.20625 0.61019 0.0
C8 C 0.14799 0.32163 0.52999 0.0
C9 C 0.1406 0.26166 0.6831 0.0
C10 C 0.10756 0.28186 0.5417 0.0
Eu11 Eu 0.1274 0.26141 0.54594 0.0
C12 C 0.09589 0.27639 0.51664 0.0
C13 C 0.08914 0.24289 0.51982 0.0
C14 C 0.07758 0.23987 0.50738 0.0
C15 C 0.07254 0.2703 0.49197 0.0
C16 C 0.07945 0.30342 0.48566 0.0
C17 C 0.09097 0.3064 0.4979 0.0
C18 C 0.13166 0.19223 0.54938 0.0
C19 C 0.13916 0.25477 0.40149 0.0
O20 O 0.16297 0.21529 0.57657 0.0
O21 O 0.16976 0.25917 0.51128 0.0
O22 O 0.15622 0.3095 0.50035 0.0
O23 O 0.14295 0.29804 0.56793 0.0
O24 O 0.14848 0.24795 0.65009 0.0
O25 O 0.1326 0.27524 0.65135 0.0
O26 O 0.11574 0.29463 0.50166 0.0
O27 O 0.11044 0.25856 0.58414 0.0
O28 O 0.12335 0.20335 0.5799 0.0
O29 O 0.13661 0.21708 0.51426 0.0
O30 O 0.13122 0.26797 0.43505 0.0
O31 O 0.14717 0.24075 0.43265 0.0
H32 H 0.18654 0.29409 0.57242 0.0
H33 H 0.20526 0.29862 0.62084 0.0
H34 H 0.2003 0.1847 0.65637 0.0
H35 H 0.1817 0.18018 0.60609 0.0
H36 H 0.09269 0.2193 0.53455 0.0
H37 H 0.07252 0.21399 0.51303 0.0
H38 H 0.0759 0.3273 0.47276 0.0
H39 H 0.09598 0.33254 0.49548 0.0
C40 C 0.85201 0.2773 0.54797 0.0
Eu41 Eu 0.87177 0.25654 0.53929 0.0
C42 C 0.84133 0.27296 0.58574 0.0
C43 C 0.83544 0.23908 0.60078 0.0
C44 C 0.82471 0.23581 0.6293 0.0
C45 C 0.81964 0.26634 0.64352 0.0
C46 C 0.82574 0.3002 0.63031 0.0
C47 C 0.83644 0.30343 0.60168 0.0
C48 C 0.87587 0.18773 0.53048 0.0
C49 C 0.88326 0.24755 0.68333 0.0
C50 C 0.9163 0.22702 0.54206 0.0
Eu51 Eu 0.89649 0.24777 0.5461 0.0
C52 C 0.92794 0.23303 0.51686 0.0
C53 C 0.93381 0.26753 0.50774 0.0
C54 C 0.94536 0.27237 0.49434 0.0
C55 C 0.95129 0.24281 0.49015 0.0
C56 C 0.94523 0.20829 0.49674 0.0
C57 C 0.9337 0.20352 0.50988 0.0
C58 C 0.8923 0.31703 0.54919 0.0
C59 C 0.88476 0.25459 0.40169 0.0
O60 O 0.86098 0.29428 0.57648 0.0
O61 O 0.85415 0.25034 0.51183 0.0
O62 O 0.86766 0.19996 0.50085 0.0
O63 O 0.88092 0.21125 0.5683 0.0
O64 O 0.87541 0.26136 0.6503 0.0
O65 O 0.89125 0.2339 0.65159 0.0
O66 O 0.90816 0.21472 0.50156 0.0
O67 O 0.9134 0.25014 0.58466 0.0
O68 O 0.90061 0.30581 0.57963 0.0
O69 O 0.88734 0.29223 0.51426 0.0
O70 O 0.89268 0.24127 0.43527 0.0
O71 O 0.87677 0.26869 0.43282 0.0
H72 H 0.839 0.21507 0.58914 0.0
H73 H 0.82034 0.20933 0.6397 0.0
H74 H 0.82209 0.3243 0.6398 0.0
H75 H 0.84077 0.32983 0.59005 0.0
H76 H 0.92955 0.29076 0.51304 0.0
H77 H 0.94968 0.29931 0.48847 0.0
H78 H 0.94946 0.18488 0.49483 0.0
H79 H 0.92937 0.17668 0.51749 0.0
C80 C 0.10775 0.78237 0.48017 0.0
Eu81 Eu 0.12755 0.76164 0.47589 0.0
C82 C 0.09606 0.77689 0.5051 0.0
C83 C 0.08932 0.74337 0.5022 0.0
C84 C 0.07776 0.74032 0.51451 0.0
C85 C 0.07269 0.77074 0.52952 0.0
C86 C 0.07959 0.80389 0.53556 0.0
C87 C 0.09112 0.80689 0.52344 0.0
C88 C 0.1317 0.69241 0.47277 0.0
C89 C 0.13928 0.75474 0.62029 0.0
C90 C 0.17208 0.73256 0.47395 0.0
Eu91 Eu 0.15227 0.75297 0.4827 0.0
C92 C 0.18279 0.73689 0.43627 0.0
C93 C 0.18952 0.77031 0.42972 0.0
C94 C 0.20026 0.77292 0.40161 0.0
C95 C 0.20455 0.74219 0.37949 0.0
C96 C 0.19762 0.70899 0.38404 0.0
C97 C 0.1869 0.7064 0.41221 0.0
C98 C 0.14809 0.82173 0.49166 0.0
C99 C 0.14077 0.76186 0.33864 0.0
O100 O 0.11591 0.79482 0.52042 0.0
O101 O 0.11063 0.75925 0.43752 0.0
O102 O 0.12339 0.70367 0.44244 0.0
O103 O 0.13673 0.71714 0.50764 0.0
O104 O 0.13136 0.76807 0.58673 0.0
O105 O 0.14727 0.74067 0.58912 0.0
O106 O 0.16313 0.71541 0.44556 0.0
O107 O 0.16989 0.75943 0.5102 0.0
O108 O 0.15629 0.80956 0.52152 0.0
O109 O 0.14312 0.79818 0.45363 0.0
O110 O 0.14863 0.7481 0.37169 0.0
O111 O 0.13277 0.77548 0.37035 0.0
H112 H 0.09289 0.71979 0.48778 0.0
H113 H 0.07271 0.71442 0.50908 0.0
H114 H 0.07602 0.82776 0.54815 0.0
H115 H 0.09613 0.83305 0.52566 0.0
H116 H 0.18663 0.79434 0.44807 0.0
H117 H 0.20536 0.79889 0.39954 0.0
H118 H 0.20053 0.68483 0.3665 0.0
H119 H 0.18192 0.6803 0.41688 0.0
C120 C 0.91646 0.72739 0.47902 0.0
Eu121 Eu 0.89665 0.74812 0.47501 0.0
C122 C 0.92809 0.7334 0.50417 0.0
C123 C 0.93397 0.7679 0.51295 0.0
C124 C 0.94552 0.77272 0.5263 0.0
C125 C 0.95143 0.74315 0.53081 0.0
C126 C 0.94537 0.70864 0.52455 0.0
C127 C 0.93385 0.70388 0.51145 0.0
C128 C 0.89246 0.81733 0.47177 0.0
C129 C 0.88492 0.75487 0.61953 0.0
C130 C 0.8521 0.77698 0.47345 0.0
Eu131 Eu 0.87192 0.75663 0.48206 0.0
C132 C 0.84141 0.7728 0.4357 0.0
C133 C 0.83479 0.73932 0.42791 0.0
C134 C 0.82406 0.73675 0.39974 0.0
C135 C 0.81969 0.76758 0.37881 0.0
C136 C 0.82652 0.80088 0.38458 0.0
C137 C 0.83723 0.80343 0.41281 0.0
C138 C 0.87614 0.68791 0.49129 0.0
C139 C 0.88342 0.74798 0.3379 0.0
O140 O 0.90831 0.71502 0.51957 0.0
O141 O 0.91357 0.75057 0.43637 0.0
O142 O 0.90078 0.80617 0.44141 0.0
O143 O 0.88744 0.79251 0.50671 0.0
O144 O 0.89286 0.74163 0.58595 0.0
O145 O 0.8769 0.76885 0.58838 0.0
O146 O 0.86106 0.79431 0.44523 0.0
O147 O 0.85428 0.74995 0.50943 0.0
O148 O 0.86794 0.70002 0.52123 0.0
O149 O 0.8811 0.71151 0.45308 0.0
O150 O 0.87555 0.76163 0.371 0.0
O151 O 0.89144 0.7344 0.36957 0.0
H152 H 0.92971 0.79113 0.50741 0.0
H153 H 0.94984 0.79967 0.53191 0.0
H154 H 0.94959 0.68522 0.52671 0.0
H155 H 0.92951 0.67704 0.50411 0.0
H156 H 0.83775 0.71518 0.44533 0.0
H157 H 0.81904 0.71069 0.39669 0.0
H158 H 0.82355 0.82514 0.36797 0.0
H159 H 0.84213 0.82958 0.41843 0.0
C160 C 0.67231 0.73353 0.0537 0.0
Eu161 Eu 0.65249 0.75391 0.04476 0.0
C162 C 0.68294 0.73759 0.09197 0.0
C163 C 0.68958 0.77103 0.10009 0.0
C164 C 0.70027 0.77349 0.12877 0.0
C165 C 0.70459 0.74259 0.14988 0.0
C166 C 0.69774 0.70934 0.1438 0.0
C167 C 0.68707 0.70691 0.11507 0.0
C168 C 0.6483 0.82258 0.03519 0.0
C169 C 0.64099 0.76267 0.18886 0.0
C170 C 0.6079 0.78243 0.04792 0.0
Eu171 Eu 0.62776 0.76217 0.05174 0.0
C172 C 0.59618 0.77694 0.02361 0.0
C173 C 0.58948 0.74334 0.02643 0.0
C174 C 0.5779 0.74023 0.01476 0.0
C175 C 0.57278 0.77067 1.00053 0.0
C176 C 0.57964 0.80391 0.99462 0.0
C177 C 0.59119 0.80697 1.00606 0.0
C178 C 0.63209 0.69299 0.05464 0.0
C179 C 0.63953 0.75581 0.90721 0.0
O180 O 0.66331 0.71606 0.08134 0.0
O181 O 0.67016 0.76071 0.01799 0.0
O182 O 0.65652 0.81041 1.00556 0.0
O183 O 0.64327 0.79908 0.07343 0.0
O184 O 0.64888 0.74905 0.15583 0.0
O185 O 0.63296 0.77609 0.15713 0.0
O186 O 0.61601 0.79507 1.00736 0.0
O187 O 0.61084 0.75928 0.09045 0.0
O188 O 0.62377 0.70399 0.08534 0.0
O189 O 0.63701 0.71798 0.01976 0.0
O190 O 0.63155 0.76885 0.94083 0.0
O191 O 0.64756 0.74189 0.93832 0.0
H192 H 0.68667 0.79522 0.08254 0.0
H193 H 0.70531 0.79952 0.13205 0.0
H194 H 0.70067 0.68504 0.16055 0.0
H195 H 0.68215 0.68079 0.10921 0.0
H196 H 0.5931 0.71973 0.04028 0.0
H197 H 0.57288 0.71425 0.02005 0.0
H198 H 0.57603 0.8278 0.98264 0.0
H199 H 0.59616 0.83318 1.00395 0.0
C200 C 0.35203 0.77632 0.05424 0.0
Eu201 Eu 0.37185 0.75598 0.0451 0.0
C202 C 0.34139 0.77211 0.09262 0.0
C203 C 0.33466 0.73874 0.09956 0.0
C204 C 0.32396 0.73623 0.12835 0.0
C205 C 0.31974 0.76702 0.15078 0.0
C206 C 0.32669 0.80016 0.14587 0.0
C207 C 0.33736 0.80265 0.11701 0.0
C208 C 0.37603 0.6873 0.03551 0.0
C209 C 0.38334 0.74699 0.18909 0.0
C210 C 0.41644 0.72735 0.04799 0.0
Eu211 Eu 0.39658 0.74767 0.05185 0.0
C212 C 0.42813 0.73357 0.02352 0.0
C213 C 0.43406 0.76812 0.01632 0.0
C214 C 0.44563 0.77298 1.00368 0.0
C215 C 0.45152 0.7434 0.99834 0.0
C216 C 0.44541 0.70886 1.00304 0.0
C217 C 0.43386 0.70407 0.01542 0.0
C218 C 0.39227 0.81688 0.05457 0.0
C219 C 0.38482 0.75417 0.90745 0.0
O220 O 0.36103 0.79372 0.08185 0.0
O221 O 0.35419 0.74927 0.01838 0.0
O222 O 0.36782 0.69957 1.00597 0.0
O223 O 0.38106 0.71071 0.07372 0.0
O224 O 0.37547 0.76071 0.15611 0.0
O225 O 0.39136 0.73355 0.15729 0.0
O226 O 0.40837 0.71519 1.00694 0.0
O227 O 0.41345 0.75016 0.09092 0.0
O228 O 0.40059 0.80583 0.08517 0.0
O229 O 0.38735 0.79194 0.01984 0.0
O230 O 0.39277 0.741 0.94105 0.0
O231 O 0.37681 0.76817 0.93857 0.0
H232 H 0.33749 0.71466 0.08098 0.0
H233 H 0.31885 0.71029 0.13069 0.0
H234 H 0.32383 0.82436 0.16363 0.0
H235 H 0.34235 0.82872 0.11207 0.0
H236 H 0.42982 0.79135 0.02254 0.0
H237 H 0.45 0.79996 0.99927 0.0
H238 H 0.44961 0.68541 1.00021 0.0
H239 H 0.42948 0.67718 0.02157 0.0
C240 C 0.60783 0.28254 0.9734 0.0
Eu241 Eu 0.62769 0.26216 0.96949 0.0
C242 C 0.5961 0.27694 0.99751 0.0
C243 C 0.58941 0.24333 0.99455 0.0
C244 C 0.57781 0.24015 1.00605 0.0
C245 C 0.57267 0.27052 0.02023 0.0
C246 C 0.57951 0.30377 0.02627 0.0
C247 C 0.59108 0.3069 0.01501 0.0
C248 C 0.63194 0.19297 0.96685 0.0
C249 C 0.63942 0.25558 0.11395 0.0
C250 C 0.67226 0.2337 0.96751 0.0
Eu251 Eu 0.65241 0.2539 0.97634 0.0
C252 C 0.68287 0.23802 0.92912 0.0
C253 C 0.68872 0.27191 0.9136 0.0
C254 C 0.6994 0.2752 0.88453 0.0
C255 C 0.70448 0.2447 0.87025 0.0
C256 C 0.69842 0.21082 0.88389 0.0
C257 C 0.68776 0.20757 0.91307 0.0
C258 C 0.64816 0.32254 0.98593 0.0
C259 C 0.64093 0.26274 0.83228 0.0
O260 O 0.61592 0.29487 0.0142 0.0
O261 O 0.6108 0.25963 0.93059 0.0
O262 O 0.62362 0.20406 0.93637 0.0
O263 O 0.63693 0.21786 1.00149 0.0
O264 O 0.63147 0.26874 0.08034 0.0
O265 O 0.64745 0.24164 0.08282 0.0
O266 O 0.66328 0.2162 0.93989 0.0
O267 O 0.67008 0.26086 1.00298 0.0
O268 O 0.65636 0.31033 0.0157 0.0
O269 O 0.64321 0.29908 0.94757 0.0
O270 O 0.64881 0.2491 0.86533 0.0
O271 O 0.6329 0.27616 0.86399 0.0
H272 H 0.59305 0.21978 0.98073 0.0
H273 H 0.57281 0.21417 1.00066 0.0
H274 H 0.57588 0.32761 0.03823 0.0
H275 H 0.59604 0.33312 0.01722 0.0
H276 H 0.68515 0.29591 0.92528 0.0
H277 H 0.70374 0.30168 0.87381 0.0
H278 H 0.70208 0.18675 0.87435 0.0
H279 H 0.68347 0.18117 0.92505 0.0
C280 C 0.41631 0.22731 0.97191 0.0
Eu281 Eu 0.39646 0.24775 0.96807 0.0
C282 C 0.42799 0.23342 0.99633 0.0
C283 C 0.43393 0.26794 1.00354 0.0
C284 C 0.44551 0.27273 0.01615 0.0
C285 C 0.45138 0.2431 0.02145 0.0
C286 C 0.44526 0.2086 0.01673 0.0
C287 C 0.43371 0.20388 1.00438 0.0
C288 C 0.39219 0.31694 0.96521 0.0
C289 C 0.38469 0.25422 0.11254 0.0
C290 C 0.35185 0.27592 0.96603 0.0
Eu291 Eu 0.37172 0.25591 0.975 0.0
C292 C 0.34122 0.27167 0.92777 0.0
C293 C 0.33444 0.23834 0.92163 0.0
C294 C 0.32375 0.23583 0.89296 0.0
C295 C 0.31956 0.26658 0.86986 0.0
C296 C 0.32654 0.29969 0.87399 0.0
C297 C 0.33721 0.30217 0.90272 0.0
C298 C 0.37601 0.18728 0.98488 0.0
C299 C 0.38323 0.24728 0.83092 0.0
O300 O 0.40822 0.21511 0.01299 0.0
O301 O 0.41335 0.25022 0.92896 0.0
O302 O 0.40053 0.3059 0.9348 0.0
O303 O 0.38719 0.29199 0.99992 0.0
O304 O 0.39266 0.24109 0.07897 0.0
O305 O 0.37667 0.26814 0.08137 0.0
O306 O 0.36083 0.29353 0.9384 0.0
O307 O 0.35405 0.24883 1.00182 0.0
O308 O 0.3678 0.19943 0.01467 0.0
O309 O 0.38095 0.21079 0.94638 0.0
O310 O 0.37534 0.26085 0.86396 0.0
O311 O 0.39127 0.23386 0.86264 0.0
H312 H 0.42971 0.2912 0.99736 0.0
H313 H 0.44988 0.29968 0.02058 0.0
H314 H 0.44944 0.18511 0.01952 0.0
H315 H 0.42933 0.17701 0.99821 0.0
H316 H 0.33724 0.2143 0.94074 0.0
H317 H 0.3186 0.20993 0.89125 0.0
H318 H 0.32372 0.32385 0.85571 0.0
H319 H 0.34223 0.32822 0.90705 0.0
C320 C 0.22099 0.27328 0.70621 0.0
C321 C 0.21616 0.24426 0.66717 0.0
C322 C 0.23212 0.27569 0.72808 0.0
C323 C 0.25902 0.24185 0.69173 0.0
H324 H 0.26706 0.27618 0.8692 0.0
C325 C 0.30301 0.23541 0.80518 0.0
C326 C 0.30782 0.26442 0.84433 0.0
C327 C 0.2919 0.23306 0.78303 0.0
C328 C 0.265 0.26693 0.81917 0.0
H329 H 0.21945 0.19515 0.62018 0.0
H330 H 0.23869 0.19893 0.65944 0.0
H331 H 0.24764 0.27192 0.83239 0.0
H332 H 0.30452 0.31358 0.89111 0.0
H333 H 0.28532 0.30989 0.85138 0.0
H334 H 0.27638 0.23684 0.67853 0.0
C335 C 0.23391 0.22009 0.67266 0.0
C336 C 0.25384 0.26448 0.79802 0.0
C337 C 0.22279 0.21766 0.65087 0.0
C338 C 0.3012 0.29107 0.86037 0.0
C339 C 0.2901 0.2887 0.8383 0.0
C340 C 0.27018 0.24429 0.71288 0.0
C341 C 0.23875 0.24918 0.71141 0.0
C342 C 0.25068 0.25189 0.73399 0.0
C343 C 0.28526 0.2596 0.79954 0.0
C344 C 0.27334 0.25689 0.77691 0.0
H345 H 0.21614 0.29413 0.72027 0.0
H346 H 0.23557 0.29867 0.75727 0.0
H347 H 0.25696 0.23259 0.6417 0.0
H348 H 0.30786 0.21452 0.79131 0.0
H349 H 0.28845 0.21008 0.75382 0.0
C350 C 0.71925 0.22412 0.79607 0.0
C351 C 0.71621 0.2481 0.84404 0.0
C352 C 0.73037 0.22629 0.77399 0.0
C353 C 0.75956 0.26143 0.82306 0.0
H354 H 0.76621 0.24555 0.63773 0.0
C355 C 0.80483 0.28692 0.71732 0.0
C356 C 0.80789 0.26299 0.66935 0.0
C357 C 0.7937 0.28477 0.73918 0.0
C358 C 0.76451 0.24962 0.68985 0.0
H359 H 0.72261 0.29326 0.90613 0.0
H360 H 0.74189 0.29745 0.8668 0.0
H361 H 0.74677 0.24303 0.67349 0.0
H362 H 0.80151 0.21793 0.60695 0.0
H363 H 0.7822 0.21375 0.64592 0.0
H364 H 0.7773 0.268 0.83944 0.0
C365 C 0.7357 0.27668 0.8467 0.0
C366 C 0.75334 0.24821 0.71039 0.0
C367 C 0.72458 0.27457 0.86865 0.0
C368 C 0.79952 0.23658 0.64445 0.0
C369 C 0.78839 0.23448 0.66619 0.0
C370 C 0.77073 0.26284 0.80253 0.0
C371 C 0.73877 0.25243 0.79938 0.0
C372 C 0.7507 0.25411 0.77729 0.0
C373 C 0.7853 0.25867 0.71358 0.0
C374 C 0.77337 0.25695 0.73563 0.0
H375 H 0.71303 0.2036 0.77549 0.0
H376 H 0.73241 0.20696 0.73793 0.0
H377 H 0.75786 0.2655 0.87518 0.0
H378 H 0.81104 0.30739 0.73813 0.0
H379 H 0.79165 0.30406 0.77528 0.0
C380 C 0.30322 0.73597 0.21628 0.0
C381 C 0.308 0.76483 0.17642 0.0
C382 C 0.29211 0.73359 0.23854 0.0
C383 C 0.26516 0.76697 0.20172 0.0
H384 H 0.25716 0.73343 0.38006 0.0
C385 C 0.22112 0.77338 0.31469 0.0
C386 C 0.21633 0.74449 0.35441 0.0
C387 C 0.23226 0.77582 0.29274 0.0
C388 C 0.25921 0.74246 0.3298 0.0
H389 H 0.30464 0.81371 0.1285 0.0
H390 H 0.28544 0.80999 0.16842 0.0
H391 H 0.27658 0.73772 0.34304 0.0
H392 H 0.21968 0.69566 0.40254 0.0
H393 H 0.23892 0.69948 0.36316 0.0
H394 H 0.24779 0.7717 0.18846 0.0
C395 C 0.29024 0.78893 0.18197 0.0
C396 C 0.27037 0.74492 0.30854 0.0
C397 C 0.30134 0.79132 0.15979 0.0
C398 C 0.22299 0.71807 0.37133 0.0
C399 C 0.23411 0.72051 0.34946 0.0
C400 C 0.254 0.7645 0.22298 0.0
C401 C 0.28544 0.75997 0.22144 0.0
C402 C 0.27352 0.75723 0.24419 0.0
C403 C 0.23893 0.74947 0.31002 0.0
C404 C 0.25085 0.7522 0.28733 0.0
H405 H 0.30809 0.71521 0.23062 0.0
H406 H 0.28869 0.71072 0.26832 0.0
H407 H 0.2672 0.77599 0.15146 0.0
H408 H 0.21625 0.7941 0.30015 0.0
H409 H 0.23569 0.79869 0.263 0.0
C410 C 0.72308 0.71879 0.15759 0.0
C411 C 0.71633 0.7448 0.17541 0.0
C412 C 0.73418 0.7212 0.17975 0.0
C413 C 0.75385 0.76388 0.30804 0.0
H414 H 0.77663 0.73951 0.18679 0.0
C415 C 0.80116 0.79121 0.37172 0.0
C416 C 0.80792 0.76526 0.35371 0.0
C417 C 0.79005 0.78874 0.34979 0.0
C418 C 0.77037 0.74603 0.22162 0.0
H419 H 0.71605 0.79357 0.23164 0.0
H420 H 0.73545 0.7981 0.26933 0.0
H421 H 0.75723 0.73521 0.14968 0.0
H422 H 0.80819 0.71649 0.29747 0.0
H423 H 0.78877 0.71184 0.2602 0.0
H424 H 0.76698 0.7747 0.37997 0.0
C425 C 0.73211 0.77558 0.23864 0.0
C426 C 0.75921 0.74355 0.2003 0.0
C427 C 0.721 0.7732 0.21639 0.0
C428 C 0.80324 0.73682 0.31285 0.0
C429 C 0.79211 0.73437 0.29085 0.0
C430 C 0.765 0.76635 0.32936 0.0
C431 C 0.73888 0.74969 0.22039 0.0
C432 C 0.75079 0.75243 0.2432 0.0
C433 C 0.78534 0.76023 0.30921 0.0
C434 C 0.77343 0.75747 0.28645 0.0
H435 H 0.71986 0.69678 0.12542 0.0
H436 H 0.73906 0.70051 0.16528 0.0
H437 H 0.74758 0.7704 0.34286 0.0
H438 H 0.80439 0.81324 0.40382 0.0
H439 H 0.78516 0.8094 0.36436 0.0
C440 C 0.13733 0.87165 0.45943 0.0
C441 C 0.14595 0.85931 0.49604 0.0
C442 C 0.13555 0.9075 0.4639 0.0
C443 C 0.15001 0.99719 0.51285 0.0
H444 H 0.11998 0.02269 0.51918 0.0
C445 C 0.12633 0.1274 0.57781 0.0
C446 C 0.13335 0.15427 0.54363 0.0
C447 C 0.12773 0.09141 0.57077 0.0
C448 C 0.12843 0.01604 0.51793 0.0
H449 H 0.15931 0.87457 0.56686 0.0
H450 H 0.15618 0.93661 0.57511 0.0
H451 H 0.12255 0.95996 0.50959 0.0
H452 H 0.1474 0.16458 0.47564 0.0
H453 H 0.14981 0.10191 0.46288 0.0
H454 H 0.15591 0.05304 0.52268 0.0
C455 C 0.1509 0.91902 0.542 0.0
C456 C 0.1299 0.98005 0.51159 0.0
C457 C 0.15265 0.88333 0.53759 0.0
C458 C 0.14187 0.14447 0.50271 0.0
C459 C 0.14328 0.10851 0.49569 0.0
C460 C 0.14854 0.03311 0.51909 0.0
C461 C 0.14238 0.93173 0.50497 0.0
C462 C 0.14072 0.97011 0.5094 0.0
C463 C 0.13621 0.08144 0.52947 0.0
C464 C 0.13773 0.04307 0.522 0.0
H465 H 0.132 0.85368 0.42714 0.0
H466 H 0.12895 0.91637 0.43432 0.0
H467 H 0.15847 0.99067 0.51046 0.0
H468 H 0.11972 0.13416 0.60988 0.0
H469 H 0.12224 0.07142 0.59836 0.0
C470 C 0.89769 0.38182 0.57725 0.0
C471 C 0.89065 0.35503 0.54328 0.0
C472 C 0.89632 0.41785 0.57011 0.0
C473 C 0.87556 0.4764 0.51864 0.0
H474 H 0.90159 0.5494 0.50865 0.0
C475 C 0.88687 0.63798 0.45884 0.0
C476 C 0.87827 0.6503 0.49562 0.0
C477 C 0.88862 0.60209 0.46324 0.0
C478 C 0.89423 0.52935 0.51079 0.0
H479 H 0.87658 0.3449 0.47557 0.0
H480 H 0.87423 0.40764 0.46263 0.0
H481 H 0.90412 0.48661 0.51825 0.0
H482 H 0.86491 0.63496 0.56668 0.0
H483 H 0.868 0.57286 0.57482 0.0
H484 H 0.86566 0.51894 0.51016 0.0
C485 C 0.88076 0.40094 0.49535 0.0
C486 C 0.89567 0.49333 0.51713 0.0
C487 C 0.88214 0.36495 0.50247 0.0
C488 C 0.87155 0.62621 0.53728 0.0
C489 C 0.87328 0.59049 0.54162 0.0
C490 C 0.87411 0.51235 0.51241 0.0
C491 C 0.88785 0.42794 0.52892 0.0
C492 C 0.88635 0.46635 0.52138 0.0
C493 C 0.88179 0.5778 0.50441 0.0
C494 C 0.88342 0.53938 0.50879 0.0
H495 H 0.9043 0.37497 0.60923 0.0
H496 H 0.90183 0.43777 0.59754 0.0
H497 H 0.86817 0.4565 0.52237 0.0
H498 H 0.8922 0.65599 0.42646 0.0
H499 H 0.89521 0.59324 0.43354 0.0
C500 C 0.8978 0.88217 0.44327 0.0
C501 C 0.89077 0.8553 0.47737 0.0
C502 C 0.89639 0.91817 0.45016 0.0
C503 C 0.89562 0.99358 0.50271 0.0
H504 H 0.86556 0.01876 0.51026 0.0
C505 C 0.88667 0.1378 0.56204 0.0
C506 C 0.87802 0.15017 0.52577 0.0
C507 C 0.88846 0.10197 0.55725 0.0
C508 C 0.87402 0.0123 0.50782 0.0
H509 H 0.87668 0.845 0.54507 0.0
H510 H 0.87424 0.90765 0.55761 0.0
H511 H 0.86815 0.95644 0.49783 0.0
H512 H 0.86461 0.13497 0.4552 0.0
H513 H 0.86777 0.07298 0.44634 0.0
H514 H 0.90147 0.04967 0.51122 0.0
C515 C 0.8808 0.90106 0.52494 0.0
C516 C 0.87552 0.97641 0.50148 0.0
C517 C 0.88222 0.86511 0.51806 0.0
C518 C 0.87129 0.12619 0.48422 0.0
C519 C 0.87306 0.09052 0.47946 0.0
C520 C 0.89413 0.02955 0.50915 0.0
C521 C 0.88788 0.92813 0.49123 0.0
C522 C 0.88633 0.96651 0.49859 0.0
C523 C 0.88162 0.07779 0.51616 0.0
C524 C 0.8833 0.03943 0.5114 0.0
H525 H 0.90444 0.87541 0.41137 0.0
H526 H 0.90189 0.93815 0.42263 0.0
H527 H 0.90408 0.98698 0.50148 0.0
H528 H 0.892 0.15572 0.59433 0.0
H529 H 0.89508 0.0931 0.5866 0.0
C530 C 0.12632 0.62767 0.44423 0.0
C531 C 0.13337 0.65441 0.47833 0.0
C532 C 0.12771 0.59164 0.45105 0.0
C533 C 0.1284 0.51608 0.50346 0.0
H534 H 0.15843 0.49059 0.51049 0.0
C535 C 0.13723 0.37154 0.56194 0.0
C536 C 0.14586 0.35922 0.52544 0.0
C537 C 0.13546 0.4074 0.55737 0.0
C538 C 0.14997 0.49714 0.5082 0.0
H539 H 0.14744 0.66443 0.54597 0.0
H540 H 0.14983 0.6017 0.55839 0.0
H541 H 0.15589 0.55301 0.49838 0.0
H542 H 0.15926 0.37455 0.45466 0.0
H543 H 0.15615 0.43662 0.44618 0.0
H544 H 0.1225 0.45999 0.51179 0.0
C545 C 0.14328 0.60844 0.52578 0.0
C546 C 0.14851 0.53308 0.50204 0.0
C547 C 0.14189 0.64443 0.51896 0.0
C548 C 0.1526 0.38329 0.48386 0.0
C549 C 0.15085 0.419 0.47932 0.0
C550 C 0.12986 0.48006 0.50971 0.0
C551 C 0.1362 0.5815 0.49206 0.0
C552 C 0.13771 0.54309 0.49933 0.0
C553 C 0.14231 0.43168 0.51627 0.0
C554 C 0.14067 0.47008 0.51176 0.0
H555 H 0.1197 0.63457 0.41237 0.0
H556 H 0.1222 0.57177 0.42352 0.0
H557 H 0.11995 0.52276 0.50236 0.0
H558 H 0.13188 0.35354 0.59427 0.0
H559 H 0.12886 0.41624 0.5869 0.0
C560 C 0.6422 0.64542 1.00634 0.0
C561 C 0.63371 0.655 0.04774 0.0
C562 C 0.64354 0.60948 0.99803 0.0
C563 C 0.62857 0.5169 0.01752 0.0
H564 H 0.65857 0.49129 1.00832 0.0
C565 C 0.65271 0.38386 0.03302 0.0
C566 C 0.646 0.3601 0.99103 0.0
C567 C 0.65096 0.41952 0.03831 0.0
C568 C 0.65012 0.49787 0.01116 0.0
H569 H 0.62005 0.63448 0.11352 0.0
H570 H 0.62246 0.57175 0.09979 0.0
H571 H 0.65608 0.55358 0.02264 0.0
H572 H 0.63204 0.35493 0.92226 0.0
H573 H 0.629 0.41761 0.931 0.0
H574 H 0.62264 0.46092 1.00752 0.0
C575 C 0.62798 0.59192 0.0728 0.0
C576 C 0.64869 0.53376 0.01861 0.0
C577 C 0.62665 0.6279 0.08112 0.0
C578 C 0.63737 0.3727 0.95487 0.0
C579 C 0.6356 0.40854 0.96023 0.0
C580 C 0.63001 0.48093 1.00994 0.0
C581 C 0.63643 0.58218 0.031 0.0
C582 C 0.6379 0.54382 0.0222 0.0
C583 C 0.64244 0.4325 1.00173 0.0
C584 C 0.64081 0.47089 1.00715 0.0
H585 H 0.64776 0.6657 0.97984 0.0
H586 H 0.65005 0.60308 0.96486 0.0
H587 H 0.62013 0.52363 0.01925 0.0
H588 H 0.65937 0.37492 0.062 0.0
H589 H 0.65625 0.43687 0.07176 0.0
C590 C 0.38214 0.86449 1.00637 0.0
C591 C 0.39063 0.85487 0.04763 0.0
C592 C 0.38078 0.90043 0.99804 0.0
C593 C 0.39571 0.99304 0.01715 0.0
H594 H 0.36569 0.0185 1.00825 0.0
C595 C 0.37149 0.12591 0.03232 0.0
C596 C 0.37819 0.14974 0.99015 0.0
C597 C 0.37326 0.09027 0.03778 0.0
C598 C 0.37414 0.01196 0.01101 0.0
H599 H 0.40429 0.87534 0.11314 0.0
H600 H 0.40186 0.93808 0.09937 0.0
H601 H 0.36821 0.95622 0.02273 0.0
H602 H 0.39216 0.15503 0.92125 0.0
H603 H 0.39524 0.09238 0.93029 0.0
H604 H 0.40161 0.04905 1.0069 0.0
C605 C 0.39634 0.91793 0.0725 0.0
C606 C 0.37559 0.97608 0.01855 0.0
C607 C 0.39769 0.88195 0.08085 0.0
C608 C 0.38683 0.13722 0.95399 0.0
C609 C 0.38863 0.1014 0.95952 0.0
C610 C 0.39425 0.029 1.00948 0.0
C611 C 0.38788 0.92771 0.03085 0.0
C612 C 0.38639 0.96607 0.02202 0.0
C613 C 0.3818 0.07737 1.0012 0.0
C614 C 0.38344 0.03899 1.00678 0.0
H615 H 0.37657 0.84424 0.97999 0.0
H616 H 0.37426 0.90686 0.96497 0.0
H617 H 0.40415 0.98635 0.01879 0.0
H618 H 0.36482 0.1348 0.0613 0.0
H619 H 0.36797 0.07287 0.07135 0.0
C620 C 0.38202 0.36453 0.01289 0.0
C621 C 0.39057 0.35494 0.97197 0.0
C622 C 0.38067 0.40047 0.0211 0.0
C623 C 0.37556 0.47621 1.00041 0.0
H624 H 0.4016 0.54901 0.013 0.0
C625 C 0.37151 0.62614 0.98762 0.0
C626 C 0.3782 0.64977 0.02996 0.0
C627 C 0.37328 0.59051 0.98189 0.0
C628 C 0.39423 0.52901 1.01015 0.0
H629 H 0.40434 0.37547 0.90696 0.0
H630 H 0.40192 0.43822 0.92052 0.0
H631 H 0.40412 0.48633 1.00104 0.0
H632 H 0.39213 0.65472 0.09889 0.0
H633 H 0.3952 0.5921 0.08946 0.0
H634 H 0.36567 0.51864 0.01059 0.0
C635 C 0.39635 0.41804 0.9472 0.0
C636 C 0.39568 0.49305 1.00244 0.0
C637 C 0.39769 0.38205 0.93898 0.0
C638 C 0.38682 0.63707 0.06602 0.0
C639 C 0.38861 0.60125 0.06026 0.0
C640 C 0.37412 0.51207 1.00802 0.0
C641 C 0.38784 0.42778 0.98852 0.0
C642 C 0.38636 0.46614 0.99726 0.0
C643 C 0.38179 0.57742 0.0184 0.0
C644 C 0.38343 0.53904 0.01261 0.0
H645 H 0.37641 0.34425 0.0391 0.0
H646 H 0.37411 0.40686 0.05392 0.0
H647 H 0.36818 0.45639 0.99598 0.0
H648 H 0.36486 0.63517 0.95869 0.0
H649 H 0.36801 0.57327 0.94818 0.0
C650 C 0.6421 0.1453 0.01451 0.0
C651 C 0.63359 0.15497 0.97348 0.0
C652 C 0.64348 0.10936 0.02252 0.0
C653 C 0.64868 0.03378 1.00145 0.0
H654 H 0.62268 0.96074 0.01305 0.0
C655 C 0.65284 0.88396 0.98773 0.0
C656 C 0.64612 0.86013 0.02982 0.0
C657 C 0.65107 0.9196 0.98221 0.0
C658 C 0.63003 0.98081 0.01048 0.0
H659 H 0.6199 0.1346 0.90808 0.0
H660 H 0.62236 0.07185 0.9213 0.0
H661 H 0.62012 0.02342 1.00147 0.0
H662 H 0.63213 0.85482 0.09854 0.0
H663 H 0.62905 0.91745 0.08945 0.0
H664 H 0.6586 0.9914 0.01152 0.0
C665 C 0.62788 0.09196 0.94822 0.0
C666 C 0.62857 0.01676 1.00299 0.0
C667 C 0.62652 0.12795 0.9402 0.0
C668 C 0.63747 0.87263 0.06585 0.0
C669 C 0.63567 0.90845 0.06029 0.0
C670 C 0.65014 0.99791 1.00884 0.0
C671 C 0.63637 0.08213 0.98963 0.0
C672 C 0.63788 0.04376 0.99816 0.0
C673 C 0.64251 0.93248 0.01867 0.0
C674 C 0.64085 0.97085 0.01307 0.0
H675 H 0.64767 0.16551 0.04093 0.0
H676 H 0.65002 0.10289 0.05542 0.0
H677 H 0.65606 0.05367 0.99729 0.0
H678 H 0.65952 0.87508 0.95885 0.0
H679 H 0.65636 0.937 0.94869 0.0
C680 C 0.14732 0.24039 0.29171 0.0
C681 C 0.13903 0.25492 0.32769 0.0
C682 C 0.14746 0.24136 0.22222 0.0
C683 C 0.12966 0.25154 0.07556 0.0
H684 H 0.15819 0.27404 0.98453 0.0
C685 C 0.1325 0.27716 0.79241 0.0
C686 C 0.14079 0.26238 0.7569 0.0
C687 C 0.13237 0.27675 0.86193 0.0
C688 C 0.15017 0.26733 1.00911 0.0
H689 H 0.12432 0.28171 0.31848 0.0
H690 H 0.12461 0.28359 0.1971 0.0
H691 H 0.15767 0.2722 0.10573 0.0
H692 H 0.15553 0.23579 0.76699 0.0
H693 H 0.15526 0.23487 0.88835 0.0
H694 H 0.12216 0.24663 0.97894 0.0
C695 C 0.13095 0.27111 0.22275 0.0
C696 C 0.14986 0.26627 0.07865 0.0
C697 C 0.13081 0.27017 0.29239 0.0
C698 C 0.14904 0.24752 0.79269 0.0
C699 C 0.14891 0.24713 0.86233 0.0
C700 C 0.12996 0.2526 1.00601 0.0
C701 C 0.13931 0.25688 0.18682 0.0
C702 C 0.13961 0.25831 0.11277 0.0
C703 C 0.14053 0.26155 0.89781 0.0
C704 C 0.14022 0.26049 0.97189 0.0
H705 H 0.15377 0.22832 0.31714 0.0
H706 H 0.15392 0.22965 0.19618 0.0
H707 H 0.12164 0.2448 0.10015 0.0
H708 H 0.12603 0.28893 0.76658 0.0
H709 H 0.1259 0.28859 0.8876 0.0
C710 C 0.87662 0.26909 0.29189 0.0
C711 C 0.8849 0.25447 0.32788 0.0
C712 C 0.87648 0.26812 0.22241 0.0
C713 C 0.89424 0.25772 0.07557 0.0
H714 H 0.86569 0.23546 0.98514 0.0
C715 C 0.89135 0.23199 0.79267 0.0
C716 C 0.88307 0.24683 0.75714 0.0
C717 C 0.89149 0.23243 0.86219 0.0
C718 C 0.87372 0.24211 1.00955 0.0
H719 H 0.89957 0.22752 0.31868 0.0
H720 H 0.89928 0.22565 0.19731 0.0
H721 H 0.86623 0.23736 0.10632 0.0
H722 H 0.86836 0.27356 0.76719 0.0
H723 H 0.86865 0.27454 0.88854 0.0
H724 H 0.90174 0.26252 0.9788 0.0
C725 C 0.89296 0.2382 0.22296 0.0
C726 C 0.87404 0.24319 0.07908 0.0
C727 C 0.8931 0.23913 0.29259 0.0
C728 C 0.87485 0.26178 0.79291 0.0
C729 C 0.87498 0.2622 0.86255 0.0
C730 C 0.89393 0.25664 1.00603 0.0
C731 C 0.8846 0.25251 0.18702 0.0
C732 C 0.8843 0.25106 0.11298 0.0
C733 C 0.88335 0.24773 0.89805 0.0
C734 C 0.88366 0.24883 0.97212 0.0
H735 H 0.87019 0.28123 0.31732 0.0
H736 H 0.87003 0.27991 0.19638 0.0
H737 H 0.90227 0.26439 0.09999 0.0
H738 H 0.89781 0.22014 0.76686 0.0
H739 H 0.89795 0.22054 0.88788 0.0
C740 C 0.14919 0.74761 0.22908 0.0
C741 C 0.14096 0.76256 0.26483 0.0
C742 C 0.14906 0.74718 0.15944 0.0
C743 C 0.13011 0.75273 0.01593 0.0
H744 H 0.15781 0.77198 0.91565 0.0
C745 C 0.13094 0.77018 0.72939 0.0
C746 C 0.13914 0.75485 0.69409 0.0
C747 C 0.13109 0.77113 0.79902 0.0
C748 C 0.15001 0.76615 0.9429 0.0
H749 H 0.12623 0.78925 0.25508 0.0
H750 H 0.12609 0.78884 0.13406 0.0
H751 H 0.15835 0.7739 0.03683 0.0
H752 H 0.15385 0.72809 0.70465 0.0
H753 H 0.15401 0.72942 0.82559 0.0
H754 H 0.12177 0.74495 0.92199 0.0
C755 C 0.13255 0.77695 0.15976 0.0
C756 C 0.15032 0.76725 0.01242 0.0
C757 C 0.13268 0.7774 0.22928 0.0
C758 C 0.14742 0.74023 0.73008 0.0
C759 C 0.14756 0.7412 0.79956 0.0
C760 C 0.1298 0.75163 0.9464 0.0
C761 C 0.14069 0.76165 0.12391 0.0
C762 C 0.14038 0.76054 0.04985 0.0
C763 C 0.13944 0.75682 0.83495 0.0
C764 C 0.13974 0.75827 0.90899 0.0
H765 H 0.15567 0.73584 0.25481 0.0
H766 H 0.15539 0.73485 0.13346 0.0
H767 H 0.12231 0.74685 0.04317 0.0
H768 H 0.12447 0.7818 0.7033 0.0
H769 H 0.12477 0.78369 0.82466 0.0
C770 C 0.87677 0.76933 0.72928 0.0
C771 C 0.88508 0.75487 0.69333 0.0
C772 C 0.87668 0.7686 0.79878 0.0
C773 C 0.88693 0.72165 0.94277 0.0
H774 H 0.87956 0.80328 0.04143 0.0
C775 C 0.89155 0.73273 0.22848 0.0
C776 C 0.88323 0.74733 0.26411 0.0
C777 C 0.89167 0.73321 0.15896 0.0
C778 C 0.8815 0.78008 0.01465 0.0
H779 H 0.89988 0.72851 0.70259 0.0
H780 H 0.89977 0.72758 0.82403 0.0
H781 H 0.88026 0.80555 0.9203 0.0
H782 H 0.86841 0.77354 0.25421 0.0
H783 H 0.86856 0.77403 0.13282 0.0
H784 H 0.88817 0.69618 0.03715 0.0
C785 C 0.89324 0.73911 0.7983 0.0
C786 C 0.88192 0.7814 0.94515 0.0
C787 C 0.89335 0.73985 0.72866 0.0
C788 C 0.87496 0.76211 0.22843 0.0
C789 C 0.87508 0.76261 0.15879 0.0
C790 C 0.88651 0.72033 0.01229 0.0
C791 C 0.88488 0.7534 0.83422 0.0
C792 C 0.88463 0.75219 0.9083 0.0
C793 C 0.88347 0.74831 0.12319 0.0
C794 C 0.88379 0.74953 0.04912 0.0
H795 H 0.87024 0.781 0.70382 0.0
H796 H 0.87003 0.77941 0.82472 0.0
H797 H 0.88887 0.69845 0.91597 0.0
H798 H 0.89808 0.72124 0.25423 0.0
H799 H 0.89833 0.72237 0.13324 0.0
C800 C 0.6495 0.74882 0.29835 0.0
C801 C 0.6412 0.76343 0.26265 0.0
C802 C 0.64939 0.74838 0.36799 0.0
C803 C 0.6379 0.79053 0.51446 0.0
H804 H 0.64427 0.70545 0.60646 0.0
C805 C 0.63109 0.77085 0.79812 0.0
C806 C 0.63938 0.75591 0.83342 0.0
C807 C 0.6312 0.77166 0.72848 0.0
C808 C 0.64258 0.72957 0.58161 0.0
H809 H 0.6263 0.78931 0.27248 0.0
H810 H 0.62607 0.7883 0.39348 0.0
H811 H 0.64496 0.70772 0.48535 0.0
H812 H 0.65426 0.73002 0.82287 0.0
H813 H 0.65449 0.73172 0.70198 0.0
H814 H 0.63552 0.81237 0.61078 0.0
C815 C 0.63275 0.77754 0.36778 0.0
C816 C 0.643 0.73088 0.51212 0.0
C817 C 0.63286 0.77794 0.29825 0.0
C818 C 0.64772 0.74162 0.79743 0.0
C819 C 0.64782 0.74241 0.72794 0.0
C820 C 0.63749 0.78921 0.58399 0.0
C821 C 0.64097 0.76258 0.40357 0.0
C822 C 0.64066 0.76138 0.47764 0.0
C823 C 0.63958 0.75751 0.69253 0.0
C824 C 0.63984 0.75873 0.61846 0.0
H825 H 0.65606 0.73747 0.27259 0.0
H826 H 0.65594 0.73709 0.39398 0.0
H827 H 0.6362 0.81463 0.48959 0.0
H828 H 0.62454 0.78207 0.82421 0.0
H829 H 0.62465 0.78311 0.70277 0.0
C830 C 0.37664 0.76842 0.79762 0.0
C831 C 0.38496 0.754 0.83364 0.0
C832 C 0.3765 0.76741 0.72814 0.0
C833 C 0.3943 0.7573 0.58134 0.0
H834 H 0.36577 0.73442 0.49092 0.0
C835 C 0.39147 0.73155 0.29842 0.0
C836 C 0.38315 0.74621 0.2629 0.0
C837 C 0.3916 0.73197 0.36794 0.0
C838 C 0.3738 0.74124 0.51533 0.0
H839 H 0.3997 0.72737 0.82451 0.0
H840 H 0.3994 0.72542 0.70315 0.0
H841 H 0.36631 0.73637 0.6121 0.0
H842 H 0.36837 0.77258 0.273 0.0
H843 H 0.36865 0.77352 0.39434 0.0
H844 H 0.40179 0.76222 0.48457 0.0
C845 C 0.39305 0.73784 0.72876 0.0
C846 C 0.37411 0.74236 0.58485 0.0
C847 C 0.39319 0.73882 0.79839 0.0
C848 C 0.37488 0.76095 0.2987 0.0
C849 C 0.37501 0.76134 0.36834 0.0
C850 C 0.39399 0.75619 0.51181 0.0
C851 C 0.38466 0.75196 0.69279 0.0
C852 C 0.38436 0.75046 0.61875 0.0
C853 C 0.38342 0.74706 0.40382 0.0
C854 C 0.38374 0.74816 0.4779 0.0
H855 H 0.37018 0.78043 0.82302 0.0
H856 H 0.37002 0.77903 0.70208 0.0
H857 H 0.40233 0.76416 0.60576 0.0
H858 H 0.39796 0.71988 0.27258 0.0
H859 H 0.39809 0.72023 0.39361 0.0
C860 C 0.63099 0.27063 0.22303 0.0
C861 C 0.63927 0.25564 0.18775 0.0
C862 C 0.6311 0.27145 0.29267 0.0
C863 C 0.64249 0.2294 0.43979 0.0
H864 H 0.63614 0.31455 0.53108 0.0
C865 C 0.64944 0.24884 0.72279 0.0
C866 C 0.64114 0.26348 0.75847 0.0
C867 C 0.64932 0.24836 0.65316 0.0
C868 C 0.63782 0.29042 0.50642 0.0
H869 H 0.65413 0.22966 0.19832 0.0
H870 H 0.65437 0.23139 0.3192 0.0
H871 H 0.63544 0.31221 0.40992 0.0
H872 H 0.62625 0.2894 0.74859 0.0
H873 H 0.62601 0.28832 0.62759 0.0
H874 H 0.64487 0.20761 0.53624 0.0
C875 C 0.6477 0.2421 0.29324 0.0
C876 C 0.6374 0.28906 0.43691 0.0
C877 C 0.6476 0.2413 0.22375 0.0
C878 C 0.6328 0.278 0.72284 0.0
C879 C 0.63269 0.27755 0.65331 0.0
C880 C 0.64291 0.23076 0.50928 0.0
C881 C 0.63948 0.25727 0.32863 0.0
C882 C 0.63974 0.25854 0.4027 0.0
C883 C 0.6409 0.26255 0.61755 0.0
C884 C 0.64059 0.2613 0.54349 0.0
H885 H 0.62445 0.28188 0.19693 0.0
H886 H 0.62457 0.28294 0.31835 0.0
H887 H 0.64417 0.20525 0.41516 0.0
H888 H 0.656 0.23748 0.74858 0.0
H889 H 0.65586 0.23703 0.6272 0.0
C890 C 0.37651 0.26847 0.2223 0.0
C891 C 0.38485 0.25417 0.18633 0.0
C892 C 0.37641 0.26771 0.2918 0.0
C893 C 0.38676 0.22094 0.43576 0.0
H894 H 0.37925 0.30238 0.53445 0.0
C895 C 0.39139 0.23213 0.7215 0.0
C896 C 0.38304 0.24658 0.75712 0.0
C897 C 0.3915 0.23259 0.65196 0.0
C898 C 0.38123 0.27923 0.50767 0.0
H899 H 0.3997 0.22806 0.19557 0.0
H900 H 0.39959 0.22708 0.317 0.0
H901 H 0.37994 0.30466 0.41333 0.0
H902 H 0.36816 0.27249 0.74722 0.0
H903 H 0.36829 0.27295 0.62583 0.0
H904 H 0.38806 0.19552 0.53014 0.0
C905 C 0.39303 0.2385 0.29129 0.0
C906 C 0.38164 0.28055 0.43816 0.0
C907 C 0.39314 0.23928 0.22164 0.0
C908 C 0.37473 0.26118 0.72144 0.0
C909 C 0.37485 0.26166 0.6518 0.0
C910 C 0.38635 0.21962 0.50528 0.0
C911 C 0.38465 0.25263 0.32723 0.0
C912 C 0.38439 0.25141 0.4013 0.0
C913 C 0.38327 0.24752 0.6162 0.0
C914 C 0.38358 0.24874 0.54213 0.0
H915 H 0.36996 0.28004 0.19685 0.0
H916 H 0.36974 0.27839 0.31775 0.0
H917 H 0.38873 0.1978 0.40895 0.0
H918 H 0.39795 0.22078 0.74725 0.0
H919 H 0.39819 0.22187 0.62624 0.0
C920 C 0.0536 0.23931 0.45435 0.0
C921 C 0.06008 0.26807 0.48677 0.0
C922 C 0.04188 0.23703 0.45153 0.0
C923 C 0.01796 0.26872 0.53763 0.0
H924 H 1.00161 0.24059 0.37583 0.0
C925 C 0.9705 0.27568 0.5165 0.0
C926 C 0.96379 0.24778 0.48305 0.0
C927 C 0.98222 0.27883 0.51407 0.0
C928 C 1.00601 0.24809 0.42172 0.0
H929 H 0.05922 0.31674 0.54237 0.0
H930 H 0.0389 0.31296 0.53688 0.0
H931 H 0.022 0.24398 0.37757 0.0
H932 H 0.96431 0.20201 0.41874 0.0
H933 H 0.98468 0.2069 0.41602 0.0
H934 H 1.00204 0.27241 0.58224 0.0
C935 C 0.04285 0.29207 0.51375 0.0
C936 C 0.01773 0.25005 0.42265 0.0
C937 C 0.05454 0.29446 0.51618 0.0
C938 C 0.96916 0.22359 0.44588 0.0
C939 C 0.98089 0.22665 0.44366 0.0
C940 C 1.00626 0.26659 0.53683 0.0
C941 C 0.03635 0.26327 0.48165 0.0
C942 C 0.02386 0.26055 0.48056 0.0
C943 C 0.9876 0.25408 0.47838 0.0
C944 C 1.00011 0.25639 0.47881 0.0
H945 H 0.05758 0.21861 0.43088 0.0
H946 H 0.03713 0.21435 0.42682 0.0
H947 H 0.02238 0.27628 0.58347 0.0
H948 H 0.96672 0.29463 0.54628 0.0
H949 H 0.98706 0.30067 0.54056 0.0
C950 C 0.96929 0.72394 0.57532 0.0
C951 C 0.96393 0.74811 0.53787 0.0
C952 C 0.98102 0.727 0.57756 0.0
C953 C 1.00643 0.76685 0.48411 0.0
H954 H 0.0221 0.7444 0.64373 0.0
C955 C 0.0547 0.79482 0.50482 0.0
C956 C 0.06023 0.76848 0.5346 0.0
C957 C 0.04301 0.7924 0.50717 0.0
C958 C 0.01785 0.75043 0.59855 0.0
H959 H 0.96689 0.7949 0.47415 0.0
H960 H 0.98723 0.80093 0.47988 0.0
H961 H 1.00171 0.74099 0.64536 0.0
H962 H 0.05772 0.71907 0.59103 0.0
H963 H 0.03726 0.71476 0.59494 0.0
H964 H 0.02257 0.77652 0.43747 0.0
C965 C 0.98238 0.77911 0.50659 0.0
C966 C 1.00613 0.74846 0.59943 0.0
C967 C 0.97066 0.77598 0.50415 0.0
C968 C 0.05374 0.73973 0.56728 0.0
C969 C 0.04202 0.73743 0.57001 0.0
C970 C 0.01813 0.76899 0.48336 0.0
C971 C 0.98774 0.75439 0.54257 0.0
C972 C 1.00025 0.7567 0.5422 0.0
C973 C 0.0365 0.76363 0.53954 0.0
C974 C 0.024 0.76089 0.54057 0.0
H975 H 0.96443 0.70239 0.60268 0.0
H976 H 0.9848 0.70727 0.60543 0.0
H977 H 1.00223 0.77263 0.43861 0.0
H978 H 0.05939 0.81708 0.47842 0.0
H979 H 0.03907 0.81325 0.48376 0.0
C980 C 0.55477 0.79431 0.02666 0.0
C981 C 0.56032 0.76829 0.99602 0.0
C982 C 0.54308 0.79185 0.02457 0.0
C983 C 0.51799 0.75091 0.93214 0.0
H984 H 0.50224 0.77139 0.09267 0.0
C985 C 0.46943 0.72453 0.95376 0.0
C986 C 0.46403 0.74828 0.9919 0.0
C987 C 0.48115 0.7275 0.95194 0.0
C988 C 0.50648 0.76609 0.04702 0.0
H989 H 0.55783 0.71939 0.93847 0.0
H990 H 0.53737 0.71503 0.93493 0.0
H991 H 0.52258 0.77518 0.09401 0.0
H992 H 0.46693 0.79423 0.05737 0.0
H993 H 0.48728 0.80015 0.05235 0.0
H994 H 0.5019 0.74211 0.88494 0.0
C995 C 0.54212 0.73747 0.96034 0.0
C996 C 0.51818 0.76818 0.04789 0.0
C997 C 0.55384 0.7398 0.96284 0.0
C998 C 0.47073 0.77565 0.02681 0.0
C999 C 0.48245 0.7787 0.02477 0.0
C1000 C 0.50628 0.74902 0.93114 0.0
C1001 C 0.53659 0.76337 0.99156 0.0
C1002 C 0.5241 0.76068 0.99047 0.0
C1003 C 0.48784 0.7544 0.98801 0.0
C1004 C 0.50035 0.75663 0.98858 0.0
H1005 H 0.55946 0.81635 0.05346 0.0
H1006 H 0.53913 0.81246 0.04859 0.0
H1007 H 0.52228 0.74538 0.88679 0.0
H1008 H 0.46459 0.70338 0.9255 0.0
H1009 H 0.48495 0.70808 0.92346 0.0
C1010 C 0.46926 0.22405 0.066 0.0
C1011 C 0.46389 0.24793 0.0279 0.0
C1012 C 0.48099 0.227 0.06788 0.0
C1013 C 0.50639 0.26592 0.97311 0.0
H1014 H 0.52208 0.24467 0.13337 0.0
C1015 C 0.55467 0.29417 0.99397 0.0
C1016 C 0.56021 0.26808 0.0246 0.0
C1017 C 0.54297 0.29167 0.99594 0.0
C1018 C 0.51782 0.25036 0.08802 0.0
H1019 H 0.46683 0.29407 0.96256 0.0
H1020 H 0.48718 0.29995 0.96769 0.0
H1021 H 0.5017 0.24136 0.13504 0.0
H1022 H 0.55769 0.21901 0.08201 0.0
H1023 H 0.53722 0.21457 0.08533 0.0
H1024 H 0.52251 0.27521 0.92629 0.0
C1025 C 0.48233 0.27842 0.99519 0.0
C1026 C 0.50611 0.24843 0.08891 0.0
C1027 C 0.47061 0.27539 0.99309 0.0
C1028 C 0.55371 0.23948 0.05764 0.0
C1029 C 0.54198 0.2371 0.06002 0.0
C1030 C 0.51808 0.26803 0.97234 0.0
C1031 C 0.4877 0.254 0.03191 0.0
C1032 C 0.50021 0.25625 0.03145 0.0
C1033 C 0.53646 0.26307 0.02881 0.0
C1034 C 0.52397 0.26034 0.02978 0.0
H1035 H 0.46441 0.20282 0.09418 0.0
H1036 H 0.48477 0.20749 0.09633 0.0
H1037 H 0.50217 0.27137 0.92744 0.0
H1038 H 0.55937 0.31632 0.96728 0.0
H1039 H 0.53903 0.31234 0.97193 0.0
loop_
_geom_bond_atom_site_label_1
_geom_bond_atom_site_label_2
_geom_bond_distance
_geom_bond_site_symmetry_2
_ccdc_geom_bond_type
C0 Eu1 2.835 . S
C0 C2 1.500 . S
C0 O20 1.257 . S
C0 O21 1.260 . S
Eu1 C0 2.835 . S
Eu1 O20 2.473 . S
Eu1 O21 2.480 . S
Eu1 O22 2.430 . S
Eu1 O23 2.670 . S
Eu1 O24 2.394 . S
Eu1 O29 2.355 . S
Eu1 O31 2.374 . S
C2 C0 1.500 . S
C2 C3 1.377 . S
C2 C7 1.377 . S
C3 C2 1.377 . S
C3 C4 1.395 . S
C3 H32 0.931 . S
C4 C3 1.395 . S
C4 C5 1.383 . S
C4 H33 0.931 . S
C5 C4 1.383 . S
C5 C6 1.394 . S
C6 C5 1.394 . S
C6 C7 1.378 . S
C6 H34 0.931 . S
C7 C2 1.377 . S
C7 C6 1.378 . S
C7 H35 0.931 . S
C8 O22 1.259 . S
C8 O23 1.270 . S
C9 O24 1.251 . S
C9 O25 1.251 . S
C10 Eu11 2.835 . S
C10 C12 1.500 . S
C10 O26 1.257 . S
C10 O27 1.260 . S
Eu11 C10 2.835 . S
Eu11 O23 2.355 . S
Eu11 O25 2.374 . S
Eu11 O26 2.473 . S
Eu11 O27 2.480 . S
Eu11 O28 2.430 . S
Eu11 O29 2.670 . S
Eu11 O30 2.394 . S
C12 C10 1.500 . S
C12 C13 1.377 . S
C12 C17 1.377 . S
C13 C12 1.377 . S
C13 C14 1.395 . S
C13 H36 0.931 . S
C14 C13 1.395 . S
C14 C15 1.383 . S
C14 H37 0.931 . S
C15 C14 1.383 . S
C15 C16 1.394 . S
C16 C15 1.394 . S
C16 C17 1.378 . S
C16 H38 0.931 . S
C17 C12 1.377 . S
C17 C16 1.378 . S
C17 H39 0.931 . S
C18 O28 1.259 . S
C18 O29 1.270 . S
C19 O30 1.251 . S
C19 O31 1.251 . S
O20 C0 1.257 . S
O20 Eu1 2.473 . S
O21 C0 1.260 . S
O21 Eu1 2.480 . S
O22 Eu1 2.430 . S
O22 C8 1.259 . S
O23 Eu1 2.670 . S
O23 C8 1.270 . S
O23 Eu11 2.355 . S
O24 Eu1 2.394 . S
O24 C9 1.251 . S
O25 C9 1.251 . S
O25 Eu11 2.374 . S
O26 C10 1.257 . S
O26 Eu11 2.473 . S
O27 C10 1.260 . S
O27 Eu11 2.480 . S
O28 Eu11 2.430 . S
O28 C18 1.259 . S
O29 Eu1 2.355 . S
O29 Eu11 2.670 . S
O29 C18 1.270 . S
O30 Eu11 2.394 . S
O30 C19 1.251 . S
O31 Eu1 2.374 . S
O31 C19 1.251 . S
H32 C3 0.931 . S
H33 C4 0.931 . S
H34 C6 0.931 . S
H35 C7 0.931 . S
H36 C13 0.931 . S
H37 C14 0.931 . S
H38 C16 0.931 . S
H39 C17 0.931 . S
C40 Eu41 2.835 . S
C40 C42 1.500 . S
C40 O60 1.257 . S
C40 O61 1.260 . S
Eu41 C40 2.835 . S
Eu41 O60 2.473 . S
Eu41 O61 2.480 . S
Eu41 O62 2.430 . S
Eu41 O63 2.670 . S
Eu41 O64 2.394 . S
Eu41 O69 2.355 . S
Eu41 O71 2.374 . S
C42 C40 1.500 . S
C42 C43 1.377 . S
C42 C47 1.377 . S
C43 C42 1.377 . S
C43 C44 1.395 . S
C43 H72 0.931 . S
C44 C43 1.395 . S
C44 C45 1.383 . S
C44 H73 0.931 . S
C45 C44 1.383 . S
C45 C46 1.394 . S
C46 C45 1.394 . S
C46 C47 1.378 . S
C46 H74 0.931 . S
C47 C42 1.377 . S
C47 C46 1.378 . S
C47 H75 0.931 . S
C48 O62 1.259 . S
C48 O63 1.270 . S
C49 O64 1.251 . S
C49 O65 1.251 . S
C50 Eu51 2.835 . S
C50 C52 1.500 . S
C50 O66 1.257 . S
C50 O67 1.260 . S
Eu51 C50 2.835 . S
Eu51 O63 2.355 . S
Eu51 O65 2.374 . S
Eu51 O66 2.473 . S
Eu51 O67 2.480 . S
Eu51 O68 2.430 . S
Eu51 O69 2.670 . S
Eu51 O70 2.394 . S
C52 C50 1.500 . S
C52 C53 1.377 . S
C52 C57 1.377 . S
C53 C52 1.377 . S
C53 C54 1.395 . S
C53 H76 0.931 . S
C54 C53 1.395 . S
C54 C55 1.383 . S
C54 H77 0.931 . S
C55 C54 1.383 . S
C55 C56 1.394 . S
C56 C55 1.394 . S
C56 C57 1.378 . S
C56 H78 0.931 . S
C57 C52 1.377 . S
C57 C56 1.378 . S
C57 H79 0.931 . S
C58 O68 1.259 . S
C58 O69 1.270 . S
C59 O70 1.251 . S
C59 O71 1.251 . S
O60 C40 1.257 . S
O60 Eu41 2.473 . S
O61 C40 1.260 . S
O61 Eu41 2.480 . S
O62 Eu41 2.430 . S
O62 C48 1.259 . S
O63 Eu41 2.670 . S
O63 C48 1.270 . S
O63 Eu51 2.355 . S
O64 Eu41 2.394 . S
O64 C49 1.251 . S
O65 C49 1.251 . S
O65 Eu51 2.374 . S
O66 C50 1.257 . S
O66 Eu51 2.473 . S
O67 C50 1.260 . S
O67 Eu51 2.480 . S
O68 Eu51 2.430 . S
O68 C58 1.259 . S
O69 Eu41 2.355 . S
O69 Eu51 2.670 . S
O69 C58 1.270 . S
O70 Eu51 2.394 . S
O70 C59 1.251 . S
O71 Eu41 2.374 . S
O71 C59 1.251 . S
H72 C43 0.931 . S
H73 C44 0.931 . S
H74 C46 0.931 . S
H75 C47 0.931 . S
H76 C53 0.931 . S
H77 C54 0.931 . S
H78 C56 0.931 . S
H79 C57 0.931 . S
C80 Eu81 2.835 . S
C80 C82 1.500 . S
C80 O100 1.257 . S
C80 O101 1.260 . S
Eu81 C80 2.835 . S
Eu81 O100 2.473 . S
Eu81 O101 2.480 . S
Eu81 O102 2.430 . S
Eu81 O103 2.670 . S
Eu81 O104 2.394 . S
Eu81 O109 2.355 . S
Eu81 O111 2.374 . S
C82 C80 1.500 . S
C82 C83 1.377 . S
C82 C87 1.377 . S
C83 C82 1.377 . S
C83 C84 1.395 . S
C83 H112 0.931 . S
C84 C83 1.395 . S
C84 C85 1.383 . S
C84 H113 0.931 . S
C85 C84 1.383 . S
C85 C86 1.394 . S
C86 C85 1.394 . S
C86 C87 1.378 . S
C86 H114 0.931 . S
C87 C82 1.377 . S
C87 C86 1.378 . S
C87 H115 0.931 . S
C88 O102 1.259 . S
C88 O103 1.270 . S
C89 O104 1.251 . S
C89 O105 1.251 . S
C90 Eu91 2.835 . S
C90 C92 1.500 . S
C90 O106 1.257 . S
C90 O107 1.260 . S
Eu91 C90 2.835 . S
Eu91 O103 2.355 . S
Eu91 O105 2.374 . S
Eu91 O106 2.473 . S
Eu91 O107 2.480 . S
Eu91 O108 2.430 . S
Eu91 O109 2.670 . S
Eu91 O110 2.394 . S
C92 C90 1.500 . S
C92 C93 1.377 . S
C92 C97 1.377 . S
C93 C92 1.377 . S
C93 C94 1.395 . S
C93 H116 0.931 . S
C94 C93 1.395 . S
C94 C95 1.383 . S
C94 H117 0.931 . S
C95 C94 1.383 . S
C95 C96 1.394 . S
C96 C95 1.394 . S
C96 C97 1.378 . S
C96 H118 0.931 . S
C97 C92 1.377 . S
C97 C96 1.378 . S
C97 H119 0.931 . S
C98 O108 1.259 . S
C98 O109 1.270 . S
C99 O110 1.251 . S
C99 O111 1.251 . S
O100 C80 1.257 . S
O100 Eu81 2.473 . S
O101 C80 1.260 . S
O101 Eu81 2.480 . S
O102 Eu81 2.430 . S
O102 C88 1.259 . S
O103 Eu81 2.670 . S
O103 C88 1.270 . S
O103 Eu91 2.355 . S
O104 Eu81 2.394 . S
O104 C89 1.251 . S
O105 C89 1.251 . S
O105 Eu91 2.374 . S
O106 C90 1.257 . S
O106 Eu91 2.473 . S
O107 C90 1.260 . S
O107 Eu91 2.480 . S
O108 Eu91 2.430 . S
O108 C98 1.259 . S
O109 Eu81 2.355 . S
O109 Eu91 2.670 . S
O109 C98 1.270 . S
O110 Eu91 2.394 . S
O110 C99 1.251 . S
O111 Eu81 2.374 . S
O111 C99 1.251 . S
H112 C83 0.931 . S
H113 C84 0.931 . S
H114 C86 0.931 . S
H115 C87 0.931 . S
H116 C93 0.931 . S
H117 C94 0.931 . S
H118 C96 0.931 . S
H119 C97 0.931 . S
C120 Eu121 2.835 . S
C120 C122 1.500 . S
C120 O140 1.257 . S
C120 O141 1.260 . S
Eu121 C120 2.835 . S
Eu121 O140 2.473 . S
Eu121 O141 2.480 . S
Eu121 O142 2.430 . S
Eu121 O143 2.670 . S
Eu121 O144 2.394 . S
Eu121 O149 2.355 . S
Eu121 O151 2.374 . S
C122 C120 1.500 . S
C122 C123 1.377 . S
C122 C127 1.377 . S
C123 C122 1.377 . S
C123 C124 1.395 . S
C123 H152 0.931 . S
C124 C123 1.395 . S
C124 C125 1.383 . S
C124 H153 0.931 . S
C125 C124 1.383 . S
C125 C126 1.394 . S
C126 C125 1.394 . S
C126 C127 1.378 . S
C126 H154 0.931 . S
C127 C122 1.377 . S
C127 C126 1.378 . S
C127 H155 0.931 . S
C128 O142 1.259 . S
C128 O143 1.270 . S
C129 O144 1.251 . S
C129 O145 1.251 . S
C130 Eu131 2.835 . S
C130 C132 1.500 . S
C130 O146 1.257 . S
C130 O147 1.260 . S
Eu131 C130 2.835 . S
Eu131 O143 2.355 . S
Eu131 O145 2.374 . S
Eu131 O146 2.473 . S
Eu131 O147 2.480 . S
Eu131 O148 2.430 . S
Eu131 O149 2.670 . S
Eu131 O150 2.394 . S
C132 C130 1.500 . S
C132 C133 1.377 . S
C132 C137 1.377 . S
C133 C132 1.377 . S
C133 C134 1.395 . S
C133 H156 0.931 . S
C134 C133 1.395 . S
C134 C135 1.383 . S
C134 H157 0.931 . S
C135 C134 1.383 . S
C135 C136 1.394 . S
C136 C135 1.394 . S
C136 C137 1.378 . S
C136 H158 0.931 . S
C137 C132 1.377 . S
C137 C136 1.378 . S
C137 H159 0.931 . S
C138 O148 1.259 . S
C138 O149 1.270 . S
C139 O150 1.251 . S
C139 O151 1.251 . S
O140 C120 1.257 . S
O140 Eu121 2.473 . S
O141 C120 1.260 . S
O141 Eu121 2.480 . S
O142 Eu121 2.430 . S
O142 C128 1.259 . S
O143 Eu121 2.670 . S
O143 C128 1.270 . S
O143 Eu131 2.355 . S
O144 Eu121 2.394 . S
O144 C129 1.251 . S
O145 C129 1.251 . S
O145 Eu131 2.374 . S
O146 C130 1.257 . S
O146 Eu131 2.473 . S
O147 C130 1.260 . S
O147 Eu131 2.480 . S
O148 Eu131 2.430 . S
O148 C138 1.259 . S
O149 Eu121 2.355 . S
O149 Eu131 2.670 . S
O149 C138 1.270 . S
O150 Eu131 2.394 . S
O150 C139 1.251 . S
O151 Eu121 2.374 . S
O151 C139 1.251 . S
H152 C123 0.931 . S
H153 C124 0.931 . S
H154 C126 0.931 . S
H155 C127 0.931 . S
H156 C133 0.931 . S
H157 C134 0.931 . S
H158 C136 0.931 . S
H159 C137 0.931 . S
C160 Eu161 2.835 1_554 S
C160 C162 1.500 . S
C160 O180 1.257 . S
C160 O181 1.260 . S
Eu161 C160 2.835 1_556 S
Eu161 O180 2.473 1_556 S
Eu161 O181 2.480 1_556 S
Eu161 O182 2.430 . S
Eu161 O183 2.670 . S
Eu161 O184 2.394 1_556 S
Eu161 O189 2.355 1_556 S
Eu161 O191 2.374 . S
C162 C160 1.500 . S
C162 C163 1.377 . S
C162 C167 1.377 . S
C163 C162 1.377 . S
C163 C164 1.395 . S
C163 H192 0.931 . S
C164 C163 1.395 . S
C164 C165 1.383 . S
C164 H193 0.931 . S
C165 C164 1.383 . S
C165 C166 1.394 . S
C166 C165 1.394 . S
C166 C167 1.378 . S
C166 H194 0.931 . S
C167 C162 1.377 . S
C167 C166 1.378 . S
C167 H195 0.931 . S
C168 O182 1.259 . S
C168 O183 1.270 . S
C169 O184 1.251 . S
C169 O185 1.251 . S
C170 Eu171 2.835 1_556 S
C170 C172 1.500 . S
C170 O186 1.257 . S
C170 O187 1.260 . S
Eu171 C170 2.835 1_554 S
Eu171 O183 2.355 1_554 S
Eu171 O185 2.374 . S
Eu171 O186 2.473 1_554 S
Eu171 O187 2.480 1_554 S
Eu171 O188 2.430 . S
Eu171 O189 2.670 . S
Eu171 O190 2.394 1_554 S
C172 C170 1.500 . S
C172 C173 1.377 . S
C172 C177 1.377 . S
C173 C172 1.377 . S
C173 C174 1.395 . S
C173 H196 0.931 . S
C174 C173 1.395 . S
C174 C175 1.383 . S
C174 H197 0.931 . S
C175 C174 1.383 . S
C175 C176 1.394 . S
C176 C175 1.394 . S
C176 C177 1.378 . S
C176 H198 0.931 . S
C177 C172 1.377 . S
C177 C176 1.378 . S
C177 H199 0.931 . S
C178 O188 1.259 . S
C178 O189 1.270 . S
C179 O190 1.251 . S
C179 O191 1.251 . S
O180 C160 1.257 . S
O180 Eu161 2.473 1_554 S
O181 C160 1.260 . S
O181 Eu161 2.480 1_554 S
O182 Eu161 2.430 . S
O182 C168 1.259 . S
O183 Eu161 2.670 . S
O183 C168 1.270 . S
O183 Eu171 2.355 1_556 S
O184 Eu161 2.394 1_554 S
O184 C169 1.251 . S
O185 C169 1.251 . S
O185 Eu171 2.374 . S
O186 C170 1.257 . S
O186 Eu171 2.473 1_556 S
O187 C170 1.260 . S
O187 Eu171 2.480 1_556 S
O188 Eu171 2.430 . S
O188 C178 1.259 . S
O189 Eu161 2.355 1_554 S
O189 Eu171 2.670 . S
O189 C178 1.270 . S
O190 Eu171 2.394 1_556 S
O190 C179 1.251 . S
O191 Eu161 2.374 . S
O191 C179 1.251 . S
H192 C163 0.931 . S
H193 C164 0.931 . S
H194 C166 0.931 . S
H195 C167 0.931 . S
H196 C173 0.931 . S
H197 C174 0.931 . S
H198 C176 0.931 . S
H199 C177 0.931 . S
C200 Eu201 2.835 1_554 S
C200 C202 1.500 . S
C200 O220 1.257 . S
C200 O221 1.260 . S
Eu201 C200 2.835 1_556 S
Eu201 O220 2.473 1_556 S
Eu201 O221 2.480 1_556 S
Eu201 O222 2.430 . S
Eu201 O223 2.670 . S
Eu201 O224 2.394 1_556 S
Eu201 O229 2.355 1_556 S
Eu201 O231 2.374 . S
C202 C200 1.500 . S
C202 C203 1.377 . S
C202 C207 1.377 . S
C203 C202 1.377 . S
C203 C204 1.395 . S
C203 H232 0.931 . S
C204 C203 1.395 . S
C204 C205 1.383 . S
C204 H233 0.931 . S
C205 C204 1.383 . S
C205 C206 1.394 . S
C206 C205 1.394 . S
C206 C207 1.378 . S
C206 H234 0.931 . S
C207 C202 1.377 . S
C207 C206 1.378 . S
C207 H235 0.931 . S
C208 O222 1.259 . S
C208 O223 1.270 . S
C209 O224 1.251 . S
C209 O225 1.251 . S
C210 Eu211 2.835 1_556 S
C210 C212 1.500 . S
C210 O226 1.257 . S
C210 O227 1.260 . S
Eu211 C210 2.835 1_554 S
Eu211 O223 2.355 1_554 S
Eu211 O225 2.374 . S
Eu211 O226 2.473 1_554 S
Eu211 O227 2.480 1_554 S
Eu211 O228 2.430 . S
Eu211 O229 2.670 . S
Eu211 O230 2.394 1_554 S
C212 C210 1.500 . S
C212 C213 1.377 . S
C212 C217 1.377 . S
C213 C212 1.377 . S
C213 C214 1.395 . S
C213 H236 0.931 . S
C214 C213 1.395 . S
C214 C215 1.383 . S
C214 H237 0.931 . S
C215 C214 1.383 . S
C215 C216 1.394 . S
C216 C215 1.394 . S
C216 C217 1.378 . S
C216 H238 0.931 . S
C217 C212 1.377 . S
C217 C216 1.378 . S
C217 H239 0.931 . S
C218 O228 1.259 . S
C218 O229 1.270 . S
C219 O230 1.251 . S
C219 O231 1.251 . S
O220 C200 1.257 . S
O220 Eu201 2.473 1_554 S
O221 C200 1.260 . S
O221 Eu201 2.480 1_554 S
O222 Eu201 2.430 . S
O222 C208 1.259 . S
O223 Eu201 2.670 . S
O223 C208 1.270 . S
O223 Eu211 2.355 1_556 S
O224 Eu201 2.394 1_554 S
O224 C209 1.251 . S
O225 C209 1.251 . S
O225 Eu211 2.374 . S
O226 C210 1.257 . S
O226 Eu211 2.473 1_556 S
O227 C210 1.260 . S
O227 Eu211 2.480 1_556 S
O228 Eu211 2.430 . S
O228 C218 1.259 . S
O229 Eu201 2.355 1_554 S
O229 Eu211 2.670 . S
O229 C218 1.270 . S
O230 Eu211 2.394 1_556 S
O230 C219 1.251 . S
O231 Eu201 2.374 . S
O231 C219 1.251 . S
H232 C203 0.931 . S
H233 C204 0.931 . S
H234 C206 0.931 . S
H235 C207 0.931 . S
H236 C213 0.931 . S
H237 C214 0.931 . S
H238 C216 0.931 . S
H239 C217 0.931 . S
C240 Eu241 2.835 1_554 S
C240 C242 1.500 . S
C240 O260 1.257 . S
C240 O261 1.260 . S
Eu241 C240 2.835 1_556 S
Eu241 O260 2.473 1_556 S
Eu241 O261 2.480 1_556 S
Eu241 O262 2.430 . S
Eu241 O263 2.670 . S
Eu241 O264 2.394 1_556 S
Eu241 O269 2.355 1_556 S
Eu241 O271 2.374 . S
C242 C240 1.500 . S
C242 C243 1.377 . S
C242 C247 1.377 . S
C243 C242 1.377 . S
C243 C244 1.395 . S
C243 H272 0.931 . S
C244 C243 1.395 . S
C244 C245 1.383 . S
C244 H273 0.931 . S
C245 C244 1.383 . S
C245 C246 1.394 . S
C246 C245 1.394 . S
C246 C247 1.378 . S
C246 H274 0.931 . S
C247 C242 1.377 . S
C247 C246 1.378 . S
C247 H275 0.931 . S
C248 O262 1.259 . S
C248 O263 1.270 . S
C249 O264 1.251 . S
C249 O265 1.251 . S
C250 Eu251 2.835 1_556 S
C250 C252 1.500 . S
C250 O266 1.257 . S
C250 O267 1.260 . S
Eu251 C250 2.835 1_554 S
Eu251 O263 2.355 1_554 S
Eu251 O265 2.374 . S
Eu251 O266 2.473 1_554 S
Eu251 O267 2.480 1_554 S
Eu251 O268 2.430 . S
Eu251 O269 2.670 . S
Eu251 O270 2.394 1_554 S
C252 C250 1.500 . S
C252 C253 1.377 . S
C252 C257 1.377 . S
C253 C252 1.377 . S
C253 C254 1.395 . S
C253 H276 0.931 . S
C254 C253 1.395 . S
C254 C255 1.383 . S
C254 H277 0.931 . S
C255 C254 1.383 . S
C255 C256 1.394 . S
C256 C255 1.394 . S
C256 C257 1.378 . S
C256 H278 0.931 . S
C257 C252 1.377 . S
C257 C256 1.378 . S
C257 H279 0.931 . S
C258 O268 1.259 . S
C258 O269 1.270 . S
C259 O270 1.251 . S
C259 O271 1.251 . S
O260 C240 1.257 . S
O260 Eu241 2.473 1_554 S
O261 C240 1.260 . S
O261 Eu241 2.480 1_554 S
O262 Eu241 2.430 . S
O262 C248 1.259 . S
O263 Eu241 2.670 . S
O263 C248 1.270 . S
O263 Eu251 2.355 1_556 S
O264 Eu241 2.394 1_554 S
O264 C249 1.251 . S
O265 C249 1.251 . S
O265 Eu251 2.374 . S
O266 C250 1.257 . S
O266 Eu251 2.473 1_556 S
O267 C250 1.260 . S
O267 Eu251 2.480 1_556 S
O268 Eu251 2.430 . S
O268 C258 1.259 . S
O269 Eu241 2.355 1_554 S
O269 Eu251 2.670 . S
O269 C258 1.270 . S
O270 Eu251 2.394 1_556 S
O270 C259 1.251 . S
O271 Eu241 2.374 . S
O271 C259 1.251 . S
H272 C243 0.931 . S
H273 C244 0.931 . S
H274 C246 0.931 . S
H275 C247 0.931 . S
H276 C253 0.931 . S
H277 C254 0.931 . S
H278 C256 0.931 . S
H279 C257 0.931 . S
C280 Eu281 2.835 1_554 S
C280 C282 1.500 . S
C280 O300 1.257 . S
C280 O301 1.260 . S
Eu281 C280 2.835 1_556 S
Eu281 O300 2.473 1_556 S
Eu281 O301 2.480 1_556 S
Eu281 O302 2.430 . S
Eu281 O303 2.670 . S
Eu281 O304 2.394 1_556 S
Eu281 O309 2.355 1_556 S
Eu281 O311 2.374 . S
C282 C280 1.500 . S
C282 C283 1.377 . S
C282 C287 1.377 . S
C283 C282 1.377 . S
C283 C284 1.395 . S
C283 H312 0.931 . S
C284 C283 1.395 . S
C284 C285 1.383 . S
C284 H313 0.931 . S
C285 C284 1.383 . S
C285 C286 1.394 . S
C286 C285 1.394 . S
C286 C287 1.378 . S
C286 H314 0.931 . S
C287 C282 1.377 . S
C287 C286 1.378 . S
C287 H315 0.931 . S
C288 O302 1.259 . S
C288 O303 1.270 . S
C289 O304 1.251 . S
C289 O305 1.251 . S
C290 Eu291 2.835 1_556 S
C290 C292 1.500 . S
C290 O306 1.257 . S
C290 O307 1.260 . S
Eu291 C290 2.835 1_554 S
Eu291 O303 2.355 1_554 S
Eu291 O305 2.374 . S
Eu291 O306 2.473 1_554 S
Eu291 O307 2.480 1_554 S
Eu291 O308 2.430 . S
Eu291 O309 2.670 . S
Eu291 O310 2.394 1_554 S
C292 C290 1.500 . S
C292 C293 1.377 . S
C292 C297 1.377 . S
C293 C292 1.377 . S
C293 C294 1.395 . S
C293 H316 0.931 . S
C294 C293 1.395 . S
C294 C295 1.383 . S
C294 H317 0.931 . S
C295 C294 1.383 . S
C295 C296 1.394 . S
C296 C295 1.394 . S
C296 C297 1.378 . S
C296 H318 0.931 . S
C297 C292 1.377 . S
C297 C296 1.378 . S
C297 H319 0.931 . S
C298 O308 1.259 . S
C298 O309 1.270 . S
C299 O310 1.251 . S
C299 O311 1.251 . S
O300 C280 1.257 . S
O300 Eu281 2.473 1_554 S
O301 C280 1.260 . S
O301 Eu281 2.480 1_554 S
O302 Eu281 2.430 . S
O302 C288 1.259 . S
O303 Eu281 2.670 . S
O303 C288 1.270 . S
O303 Eu291 2.355 1_556 S
O304 Eu281 2.394 1_554 S
O304 C289 1.251 . S
O305 C289 1.251 . S
O305 Eu291 2.374 . S
O306 C290 1.257 . S
O306 Eu291 2.473 1_556 S
O307 C290 1.260 . S
O307 Eu291 2.480 1_556 S
O308 Eu291 2.430 . S
O308 C298 1.259 . S
O309 Eu281 2.355 1_554 S
O309 Eu291 2.670 . S
O309 C298 1.270 . S
O310 Eu291 2.394 1_556 S
O310 C299 1.251 . S
O311 Eu281 2.374 . S
O311 C299 1.251 . S
H312 C283 0.931 . S
H313 C284 0.931 . S
H314 C286 0.931 . S
H315 C287 0.931 . S
H316 C293 0.931 . S
H317 C294 0.931 . S
H318 C296 0.931 . S
H319 C297 0.931 . S
C320 C321 1.349 . S
C320 C322 1.327 . S
C320 H345 0.950 . S
C321 C320 1.349 . S
C321 C337 1.349 . S
C322 C320 1.327 . S
C322 C341 1.429 . S
C322 H346 0.950 . S
C323 C340 1.574 . S
C323 C342 1.368 . S
C323 H347 0.949 . S
H324 C328 0.949 . S
C325 C326 1.349 . S
C325 C327 1.327 . S
C325 H348 0.950 . S
C326 C325 1.349 . S
C326 C338 1.349 . S
C327 C325 1.327 . S
C327 C343 1.429 . S
C327 H349 0.950 . S
C328 H324 0.949 . S
C328 C336 1.574 . S
C328 C344 1.368 . S
H329 C337 0.950 . S
H330 C335 0.950 . S
H331 C336 0.949 . S
H332 C338 0.950 . S
H333 C339 0.950 . S
H334 C340 0.949 . S
C335 H330 0.950 . S
C335 C337 1.327 . S
C335 C341 1.429 . S
C336 C328 1.574 . S
C336 H331 0.949 . S
C336 C342 1.368 . S
C337 C321 1.349 . S
C337 H329 0.950 . S
C337 C335 1.327 . S
C338 C326 1.349 . S
C338 H332 0.950 . S
C338 C339 1.327 . S
C339 H333 0.950 . S
C339 C338 1.327 . S
C339 C343 1.429 . S
C340 C323 1.574 . S
C340 H334 0.949 . S
C340 C344 1.368 . S
C341 C322 1.429 . S
C341 C335 1.429 . S
C341 C342 1.523 . S
C342 C323 1.368 . S
C342 C336 1.368 . S
C342 C341 1.523 . S
C343 C327 1.429 . S
C343 C339 1.429 . S
C343 C344 1.523 . S
C344 C328 1.368 . S
C344 C340 1.368 . S
C344 C343 1.523 . S
H345 C320 0.950 . S
H346 C322 0.950 . S
H347 C323 0.949 . S
H348 C325 0.950 . S
H349 C327 0.950 . S
C350 C351 1.349 . S
C350 C352 1.327 . S
C350 H375 0.950 . S
C351 C350 1.349 . S
C351 C367 1.349 . S
C352 C350 1.327 . S
C352 C371 1.429 . S
C352 H376 0.950 . S
C353 C370 1.574 . S
C353 C372 1.368 . S
C353 H377 0.949 . S
H354 C358 0.949 . S
C355 C356 1.349 . S
C355 C357 1.327 . S
C355 H378 0.950 . S
C356 C355 1.349 . S
C356 C368 1.349 . S
C357 C355 1.327 . S
C357 C373 1.429 . S
C357 H379 0.950 . S
C358 H354 0.949 . S
C358 C366 1.574 . S
C358 C374 1.368 . S
H359 C367 0.950 . S
H360 C365 0.950 . S
H361 C366 0.949 . S
H362 C368 0.950 . S
H363 C369 0.950 . S
H364 C370 0.949 . S
C365 H360 0.950 . S
C365 C367 1.327 . S
C365 C371 1.429 . S
C366 C358 1.574 . S
C366 H361 0.949 . S
C366 C372 1.368 . S
C367 C351 1.349 . S
C367 H359 0.950 . S
C367 C365 1.327 . S
C368 C356 1.349 . S
C368 H362 0.950 . S
C368 C369 1.327 . S
C369 H363 0.950 . S
C369 C368 1.327 . S
C369 C373 1.429 . S
C370 C353 1.574 . S
C370 H364 0.949 . S
C370 C374 1.368 . S
C371 C352 1.429 . S
C371 C365 1.429 . S
C371 C372 1.523 . S
C372 C353 1.368 . S
C372 C366 1.368 . S
C372 C371 1.523 . S
C373 C357 1.429 . S
C373 C369 1.429 . S
C373 C374 1.523 . S
C374 C358 1.368 . S
C374 C370 1.368 . S
C374 C373 1.523 . S
H375 C350 0.950 . S
H376 C352 0.950 . S
H377 C353 0.949 . S
H378 C355 0.950 . S
H379 C357 0.950 . S
C380 C381 1.349 . S
C380 C382 1.327 . S
C380 H405 0.950 . S
C381 C380 1.349 . S
C381 C397 1.349 . S
C382 C380 1.327 . S
C382 C401 1.429 . S
C382 H406 0.950 . S
C383 C400 1.574 . S
C383 C402 1.368 . S
C383 H407 0.949 . S
H384 C388 0.949 . S
C385 C386 1.349 . S
C385 C387 1.327 . S
C385 H408 0.950 . S
C386 C385 1.349 . S
C386 C398 1.349 . S
C387 C385 1.327 . S
C387 C403 1.429 . S
C387 H409 0.950 . S
C388 H384 0.949 . S
C388 C396 1.574 . S
C388 C404 1.368 . S
H389 C397 0.950 . S
H390 C395 0.950 . S
H391 C396 0.949 . S
H392 C398 0.950 . S
H393 C399 0.950 . S
H394 C400 0.949 . S
C395 H390 0.950 . S
C395 C397 1.327 . S
C395 C401 1.429 . S
C396 C388 1.574 . S
C396 H391 0.949 . S
C396 C402 1.368 . S
C397 C381 1.349 . S
C397 H389 0.950 . S
C397 C395 1.327 . S
C398 C386 1.349 . S
C398 H392 0.950 . S
C398 C399 1.327 . S
C399 H393 0.950 . S
C399 C398 1.327 . S
C399 C403 1.429 . S
C400 C383 1.574 . S
C400 H394 0.949 . S
C400 C404 1.368 . S
C401 C382 1.429 . S
C401 C395 1.429 . S
C401 C402 1.523 . S
C402 C383 1.368 . S
C402 C396 1.368 . S
C402 C401 1.523 . S
C403 C387 1.429 . S
C403 C399 1.429 . S
C403 C404 1.523 . S
C404 C388 1.368 . S
C404 C400 1.368 . S
C404 C403 1.523 . S
H405 C380 0.950 . S
H406 C382 0.950 . S
H407 C383 0.949 . S
H408 C385 0.950 . S
H409 C387 0.950 . S
C410 C411 1.349 . S
C410 C412 1.327 . S
C410 H435 0.950 . S
C411 C410 1.349 . S
C411 C427 1.349 . S
C412 C410 1.327 . S
C412 C431 1.429 . S
C412 H436 0.950 . S
C413 C430 1.574 . S
C413 C432 1.368 . S
C413 H437 0.949 . S
H414 C418 0.949 . S
C415 C416 1.349 . S
C415 C417 1.327 . S
C415 H438 0.950 . S
C416 C415 1.349 . S
C416 C428 1.349 . S
C417 C415 1.327 . S
C417 C433 1.429 . S
C417 H439 0.950 . S
C418 H414 0.949 . S
C418 C426 1.574 . S
C418 C434 1.368 . S
H419 C427 0.950 . S
H420 C425 0.950 . S
H421 C426 0.949 . S
H422 C428 0.950 . S
H423 C429 0.950 . S
H424 C430 0.949 . S
C425 H420 0.950 . S
C425 C427 1.327 . S
C425 C431 1.429 . S
C426 C418 1.574 . S
C426 H421 0.949 . S
C426 C432 1.368 . S
C427 C411 1.349 . S
C427 H419 0.950 . S
C427 C425 1.327 . S
C428 C416 1.349 . S
C428 H422 0.950 . S
C428 C429 1.327 . S
C429 H423 0.950 . S
C429 C428 1.327 . S
C429 C433 1.429 . S
C430 C413 1.574 . S
C430 H424 0.949 . S
C430 C434 1.368 . S
C431 C412 1.429 . S
C431 C425 1.429 . S
C431 C432 1.523 . S
C432 C413 1.368 . S
C432 C426 1.368 . S
C432 C431 1.523 . S
C433 C417 1.429 . S
C433 C429 1.429 . S
C433 C434 1.523 . S
C434 C418 1.368 . S
C434 C430 1.368 . S
C434 C433 1.523 . S
H435 C410 0.950 . S
H436 C412 0.950 . S
H437 C413 0.949 . S
H438 C415 0.950 . S
H439 C417 0.950 . S
C440 C441 1.349 . S
C440 C442 1.327 . S
C440 H465 0.950 . S
C441 C440 1.349 . S
C441 C457 1.349 . S
C442 C440 1.327 . S
C442 C461 1.429 . S
C442 H466 0.950 . S
C443 C460 1.574 1_565 S
C443 C462 1.368 . S
C443 H467 0.949 . S
H444 C448 0.949 . S
C445 C446 1.349 . S
C445 C447 1.327 . S
C445 H468 0.950 . S
C446 C445 1.349 . S
C446 C458 1.349 . S
C447 C445 1.327 . S
C447 C463 1.429 . S
C447 H469 0.950 . S
C448 H444 0.949 . S
C448 C456 1.574 1_545 S
C448 C464 1.368 . S
H449 C457 0.950 . S
H450 C455 0.950 . S
H451 C456 0.949 . S
H452 C458 0.950 . S
H453 C459 0.950 . S
H454 C460 0.949 . S
C455 H450 0.950 . S
C455 C457 1.327 . S
C455 C461 1.429 . S
C456 C448 1.574 1_565 S
C456 H451 0.949 . S
C456 C462 1.368 . S
C457 C441 1.349 . S
C457 H449 0.950 . S
C457 C455 1.327 . S
C458 C446 1.349 . S
C458 H452 0.950 . S
C458 C459 1.327 . S
C459 H453 0.950 . S
C459 C458 1.327 . S
C459 C463 1.429 . S
C460 C443 1.574 1_545 S
C460 H454 0.949 . S
C460 C464 1.368 . S
C461 C442 1.429 . S
C461 C455 1.429 . S
C461 C462 1.523 . S
C462 C443 1.368 . S
C462 C456 1.368 . S
C462 C461 1.523 . S
C463 C447 1.429 . S
C463 C459 1.429 . S
C463 C464 1.523 . S
C464 C448 1.368 . S
C464 C460 1.368 . S
C464 C463 1.523 . S
H465 C440 0.950 . S
H466 C442 0.950 . S
H467 C443 0.949 . S
H468 C445 0.950 . S
H469 C447 0.950 . S
C470 C471 1.349 . S
C470 C472 1.327 . S
C470 H495 0.950 . S
C471 C470 1.349 . S
C471 C487 1.349 . S
C472 C470 1.327 . S
C472 C491 1.429 . S
C472 H496 0.950 . S
C473 C490 1.574 . S
C473 C492 1.368 . S
C473 H497 0.949 . S
H474 C478 0.949 . S
C475 C476 1.349 . S
C475 C477 1.327 . S
C475 H498 0.950 . S
C476 C475 1.349 . S
C476 C488 1.349 . S
C477 C475 1.327 . S
C477 C493 1.429 . S
C477 H499 0.950 . S
C478 H474 0.949 . S
C478 C486 1.574 . S
C478 C494 1.368 . S
H479 C487 0.950 . S
H480 C485 0.950 . S
H481 C486 0.949 . S
H482 C488 0.950 . S
H483 C489 0.950 . S
H484 C490 0.949 . S
C485 H480 0.950 . S
C485 C487 1.327 . S
C485 C491 1.429 . S
C486 C478 1.574 . S
C486 H481 0.949 . S
C486 C492 1.368 . S
C487 C471 1.349 . S
C487 H479 0.950 . S
C487 C485 1.327 . S
C488 C476 1.349 . S
C488 H482 0.950 . S
C488 C489 1.327 . S
C489 H483 0.950 . S
C489 C488 1.327 . S
C489 C493 1.429 . S
C490 C473 1.574 . S
C490 H484 0.949 . S
C490 C494 1.368 . S
C491 C472 1.429 . S
C491 C485 1.429 . S
C491 C492 1.523 . S
C492 C473 1.368 . S
C492 C486 1.368 . S
C492 C491 1.523 . S
C493 C477 1.429 . S
C493 C489 1.429 . S
C493 C494 1.523 . S
C494 C478 1.368 . S
C494 C490 1.368 . S
C494 C493 1.523 . S
H495 C470 0.950 . S
H496 C472 0.950 . S
H497 C473 0.949 . S
H498 C475 0.950 . S
H499 C477 0.950 . S
C500 C501 1.349 . S
C500 C502 1.327 . S
C500 H525 0.950 . S
C501 C500 1.349 . S
C501 C517 1.349 . S
C502 C500 1.327 . S
C502 C521 1.429 . S
C502 H526 0.950 . S
C503 C520 1.574 1_565 S
C503 C522 1.368 . S
C503 H527 0.949 . S
H504 C508 0.949 . S
C505 C506 1.349 . S
C505 C507 1.327 . S
C505 H528 0.950 . S
C506 C505 1.349 . S
C506 C518 1.349 . S
C507 C505 1.327 . S
C507 C523 1.429 . S
C507 H529 0.950 . S
C508 H504 0.949 . S
C508 C516 1.574 1_545 S
C508 C524 1.368 . S
H509 C517 0.950 . S
H510 C515 0.950 . S
H511 C516 0.949 . S
H512 C518 0.950 . S
H513 C519 0.950 . S
H514 C520 0.949 . S
C515 H510 0.950 . S
C515 C517 1.327 . S
C515 C521 1.429 . S
C516 C508 1.574 1_565 S
C516 H511 0.949 . S
C516 C522 1.368 . S
C517 C501 1.349 . S
C517 H509 0.950 . S
C517 C515 1.327 . S
C518 C506 1.349 . S
C518 H512 0.950 . S
C518 C519 1.327 . S
C519 H513 0.950 . S
C519 C518 1.327 . S
C519 C523 1.429 . S
C520 C503 1.574 1_545 S
C520 H514 0.949 . S
C520 C524 1.368 . S
C521 C502 1.429 . S
C521 C515 1.429 . S
C521 C522 1.523 . S
C522 C503 1.368 . S
C522 C516 1.368 . S
C522 C521 1.523 . S
C523 C507 1.429 . S
C523 C519 1.429 . S
C523 C524 1.523 . S
C524 C508 1.368 . S
C524 C520 1.368 . S
C524 C523 1.523 . S
H525 C500 0.950 . S
H526 C502 0.950 . S
H527 C503 0.949 . S
H528 C505 0.950 . S
H529 C507 0.950 . S
C530 C531 1.349 . S
C530 C532 1.327 . S
C530 H555 0.950 . S
C531 C530 1.349 . S
C531 C547 1.349 . S
C532 C530 1.327 . S
C532 C551 1.429 . S
C532 H556 0.950 . S
C533 C550 1.574 . S
C533 C552 1.368 . S
C533 H557 0.949 . S
H534 C538 0.949 . S
C535 C536 1.349 . S
C535 C537 1.327 . S
C535 H558 0.950 . S
C536 C535 1.349 . S
C536 C548 1.349 . S
C537 C535 1.327 . S
C537 C553 1.429 . S
C537 H559 0.950 . S
C538 H534 0.949 . S
C538 C546 1.574 . S
C538 C554 1.368 . S
H539 C547 0.950 . S
H540 C545 0.950 . S
H541 C546 0.949 . S
H542 C548 0.950 . S
H543 C549 0.950 . S
H544 C550 0.949 . S
C545 H540 0.950 . S
C545 C547 1.327 . S
C545 C551 1.429 . S
C546 C538 1.574 . S
C546 H541 0.949 . S
C546 C552 1.368 . S
C547 C531 1.349 . S
C547 H539 0.950 . S
C547 C545 1.327 . S
C548 C536 1.349 . S
C548 H542 0.950 . S
C548 C549 1.327 . S
C549 H543 0.950 . S
C549 C548 1.327 . S
C549 C553 1.429 . S
C550 C533 1.574 . S
C550 H544 0.949 . S
C550 C554 1.368 . S
C551 C532 1.429 . S
C551 C545 1.429 . S
C551 C552 1.523 . S
C552 C533 1.368 . S
C552 C546 1.368 . S
C552 C551 1.523 . S
C553 C537 1.429 . S
C553 C549 1.429 . S
C553 C554 1.523 . S
C554 C538 1.368 . S
C554 C550 1.368 . S
C554 C553 1.523 . S
H555 C530 0.950 . S
H556 C532 0.950 . S
H557 C533 0.949 . S
H558 C535 0.950 . S
H559 C537 0.950 . S
C560 C561 1.349 . S
C560 C562 1.327 . S
C560 H585 0.950 . S
C561 C560 1.349 . S
C561 C577 1.349 1_556 S
C562 C560 1.327 . S
C562 C581 1.429 . S
C562 H586 0.950 . S
C563 C580 1.574 . S
C563 C582 1.368 1_554 S
C563 H587 0.949 . S
H564 C568 0.949 . S
C565 C566 1.349 1_554 S
C565 C567 1.327 . S
C565 H588 0.950 . S
C566 C565 1.349 1_556 S
C566 C578 1.349 . S
C567 C565 1.327 . S
C567 C583 1.429 1_554 S
C567 H589 0.950 . S
C568 H564 0.949 . S
C568 C576 1.574 . S
C568 C584 1.368 . S
H569 C577 0.950 . S
H570 C575 0.950 . S
H571 C576 0.949 . S
H572 C578 0.950 . S
H573 C579 0.950 . S
H574 C580 0.949 . S
C575 H570 0.950 . S
C575 C577 1.327 . S
C575 C581 1.429 1_554 S
C576 C568 1.574 . S
C576 H571 0.949 . S
C576 C582 1.368 . S
C577 C561 1.349 1_554 S
C577 H569 0.950 . S
C577 C575 1.327 . S
C578 C566 1.349 . S
C578 H572 0.950 . S
C578 C579 1.327 . S
C579 H573 0.950 . S
C579 C578 1.327 . S
C579 C583 1.429 . S
C580 C563 1.574 . S
C580 H574 0.949 . S
C580 C584 1.368 1_554 S
C581 C562 1.429 . S
C581 C575 1.429 1_556 S
C581 C582 1.523 . S
C582 C563 1.368 1_556 S
C582 C576 1.368 . S
C582 C581 1.523 . S
C583 C567 1.429 1_556 S
C583 C579 1.429 . S
C583 C584 1.523 . S
C584 C568 1.368 . S
C584 C580 1.368 1_556 S
C584 C583 1.523 . S
H585 C560 0.950 . S
H586 C562 0.950 . S
H587 C563 0.949 . S
H588 C565 0.950 . S
H589 C567 0.950 . S
C590 C591 1.349 . S
C590 C592 1.327 . S
C590 H615 0.950 . S
C591 C590 1.349 . S
C591 C607 1.349 1_556 S
C592 C590 1.327 . S
C592 C611 1.429 . S
C592 H616 0.950 . S
C593 C610 1.574 1_565 S
C593 C612 1.368 1_554 S
C593 H617 0.949 . S
H594 C598 0.949 . S
C595 C596 1.349 1_554 S
C595 C597 1.327 . S
C595 H618 0.950 . S
C596 C595 1.349 1_556 S
C596 C608 1.349 . S
C597 C595 1.327 . S
C597 C613 1.429 1_554 S
C597 H619 0.950 . S
C598 H594 0.949 . S
C598 C606 1.574 1_545 S
C598 C614 1.368 . S
H599 C607 0.950 . S
H600 C605 0.950 . S
H601 C606 0.949 . S
H602 C608 0.950 . S
H603 C609 0.950 . S
H604 C610 0.949 . S
C605 H600 0.950 . S
C605 C607 1.327 . S
C605 C611 1.429 1_554 S
C606 C598 1.574 1_565 S
C606 H601 0.949 . S
C606 C612 1.368 . S
C607 C591 1.349 1_554 S
C607 H599 0.950 . S
C607 C605 1.327 . S
C608 C596 1.349 . S
C608 H602 0.950 . S
C608 C609 1.327 . S
C609 H603 0.950 . S
C609 C608 1.327 . S
C609 C613 1.429 . S
C610 C593 1.574 1_545 S
C610 H604 0.949 . S
C610 C614 1.368 1_554 S
C611 C592 1.429 . S
C611 C605 1.429 1_556 S
C611 C612 1.523 . S
C612 C593 1.368 1_556 S
C612 C606 1.368 . S
C612 C611 1.523 . S
C613 C597 1.429 1_556 S
C613 C609 1.429 . S
C613 C614 1.523 . S
C614 C598 1.368 . S
C614 C610 1.368 1_556 S
C614 C613 1.523 . S
H615 C590 0.950 . S
H616 C592 0.950 . S
H617 C593 0.949 . S
H618 C595 0.950 . S
H619 C597 0.950 . S
C620 C621 1.349 . S
C620 C622 1.327 . S
C620 H645 0.950 . S
C621 C620 1.349 . S
C621 C637 1.349 1_554 S
C622 C620 1.327 . S
C622 C641 1.429 . S
C622 H646 0.950 . S
C623 C640 1.574 . S
C623 C642 1.368 1_556 S
C623 H647 0.949 . S
H624 C628 0.949 . S
C625 C626 1.349 1_556 S
C625 C627 1.327 . S
C625 H648 0.950 . S
C626 C625 1.349 1_554 S
C626 C638 1.349 . S
C627 C625 1.327 . S
C627 C643 1.429 1_556 S
C627 H649 0.950 . S
C628 H624 0.949 . S
C628 C636 1.574 . S
C628 C644 1.368 . S
H629 C637 0.950 . S
H630 C635 0.950 . S
H631 C636 0.949 . S
H632 C638 0.950 . S
H633 C639 0.950 . S
H634 C640 0.949 . S
C635 H630 0.950 . S
C635 C637 1.327 . S
C635 C641 1.429 1_556 S
C636 C628 1.574 . S
C636 H631 0.949 . S
C636 C642 1.368 . S
C637 C621 1.349 1_556 S
C637 H629 0.950 . S
C637 C635 1.327 . S
C638 C626 1.349 . S
C638 H632 0.950 . S
C638 C639 1.327 . S
C639 H633 0.950 . S
C639 C638 1.327 . S
C639 C643 1.429 . S
C640 C623 1.574 . S
C640 H634 0.949 . S
C640 C644 1.368 1_556 S
C641 C622 1.429 . S
C641 C635 1.429 1_554 S
C641 C642 1.523 . S
C642 C623 1.368 1_554 S
C642 C636 1.368 . S
C642 C641 1.523 . S
C643 C627 1.429 1_554 S
C643 C639 1.429 . S
C643 C644 1.523 . S
C644 C628 1.368 . S
C644 C640 1.368 1_554 S
C644 C643 1.523 . S
H645 C620 0.950 . S
H646 C622 0.950 . S
H647 C623 0.949 . S
H648 C625 0.950 . S
H649 C627 0.950 . S
C650 C651 1.349 . S
C650 C652 1.327 . S
C650 H675 0.950 . S
C651 C650 1.349 . S
C651 C667 1.349 1_554 S
C652 C650 1.327 . S
C652 C671 1.429 . S
C652 H676 0.950 . S
C653 C670 1.574 1_545 S
C653 C672 1.368 1_556 S
C653 H677 0.949 . S
H654 C658 0.949 . S
C655 C656 1.349 1_556 S
C655 C657 1.327 . S
C655 H678 0.950 . S
C656 C655 1.349 1_554 S
C656 C668 1.349 . S
C657 C655 1.327 . S
C657 C673 1.429 1_556 S
C657 H679 0.950 . S
C658 H654 0.949 . S
C658 C666 1.574 1_565 S
C658 C674 1.368 . S
H659 C667 0.950 . S
H660 C665 0.950 . S
H661 C666 0.949 . S
H662 C668 0.950 . S
H663 C669 0.950 . S
H664 C670 0.949 . S
C665 H660 0.950 . S
C665 C667 1.327 . S
C665 C671 1.429 1_556 S
C666 C658 1.574 1_545 S
C666 H661 0.949 . S
C666 C672 1.368 . S
C667 C651 1.349 1_556 S
C667 H659 0.950 . S
C667 C665 1.327 . S
C668 C656 1.349 . S
C668 H662 0.950 . S
C668 C669 1.327 . S
C669 H663 0.950 . S
C669 C668 1.327 . S
C669 C673 1.429 . S
C670 C653 1.574 1_565 S
C670 H664 0.949 . S
C670 C674 1.368 1_556 S
C671 C652 1.429 . S
C671 C665 1.429 1_554 S
C671 C672 1.523 . S
C672 C653 1.368 1_554 S
C672 C666 1.368 . S
C672 C671 1.523 . S
C673 C657 1.429 1_554 S
C673 C669 1.429 . S
C673 C674 1.523 . S
C674 C658 1.368 . S
C674 C670 1.368 1_554 S
C674 C673 1.523 . S
H675 C650 0.950 . S
H676 C652 0.950 . S
H677 C653 0.949 . S
H678 C655 0.950 . S
H679 C657 0.950 . S
C680 C681 1.349 . S
C680 C682 1.327 . S
C680 H705 0.950 . S
C681 C680 1.349 . S
C681 C697 1.349 . S
C682 C680 1.327 . S
C682 C701 1.429 . S
C682 H706 0.950 . S
C683 C700 1.574 . S
C683 C702 1.368 1_556 S
C683 H707 0.949 1_556 S
H684 C688 0.949 . S
C685 C686 1.349 . S
C685 C687 1.327 . S
C685 H708 0.950 . S
C686 C685 1.349 . S
C686 C698 1.349 . S
C687 C685 1.327 . S
C687 C703 1.429 . S
C687 H709 0.950 . S
C688 H684 0.949 . S
C688 C696 1.574 . S
C688 C704 1.368 . S
H689 C697 0.950 . S
H690 C695 0.950 . S
H691 C696 0.949 1_554 S
H692 C698 0.950 . S
H693 C699 0.950 . S
H694 C700 0.949 . S
C695 H690 0.950 . S
C695 C697 1.327 . S
C695 C701 1.429 . S
C696 C688 1.574 . S
C696 H691 0.949 1_556 S
C696 C702 1.368 1_556 S
C697 C681 1.349 . S
C697 H689 0.950 . S
C697 C695 1.327 . S
C698 C686 1.349 . S
C698 H692 0.950 . S
C698 C699 1.327 . S
C699 H693 0.950 . S
C699 C698 1.327 . S
C699 C703 1.429 . S
C700 C683 1.574 . S
C700 H694 0.949 . S
C700 C704 1.368 . S
C701 C682 1.429 . S
C701 C695 1.429 . S
C701 C702 1.523 . S
C702 C683 1.368 1_554 S
C702 C696 1.368 1_554 S
C702 C701 1.523 . S
C703 C687 1.429 . S
C703 C699 1.429 . S
C703 C704 1.523 . S
C704 C688 1.368 . S
C704 C700 1.368 . S
C704 C703 1.523 . S
H705 C680 0.950 . S
H706 C682 0.950 . S
H707 C683 0.949 1_554 S
H708 C685 0.950 . S
H709 C687 0.950 . S
C710 C711 1.349 . S
C710 C712 1.327 . S
C710 H735 0.950 . S
C711 C710 1.349 . S
C711 C727 1.349 . S
C712 C710 1.327 . S
C712 C731 1.429 . S
C712 H736 0.950 . S
C713 C730 1.574 . S
C713 C732 1.368 1_556 S
C713 H737 0.949 1_556 S
H714 C718 0.949 . S
C715 C716 1.349 . S
C715 C717 1.327 . S
C715 H738 0.950 . S
C716 C715 1.349 . S
C716 C728 1.349 . S
C717 C715 1.327 . S
C717 C733 1.429 . S
C717 H739 0.950 . S
C718 H714 0.949 . S
C718 C726 1.574 . S
C718 C734 1.368 . S
H719 C727 0.950 . S
H720 C725 0.950 . S
H721 C726 0.949 1_554 S
H722 C728 0.950 . S
H723 C729 0.950 . S
H724 C730 0.949 . S
C725 H720 0.950 . S
C725 C727 1.327 . S
C725 C731 1.429 . S
C726 C718 1.574 . S
C726 H721 0.949 1_556 S
C726 C732 1.368 1_556 S
C727 C711 1.349 . S
C727 H719 0.950 . S
C727 C725 1.327 . S
C728 C716 1.349 . S
C728 H722 0.950 . S
C728 C729 1.327 . S
C729 H723 0.950 . S
C729 C728 1.327 . S
C729 C733 1.429 . S
C730 C713 1.574 . S
C730 H724 0.949 . S
C730 C734 1.368 . S
C731 C712 1.429 . S
C731 C725 1.429 . S
C731 C732 1.523 . S
C732 C713 1.368 1_554 S
C732 C726 1.368 1_554 S
C732 C731 1.523 . S
C733 C717 1.429 . S
C733 C729 1.429 . S
C733 C734 1.523 . S
C734 C718 1.368 . S
C734 C730 1.368 . S
C734 C733 1.523 . S
H735 C710 0.950 . S
H736 C712 0.950 . S
H737 C713 0.949 1_554 S
H738 C715 0.950 . S
H739 C717 0.950 . S
C740 C741 1.349 . S
C740 C742 1.327 . S
C740 H765 0.950 . S
C741 C740 1.349 . S
C741 C757 1.349 . S
C742 C740 1.327 . S
C742 C761 1.429 . S
C742 H766 0.950 . S
C743 C760 1.574 . S
C743 C762 1.368 . S
C743 H767 0.949 . S
H744 C748 0.949 1_556 S
C745 C746 1.349 . S
C745 C747 1.327 . S
C745 H768 0.950 . S
C746 C745 1.349 . S
C746 C758 1.349 . S
C747 C745 1.327 . S
C747 C763 1.429 . S
C747 H769 0.950 . S
C748 H744 0.949 1_554 S
C748 C756 1.574 . S
C748 C764 1.368 1_554 S
H749 C757 0.950 . S
H750 C755 0.950 . S
H751 C756 0.949 . S
H752 C758 0.950 . S
H753 C759 0.950 . S
H754 C760 0.949 1_556 S
C755 H750 0.950 . S
C755 C757 1.327 . S
C755 C761 1.429 . S
C756 C748 1.574 . S
C756 H751 0.949 . S
C756 C762 1.368 . S
C757 C741 1.349 . S
C757 H749 0.950 . S
C757 C755 1.327 . S
C758 C746 1.349 . S
C758 H752 0.950 . S
C758 C759 1.327 . S
C759 H753 0.950 . S
C759 C758 1.327 . S
C759 C763 1.429 . S
C760 C743 1.574 . S
C760 H754 0.949 1_554 S
C760 C764 1.368 1_554 S
C761 C742 1.429 . S
C761 C755 1.429 . S
C761 C762 1.523 . S
C762 C743 1.368 . S
C762 C756 1.368 . S
C762 C761 1.523 . S
C763 C747 1.429 . S
C763 C759 1.429 . S
C763 C764 1.523 . S
C764 C748 1.368 1_556 S
C764 C760 1.368 1_556 S
C764 C763 1.523 . S
H765 C740 0.950 . S
H766 C742 0.950 . S
H767 C743 0.949 . S
H768 C745 0.950 . S
H769 C747 0.950 . S
C770 C771 1.349 . S
C770 C772 1.327 . S
C770 H795 0.950 . S
C771 C770 1.349 . S
C771 C787 1.349 . S
C772 C770 1.327 . S
C772 C791 1.429 . S
C772 H796 0.950 . S
C773 C790 1.574 . S
C773 C792 1.368 1_554 S
C773 H797 0.949 1_554 S
H774 C778 0.949 . S
C775 C776 1.349 . S
C775 C777 1.327 . S
C775 H798 0.950 . S
C776 C775 1.349 . S
C776 C788 1.349 . S
C777 C775 1.327 . S
C777 C793 1.429 . S
C777 H799 0.950 . S
C778 H774 0.949 . S
C778 C786 1.574 . S
C778 C794 1.368 . S
H779 C787 0.950 . S
H780 C785 0.950 . S
H781 C786 0.949 1_556 S
H782 C788 0.950 . S
H783 C789 0.950 . S
H784 C790 0.949 . S
C785 H780 0.950 . S
C785 C787 1.327 . S
C785 C791 1.429 . S
C786 C778 1.574 . S
C786 H781 0.949 1_554 S
C786 C792 1.368 1_554 S
C787 C771 1.349 . S
C787 H779 0.950 . S
C787 C785 1.327 . S
C788 C776 1.349 . S
C788 H782 0.950 . S
C788 C789 1.327 . S
C789 H783 0.950 . S
C789 C788 1.327 . S
C789 C793 1.429 . S
C790 C773 1.574 . S
C790 H784 0.949 . S
C790 C794 1.368 . S
C791 C772 1.429 . S
C791 C785 1.429 . S
C791 C792 1.523 . S
C792 C773 1.368 1_556 S
C792 C786 1.368 1_556 S
C792 C791 1.523 . S
C793 C777 1.429 . S
C793 C789 1.429 . S
C793 C794 1.523 . S
C794 C778 1.368 . S
C794 C790 1.368 . S
C794 C793 1.523 . S
H795 C770 0.950 . S
H796 C772 0.950 . S
H797 C773 0.949 1_556 S
H798 C775 0.950 . S
H799 C777 0.950 . S
C800 C801 1.349 . S
C800 C802 1.327 . S
C800 H825 0.950 . S
C801 C800 1.349 . S
C801 C817 1.349 . S
C802 C800 1.327 . S
C802 C821 1.429 . S
C802 H826 0.950 . S
C803 C820 1.574 . S
C803 C822 1.368 . S
C803 H827 0.949 . S
H804 C808 0.949 . S
C805 C806 1.349 . S
C805 C807 1.327 . S
C805 H828 0.950 . S
C806 C805 1.349 . S
C806 C818 1.349 . S
C807 C805 1.327 . S
C807 C823 1.429 . S
C807 H829 0.950 . S
C808 H804 0.949 . S
C808 C816 1.574 . S
C808 C824 1.368 . S
H809 C817 0.950 . S
H810 C815 0.950 . S
H811 C816 0.949 . S
H812 C818 0.950 . S
H813 C819 0.950 . S
H814 C820 0.949 . S
C815 H810 0.950 . S
C815 C817 1.327 . S
C815 C821 1.429 . S
C816 C808 1.574 . S
C816 H811 0.949 . S
C816 C822 1.368 . S
C817 C801 1.349 . S
C817 H809 0.950 . S
C817 C815 1.327 . S
C818 C806 1.349 . S
C818 H812 0.950 . S
C818 C819 1.327 . S
C819 H813 0.950 . S
C819 C818 1.327 . S
C819 C823 1.429 . S
C820 C803 1.574 . S
C820 H814 0.949 . S
C820 C824 1.368 . S
C821 C802 1.429 . S
C821 C815 1.429 . S
C821 C822 1.523 . S
C822 C803 1.368 . S
C822 C816 1.368 . S
C822 C821 1.523 . S
C823 C807 1.429 . S
C823 C819 1.429 . S
C823 C824 1.523 . S
C824 C808 1.368 . S
C824 C820 1.368 . S
C824 C823 1.523 . S
H825 C800 0.950 . S
H826 C802 0.950 . S
H827 C803 0.949 . S
H828 C805 0.950 . S
H829 C807 0.950 . S
C830 C831 1.349 . S
C830 C832 1.327 . S
C830 H855 0.950 . S
C831 C830 1.349 . S
C831 C847 1.349 . S
C832 C830 1.327 . S
C832 C851 1.429 . S
C832 H856 0.950 . S
C833 C850 1.574 . S
C833 C852 1.368 . S
C833 H857 0.949 . S
H834 C838 0.949 . S
C835 C836 1.349 . S
C835 C837 1.327 . S
C835 H858 0.950 . S
C836 C835 1.349 . S
C836 C848 1.349 . S
C837 C835 1.327 . S
C837 C853 1.429 . S
C837 H859 0.950 . S
C838 H834 0.949 . S
C838 C846 1.574 . S
C838 C854 1.368 . S
H839 C847 0.950 . S
H840 C845 0.950 . S
H841 C846 0.949 . S
H842 C848 0.950 . S
H843 C849 0.950 . S
H844 C850 0.949 . S
C845 H840 0.950 . S
C845 C847 1.327 . S
C845 C851 1.429 . S
C846 C838 1.574 . S
C846 H841 0.949 . S
C846 C852 1.368 . S
C847 C831 1.349 . S
C847 H839 0.950 . S
C847 C845 1.327 . S
C848 C836 1.349 . S
C848 H842 0.950 . S
C848 C849 1.327 . S
C849 H843 0.950 . S
C849 C848 1.327 . S
C849 C853 1.429 . S
C850 C833 1.574 . S
C850 H844 0.949 . S
C850 C854 1.368 . S
C851 C832 1.429 . S
C851 C845 1.429 . S
C851 C852 1.523 . S
C852 C833 1.368 . S
C852 C846 1.368 . S
C852 C851 1.523 . S
C853 C837 1.429 . S
C853 C849 1.429 . S
C853 C854 1.523 . S
C854 C838 1.368 . S
C854 C850 1.368 . S
C854 C853 1.523 . S
H855 C830 0.950 . S
H856 C832 0.950 . S
H857 C833 0.949 . S
H858 C835 0.950 . S
H859 C837 0.950 . S
C860 C861 1.349 . S
C860 C862 1.327 . S
C860 H885 0.950 . S
C861 C860 1.349 . S
C861 C877 1.349 . S
C862 C860 1.327 . S
C862 C881 1.429 . S
C862 H886 0.950 . S
C863 C880 1.574 . S
C863 C882 1.368 . S
C863 H887 0.949 . S
H864 C868 0.949 . S
C865 C866 1.349 . S
C865 C867 1.327 . S
C865 H888 0.950 . S
C866 C865 1.349 . S
C866 C878 1.349 . S
C867 C865 1.327 . S
C867 C883 1.429 . S
C867 H889 0.950 . S
C868 H864 0.949 . S
C868 C876 1.574 . S
C868 C884 1.368 . S
H869 C877 0.950 . S
H870 C875 0.950 . S
H871 C876 0.949 . S
H872 C878 0.950 . S
H873 C879 0.950 . S
H874 C880 0.949 . S
C875 H870 0.950 . S
C875 C877 1.327 . S
C875 C881 1.429 . S
C876 C868 1.574 . S
C876 H871 0.949 . S
C876 C882 1.368 . S
C877 C861 1.349 . S
C877 H869 0.950 . S
C877 C875 1.327 . S
C878 C866 1.349 . S
C878 H872 0.950 . S
C878 C879 1.327 . S
C879 H873 0.950 . S
C879 C878 1.327 . S
C879 C883 1.429 . S
C880 C863 1.574 . S
C880 H874 0.949 . S
C880 C884 1.368 . S
C881 C862 1.429 . S
C881 C875 1.429 . S
C881 C882 1.523 . S
C882 C863 1.368 . S
C882 C876 1.368 . S
C882 C881 1.523 . S
C883 C867 1.429 . S
C883 C879 1.429 . S
C883 C884 1.523 . S
C884 C868 1.368 . S
C884 C880 1.368 . S
C884 C883 1.523 . S
H885 C860 0.950 . S
H886 C862 0.950 . S
H887 C863 0.949 . S
H888 C865 0.950 . S
H889 C867 0.950 . S
C890 C891 1.349 . S
C890 C892 1.327 . S
C890 H915 0.950 . S
C891 C890 1.349 . S
C891 C907 1.349 . S
C892 C890 1.327 . S
C892 C911 1.429 . S
C892 H916 0.950 . S
C893 C910 1.574 . S
C893 C912 1.368 . S
C893 H917 0.949 . S
H894 C898 0.949 . S
C895 C896 1.349 . S
C895 C897 1.327 . S
C895 H918 0.950 . S
C896 C895 1.349 . S
C896 C908 1.349 . S
C897 C895 1.327 . S
C897 C913 1.429 . S
C897 H919 0.950 . S
C898 H894 0.949 . S
C898 C906 1.574 . S
C898 C914 1.368 . S
H899 C907 0.950 . S
H900 C905 0.950 . S
H901 C906 0.949 . S
H902 C908 0.950 . S
H903 C909 0.950 . S
H904 C910 0.949 . S
C905 H900 0.950 . S
C905 C907 1.327 . S
C905 C911 1.429 . S
C906 C898 1.574 . S
C906 H901 0.949 . S
C906 C912 1.368 . S
C907 C891 1.349 . S
C907 H899 0.950 . S
C907 C905 1.327 . S
C908 C896 1.349 . S
C908 H902 0.950 . S
C908 C909 1.327 . S
C909 H903 0.950 . S
C909 C908 1.327 . S
C909 C913 1.429 . S
C910 C893 1.574 . S
C910 H904 0.949 . S
C910 C914 1.368 . S
C911 C892 1.429 . S
C911 C905 1.429 . S
C911 C912 1.523 . S
C912 C893 1.368 . S
C912 C906 1.368 . S
C912 C911 1.523 . S
C913 C897 1.429 . S
C913 C909 1.429 . S
C913 C914 1.523 . S
C914 C898 1.368 . S
C914 C910 1.368 . S
C914 C913 1.523 . S
H915 C890 0.950 . S
H916 C892 0.950 . S
H917 C893 0.949 . S
H918 C895 0.950 . S
H919 C897 0.950 . S
C920 C921 1.349 . S
C920 C922 1.327 . S
C920 H945 0.950 . S
C921 C920 1.349 . S
C921 C937 1.349 . S
C922 C920 1.327 . S
C922 C941 1.429 . S
C922 H946 0.950 . S
C923 C940 1.574 1_455 S
C923 C942 1.368 . S
C923 H947 0.949 . S
H924 C928 0.949 . S
C925 C926 1.349 . S
C925 C927 1.327 . S
C925 H948 0.950 . S
C926 C925 1.349 . S
C926 C938 1.349 . S
C927 C925 1.327 . S
C927 C943 1.429 . S
C927 H949 0.950 . S
C928 H924 0.949 . S
C928 C936 1.574 1_655 S
C928 C944 1.368 . S
H929 C937 0.950 . S
H930 C935 0.950 . S
H931 C936 0.949 . S
H932 C938 0.950 . S
H933 C939 0.950 . S
H934 C940 0.949 . S
C935 H930 0.950 . S
C935 C937 1.327 . S
C935 C941 1.429 . S
C936 C928 1.574 1_455 S
C936 H931 0.949 . S
C936 C942 1.368 . S
C937 C921 1.349 . S
C937 H929 0.950 . S
C937 C935 1.327 . S
C938 C926 1.349 . S
C938 H932 0.950 . S
C938 C939 1.327 . S
C939 H933 0.950 . S
C939 C938 1.327 . S
C939 C943 1.429 . S
C940 C923 1.574 1_655 S
C940 H934 0.949 . S
C940 C944 1.368 . S
C941 C922 1.429 . S
C941 C935 1.429 . S
C941 C942 1.523 . S
C942 C923 1.368 . S
C942 C936 1.368 . S
C942 C941 1.523 . S
C943 C927 1.429 . S
C943 C939 1.429 . S
C943 C944 1.523 . S
C944 C928 1.368 . S
C944 C940 1.368 . S
C944 C943 1.523 . S
H945 C920 0.950 . S
H946 C922 0.950 . S
H947 C923 0.949 . S
H948 C925 0.950 . S
H949 C927 0.950 . S
C950 C951 1.349 . S
C950 C952 1.327 . S
C950 H975 0.950 . S
C951 C950 1.349 . S
C951 C967 1.349 . S
C952 C950 1.327 . S
C952 C971 1.429 . S
C952 H976 0.950 . S
C953 C970 1.574 1_655 S
C953 C972 1.368 . S
C953 H977 0.949 . S
H954 C958 0.949 . S
C955 C956 1.349 . S
C955 C957 1.327 . S
C955 H978 0.950 . S
C956 C955 1.349 . S
C956 C968 1.349 . S
C957 C955 1.327 . S
C957 C973 1.429 . S
C957 H979 0.950 . S
C958 H954 0.949 . S
C958 C966 1.574 1_455 S
C958 C974 1.368 . S
H959 C967 0.950 . S
H960 C965 0.950 . S
H961 C966 0.949 . S
H962 C968 0.950 . S
H963 C969 0.950 . S
H964 C970 0.949 . S
C965 H960 0.950 . S
C965 C967 1.327 . S
C965 C971 1.429 . S
C966 C958 1.574 1_655 S
C966 H961 0.949 . S
C966 C972 1.368 . S
C967 C951 1.349 . S
C967 H959 0.950 . S
C967 C965 1.327 . S
C968 C956 1.349 . S
C968 H962 0.950 . S
C968 C969 1.327 . S
C969 H963 0.950 . S
C969 C968 1.327 . S
C969 C973 1.429 . S
C970 C953 1.574 1_455 S
C970 H964 0.949 . S
C970 C974 1.368 . S
C971 C952 1.429 . S
C971 C965 1.429 . S
C971 C972 1.523 . S
C972 C953 1.368 . S
C972 C966 1.368 . S
C972 C971 1.523 . S
C973 C957 1.429 . S
C973 C969 1.429 . S
C973 C974 1.523 . S
C974 C958 1.368 . S
C974 C970 1.368 . S
C974 C973 1.523 . S
H975 C950 0.950 . S
H976 C952 0.950 . S
H977 C953 0.949 . S
H978 C955 0.950 . S
H979 C957 0.950 . S
C980 C981 1.349 . S
C980 C982 1.327 . S
C980 H1005 0.950 . S
C981 C980 1.349 . S
C981 C997 1.349 . S
C982 C980 1.327 . S
C982 C1001 1.429 . S
C982 H1006 0.950 . S
C983 C1000 1.574 . S
C983 C1002 1.368 . S
C983 H1007 0.949 . S
H984 C988 0.949 . S
C985 C986 1.349 . S
C985 C987 1.327 . S
C985 H1008 0.950 . S
C986 C985 1.349 . S
C986 C998 1.349 . S
C987 C985 1.327 . S
C987 C1003 1.429 . S
C987 H1009 0.950 . S
C988 H984 0.949 . S
C988 C996 1.574 . S
C988 C1004 1.368 . S
H989 C997 0.950 . S
H990 C995 0.950 . S
H991 C996 0.949 . S
H992 C998 0.950 . S
H993 C999 0.950 . S
H994 C1000 0.949 . S
C995 H990 0.950 . S
C995 C997 1.327 . S
C995 C1001 1.429 . S
C996 C988 1.574 . S
C996 H991 0.949 . S
C996 C1002 1.368 . S
C997 C981 1.349 . S
C997 H989 0.950 . S
C997 C995 1.327 . S
C998 C986 1.349 . S
C998 H992 0.950 . S
C998 C999 1.327 . S
C999 H993 0.950 . S
C999 C998 1.327 . S
C999 C1003 1.429 . S
C1000 C983 1.574 . S
C1000 H994 0.949 . S
C1000 C1004 1.368 . S
C1001 C982 1.429 . S
C1001 C995 1.429 . S
C1001 C1002 1.523 . S
C1002 C983 1.368 . S
C1002 C996 1.368 . S
C1002 C1001 1.523 . S
C1003 C987 1.429 . S
C1003 C999 1.429 . S
C1003 C1004 1.523 . S
C1004 C988 1.368 . S
C1004 C1000 1.368 . S
C1004 C1003 1.523 . S
H1005 C980 0.950 . S
H1006 C982 0.950 . S
H1007 C983 0.949 . S
H1008 C985 0.950 . S
H1009 C987 0.950 . S
C1010 C1011 1.349 . S
C1010 C1012 1.327 . S
C1010 H1035 0.950 . S
C1011 C1010 1.349 . S
C1011 C1027 1.349 . S
C1012 C1010 1.327 . S
C1012 C1031 1.429 . S
C1012 H1036 0.950 . S
C1013 C1030 1.574 . S
C1013 C1032 1.368 . S
C1013 H1037 0.949 . S
H1014 C1018 0.949 . S
C1015 C1016 1.349 . S
C1015 C1017 1.327 . S
C1015 H1038 0.950 . S
C1016 C1015 1.349 . S
C1016 C1028 1.349 . S
C1017 C1015 1.327 . S
C1017 C1033 1.429 . S
C1017 H1039 0.950 . S
C1018 H1014 0.949 . S
C1018 C1026 1.574 . S
C1018 C1034 1.368 . S
H1019 C1027 0.950 . S
H1020 C1025 0.950 . S
H1021 C1026 0.949 . S
H1022 C1028 0.950 . S
H1023 C1029 0.950 . S
H1024 C1030 0.949 . S
C1025 H1020 0.950 . S
C1025 C1027 1.327 . S
C1025 C1031 1.429 . S
C1026 C1018 1.574 . S
C1026 H1021 0.949 . S
C1026 C1032 1.368 . S
C1027 C1011 1.349 . S
C1027 H1019 0.950 . S
C1027 C1025 1.327 . S
C1028 C1016 1.349 . S
C1028 H1022 0.950 . S
C1028 C1029 1.327 . S
C1029 H1023 0.950 . S
C1029 C1028 1.327 . S
C1029 C1033 1.429 . S
C1030 C1013 1.574 . S
C1030 H1024 0.949 . S
C1030 C1034 1.368 . S
C1031 C1012 1.429 . S
C1031 C1025 1.429 . S
C1031 C1032 1.523 . S
C1032 C1013 1.368 . S
C1032 C1026 1.368 . S
C1032 C1031 1.523 . S
C1033 C1017 1.429 . S
C1033 C1029 1.429 . S
C1033 C1034 1.523 . S
C1034 C1018 1.368 . S
C1034 C1030 1.368 . S
C1034 C1033 1.523 . S
H1035 C1010 0.950 . S
H1036 C1012 0.950 . S
H1037 C1013 0.949 . S
H1038 C1015 0.950 . S
H1039 C1017 0.950 . S
C321 C5 1.689 . S
C326 C295 1.689 . S
C351 C255 1.689 . S
C356 C45 1.689 . S
C381 C205 1.689 . S
C386 C95 1.689 . S
C411 C165 1.689 . S
C416 C135 1.689 . S
C441 C98 1.528 . S
C446 C18 1.502 . S
C471 C58 1.502 . S
C476 C138 1.528 . S
C501 C128 1.502 . S
C506 C48 1.528 . S
C531 C88 1.502 . S
C536 C8 1.528 . S
C561 C178 1.440 1_556 S
C566 C258 1.440 1_556 S
C591 C218 1.440 1_556 S
C596 C298 1.440 1_556 S
C621 C288 1.441 1_554 S
C626 C208 1.440 1_554 S
C651 C248 1.441 1_554 S
C656 C168 1.440 1_554 S
C681 C19 2.001 . S
C686 C9 2.001 . S
C711 C59 2.001 . S
C716 C49 2.001 . S
C741 C99 2.001 . S
C746 C89 2.001 . S
C771 C129 2.001 . S
C776 C139 2.001 . S
C801 C169 2.001 . S
C806 C179 2.001 . S
C831 C219 2.001 . S
C836 C209 2.001 . S
C861 C249 2.001 . S
C866 C259 2.001 . S
C891 C289 2.001 . S
C896 C299 2.001 . S
C921 C15 2.315 . S
C926 C55 2.315 . S
C951 C125 2.315 . S
C956 C85 2.315 . S
C981 C175 2.316 . S
C986 C215 2.316 . S
C1011 C285 2.316 . S
C1016 C245 2.316 . S
