# Generated by pormake.
# Topology yfm, (5)-cn, num edge types: 1
# Building blocks:
#     Node 0, Type 0, BuildingBlock: XOMCOT_clean_sbu_1, # of connection points: 5
#     Node 1, Type 0, BuildingBlock: XOMCOT_clean_sbu_1, # of connection points: 5
#     Node 2, Type 0, BuildingBlock: XOMCOT_clean_sbu_1, # of connection points: 5
#     Node 3, Type 0, BuildingBlock: XOMCOT_clean_sbu_1, # of connection points: 5
#     Node 4, Type 0, BuildingBlock: XOMCOT_clean_sbu_1, # of connection points: 5
#     Node 5, Type 0, BuildingBlock: XOMCOT_clean_sbu_1, # of connection points: 5
#     Node 6, Type 0, BuildingBlock: XOMCOT_clean_sbu_1, # of connection points: 5
#     Node 7, Type 0, BuildingBlock: XOMCOT_clean_sbu_1, # of connection points: 5
#     Node 8, Type 0, BuildingBlock: XOMCOT_clean_sbu_1, # of connection points: 5
#     Node 9, Type 0, BuildingBlock: XOMCOT_clean_sbu_1, # of connection points: 5
#     Node 10, Type 0, BuildingBlock: XOMCOT_clean_sbu_1, # of connection points: 5
#     Node 11, Type 0, BuildingBlock: XOMCOT_clean_sbu_1, # of connection points: 5
#     Node 12, Type 0, BuildingBlock: XOMCOT_clean_sbu_1, # of connection points: 5
#     Node 13, Type 0, BuildingBlock: XOMCOT_clean_sbu_1, # of connection points: 5
#     Node 14, Type 0, BuildingBlock: XOMCOT_clean_sbu_1, # of connection points: 5
#     Node 15, Type 0, BuildingBlock: XOMCOT_clean_sbu_1, # of connection points: 5
#     Node 16, Type 0, BuildingBlock: XOMCOT_clean_sbu_1, # of connection points: 5
#     Node 17, Type 0, BuildingBlock: XOMCOT_clean_sbu_1, # of connection points: 5
#     Node 18, Type 0, BuildingBlock: XOMCOT_clean_sbu_1, # of connection points: 5
#     Node 19, Type 0, BuildingBlock: XOMCOT_clean_sbu_1, # of connection points: 5
#     Node 20, Type 0, BuildingBlock: XOMCOT_clean_sbu_1, # of connection points: 5
#     Node 21, Type 0, BuildingBlock: XOMCOT_clean_sbu_1, # of connection points: 5
#     Node 22, Type 0, BuildingBlock: XOMCOT_clean_sbu_1, # of connection points: 5
#     Node 23, Type 0, BuildingBlock: XOMCOT_clean_sbu_1, # of connection points: 5
#     Node 24, Type 0, BuildingBlock: XOMCOT_clean_sbu_1, # of connection points: 5
#     Node 25, Type 0, BuildingBlock: XOMCOT_clean_sbu_1, # of connection points: 5
#     Node 26, Type 0, BuildingBlock: XOMCOT_clean_sbu_1, # of connection points: 5
#     Node 27, Type 0, BuildingBlock: XOMCOT_clean_sbu_1, # of connection points: 5
#     Node 28, Type 0, BuildingBlock: XOMCOT_clean_sbu_1, # of connection points: 5
#     Node 29, Type 0, BuildingBlock: XOMCOT_clean_sbu_1, # of connection points: 5
#     Node 30, Type 0, BuildingBlock: XOMCOT_clean_sbu_1, # of connection points: 5
#     Node 31, Type 0, BuildingBlock: XOMCOT_clean_sbu_1, # of connection points: 5
#     Edge 32, Type (0, 0), None
#     Edge 33, Type (0, 0), None
#     Edge 34, Type (0, 0), None
#     Edge 35, Type (0, 0), None
#     Edge 36, Type (0, 0), None
#     Edge 37, Type (0, 0), None
#     Edge 38, Type (0, 0), None
#     Edge 39, Type (0, 0), None
#     Edge 40, Type (0, 0), None
#     Edge 41, Type (0, 0), None
#     Edge 42, Type (0, 0), None
#     Edge 43, Type (0, 0), None
#     Edge 44, Type (0, 0), None
#     Edge 45, Type (0, 0), None
#     Edge 46, Type (0, 0), None
#     Edge 47, Type (0, 0), None
#     Edge 48, Type (0, 0), None
#     Edge 49, Type (0, 0), None
#     Edge 50, Type (0, 0), None
#     Edge 51, Type (0, 0), None
#     Edge 52, Type (0, 0), None
#     Edge 53, Type (0, 0), None
#     Edge 54, Type (0, 0), None
#     Edge 55, Type (0, 0), None
#     Edge 56, Type (0, 0), None
#     Edge 57, Type (0, 0), None
#     Edge 58, Type (0, 0), None
#     Edge 59, Type (0, 0), None
#     Edge 60, Type (0, 0), None
#     Edge 61, Type (0, 0), None
#     Edge 62, Type (0, 0), None
#     Edge 63, Type (0, 0), None
#     Edge 64, Type (0, 0), None
#     Edge 65, Type (0, 0), None
#     Edge 66, Type (0, 0), None
#     Edge 67, Type (0, 0), None
#     Edge 68, Type (0, 0), None
#     Edge 69, Type (0, 0), None
#     Edge 70, Type (0, 0), None
#     Edge 71, Type (0, 0), None
#     Edge 72, Type (0, 0), None
#     Edge 73, Type (0, 0), None
#     Edge 74, Type (0, 0), None
#     Edge 75, Type (0, 0), None
#     Edge 76, Type (0, 0), None
#     Edge 77, Type (0, 0), None
#     Edge 78, Type (0, 0), None
#     Edge 79, Type (0, 0), None
#     Edge 80, Type (0, 0), None
#     Edge 81, Type (0, 0), None
#     Edge 82, Type (0, 0), None
#     Edge 83, Type (0, 0), None
#     Edge 84, Type (0, 0), None
#     Edge 85, Type (0, 0), None
#     Edge 86, Type (0, 0), None
#     Edge 87, Type (0, 0), None
#     Edge 88, Type (0, 0), None
#     Edge 89, Type (0, 0), None
#     Edge 90, Type (0, 0), None
#     Edge 91, Type (0, 0), None
#     Edge 92, Type (0, 0), None
#     Edge 93, Type (0, 0), None
#     Edge 94, Type (0, 0), None
#     Edge 95, Type (0, 0), None
#     Edge 96, Type (0, 0), None
#     Edge 97, Type (0, 0), None
#     Edge 98, Type (0, 0), None
#     Edge 99, Type (0, 0), None
#     Edge 100, Type (0, 0), None
#     Edge 101, Type (0, 0), None
#     Edge 102, Type (0, 0), None
#     Edge 103, Type (0, 0), None
#     Edge 104, Type (0, 0), None
#     Edge 105, Type (0, 0), None
#     Edge 106, Type (0, 0), None
#     Edge 107, Type (0, 0), None
#     Edge 108, Type (0, 0), None
#     Edge 109, Type (0, 0), None
#     Edge 110, Type (0, 0), None
#     Edge 111, Type (0, 0), None
# Relax obj value: 0.661
# Max RMSD: 0.262
# Mean RMSD: 0.259
data_MOF--net-yfm--node1-XOMCOT_clean_sbu_1--edge1-none
_symmetry_space_group_name_H-M    P1
_symmetry_Int_Tables_number       1
_symmetry_cell_setting            triclinic
loop_
_symmetry_equiv_pos_as_xyz
'x, y, z'
_cell_length_a     32.217562
_cell_length_b     31.771023
_cell_length_c     24.602433
_cell_angle_alpha  89.998735
_cell_angle_beta   90.001648
_cell_angle_gamma 90.204048
loop_
_atom_site_label
_atom_site_type_symbol
_atom_site_fract_x
_atom_site_fract_y
_atom_site_fract_z
_atom_type_partial_charge
C0 C 0.35238 0.21224 0.21614 0.0
C1 C 0.33323 0.22387 0.26346 0.0
N2 N 0.29269 0.22922 0.25339 0.0
N3 N 0.32406 0.21007 0.17556 0.0
C4 C 0.28994 0.22647 0.19912 0.0
H5 H 0.38427 0.20287 0.21443 0.0
Co6 Co 0.32495 0.18193 0.10642 0.0
C7 C 0.28211 0.25087 0.03996 0.0
O8 O 0.25867 0.22562 0.0111 0.0
N9 N 0.32607 0.15412 0.03611 0.0
C10 C 0.30285 0.12225 0.96108 0.0
C11 C 0.29203 0.1441 0.00667 0.0
C12 C 0.3576 0.13626 0.00704 0.0
N13 N 0.3442 0.11645 0.96092 0.0
O14 O 0.38257 0.19825 0.09818 0.0
H15 H 0.26035 0.15024 0.01821 0.0
H16 H 0.38947 0.13598 0.02081 0.0
O17 O 0.3073 0.23611 0.07514 0.0
C18 C 0.41184 0.17805 0.12215 0.0
O19 O 0.45044 0.19049 0.11589 0.0
N20 N 0.26929 0.16051 0.11867 0.0
C21 C 0.20207 0.11817 0.16619 0.0
C22 C 0.19735 0.1593 0.14635 0.0
C23 C 0.23102 0.17934 0.12017 0.0
C24 C 0.27216 0.119 0.13197 0.0
C25 C 0.23928 0.0973 0.15554 0.0
H26 H 0.22704 0.21127 0.10628 0.0
H27 H 0.30063 0.10257 0.12578 0.0
H28 H 0.26117 0.23196 0.17896 0.0
H29 H 0.3466 0.22125 0.30356 0.0
H30 H 0.28107 0.11047 0.93131 0.0
H31 H 0.1684 0.17592 0.15202 0.0
H32 H 0.24395 0.06509 0.16853 0.0
C33 C 0.05723 0.07913 0.4388 0.0
C34 C 0.05991 0.06556 0.49204 0.0
N35 N 0.10022 0.05822 0.50265 0.0
N36 N 0.09582 0.07967 0.4174 0.0
C37 C 0.12108 0.06946 0.45818 0.0
H38 H 0.02898 0.08408 0.41599 0.0
Co39 Co 0.11596 0.07844 0.34765 0.0
C40 C 0.04572 0.02826 0.29838 0.0
O41 O 0.06902 0.99596 0.28601 0.0
N42 N 0.13691 0.07812 0.27499 0.0
C43 C 0.16159 0.0562 0.19524 0.0
C44 C 0.14147 0.04448 0.24189 0.0
C45 C 0.1553 0.11006 0.24702 0.0
N46 N 0.17063 0.09744 0.19834 0.0
O47 O 0.09991 0.13667 0.34098 0.0
H48 H 0.13498 1.01233 0.25264 0.0
H49 H 0.16041 0.1411 0.26387 0.0
O50 O 0.06106 0.06064 0.32188 0.0
C51 C 0.11826 0.16478 0.36996 0.0
O52 O 0.10509 0.20381 0.36853 0.0
N53 N 0.13515 1.02184 0.36056 0.0
C54 C 0.17717 0.96066 0.42298 0.0
C55 C 0.13355 0.96146 0.42083 0.0
C56 C 0.11311 0.99211 0.38919 0.0
C57 C 0.17733 1.01928 0.35879 0.0
C58 C 0.19872 0.98918 0.38915 0.0
H59 H 0.07985 0.99504 0.39343 0.0
H60 H 0.19501 0.04362 0.33846 0.0
H61 H 0.15371 0.06389 0.45232 0.0
H62 H 0.0343 0.05823 0.51881 0.0
H63 H 0.17228 0.03512 0.16365 0.0
H64 H 0.11527 0.9403 0.4457 0.0
H65 H 0.23217 0.99094 0.3888 0.0
C66 C 0.19157 0.83791 0.71614 0.0
C67 C 0.21072 0.82629 0.76346 0.0
N68 N 0.25126 0.82096 0.7534 0.0
N69 N 0.21988 0.8401 0.67556 0.0
C70 C 0.25401 0.82371 0.69913 0.0
H71 H 0.15967 0.84727 0.71442 0.0
Co72 Co 0.21899 0.86825 0.60643 0.0
C73 C 0.26183 0.79931 0.53996 0.0
O74 O 0.28526 0.82457 0.5111 0.0
N75 N 0.21786 0.89606 0.53612 0.0
C76 C 0.24107 0.92796 0.46111 0.0
C77 C 0.2519 0.90609 0.50668 0.0
C78 C 0.18633 0.91394 0.50705 0.0
N79 N 0.19973 0.93378 0.46096 0.0
O80 O 0.16136 0.85193 0.59819 0.0
H81 H 0.28357 0.89993 0.51821 0.0
H82 H 0.15446 0.9142 0.52081 0.0
O83 O 0.23664 0.81406 0.57514 0.0
C84 C 0.13209 0.87213 0.62217 0.0
O85 O 0.09349 0.85969 0.6159 0.0
N86 N 0.27465 0.88966 0.61866 0.0
C87 C 0.34185 0.93201 0.6662 0.0
C88 C 0.34659 0.89089 0.64635 0.0
C89 C 0.31292 0.87084 0.62017 0.0
C90 C 0.27177 0.93117 0.63198 0.0
C91 C 0.30465 0.95288 0.65555 0.0
H92 H 0.3169 0.83891 0.60627 0.0
H93 H 0.24329 0.9476 0.62579 0.0
H94 H 0.28278 0.81823 0.67898 0.0
H95 H 0.19734 0.8289 0.80356 0.0
H96 H 0.26286 0.93974 0.43133 0.0
H97 H 0.37554 0.87427 0.65202 0.0
H98 H 0.29996 0.98508 0.66855 0.0
C99 C 0.48671 0.97106 0.93881 0.0
C100 C 0.48403 0.98463 0.99205 0.0
N101 N 0.44371 0.99196 1.00266 0.0
N102 N 0.44811 0.97051 0.91741 0.0
C103 C 0.42285 0.98071 0.95819 0.0
H104 H 0.51495 0.96613 0.916 0.0
Co105 Co 0.42796 0.97174 0.84767 0.0
C106 C 0.49819 1.02194 0.79838 0.0
O107 O 0.47488 0.05423 0.786 0.0
N108 N 0.407 0.97206 0.77501 0.0
C109 C 0.38231 0.99398 0.69527 0.0
C110 C 0.40243 1.00571 0.74191 0.0
C111 C 0.38863 0.94012 0.74703 0.0
N112 N 0.3733 0.95275 0.69835 0.0
O113 O 0.44402 0.91352 0.84099 0.0
H114 H 0.4089 0.03786 0.75268 0.0
H115 H 0.38353 0.90907 0.76387 0.0
O116 O 0.48286 0.98955 0.82189 0.0
C117 C 0.42569 0.8854 0.86997 0.0
O118 O 0.43886 0.84637 0.86853 0.0
N119 N 0.40876 0.02833 0.86059 0.0
C120 C 0.36676 0.08953 0.92298 0.0
C121 C 0.41038 0.08873 0.92082 0.0
C122 C 0.43081 0.05807 0.8892 0.0
C123 C 0.36658 0.03089 0.85882 0.0
C124 C 0.3452 0.06099 0.88918 0.0
H125 H 0.46407 0.05515 0.89342 0.0
H126 H 0.3489 1.00655 0.83851 0.0
H127 H 0.39022 0.98627 0.95233 0.0
H128 H 0.50963 0.99197 0.01882 0.0
H129 H 0.37162 1.01507 0.66368 0.0
H130 H 0.42865 0.1099 0.94567 0.0
H131 H 0.31174 0.05924 0.88883 0.0
C132 C 0.30369 0.90005 0.82438 0.0
C133 C 0.29012 0.88323 0.77665 0.0
N134 N 0.28077 0.84242 0.78497 0.0
N135 N 0.30369 0.86987 0.86281 0.0
C136 C 0.28881 0.83511 0.83759 0.0
H137 H 0.30799 0.93328 0.83195 0.0
Co138 Co 0.30928 0.88108 0.93626 0.0
C139 C 0.27453 0.79777 0.9786 0.0
O140 O 0.24409 0.81418 0.00675 0.0
N141 N 0.31423 0.89343 0.01257 0.0
C142 C 0.29467 0.90745 0.09781 0.0
C143 C 0.2823 0.89236 0.04828 0.0
C144 C 0.34591 0.91027 0.04218 0.0
N145 N 0.33467 0.91914 0.09434 0.0
O146 O 0.36808 0.8686 0.92942 0.0
H147 H 0.25062 0.88449 0.03851 0.0
H148 H 0.37577 0.91842 0.02495 0.0
O149 O 0.29943 0.82128 0.95193 0.0
C150 C 0.38752 0.89582 0.90058 0.0
O151 O 0.36893 0.93134 0.88956 0.0
N152 N 0.25284 0.89686 0.93605 0.0
C153 C 0.18733 0.93756 0.8837 0.0
C154 C 0.18818 0.8936 0.8871 0.0
C155 C 0.2212 0.87365 0.91382 0.0
C156 C 0.25023 0.93964 0.93762 0.0
C157 C 0.21765 0.96062 0.912 0.0
H158 H 0.22353 0.83993 0.91045 0.0
H159 H 0.27616 0.95781 0.953 0.0
H160 H 0.27863 0.80697 0.85834 0.0
H161 H 0.28121 0.90108 0.74129 0.0
H162 H 0.2749 0.91155 0.13297 0.0
H163 H 0.16482 0.87494 0.86652 0.0
H164 H 0.21844 0.99465 0.91011 0.0
C165 C 0.38235 0.05261 0.0917 0.0
C166 C 0.3876 0.03208 0.04398 0.0
N167 N 0.42749 1.01984 0.04125 0.0
N168 N 0.41859 0.05355 0.11883 0.0
C169 C 0.44624 0.03419 0.0863 0.0
H170 H 0.35274 0.06026 0.10905 0.0
Co171 Co 0.41656 0.06069 0.19205 0.0
C172 C 0.50114 0.02561 0.22294 0.0
O173 O 0.48733 0.99536 0.25436 0.0
N174 N 0.41169 0.06817 0.26838 0.0
C175 C 0.4003 0.05247 0.35551 0.0
C176 C 0.41579 0.0382 0.30701 0.0
C177 C 0.39273 0.10031 0.29484 0.0
N178 N 0.38538 0.09146 0.34796 0.0
O179 O 0.43081 0.11941 0.18 0.0
H180 H 0.42415 1.00594 0.2997 0.0
H181 H 0.38049 0.12772 0.27433 0.0
O182 O 0.4761 0.04996 0.19809 0.0
C183 C 0.40255 0.14056 0.15607 0.0
O184 O 0.36435 0.12704 0.15921 0.0
N185 N 0.40019 1.00309 0.19691 0.0
C186 C 0.357 0.94343 0.13489 0.0
C187 C 0.40034 0.94214 0.13842 0.0
C188 C 0.42143 0.97162 0.17085 0.0
C189 C 0.35804 1.00084 0.20042 0.0
C190 C 0.3358 0.9714 0.1695 0.0
H191 H 0.45464 0.97309 0.16641 0.0
H192 H 0.34125 0.0262 0.21973 0.0
H193 H 0.4773 0.02555 0.0985 0.0
H194 H 0.36285 1.02353 0.01646 0.0
H195 H 0.39663 0.03398 0.39217 0.0
H196 H 0.41789 0.92058 0.11336 0.0
H197 H 0.30232 0.97366 0.1686 0.0
C198 C 0.24023 0.15013 0.32435 0.0
C199 C 0.2538 0.16697 0.27662 0.0
N200 N 0.26317 0.20777 0.28495 0.0
N201 N 0.24025 0.18031 0.36278 0.0
C202 C 0.25514 0.21507 0.33758 0.0
H203 H 0.23593 0.11691 0.3319 0.0
Co204 Co 0.23467 0.16908 0.43622 0.0
C205 C 0.26939 0.25239 0.47862 0.0
O206 O 0.29981 0.23598 0.50682 0.0
N207 N 0.22974 0.15671 0.51253 0.0
C208 C 0.24931 0.14267 0.59776 0.0
C209 C 0.26168 0.15776 0.54823 0.0
C210 C 0.19806 0.13989 0.54216 0.0
N211 N 0.20931 0.13101 0.59431 0.0
O212 O 0.17588 0.18156 0.42941 0.0
H213 H 0.29336 0.16561 0.53845 0.0
H214 H 0.16819 0.13176 0.52493 0.0
O215 O 0.24452 0.22887 0.45191 0.0
C216 C 0.15643 0.15434 0.40057 0.0
O217 O 0.175 0.11882 0.38954 0.0
N218 N 0.29112 0.15331 0.436 0.0
C219 C 0.35667 0.11266 0.38369 0.0
C220 C 0.35581 0.15663 0.38714 0.0
C221 C 0.32276 0.17654 0.41383 0.0
C222 C 0.29373 0.11053 0.43751 0.0
C223 C 0.32633 0.08957 0.4119 0.0
H224 H 0.32043 0.21027 0.4105 0.0
H225 H 0.26779 0.09234 0.45284 0.0
H226 H 0.26534 0.2432 0.35834 0.0
H227 H 0.2627 0.14912 0.24126 0.0
H228 H 0.26909 0.13856 0.63292 0.0
H229 H 0.37919 0.1753 0.36663 0.0
H230 H 0.32555 0.05555 0.40998 0.0
C231 C 0.16157 0.99755 0.59169 0.0
C232 C 0.15632 1.01808 0.54396 0.0
N233 N 0.11643 0.03033 0.54124 0.0
N234 N 0.12534 0.99662 0.61882 0.0
C235 C 0.09769 1.01599 0.58629 0.0
H236 H 0.19118 0.98989 0.60904 0.0
Co237 Co 0.12738 0.98949 0.69204 0.0
C238 C 0.04281 1.0246 0.72292 0.0
O239 O 0.05663 0.05487 0.75431 0.0
N240 N 0.13227 0.98201 0.76837 0.0
C241 C 0.14372 0.99776 0.85548 0.0
C242 C 0.12817 1.01199 0.807 0.0
C243 C 0.15128 0.9499 0.79483 0.0
N244 N 0.1587 0.95881 0.84791 0.0
O245 O 0.11312 0.93077 0.68001 0.0
H246 H 0.11976 0.04424 0.79968 0.0
H247 H 0.16351 0.92248 0.77432 0.0
O248 O 0.06783 1.00023 0.69809 0.0
C249 C 0.14138 0.90961 0.65609 0.0
O250 O 0.17958 0.92313 0.65924 0.0
N251 N 0.14376 0.04708 0.69689 0.0
C252 C 0.18697 0.10673 0.63486 0.0
C253 C 0.14363 0.10803 0.63838 0.0
C254 C 0.12253 0.07856 0.67082 0.0
C255 C 0.18591 0.04933 0.7004 0.0
C256 C 0.20816 0.07876 0.66948 0.0
H257 H 0.08932 0.0771 0.66637 0.0
H258 H 0.2027 1.02396 0.71972 0.0
H259 H 0.06663 1.02464 0.59849 0.0
H260 H 0.18108 0.02663 0.51645 0.0
H261 H 0.14737 1.01626 0.89214 0.0
H262 H 0.12608 0.1296 0.61332 0.0
H263 H 0.24164 0.07648 0.66858 0.0
C264 C 0.69155 0.83796 0.79421 0.0
C265 C 0.71069 0.82634 0.74689 0.0
N266 N 0.75123 0.82099 0.75696 0.0
N267 N 0.71986 0.84014 0.83479 0.0
C268 C 0.75399 0.82373 0.81123 0.0
H269 H 0.65965 0.84734 0.79591 0.0
Co270 Co 0.71898 0.86828 0.90392 0.0
C271 C 0.76181 0.79933 0.97039 0.0
O272 O 0.78525 0.82459 0.99925 0.0
N273 N 0.71786 0.89609 0.97424 0.0
C274 C 0.74107 0.92796 0.04926 0.0
C275 C 0.7519 0.90611 1.00368 0.0
C276 C 0.68633 0.91395 1.00331 0.0
N277 N 0.69972 0.93375 0.04943 0.0
O278 O 0.66135 0.85196 0.91216 0.0
H279 H 0.78357 0.89996 0.99214 0.0
H280 H 0.65446 0.91423 0.98954 0.0
O281 O 0.73662 0.81409 0.93521 0.0
C282 C 0.63208 0.87216 0.88819 0.0
O283 O 0.59348 0.85972 0.89446 0.0
N284 N 0.77464 0.88969 0.89168 0.0
C285 C 0.84185 0.93204 0.84415 0.0
C286 C 0.84658 0.89091 0.86399 0.0
C287 C 0.8129 0.87087 0.89017 0.0
C288 C 0.77176 0.93121 0.87837 0.0
C289 C 0.80465 0.95291 0.8548 0.0
H290 H 0.81688 0.83893 0.90407 0.0
H291 H 0.74329 0.94764 0.88456 0.0
H292 H 0.78275 0.81824 0.83139 0.0
H293 H 0.69732 0.82896 0.70679 0.0
H294 H 0.76286 0.93974 0.07904 0.0
H295 H 0.87552 0.87429 0.85832 0.0
H296 H 0.79997 0.98511 0.84181 0.0
C297 C 0.9867 0.97107 0.57155 0.0
C298 C 0.98402 0.98465 0.51831 0.0
N299 N 0.94371 0.99198 0.5077 0.0
N300 N 0.94811 0.97053 0.59294 0.0
C301 C 0.92284 0.98075 0.55217 0.0
H302 H 1.01494 0.96613 0.59435 0.0
Co303 Co 0.92796 0.97177 0.66269 0.0
C304 C 0.9982 1.02195 0.71197 0.0
O305 O 0.9749 0.05425 0.72434 0.0
N306 N 0.90701 0.97209 0.73536 0.0
C307 C 0.88233 0.994 0.8151 0.0
C308 C 0.90246 1.00572 0.76846 0.0
C309 C 0.88863 0.94015 0.76332 0.0
N310 N 0.8733 0.95277 0.812 0.0
O311 O 0.94401 0.91354 0.66936 0.0
H312 H 0.90894 0.03788 0.7577 0.0
H313 H 0.88352 0.9091 0.74648 0.0
O314 O 0.98286 0.98956 0.68846 0.0
C315 C 0.92567 0.88543 0.64039 0.0
O316 O 0.93883 0.84639 0.64182 0.0
N317 N 0.90877 0.02836 0.64978 0.0
C318 C 0.86676 0.08955 0.58737 0.0
C319 C 0.91038 0.08875 0.58952 0.0
C320 C 0.93082 0.0581 0.62116 0.0
C321 C 0.86659 0.03093 0.65156 0.0
C322 C 0.84521 0.06103 0.6212 0.0
H323 H 0.96408 0.05517 0.61692 0.0
H324 H 0.84892 1.00659 0.67189 0.0
H325 H 0.89021 0.98632 0.55803 0.0
H326 H 1.00962 0.99198 0.49153 0.0
H327 H 0.87164 1.01509 0.84669 0.0
H328 H 0.92865 0.1099 0.56465 0.0
H329 H 0.81175 0.05927 0.62154 0.0
C330 C 0.85236 0.2123 0.29421 0.0
C331 C 0.83321 0.22392 0.24689 0.0
N332 N 0.79267 0.22925 0.25695 0.0
N333 N 0.82404 0.21011 0.33479 0.0
C334 C 0.78991 0.2265 0.31122 0.0
H335 H 0.88426 0.20294 0.29592 0.0
Co336 Co 0.82493 0.18196 0.40392 0.0
C337 C 0.7821 0.2509 0.47039 0.0
O338 O 0.75866 0.22564 0.49924 0.0
N339 N 0.82607 0.15415 0.47423 0.0
C340 C 0.80285 0.12225 0.54924 0.0
C341 C 0.79203 0.14412 0.50367 0.0
C342 C 0.8576 0.13627 0.50329 0.0
N343 N 0.8442 0.11643 0.54938 0.0
O344 O 0.88256 0.19828 0.41215 0.0
H345 H 0.76035 0.15028 0.49214 0.0
H346 H 0.88947 0.13601 0.48954 0.0
O347 O 0.80729 0.23615 0.43521 0.0
C348 C 0.91183 0.17808 0.38818 0.0
O349 O 0.95043 0.19052 0.39445 0.0
N350 N 0.76928 0.16055 0.39168 0.0
C351 C 0.70207 0.11819 0.34415 0.0
C352 C 0.69734 0.15932 0.36399 0.0
C353 C 0.73101 0.17937 0.39018 0.0
C354 C 0.77216 0.11904 0.37837 0.0
C355 C 0.73928 0.09733 0.3548 0.0
H356 H 0.72702 0.2113 0.40407 0.0
H357 H 0.80063 0.10261 0.38456 0.0
H358 H 0.76114 0.23198 0.33137 0.0
H359 H 0.84659 0.22131 0.20679 0.0
H360 H 0.78107 0.11047 0.57902 0.0
H361 H 0.66839 0.17594 0.35832 0.0
H362 H 0.74396 0.06513 0.3418 0.0
C363 C 0.55722 0.07914 0.07154 0.0
C364 C 0.5599 0.06558 0.0183 0.0
N365 N 0.60021 0.05825 0.00769 0.0
N366 N 0.59581 0.0797 0.09294 0.0
C367 C 0.62107 0.0695 0.05216 0.0
H368 H 0.52897 0.08408 0.09435 0.0
Co369 Co 0.61596 0.07846 0.16268 0.0
C370 C 0.54574 0.02827 0.21197 0.0
O371 O 0.56905 0.99598 0.22435 0.0
N372 N 0.63692 0.07814 0.23534 0.0
C373 C 0.66161 0.05622 0.31508 0.0
C374 C 0.64149 0.0445 0.26843 0.0
C375 C 0.6553 0.11008 0.26331 0.0
N376 N 0.67063 0.09746 0.31199 0.0
O377 O 0.59991 0.13669 0.16936 0.0
H378 H 0.63503 1.01235 0.25767 0.0
H379 H 0.6604 0.14113 0.24648 0.0
O380 O 0.56107 0.06065 0.18846 0.0
C381 C 0.61824 0.16481 0.14038 0.0
O382 O 0.60506 0.20384 0.14182 0.0
N383 N 0.63516 1.02187 0.14976 0.0
C384 C 0.67717 0.96068 0.08737 0.0
C385 C 0.63355 0.96148 0.08953 0.0
C386 C 0.61311 0.99214 0.12115 0.0
C387 C 0.67734 1.01932 0.15152 0.0
C388 C 0.69873 0.98921 0.12117 0.0
H389 H 0.57985 0.99506 0.11693 0.0
H390 H 0.69502 0.04366 0.17184 0.0
H391 H 0.65371 0.06393 0.05801 0.0
H392 H 0.53429 0.05823 0.99153 0.0
H393 H 0.67231 0.03513 0.34667 0.0
H394 H 0.61527 0.94031 0.06468 0.0
H395 H 0.73218 0.99097 0.12151 0.0
C396 C 0.74023 0.15016 0.18596 0.0
C397 C 0.7538 0.16698 0.2337 0.0
N398 N 0.76316 0.20779 0.22538 0.0
N399 N 0.74023 0.18034 0.14754 0.0
C400 C 0.75511 0.2151 0.17275 0.0
H401 H 0.73594 0.11693 0.1784 0.0
Co402 Co 0.73464 0.16912 0.07409 0.0
C403 C 0.7694 0.25244 0.03175 0.0
O404 O 0.79983 0.23603 1.00359 0.0
N405 N 0.7297 0.15678 0.99778 0.0
C406 C 0.74925 0.14276 0.91253 0.0
C407 C 0.76163 0.15785 0.96207 0.0
C408 C 0.69801 0.13994 0.96816 0.0
N409 N 0.70926 0.13107 0.916 0.0
O410 O 0.67585 0.18161 0.08092 0.0
H411 H 0.7933 0.16572 0.97184 0.0
H412 H 0.66816 0.13179 0.9854 0.0
O413 O 0.74449 0.22893 0.05842 0.0
C414 C 0.65641 0.15439 0.10977 0.0
O415 O 0.67499 0.11887 0.12079 0.0
N416 N 0.79109 0.15335 0.07429 0.0
C417 C 0.85659 0.11264 0.12665 0.0
C418 C 0.85574 0.15661 0.12325 0.0
C419 C 0.82273 0.17656 0.09653 0.0
C420 C 0.79369 0.11057 0.07273 0.0
C421 C 0.82627 0.08959 0.09835 0.0
H422 H 0.8204 0.21028 0.09989 0.0
H423 H 0.76776 0.0924 0.05735 0.0
H424 H 0.76529 0.24324 0.15201 0.0
H425 H 0.76272 0.14913 0.26905 0.0
H426 H 0.76902 0.13866 0.87737 0.0
H427 H 0.8791 0.17527 0.14383 0.0
H428 H 0.82549 0.05556 0.10023 0.0
C429 C 0.66157 0.9976 0.91864 0.0
C430 C 0.65632 1.01813 0.96637 0.0
N431 N 0.61643 0.03036 0.9691 0.0
N432 N 0.62534 0.99666 0.89152 0.0
C433 C 0.59769 1.01602 0.92405 0.0
H434 H 0.69118 0.98995 0.9013 0.0
Co435 Co 0.62737 0.98952 0.8183 0.0
C436 C 0.54278 1.0246 0.7874 0.0
O437 O 0.55659 0.05485 0.75598 0.0
N438 N 0.63224 0.98203 0.74197 0.0
C439 C 0.64362 0.99774 0.65484 0.0
C440 C 0.62814 1.01201 0.70333 0.0
C441 C 0.6512 0.9499 0.7155 0.0
N442 N 0.65854 0.95875 0.66238 0.0
O443 O 0.61311 0.9308 0.83035 0.0
H444 H 0.61977 0.04427 0.71065 0.0
H445 H 0.66344 0.92248 0.73602 0.0
O446 O 0.56782 1.00025 0.81226 0.0
C447 C 0.64137 0.90965 0.85427 0.0
O448 O 0.67957 0.92317 0.85114 0.0
N449 N 0.64373 0.04712 0.81344 0.0
C450 C 0.68692 0.10678 0.87546 0.0
C451 C 0.64359 0.10806 0.87193 0.0
C452 C 0.62249 0.07859 0.83949 0.0
C453 C 0.68588 0.04937 0.80993 0.0
C454 C 0.70812 0.07881 0.84085 0.0
H455 H 0.58929 0.07712 0.84393 0.0
H456 H 0.70268 1.02401 0.79061 0.0
H457 H 0.56663 1.02466 0.91185 0.0
H458 H 0.68108 0.02668 0.99389 0.0
H459 H 0.64729 1.01623 0.61818 0.0
H460 H 0.62603 0.12963 0.89699 0.0
H461 H 0.7416 0.07655 0.84175 0.0
C462 C 0.80369 0.90007 0.686 0.0
C463 C 0.79012 0.88324 0.73373 0.0
N464 N 0.78075 0.84244 0.7254 0.0
N465 N 0.80367 0.8699 0.64757 0.0
C466 C 0.78878 0.83514 0.67277 0.0
H467 H 0.808 0.9333 0.67845 0.0
Co468 Co 0.80925 0.88113 0.57412 0.0
C469 C 0.77453 0.79782 0.53172 0.0
O470 O 0.74412 0.81422 0.50353 0.0
N471 N 0.81418 0.89349 0.49782 0.0
C472 C 0.79461 0.90754 0.41258 0.0
C473 C 0.78224 0.89245 0.46211 0.0
C474 C 0.84587 0.91032 0.46819 0.0
N475 N 0.83461 0.9192 0.41604 0.0
O476 O 0.86805 0.86865 0.58093 0.0
H477 H 0.75056 0.88459 0.4719 0.0
H478 H 0.87573 0.91845 0.48542 0.0
O479 O 0.79941 0.82133 0.55843 0.0
C480 C 0.8875 0.89586 0.60978 0.0
O481 O 0.86892 0.93139 0.62081 0.0
N482 N 0.75281 0.8969 0.57435 0.0
C483 C 0.68725 0.93755 0.62666 0.0
C484 C 0.68812 0.89358 0.62321 0.0
C485 C 0.72116 0.87367 0.59652 0.0
C486 C 0.7502 0.93968 0.57284 0.0
C487 C 0.7176 0.96063 0.59845 0.0
H488 H 0.72349 0.83994 0.59984 0.0
H489 H 0.77613 0.95787 0.55751 0.0
H490 H 0.77859 0.80701 0.65201 0.0
H491 H 0.78122 0.90109 0.76909 0.0
H492 H 0.77484 0.91165 0.37743 0.0
H493 H 0.66474 0.87491 0.64372 0.0
H494 H 0.71837 0.99466 0.60037 0.0
C495 C 0.88235 0.05266 0.41865 0.0
C496 C 0.8876 0.03212 0.46638 0.0
N497 N 0.92749 1.01988 0.46911 0.0
N498 N 0.91859 0.05359 0.39153 0.0
C499 C 0.94623 0.03422 0.42405 0.0
H500 H 0.85274 0.06031 0.40131 0.0
Co501 Co 0.91654 0.06072 0.31831 0.0
C502 C 1.00112 0.02561 0.28742 0.0
O503 O 0.9873 0.99534 0.25603 0.0
N504 N 0.91165 0.06819 0.24198 0.0
C505 C 0.90021 0.05245 0.15486 0.0
C506 C 0.91575 0.03822 0.20335 0.0
C507 C 0.89264 0.10031 0.21552 0.0
N508 N 0.88522 0.0914 0.16244 0.0
O509 O 0.93081 0.11944 0.33034 0.0
H510 H 0.92416 1.00596 0.21067 0.0
H511 H 0.88042 0.12773 0.23603 0.0
O512 O 0.97609 0.04998 0.31225 0.0
C513 C 0.90254 0.14059 0.35425 0.0
O514 O 0.86434 0.12708 0.35111 0.0
N515 N 0.90017 1.00313 0.31346 0.0
C516 C 0.85696 0.94348 0.37548 0.0
C517 C 0.90029 0.94218 0.37196 0.0
C518 C 0.9214 0.97165 0.33952 0.0
C519 C 0.85801 1.00088 0.30995 0.0
C520 C 0.83577 0.97145 0.34087 0.0
H521 H 0.9546 0.97311 0.34397 0.0
H522 H 0.84123 0.02625 0.29063 0.0
H523 H 0.97729 0.02557 0.41186 0.0
H524 H 0.86285 1.02358 0.4939 0.0
H525 H 0.89655 0.03395 0.1182 0.0
H526 H 0.91784 0.92061 0.39703 0.0
H527 H 0.80228 0.97373 0.34177 0.0
C528 C 0.82276 0.73349 0.68712 0.0
C529 C 0.80953 0.73062 0.74065 0.0
N530 N 0.7958 0.69104 0.7481 0.0
N531 N 0.81611 0.69611 0.66236 0.0
C532 C 0.80127 0.67088 0.70129 0.0
H533 H 0.8355 0.76097 0.66727 0.0
Co534 Co 0.81852 0.67721 0.59147 0.0
C535 C 0.77588 0.75184 0.53856 0.0
O536 O 0.74456 0.72954 0.52039 0.0
N537 N 0.82172 0.65667 0.51821 0.0
C538 C 0.80347 0.63349 0.43597 0.0
C539 C 0.79027 0.65353 0.48207 0.0
C540 C 0.85379 0.63698 0.49276 0.0
N541 N 0.84344 0.62251 0.44243 0.0
O542 O 0.87686 0.69203 0.59076 0.0
H543 H 0.75842 0.66153 0.48982 0.0
H544 H 0.88333 0.631 0.51216 0.0
O545 O 0.80489 0.7345 0.56606 0.0
C546 C 0.90335 0.67444 0.6224 0.0
O547 O 0.94193 0.68788 0.6226 0.0
N548 N 0.76158 0.65993 0.59782 0.0
C549 C 0.69765 0.62069 0.65706 0.0
C550 C 0.70032 0.66473 0.6543 0.0
C551 C 0.73215 0.68385 0.62369 0.0
C552 C 0.75717 0.61724 0.59631 0.0
C553 C 0.72543 0.59712 0.6252 0.0
H554 H 0.73651 0.71745 0.62773 0.0
H555 H 0.78126 0.59821 0.57819 0.0
H556 H 0.79172 0.63877 0.69419 0.0
H557 H 0.80971 0.75522 0.77098 0.0
H558 H 0.78414 0.62576 0.4014 0.0
H559 H 0.67947 0.68414 0.6779 0.0
H560 H 0.72507 0.56308 0.62619 0.0
C561 C 0.56068 0.57421 0.93993 0.0
C562 C 0.56516 0.56086 0.99321 0.0
N563 N 0.60556 0.552 1.00065 0.0
N564 N 0.5982 0.57301 0.91535 0.0
C565 C 0.6247 0.5607 0.95398 0.0
H566 H 0.53181 0.58165 0.91975 0.0
Co567 Co 0.61584 0.57585 0.84405 0.0
C568 C 0.54132 0.52947 0.79693 0.0
O569 O 0.56305 0.49608 0.78442 0.0
N570 N 0.63482 0.57945 0.76996 0.0
C571 C 0.65375 0.56045 0.68619 0.0
C572 C 0.63371 0.54823 0.73268 0.0
C573 C 0.6568 0.61049 0.74454 0.0
N574 N 0.66876 0.59956 0.69335 0.0
O575 O 0.60137 0.63491 0.84424 0.0
H576 H 0.6227 0.51681 0.73963 0.0
H577 H 0.66615 0.63941 0.76441 0.0
O578 O 0.55863 0.56128 0.81965 0.0
C579 C 0.62086 0.66119 0.87485 0.0
O580 O 0.6083 0.7004 0.87734 0.0
N581 N 0.63395 0.51849 0.85 0.0
C582 C 0.67724 0.45551 0.90679 0.0
C583 C 0.63371 0.45696 0.90796 0.0
C584 C 0.61257 0.48844 0.87893 0.0
C585 C 0.67594 0.51514 0.84468 0.0
C586 C 0.69802 0.48399 0.87232 0.0
H587 H 0.5797 0.49202 0.88629 0.0
H588 H 0.69323 0.53976 0.82435 0.0
H589 H 0.65682 0.55351 0.94602 0.0
H590 H 0.5408 0.55632 0.02288 0.0
H591 H 0.65876 0.54093 0.65076 0.0
H592 H 0.61627 0.43564 0.93362 0.0
H593 H 0.73152 0.48486 0.87013 0.0
C594 C 0.72116 0.31676 0.18714 0.0
C595 C 0.73439 0.31963 0.24067 0.0
N596 N 0.74813 0.35921 0.24812 0.0
N597 N 0.72783 0.35415 0.16238 0.0
C598 C 0.74266 0.37938 0.20131 0.0
H599 H 0.70841 0.28929 0.16729 0.0
Co600 Co 0.72542 0.37305 0.09149 0.0
C601 C 0.76805 0.29841 0.03858 0.0
O602 O 0.79939 0.32071 0.02045 0.0
N603 N 0.72222 0.39359 0.01823 0.0
C604 C 0.74049 0.4168 0.936 0.0
C605 C 0.75367 0.39672 0.98209 0.0
C606 C 0.69016 0.41331 0.99279 0.0
N607 N 0.70053 0.42782 0.94249 0.0
O608 O 0.66707 0.35823 0.09076 0.0
H609 H 0.78552 0.3887 0.98983 0.0
H610 H 0.66062 0.41929 0.01218 0.0
O611 O 0.73904 0.31576 0.06607 0.0
C612 C 0.64058 0.37582 0.1224 0.0
O613 O 0.60201 0.36238 0.1226 0.0
N614 N 0.78236 0.39033 0.09784 0.0
C615 C 0.84629 0.42956 0.15707 0.0
C616 C 0.84361 0.38552 0.15432 0.0
C617 C 0.81179 0.3664 0.12371 0.0
C618 C 0.78676 0.43302 0.09633 0.0
C619 C 0.81851 0.45313 0.12521 0.0
H620 H 0.80742 0.3328 0.12776 0.0
H621 H 0.76268 0.45205 0.0782 0.0
H622 H 0.75222 0.41148 0.19421 0.0
H623 H 0.7342 0.29503 0.27101 0.0
H624 H 0.75981 0.42452 0.90143 0.0
H625 H 0.86447 0.36612 0.17792 0.0
H626 H 0.81887 0.48717 0.1262 0.0
C627 C 0.98324 0.47602 0.43997 0.0
C628 C 0.97875 0.48937 0.49324 0.0
N629 N 0.93835 0.49823 0.50068 0.0
N630 N 0.94572 0.47723 0.41538 0.0
C631 C 0.91922 0.48954 0.454 0.0
H632 H 1.0121 0.46857 0.4198 0.0
Co633 Co 0.92808 0.47439 0.34408 0.0
C634 C 1.00261 0.52074 0.29695 0.0
O635 O 0.9809 0.55413 0.28443 0.0
N636 N 0.9091 0.4708 0.26999 0.0
C637 C 0.89018 0.48981 0.18623 0.0
C638 C 0.91021 0.50203 0.23272 0.0
C639 C 0.88713 0.43976 0.24456 0.0
N640 N 0.87517 0.4507 0.19337 0.0
O641 O 0.94253 0.41532 0.34427 0.0
H642 H 0.92121 0.53345 0.23968 0.0
H643 H 0.87778 0.41084 0.26443 0.0
O644 O 0.98529 0.48894 0.31969 0.0
C645 C 0.92304 0.38905 0.37488 0.0
O646 O 0.9356 0.34984 0.37737 0.0
N647 N 0.90999 0.53176 0.35003 0.0
C648 C 0.86672 0.59477 0.40678 0.0
C649 C 0.91024 0.5933 0.40795 0.0
C650 C 0.93137 0.5618 0.37895 0.0
C651 C 0.86799 0.53511 0.34471 0.0
C652 C 0.84592 0.56628 0.37233 0.0
H653 H 0.96425 0.55822 0.3863 0.0
H654 H 0.85069 0.51049 0.3244 0.0
H655 H 0.88709 0.49674 0.44604 0.0
H656 H 1.0031 0.49391 0.52292 0.0
H657 H 0.88516 0.50934 0.1508 0.0
H658 H 0.9277 0.61464 0.4336 0.0
H659 H 0.81243 0.56542 0.37014 0.0
C660 C 0.78943 0.42426 0.35106 0.0
C661 C 0.77242 0.41876 0.30117 0.0
N662 N 0.76801 0.37715 0.29314 0.0
N663 N 0.79641 0.38638 0.37412 0.0
C664 C 0.78322 0.35774 0.33739 0.0
H665 H 0.79289 0.45419 0.37154 0.0
Co666 Co 0.80459 0.38541 0.44777 0.0
C667 C 0.77683 0.29667 0.47728 0.0
O668 O 0.74803 0.30973 0.51074 0.0
N669 N 0.81235 0.38788 0.52503 0.0
C670 C 0.79669 0.3952 0.61303 0.0
C671 C 0.78247 0.38264 0.56314 0.0
C672 C 0.84439 0.4051 0.55354 0.0
N673 N 0.83556 0.40992 0.60733 0.0
O674 O 0.86431 0.37635 0.43444 0.0
H675 H 0.75045 0.375 0.55512 0.0
H676 H 0.87206 0.4176 0.53437 0.0
O677 O 0.79847 0.32315 0.44999 0.0
C678 C 0.8845 0.40162 0.40329 0.0
O679 O 0.86737 0.43714 0.38903 0.0
N680 N 0.74667 0.39642 0.45437 0.0
C681 C 0.68402 0.43755 0.39641 0.0
C682 C 0.68718 0.3936 0.39497 0.0
C683 C 0.71807 0.37338 0.42553 0.0
C684 C 0.74004 0.43826 0.46281 0.0
C685 C 0.70894 0.45948 0.4341 0.0
H686 H 0.72313 0.34045 0.41749 0.0
H687 H 0.76312 0.45659 0.4844 0.0
H688 H 0.78117 0.32424 0.34485 0.0
H689 H 0.76121 0.44352 0.27488 0.0
H690 H 0.77841 0.39655 0.6499 0.0
H691 H 0.66812 0.37536 0.36734 0.0
H692 H 0.70775 0.49342 0.43706 0.0
C693 C 0.87171 0.54133 0.59987 0.0
C694 C 0.87823 0.52378 0.55032 0.0
N695 N 0.91944 0.51966 0.54379 0.0
N696 N 0.90856 0.54885 0.62421 0.0
C697 C 0.93753 0.53562 0.58853 0.0
H698 H 0.84179 0.54434 0.61937 0.0
Co699 Co 0.90939 0.55747 0.69801 0.0
C700 C 0.9966 0.52862 0.72586 0.0
O701 O 0.98324 0.49962 0.75944 0.0
N702 N 0.90694 0.5659 0.77522 0.0
C703 C 0.89978 0.551 0.86352 0.0
C704 C 0.91235 0.53615 0.81391 0.0
C705 C 0.88968 0.59848 0.80309 0.0
N706 N 0.88496 0.59014 0.85705 0.0
O707 O 0.91832 0.61749 0.68432 0.0
H708 H 0.92014 0.50372 0.80651 0.0
H709 H 0.87715 0.62613 0.78335 0.0
O710 O 0.97078 0.55146 0.69973 0.0
C711 C 0.89187 0.63683 0.65456 0.0
O712 O 0.85633 0.6186 0.6442 0.0
N713 N 0.89839 0.49875 0.70506 0.0
C714 C 0.85772 0.43511 0.64708 0.0
C715 C 0.90104 0.43824 0.64603 0.0
C716 C 0.92101 0.46968 0.67643 0.0
C717 C 0.85707 0.49205 0.71325 0.0
C718 C 0.83605 0.46045 0.68447 0.0
H719 H 0.95346 0.47478 0.66814 0.0
H720 H 0.83906 0.5155 0.7346 0.0
H721 H 0.97032 0.53355 0.59735 0.0
H722 H 0.85436 0.51181 0.52351 0.0
H723 H 0.89856 0.53288 0.90075 0.0
H724 H 0.91902 0.41887 0.6186 0.0
H725 H 0.80256 0.45928 0.68711 0.0
C726 C 0.75447 0.62599 0.85101 0.0
C727 C 0.77149 0.6315 0.80113 0.0
N728 N 0.7759 0.6731 0.79311 0.0
N729 N 0.74749 0.66387 0.87408 0.0
C730 C 0.76069 0.69251 0.83736 0.0
H731 H 0.751 0.59606 0.8715 0.0
Co732 Co 0.73932 0.66482 0.94773 0.0
C733 C 0.76708 0.75356 0.97727 0.0
O734 O 0.79587 0.7405 0.01074 0.0
N735 N 0.73157 0.66234 0.02499 0.0
C736 C 0.74724 0.65502 0.11299 0.0
C737 C 0.76146 0.66757 0.06309 0.0
C738 C 0.69953 0.64514 0.05351 0.0
N739 N 0.70836 0.64032 0.10729 0.0
O740 O 0.6796 0.67389 0.93441 0.0
H741 H 0.79347 0.6752 0.05507 0.0
H742 H 0.67185 0.63265 0.03434 0.0
O743 O 0.74544 0.72709 0.94997 0.0
C744 C 0.65941 0.64862 0.90326 0.0
O745 O 0.67654 0.61311 0.889 0.0
N746 N 0.79724 0.65382 0.95432 0.0
C747 C 0.85993 0.61273 0.89639 0.0
C748 C 0.85676 0.65668 0.89497 0.0
C749 C 0.82585 0.67688 0.92551 0.0
C750 C 0.80387 0.61198 0.96273 0.0
C751 C 0.83499 0.59077 0.93403 0.0
H752 H 0.82077 0.70981 0.91748 0.0
H753 H 0.7808 0.59363 0.98429 0.0
H754 H 0.76276 0.72601 0.84482 0.0
H755 H 0.7827 0.60673 0.77485 0.0
H756 H 0.76552 0.65366 0.14985 0.0
H757 H 0.87583 0.67493 0.86738 0.0
H758 H 0.8362 0.55683 0.93698 0.0
C759 C 0.6722 0.50891 0.09986 0.0
C760 C 0.66567 0.52645 0.05031 0.0
N761 N 0.62447 0.53058 0.04377 0.0
N762 N 0.63534 0.5014 0.12419 0.0
C763 C 0.60638 0.51462 0.08851 0.0
H764 H 0.70212 0.5059 0.11936 0.0
Co765 Co 0.63453 0.49278 0.198 0.0
C766 C 0.54731 0.52162 0.22585 0.0
O767 O 0.56067 0.55064 0.25941 0.0
N768 N 0.637 0.48436 0.27521 0.0
C769 C 0.64419 0.49929 0.3635 0.0
C770 C 0.63158 0.51412 0.31389 0.0
C771 C 0.6543 0.45179 0.30308 0.0
N772 N 0.65907 0.46018 0.35702 0.0
O773 O 0.62561 0.43276 0.18433 0.0
H774 H 0.62376 0.54654 0.3065 0.0
H775 H 0.66681 0.42414 0.28335 0.0
O776 O 0.57314 0.49878 0.19974 0.0
C777 C 0.65206 0.41342 0.15458 0.0
O778 O 0.6876 0.43165 0.14422 0.0
N779 N 0.64552 0.5515 0.20504 0.0
C780 C 0.68619 0.61514 0.14704 0.0
C781 C 0.64287 0.61201 0.14599 0.0
C782 C 0.6229 0.58057 0.1764 0.0
C783 C 0.68684 0.55821 0.21323 0.0
C784 C 0.70786 0.5898 0.18445 0.0
H785 H 0.59045 0.57546 0.1681 0.0
H786 H 0.70485 0.53476 0.2346 0.0
H787 H 0.57359 0.5167 0.09733 0.0
H788 H 0.68955 0.53842 0.0235 0.0
H789 H 0.6454 0.5174 0.40073 0.0
H790 H 0.6249 0.63138 0.11855 0.0
H791 H 0.74135 0.59097 0.1871 0.0
C792 C 0.22116 0.31671 0.32323 0.0
C793 C 0.23439 0.31959 0.2697 0.0
N794 N 0.24812 0.35917 0.26225 0.0
N795 N 0.22782 0.3541 0.34799 0.0
C796 C 0.24265 0.37933 0.30906 0.0
H797 H 0.20842 0.28923 0.34308 0.0
Co798 Co 0.22541 0.373 0.41887 0.0
C799 C 0.26804 0.29837 0.47179 0.0
O800 O 0.29936 0.32067 0.48995 0.0
N801 N 0.2222 0.39354 0.49214 0.0
C802 C 0.24045 0.41672 0.57438 0.0
C803 C 0.25365 0.39667 0.52828 0.0
C804 C 0.19013 0.41323 0.51759 0.0
N805 N 0.20048 0.4277 0.56791 0.0
O806 O 0.16706 0.35817 0.41959 0.0
H807 H 0.2855 0.38868 0.52053 0.0
H808 H 0.16059 0.41921 0.49818 0.0
O809 O 0.23903 0.31571 0.44429 0.0
C810 C 0.14057 0.37577 0.38795 0.0
O811 O 0.102 0.36233 0.38775 0.0
N812 N 0.28234 0.39028 0.41252 0.0
C813 C 0.34628 0.42952 0.35329 0.0
C814 C 0.3436 0.38548 0.35605 0.0
C815 C 0.31177 0.36635 0.38666 0.0
C816 C 0.28675 0.43297 0.41403 0.0
C817 C 0.31849 0.45309 0.38515 0.0
H818 H 0.30741 0.33276 0.38261 0.0
H819 H 0.26266 0.452 0.43216 0.0
H820 H 0.2522 0.41144 0.31615 0.0
H821 H 0.23422 0.29498 0.23936 0.0
H822 H 0.25978 0.42445 0.60894 0.0
H823 H 0.36446 0.36607 0.33245 0.0
H824 H 0.31885 0.48712 0.38416 0.0
C825 C 0.48324 0.476 0.07041 0.0
C826 C 0.47876 0.48935 0.01714 0.0
N827 N 0.43836 0.49821 0.0097 0.0
N828 N 0.44572 0.4772 0.095 0.0
C829 C 0.41923 0.48951 0.05637 0.0
H830 H 0.51211 0.46856 0.0906 0.0
Co831 Co 0.42808 0.47436 0.1663 0.0
C832 C 0.5026 0.52074 0.21342 0.0
O833 O 0.48087 0.55413 0.22593 0.0
N834 N 0.4091 0.47076 0.24039 0.0
C835 C 0.39017 0.48976 0.32415 0.0
C836 C 0.41021 0.50198 0.27767 0.0
C837 C 0.38712 0.43972 0.26581 0.0
N838 N 0.37516 0.45065 0.317 0.0
O839 O 0.44255 0.4153 0.16611 0.0
H840 H 0.42122 0.5334 0.27071 0.0
H841 H 0.37777 0.4108 0.24594 0.0
O842 O 0.48529 0.48893 0.19069 0.0
C843 C 0.42306 0.38902 0.1355 0.0
O844 O 0.43563 0.34981 0.13301 0.0
N845 N 0.40997 0.53172 0.16035 0.0
C846 C 0.36669 0.5947 0.10356 0.0
C847 C 0.41021 0.59325 0.10239 0.0
C848 C 0.43135 0.56177 0.13142 0.0
C849 C 0.36798 0.53506 0.16567 0.0
C850 C 0.3459 0.56622 0.13803 0.0
H851 H 0.46422 0.55819 0.12406 0.0
H852 H 0.35069 0.51044 0.18599 0.0
H853 H 0.3871 0.4967 0.06432 0.0
H854 H 0.50312 0.49389 0.98747 0.0
H855 H 0.38516 0.50928 0.35959 0.0
H856 H 0.42766 0.61458 0.07673 0.0
H857 H 0.3124 0.56535 0.14022 0.0
C858 C 0.32276 0.73345 0.82321 0.0
C859 C 0.30954 0.73058 0.76968 0.0
N860 N 0.29579 0.691 0.76223 0.0
N861 N 0.31609 0.69606 0.84797 0.0
C862 C 0.30126 0.67083 0.80904 0.0
H863 H 0.33551 0.76092 0.84306 0.0
Co864 Co 0.3185 0.67716 0.91886 0.0
C865 C 0.27587 0.7518 0.97177 0.0
O866 O 0.24454 0.7295 0.9899 0.0
N867 N 0.3217 0.65662 0.99212 0.0
C868 C 0.30343 0.63341 0.07435 0.0
C869 C 0.29025 0.65349 0.02826 0.0
C870 C 0.35376 0.6369 0.01756 0.0
N871 N 0.34339 0.62239 0.06786 0.0
O872 O 0.37685 0.69198 0.91958 0.0
H873 H 0.2584 0.66151 0.02052 0.0
H874 H 0.38331 0.63092 0.99817 0.0
O875 O 0.30488 0.73445 0.94428 0.0
C876 C 0.40334 0.67439 0.88794 0.0
O877 O 0.44191 0.68783 0.88775 0.0
N878 N 0.26157 0.65988 0.91251 0.0
C879 C 0.19763 0.62065 0.85328 0.0
C880 C 0.20031 0.66468 0.85603 0.0
C881 C 0.23214 0.68381 0.88664 0.0
C882 C 0.25716 0.61719 0.91402 0.0
C883 C 0.22541 0.59708 0.88514 0.0
H884 H 0.2365 0.71741 0.88258 0.0
H885 H 0.28125 0.59816 0.93215 0.0
H886 H 0.2917 0.63873 0.81614 0.0
H887 H 0.30973 0.75518 0.73934 0.0
H888 H 0.28411 0.62569 0.10892 0.0
H889 H 0.17945 0.68409 0.83243 0.0
H890 H 0.22506 0.56304 0.88415 0.0
C891 C 0.06069 0.57419 0.57037 0.0
C892 C 0.06518 0.56084 0.5171 0.0
N893 N 0.10557 0.55198 0.50967 0.0
N894 N 0.09821 0.57298 0.59497 0.0
C895 C 0.12471 0.56067 0.55634 0.0
H896 H 0.03182 0.58164 0.59055 0.0
Co897 Co 0.11584 0.57582 0.66626 0.0
C898 C 0.04131 0.52947 0.7134 0.0
O899 O 0.06303 0.49608 0.72592 0.0
N900 N 0.13483 0.57941 0.74035 0.0
C901 C 0.15375 0.5604 0.82412 0.0
C902 C 0.13372 0.54818 0.77763 0.0
C903 C 0.15679 0.61045 0.76579 0.0
N904 N 0.16875 0.59951 0.81698 0.0
O905 O 0.10139 0.63489 0.66607 0.0
H906 H 0.12272 0.51676 0.77066 0.0
H907 H 0.16614 0.63937 0.74592 0.0
O908 O 0.05864 0.56127 0.69066 0.0
C909 C 0.12089 0.66116 0.63547 0.0
O910 O 0.10832 0.70037 0.63298 0.0
N911 N 0.13394 0.51845 0.66032 0.0
C912 C 0.1772 0.45544 0.60357 0.0
C913 C 0.13368 0.45691 0.6024 0.0
C914 C 0.11255 0.48841 0.6314 0.0
C915 C 0.17593 0.5151 0.66564 0.0
C916 C 0.198 0.48392 0.63801 0.0
H917 H 0.07968 0.49199 0.62405 0.0
H918 H 0.19323 0.53972 0.68595 0.0
H919 H 0.15683 0.55347 0.56431 0.0
H920 H 0.04082 0.55631 0.48742 0.0
H921 H 0.15877 0.54087 0.85955 0.0
H922 H 0.11622 0.43557 0.57675 0.0
H923 H 0.2315 0.48479 0.64021 0.0
C924 C 0.2545 0.62595 0.65929 0.0
C925 C 0.2715 0.63145 0.70918 0.0
N926 N 0.27591 0.67306 0.71721 0.0
N927 N 0.24751 0.66383 0.63622 0.0
C928 C 0.2607 0.69247 0.67295 0.0
H929 H 0.25103 0.59602 0.6388 0.0
Co930 Co 0.23934 0.66479 0.56257 0.0
C931 C 0.2671 0.75354 0.53307 0.0
O932 O 0.29589 0.74048 0.49961 0.0
N933 N 0.23158 0.66232 0.48531 0.0
C934 C 0.24724 0.655 0.39731 0.0
C935 C 0.26145 0.66757 0.44721 0.0
C936 C 0.19954 0.6451 0.4568 0.0
N937 N 0.20837 0.64029 0.40302 0.0
O938 O 0.17962 0.67386 0.5759 0.0
H939 H 0.29347 0.67521 0.45522 0.0
H940 H 0.17187 0.63261 0.47598 0.0
O941 O 0.24545 0.72706 0.56035 0.0
C942 C 0.15943 0.64859 0.60705 0.0
O943 O 0.17656 0.61307 0.62131 0.0
N944 N 0.29726 0.65379 0.55598 0.0
C945 C 0.3599 0.61266 0.61393 0.0
C946 C 0.35674 0.65661 0.61537 0.0
C947 C 0.32586 0.67683 0.58481 0.0
C948 C 0.30388 0.61195 0.54754 0.0
C949 C 0.33498 0.59072 0.57625 0.0
H950 H 0.32079 0.70976 0.59286 0.0
H951 H 0.28081 0.59362 0.52595 0.0
H952 H 0.26276 0.72597 0.6655 0.0
H953 H 0.28271 0.60669 0.73546 0.0
H954 H 0.26552 0.65365 0.36045 0.0
H955 H 0.3758 0.67485 0.643 0.0
H956 H 0.33618 0.55679 0.57329 0.0
C957 C 0.17221 0.50887 0.41047 0.0
C958 C 0.16569 0.52643 0.46002 0.0
N959 N 0.12448 0.53055 0.46656 0.0
N960 N 0.13536 0.50136 0.38614 0.0
C961 C 0.10639 0.51459 0.42182 0.0
H962 H 0.20214 0.50587 0.39098 0.0
Co963 Co 0.13454 0.49274 0.31234 0.0
C964 C 0.04732 0.52159 0.28448 0.0
O965 O 0.06068 0.55059 0.2509 0.0
N966 N 0.13698 0.48431 0.23513 0.0
C967 C 0.14414 0.49921 0.14683 0.0
C968 C 0.13157 0.51406 0.19644 0.0
C969 C 0.15425 0.45173 0.20726 0.0
N970 N 0.15896 0.46007 0.1533 0.0
O971 O 0.12561 0.43272 0.32603 0.0
H972 H 0.12379 0.54649 0.20383 0.0
H973 H 0.16678 0.42408 0.22699 0.0
O974 O 0.07314 0.49875 0.31061 0.0
C975 C 0.15205 0.41338 0.35578 0.0
O976 O 0.18759 0.43161 0.36615 0.0
N977 N 0.14553 0.55146 0.30529 0.0
C978 C 0.1862 0.6151 0.36327 0.0
C979 C 0.14288 0.61197 0.36432 0.0
C980 C 0.12291 0.58053 0.33391 0.0
C981 C 0.18685 0.55816 0.2971 0.0
C982 C 0.20788 0.58976 0.32588 0.0
H983 H 0.09047 0.57543 0.34221 0.0
H984 H 0.20486 0.53471 0.27574 0.0
H985 H 0.0736 0.51666 0.413 0.0
H986 H 0.18956 0.5384 0.48683 0.0
H987 H 0.14536 0.51732 0.1096 0.0
H988 H 0.1249 0.63134 0.39175 0.0
H989 H 0.24137 0.59093 0.32324 0.0
C990 C 0.28945 0.42422 0.15934 0.0
C991 C 0.27244 0.41871 0.20922 0.0
N992 N 0.26802 0.37711 0.21724 0.0
N993 N 0.29643 0.38634 0.13626 0.0
C994 C 0.28323 0.3577 0.17299 0.0
H995 H 0.29292 0.45415 0.13885 0.0
Co996 Co 0.3046 0.38538 0.06262 0.0
C997 C 0.27684 0.29665 0.03308 0.0
O998 O 0.24806 0.30971 0.99961 0.0
N999 N 0.31236 0.38787 0.98535 0.0
C1000 C 0.29668 0.39519 0.89736 0.0
C1001 C 0.28247 0.38264 0.94726 0.0
C1002 C 0.3444 0.40507 0.95684 0.0
N1003 N 0.33556 0.40989 0.90306 0.0
O1004 O 0.36432 0.37631 0.07594 0.0
H1005 H 0.25045 0.37501 0.95527 0.0
H1006 H 0.37207 0.41756 0.97601 0.0
O1007 O 0.29849 0.32312 0.06038 0.0
C1008 C 0.38451 0.40159 0.10709 0.0
O1009 O 0.36738 0.4371 0.12134 0.0
N1010 N 0.24668 0.39639 0.05603 0.0
C1011 C 0.18399 0.43748 0.11395 0.0
C1012 C 0.18717 0.39353 0.11537 0.0
C1013 C 0.21808 0.37333 0.08484 0.0
C1014 C 0.24005 0.43823 0.04762 0.0
C1015 C 0.20893 0.45944 0.07632 0.0
H1016 H 0.22315 0.3404 0.09287 0.0
H1017 H 0.26313 0.45658 0.02605 0.0
H1018 H 0.28117 0.3242 0.16553 0.0
H1019 H 0.26123 0.44348 0.2355 0.0
H1020 H 0.2784 0.39655 0.86049 0.0
H1021 H 0.16809 0.37528 0.14296 0.0
H1022 H 0.20772 0.49338 0.07337 0.0
C1023 C 0.37173 0.5413 0.91049 0.0
C1024 C 0.37825 0.52376 0.96004 0.0
N1025 N 0.41945 0.51963 0.96658 0.0
N1026 N 0.40858 0.54881 0.88615 0.0
C1027 C 0.43754 0.53559 0.92184 0.0
H1028 H 0.3418 0.54431 0.89099 0.0
Co1029 Co 0.40939 0.55743 0.81234 0.0
C1030 C 0.49661 0.52859 0.78449 0.0
O1031 O 0.48325 0.49957 0.75094 0.0
N1032 N 0.40693 0.56585 0.73513 0.0
C1033 C 0.39973 0.55092 0.64685 0.0
C1034 C 0.41234 0.53609 0.69645 0.0
C1035 C 0.38963 0.59842 0.70727 0.0
N1036 N 0.38485 0.59003 0.65333 0.0
O1037 O 0.41831 0.61745 0.82602 0.0
H1038 H 0.42016 0.50367 0.70385 0.0
H1039 H 0.37711 0.62607 0.727 0.0
O1040 O 0.47078 0.55143 0.81061 0.0
C1041 C 0.39186 0.63679 0.85577 0.0
O1042 O 0.35632 0.61856 0.86612 0.0
N1043 N 0.39841 0.49871 0.80531 0.0
C1044 C 0.35773 0.43507 0.8633 0.0
C1045 C 0.40105 0.4382 0.86436 0.0
C1046 C 0.42102 0.46964 0.83395 0.0
C1047 C 0.35708 0.492 0.79712 0.0
C1048 C 0.33606 0.46041 0.8259 0.0
H1049 H 0.45347 0.47475 0.84225 0.0
H1050 H 0.33907 0.51545 0.77575 0.0
H1051 H 0.47034 0.53351 0.91302 0.0
H1052 H 0.35438 0.51179 0.98685 0.0
H1053 H 0.39853 0.53281 0.60962 0.0
H1054 H 0.41903 0.41883 0.8918 0.0
H1055 H 0.30257 0.45924 0.82325 0.0
loop_
_geom_bond_atom_site_label_1
_geom_bond_atom_site_label_2
_geom_bond_distance
_geom_bond_site_symmetry_2
_ccdc_geom_bond_type
C0 C1 1.351 . S
C0 N3 1.368 . S
C0 H5 0.931 . S
C1 C0 1.351 . S
C1 N2 1.373 . S
C1 H29 0.930 . S
N2 C1 1.373 . S
N2 C4 1.340 . S
N3 C0 1.368 . S
N3 C4 1.321 . S
N3 Co6 2.135 . S
C4 N2 1.340 . S
C4 N3 1.321 . S
C4 H28 0.930 . S
H5 C0 0.931 . S
Co6 N3 2.135 . S
Co6 N9 2.121 . S
Co6 O14 2.055 . S
Co6 O17 2.039 . S
Co6 N20 2.140 . S
C7 O8 1.227 . S
C7 O17 1.265 . S
O8 C7 1.227 . S
N9 Co6 2.121 . S
N9 C11 1.375 1_554 S
N9 C12 1.313 1_554 S
C10 C11 1.338 . S
C10 N13 1.377 . S
C10 H30 0.930 . S
C11 N9 1.375 1_556 S
C11 C10 1.338 . S
C11 H15 0.931 . S
C12 N9 1.313 1_556 S
C12 N13 1.344 . S
C12 H16 0.930 . S
N13 C10 1.377 . S
N13 C12 1.344 . S
O14 Co6 2.055 . S
O14 C18 1.253 . S
H15 C11 0.931 . S
H16 C12 0.930 . S
O17 Co6 2.039 . S
O17 C7 1.265 . S
C18 O14 1.253 . S
C18 O19 1.227 . S
O19 C18 1.227 . S
N20 Co6 2.140 . S
N20 C23 1.346 . S
N20 C24 1.345 . S
C21 C22 1.387 . S
C21 C25 1.391 . S
C22 C21 1.387 . S
C22 C23 1.369 . S
C22 H31 0.929 . S
C23 N20 1.346 . S
C23 C22 1.369 . S
C23 H26 0.928 . S
C24 N20 1.345 . S
C24 C25 1.371 . S
C24 H27 0.931 . S
C25 C21 1.391 . S
C25 C24 1.371 . S
C25 H32 0.930 . S
H26 C23 0.928 . S
H27 C24 0.931 . S
H28 C4 0.930 . S
H29 C1 0.930 . S
H30 C10 0.930 . S
H31 C22 0.929 . S
H32 C25 0.930 . S
C33 C34 1.351 . S
C33 N36 1.368 . S
C33 H38 0.931 . S
C34 C33 1.351 . S
C34 N35 1.373 . S
C34 H62 0.930 . S
N35 C34 1.373 . S
N35 C37 1.340 . S
N36 C33 1.368 . S
N36 C37 1.321 . S
N36 Co39 2.135 . S
C37 N35 1.340 . S
C37 N36 1.321 . S
C37 H61 0.930 . S
H38 C33 0.931 . S
Co39 N36 2.135 . S
Co39 N42 2.121 . S
Co39 O47 2.055 . S
Co39 O50 2.039 . S
Co39 N53 2.140 1_545 S
C40 O41 1.227 . S
C40 O50 1.265 1_565 S
O41 C40 1.227 . S
N42 Co39 2.121 . S
N42 C44 1.375 1_545 S
N42 C45 1.313 . S
C43 C44 1.338 . S
C43 N46 1.377 1_565 S
C43 H63 0.930 . S
C44 N42 1.375 1_565 S
C44 C43 1.338 . S
C44 H48 0.931 . S
C45 N42 1.313 . S
C45 N46 1.344 . S
C45 H49 0.930 . S
N46 C43 1.377 1_545 S
N46 C45 1.344 . S
O47 Co39 2.055 . S
O47 C51 1.253 . S
H48 C44 0.931 . S
H49 C45 0.930 . S
O50 Co39 2.039 . S
O50 C40 1.265 1_545 S
C51 O47 1.253 . S
C51 O52 1.227 . S
O52 C51 1.227 . S
N53 Co39 2.140 1_565 S
N53 C56 1.346 . S
N53 C57 1.345 . S
C54 C55 1.387 . S
C54 C58 1.391 . S
C55 C54 1.387 . S
C55 C56 1.369 . S
C55 H64 0.929 . S
C56 N53 1.346 . S
C56 C55 1.369 . S
C56 H59 0.928 . S
C57 N53 1.345 . S
C57 C58 1.371 . S
C57 H60 0.931 . S
C58 C54 1.391 . S
C58 C57 1.371 . S
C58 H65 0.930 . S
H59 C56 0.928 . S
H60 C57 0.931 . S
H61 C37 0.930 . S
H62 C34 0.930 . S
H63 C43 0.930 . S
H64 C55 0.929 . S
H65 C58 0.930 . S
C66 C67 1.351 . S
C66 N69 1.368 . S
C66 H71 0.931 . S
C67 C66 1.351 . S
C67 N68 1.373 . S
C67 H95 0.930 . S
N68 C67 1.373 . S
N68 C70 1.340 . S
N69 C66 1.368 . S
N69 C70 1.321 . S
N69 Co72 2.135 . S
C70 N68 1.340 . S
C70 N69 1.321 . S
C70 H94 0.930 . S
H71 C66 0.931 . S
Co72 N69 2.135 . S
Co72 N75 2.121 . S
Co72 O80 2.055 . S
Co72 O83 2.039 . S
Co72 N86 2.140 . S
C73 O74 1.227 . S
C73 O83 1.265 . S
O74 C73 1.227 . S
N75 Co72 2.121 . S
N75 C77 1.375 . S
N75 C78 1.313 . S
C76 C77 1.338 . S
C76 N79 1.377 . S
C76 H96 0.930 . S
C77 N75 1.375 . S
C77 C76 1.338 . S
C77 H81 0.931 . S
C78 N75 1.313 . S
C78 N79 1.344 . S
C78 H82 0.930 . S
N79 C76 1.377 . S
N79 C78 1.344 . S
O80 Co72 2.055 . S
O80 C84 1.253 . S
H81 C77 0.931 . S
H82 C78 0.930 . S
O83 Co72 2.039 . S
O83 C73 1.265 . S
C84 O80 1.253 . S
C84 O85 1.227 . S
O85 C84 1.227 . S
N86 Co72 2.140 . S
N86 C89 1.346 . S
N86 C90 1.345 . S
C87 C88 1.387 . S
C87 C91 1.391 . S
C88 C87 1.387 . S
C88 C89 1.369 . S
C88 H97 0.929 . S
C89 N86 1.346 . S
C89 C88 1.369 . S
C89 H92 0.928 . S
C90 N86 1.345 . S
C90 C91 1.371 . S
C90 H93 0.931 . S
C91 C87 1.391 . S
C91 C90 1.371 . S
C91 H98 0.930 . S
H92 C89 0.928 . S
H93 C90 0.931 . S
H94 C70 0.930 . S
H95 C67 0.930 . S
H96 C76 0.930 . S
H97 C88 0.929 . S
H98 C91 0.930 . S
C99 C100 1.351 . S
C99 N102 1.368 . S
C99 H104 0.931 . S
C100 C99 1.351 . S
C100 N101 1.373 . S
C100 H128 0.930 1_556 S
N101 C100 1.373 . S
N101 C103 1.340 . S
N102 C99 1.368 . S
N102 C103 1.321 . S
N102 Co105 2.135 . S
C103 N101 1.340 . S
C103 N102 1.321 . S
C103 H127 0.930 . S
H104 C99 0.931 . S
Co105 N102 2.135 . S
Co105 N108 2.121 . S
Co105 O113 2.055 . S
Co105 O116 2.039 . S
Co105 N119 2.140 1_565 S
C106 O107 1.227 . S
C106 O116 1.265 1_545 S
O107 C106 1.227 . S
N108 Co105 2.121 . S
N108 C110 1.375 1_565 S
N108 C111 1.313 . S
C109 C110 1.338 . S
C109 N112 1.377 1_545 S
C109 H129 0.930 . S
C110 N108 1.375 1_545 S
C110 C109 1.338 . S
C110 H114 0.931 . S
C111 N108 1.313 . S
C111 N112 1.344 . S
C111 H115 0.930 . S
N112 C109 1.377 1_565 S
N112 C111 1.344 . S
O113 Co105 2.055 . S
O113 C117 1.253 . S
H114 C110 0.931 . S
H115 C111 0.930 . S
O116 Co105 2.039 . S
O116 C106 1.265 1_565 S
C117 O113 1.253 . S
C117 O118 1.227 . S
O118 C117 1.227 . S
N119 Co105 2.140 1_545 S
N119 C122 1.346 . S
N119 C123 1.345 . S
C120 C121 1.387 . S
C120 C124 1.391 . S
C121 C120 1.387 . S
C121 C122 1.369 . S
C121 H130 0.929 . S
C122 N119 1.346 . S
C122 C121 1.369 . S
C122 H125 0.928 . S
C123 N119 1.345 . S
C123 C124 1.371 . S
C123 H126 0.931 . S
C124 C120 1.391 . S
C124 C123 1.371 . S
C124 H131 0.930 . S
H125 C122 0.928 . S
H126 C123 0.931 . S
H127 C103 0.930 . S
H128 C100 0.930 1_554 S
H129 C109 0.930 . S
H130 C121 0.929 . S
H131 C124 0.930 . S
C132 C133 1.351 . S
C132 N135 1.368 . S
C132 H137 0.931 . S
C133 C132 1.351 . S
C133 N134 1.373 . S
C133 H161 0.930 . S
N134 C133 1.373 . S
N134 C136 1.340 . S
N135 C132 1.368 . S
N135 C136 1.321 . S
N135 Co138 2.135 . S
C136 N134 1.340 . S
C136 N135 1.321 . S
C136 H160 0.930 . S
H137 C132 0.931 . S
Co138 N135 2.135 . S
Co138 N141 2.121 . S
Co138 O146 2.055 . S
Co138 O149 2.039 . S
Co138 N152 2.140 . S
C139 O140 1.227 . S
C139 O149 1.265 . S
O140 C139 1.227 . S
N141 Co138 2.121 . S
N141 C143 1.375 1_556 S
N141 C144 1.313 1_556 S
C142 C143 1.338 . S
C142 N145 1.377 . S
C142 H162 0.930 . S
C143 N141 1.375 1_554 S
C143 C142 1.338 . S
C143 H147 0.931 . S
C144 N141 1.313 1_554 S
C144 N145 1.344 . S
C144 H148 0.930 . S
N145 C142 1.377 . S
N145 C144 1.344 . S
O146 Co138 2.055 . S
O146 C150 1.253 . S
H147 C143 0.931 . S
H148 C144 0.930 . S
O149 Co138 2.039 . S
O149 C139 1.265 . S
C150 O146 1.253 . S
C150 O151 1.227 . S
O151 C150 1.227 . S
N152 Co138 2.140 . S
N152 C155 1.346 . S
N152 C156 1.345 . S
C153 C154 1.387 . S
C153 C157 1.391 . S
C154 C153 1.387 . S
C154 C155 1.369 . S
C154 H163 0.929 . S
C155 N152 1.346 . S
C155 C154 1.369 . S
C155 H158 0.928 . S
C156 N152 1.345 . S
C156 C157 1.371 . S
C156 H159 0.931 . S
C157 C153 1.391 . S
C157 C156 1.371 . S
C157 H164 0.930 . S
H158 C155 0.928 . S
H159 C156 0.931 . S
H160 C136 0.930 . S
H161 C133 0.930 . S
H162 C142 0.930 . S
H163 C154 0.929 . S
H164 C157 0.930 . S
C165 C166 1.351 . S
C165 N168 1.368 . S
C165 H170 0.931 . S
C166 C165 1.351 . S
C166 N167 1.373 . S
C166 H194 0.930 1_554 S
N167 C166 1.373 . S
N167 C169 1.340 . S
N168 C165 1.368 . S
N168 C169 1.321 . S
N168 Co171 2.135 . S
C169 N167 1.340 . S
C169 N168 1.321 . S
C169 H193 0.930 . S
H170 C165 0.931 . S
Co171 N168 2.135 . S
Co171 N174 2.121 . S
Co171 O179 2.055 . S
Co171 O182 2.039 . S
Co171 N185 2.140 1_545 S
C172 O173 1.227 . S
C172 O182 1.265 1_565 S
O173 C172 1.227 . S
N174 Co171 2.121 . S
N174 C176 1.375 1_545 S
N174 C177 1.313 . S
C175 C176 1.338 . S
C175 N178 1.377 1_565 S
C175 H195 0.930 . S
C176 N174 1.375 1_565 S
C176 C175 1.338 . S
C176 H180 0.931 . S
C177 N174 1.313 . S
C177 N178 1.344 . S
C177 H181 0.930 . S
N178 C175 1.377 1_545 S
N178 C177 1.344 . S
O179 Co171 2.055 . S
O179 C183 1.253 . S
H180 C176 0.931 . S
H181 C177 0.930 . S
O182 Co171 2.039 . S
O182 C172 1.265 1_545 S
C183 O179 1.253 . S
C183 O184 1.227 . S
O184 C183 1.227 . S
N185 Co171 2.140 1_565 S
N185 C188 1.346 . S
N185 C189 1.345 . S
C186 C187 1.387 . S
C186 C190 1.391 . S
C187 C186 1.387 . S
C187 C188 1.369 . S
C187 H196 0.929 . S
C188 N185 1.346 . S
C188 C187 1.369 . S
C188 H191 0.928 . S
C189 N185 1.345 . S
C189 C190 1.371 . S
C189 H192 0.931 . S
C190 C186 1.391 . S
C190 C189 1.371 . S
C190 H197 0.930 . S
H191 C188 0.928 . S
H192 C189 0.931 . S
H193 C169 0.930 . S
H194 C166 0.930 1_556 S
H195 C175 0.930 . S
H196 C187 0.929 . S
H197 C190 0.930 . S
C198 C199 1.351 . S
C198 N201 1.368 . S
C198 H203 0.931 . S
C199 C198 1.351 . S
C199 N200 1.373 . S
C199 H227 0.930 . S
N200 C199 1.373 . S
N200 C202 1.340 . S
N201 C198 1.368 . S
N201 C202 1.321 . S
N201 Co204 2.135 . S
C202 N200 1.340 . S
C202 N201 1.321 . S
C202 H226 0.930 . S
H203 C198 0.931 . S
Co204 N201 2.135 . S
Co204 N207 2.121 . S
Co204 O212 2.055 . S
Co204 O215 2.039 . S
Co204 N218 2.140 . S
C205 O206 1.227 . S
C205 O215 1.265 . S
O206 C205 1.227 . S
N207 Co204 2.121 . S
N207 C209 1.375 . S
N207 C210 1.313 . S
C208 C209 1.338 . S
C208 N211 1.377 . S
C208 H228 0.930 . S
C209 N207 1.375 . S
C209 C208 1.338 . S
C209 H213 0.931 . S
C210 N207 1.313 . S
C210 N211 1.344 . S
C210 H214 0.930 . S
N211 C208 1.377 . S
N211 C210 1.344 . S
O212 Co204 2.055 . S
O212 C216 1.253 . S
H213 C209 0.931 . S
H214 C210 0.930 . S
O215 Co204 2.039 . S
O215 C205 1.265 . S
C216 O212 1.253 . S
C216 O217 1.227 . S
O217 C216 1.227 . S
N218 Co204 2.140 . S
N218 C221 1.346 . S
N218 C222 1.345 . S
C219 C220 1.387 . S
C219 C223 1.391 . S
C220 C219 1.387 . S
C220 C221 1.369 . S
C220 H229 0.929 . S
C221 N218 1.346 . S
C221 C220 1.369 . S
C221 H224 0.928 . S
C222 N218 1.345 . S
C222 C223 1.371 . S
C222 H225 0.931 . S
C223 C219 1.391 . S
C223 C222 1.371 . S
C223 H230 0.930 . S
H224 C221 0.928 . S
H225 C222 0.931 . S
H226 C202 0.930 . S
H227 C199 0.930 . S
H228 C208 0.930 . S
H229 C220 0.929 . S
H230 C223 0.930 . S
C231 C232 1.351 . S
C231 N234 1.368 . S
C231 H236 0.931 . S
C232 C231 1.351 . S
C232 N233 1.373 . S
C232 H260 0.930 . S
N233 C232 1.373 . S
N233 C235 1.340 . S
N234 C231 1.368 . S
N234 C235 1.321 . S
N234 Co237 2.135 . S
C235 N233 1.340 . S
C235 N234 1.321 . S
C235 H259 0.930 . S
H236 C231 0.931 . S
Co237 N234 2.135 . S
Co237 N240 2.121 . S
Co237 O245 2.055 . S
Co237 O248 2.039 . S
Co237 N251 2.140 1_565 S
C238 O239 1.227 . S
C238 O248 1.265 1_545 S
O239 C238 1.227 . S
N240 Co237 2.121 . S
N240 C242 1.375 1_565 S
N240 C243 1.313 . S
C241 C242 1.338 . S
C241 N244 1.377 1_545 S
C241 H261 0.930 . S
C242 N240 1.375 1_545 S
C242 C241 1.338 . S
C242 H246 0.931 . S
C243 N240 1.313 . S
C243 N244 1.344 . S
C243 H247 0.930 . S
N244 C241 1.377 1_565 S
N244 C243 1.344 . S
O245 Co237 2.055 . S
O245 C249 1.253 . S
H246 C242 0.931 . S
H247 C243 0.930 . S
O248 Co237 2.039 . S
O248 C238 1.265 1_565 S
C249 O245 1.253 . S
C249 O250 1.227 . S
O250 C249 1.227 . S
N251 Co237 2.140 1_545 S
N251 C254 1.346 . S
N251 C255 1.345 . S
C252 C253 1.387 . S
C252 C256 1.391 . S
C253 C252 1.387 . S
C253 C254 1.369 . S
C253 H262 0.929 . S
C254 N251 1.346 . S
C254 C253 1.369 . S
C254 H257 0.928 . S
C255 N251 1.345 . S
C255 C256 1.371 . S
C255 H258 0.931 . S
C256 C252 1.391 . S
C256 C255 1.371 . S
C256 H263 0.930 . S
H257 C254 0.928 . S
H258 C255 0.931 . S
H259 C235 0.930 . S
H260 C232 0.930 . S
H261 C241 0.930 . S
H262 C253 0.929 . S
H263 C256 0.930 . S
C264 C265 1.351 . S
C264 N267 1.368 . S
C264 H269 0.931 . S
C265 C264 1.351 . S
C265 N266 1.373 . S
C265 H293 0.930 . S
N266 C265 1.373 . S
N266 C268 1.340 . S
N267 C264 1.368 . S
N267 C268 1.321 . S
N267 Co270 2.135 . S
C268 N266 1.340 . S
C268 N267 1.321 . S
C268 H292 0.930 . S
H269 C264 0.931 . S
Co270 N267 2.135 . S
Co270 N273 2.121 . S
Co270 O278 2.055 . S
Co270 O281 2.039 . S
Co270 N284 2.140 . S
C271 O272 1.227 . S
C271 O281 1.265 . S
O272 C271 1.227 . S
N273 Co270 2.121 . S
N273 C275 1.375 1_556 S
N273 C276 1.313 1_556 S
C274 C275 1.338 . S
C274 N277 1.377 . S
C274 H294 0.930 . S
C275 N273 1.375 1_554 S
C275 C274 1.338 . S
C275 H279 0.931 . S
C276 N273 1.313 1_554 S
C276 N277 1.344 . S
C276 H280 0.930 . S
N277 C274 1.377 . S
N277 C276 1.344 . S
O278 Co270 2.055 . S
O278 C282 1.253 . S
H279 C275 0.931 . S
H280 C276 0.930 . S
O281 Co270 2.039 . S
O281 C271 1.265 . S
C282 O278 1.253 . S
C282 O283 1.227 . S
O283 C282 1.227 . S
N284 Co270 2.140 . S
N284 C287 1.346 . S
N284 C288 1.345 . S
C285 C286 1.387 . S
C285 C289 1.391 . S
C286 C285 1.387 . S
C286 C287 1.369 . S
C286 H295 0.929 . S
C287 N284 1.346 . S
C287 C286 1.369 . S
C287 H290 0.928 . S
C288 N284 1.345 . S
C288 C289 1.371 . S
C288 H291 0.931 . S
C289 C285 1.391 . S
C289 C288 1.371 . S
C289 H296 0.930 . S
H290 C287 0.928 . S
H291 C288 0.931 . S
H292 C268 0.930 . S
H293 C265 0.930 . S
H294 C274 0.930 . S
H295 C286 0.929 . S
H296 C289 0.930 . S
C297 C298 1.351 . S
C297 N300 1.368 . S
C297 H302 0.931 . S
C298 C297 1.351 . S
C298 N299 1.373 . S
C298 H326 0.930 . S
N299 C298 1.373 . S
N299 C301 1.340 . S
N300 C297 1.368 . S
N300 C301 1.321 . S
N300 Co303 2.135 . S
C301 N299 1.340 . S
C301 N300 1.321 . S
C301 H325 0.930 . S
H302 C297 0.931 . S
Co303 N300 2.135 . S
Co303 N306 2.121 . S
Co303 O311 2.055 . S
Co303 O314 2.039 . S
Co303 N317 2.140 1_565 S
C304 O305 1.227 . S
C304 O314 1.265 1_545 S
O305 C304 1.227 . S
N306 Co303 2.121 . S
N306 C308 1.375 1_565 S
N306 C309 1.313 . S
C307 C308 1.338 . S
C307 N310 1.377 1_545 S
C307 H327 0.930 . S
C308 N306 1.375 1_545 S
C308 C307 1.338 . S
C308 H312 0.931 . S
C309 N306 1.313 . S
C309 N310 1.344 . S
C309 H313 0.930 . S
N310 C307 1.377 1_565 S
N310 C309 1.344 . S
O311 Co303 2.055 . S
O311 C315 1.253 . S
H312 C308 0.931 . S
H313 C309 0.930 . S
O314 Co303 2.039 . S
O314 C304 1.265 1_565 S
C315 O311 1.253 . S
C315 O316 1.227 . S
O316 C315 1.227 . S
N317 Co303 2.140 1_545 S
N317 C320 1.346 . S
N317 C321 1.345 . S
C318 C319 1.387 . S
C318 C322 1.391 . S
C319 C318 1.387 . S
C319 C320 1.369 . S
C319 H328 0.929 . S
C320 N317 1.346 . S
C320 C319 1.369 . S
C320 H323 0.928 . S
C321 N317 1.345 . S
C321 C322 1.371 . S
C321 H324 0.931 . S
C322 C318 1.391 . S
C322 C321 1.371 . S
C322 H329 0.930 . S
H323 C320 0.928 . S
H324 C321 0.931 . S
H325 C301 0.930 . S
H326 C298 0.930 . S
H327 C307 0.930 . S
H328 C319 0.929 . S
H329 C322 0.930 . S
C330 C331 1.351 . S
C330 N333 1.368 . S
C330 H335 0.931 . S
C331 C330 1.351 . S
C331 N332 1.373 . S
C331 H359 0.930 . S
N332 C331 1.373 . S
N332 C334 1.340 . S
N333 C330 1.368 . S
N333 C334 1.321 . S
N333 Co336 2.135 . S
C334 N332 1.340 . S
C334 N333 1.321 . S
C334 H358 0.930 . S
H335 C330 0.931 . S
Co336 N333 2.135 . S
Co336 N339 2.121 . S
Co336 O344 2.055 . S
Co336 O347 2.039 . S
Co336 N350 2.140 . S
C337 O338 1.227 . S
C337 O347 1.265 . S
O338 C337 1.227 . S
N339 Co336 2.121 . S
N339 C341 1.375 . S
N339 C342 1.313 . S
C340 C341 1.338 . S
C340 N343 1.377 . S
C340 H360 0.930 . S
C341 N339 1.375 . S
C341 C340 1.338 . S
C341 H345 0.931 . S
C342 N339 1.313 . S
C342 N343 1.344 . S
C342 H346 0.930 . S
N343 C340 1.377 . S
N343 C342 1.344 . S
O344 Co336 2.055 . S
O344 C348 1.253 . S
H345 C341 0.931 . S
H346 C342 0.930 . S
O347 Co336 2.039 . S
O347 C337 1.265 . S
C348 O344 1.253 . S
C348 O349 1.227 . S
O349 C348 1.227 . S
N350 Co336 2.140 . S
N350 C353 1.346 . S
N350 C354 1.345 . S
C351 C352 1.387 . S
C351 C355 1.391 . S
C352 C351 1.387 . S
C352 C353 1.369 . S
C352 H361 0.929 . S
C353 N350 1.346 . S
C353 C352 1.369 . S
C353 H356 0.928 . S
C354 N350 1.345 . S
C354 C355 1.371 . S
C354 H357 0.931 . S
C355 C351 1.391 . S
C355 C354 1.371 . S
C355 H362 0.930 . S
H356 C353 0.928 . S
H357 C354 0.931 . S
H358 C334 0.930 . S
H359 C331 0.930 . S
H360 C340 0.930 . S
H361 C352 0.929 . S
H362 C355 0.930 . S
C363 C364 1.351 . S
C363 N366 1.368 . S
C363 H368 0.931 . S
C364 C363 1.351 . S
C364 N365 1.373 . S
C364 H392 0.930 1_554 S
N365 C364 1.373 . S
N365 C367 1.340 . S
N366 C363 1.368 . S
N366 C367 1.321 . S
N366 Co369 2.135 . S
C367 N365 1.340 . S
C367 N366 1.321 . S
C367 H391 0.930 . S
H368 C363 0.931 . S
Co369 N366 2.135 . S
Co369 N372 2.121 . S
Co369 O377 2.055 . S
Co369 O380 2.039 . S
Co369 N383 2.140 1_545 S
C370 O371 1.227 . S
C370 O380 1.265 1_565 S
O371 C370 1.227 . S
N372 Co369 2.121 . S
N372 C374 1.375 1_545 S
N372 C375 1.313 . S
C373 C374 1.338 . S
C373 N376 1.377 1_565 S
C373 H393 0.930 . S
C374 N372 1.375 1_565 S
C374 C373 1.338 . S
C374 H378 0.931 . S
C375 N372 1.313 . S
C375 N376 1.344 . S
C375 H379 0.930 . S
N376 C373 1.377 1_545 S
N376 C375 1.344 . S
O377 Co369 2.055 . S
O377 C381 1.253 . S
H378 C374 0.931 . S
H379 C375 0.930 . S
O380 Co369 2.039 . S
O380 C370 1.265 1_545 S
C381 O377 1.253 . S
C381 O382 1.227 . S
O382 C381 1.227 . S
N383 Co369 2.140 1_565 S
N383 C386 1.346 . S
N383 C387 1.345 . S
C384 C385 1.387 . S
C384 C388 1.391 . S
C385 C384 1.387 . S
C385 C386 1.369 . S
C385 H394 0.929 . S
C386 N383 1.346 . S
C386 C385 1.369 . S
C386 H389 0.928 . S
C387 N383 1.345 . S
C387 C388 1.371 . S
C387 H390 0.931 . S
C388 C384 1.391 . S
C388 C387 1.371 . S
C388 H395 0.930 . S
H389 C386 0.928 . S
H390 C387 0.931 . S
H391 C367 0.930 . S
H392 C364 0.930 1_556 S
H393 C373 0.930 . S
H394 C385 0.929 . S
H395 C388 0.930 . S
C396 C397 1.351 . S
C396 N399 1.368 . S
C396 H401 0.931 . S
C397 C396 1.351 . S
C397 N398 1.373 . S
C397 H425 0.930 . S
N398 C397 1.373 . S
N398 C400 1.340 . S
N399 C396 1.368 . S
N399 C400 1.321 . S
N399 Co402 2.135 . S
C400 N398 1.340 . S
C400 N399 1.321 . S
C400 H424 0.930 . S
H401 C396 0.931 . S
Co402 N399 2.135 . S
Co402 N405 2.121 . S
Co402 O410 2.055 . S
Co402 O413 2.039 . S
Co402 N416 2.140 . S
C403 O404 1.227 . S
C403 O413 1.265 . S
O404 C403 1.227 . S
N405 Co402 2.121 . S
N405 C407 1.375 1_554 S
N405 C408 1.313 1_554 S
C406 C407 1.338 . S
C406 N409 1.377 . S
C406 H426 0.930 . S
C407 N405 1.375 1_556 S
C407 C406 1.338 . S
C407 H411 0.931 . S
C408 N405 1.313 1_556 S
C408 N409 1.344 . S
C408 H412 0.930 . S
N409 C406 1.377 . S
N409 C408 1.344 . S
O410 Co402 2.055 . S
O410 C414 1.253 . S
H411 C407 0.931 . S
H412 C408 0.930 . S
O413 Co402 2.039 . S
O413 C403 1.265 . S
C414 O410 1.253 . S
C414 O415 1.227 . S
O415 C414 1.227 . S
N416 Co402 2.140 . S
N416 C419 1.346 . S
N416 C420 1.345 . S
C417 C418 1.387 . S
C417 C421 1.391 . S
C418 C417 1.387 . S
C418 C419 1.369 . S
C418 H427 0.929 . S
C419 N416 1.346 . S
C419 C418 1.369 . S
C419 H422 0.928 . S
C420 N416 1.345 . S
C420 C421 1.371 . S
C420 H423 0.931 . S
C421 C417 1.391 . S
C421 C420 1.371 . S
C421 H428 0.930 . S
H422 C419 0.928 . S
H423 C420 0.931 . S
H424 C400 0.930 . S
H425 C397 0.930 . S
H426 C406 0.930 . S
H427 C418 0.929 . S
H428 C421 0.930 . S
C429 C430 1.351 . S
C429 N432 1.368 . S
C429 H434 0.931 . S
C430 C429 1.351 . S
C430 N431 1.373 . S
C430 H458 0.930 1_556 S
N431 C430 1.373 . S
N431 C433 1.340 . S
N432 C429 1.368 . S
N432 C433 1.321 . S
N432 Co435 2.135 . S
C433 N431 1.340 . S
C433 N432 1.321 . S
C433 H457 0.930 . S
H434 C429 0.931 . S
Co435 N432 2.135 . S
Co435 N438 2.121 . S
Co435 O443 2.055 . S
Co435 O446 2.039 . S
Co435 N449 2.140 1_565 S
C436 O437 1.227 . S
C436 O446 1.265 1_545 S
O437 C436 1.227 . S
N438 Co435 2.121 . S
N438 C440 1.375 1_565 S
N438 C441 1.313 . S
C439 C440 1.338 . S
C439 N442 1.377 1_545 S
C439 H459 0.930 . S
C440 N438 1.375 1_545 S
C440 C439 1.338 . S
C440 H444 0.931 . S
C441 N438 1.313 . S
C441 N442 1.344 . S
C441 H445 0.930 . S
N442 C439 1.377 1_565 S
N442 C441 1.344 . S
O443 Co435 2.055 . S
O443 C447 1.253 . S
H444 C440 0.931 . S
H445 C441 0.930 . S
O446 Co435 2.039 . S
O446 C436 1.265 1_565 S
C447 O443 1.253 . S
C447 O448 1.227 . S
O448 C447 1.227 . S
N449 Co435 2.140 1_545 S
N449 C452 1.346 . S
N449 C453 1.345 . S
C450 C451 1.387 . S
C450 C454 1.391 . S
C451 C450 1.387 . S
C451 C452 1.369 . S
C451 H460 0.929 . S
C452 N449 1.346 . S
C452 C451 1.369 . S
C452 H455 0.928 . S
C453 N449 1.345 . S
C453 C454 1.371 . S
C453 H456 0.931 . S
C454 C450 1.391 . S
C454 C453 1.371 . S
C454 H461 0.930 . S
H455 C452 0.928 . S
H456 C453 0.931 . S
H457 C433 0.930 . S
H458 C430 0.930 1_554 S
H459 C439 0.930 . S
H460 C451 0.929 . S
H461 C454 0.930 . S
C462 C463 1.351 . S
C462 N465 1.368 . S
C462 H467 0.931 . S
C463 C462 1.351 . S
C463 N464 1.373 . S
C463 H491 0.930 . S
N464 C463 1.373 . S
N464 C466 1.340 . S
N465 C462 1.368 . S
N465 C466 1.321 . S
N465 Co468 2.135 . S
C466 N464 1.340 . S
C466 N465 1.321 . S
C466 H490 0.930 . S
H467 C462 0.931 . S
Co468 N465 2.135 . S
Co468 N471 2.121 . S
Co468 O476 2.055 . S
Co468 O479 2.039 . S
Co468 N482 2.140 . S
C469 O470 1.227 . S
C469 O479 1.265 . S
O470 C469 1.227 . S
N471 Co468 2.121 . S
N471 C473 1.375 . S
N471 C474 1.313 . S
C472 C473 1.338 . S
C472 N475 1.377 . S
C472 H492 0.930 . S
C473 N471 1.375 . S
C473 C472 1.338 . S
C473 H477 0.931 . S
C474 N471 1.313 . S
C474 N475 1.344 . S
C474 H478 0.930 . S
N475 C472 1.377 . S
N475 C474 1.344 . S
O476 Co468 2.055 . S
O476 C480 1.253 . S
H477 C473 0.931 . S
H478 C474 0.930 . S
O479 Co468 2.039 . S
O479 C469 1.265 . S
C480 O476 1.253 . S
C480 O481 1.227 . S
O481 C480 1.227 . S
N482 Co468 2.140 . S
N482 C485 1.346 . S
N482 C486 1.345 . S
C483 C484 1.387 . S
C483 C487 1.391 . S
C484 C483 1.387 . S
C484 C485 1.369 . S
C484 H493 0.929 . S
C485 N482 1.346 . S
C485 C484 1.369 . S
C485 H488 0.928 . S
C486 N482 1.345 . S
C486 C487 1.371 . S
C486 H489 0.931 . S
C487 C483 1.391 . S
C487 C486 1.371 . S
C487 H494 0.930 . S
H488 C485 0.928 . S
H489 C486 0.931 . S
H490 C466 0.930 . S
H491 C463 0.930 . S
H492 C472 0.930 . S
H493 C484 0.929 . S
H494 C487 0.930 . S
C495 C496 1.351 . S
C495 N498 1.368 . S
C495 H500 0.931 . S
C496 C495 1.351 . S
C496 N497 1.373 . S
C496 H524 0.930 . S
N497 C496 1.373 . S
N497 C499 1.340 . S
N498 C495 1.368 . S
N498 C499 1.321 . S
N498 Co501 2.135 . S
C499 N497 1.340 . S
C499 N498 1.321 . S
C499 H523 0.930 . S
H500 C495 0.931 . S
Co501 N498 2.135 . S
Co501 N504 2.121 . S
Co501 O509 2.055 . S
Co501 O512 2.039 . S
Co501 N515 2.140 1_545 S
C502 O503 1.227 . S
C502 O512 1.265 1_565 S
O503 C502 1.227 . S
N504 Co501 2.121 . S
N504 C506 1.375 1_545 S
N504 C507 1.313 . S
C505 C506 1.338 . S
C505 N508 1.377 1_565 S
C505 H525 0.930 . S
C506 N504 1.375 1_565 S
C506 C505 1.338 . S
C506 H510 0.931 . S
C507 N504 1.313 . S
C507 N508 1.344 . S
C507 H511 0.930 . S
N508 C505 1.377 1_545 S
N508 C507 1.344 . S
O509 Co501 2.055 . S
O509 C513 1.253 . S
H510 C506 0.931 . S
H511 C507 0.930 . S
O512 Co501 2.039 . S
O512 C502 1.265 1_545 S
C513 O509 1.253 . S
C513 O514 1.227 . S
O514 C513 1.227 . S
N515 Co501 2.140 1_565 S
N515 C518 1.346 . S
N515 C519 1.345 . S
C516 C517 1.387 . S
C516 C520 1.391 . S
C517 C516 1.387 . S
C517 C518 1.369 . S
C517 H526 0.929 . S
C518 N515 1.346 . S
C518 C517 1.369 . S
C518 H521 0.928 . S
C519 N515 1.345 . S
C519 C520 1.371 . S
C519 H522 0.931 . S
C520 C516 1.391 . S
C520 C519 1.371 . S
C520 H527 0.930 . S
H521 C518 0.928 . S
H522 C519 0.931 . S
H523 C499 0.930 . S
H524 C496 0.930 . S
H525 C505 0.930 . S
H526 C517 0.929 . S
H527 C520 0.930 . S
C528 C529 1.351 . S
C528 N531 1.368 . S
C528 H533 0.931 . S
C529 C528 1.351 . S
C529 N530 1.373 . S
C529 H557 0.930 . S
N530 C529 1.373 . S
N530 C532 1.340 . S
N531 C528 1.368 . S
N531 C532 1.321 . S
N531 Co534 2.135 . S
C532 N530 1.340 . S
C532 N531 1.321 . S
C532 H556 0.930 . S
H533 C528 0.931 . S
Co534 N531 2.135 . S
Co534 N537 2.121 . S
Co534 O542 2.055 . S
Co534 O545 2.039 . S
Co534 N548 2.140 . S
C535 O536 1.227 . S
C535 O545 1.265 . S
O536 C535 1.227 . S
N537 Co534 2.121 . S
N537 C539 1.375 . S
N537 C540 1.313 . S
C538 C539 1.338 . S
C538 N541 1.377 . S
C538 H558 0.930 . S
C539 N537 1.375 . S
C539 C538 1.338 . S
C539 H543 0.931 . S
C540 N537 1.313 . S
C540 N541 1.344 . S
C540 H544 0.930 . S
N541 C538 1.377 . S
N541 C540 1.344 . S
O542 Co534 2.055 . S
O542 C546 1.253 . S
H543 C539 0.931 . S
H544 C540 0.930 . S
O545 Co534 2.039 . S
O545 C535 1.265 . S
C546 O542 1.253 . S
C546 O547 1.227 . S
O547 C546 1.227 . S
N548 Co534 2.140 . S
N548 C551 1.346 . S
N548 C552 1.345 . S
C549 C550 1.387 . S
C549 C553 1.391 . S
C550 C549 1.387 . S
C550 C551 1.369 . S
C550 H559 0.929 . S
C551 N548 1.346 . S
C551 C550 1.369 . S
C551 H554 0.928 . S
C552 N548 1.345 . S
C552 C553 1.371 . S
C552 H555 0.931 . S
C553 C549 1.391 . S
C553 C552 1.371 . S
C553 H560 0.930 . S
H554 C551 0.928 . S
H555 C552 0.931 . S
H556 C532 0.930 . S
H557 C529 0.930 . S
H558 C538 0.930 . S
H559 C550 0.929 . S
H560 C553 0.930 . S
C561 C562 1.351 1_556 S
C561 N564 1.368 . S
C561 H566 0.931 . S
C562 C561 1.351 1_554 S
C562 N563 1.373 1_554 S
C562 H590 0.930 . S
N563 C562 1.373 1_556 S
N563 C565 1.340 . S
N564 C561 1.368 . S
N564 C565 1.321 . S
N564 Co567 2.135 . S
C565 N563 1.340 . S
C565 N564 1.321 . S
C565 H589 0.930 . S
H566 C561 0.931 . S
Co567 N564 2.135 . S
Co567 N570 2.121 . S
Co567 O575 2.055 . S
Co567 O578 2.039 . S
Co567 N581 2.140 . S
C568 O569 1.227 . S
C568 O578 1.265 . S
O569 C568 1.227 . S
N570 Co567 2.121 . S
N570 C572 1.375 . S
N570 C573 1.313 . S
C571 C572 1.338 . S
C571 N574 1.377 . S
C571 H591 0.930 . S
C572 N570 1.375 . S
C572 C571 1.338 . S
C572 H576 0.931 . S
C573 N570 1.313 . S
C573 N574 1.344 . S
C573 H577 0.930 . S
N574 C571 1.377 . S
N574 C573 1.344 . S
O575 Co567 2.055 . S
O575 C579 1.253 . S
H576 C572 0.931 . S
H577 C573 0.930 . S
O578 Co567 2.039 . S
O578 C568 1.265 . S
C579 O575 1.253 . S
C579 O580 1.227 . S
O580 C579 1.227 . S
N581 Co567 2.140 . S
N581 C584 1.346 . S
N581 C585 1.345 . S
C582 C583 1.387 . S
C582 C586 1.391 . S
C583 C582 1.387 . S
C583 C584 1.369 . S
C583 H592 0.929 . S
C584 N581 1.346 . S
C584 C583 1.369 . S
C584 H587 0.928 . S
C585 N581 1.345 . S
C585 C586 1.371 . S
C585 H588 0.931 . S
C586 C582 1.391 . S
C586 C585 1.371 . S
C586 H593 0.930 . S
H587 C584 0.928 . S
H588 C585 0.931 . S
H589 C565 0.930 . S
H590 C562 0.930 . S
H591 C571 0.930 . S
H592 C583 0.929 . S
H593 C586 0.930 . S
C594 C595 1.351 . S
C594 N597 1.368 . S
C594 H599 0.931 . S
C595 C594 1.351 . S
C595 N596 1.373 . S
C595 H623 0.930 . S
N596 C595 1.373 . S
N596 C598 1.340 . S
N597 C594 1.368 . S
N597 C598 1.321 . S
N597 Co600 2.135 . S
C598 N596 1.340 . S
C598 N597 1.321 . S
C598 H622 0.930 . S
H599 C594 0.931 . S
Co600 N597 2.135 . S
Co600 N603 2.121 1_554 S
Co600 O608 2.055 . S
Co600 O611 2.039 . S
Co600 N614 2.140 . S
C601 O602 1.227 . S
C601 O611 1.265 . S
O602 C601 1.227 . S
N603 Co600 2.121 1_556 S
N603 C605 1.375 . S
N603 C606 1.313 . S
C604 C605 1.338 . S
C604 N607 1.377 . S
C604 H624 0.930 . S
C605 N603 1.375 . S
C605 C604 1.338 . S
C605 H609 0.931 . S
C606 N603 1.313 . S
C606 N607 1.344 . S
C606 H610 0.930 . S
N607 C604 1.377 . S
N607 C606 1.344 . S
O608 Co600 2.055 . S
O608 C612 1.253 . S
H609 C605 0.931 . S
H610 C606 0.930 . S
O611 Co600 2.039 . S
O611 C601 1.265 . S
C612 O608 1.253 . S
C612 O613 1.227 . S
O613 C612 1.227 . S
N614 Co600 2.140 . S
N614 C617 1.346 . S
N614 C618 1.345 . S
C615 C616 1.387 . S
C615 C619 1.391 . S
C616 C615 1.387 . S
C616 C617 1.369 . S
C616 H625 0.929 . S
C617 N614 1.346 . S
C617 C616 1.369 . S
C617 H620 0.928 . S
C618 N614 1.345 . S
C618 C619 1.371 . S
C618 H621 0.931 . S
C619 C615 1.391 . S
C619 C618 1.371 . S
C619 H626 0.930 . S
H620 C617 0.928 . S
H621 C618 0.931 . S
H622 C598 0.930 . S
H623 C595 0.930 . S
H624 C604 0.930 . S
H625 C616 0.929 . S
H626 C619 0.930 . S
C627 C628 1.351 . S
C627 N630 1.368 . S
C627 H632 0.931 . S
C628 C627 1.351 . S
C628 N629 1.373 . S
C628 H656 0.930 . S
N629 C628 1.373 . S
N629 C631 1.340 . S
N630 C627 1.368 . S
N630 C631 1.321 . S
N630 Co633 2.135 . S
C631 N629 1.340 . S
C631 N630 1.321 . S
C631 H655 0.930 . S
H632 C627 0.931 . S
Co633 N630 2.135 . S
Co633 N636 2.121 . S
Co633 O641 2.055 . S
Co633 O644 2.039 . S
Co633 N647 2.140 . S
C634 O635 1.227 . S
C634 O644 1.265 . S
O635 C634 1.227 . S
N636 Co633 2.121 . S
N636 C638 1.375 . S
N636 C639 1.313 . S
C637 C638 1.338 . S
C637 N640 1.377 . S
C637 H657 0.930 . S
C638 N636 1.375 . S
C638 C637 1.338 . S
C638 H642 0.931 . S
C639 N636 1.313 . S
C639 N640 1.344 . S
C639 H643 0.930 . S
N640 C637 1.377 . S
N640 C639 1.344 . S
O641 Co633 2.055 . S
O641 C645 1.253 . S
H642 C638 0.931 . S
H643 C639 0.930 . S
O644 Co633 2.039 . S
O644 C634 1.265 . S
C645 O641 1.253 . S
C645 O646 1.227 . S
O646 C645 1.227 . S
N647 Co633 2.140 . S
N647 C650 1.346 . S
N647 C651 1.345 . S
C648 C649 1.387 . S
C648 C652 1.391 . S
C649 C648 1.387 . S
C649 C650 1.369 . S
C649 H658 0.929 . S
C650 N647 1.346 . S
C650 C649 1.369 . S
C650 H653 0.928 . S
C651 N647 1.345 . S
C651 C652 1.371 . S
C651 H654 0.931 . S
C652 C648 1.391 . S
C652 C651 1.371 . S
C652 H659 0.930 . S
H653 C650 0.928 . S
H654 C651 0.931 . S
H655 C631 0.930 . S
H656 C628 0.930 . S
H657 C637 0.930 . S
H658 C649 0.929 . S
H659 C652 0.930 . S
C660 C661 1.351 . S
C660 N663 1.368 . S
C660 H665 0.931 . S
C661 C660 1.351 . S
C661 N662 1.373 . S
C661 H689 0.930 . S
N662 C661 1.373 . S
N662 C664 1.340 . S
N663 C660 1.368 . S
N663 C664 1.321 . S
N663 Co666 2.135 . S
C664 N662 1.340 . S
C664 N663 1.321 . S
C664 H688 0.930 . S
H665 C660 0.931 . S
Co666 N663 2.135 . S
Co666 N669 2.121 . S
Co666 O674 2.055 . S
Co666 O677 2.039 . S
Co666 N680 2.140 . S
C667 O668 1.227 . S
C667 O677 1.265 . S
O668 C667 1.227 . S
N669 Co666 2.121 . S
N669 C671 1.375 . S
N669 C672 1.313 . S
C670 C671 1.338 . S
C670 N673 1.377 . S
C670 H690 0.930 . S
C671 N669 1.375 . S
C671 C670 1.338 . S
C671 H675 0.931 . S
C672 N669 1.313 . S
C672 N673 1.344 . S
C672 H676 0.930 . S
N673 C670 1.377 . S
N673 C672 1.344 . S
O674 Co666 2.055 . S
O674 C678 1.253 . S
H675 C671 0.931 . S
H676 C672 0.930 . S
O677 Co666 2.039 . S
O677 C667 1.265 . S
C678 O674 1.253 . S
C678 O679 1.227 . S
O679 C678 1.227 . S
N680 Co666 2.140 . S
N680 C683 1.346 . S
N680 C684 1.345 . S
C681 C682 1.387 . S
C681 C685 1.391 . S
C682 C681 1.387 . S
C682 C683 1.369 . S
C682 H691 0.929 . S
C683 N680 1.346 . S
C683 C682 1.369 . S
C683 H686 0.928 . S
C684 N680 1.345 . S
C684 C685 1.371 . S
C684 H687 0.931 . S
C685 C681 1.391 . S
C685 C684 1.371 . S
C685 H692 0.930 . S
H686 C683 0.928 . S
H687 C684 0.931 . S
H688 C664 0.930 . S
H689 C661 0.930 . S
H690 C670 0.930 . S
H691 C682 0.929 . S
H692 C685 0.930 . S
C693 C694 1.351 . S
C693 N696 1.368 . S
C693 H698 0.931 . S
C694 C693 1.351 . S
C694 N695 1.373 . S
C694 H722 0.930 . S
N695 C694 1.373 . S
N695 C697 1.340 . S
N696 C693 1.368 . S
N696 C697 1.321 . S
N696 Co699 2.135 . S
C697 N695 1.340 . S
C697 N696 1.321 . S
C697 H721 0.930 . S
H698 C693 0.931 . S
Co699 N696 2.135 . S
Co699 N702 2.121 . S
Co699 O707 2.055 . S
Co699 O710 2.039 . S
Co699 N713 2.140 . S
C700 O701 1.227 . S
C700 O710 1.265 . S
O701 C700 1.227 . S
N702 Co699 2.121 . S
N702 C704 1.375 . S
N702 C705 1.313 . S
C703 C704 1.338 . S
C703 N706 1.377 . S
C703 H723 0.930 . S
C704 N702 1.375 . S
C704 C703 1.338 . S
C704 H708 0.931 . S
C705 N702 1.313 . S
C705 N706 1.344 . S
C705 H709 0.930 . S
N706 C703 1.377 . S
N706 C705 1.344 . S
O707 Co699 2.055 . S
O707 C711 1.253 . S
H708 C704 0.931 . S
H709 C705 0.930 . S
O710 Co699 2.039 . S
O710 C700 1.265 . S
C711 O707 1.253 . S
C711 O712 1.227 . S
O712 C711 1.227 . S
N713 Co699 2.140 . S
N713 C716 1.346 . S
N713 C717 1.345 . S
C714 C715 1.387 . S
C714 C718 1.391 . S
C715 C714 1.387 . S
C715 C716 1.369 . S
C715 H724 0.929 . S
C716 N713 1.346 . S
C716 C715 1.369 . S
C716 H719 0.928 . S
C717 N713 1.345 . S
C717 C718 1.371 . S
C717 H720 0.931 . S
C718 C714 1.391 . S
C718 C717 1.371 . S
C718 H725 0.930 . S
H719 C716 0.928 . S
H720 C717 0.931 . S
H721 C697 0.930 . S
H722 C694 0.930 . S
H723 C703 0.930 . S
H724 C715 0.929 . S
H725 C718 0.930 . S
C726 C727 1.351 . S
C726 N729 1.368 . S
C726 H731 0.931 . S
C727 C726 1.351 . S
C727 N728 1.373 . S
C727 H755 0.930 . S
N728 C727 1.373 . S
N728 C730 1.340 . S
N729 C726 1.368 . S
N729 C730 1.321 . S
N729 Co732 2.135 . S
C730 N728 1.340 . S
C730 N729 1.321 . S
C730 H754 0.930 . S
H731 C726 0.931 . S
Co732 N729 2.135 . S
Co732 N735 2.121 1_556 S
Co732 O740 2.055 . S
Co732 O743 2.039 . S
Co732 N746 2.140 . S
C733 O734 1.227 . S
C733 O743 1.265 . S
O734 C733 1.227 . S
N735 Co732 2.121 1_554 S
N735 C737 1.375 . S
N735 C738 1.313 . S
C736 C737 1.338 . S
C736 N739 1.377 . S
C736 H756 0.930 . S
C737 N735 1.375 . S
C737 C736 1.338 . S
C737 H741 0.931 . S
C738 N735 1.313 . S
C738 N739 1.344 . S
C738 H742 0.930 . S
N739 C736 1.377 . S
N739 C738 1.344 . S
O740 Co732 2.055 . S
O740 C744 1.253 . S
H741 C737 0.931 . S
H742 C738 0.930 . S
O743 Co732 2.039 . S
O743 C733 1.265 . S
C744 O740 1.253 . S
C744 O745 1.227 . S
O745 C744 1.227 . S
N746 Co732 2.140 . S
N746 C749 1.346 . S
N746 C750 1.345 . S
C747 C748 1.387 . S
C747 C751 1.391 . S
C748 C747 1.387 . S
C748 C749 1.369 . S
C748 H757 0.929 . S
C749 N746 1.346 . S
C749 C748 1.369 . S
C749 H752 0.928 . S
C750 N746 1.345 . S
C750 C751 1.371 . S
C750 H753 0.931 . S
C751 C747 1.391 . S
C751 C750 1.371 . S
C751 H758 0.930 . S
H752 C749 0.928 . S
H753 C750 0.931 . S
H754 C730 0.930 . S
H755 C727 0.930 . S
H756 C736 0.930 . S
H757 C748 0.929 . S
H758 C751 0.930 . S
C759 C760 1.351 1_554 S
C759 N762 1.368 . S
C759 H764 0.931 . S
C760 C759 1.351 1_556 S
C760 N761 1.373 1_556 S
C760 H788 0.930 . S
N761 C760 1.373 1_554 S
N761 C763 1.340 . S
N762 C759 1.368 . S
N762 C763 1.321 . S
N762 Co765 2.135 . S
C763 N761 1.340 . S
C763 N762 1.321 . S
C763 H787 0.930 . S
H764 C759 0.931 . S
Co765 N762 2.135 . S
Co765 N768 2.121 . S
Co765 O773 2.055 . S
Co765 O776 2.039 . S
Co765 N779 2.140 . S
C766 O767 1.227 . S
C766 O776 1.265 . S
O767 C766 1.227 . S
N768 Co765 2.121 . S
N768 C770 1.375 . S
N768 C771 1.313 . S
C769 C770 1.338 . S
C769 N772 1.377 . S
C769 H789 0.930 . S
C770 N768 1.375 . S
C770 C769 1.338 . S
C770 H774 0.931 . S
C771 N768 1.313 . S
C771 N772 1.344 . S
C771 H775 0.930 . S
N772 C769 1.377 . S
N772 C771 1.344 . S
O773 Co765 2.055 . S
O773 C777 1.253 . S
H774 C770 0.931 . S
H775 C771 0.930 . S
O776 Co765 2.039 . S
O776 C766 1.265 . S
C777 O773 1.253 . S
C777 O778 1.227 . S
O778 C777 1.227 . S
N779 Co765 2.140 . S
N779 C782 1.346 . S
N779 C783 1.345 . S
C780 C781 1.387 . S
C780 C784 1.391 . S
C781 C780 1.387 . S
C781 C782 1.369 . S
C781 H790 0.929 . S
C782 N779 1.346 . S
C782 C781 1.369 . S
C782 H785 0.928 . S
C783 N779 1.345 . S
C783 C784 1.371 . S
C783 H786 0.931 . S
C784 C780 1.391 . S
C784 C783 1.371 . S
C784 H791 0.930 . S
H785 C782 0.928 . S
H786 C783 0.931 . S
H787 C763 0.930 . S
H788 C760 0.930 . S
H789 C769 0.930 . S
H790 C781 0.929 . S
H791 C784 0.930 . S
C792 C793 1.351 . S
C792 N795 1.368 . S
C792 H797 0.931 . S
C793 C792 1.351 . S
C793 N794 1.373 . S
C793 H821 0.930 . S
N794 C793 1.373 . S
N794 C796 1.340 . S
N795 C792 1.368 . S
N795 C796 1.321 . S
N795 Co798 2.135 . S
C796 N794 1.340 . S
C796 N795 1.321 . S
C796 H820 0.930 . S
H797 C792 0.931 . S
Co798 N795 2.135 . S
Co798 N801 2.121 . S
Co798 O806 2.055 . S
Co798 O809 2.039 . S
Co798 N812 2.140 . S
C799 O800 1.227 . S
C799 O809 1.265 . S
O800 C799 1.227 . S
N801 Co798 2.121 . S
N801 C803 1.375 . S
N801 C804 1.313 . S
C802 C803 1.338 . S
C802 N805 1.377 . S
C802 H822 0.930 . S
C803 N801 1.375 . S
C803 C802 1.338 . S
C803 H807 0.931 . S
C804 N801 1.313 . S
C804 N805 1.344 . S
C804 H808 0.930 . S
N805 C802 1.377 . S
N805 C804 1.344 . S
O806 Co798 2.055 . S
O806 C810 1.253 . S
H807 C803 0.931 . S
H808 C804 0.930 . S
O809 Co798 2.039 . S
O809 C799 1.265 . S
C810 O806 1.253 . S
C810 O811 1.227 . S
O811 C810 1.227 . S
N812 Co798 2.140 . S
N812 C815 1.346 . S
N812 C816 1.345 . S
C813 C814 1.387 . S
C813 C817 1.391 . S
C814 C813 1.387 . S
C814 C815 1.369 . S
C814 H823 0.929 . S
C815 N812 1.346 . S
C815 C814 1.369 . S
C815 H818 0.928 . S
C816 N812 1.345 . S
C816 C817 1.371 . S
C816 H819 0.931 . S
C817 C813 1.391 . S
C817 C816 1.371 . S
C817 H824 0.930 . S
H818 C815 0.928 . S
H819 C816 0.931 . S
H820 C796 0.930 . S
H821 C793 0.930 . S
H822 C802 0.930 . S
H823 C814 0.929 . S
H824 C817 0.930 . S
C825 C826 1.351 1_554 S
C825 N828 1.368 . S
C825 H830 0.931 . S
C826 C825 1.351 1_556 S
C826 N827 1.373 1_556 S
C826 H854 0.930 . S
N827 C826 1.373 1_554 S
N827 C829 1.340 . S
N828 C825 1.368 . S
N828 C829 1.321 . S
N828 Co831 2.135 . S
C829 N827 1.340 . S
C829 N828 1.321 . S
C829 H853 0.930 . S
H830 C825 0.931 . S
Co831 N828 2.135 . S
Co831 N834 2.121 . S
Co831 O839 2.055 . S
Co831 O842 2.039 . S
Co831 N845 2.140 . S
C832 O833 1.227 . S
C832 O842 1.265 . S
O833 C832 1.227 . S
N834 Co831 2.121 . S
N834 C836 1.375 . S
N834 C837 1.313 . S
C835 C836 1.338 . S
C835 N838 1.377 . S
C835 H855 0.930 . S
C836 N834 1.375 . S
C836 C835 1.338 . S
C836 H840 0.931 . S
C837 N834 1.313 . S
C837 N838 1.344 . S
C837 H841 0.930 . S
N838 C835 1.377 . S
N838 C837 1.344 . S
O839 Co831 2.055 . S
O839 C843 1.253 . S
H840 C836 0.931 . S
H841 C837 0.930 . S
O842 Co831 2.039 . S
O842 C832 1.265 . S
C843 O839 1.253 . S
C843 O844 1.227 . S
O844 C843 1.227 . S
N845 Co831 2.140 . S
N845 C848 1.346 . S
N845 C849 1.345 . S
C846 C847 1.387 . S
C846 C850 1.391 . S
C847 C846 1.387 . S
C847 C848 1.369 . S
C847 H856 0.929 . S
C848 N845 1.346 . S
C848 C847 1.369 . S
C848 H851 0.928 . S
C849 N845 1.345 . S
C849 C850 1.371 . S
C849 H852 0.931 . S
C850 C846 1.391 . S
C850 C849 1.371 . S
C850 H857 0.930 . S
H851 C848 0.928 . S
H852 C849 0.931 . S
H853 C829 0.930 . S
H854 C826 0.930 . S
H855 C835 0.930 . S
H856 C847 0.929 . S
H857 C850 0.930 . S
C858 C859 1.351 . S
C858 N861 1.368 . S
C858 H863 0.931 . S
C859 C858 1.351 . S
C859 N860 1.373 . S
C859 H887 0.930 . S
N860 C859 1.373 . S
N860 C862 1.340 . S
N861 C858 1.368 . S
N861 C862 1.321 . S
N861 Co864 2.135 . S
C862 N860 1.340 . S
C862 N861 1.321 . S
C862 H886 0.930 . S
H863 C858 0.931 . S
Co864 N861 2.135 . S
Co864 N867 2.121 1_556 S
Co864 O872 2.055 . S
Co864 O875 2.039 . S
Co864 N878 2.140 . S
C865 O866 1.227 . S
C865 O875 1.265 . S
O866 C865 1.227 . S
N867 Co864 2.121 1_554 S
N867 C869 1.375 . S
N867 C870 1.313 . S
C868 C869 1.338 . S
C868 N871 1.377 . S
C868 H888 0.930 . S
C869 N867 1.375 . S
C869 C868 1.338 . S
C869 H873 0.931 . S
C870 N867 1.313 . S
C870 N871 1.344 . S
C870 H874 0.930 . S
N871 C868 1.377 . S
N871 C870 1.344 . S
O872 Co864 2.055 . S
O872 C876 1.253 . S
H873 C869 0.931 . S
H874 C870 0.930 . S
O875 Co864 2.039 . S
O875 C865 1.265 . S
C876 O872 1.253 . S
C876 O877 1.227 . S
O877 C876 1.227 . S
N878 Co864 2.140 . S
N878 C881 1.346 . S
N878 C882 1.345 . S
C879 C880 1.387 . S
C879 C883 1.391 . S
C880 C879 1.387 . S
C880 C881 1.369 . S
C880 H889 0.929 . S
C881 N878 1.346 . S
C881 C880 1.369 . S
C881 H884 0.928 . S
C882 N878 1.345 . S
C882 C883 1.371 . S
C882 H885 0.931 . S
C883 C879 1.391 . S
C883 C882 1.371 . S
C883 H890 0.930 . S
H884 C881 0.928 . S
H885 C882 0.931 . S
H886 C862 0.930 . S
H887 C859 0.930 . S
H888 C868 0.930 . S
H889 C880 0.929 . S
H890 C883 0.930 . S
C891 C892 1.351 . S
C891 N894 1.368 . S
C891 H896 0.931 . S
C892 C891 1.351 . S
C892 N893 1.373 . S
C892 H920 0.930 . S
N893 C892 1.373 . S
N893 C895 1.340 . S
N894 C891 1.368 . S
N894 C895 1.321 . S
N894 Co897 2.135 . S
C895 N893 1.340 . S
C895 N894 1.321 . S
C895 H919 0.930 . S
H896 C891 0.931 . S
Co897 N894 2.135 . S
Co897 N900 2.121 . S
Co897 O905 2.055 . S
Co897 O908 2.039 . S
Co897 N911 2.140 . S
C898 O899 1.227 . S
C898 O908 1.265 . S
O899 C898 1.227 . S
N900 Co897 2.121 . S
N900 C902 1.375 . S
N900 C903 1.313 . S
C901 C902 1.338 . S
C901 N904 1.377 . S
C901 H921 0.930 . S
C902 N900 1.375 . S
C902 C901 1.338 . S
C902 H906 0.931 . S
C903 N900 1.313 . S
C903 N904 1.344 . S
C903 H907 0.930 . S
N904 C901 1.377 . S
N904 C903 1.344 . S
O905 Co897 2.055 . S
O905 C909 1.253 . S
H906 C902 0.931 . S
H907 C903 0.930 . S
O908 Co897 2.039 . S
O908 C898 1.265 . S
C909 O905 1.253 . S
C909 O910 1.227 . S
O910 C909 1.227 . S
N911 Co897 2.140 . S
N911 C914 1.346 . S
N911 C915 1.345 . S
C912 C913 1.387 . S
C912 C916 1.391 . S
C913 C912 1.387 . S
C913 C914 1.369 . S
C913 H922 0.929 . S
C914 N911 1.346 . S
C914 C913 1.369 . S
C914 H917 0.928 . S
C915 N911 1.345 . S
C915 C916 1.371 . S
C915 H918 0.931 . S
C916 C912 1.391 . S
C916 C915 1.371 . S
C916 H923 0.930 . S
H917 C914 0.928 . S
H918 C915 0.931 . S
H919 C895 0.930 . S
H920 C892 0.930 . S
H921 C901 0.930 . S
H922 C913 0.929 . S
H923 C916 0.930 . S
C924 C925 1.351 . S
C924 N927 1.368 . S
C924 H929 0.931 . S
C925 C924 1.351 . S
C925 N926 1.373 . S
C925 H953 0.930 . S
N926 C925 1.373 . S
N926 C928 1.340 . S
N927 C924 1.368 . S
N927 C928 1.321 . S
N927 Co930 2.135 . S
C928 N926 1.340 . S
C928 N927 1.321 . S
C928 H952 0.930 . S
H929 C924 0.931 . S
Co930 N927 2.135 . S
Co930 N933 2.121 . S
Co930 O938 2.055 . S
Co930 O941 2.039 . S
Co930 N944 2.140 . S
C931 O932 1.227 . S
C931 O941 1.265 . S
O932 C931 1.227 . S
N933 Co930 2.121 . S
N933 C935 1.375 . S
N933 C936 1.313 . S
C934 C935 1.338 . S
C934 N937 1.377 . S
C934 H954 0.930 . S
C935 N933 1.375 . S
C935 C934 1.338 . S
C935 H939 0.931 . S
C936 N933 1.313 . S
C936 N937 1.344 . S
C936 H940 0.930 . S
N937 C934 1.377 . S
N937 C936 1.344 . S
O938 Co930 2.055 . S
O938 C942 1.253 . S
H939 C935 0.931 . S
H940 C936 0.930 . S
O941 Co930 2.039 . S
O941 C931 1.265 . S
C942 O938 1.253 . S
C942 O943 1.227 . S
O943 C942 1.227 . S
N944 Co930 2.140 . S
N944 C947 1.346 . S
N944 C948 1.345 . S
C945 C946 1.387 . S
C945 C949 1.391 . S
C946 C945 1.387 . S
C946 C947 1.369 . S
C946 H955 0.929 . S
C947 N944 1.346 . S
C947 C946 1.369 . S
C947 H950 0.928 . S
C948 N944 1.345 . S
C948 C949 1.371 . S
C948 H951 0.931 . S
C949 C945 1.391 . S
C949 C948 1.371 . S
C949 H956 0.930 . S
H950 C947 0.928 . S
H951 C948 0.931 . S
H952 C928 0.930 . S
H953 C925 0.930 . S
H954 C934 0.930 . S
H955 C946 0.929 . S
H956 C949 0.930 . S
C957 C958 1.351 . S
C957 N960 1.368 . S
C957 H962 0.931 . S
C958 C957 1.351 . S
C958 N959 1.373 . S
C958 H986 0.930 . S
N959 C958 1.373 . S
N959 C961 1.340 . S
N960 C957 1.368 . S
N960 C961 1.321 . S
N960 Co963 2.135 . S
C961 N959 1.340 . S
C961 N960 1.321 . S
C961 H985 0.930 . S
H962 C957 0.931 . S
Co963 N960 2.135 . S
Co963 N966 2.121 . S
Co963 O971 2.055 . S
Co963 O974 2.039 . S
Co963 N977 2.140 . S
C964 O965 1.227 . S
C964 O974 1.265 . S
O965 C964 1.227 . S
N966 Co963 2.121 . S
N966 C968 1.375 . S
N966 C969 1.313 . S
C967 C968 1.338 . S
C967 N970 1.377 . S
C967 H987 0.930 . S
C968 N966 1.375 . S
C968 C967 1.338 . S
C968 H972 0.931 . S
C969 N966 1.313 . S
C969 N970 1.344 . S
C969 H973 0.930 . S
N970 C967 1.377 . S
N970 C969 1.344 . S
O971 Co963 2.055 . S
O971 C975 1.253 . S
H972 C968 0.931 . S
H973 C969 0.930 . S
O974 Co963 2.039 . S
O974 C964 1.265 . S
C975 O971 1.253 . S
C975 O976 1.227 . S
O976 C975 1.227 . S
N977 Co963 2.140 . S
N977 C980 1.346 . S
N977 C981 1.345 . S
C978 C979 1.387 . S
C978 C982 1.391 . S
C979 C978 1.387 . S
C979 C980 1.369 . S
C979 H988 0.929 . S
C980 N977 1.346 . S
C980 C979 1.369 . S
C980 H983 0.928 . S
C981 N977 1.345 . S
C981 C982 1.371 . S
C981 H984 0.931 . S
C982 C978 1.391 . S
C982 C981 1.371 . S
C982 H989 0.930 . S
H983 C980 0.928 . S
H984 C981 0.931 . S
H985 C961 0.930 . S
H986 C958 0.930 . S
H987 C967 0.930 . S
H988 C979 0.929 . S
H989 C982 0.930 . S
C990 C991 1.351 . S
C990 N993 1.368 . S
C990 H995 0.931 . S
C991 C990 1.351 . S
C991 N992 1.373 . S
C991 H1019 0.930 . S
N992 C991 1.373 . S
N992 C994 1.340 . S
N993 C990 1.368 . S
N993 C994 1.321 . S
N993 Co996 2.135 . S
C994 N992 1.340 . S
C994 N993 1.321 . S
C994 H1018 0.930 . S
H995 C990 0.931 . S
Co996 N993 2.135 . S
Co996 N999 2.121 1_554 S
Co996 O1004 2.055 . S
Co996 O1007 2.039 . S
Co996 N1010 2.140 . S
C997 O998 1.227 . S
C997 O1007 1.265 . S
O998 C997 1.227 . S
N999 Co996 2.121 1_556 S
N999 C1001 1.375 . S
N999 C1002 1.313 . S
C1000 C1001 1.338 . S
C1000 N1003 1.377 . S
C1000 H1020 0.930 . S
C1001 N999 1.375 . S
C1001 C1000 1.338 . S
C1001 H1005 0.931 . S
C1002 N999 1.313 . S
C1002 N1003 1.344 . S
C1002 H1006 0.930 . S
N1003 C1000 1.377 . S
N1003 C1002 1.344 . S
O1004 Co996 2.055 . S
O1004 C1008 1.253 . S
H1005 C1001 0.931 . S
H1006 C1002 0.930 . S
O1007 Co996 2.039 . S
O1007 C997 1.265 . S
C1008 O1004 1.253 . S
C1008 O1009 1.227 . S
O1009 C1008 1.227 . S
N1010 Co996 2.140 . S
N1010 C1013 1.346 . S
N1010 C1014 1.345 . S
C1011 C1012 1.387 . S
C1011 C1015 1.391 . S
C1012 C1011 1.387 . S
C1012 C1013 1.369 . S
C1012 H1021 0.929 . S
C1013 N1010 1.346 . S
C1013 C1012 1.369 . S
C1013 H1016 0.928 . S
C1014 N1010 1.345 . S
C1014 C1015 1.371 . S
C1014 H1017 0.931 . S
C1015 C1011 1.391 . S
C1015 C1014 1.371 . S
C1015 H1022 0.930 . S
H1016 C1013 0.928 . S
H1017 C1014 0.931 . S
H1018 C994 0.930 . S
H1019 C991 0.930 . S
H1020 C1000 0.930 . S
H1021 C1012 0.929 . S
H1022 C1015 0.930 . S
C1023 C1024 1.351 1_556 S
C1023 N1026 1.368 . S
C1023 H1028 0.931 . S
C1024 C1023 1.351 1_554 S
C1024 N1025 1.373 1_554 S
C1024 H1052 0.930 . S
N1025 C1024 1.373 1_556 S
N1025 C1027 1.340 . S
N1026 C1023 1.368 . S
N1026 C1027 1.321 . S
N1026 Co1029 2.135 . S
C1027 N1025 1.340 . S
C1027 N1026 1.321 . S
C1027 H1051 0.930 . S
H1028 C1023 0.931 . S
Co1029 N1026 2.135 . S
Co1029 N1032 2.121 . S
Co1029 O1037 2.055 . S
Co1029 O1040 2.039 . S
Co1029 N1043 2.140 . S
C1030 O1031 1.227 . S
C1030 O1040 1.265 . S
O1031 C1030 1.227 . S
N1032 Co1029 2.121 . S
N1032 C1034 1.375 . S
N1032 C1035 1.313 . S
C1033 C1034 1.338 . S
C1033 N1036 1.377 . S
C1033 H1053 0.930 . S
C1034 N1032 1.375 . S
C1034 C1033 1.338 . S
C1034 H1038 0.931 . S
C1035 N1032 1.313 . S
C1035 N1036 1.344 . S
C1035 H1039 0.930 . S
N1036 C1033 1.377 . S
N1036 C1035 1.344 . S
O1037 Co1029 2.055 . S
O1037 C1041 1.253 . S
H1038 C1034 0.931 . S
H1039 C1035 0.930 . S
O1040 Co1029 2.039 . S
O1040 C1030 1.265 . S
C1041 O1037 1.253 . S
C1041 O1042 1.227 . S
O1042 C1041 1.227 . S
N1043 Co1029 2.140 . S
N1043 C1046 1.346 . S
N1043 C1047 1.345 . S
C1044 C1045 1.387 . S
C1044 C1048 1.391 . S
C1045 C1044 1.387 . S
C1045 C1046 1.369 . S
C1045 H1054 0.929 . S
C1046 N1043 1.346 . S
C1046 C1045 1.369 . S
C1046 H1049 0.928 . S
C1047 N1043 1.345 . S
C1047 C1048 1.371 . S
C1047 H1050 0.931 . S
C1048 C1044 1.391 . S
C1048 C1047 1.371 . S
C1048 H1055 0.930 . S
H1049 C1046 0.928 . S
H1050 C1047 0.931 . S
H1051 C1027 0.930 . S
H1052 C1024 0.930 . S
H1053 C1033 0.930 . S
H1054 C1045 0.929 . S
H1055 C1048 0.930 . S
N46 C21 2.856 . S
C54 N79 2.368 . S
C87 N112 2.856 . S
C120 N13 2.368 . S
C153 N244 2.856 . S
N145 C186 2.368 . S
C219 N178 2.856 . S
C252 N211 2.368 . S
N310 C285 2.856 . S
N343 C318 2.368 . S
C351 N376 2.856 . S
N277 C384 2.368 . S
C417 N508 2.856 . S
C450 N409 2.368 . S
N442 C483 2.856 . S
N475 C516 2.368 . S
N574 C549 2.553 . S
C582 N607 2.564 . S
N640 C615 2.553 . S
N541 C648 2.564 . S
N772 C681 2.553 . S
C714 N673 2.564 . S
N706 C747 2.553 . S
C780 N739 2.564 . S
N838 C813 2.553 . S
C846 N871 2.564 . S
C879 N904 2.553 . S
C912 N805 2.564 . S
N1036 C945 2.553 . S
N937 C978 2.564 . S
N970 C1011 2.553 . S
N1003 C1044 2.564 . S
N200 N2 1.699 . S
N35 N233 1.226 1_545 S
N68 N134 1.699 . S
N101 N167 1.226 1_566 S
N464 N266 1.699 . S
N497 N299 1.226 1_545 S
N332 N398 1.699 . S
N431 N365 1.226 1_566 S
N530 N728 1.777 . S
N563 N761 1.795 1_556 S
N662 N596 1.777 . S
N695 N629 1.795 . S
N992 N794 1.777 . S
N1025 N827 1.795 1_556 S
N926 N860 1.777 . S
N959 N893 1.795 . S
C183 C18 1.831 . S
C51 C216 1.831 . S
C84 C249 1.831 . S
C117 C150 1.831 . S
C447 C282 1.831 . S
C315 C480 1.831 . S
C513 C348 1.831 . S
C381 C414 1.831 . S
C546 C711 1.630 . S
C744 C579 1.630 . S
C777 C612 1.630 . S
C645 C678 1.630 . S
C810 C975 1.630 . S
C1008 C843 1.630 . S
C1041 C876 1.630 . S
C942 C909 1.630 . S
C7 C997 0.793 . S
C502 C40 0.773 1_655 S
C931 C73 0.793 . S
C106 C436 0.773 . S
C139 C865 0.793 . S
C370 C172 0.773 . S
C205 C799 0.793 . S
C238 C304 0.773 1_455 S
C271 C733 0.793 . S
C337 C667 0.793 . S
C403 C601 0.793 . S
C469 C535 0.793 . S
C568 C1030 0.747 . S
C964 C634 0.747 1_455 S
C898 C700 0.747 1_455 S
C832 C766 0.747 . S
