# Generated by pormake.
# Topology sne, (6)-cn, num edge types: 1
# Building blocks:
#     Node 0, Type 0, BuildingBlock: IZENUY_clean_sbu_0, # of connection points: 6
#     Node 1, Type 0, BuildingBlock: IZENUY_clean_sbu_0, # of connection points: 6
#     Node 2, Type 0, BuildingBlock: IZENUY_clean_sbu_0, # of connection points: 6
#     Node 3, Type 0, BuildingBlock: IZENUY_clean_sbu_0, # of connection points: 6
#     Node 4, Type 0, BuildingBlock: IZENUY_clean_sbu_0, # of connection points: 6
#     Node 5, Type 0, BuildingBlock: IZENUY_clean_sbu_0, # of connection points: 6
#     Node 6, Type 0, BuildingBlock: IZENUY_clean_sbu_0, # of connection points: 6
#     Node 7, Type 0, BuildingBlock: IZENUY_clean_sbu_0, # of connection points: 6
#     Edge 8, Type (0, 0), BuildingBlock: TEMPAE_clean_linker_10, # of connection points: 2
#     Edge 9, Type (0, 0), BuildingBlock: TEMPAE_clean_linker_10, # of connection points: 2
#     Edge 10, Type (0, 0), BuildingBlock: TEMPAE_clean_linker_10, # of connection points: 2
#     Edge 11, Type (0, 0), BuildingBlock: TEMPAE_clean_linker_10, # of connection points: 2
#     Edge 12, Type (0, 0), BuildingBlock: TEMPAE_clean_linker_10, # of connection points: 2
#     Edge 13, Type (0, 0), BuildingBlock: TEMPAE_clean_linker_10, # of connection points: 2
#     Edge 14, Type (0, 0), BuildingBlock: TEMPAE_clean_linker_10, # of connection points: 2
#     Edge 15, Type (0, 0), BuildingBlock: TEMPAE_clean_linker_10, # of connection points: 2
#     Edge 16, Type (0, 0), BuildingBlock: TEMPAE_clean_linker_10, # of connection points: 2
#     Edge 17, Type (0, 0), BuildingBlock: TEMPAE_clean_linker_10, # of connection points: 2
#     Edge 18, Type (0, 0), BuildingBlock: TEMPAE_clean_linker_10, # of connection points: 2
#     Edge 19, Type (0, 0), BuildingBlock: TEMPAE_clean_linker_10, # of connection points: 2
#     Edge 20, Type (0, 0), BuildingBlock: TEMPAE_clean_linker_10, # of connection points: 2
#     Edge 21, Type (0, 0), BuildingBlock: TEMPAE_clean_linker_10, # of connection points: 2
#     Edge 22, Type (0, 0), BuildingBlock: TEMPAE_clean_linker_10, # of connection points: 2
#     Edge 23, Type (0, 0), BuildingBlock: TEMPAE_clean_linker_10, # of connection points: 2
#     Edge 24, Type (0, 0), BuildingBlock: TEMPAE_clean_linker_10, # of connection points: 2
#     Edge 25, Type (0, 0), BuildingBlock: TEMPAE_clean_linker_10, # of connection points: 2
#     Edge 26, Type (0, 0), BuildingBlock: TEMPAE_clean_linker_10, # of connection points: 2
#     Edge 27, Type (0, 0), BuildingBlock: TEMPAE_clean_linker_10, # of connection points: 2
#     Edge 28, Type (0, 0), BuildingBlock: TEMPAE_clean_linker_10, # of connection points: 2
#     Edge 29, Type (0, 0), BuildingBlock: TEMPAE_clean_linker_10, # of connection points: 2
#     Edge 30, Type (0, 0), BuildingBlock: TEMPAE_clean_linker_10, # of connection points: 2
#     Edge 31, Type (0, 0), BuildingBlock: TEMPAE_clean_linker_10, # of connection points: 2
# Relax obj value: 0.265
# Max RMSD: 0.254
# Mean RMSD: 0.252
data_MOF--net-sne--node1-IZENUY_clean_sbu_0--edge1-TEMPAE_clean_linker_10
_symmetry_space_group_name_H-M    P1
_symmetry_Int_Tables_number       1
_symmetry_cell_setting            triclinic
loop_
_symmetry_equiv_pos_as_xyz
'x, y, z'
_cell_length_a     35.500862
_cell_length_b     35.65711
_cell_length_c     26.287234
_cell_angle_alpha  89.940681
_cell_angle_beta   90.370391
_cell_angle_gamma 90.148286
loop_
_atom_site_label
_atom_site_type_symbol
_atom_site_fract_x
_atom_site_fract_y
_atom_site_fract_z
_atom_type_partial_charge
Fe0 Fe 0.24815 0.1878 0.36706 0.0
Fe1 Fe 0.2053 0.11891 0.32873 0.0
O2 O 0.24473 0.13843 0.36099 0.0
Fe3 Fe 0.28076 0.11001 0.38713 0.0
O4 O 0.27495 0.12996 0.45083 0.0
O5 O 0.27704 0.1878 0.42407 0.0
O6 O 0.20642 0.18801 0.40711 0.0
C7 C 0.17513 0.17403 0.3931 0.0
C8 C 0.3193 0.16918 0.33789 0.0
O9 O 0.17274 0.15426 0.35307 0.0
C10 C 0.26557 0.07225 0.29763 0.0
O11 O 0.22 0.19897 0.31128 0.0
O12 O 0.21537 0.14589 0.27098 0.0
O13 O 0.31817 0.14314 0.37081 0.0
O14 O 0.2902 0.18843 0.3274 0.0
C15 C 0.21402 0.06864 0.40786 0.0
O16 O 0.23107 0.08032 0.30059 0.0
O17 O 0.28977 0.08719 0.32665 0.0
C18 C 0.21646 0.18123 0.2703 0.0
O19 O 0.19222 0.08977 0.38275 0.0
O20 O 0.24937 0.07243 0.40635 0.0
C21 C 0.27986 0.16436 0.45952 0.0
Fe22 Fe 0.18943 0.7454 0.57982 0.0
Fe23 Fe 0.11653 0.77532 0.62558 0.0
O24 O 0.14027 0.7406 0.59002 0.0
Fe25 Fe 0.11615 0.70139 0.56409 0.0
O26 O 0.15568 0.66946 0.57536 0.0
O27 O 0.19839 0.70305 0.61668 0.0
O28 O 0.19907 0.7729 0.6364 0.0
C29 C 0.18299 0.77252 0.67879 0.0
C30 C 0.16577 0.71559 0.48751 0.0
O31 O 0.14771 0.7682 0.68084 0.0
C32 C 0.06456 0.76093 0.54891 0.0
O33 O 0.18154 0.78786 0.54259 0.0
O34 O 0.1453 0.81375 0.60058 0.0
O35 O 0.13164 0.71291 0.49963 0.0
O36 O 0.1908 0.71898 0.521 0.0
C37 C 0.08064 0.7077 0.65682 0.0
O38 O 0.08322 0.78496 0.57402 0.0
O39 O 0.07312 0.72662 0.54951 0.0
C40 C 0.16373 0.81597 0.55945 0.0
O41 O 0.08364 0.74297 0.65502 0.0
O42 O 0.09763 0.68683 0.62562 0.0
C43 C 0.18331 0.67169 0.60614 0.0
Fe44 Fe 0.74053 0.81786 0.36459 0.0
Fe45 Fe 0.71237 0.89012 0.41559 0.0
O46 O 0.74536 0.86628 0.37701 0.0
Fe47 Fe 0.78346 0.89143 0.34999 0.0
O48 O 0.78899 0.86104 0.29377 0.0
O49 O 0.739 0.82559 0.297 0.0
O50 O 0.6886 0.8187 0.36148 0.0
C51 C 0.66557 0.84578 0.3578 0.0
C52 C 0.81888 0.82904 0.38415 0.0
O53 O 0.67386 0.87798 0.37393 0.0
C54 C 0.77589 0.92528 0.44703 0.0
O55 O 0.74118 0.8062 0.43061 0.0
O56 O 0.70274 0.8498 0.45818 0.0
O57 O 0.81689 0.86424 0.38524 0.0
O58 O 0.79209 0.80898 0.36646 0.0
C59 C 0.72771 0.94152 0.3347 0.0
O60 O 0.74888 0.90445 0.46002 0.0
O61 O 0.78633 0.92634 0.4011 0.0
C62 C 0.71951 0.81869 0.46392 0.0
O63 O 0.71585 0.9345 0.37933 0.0
O64 O 0.75139 0.92028 0.31371 0.0
C65 C 0.76576 0.83921 0.27234 0.0
Fe66 Fe 0.88909 0.2794 0.61812 0.0
Fe67 Fe 0.89754 0.20475 0.67696 0.0
O68 O 0.86904 0.24014 0.64943 0.0
Fe69 Fe 0.81934 0.23654 0.65371 0.0
O70 O 0.8093 0.26283 0.59622 0.0
O71 O 0.86391 0.26861 0.55905 0.0
O72 O 0.92907 0.25398 0.59298 0.0
C73 C 0.93732 0.21967 0.58965 0.0
C74 C 0.83143 0.31 0.67772 0.0
O75 O 0.92156 0.19533 0.61735 0.0
C76 C 0.84186 0.20782 0.74754 0.0
O77 O 0.91622 0.29315 0.67406 0.0
O78 O 0.93474 0.23658 0.69735 0.0
O79 O 0.81783 0.27897 0.69245 0.0
O80 O 0.85248 0.31168 0.63906 0.0
C81 C 0.83837 0.16521 0.62726 0.0
O82 O 0.87655 0.21166 0.73956 0.0
O83 O 0.81861 0.20902 0.71154 0.0
C84 C 0.93716 0.27185 0.70021 0.0
O85 O 0.86472 0.16676 0.66014 0.0
O86 O 0.81946 0.19409 0.61562 0.0
C87 C 0.82856 0.26548 0.55647 0.0
Fe88 Fe 0.30313 0.39049 0.82162 0.0
Fe89 Fe 0.26527 0.31927 0.86146 0.0
O90 O 0.26652 0.36859 0.85611 0.0
Fe91 Fe 0.23179 0.39623 0.88578 0.0
O92 O 0.23308 0.43322 0.83675 0.0
O93 O 0.26986 0.41057 0.77705 0.0
O94 O 0.30996 0.35115 0.77673 0.0
C95 C 0.28722 0.32543 0.76365 0.0
C96 C 0.29281 0.4395 0.90534 0.0
O97 O 0.26259 0.31378 0.79368 0.0
C98 C 0.24435 0.3377 0.95719 0.0
O99 O 0.33751 0.37247 0.86521 0.0
O100 O 0.31727 0.31408 0.86368 0.0
O101 O 0.26688 0.41988 0.92443 0.0
O102 O 0.30367 0.43348 0.86025 0.0
C103 C 0.18847 0.34013 0.847 0.0
O104 O 0.26782 0.32139 0.9296 0.0
O105 O 0.22377 0.36369 0.93954 0.0
C106 C 0.3416 0.33853 0.87669 0.0
O107 O 0.21315 0.31622 0.86042 0.0
O108 O 0.19498 0.37476 0.84903 0.0
C109 C 0.24475 0.43329 0.79111 0.0
Fe110 Fe 0.32065 0.76306 0.08161 0.0
Fe111 Fe 0.39437 0.80606 0.06714 0.0
O112 O 0.36994 0.76688 0.09232 0.0
Fe113 Fe 0.39336 0.73167 0.1278 0.0
O114 O 0.36461 0.6937 0.10073 0.0
O115 O 0.32737 0.72093 0.04399 0.0
O116 O 0.31974 0.79009 0.02309 0.0
C117 C 0.34471 0.79242 0.98973 0.0
C118 C 0.32678 0.73395 0.17975 0.0
O119 O 0.37897 0.79452 0.00228 0.0
C120 C 0.42846 0.79915 0.16147 0.0
O121 O 0.31284 0.80506 0.11931 0.0
O122 O 0.355 0.83828 0.07735 0.0
O123 O 0.36203 0.73794 0.18237 0.0
O124 O 0.31046 0.73502 0.13734 0.0
C125 C 0.44686 0.74682 0.05435 0.0
O126 O 0.41244 0.82024 0.12925 0.0
O127 O 0.42578 0.76384 0.15921 0.0
C128 C 0.32825 0.83623 0.10905 0.0
O129 O 0.43761 0.78094 0.05406 0.0
O130 O 0.42729 0.72253 0.07737 0.0
C131 C 0.34472 0.69227 0.06037 0.0
Fe132 Fe 0.79998 0.61359 0.91003 0.0
Fe133 Fe 0.76927 0.68675 0.86566 0.0
O134 O 0.76436 0.63787 0.876 0.0
Fe135 Fe 0.72372 0.61436 0.85275 0.0
O136 O 0.71095 0.59745 0.91562 0.0
O137 O 0.76789 0.58095 0.94064 0.0
O138 O 0.79433 0.644 0.96545 0.0
C139 C 0.79788 0.67917 0.96393 0.0
C140 C 0.7822 0.56137 0.83684 0.0
O141 O 0.79796 0.69581 0.92179 0.0
C142 C 0.73673 0.66264 0.7744 0.0
O143 O 0.83843 0.64204 0.88381 0.0
O144 O 0.81115 0.67903 0.8274 0.0
O145 O 0.74798 0.57078 0.83905 0.0
O146 O 0.80771 0.58074 0.8581 0.0
C147 C 0.6955 0.68122 0.89431 0.0
O148 O 0.74197 0.6879 0.80701 0.0
O149 O 0.73318 0.62882 0.78749 0.0
C150 C 0.83977 0.6611 0.84303 0.0
O151 O 0.72734 0.69592 0.90385 0.0
O152 O 0.69244 0.65416 0.86339 0.0
C153 C 0.73252 0.57942 0.94514 0.0
Fe154 Fe 0.69166 0.26446 0.14267 0.0
Fe155 Fe 0.61572 0.29821 0.17052 0.0
O156 O 0.64182 0.26205 0.14105 0.0
Fe157 Fe 0.61935 0.22366 0.11081 0.0
O158 O 0.65495 0.18993 0.13179 0.0
O159 O 0.69375 0.22199 0.18138 0.0
O160 O 0.69459 0.29201 0.20033 0.0
C161 C 0.67364 0.28912 0.23833 0.0
C162 C 0.67888 0.23208 0.04725 0.0
O163 O 0.63835 0.28856 0.23227 0.0
C164 C 0.57358 0.28588 0.08388 0.0
O165 O 0.69061 0.30695 0.1039 0.0
O166 O 0.64972 0.33484 0.1539 0.0
O167 O 0.6435 0.23259 0.0507 0.0
O168 O 0.69926 0.23733 0.08573 0.0
C169 C 0.57252 0.23323 0.19266 0.0
O170 O 0.59079 0.30948 0.11152 0.0
O171 O 0.58013 0.25114 0.08658 0.0
C172 C 0.67284 0.33612 0.11732 0.0
O173 O 0.57721 0.26826 0.19071 0.0
O174 O 0.59283 0.21117 0.16731 0.0
C175 C 0.67801 0.19136 0.16884 0.0
C176 C 0.31029 0.02164 0.27194 0.0
C177 C 0.27621 0.04067 0.26441 0.0
C178 C 0.31793 0.9884 0.24546 0.0
C179 C 0.29094 0.97417 0.21053 0.0
C180 C 0.25715 0.99398 0.20141 0.0
C181 C 0.25021 0.027 0.22843 0.0
C182 C 0.3544 0.96798 0.25582 0.0
C183 C 0.22795 0.97986 0.16395 0.0
C184 C 0.32551 0.90586 0.11156 0.0
C185 C 0.31501 0.87125 0.1327 0.0
C186 C 0.31726 0.93958 0.13612 0.0
C187 C 0.29819 0.93867 0.18311 0.0
C188 C 0.28648 0.90393 0.20405 0.0
C189 C 0.29494 0.87051 0.1784 0.0
C190 C 0.32976 0.97613 0.11237 0.0
C191 C 0.26601 0.90203 0.25417 0.0
H192 H 0.33041 0.03192 0.29985 0.0
H193 H 0.22388 0.04169 0.22215 0.0
H194 H 0.34833 0.93962 0.27119 0.0
H195 H 0.37016 0.96417 0.2199 0.0
H196 H 0.37273 0.98316 0.2834 0.0
H197 H 0.20361 -0.00079 0.16022 0.0
H198 H 0.24075 0.97613 0.12591 0.0
H199 H 0.21737 0.95201 0.1763 0.0
H200 H 0.34083 0.90663 0.07603 0.0
H201 H 0.28703 0.84381 0.19503 0.0
H202 H 0.35035 0.99036 0.13778 0.0
H203 H 0.30536 0.99522 0.10769 0.0
H204 H 0.34302 0.972 0.07462 0.0
H205 H 0.28421 0.91357 0.28489 0.0
H206 H 0.25787 0.8729 0.26449 0.0
H207 H 0.24022 0.91951 0.25254 0.0
C208 C 0.02953 0.66121 0.6757 0.0
C209 C 0.0512 0.6923 0.69054 0.0
C210 C 0.99583 0.65235 0.701 0.0
C211 C 0.98384 0.67503 0.74207 0.0
C212 C 0.00707 0.70476 0.75932 0.0
C213 C 0.04041 0.713 0.73336 0.0
C214 C 0.97198 0.62017 0.68185 0.0
C215 C 0.99565 0.72932 0.80338 0.0
C216 C 0.87984 0.68628 0.77216 0.0
C217 C 0.87622 0.66403 0.81588 0.0
C218 C 0.91447 0.68916 0.74678 0.0
C219 C 0.9462 0.66928 0.76554 0.0
C220 C 0.94249 0.64607 0.80886 0.0
C221 C 0.90762 0.64375 0.83347 0.0
C222 C 0.9173 0.71415 0.70054 0.0
C223 C 0.97557 0.62435 0.82992 0.0
H224 H 0.03755 0.64532 0.64236 0.0
H225 H 0.05722 0.73694 0.74516 0.0
H226 H 0.96299 0.60206 0.7139 0.0
H227 H 0.94609 0.63134 0.66351 0.0
H228 H 0.98715 0.6027 0.65369 0.0
H229 H 0.01814 0.74954 0.81435 0.0
H230 H 0.96998 0.74535 0.79296 0.0
H231 H 0.98867 0.71188 0.837 0.0
H232 H 0.85572 0.70176 0.75797 0.0
H233 H 0.90513 0.6261 0.86688 0.0
H234 H 0.92896 0.69823 0.66803 0.0
H235 H 0.93693 0.7377 0.7086 0.0
H236 H 0.88958 0.72595 0.68904 0.0
H237 H 0.98855 0.6072 0.79956 0.0
H238 H 0.96741 0.60555 0.86174 0.0
H239 H 0.99747 0.64412 0.84394 0.0
C240 C 0.69467 0.00351 0.33419 0.0
C241 C 0.72015 0.97865 0.3116 0.0
C242 C 0.6891 0.03963 0.31431 0.0
C243 C 0.70965 0.05116 0.27104 0.0
C244 C 0.73568 0.02639 0.24842 0.0
C245 C 0.74044 0.99038 0.26875 0.0
C246 C 0.66075 0.0652 0.33902 0.0
C247 C 0.75814 0.03774 0.20225 0.0
C248 C 0.66693 0.12325 0.18277 0.0
C249 C 0.68705 0.15591 0.19556 0.0
C250 C 0.6737 0.08929 0.20769 0.0
C251 C 0.70145 0.0877 0.24637 0.0
C252 C 0.72181 0.12049 0.25994 0.0
C253 C 0.7143 0.15435 0.23437 0.0
C254 C 0.65119 0.05501 0.19234 0.0
C255 C 0.75167 0.11969 0.30107 0.0
H256 H 0.67901 0.99476 0.36744 0.0
H257 H 0.76047 0.97156 0.25125 0.0
H258 H 0.67411 0.09242 0.3489 0.0
H259 H 0.63747 0.0712 0.31188 0.0
H260 H 0.6486 0.05277 0.37406 0.0
H261 H 0.77909 0.01615 0.19135 0.0
H262 H 0.73886 0.04248 0.1695 0.0
H263 H 0.7732 0.06452 0.2096 0.0
H264 H 0.64551 0.12411 0.15323 0.0
H265 H 0.72981 0.17945 0.24466 0.0
H266 H 0.63664 0.04309 0.22591 0.0
H267 H 0.67034 0.03307 0.1776 0.0
H268 H 0.62977 0.06133 0.16257 0.0
H269 H 0.73954 0.10903 0.33711 0.0
H270 H 0.76413 0.14782 0.30817 0.0
H271 H 0.77451 0.10017 0.29011 0.0
C272 C 0.11941 0.35004 0.84749 0.0
C273 C 0.15021 0.32833 0.83224 0.0
C274 C 0.08297 0.34216 0.82984 0.0
C275 C 0.07739 0.31241 0.7951 0.0
C276 C 0.10834 0.28992 0.78021 0.0
C277 C 0.14446 0.29789 0.79959 0.0
C278 C 0.05059 0.36612 0.84761 0.0
C279 C 0.10348 0.25832 0.74254 0.0
C280 C 0.98075 0.26975 0.77412 0.0
C281 C 0.96934 0.28726 0.72886 0.0
C282 C 0.01525 0.27876 0.79724 0.0
C283 C 0.03926 0.3052 0.77369 0.0
C284 C 0.02723 0.32401 0.72893 0.0
C285 C 0.99208 0.31509 0.70729 0.0
C286 C 0.02659 0.25897 0.84576 0.0
C287 C 0.05231 0.35206 0.70244 0.0
H288 H 0.12393 0.37351 0.87304 0.0
H289 H 0.16842 0.28144 0.78743 0.0
H290 H 0.03839 0.3817 0.81492 0.0
H291 H 0.02791 0.34815 0.86337 0.0
H292 H 0.0594 0.38667 0.87714 0.0
H293 H 0.13033 0.24343 0.73509 0.0
H294 H 0.08257 0.23776 0.75685 0.0
H295 H 0.09241 0.26951 0.70598 0.0
H296 H 0.96305 0.24815 0.79066 0.0
H297 H 0.98347 0.32813 0.67181 0.0
H298 H 0.03557 0.27967 0.87493 0.0
H299 H 0.05097 0.2404 0.83841 0.0
H300 H 0.00332 0.2417 0.86152 0.0
H301 H 0.06106 0.3745 0.72924 0.0
H302 H 0.03822 0.3652 0.66906 0.0
H303 H 0.07831 0.33791 0.68935 0.0
C304 C 0.35904 0.62407 0.05369 0.0
C305 C 0.33915 0.65542 0.03563 0.0
C306 C 0.35358 0.58856 0.03229 0.0
C307 C 0.32754 0.5842 0.99185 0.0
C308 C 0.30799 0.61579 0.97248 0.0
C309 C 0.31409 0.65113 -0.00543 0.0
C310 C 0.37528 0.55559 0.05352 0.0
C311 C 0.28011 0.61211 0.92912 0.0
C312 C 0.33299 0.49699 0.90996 0.0
C313 C 0.30429 0.47471 0.93075 0.0
C314 C 0.34112 0.53261 0.92973 0.0
C315 C 0.31992 0.54629 0.97109 0.0
C316 C 0.29163 0.52359 0.99315 0.0
C317 C 0.28429 0.48796 0.9729 0.0
C318 C 0.3719 0.55588 0.90579 0.0
C319 C 0.26851 0.5373 0.03741 0.0
H320 H 0.37882 0.62713 0.085 0.0
H321 H 0.29888 0.67526 0.9801 0.0
H322 H 0.35545 0.53484 0.06998 0.0
H323 H 0.3908 0.54126 0.02266 0.0
H324 H 0.39576 0.56407 0.08353 0.0
H325 H 0.26855 0.63965 0.91699 0.0
H326 H 0.29367 0.59867 0.89592 0.0
H327 H 0.2564 0.59375 0.94081 0.0
H328 H 0.34868 0.48689 0.87751 0.0
H329 H 0.262 0.47101 0.98913 0.0
H330 H 0.39298 0.56421 0.93503 0.0
H331 H 0.35981 0.58204 0.88978 0.0
H332 H 0.38659 0.54063 0.87491 0.0
H333 H 0.28724 0.54462 0.06988 0.0
H334 H 0.24772 0.51607 0.0504 0.0
H335 H 0.25315 0.56316 0.02638 0.0
C336 C 0.66059 0.71141 0.9662 0.0
C337 C 0.66052 0.69549 0.91749 0.0
C338 C 0.62648 0.71971 0.99078 0.0
C339 C 0.59177 0.71238 0.96561 0.0
C340 C 0.59175 0.69745 0.91581 0.0
C341 C 0.62603 0.6891 0.89252 0.0
C342 C 0.62752 0.7357 0.0439 0.0
C343 C 0.55544 0.68978 0.88728 0.0
C344 C 0.49987 0.70152 0.03829 0.0
C345 C 0.48339 0.73682 0.03083 0.0
C346 C 0.53566 0.69341 0.01839 0.0
C347 C 0.55524 0.72119 0.99028 0.0
C348 C 0.53872 0.75676 0.98265 0.0
C349 C 0.50312 0.76409 0.00287 0.0
C350 C 0.55248 0.6551 0.02718 0.0
C351 C 0.55844 0.78702 0.95249 0.0
H352 H 0.68717 0.716 0.98581 0.0
H353 H 0.62581 0.67696 0.85471 0.0
H354 H 0.61503 0.76418 0.04384 0.0
H355 H 0.61037 0.71809 0.06981 0.0
H356 H 0.65664 0.73753 0.05934 0.0
H357 H 0.56038 0.6784 0.84857 0.0
H358 H 0.53804 0.66938 0.90875 0.0
H359 H 0.53884 0.71597 0.88366 0.0
H360 H 0.48504 0.68039 0.06012 0.0
H361 H 0.49076 0.7915 -0.00327 0.0
H362 H 0.58067 0.65785 0.04527 0.0
H363 H 0.55644 0.6407 0.99021 0.0
H364 H 0.53447 0.63718 0.05171 0.0
H365 H 0.58676 0.79262 0.96891 0.0
H366 H 0.54237 0.81371 0.95171 0.0
H367 H 0.56255 0.77748 0.91276 0.0
C368 C 0.66364 0.40532 0.11387 0.0
C369 C 0.68044 0.37301 0.0936 0.0
C370 C 0.66909 0.44058 0.09173 0.0
C371 C 0.69186 0.44374 0.0481 0.0
C372 C 0.70879 0.41133 0.02708 0.0
C373 C 0.70292 0.37625 0.05018 0.0
C374 C 0.65073 0.47451 0.11533 0.0
C375 C 0.7332 0.41377 0.98035 0.0
C376 C 0.68472 0.52989 0.9636 0.0
C377 C 0.71733 0.54954 0.97797 0.0
C378 C 0.67546 0.4957 0.98701 0.0
C379 C 0.69923 0.48125 0.02578 0.0
C380 C 0.73072 0.50229 0.04266 0.0
C381 C 0.7394 0.53617 0.01849 0.0
C382 C 0.64147 0.47407 0.96835 0.0
C383 C 0.75636 0.48813 0.08451 0.0
H384 H 0.64609 0.4032 0.14734 0.0
H385 H 0.71569 0.35141 0.03406 0.0
H386 H 0.67265 0.49475 0.12796 0.0
H387 H 0.63286 0.48905 0.08674 0.0
H388 H 0.63301 0.46708 0.14854 0.0
H389 H 0.74333 0.38583 0.9678 0.0
H390 H 0.71724 0.42688 0.94858 0.0
H391 H 0.758 0.43191 0.98824 0.0
H392 H 0.66782 0.53992 0.93193 0.0
H393 H 0.76456 0.55143 0.02977 0.0
H394 H 0.62341 0.4658 0.00079 0.0
H395 H 0.65079 0.4479 0.94948 0.0
H396 H 0.62425 0.4905 0.94084 0.0
H397 H 0.73976 0.48098 0.11881 0.0
H398 H 0.77827 0.50901 0.0953 0.0
H399 H 0.77058 0.4621 0.07188 0.0
C400 C 0.50557 0.27936 0.06818 0.0
C401 C 0.53964 0.29688 0.05576 0.0
C402 C 0.47305 0.28538 0.03907 0.0
C403 C 0.47499 0.30888 -0.00421 0.0
C404 C 0.50939 0.32694 0.9833 0.0
C405 C 0.54144 0.32097 0.01392 0.0
C406 C 0.43671 0.26653 0.0546 0.0
C407 C 0.51245 0.35192 0.93712 0.0
C408 C 0.39703 0.29763 0.89685 0.0
C409 C 0.37461 0.32871 0.90783 0.0
C410 C 0.43037 0.29107 0.92468 0.0
C411 C 0.44052 0.31565 0.96497 0.0
C412 C 0.41712 0.34634 0.97698 0.0
C413 C 0.38471 0.35272 0.94785 0.0
C414 C 0.45501 0.25834 0.91054 0.0
C415 C 0.42623 0.37244 0.02064 0.0
H416 H 0.50451 0.26061 0.1007 0.0
H417 H 0.5681 0.33395 0.0042 0.0
H418 H 0.4147 0.28795 0.0614 0.0
H419 H 0.42634 0.24811 0.02353 0.0
H420 H 0.44007 0.24937 0.08963 0.0
H421 H 0.5414 0.36317 0.93206 0.0
H422 H 0.5043 0.33601 0.90249 0.0
H423 H 0.49268 0.37582 0.94042 0.0
H424 H 0.3892 0.27932 0.86559 0.0
H425 H 0.36699 0.3766 0.95652 0.0
H426 H 0.4578 0.2389 0.9433 0.0
H427 H 0.48373 0.26848 0.9012 0.0
H428 H 0.44364 0.24247 0.87746 0.0
H429 H 0.42846 0.35626 0.05661 0.0
H430 H 0.40459 0.39458 0.02546 0.0
H431 H 0.45389 0.38616 0.01434 0.0
C432 C 0.82615 0.50751 0.82069 0.0
C433 C 0.79076 0.52432 0.81441 0.0
C434 C 0.83283 0.47111 0.80239 0.0
C435 C 0.80348 0.45132 0.77724 0.0
C436 C 0.76777 0.46812 0.77102 0.0
C437 C 0.76191 0.50435 0.78947 0.0
C438 C 0.87134 0.45395 0.80941 0.0
C439 C 0.73586 0.4481 0.74394 0.0
C440 C 0.82858 0.37951 0.67782 0.0
C441 C 0.82192 0.34555 0.7033 0.0
C442 C 0.82319 0.41396 0.70186 0.0
C443 C 0.81084 0.41462 0.75283 0.0
C444 C 0.80369 0.38053 0.7789 0.0
C445 C 0.80922 0.34622 0.75367 0.0
C446 C 0.83057 0.44969 0.67248 0.0
C447 C 0.79043 0.38034 0.83335 0.0
H448 H 0.84845 0.52257 0.84031 0.0
H449 H 0.73441 0.517 0.78436 0.0
H450 H 0.86887 0.42619 0.82821 0.0
H451 H 0.88444 0.44928 0.77175 0.0
H452 H 0.8904 0.47201 0.83251 0.0
H453 H 0.70915 0.46424 0.74495 0.0
H454 H 0.74344 0.4433 0.70359 0.0
H455 H 0.73091 0.42023 0.76148 0.0
H456 H 0.83825 0.37926 0.63878 0.0
H457 H 0.80446 0.32004 0.77366 0.0
H458 H 0.85178 0.4671 0.69279 0.0
H459 H 0.80433 0.46642 0.66966 0.0
H460 H 0.8409 0.44419 0.6334 0.0
H461 H 0.81085 0.39571 0.85777 0.0
H462 H 0.78699 0.35145 0.84856 0.0
H463 H 0.76306 0.39512 0.83617 0.0
C464 C 0.51876 0.18815 0.19867 0.0
C465 C 0.53816 0.21944 0.21774 0.0
C466 C 0.48253 0.17925 0.21618 0.0
C467 C 0.46575 0.20197 0.2539 0.0
C468 C 0.48585 0.23274 0.27453 0.0
C469 C 0.52177 0.24115 0.25609 0.0
C470 C 0.46182 0.14619 0.19344 0.0
C471 C 0.46917 0.2572 0.31548 0.0
C472 C 0.3597 0.20223 0.27352 0.0
C473 C 0.35636 0.17839 0.31568 0.0
C474 C 0.39516 0.20957 0.25204 0.0
C475 C 0.42777 0.19287 0.27361 0.0
C476 C 0.42447 0.16874 0.31596 0.0
C477 C 0.3889 0.16177 0.33636 0.0
C478 C 0.39778 0.23525 0.2065 0.0
C479 C 0.4586 0.15063 0.34026 0.0
H480 H 0.53111 0.17169 0.16844 0.0
H481 H 0.53675 0.26538 0.27087 0.0
H482 H 0.45356 0.12624 0.22382 0.0
H483 H 0.43552 0.15591 0.17465 0.0
H484 H 0.47905 0.131 0.16501 0.0
H485 H 0.48871 0.27989 0.32774 0.0
H486 H 0.4427 0.27016 0.30142 0.0
H487 H 0.46193 0.23993 0.34918 0.0
H488 H 0.33467 0.21483 0.25707 0.0
H489 H 0.38674 0.1433 0.36899 0.0
H490 H 0.41184 0.22056 0.17469 0.0
H491 H 0.41529 0.2601 0.21612 0.0
H492 H 0.36968 0.24503 0.19324 0.0
H493 H 0.47432 0.13425 0.31155 0.0
H494 H 0.451 0.13165 0.37215 0.0
H495 H 0.47797 0.17259 0.35503 0.0
C496 C 0.18473 0.602 0.60947 0.0
C497 C 0.19801 0.63648 0.62824 0.0
C498 C 0.19421 0.56822 0.63324 0.0
C499 C 0.21774 0.56881 0.67677 0.0
C500 C 0.23274 0.60327 0.69466 0.0
C501 C 0.22265 0.63684 0.67012 0.0
C502 C 0.1776 0.53205 0.61309 0.0
C503 C 0.25821 0.6048 0.74085 0.0
C504 C 0.20555 0.48926 0.77079 0.0
C505 C 0.23589 0.46593 0.75859 0.0
C506 C 0.1994 0.52287 0.74444 0.0
C507 C 0.22442 0.53354 0.70527 0.0
C508 C 0.25476 0.50988 0.69217 0.0
C509 C 0.25999 0.47617 0.71877 0.0
C510 C 0.16631 0.54712 0.75881 0.0
C511 C 0.28205 0.52053 0.65072 0.0
H512 H 0.16594 0.60137 0.57682 0.0
H513 H 0.23297 0.66337 0.68482 0.0
H514 H 0.20016 0.5112 0.6064 0.0
H515 H 0.15823 0.51989 0.6417 0.0
H516 H 0.16168 0.53621 0.577 0.0
H517 H 0.27001 0.63331 0.7473 0.0
H518 H 0.24219 0.59635 0.77512 0.0
H519 H 0.28181 0.58473 0.73668 0.0
H520 H 0.18683 0.48147 0.8015 0.0
H521 H 0.28376 0.45849 0.70948 0.0
H522 H 0.14764 0.55134 0.72528 0.0
H523 H 0.17638 0.57519 0.77105 0.0
H524 H 0.14942 0.53467 0.79003 0.0
H525 H 0.26676 0.52437 0.61416 0.0
H526 H 0.3043 0.49907 0.64533 0.0
H527 H 0.29574 0.54769 0.6601 0.0
C528 C 0.62238 0.8118 0.29797 0.0
C529 C 0.62806 0.84007 0.33418 0.0
C530 C 0.5878 0.80837 0.2721 0.0
C531 C 0.55801 0.83335 0.28352 0.0
C532 C 0.56333 0.86136 0.32093 0.0
C533 C 0.5984 0.86461 0.34547 0.0
C534 C 0.58335 0.77841 0.2319 0.0
C535 C 0.53206 0.88802 0.33483 0.0
C536 C 0.48217 0.84187 0.18154 0.0
C537 C 0.45642 0.81455 0.19753 0.0
C538 C 0.51482 0.8495 0.21029 0.0
C539 C 0.52127 0.8298 0.25639 0.0
C540 C 0.49374 0.80442 0.27455 0.0
C541 C 0.46183 0.79682 0.24461 0.0
C542 C 0.54364 0.87657 0.18947 0.0
C543 C 0.49907 0.78356 0.32409 0.0
H544 H 0.64535 0.79308 0.28868 0.0
H545 H 0.60261 0.88647 0.37358 0.0
H546 H 0.56012 0.75906 0.24228 0.0
H547 H 0.57572 0.79147 0.19491 0.0
H548 H 0.60947 0.76176 0.22682 0.0
H549 H 0.54045 0.90759 0.36577 0.0
H550 H 0.5236 0.90472 0.30104 0.0
H551 H 0.50689 0.87199 0.3472 0.0
H552 H 0.47828 0.8552 0.14479 0.0
H553 H 0.44184 0.77567 0.25695 0.0
H554 H 0.56917 0.86086 0.17805 0.0
H555 H 0.55237 0.897 0.21908 0.0
H556 H 0.53285 0.89221 0.15587 0.0
H557 H 0.52207 0.7628 0.32001 0.0
H558 H 0.47311 0.76844 0.33576 0.0
H559 H 0.50742 0.80319 0.35489 0.0
C560 C 0.84569 0.09567 0.62378 0.0
C561 C 0.82819 0.12832 0.60543 0.0
C562 C 0.83779 0.06056 0.60238 0.0
C563 C 0.81188 0.05803 0.56151 0.0
C564 C 0.79358 0.09071 0.5433 0.0
C565 C 0.80191 0.12552 0.56557 0.0
C566 C 0.85781 0.0263 0.62277 0.0
C567 C 0.76584 0.08903 0.49953 0.0
C568 C 0.81919 0.97828 0.46737 0.0
C569 C 0.78874 0.95549 0.48152 0.0
C570 C 0.82772 0.01119 0.49411 0.0
C571 C 0.80528 0.02149 0.53606 0.0
C572 C 0.77583 0.9976 0.55236 0.0
C573 C 0.76795 0.96473 0.52494 0.0
C574 C 0.85968 0.03576 0.476 0.0
C575 C 0.75153 0.00764 0.59724 0.0
H576 H 0.86595 0.09749 0.65471 0.0
H577 H 0.78834 0.15059 0.55113 0.0
H578 H 0.83704 0.00443 0.63349 0.0
H579 H 0.87594 0.01421 0.59276 0.0
H580 H 0.87569 0.03279 0.65649 0.0
H581 H 0.75297 0.11676 0.49122 0.0
H582 H 0.78024 0.07901 0.46477 0.0
H583 H 0.74304 0.06869 0.50811 0.0
H584 H 0.83559 0.97115 0.43411 0.0
H585 H 0.74436 0.94729 0.53613 0.0
H586 H 0.87931 0.04203 0.50789 0.0
H587 H 0.84834 0.06291 0.46214 0.0
H588 H 0.87586 0.02256 0.44475 0.0
H589 H 0.76935 0.01428 0.63088 0.0
H590 H 0.73176 0.98469 0.60748 0.0
H591 H 0.73489 0.03311 0.58816 0.0
C592 C 0.10556 0.16868 0.40225 0.0
C593 C 0.14024 0.1813 0.42187 0.0
C594 C 0.0722 0.17294 0.42961 0.0
C595 C 0.07341 0.19031 0.47786 0.0
C596 C 0.10822 0.20319 0.49808 0.0
C597 C 0.14132 0.19855 0.46976 0.0
C598 C 0.0356 0.15909 0.40662 0.0
C599 C 0.11043 0.22196 0.54948 0.0
C600 C 0.98365 0.23607 0.52267 0.0
C601 C 0.96991 0.2097 0.5577 0.0
C602 C 0.01734 0.23009 0.49669 0.0
C603 C 0.03779 0.19677 0.50564 0.0
C604 C 0.02364 0.16942 0.53973 0.0
C605 C 0.98972 0.17619 0.5654 0.0
C606 C 0.0313 0.25974 0.46021 0.0
C607 C 0.04469 0.13341 0.54975 0.0
H608 H 0.10436 0.15521 0.36533 0.0
H609 H 0.16803 0.20802 0.48537 0.0
H610 H 0.02178 0.13898 0.43282 0.0
H611 H 0.01599 0.18295 0.40111 0.0
H612 H 0.03972 0.14509 0.36934 0.0
H613 H 0.1398 0.2293 0.56049 0.0
H614 H 0.09332 0.24796 0.54913 0.0
H615 H 0.09846 0.20323 0.57902 0.0
H616 H 0.9684 0.26197 0.51622 0.0
H617 H 0.97941 0.15582 0.59263 0.0
H618 H 0.03451 0.24759 0.42165 0.0
H619 H 0.05946 0.26993 0.47255 0.0
H620 H 0.01197 0.28412 0.4576 0.0
H621 H 0.04886 0.11798 0.5136 0.0
H622 H 0.02966 0.1148 0.57683 0.0
H623 H 0.07304 0.13982 0.56552 0.0
C624 C 0.14753 0.88387 0.55493 0.0
C625 C 0.16665 0.85302 0.53429 0.0
C626 C 0.15059 0.91963 0.53337 0.0
C627 C 0.17329 0.92478 0.49 0.0
C628 C 0.19145 0.89359 0.46757 0.0
C629 C 0.18794 0.85798 0.49005 0.0
C630 C 0.13073 0.95215 0.55832 0.0
C631 C 0.21569 0.89805 0.42095 0.0
C632 C 0.16748 0.0161 0.41541 0.0
C633 C 0.19938 0.03504 0.43391 0.0
C634 C 0.15815 0.98022 0.43376 0.0
C635 C 0.18117 0.96334 0.47154 0.0
C636 C 0.21221 0.98327 0.49208 0.0
C637 C 0.22092 0.01883 0.47298 0.0
C638 C 0.12471 0.95979 0.41126 0.0
C639 C 0.23708 0.96652 0.53303 0.0
H640 H 0.13051 0.88033 0.58869 0.0
H641 H 0.20232 0.83422 0.47342 0.0
H642 H 0.15187 0.97155 0.57513 0.0
H643 H 0.11434 0.96828 0.52971 0.0
H644 H 0.11136 0.94286 0.58891 0.0
H645 H 0.22466 0.87061 0.40517 0.0
H646 H 0.20026 0.91374 0.39093 0.0
H647 H 0.24123 0.91458 0.43081 0.0
H648 H 0.15102 0.0284 0.38482 0.0
H649 H 0.24549 0.03354 0.48755 0.0
H650 H 0.10596 0.94947 0.44187 0.0
H651 H 0.13457 0.9349 0.38987 0.0
H652 H 0.10807 0.97784 0.38504 0.0
H653 H 0.2199 0.95829 0.56635 0.0
H654 H 0.2594 0.98626 0.54602 0.0
H655 H 0.25075 0.94075 0.51849 0.0
C656 C 0.01698 0.74834 0.48123 0.0
C657 C 0.03001 0.77155 0.52077 0.0
C658 C 0.98259 0.75525 0.45667 0.0
C659 C 0.96042 0.78594 0.47229 0.0
C660 C 0.97359 0.80986 0.51169 0.0
C661 C 0.00847 0.80254 0.53528 0.0
C662 C 0.96992 0.72958 0.41415 0.0
C663 C 0.95052 0.84281 0.52944 0.0
C664 C 0.88832 0.82756 0.38197 0.0
C665 C 0.85469 0.81233 0.40046 0.0
C666 C 0.92305 0.81819 0.40397 0.0
C667 C 0.92398 0.79364 0.44626 0.0
C668 C 0.89011 0.77713 0.46402 0.0
C669 C 0.85571 0.78647 0.44046 0.0
C670 C 0.95855 0.83571 0.38317 0.0
C671 C 0.89002 0.7511 0.50934 0.0
H672 H 0.03368 0.72445 0.46958 0.0
H673 H 0.01828 0.82032 0.56608 0.0
H674 H 0.94267 0.71623 0.42404 0.0
H675 H 0.96527 0.74602 0.37882 0.0
H676 H 0.99074 0.70716 0.40622 0.0
H677 H 0.96444 0.85833 0.56104 0.0
H678 H 0.94563 0.86251 0.4974 0.0
H679 H 0.92252 0.83295 0.54247 0.0
H680 H 0.88726 0.84781 0.35117 0.0
H681 H 0.82949 0.77539 0.45527 0.0
H682 H 0.97964 0.8137 0.37476 0.0
H683 H 0.9712 0.85467 0.41207 0.0
H684 H 0.95318 0.85212 0.34792 0.0
H685 H 0.90959 0.72739 0.50299 0.0
H686 H 0.86151 0.73964 0.51729 0.0
H687 H 0.90018 0.76638 0.54356 0.0
C688 C 0.1991 0.31167 0.02006 0.0
C689 C 0.23625 0.32006 0.00644 0.0
C690 C 0.19159 0.28793 0.06147 0.0
C691 C 0.22199 0.27309 0.09023 0.0
C692 C 0.2595 0.28281 0.07768 0.0
C693 C 0.26615 0.30585 0.03553 0.0
C694 C 0.15132 0.27772 0.07343 0.0
C695 C 0.29266 0.26846 0.10828 0.0
C696 C 0.20941 0.24256 0.22642 0.0
C697 C 0.21261 0.20335 0.22285 0.0
C698 C 0.21078 0.2654 0.18329 0.0
C699 C 0.21493 0.24872 0.135 0.0
C700 C 0.21591 0.20908 0.13054 0.0
C701 C 0.21491 0.18674 0.17471 0.0
C702 C 0.21003 0.30751 0.18983 0.0
C703 C 0.21971 0.19041 0.07936 0.0
H704 H 0.17606 0.32198 -0.00331 0.0
H705 H 0.29488 0.31217 0.02453 0.0
H706 H 0.14742 0.24694 0.06994 0.0
H707 H 0.14465 0.28537 0.11325 0.0
H708 H 0.13091 0.29191 0.04766 0.0
H709 H 0.31998 0.27933 0.09398 0.0
H710 H 0.28976 0.27675 0.14874 0.0
H711 H 0.29332 0.23737 0.10705 0.0
H712 H 0.20716 0.2558 0.26338 0.0
H713 H 0.21724 0.15653 0.17164 0.0
H714 H 0.1886 0.32023 0.1643 0.0
H715 H 0.23778 0.31946 0.17918 0.0
H716 H 0.20381 0.31592 0.22957 0.0
H717 H 0.19903 0.20225 0.05193 0.0
H718 H 0.21546 0.15957 0.08167 0.0
H719 H 0.24823 0.19591 0.06401 0.0
C720 C 0.31017 0.82547 0.92193 0.0
C721 C 0.33171 0.7945 0.93688 0.0
C722 C 0.28633 0.82361 0.87926 0.0
C723 C 0.2836 0.78969 0.85152 0.0
C724 C 0.3066 0.7588 0.86528 0.0
C725 C 0.33046 0.76161 0.90796 0.0
C726 C 0.26257 0.85725 0.86559 0.0
C727 C 0.30448 0.72214 0.83667 0.0
C728 C 0.19452 0.77059 0.77361 0.0
C729 C 0.20675 0.77942 0.72448 0.0
C730 C 0.21918 0.77402 0.81561 0.0
C731 C 0.25671 0.78662 0.80806 0.0
C732 C 0.26878 0.79637 0.75875 0.0
C733 C 0.24374 0.79274 0.71777 0.0
C734 C 0.20535 0.76352 0.8679 0.0
C735 C 0.30843 0.81004 0.74904 0.0
H736 H 0.31031 0.85042 0.94552 0.0
H737 H 0.34606 0.73724 0.92089 0.0
H738 H 0.26634 0.86467 0.82495 0.0
H739 H 0.23235 0.85041 0.87099 0.0
H740 H 0.26967 0.88215 0.88919 0.0
H741 H 0.27595 0.70977 0.84076 0.0
H742 H 0.30915 0.72696 0.79549 0.0
H743 H 0.32552 0.70149 0.8507 0.0
H744 H 0.16614 0.76012 0.77904 0.0
H745 H 0.25353 0.79996 0.68003 0.0
H746 H 0.20904 0.78752 0.8943 0.0
H747 H 0.22235 0.73995 0.88322 0.0
H748 H 0.17521 0.75508 0.86762 0.0
H749 H 0.31448 0.83528 0.77237 0.0
H750 H 0.31317 0.81711 0.70841 0.0
H751 H 0.32895 0.78815 0.76054 0.0
C752 C 0.74516 0.80823 0.19251 0.0
C753 C 0.7746 0.82146 0.22338 0.0
C754 C 0.75237 0.78517 0.15066 0.0
C755 C 0.7899 0.77449 0.14011 0.0
C756 C 0.81988 0.78854 0.17041 0.0
C757 C 0.81188 0.81225 0.21154 0.0
C758 C 0.71971 0.77154 0.11845 0.0
C759 C 0.86016 0.77736 0.16057 0.0
C760 C 0.79681 0.68663 0.0591 0.0
C761 C 0.80124 0.70223 0.01056 0.0
C762 C 0.79511 0.70978 0.10232 0.0
C763 C 0.79746 0.74926 0.09651 0.0
C764 C 0.80366 0.76493 0.04795 0.0
C765 C 0.80575 0.74126 0.00574 0.0
C766 C 0.78911 0.69213 0.15385 0.0
C767 C 0.80586 0.80687 0.04002 0.0
H768 H 0.71632 0.81523 0.20195 0.0
H769 H 0.83459 0.82186 0.23608 0.0
H770 H 0.72427 0.77907 0.07798 0.0
H771 H 0.71775 0.74053 0.12057 0.0
H772 H 0.6924 0.78356 0.13076 0.0
H773 H 0.8803 0.79151 0.18683 0.0
H774 H 0.86317 0.74657 0.16516 0.0
H775 H 0.86801 0.78425 0.12087 0.0
H776 H 0.79341 0.65656 0.06316 0.0
H777 H 0.80947 0.75371 0.96847 0.0
H778 H 0.76036 0.69877 0.16743 0.0
H779 H 0.80938 0.70382 0.18199 0.0
H780 H 0.79231 0.66116 0.15282 0.0
H781 H 0.7781 0.81962 0.04841 0.0
H782 H 0.81374 0.8144 0.00047 0.0
H783 H 0.82671 0.81956 0.06651 0.0
C784 C 0.79808 0.1742 0.80313 0.0
C785 C 0.82645 0.20133 0.79818 0.0
C786 C 0.77328 0.17497 0.84413 0.0
C787 C 0.77708 0.20362 0.88087 0.0
C788 C 0.8075 0.22942 0.87807 0.0
C789 C 0.83203 0.22792 0.83646 0.0
C790 C 0.74142 0.14684 0.84604 0.0
C791 C 0.81257 0.26011 0.91705 0.0
C792 C 0.6915 0.23641 0.95423 0.0
C793 C 0.69808 0.21934 0.00127 0.0
C794 C 0.71657 0.23065 0.91382 0.0
C795 C 0.7485 0.20733 0.92125 0.0
C796 C 0.75374 0.18832 0.96784 0.0
C797 C 0.72838 0.19452 0.00724 0.0
C798 C 0.71001 0.25096 0.86415 0.0
C799 C 0.78726 0.16312 0.97709 0.0
H800 H 0.79372 0.15392 0.77291 0.0
H801 H 0.8535 0.24934 0.83178 0.0
H802 H 0.73986 0.13366 0.8842 0.0
H803 H 0.71427 0.16139 0.83914 0.0
H804 H 0.74452 0.12438 0.8171 0.0
H805 H 0.83943 0.27568 0.91192 0.0
H806 H 0.78892 0.28029 0.91388 0.0
H807 H 0.81201 0.24821 0.95606 0.0
H808 H 0.66831 0.25592 0.95006 0.0
H809 H 0.73327 0.18127 0.04387 0.0
H810 H 0.71073 0.23087 0.83197 0.0
H811 H 0.73289 0.27171 0.858 0.0
H812 H 0.6826 0.26591 0.86335 0.0
H813 H 0.78942 0.14185 0.9465 0.0
H814 H 0.78571 0.14841 0.01429 0.0
H815 H 0.81352 0.18007 0.97637 0.0
C816 C 0.71312 0.75503 0.5004 0.0
C817 C 0.71206 0.79401 0.50776 0.0
C818 C 0.71235 0.73021 0.54155 0.0
C819 C 0.71078 0.74471 0.59143 0.0
C820 C 0.70725 0.78396 0.59908 0.0
C821 C 0.70772 0.80829 0.55689 0.0
C822 C 0.71571 0.68862 0.53169 0.0
C823 C 0.7054 0.80036 0.65189 0.0
C824 C 0.69379 0.67948 0.70352 0.0
C825 C 0.73052 0.6749 0.722 0.0
C826 C 0.68679 0.70151 0.66015 0.0
C827 C 0.71735 0.71923 0.63529 0.0
C828 C 0.75468 0.71298 0.65262 0.0
C829 C 0.76074 0.69107 0.6961 0.0
C830 C 0.64668 0.70747 0.64265 0.0
C831 C 0.78812 0.73089 0.62677 0.0
H832 H 0.71585 0.74388 0.46223 0.0
H833 H 0.70689 0.83839 0.56253 0.0
H834 H 0.74397 0.67883 0.54404 0.0
H835 H 0.69455 0.67279 0.55401 0.0
H836 H 0.71194 0.68166 0.49078 0.0
H837 H 0.69859 0.83075 0.65126 0.0
H838 H 0.68393 0.78545 0.67482 0.0
H839 H 0.73298 0.79661 0.67133 0.0
H840 H 0.67044 0.66783 0.72481 0.0
H841 H 0.78901 0.68811 0.71148 0.0
H842 H 0.644 0.70219 0.6012 0.0
H843 H 0.63856 0.73708 0.64933 0.0
H844 H 0.62656 0.68899 0.66307 0.0
H845 H 0.78822 0.72359 0.58576 0.0
H846 H 0.81535 0.72195 0.64393 0.0
H847 H 0.78609 0.76187 0.62952 0.0
C848 C 0.81436 0.29607 0.47306 0.0
C849 C 0.80785 0.26735 0.50814 0.0
C850 C 0.79017 0.30078 0.43102 0.0
C851 C 0.75956 0.27561 0.42379 0.0
C852 C 0.75371 0.24596 0.45857 0.0
C853 C 0.77768 0.24251 0.50066 0.0
C854 C 0.79708 0.33277 0.39459 0.0
C855 C 0.72235 0.2177 0.45117 0.0
C856 C 0.67972 0.30085 0.33245 0.0
C857 C 0.69235 0.28376 0.28789 0.0
C858 C 0.70142 0.29866 0.37743 0.0
C859 C 0.73567 0.27816 0.37749 0.0
C860 C 0.74739 0.25953 0.33304 0.0
C861 C 0.72589 0.26303 0.28879 0.0
C862 C 0.68837 0.31902 0.42437 0.0
C863 C 0.78297 0.23632 0.33183 0.0
H864 H 0.83733 0.31562 0.47961 0.0
H865 H 0.77271 0.22039 0.52818 0.0
H866 H 0.80368 0.3216 0.35631 0.0
H867 H 0.77127 0.35006 0.39073 0.0
H868 H 0.82072 0.35109 0.4072 0.0
H869 H 0.72159 0.19643 0.48207 0.0
H870 H 0.69476 0.2322 0.44967 0.0
H871 H 0.72589 0.20295 0.41436 0.0
H872 H 0.65396 0.3171 0.33156 0.0
H873 H 0.73576 0.24974 0.25434 0.0
H874 H 0.70973 0.34025 0.43573 0.0
H875 H 0.68555 0.29906 0.45652 0.0
H876 H 0.66094 0.33333 0.41829 0.0
H877 H 0.8078 0.25442 0.33963 0.0
H878 H 0.78708 0.22227 0.29458 0.0
H879 H 0.78218 0.21451 0.36193 0.0
C880 C 0.32457 0.27834 0.71684 0.0
C881 C 0.29375 0.3027 0.71832 0.0
C882 C 0.32709 0.2508 0.67886 0.0
C883 C 0.29846 0.24836 0.64123 0.0
C884 C 0.26771 0.27364 0.64218 0.0
C885 C 0.26544 0.30012 0.68134 0.0
C886 C 0.35964 0.22365 0.67984 0.0
C887 C 0.23707 0.27262 0.60203 0.0
C888 C 0.31541 0.21089 0.50982 0.0
C889 C 0.29238 0.17884 0.5093 0.0
C890 C 0.31987 0.23241 0.55376 0.0
C891 C 0.30141 0.22119 0.59871 0.0
C892 C 0.28144 0.18664 0.59995 0.0
C893 C 0.27693 0.16579 0.55483 0.0
C894 C 0.34111 0.26912 0.55042 0.0
C895 C 0.26238 0.17325 0.64777 0.0
H896 H 0.3457 0.2797 0.74677 0.0
H897 H 0.24122 0.31851 0.68361 0.0
H898 H 0.34879 0.19459 0.68381 0.0
H899 H 0.37528 0.22496 0.6435 0.0
H900 H 0.37959 0.22941 0.71163 0.0
H901 H 0.21564 0.29486 0.60769 0.0
H902 H 0.24955 0.27621 0.56372 0.0
H903 H 0.22265 0.24499 0.60256 0.0
H904 H 0.32795 0.22065 0.47467 0.0
H905 H 0.25919 0.141 0.55446 0.0
H906 H 0.36086 0.2723 0.58296 0.0
H907 H 0.32081 0.29272 0.55213 0.0
H908 H 0.3573 0.27162 0.51455 0.0
H909 H 0.28084 0.17772 0.68145 0.0
H910 H 0.25473 0.14306 0.64546 0.0
H911 H 0.23622 0.18958 0.65372 0.0
C912 C 0.31517 0.7357 0.2741 0.0
C913 C 0.30328 0.7262 0.22488 0.0
C914 C 0.29047 0.73209 0.31554 0.0
C915 C 0.25328 0.71857 0.30728 0.0
C916 C 0.24167 0.70787 0.25795 0.0
C917 C 0.26676 0.71175 0.21751 0.0
C918 C 0.30379 0.74358 0.36789 0.0
C919 C 0.20241 0.69314 0.24761 0.0
C920 C 0.20036 0.6814 0.42163 0.0
C921 C 0.17857 0.71248 0.43498 0.0
C922 C 0.22399 0.68257 0.37916 0.0
C923 C 0.2262 0.7159 0.35001 0.0
C924 C 0.20282 0.74678 0.36204 0.0
C925 C 0.17919 0.74466 0.40458 0.0
C926 C 0.2482 0.64897 0.36733 0.0
C927 C 0.20438 0.78279 0.33184 0.0
H928 H 0.34322 0.74704 0.27995 0.0
H929 H 0.25736 0.70397 0.17964 0.0
H930 H 0.28644 0.76722 0.38186 0.0
H931 H 0.30017 0.72 0.39499 0.0
H932 H 0.33384 0.75236 0.36825 0.0
H933 H 0.19819 0.68498 0.20719 0.0
H934 H 0.19662 0.66837 0.27194 0.0
H935 H 0.18136 0.71489 0.25734 0.0
H936 H 0.20062 0.65702 0.44634 0.0
H937 H 0.16331 0.76911 0.41625 0.0
H938 H 0.27829 0.65622 0.37353 0.0
H939 H 0.24488 0.64088 0.32681 0.0
H940 H 0.24115 0.62439 0.39148 0.0
H941 H 0.23271 0.79572 0.33593 0.0
H942 H 0.183 0.80341 0.34452 0.0
H943 H 0.19985 0.77696 0.2908 0.0
loop_
_geom_bond_atom_site_label_1
_geom_bond_atom_site_label_2
_geom_bond_distance
_geom_bond_site_symmetry_2
_ccdc_geom_bond_type
Fe0 O2 1.918 . S
Fe0 O5 1.997 . S
Fe0 O6 2.002 . S
Fe0 O11 1.976 . S
Fe0 O14 1.996 . S
Fe1 O2 1.918 . S
Fe1 O9 1.997 . S
Fe1 O12 1.996 . S
Fe1 O16 1.976 . S
Fe1 O19 2.002 . S
O2 Fe0 1.918 . S
O2 Fe1 1.918 . S
O2 Fe3 1.918 . S
Fe3 O2 1.918 . S
Fe3 O4 2.002 . S
Fe3 O13 1.976 . S
Fe3 O17 1.996 . S
Fe3 O20 1.997 . S
O4 Fe3 2.002 . S
O4 C21 1.295 . S
O5 Fe0 1.997 . S
O5 C21 1.235 . S
O6 Fe0 2.002 . S
O6 C7 1.295 . S
C7 O6 1.295 . S
C7 O9 1.235 . S
C8 O13 1.287 . S
C8 O14 1.255 . S
O9 Fe1 1.997 . S
O9 C7 1.235 . S
C10 O16 1.287 . S
C10 O17 1.255 . S
O11 Fe0 1.976 . S
O11 C18 1.287 . S
O12 Fe1 1.996 . S
O12 C18 1.255 . S
O13 Fe3 1.976 . S
O13 C8 1.287 . S
O14 Fe0 1.996 . S
O14 C8 1.255 . S
C15 O19 1.295 . S
C15 O20 1.235 . S
O16 Fe1 1.976 . S
O16 C10 1.287 . S
O17 Fe3 1.996 . S
O17 C10 1.255 . S
C18 O11 1.287 . S
C18 O12 1.255 . S
O19 Fe1 2.002 . S
O19 C15 1.295 . S
O20 Fe3 1.997 . S
O20 C15 1.235 . S
C21 O4 1.295 . S
C21 O5 1.235 . S
Fe22 O24 1.918 . S
Fe22 O27 1.997 . S
Fe22 O28 2.002 . S
Fe22 O33 1.976 . S
Fe22 O36 1.996 . S
Fe23 O24 1.918 . S
Fe23 O31 1.997 . S
Fe23 O34 1.996 . S
Fe23 O38 1.976 . S
Fe23 O41 2.002 . S
O24 Fe22 1.918 . S
O24 Fe23 1.918 . S
O24 Fe25 1.918 . S
Fe25 O24 1.918 . S
Fe25 O26 2.002 . S
Fe25 O35 1.976 . S
Fe25 O39 1.996 . S
Fe25 O42 1.997 . S
O26 Fe25 2.002 . S
O26 C43 1.295 . S
O27 Fe22 1.997 . S
O27 C43 1.235 . S
O28 Fe22 2.002 . S
O28 C29 1.295 . S
C29 O28 1.295 . S
C29 O31 1.235 . S
C30 O35 1.287 . S
C30 O36 1.255 . S
O31 Fe23 1.997 . S
O31 C29 1.235 . S
C32 O38 1.287 . S
C32 O39 1.255 . S
O33 Fe22 1.976 . S
O33 C40 1.287 . S
O34 Fe23 1.996 . S
O34 C40 1.255 . S
O35 Fe25 1.976 . S
O35 C30 1.287 . S
O36 Fe22 1.996 . S
O36 C30 1.255 . S
C37 O41 1.295 . S
C37 O42 1.235 . S
O38 Fe23 1.976 . S
O38 C32 1.287 . S
O39 Fe25 1.996 . S
O39 C32 1.255 . S
C40 O33 1.287 . S
C40 O34 1.255 . S
O41 Fe23 2.002 . S
O41 C37 1.295 . S
O42 Fe25 1.997 . S
O42 C37 1.235 . S
C43 O26 1.295 . S
C43 O27 1.235 . S
Fe44 O46 1.918 . S
Fe44 O49 1.997 . S
Fe44 O50 2.002 . S
Fe44 O55 1.976 . S
Fe44 O58 1.996 . S
Fe45 O46 1.918 . S
Fe45 O53 1.997 . S
Fe45 O56 1.996 . S
Fe45 O60 1.976 . S
Fe45 O63 2.002 . S
O46 Fe44 1.918 . S
O46 Fe45 1.918 . S
O46 Fe47 1.918 . S
Fe47 O46 1.918 . S
Fe47 O48 2.002 . S
Fe47 O57 1.976 . S
Fe47 O61 1.996 . S
Fe47 O64 1.997 . S
O48 Fe47 2.002 . S
O48 C65 1.295 . S
O49 Fe44 1.997 . S
O49 C65 1.235 . S
O50 Fe44 2.002 . S
O50 C51 1.295 . S
C51 O50 1.295 . S
C51 O53 1.235 . S
C52 O57 1.287 . S
C52 O58 1.255 . S
O53 Fe45 1.997 . S
O53 C51 1.235 . S
C54 O60 1.287 . S
C54 O61 1.255 . S
O55 Fe44 1.976 . S
O55 C62 1.287 . S
O56 Fe45 1.996 . S
O56 C62 1.255 . S
O57 Fe47 1.976 . S
O57 C52 1.287 . S
O58 Fe44 1.996 . S
O58 C52 1.255 . S
C59 O63 1.295 . S
C59 O64 1.235 . S
O60 Fe45 1.976 . S
O60 C54 1.287 . S
O61 Fe47 1.996 . S
O61 C54 1.255 . S
C62 O55 1.287 . S
C62 O56 1.255 . S
O63 Fe45 2.002 . S
O63 C59 1.295 . S
O64 Fe47 1.997 . S
O64 C59 1.235 . S
C65 O48 1.295 . S
C65 O49 1.235 . S
Fe66 O68 1.918 . S
Fe66 O71 1.997 . S
Fe66 O72 2.002 . S
Fe66 O77 1.976 . S
Fe66 O80 1.996 . S
Fe67 O68 1.918 . S
Fe67 O75 1.997 . S
Fe67 O78 1.996 . S
Fe67 O82 1.976 . S
Fe67 O85 2.002 . S
O68 Fe66 1.918 . S
O68 Fe67 1.918 . S
O68 Fe69 1.918 . S
Fe69 O68 1.918 . S
Fe69 O70 2.002 . S
Fe69 O79 1.976 . S
Fe69 O83 1.996 . S
Fe69 O86 1.997 . S
O70 Fe69 2.002 . S
O70 C87 1.295 . S
O71 Fe66 1.997 . S
O71 C87 1.235 . S
O72 Fe66 2.002 . S
O72 C73 1.295 . S
C73 O72 1.295 . S
C73 O75 1.235 . S
C74 O79 1.287 . S
C74 O80 1.255 . S
O75 Fe67 1.997 . S
O75 C73 1.235 . S
C76 O82 1.287 . S
C76 O83 1.255 . S
O77 Fe66 1.976 . S
O77 C84 1.287 . S
O78 Fe67 1.996 . S
O78 C84 1.255 . S
O79 Fe69 1.976 . S
O79 C74 1.287 . S
O80 Fe66 1.996 . S
O80 C74 1.255 . S
C81 O85 1.295 . S
C81 O86 1.235 . S
O82 Fe67 1.976 . S
O82 C76 1.287 . S
O83 Fe69 1.996 . S
O83 C76 1.255 . S
C84 O77 1.287 . S
C84 O78 1.255 . S
O85 Fe67 2.002 . S
O85 C81 1.295 . S
O86 Fe69 1.997 . S
O86 C81 1.235 . S
C87 O70 1.295 . S
C87 O71 1.235 . S
Fe88 O90 1.918 . S
Fe88 O93 1.997 . S
Fe88 O94 2.002 . S
Fe88 O99 1.976 . S
Fe88 O102 1.996 . S
Fe89 O90 1.918 . S
Fe89 O97 1.997 . S
Fe89 O100 1.996 . S
Fe89 O104 1.976 . S
Fe89 O107 2.002 . S
O90 Fe88 1.918 . S
O90 Fe89 1.918 . S
O90 Fe91 1.918 . S
Fe91 O90 1.918 . S
Fe91 O92 2.002 . S
Fe91 O101 1.976 . S
Fe91 O105 1.996 . S
Fe91 O108 1.997 . S
O92 Fe91 2.002 . S
O92 C109 1.295 . S
O93 Fe88 1.997 . S
O93 C109 1.235 . S
O94 Fe88 2.002 . S
O94 C95 1.295 . S
C95 O94 1.295 . S
C95 O97 1.235 . S
C96 O101 1.287 . S
C96 O102 1.255 . S
O97 Fe89 1.997 . S
O97 C95 1.235 . S
C98 O104 1.287 . S
C98 O105 1.255 . S
O99 Fe88 1.976 . S
O99 C106 1.287 . S
O100 Fe89 1.996 . S
O100 C106 1.255 . S
O101 Fe91 1.976 . S
O101 C96 1.287 . S
O102 Fe88 1.996 . S
O102 C96 1.255 . S
C103 O107 1.295 . S
C103 O108 1.235 . S
O104 Fe89 1.976 . S
O104 C98 1.287 . S
O105 Fe91 1.996 . S
O105 C98 1.255 . S
C106 O99 1.287 . S
C106 O100 1.255 . S
O107 Fe89 2.002 . S
O107 C103 1.295 . S
O108 Fe91 1.997 . S
O108 C103 1.235 . S
C109 O92 1.295 . S
C109 O93 1.235 . S
Fe110 O112 1.918 . S
Fe110 O115 1.997 . S
Fe110 O116 2.002 . S
Fe110 O121 1.976 . S
Fe110 O124 1.996 . S
Fe111 O112 1.918 . S
Fe111 O119 1.997 . S
Fe111 O122 1.996 . S
Fe111 O126 1.976 . S
Fe111 O129 2.002 . S
O112 Fe110 1.918 . S
O112 Fe111 1.918 . S
O112 Fe113 1.918 . S
Fe113 O112 1.918 . S
Fe113 O114 2.002 . S
Fe113 O123 1.976 . S
Fe113 O127 1.996 . S
Fe113 O130 1.997 . S
O114 Fe113 2.002 . S
O114 C131 1.295 . S
O115 Fe110 1.997 . S
O115 C131 1.235 . S
O116 Fe110 2.002 . S
O116 C117 1.295 . S
C117 O116 1.295 . S
C117 O119 1.235 . S
C118 O123 1.287 . S
C118 O124 1.255 . S
O119 Fe111 1.997 . S
O119 C117 1.235 . S
C120 O126 1.287 . S
C120 O127 1.255 . S
O121 Fe110 1.976 . S
O121 C128 1.287 . S
O122 Fe111 1.996 . S
O122 C128 1.255 . S
O123 Fe113 1.976 . S
O123 C118 1.287 . S
O124 Fe110 1.996 . S
O124 C118 1.255 . S
C125 O129 1.295 . S
C125 O130 1.235 . S
O126 Fe111 1.976 . S
O126 C120 1.287 . S
O127 Fe113 1.996 . S
O127 C120 1.255 . S
C128 O121 1.287 . S
C128 O122 1.255 . S
O129 Fe111 2.002 . S
O129 C125 1.295 . S
O130 Fe113 1.997 . S
O130 C125 1.235 . S
C131 O114 1.295 . S
C131 O115 1.235 . S
Fe132 O134 1.918 . S
Fe132 O137 1.997 . S
Fe132 O138 2.002 . S
Fe132 O143 1.976 . S
Fe132 O146 1.996 . S
Fe133 O134 1.918 . S
Fe133 O141 1.997 . S
Fe133 O144 1.996 . S
Fe133 O148 1.976 . S
Fe133 O151 2.002 . S
O134 Fe132 1.918 . S
O134 Fe133 1.918 . S
O134 Fe135 1.918 . S
Fe135 O134 1.918 . S
Fe135 O136 2.002 . S
Fe135 O145 1.976 . S
Fe135 O149 1.996 . S
Fe135 O152 1.997 . S
O136 Fe135 2.002 . S
O136 C153 1.295 . S
O137 Fe132 1.997 . S
O137 C153 1.235 . S
O138 Fe132 2.002 . S
O138 C139 1.295 . S
C139 O138 1.295 . S
C139 O141 1.235 . S
C140 O145 1.287 . S
C140 O146 1.255 . S
O141 Fe133 1.997 . S
O141 C139 1.235 . S
C142 O148 1.287 . S
C142 O149 1.255 . S
O143 Fe132 1.976 . S
O143 C150 1.287 . S
O144 Fe133 1.996 . S
O144 C150 1.255 . S
O145 Fe135 1.976 . S
O145 C140 1.287 . S
O146 Fe132 1.996 . S
O146 C140 1.255 . S
C147 O151 1.295 . S
C147 O152 1.235 . S
O148 Fe133 1.976 . S
O148 C142 1.287 . S
O149 Fe135 1.996 . S
O149 C142 1.255 . S
C150 O143 1.287 . S
C150 O144 1.255 . S
O151 Fe133 2.002 . S
O151 C147 1.295 . S
O152 Fe135 1.997 . S
O152 C147 1.235 . S
C153 O136 1.295 . S
C153 O137 1.235 . S
Fe154 O156 1.918 . S
Fe154 O159 1.997 . S
Fe154 O160 2.002 . S
Fe154 O165 1.976 . S
Fe154 O168 1.996 . S
Fe155 O156 1.918 . S
Fe155 O163 1.997 . S
Fe155 O166 1.996 . S
Fe155 O170 1.976 . S
Fe155 O173 2.002 . S
O156 Fe154 1.918 . S
O156 Fe155 1.918 . S
O156 Fe157 1.918 . S
Fe157 O156 1.918 . S
Fe157 O158 2.002 . S
Fe157 O167 1.976 . S
Fe157 O171 1.996 . S
Fe157 O174 1.997 . S
O158 Fe157 2.002 . S
O158 C175 1.295 . S
O159 Fe154 1.997 . S
O159 C175 1.235 . S
O160 Fe154 2.002 . S
O160 C161 1.295 . S
C161 O160 1.295 . S
C161 O163 1.235 . S
C162 O167 1.287 . S
C162 O168 1.255 . S
O163 Fe155 1.997 . S
O163 C161 1.235 . S
C164 O170 1.287 . S
C164 O171 1.255 . S
O165 Fe154 1.976 . S
O165 C172 1.287 . S
O166 Fe155 1.996 . S
O166 C172 1.255 . S
O167 Fe157 1.976 . S
O167 C162 1.287 . S
O168 Fe154 1.996 . S
O168 C162 1.255 . S
C169 O173 1.295 . S
C169 O174 1.235 . S
O170 Fe155 1.976 . S
O170 C164 1.287 . S
O171 Fe157 1.996 . S
O171 C164 1.255 . S
C172 O165 1.287 . S
C172 O166 1.255 . S
O173 Fe155 2.002 . S
O173 C169 1.295 . S
O174 Fe157 1.997 . S
O174 C169 1.235 . S
C175 O158 1.295 . S
C175 O159 1.235 . S
C176 C177 1.391 . S
C176 C178 1.394 1_545 S
C176 H192 0.931 . S
C177 C176 1.391 . S
C177 C181 1.376 . S
C178 C176 1.394 1_565 S
C178 C179 1.369 . S
C178 C182 1.531 . S
C179 C178 1.369 . S
C179 C180 1.410 . S
C179 C187 1.503 . S
C180 C179 1.410 . S
C180 C181 1.392 1_565 S
C180 C183 1.511 . S
C181 C177 1.376 . S
C181 C180 1.392 1_545 S
C181 H193 0.929 . S
C182 C178 1.531 . S
C182 H194 0.960 . S
C182 H195 0.962 . S
C182 H196 0.960 . S
C183 C180 1.511 . S
C183 H197 0.958 1_565 S
C183 H198 0.961 . S
C183 H199 0.961 . S
C184 C185 1.370 . S
C184 C186 1.363 . S
C184 H200 0.931 . S
C185 C184 1.370 . S
C185 C189 1.408 . S
C186 C184 1.363 . S
C186 C187 1.370 . S
C186 C190 1.524 . S
C187 C179 1.503 . S
C187 C186 1.370 . S
C187 C188 1.403 . S
C188 C187 1.403 . S
C188 C189 1.404 . S
C188 C191 1.539 . S
C189 C185 1.408 . S
C189 C188 1.404 . S
C189 H201 0.930 . S
C190 C186 1.524 . S
C190 H202 0.956 . S
C190 H203 0.961 . S
C190 H204 0.961 . S
C191 C188 1.539 . S
C191 H205 0.958 . S
C191 H206 0.961 . S
C191 H207 0.960 . S
H192 C176 0.931 . S
H193 C181 0.929 . S
H194 C182 0.960 . S
H195 C182 0.962 . S
H196 C182 0.960 . S
H197 C183 0.958 1_545 S
H198 C183 0.961 . S
H199 C183 0.961 . S
H200 C184 0.931 . S
H201 C189 0.930 . S
H202 C190 0.956 . S
H203 C190 0.961 . S
H204 C190 0.961 . S
H205 C191 0.958 . S
H206 C191 0.961 . S
H207 C191 0.960 . S
C208 C209 1.391 . S
C208 C210 1.394 1_455 S
C208 H224 0.931 . S
C209 C208 1.391 . S
C209 C213 1.376 . S
C210 C208 1.394 1_655 S
C210 C211 1.369 . S
C210 C214 1.531 . S
C211 C210 1.369 . S
C211 C212 1.410 1_655 S
C211 C219 1.503 . S
C212 C211 1.410 1_455 S
C212 C213 1.392 . S
C212 C215 1.511 . S
C213 C209 1.376 . S
C213 C212 1.392 . S
C213 H225 0.929 . S
C214 C210 1.531 . S
C214 H226 0.960 . S
C214 H227 0.962 . S
C214 H228 0.960 . S
C215 C212 1.511 . S
C215 H229 0.961 . S
C215 H230 0.961 1_455 S
C215 H231 0.961 . S
C216 C217 1.370 . S
C216 C218 1.363 . S
C216 H232 0.931 . S
C217 C216 1.370 . S
C217 C221 1.408 . S
C218 C216 1.363 . S
C218 C219 1.370 . S
C218 C222 1.524 . S
C219 C211 1.503 . S
C219 C218 1.370 . S
C219 C220 1.403 . S
C220 C219 1.403 . S
C220 C221 1.404 . S
C220 C223 1.539 . S
C221 C217 1.408 . S
C221 C220 1.404 . S
C221 H233 0.930 . S
C222 C218 1.524 . S
C222 H234 0.956 . S
C222 H235 0.961 . S
C222 H236 0.961 . S
C223 C220 1.539 . S
C223 H237 0.958 . S
C223 H238 0.961 . S
C223 H239 0.960 . S
H224 C208 0.931 . S
H225 C213 0.929 . S
H226 C214 0.960 . S
H227 C214 0.962 . S
H228 C214 0.960 . S
H229 C215 0.961 . S
H230 C215 0.961 1_655 S
H231 C215 0.961 . S
H232 C216 0.931 . S
H233 C221 0.930 . S
H234 C222 0.956 . S
H235 C222 0.961 . S
H236 C222 0.961 . S
H237 C223 0.958 . S
H238 C223 0.961 . S
H239 C223 0.960 . S
C240 C241 1.391 1_545 S
C240 C242 1.394 . S
C240 H256 0.931 . S
C241 C240 1.391 1_565 S
C241 C245 1.376 . S
C242 C240 1.394 . S
C242 C243 1.369 . S
C242 C246 1.531 . S
C243 C242 1.369 . S
C243 C244 1.410 . S
C243 C251 1.503 . S
C244 C243 1.410 . S
C244 C245 1.392 1_545 S
C244 C247 1.511 . S
C245 C241 1.376 . S
C245 C244 1.392 1_565 S
C245 H257 0.929 . S
C246 C242 1.531 . S
C246 H258 0.960 . S
C246 H259 0.962 . S
C246 H260 0.960 . S
C247 C244 1.511 . S
C247 H261 0.961 1_545 S
C247 H262 0.961 . S
C247 H263 0.961 . S
C248 C249 1.370 . S
C248 C250 1.363 . S
C248 H264 0.931 . S
C249 C248 1.370 . S
C249 C253 1.408 . S
C250 C248 1.363 . S
C250 C251 1.370 . S
C250 C254 1.524 . S
C251 C243 1.503 . S
C251 C250 1.370 . S
C251 C252 1.403 . S
C252 C251 1.403 . S
C252 C253 1.404 . S
C252 C255 1.539 . S
C253 C249 1.408 . S
C253 C252 1.404 . S
C253 H265 0.930 . S
C254 C250 1.524 . S
C254 H266 0.956 . S
C254 H267 0.961 . S
C254 H268 0.961 . S
C255 C252 1.539 . S
C255 H269 0.958 . S
C255 H270 0.961 . S
C255 H271 0.960 . S
H256 C240 0.931 . S
H257 C245 0.929 . S
H258 C246 0.960 . S
H259 C246 0.962 . S
H260 C246 0.960 . S
H261 C247 0.961 1_565 S
H262 C247 0.961 . S
H263 C247 0.961 . S
H264 C248 0.931 . S
H265 C253 0.930 . S
H266 C254 0.956 . S
H267 C254 0.961 . S
H268 C254 0.961 . S
H269 C255 0.958 . S
H270 C255 0.961 . S
H271 C255 0.960 . S
C272 C273 1.391 . S
C272 C274 1.394 . S
C272 H288 0.931 . S
C273 C272 1.391 . S
C273 C277 1.376 . S
C274 C272 1.394 . S
C274 C275 1.369 . S
C274 C278 1.531 . S
C275 C274 1.369 . S
C275 C276 1.410 . S
C275 C283 1.503 . S
C276 C275 1.410 . S
C276 C277 1.392 . S
C276 C279 1.511 . S
C277 C273 1.376 . S
C277 C276 1.392 . S
C277 H289 0.929 . S
C278 C274 1.531 . S
C278 H290 0.960 . S
C278 H291 0.962 . S
C278 H292 0.960 . S
C279 C276 1.511 . S
C279 H293 0.961 . S
C279 H294 0.961 . S
C279 H295 0.961 . S
C280 C281 1.370 . S
C280 C282 1.363 1_655 S
C280 H296 0.931 . S
C281 C280 1.370 . S
C281 C285 1.408 . S
C282 C280 1.363 1_455 S
C282 C283 1.370 . S
C282 C286 1.524 . S
C283 C275 1.503 . S
C283 C282 1.370 . S
C283 C284 1.403 . S
C284 C283 1.403 . S
C284 C285 1.404 1_455 S
C284 C287 1.539 . S
C285 C281 1.408 . S
C285 C284 1.404 1_655 S
C285 H297 0.930 . S
C286 C282 1.524 . S
C286 H298 0.956 . S
C286 H299 0.961 . S
C286 H300 0.961 . S
C287 C284 1.539 . S
C287 H301 0.958 . S
C287 H302 0.961 . S
C287 H303 0.960 . S
H288 C272 0.931 . S
H289 C277 0.929 . S
H290 C278 0.960 . S
H291 C278 0.962 . S
H292 C278 0.960 . S
H293 C279 0.961 . S
H294 C279 0.961 . S
H295 C279 0.961 . S
H296 C280 0.931 . S
H297 C285 0.930 . S
H298 C286 0.956 . S
H299 C286 0.961 . S
H300 C286 0.961 . S
H301 C287 0.958 . S
H302 C287 0.961 . S
H303 C287 0.960 . S
C304 C305 1.391 . S
C304 C306 1.394 . S
C304 H320 0.931 . S
C305 C304 1.391 . S
C305 C309 1.376 . S
C306 C304 1.394 . S
C306 C307 1.369 . S
C306 C310 1.531 . S
C307 C306 1.369 . S
C307 C308 1.410 . S
C307 C315 1.503 . S
C308 C307 1.410 . S
C308 C309 1.392 . S
C308 C311 1.511 1_554 S
C309 C305 1.376 . S
C309 C308 1.392 . S
C309 H321 0.929 . S
C310 C306 1.531 . S
C310 H322 0.960 . S
C310 H323 0.962 . S
C310 H324 0.960 . S
C311 C308 1.511 1_556 S
C311 H325 0.961 . S
C311 H326 0.961 . S
C311 H327 0.961 . S
C312 C313 1.370 . S
C312 C314 1.363 . S
C312 H328 0.931 . S
C313 C312 1.370 . S
C313 C317 1.408 1_556 S
C314 C312 1.363 . S
C314 C315 1.370 1_556 S
C314 C318 1.524 . S
C315 C307 1.503 . S
C315 C314 1.370 1_554 S
C315 C316 1.403 . S
C316 C315 1.403 . S
C316 C317 1.404 . S
C316 C319 1.539 . S
C317 C313 1.408 1_554 S
C317 C316 1.404 . S
C317 H329 0.930 . S
C318 C314 1.524 . S
C318 H330 0.956 . S
C318 H331 0.961 . S
C318 H332 0.961 . S
C319 C316 1.539 . S
C319 H333 0.958 . S
C319 H334 0.961 . S
C319 H335 0.960 . S
H320 C304 0.931 . S
H321 C309 0.929 . S
H322 C310 0.960 . S
H323 C310 0.962 . S
H324 C310 0.960 . S
H325 C311 0.961 . S
H326 C311 0.961 . S
H327 C311 0.961 . S
H328 C312 0.931 . S
H329 C317 0.930 . S
H330 C318 0.956 . S
H331 C318 0.961 . S
H332 C318 0.961 . S
H333 C319 0.958 . S
H334 C319 0.961 . S
H335 C319 0.960 . S
C336 C337 1.391 . S
C336 C338 1.394 . S
C336 H352 0.931 . S
C337 C336 1.391 . S
C337 C341 1.376 . S
C338 C336 1.394 . S
C338 C339 1.369 . S
C338 C342 1.531 1_556 S
C339 C338 1.369 . S
C339 C340 1.410 . S
C339 C347 1.503 . S
C340 C339 1.410 . S
C340 C341 1.392 . S
C340 C343 1.511 . S
C341 C337 1.376 . S
C341 C340 1.392 . S
C341 H353 0.929 . S
C342 C338 1.531 1_554 S
C342 H354 0.960 . S
C342 H355 0.962 . S
C342 H356 0.960 . S
C343 C340 1.511 . S
C343 H357 0.961 . S
C343 H358 0.961 . S
C343 H359 0.961 . S
C344 C345 1.370 . S
C344 C346 1.363 . S
C344 H360 0.931 . S
C345 C344 1.370 . S
C345 C349 1.408 . S
C346 C344 1.363 . S
C346 C347 1.370 1_554 S
C346 C350 1.524 . S
C347 C339 1.503 . S
C347 C346 1.370 1_556 S
C347 C348 1.403 . S
C348 C347 1.403 . S
C348 C349 1.404 1_556 S
C348 C351 1.539 . S
C349 C345 1.408 . S
C349 C348 1.404 1_554 S
C349 H361 0.930 . S
C350 C346 1.524 . S
C350 H362 0.956 . S
C350 H363 0.961 1_554 S
C350 H364 0.961 . S
C351 C348 1.539 . S
C351 H365 0.958 . S
C351 H366 0.961 . S
C351 H367 0.960 . S
H352 C336 0.931 . S
H353 C341 0.929 . S
H354 C342 0.960 . S
H355 C342 0.962 . S
H356 C342 0.960 . S
H357 C343 0.961 . S
H358 C343 0.961 . S
H359 C343 0.961 . S
H360 C344 0.931 . S
H361 C349 0.930 . S
H362 C350 0.956 . S
H363 C350 0.961 1_556 S
H364 C350 0.961 . S
H365 C351 0.958 . S
H366 C351 0.961 . S
H367 C351 0.960 . S
C368 C369 1.391 . S
C368 C370 1.394 . S
C368 H384 0.931 . S
C369 C368 1.391 . S
C369 C373 1.376 . S
C370 C368 1.394 . S
C370 C371 1.369 . S
C370 C374 1.531 . S
C371 C370 1.369 . S
C371 C372 1.410 . S
C371 C379 1.503 . S
C372 C371 1.410 . S
C372 C373 1.392 . S
C372 C375 1.511 1_554 S
C373 C369 1.376 . S
C373 C372 1.392 . S
C373 H385 0.929 . S
C374 C370 1.531 . S
C374 H386 0.960 . S
C374 H387 0.962 . S
C374 H388 0.960 . S
C375 C372 1.511 1_556 S
C375 H389 0.961 . S
C375 H390 0.961 . S
C375 H391 0.961 . S
C376 C377 1.370 . S
C376 C378 1.363 . S
C376 H392 0.931 . S
C377 C376 1.370 . S
C377 C381 1.408 . S
C378 C376 1.363 . S
C378 C379 1.370 1_556 S
C378 C382 1.524 . S
C379 C371 1.503 . S
C379 C378 1.370 1_554 S
C379 C380 1.403 . S
C380 C379 1.403 . S
C380 C381 1.404 1_554 S
C380 C383 1.539 . S
C381 C377 1.408 . S
C381 C380 1.404 1_556 S
C381 H393 0.930 . S
C382 C378 1.524 . S
C382 H394 0.956 1_556 S
C382 H395 0.961 . S
C382 H396 0.961 . S
C383 C380 1.539 . S
C383 H397 0.958 . S
C383 H398 0.961 . S
C383 H399 0.960 . S
H384 C368 0.931 . S
H385 C373 0.929 . S
H386 C374 0.960 . S
H387 C374 0.962 . S
H388 C374 0.960 . S
H389 C375 0.961 . S
H390 C375 0.961 . S
H391 C375 0.961 . S
H392 C376 0.931 . S
H393 C381 0.930 . S
H394 C382 0.956 1_554 S
H395 C382 0.961 . S
H396 C382 0.961 . S
H397 C383 0.958 . S
H398 C383 0.961 . S
H399 C383 0.960 . S
C400 C401 1.391 . S
C400 C402 1.394 . S
C400 H416 0.931 . S
C401 C400 1.391 . S
C401 C405 1.376 1_554 S
C402 C400 1.394 . S
C402 C403 1.369 1_554 S
C402 C406 1.531 . S
C403 C402 1.369 1_556 S
C403 C404 1.410 . S
C403 C411 1.503 . S
C404 C403 1.410 . S
C404 C405 1.392 . S
C404 C407 1.511 . S
C405 C401 1.376 1_556 S
C405 C404 1.392 . S
C405 H417 0.929 . S
C406 C402 1.531 . S
C406 H418 0.960 . S
C406 H419 0.962 . S
C406 H420 0.960 . S
C407 C404 1.511 . S
C407 H421 0.961 . S
C407 H422 0.961 . S
C407 H423 0.961 . S
C408 C409 1.370 . S
C408 C410 1.363 . S
C408 H424 0.931 . S
C409 C408 1.370 . S
C409 C413 1.408 . S
C410 C408 1.363 . S
C410 C411 1.370 . S
C410 C414 1.524 . S
C411 C403 1.503 . S
C411 C410 1.370 . S
C411 C412 1.403 . S
C412 C411 1.403 . S
C412 C413 1.404 . S
C412 C415 1.539 1_556 S
C413 C409 1.408 . S
C413 C412 1.404 . S
C413 H425 0.930 . S
C414 C410 1.524 . S
C414 H426 0.956 . S
C414 H427 0.961 . S
C414 H428 0.961 . S
C415 C412 1.539 1_554 S
C415 H429 0.958 . S
C415 H430 0.961 . S
C415 H431 0.960 . S
H416 C400 0.931 . S
H417 C405 0.929 . S
H418 C406 0.960 . S
H419 C406 0.962 . S
H420 C406 0.960 . S
H421 C407 0.961 . S
H422 C407 0.961 . S
H423 C407 0.961 . S
H424 C408 0.931 . S
H425 C413 0.930 . S
H426 C414 0.956 . S
H427 C414 0.961 . S
H428 C414 0.961 . S
H429 C415 0.958 . S
H430 C415 0.961 . S
H431 C415 0.960 . S
C432 C433 1.391 . S
C432 C434 1.394 . S
C432 H448 0.931 . S
C433 C432 1.391 . S
C433 C437 1.376 . S
C434 C432 1.394 . S
C434 C435 1.369 . S
C434 C438 1.531 . S
C435 C434 1.369 . S
C435 C436 1.410 . S
C435 C443 1.503 . S
C436 C435 1.410 . S
C436 C437 1.392 . S
C436 C439 1.511 . S
C437 C433 1.376 . S
C437 C436 1.392 . S
C437 H449 0.929 . S
C438 C434 1.531 . S
C438 H450 0.960 . S
C438 H451 0.962 . S
C438 H452 0.960 . S
C439 C436 1.511 . S
C439 H453 0.961 . S
C439 H454 0.961 . S
C439 H455 0.961 . S
C440 C441 1.370 . S
C440 C442 1.363 . S
C440 H456 0.931 . S
C441 C440 1.370 . S
C441 C445 1.408 . S
C442 C440 1.363 . S
C442 C443 1.370 . S
C442 C446 1.524 . S
C443 C435 1.503 . S
C443 C442 1.370 . S
C443 C444 1.403 . S
C444 C443 1.403 . S
C444 C445 1.404 . S
C444 C447 1.539 . S
C445 C441 1.408 . S
C445 C444 1.404 . S
C445 H457 0.930 . S
C446 C442 1.524 . S
C446 H458 0.956 . S
C446 H459 0.961 . S
C446 H460 0.961 . S
C447 C444 1.539 . S
C447 H461 0.958 . S
C447 H462 0.961 . S
C447 H463 0.960 . S
H448 C432 0.931 . S
H449 C437 0.929 . S
H450 C438 0.960 . S
H451 C438 0.962 . S
H452 C438 0.960 . S
H453 C439 0.961 . S
H454 C439 0.961 . S
H455 C439 0.961 . S
H456 C440 0.931 . S
H457 C445 0.930 . S
H458 C446 0.956 . S
H459 C446 0.961 . S
H460 C446 0.961 . S
H461 C447 0.958 . S
H462 C447 0.961 . S
H463 C447 0.960 . S
C464 C465 1.391 . S
C464 C466 1.394 . S
C464 H480 0.931 . S
C465 C464 1.391 . S
C465 C469 1.376 . S
C466 C464 1.394 . S
C466 C467 1.369 . S
C466 C470 1.531 . S
C467 C466 1.369 . S
C467 C468 1.410 . S
C467 C475 1.503 . S
C468 C467 1.410 . S
C468 C469 1.392 . S
C468 C471 1.511 . S
C469 C465 1.376 . S
C469 C468 1.392 . S
C469 H481 0.929 . S
C470 C466 1.531 . S
C470 H482 0.960 . S
C470 H483 0.962 . S
C470 H484 0.960 . S
C471 C468 1.511 . S
C471 H485 0.961 . S
C471 H486 0.961 . S
C471 H487 0.961 . S
C472 C473 1.370 . S
C472 C474 1.363 . S
C472 H488 0.931 . S
C473 C472 1.370 . S
C473 C477 1.408 . S
C474 C472 1.363 . S
C474 C475 1.370 . S
C474 C478 1.524 . S
C475 C467 1.503 . S
C475 C474 1.370 . S
C475 C476 1.403 . S
C476 C475 1.403 . S
C476 C477 1.404 . S
C476 C479 1.539 . S
C477 C473 1.408 . S
C477 C476 1.404 . S
C477 H489 0.930 . S
C478 C474 1.524 . S
C478 H490 0.956 . S
C478 H491 0.961 . S
C478 H492 0.961 . S
C479 C476 1.539 . S
C479 H493 0.958 . S
C479 H494 0.961 . S
C479 H495 0.960 . S
H480 C464 0.931 . S
H481 C469 0.929 . S
H482 C470 0.960 . S
H483 C470 0.962 . S
H484 C470 0.960 . S
H485 C471 0.961 . S
H486 C471 0.961 . S
H487 C471 0.961 . S
H488 C472 0.931 . S
H489 C477 0.930 . S
H490 C478 0.956 . S
H491 C478 0.961 . S
H492 C478 0.961 . S
H493 C479 0.958 . S
H494 C479 0.961 . S
H495 C479 0.960 . S
C496 C497 1.391 . S
C496 C498 1.394 . S
C496 H512 0.931 . S
C497 C496 1.391 . S
C497 C501 1.376 . S
C498 C496 1.394 . S
C498 C499 1.369 . S
C498 C502 1.531 . S
C499 C498 1.369 . S
C499 C500 1.410 . S
C499 C507 1.503 . S
C500 C499 1.410 . S
C500 C501 1.392 . S
C500 C503 1.511 . S
C501 C497 1.376 . S
C501 C500 1.392 . S
C501 H513 0.929 . S
C502 C498 1.531 . S
C502 H514 0.960 . S
C502 H515 0.962 . S
C502 H516 0.960 . S
C503 C500 1.511 . S
C503 H517 0.961 . S
C503 H518 0.961 . S
C503 H519 0.961 . S
C504 C505 1.370 . S
C504 C506 1.363 . S
C504 H520 0.931 . S
C505 C504 1.370 . S
C505 C509 1.408 . S
C506 C504 1.363 . S
C506 C507 1.370 . S
C506 C510 1.524 . S
C507 C499 1.503 . S
C507 C506 1.370 . S
C507 C508 1.403 . S
C508 C507 1.403 . S
C508 C509 1.404 . S
C508 C511 1.539 . S
C509 C505 1.408 . S
C509 C508 1.404 . S
C509 H521 0.930 . S
C510 C506 1.524 . S
C510 H522 0.956 . S
C510 H523 0.961 . S
C510 H524 0.961 . S
C511 C508 1.539 . S
C511 H525 0.958 . S
C511 H526 0.961 . S
C511 H527 0.960 . S
H512 C496 0.931 . S
H513 C501 0.929 . S
H514 C502 0.960 . S
H515 C502 0.962 . S
H516 C502 0.960 . S
H517 C503 0.961 . S
H518 C503 0.961 . S
H519 C503 0.961 . S
H520 C504 0.931 . S
H521 C509 0.930 . S
H522 C510 0.956 . S
H523 C510 0.961 . S
H524 C510 0.961 . S
H525 C511 0.958 . S
H526 C511 0.961 . S
H527 C511 0.960 . S
C528 C529 1.391 . S
C528 C530 1.394 . S
C528 H544 0.931 . S
C529 C528 1.391 . S
C529 C533 1.376 . S
C530 C528 1.394 . S
C530 C531 1.369 . S
C530 C534 1.531 . S
C531 C530 1.369 . S
C531 C532 1.410 . S
C531 C539 1.503 . S
C532 C531 1.410 . S
C532 C533 1.392 . S
C532 C535 1.511 . S
C533 C529 1.376 . S
C533 C532 1.392 . S
C533 H545 0.929 . S
C534 C530 1.531 . S
C534 H546 0.960 . S
C534 H547 0.962 . S
C534 H548 0.960 . S
C535 C532 1.511 . S
C535 H549 0.961 . S
C535 H550 0.961 . S
C535 H551 0.961 . S
C536 C537 1.370 . S
C536 C538 1.363 . S
C536 H552 0.931 . S
C537 C536 1.370 . S
C537 C541 1.408 . S
C538 C536 1.363 . S
C538 C539 1.370 . S
C538 C542 1.524 . S
C539 C531 1.503 . S
C539 C538 1.370 . S
C539 C540 1.403 . S
C540 C539 1.403 . S
C540 C541 1.404 . S
C540 C543 1.539 . S
C541 C537 1.408 . S
C541 C540 1.404 . S
C541 H553 0.930 . S
C542 C538 1.524 . S
C542 H554 0.956 . S
C542 H555 0.961 . S
C542 H556 0.961 . S
C543 C540 1.539 . S
C543 H557 0.958 . S
C543 H558 0.961 . S
C543 H559 0.960 . S
H544 C528 0.931 . S
H545 C533 0.929 . S
H546 C534 0.960 . S
H547 C534 0.962 . S
H548 C534 0.960 . S
H549 C535 0.961 . S
H550 C535 0.961 . S
H551 C535 0.961 . S
H552 C536 0.931 . S
H553 C541 0.930 . S
H554 C542 0.956 . S
H555 C542 0.961 . S
H556 C542 0.961 . S
H557 C543 0.958 . S
H558 C543 0.961 . S
H559 C543 0.960 . S
C560 C561 1.391 . S
C560 C562 1.394 . S
C560 H576 0.931 . S
C561 C560 1.391 . S
C561 C565 1.376 . S
C562 C560 1.394 . S
C562 C563 1.369 . S
C562 C566 1.531 . S
C563 C562 1.369 . S
C563 C564 1.410 . S
C563 C571 1.503 . S
C564 C563 1.410 . S
C564 C565 1.392 . S
C564 C567 1.511 . S
C565 C561 1.376 . S
C565 C564 1.392 . S
C565 H577 0.929 . S
C566 C562 1.531 . S
C566 H578 0.960 . S
C566 H579 0.962 . S
C566 H580 0.960 . S
C567 C564 1.511 . S
C567 H581 0.961 . S
C567 H582 0.961 . S
C567 H583 0.961 . S
C568 C569 1.370 . S
C568 C570 1.363 1_565 S
C568 H584 0.931 . S
C569 C568 1.370 . S
C569 C573 1.408 . S
C570 C568 1.363 1_545 S
C570 C571 1.370 . S
C570 C574 1.524 . S
C571 C563 1.503 . S
C571 C570 1.370 . S
C571 C572 1.403 . S
C572 C571 1.403 . S
C572 C573 1.404 1_545 S
C572 C575 1.539 . S
C573 C569 1.408 . S
C573 C572 1.404 1_565 S
C573 H585 0.930 . S
C574 C570 1.524 . S
C574 H586 0.956 . S
C574 H587 0.961 . S
C574 H588 0.961 . S
C575 C572 1.539 . S
C575 H589 0.958 . S
C575 H590 0.961 . S
C575 H591 0.960 . S
H576 C560 0.931 . S
H577 C565 0.929 . S
H578 C566 0.960 . S
H579 C566 0.962 . S
H580 C566 0.960 . S
H581 C567 0.961 . S
H582 C567 0.961 . S
H583 C567 0.961 . S
H584 C568 0.931 . S
H585 C573 0.930 . S
H586 C574 0.956 . S
H587 C574 0.961 . S
H588 C574 0.961 . S
H589 C575 0.958 . S
H590 C575 0.961 . S
H591 C575 0.960 . S
C592 C593 1.391 . S
C592 C594 1.394 . S
C592 H608 0.931 . S
C593 C592 1.391 . S
C593 C597 1.376 . S
C594 C592 1.394 . S
C594 C595 1.369 . S
C594 C598 1.531 . S
C595 C594 1.369 . S
C595 C596 1.410 . S
C595 C603 1.503 . S
C596 C595 1.410 . S
C596 C597 1.392 . S
C596 C599 1.511 . S
C597 C593 1.376 . S
C597 C596 1.392 . S
C597 H609 0.929 . S
C598 C594 1.531 . S
C598 H610 0.960 . S
C598 H611 0.962 . S
C598 H612 0.960 . S
C599 C596 1.511 . S
C599 H613 0.961 . S
C599 H614 0.961 . S
C599 H615 0.961 . S
C600 C601 1.370 . S
C600 C602 1.363 1_655 S
C600 H616 0.931 . S
C601 C600 1.370 . S
C601 C605 1.408 . S
C602 C600 1.363 1_455 S
C602 C603 1.370 . S
C602 C606 1.524 . S
C603 C595 1.503 . S
C603 C602 1.370 . S
C603 C604 1.403 . S
C604 C603 1.403 . S
C604 C605 1.404 1_455 S
C604 C607 1.539 . S
C605 C601 1.408 . S
C605 C604 1.404 1_655 S
C605 H617 0.930 . S
C606 C602 1.524 . S
C606 H618 0.956 . S
C606 H619 0.961 . S
C606 H620 0.961 . S
C607 C604 1.539 . S
C607 H621 0.958 . S
C607 H622 0.961 . S
C607 H623 0.960 . S
H608 C592 0.931 . S
H609 C597 0.929 . S
H610 C598 0.960 . S
H611 C598 0.962 . S
H612 C598 0.960 . S
H613 C599 0.961 . S
H614 C599 0.961 . S
H615 C599 0.961 . S
H616 C600 0.931 . S
H617 C605 0.930 . S
H618 C606 0.956 . S
H619 C606 0.961 . S
H620 C606 0.961 . S
H621 C607 0.958 . S
H622 C607 0.961 . S
H623 C607 0.960 . S
C624 C625 1.391 . S
C624 C626 1.394 . S
C624 H640 0.931 . S
C625 C624 1.391 . S
C625 C629 1.376 . S
C626 C624 1.394 . S
C626 C627 1.369 . S
C626 C630 1.531 . S
C627 C626 1.369 . S
C627 C628 1.410 . S
C627 C635 1.503 . S
C628 C627 1.410 . S
C628 C629 1.392 . S
C628 C631 1.511 . S
C629 C625 1.376 . S
C629 C628 1.392 . S
C629 H641 0.929 . S
C630 C626 1.531 . S
C630 H642 0.960 . S
C630 H643 0.962 . S
C630 H644 0.960 . S
C631 C628 1.511 . S
C631 H645 0.961 . S
C631 H646 0.961 . S
C631 H647 0.961 . S
C632 C633 1.370 . S
C632 C634 1.363 1_545 S
C632 H648 0.931 . S
C633 C632 1.370 . S
C633 C637 1.408 . S
C634 C632 1.363 1_565 S
C634 C635 1.370 . S
C634 C638 1.524 . S
C635 C627 1.503 . S
C635 C634 1.370 . S
C635 C636 1.403 . S
C636 C635 1.403 . S
C636 C637 1.404 1_565 S
C636 C639 1.539 . S
C637 C633 1.408 . S
C637 C636 1.404 1_545 S
C637 H649 0.930 . S
C638 C634 1.524 . S
C638 H650 0.956 . S
C638 H651 0.961 . S
C638 H652 0.961 . S
C639 C636 1.539 . S
C639 H653 0.958 . S
C639 H654 0.961 . S
C639 H655 0.960 . S
H640 C624 0.931 . S
H641 C629 0.929 . S
H642 C630 0.960 . S
H643 C630 0.962 . S
H644 C630 0.960 . S
H645 C631 0.961 . S
H646 C631 0.961 . S
H647 C631 0.961 . S
H648 C632 0.931 . S
H649 C637 0.930 . S
H650 C638 0.956 . S
H651 C638 0.961 . S
H652 C638 0.961 . S
H653 C639 0.958 . S
H654 C639 0.961 . S
H655 C639 0.960 . S
C656 C657 1.391 . S
C656 C658 1.394 1_455 S
C656 H672 0.931 . S
C657 C656 1.391 . S
C657 C661 1.376 . S
C658 C656 1.394 1_655 S
C658 C659 1.369 . S
C658 C662 1.531 . S
C659 C658 1.369 . S
C659 C660 1.410 . S
C659 C667 1.503 . S
C660 C659 1.410 . S
C660 C661 1.392 1_655 S
C660 C663 1.511 . S
C661 C657 1.376 . S
C661 C660 1.392 1_455 S
C661 H673 0.929 . S
C662 C658 1.531 . S
C662 H674 0.960 . S
C662 H675 0.962 . S
C662 H676 0.960 1_655 S
C663 C660 1.511 . S
C663 H677 0.961 . S
C663 H678 0.961 . S
C663 H679 0.961 . S
C664 C665 1.370 . S
C664 C666 1.363 . S
C664 H680 0.931 . S
C665 C664 1.370 . S
C665 C669 1.408 . S
C666 C664 1.363 . S
C666 C667 1.370 . S
C666 C670 1.524 . S
C667 C659 1.503 . S
C667 C666 1.370 . S
C667 C668 1.403 . S
C668 C667 1.403 . S
C668 C669 1.404 . S
C668 C671 1.539 . S
C669 C665 1.408 . S
C669 C668 1.404 . S
C669 H681 0.930 . S
C670 C666 1.524 . S
C670 H682 0.956 . S
C670 H683 0.961 . S
C670 H684 0.961 . S
C671 C668 1.539 . S
C671 H685 0.958 . S
C671 H686 0.961 . S
C671 H687 0.960 . S
H672 C656 0.931 . S
H673 C661 0.929 . S
H674 C662 0.960 . S
H675 C662 0.962 . S
H676 C662 0.960 1_455 S
H677 C663 0.961 . S
H678 C663 0.961 . S
H679 C663 0.961 . S
H680 C664 0.931 . S
H681 C669 0.930 . S
H682 C670 0.956 . S
H683 C670 0.961 . S
H684 C670 0.961 . S
H685 C671 0.958 . S
H686 C671 0.961 . S
H687 C671 0.960 . S
C688 C689 1.391 . S
C688 C690 1.394 . S
C688 H704 0.931 1_554 S
C689 C688 1.391 . S
C689 C693 1.376 . S
C690 C688 1.394 . S
C690 C691 1.369 . S
C690 C694 1.531 . S
C691 C690 1.369 . S
C691 C692 1.410 . S
C691 C699 1.503 . S
C692 C691 1.410 . S
C692 C693 1.392 . S
C692 C695 1.511 . S
C693 C689 1.376 . S
C693 C692 1.392 . S
C693 H705 0.929 . S
C694 C690 1.531 . S
C694 H706 0.960 . S
C694 H707 0.962 . S
C694 H708 0.960 . S
C695 C692 1.511 . S
C695 H709 0.961 . S
C695 H710 0.961 . S
C695 H711 0.961 . S
C696 C697 1.370 . S
C696 C698 1.363 . S
C696 H712 0.931 . S
C697 C696 1.370 . S
C697 C701 1.408 . S
C698 C696 1.363 . S
C698 C699 1.370 . S
C698 C702 1.524 . S
C699 C691 1.503 . S
C699 C698 1.370 . S
C699 C700 1.403 . S
C700 C699 1.403 . S
C700 C701 1.404 . S
C700 C703 1.539 . S
C701 C697 1.408 . S
C701 C700 1.404 . S
C701 H713 0.930 . S
C702 C698 1.524 . S
C702 H714 0.956 . S
C702 H715 0.961 . S
C702 H716 0.961 . S
C703 C700 1.539 . S
C703 H717 0.958 . S
C703 H718 0.961 . S
C703 H719 0.960 . S
H704 C688 0.931 1_556 S
H705 C693 0.929 . S
H706 C694 0.960 . S
H707 C694 0.962 . S
H708 C694 0.960 . S
H709 C695 0.961 . S
H710 C695 0.961 . S
H711 C695 0.961 . S
H712 C696 0.931 . S
H713 C701 0.930 . S
H714 C702 0.956 . S
H715 C702 0.961 . S
H716 C702 0.961 . S
H717 C703 0.958 . S
H718 C703 0.961 . S
H719 C703 0.960 . S
C720 C721 1.391 . S
C720 C722 1.394 . S
C720 H736 0.931 . S
C721 C720 1.391 . S
C721 C725 1.376 . S
C722 C720 1.394 . S
C722 C723 1.369 . S
C722 C726 1.531 . S
C723 C722 1.369 . S
C723 C724 1.410 . S
C723 C731 1.503 . S
C724 C723 1.410 . S
C724 C725 1.392 . S
C724 C727 1.511 . S
C725 C721 1.376 . S
C725 C724 1.392 . S
C725 H737 0.929 . S
C726 C722 1.531 . S
C726 H738 0.960 . S
C726 H739 0.962 . S
C726 H740 0.960 . S
C727 C724 1.511 . S
C727 H741 0.961 . S
C727 H742 0.961 . S
C727 H743 0.961 . S
C728 C729 1.370 . S
C728 C730 1.363 . S
C728 H744 0.931 . S
C729 C728 1.370 . S
C729 C733 1.408 . S
C730 C728 1.363 . S
C730 C731 1.370 . S
C730 C734 1.524 . S
C731 C723 1.503 . S
C731 C730 1.370 . S
C731 C732 1.403 . S
C732 C731 1.403 . S
C732 C733 1.404 . S
C732 C735 1.539 . S
C733 C729 1.408 . S
C733 C732 1.404 . S
C733 H745 0.930 . S
C734 C730 1.524 . S
C734 H746 0.956 . S
C734 H747 0.961 . S
C734 H748 0.961 . S
C735 C732 1.539 . S
C735 H749 0.958 . S
C735 H750 0.961 . S
C735 H751 0.960 . S
H736 C720 0.931 . S
H737 C725 0.929 . S
H738 C726 0.960 . S
H739 C726 0.962 . S
H740 C726 0.960 . S
H741 C727 0.961 . S
H742 C727 0.961 . S
H743 C727 0.961 . S
H744 C728 0.931 . S
H745 C733 0.930 . S
H746 C734 0.956 . S
H747 C734 0.961 . S
H748 C734 0.961 . S
H749 C735 0.958 . S
H750 C735 0.961 . S
H751 C735 0.960 . S
C752 C753 1.391 . S
C752 C754 1.394 . S
C752 H768 0.931 . S
C753 C752 1.391 . S
C753 C757 1.376 . S
C754 C752 1.394 . S
C754 C755 1.369 . S
C754 C758 1.531 . S
C755 C754 1.369 . S
C755 C756 1.410 . S
C755 C763 1.503 . S
C756 C755 1.410 . S
C756 C757 1.392 . S
C756 C759 1.511 . S
C757 C753 1.376 . S
C757 C756 1.392 . S
C757 H769 0.929 . S
C758 C754 1.531 . S
C758 H770 0.960 . S
C758 H771 0.962 . S
C758 H772 0.960 . S
C759 C756 1.511 . S
C759 H773 0.961 . S
C759 H774 0.961 . S
C759 H775 0.961 . S
C760 C761 1.370 . S
C760 C762 1.363 . S
C760 H776 0.931 . S
C761 C760 1.370 . S
C761 C765 1.408 . S
C762 C760 1.363 . S
C762 C763 1.370 . S
C762 C766 1.524 . S
C763 C755 1.503 . S
C763 C762 1.370 . S
C763 C764 1.403 . S
C764 C763 1.403 . S
C764 C765 1.404 . S
C764 C767 1.539 . S
C765 C761 1.408 . S
C765 C764 1.404 . S
C765 H777 0.930 1_554 S
C766 C762 1.524 . S
C766 H778 0.956 . S
C766 H779 0.961 . S
C766 H780 0.961 . S
C767 C764 1.539 . S
C767 H781 0.958 . S
C767 H782 0.961 . S
C767 H783 0.960 . S
H768 C752 0.931 . S
H769 C757 0.929 . S
H770 C758 0.960 . S
H771 C758 0.962 . S
H772 C758 0.960 . S
H773 C759 0.961 . S
H774 C759 0.961 . S
H775 C759 0.961 . S
H776 C760 0.931 . S
H777 C765 0.930 1_556 S
H778 C766 0.956 . S
H779 C766 0.961 . S
H780 C766 0.961 . S
H781 C767 0.958 . S
H782 C767 0.961 . S
H783 C767 0.960 . S
C784 C785 1.391 . S
C784 C786 1.394 . S
C784 H800 0.931 . S
C785 C784 1.391 . S
C785 C789 1.376 . S
C786 C784 1.394 . S
C786 C787 1.369 . S
C786 C790 1.531 . S
C787 C786 1.369 . S
C787 C788 1.410 . S
C787 C795 1.503 . S
C788 C787 1.410 . S
C788 C789 1.392 . S
C788 C791 1.511 . S
C789 C785 1.376 . S
C789 C788 1.392 . S
C789 H801 0.929 . S
C790 C786 1.531 . S
C790 H802 0.960 . S
C790 H803 0.962 . S
C790 H804 0.960 . S
C791 C788 1.511 . S
C791 H805 0.961 . S
C791 H806 0.961 . S
C791 H807 0.961 . S
C792 C793 1.370 . S
C792 C794 1.363 . S
C792 H808 0.931 . S
C793 C792 1.370 . S
C793 C797 1.408 . S
C794 C792 1.363 . S
C794 C795 1.370 . S
C794 C798 1.524 . S
C795 C787 1.503 . S
C795 C794 1.370 . S
C795 C796 1.403 . S
C796 C795 1.403 . S
C796 C797 1.404 . S
C796 C799 1.539 . S
C797 C793 1.408 . S
C797 C796 1.404 . S
C797 H809 0.930 1_556 S
C798 C794 1.524 . S
C798 H810 0.956 . S
C798 H811 0.961 . S
C798 H812 0.961 . S
C799 C796 1.539 . S
C799 H813 0.958 . S
C799 H814 0.961 . S
C799 H815 0.960 . S
H800 C784 0.931 . S
H801 C789 0.929 . S
H802 C790 0.960 . S
H803 C790 0.962 . S
H804 C790 0.960 . S
H805 C791 0.961 . S
H806 C791 0.961 . S
H807 C791 0.961 . S
H808 C792 0.931 . S
H809 C797 0.930 1_554 S
H810 C798 0.956 . S
H811 C798 0.961 . S
H812 C798 0.961 . S
H813 C799 0.958 . S
H814 C799 0.961 . S
H815 C799 0.960 . S
C816 C817 1.391 . S
C816 C818 1.394 . S
C816 H832 0.931 . S
C817 C816 1.391 . S
C817 C821 1.376 . S
C818 C816 1.394 . S
C818 C819 1.369 . S
C818 C822 1.531 . S
C819 C818 1.369 . S
C819 C820 1.410 . S
C819 C827 1.503 . S
C820 C819 1.410 . S
C820 C821 1.392 . S
C820 C823 1.511 . S
C821 C817 1.376 . S
C821 C820 1.392 . S
C821 H833 0.929 . S
C822 C818 1.531 . S
C822 H834 0.960 . S
C822 H835 0.962 . S
C822 H836 0.960 . S
C823 C820 1.511 . S
C823 H837 0.961 . S
C823 H838 0.961 . S
C823 H839 0.961 . S
C824 C825 1.370 . S
C824 C826 1.363 . S
C824 H840 0.931 . S
C825 C824 1.370 . S
C825 C829 1.408 . S
C826 C824 1.363 . S
C826 C827 1.370 . S
C826 C830 1.524 . S
C827 C819 1.503 . S
C827 C826 1.370 . S
C827 C828 1.403 . S
C828 C827 1.403 . S
C828 C829 1.404 . S
C828 C831 1.539 . S
C829 C825 1.408 . S
C829 C828 1.404 . S
C829 H841 0.930 . S
C830 C826 1.524 . S
C830 H842 0.956 . S
C830 H843 0.961 . S
C830 H844 0.961 . S
C831 C828 1.539 . S
C831 H845 0.958 . S
C831 H846 0.961 . S
C831 H847 0.960 . S
H832 C816 0.931 . S
H833 C821 0.929 . S
H834 C822 0.960 . S
H835 C822 0.962 . S
H836 C822 0.960 . S
H837 C823 0.961 . S
H838 C823 0.961 . S
H839 C823 0.961 . S
H840 C824 0.931 . S
H841 C829 0.930 . S
H842 C830 0.956 . S
H843 C830 0.961 . S
H844 C830 0.961 . S
H845 C831 0.958 . S
H846 C831 0.961 . S
H847 C831 0.960 . S
C848 C849 1.391 . S
C848 C850 1.394 . S
C848 H864 0.931 . S
C849 C848 1.391 . S
C849 C853 1.376 . S
C850 C848 1.394 . S
C850 C851 1.369 . S
C850 C854 1.531 . S
C851 C850 1.369 . S
C851 C852 1.410 . S
C851 C859 1.503 . S
C852 C851 1.410 . S
C852 C853 1.392 . S
C852 C855 1.511 . S
C853 C849 1.376 . S
C853 C852 1.392 . S
C853 H865 0.929 . S
C854 C850 1.531 . S
C854 H866 0.960 . S
C854 H867 0.962 . S
C854 H868 0.960 . S
C855 C852 1.511 . S
C855 H869 0.961 . S
C855 H870 0.961 . S
C855 H871 0.961 . S
C856 C857 1.370 . S
C856 C858 1.363 . S
C856 H872 0.931 . S
C857 C856 1.370 . S
C857 C861 1.408 . S
C858 C856 1.363 . S
C858 C859 1.370 . S
C858 C862 1.524 . S
C859 C851 1.503 . S
C859 C858 1.370 . S
C859 C860 1.403 . S
C860 C859 1.403 . S
C860 C861 1.404 . S
C860 C863 1.539 . S
C861 C857 1.408 . S
C861 C860 1.404 . S
C861 H873 0.930 . S
C862 C858 1.524 . S
C862 H874 0.956 . S
C862 H875 0.961 . S
C862 H876 0.961 . S
C863 C860 1.539 . S
C863 H877 0.958 . S
C863 H878 0.961 . S
C863 H879 0.960 . S
H864 C848 0.931 . S
H865 C853 0.929 . S
H866 C854 0.960 . S
H867 C854 0.962 . S
H868 C854 0.960 . S
H869 C855 0.961 . S
H870 C855 0.961 . S
H871 C855 0.961 . S
H872 C856 0.931 . S
H873 C861 0.930 . S
H874 C862 0.956 . S
H875 C862 0.961 . S
H876 C862 0.961 . S
H877 C863 0.958 . S
H878 C863 0.961 . S
H879 C863 0.960 . S
C880 C881 1.391 . S
C880 C882 1.394 . S
C880 H896 0.931 . S
C881 C880 1.391 . S
C881 C885 1.376 . S
C882 C880 1.394 . S
C882 C883 1.369 . S
C882 C886 1.531 . S
C883 C882 1.369 . S
C883 C884 1.410 . S
C883 C891 1.503 . S
C884 C883 1.410 . S
C884 C885 1.392 . S
C884 C887 1.511 . S
C885 C881 1.376 . S
C885 C884 1.392 . S
C885 H897 0.929 . S
C886 C882 1.531 . S
C886 H898 0.960 . S
C886 H899 0.962 . S
C886 H900 0.960 . S
C887 C884 1.511 . S
C887 H901 0.961 . S
C887 H902 0.961 . S
C887 H903 0.961 . S
C888 C889 1.370 . S
C888 C890 1.363 . S
C888 H904 0.931 . S
C889 C888 1.370 . S
C889 C893 1.408 . S
C890 C888 1.363 . S
C890 C891 1.370 . S
C890 C894 1.524 . S
C891 C883 1.503 . S
C891 C890 1.370 . S
C891 C892 1.403 . S
C892 C891 1.403 . S
C892 C893 1.404 . S
C892 C895 1.539 . S
C893 C889 1.408 . S
C893 C892 1.404 . S
C893 H905 0.930 . S
C894 C890 1.524 . S
C894 H906 0.956 . S
C894 H907 0.961 . S
C894 H908 0.961 . S
C895 C892 1.539 . S
C895 H909 0.958 . S
C895 H910 0.961 . S
C895 H911 0.960 . S
H896 C880 0.931 . S
H897 C885 0.929 . S
H898 C886 0.960 . S
H899 C886 0.962 . S
H900 C886 0.960 . S
H901 C887 0.961 . S
H902 C887 0.961 . S
H903 C887 0.961 . S
H904 C888 0.931 . S
H905 C893 0.930 . S
H906 C894 0.956 . S
H907 C894 0.961 . S
H908 C894 0.961 . S
H909 C895 0.958 . S
H910 C895 0.961 . S
H911 C895 0.960 . S
C912 C913 1.391 . S
C912 C914 1.394 . S
C912 H928 0.931 . S
C913 C912 1.391 . S
C913 C917 1.376 . S
C914 C912 1.394 . S
C914 C915 1.369 . S
C914 C918 1.531 . S
C915 C914 1.369 . S
C915 C916 1.410 . S
C915 C923 1.503 . S
C916 C915 1.410 . S
C916 C917 1.392 . S
C916 C919 1.511 . S
C917 C913 1.376 . S
C917 C916 1.392 . S
C917 H929 0.929 . S
C918 C914 1.531 . S
C918 H930 0.960 . S
C918 H931 0.962 . S
C918 H932 0.960 . S
C919 C916 1.511 . S
C919 H933 0.961 . S
C919 H934 0.961 . S
C919 H935 0.961 . S
C920 C921 1.370 . S
C920 C922 1.363 . S
C920 H936 0.931 . S
C921 C920 1.370 . S
C921 C925 1.408 . S
C922 C920 1.363 . S
C922 C923 1.370 . S
C922 C926 1.524 . S
C923 C915 1.503 . S
C923 C922 1.370 . S
C923 C924 1.403 . S
C924 C923 1.403 . S
C924 C925 1.404 . S
C924 C927 1.539 . S
C925 C921 1.408 . S
C925 C924 1.404 . S
C925 H937 0.930 . S
C926 C922 1.524 . S
C926 H938 0.956 . S
C926 H939 0.961 . S
C926 H940 0.961 . S
C927 C924 1.539 . S
C927 H941 0.958 . S
C927 H942 0.961 . S
C927 H943 0.960 . S
H928 C912 0.931 . S
H929 C917 0.929 . S
H930 C918 0.960 . S
H931 C918 0.962 . S
H932 C918 0.960 . S
H933 C919 0.961 . S
H934 C919 0.961 . S
H935 C919 0.961 . S
H936 C920 0.931 . S
H937 C925 0.930 . S
H938 C926 0.956 . S
H939 C926 0.961 . S
H940 C926 0.961 . S
H941 C927 0.958 . S
H942 C927 0.961 . S
H943 C927 0.960 . S
C177 C10 1.170 . S
C185 C128 1.186 . S
C209 C37 1.261 . S
C217 C150 1.250 . S
C241 C59 1.245 . S
C249 C175 1.285 . S
C273 C103 1.189 . S
C281 C84 1.198 . S
C305 C131 1.216 . S
C313 C96 1.200 . S
C337 C147 1.283 . S
C345 C125 1.249 . S
C369 C172 1.275 . S
C377 C153 1.242 . S
C401 C164 1.187 . S
C409 C106 1.172 . S
C433 C140 1.188 . S
C441 C74 1.175 . S
C465 C169 1.252 . S
C473 C8 1.247 . S
C497 C43 1.282 . S
C505 C109 1.266 . S
C529 C51 1.209 . S
C537 C120 1.190 . S
C561 C81 1.215 . S
C569 C54 1.201 . S
C593 C7 1.263 . S
C601 C73 1.249 . S
C625 C40 1.276 . S
C633 C15 1.245 . S
C657 C32 1.159 . S
C665 C52 1.181 . S
C689 C98 1.113 1_554 S
C697 C18 1.144 . S
C721 C117 1.238 1_556 S
C729 C29 1.203 . S
C753 C65 1.236 . S
C761 C139 1.206 1_554 S
C785 C76 1.168 . S
C793 C162 1.137 1_556 S
C817 C62 1.114 . S
C825 C142 1.142 . S
C849 C87 1.225 . S
C857 C161 1.208 . S
C881 C95 1.185 . S
C889 C21 1.224 . S
C913 C118 1.147 . S
C921 C30 1.130 . S
