# Generated by pormake.
# Topology lcv-a, (4)-cn, num edge types: 1
# Building blocks:
#     Node 0, Type 0, BuildingBlock: KUFVIS_clean_sbu_0, # of connection points: 4
#     Node 1, Type 0, BuildingBlock: KUFVIS_clean_sbu_0, # of connection points: 4
#     Node 2, Type 0, BuildingBlock: KUFVIS_clean_sbu_0, # of connection points: 4
#     Node 3, Type 0, BuildingBlock: KUFVIS_clean_sbu_0, # of connection points: 4
#     Node 4, Type 0, BuildingBlock: KUFVIS_clean_sbu_0, # of connection points: 4
#     Node 5, Type 0, BuildingBlock: KUFVIS_clean_sbu_0, # of connection points: 4
#     Node 6, Type 0, BuildingBlock: KUFVIS_clean_sbu_0, # of connection points: 4
#     Node 7, Type 0, BuildingBlock: KUFVIS_clean_sbu_0, # of connection points: 4
#     Node 8, Type 0, BuildingBlock: KUFVIS_clean_sbu_0, # of connection points: 4
#     Node 9, Type 0, BuildingBlock: KUFVIS_clean_sbu_0, # of connection points: 4
#     Node 10, Type 0, BuildingBlock: KUFVIS_clean_sbu_0, # of connection points: 4
#     Node 11, Type 0, BuildingBlock: KUFVIS_clean_sbu_0, # of connection points: 4
#     Node 12, Type 0, BuildingBlock: KUFVIS_clean_sbu_0, # of connection points: 4
#     Node 13, Type 0, BuildingBlock: KUFVIS_clean_sbu_0, # of connection points: 4
#     Node 14, Type 0, BuildingBlock: KUFVIS_clean_sbu_0, # of connection points: 4
#     Node 15, Type 0, BuildingBlock: KUFVIS_clean_sbu_0, # of connection points: 4
#     Node 16, Type 0, BuildingBlock: KUFVIS_clean_sbu_0, # of connection points: 4
#     Node 17, Type 0, BuildingBlock: KUFVIS_clean_sbu_0, # of connection points: 4
#     Node 18, Type 0, BuildingBlock: KUFVIS_clean_sbu_0, # of connection points: 4
#     Node 19, Type 0, BuildingBlock: KUFVIS_clean_sbu_0, # of connection points: 4
#     Node 20, Type 0, BuildingBlock: KUFVIS_clean_sbu_0, # of connection points: 4
#     Node 21, Type 0, BuildingBlock: KUFVIS_clean_sbu_0, # of connection points: 4
#     Node 22, Type 0, BuildingBlock: KUFVIS_clean_sbu_0, # of connection points: 4
#     Node 23, Type 0, BuildingBlock: KUFVIS_clean_sbu_0, # of connection points: 4
#     Node 24, Type 0, BuildingBlock: KUFVIS_clean_sbu_0, # of connection points: 4
#     Node 25, Type 0, BuildingBlock: KUFVIS_clean_sbu_0, # of connection points: 4
#     Node 26, Type 0, BuildingBlock: KUFVIS_clean_sbu_0, # of connection points: 4
#     Node 27, Type 0, BuildingBlock: KUFVIS_clean_sbu_0, # of connection points: 4
#     Node 28, Type 0, BuildingBlock: KUFVIS_clean_sbu_0, # of connection points: 4
#     Node 29, Type 0, BuildingBlock: KUFVIS_clean_sbu_0, # of connection points: 4
#     Node 30, Type 0, BuildingBlock: KUFVIS_clean_sbu_0, # of connection points: 4
#     Node 31, Type 0, BuildingBlock: KUFVIS_clean_sbu_0, # of connection points: 4
#     Node 32, Type 0, BuildingBlock: KUFVIS_clean_sbu_0, # of connection points: 4
#     Node 33, Type 0, BuildingBlock: KUFVIS_clean_sbu_0, # of connection points: 4
#     Node 34, Type 0, BuildingBlock: KUFVIS_clean_sbu_0, # of connection points: 4
#     Node 35, Type 0, BuildingBlock: KUFVIS_clean_sbu_0, # of connection points: 4
#     Node 36, Type 0, BuildingBlock: KUFVIS_clean_sbu_0, # of connection points: 4
#     Node 37, Type 0, BuildingBlock: KUFVIS_clean_sbu_0, # of connection points: 4
#     Node 38, Type 0, BuildingBlock: KUFVIS_clean_sbu_0, # of connection points: 4
#     Node 39, Type 0, BuildingBlock: KUFVIS_clean_sbu_0, # of connection points: 4
#     Node 40, Type 0, BuildingBlock: KUFVIS_clean_sbu_0, # of connection points: 4
#     Node 41, Type 0, BuildingBlock: KUFVIS_clean_sbu_0, # of connection points: 4
#     Node 42, Type 0, BuildingBlock: KUFVIS_clean_sbu_0, # of connection points: 4
#     Node 43, Type 0, BuildingBlock: KUFVIS_clean_sbu_0, # of connection points: 4
#     Node 44, Type 0, BuildingBlock: KUFVIS_clean_sbu_0, # of connection points: 4
#     Node 45, Type 0, BuildingBlock: KUFVIS_clean_sbu_0, # of connection points: 4
#     Node 46, Type 0, BuildingBlock: KUFVIS_clean_sbu_0, # of connection points: 4
#     Node 47, Type 0, BuildingBlock: KUFVIS_clean_sbu_0, # of connection points: 4
#     Edge 48, Type (0, 0), BuildingBlock: KIFKEQ_clean_linker_1, # of connection points: 2
#     Edge 49, Type (0, 0), BuildingBlock: KIFKEQ_clean_linker_1, # of connection points: 2
#     Edge 50, Type (0, 0), BuildingBlock: KIFKEQ_clean_linker_1, # of connection points: 2
#     Edge 51, Type (0, 0), BuildingBlock: KIFKEQ_clean_linker_1, # of connection points: 2
#     Edge 52, Type (0, 0), BuildingBlock: KIFKEQ_clean_linker_1, # of connection points: 2
#     Edge 53, Type (0, 0), BuildingBlock: KIFKEQ_clean_linker_1, # of connection points: 2
#     Edge 54, Type (0, 0), BuildingBlock: KIFKEQ_clean_linker_1, # of connection points: 2
#     Edge 55, Type (0, 0), BuildingBlock: KIFKEQ_clean_linker_1, # of connection points: 2
#     Edge 56, Type (0, 0), BuildingBlock: KIFKEQ_clean_linker_1, # of connection points: 2
#     Edge 57, Type (0, 0), BuildingBlock: KIFKEQ_clean_linker_1, # of connection points: 2
#     Edge 58, Type (0, 0), BuildingBlock: KIFKEQ_clean_linker_1, # of connection points: 2
#     Edge 59, Type (0, 0), BuildingBlock: KIFKEQ_clean_linker_1, # of connection points: 2
#     Edge 60, Type (0, 0), BuildingBlock: KIFKEQ_clean_linker_1, # of connection points: 2
#     Edge 61, Type (0, 0), BuildingBlock: KIFKEQ_clean_linker_1, # of connection points: 2
#     Edge 62, Type (0, 0), BuildingBlock: KIFKEQ_clean_linker_1, # of connection points: 2
#     Edge 63, Type (0, 0), BuildingBlock: KIFKEQ_clean_linker_1, # of connection points: 2
#     Edge 64, Type (0, 0), BuildingBlock: KIFKEQ_clean_linker_1, # of connection points: 2
#     Edge 65, Type (0, 0), BuildingBlock: KIFKEQ_clean_linker_1, # of connection points: 2
#     Edge 66, Type (0, 0), BuildingBlock: KIFKEQ_clean_linker_1, # of connection points: 2
#     Edge 67, Type (0, 0), BuildingBlock: KIFKEQ_clean_linker_1, # of connection points: 2
#     Edge 68, Type (0, 0), BuildingBlock: KIFKEQ_clean_linker_1, # of connection points: 2
#     Edge 69, Type (0, 0), BuildingBlock: KIFKEQ_clean_linker_1, # of connection points: 2
#     Edge 70, Type (0, 0), BuildingBlock: KIFKEQ_clean_linker_1, # of connection points: 2
#     Edge 71, Type (0, 0), BuildingBlock: KIFKEQ_clean_linker_1, # of connection points: 2
#     Edge 72, Type (0, 0), BuildingBlock: KIFKEQ_clean_linker_1, # of connection points: 2
#     Edge 73, Type (0, 0), BuildingBlock: KIFKEQ_clean_linker_1, # of connection points: 2
#     Edge 74, Type (0, 0), BuildingBlock: KIFKEQ_clean_linker_1, # of connection points: 2
#     Edge 75, Type (0, 0), BuildingBlock: KIFKEQ_clean_linker_1, # of connection points: 2
#     Edge 76, Type (0, 0), BuildingBlock: KIFKEQ_clean_linker_1, # of connection points: 2
#     Edge 77, Type (0, 0), BuildingBlock: KIFKEQ_clean_linker_1, # of connection points: 2
#     Edge 78, Type (0, 0), BuildingBlock: KIFKEQ_clean_linker_1, # of connection points: 2
#     Edge 79, Type (0, 0), BuildingBlock: KIFKEQ_clean_linker_1, # of connection points: 2
#     Edge 80, Type (0, 0), BuildingBlock: KIFKEQ_clean_linker_1, # of connection points: 2
#     Edge 81, Type (0, 0), BuildingBlock: KIFKEQ_clean_linker_1, # of connection points: 2
#     Edge 82, Type (0, 0), BuildingBlock: KIFKEQ_clean_linker_1, # of connection points: 2
#     Edge 83, Type (0, 0), BuildingBlock: KIFKEQ_clean_linker_1, # of connection points: 2
#     Edge 84, Type (0, 0), BuildingBlock: KIFKEQ_clean_linker_1, # of connection points: 2
#     Edge 85, Type (0, 0), BuildingBlock: KIFKEQ_clean_linker_1, # of connection points: 2
#     Edge 86, Type (0, 0), BuildingBlock: KIFKEQ_clean_linker_1, # of connection points: 2
#     Edge 87, Type (0, 0), BuildingBlock: KIFKEQ_clean_linker_1, # of connection points: 2
#     Edge 88, Type (0, 0), BuildingBlock: KIFKEQ_clean_linker_1, # of connection points: 2
#     Edge 89, Type (0, 0), BuildingBlock: KIFKEQ_clean_linker_1, # of connection points: 2
#     Edge 90, Type (0, 0), BuildingBlock: KIFKEQ_clean_linker_1, # of connection points: 2
#     Edge 91, Type (0, 0), BuildingBlock: KIFKEQ_clean_linker_1, # of connection points: 2
#     Edge 92, Type (0, 0), BuildingBlock: KIFKEQ_clean_linker_1, # of connection points: 2
#     Edge 93, Type (0, 0), BuildingBlock: KIFKEQ_clean_linker_1, # of connection points: 2
#     Edge 94, Type (0, 0), BuildingBlock: KIFKEQ_clean_linker_1, # of connection points: 2
#     Edge 95, Type (0, 0), BuildingBlock: KIFKEQ_clean_linker_1, # of connection points: 2
#     Edge 96, Type (0, 0), BuildingBlock: KIFKEQ_clean_linker_1, # of connection points: 2
#     Edge 97, Type (0, 0), BuildingBlock: KIFKEQ_clean_linker_1, # of connection points: 2
#     Edge 98, Type (0, 0), BuildingBlock: KIFKEQ_clean_linker_1, # of connection points: 2
#     Edge 99, Type (0, 0), BuildingBlock: KIFKEQ_clean_linker_1, # of connection points: 2
#     Edge 100, Type (0, 0), BuildingBlock: KIFKEQ_clean_linker_1, # of connection points: 2
#     Edge 101, Type (0, 0), BuildingBlock: KIFKEQ_clean_linker_1, # of connection points: 2
#     Edge 102, Type (0, 0), BuildingBlock: KIFKEQ_clean_linker_1, # of connection points: 2
#     Edge 103, Type (0, 0), BuildingBlock: KIFKEQ_clean_linker_1, # of connection points: 2
#     Edge 104, Type (0, 0), BuildingBlock: KIFKEQ_clean_linker_1, # of connection points: 2
#     Edge 105, Type (0, 0), BuildingBlock: KIFKEQ_clean_linker_1, # of connection points: 2
#     Edge 106, Type (0, 0), BuildingBlock: KIFKEQ_clean_linker_1, # of connection points: 2
#     Edge 107, Type (0, 0), BuildingBlock: KIFKEQ_clean_linker_1, # of connection points: 2
#     Edge 108, Type (0, 0), BuildingBlock: KIFKEQ_clean_linker_1, # of connection points: 2
#     Edge 109, Type (0, 0), BuildingBlock: KIFKEQ_clean_linker_1, # of connection points: 2
#     Edge 110, Type (0, 0), BuildingBlock: KIFKEQ_clean_linker_1, # of connection points: 2
#     Edge 111, Type (0, 0), BuildingBlock: KIFKEQ_clean_linker_1, # of connection points: 2
#     Edge 112, Type (0, 0), BuildingBlock: KIFKEQ_clean_linker_1, # of connection points: 2
#     Edge 113, Type (0, 0), BuildingBlock: KIFKEQ_clean_linker_1, # of connection points: 2
#     Edge 114, Type (0, 0), BuildingBlock: KIFKEQ_clean_linker_1, # of connection points: 2
#     Edge 115, Type (0, 0), BuildingBlock: KIFKEQ_clean_linker_1, # of connection points: 2
#     Edge 116, Type (0, 0), BuildingBlock: KIFKEQ_clean_linker_1, # of connection points: 2
#     Edge 117, Type (0, 0), BuildingBlock: KIFKEQ_clean_linker_1, # of connection points: 2
#     Edge 118, Type (0, 0), BuildingBlock: KIFKEQ_clean_linker_1, # of connection points: 2
#     Edge 119, Type (0, 0), BuildingBlock: KIFKEQ_clean_linker_1, # of connection points: 2
#     Edge 120, Type (0, 0), BuildingBlock: KIFKEQ_clean_linker_1, # of connection points: 2
#     Edge 121, Type (0, 0), BuildingBlock: KIFKEQ_clean_linker_1, # of connection points: 2
#     Edge 122, Type (0, 0), BuildingBlock: KIFKEQ_clean_linker_1, # of connection points: 2
#     Edge 123, Type (0, 0), BuildingBlock: KIFKEQ_clean_linker_1, # of connection points: 2
#     Edge 124, Type (0, 0), BuildingBlock: KIFKEQ_clean_linker_1, # of connection points: 2
#     Edge 125, Type (0, 0), BuildingBlock: KIFKEQ_clean_linker_1, # of connection points: 2
#     Edge 126, Type (0, 0), BuildingBlock: KIFKEQ_clean_linker_1, # of connection points: 2
#     Edge 127, Type (0, 0), BuildingBlock: KIFKEQ_clean_linker_1, # of connection points: 2
#     Edge 128, Type (0, 0), BuildingBlock: KIFKEQ_clean_linker_1, # of connection points: 2
#     Edge 129, Type (0, 0), BuildingBlock: KIFKEQ_clean_linker_1, # of connection points: 2
#     Edge 130, Type (0, 0), BuildingBlock: KIFKEQ_clean_linker_1, # of connection points: 2
#     Edge 131, Type (0, 0), BuildingBlock: KIFKEQ_clean_linker_1, # of connection points: 2
#     Edge 132, Type (0, 0), BuildingBlock: KIFKEQ_clean_linker_1, # of connection points: 2
#     Edge 133, Type (0, 0), BuildingBlock: KIFKEQ_clean_linker_1, # of connection points: 2
#     Edge 134, Type (0, 0), BuildingBlock: KIFKEQ_clean_linker_1, # of connection points: 2
#     Edge 135, Type (0, 0), BuildingBlock: KIFKEQ_clean_linker_1, # of connection points: 2
#     Edge 136, Type (0, 0), BuildingBlock: KIFKEQ_clean_linker_1, # of connection points: 2
#     Edge 137, Type (0, 0), BuildingBlock: KIFKEQ_clean_linker_1, # of connection points: 2
#     Edge 138, Type (0, 0), BuildingBlock: KIFKEQ_clean_linker_1, # of connection points: 2
#     Edge 139, Type (0, 0), BuildingBlock: KIFKEQ_clean_linker_1, # of connection points: 2
#     Edge 140, Type (0, 0), BuildingBlock: KIFKEQ_clean_linker_1, # of connection points: 2
#     Edge 141, Type (0, 0), BuildingBlock: KIFKEQ_clean_linker_1, # of connection points: 2
#     Edge 142, Type (0, 0), BuildingBlock: KIFKEQ_clean_linker_1, # of connection points: 2
#     Edge 143, Type (0, 0), BuildingBlock: KIFKEQ_clean_linker_1, # of connection points: 2
# Relax obj value: 0.863
# Max RMSD: 0.392
# Mean RMSD: 0.315
data_MOF--net-lcv-a--node1-KUFVIS_clean_sbu_0--edge1-KIFKEQ_clean_linker_1
_symmetry_space_group_name_H-M    P1
_symmetry_Int_Tables_number       1
_symmetry_cell_setting            triclinic
loop_
_symmetry_equiv_pos_as_xyz
'x, y, z'
_cell_length_a     88.673016
_cell_length_b     88.707767
_cell_length_c     88.726066
_cell_angle_alpha  89.674741
_cell_angle_beta   89.677471
_cell_angle_gamma 89.724098
loop_
_atom_site_label
_atom_site_type_symbol
_atom_site_fract_x
_atom_site_fract_y
_atom_site_fract_z
_atom_type_partial_charge
Mn0 Mn 0.03109 0.31285 0.22685 0.0
Mn1 Mn 0.01286 0.28519 0.20903 0.0
C2 C 0.01593 0.31936 0.20666 0.0
C3 C 0.02903 0.32964 0.24696 0.0
C4 C 0.04655 0.29116 0.20551 0.0
O5 O 0.03281 0.29498 0.24131 0.0
O6 O 0.01578 0.27983 0.23045 0.0
C7 C 0.98327 0.28618 0.22466 0.0
N8 N 0.9915 0.28651 0.21166 0.0
C9 C 0.96901 0.2866 0.1966 0.0
C10 C 0.96028 0.28634 0.20982 0.0
C11 C 0.96745 0.2862 0.22391 0.0
C12 C 0.98472 0.28687 0.19807 0.0
H13 H 0.98875 0.28589 0.2355 0.0
C14 C 0.02422 0.28354 0.24143 0.0
O15 O 0.04221 0.32658 0.24115 0.0
O16 O 0.01762 0.32282 0.24134 0.0
N17 N 0.00897 0.28862 0.18807 0.0
C18 C 0.01895 0.28846 0.17633 0.0
C19 C 0.01363 0.28697 0.16156 0.0
C20 C 0.99817 0.28537 0.15898 0.0
C21 C 0.98804 0.28645 0.17106 0.0
C22 C 0.99398 0.28759 0.18559 0.0
H23 H 0.03089 0.28897 0.1782 0.0
O24 O 0.02616 0.32847 0.21149 0.0
O25 O 0.01491 0.30658 0.21385 0.0
O26 O 0.04719 0.30378 0.21247 0.0
O27 O 0.03476 0.28291 0.20527 0.0
C28 C 0.97229 0.28613 0.16928 0.0
C29 C 0.96276 0.28651 0.18204 0.0
H30 H 0.94809 0.28619 0.20928 0.0
H31 H 0.96079 0.28596 0.23416 0.0
H32 H 0.02129 0.28723 0.15209 0.0
H33 H 0.99422 0.28365 0.14762 0.0
H34 H 0.96741 0.2857 0.15815 0.0
H35 H 0.95065 0.28635 0.18052 0.0
Mn36 Mn 0.94138 0.80444 0.44455 0.0
Mn37 Mn 0.97578 0.78266 0.44892 0.0
C38 C 0.94422 0.77893 0.43793 0.0
C39 C 0.9177 0.81151 0.45352 0.0
C40 C 0.96961 0.80514 0.42341 0.0
O41 O 0.95172 0.8179 0.46017 0.0
O42 O 0.95986 0.79557 0.45618 0.0
C43 C 0.96482 0.77055 0.47828 0.0
N44 N 0.97564 0.77131 0.46735 0.0
C45 C 0.99212 0.75491 0.48148 0.0
C46 C 0.9811 0.75388 0.49282 0.0
C47 C 0.96741 0.76176 0.49123 0.0
C48 C 0.98894 0.76391 0.46887 0.0
H49 H 0.95427 0.77657 0.47708 0.0
C50 C 0.96155 0.80807 0.46314 0.0
O51 O 0.92386 0.81881 0.44232 0.0
O52 O 0.92529 0.80048 0.45932 0.0
N53 N 0.99549 0.77462 0.44578 0.0
C54 C 0.00488 0.77673 0.43375 0.0
C55 C 0.01869 0.76902 0.43323 0.0
C56 C 0.02297 0.75968 0.44533 0.0
C57 C 0.01326 0.758 0.45775 0.0
C58 C -0.00062 0.76558 0.4574 0.0
H59 H 0.00162 0.78382 0.42437 0.0
O60 O 0.93389 0.78752 0.43204 0.0
O61 O 0.95303 0.78523 0.44798 0.0
O62 O 0.95675 0.8107 0.42754 0.0
O63 O 0.97678 0.79457 0.43024 0.0
C64 C 0.01664 0.74882 0.47028 0.0
C65 C 0.00613 0.74735 0.48218 0.0
H66 H 0.98303 0.7471 0.50282 0.0
H67 H 0.95887 0.76105 0.49996 0.0
H68 H 0.0258 0.77001 0.42336 0.0
H69 H 0.03357 0.7536 0.44484 0.0
H70 H 0.02728 0.74282 0.47083 0.0
H71 H 0.00889 0.74028 0.49179 0.0
Mn72 Mn 0.52119 0.67498 0.68861 0.0
Mn73 Mn 0.51957 0.70178 0.6594 0.0
C74 C 0.54036 0.67501 0.67005 0.0
C75 C 0.52977 0.66791 0.7124 0.0
C76 C 0.50012 0.67614 0.66302 0.0
O77 O 0.5095 0.6921 0.69734 0.0
O78 O 0.50599 0.70751 0.67704 0.0
C79 C 0.52586 0.74471 0.66606 0.0
N80 N 0.52831 0.73108 0.65949 0.0
C81 C 0.55044 0.74523 0.64191 0.0
C82 C 0.5458 0.75842 0.64974 0.0
C83 C 0.53418 0.7579 0.66125 0.0
C84 C 0.53989 0.73139 0.64769 0.0
H85 H 0.51756 0.74583 0.67488 0.0
C86 C 0.50433 0.70408 0.69119 0.0
O87 O 0.51758 0.66207 0.70688 0.0
O88 O 0.5369 0.67751 0.70403 0.0
N89 N 0.53654 0.69415 0.63922 0.0
C90 C 0.5363 0.68208 0.62994 0.0
C91 C 0.54675 0.68095 0.61788 0.0
C92 C 0.55755 0.6922 0.61444 0.0
C93 C 0.55794 0.70589 0.62222 0.0
C94 C 0.54554 0.70724 0.63497 0.0
H95 H 0.52835 0.67308 0.63201 0.0
O96 O 0.53638 0.66251 0.6767 0.0
O97 O 0.53154 0.68652 0.67328 0.0
O98 O 0.50185 0.67053 0.67607 0.0
O99 O 0.51155 0.68149 0.65667 0.0
C100 C 0.56862 0.71992 0.61663 0.0
C101 C 0.56774 0.73812 0.62398 0.0
H102 H 0.55061 0.76927 0.64712 0.0
H103 H 0.53141 0.76841 0.66678 0.0
H104 H 0.54658 0.6709 0.61103 0.0
H105 H 0.56523 0.69035 0.60511 0.0
H106 H 0.57593 0.71507 0.6062 0.0
H107 H 0.56934 0.72881 0.61909 0.0
Mn108 Mn 0.55426 0.29966 -0.00057 0.0
Mn109 Mn 0.52711 0.2953 0.97351 0.0
C110 C 0.5603 0.30379 0.97414 0.0
C111 C 0.56762 0.31526 0.01534 0.0
C112 C 0.54235 0.26915 0.98993 0.0
O113 O 0.53497 0.30095 0.01221 0.0
O114 O 0.51852 0.3014 0.99297 0.0
C115 C 0.51615 0.32684 0.97054 0.0
N116 N 0.52094 0.31373 0.96416 0.0
C117 C 0.51431 0.32251 0.93936 0.0
C118 C 0.50907 0.33604 0.94566 0.0
C119 C 0.51017 0.33829 0.9613 0.0
C120 C 0.52053 0.31172 0.94909 0.0
H121 H 0.51668 0.32838 0.98259 0.0
C122 C 0.52174 0.30268 0.0069 0.0
O123 O 0.56748 0.30075 0.01748 0.0
O124 O 0.55917 0.32063 0.00473 0.0
N125 N 0.53341 0.28931 0.95382 0.0
C126 C 0.53966 0.27595 0.94952 0.0
C127 C 0.53895 0.27158 0.93435 0.0
C128 C 0.53171 0.28094 0.9238 0.0
C129 C 0.52577 0.29489 0.92838 0.0
C130 C 0.52676 0.29857 0.94365 0.0
H131 H 0.54466 0.2684 0.95769 0.0
O132 O 0.57051 0.30012 0.98388 0.0
O133 O 0.54653 0.30422 0.97933 0.0
O134 O 0.55228 0.27671 0.99691 0.0
O135 O 0.53215 0.27528 0.98188 0.0
C136 C 0.51906 0.30532 0.91839 0.0
C137 C 0.51355 0.31924 0.92384 0.0
H138 H 0.50424 0.3448 0.9386 0.0
H139 H 0.50621 0.34872 0.96624 0.0
H140 H 0.54377 0.26093 0.93083 0.0
H141 H 0.5314 0.2776 0.9121 0.0
H142 H 0.51824 0.30284 0.90648 0.0
H143 H 0.50864 0.32728 0.91603 0.0
Mn144 Mn 0.02024 0.68538 0.38556 0.0
Mn145 Mn 0.01823 0.72321 0.38518 0.0
C146 C 0.9978 0.69659 0.39305 0.0
C147 C 0.02166 0.66313 0.37234 0.0
C148 C 0.03524 0.70468 0.40854 0.0
O149 O 0.03863 0.69223 0.37334 0.0
O150 O 0.0319 0.71631 0.36905 0.0
C151 C 0.00436 0.72962 0.3555 0.0
N152 N 0.00447 0.73134 0.37074 0.0
C153 C 0.98485 0.75013 0.36957 0.0
C154 C 0.98453 0.7486 0.35386 0.0
C155 C 0.99426 0.73822 0.3468 0.0
C156 C 0.99506 0.74115 0.37764 0.0
H157 H 0.012 0.72185 0.35003 0.0
C158 C 0.03975 0.7046 0.36612 0.0
O159 O 0.02821 0.66474 0.38523 0.0
O160 O 0.01321 0.6742 0.36752 0.0
N161 N 0.00513 0.7318 0.40001 0.0
C162 C 0.00582 0.73084 0.41532 0.0
C163 C 0.99644 0.7401 0.42408 0.0
C164 C 0.98687 0.75061 0.41704 0.0
C165 C 0.98612 0.7512 0.40131 0.0
C166 C 0.99557 0.74155 0.39315 0.0
H167 H 0.01351 0.72314 0.4208 0.0
O168 O 0.00055 0.6825 0.39616 0.0
O169 O 0.00787 0.70348 0.38478 0.0
O170 O 0.02967 0.69203 0.40515 0.0
O171 O 0.03295 0.71668 0.40082 0.0
C172 C 0.97604 0.76065 0.39344 0.0
C173 C 0.97536 0.76009 0.37758 0.0
H174 H 0.97681 0.75527 0.34711 0.0
H175 H 0.99407 0.73697 0.33468 0.0
H176 H 0.99673 0.7393 0.43624 0.0
H177 H 0.97995 0.75805 0.42379 0.0
H178 H 0.96849 0.76807 0.39953 0.0
H179 H 0.96739 0.76723 0.37166 0.0
Mn180 Mn 0.59973 0.77132 0.61706 0.0
Mn181 Mn 0.56667 0.75731 0.6331 0.0
C182 C 0.60078 0.74787 0.62907 0.0
C183 C 0.61388 0.77395 0.59527 0.0
C184 C 0.58801 0.77959 0.64813 0.0
O185 O 0.58295 0.78354 0.60757 0.0
O186 O 0.56241 0.77565 0.62065 0.0
C187 C 0.53324 0.75233 0.6108 0.0
N188 N 0.54524 0.74525 0.61716 0.0
C189 C 0.52619 0.72385 0.62599 0.0
C190 C 0.51534 0.73177 0.61782 0.0
C191 C 0.51897 0.74529 0.6101 0.0
C192 C 0.54367 0.72951 0.62315 0.0
H193 H 0.53437 0.76389 0.607 0.0
C194 C 0.56891 0.78396 0.61067 0.0
O195 O 0.61542 0.78351 0.60621 0.0
O196 O 0.60456 0.76295 0.59718 0.0
N197 N 0.57293 0.73568 0.64849 0.0
C198 C 0.57757 0.7381 0.66282 0.0
C199 C 0.57398 0.72834 0.67447 0.0
C200 C 0.56369 0.71684 0.6726 0.0
C201 C 0.55706 0.71364 0.65869 0.0
C202 C 0.56307 0.72286 0.64396 0.0
H203 H 0.58377 0.74819 0.66542 0.0
O204 O 0.61301 0.75558 0.62691 0.0
O205 O 0.58834 0.75455 0.62405 0.0
O206 O 0.59674 0.78286 0.63707 0.0
O207 O 0.57802 0.76934 0.64774 0.0
C208 C 0.53949 0.70889 0.65982 0.0
C209 C 0.52171 0.71442 0.642 0.0
H210 H 0.50363 0.72848 0.61873 0.0
H211 H 0.50987 0.75144 0.60473 0.0
H212 H 0.57805 0.73074 0.68568 0.0
H213 H 0.55938 0.71161 0.68279 0.0
H214 H 0.53618 0.70964 0.67172 0.0
H215 H 0.50962 0.71356 0.64401 0.0
Mn216 Mn 0.56064 0.31043 0.84714 0.0
Mn217 Mn 0.56455 0.28408 0.87427 0.0
C218 C 0.56811 0.31765 0.871 0.0
C219 C 0.56983 0.32582 0.82831 0.0
C220 C 0.53445 0.29796 0.86661 0.0
O221 O 0.56105 0.29134 0.8344 0.0
O222 O 0.5612 0.27566 0.85422 0.0
C223 C 0.59388 0.27366 0.86176 0.0
N224 N 0.58522 0.27783 0.87377 0.0
C225 C 0.60514 0.27168 0.89104 0.0
C226 C 0.61412 0.2669 0.87891 0.0
C227 C 0.60853 0.26809 0.86417 0.0
C228 C 0.59074 0.27737 0.88787 0.0
H229 H 0.58969 0.2747 0.85044 0.0
C230 C 0.56057 0.2782 0.84011 0.0
O231 O 0.55551 0.32294 0.82931 0.0
O232 O 0.57883 0.31831 0.83708 0.0
N233 N 0.56831 0.2893 0.89472 0.0
C234 C 0.55874 0.29545 0.90502 0.0
C235 C 0.56278 0.29528 0.92031 0.0
C236 C 0.57615 0.28818 0.92491 0.0
C237 C 0.58609 0.2825 0.9141 0.0
C238 C 0.58162 0.28309 0.89903 0.0
H239 H 0.54815 0.30037 0.90154 0.0
O240 O 0.56196 0.32712 0.86176 0.0
O241 O 0.57017 0.30394 0.86603 0.0
O242 O 0.53938 0.30534 0.85518 0.0
O243 O 0.54294 0.2901 0.87534 0.0
C244 C 0.6003 0.27632 0.91771 0.0
C245 C 0.60991 0.27108 0.90615 0.0
H246 H 0.62537 0.26248 0.88076 0.0
H247 H 0.61546 0.26465 0.8547 0.0
H248 H 0.55557 0.30045 0.92862 0.0
H249 H 0.57881 0.28731 0.93675 0.0
H250 H 0.60403 0.27579 0.92931 0.0
H251 H 0.62093 0.26662 0.90899 0.0
Mn252 Mn 0.94924 0.31392 0.09852 0.0
Mn253 Mn 0.98638 0.31517 0.10623 0.0
C254 C 0.95704 0.3261 0.11993 0.0
C255 C 0.92715 0.32231 0.08807 0.0
C256 C 0.96679 0.28893 0.1153 0.0
O257 O 0.95822 0.30774 0.07839 0.0
O258 O 0.98223 0.30714 0.08596 0.0
C259 C 0.99245 0.33904 0.08346 0.0
N260 N 0.99401 0.33348 0.0977 0.0
C261 C 0.01164 0.35294 0.10398 0.0
C262 C 0.01056 0.35863 0.08925 0.0
C263 C 0.00074 0.35177 0.07901 0.0
C264 C 0.00279 0.34046 0.10783 0.0
H265 H 0.98492 0.3338 0.07561 0.0
C266 C 0.97211 0.30525 0.07603 0.0
O267 O 0.92923 0.30823 0.0914 0.0
O268 O 0.93847 0.33145 0.08955 0.0
N269 N 0.99363 0.32273 0.12491 0.0
C270 C 0.99344 0.3158 0.13859 0.0
C271 C 0.00304 0.32091 0.14998 0.0
C272 C 0.01295 0.33287 0.14709 0.0
C273 C 0.01263 0.34015 0.1331 0.0
C274 C 0.00287 0.33454 0.12217 0.0
H275 H 0.9858 0.30664 0.14073 0.0
O276 O 0.94334 0.32142 0.11847 0.0
O277 O 0.96606 0.3243 0.10831 0.0
O278 O 0.9552 0.29369 0.10823 0.0
O279 O 0.97926 0.29611 0.1157 0.0
C280 C 0.02191 0.3525 0.12944 0.0
C281 C 0.02129 0.35901 0.11492 0.0
H282 H 0.01715 0.36829 0.08571 0.0
H283 H -0.0003 0.35618 0.06766 0.0
H284 H 0.00276 0.31579 0.16104 0.0
H285 H 0.02063 0.33652 0.15577 0.0
H286 H 0.02956 0.35706 0.13771 0.0
H287 H 0.02842 0.36855 0.11224 0.0
Mn288 Mn 0.22867 0.04426 0.3135 0.0
Mn289 Mn 0.21662 0.01704 0.28916 0.0
C290 C 0.20964 0.02683 0.3219 0.0
C291 C 0.24612 0.02404 0.3239 0.0
C292 C 0.20503 0.04871 0.28854 0.0
O293 O 0.24317 0.04611 0.29558 0.0
O294 O 0.23714 0.02435 0.28401 0.0
C295 C 0.23855 0.99249 0.29501 0.0
N296 N 0.22399 0.99743 0.29446 0.0
C297 C 0.2147 0.97207 0.29691 0.0
C298 C 0.22956 0.96683 0.29823 0.0
C299 C 0.24154 0.97709 0.29724 0.0
C300 C 0.21237 0.98763 0.29526 0.0
H301 H 0.24781 0.00027 0.29382 0.0
C302 C 0.24569 0.03576 0.28593 0.0
O303 O 0.24589 0.03758 0.32787 0.0
O304 O 0.23648 0.02152 0.31379 0.0
N305 N 0.19686 0.00865 0.29187 0.0
C306 C 0.18351 0.01497 0.28744 0.0
C307 C 0.1708 0.00589 0.28533 0.0
C308 C 0.17173 0.99035 0.28804 0.0
C309 C 0.18556 0.98396 0.2922 0.0
C310 C 0.19804 0.99352 0.29361 0.0
H311 H 0.18264 0.02675 0.28473 0.0
O312 O 0.21282 0.0389 0.32915 0.0
O313 O 0.21871 0.02419 0.31058 0.0
O314 O 0.21125 0.05274 0.30071 0.0
O315 O 0.20806 0.03632 0.28206 0.0
C316 C 0.18764 0.96831 0.29395 0.0
C317 C 0.20216 0.96239 0.29657 0.0
H318 H 0.23193 0.95492 0.29962 0.0
H319 H 0.25307 0.9731 0.29796 0.0
H320 H 0.16029 0.01089 0.28159 0.0
H321 H 0.16192 0.98336 0.28632 0.0
H322 H 0.17817 0.9607 0.29301 0.0
H323 H 0.20363 0.95031 0.29774 0.0
Mn324 Mn 0.30329 0.99681 0.55147 0.0
Mn325 Mn 0.30328 0.97044 0.52405 0.0
C326 C 0.31131 0.97243 0.55717 0.0
C327 C 0.31521 0.01466 0.56613 0.0
C328 C 0.27494 0.98061 0.54063 0.0
O329 O 0.30263 0.01016 0.53273 0.0
O330 O 0.30318 0.99121 0.51603 0.0
C331 C 0.33359 0.97701 0.51143 0.0
N332 N 0.32316 0.96692 0.51642 0.0
C333 C 0.33849 0.946 0.50835 0.0
C334 C 0.3493 0.95617 0.50288 0.0
C335 C 0.34691 0.97174 0.50458 0.0
C336 C 0.32562 0.95193 0.51538 0.0
H337 H 0.33168 0.98895 0.51263 0.0
C338 C 0.30294 0.0052 0.51933 0.0
O339 O 0.30061 0.01426 0.5652 0.0
O340 O 0.32282 0.00565 0.55747 0.0
N341 N 0.30335 0.94944 0.52914 0.0
C342 C 0.29153 0.94118 0.5344 0.0
C343 C 0.29127 0.92553 0.5321 0.0
C344 C 0.3036 0.91835 0.52517 0.0
C345 C 0.3158 0.92699 0.52009 0.0
C346 C 0.31494 0.94266 0.52181 0.0
H347 H 0.28236 0.94648 0.54031 0.0
O348 O 0.30583 0.98135 0.56732 0.0
O349 O 0.3115 0.9777 0.54339 0.0
O350 O 0.28113 0.99056 0.54883 0.0
O351 O 0.28227 0.97272 0.53108 0.0
C352 C 0.32846 0.92073 0.51272 0.0
C353 C 0.33992 0.93022 0.50707 0.0
H354 H 0.35949 0.95214 0.49741 0.0
H355 H 0.35524 0.97967 0.50049 0.0
H356 H 0.28173 0.91897 0.53599 0.0
H357 H 0.30349 0.90624 0.52367 0.0
H358 H 0.32944 0.90864 0.51127 0.0
H359 H 0.34967 0.92528 0.50154 0.0
Mn360 Mn 0.34672 0.08814 0.80547 0.0
Mn361 Mn 0.3713 0.08381 0.77693 0.0
C362 C 0.37121 0.09614 0.8086 0.0
C363 C 0.32898 0.10086 0.81955 0.0
C364 C 0.3652 0.05918 0.79937 0.0
O365 O 0.33245 0.08431 0.78807 0.0
O366 O 0.35047 0.07833 0.7714 0.0
C367 C 0.35789 0.10904 0.75934 0.0
N368 N 0.37021 0.10194 0.76516 0.0
C369 C 0.38688 0.1195 0.75286 0.0
C370 C 0.37438 0.12676 0.74644 0.0
C371 C 0.3598 0.1216 0.74983 0.0
C372 C 0.38421 0.10719 0.76244 0.0
H373 H 0.34672 0.10519 0.76199 0.0
C374 C 0.33667 0.07932 0.77538 0.0
O375 O 0.32989 0.08626 0.81975 0.0
O376 O 0.33734 0.10804 0.80985 0.0
N377 N 0.39209 0.08855 0.77921 0.0
C378 C 0.40288 0.08057 0.78662 0.0
C379 C 0.41805 0.08441 0.78448 0.0
C380 C 0.42208 0.09588 0.77432 0.0
C381 C 0.41081 0.10406 0.76698 0.0
C382 C 0.39583 0.09989 0.76963 0.0
H383 H 0.39988 0.07143 0.79411 0.0
O384 O 0.36265 0.09303 0.82003 0.0
O385 O 0.3651 0.095 0.79521 0.0
O386 O 0.35411 0.06603 0.80561 0.0
O387 O 0.37316 0.0649 0.78873 0.0
C388 C 0.41386 0.11615 0.75709 0.0
C389 C 0.40187 0.12397 0.75013 0.0
H390 H 0.37584 0.13637 0.73899 0.0
H391 H 0.35007 0.12724 0.74508 0.0
H392 H 0.4267 0.07828 0.79038 0.0
H393 H 0.43385 0.09835 0.77227 0.0
H394 H 0.42536 0.11959 0.75486 0.0
H395 H 0.40432 0.13336 0.74267 0.0
Mn396 Mn 0.23218 0.08166 0.06864 0.0
Mn397 Mn 0.23277 0.09544 0.03304 0.0
C398 C 0.21276 0.0976 0.06123 0.0
C399 C 0.22863 0.06098 0.08418 0.0
C400 C 0.25119 0.10864 0.05867 0.0
O401 O 0.24857 0.06919 0.05836 0.0
O402 O 0.24525 0.07713 0.03467 0.0
C403 C 0.21699 0.06992 0.01867 0.0
N404 N 0.21856 0.085 0.02087 0.0
C405 C 0.20049 0.0907 0.00153 0.0
C406 C 0.19877 0.07523 -0.00107 0.0
C407 C 0.20694 0.06478 0.00766 0.0
C408 C 0.21039 0.09509 0.01291 0.0
H409 H 0.22342 0.06191 0.02523 0.0
C410 C 0.251 0.06822 0.04433 0.0
O411 O 0.23798 0.07161 0.08763 0.0
O412 O 0.22044 0.06284 0.07221 0.0
N413 N 0.22135 0.11307 0.02833 0.0
C414 C 0.22359 0.12748 0.03289 0.0
C415 C 0.21614 0.13923 0.02535 0.0
C416 C 0.20738 0.13626 0.01261 0.0
C417 C 0.20484 0.12135 0.00841 0.0
C418 C 0.2122 0.11 0.01657 0.0
H419 H 0.23094 0.12996 0.04221 0.0
O420 O 0.21492 0.09439 0.07535 0.0
O421 O 0.22123 0.09031 0.05156 0.0
O422 O 0.24597 0.1002 0.06916 0.0
O423 O 0.2477 0.1072 0.04475 0.0
C424 C 0.19517 0.1173 0.99657 0.0
C425 C 0.19285 0.10196 0.99325 0.0
H426 H 0.19119 0.07125 0.9903 0.0
H427 H 0.20565 0.05282 0.00577 0.0
H428 H 0.21703 0.1506 0.02935 0.0
H429 H 0.20239 0.14548 0.00636 0.0
H430 H 0.18929 0.12589 0.99013 0.0
H431 H 0.18522 0.09894 0.98428 0.0
Mn432 Mn 0.20904 0.99227 0.18689 0.0
Mn433 Mn 0.20135 0.01289 0.21749 0.0
C434 C 0.18733 0.00699 0.18649 0.0
C435 C 0.22225 0.99156 0.16437 0.0
C436 C 0.19728 0.97893 0.21572 0.0
O437 O 0.22862 0.99184 0.19901 0.0
O438 O 0.22334 0.01104 0.21465 0.0
C439 C 0.21359 0.04259 0.20847 0.0
N440 N 0.20188 0.03406 0.21357 0.0
C441 C 0.18597 0.05594 0.21613 0.0
C442 C 0.19784 0.06497 0.21088 0.0
C443 C 0.2117 0.05826 0.20701 0.0
C444 C 0.18847 0.04038 0.21723 0.0
H445 H 0.22428 0.03747 0.20554 0.0
C446 C 0.23254 0.00184 0.20843 0.0
O447 O 0.218 0.97905 0.17081 0.0
O448 O 0.21918 0.00404 0.17116 0.0
N449 N 0.18037 0.01584 0.22192 0.0
C450 C 0.17063 0.00585 0.22843 0.0
C451 C 0.15697 0.011 0.23459 0.0
C452 C 0.15332 0.02635 0.23387 0.0
C453 C 0.16337 0.03644 0.22706 0.0
C454 C 0.17717 0.03077 0.22183 0.0
H455 H 0.17352 0.99416 0.22968 0.0
O456 O 0.18932 0.99609 0.17703 0.0
O457 O 0.19834 0.00909 0.19592 0.0
O458 O 0.1989 0.97743 0.2015 0.0
O459 O 0.20022 0.99114 0.22272 0.0
C460 C 0.1605 0.052 0.22588 0.0
C461 C 0.17172 0.06174 0.22021 0.0
H462 H 0.19643 0.07706 0.20978 0.0
H463 H 0.22092 0.06515 0.20296 0.0
H464 H 0.14935 0.00322 0.24007 0.0
H465 H 0.14291 0.0303 0.23887 0.0
H466 H 0.14973 0.0566 0.22939 0.0
H467 H 0.16938 0.07371 0.21939 0.0
Mn468 Mn 0.27223 0.93498 0.42324 0.0
Mn469 Mn 0.25952 0.93244 0.4606 0.0
C470 C 0.24858 0.92436 0.42768 0.0
C471 C 0.27452 0.95036 0.40203 0.0
C472 C 0.28062 0.90978 0.4449 0.0
O473 O 0.28557 0.94914 0.4351 0.0
O474 O 0.27786 0.94536 0.45923 0.0
C475 C 0.25534 0.96538 0.48387 0.0
N476 N 0.24801 0.95517 0.4753 0.0
C477 C 0.22721 0.95414 0.49691 0.0
C478 C 0.23509 0.96588 0.50353 0.0
C479 C 0.24853 0.9715 0.49696 0.0
C480 C 0.23236 0.95039 0.47947 0.0
H481 H 0.26686 0.96832 0.48108 0.0
C482 C 0.28629 0.95167 0.44922 0.0
O483 O 0.28376 0.93911 0.4041 0.0
O484 O 0.26407 0.95242 0.41204 0.0
N485 N 0.23784 0.9161 0.4611 0.0
C486 C 0.24022 0.90099 0.46185 0.0
C487 C 0.23063 0.89152 0.4697 0.0
C488 C 0.21936 0.89712 0.47898 0.0
C489 C 0.21627 0.91257 0.48028 0.0
C490 C 0.22525 0.92407 0.46909 0.0
H491 H 0.25015 0.8962 0.45666 0.0
O492 O 0.25564 0.92191 0.41509 0.0
O493 O 0.25594 0.93314 0.43722 0.0
O494 O 0.28337 0.91651 0.43239 0.0
O495 O 0.27137 0.91462 0.4548 0.0
C496 C 0.21183 0.91784 0.49715 0.0
C497 C 0.21798 0.94098 0.50721 0.0
H498 H 0.23173 0.96981 0.51453 0.0
H499 H 0.25475 0.9799 0.50315 0.0
H500 H 0.233 0.87954 0.46984 0.0
H501 H 0.21425 0.8892 0.48677 0.0
H502 H 0.21064 0.90785 0.50431 0.0
H503 H 0.21719 0.94359 0.51918 0.0
Mn504 Mn 0.38657 0.01948 0.68304 0.0
Mn505 Mn 0.38376 0.01984 0.721 0.0
C506 C 0.39425 0.99815 0.69648 0.0
C507 C 0.3746 0.01745 0.66011 0.0
C508 C 0.40954 0.0346 0.70349 0.0
O509 O 0.37319 0.03789 0.6871 0.0
O510 O 0.37044 0.03516 0.71205 0.0
C511 C 0.35194 0.00999 0.72412 0.0
N512 N 0.36675 0.00845 0.72782 0.0
C513 C 0.36083 0.99039 0.74727 0.0
C514 C 0.34549 0.9918 0.74371 0.0
C515 C 0.34105 0.00157 0.732 0.0
C516 C 0.37115 -0.00109 0.73886 0.0
H517 H 0.34849 0.01766 0.71531 0.0
C518 C 0.36728 0.04157 0.69962 0.0
O519 O 0.387 0.02503 0.66139 0.0
O520 O 0.36952 0.01042 0.67196 0.0
N521 N 0.39552 0.0058 0.73207 0.0
C522 C 0.41076 0.00478 0.73306 0.0
C523 C 0.41706 0.995 0.74369 0.0
C524 C 0.40772 0.98734 0.75401 0.0
C525 C 0.39208 0.98832 0.7526 0.0
C526 C 0.38639 0.99775 0.74132 0.0
H527 H 0.41802 0.01118 0.72563 0.0
O528 O 0.39819 0.00017 0.68252 0.0
O529 O 0.38496 0.00823 0.70206 0.0
O530 O 0.40552 0.0306 0.69032 0.0
O531 O 0.40177 0.03169 0.71535 0.0
C532 C 0.38194 0.97996 0.76158 0.0
C533 C 0.3663 0.98091 0.75884 0.0
H534 H 0.33706 0.98543 0.74986 0.0
H535 H 0.32924 0.00272 0.72918 0.0
H536 H 0.42912 0.99358 0.74404 0.0
H537 H 0.41268 0.9805 0.76278 0.0
H538 H 0.38607 0.97253 0.77039 0.0
H539 H 0.3586 0.97426 0.76563 0.0
Mn540 Mn 0.31206 0.09757 0.94726 0.0
Mn541 Mn 0.31085 0.10569 0.98427 0.0
C542 C 0.32244 0.11969 0.95548 0.0
C543 C 0.32202 0.08772 0.92555 0.0
C544 C 0.28554 0.11343 0.96332 0.0
O545 O 0.30677 0.07713 0.9561 0.0
O546 O 0.30335 0.08524 0.97972 0.0
C547 C 0.33483 0.0834 0.99147 0.0
N548 N 0.32901 0.09758 0.99267 0.0
C549 C 0.34837 0.10462 0.01011 0.0
C550 C 0.35433 0.08998 0.00937 0.0
C551 C 0.34763 0.07937 -0.00015 0.0
C552 C 0.33581 0.10805 0.00119 0.0
H553 H 0.32978 0.07527 0.98415 0.0
C554 C 0.30277 0.07504 0.96967 0.0
O555 O 0.30767 0.09006 0.9271 0.0
O556 O 0.33057 0.08975 0.93722 0.0
N557 N 0.31765 0.12461 0.99183 0.0
C558 C 0.31009 0.138 0.99192 0.0
C559 C 0.31506 0.14963 0.00132 0.0
C560 C 0.32727 0.1472 0.011 0.0
C561 C 0.33495 0.13344 0.01067 0.0
C562 C 0.32959 0.12227 0.00102 0.0
H563 H 0.3004 0.13977 0.98482 0.0
O564 O 0.31849 0.11799 0.94158 0.0
O565 O 0.32098 0.108 0.96445 0.0
O566 O 0.29104 0.10599 0.95231 0.0
O567 O 0.29209 0.11469 0.97607 0.0
C568 C 0.34742 0.13023 0.01992 0.0
C569 C 0.35425 0.11587 0.01951 0.0
H570 H 0.36405 0.08678 0.01602 0.0
H571 H 0.35224 0.06809 -0.00093 0.0
H572 H 0.30966 0.16054 0.00109 0.0
H573 H 0.33072 0.15603 0.0186 0.0
H574 H 0.3518 0.13871 0.02745 0.0
H575 H 0.36386 0.11351 0.02665 0.0
Mn576 Mn 0.31113 0.22797 0.03111 0.0
Mn577 Mn 0.28143 0.20921 0.01702 0.0
C578 C 0.31572 0.20747 0.0158 0.0
C579 C 0.32813 0.24768 0.0275 0.0
C580 C 0.29223 0.20577 0.04931 0.0
O581 O 0.29357 0.24255 0.03464 0.0
O582 O 0.27594 0.23029 0.02135 0.0
C583 C 0.27844 0.2257 0.98809 0.0
N584 N 0.27988 0.21245 0.99579 0.0
C585 C 0.27817 0.19814 0.97293 0.0
C586 C 0.27672 0.21162 0.96474 0.0
C587 C 0.2769 0.22546 0.97235 0.0
C588 C 0.27998 0.19909 0.98855 0.0
H589 H 0.27849 0.23635 0.99393 0.0
C590 C 0.2806 0.24172 0.02863 0.0
O591 O 0.32603 0.24189 0.04086 0.0
O592 O 0.32003 0.24249 0.01669 0.0
N593 N 0.28451 0.18837 0.01213 0.0
C594 C 0.28446 0.17637 0.02181 0.0
C595 C 0.28211 0.16179 0.01627 0.0
C596 C 0.27981 0.15959 0.00083 0.0
C597 C 0.28023 0.17198 0.991 0.0
C598 C 0.28198 0.18634 0.99725 0.0
H599 H 0.2854 0.17792 0.03378 0.0
O600 O 0.32598 0.21254 0.02471 0.0
O601 O 0.30287 0.21466 0.016 0.0
O602 O 0.30422 0.21371 0.04828 0.0
O603 O 0.28244 0.20485 0.03883 0.0
C604 C 0.27839 0.1707 0.97531 0.0
C605 C 0.27782 0.18379 0.96623 0.0
H606 H 0.27538 0.21146 0.95261 0.0
H607 H 0.27575 0.23591 0.96611 0.0
H608 H 0.28173 0.15227 0.0239 0.0
H609 H 0.2777 0.14835 0.99666 0.0
H610 H 0.27741 0.15972 0.97012 0.0
H611 H 0.27682 0.18272 0.95413 0.0
Mn612 Mn 0.80372 0.34831 0.08965 0.0
Mn613 Mn 0.77427 0.37203 0.09019 0.0
C614 C 0.80697 0.37248 0.09873 0.0
C615 C 0.81932 0.33012 0.09963 0.0
C616 C 0.79466 0.36919 0.06321 0.0
O617 O 0.78645 0.33374 0.08607 0.0
O618 O 0.76914 0.35178 0.08277 0.0
C619 C 0.76049 0.35462 0.11534 0.0
N620 N 0.76464 0.36808 0.10919 0.0
C621 C 0.7542 0.38153 0.13029 0.0
C622 C 0.74934 0.36785 0.13657 0.0
C623 C 0.75269 0.3543 0.12914 0.0
C624 C 0.76223 0.38106 0.11665 0.0
H625 H 0.76328 0.3442 0.10987 0.0
C626 C 0.7734 0.33808 0.0822 0.0
O627 O 0.81824 0.33216 0.08519 0.0
O628 O 0.81012 0.33762 0.10825 0.0
N629 N 0.77576 0.39231 0.09711 0.0
C630 C 0.78004 0.40458 0.08896 0.0
C631 C 0.77674 0.41906 0.09439 0.0
C632 C 0.7689 0.42085 0.10801 0.0
C633 C 0.76445 0.40811 0.11617 0.0
C634 C 0.7678 0.39394 0.11008 0.0
H635 H 0.78612 0.40318 0.07852 0.0
O636 O 0.81832 0.36437 0.09439 0.0
O637 O 0.79378 0.36587 0.09871 0.0
O638 O 0.80138 0.35741 0.06827 0.0
O639 O 0.78455 0.37642 0.07074 0.0
C640 C 0.75624 0.40894 0.12978 0.0
C641 C 0.75127 0.39562 0.13694 0.0
H642 H 0.74314 0.36761 0.14712 0.0
H643 H 0.74922 0.34365 0.13402 0.0
H644 H 0.78037 0.4289 0.08825 0.0
H645 H 0.76626 0.43206 0.11204 0.0
H646 H 0.75357 0.41976 0.13475 0.0
H647 H 0.74499 0.39637 0.14742 0.0
Mn648 Mn -0.00012 0.56513 0.30284 0.0
Mn649 Mn 0.96732 0.54653 0.30608 0.0
C650 C 0.97815 0.57633 0.31211 0.0
C651 C 0.02185 0.57441 0.31297 0.0
C652 C 0.97831 0.55953 0.27657 0.0
O653 O 0.00714 0.5433 0.30238 0.0
O654 O 0.98408 0.53238 0.30207 0.0
C655 C 0.97471 0.54178 0.3383 0.0
N656 N 0.96628 0.53827 0.32604 0.0
C657 C 0.95344 0.51866 0.3398 0.0
C658 C 0.9615 0.52254 0.35275 0.0
C659 C 0.9723 0.53405 0.35195 0.0
C660 C 0.9564 0.52671 0.32651 0.0
H661 H 0.98327 0.55038 0.33765 0.0
C662 C 0.99853 0.5318 0.30186 0.0
O663 O 0.02019 0.57359 0.29845 0.0
O664 O 0.01131 0.56871 0.32137 0.0
N665 N 0.95331 0.53111 0.30083 0.0
C666 C 0.94645 0.52875 0.28734 0.0
C667 C 0.9351 0.51783 0.28633 0.0
C668 C 0.93128 0.5091 0.299 0.0
C669 C 0.93854 0.51165 0.31273 0.0
C670 C 0.94948 0.52298 0.31319 0.0
H671 H 0.94919 0.53554 0.27758 0.0
O672 O 0.98854 0.58476 0.30617 0.0
O673 O 0.98083 0.56205 0.31225 0.0
O674 O 0.9913 0.56326 0.28142 0.0
O675 O 0.96793 0.5542 0.28509 0.0
C676 C 0.93512 0.50362 0.32605 0.0
C677 C 0.94268 0.50702 0.33955 0.0
H678 H 0.95965 0.51662 0.36331 0.0
H679 H 0.9788 0.53691 0.36181 0.0
H680 H 0.92913 0.51632 0.27587 0.0
H681 H 0.92262 0.5006 0.29809 0.0
H682 H 0.92674 0.49477 0.32601 0.0
H683 H 0.94008 0.50066 0.34968 0.0
Mn684 Mn 0.67741 0.69352 0.51612 0.0
Mn685 Mn 0.71244 0.67589 0.51671 0.0
C686 C 0.68143 0.67503 0.53437 0.0
C687 C 0.66478 0.71521 0.52331 0.0
C688 C 0.68624 0.6694 0.49457 0.0
O689 O 0.69105 0.70634 0.50294 0.0
O690 O 0.71412 0.69621 0.50716 0.0
C691 C 0.74964 0.69262 0.52925 0.0
N692 N 0.73886 0.68179 0.52916 0.0
C693 C 0.757 0.66507 0.54747 0.0
C694 C 0.76698 0.67717 0.54639 0.0
C695 C 0.76334 0.69038 0.53761 0.0
C696 C 0.74225 0.66792 0.53763 0.0
H697 H 0.74795 0.70291 0.52286 0.0
C698 C 0.70539 0.70657 0.50195 0.0
O699 O 0.66004 0.70735 0.51195 0.0
O700 O 0.67636 0.71019 0.53061 0.0
N701 N 0.70963 0.65068 0.52761 0.0
C702 C 0.70108 0.63849 0.52428 0.0
C703 C 0.70359 0.62429 0.53161 0.0
C704 C 0.71529 0.62143 0.54227 0.0
C705 C 0.72556 0.63267 0.54595 0.0
C706 C 0.72273 0.64802 0.53684 0.0
H707 H 0.69212 0.6396 0.51617 0.0
O708 O 0.66787 0.67955 0.53119 0.0
O709 O 0.69226 0.68181 0.52676 0.0
O710 O 0.67553 0.67782 0.49926 0.0
O711 O 0.69922 0.66894 0.50055 0.0
C712 C 0.74146 0.63093 0.55622 0.0
C713 C 0.75883 0.64852 0.55698 0.0
H714 H 0.7777 0.67643 0.552 0.0
H715 H 0.77162 0.69929 0.53717 0.0
H716 H 0.69621 0.61507 0.52879 0.0
H717 H 0.71657 0.61027 0.54707 0.0
H718 H 0.74225 0.61931 0.56068 0.0
H719 H 0.75138 0.64039 0.55689 0.0
Mn720 Mn 0.10381 0.9534 0.31769 0.0
Mn721 Mn 0.10912 0.99094 0.31416 0.0
C722 C 0.12421 0.96427 0.32916 0.0
C723 C 0.0939 0.93194 0.32818 0.0
C724 C 0.12009 0.96869 0.29101 0.0
O725 O 0.08341 0.9602 0.30982 0.0
O726 O 0.08926 0.98452 0.3066 0.0
C727 C 0.08573 0.99811 0.33704 0.0
N728 N 0.0999 3e-05 0.33141 0.0
C729 C 0.10508 0.01938 0.34949 0.0
C730 C 0.09039 0.01792 0.3552 0.0
C731 C 0.08073 0.00708 0.34908 0.0
C732 C 0.10952 0.00982 0.33774 0.0
H733 H 0.07835 0.98974 0.33244 0.0
C734 C 0.08015 0.97351 0.30572 0.0
O735 O 0.09814 0.93251 0.31422 0.0
O736 O 0.09464 0.94419 0.33612 0.0
N737 N 0.12729 0.00028 0.32082 0.0
C738 C 0.14083 0.00089 0.31352 0.0
C739 C 0.15152 0.01163 0.31787 0.0
C740 C 0.14799 0.02205 0.32916 0.0
C741 C 0.13413 0.02118 0.33662 0.0
C742 C 0.1239 0.01024 0.33188 0.0
H743 H 0.14332 0.99336 0.30432 0.0
O744 O 0.12386 0.94995 0.32649 0.0
O745 O 0.11211 0.97208 0.32587 0.0
O746 O 0.11389 0.95733 0.29727 0.0
O747 O 0.1193 0.98208 0.29625 0.0
C748 C 0.12988 0.0311 0.34825 0.0
C749 C 0.11542 0.03007 0.35483 0.0
H750 H 0.08643 0.02502 0.36431 0.0
H751 H 0.06943 0.00573 0.35353 0.0
H752 H 0.16247 0.01206 0.31261 0.0
H753 H 0.15606 0.03066 0.33206 0.0
H754 H 0.13763 0.03962 0.35216 0.0
H755 H 0.11227 0.03772 0.36379 0.0
Mn756 Mn 0.17279 0.90602 0.52813 0.0
Mn757 Mn 0.20592 0.92539 0.5159 0.0
C758 C 0.17641 0.91067 0.50146 0.0
C759 C 0.16152 0.88287 0.5336 0.0
C760 C 0.17933 0.93521 0.53204 0.0
O761 O 0.18901 0.90278 0.54426 0.0
O762 O 0.2107 0.91255 0.53395 0.0
C763 C 0.24819 0.91671 0.51111 0.0
N764 N 0.23445 0.92197 0.50676 0.0
C765 C 0.24795 0.93013 0.47934 0.0
C766 C 0.2613 0.92435 0.48609 0.0
C767 C 0.26116 0.91797 0.50117 0.0
C768 C 0.23434 0.92872 0.49173 0.0
H769 H 0.24949 0.9117 0.52216 0.0
C770 C 0.20348 0.90417 0.5436 0.0
O771 O 0.15698 0.89525 0.53987 0.0
O772 O 0.17272 0.88387 0.5242 0.0
N773 N 0.19739 0.93868 0.49323 0.0
C774 C 0.18533 0.94774 0.49067 0.0
C775 C 0.18385 0.95538 0.47671 0.0
C776 C 0.19468 0.95442 0.46494 0.0
C777 C 0.20833 0.9466 0.46676 0.0
C778 C 0.21009 0.93904 0.48278 0.0
H779 H 0.17661 0.94879 0.49917 0.0
O780 O 0.16304 0.90881 0.50733 0.0
O781 O 0.1872 0.91155 0.51171 0.0
O782 O 0.1683 0.92795 0.53682 0.0
O783 O 0.18615 0.92763 0.52255 0.0
C784 C 0.222 0.94776 0.4543 0.0
C785 C 0.24025 0.94087 0.45706 0.0
H786 H 0.272 0.92488 0.48029 0.0
H787 H 0.2718 0.9138 0.50547 0.0
H788 H 0.17383 0.96213 0.47484 0.0
H789 H 0.19259 0.9605 0.45455 0.0
H790 H 0.2169 0.95507 0.44398 0.0
H791 H 0.23088 0.94504 0.45417 0.0
Mn792 Mn 0.9381 0.42323 0.26913 0.0
Mn793 Mn 0.92471 0.45961 0.2602 0.0
C794 C 0.92889 0.42597 0.24422 0.0
C795 C 0.95988 0.40848 0.27144 0.0
C796 C 0.90803 0.43562 0.27943 0.0
O797 O 0.94634 0.43823 0.28444 0.0
O798 O 0.93783 0.46173 0.2782 0.0
C799 C 0.94336 0.49715 0.25395 0.0
N800 N 0.9394 0.48372 0.24795 0.0
C801 C 0.92824 0.49962 0.22399 0.0
C802 C 0.93394 0.51239 0.23165 0.0
C803 C 0.94174 0.51087 0.24561 0.0
C804 C 0.93411 0.48371 0.23212 0.0
H805 H 0.94709 0.49748 0.26552 0.0
C806 C 0.94579 0.45256 0.28621 0.0
O807 O 0.94813 0.40605 0.27992 0.0
O808 O 0.9589 0.41937 0.26171 0.0
N809 N 0.91146 0.45244 0.23896 0.0
C810 C 0.89775 0.44587 0.24073 0.0
C811 C 0.88687 0.44682 0.22967 0.0
C812 C 0.88882 0.456 0.21717 0.0
C813 C 0.90149 0.46527 0.21543 0.0
C814 C 0.91592 0.46199 0.22602 0.0
H815 H 0.89516 0.43973 0.25091 0.0
O816 O 0.93031 0.41269 0.25027 0.0
O817 O 0.93187 0.437 0.25405 0.0
O818 O 0.91718 0.42442 0.27948 0.0
O819 O 0.91054 0.44802 0.27258 0.0
C820 C 0.89738 0.48119 0.20813 0.0
C821 C 0.90713 0.49658 0.20991 0.0
H822 H 0.93117 0.52368 0.22793 0.0
H823 H 0.94526 0.52115 0.25106 0.0
H824 H 0.87631 0.44092 0.23122 0.0
H825 H 0.87921 0.45735 0.20979 0.0
H826 H 0.8844 0.48191 0.20626 0.0
H827 H 0.90345 0.48857 0.20225 0.0
Mn828 Mn 0.61912 0.60308 0.7747 0.0
Mn829 Mn 0.6401 0.56982 0.76326 0.0
C830 C 0.62759 0.60002 0.7495 0.0
C831 C 0.59718 0.61746 0.77647 0.0
C832 C 0.6515 0.59473 0.78018 0.0
O833 O 0.61083 0.58809 0.78996 0.0
O834 O 0.62009 0.57873 0.76977 0.0
C835 C 0.6279 0.53224 0.77122 0.0
N836 N 0.62897 0.54308 0.76044 0.0
C837 C 0.63833 0.52161 0.74179 0.0
C838 C 0.63555 0.5117 0.75368 0.0
C839 C 0.62995 0.51685 0.7677 0.0
C840 C 0.63176 0.53883 0.74426 0.0
H841 H 0.62644 0.53549 0.78287 0.0
C842 C 0.61377 0.5763 0.78262 0.0
O843 O 0.60874 0.62056 0.78488 0.0
O844 O 0.59859 0.60639 0.7672 0.0
N845 N 0.64804 0.57398 0.73724 0.0
C846 C 0.66071 0.58221 0.73488 0.0
C847 C 0.67093 0.57879 0.72359 0.0
C848 C 0.66998 0.56559 0.71544 0.0
C849 C 0.65807 0.55538 0.7171 0.0
C850 C 0.64429 0.56013 0.7284 0.0
H851 H 0.66342 0.59126 0.74248 0.0
O852 O 0.62691 0.61318 0.75584 0.0
O853 O 0.6251 0.58829 0.75865 0.0
O854 O 0.63996 0.60158 0.78548 0.0
O855 O 0.65094 0.58868 0.76734 0.0
C856 C 0.6632 0.53778 0.71587 0.0
C857 C 0.65267 0.51857 0.72959 0.0
H858 H 0.63935 0.50016 0.75276 0.0
H859 H 0.62886 0.50871 0.77677 0.0
H860 H 0.68084 0.58575 0.72226 0.0
H861 H 0.67992 0.56241 0.70905 0.0
H862 H 0.67544 0.53764 0.71412 0.0
H863 H 0.658 0.50753 0.73106 0.0
Mn864 Mn 0.49295 0.82301 0.74079 0.0
Mn865 Mn 0.48165 0.79317 0.72255 0.0
C866 C 0.47422 0.82903 0.72233 0.0
C867 C 0.48993 0.83483 0.76396 0.0
C868 C 0.51282 0.80819 0.71944 0.0
O869 O 0.5025 0.80388 0.75091 0.0
O870 O 0.48202 0.79311 0.74463 0.0
C871 C 0.4523 0.78523 0.73586 0.0
N872 N 0.46039 0.78962 0.72346 0.0
C873 C 0.43801 0.78949 0.70826 0.0
C874 C 0.42956 0.78532 0.721 0.0
C875 C 0.43674 0.78309 0.73481 0.0
C876 C 0.45372 0.79132 0.70993 0.0
H877 H 0.45763 0.78317 0.74657 0.0
C878 C 0.49435 0.7922 0.7514 0.0
O879 O 0.50249 0.83568 0.75642 0.0
O880 O 0.47931 0.82665 0.75829 0.0
N881 N 0.48042 0.79298 0.70085 0.0
C882 C 0.49495 0.79375 0.69021 0.0
C883 C 0.49332 0.79854 0.67144 0.0
C884 C 0.46413 0.80269 0.66609 0.0
C885 C 0.45424 0.79912 0.6819 0.0
C886 C 0.46301 0.79466 0.69793 0.0
H887 H 0.50598 0.79111 0.69441 0.0
O888 O 0.48164 0.83922 0.72948 0.0
O889 O 0.47868 0.8152 0.7254 0.0
O890 O 0.50919 0.82107 0.72476 0.0
O891 O 0.50418 0.79655 0.72076 0.0
C892 C 0.43887 0.7961 0.68133 0.0
C893 C 0.43097 0.79147 0.69421 0.0
H894 H 0.41749 0.78366 0.72029 0.0
H895 H 0.43029 0.77966 0.74463 0.0
H896 H 0.50317 0.79825 0.66399 0.0
H897 H 0.45805 0.80277 0.65586 0.0
H898 H 0.43298 0.7966 0.67076 0.0
H899 H 0.41898 0.78941 0.69316 0.0
Mn900 Mn 0.42554 0.27349 0.93855 0.0
Mn901 Mn 0.46233 0.26289 0.92819 0.0
C902 C 0.4279 0.24833 0.92999 0.0
C903 C 0.40891 0.27656 0.95883 0.0
C904 C 0.44111 0.28381 0.91005 0.0
O905 O 0.44051 0.28825 0.94793 0.0
O906 O 0.46437 0.28007 0.94243 0.0
C907 C 0.49919 0.25404 0.947 0.0
N908 N 0.48549 0.24887 0.94266 0.0
C909 C 0.50054 0.22476 0.93055 0.0
C910 C 0.51351 0.23141 0.93696 0.0
C911 C 0.51244 0.24495 0.94551 0.0
C912 C 0.48487 0.23332 0.93657 0.0
H913 H 0.50018 0.2655 0.95098 0.0
C914 C 0.4549 0.28876 0.94936 0.0
O915 O 0.40776 0.28486 0.94676 0.0
O916 O 0.41967 0.26665 0.9591 0.0
N917 N 0.45447 0.24267 0.91371 0.0
C918 C 0.44823 0.24539 0.9 0.0
C919 C 0.44893 0.23488 0.88859 0.0
C920 C 0.45747 0.2219 0.89009 0.0
C921 C 0.46637 0.21911 0.90283 0.0
C922 C 0.46328 0.22911 0.91772 0.0
H923 H 0.44245 0.25586 0.8979 0.0
O924 O 0.41489 0.25508 0.93007 0.0
O925 O 0.43917 0.25757 0.93397 0.0
O926 O 0.42877 0.28361 0.91759 0.0
O927 O 0.45284 0.27656 0.91387 0.0
C928 C 0.48202 0.21134 0.89863 0.0
C929 C 0.49727 0.21193 0.90871 0.0
H930 H 0.52467 0.22722 0.93437 0.0
H931 H 0.52282 0.24944 0.94988 0.0
H932 H 0.44329 0.23722 0.87803 0.0
H933 H 0.45868 0.21495 0.88015 0.0
H934 H 0.48294 0.2101 0.88559 0.0
H935 H 0.48899 0.20483 0.90452 0.0
Mn936 Mn 0.98933 0.18344 0.20756 0.0
Mn937 Mn 0.01048 0.21444 0.20339 0.0
C938 C 0.00703 0.18348 0.18817 0.0
C939 C 0.98668 0.16067 0.2201 0.0
C940 C 0.97777 0.21212 0.19361 0.0
O941 O 0.9855 0.19542 0.22683 0.0
O942 O 0.00518 0.21115 0.22476 0.0
C943 C 0.03786 0.20501 0.21996 0.0
N944 N 0.03132 0.21068 0.20727 0.0
C945 C 0.05552 0.21449 0.19549 0.0
C946 C 0.06252 0.20872 0.20844 0.0
C947 C 0.05364 0.20388 0.22069 0.0
C948 C 0.03973 0.21509 0.19532 0.0
H949 H 0.03107 0.20137 0.22944 0.0
C950 C 0.99473 0.20479 0.23238 0.0
O951 O 0.97501 0.16718 0.21404 0.0
O952 O -0.00058 0.16765 0.21938 0.0
N953 N 0.01681 0.21957 0.18332 0.0
C954 C 0.00849 0.22658 0.17243 0.0
C955 C 0.01572 0.23339 0.16008 0.0
C956 C 0.03147 0.23278 0.1589 0.0
C957 C 0.03987 0.22595 0.17033 0.0
C958 C 0.03207 0.21997 0.18273 0.0
H959 H 0.99649 0.22773 0.17345 0.0
O960 O 0.99626 0.1737 0.18871 0.0
O961 O 0.00747 0.19286 0.19945 0.0
O962 O 0.97622 0.19789 0.19515 0.0
O963 O 0.98907 0.21941 0.19873 0.0
C964 C 0.05574 0.22555 0.17025 0.0
C965 C 0.06357 0.21963 0.18275 0.0
H966 H 0.07469 0.20794 0.20908 0.0
H967 H 0.05897 0.19938 0.23071 0.0
H968 H 0.00919 0.23908 0.15149 0.0
H969 H 0.03703 0.2379 0.14935 0.0
H970 H 0.06203 0.22995 0.1607 0.0
H971 H 0.07578 0.21935 0.18255 0.0
Mn972 Mn 0.07969 0.78467 0.49971 0.0
Mn973 Mn 0.05248 0.78188 0.47335 0.0
C974 C 0.08588 0.78878 0.47453 0.0
C975 C 0.09275 0.79966 0.51654 0.0
C976 C 0.06709 0.75496 0.48887 0.0
O977 O 0.06036 0.78602 0.51233 0.0
O978 O 0.04383 0.78659 0.49315 0.0
C979 C 0.04091 0.81322 0.47278 0.0
N980 N 0.04657 0.80103 0.46538 0.0
C981 C 0.04112 0.81226 0.44127 0.0
C982 C 0.03527 0.82497 0.44862 0.0
C983 C 0.03526 0.8255 0.46445 0.0
C984 C 0.04696 0.80056 0.45017 0.0
H985 H 0.04056 0.81349 0.48494 0.0
C986 C 0.04706 0.78737 0.50712 0.0
O987 O 0.09271 0.78508 0.51807 0.0
O988 O 0.08489 0.80538 0.50566 0.0
N989 N 0.05885 0.77728 0.45324 0.0
C990 C 0.06419 0.76389 0.4479 0.0
C991 C 0.06361 0.76096 0.43237 0.0
C992 C 0.05748 0.77174 0.4225 0.0
C993 C 0.05266 0.78569 0.42814 0.0
C994 C 0.0532 0.78786 0.44374 0.0
H995 H 0.06824 0.75524 0.45547 0.0
O996 O 0.09604 0.78503 0.48431 0.0
O997 O 0.07213 0.78985 0.47969 0.0
O998 O 0.07703 0.76188 0.49647 0.0
O999 O 0.05745 0.76156 0.48051 0.0
C1000 C 0.04673 0.79725 0.41893 0.0
C1001 C 0.04116 0.81062 0.42548 0.0
H1002 H 0.03065 0.83434 0.44224 0.0
H1003 H 0.03069 0.83523 0.47022 0.0
H1004 H 0.06766 0.75037 0.42796 0.0
H1005 H 0.05678 0.7693 0.41058 0.0
H1006 H 0.04632 0.79593 0.40682 0.0
H1007 H 0.03668 0.81945 0.41829 0.0
Mn1008 Mn 0.52633 0.17579 0.9053 0.0
Mn1009 Mn 0.51425 0.2103 0.92077 0.0
C1010 C 0.5004 0.1773 0.91152 0.0
C1011 C 0.53191 0.16175 0.88371 0.0
C1012 C 0.53238 0.18561 0.93731 0.0
O1013 O 0.54181 0.19196 0.8996 0.0
O1014 O 0.53316 0.21425 0.90916 0.0
C1015 C 0.50918 0.24963 0.9064 0.0
N1016 N 0.503 0.23571 0.90796 0.0
C1017 C 0.47786 0.25021 0.91884 0.0
C1018 C 0.48575 0.2636 0.91524 0.0
C1019 C 0.50046 0.26303 0.9087 0.0
C1020 C 0.48668 0.23504 0.91184 0.0
H1021 H 0.52114 0.2506 0.90418 0.0
C1022 C 0.54221 0.20639 0.90083 0.0
O1023 O 0.53881 0.15927 0.89636 0.0
O1024 O 0.52202 0.17256 0.88355 0.0
N1025 N 0.49153 0.20135 0.93144 0.0
C1026 C 0.49187 0.19331 0.9445 0.0
C1027 C 0.47958 0.19295 0.9542 0.0
C1028 C 0.46724 0.20235 0.95204 0.0
C1029 C 0.46679 0.21298 0.94033 0.0
C1030 C 0.4789 0.2114 0.92681 0.0
H1031 H 0.50184 0.18698 0.94744 0.0
O1032 O 0.50713 0.16432 0.91042 0.0
O1033 O 0.50995 0.18897 0.90982 0.0
O1034 O 0.53395 0.17547 0.9273 0.0
O1035 O 0.52534 0.1979 0.93515 0.0
C1036 C 0.45912 0.22819 0.94525 0.0
C1037 C 0.46184 0.24434 0.93825 0.0
H1038 H 0.4816 0.27447 0.91888 0.0
H1039 H 0.50596 0.2737 0.90676 0.0
H1040 H 0.48006 0.18591 0.96419 0.0
H1041 H 0.45892 0.20276 0.96103 0.0
H1042 H 0.45322 0.22823 0.95598 0.0
H1043 H 0.4593 0.25248 0.94722 0.0
Mn1044 Mn 0.06773 0.22734 0.08175 0.0
Mn1045 Mn 0.03139 0.22578 0.09318 0.0
C1046 C 0.06024 0.20758 0.09708 0.0
C1047 C 0.08462 0.22432 0.06208 0.0
C1048 C 0.05528 0.24419 0.10945 0.0
O1049 O 0.05784 0.24369 0.06898 0.0
O1050 O 0.03411 0.24041 0.07666 0.0
C1051 C 0.02188 0.212 0.06445 0.0
N1052 N 0.02168 0.21212 0.07979 0.0
C1053 C 0.00467 0.19113 0.08064 0.0
C1054 C 0.00433 0.19106 0.06485 0.0
C1055 C 0.01316 0.20142 0.05671 0.0
C1056 C 0.01399 0.20164 0.08768 0.0
H1057 H 0.02876 0.21983 0.05819 0.0
C1058 C 0.0439 0.24656 0.06818 0.0
O1059 O 0.08728 0.23361 0.07301 0.0
O1060 O 0.07257 0.21611 0.06308 0.0
N1061 N 0.02508 0.21227 0.10884 0.0
C1062 C 0.02552 0.21476 0.12395 0.0
C1063 C 0.01634 0.2062 0.13365 0.0
C1064 C 0.0064 0.19555 0.12775 0.0
C1065 C 0.00613 0.19306 0.11225 0.0
C1066 C 0.01539 0.20203 0.10309 0.0
H1067 H 0.03265 0.2234 0.12843 0.0
O1068 O 0.07441 0.21017 0.09456 0.0
O1069 O 0.05072 0.21557 0.08916 0.0
O1070 O 0.06626 0.24074 0.10062 0.0
O1071 O 0.04166 0.2396 0.10755 0.0
C1072 C 0.99647 0.18254 0.1055 0.0
C1073 C 0.99594 0.18138 0.08968 0.0
H1074 H 0.99738 0.18308 0.05887 0.0
H1075 H 0.01315 0.20131 0.04451 0.0
H1076 H 0.01685 0.20767 0.14568 0.0
H1077 H -0.00101 0.18934 0.13525 0.0
H1078 H 0.98931 0.17538 0.11237 0.0
H1079 H 0.98852 0.17322 0.08459 0.0
Mn1080 Mn 0.08789 0.80618 0.34575 0.0
Mn1081 Mn 0.08933 0.77586 0.36865 0.0
C1082 C 0.09653 0.8091 0.37001 0.0
C1083 C 0.09761 0.82326 0.32882 0.0
C1084 C 0.06112 0.79437 0.36481 0.0
O1085 O 0.08576 0.78937 0.33054 0.0
O1086 O 0.08419 0.77079 0.34763 0.0
C1087 C 0.11661 0.76376 0.35337 0.0
N1088 N 0.10909 0.76742 0.36628 0.0
C1089 C 0.1291 0.75733 0.38153 0.0
C1090 C 0.13687 0.75307 0.36841 0.0
C1091 C 0.13067 0.75647 0.35426 0.0
C1092 C 0.11524 0.76477 0.3799 0.0
H1093 H 0.11197 0.76646 0.34251 0.0
C1094 C 0.08372 0.77569 0.3341 0.0
O1095 O 0.08318 0.82121 0.33009 0.0
O1096 O 0.10642 0.81392 0.33592 0.0
N1097 N 0.09436 0.77761 0.38948 0.0
C1098 C 0.08566 0.78278 0.40105 0.0
C1099 C 0.09043 0.78039 0.41595 0.0
C1100 C 0.10362 0.77214 0.41886 0.0
C1101 C 0.11244 0.76703 0.40684 0.0
C1102 C 0.10728 0.76986 0.39221 0.0
H1103 H 0.07527 0.78879 0.39888 0.0
O1104 O 0.09141 0.82037 0.36226 0.0
O1105 O 0.09711 0.79603 0.36316 0.0
O1106 O 0.06648 0.8024 0.35404 0.0
O1107 O 0.06878 0.78426 0.37178 0.0
C1108 C 0.12617 0.75922 0.40881 0.0
C1109 C 0.13457 0.75448 0.39615 0.0
H1110 H 0.14766 0.74733 0.36907 0.0
H1111 H 0.13667 0.75342 0.34406 0.0
H1112 H 0.08408 0.78501 0.42525 0.0
H1113 H 0.10702 0.77001 0.43038 0.0
H1114 H 0.13042 0.75691 0.42001 0.0
H1115 H 0.14519 0.74864 0.39778 0.0
Mn1116 Mn 0.45033 0.79274 0.60626 0.0
Mn1117 Mn 0.48305 0.79641 0.62552 0.0
C1118 C 0.44891 0.80623 0.62865 0.0
C1119 C 0.43211 0.80082 0.58959 0.0
C1120 C 0.46627 0.76687 0.62242 0.0
O1121 O 0.4662 0.78954 0.58988 0.0
O1122 O 0.48668 0.79523 0.60358 0.0
C1123 C 0.49478 0.825 0.61371 0.0
N1124 N 0.48963 0.81694 0.62583 0.0
C1125 C 0.49372 0.83811 0.64214 0.0
C1126 C 0.49896 0.84645 0.62972 0.0
C1127 C 0.49948 0.83988 0.61549 0.0
C1128 C 0.48909 0.82309 0.63972 0.0
H1129 H 0.49543 0.82017 0.60266 0.0
C1130 C 0.4802 0.79224 0.59113 0.0
O1131 O 0.43405 0.78661 0.59247 0.0
O1132 O 0.44176 0.81018 0.5952 0.0
N1133 N 0.48164 0.79693 0.6473 0.0
C1134 C 0.47827 0.78223 0.65721 0.0
C1135 C 0.47503 0.78349 0.67636 0.0
C1136 C 0.47749 0.81252 0.68359 0.0
C1137 C 0.48217 0.82246 0.66807 0.0
C1138 C 0.48388 0.81403 0.65129 0.0
H1139 H 0.47768 0.77129 0.65223 0.0
O1140 O 0.43758 0.79868 0.62357 0.0
O1141 O 0.46181 0.80418 0.62141 0.0
O1142 O 0.45469 0.77208 0.6158 0.0
O1143 O 0.47756 0.77501 0.62563 0.0
C1144 C 0.488 0.83691 0.66925 0.0
C1145 C 0.49344 0.84458 0.65658 0.0
H1146 H 0.50269 0.85799 0.63101 0.0
H1147 H 0.50357 0.84626 0.60588 0.0
H1148 H 0.47334 0.77335 0.6832 0.0
H1149 H 0.47856 0.81795 0.6943 0.0
H1150 H 0.48903 0.84213 0.68013 0.0
H1151 H 0.49765 0.85592 0.65813 0.0
Mn1152 Mn 0.74088 0.49185 0.81824 0.0
Mn1153 Mn 0.7201 0.48415 0.78768 0.0
C1154 C 0.72116 0.47483 0.82283 0.0
C1155 C 0.7632 0.48752 0.83123 0.0
C1156 C 0.72006 0.51414 0.80434 0.0
O1157 O 0.75264 0.50009 0.8 0.0
O1158 O 0.74164 0.48575 0.78282 0.0
C1159 C 0.73272 0.45553 0.77683 0.0
N1160 N 0.72062 0.46321 0.78259 0.0
C1161 C 0.70555 0.44074 0.78207 0.0
C1162 C 0.71797 0.43276 0.77632 0.0
C1163 C 0.73157 0.44018 0.77366 0.0
C1164 C 0.70733 0.45626 0.78511 0.0
H1165 H 0.74332 0.46099 0.77452 0.0
C1166 C 0.75235 0.49415 0.78704 0.0
O1167 O 0.75633 0.50046 0.83171 0.0
O1168 O 0.75729 0.47717 0.82286 0.0
N1169 N 0.69849 0.48258 0.79 0.0
C1170 C 0.68775 0.49695 0.79173 0.0
C1171 C 0.66889 0.49487 0.79625 0.0
C1172 C 0.66372 0.46541 0.79835 0.0
C1173 C 0.67961 0.45593 0.79419 0.0
C1174 C 0.69562 0.4651 0.79032 0.0
H1175 H 0.69203 0.5082 0.7901 0.0
O1176 O 0.72806 0.48173 0.83358 0.0
O1177 O 0.7258 0.47849 0.80908 0.0
O1178 O 0.72614 0.5094 0.81645 0.0
O1179 O 0.71925 0.50619 0.79233 0.0
C1180 C 0.67898 0.44086 0.79 0.0
C1181 C 0.69168 0.43344 0.7843 0.0
H1182 H 0.71715 0.42087 0.77374 0.0
H1183 H 0.74114 0.43409 0.7691 0.0
H1184 H 0.66136 0.50465 0.79657 0.0
H1185 H 0.65349 0.45922 0.79786 0.0
H1186 H 0.66842 0.43491 0.79036 0.0
H1187 H 0.69055 0.42167 0.78133 0.0
Mn1188 Mn 0.78799 0.50441 0.07686 0.0
Mn1189 Mn 0.78882 0.47776 0.05013 0.0
C1190 C 0.79298 0.47961 0.08397 0.0
C1191 C 0.80144 0.52233 0.09015 0.0
C1192 C 0.76 0.49216 0.06204 0.0
O1193 O 0.78956 0.51658 0.05713 0.0
O1194 O 0.79448 0.49726 0.04142 0.0
C1195 C 0.82128 0.47696 0.04228 0.0
N1196 N 0.80857 0.46975 0.04702 0.0
C1197 C 0.82121 0.44572 0.04674 0.0
C1198 C 0.83447 0.45287 0.04195 0.0
C1199 C 0.8345 0.46856 0.0397 0.0
C1200 C 0.80841 0.45468 0.04917 0.0
H1201 H 0.8213 0.489 0.04042 0.0
C1202 C 0.79349 0.51129 0.04434 0.0
O1203 O 0.78681 0.52308 0.08946 0.0
O1204 O 0.80809 0.51166 0.08278 0.0
N1205 N 0.7835 0.45807 0.05693 0.0
C1206 C 0.7696 0.45283 0.06087 0.0
C1207 C 0.76716 0.43728 0.0617 0.0
C1208 C 0.77907 0.42729 0.05871 0.0
C1209 C 0.7935 0.43291 0.05567 0.0
C1210 C 0.79505 0.44848 0.05414 0.0
H1211 H 0.76024 0.46039 0.06262 0.0
O1212 O 0.78841 0.48943 0.09374 0.0
O1213 O 0.79457 0.48464 0.07023 0.0
O1214 O 0.76563 0.49944 0.07303 0.0
O1215 O 0.76793 0.48501 0.05239 0.0
C1216 C 0.80633 0.42371 0.0538 0.0
C1217 C 0.8202 0.4301 0.04936 0.0
H1218 H 0.84468 0.44641 0.03993 0.0
H1219 H 0.84467 0.47416 0.03593 0.0
H1220 H 0.7561 0.43294 0.06438 0.0
H1221 H 0.77688 0.41536 0.05877 0.0
H1222 H 0.80579 0.41178 0.05613 0.0
H1223 H 0.82996 0.42286 0.0479 0.0
Mn1224 Mn 0.85036 0.55344 0.31129 0.0
Mn1225 Mn 0.87768 0.55548 0.28483 0.0
C1226 C 0.87441 0.56142 0.31751 0.0
C1227 C 0.83162 0.56247 0.32701 0.0
C1228 C 0.86784 0.52616 0.29905 0.0
O1229 O 0.83767 0.55444 0.2922 0.0
O1230 O 0.85734 0.55427 0.27597 0.0
C1231 C 0.86974 0.58557 0.27229 0.0
N1232 N 0.88016 0.57577 0.2779 0.0
C1233 C 0.9004 0.59278 0.27188 0.0
C1234 C 0.88992 0.6029 0.26567 0.0
C1235 C 0.87449 0.59936 0.26606 0.0
C1236 C 0.89495 0.57932 0.27807 0.0
H1237 H 0.85794 0.58289 0.27265 0.0
C1238 C 0.84319 0.55432 0.27891 0.0
O1239 O 0.83276 0.54827 0.32382 0.0
O1240 O 0.84051 0.5717 0.31984 0.0
N1241 N 0.89798 0.55699 0.29152 0.0
C1242 C 0.90609 0.54718 0.30008 0.0
C1243 C 0.92136 0.5501 0.30264 0.0
C1244 C 0.92846 0.56222 0.2953 0.0
C1245 C 0.91985 0.57216 0.28648 0.0
C1246 C 0.90442 0.56929 0.28522 0.0
H1247 H 0.90078 0.53761 0.30542 0.0
O1248 O 0.86586 0.55494 0.32749 0.0
O1249 O 0.86903 0.56258 0.30397 0.0
O1250 O 0.85695 0.53182 0.30648 0.0
O1251 O 0.87678 0.53406 0.291 0.0
C1252 C 0.92579 0.5851 0.27938 0.0
C1253 C 0.91604 0.59552 0.27226 0.0
H1254 H 0.89356 0.6135 0.26078 0.0
H1255 H 0.86629 0.60719 0.26149 0.0
H1256 H 0.92751 0.54312 0.31045 0.0
H1257 H 0.94037 0.56412 0.29701 0.0
H1258 H 0.93775 0.58741 0.27977 0.0
H1259 H 0.92066 0.6057 0.26731 0.0
Mn1260 Mn 0.77142 0.61724 0.6022 0.0
Mn1261 Mn 0.75944 0.62893 0.56826 0.0
C1262 C 0.74691 0.62691 0.59951 0.0
C1263 C 0.77302 0.59673 0.61839 0.0
C1264 C 0.7841 0.64465 0.58677 0.0
O1265 O 0.78603 0.60725 0.58694 0.0
O1266 O 0.77328 0.61177 0.56529 0.0
C1267 C 0.76688 0.62634 0.52582 0.0
N1268 N 0.75946 0.63201 0.53788 0.0
C1269 C 0.74264 0.64902 0.51818 0.0
C1270 C 0.75139 0.64207 0.50709 0.0
C1271 C 0.76304 0.63132 0.51092 0.0
C1272 C 0.74733 0.64355 0.53446 0.0
H1273 H 0.77576 0.61811 0.52745 0.0
C1274 C 0.78358 0.60505 0.57287 0.0
O1275 O 0.78198 0.60816 0.61997 0.0
O1276 O 0.76355 0.59712 0.60738 0.0
N1277 N 0.7393 0.65053 0.57303 0.0
C1278 C 0.73798 0.66133 0.58379 0.0
C1279 C 0.7287 0.67437 0.58145 0.0
C1280 C 0.72086 0.67779 0.56778 0.0
C1281 C 0.72177 0.66835 0.55519 0.0
C1282 C 0.7338 0.65545 0.55784 0.0
H1283 H 0.74438 0.66029 0.59408 0.0
O1284 O 0.75283 0.62636 0.61285 0.0
O1285 O 0.75615 0.62308 0.58888 0.0
O1286 O 0.78166 0.63792 0.59935 0.0
O1287 O 0.77817 0.64073 0.57431 0.0
C1288 C 0.71719 0.673 0.53744 0.0
C1289 C 0.7292 0.66245 0.51647 0.0
H1290 H 0.74923 0.64488 0.49546 0.0
H1291 H 0.76958 0.6265 0.50196 0.0
H1292 H 0.72795 0.68247 0.59049 0.0
H1293 H 0.71482 0.68838 0.5669 0.0
H1294 H 0.7135 0.68471 0.53751 0.0
H1295 H 0.72833 0.66683 0.50498 0.0
Mn1296 Mn 0.68841 0.51762 0.6802 0.0
Mn1297 Mn 0.66715 0.51702 0.71366 0.0
C1298 C 0.66869 0.53529 0.68165 0.0
C1299 C 0.71127 0.52604 0.67066 0.0
C1300 C 0.6651 0.49458 0.68665 0.0
O1301 O 0.7 0.50494 0.69541 0.0
O1302 O 0.68788 0.50922 0.71747 0.0
C1303 C 0.67987 0.5357 0.75092 0.0
N1304 N 0.67053 0.53338 0.73909 0.0
C1305 C 0.65058 0.55378 0.75248 0.0
C1306 C 0.66174 0.55461 0.76385 0.0
C1307 C 0.67553 0.54584 0.76293 0.0
C1308 C 0.6562 0.54155 0.74013 0.0
H1309 H 0.69049 0.52968 0.75151 0.0
C1310 C 0.69927 0.50457 0.70977 0.0
O1311 O 0.7048 0.51426 0.66494 0.0
O1312 O 0.70424 0.53299 0.6814 0.0
N1313 N 0.64183 0.52633 0.70816 0.0
C1314 C 0.63087 0.52101 0.6991 0.0
C1315 C 0.61642 0.52787 0.69899 0.0
C1316 C 0.61229 0.54006 0.70843 0.0
C1317 C 0.62208 0.54568 0.71936 0.0
C1318 C 0.63786 0.53735 0.71977 0.0
H1319 H 0.63332 0.51182 0.69157 0.0
O1320 O 0.67523 0.53238 0.66888 0.0
O1321 O 0.674 0.5272 0.69307 0.0
O1322 O 0.67398 0.50006 0.67668 0.0
O1323 O 0.66299 0.5003 0.69971 0.0
C1324 C 0.6166 0.55821 0.73184 0.0
C1325 C 0.62738 0.56386 0.74721 0.0
H1326 H 0.65996 0.56146 0.77371 0.0
H1327 H 0.68318 0.54679 0.77223 0.0
H1328 H 0.60813 0.52364 0.6912 0.0
H1329 H 0.60102 0.5447 0.70753 0.0
H1330 H 0.6039 0.5617 0.72837 0.0
H1331 H 0.62048 0.56181 0.73941 0.0
Mn1332 Mn 0.80914 0.43834 0.94463 0.0
Mn1333 Mn 0.78872 0.43897 0.97943 0.0
C1334 C 0.78566 0.42539 0.94661 0.0
C1335 C 0.81022 0.45331 0.923 0.0
C1336 C 0.81672 0.4236 0.96819 0.0
O1337 O 0.81644 0.45609 0.95813 0.0
O1338 O 0.7954 0.4594 0.97293 0.0
C1339 C 0.77574 0.46085 0.00092 0.0
N1340 N 0.77844 0.4463 0.99687 0.0
C1341 C 0.7646 0.43691 0.01831 0.0
C1342 C 0.76149 0.4518 0.02262 0.0
C1343 C 0.76722 0.46382 0.01398 0.0
C1344 C 0.77322 0.43465 0.00523 0.0
H1345 H 0.77993 0.4701 0.99415 0.0
C1346 C 0.80792 0.464 0.96699 0.0
O1347 O 0.82145 0.44462 0.92669 0.0
O1348 O 0.7987 0.45354 0.932 0.0
N1349 N 0.78355 0.41919 0.98665 0.0
C1350 C 0.78728 0.40541 0.9809 0.0
C1351 C 0.78388 0.3923 0.98915 0.0
C1352 C 0.77582 0.39336 0.00275 0.0
C1353 C 0.77161 0.40758 0.0082 0.0
C1354 C 0.7763 0.42033 6e-05 0.0
H1355 H 0.7929 0.40438 0.97015 0.0
O1356 O 0.79466 0.42298 0.93523 0.0
O1357 O 0.79212 0.43242 0.95776 0.0
O1358 O 0.82342 0.42257 0.95571 0.0
O1359 O 0.8044 0.43089 0.96686 0.0
C1360 C 0.76295 0.40959 0.02141 0.0
C1361 C 0.75923 0.42424 0.0263 0.0
H1362 H 0.75464 0.45414 0.03248 0.0
H1363 H 0.76492 0.47533 0.01729 0.0
H1364 H 0.78708 0.38136 0.98479 0.0
H1365 H 0.77275 0.38318 0.00881 0.0
H1366 H 0.75895 0.39994 0.02778 0.0
H1367 H 0.75221 0.42561 0.03621 0.0
Mn1368 Mn 0.90567 0.52717 0.17481 0.0
Mn1369 Mn 0.919 0.51377 0.20965 0.0
C1370 C 0.91177 0.50121 0.17563 0.0
C1371 C 0.88499 0.53364 0.16011 0.0
C1372 C 0.93682 0.53321 0.1869 0.0
O1373 O 0.89926 0.54212 0.19112 0.0
O1374 O 0.90697 0.53243 0.21373 0.0
C1375 C 0.9029 0.50679 0.24794 0.0
N1376 N 0.90508 0.5012 0.23385 0.0
C1377 C 0.9157 0.47558 0.24779 0.0
C1378 C 0.91139 0.48287 0.26133 0.0
C1379 C 0.90483 0.49761 0.26108 0.0
C1380 C 0.90929 0.48498 0.23267 0.0
H1381 H 0.90061 0.5187 0.24927 0.0
C1382 C 0.89954 0.54202 0.20559 0.0
O1383 O 0.89787 0.54032 0.15831 0.0
O1384 O 0.88409 0.52325 0.17042 0.0
N1385 N 0.9305 0.4917 0.20028 0.0
C1386 C 0.94395 0.49263 0.19295 0.0
C1387 C 0.95388 0.48054 0.19254 0.0
C1388 C 0.95146 0.46774 0.20124 0.0
C1389 C 0.93923 0.46662 0.21123 0.0
C1390 C 0.92557 0.47856 0.2095 0.0
H1391 H 0.94707 0.50295 0.18728 0.0
O1392 O 0.91137 0.50845 0.16288 0.0
O1393 O 0.90937 0.51026 0.18757 0.0
O1394 O 0.92754 0.53483 0.17609 0.0
O1395 O 0.93393 0.52569 0.19874 0.0
C1396 C 0.94354 0.45838 0.22631 0.0
C1397 C 0.93571 0.46026 0.24219 0.0
H1398 H 0.91456 0.47827 0.27216 0.0
H1399 H 0.90273 0.5029 0.27184 0.0
H1400 H 0.96421 0.4815 0.18606 0.0
H1401 H 0.96057 0.45957 0.20175 0.0
H1402 H 0.95439 0.45271 0.22665 0.0
H1403 H 0.9444 0.45774 0.25065 0.0
Mn1404 Mn 0.79303 0.60273 0.45025 0.0
Mn1405 Mn 0.79426 0.62274 0.48277 0.0
C1406 C 0.80397 0.62663 0.44871 0.0
C1407 C 0.80199 0.58614 0.43229 0.0
C1408 C 0.76557 0.61728 0.46509 0.0
O1409 O 0.79105 0.58617 0.4664 0.0
O1410 O 0.79362 0.60097 0.48661 0.0
C1411 C 0.82294 0.61182 0.49518 0.0
N1412 N 0.81466 0.62364 0.48972 0.0
C1413 C 0.83564 0.6404 0.49304 0.0
C1414 C 0.84425 0.62825 0.49843 0.0
C1415 C 0.83788 0.61394 0.49954 0.0
C1416 C 0.82062 0.6376 0.48862 0.0
H1417 H 0.81824 0.60074 0.49632 0.0
C1418 C 0.79222 0.5881 0.48055 0.0
O1419 O 0.78771 0.58831 0.43447 0.0
O1420 O 0.81125 0.59281 0.44139 0.0
N1421 N 0.79414 0.64443 0.48197 0.0
C1422 C 0.77893 0.65388 0.48014 0.0
C1423 C 0.77932 0.67323 0.4782 0.0
C1424 C 0.80817 0.68142 0.47941 0.0
C1425 C 0.81891 0.66607 0.48244 0.0
C1426 C 0.81117 0.64892 0.48359 0.0
H1427 H 0.76822 0.64835 0.47943 0.0
O1428 O 0.79737 0.62045 0.43734 0.0
O1429 O 0.80281 0.61921 0.46164 0.0
O1430 O 0.77162 0.61036 0.45415 0.0
O1431 O 0.77302 0.62205 0.47627 0.0
C1432 C 0.83355 0.66753 0.48776 0.0
C1433 C 0.84177 0.65498 0.49262 0.0
H1434 H 0.85581 0.62982 0.50198 0.0
H1435 H 0.84444 0.60456 0.50385 0.0
H1436 H 0.76884 0.67975 0.47775 0.0
H1437 H 0.81321 0.69212 0.48163 0.0
H1438 H 0.83849 0.67855 0.48892 0.0
H1439 H 0.85316 0.6568 0.49656 0.0
Mn1440 Mn 0.81505 0.7426 0.49213 0.0
Mn1441 Mn 0.78527 0.71891 0.48756 0.0
C1442 C 0.81989 0.72133 0.47726 0.0
C1443 C 0.82766 0.76447 0.48493 0.0
C1444 C 0.80347 0.72103 0.51643 0.0
O1445 O 0.79701 0.75543 0.49849 0.0
O1446 O 0.77884 0.73976 0.49123 0.0
C1447 C 0.77188 0.73226 0.46035 0.0
N1448 N 0.77879 0.72022 0.46706 0.0
C1449 C 0.77925 0.70677 0.44357 0.0
C1450 C 0.77225 0.71916 0.43658 0.0
C1451 C 0.76853 0.73191 0.445 0.0
C1452 C 0.78248 0.70778 0.45909 0.0
H1453 H 0.7689 0.74218 0.46663 0.0
C1454 C 0.78335 0.7525 0.49581 0.0
O1455 O 0.82842 0.75927 0.49861 0.0
O1456 O 0.8195 0.75703 0.47546 0.0
N1457 N 0.78836 0.69772 0.48461 0.0
C1458 C 0.79033 0.68625 0.49835 0.0
C1459 C 0.7956 0.66777 0.4952 0.0
C1460 C 0.79817 0.66448 0.46548 0.0
C1461 C 0.7934 0.68076 0.45693 0.0
C1462 C 0.78882 0.69597 0.46704 0.0
H1463 H 0.78834 0.68983 0.50978 0.0
O1464 O 0.83047 0.72879 0.48382 0.0
O1465 O 0.80597 0.72608 0.48021 0.0
O1466 O 0.81361 0.73003 0.51159 0.0
O1467 O 0.79203 0.71701 0.50874 0.0
C1468 C 0.78903 0.68084 0.44189 0.0
C1469 C 0.78242 0.69361 0.43535 0.0
H1470 H 0.76951 0.71894 0.4247 0.0
H1471 H 0.76305 0.74145 0.43966 0.0
H1472 H 0.79614 0.6597 0.50454 0.0
H1473 H 0.79824 0.65463 0.4587 0.0
H1474 H 0.7899 0.67072 0.43528 0.0
H1475 H 0.77933 0.69303 0.42356 0.0
Mn1476 Mn 0.30901 0.84657 0.56617 0.0
Mn1477 Mn 0.28522 0.87587 0.57118 0.0
C1478 C 0.31864 0.86995 0.57227 0.0
C1479 C 0.32342 0.82689 0.57516 0.0
C1480 C 0.29665 0.86667 0.54049 0.0
O1481 O 0.28892 0.83551 0.56763 0.0
O1482 O 0.275 0.85654 0.56889 0.0
C1483 C 0.2754 0.86488 0.6013 0.0
N1484 N 0.2805 0.87624 0.59225 0.0
C1485 C 0.27757 0.89427 0.6122 0.0
C1486 C 0.27205 0.88283 0.62165 0.0
C1487 C 0.27113 0.86802 0.61622 0.0
C1488 C 0.28202 0.89035 0.59756 0.0
H1489 H 0.2746 0.85352 0.59717 0.0
C1490 C 0.2763 0.84228 0.5682 0.0
O1491 O 0.3199 0.82767 0.56098 0.0
O1492 O 0.31682 0.83628 0.58422 0.0
N1493 N 0.29234 0.89591 0.574 0.0
C1494 C 0.29765 0.9057 0.56342 0.0
C1495 C 0.29881 0.92105 0.56697 0.0
C1496 C 0.29384 0.92628 0.58102 0.0
C1497 C 0.28872 0.91603 0.59184 0.0
C1498 C 0.28794 0.90085 0.58778 0.0
H1499 H 0.30101 0.90171 0.55243 0.0
O1500 O 0.32698 0.85964 0.56624 0.0
O1501 O 0.30472 0.8662 0.57544 0.0
O1502 O 0.3035 0.85476 0.5451 0.0
O1503 O 0.28986 0.87597 0.54928 0.0
C1504 C 0.28405 0.92036 0.60639 0.0
C1505 C 0.27864 0.90944 0.61664 0.0
H1506 H 0.26852 0.88527 0.63309 0.0
H1507 H 0.26698 0.85909 0.62347 0.0
H1508 H 0.30368 0.92888 0.55903 0.0
H1509 H 0.29405 0.93819 0.58348 0.0
H1510 H 0.28458 0.93205 0.6098 0.0
H1511 H 0.27515 0.91286 0.62784 0.0
Mn1512 Mn 0.49966 0.07554 0.78617 0.0
Mn1513 Mn 0.47296 0.04903 0.78169 0.0
C1514 C 0.47449 0.08247 0.78899 0.0
C1515 C 0.51567 0.08844 0.80245 0.0
C1516 C 0.49044 0.0631 0.75566 0.0
O1517 O 0.51155 0.05584 0.78864 0.0
O1518 O 0.49209 0.03962 0.78804 0.0
C1519 C 0.46924 0.03736 0.81282 0.0
N1520 N 0.46317 0.04325 0.80001 0.0
C1521 C 0.43795 0.03806 0.80867 0.0
C1522 C 0.4439 0.03214 0.82207 0.0
C1523 C 0.4596 0.03184 0.82419 0.0
C1524 C 0.44808 0.04377 0.79797 0.0
H1525 H 0.48132 0.03676 0.81426 0.0
C1526 C 0.50603 0.04263 0.78989 0.0
O1527 O 0.51828 0.08826 0.78801 0.0
O1528 O 0.5043 0.08072 0.8073 0.0
N1529 N 0.45362 0.05622 0.77552 0.0
C1530 C 0.44969 0.06321 0.76242 0.0
C1531 C 0.43447 0.06356 0.7581 0.0
C1532 C 0.42354 0.05647 0.76714 0.0
C1533 C 0.42775 0.05023 0.78107 0.0
C1534 C 0.44306 0.05025 0.78478 0.0
H1535 H 0.45814 0.06803 0.7551 0.0
O1536 O 0.48476 0.09223 0.78545 0.0
O1537 O 0.47917 0.06854 0.79028 0.0
O1538 O 0.49778 0.07296 0.76303 0.0
O1539 O 0.4817 0.05358 0.76188 0.0
C1540 C 0.41733 0.04426 0.79153 0.0
C1541 C 0.42241 0.03842 0.80542 0.0
H1542 H 0.43652 0.02776 0.83079 0.0
H1543 H 0.46427 0.02717 0.83445 0.0
H1544 H 0.4312 0.06904 0.74769 0.0
H1545 H 0.41185 0.05658 0.76365 0.0
H1546 H 0.4054 0.04418 0.78901 0.0
H1547 H 0.41426 0.03407 0.81342 0.0
Mn1548 Mn 0.18529 0.20561 0.98744 0.0
Mn1549 Mn 0.21913 0.20111 0.00394 0.0
C1550 C 0.18785 0.18555 0.00434 0.0
C1551 C 0.16216 0.21768 0.98782 0.0
C1552 C 0.21224 0.19189 0.97176 0.0
O1553 O 0.19596 0.22551 0.98291 0.0
O1554 O 0.21539 0.22232 -0.00133 0.0
C1555 C 0.21319 0.21825 0.03188 0.0
N1556 N 0.21856 0.20568 0.02489 0.0
C1557 C 0.22818 0.19568 0.04816 0.0
C1558 C 0.22275 0.20849 0.05566 0.0
C1559 C 0.21512 0.21978 0.0475 0.0
C1560 C 0.22553 0.19459 0.03268 0.0
H1561 H 0.20753 0.22703 0.02555 0.0
C1562 C 0.20728 0.23045 0.99003 0.0
O1563 O 0.16742 0.21212 0.97532 0.0
O1564 O 0.17044 0.21656 -0.00027 0.0
N1565 N 0.2256 0.18136 0.01005 0.0
C1566 C 0.23095 0.17013 0.001 0.0
C1567 C 0.24051 0.15896 0.00697 0.0
C1568 C 0.24449 0.15932 0.02224 0.0
C1569 C 0.23873 0.17079 0.03144 0.0
C1570 C 0.22972 0.18194 0.02472 0.0
H1571 H 0.22861 0.17005 0.98913 0.0
O1572 O 0.17703 0.18628 0.99464 0.0
O1573 O 0.19711 0.19704 0.0042 0.0
O1574 O 0.19803 0.19413 0.97201 0.0
O1575 O 0.22106 0.19586 0.98235 0.0
C1576 C 0.24175 0.17169 0.04697 0.0
C1577 C 0.23614 0.18396 0.0554 0.0
H1578 H 0.22439 0.20978 0.06767 0.0
H1579 H 0.21089 0.2297 0.0532 0.0
H1580 H 0.24497 0.15018 -0.0002 0.0
H1581 H 0.25171 0.15057 0.02684 0.0
H1582 H 0.24828 0.16296 0.05252 0.0
H1583 H 0.23819 0.18444 0.0674 0.0
Mn1584 Mn 0.60261 0.4516 0.79284 0.0
Mn1585 Mn 0.62308 0.48397 0.79338 0.0
C1586 C 0.62633 0.4499 0.80368 0.0
C1587 C 0.58634 0.43404 0.80293 0.0
C1588 C 0.61753 0.46588 0.76514 0.0
O1589 O 0.58627 0.46755 0.79034 0.0
O1590 O 0.60126 0.48775 0.79218 0.0
C1591 C 0.61168 0.49705 0.82154 0.0
N1592 N 0.62358 0.4912 0.81366 0.0
C1593 C 0.63973 0.49375 0.8352 0.0
C1594 C 0.62749 0.49956 0.84342 0.0
C1595 C 0.61346 0.50128 0.83656 0.0
C1596 C 0.6373 0.4896 0.82006 0.0
H1597 H 0.60079 0.49856 0.81646 0.0
C1598 C 0.58834 0.48166 0.79093 0.0
O1599 O 0.58793 0.43557 0.78848 0.0
O1600 O 0.59309 0.4437 0.81149 0.0
N1601 N 0.64483 0.48304 0.79376 0.0
C1602 C 0.65476 0.48086 0.77888 0.0
C1603 C 0.67399 0.47772 0.78 0.0
C1604 C 0.68109 0.47819 0.80914 0.0
C1605 C 0.66551 0.48205 0.81933 0.0
C1606 C 0.64876 0.48426 0.81096 0.0
H1607 H 0.6496 0.48089 0.76792 0.0
O1608 O 0.62005 0.43856 0.79717 0.0
O1609 O 0.61923 0.463 0.80228 0.0
O1610 O 0.61021 0.45528 0.77142 0.0
O1611 O 0.62274 0.47716 0.77223 0.0
C1612 C 0.66667 0.48709 0.83408 0.0
C1613 C 0.65406 0.49256 0.84186 0.0
H1614 H 0.62879 0.50294 0.85506 0.0
H1615 H 0.60402 0.50588 0.84284 0.0
H1616 H 0.68089 0.47692 0.7698 0.0
H1617 H 0.69173 0.47935 0.81465 0.0
H1618 H 0.67752 0.48754 0.83948 0.0
H1619 H 0.65562 0.49626 0.85336 0.0
Mn1620 Mn 0.68249 0.38877 0.01527 0.0
Mn1621 Mn 0.72017 0.38435 0.01446 0.0
C1622 C 0.69552 0.39553 0.99333 0.0
C1623 C 0.65895 0.3778 0.01433 0.0
C1624 C 0.70431 0.41038 0.03024 0.0
O1625 O 0.68675 0.37524 0.03363 0.0
O1626 O 0.71143 0.37109 0.02989 0.0
C1627 C 0.72166 0.35266 0.00411 0.0
N1628 N 0.72561 0.3674 0.0024 0.0
C1629 C 0.74238 0.36139 0.98192 0.0
C1630 C 0.73858 0.34613 0.98349 0.0
C1631 C 0.72811 0.34176 0.9946 0.0
C1632 C 0.7355 0.37172 0.99168 0.0
H1633 H 0.71372 0.34925 0.0127 0.0
C1634 C 0.69907 0.36857 0.03675 0.0
O1635 O 0.66119 0.39011 0.0218 0.0
O1636 O 0.67023 0.37235 0.00665 0.0
N1637 N 0.73064 0.39614 1e-05 0.0
C1638 C 0.7324 0.41136 -0.00045 0.0
C1639 C 0.74237 0.41759 0.98902 0.0
C1640 C 0.75063 0.40801 0.97949 0.0
C1641 C 0.74838 0.39247 0.97987 0.0
C1642 C 0.73832 0.38691 0.99058 0.0
H1643 H 0.7264 0.41864 0.00725 0.0
O1644 O 0.68188 0.40032 0.99579 0.0
O1645 O 0.70092 0.38628 0.00352 0.0
O1646 O 0.691 0.40726 0.02596 0.0
O1647 O 0.71583 0.4022 0.02719 0.0
C1648 C 0.75573 0.38231 0.97007 0.0
C1649 C 0.75267 0.36677 0.97105 0.0
H1650 H 0.7436 0.3377 0.97621 0.0
H1651 H 0.72509 0.33002 0.9959 0.0
H1652 H 0.74407 0.42966 0.98854 0.0
H1653 H 0.75894 0.41264 0.97206 0.0
H1654 H 0.76373 0.38633 0.96173 0.0
H1655 H 0.75828 0.35907 0.96339 0.0
Mn1656 Mn 0.44738 0.94947 0.80947 0.0
Mn1657 Mn 0.45377 0.98462 0.79678 0.0
C1658 C 0.43787 0.95576 0.78568 0.0
C1659 C 0.45639 0.92511 0.81272 0.0
C1660 C 0.43041 0.97674 0.82068 0.0
O1661 O 0.46387 0.95748 0.82349 0.0
O1662 O 0.47018 0.97783 0.8098 0.0
C1663 C 0.48136 0.98025 0.77835 0.0
N1664 N 0.4671 0.98579 0.77992 0.0
C1665 C 0.46982 0.0014 0.75786 0.0
C1666 C 0.4845 0.99575 0.75585 0.0
C1667 C 0.49022 0.98499 0.76604 0.0
C1668 C 0.4613 0.99569 0.76989 0.0
H1669 H 0.48597 0.97248 0.78656 0.0
C1670 C 0.47264 0.96838 0.82033 0.0
O1671 O 0.44596 0.93046 0.82154 0.0
O1672 O 0.46163 0.93387 0.80222 0.0
N1673 N 0.43912 0.99375 0.78393 0.0
C1674 C 0.42487 0.99826 0.78761 0.0
C1675 C 0.41788 0.00976 0.77927 0.0
C1676 C 0.42571 0.01679 0.76743 0.0
C1677 C 0.44033 0.01198 0.76377 0.0
C1678 C 0.44665 0.00031 0.77234 0.0
H1679 H 0.41899 0.99341 0.79704 0.0
O1680 O 0.43304 0.94424 0.79331 0.0
O1681 O 0.44871 0.96336 0.79209 0.0
O1682 O 0.43091 0.96246 0.81935 0.0
O1683 O 0.43985 0.98551 0.81426 0.0
C1684 C 0.44878 0.01814 0.75177 0.0
C1685 C 0.46343 0.0127 0.74864 0.0
H1686 H 0.49151 -0.00028 0.74663 0.0
H1687 H 0.50158 0.98068 0.76465 0.0
H1688 H 0.40654 0.01333 0.78203 0.0
H1689 H 0.42018 0.02551 0.76086 0.0
H1690 H 0.44398 0.0269 0.7448 0.0
H1691 H 0.46975 0.01746 0.7393 0.0
Mn1692 Mn 0.07804 0.0645 0.22439 0.0
Mn1693 Mn 0.08935 0.02816 0.22234 0.0
C1694 C 0.09348 0.05732 0.20449 0.0
C1695 C 0.05841 0.0816 0.22182 0.0
C1696 C 0.10521 0.05161 0.24159 0.0
O1697 O 0.06541 0.05429 0.24072 0.0
O1698 O 0.07216 0.03051 0.23614 0.0
C1699 C 0.0614 0.01852 0.20712 0.0
N1700 N 0.07673 0.01859 0.20791 0.0
C1701 C 0.07884 0.00147 0.18712 0.0
C1702 C 0.06307 0.00096 0.18624 0.0
C1703 C 0.05431 0.00969 0.19617 0.0
C1704 C 0.08523 0.01093 0.19791 0.0
H1705 H 0.05466 0.02518 0.21476 0.0
C1706 C 0.06394 0.04024 0.2427 0.0
O1707 O 0.06944 0.08394 0.23107 0.0
O1708 O 0.05922 0.0697 0.21339 0.0
N1709 N 0.10571 0.02228 0.20955 0.0
C1710 C 0.12067 0.02306 0.21272 0.0
C1711 C 0.1309 0.01373 0.205 0.0
C1712 C 0.12566 0.00355 0.19422 0.0
C1713 C 0.11032 0.00317 0.19081 0.0
C1714 C 0.10059 0.01243 0.19914 0.0
H1715 H 0.12462 0.0306 0.22127 0.0
O1716 O 0.0908 0.07142 0.20723 0.0
O1717 O 0.08555 0.04767 0.21235 0.0
O1718 O 0.09692 0.06282 0.23766 0.0
O1719 O 0.10303 0.03802 0.23713 0.0
C1720 C 0.10421 0.99338 0.18 0.0
C1721 C 0.08847 0.99275 0.17795 0.0
H1722 H 0.05758 0.99391 0.17802 0.0
H1723 H 0.04213 0.00948 0.19551 0.0
H1724 H 0.14282 0.0143 0.20728 0.0
H1725 H 0.13354 0.99609 0.18858 0.0
H1726 H 0.11152 0.98621 0.1733 0.0
H1727 H 0.08389 0.98522 0.16959 0.0
H1728 H 0.04225 0.25992 0.24792 0.0
H1729 H 0.00329 0.28448 0.26362 0.0
H1730 H 0.03263 0.23715 0.25933 0.0
H1731 H 0.9936 0.2617 0.27565 0.0
H1732 H 0.97419 0.22457 0.24294 0.0
H1733 H 0.9823 0.24467 0.25912 0.0
H1734 H 0.02068 0.21782 0.27298 0.0
H1735 H 0.01268 0.19794 0.25605 0.0
C1736 C 0.03213 0.26063 0.2548 0.0
C1737 C 0.02336 0.27376 0.25471 0.0
C1738 C 0.02648 0.2475 0.26141 0.0
C1739 C 0.01185 0.24735 0.26781 0.0
C1740 C 0.00462 0.26128 0.27034 0.0
C1741 C 0.01024 0.27439 0.26359 0.0
C1742 C 0.98375 0.22254 0.25026 0.0
C1743 C 0.99311 0.21003 0.24791 0.0
C1744 C 0.98855 0.23417 0.2596 0.0
C1745 C 0.00278 0.23328 0.26662 0.0
C1746 C 0.01005 0.21915 0.26715 0.0
C1747 C 0.00536 0.20763 0.2576 0.0
H1748 H 0.02373 0.77043 0.517 0.0
H1749 H 0.04126 0.81559 0.5166 0.0
H1750 H -0.00097 0.78008 0.50996 0.0
H1751 H 0.01663 0.82526 0.50917 0.0
H1752 H 0.99124 0.80189 0.45917 0.0
H1753 H 0.01002 0.79915 0.47908 0.0
H1754 H 0.97799 0.81603 0.51172 0.0
H1755 H 0.959 0.8186 0.49167 0.0
C1756 C 0.022 0.78254 0.51678 0.0
C1757 C 0.03447 0.79223 0.51665 0.0
C1758 C 0.00788 0.78805 0.51249 0.0
C1759 C 0.00616 0.80333 0.50867 0.0
C1760 C 0.01775 0.81343 0.51205 0.0
C1761 C 0.03183 0.80787 0.51654 0.0
C1762 C 0.98832 0.80525 0.47052 0.0
C1763 C 0.97374 0.81029 0.47399 0.0
C1764 C -0.00099 0.80375 0.48187 0.0
C1765 C 0.99528 0.8073 0.49684 0.0
C1766 C 0.98102 0.81327 0.50022 0.0
C1767 C 0.97028 0.81484 0.48878 0.0
H1768 H 0.49846 0.73412 0.68598 0.0
H1769 H 0.49745 0.70026 0.7211 0.0
H1770 H 0.49972 0.75383 0.70524 0.0
H1771 H 0.49789 0.71986 0.74016 0.0
H1772 H 0.52169 0.78221 0.74045 0.0
H1773 H 0.52241 0.75872 0.72601 0.0
H1774 H 0.48196 0.74379 0.74861 0.0
H1775 H 0.48098 0.76732 0.76261 0.0
C1776 C 0.4984 0.73091 0.69774 0.0
C1777 C 0.49881 0.71565 0.70193 0.0
C1778 C 0.49917 0.74212 0.70874 0.0
C1779 C 0.49969 0.73821 0.72412 0.0
C1780 C 0.498 0.7231 0.72836 0.0
C1781 C 0.49758 0.71191 0.71739 0.0
C1782 C 0.51336 0.77363 0.74283 0.0
C1783 C 0.5008 0.77688 0.75195 0.0
C1784 C 0.5136 0.76036 0.73436 0.0
C1785 C 0.50174 0.74998 0.73565 0.0
C1786 C 0.491 0.75184 0.74713 0.0
C1787 C 0.49064 0.76519 0.75538 0.0
H1788 H 0.43939 0.29927 0.97398 0.0
H1789 H 0.48371 0.29858 0.95335 0.0
H1790 H 0.45038 0.30834 0.9975 0.0
H1791 H 0.49432 0.3074 0.97684 0.0
H1792 H 0.51153 0.33105 0.01221 0.0
H1793 H 0.48736 0.33383 -0.0003 0.0
H1794 H 0.47714 0.2875 0.0102 0.0
H1795 H 0.5017 0.28465 0.02188 0.0
C1796 C 0.45135 0.30166 0.97421 0.0
C1797 C 0.46072 0.29816 0.96175 0.0
C1798 C 0.45757 0.30682 0.98771 0.0
C1799 C 0.47314 0.30892 0.98877 0.0
C1800 C 0.48225 0.30649 0.97602 0.0
C1801 C 0.47616 0.30123 0.96263 0.0
C1802 C 0.50362 0.3218 0.01301 0.0
C1803 C 0.50894 0.30721 0.01642 0.0
C1804 C 0.48977 0.3234 0.00565 0.0
C1805 C 0.48075 0.31067 0.0034 0.0
C1806 C 0.48407 0.29743 0.01152 0.0
C1807 C 0.49814 0.29585 0.01844 0.0
H1808 H 0.0312 0.70432 0.33711 0.0
H1809 H 0.06998 0.70869 0.36574 0.0
H1810 H 0.04443 0.7176 0.31685 0.0
H1811 H 0.08329 0.72191 0.34568 0.0
H1812 H 0.10212 0.75472 0.32131 0.0
H1813 H 0.0933 0.72882 0.32017 0.0
H1814 H 0.04728 0.74497 0.32123 0.0
H1815 H 0.05619 0.77064 0.32264 0.0
C1816 C 0.0429 0.70736 0.33871 0.0
C1817 C 0.04962 0.70568 0.35291 0.0
C1818 C 0.05046 0.71497 0.32713 0.0
C1819 C 0.06477 0.72111 0.32973 0.0
C1820 C 0.0723 0.7173 0.34321 0.0
C1821 C 0.0647 0.70973 0.35479 0.0
C1822 C 0.09013 0.75275 0.32028 0.0
C1823 C 0.07978 0.76452 0.32274 0.0
C1824 C 0.08508 0.73788 0.31967 0.0
C1825 C 0.06964 0.73482 0.3214 0.0
C1826 C 0.0593 0.74687 0.32015 0.0
C1827 C 0.06439 0.76171 0.32085 0.0
H1828 H 0.545 0.80189 0.61774 0.0
H1829 H 0.57014 0.78353 0.58026 0.0
H1830 H 0.52431 0.80825 0.60084 0.0
H1831 H 0.54898 0.78909 0.56345 0.0
H1832 H 0.49548 0.76914 0.57833 0.0
H1833 H 0.52222 0.77284 0.57376 0.0
H1834 H 0.51508 0.82091 0.57187 0.0
H1835 H 0.48814 0.81706 0.57542 0.0
C1836 C 0.54634 0.79986 0.60577 0.0
C1837 C 0.55905 0.79223 0.60027 0.0
C1838 C 0.53457 0.80356 0.59606 0.0
C1839 C 0.53515 0.79918 0.58084 0.0
C1840 C 0.54843 0.79279 0.57506 0.0
C1841 C 0.56046 0.78959 0.5847 0.0
C1842 C 0.49937 0.78036 0.57544 0.0
C1843 C 0.48999 0.79287 0.57783 0.0
C1844 C 0.51477 0.78253 0.57292 0.0
C1845 C 0.52068 0.7972 0.57306 0.0
C1846 C 0.51077 0.8095 0.57187 0.0
C1847 C 0.4953 0.80726 0.57386 0.0
H1848 H 0.53515 0.26375 0.83102 0.0
H1849 H 0.58333 0.25999 0.829 0.0
H1850 H 0.5339 0.24084 0.84618 0.0
H1851 H 0.58241 0.2373 0.84474 0.0
H1852 H 0.55782 0.19458 0.87668 0.0
H1853 H 0.56367 0.20801 0.85323 0.0
H1854 H 0.55185 0.2501 0.87436 0.0
H1855 H 0.54602 0.23693 0.89782 0.0
C1856 C 0.54548 0.25744 0.83285 0.0
C1857 C 0.55945 0.26457 0.83091 0.0
C1858 C 0.54476 0.24448 0.84188 0.0
C1859 C 0.55813 0.23793 0.84737 0.0
C1860 C 0.57194 0.24246 0.84108 0.0
C1861 C 0.5724 0.25536 0.83188 0.0
C1862 C 0.55694 0.20676 0.87656 0.0
C1863 C 0.55104 0.21462 0.88912 0.0
C1864 C 0.56019 0.21437 0.86305 0.0
C1865 C 0.55768 0.22991 0.86197 0.0
C1866 C 0.55349 0.23799 0.87492 0.0
C1867 C 0.55028 0.23045 0.8884 0.0
H1868 H 0.98859 0.31941 0.0544 0.0
H1869 H 0.96867 0.27674 0.06635 0.0
H1870 H 0.00881 0.30642 0.04104 0.0
H1871 H 0.98867 0.2637 0.05285 0.0
H1872 H 0.02817 0.24063 0.04284 0.0
H1873 H 0.00844 0.25723 0.03319 0.0
H1874 H 0.0263 0.29365 0.05972 0.0
H1875 H 0.0457 0.27691 0.06957 0.0
C1876 C 0.98801 0.30728 0.05335 0.0
C1877 C 0.97736 0.299 0.0617 0.0
C1878 C -0.00039 0.29985 0.04569 0.0
C1879 C 0.00061 0.28407 0.04635 0.0
C1880 C 0.98829 0.27589 0.05219 0.0
C1881 C 0.97672 0.28335 0.05991 0.0
C1882 C 0.02829 0.25239 0.04601 0.0
C1883 C 0.03817 0.25749 0.05718 0.0
C1884 C 0.01703 0.2619 0.04042 0.0
C1885 C 0.01559 0.27661 0.04596 0.0
C1886 C 0.02709 0.28236 0.05519 0.0
C1887 C 0.03827 0.27279 0.06086 0.0
H1888 H 0.25301 0.02269 0.19985 0.0
H1889 H 0.24629 0.98458 0.22933 0.0
H1890 H 0.27034 0.03367 0.21791 0.0
H1891 H 0.26297 0.99555 0.24761 0.0
H1892 H 0.27059 0.01806 0.28553 0.0
H1893 H 0.28087 0.00884 0.26179 0.0
H1894 H 0.25813 0.04527 0.23843 0.0
H1895 H 0.24851 0.05454 0.26214 0.0
C1896 C 0.25605 0.01619 0.20977 0.0
C1897 C 0.24818 0.00297 0.21342 0.0
C1898 C 0.26583 0.02257 0.22023 0.0
C1899 C 0.26742 0.01598 0.2346 0.0
C1900 C 0.26191 0.00121 0.23683 0.0
C1901 C 0.2523 0.99477 0.22628 0.0
C1902 C 0.26879 0.02469 0.2754 0.0
C1903 C 0.25848 0.03674 0.27549 0.0
C1904 C 0.27452 0.0193 0.26173 0.0
C1905 C 0.2696 0.02572 0.24807 0.0
C1906 C 0.26198 0.03973 0.24862 0.0
C1907 C 0.25644 0.0452 0.26231 0.0
H1908 H 0.32843 0.01523 0.50558 0.0
H1909 H 0.28013 0.01698 0.50252 0.0
H1910 H 0.32992 0.00484 0.48028 0.0
H1911 H 0.28152 0.00786 0.47681 0.0
H1912 H 0.30344 0.95358 0.47449 0.0
H1913 H 0.31229 0.97681 0.486 0.0
H1914 H 0.29691 0.00236 0.44751 0.0
H1915 H 0.28872 0.97895 0.43555 0.0
C1916 C 0.31818 0.01474 0.49901 0.0
C1917 C 0.30409 0.01537 0.50632 0.0
C1918 C 0.31908 0.00866 0.48451 0.0
C1919 C 0.30578 0.00496 0.47691 0.0
C1920 C 0.29195 0.01036 0.48258 0.0
C1921 C 0.29115 0.01585 0.4973 0.0
C1922 C 0.30266 0.96404 0.46817 0.0
C1923 C 0.29544 0.96451 0.45417 0.0
C1924 C 0.30779 0.97732 0.47469 0.0
C1925 C 0.30538 0.99131 0.46753 0.0
C1926 C 0.29913 0.99168 0.45307 0.0
C1927 C 0.29444 0.9783 0.44629 0.0
H1928 H 0.36872 0.07107 0.70689 0.0
H1929 H 0.33783 0.03552 0.69592 0.0
H1930 H 0.34933 0.08316 0.72212 0.0
H1931 H 0.3185 0.04722 0.71178 0.0
H1932 H 0.32212 0.09866 0.75651 0.0
H1933 H 0.3218 0.09283 0.72966 0.0
H1934 H 0.32665 0.04553 0.74033 0.0
H1935 H 0.32804 0.05154 0.76691 0.0
C1936 C 0.35743 0.06644 0.70686 0.0
C1937 C 0.35475 0.05238 0.70031 0.0
C1938 C 0.34627 0.07331 0.71567 0.0
C1939 C 0.33245 0.06597 0.71834 0.0
C1940 C 0.32902 0.05311 0.7099 0.0
C1941 C 0.34008 0.04646 0.70077 0.0
C1942 C 0.32223 0.08695 0.75314 0.0
C1943 C 0.32576 0.07558 0.76364 0.0
C1944 C 0.32204 0.08363 0.73774 0.0
C1945 C 0.32467 0.0688 0.7329 0.0
C1946 C 0.32469 0.0571 0.74369 0.0
C1947 C 0.32536 0.06051 0.75901 0.0
H1948 H 0.24242 0.04317 0.02963 0.0
H1949 H 0.28146 0.06762 0.04435 0.0
H1950 H 0.25697 0.03255 0.0088 0.0
H1951 H 0.29613 0.05695 0.02379 0.0
H1952 H 0.31794 0.05225 0.98358 0.0
H1953 H 0.30651 0.03865 0.00463 0.0
H1954 H 0.2624 0.05219 0.98901 0.0
H1955 H 0.27391 0.06605 0.96839 0.0
C1956 C 0.25437 0.04552 0.02893 0.0
C1957 C 0.26083 0.05639 0.03831 0.0
C1958 C 0.2627 0.03943 0.01701 0.0
C1959 C 0.27755 0.04424 0.01439 0.0
C1960 C 0.2847 0.053 0.02545 0.0
C1961 C 0.27632 0.05916 0.0373 0.0
C1962 C 0.30578 0.05156 0.98418 0.0
C1963 C 0.29677 0.06051 0.97469 0.0
C1964 C 0.29923 0.04375 0.99625 0.0
C1965 C 0.28362 0.04478 -0.00122 0.0
C1966 C 0.27449 0.05121 0.98747 0.0
C1967 C 0.28107 0.05914 0.97553 0.0
H1968 H 0.19628 0.25276 0.00761 0.0
H1969 H 0.22874 0.24328 0.97267 0.0
H1970 H 0.21403 0.26977 0.01949 0.0
H1971 H 0.24661 0.25978 0.98447 0.0
H1972 H 0.28288 0.26632 0.01068 0.0
H1973 H 0.26057 0.27729 -0.0011 0.0
H1974 H 0.23268 0.25586 0.03286 0.0
H1975 H 0.25489 0.24531 0.04449 0.0
C1976 C 0.20679 0.25522 0.00182 0.0
C1977 C 0.21139 0.24641 0.98951 0.0
C1978 C 0.2171 0.2648 0.00876 0.0
C1979 C 0.23209 0.26544 0.0035 0.0
C1980 C 0.23532 0.25939 0.98917 0.0
C1981 C 0.22497 0.24991 0.98221 0.0
C1982 C 0.27204 0.26497 0.01624 0.0
C1983 C 0.27048 0.25481 0.02831 0.0
C1984 C 0.2592 0.27109 0.00937 0.0
C1985 C 0.24474 0.26689 0.01444 0.0
C1986 C 0.24354 0.25927 0.02839 0.0
C1987 C 0.25635 0.25319 0.03522 0.0
H1988 H 0.70499 0.37106 0.06648 0.0
H1989 H 0.69662 0.33884 0.03142 0.0
H1990 H 0.72014 0.35243 0.07989 0.0
H1991 H 0.71251 0.32036 0.0444 0.0
H1992 H 0.7523 0.32369 0.09927 0.0
H1993 H 0.7262 0.32418 0.09077 0.0
H1994 H 0.74165 0.32964 0.04489 0.0
H1995 H 0.76759 0.33018 0.05355 0.0
C1996 C 0.70551 0.35965 0.06219 0.0
C1997 C 0.6997 0.35637 0.04795 0.0
C1998 C 0.7143 0.34896 0.0698 0.0
C1999 C 0.71765 0.335 0.06306 0.0
C2000 C 0.71007 0.33101 0.04985 0.0
C2001 C 0.70093 0.34158 0.04247 0.0
C2002 C 0.75016 0.32414 0.08729 0.0
C2003 C 0.76188 0.32748 0.0771 0.0
C2004 C 0.73518 0.32442 0.08244 0.0
C2005 C 0.73192 0.32734 0.06725 0.0
C2006 C 0.74382 0.32739 0.0567 0.0
C2007 C 0.75876 0.32754 0.06163 0.0
H2008 H 0.94375 0.47806 0.30317 0.0
H2009 H 0.97432 0.4423 0.29025 0.0
H2010 H 0.96515 0.49267 0.31232 0.0
H2011 H 0.99568 0.45728 0.2987 0.0
H2012 H 0.00618 0.51208 0.27988 0.0
H2013 H 0.99766 0.48611 0.28216 0.0
H2014 H 0.99273 0.49158 0.33019 0.0
H2015 H 0.00217 0.51723 0.32798 0.0
C2016 C 0.95494 0.47313 0.30283 0.0
C2017 C 0.9574 0.45917 0.29592 0.0
C2018 C 0.96714 0.4814 0.30812 0.0
C2019 C 0.98196 0.47602 0.30616 0.0
C2020 C 0.98433 0.46152 0.30048 0.0
C2021 C 0.97208 0.45301 0.29564 0.0
C2022 C 0.00468 0.50728 0.29104 0.0
C2023 C 0.00464 0.51661 0.30372 0.0
C2024 C -0.00038 0.49245 0.29237 0.0
C2025 C 0.99429 0.48706 0.30633 0.0
C2026 C 0.99686 0.4955 0.31935 0.0
C2027 C 0.00241 0.51015 0.31806 0.0
H2028 H 0.76859 0.75923 0.52177 0.0
H2029 H 0.77012 0.76987 0.47445 0.0
H2030 H 0.74159 0.75526 0.52019 0.0
H2031 H 0.74325 0.765 0.47257 0.0
H2032 H 0.69617 0.73499 0.50849 0.0
H2033 H 0.71132 0.75795 0.5062 0.0
H2034 H 0.7454 0.73294 0.48191 0.0
H2035 H 0.73071 0.70992 0.48484 0.0
C2036 C 0.76297 0.76202 0.51129 0.0
C2037 C 0.77143 0.76377 0.498 0.0
C2038 C 0.74745 0.75956 0.51033 0.0
C2039 C 0.74058 0.75912 0.49611 0.0
C2040 C 0.74838 0.76503 0.48363 0.0
C2041 C 0.7638 0.76794 0.48477 0.0
C2042 C 0.70665 0.73456 0.50216 0.0
C2043 C 0.71238 0.72072 0.49687 0.0
C2044 C 0.71523 0.7477 0.50084 0.0
C2045 C 0.72934 0.74721 0.4937 0.0
C2046 C 0.73437 0.73365 0.48717 0.0
C2047 C 0.72606 0.72045 0.48893 0.0
H2048 H 0.04105 0.02096 0.23761 0.0
H2049 H 0.06384 0.045 0.2728 0.0
H2050 H 0.03372 0.00145 0.25557 0.0
H2051 H 0.05657 0.02559 0.29082 0.0
H2052 H 0.07157 0.96797 0.27724 0.0
H2053 H 0.0559 0.98546 0.26312 0.0
H2054 H 0.04109 0.00606 0.30469 0.0
H2055 H 0.0566 0.98821 0.31877 0.0
C2056 C 0.04369 0.02253 0.24939 0.0
C2057 C 0.05326 0.03425 0.25385 0.0
C2058 C 0.03951 0.01133 0.25967 0.0
C2059 C 0.04495 0.01174 0.27447 0.0
C2060 C 0.0522 0.0249 0.27947 0.0
C2061 C 0.05638 0.03611 0.26916 0.0
C2062 C 0.06412 0.97549 0.28338 0.0
C2063 C 0.0655 0.977 0.299 0.0
C2064 C 0.05513 0.98562 0.27531 0.0
C2065 C 0.04761 0.99746 0.28282 0.0
C2066 C 0.04697 0.99722 0.29862 0.0
C2067 C 0.05586 0.98699 0.30668 0.0
H2068 H 0.2555 0.83519 0.5901 0.0
H2069 H 0.26336 0.83274 0.54237 0.0
H2070 H 0.23311 0.8507 0.58582 0.0
H2071 H 0.24095 0.84801 0.53789 0.0
H2072 H 0.19314 0.8817 0.56258 0.0
H2073 H 0.20672 0.85854 0.56925 0.0
H2074 H 0.24733 0.87673 0.54953 0.0
H2075 H 0.23408 0.8999 0.54305 0.0
C2076 C 0.25181 0.83698 0.5786 0.0
C2077 C 0.26193 0.83439 0.56659 0.0
C2078 C 0.23911 0.84612 0.57619 0.0
C2079 C 0.23593 0.85127 0.56157 0.0
C2080 C 0.24356 0.84463 0.54934 0.0
C2081 C 0.2562 0.83551 0.55192 0.0
C2082 C 0.20507 0.88099 0.56001 0.0
C2083 C 0.21242 0.89266 0.55197 0.0
C2084 C 0.21275 0.86762 0.5637 0.0
C2085 C 0.22782 0.86569 0.55928 0.0
C2086 C 0.23551 0.8778 0.55254 0.0
C2087 C 0.22795 0.89117 0.54903 0.0
H2088 H 0.5938 0.5665 0.76221 0.0
H2089 H 0.61043 0.55784 0.807 0.0
H2090 H 0.57663 0.54529 0.76447 0.0
H2091 H 0.59422 0.53578 0.809 0.0
H2092 H 0.57833 0.49281 0.76465 0.0
H2093 H 0.57905 0.51985 0.7628 0.0
H2094 H 0.57141 0.52305 0.81089 0.0
H2095 H 0.57166 0.49567 0.81259 0.0
C2096 C 0.59383 0.55987 0.77251 0.0
C2097 C 0.60362 0.56343 0.78432 0.0
C2098 C 0.58396 0.54775 0.77385 0.0
C2099 C 0.58401 0.53862 0.78685 0.0
C2100 C 0.59352 0.54265 0.79891 0.0
C2101 C 0.60306 0.5551 0.79772 0.0
C2102 C 0.57569 0.49929 0.77466 0.0
C2103 C 0.57592 0.49231 0.78885 0.0
C2104 C 0.57636 0.51496 0.77368 0.0
C2105 C 0.57638 0.52369 0.78691 0.0
C2106 C 0.57236 0.51663 0.80059 0.0
C2107 C 0.57202 0.5009 0.80152 0.0
H2108 H 0.7699 0.47723 0.76824 0.0
H2109 H 0.75581 0.52283 0.77689 0.0
H2110 H 0.76099 0.47942 0.74247 0.0
H2111 H 0.74736 0.52528 0.75099 0.0
H2112 H 0.72826 0.50664 0.69928 0.0
H2113 H 0.75134 0.50623 0.71439 0.0
H2114 H 0.72513 0.4945 0.75379 0.0
H2115 H 0.70204 0.49512 0.73894 0.0
C2116 C 0.76626 0.48822 0.76426 0.0
C2117 C 0.76216 0.49941 0.77473 0.0
C2118 C 0.76096 0.48938 0.74948 0.0
C2119 C 0.75292 0.50229 0.74508 0.0
C2120 C 0.7533 0.51509 0.75431 0.0
C2121 C 0.75838 0.51375 0.76915 0.0
C2122 C 0.72746 0.50355 0.71108 0.0
C2123 C 0.7133 0.50095 0.71797 0.0
C2124 C 0.74066 0.50344 0.71967 0.0
C2125 C 0.73984 0.50052 0.73515 0.0
C2126 C 0.7259 0.4969 0.74181 0.0
C2127 C 0.71273 0.49719 0.73333 0.0
H2128 H 0.82896 0.47027 0.98773 0.0
H2129 H 0.79644 0.49096 0.95818 0.0
H2130 H 0.8288 0.49255 0.00342 0.0
H2131 H 0.7967 0.51381 0.97342 0.0
H2132 H 0.77537 0.5206 0.02188 0.0
H2133 H 0.78413 0.51573 0.9966 0.0
H2134 H 0.83027 0.5177 0.01193 0.0
H2135 H 0.82117 0.52207 0.03746 0.0
C2136 C 0.82253 0.48004 0.98407 0.0
C2137 C 0.81275 0.47899 0.97181 0.0
C2138 C 0.8224 0.49292 0.99307 0.0
C2139 C 0.81246 0.505 0.98991 0.0
C2140 C 0.80423 0.50464 0.97639 0.0
C2141 C 0.8042 0.49164 0.96754 0.0
C2142 C 0.78739 0.52119 0.01965 0.0
C2143 C 0.79758 0.5211 0.03166 0.0
C2144 C 0.79251 0.51816 0.00505 0.0
C2145 C 0.80797 0.51544 0.00233 0.0
C2146 C 0.81826 0.51908 0.01375 0.0
C2147 C 0.81306 0.52199 0.02838 0.0
H2148 H 0.83215 0.57988 0.26553 0.0
H2149 H 0.83326 0.53179 0.26072 0.0
H2150 H 0.84556 0.58275 0.24158 0.0
H2151 H 0.8455 0.53448 0.23628 0.0
H2152 H 0.89806 0.55022 0.23534 0.0
H2153 H 0.87511 0.55744 0.24887 0.0
H2154 H 0.85091 0.56042 0.20697 0.0
H2155 H 0.87388 0.55382 0.19323 0.0
C2156 C 0.83409 0.56993 0.25876 0.0
C2157 C 0.83355 0.55558 0.26558 0.0
C2158 C 0.84193 0.57163 0.2451 0.0
C2159 C 0.84714 0.55877 0.23754 0.0
C2160 C 0.84188 0.54456 0.24216 0.0
C2161 C 0.83455 0.54303 0.25607 0.0
C2162 C 0.88808 0.55308 0.22893 0.0
C2163 C 0.88782 0.55123 0.21323 0.0
C2164 C 0.87494 0.5572 0.23666 0.0
C2165 C 0.86133 0.55931 0.22887 0.0
C2166 C 0.86132 0.55891 0.21313 0.0
C2167 C 0.87455 0.55514 0.20534 0.0
H2168 H 0.81683 0.57316 0.49067 0.0
H2169 H 0.76865 0.57637 0.49591 0.0
H2170 H 0.81947 0.56952 0.51781 0.0
H2171 H 0.7711 0.57218 0.52284 0.0
H2172 H 0.7757 0.57592 0.57033 0.0
H2173 H 0.7804 0.56095 0.5477 0.0
H2174 H 0.81328 0.59362 0.53281 0.0
H2175 H 0.80834 0.60857 0.55526 0.0
C2176 C 0.8067 0.57185 0.49744 0.0
C2177 C 0.79256 0.57545 0.49128 0.0
C2178 C 0.80825 0.56998 0.51305 0.0
C2179 C 0.79554 0.57106 0.52252 0.0
C2180 C 0.78115 0.57139 0.51589 0.0
C2181 C 0.77968 0.57358 0.50034 0.0
C2182 C 0.78463 0.57935 0.56267 0.0
C2183 C 0.7918 0.59329 0.56457 0.0
C2184 C 0.78721 0.57085 0.54965 0.0
C2185 C 0.79709 0.57615 0.53839 0.0
C2186 C 0.80573 0.58909 0.54133 0.0
C2187 C 0.80299 0.59767 0.55425 0.0
H2188 H 0.51099 0.01548 0.77725 0.0
H2189 H 0.51966 0.04142 0.81714 0.0
H2190 H 0.51283 0.99241 0.79172 0.0
H2191 H 0.52156 0.01818 0.83194 0.0
H2192 H 0.47855 0.98757 0.84301 0.0
H2193 H 0.49879 0.00506 0.83827 0.0
H2194 H 0.52017 0.97269 0.80877 0.0
H2195 H 0.49945 0.95536 0.81338 0.0
C2196 C 0.51433 0.01616 0.78897 0.0
C2197 C 0.51508 0.03018 0.79611 0.0
C2198 C 0.51534 0.00287 0.79739 0.0
C2199 C 0.51688 0.00338 0.81319 0.0
C2200 C 0.52008 0.01737 0.81986 0.0
C2201 C 0.51919 0.03071 0.81135 0.0
C2202 C 0.48817 0.98368 0.8365 0.0
C2203 C 0.48708 0.97047 0.82798 0.0
C2204 C 0.49983 0.99386 0.83357 0.0
C2205 C 0.5107 0.99064 0.82238 0.0
C2206 C 0.51163 0.97577 0.81698 0.0
C2207 C 0.49987 0.96565 0.81989 0.0
H2208 H 0.98556 0.3157 0.20942 0.0
H2209 H 0.01924 0.3405 0.18495 0.0
H2210 H 0.96618 0.32518 0.19259 0.0
H2211 H 6e-05 0.35105 0.16876 0.0
H2212 H 0.97334 0.35123 0.12781 0.0
H2213 H 0.98225 0.35733 0.15305 0.0
H2214 H 0.95866 0.31811 0.17053 0.0
H2215 H 0.94966 0.31282 0.14588 0.0
C2216 C 0.98886 0.32256 0.19987 0.0
C2217 C 0.00406 0.32559 0.19697 0.0
C2218 C 0.97773 0.32841 0.19041 0.0
C2219 C 0.98169 0.33747 0.17788 0.0
C2220 C 0.99652 0.34306 0.17726 0.0
C2221 C 0.00768 0.33685 0.18645 0.0
C2222 C 0.97013 0.3441 0.13724 0.0
C2223 C 0.9617 0.33103 0.13491 0.0
C2224 C 0.97517 0.34755 0.15177 0.0
C2225 C 0.97203 0.33778 0.16407 0.0
C2226 C 0.96183 0.32589 0.1617 0.0
C2227 C 0.95674 0.32262 0.14735 0.0
H2228 H 0.98615 0.69369 0.42117 0.0
H2229 H 0.97775 0.71454 0.37814 0.0
H2230 H 0.96611 0.70861 0.4325 0.0
H2231 H 0.95876 0.73067 0.38941 0.0
H2232 H 0.95769 0.75522 0.4523 0.0
H2233 H 0.96475 0.7313 0.4419 0.0
H2234 H 0.94034 0.74248 0.40107 0.0
H2235 H 0.9346 0.76711 0.41138 0.0
C2236 C 0.97999 0.70162 0.41417 0.0
C2237 C 0.98419 0.70396 0.3991 0.0
C2238 C 0.96858 0.71036 0.42068 0.0
C2239 C 0.96142 0.7219 0.41232 0.0
C2240 C 0.96413 0.72242 0.39661 0.0
C2241 C 0.97535 0.7134 0.39007 0.0
C2242 C 0.95411 0.75266 0.44105 0.0
C2243 C 0.94653 0.76342 0.43234 0.0
C2244 C 0.95771 0.73857 0.43508 0.0
C2245 C 0.95372 0.73481 0.42017 0.0
C2246 C 0.94444 0.74503 0.41221 0.0
C2247 C 0.94103 0.75922 0.41817 0.0
H2248 H 0.556 0.66629 0.64375 0.0
H2249 H 0.56433 0.6848 0.68706 0.0
H2250 H 0.57859 0.67856 0.63361 0.0
H2251 H 0.58815 0.69518 0.67805 0.0
H2252 H 0.60936 0.73699 0.6575 0.0
H2253 H 0.60289 0.71244 0.66832 0.0
H2254 H 0.59242 0.69642 0.62379 0.0
H2255 H 0.59956 0.72102 0.61349 0.0
C2256 C 0.56233 0.6737 0.6509 0.0
C2257 C 0.55677 0.67724 0.6653 0.0
C2258 C 0.5757 0.68049 0.64526 0.0
C2259 C 0.58452 0.69017 0.65432 0.0
C2260 C 0.5812 0.68943 0.66997 0.0
C2261 C 0.56733 0.68338 0.6753 0.0
C2262 C 0.60552 0.72818 0.65006 0.0
C2263 C 0.60191 0.73172 0.635 0.0
C2264 C 0.60168 0.71387 0.6563 0.0
C2265 C 0.59476 0.70257 0.64742 0.0
C2266 C 0.59579 0.705 0.63164 0.0
C2267 C 0.59968 0.71931 0.62558 0.0
H2268 H 0.5454 0.32624 0.9591 0.0
H2269 H 0.58806 0.3035 0.96078 0.0
H2270 H 0.55177 0.33749 0.93548 0.0
H2271 H 0.59602 0.31655 0.93816 0.0
H2272 H 0.59334 0.31093 0.88756 0.0
H2273 H 0.59679 0.31579 0.91409 0.0
H2274 H 0.55727 0.34484 0.91348 0.0
H2275 H 0.55326 0.33839 0.88755 0.0
C2276 C 0.5559 0.32309 0.95392 0.0
C2277 C 0.56515 0.31213 0.96047 0.0
C2278 C 0.56012 0.33022 0.94053 0.0
C2279 C 0.57417 0.32702 0.93358 0.0
C2280 C 0.58462 0.31846 0.94205 0.0
C2281 C 0.58005 0.31086 0.95516 0.0
C2282 C 0.58527 0.31804 0.89338 0.0
C2283 C 0.57215 0.32289 0.88614 0.0
C2284 C 0.58731 0.32117 0.90868 0.0
C2285 C 0.57629 0.32944 0.91686 0.0
C2286 C 0.56512 0.33702 0.90841 0.0
C2287 C 0.56286 0.33348 0.89332 0.0
H2288 H 0.15106 0.95864 0.31672 0.0
H2289 H 0.12971 0.98329 0.35278 0.0
H2290 H 0.17482 0.97009 0.32232 0.0
H2291 H 0.15393 0.99477 0.35899 0.0
H2292 H 0.18516 0.03201 0.33937 0.0
H2293 H 0.16813 0.01357 0.35019 0.0
H2294 H 0.1963 0.97767 0.33287 0.0
H2295 H 0.21408 0.99645 0.32361 0.0
C2296 C 0.15161 0.96647 0.32604 0.0
C2297 C 0.13854 0.9708 0.33381 0.0
C2298 C 0.16537 0.97295 0.32946 0.0
C2299 C 0.16646 0.9839 0.34083 0.0
C2300 C 0.15354 0.9869 0.34975 0.0
C2301 C 0.13964 0.98042 0.34619 0.0
C2302 C 0.18759 0.02013 0.3378 0.0
C2303 C 0.19987 0.01549 0.32897 0.0
C2304 C 0.17787 0.00949 0.34408 0.0
C2305 C 0.1798 0.99409 0.34086 0.0
C2306 C 0.19359 0.98949 0.33433 0.0
C2307 C 0.2036 0.00017 0.32858 0.0
H2308 H 0.33537 0.88436 0.55162 0.0
H2309 H 0.31805 0.88865 0.59677 0.0
H2310 H 0.34375 0.90989 0.55179 0.0
H2311 H 0.32656 0.91449 0.59755 0.0
H2312 H 0.31178 0.96044 0.58531 0.0
H2313 H 0.32384 0.93781 0.59369 0.0
H2314 H 0.34548 0.93354 0.54999 0.0
H2315 H 0.33431 0.95731 0.54265 0.0
C2316 C 0.33336 0.89099 0.56167 0.0
C2317 C 0.32495 0.88511 0.5737 0.0
C2318 C 0.33828 0.90584 0.5619 0.0
C2319 C 0.33479 0.91531 0.57419 0.0
C2320 C 0.32862 0.90836 0.58728 0.0
C2321 C 0.3236 0.89343 0.58695 0.0
C2322 C 0.31894 0.95447 0.57738 0.0
C2323 C 0.32017 0.95925 0.56233 0.0
C2324 C 0.32608 0.9413 0.58224 0.0
C2325 C 0.33403 0.93217 0.57191 0.0
C2326 C 0.33786 0.93885 0.55788 0.0
C2327 C 0.33109 0.95236 0.55327 0.0
H2328 H 0.38837 0.11826 0.79522 0.0
H2329 H 0.38904 0.0847 0.8304 0.0
H2330 H 0.41544 0.12099 0.79714 0.0
H2331 H 0.4158 0.08827 0.83363 0.0
H2332 H 0.45826 0.06946 0.81181 0.0
H2333 H 0.43552 0.07849 0.82339 0.0
H2334 H 0.43981 0.12041 0.79829 0.0
H2335 H 0.4616 0.11009 0.78542 0.0
C2336 C 0.39443 0.11152 0.80343 0.0
C2337 C 0.38703 0.10015 0.81151 0.0
C2338 C 0.41005 0.11325 0.80487 0.0
C2339 C 0.41846 0.10365 0.81457 0.0
C2340 C 0.41025 0.09473 0.8249 0.0
C2341 C 0.39477 0.09275 0.82317 0.0
C2342 C 0.45379 0.0802 0.80817 0.0
C2343 C 0.46068 0.08824 0.79645 0.0
C2344 C 0.44099 0.08592 0.81543 0.0
C2345 C 0.43481 0.10011 0.8113 0.0
C2346 C 0.44327 0.10908 0.8012 0.0
C2347 C 0.45584 0.10311 0.79367 0.0
H2348 H 0.19094 0.0982 0.03959 0.0
H2349 H 0.21009 0.12446 0.07521 0.0
H2350 H 0.17802 0.1202 0.03007 0.0
H2351 H 0.19636 0.1465 0.06674 0.0
H2352 H 0.19801 0.18585 0.03367 0.0
H2353 H 0.19776 0.16535 0.05161 0.0
H2354 H 0.16839 0.14061 0.02171 0.0
H2355 H 0.17143 0.16002 0.00306 0.0
C2356 C 0.19222 0.1088 0.04543 0.0
C2357 C 0.20245 0.11004 0.05724 0.0
C2358 C 0.18457 0.12161 0.04017 0.0
C2359 C 0.18695 0.13594 0.04676 0.0
C2360 C 0.1951 0.13626 0.06037 0.0
C2361 C 0.20291 0.1235 0.06542 0.0
C2362 C 0.19268 0.17548 0.03058 0.0
C2363 C 0.18668 0.17375 0.0162 0.0
C2364 C 0.19166 0.16382 0.04125 0.0
C2365 C 0.18391 0.15028 0.03798 0.0
C2366 C 0.17559 0.14996 0.0245 0.0
C2367 C 0.17728 0.16129 0.01366 0.0
H2368 H 0.12119 0.0667 0.21122 0.0
H2369 H 0.09692 0.04051 0.17871 0.0
H2370 H 0.14481 0.05917 0.20005 0.0
H2371 H 0.12077 0.03302 0.1669 0.0
H2372 H 0.16019 -3e-05 0.17511 0.0
H2373 H 0.13902 0.01646 0.17034 0.0
H2374 H 0.16497 0.05444 0.18565 0.0
H2375 H 0.187 0.0379 0.18769 0.0
C2376 C 0.12101 0.05939 0.20148 0.0
C2377 C 0.10739 0.05348 0.19629 0.0
C2378 C 0.13464 0.05512 0.19489 0.0
C2379 C 0.13506 0.04479 0.1829 0.0
C2380 C 0.12115 0.04036 0.17657 0.0
C2381 C 0.10742 0.04461 0.18329 0.0
C2382 C 0.16131 0.01185 0.17763 0.0
C2383 C 0.17459 0.01742 0.18398 0.0
C2384 C 0.14911 0.02143 0.17484 0.0
C2385 C 0.14949 0.03657 0.17944 0.0
C2386 C 0.16362 0.04254 0.18348 0.0
C2387 C 0.17615 0.03304 0.18529 0.0
H2388 H 0.22173 0.93989 0.42409 0.0
H2389 H 0.23745 0.89495 0.43075 0.0
H2390 H 0.19739 0.9335 0.43547 0.0
H2391 H 0.21314 0.88783 0.44177 0.0
H2392 H 0.18701 0.88585 0.4859 0.0
H2393 H 0.19669 0.88481 0.46011 0.0
H2394 H 0.17958 0.92964 0.45213 0.0
H2395 H 0.16776 0.92906 0.47713 0.0
C2396 C 0.22004 0.92863 0.42853 0.0
C2397 C 0.23241 0.91879 0.42957 0.0
C2398 C 0.20587 0.92475 0.43493 0.0
C2399 C 0.2035 0.91051 0.44189 0.0
C2400 C 0.21461 0.89944 0.43838 0.0
C2401 C 0.22877 0.9035 0.43193 0.0
C2402 C 0.18542 0.89556 0.47862 0.0
C2403 C 0.17919 0.90889 0.48458 0.0
C2404 C 0.19101 0.89503 0.46357 0.0
C2405 C 0.19143 0.90819 0.4544 0.0
C2406 C 0.18175 0.91999 0.45926 0.0
C2407 C 0.17522 0.91996 0.47391 0.0
H2408 H 0.4234 0.98875 0.69601 0.0
H2409 H 0.38009 0.9778 0.71504 0.0
H2410 H 0.43555 0.97084 0.71283 0.0
H2411 H 0.39193 0.96058 0.7326 0.0
H2412 H 0.4125 0.94441 0.77344 0.0
H2413 H 0.40402 0.94563 0.74769 0.0
H2414 H 0.4444 0.97042 0.73569 0.0
H2415 H 0.4533 0.96755 0.76122 0.0
C2416 C 0.41647 0.98244 0.70389 0.0
C2417 C 0.40096 0.98549 0.70514 0.0
C2418 C 0.42346 0.97218 0.71371 0.0
C2419 C 0.41512 0.96489 0.72521 0.0
C2420 C 0.39918 0.96616 0.72454 0.0
C2421 C 0.39222 0.97634 0.71459 0.0
C2422 C 0.41954 0.95019 0.76526 0.0
C2423 C 0.43301 0.9572 0.76972 0.0
C2424 C 0.41464 0.9509 0.75031 0.0
C2425 C 0.42279 0.95911 0.73934 0.0
C2426 C 0.43724 0.96441 0.74354 0.0
C2427 C 0.44224 0.96344 0.7585 0.0
H2428 H 0.34728 0.1289 0.97118 0.0
H2429 H 0.30694 0.14474 0.94928 0.0
H2430 H 0.35221 0.15433 0.98013 0.0
H2431 H 0.31077 0.16955 0.95887 0.0
H2432 H 0.30887 0.20908 0.98594 0.0
H2433 H 0.31703 0.19197 0.9662 0.0
H2434 H 0.3458 0.16914 -0.00156 0.0
H2435 H 0.33661 0.18555 0.01795 0.0
C2436 C 0.33944 0.13789 0.96844 0.0
C2437 C 0.32629 0.13487 0.96039 0.0
C2438 C 0.34217 0.15253 0.97354 0.0
C2439 C 0.33151 0.16421 0.97106 0.0
C2440 C 0.31931 0.16122 0.96141 0.0
C2441 C 0.31685 0.14678 0.95605 0.0
C2442 C 0.31613 0.19969 0.98885 0.0
C2443 C 0.32054 0.19726 0.00377 0.0
C2444 C 0.3212 0.19007 0.97749 0.0
C2445 C 0.33094 0.17789 0.98088 0.0
C2446 C 0.33748 0.17749 0.99531 0.0
C2447 C 0.33204 0.18679 0.00671 0.0
H2448 H 0.80035 0.39064 0.12303 0.0
H2449 H 0.8206 0.39061 0.0788 0.0
H2450 H 0.8035 0.418 0.12434 0.0
H2451 H 0.82344 0.41749 0.07963 0.0
H2452 H 0.81924 0.46578 0.07562 0.0
H2453 H 0.82864 0.44129 0.08384 0.0
H2454 H 0.79242 0.43899 0.1166 0.0
H2455 H 0.78245 0.46262 0.10715 0.0
C2456 C 0.8054 0.39657 0.11358 0.0
C2457 C 0.80939 0.38878 0.10044 0.0
C2458 C 0.80727 0.41228 0.11427 0.0
C2459 C 0.81298 0.42044 0.10172 0.0
C2460 C 0.81859 0.41209 0.08942 0.0
C2461 C 0.81684 0.39652 0.08882 0.0
C2462 C 0.81284 0.45947 0.0839 0.0
C2463 C 0.79912 0.4651 0.08942 0.0
C2464 C 0.81839 0.44556 0.08895 0.0
C2465 C 0.8105 0.43715 0.09999 0.0
C2466 C 0.79832 0.44432 0.10736 0.0
C2467 C 0.79245 0.45791 0.10186 0.0
H2468 H 0.96639 0.57138 0.33986 0.0
H2469 H 0.95828 0.59574 0.29864 0.0
H2470 H 0.9402 0.57441 0.34722 0.0
H2471 H 0.932 0.59906 0.30583 0.0
H2472 H 0.88409 0.5893 0.30912 0.0
H2473 H 0.90857 0.60045 0.31403 0.0
H2474 H 0.92034 0.56114 0.34092 0.0
H2475 H 0.89555 0.55101 0.33687 0.0
C2476 C 0.95887 0.57732 0.33233 0.0
C2477 C 0.96391 0.58231 0.31819 0.0
C2478 C 0.94381 0.57912 0.33653 0.0
C2479 C 0.93342 0.58557 0.3264 0.0
C2480 C 0.93926 0.59309 0.31356 0.0
C2481 C 0.95441 0.5913 0.30938 0.0
C2482 C 0.89197 0.58328 0.31628 0.0
C2483 C 0.88837 0.56899 0.32204 0.0
C2484 C 0.90607 0.58963 0.3191 0.0
C2485 C 0.91701 0.58159 0.32742 0.0
C2486 C 0.91255 0.56796 0.33448 0.0
C2487 C 0.89829 0.56189 0.33201 0.0
H2488 H 0.72692 0.64665 0.61367 0.0
H2489 H 0.72843 0.61121 0.58096 0.0
H2490 H 0.70321 0.65585 0.60299 0.0
H2491 H 0.70472 0.61972 0.57059 0.0
H2492 H 0.67591 0.6448 0.53927 0.0
H2493 H 0.68438 0.62954 0.56066 0.0
H2494 H 0.69481 0.67042 0.58459 0.0
H2495 H 0.68767 0.68511 0.56249 0.0
C2496 C 0.72205 0.64067 0.60428 0.0
C2497 C 0.73041 0.62938 0.59688 0.0
C2498 C 0.70844 0.64605 0.59795 0.0
C2499 C 0.70266 0.63974 0.58453 0.0
C2500 C 0.7093 0.62606 0.57978 0.0
C2501 C 0.72306 0.62108 0.58574 0.0
C2502 C 0.6809 0.65034 0.54885 0.0
C2503 C 0.68377 0.66585 0.54833 0.0
C2504 C 0.68553 0.64164 0.56134 0.0
C2505 C 0.69224 0.64848 0.57401 0.0
C2506 C 0.69109 0.66435 0.57478 0.0
C2507 C 0.68716 0.67292 0.56197 0.0
H2508 H 0.90294 0.42045 0.22604 0.0
H2509 H 0.94971 0.42793 0.21981 0.0
H2510 H 0.89767 0.43154 0.20102 0.0
H2511 H 0.94497 0.43819 0.19443 0.0
H2512 H 0.93566 0.48135 0.16673 0.0
H2513 H 0.93967 0.45528 0.17568 0.0
H2514 H 0.8926 0.45223 0.18613 0.0
H2515 H 0.88914 0.47854 0.17795 0.0
C2516 C 0.91213 0.42541 0.2197 0.0
C2517 C 0.9263 0.42734 0.22674 0.0
C2518 C 0.90915 0.43165 0.20505 0.0
C2519 C 0.92053 0.43908 0.19649 0.0
C2520 C 0.93535 0.43527 0.20134 0.0
C2521 C 0.93815 0.42933 0.21616 0.0
C2522 C 0.92631 0.47542 0.17189 0.0
C2523 C 0.91289 0.48345 0.17538 0.0
C2524 C 0.92856 0.46018 0.17696 0.0
C2525 C 0.9171 0.45207 0.18473 0.0
C2526 C 0.90247 0.45843 0.18263 0.0
C2527 C 0.90041 0.47378 0.17779 0.0
H2528 H 0.67851 0.56471 0.68075 0.0
H2529 H 0.63761 0.54012 0.67928 0.0
H2530 H 0.66479 0.58734 0.68835 0.0
H2531 H 0.62348 0.56193 0.68857 0.0
H2532 H 0.60769 0.58746 0.72961 0.0
H2533 H 0.61384 0.57729 0.70484 0.0
H2534 H 0.65495 0.60319 0.70457 0.0
H2535 H 0.64834 0.61302 0.7294 0.0
C2536 C 0.66646 0.56395 0.68267 0.0
C2537 C 0.65946 0.5497 0.68288 0.0
C2538 C 0.6584 0.57712 0.68703 0.0
C2539 C 0.6431 0.57628 0.69175 0.0
C2540 C 0.63556 0.56286 0.68761 0.0
C2541 C 0.64366 0.54995 0.68283 0.0
C2542 C 0.61824 0.59057 0.72428 0.0
C2543 C 0.62877 0.59885 0.73246 0.0
C2544 C 0.62185 0.58485 0.70986 0.0
C2545 C 0.63612 0.58751 0.70311 0.0
C2546 C 0.64453 0.5994 0.70963 0.0
C2547 C 0.64069 0.60524 0.72405 0.0
H2548 H 0.42435 0.80904 0.64721 0.0
H2549 H 0.46281 0.83438 0.63272 0.0
H2550 H 0.42266 0.82372 0.67007 0.0
H2551 H 0.46191 0.84876 0.65614 0.0
H2552 H 0.47709 0.85261 0.70279 0.0
H2553 H 0.46349 0.85681 0.67942 0.0
H2554 H 0.43106 0.82334 0.69316 0.0
H2555 H 0.44496 0.81931 0.71651 0.0
C2556 C 0.43267 0.81774 0.64899 0.0
C2557 C 0.44525 0.81899 0.63929 0.0
C2558 C 0.43181 0.82615 0.66236 0.0
C2559 C 0.44362 0.83588 0.66643 0.0
C2560 C 0.4537 0.83999 0.65465 0.0
C2561 C 0.45448 0.83159 0.64119 0.0
C2562 C 0.4671 0.84598 0.70069 0.0
C2563 C 0.46327 0.83398 0.71042 0.0
C2564 C 0.45925 0.84832 0.68711 0.0
C2565 C 0.44734 0.83874 0.68297 0.0
C2566 C 0.44132 0.82958 0.69468 0.0
C2567 C 0.44936 0.82704 0.70814 0.0
H2568 H 0.42195 0.23134 0.90345 0.0
H2569 H 0.4284 0.22306 0.95001 0.0
H2570 H 0.43206 0.20613 0.89737 0.0
H2571 H 0.43765 0.19744 0.94444 0.0
H2572 H 0.47968 0.16814 0.93461 0.0
H2573 H 0.45395 0.17808 0.93858 0.0
H2574 H 0.45233 0.19083 0.89201 0.0
H2575 H 0.47834 0.1817 0.88865 0.0
C2576 C 0.42648 0.22445 0.91247 0.0
C2577 C 0.42855 0.23088 0.9269 0.0
C2578 C 0.43214 0.20968 0.909 0.0
C2579 C 0.43904 0.2004 0.92013 0.0
C2580 C 0.4352 0.20484 0.93507 0.0
C2581 C 0.42988 0.21979 0.93836 0.0
C2582 C 0.47418 0.174 0.92542 0.0
C2583 C 0.48263 0.17774 0.91233 0.0
C2584 C 0.45913 0.17964 0.92764 0.0
C2585 C 0.45159 0.18827 0.9164 0.0
C2586 C 0.45816 0.18658 0.90182 0.0
C2587 C 0.47334 0.18119 0.89981 0.0
H2588 H 0.04471 0.18104 0.09927 0.0
H2589 H 0.06777 0.21454 0.12533 0.0
H2590 H 0.03716 0.16809 0.12246 0.0
H2591 H 0.05958 0.20255 0.14842 0.0
H2592 H 0.03789 0.18651 0.1894 0.0
H2593 H 0.05542 0.18669 0.16794 0.0
H2594 H 0.0194 0.17057 0.1397 0.0
H2595 H 0.00193 0.1732 0.16032 0.0
C2596 C 0.04806 0.18561 0.11003 0.0
C2597 C 0.05615 0.19908 0.11069 0.0
C2598 C 0.04376 0.17826 0.12338 0.0
C2599 C 0.04715 0.18451 0.1376 0.0
C2600 C 0.05656 0.19726 0.13795 0.0
C2601 C 0.0611 0.20436 0.12465 0.0
C2602 C 0.03366 0.18439 0.17824 0.0
C2603 C 0.01824 0.1822 0.17594 0.0
C2604 C 0.04374 0.18381 0.16604 0.0
C2605 C 0.03858 0.18006 0.15151 0.0
C2606 C 0.02376 0.17468 0.15024 0.0
C2607 C 0.01359 0.17627 0.16212 0.0
H2608 H 0.11205 0.78376 0.45926 0.0
H2609 H 0.07298 0.81247 0.46001 0.0
H2610 H 0.12114 0.79641 0.43694 0.0
H2611 H 0.08036 0.82382 0.43677 0.0
H2612 H 0.08232 0.82816 0.38867 0.0
H2613 H 0.08582 0.83128 0.41511 0.0
H2614 H 0.12371 0.80014 0.41342 0.0
H2615 H 0.1207 0.79844 0.38638 0.0
C2616 C 0.10505 0.79244 0.4542 0.0
C2617 C 0.09089 0.79598 0.46038 0.0
C2618 C 0.11029 0.79988 0.44127 0.0
C2619 C 0.10114 0.81056 0.4337 0.0
C2620 C 0.08772 0.81518 0.44114 0.0
C2621 C 0.08291 0.80817 0.45438 0.0
C2622 C 0.09138 0.82195 0.39405 0.0
C2623 C 0.10027 0.81175 0.38587 0.0
C2624 C 0.09335 0.82355 0.40948 0.0
C2625 C 0.10379 0.8144 0.41729 0.0
C2626 C 0.11459 0.8065 0.40846 0.0
C2627 C 0.11283 0.80524 0.39282 0.0
H2628 H 0.71534 0.4458 0.81197 0.0
H2629 H 0.70253 0.47626 0.8471 0.0
H2630 H 0.69228 0.43141 0.81635 0.0
H2631 H 0.67984 0.46193 0.85199 0.0
H2632 H 0.63239 0.46254 0.83198 0.0
H2633 H 0.65625 0.46033 0.8454 0.0
H2634 H 0.66908 0.42319 0.8169 0.0
H2635 H 0.64547 0.4258 0.80355 0.0
C2636 C 0.70721 0.44976 0.82016 0.0
C2637 C 0.70949 0.46349 0.82747 0.0
C2638 C 0.69398 0.44139 0.82298 0.0
C2639 C 0.68265 0.4468 0.83298 0.0
C2640 C 0.6871 0.45828 0.84289 0.0
C2641 C 0.70032 0.46653 0.84014 0.0
C2642 C 0.64065 0.45436 0.82827 0.0
C2643 C 0.63813 0.44598 0.81522 0.0
C2644 C 0.65441 0.45286 0.83607 0.0
C2645 C 0.666 0.44316 0.83069 0.0
C2646 C 0.66149 0.43211 0.82032 0.0
C2647 C 0.64773 0.43353 0.81265 0.0
H2648 H 0.71022 0.37842 0.97212 0.0
H2649 H 0.69784 0.42412 0.98242 0.0
H2650 H 0.72716 0.38721 0.95249 0.0
H2651 H 0.71398 0.43326 0.96224 0.0
H2652 H 0.77023 0.40172 0.93403 0.0
H2653 H 0.74336 0.39646 0.93641 0.0
H2654 H 0.73721 0.4394 0.95886 0.0
H2655 H 0.76371 0.4443 0.95615 0.0
C2656 C 0.71115 0.39043 0.97007 0.0
C2657 C 0.70384 0.40065 0.97965 0.0
C2658 C 0.72074 0.39563 0.95851 0.0
C2659 C 0.7233 0.41125 0.9563 0.0
C2660 C 0.71364 0.42124 0.96421 0.0
C2661 C 0.70418 0.41601 0.97582 0.0
C2662 C 0.76296 0.40999 0.93934 0.0
C2663 C 0.76915 0.4229 0.94589 0.0
C2664 C 0.74742 0.40702 0.94078 0.0
C2665 C 0.73775 0.41687 0.94889 0.0
C2666 C 0.74382 0.43102 0.95299 0.0
C2667 C 0.75931 0.43386 0.9517 0.0
H2668 H 0.84479 0.70344 0.47807 0.0
H2669 H 0.80944 0.71623 0.44785 0.0
H2670 H 0.8504 0.68138 0.463 0.0
H2671 H 0.81494 0.69407 0.43244 0.0
H2672 H 0.80296 0.64689 0.42542 0.0
H2673 H 0.81558 0.67103 0.42375 0.0
H2674 H 0.84457 0.65765 0.46034 0.0
H2675 H 0.83211 0.6332 0.4614 0.0
C2676 C 0.83795 0.70136 0.46823 0.0
C2677 C 0.82498 0.71021 0.46548 0.0
C2678 C 0.84113 0.68851 0.45953 0.0
C2679 C 0.83146 0.6842 0.44778 0.0
C2680 C 0.82131 0.69552 0.44264 0.0
C2681 C 0.81792 0.70827 0.45156 0.0
C2682 C 0.81207 0.6491 0.43317 0.0
C2683 C 0.81507 0.639 0.44513 0.0
C2684 C 0.81929 0.66319 0.43233 0.0
C2685 C 0.82958 0.6676 0.44353 0.0
C2686 C 0.83533 0.65579 0.45275 0.0
C2687 C 0.82807 0.64167 0.45359 0.0
H2688 H 0.05988 0.26371 0.20205 0.0
H2689 H 0.05783 0.30834 0.18268 0.0
H2690 H 0.0674 0.25353 0.17761 0.0
H2691 H 0.06455 0.29793 0.15802 0.0
H2692 H 0.08276 0.2487 0.12317 0.0
H2693 H 0.08756 0.26156 0.14719 0.0
H2694 H 0.04038 0.27177 0.1513 0.0
H2695 H 0.03538 0.25967 0.12725 0.0
C2696 C 0.06192 0.27147 0.19279 0.0
C2697 C 0.05825 0.28684 0.19432 0.0
C2698 C 0.06605 0.26558 0.17873 0.0
C2699 C 0.06632 0.27489 0.16591 0.0
C2700 C 0.06453 0.29053 0.16778 0.0
C2701 C 0.06084 0.29651 0.18196 0.0
C2702 C 0.07342 0.25407 0.12899 0.0
C2703 C 0.05865 0.25322 0.12316 0.0
C2704 C 0.07622 0.26137 0.14274 0.0
C2705 C 0.06431 0.26806 0.1508 0.0
C2706 C 0.04972 0.26735 0.14489 0.0
C2707 C 0.0469 0.2602 0.13121 0.0
H2708 H 0.04698 0.82172 0.36523 0.0
H2709 H 0.04041 0.77489 0.37695 0.0
H2710 H 0.02224 0.82793 0.37604 0.0
H2711 H 0.01549 0.78107 0.38736 0.0
H2712 H 0.96734 0.79431 0.39516 0.0
H2713 H 0.98906 0.79263 0.37803 0.0
H2714 H 0.0124 0.82566 0.40455 0.0
H2715 H 0.99102 0.82668 0.42205 0.0
C2716 C 0.04011 0.8127 0.36982 0.0
C2717 C 0.0456 0.79778 0.37017 0.0
C2718 C 0.02599 0.81629 0.37604 0.0
C2719 C 0.01689 0.80497 0.38235 0.0
C2720 C 0.02218 0.78999 0.38232 0.0
C2721 C 0.03646 0.78645 0.37645 0.0
C2722 C 0.97684 0.80172 0.39689 0.0
C2723 C 0.97749 0.81065 0.40987 0.0
C2724 C 0.98933 0.80061 0.38722 0.0
C2725 C 0.00251 0.80878 0.39016 0.0
C2726 C 0.0024 0.81921 0.40203 0.0
C2727 C 0.99004 0.82002 0.4119 0.0
H2728 H 0.49002 0.67643 0.63446 0.0
H2729 H 0.478 0.69027 0.67948 0.0
H2730 H 0.4752 0.69715 0.62406 0.0
H2731 H 0.46375 0.71153 0.66901 0.0
H2732 H 0.48885 0.7526 0.63768 0.0
H2733 H 0.48858 0.72784 0.64905 0.0
H2734 H 0.44539 0.71877 0.62913 0.0
H2735 H 0.44464 0.74471 0.61892 0.0
C2736 C 0.4834 0.68331 0.64211 0.0
C2737 C 0.48545 0.682 0.65777 0.0
C2738 C 0.47493 0.69521 0.63613 0.0
C2739 C 0.46851 0.70596 0.64576 0.0
C2740 C 0.46853 0.70327 0.66139 0.0
C2741 C 0.47672 0.6911 0.66737 0.0
C2742 C 0.47902 0.74564 0.63594 0.0
C2743 C 0.46655 0.75093 0.62768 0.0
C2744 C 0.47898 0.73135 0.6424 0.0
C2745 C 0.46692 0.72154 0.64008 0.0
C2746 C 0.45468 0.72634 0.63129 0.0
C2747 C 0.45436 0.74107 0.62533 0.0
H2748 H 0.56743 0.25089 0.99244 0.0
H2749 H 0.51927 0.2497 0.98577 0.0
H2750 H 0.56911 0.2241 0.98581 0.0
H2751 H 0.52089 0.22334 0.9791 0.0
H2752 H 0.52129 0.17904 0.96521 0.0
H2753 H 0.52622 0.19712 0.98511 0.0
H2754 H 0.56613 0.21183 0.96126 0.0
H2755 H 0.56128 0.19352 0.94169 0.0
C2756 C 0.55716 0.2448 0.99007 0.0
C2757 C 0.54322 0.25244 0.98958 0.0
C2758 C 0.55813 0.22948 0.98618 0.0
C2759 C 0.54515 0.22148 0.98194 0.0
C2760 C 0.53112 0.22894 0.98258 0.0
C2761 C 0.53018 0.24417 0.98629 0.0
C2762 C 0.53173 0.18533 0.9648 0.0
C2763 C 0.54061 0.18524 0.95164 0.0
C2764 C 0.53439 0.19597 0.97606 0.0
C2765 C 0.54615 0.20647 0.9744 0.0
C2766 C 0.55683 0.20411 0.96286 0.0
C2767 C 0.55418 0.19336 0.95168 0.0
H2768 H 0.04485 0.73473 0.49348 0.0
H2769 H 0.09076 0.73893 0.47797 0.0
H2770 H 0.04047 0.71511 0.47517 0.0
H2771 H 0.08658 0.71897 0.45971 0.0
H2772 H 0.05915 0.72289 0.4141 0.0
H2773 H 0.07168 0.72671 0.43811 0.0
H2774 H 0.04313 0.69315 0.45893 0.0
H2775 H 0.03095 0.68889 0.43465 0.0
C2776 C 0.05435 0.73062 0.48692 0.0
C2777 C 0.06799 0.73859 0.48679 0.0
C2778 C 0.05183 0.7194 0.47628 0.0
C2779 C 0.063 0.71599 0.46551 0.0
C2780 C 0.07761 0.72173 0.46758 0.0
C2781 C 0.08011 0.73299 0.47825 0.0
C2782 C 0.05578 0.71612 0.42373 0.0
C2783 C 0.04398 0.70575 0.42258 0.0
C2784 C 0.06303 0.7182 0.43748 0.0
C2785 C 0.0583 0.71037 0.4505 0.0
C2786 C 0.04702 0.69939 0.44913 0.0
C2787 C 0.04003 0.69699 0.43525 0.0
H2788 H 0.59326 0.772 0.67723 0.0
H2789 H 0.57771 0.80825 0.64872 0.0
H2790 H 0.57773 0.7815 0.69789 0.0
H2791 H 0.56188 0.81766 0.66921 0.0
H2792 H 0.53216 0.83024 0.70918 0.0
H2793 H 0.55564 0.82687 0.69486 0.0
H2794 H 0.55038 0.77857 0.69793 0.0
H2795 H 0.52723 0.78191 0.7121 0.0
C2796 C 0.58722 0.78254 0.67568 0.0
C2797 C 0.5867 0.7894 0.66139 0.0
C2798 C 0.57807 0.78782 0.68741 0.0
C2799 C 0.56817 0.80004 0.68505 0.0
C2800 C 0.56932 0.8082 0.67144 0.0
C2801 C 0.57858 0.80293 0.65971 0.0
C2802 C 0.53618 0.81891 0.70701 0.0
C2803 C 0.52775 0.80634 0.71185 0.0
C2804 C 0.54961 0.81699 0.69877 0.0
C2805 C 0.55503 0.80246 0.69536 0.0
C2806 C 0.54682 0.78994 0.70064 0.0
C2807 C 0.53341 0.79186 0.70873 0.0
H2808 H 0.44052 0.27597 0.88043 0.0
H2809 H 0.44991 0.31292 0.91009 0.0
H2810 H 0.46367 0.28117 0.86643 0.0
H2811 H 0.47281 0.3185 0.89584 0.0
H2812 H 0.51631 0.27481 0.87548 0.0
H2813 H 0.48914 0.27555 0.88044 0.0
H2814 H 0.48835 0.32323 0.87064 0.0
H2815 H 0.51551 0.32233 0.86489 0.0
C2816 C 0.44693 0.28589 0.88334 0.0
C2817 C 0.44374 0.29357 0.89683 0.0
C2818 C 0.4604 0.28866 0.87548 0.0
C2819 C 0.47038 0.29983 0.88045 0.0
C2820 C 0.46547 0.30965 0.89187 0.0
C2821 C 0.45208 0.30667 0.89984 0.0
C2822 C 0.51031 0.28541 0.87426 0.0
C2823 C 0.51801 0.2985 0.86981 0.0
C2824 C 0.49474 0.28583 0.87698 0.0
C2825 C 0.48657 0.29943 0.87582 0.0
C2826 C 0.49431 0.31258 0.87151 0.0
C2827 C 0.50983 0.31205 0.86827 0.0
H2828 H 0.94194 0.28048 0.13134 0.0
H2829 H 0.98774 0.26694 0.1214 0.0
H2830 H 0.93986 0.25995 0.14985 0.0
H2831 H 0.98536 0.24603 0.13946 0.0
H2832 H 0.97169 0.20356 0.16511 0.0
H2833 H 0.96631 0.22085 0.14419 0.0
H2834 H 0.95794 0.25665 0.1758 0.0
H2835 H 0.9644 0.23972 0.19668 0.0
C2836 C 0.95141 0.27285 0.13279 0.0
C2837 C 0.96503 0.27529 0.12489 0.0
C2838 C 0.9502 0.26116 0.14341 0.0
C2839 C 0.96241 0.25138 0.14598 0.0
C2840 C 0.97575 0.25336 0.13757 0.0
C2841 C 0.97713 0.26532 0.12728 0.0
C2842 C 0.96802 0.21494 0.16764 0.0
C2843 C 0.96839 0.2203 0.18253 0.0
C2844 C 0.96516 0.22487 0.15564 0.0
C2845 C 0.96198 0.24013 0.15841 0.0
C2846 C 0.96052 0.245 0.17339 0.0
C2847 C 0.964 0.23526 0.18535 0.0
H2848 H 0.1224 0.07711 0.2417 0.0
H2849 H 0.1188 0.03301 0.26221 0.0
H2850 H 0.14642 0.08105 0.25467 0.0
H2851 H 0.14259 0.03716 0.27544 0.0
H2852 H 0.19814 0.05913 0.26036 0.0
H2853 H 0.17268 0.06407 0.25099 0.0
H2854 H 0.1546 0.05773 0.29571 0.0
H2855 H 0.1802 0.05421 0.3054 0.0
C2856 C 0.12653 0.06841 0.24927 0.0
C2857 C 0.11872 0.0547 0.2509 0.0
C2858 C 0.14028 0.07068 0.25665 0.0
C2859 C 0.14628 0.05945 0.26611 0.0
C2860 C 0.13811 0.04607 0.26833 0.0
C2861 C 0.12454 0.04366 0.26071 0.0
C2862 C 0.1888 0.05959 0.26829 0.0
C2863 C 0.19114 0.05647 0.28361 0.0
C2864 C 0.17421 0.06217 0.26288 0.0
C2865 C 0.16166 0.06084 0.27252 0.0
C2866 C 0.16408 0.05875 0.28802 0.0
C2867 C 0.17874 0.05691 0.29357 0.0
H2868 H 0.25228 0.99802 0.55348 0.0
H2869 H 0.2606 0.95474 0.53278 0.0
H2870 H 0.22557 0.99093 0.55704 0.0
H2871 H 0.23522 0.94711 0.53847 0.0
H2872 H 0.19293 0.93278 0.55919 0.0
H2873 H 0.21517 0.94732 0.56622 0.0
H2874 H 0.2066 0.97839 0.52971 0.0
H2875 H 0.18473 0.96355 0.52236 0.0
C2876 C 0.24861 0.98692 0.55009 0.0
C2877 C 0.25879 0.97686 0.54309 0.0
C2878 C 0.23343 0.98284 0.55229 0.0
C2879 C 0.22851 0.96839 0.54828 0.0
C2880 C 0.2388 0.95823 0.5419 0.0
C2881 C 0.25351 0.96261 0.53878 0.0
C2882 C 0.19525 0.94323 0.55328 0.0
C2883 C 0.18712 0.94713 0.5403 0.0
C2884 C 0.20798 0.95155 0.5573 0.0
C2885 C 0.21248 0.96401 0.54855 0.0
C2886 C 0.20316 0.96902 0.5368 0.0
C2887 C 0.19065 0.96052 0.53259 0.0
H2888 H 0.36955 0.05239 0.82892 0.0
H2889 H 0.37238 0.0333 0.7844 0.0
H2890 H 0.38139 0.02966 0.83947 0.0
H2891 H 0.38345 0.01028 0.79498 0.0
H2892 H 0.40141 0.96927 0.81462 0.0
H2893 H 0.3811 0.98783 0.81235 0.0
H2894 H 0.40792 0.0201 0.83648 0.0
H2895 H 0.42837 0.00173 0.83821 0.0
C2896 C 0.37231 0.04313 0.82147 0.0
C2897 C 0.3701 0.04457 0.80584 0.0
C2898 C 0.3791 0.03015 0.8275 0.0
C2899 C 0.38343 0.01817 0.81808 0.0
C2900 C 0.38027 0.01928 0.80257 0.0
C2901 C 0.37396 0.03246 0.79647 0.0
C2902 C 0.40264 0.98004 0.82017 0.0
C2903 C 0.41657 0.98416 0.82639 0.0
C2904 C 0.39109 0.99077 0.81864 0.0
C2905 C 0.39311 0.0056 0.82376 0.0
C2906 C 0.40607 0.00886 0.83219 0.0
C2907 C 0.41776 0.99829 0.83334 0.0
H2908 H 0.31271 0.18411 0.05602 0.0
H2909 H 0.26806 0.19984 0.06746 0.0
H2910 H 0.30563 0.15854 0.06341 0.0
H2911 H 0.26127 0.17449 0.07573 0.0
H2912 H 0.24894 0.12648 0.08361 0.0
H2913 H 0.26234 0.15005 0.08843 0.0
H2914 H 0.2887 0.14338 0.04794 0.0
H2915 H 0.27496 0.12024 0.04288 0.0
C2916 C 0.30171 0.18232 0.06109 0.0
C2917 C 0.29089 0.19396 0.06103 0.0
C2918 C 0.29756 0.16759 0.06507 0.0
C2919 C 0.28264 0.16436 0.0695 0.0
C2920 C 0.2727 0.17651 0.07196 0.0
C2921 C 0.27667 0.19113 0.06747 0.0
C2922 C 0.25782 0.12993 0.07592 0.0
C2923 C 0.26086 0.12156 0.06282 0.0
C2924 C 0.26547 0.14345 0.07866 0.0
C2925 C 0.27657 0.1487 0.06854 0.0
C2926 C 0.28026 0.13973 0.05599 0.0
C2927 C 0.27234 0.12647 0.05304 0.0
H2928 H 0.20218 0.96889 0.24431 0.0
H2929 H 0.17131 0.96555 0.20708 0.0
H2930 H 0.18209 0.96175 0.26174 0.0
H2931 H 0.15104 0.95879 0.22462 0.0
H2932 H 0.12193 0.98327 0.26377 0.0
H2933 H 0.14047 0.97873 0.24364 0.0
H2934 H 0.16091 0.94337 0.27027 0.0
H2935 H 0.14181 0.94726 0.28993 0.0
C2936 C 0.19131 0.96581 0.23977 0.0
C2937 C 0.18829 0.96786 0.22436 0.0
C2938 C 0.17974 0.96186 0.24978 0.0
C2939 C 0.16493 0.9601 0.24455 0.0
C2940 C 0.16233 0.96028 0.22894 0.0
C2941 C 0.17401 0.96389 0.21887 0.0
C2942 C 0.13022 0.97437 0.26514 0.0
C2943 C 0.13047 0.96561 0.27833 0.0
C2944 C 0.14079 0.97173 0.25366 0.0
C2945 C 0.15217 0.96074 0.25544 0.0
C2946 C 0.15224 0.95184 0.26856 0.0
C2947 C 0.14134 0.9541 0.27979 0.0
H2948 H 0.2713 0.88098 0.44805 0.0
H2949 H 0.30903 0.91031 0.45566 0.0
H2950 H 0.27722 0.86713 0.47114 0.0
H2951 H 0.31528 0.89616 0.47852 0.0
H2952 H 0.31905 0.86093 0.51992 0.0
H2953 H 0.31912 0.867 0.49282 0.0
H2954 H 0.27416 0.88531 0.49705 0.0
H2955 H 0.27428 0.87987 0.5241 0.0
C2956 C 0.28151 0.88377 0.45404 0.0
C2957 C 0.28958 0.89684 0.45016 0.0
C2958 C 0.28476 0.87598 0.46739 0.0
C2959 C 0.29648 0.88083 0.47674 0.0
C2960 C 0.30616 0.89222 0.4715 0.0
C2961 C 0.30275 0.90016 0.45823 0.0
C2962 C 0.30917 0.86619 0.51501 0.0
C2963 C 0.29663 0.8699 0.5241 0.0
C2964 C 0.30923 0.86964 0.49955 0.0
C2965 C 0.29657 0.87639 0.49287 0.0
C2966 C 0.28398 0.8799 0.50192 0.0
C2967 C 0.28408 0.87687 0.5174 0.0
H2968 H 0.47977 0.08652 0.73903 0.0
H2969 H 0.49581 0.04077 0.73559 0.0
H2970 H 0.4622 0.082 0.71853 0.0
H2971 H 0.47849 0.03636 0.71493 0.0
H2972 H 0.42268 0.04151 0.73013 0.0
H2973 H 0.44784 0.05089 0.73439 0.0
H2974 H 0.45608 0.05416 0.68683 0.0
H2975 H 0.43067 0.04387 0.68201 0.0
C2976 C 0.48055 0.07594 0.73304 0.0
C2977 C 0.48899 0.06393 0.73909 0.0
C2978 C 0.4704 0.07332 0.72126 0.0
C2979 C 0.46889 0.05878 0.71522 0.0
C2980 C 0.47952 0.04772 0.71924 0.0
C2981 C 0.4895 0.05027 0.73112 0.0
C2982 C 0.42956 0.04437 0.72041 0.0
C2983 C 0.42445 0.04196 0.70567 0.0
C2984 C 0.44393 0.04992 0.72298 0.0
C2985 C 0.4536 0.05364 0.71108 0.0
C2986 C 0.44869 0.05154 0.69623 0.0
C2987 C 0.43417 0.04569 0.69352 0.0
H2988 H 0.20143 0.16411 0.96634 0.0
H2989 H 0.23808 0.19402 0.95513 0.0
H2990 H 0.21743 0.14241 0.96046 0.0
H2991 H 0.25364 0.17234 0.9481 0.0
H2992 H 0.27944 0.12957 0.93806 0.0
H2993 H 0.25882 0.14756 0.93402 0.0
H2994 H 0.24035 0.13606 0.97767 0.0
H2995 H 0.26144 0.11864 0.98205 0.0
C2996 C 0.21256 0.16609 0.96163 0.0
C2997 C 0.21858 0.18073 0.96125 0.0
C2998 C 0.22178 0.15365 0.95849 0.0
C2999 C 0.23693 0.15574 0.95432 0.0
C3000 C 0.24213 0.17045 0.95163 0.0
C3001 C 0.23314 0.18287 0.95539 0.0
C3002 C 0.27081 0.1307 0.94668 0.0
C3003 C 0.27197 0.12269 0.96037 0.0
C3004 C 0.25904 0.14099 0.94435 0.0
C3005 C 0.24797 0.14316 0.9555 0.0
C3006 C 0.24871 0.13455 0.96886 0.0
C3007 C 0.26076 0.12463 0.9714 0.0
H3008 H 0.81566 0.43571 0.99587 0.0
H3009 H 0.82621 0.39441 0.97266 0.0
H3010 H 0.8136 0.422 0.0195 0.0
H3011 H 0.82355 0.38034 0.99642 0.0
H3012 H 0.819 0.36053 0.0454 0.0
H3013 H 0.82907 0.37369 0.02312 0.0
H3014 H 0.79369 0.40687 0.02733 0.0
H3015 H 0.78251 0.39278 0.04781 0.0
C3016 C 0.81811 0.42373 0.99597 0.0
C3017 C 0.82099 0.4161 0.98246 0.0
C3018 C 0.81673 0.41578 0.00951 0.0
C3019 C 0.81791 0.39995 0.00986 0.0
C3020 C 0.82252 0.39251 0.9966 0.0
C3021 C 0.82413 0.40056 0.98298 0.0
C3022 C 0.81306 0.37037 0.04119 0.0
C3023 C 0.79994 0.3757 0.04858 0.0
C3024 C 0.81894 0.37799 0.0285 0.0
C3025 C 0.81212 0.39137 0.02326 0.0
C3026 C 0.79902 0.39644 0.03064 0.0
C3027 C 0.79272 0.38847 0.04267 0.0
H3028 H 0.96622 0.5254 0.19072 0.0
H3029 H 0.93587 0.56343 0.18945 0.0
H3030 H 0.97976 0.53675 0.21151 0.0
H3031 H 0.94928 0.57478 0.2104 0.0
H3032 H 0.95098 0.56249 0.26286 0.0
H3033 H 0.94558 0.56146 0.236 0.0
H3034 H 0.99319 0.55778 0.22616 0.0
H3035 H -0.00134 0.559 0.25318 0.0
C3036 C 0.96317 0.53675 0.19407 0.0
C3037 C 0.94975 0.54334 0.18871 0.0
C3038 C 0.97078 0.54316 0.20622 0.0
C3039 C 0.9652 0.55638 0.21296 0.0
C3040 C 0.95362 0.5644 0.20564 0.0
C3041 C 0.94614 0.55805 0.19336 0.0
C3042 C 0.96034 0.56175 0.25498 0.0
C3043 C 0.97525 0.56075 0.26017 0.0
C3044 C 0.95725 0.56133 0.23955 0.0
C3045 C 0.96898 0.55969 0.22892 0.0
C3046 C 0.98394 0.55916 0.23407 0.0
C3047 C 0.98705 0.55986 0.24953 0.0
H3048 H 0.74588 0.61453 0.48836 0.0
H3049 H 0.74829 0.62652 0.44127 0.0
H3050 H 0.71997 0.62352 0.48955 0.0
H3051 H 0.72199 0.63526 0.44222 0.0
H3052 H 0.6945 0.67562 0.46596 0.0
H3053 H 0.71143 0.65772 0.45405 0.0
H3054 H 0.6935 0.62222 0.48232 0.0
H3055 H 0.67653 0.64038 0.49419 0.0
C3056 C 0.74072 0.61889 0.47819 0.0
C3057 C 0.74916 0.62024 0.46486 0.0
C3058 C 0.72574 0.62379 0.47876 0.0
C3059 C 0.71882 0.63016 0.46595 0.0
C3060 C 0.72699 0.6305 0.4523 0.0
C3061 C 0.74202 0.62549 0.45174 0.0
C3062 C 0.6933 0.66378 0.4688 0.0
C3063 C 0.68475 0.6595 0.48148 0.0
C3064 C 0.70326 0.65348 0.46212 0.0
C3065 C 0.70438 0.63868 0.46779 0.0
C3066 C 0.69331 0.6337 0.47809 0.0
C3067 C 0.68335 0.64406 0.4847 0.0
H3068 H 0.9095 0.43951 0.30942 0.0
H3069 H 0.87802 0.43623 0.27286 0.0
H3070 H 0.89609 0.46158 0.3188 0.0
H3071 H 0.86447 0.45821 0.28226 0.0
H3072 H 0.84708 0.50351 0.30228 0.0
H3073 H 0.85201 0.4762 0.30328 0.0
H3074 H 0.89978 0.48468 0.30003 0.0
H3075 H 0.89491 0.5117 0.29862 0.0
C3076 C 0.89898 0.44269 0.30407 0.0
C3077 C 0.89525 0.43664 0.28998 0.0
C3078 C 0.89148 0.4556 0.30928 0.0
C3079 C 0.87965 0.46197 0.30087 0.0
C3080 C 0.87371 0.4537 0.28884 0.0
C3081 C 0.88136 0.44089 0.28359 0.0
C3082 C 0.85863 0.49949 0.30191 0.0
C3083 C 0.87062 0.50972 0.30024 0.0
C3084 C 0.86142 0.4839 0.30255 0.0
C3085 C 0.87628 0.47835 0.30204 0.0
C3086 C 0.88824 0.48865 0.30081 0.0
C3087 C 0.88544 0.50412 0.2998 0.0
H3088 H 0.70551 0.52883 0.82723 0.0
H3089 H 0.7198 0.53405 0.78097 0.0
H3090 H 0.69186 0.55281 0.82575 0.0
H3091 H 0.70663 0.55801 0.77946 0.0
H3092 H 0.68129 0.59902 0.7753 0.0
H3093 H 0.70141 0.58284 0.78485 0.0
H3094 H 0.66937 0.56103 0.81465 0.0
H3095 H 0.64966 0.57798 0.80573 0.0
C3096 C 0.70593 0.53526 0.81683 0.0
C3097 C 0.71344 0.52947 0.80411 0.0
C3098 C 0.69806 0.54898 0.81594 0.0
C3099 C 0.69775 0.55731 0.80238 0.0
C3100 C 0.70644 0.55202 0.79011 0.0
C3101 C 0.71392 0.53815 0.79088 0.0
C3102 C 0.67882 0.59133 0.78452 0.0
C3103 C 0.66401 0.58984 0.78992 0.0
C3104 C 0.69027 0.58181 0.78979 0.0
C3105 C 0.68702 0.57022 0.80021 0.0
C3106 C 0.67246 0.56981 0.80671 0.0
C3107 C 0.66109 0.57961 0.80167 0.0
H3108 H 0.74142 0.49433 0.03802 0.0
H3109 H 0.74281 0.48041 0.08461 0.0
H3110 H 0.72182 0.47596 0.03319 0.0
H3111 H 0.72318 0.46184 0.0798 0.0
H3112 H 0.72405 0.4152 0.05303 0.0
H3113 H 0.73052 0.43918 0.06454 0.0
H3114 H 0.69742 0.46188 0.03698 0.0
H3115 H 0.69045 0.43764 0.02586 0.0
C3116 C 0.7368 0.48803 0.04746 0.0
C3117 C 0.74377 0.48865 0.06163 0.0
C3118 C 0.72562 0.47737 0.04467 0.0
C3119 C 0.72129 0.46712 0.05601 0.0
C3120 C 0.7265 0.46943 0.07078 0.0
C3121 C 0.73757 0.48026 0.07361 0.0
C3122 C 0.71791 0.42525 0.04969 0.0
C3123 C 0.70682 0.42458 0.0385 0.0
C3124 C 0.72155 0.43899 0.05634 0.0
C3125 C 0.71455 0.45246 0.05163 0.0
C3126 C 0.70299 0.4517 0.04087 0.0
C3127 C 0.69902 0.43784 0.03452 0.0
H3128 H 0.8134 0.64761 0.57842 0.0
H3129 H 0.7739 0.67282 0.59149 0.0
H3130 H 0.82327 0.6697 0.56529 0.0
H3131 H 0.78312 0.69466 0.57781 0.0
H3132 H 0.79628 0.73007 0.5451 0.0
H3133 H 0.79695 0.71446 0.56801 0.0
H3134 H 0.81571 0.67769 0.54192 0.0
H3135 H 0.81582 0.6936 0.51967 0.0
C3136 C 0.80721 0.65814 0.57913 0.0
C3137 C 0.79295 0.65857 0.58599 0.0
C3138 C 0.81267 0.67076 0.57132 0.0
C3139 C 0.8037 0.68385 0.56979 0.0
C3140 C 0.79043 0.68488 0.57857 0.0
C3141 C 0.7851 0.67232 0.58654 0.0
C3142 C 0.80098 0.71879 0.54454 0.0
C3143 C 0.806 0.71296 0.53074 0.0
C3144 C 0.80126 0.70977 0.5576 0.0
C3145 C 0.80635 0.69467 0.55701 0.0
C3146 C 0.81204 0.68927 0.54316 0.0
C3147 C 0.81194 0.69833 0.53026 0.0
H3148 H 0.62586 0.4413 0.74865 0.0
H3149 H 0.61483 0.48855 0.74479 0.0
H3150 H 0.63356 0.44098 0.72202 0.0
H3151 H 0.62264 0.48842 0.71845 0.0
H3152 H 0.63699 0.49138 0.67491 0.0
H3153 H 0.61944 0.47874 0.69198 0.0
H3154 H 0.65649 0.45345 0.71103 0.0
H3155 H 0.67382 0.46637 0.69424 0.0
C3156 C 0.62482 0.45153 0.74199 0.0
C3157 C 0.62021 0.46508 0.74877 0.0
C3158 C 0.62916 0.45133 0.72679 0.0
C3159 C 0.62867 0.46463 0.71809 0.0
C3160 C 0.62295 0.47789 0.72471 0.0
C3161 C 0.61879 0.4781 0.73988 0.0
C3162 C 0.64121 0.48236 0.68203 0.0
C3163 C 0.65679 0.4806 0.68413 0.0
C3164 C 0.63116 0.47525 0.69196 0.0
C3165 C 0.63673 0.46575 0.70341 0.0
C3166 C 0.65185 0.46098 0.70258 0.0
C3167 C 0.66183 0.46824 0.69271 0.0
H3168 H 0.0405 0.35826 0.24772 0.0
H3169 H 0.00957 0.32814 0.27014 0.0
H3170 H 0.02699 0.37986 0.25841 0.0
H3171 H 0.99564 0.34932 0.2801 0.0
H3172 H 0.96778 0.3879 0.29326 0.0
H3173 H 0.98946 0.37083 0.2931 0.0
H3174 H 0.0042 0.39028 0.25071 0.0
H3175 H 0.98316 0.40772 0.25142 0.0
C3176 C 0.03127 0.35626 0.25551 0.0
C3177 C 0.02598 0.34159 0.25803 0.0
C3178 C 0.02328 0.36862 0.26139 0.0
C3179 C 0.00982 0.36645 0.26971 0.0
C3180 C 0.00586 0.35164 0.27379 0.0
C3181 C 0.01389 0.33938 0.26807 0.0
C3182 C 0.97583 0.38864 0.28407 0.0
C3183 C 0.97363 0.39898 0.27224 0.0
C3184 C 0.98827 0.37884 0.28393 0.0
C3185 C -0.00138 0.37895 0.27179 0.0
C3186 C 0.99674 0.38989 0.26039 0.0
C3187 C 0.98448 0.39983 0.26068 0.0
H3188 H 0.89263 0.81892 0.43702 0.0
H3189 H 0.90789 0.80898 0.48207 0.0
H3190 H 0.86663 0.81367 0.44488 0.0
H3191 H 0.88247 0.80321 0.48982 0.0
H3192 H 0.83665 0.77163 0.45643 0.0
H3193 H 0.85553 0.79001 0.4491 0.0
H3194 H 0.85711 0.80608 0.49502 0.0
H3195 H 0.83887 0.78691 0.50245 0.0
C3196 C 0.89032 0.81623 0.44873 0.0
C3197 C 0.9022 0.81409 0.4589 0.0
C3198 C 0.87548 0.813 0.45321 0.0
C3199 C 0.87242 0.80755 0.46789 0.0
C3200 C 0.88419 0.80736 0.47845 0.0
C3201 C 0.89889 0.81061 0.47399 0.0
C3202 C 0.84083 0.77929 0.46489 0.0
C3203 C 0.83663 0.7776 0.48007 0.0
C3204 C 0.85158 0.79 0.46066 0.0
C3205 C 0.85815 0.79942 0.47151 0.0
C3206 C 0.85266 0.79873 0.48643 0.0
C3207 C 0.84218 0.78778 0.49071 0.0
H3208 H 0.56952 0.60748 0.76958 0.0
H3209 H 0.59348 0.64773 0.78195 0.0
H3210 H 0.54925 0.6225 0.75942 0.0
H3211 H 0.57259 0.66312 0.77239 0.0
H3212 H 0.55582 0.6775 0.7248 0.0
H3213 H 0.56821 0.66783 0.74693 0.0
H3214 H 0.52964 0.63961 0.75664 0.0
H3215 H 0.51747 0.6489 0.73371 0.0
C3216 C 0.57011 0.61963 0.7707 0.0
C3217 C 0.58324 0.6265 0.77606 0.0
C3218 C 0.55835 0.62832 0.76498 0.0
C3219 C 0.55946 0.64411 0.76456 0.0
C3220 C 0.57162 0.65096 0.77206 0.0
C3221 C 0.58352 0.64219 0.77771 0.0
C3222 C 0.54985 0.66937 0.73174 0.0
C3223 C 0.53586 0.66361 0.72727 0.0
C3224 C 0.55689 0.66397 0.74467 0.0
C3225 C 0.55007 0.65274 0.75359 0.0
C3226 C 0.5354 0.648 0.74986 0.0
C3227 C 0.52841 0.6533 0.73673 0.0
H3228 H 0.65245 0.34998 0.00333 0.0
H3229 H 0.63364 0.38639 0.02973 0.0
H3230 H 0.62991 0.33509 0.00816 0.0
H3231 H 0.61109 0.37139 0.03463 0.0
H3232 H 0.59434 0.30644 0.02767 0.0
H3233 H 0.61666 0.32228 0.02991 0.0
H3234 H 0.58985 0.3616 0.01906 0.0
H3235 H 0.56758 0.34583 0.01688 0.0
C3236 C 0.64348 0.35483 0.0101 0.0
C3237 C 0.64477 0.36937 0.01608 0.0
C3238 C 0.63067 0.34622 0.01306 0.0
C3239 C 0.61888 0.35201 0.02199 0.0
C3240 C 0.62005 0.36665 0.02776 0.0
C3241 C 0.63291 0.37524 0.02488 0.0
C3242 C 0.59309 0.31854 0.02638 0.0
C3243 C 0.5793 0.32491 0.0219 0.0
C3244 C 0.6059 0.32756 0.02747 0.0
C3245 C 0.60501 0.34308 0.02429 0.0
C3246 C 0.59087 0.34966 0.02152 0.0
C3247 C 0.57811 0.34063 0.02029 0.0
H3248 H 0.03374 0.59957 0.29997 0.0
H3249 H 0.03231 0.57417 0.3416 0.0
H3250 H 0.03831 0.62258 0.31409 0.0
H3251 H 0.03661 0.59705 0.35569 0.0
H3252 H 0.04163 0.64079 0.37882 0.0
H3253 H 0.04919 0.61976 0.36304 0.0
H3254 H 0.01802 0.63478 0.32874 0.0
H3255 H 0.01079 0.6562 0.3444 0.0
C3256 C 0.03523 0.59875 0.31206 0.0
C3257 C 0.03222 0.58523 0.31978 0.0
C3258 C 0.03759 0.61197 0.32016 0.0
C3259 C 0.03717 0.61169 0.336 0.0
C3260 C 0.03682 0.5977 0.3435 0.0
C3261 C 0.03442 0.58453 0.33542 0.0
C3262 C 0.03638 0.63963 0.3679 0.0
C3263 C 0.02542 0.65001 0.36292 0.0
C3264 C 0.04081 0.62763 0.35883 0.0
C3265 C 0.03431 0.62566 0.34462 0.0
C3266 C 0.0235 0.63618 0.33952 0.0
C3267 C 0.01913 0.64828 0.34858 0.0
H3268 H 0.63472 0.72131 0.52509 0.0
H3269 H 0.67861 0.74042 0.53275 0.0
H3270 H 0.62311 0.74184 0.53914 0.0
H3271 H 0.66709 0.76157 0.54598 0.0
H3272 H 0.64421 0.77234 0.59238 0.0
H3273 H 0.65726 0.76262 0.57031 0.0
H3274 H 0.61612 0.76662 0.54454 0.0
H3275 H 0.60299 0.77547 0.56705 0.0
C3276 C 0.64178 0.73027 0.52928 0.0
C3277 C 0.65749 0.72923 0.52816 0.0
C3278 C 0.63517 0.74214 0.53727 0.0
C3279 C 0.64419 0.7533 0.544 0.0
C3280 C 0.65983 0.75299 0.54137 0.0
C3281 C 0.66643 0.74094 0.53372 0.0
C3282 C 0.6382 0.7718 0.58179 0.0
C3283 C 0.62268 0.77454 0.58131 0.0
C3284 C 0.64564 0.76618 0.56907 0.0
C3285 C 0.63764 0.76343 0.55566 0.0
C3286 C 0.62251 0.76815 0.55477 0.0
C3287 C 0.61504 0.77344 0.56757 0.0
H3288 H 0.59016 0.34414 0.84052 0.0
H3289 H 0.55959 0.34055 0.80308 0.0
H3290 H 0.59272 0.37059 0.83602 0.0
H3291 H 0.56367 0.36708 0.79701 0.0
H3292 H 0.56103 0.4176 0.79721 0.0
H3293 H 0.55769 0.39084 0.80277 0.0
H3294 H 0.60148 0.39025 0.82443 0.0
H3295 H 0.60345 0.41697 0.82066 0.0
C3296 C 0.5846 0.34894 0.83074 0.0
C3297 C 0.57475 0.34031 0.82207 0.0
C3298 C 0.58608 0.36429 0.82808 0.0
C3299 C 0.57834 0.37136 0.81614 0.0
C3300 C 0.56942 0.36234 0.80666 0.0
C3301 C 0.56735 0.34702 0.80984 0.0
C3302 C 0.56949 0.41169 0.80376 0.0
C3303 C 0.58224 0.41927 0.80892 0.0
C3304 C 0.56786 0.39626 0.80662 0.0
C3305 C 0.57938 0.38802 0.81395 0.0
C3306 C 0.59203 0.39594 0.81921 0.0
C3307 C 0.59323 0.4114 0.81706 0.0
H3308 H 0.90482 0.31535 0.06867 0.0
H3309 H 0.9149 0.33994 0.10909 0.0
H3310 H 0.87812 0.31589 0.07511 0.0
H3311 H 0.88862 0.3391 0.11659 0.0
H3312 H 0.83722 0.34532 0.11827 0.0
H3313 H 0.86423 0.34555 0.11512 0.0
H3314 H 0.8619 0.30349 0.09067 0.0
H3315 H 0.83452 0.30443 0.09241 0.0
C3316 C 0.90116 0.32127 0.07871 0.0
C3317 C 0.9117 0.32782 0.08826 0.0
C3318 C 0.88596 0.32113 0.08274 0.0
C3319 C 0.88117 0.32691 0.09677 0.0
C3320 C 0.89171 0.3345 0.10573 0.0
C3321 C 0.90681 0.33518 0.10135 0.0
C3322 C 0.84256 0.33575 0.11282 0.0
C3323 C 0.83387 0.325 0.10531 0.0
C3324 C 0.85814 0.33596 0.11082 0.0
C3325 C 0.86529 0.32497 0.10187 0.0
C3326 C 0.85671 0.31268 0.09679 0.0
C3327 C 0.84105 0.31287 0.09823 0.0
H3328 H 0.27946 0.9437 0.37223 0.0
H3329 H 0.27121 0.98044 0.40289 0.0
H3330 H 0.27614 0.96109 0.35074 0.0
H3331 H 0.26822 0.99771 0.38171 0.0
H3332 H 0.27032 0.02799 0.34206 0.0
H3333 H 0.28151 0.00954 0.3593 0.0
H3334 H 0.2519 0.97528 0.3421 0.0
H3335 H 0.24052 0.99379 0.32522 0.0
C3336 C 0.2774 0.95555 0.37434 0.0
C3337 C 0.27555 0.9608 0.38913 0.0
C3338 C 0.27542 0.96545 0.3621 0.0
C3339 C 0.27195 0.98075 0.36457 0.0
C3340 C 0.27106 0.98605 0.37943 0.0
C3341 C 0.2727 0.97616 0.39155 0.0
C3342 C 0.26647 0.01643 0.34171 0.0
C3343 C 0.25464 0.01229 0.33215 0.0
C3344 C 0.27287 0.00588 0.35156 0.0
C3345 C 0.26759 0.99097 0.35202 0.0
C3346 C 0.2564 0.98661 0.34181 0.0
C3347 C 0.24992 0.99721 0.33205 0.0
H3348 H 0.30357 0.01819 0.59409 0.0
H3349 H 0.34392 0.02537 0.56771 0.0
H3350 H 0.31788 0.02044 0.61702 0.0
H3351 H 0.35824 0.02914 0.5907 0.0
H3352 H 0.38355 0.01143 0.63147 0.0
H3353 H 0.36875 0.0143 0.6086 0.0
H3354 H 0.3313 0.03135 0.63523 0.0
H3355 H 0.34579 0.0269 0.65804 0.0
C3356 C 0.31541 0.02105 0.59322 0.0
C3357 C 0.32268 0.02149 0.57915 0.0
C3358 C 0.32372 0.02233 0.60645 0.0
C3359 C 0.33944 0.02456 0.6059 0.0
C3360 C 0.34632 0.02676 0.59169 0.0
C3361 C 0.33808 0.02494 0.57846 0.0
C3362 C 0.37206 0.01558 0.6323 0.0
C3363 C 0.36561 0.01864 0.64637 0.0
C3364 C 0.36361 0.01753 0.61919 0.0
C3365 C 0.34871 0.02319 0.61987 0.0
C3366 C 0.34252 0.02662 0.63412 0.0
C3367 C 0.3508 0.02411 0.64723 0.0
H3368 H 0.34062 0.10876 0.91447 0.0
H3369 H 0.31533 0.06929 0.9024 0.0
H3370 H 0.33988 0.11757 0.8885 0.0
H3371 H 0.31565 0.07726 0.87613 0.0
H3372 H 0.30258 0.09703 0.83477 0.0
H3373 H 0.30239 0.09506 0.86214 0.0
H3374 H 0.34621 0.11629 0.86338 0.0
H3375 H 0.34552 0.11953 0.83632 0.0
C3376 C 0.33573 0.10151 0.90602 0.0
C3377 C 0.32807 0.08835 0.91029 0.0
C3378 C 0.33506 0.10669 0.89116 0.0
C3379 C 0.32708 0.09849 0.8803 0.0
C3380 C 0.32117 0.0843 0.88434 0.0
C3381 C 0.32144 0.0794 0.89926 0.0
C3382 C 0.31161 0.10222 0.84105 0.0
C3383 C 0.32421 0.10808 0.83353 0.0
C3384 C 0.31181 0.10063 0.85668 0.0
C3385 C 0.32479 0.10452 0.86484 0.0
C3386 C 0.33616 0.11281 0.85749 0.0
C3387 C 0.33566 0.1149 0.84192 0.0
H3388 H 0.20942 0.9819 0.13848 0.0
H3389 H 0.248 0.00499 0.15625 0.0
H3390 H 0.21274 0.99503 0.11437 0.0
H3391 H 0.25117 0.0184 0.13275 0.0
H3392 H 0.20503 0.04311 0.09299 0.0
H3393 H 0.20648 0.0204 0.10869 0.0
H3394 H 0.25521 0.02286 0.1075 0.0
H3395 H 0.25355 0.04609 0.09292 0.0
C3396 C 0.21914 0.98911 0.13691 0.0
C3397 C 0.22848 0.9925 0.14911 0.0
C3398 C 0.22085 0.99691 0.12323 0.0
C3399 C 0.23192 0.00816 0.1217 0.0
C3400 C 0.24252 0.00985 0.13333 0.0
C3401 C 0.2408 0.00207 0.14688 0.0
C3402 C 0.21599 0.03868 0.09611 0.0
C3403 C 0.22915 0.04652 0.09228 0.0
C3404 C 0.21689 0.02554 0.1049 0.0
C3405 C 0.231 0.01985 0.10962 0.0
C3406 C 0.24415 0.02711 0.10452 0.0
C3407 C 0.24322 0.04044 0.0962 0.0
H3408 H 0.32688 0.27437 0.0126 0.0
H3409 H 0.35775 0.24233 0.03228 0.0
H3410 H 0.34753 0.28594 -0.00142 0.0
H3411 H 0.37826 0.25285 0.01743 0.0
H3412 H 0.41423 0.27157 0.98858 0.0
H3413 H 0.39574 0.26951 0.00888 0.0
H3414 H 0.36023 0.28002 0.97714 0.0
H3415 H 0.37896 0.28321 0.95732 0.0
C3416 C 0.33824 0.27014 0.01427 0.0
C3417 C 0.34081 0.25762 0.02363 0.0
C3418 C 0.35007 0.27653 0.00597 0.0
C3419 C 0.36464 0.27012 0.00637 0.0
C3420 C 0.36735 0.25831 0.01677 0.0
C3421 C 0.35557 0.25224 0.02541 0.0
C3422 C 0.40247 0.27376 0.98611 0.0
C3423 C 0.39797 0.27746 0.9714 0.0
C3424 C 0.39181 0.27244 0.99772 0.0
C3425 C 0.3763 0.27431 0.99479 0.0
C3426 C 0.37198 0.27871 0.9801 0.0
C3427 C 0.38272 0.28046 0.96861 0.0
H3428 H 0.11751 0.83915 0.34494 0.0
H3429 H 0.08796 0.8421 0.30655 0.0
H3430 H 0.11556 0.86606 0.34847 0.0
H3431 H 0.08712 0.8694 0.30905 0.0
H3432 H 0.07068 0.91261 0.32512 0.0
H3433 H 0.07408 0.88537 0.32485 0.0
H3434 H 0.11901 0.89079 0.3429 0.0
H3435 H 0.11479 0.91775 0.34445 0.0
C3436 C 0.11135 0.84571 0.33664 0.0
C3437 C 0.10271 0.83859 0.32557 0.0
C3438 C 0.11006 0.86121 0.33879 0.0
C3439 C 0.10057 0.86989 0.32949 0.0
C3440 C 0.09384 0.86296 0.31698 0.0
C3441 C 0.09469 0.84738 0.31518 0.0
C3442 C 0.08084 0.90778 0.32991 0.0
C3443 C 0.09241 0.91709 0.33495 0.0
C3444 C 0.08307 0.89224 0.32926 0.0
C3445 C 0.09715 0.88589 0.33309 0.0
C3446 C 0.10806 0.89517 0.33972 0.0
C3447 C 0.10558 0.91065 0.34084 0.0
H3448 H 0.12072 0.79337 0.52783 0.0
H3449 H 0.08697 0.82842 0.52444 0.0
H3450 H 0.13908 0.81198 0.53657 0.0
H3451 H 0.10505 0.84685 0.53318 0.0
H3452 H 0.1377 0.87788 0.55249 0.0
H3453 H 0.12174 0.8556 0.55364 0.0
H3454 H 0.15096 0.83326 0.5216 0.0
H3455 H 0.16705 0.8555 0.52056 0.0
C3456 C 0.1171 0.80493 0.5295 0.0
C3457 C 0.10249 0.80953 0.52545 0.0
C3458 C 0.12761 0.81557 0.53436 0.0
C3459 C 0.12352 0.83088 0.53548 0.0
C3460 C 0.10853 0.83514 0.5326 0.0
C3461 C 0.09817 0.8246 0.52753 0.0
C3462 C 0.1409 0.86811 0.54592 0.0
C3463 C 0.15346 0.86854 0.5362 0.0
C3464 C 0.13177 0.85535 0.5466 0.0
C3465 C 0.13501 0.84276 0.53759 0.0
C3466 C 0.14823 0.84275 0.52876 0.0
C3467 C 0.15737 0.85554 0.52806 0.0
H3468 H 0.50669 0.85847 0.77333 0.0
H3469 H 0.46659 0.83315 0.78422 0.0
H3470 H 0.49904 0.87793 0.79067 0.0
H3471 H 0.45925 0.85226 0.80253 0.0
H3472 H 0.43932 0.90069 0.8073 0.0
H3473 H 0.44862 0.87584 0.80046 0.0
H3474 H 0.49375 0.88908 0.81313 0.0
H3475 H 0.48437 0.91437 0.81863 0.0
C3476 C 0.49647 0.85681 0.77987 0.0
C3477 C 0.48708 0.84446 0.77718 0.0
C3478 C 0.49209 0.86797 0.79001 0.0
C3479 C 0.47831 0.86692 0.79794 0.0
C3480 C 0.46969 0.85374 0.79632 0.0
C3481 C 0.47395 0.8427 0.78592 0.0
C3482 C 0.45113 0.89806 0.80902 0.0
C3483 C 0.4612 0.90932 0.81333 0.0
C3484 C 0.45653 0.88376 0.80516 0.0
C3485 C 0.47209 0.88043 0.80584 0.0
C3486 C 0.48181 0.89134 0.81189 0.0
C3487 C 0.47646 0.90577 0.81526 0.0
H3488 H 0.0306 0.07574 0.20996 0.0
H3489 H 0.05543 0.10896 0.23498 0.0
H3490 H 0.0076 0.09087 0.21278 0.0
H3491 H 0.03282 0.12419 0.2374 0.0
H3492 H 0.99416 0.14895 0.24723 0.0
H3493 H 0.00882 0.12577 0.24948 0.0
H3494 H 0.99721 0.11432 0.20371 0.0
H3495 H 0.98184 0.13703 0.20196 0.0
C3496 C 0.03116 0.08634 0.21593 0.0
C3497 C 0.0448 0.09122 0.22222 0.0
C3498 C 0.01798 0.09494 0.21763 0.0
C3499 C 0.01824 0.10859 0.22561 0.0
C3500 C 0.03201 0.11349 0.23166 0.0
C3501 C 0.04508 0.10488 0.23006 0.0
C3502 C 0.99389 0.14091 0.23809 0.0
C3503 C 0.98703 0.14475 0.2244 0.0
C3504 C 0.00256 0.1278 0.23921 0.0
C3505 C 0.00479 0.11861 0.22651 0.0
C3506 C 0.9959 0.12122 0.21367 0.0
C3507 C 0.98692 0.13419 0.2127 0.0
H3508 H 0.5196 0.08381 0.83231 0.0
H3509 H 0.52944 0.11547 0.79653 0.0
H3510 H 0.52758 0.10212 0.8509 0.0
H3511 H 0.53745 0.13402 0.81527 0.0
H3512 H 0.52125 0.1661 0.85519 0.0
H3513 H 0.5219 0.14829 0.83435 0.0
H3514 H 0.54843 0.11745 0.86125 0.0
H3515 H 0.54775 0.13526 0.88216 0.0
C3516 C 0.52388 0.09457 0.82841 0.0
C3517 C 0.52387 0.09824 0.81299 0.0
C3518 C 0.52852 0.10506 0.83906 0.0
C3519 C 0.53307 0.11956 0.83457 0.0
C3520 C 0.53391 0.12295 0.81907 0.0
C3521 C 0.52946 0.11231 0.80834 0.0
C3522 C 0.52746 0.15564 0.85657 0.0
C3523 C 0.53428 0.152 0.8704 0.0
C3524 C 0.52793 0.14548 0.84457 0.0
C3525 C 0.53514 0.13142 0.84617 0.0
C3526 C 0.54268 0.12815 0.85972 0.0
C3527 C 0.54231 0.13836 0.87169 0.0
H3528 H 0.1523 0.24523 0.99618 0.0
H3529 H 0.13748 0.20044 0.98524 0.0
H3530 H 0.12962 0.24913 0.01133 0.0
H3531 H 0.11531 0.20379 0.00114 0.0
H3532 H 0.07786 0.21239 0.03463 0.0
H3533 H 0.09271 0.21422 0.01141 0.0
H3534 H 0.1273 0.23819 0.0356 0.0
H3535 H 0.11226 0.23684 0.05844 0.0
C3536 C 0.14377 0.23652 0.99643 0.0
C3537 C 0.14654 0.22255 0.98968 0.0
C3538 C 0.13094 0.2386 0.00533 0.0
C3539 C 0.12103 0.22652 0.00801 0.0
C3540 C 0.12274 0.21331 -0.00055 0.0
C3541 C 0.13541 0.2114 0.99022 0.0
C3542 C 0.08867 0.21802 0.03492 0.0
C3543 C 0.09399 0.22438 0.04834 0.0
C3544 C 0.09712 0.21915 0.02161 0.0
C3545 C 0.11109 0.22657 0.02153 0.0
C3546 C 0.11637 0.23283 0.03505 0.0
C3547 C 0.10788 0.23183 0.04826 0.0
H3548 H 0.33742 0.80119 0.56475 0.0
H3549 H 0.34282 0.83916 0.59438 0.0
H3550 H 0.36395 0.79455 0.56825 0.0
H3551 H 0.36914 0.83414 0.59623 0.0
H3552 H 0.41514 0.81859 0.60658 0.0
H3553 H 0.38843 0.82227 0.6051 0.0
H3554 H 0.38801 0.79908 0.56214 0.0
H3555 H 0.41487 0.79357 0.56511 0.0
C3556 C 0.34426 0.80794 0.57218 0.0
C3557 C 0.33803 0.82045 0.57955 0.0
C3558 C 0.35958 0.80442 0.57392 0.0
C3559 C 0.36906 0.81382 0.58246 0.0
C3560 C 0.36249 0.82616 0.59 0.0
C3561 C 0.34718 0.82914 0.5889 0.0
C3562 C 0.40935 0.81458 0.59666 0.0
C3563 C 0.41701 0.80613 0.58577 0.0
C3564 C 0.39388 0.81672 0.59572 0.0
C3565 C 0.3857 0.81118 0.58337 0.0
C3566 C 0.39365 0.80327 0.57203 0.0
C3567 C 0.40913 0.80041 0.57345 0.0
H3568 H 0.79437 0.47867 0.91697 0.0
H3569 H 0.82407 0.44595 0.89637 0.0
H3570 H 0.78814 0.4888 0.89231 0.0
H3571 H 0.81778 0.45615 0.8714 0.0
H3572 H 0.77892 0.50744 0.84827 0.0
H3573 H 0.79602 0.50138 0.86887 0.0
H3574 H 0.7933 0.45414 0.85772 0.0
H3575 H 0.77643 0.46022 0.83694 0.0
C3576 C 0.7999 0.47394 0.90715 0.0
C3577 C 0.80957 0.46147 0.90852 0.0
C3578 C 0.79642 0.47981 0.89299 0.0
C3579 C 0.8024 0.47321 0.87988 0.0
C3580 C 0.81294 0.46139 0.88131 0.0
C3581 C 0.81661 0.45563 0.89558 0.0
C3582 C 0.78229 0.4958 0.84996 0.0
C3583 C 0.77608 0.48426 0.84122 0.0
C3584 C 0.79209 0.49235 0.86176 0.0
C3585 C 0.79579 0.47727 0.86508 0.0
C3586 C 0.79073 0.46588 0.85541 0.0
C3587 C 0.78096 0.46935 0.84356 0.0
H3588 H 0.85603 0.53947 0.16849 0.0
H3589 H 0.88512 0.53498 0.12971 0.0
H3590 H 0.83428 0.54272 0.15205 0.0
H3591 H 0.86349 0.53665 0.11319 0.0
H3592 H 0.82512 0.54038 0.08356 0.0
H3593 H 0.84451 0.54824 0.10113 0.0
H3594 H 0.81832 0.52924 0.13793 0.0
H3595 H 0.79851 0.5229 0.12038 0.0
C3596 C 0.85769 0.53918 0.15638 0.0
C3597 C 0.87213 0.53697 0.15028 0.0
C3598 C 0.84523 0.54089 0.14691 0.0
C3599 C 0.84687 0.53979 0.13113 0.0
C3600 C 0.86156 0.53797 0.12515 0.0
C3601 C 0.87405 0.53684 0.13462 0.0
C3602 C 0.82329 0.53863 0.09553 0.0
C3603 C 0.81033 0.53124 0.10071 0.0
C3604 C 0.83455 0.5428 0.10563 0.0
C3605 C 0.8334 0.53896 0.12104 0.0
C3606 C 0.81977 0.53258 0.12627 0.0
C3607 C 0.80829 0.52893 0.1162 0.0
H3608 H 0.81215 0.54559 0.34362 0.0
H3609 H 0.83364 0.5892 0.34197 0.0
H3610 H 0.80554 0.54956 0.36988 0.0
H3611 H 0.82654 0.59342 0.36822 0.0
H3612 H 0.82958 0.58854 0.41865 0.0
H3613 H 0.83518 0.58302 0.39226 0.0
H3614 H 0.79081 0.56373 0.38732 0.0
H3615 H 0.78547 0.56875 0.41368 0.0
C3616 C 0.81503 0.55625 0.34873 0.0
C3617 C 0.82356 0.56701 0.3408 0.0
C3618 C 0.81129 0.5585 0.36382 0.0
C3619 C 0.81589 0.57162 0.37123 0.0
C3620 C 0.82327 0.58297 0.36292 0.0
C3621 C 0.82707 0.5807 0.3478 0.0
C3622 C 0.82125 0.58267 0.41203 0.0
C3623 C 0.80706 0.57917 0.41815 0.0
C3624 C 0.82432 0.57979 0.39686 0.0
C3625 C 0.81326 0.57333 0.38762 0.0
C3626 C 0.79954 0.56877 0.3941 0.0
C3627 C 0.7965 0.57161 0.40923 0.0
H3628 H 0.78278 0.56764 0.61722 0.0
H3629 H 0.75769 0.59943 0.64416 0.0
H3630 H 0.77241 0.54674 0.63232 0.0
H3631 H 0.7471 0.57884 0.65892 0.0
H3632 H 0.72413 0.52287 0.64266 0.0
H3633 H 0.74495 0.53794 0.63248 0.0
H3634 H 0.75202 0.55723 0.67646 0.0
H3635 H 0.73118 0.54243 0.6865 0.0
C3636 C 0.77557 0.57013 0.62679 0.0
C3637 C 0.77129 0.58504 0.62989 0.0
C3638 C 0.76952 0.55823 0.63528 0.0
C3639 C 0.759 0.56117 0.64681 0.0
C3640 C 0.75551 0.57622 0.65041 0.0
C3641 C 0.76161 0.58803 0.64202 0.0
C3642 C 0.73045 0.53 0.6502 0.0
C3643 C 0.72581 0.53189 0.66521 0.0
C3644 C 0.74242 0.53855 0.64442 0.0
C3645 C 0.74988 0.54897 0.65366 0.0
C3646 C 0.74627 0.5495 0.66905 0.0
C3647 C 0.73431 0.54108 0.67476 0.0
loop_
_geom_bond_atom_site_label_1
_geom_bond_atom_site_label_2
_geom_bond_distance
_geom_bond_site_symmetry_2
_ccdc_geom_bond_type
Mn0 O5 2.095 . S
Mn0 O15 2.162 . S
Mn0 O16 2.297 . S
Mn0 O24 2.385 . S
Mn0 O25 2.209 . S
Mn0 O26 2.094 . S
Mn1 O6 2.121 . S
Mn1 N8 2.257 . S
Mn1 N17 2.282 . S
Mn1 O25 2.215 . S
Mn1 O27 2.117 . S
C2 O24 1.234 . S
C2 O25 1.283 . S
C3 O15 1.281 . S
C3 O16 1.236 . S
C4 O26 1.240 . S
C4 O27 1.264 . S
O5 Mn0 2.095 . S
O5 C14 1.250 . S
O6 Mn1 2.121 . S
O6 C14 1.258 . S
C7 N8 1.326 1_655 S
C7 C11 1.460 . S
C7 H13 0.929 . S
N8 Mn1 2.257 . S
N8 C7 1.326 1_455 S
N8 C12 1.365 . S
C9 C10 1.258 . S
C9 C12 1.419 1_655 S
C9 C29 1.449 . S
C10 C9 1.258 . S
C10 C11 1.477 . S
C10 H30 0.931 . S
C11 C7 1.460 . S
C11 C10 1.477 . S
C11 H31 0.930 . S
C12 N8 1.365 . S
C12 C9 1.419 1_455 S
C12 C22 1.485 . S
H13 C7 0.929 . S
C14 O5 1.250 . S
C14 O6 1.258 . S
O15 Mn0 2.162 . S
O15 C3 1.281 . S
O16 Mn0 2.297 . S
O16 C3 1.236 . S
N17 Mn1 2.282 . S
N17 C18 1.328 . S
N17 C22 1.318 . S
C18 N17 1.328 . S
C18 C19 1.457 . S
C18 H23 0.929 . S
C19 C18 1.457 . S
C19 C20 1.291 . S
C19 H32 0.931 . S
C20 C19 1.291 . S
C20 C21 1.373 . S
C20 H33 0.929 . S
C21 C20 1.373 . S
C21 C22 1.396 . S
C21 C28 1.403 1_455 S
C22 C12 1.485 . S
C22 N17 1.318 . S
C22 C21 1.396 . S
H23 C18 0.929 . S
O24 Mn0 2.385 . S
O24 C2 1.234 . S
O25 Mn0 2.209 . S
O25 Mn1 2.215 . S
O25 C2 1.283 . S
O26 Mn0 2.094 . S
O26 C4 1.240 . S
O27 Mn1 2.117 . S
O27 C4 1.264 . S
C28 C21 1.403 1_655 S
C28 C29 1.399 . S
C28 H34 0.929 . S
C29 C9 1.449 . S
C29 C28 1.399 . S
C29 H35 0.930 . S
H30 C10 0.931 . S
H31 C11 0.930 . S
H32 C19 0.931 . S
H33 C20 0.929 . S
H34 C28 0.929 . S
H35 C29 0.930 . S
Mn36 O41 2.095 . S
Mn36 O51 2.162 . S
Mn36 O52 2.297 . S
Mn36 O60 2.385 . S
Mn36 O61 2.209 . S
Mn36 O62 2.094 . S
Mn37 O42 2.121 . S
Mn37 N44 2.257 . S
Mn37 N53 2.282 . S
Mn37 O61 2.215 . S
Mn37 O63 2.117 . S
C38 O60 1.234 . S
C38 O61 1.283 . S
C39 O51 1.281 . S
C39 O52 1.236 . S
C40 O62 1.240 . S
C40 O63 1.264 . S
O41 Mn36 2.095 . S
O41 C50 1.250 . S
O42 Mn37 2.121 . S
O42 C50 1.258 . S
C43 N44 1.341 . S
C43 C47 1.433 1_655 S
C43 H49 0.946 . S
N44 Mn37 2.257 . S
N44 C43 1.341 . S
N44 C48 1.364 . S
C45 C46 1.258 . S
C45 C48 1.428 1_455 S
C45 C65 1.449 . S
C46 C45 1.258 . S
C46 C47 1.477 . S
C46 H66 0.931 . S
C47 C43 1.433 1_455 S
C47 C46 1.477 . S
C47 H67 0.930 . S
C48 N44 1.364 . S
C48 C45 1.428 1_655 S
C48 C58 1.478 . S
H49 C43 0.946 . S
C50 O41 1.250 . S
C50 O42 1.258 . S
O51 Mn36 2.162 . S
O51 C39 1.281 . S
O52 Mn36 2.297 . S
O52 C39 1.236 . S
N53 Mn37 2.282 . S
N53 C54 1.328 . S
N53 C58 1.318 . S
C54 N53 1.328 . S
C54 C55 1.457 . S
C54 H59 0.929 . S
C55 C54 1.457 . S
C55 C56 1.291 . S
C55 H68 0.931 . S
C56 C55 1.291 . S
C56 C57 1.373 . S
C56 H69 0.929 . S
C57 C56 1.373 . S
C57 C58 1.396 . S
C57 C64 1.403 1_655 S
C58 C48 1.478 . S
C58 N53 1.318 . S
C58 C57 1.396 . S
H59 C54 0.929 . S
O60 Mn36 2.385 . S
O60 C38 1.234 . S
O61 Mn36 2.209 . S
O61 Mn37 2.215 . S
O61 C38 1.283 . S
O62 Mn36 2.094 . S
O62 C40 1.240 . S
O63 Mn37 2.117 . S
O63 C40 1.264 . S
C64 C57 1.403 1_455 S
C64 C65 1.399 . S
C64 H70 0.929 . S
C65 C45 1.449 . S
C65 C64 1.399 . S
C65 H71 0.930 . S
H66 C46 0.931 . S
H67 C47 0.930 . S
H68 C55 0.931 . S
H69 C56 0.929 . S
H70 C64 0.929 . S
H71 C65 0.930 . S
Mn72 O77 2.095 . S
Mn72 O87 2.162 . S
Mn72 O88 2.297 . S
Mn72 O96 2.385 . S
Mn72 O97 2.209 . S
Mn72 O98 2.094 . S
Mn73 O78 2.121 . S
Mn73 N80 2.257 . S
Mn73 N89 2.282 . S
Mn73 O97 2.215 . S
Mn73 O99 2.117 . S
C74 O96 1.234 . S
C74 O97 1.283 . S
C75 O87 1.281 . S
C75 O88 1.236 . S
C76 O98 1.240 . S
C76 O99 1.264 . S
O77 Mn72 2.095 . S
O77 C86 1.250 . S
O78 Mn73 2.121 . S
O78 C86 1.258 . S
C79 N80 1.326 . S
C79 C83 1.460 . S
C79 H85 0.929 . S
N80 Mn73 2.257 . S
N80 C79 1.326 . S
N80 C84 1.362 . S
C81 C82 1.258 . S
C81 C84 1.431 . S
C81 C101 1.449 . S
C82 C81 1.258 . S
C82 C83 1.477 . S
C82 H102 0.931 . S
C83 C79 1.460 . S
C83 C82 1.477 . S
C83 H103 0.930 . S
C84 N80 1.362 . S
C84 C81 1.431 . S
C84 C94 1.476 . S
H85 C79 0.929 . S
C86 O77 1.250 . S
C86 O78 1.258 . S
O87 Mn72 2.162 . S
O87 C75 1.281 . S
O88 Mn72 2.297 . S
O88 C75 1.236 . S
N89 Mn73 2.282 . S
N89 C90 1.328 . S
N89 C94 1.318 . S
C90 N89 1.328 . S
C90 C91 1.457 . S
C90 H95 0.929 . S
C91 C90 1.457 . S
C91 C92 1.291 . S
C91 H104 0.931 . S
C92 C91 1.291 . S
C92 C93 1.373 . S
C92 H105 0.929 . S
C93 C92 1.373 . S
C93 C94 1.396 . S
C93 C100 1.403 . S
C94 C84 1.476 . S
C94 N89 1.318 . S
C94 C93 1.396 . S
H95 C90 0.929 . S
O96 Mn72 2.385 . S
O96 C74 1.234 . S
O97 Mn72 2.209 . S
O97 Mn73 2.215 . S
O97 C74 1.283 . S
O98 Mn72 2.094 . S
O98 C76 1.240 . S
O99 Mn73 2.117 . S
O99 C76 1.264 . S
C100 C93 1.403 . S
C100 C101 1.399 . S
C100 H106 0.929 . S
C101 C81 1.449 . S
C101 C100 1.399 . S
C101 H107 0.930 . S
H102 C82 0.931 . S
H103 C83 0.930 . S
H104 C91 0.931 . S
H105 C92 0.929 . S
H106 C100 0.929 . S
H107 C101 0.930 . S
Mn108 O113 2.095 1_556 S
Mn108 O123 2.162 1_556 S
Mn108 O124 2.286 1_556 S
Mn108 O132 2.385 . S
Mn108 O133 2.209 . S
Mn108 O134 2.094 . S
Mn109 O114 2.121 . S
Mn109 N116 2.257 . S
Mn109 N125 2.282 . S
Mn109 O133 2.215 . S
Mn109 O135 2.117 . S
C110 O132 1.234 . S
C110 O133 1.283 . S
C111 O123 1.281 . S
C111 O124 1.266 . S
C112 O134 1.240 . S
C112 O135 1.264 . S
O113 Mn108 2.095 1_554 S
O113 C122 1.250 1_554 S
O114 Mn109 2.121 . S
O114 C122 1.258 . S
C115 N116 1.326 . S
C115 C119 1.460 . S
C115 H121 0.929 . S
N116 Mn109 2.257 . S
N116 C115 1.326 . S
N116 C120 1.362 . S
C117 C118 1.258 . S
C117 C120 1.431 . S
C117 C137 1.449 . S
C118 C117 1.258 . S
C118 C119 1.477 . S
C118 H138 0.931 . S
C119 C115 1.460 . S
C119 C118 1.477 . S
C119 H139 0.930 . S
C120 N116 1.362 . S
C120 C117 1.431 . S
C120 C130 1.476 . S
H121 C115 0.929 . S
C122 O113 1.250 1_556 S
C122 O114 1.258 . S
O123 Mn108 2.162 1_554 S
O123 C111 1.281 . S
O124 Mn108 2.286 1_554 S
O124 C111 1.266 . S
N125 Mn109 2.282 . S
N125 C126 1.328 . S
N125 C130 1.318 . S
C126 N125 1.328 . S
C126 C127 1.457 . S
C126 H131 0.929 . S
C127 C126 1.457 . S
C127 C128 1.291 . S
C127 H140 0.931 . S
C128 C127 1.291 . S
C128 C129 1.373 . S
C128 H141 0.929 . S
C129 C128 1.373 . S
C129 C130 1.396 . S
C129 C136 1.403 . S
C130 C120 1.476 . S
C130 N125 1.318 . S
C130 C129 1.396 . S
H131 C126 0.929 . S
O132 Mn108 2.385 . S
O132 C110 1.234 . S
O133 Mn108 2.209 . S
O133 Mn109 2.215 . S
O133 C110 1.283 . S
O134 Mn108 2.094 . S
O134 C112 1.240 . S
O135 Mn109 2.117 . S
O135 C112 1.264 . S
C136 C129 1.403 . S
C136 C137 1.399 . S
C136 H142 0.929 . S
C137 C117 1.449 . S
C137 C136 1.399 . S
C137 H143 0.930 . S
H138 C118 0.931 . S
H139 C119 0.930 . S
H140 C127 0.931 . S
H141 C128 0.929 . S
H142 C136 0.929 . S
H143 C137 0.930 . S
Mn144 O149 2.095 . S
Mn144 O159 2.162 . S
Mn144 O160 2.288 1_455 S
Mn144 O168 2.385 1_455 S
Mn144 O169 2.209 1_455 S
Mn144 O170 2.094 . S
Mn145 O150 2.121 . S
Mn145 N152 2.257 1_455 S
Mn145 N161 2.282 1_455 S
Mn145 O169 2.215 1_455 S
Mn145 O171 2.117 . S
C146 O168 1.234 . S
C146 O169 1.283 . S
C147 O159 1.281 . S
C147 O160 1.230 1_455 S
C148 O170 1.240 . S
C148 O171 1.264 . S
O149 Mn144 2.095 . S
O149 C158 1.250 . S
O150 Mn145 2.121 . S
O150 C158 1.258 . S
C151 N152 1.326 . S
C151 C155 1.460 . S
C151 H157 0.929 1_655 S
N152 Mn145 2.257 1_655 S
N152 C151 1.326 . S
N152 C156 1.362 . S
C153 C154 1.258 . S
C153 C156 1.431 . S
C153 C173 1.449 . S
C154 C153 1.258 . S
C154 C155 1.477 . S
C154 H174 0.931 . S
C155 C151 1.460 . S
C155 C154 1.477 . S
C155 H175 0.930 . S
C156 N152 1.362 . S
C156 C153 1.431 . S
C156 C166 1.476 . S
H157 C151 0.929 1_455 S
C158 O149 1.250 . S
C158 O150 1.258 . S
O159 Mn144 2.162 . S
O159 C147 1.281 . S
O160 Mn144 2.288 1_655 S
O160 C147 1.230 1_655 S
N161 Mn145 2.282 1_655 S
N161 C162 1.328 . S
N161 C166 1.318 . S
C162 N161 1.328 . S
C162 C163 1.457 . S
C162 H167 0.914 1_655 S
C163 C162 1.457 . S
C163 C164 1.291 . S
C163 H176 0.931 . S
C164 C163 1.291 . S
C164 C165 1.373 . S
C164 H177 0.929 . S
C165 C164 1.373 . S
C165 C166 1.396 . S
C165 C172 1.403 . S
C166 C156 1.476 . S
C166 N161 1.318 . S
C166 C165 1.396 . S
H167 C162 0.914 1_455 S
O168 Mn144 2.385 1_655 S
O168 C146 1.234 . S
O169 Mn144 2.209 1_655 S
O169 Mn145 2.215 1_655 S
O169 C146 1.283 . S
O170 Mn144 2.094 . S
O170 C148 1.240 . S
O171 Mn145 2.117 . S
O171 C148 1.264 . S
C172 C165 1.403 . S
C172 C173 1.399 . S
C172 H178 0.929 . S
C173 C153 1.449 . S
C173 C172 1.399 . S
C173 H179 0.930 . S
H174 C154 0.931 . S
H175 C155 0.930 . S
H176 C163 0.931 . S
H177 C164 0.929 . S
H178 C172 0.929 . S
H179 C173 0.930 . S
Mn180 O185 2.095 . S
Mn180 O195 2.162 . S
Mn180 O196 2.297 . S
Mn180 O204 2.385 . S
Mn180 O205 2.209 . S
Mn180 O206 2.094 . S
Mn181 O186 2.121 . S
Mn181 N188 2.257 . S
Mn181 N197 2.282 . S
Mn181 O205 2.215 . S
Mn181 O207 2.117 . S
C182 O204 1.234 . S
C182 O205 1.283 . S
C183 O195 1.281 . S
C183 O196 1.236 . S
C184 O206 1.240 . S
C184 O207 1.264 . S
O185 Mn180 2.095 . S
O185 C194 1.250 . S
O186 Mn181 2.121 . S
O186 C194 1.258 . S
C187 N188 1.326 . S
C187 C191 1.460 . S
C187 H193 0.929 . S
N188 Mn181 2.257 . S
N188 C187 1.326 . S
N188 C192 1.362 . S
C189 C190 1.258 . S
C189 C192 1.431 . S
C189 C209 1.449 . S
C190 C189 1.258 . S
C190 C191 1.477 . S
C190 H210 0.931 . S
C191 C187 1.460 . S
C191 C190 1.477 . S
C191 H211 0.930 . S
C192 N188 1.362 . S
C192 C189 1.431 . S
C192 C202 1.476 . S
H193 C187 0.929 . S
C194 O185 1.250 . S
C194 O186 1.258 . S
O195 Mn180 2.162 . S
O195 C183 1.281 . S
O196 Mn180 2.297 . S
O196 C183 1.236 . S
N197 Mn181 2.282 . S
N197 C198 1.328 . S
N197 C202 1.318 . S
C198 N197 1.328 . S
C198 C199 1.457 . S
C198 H203 0.929 . S
C199 C198 1.457 . S
C199 C200 1.291 . S
C199 H212 0.931 . S
C200 C199 1.291 . S
C200 C201 1.373 . S
C200 H213 0.929 . S
C201 C200 1.373 . S
C201 C202 1.396 . S
C201 C208 1.403 . S
C202 C192 1.476 . S
C202 N197 1.318 . S
C202 C201 1.396 . S
H203 C198 0.929 . S
O204 Mn180 2.385 . S
O204 C182 1.234 . S
O205 Mn180 2.209 . S
O205 Mn181 2.215 . S
O205 C182 1.283 . S
O206 Mn180 2.094 . S
O206 C184 1.240 . S
O207 Mn181 2.117 . S
O207 C184 1.264 . S
C208 C201 1.403 . S
C208 C209 1.399 . S
C208 H214 0.929 . S
C209 C189 1.449 . S
C209 C208 1.399 . S
C209 H215 0.930 . S
H210 C190 0.931 . S
H211 C191 0.930 . S
H212 C199 0.931 . S
H213 C200 0.929 . S
H214 C208 0.929 . S
H215 C209 0.930 . S
Mn216 O221 2.095 . S
Mn216 O231 2.162 . S
Mn216 O232 2.297 . S
Mn216 O240 2.385 . S
Mn216 O241 2.209 . S
Mn216 O242 2.094 . S
Mn217 O222 2.121 . S
Mn217 N224 2.257 . S
Mn217 N233 2.282 . S
Mn217 O241 2.215 . S
Mn217 O243 2.117 . S
C218 O240 1.234 . S
C218 O241 1.283 . S
C219 O231 1.281 . S
C219 O232 1.236 . S
C220 O242 1.240 . S
C220 O243 1.264 . S
O221 Mn216 2.095 . S
O221 C230 1.250 . S
O222 Mn217 2.121 . S
O222 C230 1.258 . S
C223 N224 1.326 . S
C223 C227 1.460 . S
C223 H229 0.929 . S
N224 Mn217 2.257 . S
N224 C223 1.326 . S
N224 C228 1.362 . S
C225 C226 1.258 . S
C225 C228 1.431 . S
C225 C245 1.449 . S
C226 C225 1.258 . S
C226 C227 1.477 . S
C226 H246 0.931 . S
C227 C223 1.460 . S
C227 C226 1.477 . S
C227 H247 0.930 . S
C228 N224 1.362 . S
C228 C225 1.431 . S
C228 C238 1.476 . S
H229 C223 0.929 . S
C230 O221 1.250 . S
C230 O222 1.258 . S
O231 Mn216 2.162 . S
O231 C219 1.281 . S
O232 Mn216 2.297 . S
O232 C219 1.236 . S
N233 Mn217 2.282 . S
N233 C234 1.328 . S
N233 C238 1.318 . S
C234 N233 1.328 . S
C234 C235 1.457 . S
C234 H239 0.929 . S
C235 C234 1.457 . S
C235 C236 1.291 . S
C235 H248 0.931 . S
C236 C235 1.291 . S
C236 C237 1.373 . S
C236 H249 0.929 . S
C237 C236 1.373 . S
C237 C238 1.396 . S
C237 C244 1.403 . S
C238 C228 1.476 . S
C238 N233 1.318 . S
C238 C237 1.396 . S
H239 C234 0.929 . S
O240 Mn216 2.385 . S
O240 C218 1.234 . S
O241 Mn216 2.209 . S
O241 Mn217 2.215 . S
O241 C218 1.283 . S
O242 Mn216 2.094 . S
O242 C220 1.240 . S
O243 Mn217 2.117 . S
O243 C220 1.264 . S
C244 C237 1.403 . S
C244 C245 1.399 . S
C244 H250 0.929 . S
C245 C225 1.449 . S
C245 C244 1.399 . S
C245 H251 0.930 . S
H246 C226 0.931 . S
H247 C227 0.930 . S
H248 C235 0.931 . S
H249 C236 0.929 . S
H250 C244 0.929 . S
H251 C245 0.930 . S
Mn252 O257 2.095 . S
Mn252 O267 2.162 . S
Mn252 O268 2.297 . S
Mn252 O276 2.385 . S
Mn252 O277 2.209 . S
Mn252 O278 2.094 . S
Mn253 O258 2.121 1_455 S
Mn253 N260 2.257 . S
Mn253 N269 2.282 . S
Mn253 O277 2.215 1_455 S
Mn253 O279 2.117 1_455 S
C254 O276 1.234 . S
C254 O277 1.283 . S
C255 O267 1.281 . S
C255 O268 1.236 . S
C256 O278 1.240 . S
C256 O279 1.264 . S
O257 Mn252 2.095 . S
O257 C266 1.250 . S
O258 Mn253 2.121 1_655 S
O258 C266 1.258 . S
C259 N260 1.326 . S
C259 C263 1.460 . S
C259 H265 0.929 . S
N260 Mn253 2.257 . S
N260 C259 1.326 . S
N260 C264 1.362 . S
C261 C262 1.258 . S
C261 C264 1.431 . S
C261 C281 1.449 . S
C262 C261 1.258 . S
C262 C263 1.477 . S
C262 H282 0.931 . S
C263 C259 1.460 . S
C263 C262 1.477 . S
C263 H283 0.930 . S
C264 N260 1.362 . S
C264 C261 1.431 . S
C264 C274 1.476 . S
H265 C259 0.929 . S
C266 O257 1.250 . S
C266 O258 1.258 . S
O267 Mn252 2.162 . S
O267 C255 1.281 . S
O268 Mn252 2.297 . S
O268 C255 1.236 . S
N269 Mn253 2.282 . S
N269 C270 1.349 . S
N269 C274 1.318 . S
C270 N269 1.349 . S
C270 C271 1.471 . S
C270 H275 0.895 1_455 S
C271 C270 1.471 . S
C271 C272 1.291 . S
C271 H284 0.939 . S
C272 C271 1.291 . S
C272 C273 1.373 . S
C272 H285 0.929 . S
C273 C272 1.373 . S
C273 C274 1.396 . S
C273 C280 1.403 . S
C274 C264 1.476 . S
C274 N269 1.318 . S
C274 C273 1.396 . S
H275 C270 0.895 1_655 S
O276 Mn252 2.385 . S
O276 C254 1.234 . S
O277 Mn252 2.209 . S
O277 Mn253 2.215 1_655 S
O277 C254 1.283 . S
O278 Mn252 2.094 . S
O278 C256 1.240 . S
O279 Mn253 2.117 1_655 S
O279 C256 1.264 . S
C280 C273 1.403 . S
C280 C281 1.399 . S
C280 H286 0.929 . S
C281 C261 1.449 . S
C281 C280 1.399 . S
C281 H287 0.930 . S
H282 C262 0.931 . S
H283 C263 0.930 . S
H284 C271 0.939 . S
H285 C272 0.929 . S
H286 C280 0.929 . S
H287 C281 0.930 . S
Mn288 O293 2.095 . S
Mn288 O303 2.162 . S
Mn288 O304 2.297 . S
Mn288 O312 2.385 . S
Mn288 O313 2.209 . S
Mn288 O314 2.094 . S
Mn289 O294 2.121 . S
Mn289 N296 2.257 . S
Mn289 N305 2.282 . S
Mn289 O313 2.215 . S
Mn289 O315 2.117 . S
C290 O312 1.234 . S
C290 O313 1.283 . S
C291 O303 1.281 . S
C291 O304 1.236 . S
C292 O314 1.240 . S
C292 O315 1.264 . S
O293 Mn288 2.095 . S
O293 C302 1.250 . S
O294 Mn289 2.121 . S
O294 C302 1.258 . S
C295 N296 1.326 1_565 S
C295 C299 1.460 . S
C295 H301 0.929 . S
N296 Mn289 2.257 . S
N296 C295 1.326 1_545 S
N296 C300 1.365 . S
C297 C298 1.258 . S
C297 C300 1.419 1_565 S
C297 C317 1.449 . S
C298 C297 1.258 . S
C298 C299 1.477 . S
C298 H318 0.931 . S
C299 C295 1.460 . S
C299 C298 1.477 . S
C299 H319 0.930 . S
C300 N296 1.365 . S
C300 C297 1.419 1_545 S
C300 C310 1.485 . S
H301 C295 0.929 . S
C302 O293 1.250 . S
C302 O294 1.258 . S
O303 Mn288 2.162 . S
O303 C291 1.281 . S
O304 Mn288 2.297 . S
O304 C291 1.236 . S
N305 Mn289 2.282 . S
N305 C306 1.328 . S
N305 C310 1.318 . S
C306 N305 1.328 . S
C306 C307 1.457 . S
C306 H311 0.929 . S
C307 C306 1.457 . S
C307 C308 1.291 . S
C307 H320 0.931 . S
C308 C307 1.291 . S
C308 C309 1.373 . S
C308 H321 0.929 . S
C309 C308 1.373 . S
C309 C310 1.396 . S
C309 C316 1.403 1_545 S
C310 C300 1.485 . S
C310 N305 1.318 . S
C310 C309 1.396 . S
H311 C306 0.929 . S
O312 Mn288 2.385 . S
O312 C290 1.234 . S
O313 Mn288 2.209 . S
O313 Mn289 2.215 . S
O313 C290 1.283 . S
O314 Mn288 2.094 . S
O314 C292 1.240 . S
O315 Mn289 2.117 . S
O315 C292 1.264 . S
C316 C309 1.403 1_565 S
C316 C317 1.399 . S
C316 H322 0.929 . S
C317 C297 1.449 . S
C317 C316 1.399 . S
C317 H323 0.930 . S
H318 C298 0.931 . S
H319 C299 0.930 . S
H320 C307 0.931 . S
H321 C308 0.929 . S
H322 C316 0.929 . S
H323 C317 0.930 . S
Mn324 O329 2.095 1_565 S
Mn324 O339 2.162 1_565 S
Mn324 O340 2.286 1_565 S
Mn324 O348 2.385 . S
Mn324 O349 2.209 . S
Mn324 O350 2.094 . S
Mn325 O330 2.121 . S
Mn325 N332 2.257 . S
Mn325 N341 2.282 . S
Mn325 O349 2.215 . S
Mn325 O351 2.117 . S
C326 O348 1.234 . S
C326 O349 1.283 . S
C327 O339 1.281 . S
C327 O340 1.266 . S
C328 O350 1.240 . S
C328 O351 1.264 . S
O329 Mn324 2.095 1_545 S
O329 C338 1.250 1_545 S
O330 Mn325 2.121 . S
O330 C338 1.258 . S
C331 N332 1.326 . S
C331 C335 1.460 . S
C331 H337 0.929 . S
N332 Mn325 2.257 . S
N332 C331 1.326 . S
N332 C336 1.362 . S
C333 C334 1.258 . S
C333 C336 1.431 . S
C333 C353 1.449 . S
C334 C333 1.258 . S
C334 C335 1.477 . S
C334 H354 0.931 . S
C335 C331 1.460 . S
C335 C334 1.477 . S
C335 H355 0.930 . S
C336 N332 1.362 . S
C336 C333 1.431 . S
C336 C346 1.476 . S
H337 C331 0.929 . S
C338 O329 1.250 1_565 S
C338 O330 1.258 . S
O339 Mn324 2.162 1_545 S
O339 C327 1.281 . S
O340 Mn324 2.286 1_545 S
O340 C327 1.266 . S
N341 Mn325 2.282 . S
N341 C342 1.328 . S
N341 C346 1.318 . S
C342 N341 1.328 . S
C342 C343 1.457 . S
C342 H347 0.929 . S
C343 C342 1.457 . S
C343 C344 1.291 . S
C343 H356 0.931 . S
C344 C343 1.291 . S
C344 C345 1.373 . S
C344 H357 0.929 . S
C345 C344 1.373 . S
C345 C346 1.396 . S
C345 C352 1.403 . S
C346 C336 1.476 . S
C346 N341 1.318 . S
C346 C345 1.396 . S
H347 C342 0.929 . S
O348 Mn324 2.385 . S
O348 C326 1.234 . S
O349 Mn324 2.209 . S
O349 Mn325 2.215 . S
O349 C326 1.283 . S
O350 Mn324 2.094 . S
O350 C328 1.240 . S
O351 Mn325 2.117 . S
O351 C328 1.264 . S
C352 C345 1.403 . S
C352 C353 1.399 . S
C352 H358 0.929 . S
C353 C333 1.449 . S
C353 C352 1.399 . S
C353 H359 0.930 . S
H354 C334 0.931 . S
H355 C335 0.930 . S
H356 C343 0.931 . S
H357 C344 0.929 . S
H358 C352 0.929 . S
H359 C353 0.930 . S
Mn360 O365 2.095 . S
Mn360 O375 2.162 . S
Mn360 O376 2.297 . S
Mn360 O384 2.385 . S
Mn360 O385 2.209 . S
Mn360 O386 2.094 . S
Mn361 O366 2.121 . S
Mn361 N368 2.257 . S
Mn361 N377 2.282 . S
Mn361 O385 2.215 . S
Mn361 O387 2.117 . S
C362 O384 1.234 . S
C362 O385 1.283 . S
C363 O375 1.281 . S
C363 O376 1.236 . S
C364 O386 1.240 . S
C364 O387 1.264 . S
O365 Mn360 2.095 . S
O365 C374 1.250 . S
O366 Mn361 2.121 . S
O366 C374 1.258 . S
C367 N368 1.326 . S
C367 C371 1.460 . S
C367 H373 0.929 . S
N368 Mn361 2.257 . S
N368 C367 1.326 . S
N368 C372 1.362 . S
C369 C370 1.258 . S
C369 C372 1.431 . S
C369 C389 1.449 . S
C370 C369 1.258 . S
C370 C371 1.477 . S
C370 H390 0.931 . S
C371 C367 1.460 . S
C371 C370 1.477 . S
C371 H391 0.930 . S
C372 N368 1.362 . S
C372 C369 1.431 . S
C372 C382 1.476 . S
H373 C367 0.929 . S
C374 O365 1.250 . S
C374 O366 1.258 . S
O375 Mn360 2.162 . S
O375 C363 1.281 . S
O376 Mn360 2.297 . S
O376 C363 1.236 . S
N377 Mn361 2.282 . S
N377 C378 1.328 . S
N377 C382 1.318 . S
C378 N377 1.328 . S
C378 C379 1.457 . S
C378 H383 0.929 . S
C379 C378 1.457 . S
C379 C380 1.291 . S
C379 H392 0.931 . S
C380 C379 1.291 . S
C380 C381 1.373 . S
C380 H393 0.929 . S
C381 C380 1.373 . S
C381 C382 1.396 . S
C381 C388 1.403 . S
C382 C372 1.476 . S
C382 N377 1.318 . S
C382 C381 1.396 . S
H383 C378 0.929 . S
O384 Mn360 2.385 . S
O384 C362 1.234 . S
O385 Mn360 2.209 . S
O385 Mn361 2.215 . S
O385 C362 1.283 . S
O386 Mn360 2.094 . S
O386 C364 1.240 . S
O387 Mn361 2.117 . S
O387 C364 1.264 . S
C388 C381 1.403 . S
C388 C389 1.399 . S
C388 H394 0.929 . S
C389 C369 1.449 . S
C389 C388 1.399 . S
C389 H395 0.930 . S
H390 C370 0.931 . S
H391 C371 0.930 . S
H392 C379 0.931 . S
H393 C380 0.929 . S
H394 C388 0.929 . S
H395 C389 0.930 . S
Mn396 O401 2.095 . S
Mn396 O411 2.162 . S
Mn396 O412 2.297 . S
Mn396 O420 2.385 . S
Mn396 O421 2.209 . S
Mn396 O422 2.094 . S
Mn397 O402 2.121 . S
Mn397 N404 2.257 1_554 S
Mn397 N413 2.282 . S
Mn397 O421 2.215 . S
Mn397 O423 2.117 . S
C398 O420 1.234 . S
C398 O421 1.283 . S
C399 O411 1.281 . S
C399 O412 1.236 . S
C400 O422 1.240 . S
C400 O423 1.264 . S
O401 Mn396 2.095 . S
O401 C410 1.250 . S
O402 Mn397 2.121 . S
O402 C410 1.258 . S
C403 N404 1.326 . S
C403 C407 1.460 . S
C403 H409 0.929 . S
N404 Mn397 2.257 1_556 S
N404 C403 1.326 . S
N404 C408 1.362 . S
C405 C406 1.258 . S
C405 C408 1.431 . S
C405 C425 1.449 . S
C406 C405 1.258 . S
C406 C407 1.477 . S
C406 H426 0.931 . S
C407 C403 1.460 . S
C407 C406 1.477 . S
C407 H427 0.930 . S
C408 N404 1.362 . S
C408 C405 1.431 . S
C408 C418 1.476 1_556 S
H409 C403 0.929 . S
C410 O401 1.250 . S
C410 O402 1.258 . S
O411 Mn396 2.162 . S
O411 C399 1.281 . S
O412 Mn396 2.297 . S
O412 C399 1.236 . S
N413 Mn397 2.282 . S
N413 C414 1.328 . S
N413 C418 1.318 . S
C414 N413 1.328 . S
C414 C415 1.457 . S
C414 H419 0.929 . S
C415 C414 1.457 . S
C415 C416 1.291 . S
C415 H428 0.931 . S
C416 C415 1.291 . S
C416 C417 1.355 1_554 S
C416 H429 0.929 . S
C417 C416 1.355 1_556 S
C417 C418 1.393 1_556 S
C417 C424 1.422 . S
C418 C408 1.476 1_554 S
C418 N413 1.318 . S
C418 C417 1.393 1_554 S
H419 C414 0.929 . S
O420 Mn396 2.385 . S
O420 C398 1.234 . S
O421 Mn396 2.209 . S
O421 Mn397 2.215 . S
O421 C398 1.283 . S
O422 Mn396 2.094 . S
O422 C400 1.240 . S
O423 Mn397 2.117 . S
O423 C400 1.264 . S
C424 C417 1.422 . S
C424 C425 1.399 . S
C424 H430 0.929 . S
C425 C405 1.449 . S
C425 C424 1.399 . S
C425 H431 0.930 . S
H426 C406 0.931 . S
H427 C407 0.930 . S
H428 C415 0.931 . S
H429 C416 0.929 . S
H430 C424 0.929 . S
H431 C425 0.930 . S
Mn432 O437 2.090 1_565 S
Mn432 O447 2.162 . S
Mn432 O448 2.297 1_565 S
Mn432 O456 2.385 1_565 S
Mn432 O457 2.209 1_565 S
Mn432 O458 2.094 . S
Mn433 O438 2.121 . S
Mn433 N440 2.257 . S
Mn433 N449 2.282 . S
Mn433 O457 2.215 . S
Mn433 O459 2.117 1_545 S
C434 O456 1.234 . S
C434 O457 1.283 . S
C435 O447 1.281 1_545 S
C435 O448 1.236 . S
C436 O458 1.240 . S
C436 O459 1.264 . S
O437 Mn432 2.090 1_545 S
O437 C446 1.275 . S
O438 Mn433 2.121 . S
O438 C446 1.258 . S
C439 N440 1.326 . S
C439 C443 1.460 . S
C439 H445 0.929 . S
N440 Mn433 2.257 . S
N440 C439 1.326 . S
N440 C444 1.362 . S
C441 C442 1.258 . S
C441 C444 1.431 . S
C441 C461 1.449 . S
C442 C441 1.258 . S
C442 C443 1.477 . S
C442 H462 0.931 . S
C443 C439 1.460 . S
C443 C442 1.477 . S
C443 H463 0.930 . S
C444 N440 1.362 . S
C444 C441 1.431 . S
C444 C454 1.476 . S
H445 C439 0.929 . S
C446 O437 1.275 . S
C446 O438 1.258 . S
O447 Mn432 2.162 . S
O447 C435 1.281 1_565 S
O448 Mn432 2.297 1_545 S
O448 C435 1.236 . S
N449 Mn433 2.282 . S
N449 C450 1.328 1_545 S
N449 C454 1.318 . S
C450 N449 1.328 1_565 S
C450 C451 1.457 . S
C450 H455 0.929 . S
C451 C450 1.457 . S
C451 C452 1.291 1_565 S
C451 H464 0.931 . S
C452 C451 1.291 1_545 S
C452 C453 1.373 . S
C452 H465 0.929 . S
C453 C452 1.373 . S
C453 C454 1.396 . S
C453 C460 1.403 . S
C454 C444 1.476 . S
C454 N449 1.318 . S
C454 C453 1.396 . S
H455 C450 0.929 . S
O456 Mn432 2.385 1_545 S
O456 C434 1.234 . S
O457 Mn432 2.209 1_545 S
O457 Mn433 2.215 . S
O457 C434 1.283 . S
O458 Mn432 2.094 . S
O458 C436 1.240 . S
O459 Mn433 2.117 1_565 S
O459 C436 1.264 . S
C460 C453 1.403 . S
C460 C461 1.399 . S
C460 H466 0.929 . S
C461 C441 1.449 . S
C461 C460 1.399 . S
C461 H467 0.930 . S
H462 C442 0.931 . S
H463 C443 0.930 . S
H464 C451 0.931 . S
H465 C452 0.929 . S
H466 C460 0.929 . S
H467 C461 0.930 . S
Mn468 O473 2.095 . S
Mn468 O483 2.162 . S
Mn468 O484 2.297 . S
Mn468 O492 2.385 . S
Mn468 O493 2.209 . S
Mn468 O494 2.094 . S
Mn469 O474 2.121 . S
Mn469 N476 2.257 . S
Mn469 N485 2.282 . S
Mn469 O493 2.215 . S
Mn469 O495 2.117 . S
C470 O492 1.234 . S
C470 O493 1.283 . S
C471 O483 1.281 . S
C471 O484 1.236 . S
C472 O494 1.240 . S
C472 O495 1.264 . S
O473 Mn468 2.095 . S
O473 C482 1.250 . S
O474 Mn469 2.121 . S
O474 C482 1.258 . S
C475 N476 1.326 . S
C475 C479 1.460 . S
C475 H481 0.929 . S
N476 Mn469 2.257 . S
N476 C475 1.326 . S
N476 C480 1.362 . S
C477 C478 1.258 . S
C477 C480 1.431 . S
C477 C497 1.449 . S
C478 C477 1.258 . S
C478 C479 1.477 . S
C478 H498 0.931 . S
C479 C475 1.460 . S
C479 C478 1.477 . S
C479 H499 0.930 . S
C480 N476 1.362 . S
C480 C477 1.431 . S
C480 C490 1.476 . S
H481 C475 0.929 . S
C482 O473 1.250 . S
C482 O474 1.258 . S
O483 Mn468 2.162 . S
O483 C471 1.281 . S
O484 Mn468 2.297 . S
O484 C471 1.236 . S
N485 Mn469 2.282 . S
N485 C486 1.328 . S
N485 C490 1.318 . S
C486 N485 1.328 . S
C486 C487 1.457 . S
C486 H491 0.929 . S
C487 C486 1.457 . S
C487 C488 1.291 . S
C487 H500 0.931 . S
C488 C487 1.291 . S
C488 C489 1.373 . S
C488 H501 0.929 . S
C489 C488 1.373 . S
C489 C490 1.396 . S
C489 C496 1.403 . S
C490 C480 1.476 . S
C490 N485 1.318 . S
C490 C489 1.396 . S
H491 C486 0.929 . S
O492 Mn468 2.385 . S
O492 C470 1.234 . S
O493 Mn468 2.209 . S
O493 Mn469 2.215 . S
O493 C470 1.283 . S
O494 Mn468 2.094 . S
O494 C472 1.240 . S
O495 Mn469 2.117 . S
O495 C472 1.264 . S
C496 C489 1.403 . S
C496 C497 1.399 . S
C496 H502 0.929 . S
C497 C477 1.449 . S
C497 C496 1.399 . S
C497 H503 0.930 . S
H498 C478 0.931 . S
H499 C479 0.930 . S
H500 C487 0.931 . S
H501 C488 0.929 . S
H502 C496 0.929 . S
H503 C497 0.930 . S
Mn504 O509 2.095 . S
Mn504 O519 2.162 . S
Mn504 O520 2.288 1_545 S
Mn504 O528 2.385 1_545 S
Mn504 O529 2.209 1_545 S
Mn504 O530 2.094 . S
Mn505 O510 2.121 . S
Mn505 N512 2.257 1_545 S
Mn505 N521 2.282 1_545 S
Mn505 O529 2.215 1_545 S
Mn505 O531 2.117 . S
C506 O528 1.234 . S
C506 O529 1.283 . S
C507 O519 1.281 . S
C507 O520 1.230 1_545 S
C508 O530 1.240 . S
C508 O531 1.264 . S
O509 Mn504 2.095 . S
O509 C518 1.250 . S
O510 Mn505 2.121 . S
O510 C518 1.258 . S
C511 N512 1.326 . S
C511 C515 1.460 . S
C511 H517 0.929 1_565 S
N512 Mn505 2.257 1_565 S
N512 C511 1.326 . S
N512 C516 1.362 . S
C513 C514 1.258 . S
C513 C516 1.431 . S
C513 C533 1.449 . S
C514 C513 1.258 . S
C514 C515 1.477 . S
C514 H534 0.931 . S
C515 C511 1.460 . S
C515 C514 1.477 . S
C515 H535 0.930 . S
C516 N512 1.362 . S
C516 C513 1.431 . S
C516 C526 1.476 . S
H517 C511 0.929 1_545 S
C518 O509 1.250 . S
C518 O510 1.258 . S
O519 Mn504 2.162 . S
O519 C507 1.281 . S
O520 Mn504 2.288 1_565 S
O520 C507 1.230 1_565 S
N521 Mn505 2.282 1_565 S
N521 C522 1.328 . S
N521 C526 1.318 . S
C522 N521 1.328 . S
C522 C523 1.457 . S
C522 H527 0.914 1_565 S
C523 C522 1.457 . S
C523 C524 1.291 . S
C523 H536 0.931 . S
C524 C523 1.291 . S
C524 C525 1.373 . S
C524 H537 0.929 . S
C525 C524 1.373 . S
C525 C526 1.396 . S
C525 C532 1.403 . S
C526 C516 1.476 . S
C526 N521 1.318 . S
C526 C525 1.396 . S
H527 C522 0.914 1_545 S
O528 Mn504 2.385 1_565 S
O528 C506 1.234 . S
O529 Mn504 2.209 1_565 S
O529 Mn505 2.215 1_565 S
O529 C506 1.283 . S
O530 Mn504 2.094 . S
O530 C508 1.240 . S
O531 Mn505 2.117 . S
O531 C508 1.264 . S
C532 C525 1.403 . S
C532 C533 1.399 . S
C532 H538 0.929 . S
C533 C513 1.449 . S
C533 C532 1.399 . S
C533 H539 0.930 . S
H534 C514 0.931 . S
H535 C515 0.930 . S
H536 C523 0.931 . S
H537 C524 0.929 . S
H538 C532 0.929 . S
H539 C533 0.930 . S
Mn540 O545 2.095 . S
Mn540 O555 2.162 . S
Mn540 O556 2.297 . S
Mn540 O564 2.385 . S
Mn540 O565 2.209 . S
Mn540 O566 2.094 . S
Mn541 O546 2.121 1_554 S
Mn541 N548 2.257 . S
Mn541 N557 2.282 . S
Mn541 O565 2.215 1_554 S
Mn541 O567 2.117 1_554 S
C542 O564 1.234 . S
C542 O565 1.283 . S
C543 O555 1.281 . S
C543 O556 1.236 . S
C544 O566 1.240 . S
C544 O567 1.264 . S
O545 Mn540 2.095 . S
O545 C554 1.250 . S
O546 Mn541 2.121 1_556 S
O546 C554 1.258 . S
C547 N548 1.326 . S
C547 C551 1.460 . S
C547 H553 0.929 . S
N548 Mn541 2.257 . S
N548 C547 1.326 . S
N548 C552 1.362 . S
C549 C550 1.258 . S
C549 C552 1.431 . S
C549 C569 1.449 . S
C550 C549 1.258 . S
C550 C551 1.477 . S
C550 H570 0.931 . S
C551 C547 1.460 . S
C551 C550 1.477 . S
C551 H571 0.930 . S
C552 N548 1.362 . S
C552 C549 1.431 . S
C552 C562 1.476 . S
H553 C547 0.929 . S
C554 O545 1.250 . S
C554 O546 1.258 . S
O555 Mn540 2.162 . S
O555 C543 1.281 . S
O556 Mn540 2.297 . S
O556 C543 1.236 . S
N557 Mn541 2.282 . S
N557 C558 1.349 . S
N557 C562 1.318 . S
C558 N557 1.349 . S
C558 C559 1.471 . S
C558 H563 0.895 1_554 S
C559 C558 1.471 . S
C559 C560 1.291 . S
C559 H572 0.939 . S
C560 C559 1.291 . S
C560 C561 1.373 . S
C560 H573 0.929 . S
C561 C560 1.373 . S
C561 C562 1.396 . S
C561 C568 1.403 . S
C562 C552 1.476 . S
C562 N557 1.318 . S
C562 C561 1.396 . S
H563 C558 0.895 1_556 S
O564 Mn540 2.385 . S
O564 C542 1.234 . S
O565 Mn540 2.209 . S
O565 Mn541 2.215 1_556 S
O565 C542 1.283 . S
O566 Mn540 2.094 . S
O566 C544 1.240 . S
O567 Mn541 2.117 1_556 S
O567 C544 1.264 . S
C568 C561 1.403 . S
C568 C569 1.399 . S
C568 H574 0.929 . S
C569 C549 1.449 . S
C569 C568 1.399 . S
C569 H575 0.930 . S
H570 C550 0.931 . S
H571 C551 0.930 . S
H572 C559 0.939 . S
H573 C560 0.929 . S
H574 C568 0.929 . S
H575 C569 0.930 . S
Mn576 O581 2.095 . S
Mn576 O591 2.162 . S
Mn576 O592 2.297 . S
Mn576 O600 2.385 . S
Mn576 O601 2.209 . S
Mn576 O602 2.094 . S
Mn577 O582 2.121 . S
Mn577 N584 2.257 . S
Mn577 N593 2.282 . S
Mn577 O601 2.215 . S
Mn577 O603 2.117 . S
C578 O600 1.234 . S
C578 O601 1.283 . S
C579 O591 1.281 . S
C579 O592 1.236 . S
C580 O602 1.240 . S
C580 O603 1.264 . S
O581 Mn576 2.095 . S
O581 C590 1.250 . S
O582 Mn577 2.121 . S
O582 C590 1.258 . S
C583 N584 1.326 1_556 S
C583 C587 1.460 . S
C583 H589 0.929 . S
N584 Mn577 2.257 . S
N584 C583 1.326 1_554 S
N584 C588 1.365 . S
C585 C586 1.258 . S
C585 C588 1.419 1_556 S
C585 C605 1.449 . S
C586 C585 1.258 . S
C586 C587 1.477 . S
C586 H606 0.931 . S
C587 C583 1.460 . S
C587 C586 1.477 . S
C587 H607 0.930 . S
C588 N584 1.365 . S
C588 C585 1.419 1_554 S
C588 C598 1.485 . S
H589 C583 0.929 . S
C590 O581 1.250 . S
C590 O582 1.258 . S
O591 Mn576 2.162 . S
O591 C579 1.281 . S
O592 Mn576 2.297 . S
O592 C579 1.236 . S
N593 Mn577 2.282 . S
N593 C594 1.328 . S
N593 C598 1.318 . S
C594 N593 1.328 . S
C594 C595 1.457 . S
C594 H599 0.929 . S
C595 C594 1.457 . S
C595 C596 1.291 . S
C595 H608 0.931 . S
C596 C595 1.291 . S
C596 C597 1.373 . S
C596 H609 0.929 . S
C597 C596 1.373 . S
C597 C598 1.396 . S
C597 C604 1.403 1_554 S
C598 C588 1.485 . S
C598 N593 1.318 . S
C598 C597 1.396 . S
H599 C594 0.929 . S
O600 Mn576 2.385 . S
O600 C578 1.234 . S
O601 Mn576 2.209 . S
O601 Mn577 2.215 . S
O601 C578 1.283 . S
O602 Mn576 2.094 . S
O602 C580 1.240 . S
O603 Mn577 2.117 . S
O603 C580 1.264 . S
C604 C597 1.403 1_556 S
C604 C605 1.399 . S
C604 H610 0.929 . S
C605 C585 1.449 . S
C605 C604 1.399 . S
C605 H611 0.930 . S
H606 C586 0.931 . S
H607 C587 0.930 . S
H608 C595 0.931 . S
H609 C596 0.929 . S
H610 C604 0.929 . S
H611 C605 0.930 . S
Mn612 O617 2.095 . S
Mn612 O627 2.162 . S
Mn612 O628 2.297 . S
Mn612 O636 2.385 . S
Mn612 O637 2.209 . S
Mn612 O638 2.094 . S
Mn613 O618 2.121 . S
Mn613 N620 2.257 . S
Mn613 N629 2.282 . S
Mn613 O637 2.215 . S
Mn613 O639 2.117 . S
C614 O636 1.234 . S
C614 O637 1.283 . S
C615 O627 1.281 . S
C615 O628 1.236 . S
C616 O638 1.240 . S
C616 O639 1.264 . S
O617 Mn612 2.095 . S
O617 C626 1.250 . S
O618 Mn613 2.121 . S
O618 C626 1.258 . S
C619 N620 1.326 . S
C619 C623 1.460 . S
C619 H625 0.929 . S
N620 Mn613 2.257 . S
N620 C619 1.326 . S
N620 C624 1.362 . S
C621 C622 1.258 . S
C621 C624 1.431 . S
C621 C641 1.449 . S
C622 C621 1.258 . S
C622 C623 1.477 . S
C622 H642 0.931 . S
C623 C619 1.460 . S
C623 C622 1.477 . S
C623 H643 0.930 . S
C624 N620 1.362 . S
C624 C621 1.431 . S
C624 C634 1.476 . S
H625 C619 0.929 . S
C626 O617 1.250 . S
C626 O618 1.258 . S
O627 Mn612 2.162 . S
O627 C615 1.281 . S
O628 Mn612 2.297 . S
O628 C615 1.236 . S
N629 Mn613 2.282 . S
N629 C630 1.328 . S
N629 C634 1.318 . S
C630 N629 1.328 . S
C630 C631 1.457 . S
C630 H635 0.929 . S
C631 C630 1.457 . S
C631 C632 1.291 . S
C631 H644 0.931 . S
C632 C631 1.291 . S
C632 C633 1.373 . S
C632 H645 0.929 . S
C633 C632 1.373 . S
C633 C634 1.396 . S
C633 C640 1.403 . S
C634 C624 1.476 . S
C634 N629 1.318 . S
C634 C633 1.396 . S
H635 C630 0.929 . S
O636 Mn612 2.385 . S
O636 C614 1.234 . S
O637 Mn612 2.209 . S
O637 Mn613 2.215 . S
O637 C614 1.283 . S
O638 Mn612 2.094 . S
O638 C616 1.240 . S
O639 Mn613 2.117 . S
O639 C616 1.264 . S
C640 C633 1.403 . S
C640 C641 1.399 . S
C640 H646 0.929 . S
C641 C621 1.449 . S
C641 C640 1.399 . S
C641 H647 0.930 . S
H642 C622 0.931 . S
H643 C623 0.930 . S
H644 C631 0.931 . S
H645 C632 0.929 . S
H646 C640 0.929 . S
H647 C641 0.930 . S
Mn648 O653 2.095 1_655 S
Mn648 O663 2.162 1_655 S
Mn648 O664 2.286 1_655 S
Mn648 O672 2.385 . S
Mn648 O673 2.209 . S
Mn648 O674 2.094 . S
Mn649 O654 2.121 . S
Mn649 N656 2.257 . S
Mn649 N665 2.282 . S
Mn649 O673 2.215 . S
Mn649 O675 2.117 . S
C650 O672 1.234 . S
C650 O673 1.283 . S
C651 O663 1.281 . S
C651 O664 1.266 . S
C652 O674 1.240 . S
C652 O675 1.264 . S
O653 Mn648 2.095 1_455 S
O653 C662 1.250 1_455 S
O654 Mn649 2.121 . S
O654 C662 1.258 . S
C655 N656 1.326 . S
C655 C659 1.460 . S
C655 H661 0.929 . S
N656 Mn649 2.257 . S
N656 C655 1.326 . S
N656 C660 1.362 . S
C657 C658 1.258 . S
C657 C660 1.431 . S
C657 C677 1.449 . S
C658 C657 1.258 . S
C658 C659 1.477 . S
C658 H678 0.931 . S
C659 C655 1.460 . S
C659 C658 1.477 . S
C659 H679 0.930 . S
C660 N656 1.362 . S
C660 C657 1.431 . S
C660 C670 1.476 . S
H661 C655 0.929 . S
C662 O653 1.250 1_655 S
C662 O654 1.258 . S
O663 Mn648 2.162 1_455 S
O663 C651 1.281 . S
O664 Mn648 2.286 1_455 S
O664 C651 1.266 . S
N665 Mn649 2.282 . S
N665 C666 1.328 . S
N665 C670 1.318 . S
C666 N665 1.328 . S
C666 C667 1.457 . S
C666 H671 0.929 . S
C667 C666 1.457 . S
C667 C668 1.291 . S
C667 H680 0.931 . S
C668 C667 1.291 . S
C668 C669 1.373 . S
C668 H681 0.929 . S
C669 C668 1.373 . S
C669 C670 1.396 . S
C669 C676 1.403 . S
C670 C660 1.476 . S
C670 N665 1.318 . S
C670 C669 1.396 . S
H671 C666 0.929 . S
O672 Mn648 2.385 . S
O672 C650 1.234 . S
O673 Mn648 2.209 . S
O673 Mn649 2.215 . S
O673 C650 1.283 . S
O674 Mn648 2.094 . S
O674 C652 1.240 . S
O675 Mn649 2.117 . S
O675 C652 1.264 . S
C676 C669 1.403 . S
C676 C677 1.399 . S
C676 H682 0.929 . S
C677 C657 1.449 . S
C677 C676 1.399 . S
C677 H683 0.930 . S
H678 C658 0.931 . S
H679 C659 0.930 . S
H680 C667 0.931 . S
H681 C668 0.929 . S
H682 C676 0.929 . S
H683 C677 0.930 . S
Mn684 O689 2.095 . S
Mn684 O699 2.162 . S
Mn684 O700 2.297 . S
Mn684 O708 2.385 . S
Mn684 O709 2.209 . S
Mn684 O710 2.094 . S
Mn685 O690 2.121 . S
Mn685 N692 2.257 . S
Mn685 N701 2.282 . S
Mn685 O709 2.215 . S
Mn685 O711 2.117 . S
C686 O708 1.234 . S
C686 O709 1.283 . S
C687 O699 1.281 . S
C687 O700 1.236 . S
C688 O710 1.240 . S
C688 O711 1.264 . S
O689 Mn684 2.095 . S
O689 C698 1.250 . S
O690 Mn685 2.121 . S
O690 C698 1.258 . S
C691 N692 1.326 . S
C691 C695 1.460 . S
C691 H697 0.929 . S
N692 Mn685 2.257 . S
N692 C691 1.326 . S
N692 C696 1.362 . S
C693 C694 1.258 . S
C693 C696 1.431 . S
C693 C713 1.449 . S
C694 C693 1.258 . S
C694 C695 1.477 . S
C694 H714 0.931 . S
C695 C691 1.460 . S
C695 C694 1.477 . S
C695 H715 0.930 . S
C696 N692 1.362 . S
C696 C693 1.431 . S
C696 C706 1.476 . S
H697 C691 0.929 . S
C698 O689 1.250 . S
C698 O690 1.258 . S
O699 Mn684 2.162 . S
O699 C687 1.281 . S
O700 Mn684 2.297 . S
O700 C687 1.236 . S
N701 Mn685 2.282 . S
N701 C702 1.328 . S
N701 C706 1.318 . S
C702 N701 1.328 . S
C702 C703 1.457 . S
C702 H707 0.929 . S
C703 C702 1.457 . S
C703 C704 1.291 . S
C703 H716 0.931 . S
C704 C703 1.291 . S
C704 C705 1.373 . S
C704 H717 0.929 . S
C705 C704 1.373 . S
C705 C706 1.396 . S
C705 C712 1.403 . S
C706 C696 1.476 . S
C706 N701 1.318 . S
C706 C705 1.396 . S
H707 C702 0.929 . S
O708 Mn684 2.385 . S
O708 C686 1.234 . S
O709 Mn684 2.209 . S
O709 Mn685 2.215 . S
O709 C686 1.283 . S
O710 Mn684 2.094 . S
O710 C688 1.240 . S
O711 Mn685 2.117 . S
O711 C688 1.264 . S
C712 C705 1.403 . S
C712 C713 1.399 . S
C712 H718 0.929 . S
C713 C693 1.449 . S
C713 C712 1.399 . S
C713 H719 0.930 . S
H714 C694 0.931 . S
H715 C695 0.930 . S
H716 C703 0.931 . S
H717 C704 0.929 . S
H718 C712 0.929 . S
H719 C713 0.930 . S
Mn720 O725 2.095 . S
Mn720 O735 2.162 . S
Mn720 O736 2.297 . S
Mn720 O744 2.385 . S
Mn720 O745 2.209 . S
Mn720 O746 2.094 . S
Mn721 O726 2.121 1_545 S
Mn721 N728 2.257 . S
Mn721 N737 2.282 . S
Mn721 O745 2.215 1_545 S
Mn721 O747 2.117 1_545 S
C722 O744 1.234 . S
C722 O745 1.283 . S
C723 O735 1.281 . S
C723 O736 1.236 . S
C724 O746 1.240 . S
C724 O747 1.264 . S
O725 Mn720 2.095 . S
O725 C734 1.250 . S
O726 Mn721 2.121 1_565 S
O726 C734 1.258 . S
C727 N728 1.326 . S
C727 C731 1.460 . S
C727 H733 0.929 . S
N728 Mn721 2.257 . S
N728 C727 1.326 . S
N728 C732 1.362 . S
C729 C730 1.258 . S
C729 C732 1.431 . S
C729 C749 1.449 . S
C730 C729 1.258 . S
C730 C731 1.477 . S
C730 H750 0.931 . S
C731 C727 1.460 . S
C731 C730 1.477 . S
C731 H751 0.930 . S
C732 N728 1.362 . S
C732 C729 1.431 . S
C732 C742 1.476 . S
H733 C727 0.929 . S
C734 O725 1.250 . S
C734 O726 1.258 . S
O735 Mn720 2.162 . S
O735 C723 1.281 . S
O736 Mn720 2.297 . S
O736 C723 1.236 . S
N737 Mn721 2.282 . S
N737 C738 1.349 . S
N737 C742 1.318 . S
C738 N737 1.349 . S
C738 C739 1.471 . S
C738 H743 0.895 1_545 S
C739 C738 1.471 . S
C739 C740 1.291 . S
C739 H752 0.939 . S
C740 C739 1.291 . S
C740 C741 1.373 . S
C740 H753 0.929 . S
C741 C740 1.373 . S
C741 C742 1.396 . S
C741 C748 1.403 . S
C742 C732 1.476 . S
C742 N737 1.318 . S
C742 C741 1.396 . S
H743 C738 0.895 1_565 S
O744 Mn720 2.385 . S
O744 C722 1.234 . S
O745 Mn720 2.209 . S
O745 Mn721 2.215 1_565 S
O745 C722 1.283 . S
O746 Mn720 2.094 . S
O746 C724 1.240 . S
O747 Mn721 2.117 1_565 S
O747 C724 1.264 . S
C748 C741 1.403 . S
C748 C749 1.399 . S
C748 H754 0.929 . S
C749 C729 1.449 . S
C749 C748 1.399 . S
C749 H755 0.930 . S
H750 C730 0.931 . S
H751 C731 0.930 . S
H752 C739 0.939 . S
H753 C740 0.929 . S
H754 C748 0.929 . S
H755 C749 0.930 . S
Mn756 O761 2.095 . S
Mn756 O771 2.162 . S
Mn756 O772 2.297 . S
Mn756 O780 2.385 . S
Mn756 O781 2.209 . S
Mn756 O782 2.094 . S
Mn757 O762 2.121 . S
Mn757 N764 2.257 . S
Mn757 N773 2.282 . S
Mn757 O781 2.215 . S
Mn757 O783 2.117 . S
C758 O780 1.234 . S
C758 O781 1.283 . S
C759 O771 1.281 . S
C759 O772 1.236 . S
C760 O782 1.240 . S
C760 O783 1.264 . S
O761 Mn756 2.095 . S
O761 C770 1.250 . S
O762 Mn757 2.121 . S
O762 C770 1.258 . S
C763 N764 1.326 . S
C763 C767 1.460 . S
C763 H769 0.929 . S
N764 Mn757 2.257 . S
N764 C763 1.326 . S
N764 C768 1.362 . S
C765 C766 1.258 . S
C765 C768 1.431 . S
C765 C785 1.449 . S
C766 C765 1.258 . S
C766 C767 1.477 . S
C766 H786 0.931 . S
C767 C763 1.460 . S
C767 C766 1.477 . S
C767 H787 0.930 . S
C768 N764 1.362 . S
C768 C765 1.431 . S
C768 C778 1.476 . S
H769 C763 0.929 . S
C770 O761 1.250 . S
C770 O762 1.258 . S
O771 Mn756 2.162 . S
O771 C759 1.281 . S
O772 Mn756 2.297 . S
O772 C759 1.236 . S
N773 Mn757 2.282 . S
N773 C774 1.328 . S
N773 C778 1.318 . S
C774 N773 1.328 . S
C774 C775 1.457 . S
C774 H779 0.929 . S
C775 C774 1.457 . S
C775 C776 1.291 . S
C775 H788 0.931 . S
C776 C775 1.291 . S
C776 C777 1.373 . S
C776 H789 0.929 . S
C777 C776 1.373 . S
C777 C778 1.396 . S
C777 C784 1.403 . S
C778 C768 1.476 . S
C778 N773 1.318 . S
C778 C777 1.396 . S
H779 C774 0.929 . S
O780 Mn756 2.385 . S
O780 C758 1.234 . S
O781 Mn756 2.209 . S
O781 Mn757 2.215 . S
O781 C758 1.283 . S
O782 Mn756 2.094 . S
O782 C760 1.240 . S
O783 Mn757 2.117 . S
O783 C760 1.264 . S
C784 C777 1.403 . S
C784 C785 1.399 . S
C784 H790 0.929 . S
C785 C765 1.449 . S
C785 C784 1.399 . S
C785 H791 0.930 . S
H786 C766 0.931 . S
H787 C767 0.930 . S
H788 C775 0.931 . S
H789 C776 0.929 . S
H790 C784 0.929 . S
H791 C785 0.930 . S
Mn792 O797 2.095 . S
Mn792 O807 2.162 . S
Mn792 O808 2.297 . S
Mn792 O816 2.385 . S
Mn792 O817 2.209 . S
Mn792 O818 2.094 . S
Mn793 O798 2.121 . S
Mn793 N800 2.257 . S
Mn793 N809 2.282 . S
Mn793 O817 2.215 . S
Mn793 O819 2.117 . S
C794 O816 1.234 . S
C794 O817 1.283 . S
C795 O807 1.281 . S
C795 O808 1.236 . S
C796 O818 1.240 . S
C796 O819 1.264 . S
O797 Mn792 2.095 . S
O797 C806 1.250 . S
O798 Mn793 2.121 . S
O798 C806 1.258 . S
C799 N800 1.326 . S
C799 C803 1.460 . S
C799 H805 0.929 . S
N800 Mn793 2.257 . S
N800 C799 1.326 . S
N800 C804 1.362 . S
C801 C802 1.258 . S
C801 C804 1.431 . S
C801 C821 1.449 . S
C802 C801 1.258 . S
C802 C803 1.477 . S
C802 H822 0.931 . S
C803 C799 1.460 . S
C803 C802 1.477 . S
C803 H823 0.930 . S
C804 N800 1.362 . S
C804 C801 1.431 . S
C804 C814 1.476 . S
H805 C799 0.929 . S
C806 O797 1.250 . S
C806 O798 1.258 . S
O807 Mn792 2.162 . S
O807 C795 1.281 . S
O808 Mn792 2.297 . S
O808 C795 1.236 . S
N809 Mn793 2.282 . S
N809 C810 1.328 . S
N809 C814 1.318 . S
C810 N809 1.328 . S
C810 C811 1.457 . S
C810 H815 0.929 . S
C811 C810 1.457 . S
C811 C812 1.291 . S
C811 H824 0.931 . S
C812 C811 1.291 . S
C812 C813 1.373 . S
C812 H825 0.929 . S
C813 C812 1.373 . S
C813 C814 1.396 . S
C813 C820 1.403 . S
C814 C804 1.476 . S
C814 N809 1.318 . S
C814 C813 1.396 . S
H815 C810 0.929 . S
O816 Mn792 2.385 . S
O816 C794 1.234 . S
O817 Mn792 2.209 . S
O817 Mn793 2.215 . S
O817 C794 1.283 . S
O818 Mn792 2.094 . S
O818 C796 1.240 . S
O819 Mn793 2.117 . S
O819 C796 1.264 . S
C820 C813 1.403 . S
C820 C821 1.399 . S
C820 H826 0.929 . S
C821 C801 1.449 . S
C821 C820 1.399 . S
C821 H827 0.930 . S
H822 C802 0.931 . S
H823 C803 0.930 . S
H824 C811 0.931 . S
H825 C812 0.929 . S
H826 C820 0.929 . S
H827 C821 0.930 . S
Mn828 O833 2.095 . S
Mn828 O843 2.162 . S
Mn828 O844 2.297 . S
Mn828 O852 2.385 . S
Mn828 O853 2.209 . S
Mn828 O854 2.094 . S
Mn829 O834 2.121 . S
Mn829 N836 2.257 . S
Mn829 N845 2.282 . S
Mn829 O853 2.215 . S
Mn829 O855 2.117 . S
C830 O852 1.234 . S
C830 O853 1.283 . S
C831 O843 1.281 . S
C831 O844 1.236 . S
C832 O854 1.240 . S
C832 O855 1.264 . S
O833 Mn828 2.095 . S
O833 C842 1.250 . S
O834 Mn829 2.121 . S
O834 C842 1.258 . S
C835 N836 1.326 . S
C835 C839 1.460 . S
C835 H841 0.929 . S
N836 Mn829 2.257 . S
N836 C835 1.326 . S
N836 C840 1.362 . S
C837 C838 1.258 . S
C837 C840 1.431 . S
C837 C857 1.449 . S
C838 C837 1.258 . S
C838 C839 1.477 . S
C838 H858 0.931 . S
C839 C835 1.460 . S
C839 C838 1.477 . S
C839 H859 0.930 . S
C840 N836 1.362 . S
C840 C837 1.431 . S
C840 C850 1.476 . S
H841 C835 0.929 . S
C842 O833 1.250 . S
C842 O834 1.258 . S
O843 Mn828 2.162 . S
O843 C831 1.281 . S
O844 Mn828 2.297 . S
O844 C831 1.236 . S
N845 Mn829 2.282 . S
N845 C846 1.328 . S
N845 C850 1.318 . S
C846 N845 1.328 . S
C846 C847 1.457 . S
C846 H851 0.929 . S
C847 C846 1.457 . S
C847 C848 1.291 . S
C847 H860 0.931 . S
C848 C847 1.291 . S
C848 C849 1.373 . S
C848 H861 0.929 . S
C849 C848 1.373 . S
C849 C850 1.396 . S
C849 C856 1.403 . S
C850 C840 1.476 . S
C850 N845 1.318 . S
C850 C849 1.396 . S
H851 C846 0.929 . S
O852 Mn828 2.385 . S
O852 C830 1.234 . S
O853 Mn828 2.209 . S
O853 Mn829 2.215 . S
O853 C830 1.283 . S
O854 Mn828 2.094 . S
O854 C832 1.240 . S
O855 Mn829 2.117 . S
O855 C832 1.264 . S
C856 C849 1.403 . S
C856 C857 1.399 . S
C856 H862 0.929 . S
C857 C837 1.449 . S
C857 C856 1.399 . S
C857 H863 0.930 . S
H858 C838 0.931 . S
H859 C839 0.930 . S
H860 C847 0.931 . S
H861 C848 0.929 . S
H862 C856 0.929 . S
H863 C857 0.930 . S
Mn864 O869 2.095 . S
Mn864 O879 2.162 . S
Mn864 O880 2.297 . S
Mn864 O888 2.385 . S
Mn864 O889 2.209 . S
Mn864 O890 2.094 . S
Mn865 O870 2.121 . S
Mn865 N872 2.257 . S
Mn865 N881 2.282 . S
Mn865 O889 2.215 . S
Mn865 O891 2.117 . S
C866 O888 1.234 . S
C866 O889 1.283 . S
C867 O879 1.281 . S
C867 O880 1.236 . S
C868 O890 1.240 . S
C868 O891 1.264 . S
O869 Mn864 2.095 . S
O869 C878 1.250 . S
O870 Mn865 2.121 . S
O870 C878 1.258 . S
C871 N872 1.326 . S
C871 C875 1.460 . S
C871 H877 0.929 . S
N872 Mn865 2.257 . S
N872 C871 1.326 . S
N872 C876 1.362 . S
C873 C874 1.258 . S
C873 C876 1.431 . S
C873 C893 1.449 . S
C874 C873 1.258 . S
C874 C875 1.477 . S
C874 H894 0.931 . S
C875 C871 1.460 . S
C875 C874 1.477 . S
C875 H895 0.930 . S
C876 N872 1.362 . S
C876 C873 1.431 . S
C876 C886 1.476 . S
H877 C871 0.929 . S
C878 O869 1.250 . S
C878 O870 1.258 . S
O879 Mn864 2.162 . S
O879 C867 1.281 . S
O880 Mn864 2.297 . S
O880 C867 1.236 . S
N881 Mn865 2.282 . S
N881 C882 1.328 . S
N881 C886 1.318 . S
C882 N881 1.328 . S
C882 C883 1.457 . S
C882 H887 0.929 . S
C883 C882 1.457 . S
C883 C884 1.291 . S
C883 H896 0.931 . S
C884 C883 1.291 . S
C884 C885 1.373 . S
C884 H897 0.929 . S
C885 C884 1.373 . S
C885 C886 1.396 . S
C885 C892 1.403 . S
C886 C876 1.476 . S
C886 N881 1.318 . S
C886 C885 1.396 . S
H887 C882 0.929 . S
O888 Mn864 2.385 . S
O888 C866 1.234 . S
O889 Mn864 2.209 . S
O889 Mn865 2.215 . S
O889 C866 1.283 . S
O890 Mn864 2.094 . S
O890 C868 1.240 . S
O891 Mn865 2.117 . S
O891 C868 1.264 . S
C892 C885 1.403 . S
C892 C893 1.399 . S
C892 H898 0.929 . S
C893 C873 1.449 . S
C893 C892 1.399 . S
C893 H899 0.930 . S
H894 C874 0.931 . S
H895 C875 0.930 . S
H896 C883 0.931 . S
H897 C884 0.929 . S
H898 C892 0.929 . S
H899 C893 0.930 . S
Mn900 O905 2.095 . S
Mn900 O915 2.162 . S
Mn900 O916 2.297 . S
Mn900 O924 2.385 . S
Mn900 O925 2.209 . S
Mn900 O926 2.094 . S
Mn901 O906 2.121 . S
Mn901 N908 2.257 . S
Mn901 N917 2.282 . S
Mn901 O925 2.215 . S
Mn901 O927 2.117 . S
C902 O924 1.234 . S
C902 O925 1.283 . S
C903 O915 1.281 . S
C903 O916 1.236 . S
C904 O926 1.240 . S
C904 O927 1.264 . S
O905 Mn900 2.095 . S
O905 C914 1.250 . S
O906 Mn901 2.121 . S
O906 C914 1.258 . S
C907 N908 1.326 . S
C907 C911 1.460 . S
C907 H913 0.929 . S
N908 Mn901 2.257 . S
N908 C907 1.326 . S
N908 C912 1.362 . S
C909 C910 1.258 . S
C909 C912 1.431 . S
C909 C929 1.449 . S
C910 C909 1.258 . S
C910 C911 1.477 . S
C910 H930 0.931 . S
C911 C907 1.460 . S
C911 C910 1.477 . S
C911 H931 0.930 . S
C912 N908 1.362 . S
C912 C909 1.431 . S
C912 C922 1.476 . S
H913 C907 0.929 . S
C914 O905 1.250 . S
C914 O906 1.258 . S
O915 Mn900 2.162 . S
O915 C903 1.281 . S
O916 Mn900 2.297 . S
O916 C903 1.236 . S
N917 Mn901 2.282 . S
N917 C918 1.328 . S
N917 C922 1.318 . S
C918 N917 1.328 . S
C918 C919 1.457 . S
C918 H923 0.929 . S
C919 C918 1.457 . S
C919 C920 1.291 . S
C919 H932 0.931 . S
C920 C919 1.291 . S
C920 C921 1.373 . S
C920 H933 0.929 . S
C921 C920 1.373 . S
C921 C922 1.396 . S
C921 C928 1.403 . S
C922 C912 1.476 . S
C922 N917 1.318 . S
C922 C921 1.396 . S
H923 C918 0.929 . S
O924 Mn900 2.385 . S
O924 C902 1.234 . S
O925 Mn900 2.209 . S
O925 Mn901 2.215 . S
O925 C902 1.283 . S
O926 Mn900 2.094 . S
O926 C904 1.240 . S
O927 Mn901 2.117 . S
O927 C904 1.264 . S
C928 C921 1.403 . S
C928 C929 1.399 . S
C928 H934 0.929 . S
C929 C909 1.449 . S
C929 C928 1.399 . S
C929 H935 0.930 . S
H930 C910 0.931 . S
H931 C911 0.930 . S
H932 C919 0.931 . S
H933 C920 0.929 . S
H934 C928 0.929 . S
H935 C929 0.930 . S
Mn936 O941 2.090 1_655 S
Mn936 O951 2.162 . S
Mn936 O952 2.297 1_655 S
Mn936 O960 2.385 1_655 S
Mn936 O961 2.209 1_655 S
Mn936 O962 2.094 . S
Mn937 O942 2.121 . S
Mn937 N944 2.257 . S
Mn937 N953 2.282 . S
Mn937 O961 2.215 . S
Mn937 O963 2.117 1_455 S
C938 O960 1.234 . S
C938 O961 1.283 . S
C939 O951 1.281 1_455 S
C939 O952 1.236 . S
C940 O962 1.240 . S
C940 O963 1.264 . S
O941 Mn936 2.090 1_455 S
O941 C950 1.275 . S
O942 Mn937 2.121 . S
O942 C950 1.258 . S
C943 N944 1.326 . S
C943 C947 1.460 . S
C943 H949 0.929 . S
N944 Mn937 2.257 . S
N944 C943 1.326 . S
N944 C948 1.362 . S
C945 C946 1.258 . S
C945 C948 1.431 . S
C945 C965 1.449 . S
C946 C945 1.258 . S
C946 C947 1.477 . S
C946 H966 0.931 . S
C947 C943 1.460 . S
C947 C946 1.477 . S
C947 H967 0.930 . S
C948 N944 1.362 . S
C948 C945 1.431 . S
C948 C958 1.476 . S
H949 C943 0.929 . S
C950 O941 1.275 . S
C950 O942 1.258 . S
O951 Mn936 2.162 . S
O951 C939 1.281 1_655 S
O952 Mn936 2.297 1_455 S
O952 C939 1.236 . S
N953 Mn937 2.282 . S
N953 C954 1.328 1_455 S
N953 C958 1.318 . S
C954 N953 1.328 1_655 S
C954 C955 1.457 . S
C954 H959 0.929 . S
C955 C954 1.457 . S
C955 C956 1.291 1_655 S
C955 H968 0.931 . S
C956 C955 1.291 1_455 S
C956 C957 1.373 . S
C956 H969 0.929 . S
C957 C956 1.373 . S
C957 C958 1.396 . S
C957 C964 1.403 . S
C958 C948 1.476 . S
C958 N953 1.318 . S
C958 C957 1.396 . S
H959 C954 0.929 . S
O960 Mn936 2.385 1_455 S
O960 C938 1.234 . S
O961 Mn936 2.209 1_455 S
O961 Mn937 2.215 . S
O961 C938 1.283 . S
O962 Mn936 2.094 . S
O962 C940 1.240 . S
O963 Mn937 2.117 1_655 S
O963 C940 1.264 . S
C964 C957 1.403 . S
C964 C965 1.399 . S
C964 H970 0.929 . S
C965 C945 1.449 . S
C965 C964 1.399 . S
C965 H971 0.930 . S
H966 C946 0.931 . S
H967 C947 0.930 . S
H968 C955 0.931 . S
H969 C956 0.929 . S
H970 C964 0.929 . S
H971 C965 0.930 . S
Mn972 O977 2.095 . S
Mn972 O987 2.162 . S
Mn972 O988 2.297 . S
Mn972 O996 2.385 . S
Mn972 O997 2.209 . S
Mn972 O998 2.094 . S
Mn973 O978 2.121 . S
Mn973 N980 2.257 . S
Mn973 N989 2.282 . S
Mn973 O997 2.215 . S
Mn973 O999 2.117 . S
C974 O996 1.234 . S
C974 O997 1.283 . S
C975 O987 1.281 . S
C975 O988 1.236 . S
C976 O998 1.240 . S
C976 O999 1.264 . S
O977 Mn972 2.095 . S
O977 C986 1.250 . S
O978 Mn973 2.121 . S
O978 C986 1.258 . S
C979 N980 1.326 . S
C979 C983 1.460 . S
C979 H985 0.929 . S
N980 Mn973 2.257 . S
N980 C979 1.326 . S
N980 C984 1.362 . S
C981 C982 1.258 . S
C981 C984 1.431 . S
C981 C1001 1.449 . S
C982 C981 1.258 . S
C982 C983 1.477 . S
C982 H1002 0.931 . S
C983 C979 1.460 . S
C983 C982 1.477 . S
C983 H1003 0.930 . S
C984 N980 1.362 . S
C984 C981 1.431 . S
C984 C994 1.476 . S
H985 C979 0.929 . S
C986 O977 1.250 . S
C986 O978 1.258 . S
O987 Mn972 2.162 . S
O987 C975 1.281 . S
O988 Mn972 2.297 . S
O988 C975 1.236 . S
N989 Mn973 2.282 . S
N989 C990 1.328 . S
N989 C994 1.318 . S
C990 N989 1.328 . S
C990 C991 1.457 . S
C990 H995 0.929 . S
C991 C990 1.457 . S
C991 C992 1.291 . S
C991 H1004 0.931 . S
C992 C991 1.291 . S
C992 C993 1.373 . S
C992 H1005 0.929 . S
C993 C992 1.373 . S
C993 C994 1.396 . S
C993 C1000 1.403 . S
C994 C984 1.476 . S
C994 N989 1.318 . S
C994 C993 1.396 . S
H995 C990 0.929 . S
O996 Mn972 2.385 . S
O996 C974 1.234 . S
O997 Mn972 2.209 . S
O997 Mn973 2.215 . S
O997 C974 1.283 . S
O998 Mn972 2.094 . S
O998 C976 1.240 . S
O999 Mn973 2.117 . S
O999 C976 1.264 . S
C1000 C993 1.403 . S
C1000 C1001 1.399 . S
C1000 H1006 0.929 . S
C1001 C981 1.449 . S
C1001 C1000 1.399 . S
C1001 H1007 0.930 . S
H1002 C982 0.931 . S
H1003 C983 0.930 . S
H1004 C991 0.931 . S
H1005 C992 0.929 . S
H1006 C1000 0.929 . S
H1007 C1001 0.930 . S
Mn1008 O1013 2.095 . S
Mn1008 O1023 2.162 . S
Mn1008 O1024 2.297 . S
Mn1008 O1032 2.385 . S
Mn1008 O1033 2.209 . S
Mn1008 O1034 2.094 . S
Mn1009 O1014 2.121 . S
Mn1009 N1016 2.257 . S
Mn1009 N1025 2.282 . S
Mn1009 O1033 2.215 . S
Mn1009 O1035 2.117 . S
C1010 O1032 1.234 . S
C1010 O1033 1.283 . S
C1011 O1023 1.281 . S
C1011 O1024 1.236 . S
C1012 O1034 1.240 . S
C1012 O1035 1.264 . S
O1013 Mn1008 2.095 . S
O1013 C1022 1.250 . S
O1014 Mn1009 2.121 . S
O1014 C1022 1.258 . S
C1015 N1016 1.326 . S
C1015 C1019 1.460 . S
C1015 H1021 0.929 . S
N1016 Mn1009 2.257 . S
N1016 C1015 1.326 . S
N1016 C1020 1.362 . S
C1017 C1018 1.258 . S
C1017 C1020 1.431 . S
C1017 C1037 1.449 . S
C1018 C1017 1.258 . S
C1018 C1019 1.477 . S
C1018 H1038 0.931 . S
C1019 C1015 1.460 . S
C1019 C1018 1.477 . S
C1019 H1039 0.930 . S
C1020 N1016 1.362 . S
C1020 C1017 1.431 . S
C1020 C1030 1.476 . S
H1021 C1015 0.929 . S
C1022 O1013 1.250 . S
C1022 O1014 1.258 . S
O1023 Mn1008 2.162 . S
O1023 C1011 1.281 . S
O1024 Mn1008 2.297 . S
O1024 C1011 1.236 . S
N1025 Mn1009 2.282 . S
N1025 C1026 1.328 . S
N1025 C1030 1.318 . S
C1026 N1025 1.328 . S
C1026 C1027 1.457 . S
C1026 H1031 0.929 . S
C1027 C1026 1.457 . S
C1027 C1028 1.291 . S
C1027 H1040 0.931 . S
C1028 C1027 1.291 . S
C1028 C1029 1.373 . S
C1028 H1041 0.929 . S
C1029 C1028 1.373 . S
C1029 C1030 1.396 . S
C1029 C1036 1.403 . S
C1030 C1020 1.476 . S
C1030 N1025 1.318 . S
C1030 C1029 1.396 . S
H1031 C1026 0.929 . S
O1032 Mn1008 2.385 . S
O1032 C1010 1.234 . S
O1033 Mn1008 2.209 . S
O1033 Mn1009 2.215 . S
O1033 C1010 1.283 . S
O1034 Mn1008 2.094 . S
O1034 C1012 1.240 . S
O1035 Mn1009 2.117 . S
O1035 C1012 1.264 . S
C1036 C1029 1.403 . S
C1036 C1037 1.399 . S
C1036 H1042 0.929 . S
C1037 C1017 1.449 . S
C1037 C1036 1.399 . S
C1037 H1043 0.930 . S
H1038 C1018 0.931 . S
H1039 C1019 0.930 . S
H1040 C1027 0.931 . S
H1041 C1028 0.929 . S
H1042 C1036 0.929 . S
H1043 C1037 0.930 . S
Mn1044 O1049 2.095 . S
Mn1044 O1059 2.162 . S
Mn1044 O1060 2.297 . S
Mn1044 O1068 2.385 . S
Mn1044 O1069 2.209 . S
Mn1044 O1070 2.094 . S
Mn1045 O1050 2.121 . S
Mn1045 N1052 2.257 1_455 S
Mn1045 N1061 2.282 . S
Mn1045 O1069 2.215 . S
Mn1045 O1071 2.117 . S
C1046 O1068 1.234 . S
C1046 O1069 1.283 . S
C1047 O1059 1.281 . S
C1047 O1060 1.236 . S
C1048 O1070 1.240 . S
C1048 O1071 1.264 . S
O1049 Mn1044 2.095 . S
O1049 C1058 1.250 . S
O1050 Mn1045 2.121 . S
O1050 C1058 1.258 . S
C1051 N1052 1.326 . S
C1051 C1055 1.460 . S
C1051 H1057 0.929 . S
N1052 Mn1045 2.257 1_655 S
N1052 C1051 1.326 . S
N1052 C1056 1.362 . S
C1053 C1054 1.258 . S
C1053 C1056 1.431 . S
C1053 C1073 1.449 . S
C1054 C1053 1.258 . S
C1054 C1055 1.477 . S
C1054 H1074 0.931 . S
C1055 C1051 1.460 . S
C1055 C1054 1.477 . S
C1055 H1075 0.930 . S
C1056 N1052 1.362 . S
C1056 C1053 1.431 . S
C1056 C1066 1.476 1_655 S
H1057 C1051 0.929 . S
C1058 O1049 1.250 . S
C1058 O1050 1.258 . S
O1059 Mn1044 2.162 . S
O1059 C1047 1.281 . S
O1060 Mn1044 2.297 . S
O1060 C1047 1.236 . S
N1061 Mn1045 2.282 . S
N1061 C1062 1.328 . S
N1061 C1066 1.318 . S
C1062 N1061 1.328 . S
C1062 C1063 1.457 . S
C1062 H1067 0.929 . S
C1063 C1062 1.457 . S
C1063 C1064 1.291 . S
C1063 H1076 0.931 . S
C1064 C1063 1.291 . S
C1064 C1065 1.355 1_455 S
C1064 H1077 0.929 . S
C1065 C1064 1.355 1_655 S
C1065 C1066 1.393 1_655 S
C1065 C1072 1.422 . S
C1066 C1056 1.476 1_455 S
C1066 N1061 1.318 . S
C1066 C1065 1.393 1_455 S
H1067 C1062 0.929 . S
O1068 Mn1044 2.385 . S
O1068 C1046 1.234 . S
O1069 Mn1044 2.209 . S
O1069 Mn1045 2.215 . S
O1069 C1046 1.283 . S
O1070 Mn1044 2.094 . S
O1070 C1048 1.240 . S
O1071 Mn1045 2.117 . S
O1071 C1048 1.264 . S
C1072 C1065 1.422 . S
C1072 C1073 1.399 . S
C1072 H1078 0.929 . S
C1073 C1053 1.449 . S
C1073 C1072 1.399 . S
C1073 H1079 0.930 . S
H1074 C1054 0.931 . S
H1075 C1055 0.930 . S
H1076 C1063 0.931 . S
H1077 C1064 0.929 . S
H1078 C1072 0.929 . S
H1079 C1073 0.930 . S
Mn1080 O1085 2.095 . S
Mn1080 O1095 2.162 . S
Mn1080 O1096 2.297 . S
Mn1080 O1104 2.385 . S
Mn1080 O1105 2.209 . S
Mn1080 O1106 2.094 . S
Mn1081 O1086 2.121 . S
Mn1081 N1088 2.257 . S
Mn1081 N1097 2.282 . S
Mn1081 O1105 2.215 . S
Mn1081 O1107 2.117 . S
C1082 O1104 1.234 . S
C1082 O1105 1.283 . S
C1083 O1095 1.281 . S
C1083 O1096 1.236 . S
C1084 O1106 1.240 . S
C1084 O1107 1.264 . S
O1085 Mn1080 2.095 . S
O1085 C1094 1.250 . S
O1086 Mn1081 2.121 . S
O1086 C1094 1.258 . S
C1087 N1088 1.326 . S
C1087 C1091 1.460 . S
C1087 H1093 0.929 . S
N1088 Mn1081 2.257 . S
N1088 C1087 1.326 . S
N1088 C1092 1.362 . S
C1089 C1090 1.258 . S
C1089 C1092 1.431 . S
C1089 C1109 1.449 . S
C1090 C1089 1.258 . S
C1090 C1091 1.477 . S
C1090 H1110 0.931 . S
C1091 C1087 1.460 . S
C1091 C1090 1.477 . S
C1091 H1111 0.930 . S
C1092 N1088 1.362 . S
C1092 C1089 1.431 . S
C1092 C1102 1.476 . S
H1093 C1087 0.929 . S
C1094 O1085 1.250 . S
C1094 O1086 1.258 . S
O1095 Mn1080 2.162 . S
O1095 C1083 1.281 . S
O1096 Mn1080 2.297 . S
O1096 C1083 1.236 . S
N1097 Mn1081 2.282 . S
N1097 C1098 1.328 . S
N1097 C1102 1.318 . S
C1098 N1097 1.328 . S
C1098 C1099 1.457 . S
C1098 H1103 0.929 . S
C1099 C1098 1.457 . S
C1099 C1100 1.291 . S
C1099 H1112 0.931 . S
C1100 C1099 1.291 . S
C1100 C1101 1.373 . S
C1100 H1113 0.929 . S
C1101 C1100 1.373 . S
C1101 C1102 1.396 . S
C1101 C1108 1.403 . S
C1102 C1092 1.476 . S
C1102 N1097 1.318 . S
C1102 C1101 1.396 . S
H1103 C1098 0.929 . S
O1104 Mn1080 2.385 . S
O1104 C1082 1.234 . S
O1105 Mn1080 2.209 . S
O1105 Mn1081 2.215 . S
O1105 C1082 1.283 . S
O1106 Mn1080 2.094 . S
O1106 C1084 1.240 . S
O1107 Mn1081 2.117 . S
O1107 C1084 1.264 . S
C1108 C1101 1.403 . S
C1108 C1109 1.399 . S
C1108 H1114 0.929 . S
C1109 C1089 1.449 . S
C1109 C1108 1.399 . S
C1109 H1115 0.930 . S
H1110 C1090 0.931 . S
H1111 C1091 0.930 . S
H1112 C1099 0.931 . S
H1113 C1100 0.929 . S
H1114 C1108 0.929 . S
H1115 C1109 0.930 . S
Mn1116 O1121 2.095 . S
Mn1116 O1131 2.162 . S
Mn1116 O1132 2.297 . S
Mn1116 O1140 2.385 . S
Mn1116 O1141 2.209 . S
Mn1116 O1142 2.094 . S
Mn1117 O1122 2.121 . S
Mn1117 N1124 2.257 . S
Mn1117 N1133 2.282 . S
Mn1117 O1141 2.215 . S
Mn1117 O1143 2.117 . S
C1118 O1140 1.234 . S
C1118 O1141 1.283 . S
C1119 O1131 1.281 . S
C1119 O1132 1.236 . S
C1120 O1142 1.240 . S
C1120 O1143 1.264 . S
O1121 Mn1116 2.095 . S
O1121 C1130 1.250 . S
O1122 Mn1117 2.121 . S
O1122 C1130 1.258 . S
C1123 N1124 1.326 . S
C1123 C1127 1.460 . S
C1123 H1129 0.929 . S
N1124 Mn1117 2.257 . S
N1124 C1123 1.326 . S
N1124 C1128 1.362 . S
C1125 C1126 1.258 . S
C1125 C1128 1.431 . S
C1125 C1145 1.449 . S
C1126 C1125 1.258 . S
C1126 C1127 1.477 . S
C1126 H1146 0.931 . S
C1127 C1123 1.460 . S
C1127 C1126 1.477 . S
C1127 H1147 0.930 . S
C1128 N1124 1.362 . S
C1128 C1125 1.431 . S
C1128 C1138 1.476 . S
H1129 C1123 0.929 . S
C1130 O1121 1.250 . S
C1130 O1122 1.258 . S
O1131 Mn1116 2.162 . S
O1131 C1119 1.281 . S
O1132 Mn1116 2.297 . S
O1132 C1119 1.236 . S
N1133 Mn1117 2.282 . S
N1133 C1134 1.328 . S
N1133 C1138 1.318 . S
C1134 N1133 1.328 . S
C1134 C1135 1.457 . S
C1134 H1139 0.929 . S
C1135 C1134 1.457 . S
C1135 C1136 1.291 . S
C1135 H1148 0.931 . S
C1136 C1135 1.291 . S
C1136 C1137 1.373 . S
C1136 H1149 0.929 . S
C1137 C1136 1.373 . S
C1137 C1138 1.396 . S
C1137 C1144 1.403 . S
C1138 C1128 1.476 . S
C1138 N1133 1.318 . S
C1138 C1137 1.396 . S
H1139 C1134 0.929 . S
O1140 Mn1116 2.385 . S
O1140 C1118 1.234 . S
O1141 Mn1116 2.209 . S
O1141 Mn1117 2.215 . S
O1141 C1118 1.283 . S
O1142 Mn1116 2.094 . S
O1142 C1120 1.240 . S
O1143 Mn1117 2.117 . S
O1143 C1120 1.264 . S
C1144 C1137 1.403 . S
C1144 C1145 1.399 . S
C1144 H1150 0.929 . S
C1145 C1125 1.449 . S
C1145 C1144 1.399 . S
C1145 H1151 0.930 . S
H1146 C1126 0.931 . S
H1147 C1127 0.930 . S
H1148 C1135 0.931 . S
H1149 C1136 0.929 . S
H1150 C1144 0.929 . S
H1151 C1145 0.930 . S
Mn1152 O1157 2.095 . S
Mn1152 O1167 2.162 . S
Mn1152 O1168 2.297 . S
Mn1152 O1176 2.385 . S
Mn1152 O1177 2.209 . S
Mn1152 O1178 2.094 . S
Mn1153 O1158 2.121 . S
Mn1153 N1160 2.257 . S
Mn1153 N1169 2.282 . S
Mn1153 O1177 2.215 . S
Mn1153 O1179 2.117 . S
C1154 O1176 1.234 . S
C1154 O1177 1.283 . S
C1155 O1167 1.281 . S
C1155 O1168 1.236 . S
C1156 O1178 1.240 . S
C1156 O1179 1.264 . S
O1157 Mn1152 2.095 . S
O1157 C1166 1.250 . S
O1158 Mn1153 2.121 . S
O1158 C1166 1.258 . S
C1159 N1160 1.326 . S
C1159 C1163 1.460 . S
C1159 H1165 0.929 . S
N1160 Mn1153 2.257 . S
N1160 C1159 1.326 . S
N1160 C1164 1.362 . S
C1161 C1162 1.258 . S
C1161 C1164 1.431 . S
C1161 C1181 1.449 . S
C1162 C1161 1.258 . S
C1162 C1163 1.477 . S
C1162 H1182 0.931 . S
C1163 C1159 1.460 . S
C1163 C1162 1.477 . S
C1163 H1183 0.930 . S
C1164 N1160 1.362 . S
C1164 C1161 1.431 . S
C1164 C1174 1.476 . S
H1165 C1159 0.929 . S
C1166 O1157 1.250 . S
C1166 O1158 1.258 . S
O1167 Mn1152 2.162 . S
O1167 C1155 1.281 . S
O1168 Mn1152 2.297 . S
O1168 C1155 1.236 . S
N1169 Mn1153 2.282 . S
N1169 C1170 1.328 . S
N1169 C1174 1.318 . S
C1170 N1169 1.328 . S
C1170 C1171 1.457 . S
C1170 H1175 0.929 . S
C1171 C1170 1.457 . S
C1171 C1172 1.291 . S
C1171 H1184 0.931 . S
C1172 C1171 1.291 . S
C1172 C1173 1.373 . S
C1172 H1185 0.929 . S
C1173 C1172 1.373 . S
C1173 C1174 1.396 . S
C1173 C1180 1.403 . S
C1174 C1164 1.476 . S
C1174 N1169 1.318 . S
C1174 C1173 1.396 . S
H1175 C1170 0.929 . S
O1176 Mn1152 2.385 . S
O1176 C1154 1.234 . S
O1177 Mn1152 2.209 . S
O1177 Mn1153 2.215 . S
O1177 C1154 1.283 . S
O1178 Mn1152 2.094 . S
O1178 C1156 1.240 . S
O1179 Mn1153 2.117 . S
O1179 C1156 1.264 . S
C1180 C1173 1.403 . S
C1180 C1181 1.399 . S
C1180 H1186 0.929 . S
C1181 C1161 1.449 . S
C1181 C1180 1.399 . S
C1181 H1187 0.930 . S
H1182 C1162 0.931 . S
H1183 C1163 0.930 . S
H1184 C1171 0.931 . S
H1185 C1172 0.929 . S
H1186 C1180 0.929 . S
H1187 C1181 0.930 . S
Mn1188 O1193 2.095 . S
Mn1188 O1203 2.162 . S
Mn1188 O1204 2.297 . S
Mn1188 O1212 2.385 . S
Mn1188 O1213 2.209 . S
Mn1188 O1214 2.094 . S
Mn1189 O1194 2.121 . S
Mn1189 N1196 2.257 . S
Mn1189 N1205 2.282 . S
Mn1189 O1213 2.215 . S
Mn1189 O1215 2.117 . S
C1190 O1212 1.234 . S
C1190 O1213 1.283 . S
C1191 O1203 1.281 . S
C1191 O1204 1.236 . S
C1192 O1214 1.240 . S
C1192 O1215 1.264 . S
O1193 Mn1188 2.095 . S
O1193 C1202 1.250 . S
O1194 Mn1189 2.121 . S
O1194 C1202 1.258 . S
C1195 N1196 1.326 . S
C1195 C1199 1.460 . S
C1195 H1201 0.929 . S
N1196 Mn1189 2.257 . S
N1196 C1195 1.326 . S
N1196 C1200 1.362 . S
C1197 C1198 1.258 . S
C1197 C1200 1.431 . S
C1197 C1217 1.449 . S
C1198 C1197 1.258 . S
C1198 C1199 1.477 . S
C1198 H1218 0.931 . S
C1199 C1195 1.460 . S
C1199 C1198 1.477 . S
C1199 H1219 0.930 . S
C1200 N1196 1.362 . S
C1200 C1197 1.431 . S
C1200 C1210 1.476 . S
H1201 C1195 0.929 . S
C1202 O1193 1.250 . S
C1202 O1194 1.258 . S
O1203 Mn1188 2.162 . S
O1203 C1191 1.281 . S
O1204 Mn1188 2.297 . S
O1204 C1191 1.236 . S
N1205 Mn1189 2.282 . S
N1205 C1206 1.328 . S
N1205 C1210 1.318 . S
C1206 N1205 1.328 . S
C1206 C1207 1.457 . S
C1206 H1211 0.929 . S
C1207 C1206 1.457 . S
C1207 C1208 1.291 . S
C1207 H1220 0.931 . S
C1208 C1207 1.291 . S
C1208 C1209 1.373 . S
C1208 H1221 0.929 . S
C1209 C1208 1.373 . S
C1209 C1210 1.396 . S
C1209 C1216 1.403 . S
C1210 C1200 1.476 . S
C1210 N1205 1.318 . S
C1210 C1209 1.396 . S
H1211 C1206 0.929 . S
O1212 Mn1188 2.385 . S
O1212 C1190 1.234 . S
O1213 Mn1188 2.209 . S
O1213 Mn1189 2.215 . S
O1213 C1190 1.283 . S
O1214 Mn1188 2.094 . S
O1214 C1192 1.240 . S
O1215 Mn1189 2.117 . S
O1215 C1192 1.264 . S
C1216 C1209 1.403 . S
C1216 C1217 1.399 . S
C1216 H1222 0.929 . S
C1217 C1197 1.449 . S
C1217 C1216 1.399 . S
C1217 H1223 0.930 . S
H1218 C1198 0.931 . S
H1219 C1199 0.930 . S
H1220 C1207 0.931 . S
H1221 C1208 0.929 . S
H1222 C1216 0.929 . S
H1223 C1217 0.930 . S
Mn1224 O1229 2.095 . S
Mn1224 O1239 2.162 . S
Mn1224 O1240 2.297 . S
Mn1224 O1248 2.385 . S
Mn1224 O1249 2.209 . S
Mn1224 O1250 2.094 . S
Mn1225 O1230 2.121 . S
Mn1225 N1232 2.257 . S
Mn1225 N1241 2.282 . S
Mn1225 O1249 2.215 . S
Mn1225 O1251 2.117 . S
C1226 O1248 1.234 . S
C1226 O1249 1.283 . S
C1227 O1239 1.281 . S
C1227 O1240 1.236 . S
C1228 O1250 1.240 . S
C1228 O1251 1.264 . S
O1229 Mn1224 2.095 . S
O1229 C1238 1.250 . S
O1230 Mn1225 2.121 . S
O1230 C1238 1.258 . S
C1231 N1232 1.326 . S
C1231 C1235 1.460 . S
C1231 H1237 0.929 . S
N1232 Mn1225 2.257 . S
N1232 C1231 1.326 . S
N1232 C1236 1.362 . S
C1233 C1234 1.258 . S
C1233 C1236 1.431 . S
C1233 C1253 1.449 . S
C1234 C1233 1.258 . S
C1234 C1235 1.477 . S
C1234 H1254 0.931 . S
C1235 C1231 1.460 . S
C1235 C1234 1.477 . S
C1235 H1255 0.930 . S
C1236 N1232 1.362 . S
C1236 C1233 1.431 . S
C1236 C1246 1.476 . S
H1237 C1231 0.929 . S
C1238 O1229 1.250 . S
C1238 O1230 1.258 . S
O1239 Mn1224 2.162 . S
O1239 C1227 1.281 . S
O1240 Mn1224 2.297 . S
O1240 C1227 1.236 . S
N1241 Mn1225 2.282 . S
N1241 C1242 1.328 . S
N1241 C1246 1.318 . S
C1242 N1241 1.328 . S
C1242 C1243 1.457 . S
C1242 H1247 0.929 . S
C1243 C1242 1.457 . S
C1243 C1244 1.291 . S
C1243 H1256 0.931 . S
C1244 C1243 1.291 . S
C1244 C1245 1.373 . S
C1244 H1257 0.929 . S
C1245 C1244 1.373 . S
C1245 C1246 1.396 . S
C1245 C1252 1.403 . S
C1246 C1236 1.476 . S
C1246 N1241 1.318 . S
C1246 C1245 1.396 . S
H1247 C1242 0.929 . S
O1248 Mn1224 2.385 . S
O1248 C1226 1.234 . S
O1249 Mn1224 2.209 . S
O1249 Mn1225 2.215 . S
O1249 C1226 1.283 . S
O1250 Mn1224 2.094 . S
O1250 C1228 1.240 . S
O1251 Mn1225 2.117 . S
O1251 C1228 1.264 . S
C1252 C1245 1.403 . S
C1252 C1253 1.399 . S
C1252 H1258 0.929 . S
C1253 C1233 1.449 . S
C1253 C1252 1.399 . S
C1253 H1259 0.930 . S
H1254 C1234 0.931 . S
H1255 C1235 0.930 . S
H1256 C1243 0.931 . S
H1257 C1244 0.929 . S
H1258 C1252 0.929 . S
H1259 C1253 0.930 . S
Mn1260 O1265 2.095 . S
Mn1260 O1275 2.162 . S
Mn1260 O1276 2.297 . S
Mn1260 O1284 2.385 . S
Mn1260 O1285 2.209 . S
Mn1260 O1286 2.094 . S
Mn1261 O1266 2.121 . S
Mn1261 N1268 2.257 . S
Mn1261 N1277 2.282 . S
Mn1261 O1285 2.215 . S
Mn1261 O1287 2.117 . S
C1262 O1284 1.234 . S
C1262 O1285 1.283 . S
C1263 O1275 1.281 . S
C1263 O1276 1.236 . S
C1264 O1286 1.240 . S
C1264 O1287 1.264 . S
O1265 Mn1260 2.095 . S
O1265 C1274 1.250 . S
O1266 Mn1261 2.121 . S
O1266 C1274 1.258 . S
C1267 N1268 1.326 . S
C1267 C1271 1.460 . S
C1267 H1273 0.929 . S
N1268 Mn1261 2.257 . S
N1268 C1267 1.326 . S
N1268 C1272 1.362 . S
C1269 C1270 1.258 . S
C1269 C1272 1.431 . S
C1269 C1289 1.449 . S
C1270 C1269 1.258 . S
C1270 C1271 1.477 . S
C1270 H1290 0.931 . S
C1271 C1267 1.460 . S
C1271 C1270 1.477 . S
C1271 H1291 0.930 . S
C1272 N1268 1.362 . S
C1272 C1269 1.431 . S
C1272 C1282 1.476 . S
H1273 C1267 0.929 . S
C1274 O1265 1.250 . S
C1274 O1266 1.258 . S
O1275 Mn1260 2.162 . S
O1275 C1263 1.281 . S
O1276 Mn1260 2.297 . S
O1276 C1263 1.236 . S
N1277 Mn1261 2.282 . S
N1277 C1278 1.328 . S
N1277 C1282 1.318 . S
C1278 N1277 1.328 . S
C1278 C1279 1.457 . S
C1278 H1283 0.929 . S
C1279 C1278 1.457 . S
C1279 C1280 1.291 . S
C1279 H1292 0.931 . S
C1280 C1279 1.291 . S
C1280 C1281 1.373 . S
C1280 H1293 0.929 . S
C1281 C1280 1.373 . S
C1281 C1282 1.396 . S
C1281 C1288 1.403 . S
C1282 C1272 1.476 . S
C1282 N1277 1.318 . S
C1282 C1281 1.396 . S
H1283 C1278 0.929 . S
O1284 Mn1260 2.385 . S
O1284 C1262 1.234 . S
O1285 Mn1260 2.209 . S
O1285 Mn1261 2.215 . S
O1285 C1262 1.283 . S
O1286 Mn1260 2.094 . S
O1286 C1264 1.240 . S
O1287 Mn1261 2.117 . S
O1287 C1264 1.264 . S
C1288 C1281 1.403 . S
C1288 C1289 1.399 . S
C1288 H1294 0.929 . S
C1289 C1269 1.449 . S
C1289 C1288 1.399 . S
C1289 H1295 0.930 . S
H1290 C1270 0.931 . S
H1291 C1271 0.930 . S
H1292 C1279 0.931 . S
H1293 C1280 0.929 . S
H1294 C1288 0.929 . S
H1295 C1289 0.930 . S
Mn1296 O1301 2.095 . S
Mn1296 O1311 2.162 . S
Mn1296 O1312 2.297 . S
Mn1296 O1320 2.385 . S
Mn1296 O1321 2.209 . S
Mn1296 O1322 2.094 . S
Mn1297 O1302 2.121 . S
Mn1297 N1304 2.257 . S
Mn1297 N1313 2.282 . S
Mn1297 O1321 2.215 . S
Mn1297 O1323 2.117 . S
C1298 O1320 1.234 . S
C1298 O1321 1.283 . S
C1299 O1311 1.281 . S
C1299 O1312 1.236 . S
C1300 O1322 1.240 . S
C1300 O1323 1.264 . S
O1301 Mn1296 2.095 . S
O1301 C1310 1.250 . S
O1302 Mn1297 2.121 . S
O1302 C1310 1.258 . S
C1303 N1304 1.326 . S
C1303 C1307 1.460 . S
C1303 H1309 0.929 . S
N1304 Mn1297 2.257 . S
N1304 C1303 1.326 . S
N1304 C1308 1.362 . S
C1305 C1306 1.258 . S
C1305 C1308 1.431 . S
C1305 C1325 1.449 . S
C1306 C1305 1.258 . S
C1306 C1307 1.477 . S
C1306 H1326 0.931 . S
C1307 C1303 1.460 . S
C1307 C1306 1.477 . S
C1307 H1327 0.930 . S
C1308 N1304 1.362 . S
C1308 C1305 1.431 . S
C1308 C1318 1.476 . S
H1309 C1303 0.929 . S
C1310 O1301 1.250 . S
C1310 O1302 1.258 . S
O1311 Mn1296 2.162 . S
O1311 C1299 1.281 . S
O1312 Mn1296 2.297 . S
O1312 C1299 1.236 . S
N1313 Mn1297 2.282 . S
N1313 C1314 1.328 . S
N1313 C1318 1.318 . S
C1314 N1313 1.328 . S
C1314 C1315 1.457 . S
C1314 H1319 0.929 . S
C1315 C1314 1.457 . S
C1315 C1316 1.291 . S
C1315 H1328 0.931 . S
C1316 C1315 1.291 . S
C1316 C1317 1.373 . S
C1316 H1329 0.929 . S
C1317 C1316 1.373 . S
C1317 C1318 1.396 . S
C1317 C1324 1.403 . S
C1318 C1308 1.476 . S
C1318 N1313 1.318 . S
C1318 C1317 1.396 . S
H1319 C1314 0.929 . S
O1320 Mn1296 2.385 . S
O1320 C1298 1.234 . S
O1321 Mn1296 2.209 . S
O1321 Mn1297 2.215 . S
O1321 C1298 1.283 . S
O1322 Mn1296 2.094 . S
O1322 C1300 1.240 . S
O1323 Mn1297 2.117 . S
O1323 C1300 1.264 . S
C1324 C1317 1.403 . S
C1324 C1325 1.399 . S
C1324 H1330 0.929 . S
C1325 C1305 1.449 . S
C1325 C1324 1.399 . S
C1325 H1331 0.930 . S
H1326 C1306 0.931 . S
H1327 C1307 0.930 . S
H1328 C1315 0.931 . S
H1329 C1316 0.929 . S
H1330 C1324 0.929 . S
H1331 C1325 0.930 . S
Mn1332 O1337 2.095 . S
Mn1332 O1347 2.162 . S
Mn1332 O1348 2.297 . S
Mn1332 O1356 2.385 . S
Mn1332 O1357 2.209 . S
Mn1332 O1358 2.094 . S
Mn1333 O1338 2.121 . S
Mn1333 N1340 2.257 . S
Mn1333 N1349 2.282 . S
Mn1333 O1357 2.215 . S
Mn1333 O1359 2.117 . S
C1334 O1356 1.234 . S
C1334 O1357 1.283 . S
C1335 O1347 1.281 . S
C1335 O1348 1.236 . S
C1336 O1358 1.240 . S
C1336 O1359 1.264 . S
O1337 Mn1332 2.095 . S
O1337 C1346 1.250 . S
O1338 Mn1333 2.121 . S
O1338 C1346 1.258 . S
C1339 N1340 1.341 . S
C1339 C1343 1.433 1_556 S
C1339 H1345 0.946 . S
N1340 Mn1333 2.257 . S
N1340 C1339 1.341 . S
N1340 C1344 1.364 . S
C1341 C1342 1.258 . S
C1341 C1344 1.428 1_554 S
C1341 C1361 1.449 . S
C1342 C1341 1.258 . S
C1342 C1343 1.477 . S
C1342 H1362 0.931 . S
C1343 C1339 1.433 1_554 S
C1343 C1342 1.477 . S
C1343 H1363 0.930 . S
C1344 N1340 1.364 . S
C1344 C1341 1.428 1_556 S
C1344 C1354 1.478 . S
H1345 C1339 0.946 . S
C1346 O1337 1.250 . S
C1346 O1338 1.258 . S
O1347 Mn1332 2.162 . S
O1347 C1335 1.281 . S
O1348 Mn1332 2.297 . S
O1348 C1335 1.236 . S
N1349 Mn1333 2.282 . S
N1349 C1350 1.328 . S
N1349 C1354 1.318 . S
C1350 N1349 1.328 . S
C1350 C1351 1.457 . S
C1350 H1355 0.929 . S
C1351 C1350 1.457 . S
C1351 C1352 1.291 . S
C1351 H1364 0.931 . S
C1352 C1351 1.291 . S
C1352 C1353 1.373 . S
C1352 H1365 0.929 . S
C1353 C1352 1.373 . S
C1353 C1354 1.396 . S
C1353 C1360 1.403 1_556 S
C1354 C1344 1.478 . S
C1354 N1349 1.318 . S
C1354 C1353 1.396 . S
H1355 C1350 0.929 . S
O1356 Mn1332 2.385 . S
O1356 C1334 1.234 . S
O1357 Mn1332 2.209 . S
O1357 Mn1333 2.215 . S
O1357 C1334 1.283 . S
O1358 Mn1332 2.094 . S
O1358 C1336 1.240 . S
O1359 Mn1333 2.117 . S
O1359 C1336 1.264 . S
C1360 C1353 1.403 1_554 S
C1360 C1361 1.399 . S
C1360 H1366 0.929 . S
C1361 C1341 1.449 . S
C1361 C1360 1.399 . S
C1361 H1367 0.930 . S
H1362 C1342 0.931 . S
H1363 C1343 0.930 . S
H1364 C1351 0.931 . S
H1365 C1352 0.929 . S
H1366 C1360 0.929 . S
H1367 C1361 0.930 . S
Mn1368 O1373 2.095 . S
Mn1368 O1383 2.162 . S
Mn1368 O1384 2.297 . S
Mn1368 O1392 2.385 . S
Mn1368 O1393 2.209 . S
Mn1368 O1394 2.094 . S
Mn1369 O1374 2.121 . S
Mn1369 N1376 2.257 . S
Mn1369 N1385 2.282 . S
Mn1369 O1393 2.215 . S
Mn1369 O1395 2.117 . S
C1370 O1392 1.234 . S
C1370 O1393 1.283 . S
C1371 O1383 1.281 . S
C1371 O1384 1.236 . S
C1372 O1394 1.240 . S
C1372 O1395 1.264 . S
O1373 Mn1368 2.095 . S
O1373 C1382 1.250 . S
O1374 Mn1369 2.121 . S
O1374 C1382 1.258 . S
C1375 N1376 1.326 . S
C1375 C1379 1.460 . S
C1375 H1381 0.929 . S
N1376 Mn1369 2.257 . S
N1376 C1375 1.326 . S
N1376 C1380 1.362 . S
C1377 C1378 1.258 . S
C1377 C1380 1.431 . S
C1377 C1397 1.449 . S
C1378 C1377 1.258 . S
C1378 C1379 1.477 . S
C1378 H1398 0.931 . S
C1379 C1375 1.460 . S
C1379 C1378 1.477 . S
C1379 H1399 0.930 . S
C1380 N1376 1.362 . S
C1380 C1377 1.431 . S
C1380 C1390 1.476 . S
H1381 C1375 0.929 . S
C1382 O1373 1.250 . S
C1382 O1374 1.258 . S
O1383 Mn1368 2.162 . S
O1383 C1371 1.281 . S
O1384 Mn1368 2.297 . S
O1384 C1371 1.236 . S
N1385 Mn1369 2.282 . S
N1385 C1386 1.328 . S
N1385 C1390 1.318 . S
C1386 N1385 1.328 . S
C1386 C1387 1.457 . S
C1386 H1391 0.929 . S
C1387 C1386 1.457 . S
C1387 C1388 1.291 . S
C1387 H1400 0.931 . S
C1388 C1387 1.291 . S
C1388 C1389 1.373 . S
C1388 H1401 0.929 . S
C1389 C1388 1.373 . S
C1389 C1390 1.396 . S
C1389 C1396 1.403 . S
C1390 C1380 1.476 . S
C1390 N1385 1.318 . S
C1390 C1389 1.396 . S
H1391 C1386 0.929 . S
O1392 Mn1368 2.385 . S
O1392 C1370 1.234 . S
O1393 Mn1368 2.209 . S
O1393 Mn1369 2.215 . S
O1393 C1370 1.283 . S
O1394 Mn1368 2.094 . S
O1394 C1372 1.240 . S
O1395 Mn1369 2.117 . S
O1395 C1372 1.264 . S
C1396 C1389 1.403 . S
C1396 C1397 1.399 . S
C1396 H1402 0.929 . S
C1397 C1377 1.449 . S
C1397 C1396 1.399 . S
C1397 H1403 0.930 . S
H1398 C1378 0.931 . S
H1399 C1379 0.930 . S
H1400 C1387 0.931 . S
H1401 C1388 0.929 . S
H1402 C1396 0.929 . S
H1403 C1397 0.930 . S
Mn1404 O1409 2.095 . S
Mn1404 O1419 2.162 . S
Mn1404 O1420 2.297 . S
Mn1404 O1428 2.385 . S
Mn1404 O1429 2.209 . S
Mn1404 O1430 2.094 . S
Mn1405 O1410 2.121 . S
Mn1405 N1412 2.257 . S
Mn1405 N1421 2.282 . S
Mn1405 O1429 2.215 . S
Mn1405 O1431 2.117 . S
C1406 O1428 1.234 . S
C1406 O1429 1.283 . S
C1407 O1419 1.281 . S
C1407 O1420 1.236 . S
C1408 O1430 1.240 . S
C1408 O1431 1.264 . S
O1409 Mn1404 2.095 . S
O1409 C1418 1.250 . S
O1410 Mn1405 2.121 . S
O1410 C1418 1.258 . S
C1411 N1412 1.326 . S
C1411 C1415 1.460 . S
C1411 H1417 0.929 . S
N1412 Mn1405 2.257 . S
N1412 C1411 1.326 . S
N1412 C1416 1.362 . S
C1413 C1414 1.258 . S
C1413 C1416 1.431 . S
C1413 C1433 1.449 . S
C1414 C1413 1.258 . S
C1414 C1415 1.477 . S
C1414 H1434 0.931 . S
C1415 C1411 1.460 . S
C1415 C1414 1.477 . S
C1415 H1435 0.930 . S
C1416 N1412 1.362 . S
C1416 C1413 1.431 . S
C1416 C1426 1.476 . S
H1417 C1411 0.929 . S
C1418 O1409 1.250 . S
C1418 O1410 1.258 . S
O1419 Mn1404 2.162 . S
O1419 C1407 1.281 . S
O1420 Mn1404 2.297 . S
O1420 C1407 1.236 . S
N1421 Mn1405 2.282 . S
N1421 C1422 1.328 . S
N1421 C1426 1.318 . S
C1422 N1421 1.328 . S
C1422 C1423 1.457 . S
C1422 H1427 0.929 . S
C1423 C1422 1.457 . S
C1423 C1424 1.291 . S
C1423 H1436 0.931 . S
C1424 C1423 1.291 . S
C1424 C1425 1.373 . S
C1424 H1437 0.929 . S
C1425 C1424 1.373 . S
C1425 C1426 1.396 . S
C1425 C1432 1.403 . S
C1426 C1416 1.476 . S
C1426 N1421 1.318 . S
C1426 C1425 1.396 . S
H1427 C1422 0.929 . S
O1428 Mn1404 2.385 . S
O1428 C1406 1.234 . S
O1429 Mn1404 2.209 . S
O1429 Mn1405 2.215 . S
O1429 C1406 1.283 . S
O1430 Mn1404 2.094 . S
O1430 C1408 1.240 . S
O1431 Mn1405 2.117 . S
O1431 C1408 1.264 . S
C1432 C1425 1.403 . S
C1432 C1433 1.399 . S
C1432 H1438 0.929 . S
C1433 C1413 1.449 . S
C1433 C1432 1.399 . S
C1433 H1439 0.930 . S
H1434 C1414 0.931 . S
H1435 C1415 0.930 . S
H1436 C1423 0.931 . S
H1437 C1424 0.929 . S
H1438 C1432 0.929 . S
H1439 C1433 0.930 . S
Mn1440 O1445 2.095 . S
Mn1440 O1455 2.162 . S
Mn1440 O1456 2.297 . S
Mn1440 O1464 2.385 . S
Mn1440 O1465 2.209 . S
Mn1440 O1466 2.094 . S
Mn1441 O1446 2.121 . S
Mn1441 N1448 2.257 . S
Mn1441 N1457 2.282 . S
Mn1441 O1465 2.215 . S
Mn1441 O1467 2.117 . S
C1442 O1464 1.234 . S
C1442 O1465 1.283 . S
C1443 O1455 1.281 . S
C1443 O1456 1.236 . S
C1444 O1466 1.240 . S
C1444 O1467 1.264 . S
O1445 Mn1440 2.095 . S
O1445 C1454 1.250 . S
O1446 Mn1441 2.121 . S
O1446 C1454 1.258 . S
C1447 N1448 1.326 . S
C1447 C1451 1.460 . S
C1447 H1453 0.929 . S
N1448 Mn1441 2.257 . S
N1448 C1447 1.326 . S
N1448 C1452 1.362 . S
C1449 C1450 1.258 . S
C1449 C1452 1.431 . S
C1449 C1469 1.449 . S
C1450 C1449 1.258 . S
C1450 C1451 1.477 . S
C1450 H1470 0.931 . S
C1451 C1447 1.460 . S
C1451 C1450 1.477 . S
C1451 H1471 0.930 . S
C1452 N1448 1.362 . S
C1452 C1449 1.431 . S
C1452 C1462 1.476 . S
H1453 C1447 0.929 . S
C1454 O1445 1.250 . S
C1454 O1446 1.258 . S
O1455 Mn1440 2.162 . S
O1455 C1443 1.281 . S
O1456 Mn1440 2.297 . S
O1456 C1443 1.236 . S
N1457 Mn1441 2.282 . S
N1457 C1458 1.328 . S
N1457 C1462 1.318 . S
C1458 N1457 1.328 . S
C1458 C1459 1.457 . S
C1458 H1463 0.929 . S
C1459 C1458 1.457 . S
C1459 C1460 1.291 . S
C1459 H1472 0.931 . S
C1460 C1459 1.291 . S
C1460 C1461 1.373 . S
C1460 H1473 0.929 . S
C1461 C1460 1.373 . S
C1461 C1462 1.396 . S
C1461 C1468 1.403 . S
C1462 C1452 1.476 . S
C1462 N1457 1.318 . S
C1462 C1461 1.396 . S
H1463 C1458 0.929 . S
O1464 Mn1440 2.385 . S
O1464 C1442 1.234 . S
O1465 Mn1440 2.209 . S
O1465 Mn1441 2.215 . S
O1465 C1442 1.283 . S
O1466 Mn1440 2.094 . S
O1466 C1444 1.240 . S
O1467 Mn1441 2.117 . S
O1467 C1444 1.264 . S
C1468 C1461 1.403 . S
C1468 C1469 1.399 . S
C1468 H1474 0.929 . S
C1469 C1449 1.449 . S
C1469 C1468 1.399 . S
C1469 H1475 0.930 . S
H1470 C1450 0.931 . S
H1471 C1451 0.930 . S
H1472 C1459 0.931 . S
H1473 C1460 0.929 . S
H1474 C1468 0.929 . S
H1475 C1469 0.930 . S
Mn1476 O1481 2.095 . S
Mn1476 O1491 2.162 . S
Mn1476 O1492 2.297 . S
Mn1476 O1500 2.385 . S
Mn1476 O1501 2.209 . S
Mn1476 O1502 2.094 . S
Mn1477 O1482 2.121 . S
Mn1477 N1484 2.257 . S
Mn1477 N1493 2.282 . S
Mn1477 O1501 2.215 . S
Mn1477 O1503 2.117 . S
C1478 O1500 1.234 . S
C1478 O1501 1.283 . S
C1479 O1491 1.281 . S
C1479 O1492 1.236 . S
C1480 O1502 1.240 . S
C1480 O1503 1.264 . S
O1481 Mn1476 2.095 . S
O1481 C1490 1.250 . S
O1482 Mn1477 2.121 . S
O1482 C1490 1.258 . S
C1483 N1484 1.326 . S
C1483 C1487 1.460 . S
C1483 H1489 0.929 . S
N1484 Mn1477 2.257 . S
N1484 C1483 1.326 . S
N1484 C1488 1.362 . S
C1485 C1486 1.258 . S
C1485 C1488 1.431 . S
C1485 C1505 1.449 . S
C1486 C1485 1.258 . S
C1486 C1487 1.477 . S
C1486 H1506 0.931 . S
C1487 C1483 1.460 . S
C1487 C1486 1.477 . S
C1487 H1507 0.930 . S
C1488 N1484 1.362 . S
C1488 C1485 1.431 . S
C1488 C1498 1.476 . S
H1489 C1483 0.929 . S
C1490 O1481 1.250 . S
C1490 O1482 1.258 . S
O1491 Mn1476 2.162 . S
O1491 C1479 1.281 . S
O1492 Mn1476 2.297 . S
O1492 C1479 1.236 . S
N1493 Mn1477 2.282 . S
N1493 C1494 1.328 . S
N1493 C1498 1.318 . S
C1494 N1493 1.328 . S
C1494 C1495 1.457 . S
C1494 H1499 0.929 . S
C1495 C1494 1.457 . S
C1495 C1496 1.291 . S
C1495 H1508 0.931 . S
C1496 C1495 1.291 . S
C1496 C1497 1.373 . S
C1496 H1509 0.929 . S
C1497 C1496 1.373 . S
C1497 C1498 1.396 . S
C1497 C1504 1.403 . S
C1498 C1488 1.476 . S
C1498 N1493 1.318 . S
C1498 C1497 1.396 . S
H1499 C1494 0.929 . S
O1500 Mn1476 2.385 . S
O1500 C1478 1.234 . S
O1501 Mn1476 2.209 . S
O1501 Mn1477 2.215 . S
O1501 C1478 1.283 . S
O1502 Mn1476 2.094 . S
O1502 C1480 1.240 . S
O1503 Mn1477 2.117 . S
O1503 C1480 1.264 . S
C1504 C1497 1.403 . S
C1504 C1505 1.399 . S
C1504 H1510 0.929 . S
C1505 C1485 1.449 . S
C1505 C1504 1.399 . S
C1505 H1511 0.930 . S
H1506 C1486 0.931 . S
H1507 C1487 0.930 . S
H1508 C1495 0.931 . S
H1509 C1496 0.929 . S
H1510 C1504 0.929 . S
H1511 C1505 0.930 . S
Mn1512 O1517 2.095 . S
Mn1512 O1527 2.162 . S
Mn1512 O1528 2.297 . S
Mn1512 O1536 2.385 . S
Mn1512 O1537 2.209 . S
Mn1512 O1538 2.094 . S
Mn1513 O1518 2.121 . S
Mn1513 N1520 2.257 . S
Mn1513 N1529 2.282 . S
Mn1513 O1537 2.215 . S
Mn1513 O1539 2.117 . S
C1514 O1536 1.234 . S
C1514 O1537 1.283 . S
C1515 O1527 1.281 . S
C1515 O1528 1.236 . S
C1516 O1538 1.240 . S
C1516 O1539 1.264 . S
O1517 Mn1512 2.095 . S
O1517 C1526 1.250 . S
O1518 Mn1513 2.121 . S
O1518 C1526 1.258 . S
C1519 N1520 1.326 . S
C1519 C1523 1.460 . S
C1519 H1525 0.929 . S
N1520 Mn1513 2.257 . S
N1520 C1519 1.326 . S
N1520 C1524 1.362 . S
C1521 C1522 1.258 . S
C1521 C1524 1.431 . S
C1521 C1541 1.449 . S
C1522 C1521 1.258 . S
C1522 C1523 1.477 . S
C1522 H1542 0.931 . S
C1523 C1519 1.460 . S
C1523 C1522 1.477 . S
C1523 H1543 0.930 . S
C1524 N1520 1.362 . S
C1524 C1521 1.431 . S
C1524 C1534 1.476 . S
H1525 C1519 0.929 . S
C1526 O1517 1.250 . S
C1526 O1518 1.258 . S
O1527 Mn1512 2.162 . S
O1527 C1515 1.281 . S
O1528 Mn1512 2.297 . S
O1528 C1515 1.236 . S
N1529 Mn1513 2.282 . S
N1529 C1530 1.328 . S
N1529 C1534 1.318 . S
C1530 N1529 1.328 . S
C1530 C1531 1.457 . S
C1530 H1535 0.929 . S
C1531 C1530 1.457 . S
C1531 C1532 1.291 . S
C1531 H1544 0.931 . S
C1532 C1531 1.291 . S
C1532 C1533 1.373 . S
C1532 H1545 0.929 . S
C1533 C1532 1.373 . S
C1533 C1534 1.396 . S
C1533 C1540 1.403 . S
C1534 C1524 1.476 . S
C1534 N1529 1.318 . S
C1534 C1533 1.396 . S
H1535 C1530 0.929 . S
O1536 Mn1512 2.385 . S
O1536 C1514 1.234 . S
O1537 Mn1512 2.209 . S
O1537 Mn1513 2.215 . S
O1537 C1514 1.283 . S
O1538 Mn1512 2.094 . S
O1538 C1516 1.240 . S
O1539 Mn1513 2.117 . S
O1539 C1516 1.264 . S
C1540 C1533 1.403 . S
C1540 C1541 1.399 . S
C1540 H1546 0.929 . S
C1541 C1521 1.449 . S
C1541 C1540 1.399 . S
C1541 H1547 0.930 . S
H1542 C1522 0.931 . S
H1543 C1523 0.930 . S
H1544 C1531 0.931 . S
H1545 C1532 0.929 . S
H1546 C1540 0.929 . S
H1547 C1541 0.930 . S
Mn1548 O1553 2.090 1_556 S
Mn1548 O1563 2.162 . S
Mn1548 O1564 2.297 1_556 S
Mn1548 O1572 2.385 1_556 S
Mn1548 O1573 2.209 1_556 S
Mn1548 O1574 2.094 . S
Mn1549 O1554 2.121 . S
Mn1549 N1556 2.257 . S
Mn1549 N1565 2.282 . S
Mn1549 O1573 2.215 . S
Mn1549 O1575 2.117 1_554 S
C1550 O1572 1.234 . S
C1550 O1573 1.283 . S
C1551 O1563 1.281 1_554 S
C1551 O1564 1.236 . S
C1552 O1574 1.240 . S
C1552 O1575 1.264 . S
O1553 Mn1548 2.090 1_554 S
O1553 C1562 1.275 . S
O1554 Mn1549 2.121 . S
O1554 C1562 1.258 . S
C1555 N1556 1.326 . S
C1555 C1559 1.460 . S
C1555 H1561 0.929 . S
N1556 Mn1549 2.257 . S
N1556 C1555 1.326 . S
N1556 C1560 1.362 . S
C1557 C1558 1.258 . S
C1557 C1560 1.431 . S
C1557 C1577 1.449 . S
C1558 C1557 1.258 . S
C1558 C1559 1.477 . S
C1558 H1578 0.931 . S
C1559 C1555 1.460 . S
C1559 C1558 1.477 . S
C1559 H1579 0.930 . S
C1560 N1556 1.362 . S
C1560 C1557 1.431 . S
C1560 C1570 1.476 . S
H1561 C1555 0.929 . S
C1562 O1553 1.275 . S
C1562 O1554 1.258 . S
O1563 Mn1548 2.162 . S
O1563 C1551 1.281 1_556 S
O1564 Mn1548 2.297 1_554 S
O1564 C1551 1.236 . S
N1565 Mn1549 2.282 . S
N1565 C1566 1.328 1_554 S
N1565 C1570 1.318 . S
C1566 N1565 1.328 1_556 S
C1566 C1567 1.457 . S
C1566 H1571 0.929 . S
C1567 C1566 1.457 . S
C1567 C1568 1.291 1_556 S
C1567 H1580 0.931 . S
C1568 C1567 1.291 1_554 S
C1568 C1569 1.373 . S
C1568 H1581 0.929 . S
C1569 C1568 1.373 . S
C1569 C1570 1.396 . S
C1569 C1576 1.403 . S
C1570 C1560 1.476 . S
C1570 N1565 1.318 . S
C1570 C1569 1.396 . S
H1571 C1566 0.929 . S
O1572 Mn1548 2.385 1_554 S
O1572 C1550 1.234 . S
O1573 Mn1548 2.209 1_554 S
O1573 Mn1549 2.215 . S
O1573 C1550 1.283 . S
O1574 Mn1548 2.094 . S
O1574 C1552 1.240 . S
O1575 Mn1549 2.117 1_556 S
O1575 C1552 1.264 . S
C1576 C1569 1.403 . S
C1576 C1577 1.399 . S
C1576 H1582 0.929 . S
C1577 C1557 1.449 . S
C1577 C1576 1.399 . S
C1577 H1583 0.930 . S
H1578 C1558 0.931 . S
H1579 C1559 0.930 . S
H1580 C1567 0.931 . S
H1581 C1568 0.929 . S
H1582 C1576 0.929 . S
H1583 C1577 0.930 . S
Mn1584 O1589 2.095 . S
Mn1584 O1599 2.162 . S
Mn1584 O1600 2.297 . S
Mn1584 O1608 2.385 . S
Mn1584 O1609 2.209 . S
Mn1584 O1610 2.094 . S
Mn1585 O1590 2.121 . S
Mn1585 N1592 2.257 . S
Mn1585 N1601 2.282 . S
Mn1585 O1609 2.215 . S
Mn1585 O1611 2.117 . S
C1586 O1608 1.234 . S
C1586 O1609 1.283 . S
C1587 O1599 1.281 . S
C1587 O1600 1.236 . S
C1588 O1610 1.240 . S
C1588 O1611 1.264 . S
O1589 Mn1584 2.095 . S
O1589 C1598 1.250 . S
O1590 Mn1585 2.121 . S
O1590 C1598 1.258 . S
C1591 N1592 1.326 . S
C1591 C1595 1.460 . S
C1591 H1597 0.929 . S
N1592 Mn1585 2.257 . S
N1592 C1591 1.326 . S
N1592 C1596 1.362 . S
C1593 C1594 1.258 . S
C1593 C1596 1.431 . S
C1593 C1613 1.449 . S
C1594 C1593 1.258 . S
C1594 C1595 1.477 . S
C1594 H1614 0.931 . S
C1595 C1591 1.460 . S
C1595 C1594 1.477 . S
C1595 H1615 0.930 . S
C1596 N1592 1.362 . S
C1596 C1593 1.431 . S
C1596 C1606 1.476 . S
H1597 C1591 0.929 . S
C1598 O1589 1.250 . S
C1598 O1590 1.258 . S
O1599 Mn1584 2.162 . S
O1599 C1587 1.281 . S
O1600 Mn1584 2.297 . S
O1600 C1587 1.236 . S
N1601 Mn1585 2.282 . S
N1601 C1602 1.328 . S
N1601 C1606 1.318 . S
C1602 N1601 1.328 . S
C1602 C1603 1.457 . S
C1602 H1607 0.929 . S
C1603 C1602 1.457 . S
C1603 C1604 1.291 . S
C1603 H1616 0.931 . S
C1604 C1603 1.291 . S
C1604 C1605 1.373 . S
C1604 H1617 0.929 . S
C1605 C1604 1.373 . S
C1605 C1606 1.396 . S
C1605 C1612 1.403 . S
C1606 C1596 1.476 . S
C1606 N1601 1.318 . S
C1606 C1605 1.396 . S
H1607 C1602 0.929 . S
O1608 Mn1584 2.385 . S
O1608 C1586 1.234 . S
O1609 Mn1584 2.209 . S
O1609 Mn1585 2.215 . S
O1609 C1586 1.283 . S
O1610 Mn1584 2.094 . S
O1610 C1588 1.240 . S
O1611 Mn1585 2.117 . S
O1611 C1588 1.264 . S
C1612 C1605 1.403 . S
C1612 C1613 1.399 . S
C1612 H1618 0.929 . S
C1613 C1593 1.449 . S
C1613 C1612 1.399 . S
C1613 H1619 0.930 . S
H1614 C1594 0.931 . S
H1615 C1595 0.930 . S
H1616 C1603 0.931 . S
H1617 C1604 0.929 . S
H1618 C1612 0.929 . S
H1619 C1613 0.930 . S
Mn1620 O1625 2.095 . S
Mn1620 O1635 2.162 . S
Mn1620 O1636 2.288 1_554 S
Mn1620 O1644 2.385 1_554 S
Mn1620 O1645 2.209 1_554 S
Mn1620 O1646 2.094 . S
Mn1621 O1626 2.121 . S
Mn1621 N1628 2.257 1_554 S
Mn1621 N1637 2.282 1_554 S
Mn1621 O1645 2.215 1_554 S
Mn1621 O1647 2.117 . S
C1622 O1644 1.234 . S
C1622 O1645 1.283 . S
C1623 O1635 1.281 . S
C1623 O1636 1.230 1_554 S
C1624 O1646 1.240 . S
C1624 O1647 1.264 . S
O1625 Mn1620 2.095 . S
O1625 C1634 1.250 . S
O1626 Mn1621 2.121 . S
O1626 C1634 1.258 . S
C1627 N1628 1.326 . S
C1627 C1631 1.460 . S
C1627 H1633 0.929 1_556 S
N1628 Mn1621 2.257 1_556 S
N1628 C1627 1.326 . S
N1628 C1632 1.362 . S
C1629 C1630 1.258 . S
C1629 C1632 1.431 . S
C1629 C1649 1.449 . S
C1630 C1629 1.258 . S
C1630 C1631 1.477 . S
C1630 H1650 0.931 . S
C1631 C1627 1.460 . S
C1631 C1630 1.477 . S
C1631 H1651 0.930 . S
C1632 N1628 1.362 . S
C1632 C1629 1.431 . S
C1632 C1642 1.476 . S
H1633 C1627 0.929 1_554 S
C1634 O1625 1.250 . S
C1634 O1626 1.258 . S
O1635 Mn1620 2.162 . S
O1635 C1623 1.281 . S
O1636 Mn1620 2.288 1_556 S
O1636 C1623 1.230 1_556 S
N1637 Mn1621 2.282 1_556 S
N1637 C1638 1.328 . S
N1637 C1642 1.318 . S
C1638 N1637 1.328 . S
C1638 C1639 1.457 . S
C1638 H1643 0.914 1_556 S
C1639 C1638 1.457 . S
C1639 C1640 1.291 . S
C1639 H1652 0.931 . S
C1640 C1639 1.291 . S
C1640 C1641 1.373 . S
C1640 H1653 0.929 . S
C1641 C1640 1.373 . S
C1641 C1642 1.396 . S
C1641 C1648 1.403 . S
C1642 C1632 1.476 . S
C1642 N1637 1.318 . S
C1642 C1641 1.396 . S
H1643 C1638 0.914 1_554 S
O1644 Mn1620 2.385 1_556 S
O1644 C1622 1.234 . S
O1645 Mn1620 2.209 1_556 S
O1645 Mn1621 2.215 1_556 S
O1645 C1622 1.283 . S
O1646 Mn1620 2.094 . S
O1646 C1624 1.240 . S
O1647 Mn1621 2.117 . S
O1647 C1624 1.264 . S
C1648 C1641 1.403 . S
C1648 C1649 1.399 . S
C1648 H1654 0.929 . S
C1649 C1629 1.449 . S
C1649 C1648 1.399 . S
C1649 H1655 0.930 . S
H1650 C1630 0.931 . S
H1651 C1631 0.930 . S
H1652 C1639 0.931 . S
H1653 C1640 0.929 . S
H1654 C1648 0.929 . S
H1655 C1649 0.930 . S
Mn1656 O1661 2.095 . S
Mn1656 O1671 2.162 . S
Mn1656 O1672 2.297 . S
Mn1656 O1680 2.385 . S
Mn1656 O1681 2.209 . S
Mn1656 O1682 2.094 . S
Mn1657 O1662 2.121 . S
Mn1657 N1664 2.257 . S
Mn1657 N1673 2.282 . S
Mn1657 O1681 2.215 . S
Mn1657 O1683 2.117 . S
C1658 O1680 1.234 . S
C1658 O1681 1.283 . S
C1659 O1671 1.281 . S
C1659 O1672 1.236 . S
C1660 O1682 1.240 . S
C1660 O1683 1.264 . S
O1661 Mn1656 2.095 . S
O1661 C1670 1.250 . S
O1662 Mn1657 2.121 . S
O1662 C1670 1.258 . S
C1663 N1664 1.341 . S
C1663 C1667 1.433 1_565 S
C1663 H1669 0.946 . S
N1664 Mn1657 2.257 . S
N1664 C1663 1.341 . S
N1664 C1668 1.364 . S
C1665 C1666 1.258 . S
C1665 C1668 1.428 1_545 S
C1665 C1685 1.449 . S
C1666 C1665 1.258 . S
C1666 C1667 1.477 . S
C1666 H1686 0.931 . S
C1667 C1663 1.433 1_545 S
C1667 C1666 1.477 . S
C1667 H1687 0.930 . S
C1668 N1664 1.364 . S
C1668 C1665 1.428 1_565 S
C1668 C1678 1.478 . S
H1669 C1663 0.946 . S
C1670 O1661 1.250 . S
C1670 O1662 1.258 . S
O1671 Mn1656 2.162 . S
O1671 C1659 1.281 . S
O1672 Mn1656 2.297 . S
O1672 C1659 1.236 . S
N1673 Mn1657 2.282 . S
N1673 C1674 1.328 . S
N1673 C1678 1.318 . S
C1674 N1673 1.328 . S
C1674 C1675 1.457 . S
C1674 H1679 0.929 . S
C1675 C1674 1.457 . S
C1675 C1676 1.291 . S
C1675 H1688 0.931 . S
C1676 C1675 1.291 . S
C1676 C1677 1.373 . S
C1676 H1689 0.929 . S
C1677 C1676 1.373 . S
C1677 C1678 1.396 . S
C1677 C1684 1.403 1_565 S
C1678 C1668 1.478 . S
C1678 N1673 1.318 . S
C1678 C1677 1.396 . S
H1679 C1674 0.929 . S
O1680 Mn1656 2.385 . S
O1680 C1658 1.234 . S
O1681 Mn1656 2.209 . S
O1681 Mn1657 2.215 . S
O1681 C1658 1.283 . S
O1682 Mn1656 2.094 . S
O1682 C1660 1.240 . S
O1683 Mn1657 2.117 . S
O1683 C1660 1.264 . S
C1684 C1677 1.403 1_545 S
C1684 C1685 1.399 . S
C1684 H1690 0.929 . S
C1685 C1665 1.449 . S
C1685 C1684 1.399 . S
C1685 H1691 0.930 . S
H1686 C1666 0.931 . S
H1687 C1667 0.930 . S
H1688 C1675 0.931 . S
H1689 C1676 0.929 . S
H1690 C1684 0.929 . S
H1691 C1685 0.930 . S
Mn1692 O1697 2.095 . S
Mn1692 O1707 2.162 . S
Mn1692 O1708 2.297 . S
Mn1692 O1716 2.385 . S
Mn1692 O1717 2.209 . S
Mn1692 O1718 2.094 . S
Mn1693 O1698 2.121 . S
Mn1693 N1700 2.257 1_545 S
Mn1693 N1709 2.282 . S
Mn1693 O1717 2.215 . S
Mn1693 O1719 2.117 . S
C1694 O1716 1.234 . S
C1694 O1717 1.283 . S
C1695 O1707 1.281 . S
C1695 O1708 1.236 . S
C1696 O1718 1.240 . S
C1696 O1719 1.264 . S
O1697 Mn1692 2.095 . S
O1697 C1706 1.250 . S
O1698 Mn1693 2.121 . S
O1698 C1706 1.258 . S
C1699 N1700 1.326 . S
C1699 C1703 1.460 . S
C1699 H1705 0.929 . S
N1700 Mn1693 2.257 1_565 S
N1700 C1699 1.326 . S
N1700 C1704 1.362 . S
C1701 C1702 1.258 . S
C1701 C1704 1.431 . S
C1701 C1721 1.449 . S
C1702 C1701 1.258 . S
C1702 C1703 1.477 . S
C1702 H1722 0.931 . S
C1703 C1699 1.460 . S
C1703 C1702 1.477 . S
C1703 H1723 0.930 . S
C1704 N1700 1.362 . S
C1704 C1701 1.431 . S
C1704 C1714 1.476 1_565 S
H1705 C1699 0.929 . S
C1706 O1697 1.250 . S
C1706 O1698 1.258 . S
O1707 Mn1692 2.162 . S
O1707 C1695 1.281 . S
O1708 Mn1692 2.297 . S
O1708 C1695 1.236 . S
N1709 Mn1693 2.282 . S
N1709 C1710 1.328 . S
N1709 C1714 1.318 . S
C1710 N1709 1.328 . S
C1710 C1711 1.457 . S
C1710 H1715 0.929 . S
C1711 C1710 1.457 . S
C1711 C1712 1.291 . S
C1711 H1724 0.931 . S
C1712 C1711 1.291 . S
C1712 C1713 1.355 1_545 S
C1712 H1725 0.929 . S
C1713 C1712 1.355 1_565 S
C1713 C1714 1.393 1_565 S
C1713 C1720 1.422 . S
C1714 C1704 1.476 1_545 S
C1714 N1709 1.318 . S
C1714 C1713 1.393 1_545 S
H1715 C1710 0.929 . S
O1716 Mn1692 2.385 . S
O1716 C1694 1.234 . S
O1717 Mn1692 2.209 . S
O1717 Mn1693 2.215 . S
O1717 C1694 1.283 . S
O1718 Mn1692 2.094 . S
O1718 C1696 1.240 . S
O1719 Mn1693 2.117 . S
O1719 C1696 1.264 . S
C1720 C1713 1.422 . S
C1720 C1721 1.399 . S
C1720 H1726 0.929 . S
C1721 C1701 1.449 . S
C1721 C1720 1.399 . S
C1721 H1727 0.930 . S
H1722 C1702 0.931 . S
H1723 C1703 0.930 . S
H1724 C1711 0.931 . S
H1725 C1712 0.929 . S
H1726 C1720 0.929 . S
H1727 C1721 0.930 . S
H1728 C1736 0.950 . S
H1729 C1741 0.950 . S
H1730 C1738 0.950 . S
H1731 C1740 0.950 1_655 S
H1732 C1742 0.950 1_655 S
H1733 C1744 0.950 1_655 S
H1734 C1746 0.950 . S
H1735 C1747 0.950 . S
C1736 H1728 0.950 . S
C1736 C1737 1.386 . S
C1736 C1738 1.391 . S
C1737 C1736 1.386 . S
C1737 C1741 1.393 . S
C1738 H1730 0.950 . S
C1738 C1736 1.391 . S
C1738 C1739 1.400 . S
C1739 C1738 1.400 . S
C1739 C1740 1.398 . S
C1739 C1745 1.491 . S
C1740 H1731 0.950 1_455 S
C1740 C1739 1.398 . S
C1740 C1741 1.391 . S
C1741 H1729 0.950 . S
C1741 C1737 1.393 . S
C1741 C1740 1.391 . S
C1742 H1732 0.950 1_455 S
C1742 C1743 1.386 . S
C1742 C1744 1.391 . S
C1743 C1742 1.386 . S
C1743 C1747 1.393 . S
C1744 H1733 0.950 1_455 S
C1744 C1742 1.391 . S
C1744 C1745 1.400 . S
C1745 C1739 1.491 . S
C1745 C1744 1.400 . S
C1745 C1746 1.398 . S
C1746 H1734 0.950 . S
C1746 C1745 1.398 . S
C1746 C1747 1.391 . S
C1747 H1735 0.950 . S
C1747 C1743 1.393 . S
C1747 C1746 1.391 . S
H1748 C1756 0.950 . S
H1749 C1761 0.950 . S
H1750 C1758 0.950 . S
H1751 C1760 0.950 . S
H1752 C1762 0.950 . S
H1753 C1764 0.989 . S
H1754 C1766 0.950 . S
H1755 C1767 0.950 . S
C1756 H1748 0.950 . S
C1756 C1757 1.386 . S
C1756 C1758 1.391 . S
C1757 C1756 1.386 . S
C1757 C1761 1.393 . S
C1758 H1750 0.950 . S
C1758 C1756 1.391 . S
C1758 C1759 1.400 . S
C1759 C1758 1.400 . S
C1759 C1760 1.398 . S
C1759 C1765 1.491 . S
C1760 H1751 0.950 . S
C1760 C1759 1.398 . S
C1760 C1761 1.391 . S
C1761 H1749 0.950 . S
C1761 C1757 1.393 . S
C1761 C1760 1.391 . S
C1762 H1752 0.950 . S
C1762 C1763 1.386 . S
C1762 C1764 1.346 1_655 S
C1763 C1762 1.386 . S
C1763 C1767 1.393 . S
C1764 H1753 0.989 . S
C1764 C1762 1.346 1_455 S
C1764 C1765 1.409 . S
C1765 C1759 1.491 . S
C1765 C1764 1.409 . S
C1765 C1766 1.398 1_455 S
C1766 H1754 0.950 . S
C1766 C1765 1.398 1_655 S
C1766 C1767 1.391 . S
C1767 H1755 0.950 . S
C1767 C1763 1.393 . S
C1767 C1766 1.391 . S
H1768 C1776 0.950 . S
H1769 C1781 0.950 . S
H1770 C1778 0.950 . S
H1771 C1780 0.950 . S
H1772 C1782 0.950 . S
H1773 C1784 0.950 . S
H1774 C1786 0.950 . S
H1775 C1787 0.950 . S
C1776 H1768 0.950 . S
C1776 C1777 1.386 . S
C1776 C1778 1.391 . S
C1777 C1776 1.386 . S
C1777 C1781 1.393 . S
C1778 H1770 0.950 . S
C1778 C1776 1.391 . S
C1778 C1779 1.400 . S
C1779 C1778 1.400 . S
C1779 C1780 1.398 . S
C1779 C1785 1.491 . S
C1780 H1771 0.950 . S
C1780 C1779 1.398 . S
C1780 C1781 1.391 . S
C1781 H1769 0.950 . S
C1781 C1777 1.393 . S
C1781 C1780 1.391 . S
C1782 H1772 0.950 . S
C1782 C1783 1.386 . S
C1782 C1784 1.391 . S
C1783 C1782 1.386 . S
C1783 C1787 1.393 . S
C1784 H1773 0.950 . S
C1784 C1782 1.391 . S
C1784 C1785 1.400 . S
C1785 C1779 1.491 . S
C1785 C1784 1.400 . S
C1785 C1786 1.398 . S
C1786 H1774 0.950 . S
C1786 C1785 1.398 . S
C1786 C1787 1.391 . S
C1787 H1775 0.950 . S
C1787 C1783 1.393 . S
C1787 C1786 1.391 . S
H1788 C1796 0.950 . S
H1789 C1801 0.950 . S
H1790 C1798 0.950 . S
H1791 C1800 0.950 . S
H1792 C1802 0.950 . S
H1793 C1804 0.950 . S
H1794 C1806 0.954 . S
H1795 C1807 0.950 . S
C1796 H1788 0.950 . S
C1796 C1797 1.386 . S
C1796 C1798 1.391 . S
C1797 C1796 1.386 . S
C1797 C1801 1.393 . S
C1798 H1790 0.950 . S
C1798 C1796 1.391 . S
C1798 C1799 1.400 . S
C1799 C1798 1.400 . S
C1799 C1800 1.398 . S
C1799 C1805 1.491 . S
C1800 H1791 0.950 . S
C1800 C1799 1.398 . S
C1800 C1801 1.391 . S
C1801 H1789 0.950 . S
C1801 C1797 1.393 . S
C1801 C1800 1.391 . S
C1802 H1792 0.950 . S
C1802 C1803 1.386 1_556 S
C1802 C1804 1.391 . S
C1803 C1802 1.386 1_554 S
C1803 C1807 1.393 . S
C1804 H1793 0.950 . S
C1804 C1802 1.391 . S
C1804 C1805 1.400 . S
C1805 C1799 1.491 . S
C1805 C1804 1.400 . S
C1805 C1806 1.387 1_556 S
C1806 H1794 0.954 . S
C1806 C1805 1.387 1_554 S
C1806 C1807 1.397 . S
C1807 H1795 0.950 . S
C1807 C1803 1.393 . S
C1807 C1806 1.397 . S
H1808 C1816 0.950 . S
H1809 C1821 0.950 . S
H1810 C1818 0.950 . S
H1811 C1820 0.950 . S
H1812 C1822 0.950 . S
H1813 C1824 0.950 . S
H1814 C1826 0.950 . S
H1815 C1827 0.950 . S
C1816 H1808 0.950 . S
C1816 C1817 1.386 . S
C1816 C1818 1.391 . S
C1817 C1816 1.386 . S
C1817 C1821 1.393 . S
C1818 H1810 0.950 . S
C1818 C1816 1.391 . S
C1818 C1819 1.400 . S
C1819 C1818 1.400 . S
C1819 C1820 1.398 . S
C1819 C1825 1.491 . S
C1820 H1811 0.950 . S
C1820 C1819 1.398 . S
C1820 C1821 1.391 . S
C1821 H1809 0.950 . S
C1821 C1817 1.393 . S
C1821 C1820 1.391 . S
C1822 H1812 0.950 . S
C1822 C1823 1.386 . S
C1822 C1824 1.391 . S
C1823 C1822 1.386 . S
C1823 C1827 1.393 . S
C1824 H1813 0.950 . S
C1824 C1822 1.391 . S
C1824 C1825 1.400 . S
C1825 C1819 1.491 . S
C1825 C1824 1.400 . S
C1825 C1826 1.398 . S
C1826 H1814 0.950 . S
C1826 C1825 1.398 . S
C1826 C1827 1.391 . S
C1827 H1815 0.950 . S
C1827 C1823 1.393 . S
C1827 C1826 1.391 . S
H1828 C1836 0.950 . S
H1829 C1841 0.950 . S
H1830 C1838 0.950 . S
H1831 C1840 0.950 . S
H1832 C1842 0.950 . S
H1833 C1844 0.950 . S
H1834 C1846 0.950 . S
H1835 C1847 0.950 . S
C1836 H1828 0.950 . S
C1836 C1837 1.386 . S
C1836 C1838 1.391 . S
C1837 C1836 1.386 . S
C1837 C1841 1.393 . S
C1838 H1830 0.950 . S
C1838 C1836 1.391 . S
C1838 C1839 1.400 . S
C1839 C1838 1.400 . S
C1839 C1840 1.398 . S
C1839 C1845 1.491 . S
C1840 H1831 0.950 . S
C1840 C1839 1.398 . S
C1840 C1841 1.391 . S
C1841 H1829 0.950 . S
C1841 C1837 1.393 . S
C1841 C1840 1.391 . S
C1842 H1832 0.950 . S
C1842 C1843 1.386 . S
C1842 C1844 1.391 . S
C1843 C1842 1.386 . S
C1843 C1847 1.393 . S
C1844 H1833 0.950 . S
C1844 C1842 1.391 . S
C1844 C1845 1.400 . S
C1845 C1839 1.491 . S
C1845 C1844 1.400 . S
C1845 C1846 1.398 . S
C1846 H1834 0.950 . S
C1846 C1845 1.398 . S
C1846 C1847 1.391 . S
C1847 H1835 0.950 . S
C1847 C1843 1.393 . S
C1847 C1846 1.391 . S
H1848 C1856 0.950 . S
H1849 C1861 0.950 . S
H1850 C1858 0.950 . S
H1851 C1860 0.950 . S
H1852 C1862 0.950 . S
H1853 C1864 0.950 . S
H1854 C1866 0.950 . S
H1855 C1867 0.950 . S
C1856 H1848 0.950 . S
C1856 C1857 1.386 . S
C1856 C1858 1.391 . S
C1857 C1856 1.386 . S
C1857 C1861 1.393 . S
C1858 H1850 0.950 . S
C1858 C1856 1.391 . S
C1858 C1859 1.400 . S
C1859 C1858 1.400 . S
C1859 C1860 1.398 . S
C1859 C1865 1.491 . S
C1860 H1851 0.950 . S
C1860 C1859 1.398 . S
C1860 C1861 1.391 . S
C1861 H1849 0.950 . S
C1861 C1857 1.393 . S
C1861 C1860 1.391 . S
C1862 H1852 0.950 . S
C1862 C1863 1.386 . S
C1862 C1864 1.391 . S
C1863 C1862 1.386 . S
C1863 C1867 1.393 . S
C1864 H1853 0.950 . S
C1864 C1862 1.391 . S
C1864 C1865 1.400 . S
C1865 C1859 1.491 . S
C1865 C1864 1.400 . S
C1865 C1866 1.398 . S
C1866 H1854 0.950 . S
C1866 C1865 1.398 . S
C1866 C1867 1.391 . S
C1867 H1855 0.950 . S
C1867 C1863 1.393 . S
C1867 C1866 1.391 . S
H1868 C1876 0.950 1_455 S
H1869 C1881 0.950 . S
H1870 C1878 0.950 . S
H1871 C1880 0.950 . S
H1872 C1882 0.950 . S
H1873 C1884 0.994 . S
H1874 C1886 0.950 . S
H1875 C1887 0.950 . S
C1876 H1868 0.950 1_655 S
C1876 C1877 1.386 . S
C1876 C1878 1.391 1_655 S
C1877 C1876 1.386 . S
C1877 C1881 1.393 . S
C1878 H1870 0.950 . S
C1878 C1876 1.391 1_455 S
C1878 C1879 1.400 1_455 S
C1879 C1878 1.400 1_655 S
C1879 C1880 1.398 . S
C1879 C1885 1.491 1_655 S
C1880 H1871 0.950 . S
C1880 C1879 1.398 . S
C1880 C1881 1.391 . S
C1881 H1869 0.950 . S
C1881 C1877 1.393 . S
C1881 C1880 1.391 . S
C1882 H1872 0.950 . S
C1882 C1883 1.386 . S
C1882 C1884 1.371 1_455 S
C1883 C1882 1.386 . S
C1883 C1887 1.393 . S
C1884 H1873 0.994 . S
C1884 C1882 1.371 1_655 S
C1884 C1885 1.379 1_655 S
C1885 C1879 1.491 1_455 S
C1885 C1884 1.379 1_455 S
C1885 C1886 1.398 . S
C1886 H1874 0.950 . S
C1886 C1885 1.398 . S
C1886 C1887 1.391 . S
C1887 H1875 0.950 . S
C1887 C1883 1.393 . S
C1887 C1886 1.391 . S
H1888 C1896 0.950 . S
H1889 C1901 0.901 1_565 S
H1890 C1898 0.950 . S
H1891 C1900 0.950 1_565 S
H1892 C1902 0.950 . S
H1893 C1904 0.950 1_565 S
H1894 C1906 0.950 . S
H1895 C1907 0.950 . S
C1896 H1888 0.950 . S
C1896 C1897 1.386 . S
C1896 C1898 1.391 . S
C1897 C1896 1.386 . S
C1897 C1901 1.433 . S
C1898 H1890 0.950 . S
C1898 C1896 1.391 . S
C1898 C1899 1.400 . S
C1899 C1898 1.400 . S
C1899 C1900 1.398 . S
C1899 C1905 1.491 . S
C1900 H1891 0.950 1_545 S
C1900 C1899 1.398 . S
C1900 C1901 1.401 . S
C1901 H1889 0.901 1_545 S
C1901 C1897 1.433 . S
C1901 C1900 1.401 . S
C1902 H1892 0.950 . S
C1902 C1903 1.386 . S
C1902 C1904 1.391 . S
C1903 C1902 1.386 . S
C1903 C1907 1.393 . S
C1904 H1893 0.950 1_545 S
C1904 C1902 1.391 . S
C1904 C1905 1.400 . S
C1905 C1899 1.491 . S
C1905 C1904 1.400 . S
C1905 C1906 1.398 . S
C1906 H1894 0.950 . S
C1906 C1905 1.398 . S
C1906 C1907 1.391 . S
C1907 H1895 0.950 . S
C1907 C1903 1.393 . S
C1907 C1906 1.391 . S
H1908 C1916 0.950 . S
H1909 C1921 0.950 . S
H1910 C1918 0.950 . S
H1911 C1920 0.950 . S
H1912 C1922 0.950 . S
H1913 C1924 0.950 . S
H1914 C1926 0.950 . S
H1915 C1927 0.950 . S
C1916 H1908 0.950 . S
C1916 C1917 1.386 . S
C1916 C1918 1.391 1_545 S
C1917 C1916 1.386 . S
C1917 C1921 1.393 1_545 S
C1918 H1910 0.950 . S
C1918 C1916 1.391 1_565 S
C1918 C1919 1.400 . S
C1919 C1918 1.400 . S
C1919 C1920 1.398 . S
C1919 C1925 1.491 . S
C1920 H1911 0.950 . S
C1920 C1919 1.398 . S
C1920 C1921 1.391 . S
C1921 H1909 0.950 . S
C1921 C1917 1.393 1_565 S
C1921 C1920 1.391 . S
C1922 H1912 0.950 . S
C1922 C1923 1.386 . S
C1922 C1924 1.391 . S
C1923 C1922 1.386 . S
C1923 C1927 1.393 . S
C1924 H1913 0.950 . S
C1924 C1922 1.391 . S
C1924 C1925 1.400 . S
C1925 C1919 1.491 . S
C1925 C1924 1.400 . S
C1925 C1926 1.398 . S
C1926 H1914 0.950 . S
C1926 C1925 1.398 . S
C1926 C1927 1.391 . S
C1927 H1915 0.950 . S
C1927 C1923 1.393 . S
C1927 C1926 1.391 . S
H1928 C1936 0.950 . S
H1929 C1941 0.950 . S
H1930 C1938 0.950 . S
H1931 C1940 0.950 . S
H1932 C1942 0.950 . S
H1933 C1944 0.950 . S
H1934 C1946 0.950 . S
H1935 C1947 0.950 . S
C1936 H1928 0.950 . S
C1936 C1937 1.386 . S
C1936 C1938 1.391 . S
C1937 C1936 1.386 . S
C1937 C1941 1.393 . S
C1938 H1930 0.950 . S
C1938 C1936 1.391 . S
C1938 C1939 1.400 . S
C1939 C1938 1.400 . S
C1939 C1940 1.398 . S
C1939 C1945 1.491 . S
C1940 H1931 0.950 . S
C1940 C1939 1.398 . S
C1940 C1941 1.391 . S
C1941 H1929 0.950 . S
C1941 C1937 1.393 . S
C1941 C1940 1.391 . S
C1942 H1932 0.950 . S
C1942 C1943 1.386 . S
C1942 C1944 1.391 . S
C1943 C1942 1.386 . S
C1943 C1947 1.393 . S
C1944 H1933 0.950 . S
C1944 C1942 1.391 . S
C1944 C1945 1.400 . S
C1945 C1939 1.491 . S
C1945 C1944 1.400 . S
C1945 C1946 1.398 . S
C1946 H1934 0.950 . S
C1946 C1945 1.398 . S
C1946 C1947 1.391 . S
C1947 H1935 0.950 . S
C1947 C1943 1.393 . S
C1947 C1946 1.391 . S
H1948 C1956 0.950 . S
H1949 C1961 0.950 . S
H1950 C1958 0.954 1_556 S
H1951 C1960 0.950 . S
H1952 C1962 0.950 1_554 S
H1953 C1964 0.950 . S
H1954 C1966 0.950 . S
H1955 C1967 0.950 . S
C1956 H1948 0.950 . S
C1956 C1957 1.386 . S
C1956 C1958 1.389 . S
C1957 C1956 1.386 . S
C1957 C1961 1.393 . S
C1958 H1950 0.954 1_554 S
C1958 C1956 1.389 . S
C1958 C1959 1.398 . S
C1959 C1958 1.398 . S
C1959 C1960 1.398 . S
C1959 C1965 1.491 1_554 S
C1960 H1951 0.950 . S
C1960 C1959 1.398 . S
C1960 C1961 1.391 . S
C1961 H1949 0.950 . S
C1961 C1957 1.393 . S
C1961 C1960 1.391 . S
C1962 H1952 0.950 1_556 S
C1962 C1963 1.386 . S
C1962 C1964 1.391 1_556 S
C1963 C1962 1.386 . S
C1963 C1967 1.393 . S
C1964 H1953 0.950 . S
C1964 C1962 1.391 1_554 S
C1964 C1965 1.400 1_554 S
C1965 C1959 1.491 1_556 S
C1965 C1964 1.400 1_556 S
C1965 C1966 1.398 . S
C1966 H1954 0.950 . S
C1966 C1965 1.398 . S
C1966 C1967 1.391 . S
C1967 H1955 0.950 . S
C1967 C1963 1.393 . S
C1967 C1966 1.391 . S
H1968 C1976 0.950 . S
H1969 C1981 0.950 1_556 S
H1970 C1978 0.950 . S
H1971 C1980 0.924 1_556 S
H1972 C1982 0.950 . S
H1973 C1984 0.950 . S
H1974 C1986 0.950 . S
H1975 C1987 0.950 . S
C1976 H1968 0.950 . S
C1976 C1977 1.386 . S
C1976 C1978 1.391 . S
C1977 C1976 1.386 . S
C1977 C1981 1.393 . S
C1978 H1970 0.950 . S
C1978 C1976 1.391 . S
C1978 C1979 1.400 . S
C1979 C1978 1.400 . S
C1979 C1980 1.398 . S
C1979 C1985 1.491 . S
C1980 H1971 0.924 1_554 S
C1980 C1979 1.398 . S
C1980 C1981 1.391 . S
C1981 H1969 0.950 1_554 S
C1981 C1977 1.393 . S
C1981 C1980 1.391 . S
C1982 H1972 0.950 . S
C1982 C1983 1.386 . S
C1982 C1984 1.391 . S
C1983 C1982 1.386 . S
C1983 C1987 1.393 . S
C1984 H1973 0.950 . S
C1984 C1982 1.391 . S
C1984 C1985 1.400 . S
C1985 C1979 1.491 . S
C1985 C1984 1.400 . S
C1985 C1986 1.398 . S
C1986 H1974 0.950 . S
C1986 C1985 1.398 . S
C1986 C1987 1.391 . S
C1987 H1975 0.950 . S
C1987 C1983 1.393 . S
C1987 C1986 1.391 . S
H1988 C1996 0.950 . S
H1989 C2001 0.950 . S
H1990 C1998 0.950 . S
H1991 C2000 0.950 . S
H1992 C2002 0.950 . S
H1993 C2004 0.950 . S
H1994 C2006 0.950 . S
H1995 C2007 0.950 . S
C1996 H1988 0.950 . S
C1996 C1997 1.386 . S
C1996 C1998 1.391 . S
C1997 C1996 1.386 . S
C1997 C2001 1.393 . S
C1998 H1990 0.950 . S
C1998 C1996 1.391 . S
C1998 C1999 1.400 . S
C1999 C1998 1.400 . S
C1999 C2000 1.398 . S
C1999 C2005 1.491 . S
C2000 H1991 0.950 . S
C2000 C1999 1.398 . S
C2000 C2001 1.391 . S
C2001 H1989 0.950 . S
C2001 C1997 1.393 . S
C2001 C2000 1.391 . S
C2002 H1992 0.950 . S
C2002 C2003 1.386 . S
C2002 C2004 1.391 . S
C2003 C2002 1.386 . S
C2003 C2007 1.393 . S
C2004 H1993 0.950 . S
C2004 C2002 1.391 . S
C2004 C2005 1.400 . S
C2005 C1999 1.491 . S
C2005 C2004 1.400 . S
C2005 C2006 1.398 . S
C2006 H1994 0.950 . S
C2006 C2005 1.398 . S
C2006 C2007 1.391 . S
C2007 H1995 0.950 . S
C2007 C2003 1.393 . S
C2007 C2006 1.391 . S
H2008 C2016 0.950 . S
H2009 C2021 0.950 . S
H2010 C2018 0.950 . S
H2011 C2020 0.950 . S
H2012 C2022 0.950 . S
H2013 C2024 0.957 . S
H2014 C2026 0.950 . S
H2015 C2027 0.950 . S
C2016 H2008 0.950 . S
C2016 C2017 1.386 . S
C2016 C2018 1.391 . S
C2017 C2016 1.386 . S
C2017 C2021 1.393 . S
C2018 H2010 0.950 . S
C2018 C2016 1.391 . S
C2018 C2019 1.400 . S
C2019 C2018 1.400 . S
C2019 C2020 1.398 . S
C2019 C2025 1.491 . S
C2020 H2011 0.950 . S
C2020 C2019 1.398 . S
C2020 C2021 1.391 . S
C2021 H2009 0.950 . S
C2021 C2017 1.393 . S
C2021 C2020 1.391 . S
C2022 H2012 0.950 . S
C2022 C2023 1.386 . S
C2022 C2024 1.402 . S
C2023 C2022 1.386 . S
C2023 C2027 1.393 1_455 S
C2024 H2013 0.957 . S
C2024 C2022 1.402 . S
C2024 C2025 1.383 1_455 S
C2025 C2019 1.491 . S
C2025 C2024 1.383 1_655 S
C2025 C2026 1.398 . S
C2026 H2014 0.950 . S
C2026 C2025 1.398 . S
C2026 C2027 1.391 . S
C2027 H2015 0.950 . S
C2027 C2023 1.393 1_655 S
C2027 C2026 1.391 . S
H2028 C2036 0.950 . S
H2029 C2041 0.950 . S
H2030 C2038 0.950 . S
H2031 C2040 0.950 . S
H2032 C2042 0.950 . S
H2033 C2044 0.950 . S
H2034 C2046 0.950 . S
H2035 C2047 0.950 . S
C2036 H2028 0.950 . S
C2036 C2037 1.386 . S
C2036 C2038 1.391 . S
C2037 C2036 1.386 . S
C2037 C2041 1.393 . S
C2038 H2030 0.950 . S
C2038 C2036 1.391 . S
C2038 C2039 1.400 . S
C2039 C2038 1.400 . S
C2039 C2040 1.398 . S
C2039 C2045 1.491 . S
C2040 H2031 0.950 . S
C2040 C2039 1.398 . S
C2040 C2041 1.391 . S
C2041 H2029 0.950 . S
C2041 C2037 1.393 . S
C2041 C2040 1.391 . S
C2042 H2032 0.950 . S
C2042 C2043 1.386 . S
C2042 C2044 1.391 . S
C2043 C2042 1.386 . S
C2043 C2047 1.393 . S
C2044 H2033 0.950 . S
C2044 C2042 1.391 . S
C2044 C2045 1.400 . S
C2045 C2039 1.491 . S
C2045 C2044 1.400 . S
C2045 C2046 1.398 . S
C2046 H2034 0.950 . S
C2046 C2045 1.398 . S
C2046 C2047 1.391 . S
C2047 H2035 0.950 . S
C2047 C2043 1.393 . S
C2047 C2046 1.391 . S
H2048 C2056 0.950 . S
H2049 C2061 0.950 . S
H2050 C2058 0.950 . S
H2051 C2060 0.950 1_565 S
H2052 C2062 0.950 . S
H2053 C2064 0.950 . S
H2054 C2066 0.981 . S
H2055 C2067 0.950 . S
C2056 H2048 0.950 . S
C2056 C2057 1.386 . S
C2056 C2058 1.391 . S
C2057 C2056 1.386 . S
C2057 C2061 1.393 . S
C2058 H2050 0.950 . S
C2058 C2056 1.391 . S
C2058 C2059 1.400 . S
C2059 C2058 1.400 . S
C2059 C2060 1.398 . S
C2059 C2065 1.462 1_545 S
C2060 H2051 0.950 1_545 S
C2060 C2059 1.398 . S
C2060 C2061 1.391 . S
C2061 H2049 0.950 . S
C2061 C2057 1.393 . S
C2061 C2060 1.391 . S
C2062 H2052 0.950 . S
C2062 C2063 1.386 . S
C2062 C2064 1.391 . S
C2063 C2062 1.386 . S
C2063 C2067 1.393 . S
C2064 H2053 0.950 . S
C2064 C2062 1.391 . S
C2064 C2065 1.439 . S
C2065 C2059 1.462 1_565 S
C2065 C2064 1.439 . S
C2065 C2066 1.391 1_565 S
C2066 H2054 0.981 . S
C2066 C2065 1.391 1_545 S
C2066 C2067 1.368 1_545 S
C2067 H2055 0.950 . S
C2067 C2063 1.393 . S
C2067 C2066 1.368 1_565 S
H2068 C2076 0.950 . S
H2069 C2081 0.950 . S
H2070 C2078 0.950 . S
H2071 C2080 0.950 . S
H2072 C2082 0.950 . S
H2073 C2084 0.950 . S
H2074 C2086 0.950 . S
H2075 C2087 0.950 . S
C2076 H2068 0.950 . S
C2076 C2077 1.386 . S
C2076 C2078 1.391 . S
C2077 C2076 1.386 . S
C2077 C2081 1.393 . S
C2078 H2070 0.950 . S
C2078 C2076 1.391 . S
C2078 C2079 1.400 . S
C2079 C2078 1.400 . S
C2079 C2080 1.398 . S
C2079 C2085 1.491 . S
C2080 H2071 0.950 . S
C2080 C2079 1.398 . S
C2080 C2081 1.391 . S
C2081 H2069 0.950 . S
C2081 C2077 1.393 . S
C2081 C2080 1.391 . S
C2082 H2072 0.950 . S
C2082 C2083 1.386 . S
C2082 C2084 1.391 . S
C2083 C2082 1.386 . S
C2083 C2087 1.393 . S
C2084 H2073 0.950 . S
C2084 C2082 1.391 . S
C2084 C2085 1.400 . S
C2085 C2079 1.491 . S
C2085 C2084 1.400 . S
C2085 C2086 1.398 . S
C2086 H2074 0.950 . S
C2086 C2085 1.398 . S
C2086 C2087 1.391 . S
C2087 H2075 0.950 . S
C2087 C2083 1.393 . S
C2087 C2086 1.391 . S
H2088 C2096 0.950 . S
H2089 C2101 0.950 . S
H2090 C2098 0.950 . S
H2091 C2100 0.950 . S
H2092 C2102 0.950 . S
H2093 C2104 0.950 . S
H2094 C2106 0.950 . S
H2095 C2107 0.950 . S
C2096 H2088 0.950 . S
C2096 C2097 1.386 . S
C2096 C2098 1.391 . S
C2097 C2096 1.386 . S
C2097 C2101 1.393 . S
C2098 H2090 0.950 . S
C2098 C2096 1.391 . S
C2098 C2099 1.400 . S
C2099 C2098 1.400 . S
C2099 C2100 1.398 . S
C2099 C2105 1.491 . S
C2100 H2091 0.950 . S
C2100 C2099 1.398 . S
C2100 C2101 1.391 . S
C2101 H2089 0.950 . S
C2101 C2097 1.393 . S
C2101 C2100 1.391 . S
C2102 H2092 0.950 . S
C2102 C2103 1.386 . S
C2102 C2104 1.391 . S
C2103 C2102 1.386 . S
C2103 C2107 1.393 . S
C2104 H2093 0.950 . S
C2104 C2102 1.391 . S
C2104 C2105 1.400 . S
C2105 C2099 1.491 . S
C2105 C2104 1.400 . S
C2105 C2106 1.398 . S
C2106 H2094 0.950 . S
C2106 C2105 1.398 . S
C2106 C2107 1.391 . S
C2107 H2095 0.950 . S
C2107 C2103 1.393 . S
C2107 C2106 1.391 . S
H2108 C2116 0.950 . S
H2109 C2121 0.950 . S
H2110 C2118 0.950 . S
H2111 C2120 0.950 . S
H2112 C2122 0.950 . S
H2113 C2124 0.950 . S
H2114 C2126 0.950 . S
H2115 C2127 0.950 . S
C2116 H2108 0.950 . S
C2116 C2117 1.386 . S
C2116 C2118 1.391 . S
C2117 C2116 1.386 . S
C2117 C2121 1.393 . S
C2118 H2110 0.950 . S
C2118 C2116 1.391 . S
C2118 C2119 1.400 . S
C2119 C2118 1.400 . S
C2119 C2120 1.398 . S
C2119 C2125 1.491 . S
C2120 H2111 0.950 . S
C2120 C2119 1.398 . S
C2120 C2121 1.391 . S
C2121 H2109 0.950 . S
C2121 C2117 1.393 . S
C2121 C2120 1.391 . S
C2122 H2112 0.950 . S
C2122 C2123 1.386 . S
C2122 C2124 1.391 . S
C2123 C2122 1.386 . S
C2123 C2127 1.393 . S
C2124 H2113 0.950 . S
C2124 C2122 1.391 . S
C2124 C2125 1.400 . S
C2125 C2119 1.491 . S
C2125 C2124 1.400 . S
C2125 C2126 1.398 . S
C2126 H2114 0.950 . S
C2126 C2125 1.398 . S
C2126 C2127 1.391 . S
C2127 H2115 0.950 . S
C2127 C2123 1.393 . S
C2127 C2126 1.391 . S
H2128 C2136 0.950 . S
H2129 C2141 0.950 . S
H2130 C2138 0.930 1_554 S
H2131 C2140 0.950 . S
H2132 C2142 0.950 . S
H2133 C2144 0.950 . S
H2134 C2146 0.950 . S
H2135 C2147 0.950 . S
C2136 H2128 0.950 . S
C2136 C2137 1.386 . S
C2136 C2138 1.417 . S
C2137 C2136 1.386 . S
C2137 C2141 1.393 . S
C2138 H2130 0.930 1_556 S
C2138 C2136 1.417 . S
C2138 C2139 1.394 1_556 S
C2139 C2138 1.394 1_554 S
C2139 C2140 1.398 1_554 S
C2139 C2145 1.491 . S
C2140 H2131 0.950 . S
C2140 C2139 1.398 1_556 S
C2140 C2141 1.391 . S
C2141 H2129 0.950 . S
C2141 C2137 1.393 . S
C2141 C2140 1.391 . S
C2142 H2132 0.950 . S
C2142 C2143 1.386 . S
C2142 C2144 1.391 . S
C2143 C2142 1.386 . S
C2143 C2147 1.393 . S
C2144 H2133 0.950 . S
C2144 C2142 1.391 . S
C2144 C2145 1.400 . S
C2145 C2139 1.491 . S
C2145 C2144 1.400 . S
C2145 C2146 1.398 . S
C2146 H2134 0.950 . S
C2146 C2145 1.398 . S
C2146 C2147 1.391 . S
C2147 H2135 0.950 . S
C2147 C2143 1.393 . S
C2147 C2146 1.391 . S
H2148 C2156 0.950 . S
H2149 C2161 0.950 . S
H2150 C2158 0.950 . S
H2151 C2160 0.950 . S
H2152 C2162 0.950 . S
H2153 C2164 0.950 . S
H2154 C2166 0.950 . S
H2155 C2167 0.950 . S
C2156 H2148 0.950 . S
C2156 C2157 1.386 . S
C2156 C2158 1.391 . S
C2157 C2156 1.386 . S
C2157 C2161 1.393 . S
C2158 H2150 0.950 . S
C2158 C2156 1.391 . S
C2158 C2159 1.400 . S
C2159 C2158 1.400 . S
C2159 C2160 1.398 . S
C2159 C2165 1.491 . S
C2160 H2151 0.950 . S
C2160 C2159 1.398 . S
C2160 C2161 1.391 . S
C2161 H2149 0.950 . S
C2161 C2157 1.393 . S
C2161 C2160 1.391 . S
C2162 H2152 0.950 . S
C2162 C2163 1.386 . S
C2162 C2164 1.391 . S
C2163 C2162 1.386 . S
C2163 C2167 1.393 . S
C2164 H2153 0.950 . S
C2164 C2162 1.391 . S
C2164 C2165 1.400 . S
C2165 C2159 1.491 . S
C2165 C2164 1.400 . S
C2165 C2166 1.398 . S
C2166 H2154 0.950 . S
C2166 C2165 1.398 . S
C2166 C2167 1.391 . S
C2167 H2155 0.950 . S
C2167 C2163 1.393 . S
C2167 C2166 1.391 . S
H2168 C2176 0.950 . S
H2169 C2181 0.950 . S
H2170 C2178 0.950 . S
H2171 C2180 0.950 . S
H2172 C2182 0.950 . S
H2173 C2184 0.950 . S
H2174 C2186 0.950 . S
H2175 C2187 0.950 . S
C2176 H2168 0.950 . S
C2176 C2177 1.386 . S
C2176 C2178 1.391 . S
C2177 C2176 1.386 . S
C2177 C2181 1.393 . S
C2178 H2170 0.950 . S
C2178 C2176 1.391 . S
C2178 C2179 1.400 . S
C2179 C2178 1.400 . S
C2179 C2180 1.398 . S
C2179 C2185 1.491 . S
C2180 H2171 0.950 . S
C2180 C2179 1.398 . S
C2180 C2181 1.391 . S
C2181 H2169 0.950 . S
C2181 C2177 1.393 . S
C2181 C2180 1.391 . S
C2182 H2172 0.950 . S
C2182 C2183 1.386 . S
C2182 C2184 1.391 . S
C2183 C2182 1.386 . S
C2183 C2187 1.393 . S
C2184 H2173 0.950 . S
C2184 C2182 1.391 . S
C2184 C2185 1.400 . S
C2185 C2179 1.491 . S
C2185 C2184 1.400 . S
C2185 C2186 1.398 . S
C2186 H2174 0.950 . S
C2186 C2185 1.398 . S
C2186 C2187 1.391 . S
C2187 H2175 0.950 . S
C2187 C2183 1.393 . S
C2187 C2186 1.391 . S
H2188 C2196 0.950 . S
H2189 C2201 0.950 . S
H2190 C2198 0.950 . S
H2191 C2200 0.950 . S
H2192 C2202 0.950 . S
H2193 C2204 0.950 1_545 S
H2194 C2206 0.978 . S
H2195 C2207 0.950 . S
C2196 H2188 0.950 . S
C2196 C2197 1.386 . S
C2196 C2198 1.391 . S
C2197 C2196 1.386 . S
C2197 C2201 1.393 . S
C2198 H2190 0.950 . S
C2198 C2196 1.391 . S
C2198 C2199 1.400 . S
C2199 C2198 1.400 . S
C2199 C2200 1.398 . S
C2199 C2205 1.491 . S
C2200 H2191 0.950 . S
C2200 C2199 1.398 . S
C2200 C2201 1.391 . S
C2201 H2189 0.950 . S
C2201 C2197 1.393 . S
C2201 C2200 1.391 . S
C2202 H2192 0.950 . S
C2202 C2203 1.386 . S
C2202 C2204 1.391 . S
C2203 C2202 1.386 . S
C2203 C2207 1.393 . S
C2204 H2193 0.950 1_565 S
C2204 C2202 1.391 . S
C2204 C2205 1.400 1_565 S
C2205 C2199 1.491 . S
C2205 C2204 1.400 1_545 S
C2205 C2206 1.398 1_545 S
C2206 H2194 0.978 . S
C2206 C2205 1.398 1_565 S
C2206 C2207 1.391 . S
C2207 H2195 0.950 . S
C2207 C2203 1.393 . S
C2207 C2206 1.391 . S
H2208 C2216 0.950 1_655 S
H2209 C2221 0.950 . S
H2210 C2218 0.950 . S
H2211 C2220 0.950 . S
H2212 C2222 0.959 . S
H2213 C2224 0.950 . S
H2214 C2226 0.950 . S
H2215 C2227 0.950 . S
C2216 H2208 0.950 1_455 S
C2216 C2217 1.386 . S
C2216 C2218 1.391 1_455 S
C2217 C2216 1.386 . S
C2217 C2221 1.393 . S
C2218 H2210 0.950 . S
C2218 C2216 1.391 1_655 S
C2218 C2219 1.400 1_655 S
C2219 C2218 1.400 1_455 S
C2219 C2220 1.398 . S
C2219 C2225 1.491 1_455 S
C2220 H2211 0.950 . S
C2220 C2219 1.398 . S
C2220 C2221 1.391 . S
C2221 H2209 0.950 . S
C2221 C2217 1.393 . S
C2221 C2220 1.391 . S
C2222 H2212 0.959 . S
C2222 C2223 1.386 . S
C2222 C2224 1.391 1_655 S
C2223 C2222 1.386 . S
C2223 C2227 1.393 . S
C2224 H2213 0.950 . S
C2224 C2222 1.391 1_455 S
C2224 C2225 1.400 1_455 S
C2225 C2219 1.491 1_655 S
C2225 C2224 1.400 1_655 S
C2225 C2226 1.398 . S
C2226 H2214 0.950 . S
C2226 C2225 1.398 . S
C2226 C2227 1.391 . S
C2227 H2215 0.950 . S
C2227 C2223 1.393 . S
C2227 C2226 1.391 . S
H2228 C2236 0.950 . S
H2229 C2241 0.950 1_455 S
H2230 C2238 0.950 . S
H2231 C2240 0.950 . S
H2232 C2242 0.950 . S
H2233 C2244 0.950 . S
H2234 C2246 0.950 . S
H2235 C2247 0.950 . S
C2236 H2228 0.950 . S
C2236 C2237 1.386 . S
C2236 C2238 1.391 . S
C2237 C2236 1.386 . S
C2237 C2241 1.393 . S
C2238 H2230 0.950 . S
C2238 C2236 1.391 . S
C2238 C2239 1.400 . S
C2239 C2238 1.400 . S
C2239 C2240 1.398 . S
C2239 C2245 1.491 . S
C2240 H2231 0.950 . S
C2240 C2239 1.398 . S
C2240 C2241 1.391 . S
C2241 H2229 0.950 1_655 S
C2241 C2237 1.393 . S
C2241 C2240 1.391 . S
C2242 H2232 0.950 . S
C2242 C2243 1.386 . S
C2242 C2244 1.391 . S
C2243 C2242 1.386 . S
C2243 C2247 1.393 . S
C2244 H2233 0.950 . S
C2244 C2242 1.391 . S
C2244 C2245 1.400 . S
C2245 C2239 1.491 . S
C2245 C2244 1.400 . S
C2245 C2246 1.398 . S
C2246 H2234 0.950 . S
C2246 C2245 1.398 . S
C2246 C2247 1.391 . S
C2247 H2235 0.950 . S
C2247 C2243 1.393 . S
C2247 C2246 1.391 . S
H2248 C2256 0.950 . S
H2249 C2261 0.950 . S
H2250 C2258 0.950 . S
H2251 C2260 0.950 . S
H2252 C2262 0.950 . S
H2253 C2264 0.950 . S
H2254 C2266 0.950 . S
H2255 C2267 0.950 . S
C2256 H2248 0.950 . S
C2256 C2257 1.386 . S
C2256 C2258 1.391 . S
C2257 C2256 1.386 . S
C2257 C2261 1.393 . S
C2258 H2250 0.950 . S
C2258 C2256 1.391 . S
C2258 C2259 1.400 . S
C2259 C2258 1.400 . S
C2259 C2260 1.398 . S
C2259 C2265 1.491 . S
C2260 H2251 0.950 . S
C2260 C2259 1.398 . S
C2260 C2261 1.391 . S
C2261 H2249 0.950 . S
C2261 C2257 1.393 . S
C2261 C2260 1.391 . S
C2262 H2252 0.950 . S
C2262 C2263 1.386 . S
C2262 C2264 1.391 . S
C2263 C2262 1.386 . S
C2263 C2267 1.393 . S
C2264 H2253 0.950 . S
C2264 C2262 1.391 . S
C2264 C2265 1.400 . S
C2265 C2259 1.491 . S
C2265 C2264 1.400 . S
C2265 C2266 1.398 . S
C2266 H2254 0.950 . S
C2266 C2265 1.398 . S
C2266 C2267 1.391 . S
C2267 H2255 0.950 . S
C2267 C2263 1.393 . S
C2267 C2266 1.391 . S
H2268 C2276 0.950 . S
H2269 C2281 0.950 . S
H2270 C2278 0.950 . S
H2271 C2280 0.950 . S
H2272 C2282 0.950 . S
H2273 C2284 0.950 . S
H2274 C2286 0.950 . S
H2275 C2287 0.950 . S
C2276 H2268 0.950 . S
C2276 C2277 1.386 . S
C2276 C2278 1.391 . S
C2277 C2276 1.386 . S
C2277 C2281 1.393 . S
C2278 H2270 0.950 . S
C2278 C2276 1.391 . S
C2278 C2279 1.400 . S
C2279 C2278 1.400 . S
C2279 C2280 1.398 . S
C2279 C2285 1.491 . S
C2280 H2271 0.950 . S
C2280 C2279 1.398 . S
C2280 C2281 1.391 . S
C2281 H2269 0.950 . S
C2281 C2277 1.393 . S
C2281 C2280 1.391 . S
C2282 H2272 0.950 . S
C2282 C2283 1.386 . S
C2282 C2284 1.391 . S
C2283 C2282 1.386 . S
C2283 C2287 1.393 . S
C2284 H2273 0.950 . S
C2284 C2282 1.391 . S
C2284 C2285 1.400 . S
C2285 C2279 1.491 . S
C2285 C2284 1.400 . S
C2285 C2286 1.398 . S
C2286 H2274 0.950 . S
C2286 C2285 1.398 . S
C2286 C2287 1.391 . S
C2287 H2275 0.950 . S
C2287 C2283 1.393 . S
C2287 C2286 1.391 . S
H2288 C2296 0.950 . S
H2289 C2301 0.940 1_545 S
H2290 C2298 0.950 . S
H2291 C2300 0.950 . S
H2292 C2302 0.950 . S
H2293 C2304 0.950 . S
H2294 C2306 0.950 . S
H2295 C2307 0.912 1_565 S
C2296 H2288 0.950 . S
C2296 C2297 1.386 . S
C2296 C2298 1.391 . S
C2297 C2296 1.386 . S
C2297 C2301 1.393 . S
C2298 H2290 0.950 . S
C2298 C2296 1.391 . S
C2298 C2299 1.400 . S
C2299 C2298 1.400 . S
C2299 C2300 1.398 1_565 S
C2299 C2305 1.491 1_565 S
C2300 H2291 0.950 . S
C2300 C2299 1.398 1_545 S
C2300 C2301 1.391 1_545 S
C2301 H2289 0.940 1_565 S
C2301 C2297 1.393 . S
C2301 C2300 1.391 1_565 S
C2302 H2292 0.950 . S
C2302 C2303 1.386 . S
C2302 C2304 1.391 . S
C2303 C2302 1.386 . S
C2303 C2307 1.469 . S
C2304 H2293 0.950 . S
C2304 C2302 1.391 . S
C2304 C2305 1.400 . S
C2305 C2299 1.491 1_545 S
C2305 C2304 1.400 . S
C2305 C2306 1.398 1_545 S
C2306 H2294 0.950 . S
C2306 C2305 1.398 1_565 S
C2306 C2307 1.357 1_565 S
C2307 H2295 0.912 1_545 S
C2307 C2303 1.469 . S
C2307 C2306 1.357 1_545 S
H2308 C2316 0.950 . S
H2309 C2321 0.950 . S
H2310 C2318 0.950 . S
H2311 C2320 0.950 . S
H2312 C2322 0.950 . S
H2313 C2324 0.950 . S
H2314 C2326 0.950 . S
H2315 C2327 0.950 . S
C2316 H2308 0.950 . S
C2316 C2317 1.386 . S
C2316 C2318 1.391 . S
C2317 C2316 1.386 . S
C2317 C2321 1.393 . S
C2318 H2310 0.950 . S
C2318 C2316 1.391 . S
C2318 C2319 1.400 . S
C2319 C2318 1.400 . S
C2319 C2320 1.398 . S
C2319 C2325 1.491 . S
C2320 H2311 0.950 . S
C2320 C2319 1.398 . S
C2320 C2321 1.391 . S
C2321 H2309 0.950 . S
C2321 C2317 1.393 . S
C2321 C2320 1.391 . S
C2322 H2312 0.950 . S
C2322 C2323 1.386 . S
C2322 C2324 1.391 . S
C2323 C2322 1.386 . S
C2323 C2327 1.393 . S
C2324 H2313 0.950 . S
C2324 C2322 1.391 . S
C2324 C2325 1.400 . S
C2325 C2319 1.491 . S
C2325 C2324 1.400 . S
C2325 C2326 1.398 . S
C2326 H2314 0.950 . S
C2326 C2325 1.398 . S
C2326 C2327 1.391 . S
C2327 H2315 0.950 . S
C2327 C2323 1.393 . S
C2327 C2326 1.391 . S
H2328 C2336 0.950 . S
H2329 C2341 0.950 . S
H2330 C2338 0.950 . S
H2331 C2340 0.950 . S
H2332 C2342 0.950 . S
H2333 C2344 0.950 . S
H2334 C2346 0.950 . S
H2335 C2347 0.950 . S
C2336 H2328 0.950 . S
C2336 C2337 1.386 . S
C2336 C2338 1.391 . S
C2337 C2336 1.386 . S
C2337 C2341 1.393 . S
C2338 H2330 0.950 . S
C2338 C2336 1.391 . S
C2338 C2339 1.400 . S
C2339 C2338 1.400 . S
C2339 C2340 1.398 . S
C2339 C2345 1.491 . S
C2340 H2331 0.950 . S
C2340 C2339 1.398 . S
C2340 C2341 1.391 . S
C2341 H2329 0.950 . S
C2341 C2337 1.393 . S
C2341 C2340 1.391 . S
C2342 H2332 0.950 . S
C2342 C2343 1.386 . S
C2342 C2344 1.391 . S
C2343 C2342 1.386 . S
C2343 C2347 1.393 . S
C2344 H2333 0.950 . S
C2344 C2342 1.391 . S
C2344 C2345 1.400 . S
C2345 C2339 1.491 . S
C2345 C2344 1.400 . S
C2345 C2346 1.398 . S
C2346 H2334 0.950 . S
C2346 C2345 1.398 . S
C2346 C2347 1.391 . S
C2347 H2335 0.950 . S
C2347 C2343 1.393 . S
C2347 C2346 1.391 . S
H2348 C2356 0.950 . S
H2349 C2361 0.950 . S
H2350 C2358 0.950 . S
H2351 C2360 0.950 . S
H2352 C2362 0.950 . S
H2353 C2364 0.950 . S
H2354 C2366 0.950 . S
H2355 C2367 0.950 1_556 S
C2356 H2348 0.950 . S
C2356 C2357 1.386 . S
C2356 C2358 1.391 . S
C2357 C2356 1.386 . S
C2357 C2361 1.393 . S
C2358 H2350 0.950 . S
C2358 C2356 1.391 . S
C2358 C2359 1.400 . S
C2359 C2358 1.400 . S
C2359 C2360 1.398 . S
C2359 C2365 1.491 . S
C2360 H2351 0.950 . S
C2360 C2359 1.398 . S
C2360 C2361 1.391 . S
C2361 H2349 0.950 . S
C2361 C2357 1.393 . S
C2361 C2360 1.391 . S
C2362 H2352 0.950 . S
C2362 C2363 1.386 . S
C2362 C2364 1.391 . S
C2363 C2362 1.386 . S
C2363 C2367 1.393 . S
C2364 H2353 0.950 . S
C2364 C2362 1.391 . S
C2364 C2365 1.400 . S
C2365 C2359 1.491 . S
C2365 C2364 1.400 . S
C2365 C2366 1.398 . S
C2366 H2354 0.950 . S
C2366 C2365 1.398 . S
C2366 C2367 1.391 . S
C2367 H2355 0.950 1_554 S
C2367 C2363 1.393 . S
C2367 C2366 1.391 . S
H2368 C2376 0.950 . S
H2369 C2381 0.950 . S
H2370 C2378 0.950 . S
H2371 C2380 0.950 . S
H2372 C2382 0.950 . S
H2373 C2384 0.950 . S
H2374 C2386 0.950 . S
H2375 C2387 0.950 . S
C2376 H2368 0.950 . S
C2376 C2377 1.386 . S
C2376 C2378 1.391 . S
C2377 C2376 1.386 . S
C2377 C2381 1.393 . S
C2378 H2370 0.950 . S
C2378 C2376 1.391 . S
C2378 C2379 1.400 . S
C2379 C2378 1.400 . S
C2379 C2380 1.398 . S
C2379 C2385 1.491 . S
C2380 H2371 0.950 . S
C2380 C2379 1.398 . S
C2380 C2381 1.391 . S
C2381 H2369 0.950 . S
C2381 C2377 1.393 . S
C2381 C2380 1.391 . S
C2382 H2372 0.950 . S
C2382 C2383 1.386 . S
C2382 C2384 1.391 . S
C2383 C2382 1.386 . S
C2383 C2387 1.393 . S
C2384 H2373 0.950 . S
C2384 C2382 1.391 . S
C2384 C2385 1.400 . S
C2385 C2379 1.491 . S
C2385 C2384 1.400 . S
C2385 C2386 1.398 . S
C2386 H2374 0.950 . S
C2386 C2385 1.398 . S
C2386 C2387 1.391 . S
C2387 H2375 0.950 . S
C2387 C2383 1.393 . S
C2387 C2386 1.391 . S
H2388 C2396 0.950 . S
H2389 C2401 0.950 . S
H2390 C2398 0.950 . S
H2391 C2400 0.950 . S
H2392 C2402 0.950 . S
H2393 C2404 0.950 . S
H2394 C2406 0.950 . S
H2395 C2407 0.950 . S
C2396 H2388 0.950 . S
C2396 C2397 1.386 . S
C2396 C2398 1.391 . S
C2397 C2396 1.386 . S
C2397 C2401 1.393 . S
C2398 H2390 0.950 . S
C2398 C2396 1.391 . S
C2398 C2399 1.400 . S
C2399 C2398 1.400 . S
C2399 C2400 1.398 . S
C2399 C2405 1.491 . S
C2400 H2391 0.950 . S
C2400 C2399 1.398 . S
C2400 C2401 1.391 . S
C2401 H2389 0.950 . S
C2401 C2397 1.393 . S
C2401 C2400 1.391 . S
C2402 H2392 0.950 . S
C2402 C2403 1.386 . S
C2402 C2404 1.391 . S
C2403 C2402 1.386 . S
C2403 C2407 1.393 . S
C2404 H2393 0.950 . S
C2404 C2402 1.391 . S
C2404 C2405 1.400 . S
C2405 C2399 1.491 . S
C2405 C2404 1.400 . S
C2405 C2406 1.398 . S
C2406 H2394 0.950 . S
C2406 C2405 1.398 . S
C2406 C2407 1.391 . S
C2407 H2395 0.950 . S
C2407 C2403 1.393 . S
C2407 C2406 1.391 . S
H2408 C2416 0.950 1_545 S
H2409 C2421 0.950 . S
H2410 C2418 0.950 . S
H2411 C2420 0.950 . S
H2412 C2422 0.950 . S
H2413 C2424 0.950 . S
H2414 C2426 0.950 . S
H2415 C2427 0.950 . S
C2416 H2408 0.950 1_565 S
C2416 C2417 1.386 . S
C2416 C2418 1.391 . S
C2417 C2416 1.386 . S
C2417 C2421 1.393 . S
C2418 H2410 0.950 . S
C2418 C2416 1.391 . S
C2418 C2419 1.400 . S
C2419 C2418 1.400 . S
C2419 C2420 1.398 . S
C2419 C2425 1.491 . S
C2420 H2411 0.950 . S
C2420 C2419 1.398 . S
C2420 C2421 1.391 . S
C2421 H2409 0.950 . S
C2421 C2417 1.393 . S
C2421 C2420 1.391 . S
C2422 H2412 0.950 . S
C2422 C2423 1.386 . S
C2422 C2424 1.391 . S
C2423 C2422 1.386 . S
C2423 C2427 1.393 . S
C2424 H2413 0.950 . S
C2424 C2422 1.391 . S
C2424 C2425 1.400 . S
C2425 C2419 1.491 . S
C2425 C2424 1.400 . S
C2425 C2426 1.398 . S
C2426 H2414 0.950 . S
C2426 C2425 1.398 . S
C2426 C2427 1.391 . S
C2427 H2415 0.950 . S
C2427 C2423 1.393 . S
C2427 C2426 1.391 . S
H2428 C2436 0.950 . S
H2429 C2441 0.950 . S
H2430 C2438 0.950 . S
H2431 C2440 0.950 . S
H2432 C2442 0.950 . S
H2433 C2444 0.950 . S
H2434 C2446 0.950 . S
H2435 C2447 0.950 . S
C2436 H2428 0.950 . S
C2436 C2437 1.386 . S
C2436 C2438 1.391 . S
C2437 C2436 1.386 . S
C2437 C2441 1.393 . S
C2438 H2430 0.950 . S
C2438 C2436 1.391 . S
C2438 C2439 1.400 . S
C2439 C2438 1.400 . S
C2439 C2440 1.398 . S
C2439 C2445 1.491 1_556 S
C2440 H2431 0.950 . S
C2440 C2439 1.398 . S
C2440 C2441 1.391 . S
C2441 H2429 0.950 . S
C2441 C2437 1.393 . S
C2441 C2440 1.391 . S
C2442 H2432 0.950 . S
C2442 C2443 1.386 . S
C2442 C2444 1.391 . S
C2443 C2442 1.386 . S
C2443 C2447 1.393 . S
C2444 H2433 0.950 . S
C2444 C2442 1.391 . S
C2444 C2445 1.400 . S
C2445 C2439 1.491 1_554 S
C2445 C2444 1.400 . S
C2445 C2446 1.398 . S
C2446 H2434 0.950 . S
C2446 C2445 1.398 . S
C2446 C2447 1.391 . S
C2447 H2435 0.950 . S
C2447 C2443 1.393 . S
C2447 C2446 1.391 . S
H2448 C2456 0.950 . S
H2449 C2461 0.950 . S
H2450 C2458 0.950 . S
H2451 C2460 0.950 . S
H2452 C2462 0.950 . S
H2453 C2464 0.950 . S
H2454 C2466 0.950 . S
H2455 C2467 0.950 . S
C2456 H2448 0.950 . S
C2456 C2457 1.386 . S
C2456 C2458 1.391 . S
C2457 C2456 1.386 . S
C2457 C2461 1.393 . S
C2458 H2450 0.950 . S
C2458 C2456 1.391 . S
C2458 C2459 1.400 . S
C2459 C2458 1.400 . S
C2459 C2460 1.398 . S
C2459 C2465 1.491 . S
C2460 H2451 0.950 . S
C2460 C2459 1.398 . S
C2460 C2461 1.391 . S
C2461 H2449 0.950 . S
C2461 C2457 1.393 . S
C2461 C2460 1.391 . S
C2462 H2452 0.950 . S
C2462 C2463 1.386 . S
C2462 C2464 1.391 . S
C2463 C2462 1.386 . S
C2463 C2467 1.393 . S
C2464 H2453 0.950 . S
C2464 C2462 1.391 . S
C2464 C2465 1.400 . S
C2465 C2459 1.491 . S
C2465 C2464 1.400 . S
C2465 C2466 1.398 . S
C2466 H2454 0.950 . S
C2466 C2465 1.398 . S
C2466 C2467 1.391 . S
C2467 H2455 0.950 . S
C2467 C2463 1.393 . S
C2467 C2466 1.391 . S
H2468 C2476 0.950 . S
H2469 C2481 0.950 . S
H2470 C2478 0.950 . S
H2471 C2480 0.950 . S
H2472 C2482 0.950 . S
H2473 C2484 0.950 . S
H2474 C2486 0.950 . S
H2475 C2487 0.950 . S
C2476 H2468 0.950 . S
C2476 C2477 1.386 . S
C2476 C2478 1.391 . S
C2477 C2476 1.386 . S
C2477 C2481 1.393 . S
C2478 H2470 0.950 . S
C2478 C2476 1.391 . S
C2478 C2479 1.400 . S
C2479 C2478 1.400 . S
C2479 C2480 1.398 . S
C2479 C2485 1.491 . S
C2480 H2471 0.950 . S
C2480 C2479 1.398 . S
C2480 C2481 1.391 . S
C2481 H2469 0.950 . S
C2481 C2477 1.393 . S
C2481 C2480 1.391 . S
C2482 H2472 0.950 . S
C2482 C2483 1.386 . S
C2482 C2484 1.391 . S
C2483 C2482 1.386 . S
C2483 C2487 1.393 . S
C2484 H2473 0.950 . S
C2484 C2482 1.391 . S
C2484 C2485 1.400 . S
C2485 C2479 1.491 . S
C2485 C2484 1.400 . S
C2485 C2486 1.398 . S
C2486 H2474 0.950 . S
C2486 C2485 1.398 . S
C2486 C2487 1.391 . S
C2487 H2475 0.950 . S
C2487 C2483 1.393 . S
C2487 C2486 1.391 . S
H2488 C2496 0.950 . S
H2489 C2501 0.950 . S
H2490 C2498 0.950 . S
H2491 C2500 0.950 . S
H2492 C2502 0.950 . S
H2493 C2504 0.950 . S
H2494 C2506 0.950 . S
H2495 C2507 0.950 . S
C2496 H2488 0.950 . S
C2496 C2497 1.386 . S
C2496 C2498 1.391 . S
C2497 C2496 1.386 . S
C2497 C2501 1.393 . S
C2498 H2490 0.950 . S
C2498 C2496 1.391 . S
C2498 C2499 1.400 . S
C2499 C2498 1.400 . S
C2499 C2500 1.398 . S
C2499 C2505 1.491 . S
C2500 H2491 0.950 . S
C2500 C2499 1.398 . S
C2500 C2501 1.391 . S
C2501 H2489 0.950 . S
C2501 C2497 1.393 . S
C2501 C2500 1.391 . S
C2502 H2492 0.950 . S
C2502 C2503 1.386 . S
C2502 C2504 1.391 . S
C2503 C2502 1.386 . S
C2503 C2507 1.393 . S
C2504 H2493 0.950 . S
C2504 C2502 1.391 . S
C2504 C2505 1.400 . S
C2505 C2499 1.491 . S
C2505 C2504 1.400 . S
C2505 C2506 1.398 . S
C2506 H2494 0.950 . S
C2506 C2505 1.398 . S
C2506 C2507 1.391 . S
C2507 H2495 0.950 . S
C2507 C2503 1.393 . S
C2507 C2506 1.391 . S
H2508 C2516 0.950 . S
H2509 C2521 0.950 . S
H2510 C2518 0.950 . S
H2511 C2520 0.950 . S
H2512 C2522 0.950 . S
H2513 C2524 0.950 . S
H2514 C2526 0.950 . S
H2515 C2527 0.950 . S
C2516 H2508 0.950 . S
C2516 C2517 1.386 . S
C2516 C2518 1.391 . S
C2517 C2516 1.386 . S
C2517 C2521 1.393 . S
C2518 H2510 0.950 . S
C2518 C2516 1.391 . S
C2518 C2519 1.400 . S
C2519 C2518 1.400 . S
C2519 C2520 1.398 . S
C2519 C2525 1.491 . S
C2520 H2511 0.950 . S
C2520 C2519 1.398 . S
C2520 C2521 1.391 . S
C2521 H2509 0.950 . S
C2521 C2517 1.393 . S
C2521 C2520 1.391 . S
C2522 H2512 0.950 . S
C2522 C2523 1.386 . S
C2522 C2524 1.391 . S
C2523 C2522 1.386 . S
C2523 C2527 1.393 . S
C2524 H2513 0.950 . S
C2524 C2522 1.391 . S
C2524 C2525 1.400 . S
C2525 C2519 1.491 . S
C2525 C2524 1.400 . S
C2525 C2526 1.398 . S
C2526 H2514 0.950 . S
C2526 C2525 1.398 . S
C2526 C2527 1.391 . S
C2527 H2515 0.950 . S
C2527 C2523 1.393 . S
C2527 C2526 1.391 . S
H2528 C2536 0.950 . S
H2529 C2541 0.950 . S
H2530 C2538 0.950 . S
H2531 C2540 0.950 . S
H2532 C2542 0.950 . S
H2533 C2544 0.950 . S
H2534 C2546 0.950 . S
H2535 C2547 0.950 . S
C2536 H2528 0.950 . S
C2536 C2537 1.386 . S
C2536 C2538 1.391 . S
C2537 C2536 1.386 . S
C2537 C2541 1.393 . S
C2538 H2530 0.950 . S
C2538 C2536 1.391 . S
C2538 C2539 1.400 . S
C2539 C2538 1.400 . S
C2539 C2540 1.398 . S
C2539 C2545 1.491 . S
C2540 H2531 0.950 . S
C2540 C2539 1.398 . S
C2540 C2541 1.391 . S
C2541 H2529 0.950 . S
C2541 C2537 1.393 . S
C2541 C2540 1.391 . S
C2542 H2532 0.950 . S
C2542 C2543 1.386 . S
C2542 C2544 1.391 . S
C2543 C2542 1.386 . S
C2543 C2547 1.393 . S
C2544 H2533 0.950 . S
C2544 C2542 1.391 . S
C2544 C2545 1.400 . S
C2545 C2539 1.491 . S
C2545 C2544 1.400 . S
C2545 C2546 1.398 . S
C2546 H2534 0.950 . S
C2546 C2545 1.398 . S
C2546 C2547 1.391 . S
C2547 H2535 0.950 . S
C2547 C2543 1.393 . S
C2547 C2546 1.391 . S
H2548 C2556 0.950 . S
H2549 C2561 0.950 . S
H2550 C2558 0.950 . S
H2551 C2560 0.950 . S
H2552 C2562 0.950 . S
H2553 C2564 0.950 . S
H2554 C2566 0.950 . S
H2555 C2567 0.950 . S
C2556 H2548 0.950 . S
C2556 C2557 1.386 . S
C2556 C2558 1.391 . S
C2557 C2556 1.386 . S
C2557 C2561 1.393 . S
C2558 H2550 0.950 . S
C2558 C2556 1.391 . S
C2558 C2559 1.400 . S
C2559 C2558 1.400 . S
C2559 C2560 1.398 . S
C2559 C2565 1.491 . S
C2560 H2551 0.950 . S
C2560 C2559 1.398 . S
C2560 C2561 1.391 . S
C2561 H2549 0.950 . S
C2561 C2557 1.393 . S
C2561 C2560 1.391 . S
C2562 H2552 0.950 . S
C2562 C2563 1.386 . S
C2562 C2564 1.391 . S
C2563 C2562 1.386 . S
C2563 C2567 1.393 . S
C2564 H2553 0.950 . S
C2564 C2562 1.391 . S
C2564 C2565 1.400 . S
C2565 C2559 1.491 . S
C2565 C2564 1.400 . S
C2565 C2566 1.398 . S
C2566 H2554 0.950 . S
C2566 C2565 1.398 . S
C2566 C2567 1.391 . S
C2567 H2555 0.950 . S
C2567 C2563 1.393 . S
C2567 C2566 1.391 . S
H2568 C2576 0.950 . S
H2569 C2581 0.950 . S
H2570 C2578 0.950 . S
H2571 C2580 0.950 . S
H2572 C2582 0.950 . S
H2573 C2584 0.950 . S
H2574 C2586 0.950 . S
H2575 C2587 0.950 . S
C2576 H2568 0.950 . S
C2576 C2577 1.386 . S
C2576 C2578 1.391 . S
C2577 C2576 1.386 . S
C2577 C2581 1.393 . S
C2578 H2570 0.950 . S
C2578 C2576 1.391 . S
C2578 C2579 1.400 . S
C2579 C2578 1.400 . S
C2579 C2580 1.398 . S
C2579 C2585 1.491 . S
C2580 H2571 0.950 . S
C2580 C2579 1.398 . S
C2580 C2581 1.391 . S
C2581 H2569 0.950 . S
C2581 C2577 1.393 . S
C2581 C2580 1.391 . S
C2582 H2572 0.950 . S
C2582 C2583 1.386 . S
C2582 C2584 1.391 . S
C2583 C2582 1.386 . S
C2583 C2587 1.393 . S
C2584 H2573 0.950 . S
C2584 C2582 1.391 . S
C2584 C2585 1.400 . S
C2585 C2579 1.491 . S
C2585 C2584 1.400 . S
C2585 C2586 1.398 . S
C2586 H2574 0.950 . S
C2586 C2585 1.398 . S
C2586 C2587 1.391 . S
C2587 H2575 0.950 . S
C2587 C2583 1.393 . S
C2587 C2586 1.391 . S
H2588 C2596 0.950 . S
H2589 C2601 0.950 . S
H2590 C2598 0.950 . S
H2591 C2600 0.950 . S
H2592 C2602 0.950 . S
H2593 C2604 0.950 . S
H2594 C2606 0.950 . S
H2595 C2607 0.950 1_655 S
C2596 H2588 0.950 . S
C2596 C2597 1.386 . S
C2596 C2598 1.391 . S
C2597 C2596 1.386 . S
C2597 C2601 1.393 . S
C2598 H2590 0.950 . S
C2598 C2596 1.391 . S
C2598 C2599 1.400 . S
C2599 C2598 1.400 . S
C2599 C2600 1.398 . S
C2599 C2605 1.491 . S
C2600 H2591 0.950 . S
C2600 C2599 1.398 . S
C2600 C2601 1.391 . S
C2601 H2589 0.950 . S
C2601 C2597 1.393 . S
C2601 C2600 1.391 . S
C2602 H2592 0.950 . S
C2602 C2603 1.386 . S
C2602 C2604 1.391 . S
C2603 C2602 1.386 . S
C2603 C2607 1.393 . S
C2604 H2593 0.950 . S
C2604 C2602 1.391 . S
C2604 C2605 1.400 . S
C2605 C2599 1.491 . S
C2605 C2604 1.400 . S
C2605 C2606 1.398 . S
C2606 H2594 0.950 . S
C2606 C2605 1.398 . S
C2606 C2607 1.391 . S
C2607 H2595 0.950 1_455 S
C2607 C2603 1.393 . S
C2607 C2606 1.391 . S
H2608 C2616 0.950 . S
H2609 C2621 0.950 . S
H2610 C2618 0.950 . S
H2611 C2620 0.950 . S
H2612 C2622 0.950 . S
H2613 C2624 0.950 . S
H2614 C2626 0.950 . S
H2615 C2627 0.950 . S
C2616 H2608 0.950 . S
C2616 C2617 1.386 . S
C2616 C2618 1.391 . S
C2617 C2616 1.386 . S
C2617 C2621 1.393 . S
C2618 H2610 0.950 . S
C2618 C2616 1.391 . S
C2618 C2619 1.400 . S
C2619 C2618 1.400 . S
C2619 C2620 1.398 . S
C2619 C2625 1.491 . S
C2620 H2611 0.950 . S
C2620 C2619 1.398 . S
C2620 C2621 1.391 . S
C2621 H2609 0.950 . S
C2621 C2617 1.393 . S
C2621 C2620 1.391 . S
C2622 H2612 0.950 . S
C2622 C2623 1.386 . S
C2622 C2624 1.391 . S
C2623 C2622 1.386 . S
C2623 C2627 1.393 . S
C2624 H2613 0.950 . S
C2624 C2622 1.391 . S
C2624 C2625 1.400 . S
C2625 C2619 1.491 . S
C2625 C2624 1.400 . S
C2625 C2626 1.398 . S
C2626 H2614 0.950 . S
C2626 C2625 1.398 . S
C2626 C2627 1.391 . S
C2627 H2615 0.950 . S
C2627 C2623 1.393 . S
C2627 C2626 1.391 . S
H2628 C2636 0.950 . S
H2629 C2641 0.950 . S
H2630 C2638 0.950 . S
H2631 C2640 0.950 . S
H2632 C2642 0.950 . S
H2633 C2644 0.950 . S
H2634 C2646 0.950 . S
H2635 C2647 0.950 . S
C2636 H2628 0.950 . S
C2636 C2637 1.386 . S
C2636 C2638 1.391 . S
C2637 C2636 1.386 . S
C2637 C2641 1.393 . S
C2638 H2630 0.950 . S
C2638 C2636 1.391 . S
C2638 C2639 1.400 . S
C2639 C2638 1.400 . S
C2639 C2640 1.398 . S
C2639 C2645 1.491 . S
C2640 H2631 0.950 . S
C2640 C2639 1.398 . S
C2640 C2641 1.391 . S
C2641 H2629 0.950 . S
C2641 C2637 1.393 . S
C2641 C2640 1.391 . S
C2642 H2632 0.950 . S
C2642 C2643 1.386 . S
C2642 C2644 1.391 . S
C2643 C2642 1.386 . S
C2643 C2647 1.393 . S
C2644 H2633 0.950 . S
C2644 C2642 1.391 . S
C2644 C2645 1.400 . S
C2645 C2639 1.491 . S
C2645 C2644 1.400 . S
C2645 C2646 1.398 . S
C2646 H2634 0.950 . S
C2646 C2645 1.398 . S
C2646 C2647 1.391 . S
C2647 H2635 0.950 . S
C2647 C2643 1.393 . S
C2647 C2646 1.391 . S
H2648 C2656 0.950 1_554 S
H2649 C2661 0.950 . S
H2650 C2658 0.950 . S
H2651 C2660 0.950 . S
H2652 C2662 0.950 . S
H2653 C2664 0.950 . S
H2654 C2666 0.950 . S
H2655 C2667 0.950 . S
C2656 H2648 0.950 1_556 S
C2656 C2657 1.386 . S
C2656 C2658 1.391 . S
C2657 C2656 1.386 . S
C2657 C2661 1.393 . S
C2658 H2650 0.950 . S
C2658 C2656 1.391 . S
C2658 C2659 1.400 . S
C2659 C2658 1.400 . S
C2659 C2660 1.398 . S
C2659 C2665 1.491 . S
C2660 H2651 0.950 . S
C2660 C2659 1.398 . S
C2660 C2661 1.391 . S
C2661 H2649 0.950 . S
C2661 C2657 1.393 . S
C2661 C2660 1.391 . S
C2662 H2652 0.950 . S
C2662 C2663 1.386 . S
C2662 C2664 1.391 . S
C2663 C2662 1.386 . S
C2663 C2667 1.393 . S
C2664 H2653 0.950 . S
C2664 C2662 1.391 . S
C2664 C2665 1.400 . S
C2665 C2659 1.491 . S
C2665 C2664 1.400 . S
C2665 C2666 1.398 . S
C2666 H2654 0.950 . S
C2666 C2665 1.398 . S
C2666 C2667 1.391 . S
C2667 H2655 0.950 . S
C2667 C2663 1.393 . S
C2667 C2666 1.391 . S
H2668 C2676 0.950 . S
H2669 C2681 0.950 . S
H2670 C2678 0.950 . S
H2671 C2680 0.950 . S
H2672 C2682 0.950 . S
H2673 C2684 0.950 . S
H2674 C2686 0.950 . S
H2675 C2687 0.950 . S
C2676 H2668 0.950 . S
C2676 C2677 1.386 . S
C2676 C2678 1.391 . S
C2677 C2676 1.386 . S
C2677 C2681 1.393 . S
C2678 H2670 0.950 . S
C2678 C2676 1.391 . S
C2678 C2679 1.400 . S
C2679 C2678 1.400 . S
C2679 C2680 1.398 . S
C2679 C2685 1.491 . S
C2680 H2671 0.950 . S
C2680 C2679 1.398 . S
C2680 C2681 1.391 . S
C2681 H2669 0.950 . S
C2681 C2677 1.393 . S
C2681 C2680 1.391 . S
C2682 H2672 0.950 . S
C2682 C2683 1.386 . S
C2682 C2684 1.391 . S
C2683 C2682 1.386 . S
C2683 C2687 1.393 . S
C2684 H2673 0.950 . S
C2684 C2682 1.391 . S
C2684 C2685 1.400 . S
C2685 C2679 1.491 . S
C2685 C2684 1.400 . S
C2685 C2686 1.398 . S
C2686 H2674 0.950 . S
C2686 C2685 1.398 . S
C2686 C2687 1.391 . S
C2687 H2675 0.950 . S
C2687 C2683 1.393 . S
C2687 C2686 1.391 . S
H2688 C2696 0.950 . S
H2689 C2701 0.950 . S
H2690 C2698 0.950 . S
H2691 C2700 0.950 . S
H2692 C2702 0.950 . S
H2693 C2704 0.950 . S
H2694 C2706 0.950 . S
H2695 C2707 0.950 . S
C2696 H2688 0.950 . S
C2696 C2697 1.386 . S
C2696 C2698 1.391 . S
C2697 C2696 1.386 . S
C2697 C2701 1.393 . S
C2698 H2690 0.950 . S
C2698 C2696 1.391 . S
C2698 C2699 1.400 . S
C2699 C2698 1.400 . S
C2699 C2700 1.398 . S
C2699 C2705 1.491 . S
C2700 H2691 0.950 . S
C2700 C2699 1.398 . S
C2700 C2701 1.391 . S
C2701 H2689 0.950 . S
C2701 C2697 1.393 . S
C2701 C2700 1.391 . S
C2702 H2692 0.950 . S
C2702 C2703 1.386 . S
C2702 C2704 1.391 . S
C2703 C2702 1.386 . S
C2703 C2707 1.393 . S
C2704 H2693 0.950 . S
C2704 C2702 1.391 . S
C2704 C2705 1.400 . S
C2705 C2699 1.491 . S
C2705 C2704 1.400 . S
C2705 C2706 1.398 . S
C2706 H2694 0.950 . S
C2706 C2705 1.398 . S
C2706 C2707 1.391 . S
C2707 H2695 0.950 . S
C2707 C2703 1.393 . S
C2707 C2706 1.391 . S
H2708 C2716 0.950 . S
H2709 C2721 0.950 . S
H2710 C2718 0.950 . S
H2711 C2720 0.950 . S
H2712 C2722 0.950 . S
H2713 C2724 0.950 . S
H2714 C2726 0.950 . S
H2715 C2727 0.950 . S
C2716 H2708 0.950 . S
C2716 C2717 1.386 . S
C2716 C2718 1.391 . S
C2717 C2716 1.386 . S
C2717 C2721 1.393 . S
C2718 H2710 0.950 . S
C2718 C2716 1.391 . S
C2718 C2719 1.400 . S
C2719 C2718 1.400 . S
C2719 C2720 1.398 . S
C2719 C2725 1.491 . S
C2720 H2711 0.950 . S
C2720 C2719 1.398 . S
C2720 C2721 1.391 . S
C2721 H2709 0.950 . S
C2721 C2717 1.393 . S
C2721 C2720 1.391 . S
C2722 H2712 0.950 . S
C2722 C2723 1.386 . S
C2722 C2724 1.391 . S
C2723 C2722 1.386 . S
C2723 C2727 1.393 . S
C2724 H2713 0.950 . S
C2724 C2722 1.391 . S
C2724 C2725 1.400 1_655 S
C2725 C2719 1.491 . S
C2725 C2724 1.400 1_455 S
C2725 C2726 1.398 . S
C2726 H2714 0.950 . S
C2726 C2725 1.398 . S
C2726 C2727 1.391 1_455 S
C2727 H2715 0.950 . S
C2727 C2723 1.393 . S
C2727 C2726 1.391 1_655 S
H2728 C2736 0.950 . S
H2729 C2741 0.950 . S
H2730 C2738 0.950 . S
H2731 C2740 0.950 . S
H2732 C2742 0.950 . S
H2733 C2744 0.950 . S
H2734 C2746 0.950 . S
H2735 C2747 0.950 . S
C2736 H2728 0.950 . S
C2736 C2737 1.386 . S
C2736 C2738 1.391 . S
C2737 C2736 1.386 . S
C2737 C2741 1.393 . S
C2738 H2730 0.950 . S
C2738 C2736 1.391 . S
C2738 C2739 1.400 . S
C2739 C2738 1.400 . S
C2739 C2740 1.398 . S
C2739 C2745 1.491 . S
C2740 H2731 0.950 . S
C2740 C2739 1.398 . S
C2740 C2741 1.391 . S
C2741 H2729 0.950 . S
C2741 C2737 1.393 . S
C2741 C2740 1.391 . S
C2742 H2732 0.950 . S
C2742 C2743 1.386 . S
C2742 C2744 1.391 . S
C2743 C2742 1.386 . S
C2743 C2747 1.393 . S
C2744 H2733 0.950 . S
C2744 C2742 1.391 . S
C2744 C2745 1.400 . S
C2745 C2739 1.491 . S
C2745 C2744 1.400 . S
C2745 C2746 1.398 . S
C2746 H2734 0.950 . S
C2746 C2745 1.398 . S
C2746 C2747 1.391 . S
C2747 H2735 0.950 . S
C2747 C2743 1.393 . S
C2747 C2746 1.391 . S
H2748 C2756 0.950 . S
H2749 C2761 1.005 . S
H2750 C2758 0.950 . S
H2751 C2760 0.950 . S
H2752 C2762 0.950 . S
H2753 C2764 0.950 . S
H2754 C2766 0.950 . S
H2755 C2767 0.950 . S
C2756 H2748 0.950 . S
C2756 C2757 1.386 . S
C2756 C2758 1.391 . S
C2757 C2756 1.386 . S
C2757 C2761 1.393 . S
C2758 H2750 0.950 . S
C2758 C2756 1.391 . S
C2758 C2759 1.400 . S
C2759 C2758 1.400 . S
C2759 C2760 1.398 . S
C2759 C2765 1.491 . S
C2760 H2751 0.950 . S
C2760 C2759 1.398 . S
C2760 C2761 1.391 . S
C2761 H2749 1.005 . S
C2761 C2757 1.393 . S
C2761 C2760 1.391 . S
C2762 H2752 0.950 . S
C2762 C2763 1.386 . S
C2762 C2764 1.391 . S
C2763 C2762 1.386 . S
C2763 C2767 1.393 . S
C2764 H2753 0.950 . S
C2764 C2762 1.391 . S
C2764 C2765 1.400 . S
C2765 C2759 1.491 . S
C2765 C2764 1.400 . S
C2765 C2766 1.398 . S
C2766 H2754 0.950 . S
C2766 C2765 1.398 . S
C2766 C2767 1.391 . S
C2767 H2755 0.950 . S
C2767 C2763 1.393 . S
C2767 C2766 1.391 . S
H2768 C2776 0.950 . S
H2769 C2781 0.950 . S
H2770 C2778 0.950 . S
H2771 C2780 0.950 . S
H2772 C2782 0.950 . S
H2773 C2784 0.950 . S
H2774 C2786 0.950 . S
H2775 C2787 0.950 . S
C2776 H2768 0.950 . S
C2776 C2777 1.386 . S
C2776 C2778 1.391 . S
C2777 C2776 1.386 . S
C2777 C2781 1.393 . S
C2778 H2770 0.950 . S
C2778 C2776 1.391 . S
C2778 C2779 1.400 . S
C2779 C2778 1.400 . S
C2779 C2780 1.398 . S
C2779 C2785 1.491 . S
C2780 H2771 0.950 . S
C2780 C2779 1.398 . S
C2780 C2781 1.391 . S
C2781 H2769 0.950 . S
C2781 C2777 1.393 . S
C2781 C2780 1.391 . S
C2782 H2772 0.950 . S
C2782 C2783 1.386 . S
C2782 C2784 1.391 . S
C2783 C2782 1.386 . S
C2783 C2787 1.393 . S
C2784 H2773 0.950 . S
C2784 C2782 1.391 . S
C2784 C2785 1.400 . S
C2785 C2779 1.491 . S
C2785 C2784 1.400 . S
C2785 C2786 1.398 . S
C2786 H2774 0.950 . S
C2786 C2785 1.398 . S
C2786 C2787 1.391 . S
C2787 H2775 0.950 . S
C2787 C2783 1.393 . S
C2787 C2786 1.391 . S
H2788 C2796 0.950 . S
H2789 C2801 0.950 . S
H2790 C2798 0.950 . S
H2791 C2800 0.950 . S
H2792 C2802 0.950 . S
H2793 C2804 0.950 . S
H2794 C2806 0.950 . S
H2795 C2807 0.950 . S
C2796 H2788 0.950 . S
C2796 C2797 1.386 . S
C2796 C2798 1.391 . S
C2797 C2796 1.386 . S
C2797 C2801 1.393 . S
C2798 H2790 0.950 . S
C2798 C2796 1.391 . S
C2798 C2799 1.400 . S
C2799 C2798 1.400 . S
C2799 C2800 1.398 . S
C2799 C2805 1.491 . S
C2800 H2791 0.950 . S
C2800 C2799 1.398 . S
C2800 C2801 1.391 . S
C2801 H2789 0.950 . S
C2801 C2797 1.393 . S
C2801 C2800 1.391 . S
C2802 H2792 0.950 . S
C2802 C2803 1.386 . S
C2802 C2804 1.391 . S
C2803 C2802 1.386 . S
C2803 C2807 1.393 . S
C2804 H2793 0.950 . S
C2804 C2802 1.391 . S
C2804 C2805 1.400 . S
C2805 C2799 1.491 . S
C2805 C2804 1.400 . S
C2805 C2806 1.398 . S
C2806 H2794 0.950 . S
C2806 C2805 1.398 . S
C2806 C2807 1.391 . S
C2807 H2795 0.950 . S
C2807 C2803 1.393 . S
C2807 C2806 1.391 . S
H2808 C2816 0.950 . S
H2809 C2821 0.950 . S
H2810 C2818 0.950 . S
H2811 C2820 0.950 . S
H2812 C2822 0.950 . S
H2813 C2824 0.950 . S
H2814 C2826 0.950 . S
H2815 C2827 0.950 . S
C2816 H2808 0.950 . S
C2816 C2817 1.386 . S
C2816 C2818 1.391 . S
C2817 C2816 1.386 . S
C2817 C2821 1.393 . S
C2818 H2810 0.950 . S
C2818 C2816 1.391 . S
C2818 C2819 1.400 . S
C2819 C2818 1.400 . S
C2819 C2820 1.398 . S
C2819 C2825 1.491 . S
C2820 H2811 0.950 . S
C2820 C2819 1.398 . S
C2820 C2821 1.391 . S
C2821 H2809 0.950 . S
C2821 C2817 1.393 . S
C2821 C2820 1.391 . S
C2822 H2812 0.950 . S
C2822 C2823 1.386 . S
C2822 C2824 1.391 . S
C2823 C2822 1.386 . S
C2823 C2827 1.393 . S
C2824 H2813 0.950 . S
C2824 C2822 1.391 . S
C2824 C2825 1.400 . S
C2825 C2819 1.491 . S
C2825 C2824 1.400 . S
C2825 C2826 1.398 . S
C2826 H2814 0.950 . S
C2826 C2825 1.398 . S
C2826 C2827 1.391 . S
C2827 H2815 0.950 . S
C2827 C2823 1.393 . S
C2827 C2826 1.391 . S
H2828 C2836 0.950 . S
H2829 C2841 0.950 . S
H2830 C2838 0.950 . S
H2831 C2840 0.950 . S
H2832 C2842 0.950 . S
H2833 C2844 0.950 . S
H2834 C2846 0.950 . S
H2835 C2847 0.950 . S
C2836 H2828 0.950 . S
C2836 C2837 1.386 . S
C2836 C2838 1.391 . S
C2837 C2836 1.386 . S
C2837 C2841 1.393 . S
C2838 H2830 0.950 . S
C2838 C2836 1.391 . S
C2838 C2839 1.400 . S
C2839 C2838 1.400 . S
C2839 C2840 1.398 . S
C2839 C2845 1.491 . S
C2840 H2831 0.950 . S
C2840 C2839 1.398 . S
C2840 C2841 1.391 . S
C2841 H2829 0.950 . S
C2841 C2837 1.393 . S
C2841 C2840 1.391 . S
C2842 H2832 0.950 . S
C2842 C2843 1.386 . S
C2842 C2844 1.391 . S
C2843 C2842 1.386 . S
C2843 C2847 1.393 . S
C2844 H2833 0.950 . S
C2844 C2842 1.391 . S
C2844 C2845 1.400 . S
C2845 C2839 1.491 . S
C2845 C2844 1.400 . S
C2845 C2846 1.398 . S
C2846 H2834 0.950 . S
C2846 C2845 1.398 . S
C2846 C2847 1.391 . S
C2847 H2835 0.950 . S
C2847 C2843 1.393 . S
C2847 C2846 1.391 . S
H2848 C2856 0.950 . S
H2849 C2861 0.950 . S
H2850 C2858 0.950 . S
H2851 C2860 0.950 . S
H2852 C2862 0.950 . S
H2853 C2864 0.950 . S
H2854 C2866 0.950 . S
H2855 C2867 0.950 . S
C2856 H2848 0.950 . S
C2856 C2857 1.386 . S
C2856 C2858 1.391 . S
C2857 C2856 1.386 . S
C2857 C2861 1.393 . S
C2858 H2850 0.950 . S
C2858 C2856 1.391 . S
C2858 C2859 1.400 . S
C2859 C2858 1.400 . S
C2859 C2860 1.398 . S
C2859 C2865 1.491 . S
C2860 H2851 0.950 . S
C2860 C2859 1.398 . S
C2860 C2861 1.391 . S
C2861 H2849 0.950 . S
C2861 C2857 1.393 . S
C2861 C2860 1.391 . S
C2862 H2852 0.950 . S
C2862 C2863 1.386 . S
C2862 C2864 1.391 . S
C2863 C2862 1.386 . S
C2863 C2867 1.393 . S
C2864 H2853 0.950 . S
C2864 C2862 1.391 . S
C2864 C2865 1.400 . S
C2865 C2859 1.491 . S
C2865 C2864 1.400 . S
C2865 C2866 1.398 . S
C2866 H2854 0.950 . S
C2866 C2865 1.398 . S
C2866 C2867 1.391 . S
C2867 H2855 0.950 . S
C2867 C2863 1.393 . S
C2867 C2866 1.391 . S
H2868 C2876 0.950 1_545 S
H2869 C2881 0.950 . S
H2870 C2878 0.950 . S
H2871 C2880 0.950 . S
H2872 C2882 0.950 . S
H2873 C2884 0.950 . S
H2874 C2886 0.950 . S
H2875 C2887 0.950 . S
C2876 H2868 0.950 1_565 S
C2876 C2877 1.386 . S
C2876 C2878 1.391 . S
C2877 C2876 1.386 . S
C2877 C2881 1.393 . S
C2878 H2870 0.950 . S
C2878 C2876 1.391 . S
C2878 C2879 1.400 . S
C2879 C2878 1.400 . S
C2879 C2880 1.398 . S
C2879 C2885 1.491 . S
C2880 H2871 0.950 . S
C2880 C2879 1.398 . S
C2880 C2881 1.391 . S
C2881 H2869 0.950 . S
C2881 C2877 1.393 . S
C2881 C2880 1.391 . S
C2882 H2872 0.950 . S
C2882 C2883 1.386 . S
C2882 C2884 1.391 . S
C2883 C2882 1.386 . S
C2883 C2887 1.393 . S
C2884 H2873 0.950 . S
C2884 C2882 1.391 . S
C2884 C2885 1.400 . S
C2885 C2879 1.491 . S
C2885 C2884 1.400 . S
C2885 C2886 1.398 . S
C2886 H2874 0.950 . S
C2886 C2885 1.398 . S
C2886 C2887 1.391 . S
C2887 H2875 0.950 . S
C2887 C2883 1.393 . S
C2887 C2886 1.391 . S
H2888 C2896 0.950 . S
H2889 C2901 0.950 . S
H2890 C2898 0.950 . S
H2891 C2900 0.950 . S
H2892 C2902 0.950 . S
H2893 C2904 0.950 . S
H2894 C2906 0.950 . S
H2895 C2907 0.950 . S
C2896 H2888 0.950 . S
C2896 C2897 1.386 . S
C2896 C2898 1.391 . S
C2897 C2896 1.386 . S
C2897 C2901 1.393 . S
C2898 H2890 0.950 . S
C2898 C2896 1.391 . S
C2898 C2899 1.400 . S
C2899 C2898 1.400 . S
C2899 C2900 1.398 . S
C2899 C2905 1.491 . S
C2900 H2891 0.950 . S
C2900 C2899 1.398 . S
C2900 C2901 1.391 . S
C2901 H2889 0.950 . S
C2901 C2897 1.393 . S
C2901 C2900 1.391 . S
C2902 H2892 0.950 . S
C2902 C2903 1.386 . S
C2902 C2904 1.391 . S
C2903 C2902 1.386 . S
C2903 C2907 1.393 . S
C2904 H2893 0.950 . S
C2904 C2902 1.391 . S
C2904 C2905 1.400 1_565 S
C2905 C2899 1.491 . S
C2905 C2904 1.400 1_545 S
C2905 C2906 1.398 . S
C2906 H2894 0.950 . S
C2906 C2905 1.398 . S
C2906 C2907 1.391 1_545 S
C2907 H2895 0.950 . S
C2907 C2903 1.393 . S
C2907 C2906 1.391 1_565 S
H2908 C2916 0.950 . S
H2909 C2921 0.950 . S
H2910 C2918 0.950 . S
H2911 C2920 0.950 . S
H2912 C2922 0.950 . S
H2913 C2924 0.950 . S
H2914 C2926 0.950 . S
H2915 C2927 0.950 . S
C2916 H2908 0.950 . S
C2916 C2917 1.386 . S
C2916 C2918 1.391 . S
C2917 C2916 1.386 . S
C2917 C2921 1.393 . S
C2918 H2910 0.950 . S
C2918 C2916 1.391 . S
C2918 C2919 1.400 . S
C2919 C2918 1.400 . S
C2919 C2920 1.398 . S
C2919 C2925 1.491 . S
C2920 H2911 0.950 . S
C2920 C2919 1.398 . S
C2920 C2921 1.391 . S
C2921 H2909 0.950 . S
C2921 C2917 1.393 . S
C2921 C2920 1.391 . S
C2922 H2912 0.950 . S
C2922 C2923 1.386 . S
C2922 C2924 1.391 . S
C2923 C2922 1.386 . S
C2923 C2927 1.393 . S
C2924 H2913 0.950 . S
C2924 C2922 1.391 . S
C2924 C2925 1.400 . S
C2925 C2919 1.491 . S
C2925 C2924 1.400 . S
C2925 C2926 1.398 . S
C2926 H2914 0.950 . S
C2926 C2925 1.398 . S
C2926 C2927 1.391 . S
C2927 H2915 0.950 . S
C2927 C2923 1.393 . S
C2927 C2926 1.391 . S
H2928 C2936 0.950 . S
H2929 C2941 0.950 . S
H2930 C2938 0.950 . S
H2931 C2940 0.950 . S
H2932 C2942 0.950 . S
H2933 C2944 0.950 . S
H2934 C2946 0.950 . S
H2935 C2947 0.950 . S
C2936 H2928 0.950 . S
C2936 C2937 1.386 . S
C2936 C2938 1.391 . S
C2937 C2936 1.386 . S
C2937 C2941 1.393 . S
C2938 H2930 0.950 . S
C2938 C2936 1.391 . S
C2938 C2939 1.400 . S
C2939 C2938 1.400 . S
C2939 C2940 1.398 . S
C2939 C2945 1.491 . S
C2940 H2931 0.950 . S
C2940 C2939 1.398 . S
C2940 C2941 1.391 . S
C2941 H2929 0.950 . S
C2941 C2937 1.393 . S
C2941 C2940 1.391 . S
C2942 H2932 0.950 . S
C2942 C2943 1.386 . S
C2942 C2944 1.391 . S
C2943 C2942 1.386 . S
C2943 C2947 1.393 . S
C2944 H2933 0.950 . S
C2944 C2942 1.391 . S
C2944 C2945 1.400 . S
C2945 C2939 1.491 . S
C2945 C2944 1.400 . S
C2945 C2946 1.398 . S
C2946 H2934 0.950 . S
C2946 C2945 1.398 . S
C2946 C2947 1.391 . S
C2947 H2935 0.950 . S
C2947 C2943 1.393 . S
C2947 C2946 1.391 . S
H2948 C2956 0.950 . S
H2949 C2961 0.950 . S
H2950 C2958 0.950 . S
H2951 C2960 0.950 . S
H2952 C2962 0.950 . S
H2953 C2964 0.950 . S
H2954 C2966 0.950 . S
H2955 C2967 0.950 . S
C2956 H2948 0.950 . S
C2956 C2957 1.386 . S
C2956 C2958 1.391 . S
C2957 C2956 1.386 . S
C2957 C2961 1.393 . S
C2958 H2950 0.950 . S
C2958 C2956 1.391 . S
C2958 C2959 1.400 . S
C2959 C2958 1.400 . S
C2959 C2960 1.398 . S
C2959 C2965 1.491 . S
C2960 H2951 0.950 . S
C2960 C2959 1.398 . S
C2960 C2961 1.391 . S
C2961 H2949 0.950 . S
C2961 C2957 1.393 . S
C2961 C2960 1.391 . S
C2962 H2952 0.950 . S
C2962 C2963 1.386 . S
C2962 C2964 1.391 . S
C2963 C2962 1.386 . S
C2963 C2967 1.393 . S
C2964 H2953 0.950 . S
C2964 C2962 1.391 . S
C2964 C2965 1.400 . S
C2965 C2959 1.491 . S
C2965 C2964 1.400 . S
C2965 C2966 1.398 . S
C2966 H2954 0.950 . S
C2966 C2965 1.398 . S
C2966 C2967 1.391 . S
C2967 H2955 0.950 . S
C2967 C2963 1.393 . S
C2967 C2966 1.391 . S
H2968 C2976 0.950 . S
H2969 C2981 0.950 . S
H2970 C2978 0.950 . S
H2971 C2980 0.950 . S
H2972 C2982 0.950 . S
H2973 C2984 0.950 . S
H2974 C2986 0.950 . S
H2975 C2987 0.950 . S
C2976 H2968 0.950 . S
C2976 C2977 1.386 . S
C2976 C2978 1.391 . S
C2977 C2976 1.386 . S
C2977 C2981 1.393 . S
C2978 H2970 0.950 . S
C2978 C2976 1.391 . S
C2978 C2979 1.400 . S
C2979 C2978 1.400 . S
C2979 C2980 1.398 . S
C2979 C2985 1.491 . S
C2980 H2971 0.950 . S
C2980 C2979 1.398 . S
C2980 C2981 1.391 . S
C2981 H2969 0.950 . S
C2981 C2977 1.393 . S
C2981 C2980 1.391 . S
C2982 H2972 0.950 . S
C2982 C2983 1.386 . S
C2982 C2984 1.391 . S
C2983 C2982 1.386 . S
C2983 C2987 1.393 . S
C2984 H2973 0.950 . S
C2984 C2982 1.391 . S
C2984 C2985 1.400 . S
C2985 C2979 1.491 . S
C2985 C2984 1.400 . S
C2985 C2986 1.398 . S
C2986 H2974 0.950 . S
C2986 C2985 1.398 . S
C2986 C2987 1.391 . S
C2987 H2975 0.950 . S
C2987 C2983 1.393 . S
C2987 C2986 1.391 . S
H2988 C2996 0.950 . S
H2989 C3001 0.950 . S
H2990 C2998 0.950 . S
H2991 C3000 0.950 . S
H2992 C3002 0.950 . S
H2993 C3004 0.950 . S
H2994 C3006 0.950 . S
H2995 C3007 0.950 . S
C2996 H2988 0.950 . S
C2996 C2997 1.386 . S
C2996 C2998 1.391 . S
C2997 C2996 1.386 . S
C2997 C3001 1.393 . S
C2998 H2990 0.950 . S
C2998 C2996 1.391 . S
C2998 C2999 1.400 . S
C2999 C2998 1.400 . S
C2999 C3000 1.398 . S
C2999 C3005 1.491 . S
C3000 H2991 0.950 . S
C3000 C2999 1.398 . S
C3000 C3001 1.391 . S
C3001 H2989 0.950 . S
C3001 C2997 1.393 . S
C3001 C3000 1.391 . S
C3002 H2992 0.950 . S
C3002 C3003 1.386 . S
C3002 C3004 1.391 . S
C3003 C3002 1.386 . S
C3003 C3007 1.393 . S
C3004 H2993 0.950 . S
C3004 C3002 1.391 . S
C3004 C3005 1.400 . S
C3005 C2999 1.491 . S
C3005 C3004 1.400 . S
C3005 C3006 1.398 . S
C3006 H2994 0.950 . S
C3006 C3005 1.398 . S
C3006 C3007 1.391 . S
C3007 H2995 0.950 . S
C3007 C3003 1.393 . S
C3007 C3006 1.391 . S
H3008 C3016 0.950 . S
H3009 C3021 0.950 . S
H3010 C3018 0.995 . S
H3011 C3020 0.950 . S
H3012 C3022 0.950 . S
H3013 C3024 0.950 . S
H3014 C3026 0.950 . S
H3015 C3027 0.950 . S
C3016 H3008 0.950 . S
C3016 C3017 1.386 . S
C3016 C3018 1.336 1_556 S
C3017 C3016 1.386 . S
C3017 C3021 1.393 . S
C3018 H3010 0.995 . S
C3018 C3016 1.336 1_554 S
C3018 C3019 1.414 . S
C3019 C3018 1.414 . S
C3019 C3020 1.398 1_554 S
C3019 C3025 1.491 . S
C3020 H3011 0.950 . S
C3020 C3019 1.398 1_556 S
C3020 C3021 1.391 . S
C3021 H3009 0.950 . S
C3021 C3017 1.393 . S
C3021 C3020 1.391 . S
C3022 H3012 0.950 . S
C3022 C3023 1.386 . S
C3022 C3024 1.391 . S
C3023 C3022 1.386 . S
C3023 C3027 1.393 . S
C3024 H3013 0.950 . S
C3024 C3022 1.391 . S
C3024 C3025 1.400 . S
C3025 C3019 1.491 . S
C3025 C3024 1.400 . S
C3025 C3026 1.398 . S
C3026 H3014 0.950 . S
C3026 C3025 1.398 . S
C3026 C3027 1.391 . S
C3027 H3015 0.950 . S
C3027 C3023 1.393 . S
C3027 C3026 1.391 . S
H3028 C3036 0.950 . S
H3029 C3041 0.950 . S
H3030 C3038 0.950 . S
H3031 C3040 0.950 . S
H3032 C3042 0.950 . S
H3033 C3044 0.950 . S
H3034 C3046 0.950 . S
H3035 C3047 0.950 1_455 S
C3036 H3028 0.950 . S
C3036 C3037 1.386 . S
C3036 C3038 1.391 . S
C3037 C3036 1.386 . S
C3037 C3041 1.393 . S
C3038 H3030 0.950 . S
C3038 C3036 1.391 . S
C3038 C3039 1.400 . S
C3039 C3038 1.400 . S
C3039 C3040 1.398 . S
C3039 C3045 1.491 . S
C3040 H3031 0.950 . S
C3040 C3039 1.398 . S
C3040 C3041 1.391 . S
C3041 H3029 0.950 . S
C3041 C3037 1.393 . S
C3041 C3040 1.391 . S
C3042 H3032 0.950 . S
C3042 C3043 1.386 . S
C3042 C3044 1.391 . S
C3043 C3042 1.386 . S
C3043 C3047 1.393 . S
C3044 H3033 0.950 . S
C3044 C3042 1.391 . S
C3044 C3045 1.400 . S
C3045 C3039 1.491 . S
C3045 C3044 1.400 . S
C3045 C3046 1.398 . S
C3046 H3034 0.950 . S
C3046 C3045 1.398 . S
C3046 C3047 1.391 . S
C3047 H3035 0.950 1_655 S
C3047 C3043 1.393 . S
C3047 C3046 1.391 . S
H3048 C3056 0.950 . S
H3049 C3061 0.950 . S
H3050 C3058 0.950 . S
H3051 C3060 0.950 . S
H3052 C3062 0.950 . S
H3053 C3064 0.950 . S
H3054 C3066 0.950 . S
H3055 C3067 0.950 . S
C3056 H3048 0.950 . S
C3056 C3057 1.386 . S
C3056 C3058 1.391 . S
C3057 C3056 1.386 . S
C3057 C3061 1.393 . S
C3058 H3050 0.950 . S
C3058 C3056 1.391 . S
C3058 C3059 1.400 . S
C3059 C3058 1.400 . S
C3059 C3060 1.398 . S
C3059 C3065 1.491 . S
C3060 H3051 0.950 . S
C3060 C3059 1.398 . S
C3060 C3061 1.391 . S
C3061 H3049 0.950 . S
C3061 C3057 1.393 . S
C3061 C3060 1.391 . S
C3062 H3052 0.950 . S
C3062 C3063 1.386 . S
C3062 C3064 1.391 . S
C3063 C3062 1.386 . S
C3063 C3067 1.393 . S
C3064 H3053 0.950 . S
C3064 C3062 1.391 . S
C3064 C3065 1.400 . S
C3065 C3059 1.491 . S
C3065 C3064 1.400 . S
C3065 C3066 1.398 . S
C3066 H3054 0.950 . S
C3066 C3065 1.398 . S
C3066 C3067 1.391 . S
C3067 H3055 0.950 . S
C3067 C3063 1.393 . S
C3067 C3066 1.391 . S
H3068 C3076 0.950 . S
H3069 C3081 0.950 . S
H3070 C3078 0.950 . S
H3071 C3080 0.950 . S
H3072 C3082 0.950 . S
H3073 C3084 0.950 . S
H3074 C3086 0.950 . S
H3075 C3087 0.950 . S
C3076 H3068 0.950 . S
C3076 C3077 1.386 . S
C3076 C3078 1.391 . S
C3077 C3076 1.386 . S
C3077 C3081 1.393 . S
C3078 H3070 0.950 . S
C3078 C3076 1.391 . S
C3078 C3079 1.400 . S
C3079 C3078 1.400 . S
C3079 C3080 1.398 . S
C3079 C3085 1.491 . S
C3080 H3071 0.950 . S
C3080 C3079 1.398 . S
C3080 C3081 1.391 . S
C3081 H3069 0.950 . S
C3081 C3077 1.393 . S
C3081 C3080 1.391 . S
C3082 H3072 0.950 . S
C3082 C3083 1.386 . S
C3082 C3084 1.391 . S
C3083 C3082 1.386 . S
C3083 C3087 1.393 . S
C3084 H3073 0.950 . S
C3084 C3082 1.391 . S
C3084 C3085 1.400 . S
C3085 C3079 1.491 . S
C3085 C3084 1.400 . S
C3085 C3086 1.398 . S
C3086 H3074 0.950 . S
C3086 C3085 1.398 . S
C3086 C3087 1.391 . S
C3087 H3075 0.950 . S
C3087 C3083 1.393 . S
C3087 C3086 1.391 . S
H3088 C3096 0.950 . S
H3089 C3101 0.950 . S
H3090 C3098 0.950 . S
H3091 C3100 0.950 . S
H3092 C3102 0.950 . S
H3093 C3104 0.950 . S
H3094 C3106 0.950 . S
H3095 C3107 0.950 . S
C3096 H3088 0.950 . S
C3096 C3097 1.386 . S
C3096 C3098 1.391 . S
C3097 C3096 1.386 . S
C3097 C3101 1.393 . S
C3098 H3090 0.950 . S
C3098 C3096 1.391 . S
C3098 C3099 1.400 . S
C3099 C3098 1.400 . S
C3099 C3100 1.398 . S
C3099 C3105 1.491 . S
C3100 H3091 0.950 . S
C3100 C3099 1.398 . S
C3100 C3101 1.391 . S
C3101 H3089 0.950 . S
C3101 C3097 1.393 . S
C3101 C3100 1.391 . S
C3102 H3092 0.950 . S
C3102 C3103 1.386 . S
C3102 C3104 1.391 . S
C3103 C3102 1.386 . S
C3103 C3107 1.393 . S
C3104 H3093 0.950 . S
C3104 C3102 1.391 . S
C3104 C3105 1.400 . S
C3105 C3099 1.491 . S
C3105 C3104 1.400 . S
C3105 C3106 1.398 . S
C3106 H3094 0.950 . S
C3106 C3105 1.398 . S
C3106 C3107 1.391 . S
C3107 H3095 0.950 . S
C3107 C3103 1.393 . S
C3107 C3106 1.391 . S
H3108 C3116 0.950 . S
H3109 C3121 0.950 . S
H3110 C3118 0.950 . S
H3111 C3120 0.950 . S
H3112 C3122 0.950 . S
H3113 C3124 0.950 . S
H3114 C3126 0.950 . S
H3115 C3127 0.950 . S
C3116 H3108 0.950 . S
C3116 C3117 1.386 . S
C3116 C3118 1.391 . S
C3117 C3116 1.386 . S
C3117 C3121 1.393 . S
C3118 H3110 0.950 . S
C3118 C3116 1.391 . S
C3118 C3119 1.400 . S
C3119 C3118 1.400 . S
C3119 C3120 1.398 . S
C3119 C3125 1.491 . S
C3120 H3111 0.950 . S
C3120 C3119 1.398 . S
C3120 C3121 1.391 . S
C3121 H3109 0.950 . S
C3121 C3117 1.393 . S
C3121 C3120 1.391 . S
C3122 H3112 0.950 . S
C3122 C3123 1.386 . S
C3122 C3124 1.391 . S
C3123 C3122 1.386 . S
C3123 C3127 1.393 . S
C3124 H3113 0.950 . S
C3124 C3122 1.391 . S
C3124 C3125 1.400 . S
C3125 C3119 1.491 . S
C3125 C3124 1.400 . S
C3125 C3126 1.398 . S
C3126 H3114 0.950 . S
C3126 C3125 1.398 . S
C3126 C3127 1.391 . S
C3127 H3115 0.950 . S
C3127 C3123 1.393 . S
C3127 C3126 1.391 . S
H3128 C3136 0.950 . S
H3129 C3141 0.950 . S
H3130 C3138 0.950 . S
H3131 C3140 0.950 . S
H3132 C3142 0.950 . S
H3133 C3144 0.950 . S
H3134 C3146 0.950 . S
H3135 C3147 0.950 . S
C3136 H3128 0.950 . S
C3136 C3137 1.386 . S
C3136 C3138 1.391 . S
C3137 C3136 1.386 . S
C3137 C3141 1.393 . S
C3138 H3130 0.950 . S
C3138 C3136 1.391 . S
C3138 C3139 1.400 . S
C3139 C3138 1.400 . S
C3139 C3140 1.398 . S
C3139 C3145 1.491 . S
C3140 H3131 0.950 . S
C3140 C3139 1.398 . S
C3140 C3141 1.391 . S
C3141 H3129 0.950 . S
C3141 C3137 1.393 . S
C3141 C3140 1.391 . S
C3142 H3132 0.950 . S
C3142 C3143 1.386 . S
C3142 C3144 1.391 . S
C3143 C3142 1.386 . S
C3143 C3147 1.393 . S
C3144 H3133 0.950 . S
C3144 C3142 1.391 . S
C3144 C3145 1.400 . S
C3145 C3139 1.491 . S
C3145 C3144 1.400 . S
C3145 C3146 1.398 . S
C3146 H3134 0.950 . S
C3146 C3145 1.398 . S
C3146 C3147 1.391 . S
C3147 H3135 0.950 . S
C3147 C3143 1.393 . S
C3147 C3146 1.391 . S
H3148 C3156 0.950 . S
H3149 C3161 0.950 . S
H3150 C3158 0.950 . S
H3151 C3160 0.950 . S
H3152 C3162 0.950 . S
H3153 C3164 0.950 . S
H3154 C3166 0.950 . S
H3155 C3167 0.950 . S
C3156 H3148 0.950 . S
C3156 C3157 1.386 . S
C3156 C3158 1.391 . S
C3157 C3156 1.386 . S
C3157 C3161 1.393 . S
C3158 H3150 0.950 . S
C3158 C3156 1.391 . S
C3158 C3159 1.400 . S
C3159 C3158 1.400 . S
C3159 C3160 1.398 . S
C3159 C3165 1.491 . S
C3160 H3151 0.950 . S
C3160 C3159 1.398 . S
C3160 C3161 1.391 . S
C3161 H3149 0.950 . S
C3161 C3157 1.393 . S
C3161 C3160 1.391 . S
C3162 H3152 0.950 . S
C3162 C3163 1.386 . S
C3162 C3164 1.391 . S
C3163 C3162 1.386 . S
C3163 C3167 1.393 . S
C3164 H3153 0.950 . S
C3164 C3162 1.391 . S
C3164 C3165 1.400 . S
C3165 C3159 1.491 . S
C3165 C3164 1.400 . S
C3165 C3166 1.398 . S
C3166 H3154 0.950 . S
C3166 C3165 1.398 . S
C3166 C3167 1.391 . S
C3167 H3155 0.950 . S
C3167 C3163 1.393 . S
C3167 C3166 1.391 . S
H3168 C3176 0.950 . S
H3169 C3181 0.950 . S
H3170 C3178 0.959 . S
H3171 C3180 0.950 . S
H3172 C3182 0.950 . S
H3173 C3184 0.950 . S
H3174 C3186 0.950 . S
H3175 C3187 0.950 . S
C3176 H3168 0.950 . S
C3176 C3177 1.386 . S
C3176 C3178 1.391 . S
C3177 C3176 1.386 . S
C3177 C3181 1.393 . S
C3178 H3170 0.959 . S
C3178 C3176 1.391 . S
C3178 C3179 1.400 1_455 S
C3179 C3178 1.400 1_655 S
C3179 C3180 1.398 . S
C3179 C3185 1.491 . S
C3180 H3171 0.950 . S
C3180 C3179 1.398 . S
C3180 C3181 1.391 1_655 S
C3181 H3169 0.950 . S
C3181 C3177 1.393 . S
C3181 C3180 1.391 1_455 S
C3182 H3172 0.950 . S
C3182 C3183 1.386 . S
C3182 C3184 1.391 . S
C3183 C3182 1.386 . S
C3183 C3187 1.393 . S
C3184 H3173 0.950 . S
C3184 C3182 1.391 . S
C3184 C3185 1.400 . S
C3185 C3179 1.491 . S
C3185 C3184 1.400 . S
C3185 C3186 1.398 . S
C3186 H3174 0.950 . S
C3186 C3185 1.398 . S
C3186 C3187 1.391 . S
C3187 H3175 0.950 . S
C3187 C3183 1.393 . S
C3187 C3186 1.391 . S
H3188 C3196 0.950 . S
H3189 C3201 0.950 . S
H3190 C3198 0.950 . S
H3191 C3200 0.950 . S
H3192 C3202 0.950 . S
H3193 C3204 0.950 . S
H3194 C3206 0.950 . S
H3195 C3207 0.950 . S
C3196 H3188 0.950 . S
C3196 C3197 1.386 . S
C3196 C3198 1.391 . S
C3197 C3196 1.386 . S
C3197 C3201 1.393 . S
C3198 H3190 0.950 . S
C3198 C3196 1.391 . S
C3198 C3199 1.400 . S
C3199 C3198 1.400 . S
C3199 C3200 1.398 . S
C3199 C3205 1.491 . S
C3200 H3191 0.950 . S
C3200 C3199 1.398 . S
C3200 C3201 1.391 . S
C3201 H3189 0.950 . S
C3201 C3197 1.393 . S
C3201 C3200 1.391 . S
C3202 H3192 0.950 . S
C3202 C3203 1.386 . S
C3202 C3204 1.391 . S
C3203 C3202 1.386 . S
C3203 C3207 1.393 . S
C3204 H3193 0.950 . S
C3204 C3202 1.391 . S
C3204 C3205 1.400 . S
C3205 C3199 1.491 . S
C3205 C3204 1.400 . S
C3205 C3206 1.398 . S
C3206 H3194 0.950 . S
C3206 C3205 1.398 . S
C3206 C3207 1.391 . S
C3207 H3195 0.950 . S
C3207 C3203 1.393 . S
C3207 C3206 1.391 . S
H3208 C3216 0.950 . S
H3209 C3221 0.950 . S
H3210 C3218 0.950 . S
H3211 C3220 0.950 . S
H3212 C3222 0.950 . S
H3213 C3224 0.950 . S
H3214 C3226 0.950 . S
H3215 C3227 0.950 . S
C3216 H3208 0.950 . S
C3216 C3217 1.386 . S
C3216 C3218 1.391 . S
C3217 C3216 1.386 . S
C3217 C3221 1.393 . S
C3218 H3210 0.950 . S
C3218 C3216 1.391 . S
C3218 C3219 1.400 . S
C3219 C3218 1.400 . S
C3219 C3220 1.398 . S
C3219 C3225 1.491 . S
C3220 H3211 0.950 . S
C3220 C3219 1.398 . S
C3220 C3221 1.391 . S
C3221 H3209 0.950 . S
C3221 C3217 1.393 . S
C3221 C3220 1.391 . S
C3222 H3212 0.950 . S
C3222 C3223 1.386 . S
C3222 C3224 1.391 . S
C3223 C3222 1.386 . S
C3223 C3227 1.393 . S
C3224 H3213 0.950 . S
C3224 C3222 1.391 . S
C3224 C3225 1.400 . S
C3225 C3219 1.491 . S
C3225 C3224 1.400 . S
C3225 C3226 1.398 . S
C3226 H3214 0.950 . S
C3226 C3225 1.398 . S
C3226 C3227 1.391 . S
C3227 H3215 0.950 . S
C3227 C3223 1.393 . S
C3227 C3226 1.391 . S
H3228 C3236 0.950 . S
H3229 C3241 0.950 . S
H3230 C3238 0.950 . S
H3231 C3240 0.950 . S
H3232 C3242 0.950 . S
H3233 C3244 0.950 . S
H3234 C3246 0.923 1_556 S
H3235 C3247 0.950 1_556 S
C3236 H3228 0.950 . S
C3236 C3237 1.386 1_556 S
C3236 C3238 1.391 . S
C3237 C3236 1.386 1_554 S
C3237 C3241 1.393 . S
C3238 H3230 0.950 . S
C3238 C3236 1.391 . S
C3238 C3239 1.400 1_556 S
C3239 C3238 1.400 1_554 S
C3239 C3240 1.398 . S
C3239 C3245 1.491 . S
C3240 H3231 0.950 . S
C3240 C3239 1.398 . S
C3240 C3241 1.391 . S
C3241 H3229 0.950 . S
C3241 C3237 1.393 . S
C3241 C3240 1.391 . S
C3242 H3232 0.950 . S
C3242 C3243 1.386 . S
C3242 C3244 1.391 . S
C3243 C3242 1.386 . S
C3243 C3247 1.393 . S
C3244 H3233 0.950 . S
C3244 C3242 1.391 . S
C3244 C3245 1.400 . S
C3245 C3239 1.491 . S
C3245 C3244 1.400 . S
C3245 C3246 1.421 . S
C3246 H3234 0.923 1_554 S
C3246 C3245 1.421 . S
C3246 C3247 1.396 . S
C3247 H3235 0.950 1_554 S
C3247 C3243 1.393 . S
C3247 C3246 1.396 . S
H3248 C3256 0.950 1_655 S
H3249 C3261 0.950 . S
H3250 C3258 0.986 . S
H3251 C3260 0.950 . S
H3252 C3262 0.950 . S
H3253 C3264 0.950 . S
H3254 C3266 0.950 . S
H3255 C3267 0.950 . S
C3256 H3248 0.950 1_455 S
C3256 C3257 1.386 . S
C3256 C3258 1.387 1_455 S
C3257 C3256 1.386 . S
C3257 C3261 1.393 . S
C3258 H3250 0.986 . S
C3258 C3256 1.387 1_655 S
C3258 C3259 1.372 1_655 S
C3259 C3258 1.372 1_455 S
C3259 C3260 1.398 . S
C3259 C3265 1.491 . S
C3260 H3251 0.950 . S
C3260 C3259 1.398 . S
C3260 C3261 1.391 . S
C3261 H3249 0.950 . S
C3261 C3257 1.393 . S
C3261 C3260 1.391 . S
C3262 H3252 0.950 . S
C3262 C3263 1.386 . S
C3262 C3264 1.391 . S
C3263 C3262 1.386 . S
C3263 C3267 1.393 1_455 S
C3264 H3253 0.950 . S
C3264 C3262 1.391 . S
C3264 C3265 1.400 . S
C3265 C3259 1.491 . S
C3265 C3264 1.400 . S
C3265 C3266 1.398 1_455 S
C3266 H3254 0.950 . S
C3266 C3265 1.398 1_655 S
C3266 C3267 1.391 . S
C3267 H3255 0.950 . S
C3267 C3263 1.393 1_655 S
C3267 C3266 1.391 . S
H3268 C3276 0.950 . S
H3269 C3281 0.950 . S
H3270 C3278 0.950 . S
H3271 C3280 0.950 . S
H3272 C3282 0.950 . S
H3273 C3284 0.950 . S
H3274 C3286 0.950 . S
H3275 C3287 0.950 . S
C3276 H3268 0.950 . S
C3276 C3277 1.386 . S
C3276 C3278 1.391 . S
C3277 C3276 1.386 . S
C3277 C3281 1.393 . S
C3278 H3270 0.950 . S
C3278 C3276 1.391 . S
C3278 C3279 1.400 . S
C3279 C3278 1.400 . S
C3279 C3280 1.398 . S
C3279 C3285 1.491 . S
C3280 H3271 0.950 . S
C3280 C3279 1.398 . S
C3280 C3281 1.391 . S
C3281 H3269 0.950 . S
C3281 C3277 1.393 . S
C3281 C3280 1.391 . S
C3282 H3272 0.950 . S
C3282 C3283 1.386 . S
C3282 C3284 1.391 . S
C3283 C3282 1.386 . S
C3283 C3287 1.393 . S
C3284 H3273 0.950 . S
C3284 C3282 1.391 . S
C3284 C3285 1.400 . S
C3285 C3279 1.491 . S
C3285 C3284 1.400 . S
C3285 C3286 1.398 . S
C3286 H3274 0.950 . S
C3286 C3285 1.398 . S
C3286 C3287 1.391 . S
C3287 H3275 0.950 . S
C3287 C3283 1.393 . S
C3287 C3286 1.391 . S
H3288 C3296 0.950 . S
H3289 C3301 0.950 . S
H3290 C3298 0.950 . S
H3291 C3300 0.950 . S
H3292 C3302 0.950 . S
H3293 C3304 0.950 . S
H3294 C3306 0.950 . S
H3295 C3307 0.950 . S
C3296 H3288 0.950 . S
C3296 C3297 1.386 . S
C3296 C3298 1.391 . S
C3297 C3296 1.386 . S
C3297 C3301 1.393 . S
C3298 H3290 0.950 . S
C3298 C3296 1.391 . S
C3298 C3299 1.400 . S
C3299 C3298 1.400 . S
C3299 C3300 1.398 . S
C3299 C3305 1.491 . S
C3300 H3291 0.950 . S
C3300 C3299 1.398 . S
C3300 C3301 1.391 . S
C3301 H3289 0.950 . S
C3301 C3297 1.393 . S
C3301 C3300 1.391 . S
C3302 H3292 0.950 . S
C3302 C3303 1.386 . S
C3302 C3304 1.391 . S
C3303 C3302 1.386 . S
C3303 C3307 1.393 . S
C3304 H3293 0.950 . S
C3304 C3302 1.391 . S
C3304 C3305 1.400 . S
C3305 C3299 1.491 . S
C3305 C3304 1.400 . S
C3305 C3306 1.398 . S
C3306 H3294 0.950 . S
C3306 C3305 1.398 . S
C3306 C3307 1.391 . S
C3307 H3295 0.950 . S
C3307 C3303 1.393 . S
C3307 C3306 1.391 . S
H3308 C3316 0.950 . S
H3309 C3321 0.950 . S
H3310 C3318 0.950 . S
H3311 C3320 0.950 . S
H3312 C3322 0.950 . S
H3313 C3324 0.950 . S
H3314 C3326 0.950 . S
H3315 C3327 0.950 . S
C3316 H3308 0.950 . S
C3316 C3317 1.386 . S
C3316 C3318 1.391 . S
C3317 C3316 1.386 . S
C3317 C3321 1.393 . S
C3318 H3310 0.950 . S
C3318 C3316 1.391 . S
C3318 C3319 1.400 . S
C3319 C3318 1.400 . S
C3319 C3320 1.398 . S
C3319 C3325 1.491 . S
C3320 H3311 0.950 . S
C3320 C3319 1.398 . S
C3320 C3321 1.391 . S
C3321 H3309 0.950 . S
C3321 C3317 1.393 . S
C3321 C3320 1.391 . S
C3322 H3312 0.950 . S
C3322 C3323 1.386 . S
C3322 C3324 1.391 . S
C3323 C3322 1.386 . S
C3323 C3327 1.393 . S
C3324 H3313 0.950 . S
C3324 C3322 1.391 . S
C3324 C3325 1.400 . S
C3325 C3319 1.491 . S
C3325 C3324 1.400 . S
C3325 C3326 1.398 . S
C3326 H3314 0.950 . S
C3326 C3325 1.398 . S
C3326 C3327 1.391 . S
C3327 H3315 0.950 . S
C3327 C3323 1.393 . S
C3327 C3326 1.391 . S
H3328 C3336 0.950 . S
H3329 C3341 0.950 . S
H3330 C3338 0.950 . S
H3331 C3340 0.950 . S
H3332 C3342 0.950 . S
H3333 C3344 0.950 . S
H3334 C3346 0.950 . S
H3335 C3347 0.950 . S
C3336 H3328 0.950 . S
C3336 C3337 1.386 . S
C3336 C3338 1.391 . S
C3337 C3336 1.386 . S
C3337 C3341 1.393 . S
C3338 H3330 0.950 . S
C3338 C3336 1.391 . S
C3338 C3339 1.400 . S
C3339 C3338 1.400 . S
C3339 C3340 1.398 . S
C3339 C3345 1.491 . S
C3340 H3331 0.950 . S
C3340 C3339 1.398 . S
C3340 C3341 1.391 . S
C3341 H3329 0.950 . S
C3341 C3337 1.393 . S
C3341 C3340 1.391 . S
C3342 H3332 0.950 . S
C3342 C3343 1.386 . S
C3342 C3344 1.391 . S
C3343 C3342 1.386 . S
C3343 C3347 1.393 . S
C3344 H3333 0.950 . S
C3344 C3342 1.391 . S
C3344 C3345 1.400 1_545 S
C3345 C3339 1.491 . S
C3345 C3344 1.400 1_565 S
C3345 C3346 1.398 . S
C3346 H3334 0.950 . S
C3346 C3345 1.398 . S
C3346 C3347 1.391 1_565 S
C3347 H3335 0.950 . S
C3347 C3343 1.393 . S
C3347 C3346 1.391 1_545 S
H3348 C3356 0.950 . S
H3349 C3361 0.950 . S
H3350 C3358 0.972 . S
H3351 C3360 0.950 . S
H3352 C3362 0.950 . S
H3353 C3364 0.950 . S
H3354 C3366 0.940 1_565 S
H3355 C3367 0.971 . S
C3356 H3348 0.950 . S
C3356 C3357 1.386 . S
C3356 C3358 1.391 . S
C3357 C3356 1.386 . S
C3357 C3361 1.393 . S
C3358 H3350 0.972 . S
C3358 C3356 1.391 . S
C3358 C3359 1.400 . S
C3359 C3358 1.400 . S
C3359 C3360 1.398 . S
C3359 C3365 1.491 . S
C3360 H3351 0.950 . S
C3360 C3359 1.398 . S
C3360 C3361 1.391 . S
C3361 H3349 0.950 . S
C3361 C3357 1.393 . S
C3361 C3360 1.391 . S
C3362 H3352 0.950 . S
C3362 C3363 1.386 . S
C3362 C3364 1.391 . S
C3363 C3362 1.386 . S
C3363 C3367 1.381 1_545 S
C3364 H3353 0.950 . S
C3364 C3362 1.391 . S
C3364 C3365 1.400 . S
C3365 C3359 1.491 . S
C3365 C3364 1.400 . S
C3365 C3366 1.398 . S
C3366 H3354 0.940 1_545 S
C3366 C3365 1.398 . S
C3366 C3367 1.385 1_545 S
C3367 H3355 0.971 . S
C3367 C3363 1.381 1_565 S
C3367 C3366 1.385 1_565 S
H3368 C3376 0.950 . S
H3369 C3381 0.950 . S
H3370 C3378 0.950 . S
H3371 C3380 0.950 . S
H3372 C3382 0.950 . S
H3373 C3384 0.950 . S
H3374 C3386 0.950 . S
H3375 C3387 0.950 . S
C3376 H3368 0.950 . S
C3376 C3377 1.386 . S
C3376 C3378 1.391 . S
C3377 C3376 1.386 . S
C3377 C3381 1.393 . S
C3378 H3370 0.950 . S
C3378 C3376 1.391 . S
C3378 C3379 1.400 . S
C3379 C3378 1.400 . S
C3379 C3380 1.398 . S
C3379 C3385 1.491 . S
C3380 H3371 0.950 . S
C3380 C3379 1.398 . S
C3380 C3381 1.391 . S
C3381 H3369 0.950 . S
C3381 C3377 1.393 . S
C3381 C3380 1.391 . S
C3382 H3372 0.950 . S
C3382 C3383 1.386 . S
C3382 C3384 1.391 . S
C3383 C3382 1.386 . S
C3383 C3387 1.393 . S
C3384 H3373 0.950 . S
C3384 C3382 1.391 . S
C3384 C3385 1.400 . S
C3385 C3379 1.491 . S
C3385 C3384 1.400 . S
C3385 C3386 1.398 . S
C3386 H3374 0.950 . S
C3386 C3385 1.398 . S
C3386 C3387 1.391 . S
C3387 H3375 0.950 . S
C3387 C3383 1.393 . S
C3387 C3386 1.391 . S
H3388 C3396 0.950 . S
H3389 C3401 0.950 . S
H3390 C3398 0.950 . S
H3391 C3400 0.950 . S
H3392 C3402 0.950 . S
H3393 C3404 0.950 . S
H3394 C3406 0.950 . S
H3395 C3407 0.950 . S
C3396 H3388 0.950 . S
C3396 C3397 1.386 . S
C3396 C3398 1.391 . S
C3397 C3396 1.386 . S
C3397 C3401 1.393 . S
C3398 H3390 0.950 . S
C3398 C3396 1.391 . S
C3398 C3399 1.400 . S
C3399 C3398 1.400 . S
C3399 C3400 1.398 . S
C3399 C3405 1.491 . S
C3400 H3391 0.950 . S
C3400 C3399 1.398 . S
C3400 C3401 1.391 . S
C3401 H3389 0.950 . S
C3401 C3397 1.393 . S
C3401 C3400 1.391 . S
C3402 H3392 0.950 . S
C3402 C3403 1.386 . S
C3402 C3404 1.391 . S
C3403 C3402 1.386 . S
C3403 C3407 1.393 . S
C3404 H3393 0.950 . S
C3404 C3402 1.391 . S
C3404 C3405 1.400 . S
C3405 C3399 1.491 . S
C3405 C3404 1.400 . S
C3405 C3406 1.398 . S
C3406 H3394 0.950 . S
C3406 C3405 1.398 . S
C3406 C3407 1.391 . S
C3407 H3395 0.950 . S
C3407 C3403 1.393 . S
C3407 C3406 1.391 . S
H3408 C3416 0.950 . S
H3409 C3421 0.950 . S
H3410 C3418 0.950 . S
H3411 C3420 0.950 . S
H3412 C3422 0.950 . S
H3413 C3424 0.950 . S
H3414 C3426 0.950 . S
H3415 C3427 0.950 . S
C3416 H3408 0.950 . S
C3416 C3417 1.386 . S
C3416 C3418 1.391 1_554 S
C3417 C3416 1.386 . S
C3417 C3421 1.393 . S
C3418 H3410 0.950 . S
C3418 C3416 1.391 1_556 S
C3418 C3419 1.400 . S
C3419 C3418 1.400 . S
C3419 C3420 1.398 1_556 S
C3419 C3425 1.491 . S
C3420 H3411 0.950 . S
C3420 C3419 1.398 1_554 S
C3420 C3421 1.391 . S
C3421 H3409 0.950 . S
C3421 C3417 1.393 . S
C3421 C3420 1.391 . S
C3422 H3412 0.950 . S
C3422 C3423 1.386 . S
C3422 C3424 1.391 . S
C3423 C3422 1.386 . S
C3423 C3427 1.393 . S
C3424 H3413 0.950 . S
C3424 C3422 1.391 . S
C3424 C3425 1.400 . S
C3425 C3419 1.491 . S
C3425 C3424 1.400 . S
C3425 C3426 1.398 . S
C3426 H3414 0.950 . S
C3426 C3425 1.398 . S
C3426 C3427 1.391 . S
C3427 H3415 0.950 . S
C3427 C3423 1.393 . S
C3427 C3426 1.391 . S
H3428 C3436 0.950 . S
H3429 C3441 0.950 . S
H3430 C3438 0.950 . S
H3431 C3440 0.950 . S
H3432 C3442 0.950 . S
H3433 C3444 0.950 . S
H3434 C3446 0.950 . S
H3435 C3447 0.950 . S
C3436 H3428 0.950 . S
C3436 C3437 1.386 . S
C3436 C3438 1.391 . S
C3437 C3436 1.386 . S
C3437 C3441 1.393 . S
C3438 H3430 0.950 . S
C3438 C3436 1.391 . S
C3438 C3439 1.400 . S
C3439 C3438 1.400 . S
C3439 C3440 1.398 . S
C3439 C3445 1.491 . S
C3440 H3431 0.950 . S
C3440 C3439 1.398 . S
C3440 C3441 1.391 . S
C3441 H3429 0.950 . S
C3441 C3437 1.393 . S
C3441 C3440 1.391 . S
C3442 H3432 0.950 . S
C3442 C3443 1.386 . S
C3442 C3444 1.391 . S
C3443 C3442 1.386 . S
C3443 C3447 1.393 . S
C3444 H3433 0.950 . S
C3444 C3442 1.391 . S
C3444 C3445 1.400 . S
C3445 C3439 1.491 . S
C3445 C3444 1.400 . S
C3445 C3446 1.398 . S
C3446 H3434 0.950 . S
C3446 C3445 1.398 . S
C3446 C3447 1.391 . S
C3447 H3435 0.950 . S
C3447 C3443 1.393 . S
C3447 C3446 1.391 . S
H3448 C3456 0.950 . S
H3449 C3461 0.950 . S
H3450 C3458 0.950 . S
H3451 C3460 0.950 . S
H3452 C3462 0.950 . S
H3453 C3464 0.950 . S
H3454 C3466 0.950 . S
H3455 C3467 0.950 . S
C3456 H3448 0.950 . S
C3456 C3457 1.386 . S
C3456 C3458 1.391 . S
C3457 C3456 1.386 . S
C3457 C3461 1.393 . S
C3458 H3450 0.950 . S
C3458 C3456 1.391 . S
C3458 C3459 1.400 . S
C3459 C3458 1.400 . S
C3459 C3460 1.398 . S
C3459 C3465 1.491 . S
C3460 H3451 0.950 . S
C3460 C3459 1.398 . S
C3460 C3461 1.391 . S
C3461 H3449 0.950 . S
C3461 C3457 1.393 . S
C3461 C3460 1.391 . S
C3462 H3452 0.950 . S
C3462 C3463 1.386 . S
C3462 C3464 1.391 . S
C3463 C3462 1.386 . S
C3463 C3467 1.393 . S
C3464 H3453 0.950 . S
C3464 C3462 1.391 . S
C3464 C3465 1.400 . S
C3465 C3459 1.491 . S
C3465 C3464 1.400 . S
C3465 C3466 1.398 . S
C3466 H3454 0.950 . S
C3466 C3465 1.398 . S
C3466 C3467 1.391 . S
C3467 H3455 0.950 . S
C3467 C3463 1.393 . S
C3467 C3466 1.391 . S
H3468 C3476 0.950 . S
H3469 C3481 0.950 . S
H3470 C3478 0.950 . S
H3471 C3480 0.950 . S
H3472 C3482 0.950 . S
H3473 C3484 0.950 . S
H3474 C3486 0.950 . S
H3475 C3487 0.950 . S
C3476 H3468 0.950 . S
C3476 C3477 1.386 . S
C3476 C3478 1.391 . S
C3477 C3476 1.386 . S
C3477 C3481 1.393 . S
C3478 H3470 0.950 . S
C3478 C3476 1.391 . S
C3478 C3479 1.400 . S
C3479 C3478 1.400 . S
C3479 C3480 1.398 . S
C3479 C3485 1.491 . S
C3480 H3471 0.950 . S
C3480 C3479 1.398 . S
C3480 C3481 1.391 . S
C3481 H3469 0.950 . S
C3481 C3477 1.393 . S
C3481 C3480 1.391 . S
C3482 H3472 0.950 . S
C3482 C3483 1.386 . S
C3482 C3484 1.391 . S
C3483 C3482 1.386 . S
C3483 C3487 1.393 . S
C3484 H3473 0.950 . S
C3484 C3482 1.391 . S
C3484 C3485 1.400 . S
C3485 C3479 1.491 . S
C3485 C3484 1.400 . S
C3485 C3486 1.398 . S
C3486 H3474 0.950 . S
C3486 C3485 1.398 . S
C3486 C3487 1.391 . S
C3487 H3475 0.950 . S
C3487 C3483 1.393 . S
C3487 C3486 1.391 . S
H3488 C3496 0.950 . S
H3489 C3501 0.950 . S
H3490 C3498 0.950 . S
H3491 C3500 0.950 . S
H3492 C3502 0.950 . S
H3493 C3504 0.950 . S
H3494 C3506 0.950 . S
H3495 C3507 0.950 1_655 S
C3496 H3488 0.950 . S
C3496 C3497 1.386 . S
C3496 C3498 1.391 . S
C3497 C3496 1.386 . S
C3497 C3501 1.393 . S
C3498 H3490 0.950 . S
C3498 C3496 1.391 . S
C3498 C3499 1.400 . S
C3499 C3498 1.400 . S
C3499 C3500 1.398 . S
C3499 C3505 1.491 . S
C3500 H3491 0.950 . S
C3500 C3499 1.398 . S
C3500 C3501 1.391 . S
C3501 H3489 0.950 . S
C3501 C3497 1.393 . S
C3501 C3500 1.391 . S
C3502 H3492 0.950 . S
C3502 C3503 1.386 . S
C3502 C3504 1.391 . S
C3503 C3502 1.386 . S
C3503 C3507 1.393 . S
C3504 H3493 0.950 . S
C3504 C3502 1.391 . S
C3504 C3505 1.400 . S
C3505 C3499 1.491 . S
C3505 C3504 1.400 . S
C3505 C3506 1.398 . S
C3506 H3494 0.950 . S
C3506 C3505 1.398 . S
C3506 C3507 1.391 . S
C3507 H3495 0.950 1_455 S
C3507 C3503 1.393 . S
C3507 C3506 1.391 . S
H3508 C3516 0.950 . S
H3509 C3521 0.950 . S
H3510 C3518 0.950 . S
H3511 C3520 0.950 . S
H3512 C3522 0.950 . S
H3513 C3524 0.950 . S
H3514 C3526 0.950 . S
H3515 C3527 0.950 . S
C3516 H3508 0.950 . S
C3516 C3517 1.386 . S
C3516 C3518 1.391 . S
C3517 C3516 1.386 . S
C3517 C3521 1.393 . S
C3518 H3510 0.950 . S
C3518 C3516 1.391 . S
C3518 C3519 1.400 . S
C3519 C3518 1.400 . S
C3519 C3520 1.398 . S
C3519 C3525 1.491 . S
C3520 H3511 0.950 . S
C3520 C3519 1.398 . S
C3520 C3521 1.391 . S
C3521 H3509 0.950 . S
C3521 C3517 1.393 . S
C3521 C3520 1.391 . S
C3522 H3512 0.950 . S
C3522 C3523 1.386 . S
C3522 C3524 1.391 . S
C3523 C3522 1.386 . S
C3523 C3527 1.393 . S
C3524 H3513 0.950 . S
C3524 C3522 1.391 . S
C3524 C3525 1.400 . S
C3525 C3519 1.491 . S
C3525 C3524 1.400 . S
C3525 C3526 1.398 . S
C3526 H3514 0.950 . S
C3526 C3525 1.398 . S
C3526 C3527 1.391 . S
C3527 H3515 0.950 . S
C3527 C3523 1.393 . S
C3527 C3526 1.391 . S
H3528 C3536 0.950 . S
H3529 C3541 0.950 1_556 S
H3530 C3538 0.950 . S
H3531 C3540 0.950 . S
H3532 C3542 0.950 . S
H3533 C3544 0.950 . S
H3534 C3546 0.950 . S
H3535 C3547 0.950 . S
C3536 H3528 0.950 . S
C3536 C3537 1.386 . S
C3536 C3538 1.391 . S
C3537 C3536 1.386 . S
C3537 C3541 1.393 . S
C3538 H3530 0.950 . S
C3538 C3536 1.391 . S
C3538 C3539 1.400 . S
C3539 C3538 1.400 . S
C3539 C3540 1.398 . S
C3539 C3545 1.491 . S
C3540 H3531 0.950 . S
C3540 C3539 1.398 . S
C3540 C3541 1.391 . S
C3541 H3529 0.950 1_554 S
C3541 C3537 1.393 . S
C3541 C3540 1.391 . S
C3542 H3532 0.950 . S
C3542 C3543 1.386 . S
C3542 C3544 1.391 . S
C3543 C3542 1.386 . S
C3543 C3547 1.393 . S
C3544 H3533 0.950 . S
C3544 C3542 1.391 . S
C3544 C3545 1.400 . S
C3545 C3539 1.491 . S
C3545 C3544 1.400 . S
C3545 C3546 1.398 . S
C3546 H3534 0.950 . S
C3546 C3545 1.398 . S
C3546 C3547 1.391 . S
C3547 H3535 0.950 . S
C3547 C3543 1.393 . S
C3547 C3546 1.391 . S
H3548 C3556 0.950 . S
H3549 C3561 0.950 . S
H3550 C3558 0.950 . S
H3551 C3560 0.950 . S
H3552 C3562 0.950 . S
H3553 C3564 0.950 . S
H3554 C3566 0.950 . S
H3555 C3567 0.950 . S
C3556 H3548 0.950 . S
C3556 C3557 1.386 . S
C3556 C3558 1.391 . S
C3557 C3556 1.386 . S
C3557 C3561 1.393 . S
C3558 H3550 0.950 . S
C3558 C3556 1.391 . S
C3558 C3559 1.400 . S
C3559 C3558 1.400 . S
C3559 C3560 1.398 . S
C3559 C3565 1.491 . S
C3560 H3551 0.950 . S
C3560 C3559 1.398 . S
C3560 C3561 1.391 . S
C3561 H3549 0.950 . S
C3561 C3557 1.393 . S
C3561 C3560 1.391 . S
C3562 H3552 0.950 . S
C3562 C3563 1.386 . S
C3562 C3564 1.391 . S
C3563 C3562 1.386 . S
C3563 C3567 1.393 . S
C3564 H3553 0.950 . S
C3564 C3562 1.391 . S
C3564 C3565 1.400 . S
C3565 C3559 1.491 . S
C3565 C3564 1.400 . S
C3565 C3566 1.398 . S
C3566 H3554 0.950 . S
C3566 C3565 1.398 . S
C3566 C3567 1.391 . S
C3567 H3555 0.950 . S
C3567 C3563 1.393 . S
C3567 C3566 1.391 . S
H3568 C3576 0.950 . S
H3569 C3581 0.950 . S
H3570 C3578 0.950 . S
H3571 C3580 0.950 . S
H3572 C3582 0.950 . S
H3573 C3584 0.950 . S
H3574 C3586 0.950 . S
H3575 C3587 0.950 . S
C3576 H3568 0.950 . S
C3576 C3577 1.386 . S
C3576 C3578 1.391 . S
C3577 C3576 1.386 . S
C3577 C3581 1.393 . S
C3578 H3570 0.950 . S
C3578 C3576 1.391 . S
C3578 C3579 1.400 . S
C3579 C3578 1.400 . S
C3579 C3580 1.398 . S
C3579 C3585 1.491 . S
C3580 H3571 0.950 . S
C3580 C3579 1.398 . S
C3580 C3581 1.391 . S
C3581 H3569 0.950 . S
C3581 C3577 1.393 . S
C3581 C3580 1.391 . S
C3582 H3572 0.950 . S
C3582 C3583 1.386 . S
C3582 C3584 1.391 . S
C3583 C3582 1.386 . S
C3583 C3587 1.393 . S
C3584 H3573 0.950 . S
C3584 C3582 1.391 . S
C3584 C3585 1.400 . S
C3585 C3579 1.491 . S
C3585 C3584 1.400 . S
C3585 C3586 1.398 . S
C3586 H3574 0.950 . S
C3586 C3585 1.398 . S
C3586 C3587 1.391 . S
C3587 H3575 0.950 . S
C3587 C3583 1.393 . S
C3587 C3586 1.391 . S
H3588 C3596 0.950 . S
H3589 C3601 0.950 . S
H3590 C3598 0.950 . S
H3591 C3600 0.950 . S
H3592 C3602 0.950 . S
H3593 C3604 0.950 . S
H3594 C3606 0.950 . S
H3595 C3607 0.950 . S
C3596 H3588 0.950 . S
C3596 C3597 1.386 . S
C3596 C3598 1.391 . S
C3597 C3596 1.386 . S
C3597 C3601 1.393 . S
C3598 H3590 0.950 . S
C3598 C3596 1.391 . S
C3598 C3599 1.400 . S
C3599 C3598 1.400 . S
C3599 C3600 1.398 . S
C3599 C3605 1.491 . S
C3600 H3591 0.950 . S
C3600 C3599 1.398 . S
C3600 C3601 1.391 . S
C3601 H3589 0.950 . S
C3601 C3597 1.393 . S
C3601 C3600 1.391 . S
C3602 H3592 0.950 . S
C3602 C3603 1.386 . S
C3602 C3604 1.391 . S
C3603 C3602 1.386 . S
C3603 C3607 1.393 . S
C3604 H3593 0.950 . S
C3604 C3602 1.391 . S
C3604 C3605 1.400 . S
C3605 C3599 1.491 . S
C3605 C3604 1.400 . S
C3605 C3606 1.398 . S
C3606 H3594 0.950 . S
C3606 C3605 1.398 . S
C3606 C3607 1.391 . S
C3607 H3595 0.950 . S
C3607 C3603 1.393 . S
C3607 C3606 1.391 . S
H3608 C3616 0.950 . S
H3609 C3621 0.950 . S
H3610 C3618 0.950 . S
H3611 C3620 0.950 . S
H3612 C3622 0.950 . S
H3613 C3624 0.950 . S
H3614 C3626 0.950 . S
H3615 C3627 0.950 . S
C3616 H3608 0.950 . S
C3616 C3617 1.386 . S
C3616 C3618 1.391 . S
C3617 C3616 1.386 . S
C3617 C3621 1.393 . S
C3618 H3610 0.950 . S
C3618 C3616 1.391 . S
C3618 C3619 1.400 . S
C3619 C3618 1.400 . S
C3619 C3620 1.398 . S
C3619 C3625 1.491 . S
C3620 H3611 0.950 . S
C3620 C3619 1.398 . S
C3620 C3621 1.391 . S
C3621 H3609 0.950 . S
C3621 C3617 1.393 . S
C3621 C3620 1.391 . S
C3622 H3612 0.950 . S
C3622 C3623 1.386 . S
C3622 C3624 1.391 . S
C3623 C3622 1.386 . S
C3623 C3627 1.393 . S
C3624 H3613 0.950 . S
C3624 C3622 1.391 . S
C3624 C3625 1.400 . S
C3625 C3619 1.491 . S
C3625 C3624 1.400 . S
C3625 C3626 1.398 . S
C3626 H3614 0.950 . S
C3626 C3625 1.398 . S
C3626 C3627 1.391 . S
C3627 H3615 0.950 . S
C3627 C3623 1.393 . S
C3627 C3626 1.391 . S
H3628 C3636 0.950 . S
H3629 C3641 0.950 . S
H3630 C3638 0.950 . S
H3631 C3640 0.950 . S
H3632 C3642 0.950 . S
H3633 C3644 0.950 . S
H3634 C3646 0.950 . S
H3635 C3647 0.950 . S
C3636 H3628 0.950 . S
C3636 C3637 1.386 . S
C3636 C3638 1.391 . S
C3637 C3636 1.386 . S
C3637 C3641 1.393 . S
C3638 H3630 0.950 . S
C3638 C3636 1.391 . S
C3638 C3639 1.400 . S
C3639 C3638 1.400 . S
C3639 C3640 1.398 . S
C3639 C3645 1.491 . S
C3640 H3631 0.950 . S
C3640 C3639 1.398 . S
C3640 C3641 1.391 . S
C3641 H3629 0.950 . S
C3641 C3637 1.393 . S
C3641 C3640 1.391 . S
C3642 H3632 0.950 . S
C3642 C3643 1.386 . S
C3642 C3644 1.391 . S
C3643 C3642 1.386 . S
C3643 C3647 1.393 . S
C3644 H3633 0.950 . S
C3644 C3642 1.391 . S
C3644 C3645 1.400 . S
C3645 C3639 1.491 . S
C3645 C3644 1.400 . S
C3645 C3646 1.398 . S
C3646 H3634 0.950 . S
C3646 C3645 1.398 . S
C3646 C3647 1.391 . S
C3647 H3635 0.950 . S
C3647 C3643 1.393 . S
C3647 C3646 1.391 . S
C1737 C14 0.750 . S
C1743 C950 0.657 . S
C1757 C986 0.730 . S
C1763 C50 0.701 . S
C1777 C86 0.696 . S
C1783 C878 0.729 . S
C1797 C914 0.846 . S
C1803 C122 0.802 1_554 S
C1817 C158 0.610 . S
C1823 C1094 0.865 . S
C1837 C194 0.713 . S
C1843 C1130 0.719 . S
C1857 C230 0.758 . S
C1863 C1022 0.784 . S
C1877 C266 0.786 . S
C1883 C1058 0.801 . S
C1897 C446 0.646 . S
C1903 C302 0.747 . S
C1917 C338 0.748 1_545 S
C1923 C482 0.885 . S
C1937 C518 0.623 . S
C1943 C374 0.854 . S
C1957 C410 0.716 . S
C1963 C554 0.865 . S
C1977 C1562 0.662 . S
C1983 C590 0.748 . S
C1997 C1634 0.618 . S
C2003 C626 0.858 . S
C2017 C806 0.898 . S
C2023 C662 0.723 1_455 S
C2037 C1454 0.757 . S
C2043 C698 0.670 . S
C2057 C1706 0.777 . S
C2063 C734 0.814 . S
C2077 C1490 0.700 . S
C2083 C770 0.822 . S
C2097 C842 0.662 . S
C2103 C1598 0.778 . S
C2117 C1166 0.720 . S
C2123 C1310 0.704 . S
C2137 C1346 0.747 . S
C2143 C1202 0.662 . S
C2157 C1238 0.732 . S
C2163 C1382 0.800 . S
C2177 C1418 0.711 . S
C2183 C1274 0.722 . S
C2197 C1526 0.754 . S
C2203 C1670 0.654 . S
C2217 C2 0.270 . S
C2223 C254 0.593 . S
C2237 C146 0.541 . S
C2243 C38 0.233 . S
C2257 C74 0.371 . S
C2263 C182 0.405 . S
C2277 C110 0.431 . S
C2283 C218 0.497 . S
C2297 C722 0.595 . S
C2303 C290 0.282 . S
C2317 C1478 0.464 . S
C2323 C326 0.419 . S
C2337 C362 0.638 . S
C2343 C1514 0.418 . S
C2357 C398 0.730 . S
C2363 C1550 0.285 . S
C2377 C1694 0.705 . S
C2383 C434 0.328 . S
C2397 C470 0.399 . S
C2403 C758 0.440 . S
C2417 C506 0.585 . S
C2423 C1658 0.289 . S
C2437 C542 0.621 . S
C2443 C578 0.237 . S
C2457 C614 0.637 . S
C2463 C1190 0.417 . S
C2477 C650 0.348 . S
C2483 C1226 0.455 . S
C2497 C1262 0.364 . S
C2503 C686 0.415 . S
C2517 C794 0.390 . S
C2523 C1370 0.451 . S
C2537 C1298 0.423 . S
C2543 C830 0.372 . S
C2557 C1118 0.410 . S
C2563 C866 0.472 . S
C2577 C902 0.389 . S
C2583 C1010 0.451 . S
C2597 C1046 0.713 . S
C2603 C938 0.250 . S
C2617 C974 0.404 . S
C2623 C1082 0.611 . S
C2637 C1154 0.503 . S
C2643 C1586 0.464 . S
C2657 C1622 0.599 . S
C2663 C1334 0.278 . S
C2677 C1442 0.411 . S
C2683 C1406 0.467 . S
C2697 C4 1.099 . S
C2703 C1048 1.454 . S
C2717 C1084 1.023 . S
C2723 C40 0.849 . S
C2737 C76 0.918 . S
C2743 C1120 1.036 . S
C2757 C112 1.022 . S
C2763 C1012 0.874 . S
C2777 C976 0.928 . S
C2783 C148 1.165 . S
C2797 C184 0.876 . S
C2803 C868 0.898 . S
C2817 C904 0.849 . S
C2823 C220 0.952 . S
C2837 C256 1.273 . S
C2843 C940 0.997 . S
C2857 C1696 1.457 . S
C2863 C292 1.124 . S
C2877 C328 1.009 . S
C2883 C760 0.919 . S
C2897 C364 1.019 . S
C2903 C1660 0.842 . S
C2917 C580 1.143 . S
C2923 C400 1.451 . S
C2937 C436 1.007 . S
C2943 C724 1.273 . S
C2957 C472 0.860 . S
C2963 C1480 0.934 . S
C2977 C1516 0.970 . S
C2983 C508 1.159 . S
C2997 C1552 1.054 . S
C3003 C544 1.264 . S
C3017 C1336 0.863 . S
C3023 C616 1.012 . S
C3037 C1372 0.926 . S
C3043 C652 1.005 . S
C3057 C1408 1.018 . S
C3063 C688 0.942 . S
C3077 C796 0.817 . S
C3083 C1228 0.942 . S
C3097 C1156 0.915 . S
C3103 C832 0.803 . S
C3117 C1192 0.932 . S
C3123 C1624 1.163 . S
C3137 C1264 0.798 . S
C3143 C1444 0.920 . S
C3157 C1588 1.047 . S
C3163 C1300 0.872 . S
C3177 C3 1.741 . S
C3183 C795 1.797 . S
C3197 C39 1.245 . S
C3203 C1443 1.243 . S
C3217 C831 1.610 . S
C3223 C75 1.598 . S
C3237 C1623 1.418 . S
C3243 C111 1.359 . S
C3257 C651 1.342 . S
C3263 C147 1.406 . S
C3277 C687 1.577 . S
C3283 C183 1.593 . S
C3297 C219 1.547 . S
C3303 C1587 1.590 . S
C3317 C255 1.640 . S
C3323 C615 1.595 . S
C3337 C471 1.797 . S
C3343 C291 1.754 . S
C3357 C327 1.332 . S
C3363 C507 1.400 . S
C3377 C543 1.665 . S
C3383 C363 1.628 . S
C3397 C435 1.454 . S
C3403 C399 1.457 . S
C3417 C579 1.759 . S
C3423 C903 1.800 . S
C3437 C1083 1.621 . S
C3443 C723 1.664 . S
C3457 C975 1.665 . S
C3463 C759 1.699 . S
C3477 C867 1.241 . S
C3483 C1659 1.262 . S
C3497 C1695 1.457 . S
C3503 C939 1.447 . S
C3517 C1515 1.691 . S
C3523 C1011 1.717 . S
C3537 C1551 1.471 . S
C3543 C1047 1.479 . S
C3557 C1479 1.513 . S
C3563 C1119 1.562 . S
C3577 C1335 1.251 . S
C3583 C1155 1.256 . S
C3597 C1371 1.712 . S
C3603 C1191 1.676 . S
C3617 C1227 1.530 . S
C3623 C1407 1.576 . S
C3637 C1263 1.601 . S
C3643 C1299 1.593 . S
