# Generated by pormake.
# Topology umw, (4)-cn, num edge types: 1
# Building blocks:
#     Node 0, Type 0, BuildingBlock: QUQFOY_clean_sbu_3, # of connection points: 4
#     Node 1, Type 0, BuildingBlock: QUQFOY_clean_sbu_3, # of connection points: 4
#     Node 2, Type 0, BuildingBlock: QUQFOY_clean_sbu_3, # of connection points: 4
#     Node 3, Type 0, BuildingBlock: QUQFOY_clean_sbu_3, # of connection points: 4
#     Node 4, Type 0, BuildingBlock: QUQFOY_clean_sbu_3, # of connection points: 4
#     Node 5, Type 0, BuildingBlock: QUQFOY_clean_sbu_3, # of connection points: 4
#     Node 6, Type 0, BuildingBlock: QUQFOY_clean_sbu_3, # of connection points: 4
#     Node 7, Type 0, BuildingBlock: QUQFOY_clean_sbu_3, # of connection points: 4
#     Edge 8, Type (0, 0), BuildingBlock: XIVTED_clean_linker_0, # of connection points: 2
#     Edge 9, Type (0, 0), BuildingBlock: XIVTED_clean_linker_0, # of connection points: 2
#     Edge 10, Type (0, 0), BuildingBlock: XIVTED_clean_linker_0, # of connection points: 2
#     Edge 11, Type (0, 0), BuildingBlock: XIVTED_clean_linker_0, # of connection points: 2
#     Edge 12, Type (0, 0), BuildingBlock: XIVTED_clean_linker_0, # of connection points: 2
#     Edge 13, Type (0, 0), BuildingBlock: XIVTED_clean_linker_0, # of connection points: 2
#     Edge 14, Type (0, 0), BuildingBlock: XIVTED_clean_linker_0, # of connection points: 2
#     Edge 15, Type (0, 0), BuildingBlock: XIVTED_clean_linker_0, # of connection points: 2
#     Edge 16, Type (0, 0), BuildingBlock: XIVTED_clean_linker_0, # of connection points: 2
#     Edge 17, Type (0, 0), BuildingBlock: XIVTED_clean_linker_0, # of connection points: 2
#     Edge 18, Type (0, 0), BuildingBlock: XIVTED_clean_linker_0, # of connection points: 2
#     Edge 19, Type (0, 0), BuildingBlock: XIVTED_clean_linker_0, # of connection points: 2
#     Edge 20, Type (0, 0), BuildingBlock: XIVTED_clean_linker_0, # of connection points: 2
#     Edge 21, Type (0, 0), BuildingBlock: XIVTED_clean_linker_0, # of connection points: 2
#     Edge 22, Type (0, 0), BuildingBlock: XIVTED_clean_linker_0, # of connection points: 2
#     Edge 23, Type (0, 0), BuildingBlock: XIVTED_clean_linker_0, # of connection points: 2
# Relax obj value: 0.126
# Max RMSD: 0.103
# Mean RMSD: 0.103
data_MOF--net-umw--node1-QUQFOY_clean_sbu_3--edge1-XIVTED_clean_linker_0
_symmetry_space_group_name_H-M    P1
_symmetry_Int_Tables_number       1
_symmetry_cell_setting            triclinic
loop_
_symmetry_equiv_pos_as_xyz
'x, y, z'
_cell_length_a     42.255867
_cell_length_b     42.330649
_cell_length_c     26.627022
_cell_angle_alpha  90.267683
_cell_angle_beta   90.062533
_cell_angle_gamma 90.122739
loop_
_atom_site_label
_atom_site_type_symbol
_atom_site_fract_x
_atom_site_fract_y
_atom_site_fract_z
_atom_type_partial_charge
C0 C 0.45587 0.22012 0.21009 0.0
O1 O 0.47956 0.21186 0.23614 0.0
Cd2 Cd 0.47893 0.18129 0.3089 0.0
O3 O 0.4277 0.21285 0.22349 0.0
Cd4 Cd 0.40498 0.18601 0.3004 0.0
C5 C 0.43578 0.1168 0.26605 0.0
O6 O 0.44193 0.20942 0.35819 0.0
O7 O 0.42123 0.16616 0.38378 0.0
O8 O 0.36137 0.22397 0.30757 0.0
C9 C 0.43745 0.19054 0.39393 0.0
O10 O 0.46177 0.12841 0.28207 0.0
C11 C 0.34203 0.20414 0.32594 0.0
O12 O 0.41072 0.1334 0.26519 0.0
O13 O 0.35096 0.1756 0.32756 0.0
C14 C 0.78462 0.46116 0.44035 0.0
O15 O 0.7963 0.48564 0.46083 0.0
Cd16 Cd 0.83366 0.48664 0.52572 0.0
O17 O 0.79207 0.43351 0.4554 0.0
Cd18 Cd 0.82304 0.41193 0.52846 0.0
C19 C 0.89232 0.43589 0.48186 0.0
O20 O 0.80826 0.45377 0.58396 0.0
O21 O 0.84807 0.42681 0.60967 0.0
O22 O 0.7771 0.3801 0.5454 0.0
C23 C 0.82733 0.44759 0.6189 0.0
O24 O 0.88246 0.46327 0.49417 0.0
C25 C 0.79167 0.35599 0.56127 0.0
O26 O 0.8748 0.4116 0.48744 0.0
O27 O 0.82163 0.35622 0.55692 0.0
C28 C 0.53792 0.8226 0.70923 0.0
O29 O 0.51642 0.82571 0.74215 0.0
Cd30 Cd 0.52143 0.826 0.83027 0.0
O31 O 0.56702 0.81985 0.72185 0.0
Cd32 Cd 0.59547 0.8192 0.80478 0.0
C33 C 0.5688 0.89154 0.84018 0.0
O34 O 0.55725 0.78369 0.84036 0.0
O35 O 0.5898 0.80333 0.89365 0.0
O36 O 0.63467 0.78062 0.77841 0.0
C37 C 0.5681 0.78348 0.8844 0.0
O38 O 0.54255 0.8781 0.84984 0.0
C39 C 0.65744 0.79366 0.80192 0.0
O40 O 0.59152 0.87606 0.82067 0.0
O41 O 0.65233 0.82104 0.81975 0.0
C42 C 0.17159 0.52434 -0.01033 0.0
O43 O 0.16776 0.50275 0.02206 0.0
Cd44 Cd 0.16773 0.50822 0.11062 0.0
O45 O 0.17532 0.55318 0.00313 0.0
Cd46 Cd 0.17696 0.58129 0.08644 0.0
C47 C 0.10374 0.55707 0.122 0.0
O48 O 0.21165 0.54243 0.12331 0.0
O49 O 0.19227 0.57615 0.17523 0.0
O50 O 0.21694 0.61932 0.06085 0.0
C51 C 0.21199 0.55428 0.16687 0.0
O52 O 0.11619 0.53039 0.13138 0.0
C53 C 0.20369 0.64285 0.08182 0.0
O54 O 0.12006 0.57914 0.10249 0.0
O55 O 0.17597 0.63847 0.09873 0.0
C56 C 0.47045 0.81318 0.34876 0.0
O57 O 0.49181 0.81527 0.31541 0.0
Cd58 Cd 0.48585 0.81674 0.22738 0.0
O59 O 0.44114 0.81148 0.33678 0.0
Cd60 Cd 0.41119 0.81081 0.25524 0.0
C61 C 0.43943 0.88329 0.22332 0.0
O62 O 0.44834 0.77583 0.21622 0.0
O63 O 0.41497 0.79623 0.16538 0.0
O64 O 0.37232 0.77192 0.28132 0.0
C65 C 0.43695 0.77647 0.17252 0.0
O66 O 0.46549 0.86976 0.21271 0.0
C67 C 0.34891 0.78596 0.26143 0.0
O68 O 0.41639 0.86766 0.24154 0.0
O69 O 0.35384 0.81369 0.24522 0.0
C70 C 0.1875 0.45668 0.62906 0.0
O71 O 0.18756 0.47876 0.59686 0.0
Cd72 Cd 0.19262 0.47774 0.50809 0.0
O73 O 0.18971 0.42768 0.61554 0.0
Cd74 Cd 0.19337 0.40133 0.53095 0.0
C75 C 0.12555 0.43533 0.48477 0.0
O76 O 0.232 0.43848 0.49939 0.0
O77 O 0.2156 0.40472 0.44553 0.0
O78 O 0.22362 0.3539 0.55337 0.0
C79 C 0.23399 0.42749 0.45547 0.0
O80 O 0.14055 0.46109 0.47813 0.0
C81 C 0.20539 0.33552 0.52865 0.0
O82 O 0.13887 0.41185 0.50561 0.0
O83 O 0.17994 0.34736 0.5119 0.0
C84 C 0.53499 0.22366 0.87154 0.0
O85 O 0.51501 0.2144 0.83908 0.0
Cd86 Cd 0.52717 0.1861 0.76583 0.0
O87 O 0.56467 0.21948 0.86464 0.0
Cd88 Cd 0.59887 0.19813 0.79445 0.0
C89 C 0.57249 0.12543 0.81642 0.0
O90 O 0.56651 0.21728 0.72724 0.0
O91 O 0.59596 0.17807 0.7071 0.0
O92 O 0.63293 0.24409 0.79917 0.0
C93 C 0.57749 0.19982 0.693 0.0
O94 O 0.5473 0.13543 0.79555 0.0
C95 C 0.65839 0.22965 0.78873 0.0
O96 O 0.596 0.14376 0.82381 0.0
O97 O 0.65689 0.1997 0.78675 0.0
C98 C 0.76796 0.52599 0.11063 0.0
O99 O 0.77916 0.50501 0.08158 0.0
Cd100 Cd 0.81636 0.51527 0.01843 0.0
O101 O 0.77465 0.55518 0.10422 0.0
Cd102 Cd 0.80353 0.58727 0.03934 0.0
C103 C 0.87194 0.56116 0.08322 0.0
O104 O 0.79176 0.55414 0.96885 0.0
O105 O 0.83373 0.58261 0.96061 0.0
O106 O 0.75712 0.61908 0.02602 0.0
C107 C 0.81289 0.56517 0.94039 0.0
O108 O 0.86338 0.53555 0.06174 0.0
C109 C 0.77163 0.64499 0.01945 0.0
O110 O 0.85397 0.58528 0.08352 0.0
O111 O 0.80116 0.6451 0.02858 0.0
H112 H 0.46517 0.24305 0.43252 0.0
H113 H 0.57069 0.14933 0.62941 0.0
H114 H 0.45577 0.14264 0.45605 0.0
H115 H 0.548 0.24818 0.6463 0.0
H116 H 0.53669 0.14702 0.55477 0.0
H117 H 0.50268 0.24576 0.50232 0.0
C118 C 0.47088 0.22163 0.4527 0.0
C119 C 0.45739 0.19261 0.43887 0.0
C120 C 0.53945 0.16922 0.57469 0.0
C121 C 0.50056 0.19543 0.51759 0.0
C122 C 0.55904 0.17065 0.61679 0.0
C123 C 0.56188 0.19897 0.64389 0.0
C124 C 0.52316 0.19642 0.55955 0.0
C125 C 0.54618 0.22587 0.62641 0.0
C126 C 0.49229 0.22318 0.4923 0.0
C127 C 0.46553 0.1655 0.46596 0.0
N128 N 0.52737 0.22394 0.58529 0.0
N129 N 0.48687 0.16752 0.50398 0.0
H130 H 0.87403 0.45285 0.69034 0.0
H131 H 0.7656 0.54707 0.87887 0.0
H132 H 0.78063 0.48601 0.65127 0.0
H133 H 0.86733 0.55458 0.88738 0.0
H134 H 0.77057 0.52059 0.79782 0.0
H135 H 0.87226 0.48582 0.76659 0.0
C136 C 0.85324 0.46703 0.69786 0.0
C137 C 0.82738 0.46671 0.66486 0.0
C138 C 0.79181 0.52835 0.81708 0.0
C139 C 0.82525 0.50398 0.75094 0.0
C140 C 0.78899 0.54336 0.86321 0.0
C141 C 0.81611 0.55283 0.8894 0.0
C142 C 0.82202 0.5222 0.79764 0.0
C143 C 0.84591 0.54766 0.86785 0.0
C144 C 0.85237 0.48594 0.74091 0.0
C145 C 0.80107 0.48559 0.67584 0.0
N146 N 0.84815 0.53216 0.82321 0.0
N147 N 0.80058 0.50328 0.71819 0.0
H148 H 0.4949 0.74838 0.17505 0.0
H149 H 0.51036 0.75491 0.8784 0.0
H150 H 0.41851 0.77221 0.07433 0.0
H151 H 0.58626 0.77596 0.98209 0.0
H152 H 0.47737 0.73849 0.94893 0.0
H153 H 0.528 0.73559 0.10267 0.0
C154 C 0.48483 0.75022 0.13774 0.0
C155 C 0.45428 0.76228 0.13036 0.0
C156 C 0.5015 0.74601 0.95595 0.0
C157 C 0.49181 0.74741 0.0481 0.0
C158 C 0.52034 0.75541 0.9159 0.0
C159 C 0.55072 0.76767 0.92484 0.0
C160 C 0.51334 0.74863 0.00494 0.0
C161 C 0.56266 0.76737 0.9739 0.0
C162 C 0.50375 0.74289 0.09662 0.0
C163 C 0.44224 0.76373 0.08141 0.0
N164 N 0.5437 0.75844 0.0124 0.0
N165 N 0.46128 0.75685 0.04189 0.0
H166 H 0.2538 0.48892 0.45927 0.0
H167 H 0.24615 0.49975 0.16226 0.0
H168 H 0.24546 0.40886 0.35907 0.0
H169 H 0.21827 0.57428 0.26416 0.0
H170 H 0.26733 0.47018 0.23323 0.0
H171 H 0.26291 0.52303 0.38686 0.0
C172 C 0.25478 0.47837 0.42216 0.0
C173 C 0.2479 0.44624 0.41476 0.0
C174 C 0.25716 0.49329 0.23982 0.0
C175 C 0.25832 0.48496 0.33242 0.0
C176 C 0.24498 0.51015 0.19946 0.0
C177 C 0.22958 0.53904 0.20774 0.0
C178 C 0.25396 0.50552 0.28856 0.0
C179 C 0.22926 0.55169 0.25645 0.0
C180 C 0.25991 0.49786 0.38096 0.0
C181 C 0.24987 0.4337 0.3661 0.0
N182 N 0.24082 0.53458 0.29529 0.0
N183 N 0.25436 0.45323 0.32653 0.0
H184 H 0.31558 0.17733 0.40848 0.0
H185 H 0.25459 0.29891 0.56268 0.0
H186 H 0.30494 0.25567 0.30681 0.0
H187 H 0.18369 0.30426 0.44615 0.0
H188 H 0.28201 0.25804 0.51342 0.0
H189 H 0.27615 0.20149 0.46439 0.0
C190 C 0.30421 0.19908 0.39714 0.0
C191 C 0.31352 0.21467 0.35306 0.0
C192 C 0.2599 0.26759 0.49964 0.0
C193 C 0.26854 0.24187 0.41629 0.0
C194 C 0.24425 0.29079 0.52767 0.0
C195 C 0.2169 0.30508 0.50845 0.0
C196 C 0.24853 0.25951 0.4517 0.0
C197 C 0.2047 0.29389 0.46249 0.0
C198 C 0.28202 0.21285 0.42923 0.0
C199 C 0.29843 0.24301 0.3405 0.0
N200 N 0.22118 0.27252 0.43485 0.0
N201 N 0.2766 0.25576 0.37207 0.0
H202 H 0.8154 0.30246 0.60707 0.0
H203 H 0.66658 0.29338 0.78605 0.0
H204 H 0.7295 0.35597 0.58632 0.0
H205 H 0.712 0.20601 0.74337 0.0
H206 H 0.70254 0.32191 0.7309 0.0
H207 H 0.78778 0.26999 0.67025 0.0
C208 C 0.79071 0.30704 0.61508 0.0
C209 C 0.77476 0.33205 0.59147 0.0
C210 C 0.70496 0.29652 0.73434 0.0
C211 C 0.74391 0.29619 0.66451 0.0
C212 C 0.68466 0.28024 0.76617 0.0
C213 C 0.68587 0.24718 0.76861 0.0
C214 C 0.72684 0.27977 0.70507 0.0
C215 C 0.71008 0.23151 0.74219 0.0
C216 C 0.77515 0.28872 0.65128 0.0
C217 C 0.74284 0.33708 0.60353 0.0
N218 N 0.72946 0.24792 0.71079 0.0
N219 N 0.72868 0.31968 0.63968 0.0
H220 H 0.71175 0.64583 0.98232 0.0
H221 H 0.70763 0.81284 0.86054 0.0
H222 H 0.79632 0.70299 -0.00721 0.0
H223 H 0.66681 0.73042 0.78938 0.0
H224 H 0.73884 0.77805 0.91498 0.0
H225 H 0.69005 0.68299 0.92208 0.0
C226 C 0.72557 0.66653 0.97275 0.0
C227 C 0.75604 0.67116 -0.00754 0.0
C228 C 0.72359 0.76776 0.88655 0.0
C229 C 0.73128 0.71365 0.92286 0.0
C230 C 0.70598 0.78751 0.85516 0.0
C231 C 0.68412 0.77452 0.82088 0.0
C232 C 0.71872 0.73503 0.88402 0.0
C233 C 0.68301 0.74154 0.81559 0.0
C234 C 0.7133 0.68747 0.93777 0.0
C235 C 0.77275 0.69852 0.97844 0.0
N236 N 0.69939 0.72295 0.84777 0.0
N237 N 0.76012 0.71887 0.94434 0.0
H238 H 0.26749 0.65063 0.07526 0.0
H239 H 0.29345 0.8086 0.22096 0.0
H240 H 0.18288 0.6976 0.12705 0.0
H241 H 0.34089 0.72223 0.26203 0.0
H242 H 0.25482 0.77722 0.1724 0.0
H243 H 0.29925 0.68806 0.12383 0.0
C244 C 0.25556 0.66938 0.09554 0.0
C245 C 0.22242 0.67073 0.09758 0.0
C246 C 0.27343 0.76534 0.19294 0.0
C247 C 0.25874 0.71339 0.15331 0.0
C248 C 0.29526 0.78308 0.22093 0.0
C249 C 0.32057 0.76801 0.24537 0.0
C250 C 0.27767 0.73263 0.18846 0.0
C251 C 0.32189 0.7349 0.24381 0.0
C252 C 0.27372 0.69042 0.12373 0.0
C253 C 0.20837 0.69561 0.12475 0.0
N254 N 0.30122 0.7184 0.21478 0.0
N255 N 0.22665 0.71597 0.15202 0.0
H256 H 0.48573 0.92463 0.19446 0.0
H257 H 0.38343 0.07936 0.25152 0.0
H258 H 0.38799 0.92129 0.24153 0.0
H259 H 0.48552 0.07784 0.24495 0.0
H260 H 0.38265 0.02273 0.23218 0.0
H261 H 0.48357 0.98214 0.19636 0.0
C262 C 0.46368 0.93594 0.20469 0.0
C263 C 0.43709 0.91802 0.21847 0.0
C264 C 0.40517 0.03491 0.23464 0.0
C265 C 0.43457 0.98401 0.22083 0.0
C266 C 0.40565 0.06722 0.2455 0.0
C267 C 0.43461 0.08329 0.25031 0.0
C268 C 0.43382 0.01869 0.22803 0.0
C269 C 0.46266 0.06635 0.24213 0.0
C270 C 0.46252 0.96882 0.20591 0.0
C271 C 0.40914 0.93412 0.23107 0.0
N272 N 0.46156 0.03498 0.23154 0.0
N273 N 0.40867 0.96623 0.23229 0.0
H274 H 0.92868 0.38214 0.4794 0.0
H275 H 0.0881 0.48141 0.44404 0.0
H276 H 0.93211 0.4822 0.44913 0.0
H277 H 0.0857 0.38441 0.49354 0.0
H278 H 0.03112 0.4791 0.42969 0.0
H279 H 0.98614 0.37963 0.46796 0.0
C280 C 0.9414 0.40344 0.46938 0.0
C281 C 0.92566 0.43251 0.466 0.0
C282 C 0.0431 0.45822 0.44325 0.0
C283 C 0.99126 0.42987 0.45331 0.0
C284 C 0.07568 0.45952 0.45146 0.0
C285 C 0.09169 0.43322 0.47079 0.0
C286 C 0.02633 0.43046 0.45453 0.0
C287 C 0.07431 0.40541 0.47921 0.0
C288 C 0.9742 0.40203 0.46314 0.0
C289 C 0.94333 0.45936 0.4529 0.0
N290 N 0.04252 0.40486 0.47151 0.0
N291 N 0.97519 0.45745 0.44757 0.0
H292 H 0.52375 0.93211 0.8755 0.0
H293 H 0.62548 0.08883 0.8297 0.0
H294 H 0.62038 0.92981 0.82279 0.0
H295 H 0.52343 0.08548 0.83475 0.0
H296 H 0.6268 0.03159 0.84474 0.0
H297 H 0.52653 0.9895 0.8792 0.0
C298 C 0.5457 0.94361 0.86515 0.0
C299 C 0.57174 0.92606 0.84811 0.0
C300 C 0.60419 0.04355 0.84298 0.0
C301 C 0.57498 0.99196 0.85223 0.0
C302 C 0.60342 0.07615 0.83465 0.0
C303 C 0.57429 0.0918 0.83052 0.0
C304 C 0.57565 0.02679 0.84793 0.0
C305 C 0.5464 0.07429 0.83707 0.0
C306 C 0.54722 0.97643 0.86718 0.0
C307 C 0.59962 0.9424 0.83566 0.0
N308 N 0.54778 0.04275 0.84533 0.0
N309 N 0.60044 0.97451 0.8376 0.0
H310 H 0.9077 0.51274 0.11841 0.0
H311 H 0.0676 0.60974 0.10364 0.0
H312 H 0.90963 0.61354 0.09529 0.0
H313 H 0.06136 0.51413 0.15876 0.0
H314 H 0.00987 0.61343 0.1071 0.0
H315 H 0.96362 0.51429 0.14051 0.0
C316 C 0.91986 0.5353 0.11863 0.0
C317 C 0.90415 0.563 0.10447 0.0
C318 C 0.0212 0.59183 0.11911 0.0
C319 C 0.96841 0.56493 0.1289 0.0
C320 C 0.05417 0.58966 0.11706 0.0
C321 C 0.06937 0.56138 0.13013 0.0
C322 C 0.00335 0.56544 0.13392 0.0
C323 C 0.05073 0.53627 0.14766 0.0
C324 C 0.95181 0.5362 0.13133 0.0
C325 C 0.92094 0.59163 0.10588 0.0
N326 N 0.01873 0.53876 0.14839 0.0
N327 N 0.95238 0.59179 0.11698 0.0
H328 H 0.56842 0.24078 0.9562 0.0
H329 H 0.41796 0.22266 0.12608 0.0
H330 H 0.47352 0.23582 0.89616 0.0
H331 H 0.50919 0.25168 0.18319 0.0
H332 H 0.43579 0.23564 0.04114 0.0
H333 H 0.54623 0.25264 0.03887 0.0
C334 C 0.54299 0.2427 0.96017 0.0
C335 C 0.52283 0.23652 0.91947 0.0
C336 C 0.45166 0.23983 0.07244 0.0
C337 C 0.49723 0.2497 0.01389 0.0
C338 C 0.44139 0.23254 0.12092 0.0
C339 C 0.46241 0.23529 0.16143 0.0
C340 C 0.48316 0.24958 0.06476 0.0
C341 C 0.49249 0.24838 0.15272 0.0
C342 C 0.53028 0.24952 0.00737 0.0
C343 C 0.49001 0.23971 0.92671 0.0
N344 N 0.5022 0.2544 0.10526 0.0
N345 N 0.47823 0.24546 0.97318 0.0
H346 H 0.74821 0.46618 0.1331 0.0
H347 H 0.74829 0.51228 0.41985 0.0
H348 H 0.74928 0.56141 0.19201 0.0
H349 H 0.77398 0.42072 0.36107 0.0
H350 H 0.72608 0.52609 0.3384 0.0
H351 H 0.73507 0.44662 0.21644 0.0
C352 C 0.74493 0.48311 0.16328 0.0
C353 C 0.75108 0.51543 0.15608 0.0
C354 C 0.73588 0.50271 0.3436 0.0
C355 C 0.73602 0.49305 0.25129 0.0
C356 C 0.74864 0.49481 0.38999 0.0
C357 C 0.76397 0.46572 0.39646 0.0
C358 C 0.73888 0.48153 0.30332 0.0
C359 C 0.76294 0.44363 0.35719 0.0
C360 C 0.73738 0.47185 0.21081 0.0
C361 C 0.74558 0.53625 0.19616 0.0
N362 N 0.75134 0.45231 0.31167 0.0
N363 N 0.73906 0.52461 0.24244 0.0
H364 H 0.47796 0.82601 0.67184 0.0
H365 H 0.53073 0.81155 0.38538 0.0
H366 H 0.57536 0.81606 0.62517 0.0
H367 H 0.43315 0.81499 0.43336 0.0
H368 H 0.54748 0.81348 0.47268 0.0
H369 H 0.4614 0.82272 0.58468 0.0
C370 C 0.49597 0.82319 0.64326 0.0
C371 C 0.5282 0.82133 0.65596 0.0
C372 C 0.52241 0.81374 0.4642 0.0
C373 C 0.50915 0.81747 0.55565 0.0
C374 C 0.51275 0.81266 0.41428 0.0
C375 C 0.4804 0.81323 0.40194 0.0
C376 C 0.49962 0.8155 0.50227 0.0
C377 C 0.4583 0.81453 0.4411 0.0
C378 C 0.48639 0.82124 0.59339 0.0
C379 C 0.5503 0.81764 0.61714 0.0
N380 N 0.46834 0.81573 0.48957 0.0
N381 N 0.54034 0.81584 0.56864 0.0
H382 H 0.17924 0.56253 0.9072 0.0
H383 H 0.18241 0.41786 0.7116 0.0
H384 H 0.16675 0.46495 0.94986 0.0
H385 H 0.18659 0.51611 0.66881 0.0
H386 H 0.17777 0.4344 0.79962 0.0
H387 H 0.18282 0.54576 0.81936 0.0
C388 C 0.17715 0.53764 0.89815 0.0
C389 C 0.17273 0.51517 0.93602 0.0
C390 C 0.17967 0.45228 0.77083 0.0
C391 C 0.17695 0.49576 0.83571 0.0
C392 C 0.18238 0.44283 0.72063 0.0
C393 C 0.18488 0.46557 0.6827 0.0
C394 C 0.17959 0.48466 0.78305 0.0
C395 C 0.18467 0.49766 0.69664 0.0
C396 C 0.17922 0.52805 0.848 0.0
C397 C 0.17019 0.48318 0.92202 0.0
N398 N 0.18211 0.5062 0.74558 0.0
N399 N 0.17242 0.47445 0.87307 0.0
loop_
_geom_bond_atom_site_label_1
_geom_bond_atom_site_label_2
_geom_bond_distance
_geom_bond_site_symmetry_2
_ccdc_geom_bond_type
C0 O1 1.306 . S
C0 O3 1.160 . S
O1 C0 1.306 . S
O1 Cd2 2.228 . S
Cd2 O1 2.228 . S
Cd2 O6 2.273 . S
Cd2 O10 2.277 . S
O3 C0 1.160 . S
O3 Cd4 2.203 . S
Cd4 O3 2.203 . S
Cd4 O6 2.411 . S
Cd4 O7 2.333 . S
Cd4 O8 2.352 . S
Cd4 O12 2.277 . S
Cd4 O13 2.356 . S
C5 O10 1.209 . S
C5 O12 1.226 . S
O6 Cd2 2.273 . S
O6 Cd4 2.411 . S
O6 C9 1.320 . S
O7 Cd4 2.333 . S
O7 C9 1.214 . S
O8 Cd4 2.352 . S
O8 C11 1.258 . S
C9 O6 1.320 . S
C9 O7 1.214 . S
O10 Cd2 2.277 . S
O10 C5 1.209 . S
C11 O8 1.258 . S
C11 O13 1.282 . S
O12 Cd4 2.277 . S
O12 C5 1.226 . S
O13 Cd4 2.356 . S
O13 C11 1.282 . S
C14 O15 1.306 . S
C14 O17 1.160 . S
O15 C14 1.306 . S
O15 Cd16 2.228 . S
Cd16 O15 2.228 . S
Cd16 O20 2.273 . S
Cd16 O24 2.277 . S
O17 C14 1.160 . S
O17 Cd18 2.203 . S
Cd18 O17 2.203 . S
Cd18 O20 2.411 . S
Cd18 O21 2.333 . S
Cd18 O22 2.352 . S
Cd18 O26 2.277 . S
Cd18 O27 2.356 . S
C19 O24 1.209 . S
C19 O26 1.226 . S
O20 Cd16 2.273 . S
O20 Cd18 2.411 . S
O20 C23 1.320 . S
O21 Cd18 2.333 . S
O21 C23 1.214 . S
O22 Cd18 2.352 . S
O22 C25 1.258 . S
C23 O20 1.320 . S
C23 O21 1.214 . S
O24 Cd16 2.277 . S
O24 C19 1.209 . S
C25 O22 1.258 . S
C25 O27 1.282 . S
O26 Cd18 2.277 . S
O26 C19 1.226 . S
O27 Cd18 2.356 . S
O27 C25 1.282 . S
C28 O29 1.306 . S
C28 O31 1.160 . S
O29 C28 1.306 . S
O29 Cd30 2.228 . S
Cd30 O29 2.228 . S
Cd30 O34 2.273 . S
Cd30 O38 2.277 . S
O31 C28 1.160 . S
O31 Cd32 2.203 . S
Cd32 O31 2.203 . S
Cd32 O34 2.411 . S
Cd32 O35 2.333 . S
Cd32 O36 2.352 . S
Cd32 O40 2.277 . S
Cd32 O41 2.356 . S
C33 O38 1.209 . S
C33 O40 1.226 . S
O34 Cd30 2.273 . S
O34 Cd32 2.411 . S
O34 C37 1.320 . S
O35 Cd32 2.333 . S
O35 C37 1.214 . S
O36 Cd32 2.352 . S
O36 C39 1.258 . S
C37 O34 1.320 . S
C37 O35 1.214 . S
O38 Cd30 2.277 . S
O38 C33 1.209 . S
C39 O36 1.258 . S
C39 O41 1.282 . S
O40 Cd32 2.277 . S
O40 C33 1.226 . S
O41 Cd32 2.356 . S
O41 C39 1.282 . S
C42 O43 1.306 1_556 S
C42 O45 1.160 . S
O43 C42 1.306 1_554 S
O43 Cd44 2.228 . S
Cd44 O43 2.228 . S
Cd44 O48 2.273 . S
Cd44 O52 2.277 . S
O45 C42 1.160 . S
O45 Cd46 2.203 1_556 S
Cd46 O45 2.203 1_554 S
Cd46 O48 2.411 . S
Cd46 O49 2.333 . S
Cd46 O50 2.352 . S
Cd46 O54 2.277 . S
Cd46 O55 2.356 . S
C47 O52 1.209 . S
C47 O54 1.226 . S
O48 Cd44 2.273 . S
O48 Cd46 2.411 . S
O48 C51 1.320 . S
O49 Cd46 2.333 . S
O49 C51 1.214 . S
O50 Cd46 2.352 . S
O50 C53 1.258 . S
C51 O48 1.320 . S
C51 O49 1.214 . S
O52 Cd44 2.277 . S
O52 C47 1.209 . S
C53 O50 1.258 . S
C53 O55 1.282 . S
O54 Cd46 2.277 . S
O54 C47 1.226 . S
O55 Cd46 2.356 . S
O55 C53 1.282 . S
C56 O57 1.306 . S
C56 O59 1.160 . S
O57 C56 1.306 . S
O57 Cd58 2.228 . S
Cd58 O57 2.228 . S
Cd58 O62 2.273 . S
Cd58 O66 2.277 . S
O59 C56 1.160 . S
O59 Cd60 2.203 . S
Cd60 O59 2.203 . S
Cd60 O62 2.411 . S
Cd60 O63 2.333 . S
Cd60 O64 2.352 . S
Cd60 O68 2.277 . S
Cd60 O69 2.356 . S
C61 O66 1.209 . S
C61 O68 1.226 . S
O62 Cd58 2.273 . S
O62 Cd60 2.411 . S
O62 C65 1.320 . S
O63 Cd60 2.333 . S
O63 C65 1.214 . S
O64 Cd60 2.352 . S
O64 C67 1.258 . S
C65 O62 1.320 . S
C65 O63 1.214 . S
O66 Cd58 2.277 . S
O66 C61 1.209 . S
C67 O64 1.258 . S
C67 O69 1.282 . S
O68 Cd60 2.277 . S
O68 C61 1.226 . S
O69 Cd60 2.356 . S
O69 C67 1.282 . S
C70 O71 1.306 . S
C70 O73 1.160 . S
O71 C70 1.306 . S
O71 Cd72 2.228 . S
Cd72 O71 2.228 . S
Cd72 O76 2.273 . S
Cd72 O80 2.277 . S
O73 C70 1.160 . S
O73 Cd74 2.203 . S
Cd74 O73 2.203 . S
Cd74 O76 2.411 . S
Cd74 O77 2.333 . S
Cd74 O78 2.352 . S
Cd74 O82 2.277 . S
Cd74 O83 2.356 . S
C75 O80 1.209 . S
C75 O82 1.226 . S
O76 Cd72 2.273 . S
O76 Cd74 2.411 . S
O76 C79 1.320 . S
O77 Cd74 2.333 . S
O77 C79 1.214 . S
O78 Cd74 2.352 . S
O78 C81 1.258 . S
C79 O76 1.320 . S
C79 O77 1.214 . S
O80 Cd72 2.277 . S
O80 C75 1.209 . S
C81 O78 1.258 . S
C81 O83 1.282 . S
O82 Cd74 2.277 . S
O82 C75 1.226 . S
O83 Cd74 2.356 . S
O83 C81 1.282 . S
C84 O85 1.306 . S
C84 O87 1.160 . S
O85 C84 1.306 . S
O85 Cd86 2.228 . S
Cd86 O85 2.228 . S
Cd86 O90 2.273 . S
Cd86 O94 2.277 . S
O87 C84 1.160 . S
O87 Cd88 2.203 . S
Cd88 O87 2.203 . S
Cd88 O90 2.411 . S
Cd88 O91 2.333 . S
Cd88 O92 2.352 . S
Cd88 O96 2.277 . S
Cd88 O97 2.356 . S
C89 O94 1.209 . S
C89 O96 1.226 . S
O90 Cd86 2.273 . S
O90 Cd88 2.411 . S
O90 C93 1.320 . S
O91 Cd88 2.333 . S
O91 C93 1.214 . S
O92 Cd88 2.352 . S
O92 C95 1.258 . S
C93 O90 1.320 . S
C93 O91 1.214 . S
O94 Cd86 2.277 . S
O94 C89 1.209 . S
C95 O92 1.258 . S
C95 O97 1.282 . S
O96 Cd88 2.277 . S
O96 C89 1.226 . S
O97 Cd88 2.356 . S
O97 C95 1.282 . S
C98 O99 1.306 . S
C98 O101 1.160 . S
O99 C98 1.306 . S
O99 Cd100 2.228 . S
Cd100 O99 2.228 . S
Cd100 O104 2.273 1_554 S
Cd100 O108 2.277 . S
O101 C98 1.160 . S
O101 Cd102 2.203 . S
Cd102 O101 2.203 . S
Cd102 O104 2.411 1_554 S
Cd102 O105 2.333 1_554 S
Cd102 O106 2.352 . S
Cd102 O110 2.277 . S
Cd102 O111 2.356 . S
C103 O108 1.209 . S
C103 O110 1.226 . S
O104 Cd100 2.273 1_556 S
O104 Cd102 2.411 1_556 S
O104 C107 1.320 . S
O105 Cd102 2.333 1_556 S
O105 C107 1.214 . S
O106 Cd102 2.352 . S
O106 C109 1.258 . S
C107 O104 1.320 . S
C107 O105 1.214 . S
O108 Cd100 2.277 . S
O108 C103 1.209 . S
C109 O106 1.258 . S
C109 O111 1.282 . S
O110 Cd102 2.277 . S
O110 C103 1.226 . S
O111 Cd102 2.356 . S
O111 C109 1.282 . S
H112 C118 0.930 . S
H113 C122 0.930 . S
H114 C127 0.929 . S
H115 C125 0.929 . S
H116 C120 0.929 . S
H117 C126 0.929 . S
C118 H112 0.930 . S
C118 C119 1.367 . S
C118 C126 1.378 . S
C119 C118 1.367 . S
C119 C127 1.433 . S
C120 H116 0.929 . S
C120 C122 1.378 . S
C120 C124 1.350 . S
C121 C124 1.463 . S
C121 C126 1.350 . S
C121 N129 1.427 . S
C122 H113 0.930 . S
C122 C120 1.378 . S
C122 C123 1.367 . S
C123 C122 1.367 . S
C123 C125 1.433 . S
C124 C120 1.350 . S
C124 C121 1.463 . S
C124 N128 1.427 . S
C125 H115 0.929 . S
C125 C123 1.433 . S
C125 N128 1.384 . S
C126 H117 0.929 . S
C126 C118 1.378 . S
C126 C121 1.350 . S
C127 H114 0.929 . S
C127 C119 1.433 . S
C127 N129 1.384 . S
N128 C124 1.427 . S
N128 C125 1.384 . S
N129 C121 1.427 . S
N129 C127 1.384 . S
H130 C136 0.930 . S
H131 C140 0.930 . S
H132 C145 0.929 . S
H133 C143 0.929 . S
H134 C138 0.929 . S
H135 C144 0.929 . S
C136 H130 0.930 . S
C136 C137 1.367 . S
C136 C144 1.378 . S
C137 C136 1.367 . S
C137 C145 1.433 . S
C138 H134 0.929 . S
C138 C140 1.378 . S
C138 C142 1.350 . S
C139 C142 1.463 . S
C139 C144 1.350 . S
C139 N147 1.427 . S
C140 H131 0.930 . S
C140 C138 1.378 . S
C140 C141 1.367 . S
C141 C140 1.367 . S
C141 C143 1.433 . S
C142 C138 1.350 . S
C142 C139 1.463 . S
C142 N146 1.427 . S
C143 H133 0.929 . S
C143 C141 1.433 . S
C143 N146 1.384 . S
C144 H135 0.929 . S
C144 C136 1.378 . S
C144 C139 1.350 . S
C145 H132 0.929 . S
C145 C137 1.433 . S
C145 N147 1.384 . S
N146 C142 1.427 . S
N146 C143 1.384 . S
N147 C139 1.427 . S
N147 C145 1.384 . S
H148 C154 0.930 . S
H149 C158 0.930 . S
H150 C163 0.929 . S
H151 C161 0.929 . S
H152 C156 0.929 . S
H153 C162 0.929 . S
C154 H148 0.930 . S
C154 C155 1.367 . S
C154 C162 1.378 . S
C155 C154 1.367 . S
C155 C163 1.433 . S
C156 H152 0.929 . S
C156 C158 1.378 . S
C156 C160 1.350 1_556 S
C157 C160 1.463 . S
C157 C162 1.350 . S
C157 N165 1.427 . S
C158 H149 0.930 . S
C158 C156 1.378 . S
C158 C159 1.367 . S
C159 C158 1.367 . S
C159 C161 1.433 . S
C160 C156 1.350 1_554 S
C160 C157 1.463 . S
C160 N164 1.427 . S
C161 H151 0.929 . S
C161 C159 1.433 . S
C161 N164 1.384 1_556 S
C162 H153 0.929 . S
C162 C154 1.378 . S
C162 C157 1.350 . S
C163 H150 0.929 . S
C163 C155 1.433 . S
C163 N165 1.384 . S
N164 C160 1.427 . S
N164 C161 1.384 1_554 S
N165 C157 1.427 . S
N165 C163 1.384 . S
H166 C172 0.930 . S
H167 C176 0.930 . S
H168 C181 0.929 . S
H169 C179 0.929 . S
H170 C174 0.929 . S
H171 C180 0.929 . S
C172 H166 0.930 . S
C172 C173 1.367 . S
C172 C180 1.378 . S
C173 C172 1.367 . S
C173 C181 1.433 . S
C174 H170 0.929 . S
C174 C176 1.378 . S
C174 C178 1.350 . S
C175 C178 1.463 . S
C175 C180 1.350 . S
C175 N183 1.427 . S
C176 H167 0.930 . S
C176 C174 1.378 . S
C176 C177 1.367 . S
C177 C176 1.367 . S
C177 C179 1.433 . S
C178 C174 1.350 . S
C178 C175 1.463 . S
C178 N182 1.427 . S
C179 H169 0.929 . S
C179 C177 1.433 . S
C179 N182 1.384 . S
C180 H171 0.929 . S
C180 C172 1.378 . S
C180 C175 1.350 . S
C181 H168 0.929 . S
C181 C173 1.433 . S
C181 N183 1.384 . S
N182 C178 1.427 . S
N182 C179 1.384 . S
N183 C175 1.427 . S
N183 C181 1.384 . S
H184 C190 0.930 . S
H185 C194 0.930 . S
H186 C199 0.929 . S
H187 C197 0.929 . S
H188 C192 0.929 . S
H189 C198 0.929 . S
C190 H184 0.930 . S
C190 C191 1.367 . S
C190 C198 1.378 . S
C191 C190 1.367 . S
C191 C199 1.433 . S
C192 H188 0.929 . S
C192 C194 1.378 . S
C192 C196 1.350 . S
C193 C196 1.463 . S
C193 C198 1.350 . S
C193 N201 1.427 . S
C194 H185 0.930 . S
C194 C192 1.378 . S
C194 C195 1.367 . S
C195 C194 1.367 . S
C195 C197 1.433 . S
C196 C192 1.350 . S
C196 C193 1.463 . S
C196 N200 1.427 . S
C197 H187 0.929 . S
C197 C195 1.433 . S
C197 N200 1.384 . S
C198 H189 0.929 . S
C198 C190 1.378 . S
C198 C193 1.350 . S
C199 H186 0.929 . S
C199 C191 1.433 . S
C199 N201 1.384 . S
N200 C196 1.427 . S
N200 C197 1.384 . S
N201 C193 1.427 . S
N201 C199 1.384 . S
H202 C208 0.930 . S
H203 C212 0.930 . S
H204 C217 0.929 . S
H205 C215 0.929 . S
H206 C210 0.929 . S
H207 C216 0.929 . S
C208 H202 0.930 . S
C208 C209 1.367 . S
C208 C216 1.378 . S
C209 C208 1.367 . S
C209 C217 1.433 . S
C210 H206 0.929 . S
C210 C212 1.378 . S
C210 C214 1.350 . S
C211 C214 1.463 . S
C211 C216 1.350 . S
C211 N219 1.427 . S
C212 H203 0.930 . S
C212 C210 1.378 . S
C212 C213 1.367 . S
C213 C212 1.367 . S
C213 C215 1.433 . S
C214 C210 1.350 . S
C214 C211 1.463 . S
C214 N218 1.427 . S
C215 H205 0.929 . S
C215 C213 1.433 . S
C215 N218 1.384 . S
C216 H207 0.929 . S
C216 C208 1.378 . S
C216 C211 1.350 . S
C217 H204 0.929 . S
C217 C209 1.433 . S
C217 N219 1.384 . S
N218 C214 1.427 . S
N218 C215 1.384 . S
N219 C211 1.427 . S
N219 C217 1.384 . S
H220 C226 0.930 . S
H221 C230 0.930 . S
H222 C235 0.929 . S
H223 C233 0.929 . S
H224 C228 0.929 . S
H225 C234 0.929 . S
C226 H220 0.930 . S
C226 C227 1.355 1_556 S
C226 C234 1.378 . S
C227 C226 1.355 1_554 S
C227 C235 1.438 . S
C228 H224 0.929 . S
C228 C230 1.378 . S
C228 C232 1.350 . S
C229 C232 1.463 . S
C229 C234 1.350 . S
C229 N237 1.427 . S
C230 H221 0.930 . S
C230 C228 1.378 . S
C230 C231 1.367 . S
C231 C230 1.367 . S
C231 C233 1.433 . S
C232 C228 1.350 . S
C232 C229 1.463 . S
C232 N236 1.427 . S
C233 H223 0.929 . S
C233 C231 1.433 . S
C233 N236 1.384 . S
C234 H225 0.929 . S
C234 C226 1.378 . S
C234 C229 1.350 . S
C235 H222 0.929 . S
C235 C227 1.438 . S
C235 N237 1.384 1_554 S
N236 C232 1.427 . S
N236 C233 1.384 . S
N237 C229 1.427 . S
N237 C235 1.384 1_556 S
H238 C244 0.930 . S
H239 C248 0.930 . S
H240 C253 0.929 . S
H241 C251 0.929 . S
H242 C246 0.929 . S
H243 C252 0.929 . S
C244 H238 0.930 . S
C244 C245 1.367 . S
C244 C252 1.378 . S
C245 C244 1.367 . S
C245 C253 1.433 . S
C246 H242 0.929 . S
C246 C248 1.378 . S
C246 C250 1.350 . S
C247 C250 1.463 . S
C247 C252 1.350 . S
C247 N255 1.427 . S
C248 H239 0.930 . S
C248 C246 1.378 . S
C248 C249 1.367 . S
C249 C248 1.367 . S
C249 C251 1.433 . S
C250 C246 1.350 . S
C250 C247 1.463 . S
C250 N254 1.427 . S
C251 H241 0.929 . S
C251 C249 1.433 . S
C251 N254 1.384 . S
C252 H243 0.929 . S
C252 C244 1.378 . S
C252 C247 1.350 . S
C253 H240 0.929 . S
C253 C245 1.433 . S
C253 N255 1.384 . S
N254 C250 1.427 . S
N254 C251 1.384 . S
N255 C247 1.427 . S
N255 C253 1.384 . S
H256 C262 0.930 . S
H257 C266 0.930 . S
H258 C271 0.929 . S
H259 C269 0.929 . S
H260 C264 0.929 . S
H261 C270 0.929 . S
C262 H256 0.930 . S
C262 C263 1.367 . S
C262 C270 1.378 . S
C263 C262 1.367 . S
C263 C271 1.433 . S
C264 H260 0.929 . S
C264 C266 1.378 . S
C264 C268 1.350 . S
C265 C268 1.463 1_565 S
C265 C270 1.350 . S
C265 N273 1.427 . S
C266 H257 0.930 . S
C266 C264 1.378 . S
C266 C267 1.367 . S
C267 C266 1.367 . S
C267 C269 1.433 . S
C268 C264 1.350 . S
C268 C265 1.463 1_545 S
C268 N272 1.427 . S
C269 H259 0.929 . S
C269 C267 1.433 . S
C269 N272 1.384 . S
C270 H261 0.929 . S
C270 C262 1.378 . S
C270 C265 1.350 . S
C271 H258 0.929 . S
C271 C263 1.433 . S
C271 N273 1.384 . S
N272 C268 1.427 . S
N272 C269 1.384 . S
N273 C265 1.427 . S
N273 C271 1.384 . S
H274 C280 0.930 . S
H275 C284 0.930 . S
H276 C289 0.929 . S
H277 C287 0.929 . S
H278 C282 0.929 . S
H279 C288 0.929 . S
C280 H274 0.930 . S
C280 C281 1.367 . S
C280 C288 1.378 . S
C281 C280 1.367 . S
C281 C289 1.433 . S
C282 H278 0.929 . S
C282 C284 1.378 . S
C282 C286 1.350 . S
C283 C286 1.463 1_655 S
C283 C288 1.350 . S
C283 N291 1.427 . S
C284 H275 0.930 . S
C284 C282 1.378 . S
C284 C285 1.367 . S
C285 C284 1.367 . S
C285 C287 1.433 . S
C286 C282 1.350 . S
C286 C283 1.463 1_455 S
C286 N290 1.427 . S
C287 H277 0.929 . S
C287 C285 1.433 . S
C287 N290 1.384 . S
C288 H279 0.929 . S
C288 C280 1.378 . S
C288 C283 1.350 . S
C289 H276 0.929 . S
C289 C281 1.433 . S
C289 N291 1.384 . S
N290 C286 1.427 . S
N290 C287 1.384 . S
N291 C283 1.427 . S
N291 C289 1.384 . S
H292 C298 0.930 . S
H293 C302 0.930 . S
H294 C307 0.929 . S
H295 C305 0.929 . S
H296 C300 0.929 . S
H297 C306 0.929 . S
C298 H292 0.930 . S
C298 C299 1.367 . S
C298 C306 1.378 . S
C299 C298 1.367 . S
C299 C307 1.433 . S
C300 H296 0.929 . S
C300 C302 1.378 . S
C300 C304 1.350 . S
C301 C304 1.463 1_565 S
C301 C306 1.350 . S
C301 N309 1.427 . S
C302 H293 0.930 . S
C302 C300 1.378 . S
C302 C303 1.367 . S
C303 C302 1.367 . S
C303 C305 1.433 . S
C304 C300 1.350 . S
C304 C301 1.463 1_545 S
C304 N308 1.427 . S
C305 H295 0.929 . S
C305 C303 1.433 . S
C305 N308 1.384 . S
C306 H297 0.929 . S
C306 C298 1.378 . S
C306 C301 1.350 . S
C307 H294 0.929 . S
C307 C299 1.433 . S
C307 N309 1.384 . S
N308 C304 1.427 . S
N308 C305 1.384 . S
N309 C301 1.427 . S
N309 C307 1.384 . S
H310 C316 0.930 1_556 S
H311 C320 0.930 . S
H312 C325 0.929 . S
H313 C323 0.929 . S
H314 C318 0.929 . S
H315 C324 0.930 . S
C316 H310 0.930 1_554 S
C316 C317 1.367 . S
C316 C324 1.378 . S
C317 C316 1.367 . S
C317 C325 1.433 . S
C318 H314 0.929 . S
C318 C320 1.378 . S
C318 C322 1.350 . S
C319 C322 1.463 1_655 S
C319 C324 1.350 . S
C319 N327 1.427 . S
C320 H311 0.930 . S
C320 C318 1.378 . S
C320 C321 1.367 . S
C321 C320 1.367 . S
C321 C323 1.433 . S
C322 C318 1.350 . S
C322 C319 1.463 1_455 S
C322 N326 1.427 . S
C323 H313 0.929 . S
C323 C321 1.433 . S
C323 N326 1.384 . S
C324 H315 0.930 . S
C324 C316 1.378 . S
C324 C319 1.350 . S
C325 H312 0.929 . S
C325 C317 1.433 . S
C325 N327 1.384 . S
N326 C322 1.427 . S
N326 C323 1.384 . S
N327 C319 1.427 . S
N327 C325 1.384 . S
H328 C334 0.930 . S
H329 C338 0.930 . S
H330 C343 0.929 . S
H331 C341 0.929 . S
H332 C336 0.929 . S
H333 C342 0.929 . S
C334 H328 0.930 . S
C334 C335 1.367 . S
C334 C342 1.378 1_556 S
C335 C334 1.367 . S
C335 C343 1.433 . S
C336 H332 0.929 . S
C336 C338 1.378 . S
C336 C340 1.350 . S
C337 C340 1.463 . S
C337 C342 1.350 . S
C337 N345 1.427 1_554 S
C338 H329 0.930 . S
C338 C336 1.378 . S
C338 C339 1.367 . S
C339 C338 1.367 . S
C339 C341 1.433 . S
C340 C336 1.350 . S
C340 C337 1.463 . S
C340 N344 1.427 . S
C341 H331 0.929 . S
C341 C339 1.433 . S
C341 N344 1.384 . S
C342 H333 0.929 . S
C342 C334 1.378 1_554 S
C342 C337 1.350 . S
C343 H330 0.929 . S
C343 C335 1.433 . S
C343 N345 1.384 . S
N344 C340 1.427 . S
N344 C341 1.384 . S
N345 C337 1.427 1_556 S
N345 C343 1.384 . S
H346 C352 0.930 . S
H347 C356 0.930 . S
H348 C361 0.929 . S
H349 C359 0.929 . S
H350 C354 0.929 . S
H351 C360 0.929 . S
C352 H346 0.930 . S
C352 C353 1.367 . S
C352 C360 1.378 . S
C353 C352 1.367 . S
C353 C361 1.433 . S
C354 H350 0.929 . S
C354 C356 1.378 . S
C354 C358 1.350 . S
C355 C358 1.463 . S
C355 C360 1.350 . S
C355 N363 1.427 . S
C356 H347 0.930 . S
C356 C354 1.378 . S
C356 C357 1.367 . S
C357 C356 1.367 . S
C357 C359 1.433 . S
C358 C354 1.350 . S
C358 C355 1.463 . S
C358 N362 1.427 . S
C359 H349 0.929 . S
C359 C357 1.433 . S
C359 N362 1.384 . S
C360 H351 0.929 . S
C360 C352 1.378 . S
C360 C355 1.350 . S
C361 H348 0.929 . S
C361 C353 1.433 . S
C361 N363 1.384 . S
N362 C358 1.427 . S
N362 C359 1.384 . S
N363 C355 1.427 . S
N363 C361 1.384 . S
H364 C370 0.930 . S
H365 C374 0.930 . S
H366 C379 0.929 . S
H367 C377 0.929 . S
H368 C372 0.929 . S
H369 C378 0.929 . S
C370 H364 0.930 . S
C370 C371 1.367 . S
C370 C378 1.378 . S
C371 C370 1.367 . S
C371 C379 1.433 . S
C372 H368 0.929 . S
C372 C374 1.378 . S
C372 C376 1.350 . S
C373 C376 1.463 . S
C373 C378 1.350 . S
C373 N381 1.427 . S
C374 H365 0.930 . S
C374 C372 1.378 . S
C374 C375 1.367 . S
C375 C374 1.367 . S
C375 C377 1.433 . S
C376 C372 1.350 . S
C376 C373 1.463 . S
C376 N380 1.427 . S
C377 H367 0.929 . S
C377 C375 1.433 . S
C377 N380 1.384 . S
C378 H369 0.929 . S
C378 C370 1.378 . S
C378 C373 1.350 . S
C379 H366 0.929 . S
C379 C371 1.433 . S
C379 N381 1.384 . S
N380 C376 1.427 . S
N380 C377 1.384 . S
N381 C373 1.427 . S
N381 C379 1.384 . S
H382 C388 0.930 . S
H383 C392 0.930 . S
H384 C397 0.929 . S
H385 C395 0.929 . S
H386 C390 0.929 . S
H387 C396 0.929 . S
C388 H382 0.930 . S
C388 C389 1.367 . S
C388 C396 1.378 . S
C389 C388 1.367 . S
C389 C397 1.433 . S
C390 H386 0.929 . S
C390 C392 1.378 . S
C390 C394 1.350 . S
C391 C394 1.463 . S
C391 C396 1.350 . S
C391 N399 1.427 . S
C392 H383 0.930 . S
C392 C390 1.378 . S
C392 C393 1.367 . S
C393 C392 1.367 . S
C393 C395 1.433 . S
C394 C390 1.350 . S
C394 C391 1.463 . S
C394 N398 1.427 . S
C395 H385 0.929 . S
C395 C393 1.433 . S
C395 N398 1.384 . S
C396 H387 0.929 . S
C396 C388 1.378 . S
C396 C391 1.350 . S
C397 H384 0.929 . S
C397 C389 1.433 . S
C397 N399 1.384 . S
N398 C394 1.427 . S
N398 C395 1.384 . S
N399 C391 1.427 . S
N399 C397 1.384 . S
C119 C9 0.719 . S
C123 C93 0.718 . S
C137 C23 0.716 . S
C141 C107 0.716 . S
C155 C65 0.730 . S
C159 C37 0.730 . S
C173 C79 0.730 . S
C177 C51 0.729 . S
C191 C11 1.515 . S
C195 C81 1.518 . S
C209 C25 1.509 . S
C213 C95 1.511 . S
C227 C109 1.516 . S
C231 C39 1.509 . S
C245 C53 1.519 . S
C249 C67 1.517 . S
C263 C61 1.501 . S
C267 C5 1.503 . S
C281 C19 1.503 . S
C285 C75 1.500 . S
C299 C33 1.501 . S
C303 C89 1.504 . S
C317 C103 1.500 . S
C321 C47 1.503 . S
C335 C84 1.501 . S
C339 C0 1.507 . S
C353 C98 1.496 . S
C357 C14 1.503 . S
C371 C28 1.505 . S
C375 C56 1.496 . S
C389 C42 1.507 . S
C393 C70 1.502 . S
