# Generated by pormake.
# Topology umd, (4)-cn, num edge types: 1
# Building blocks:
#     Node 0, Type 0, BuildingBlock: QUQFOY_clean_sbu_1, # of connection points: 4
#     Node 1, Type 0, BuildingBlock: QUQFOY_clean_sbu_1, # of connection points: 4
#     Node 2, Type 0, BuildingBlock: QUQFOY_clean_sbu_1, # of connection points: 4
#     Node 3, Type 0, BuildingBlock: QUQFOY_clean_sbu_1, # of connection points: 4
#     Node 4, Type 0, BuildingBlock: QUQFOY_clean_sbu_1, # of connection points: 4
#     Node 5, Type 0, BuildingBlock: QUQFOY_clean_sbu_1, # of connection points: 4
#     Node 6, Type 0, BuildingBlock: QUQFOY_clean_sbu_1, # of connection points: 4
#     Node 7, Type 0, BuildingBlock: QUQFOY_clean_sbu_1, # of connection points: 4
#     Node 8, Type 0, BuildingBlock: QUQFOY_clean_sbu_1, # of connection points: 4
#     Node 9, Type 0, BuildingBlock: QUQFOY_clean_sbu_1, # of connection points: 4
#     Node 10, Type 0, BuildingBlock: QUQFOY_clean_sbu_1, # of connection points: 4
#     Node 11, Type 0, BuildingBlock: QUQFOY_clean_sbu_1, # of connection points: 4
#     Node 12, Type 0, BuildingBlock: QUQFOY_clean_sbu_1, # of connection points: 4
#     Node 13, Type 0, BuildingBlock: QUQFOY_clean_sbu_1, # of connection points: 4
#     Node 14, Type 0, BuildingBlock: QUQFOY_clean_sbu_1, # of connection points: 4
#     Node 15, Type 0, BuildingBlock: QUQFOY_clean_sbu_1, # of connection points: 4
#     Edge 16, Type (0, 0), BuildingBlock: EZIPEK_clean_linker_0, # of connection points: 2
#     Edge 17, Type (0, 0), BuildingBlock: EZIPEK_clean_linker_0, # of connection points: 2
#     Edge 18, Type (0, 0), BuildingBlock: EZIPEK_clean_linker_0, # of connection points: 2
#     Edge 19, Type (0, 0), BuildingBlock: EZIPEK_clean_linker_0, # of connection points: 2
#     Edge 20, Type (0, 0), BuildingBlock: EZIPEK_clean_linker_0, # of connection points: 2
#     Edge 21, Type (0, 0), BuildingBlock: EZIPEK_clean_linker_0, # of connection points: 2
#     Edge 22, Type (0, 0), BuildingBlock: EZIPEK_clean_linker_0, # of connection points: 2
#     Edge 23, Type (0, 0), BuildingBlock: EZIPEK_clean_linker_0, # of connection points: 2
#     Edge 24, Type (0, 0), BuildingBlock: EZIPEK_clean_linker_0, # of connection points: 2
#     Edge 25, Type (0, 0), BuildingBlock: EZIPEK_clean_linker_0, # of connection points: 2
#     Edge 26, Type (0, 0), BuildingBlock: EZIPEK_clean_linker_0, # of connection points: 2
#     Edge 27, Type (0, 0), BuildingBlock: EZIPEK_clean_linker_0, # of connection points: 2
#     Edge 28, Type (0, 0), BuildingBlock: EZIPEK_clean_linker_0, # of connection points: 2
#     Edge 29, Type (0, 0), BuildingBlock: EZIPEK_clean_linker_0, # of connection points: 2
#     Edge 30, Type (0, 0), BuildingBlock: EZIPEK_clean_linker_0, # of connection points: 2
#     Edge 31, Type (0, 0), BuildingBlock: EZIPEK_clean_linker_0, # of connection points: 2
#     Edge 32, Type (0, 0), BuildingBlock: EZIPEK_clean_linker_0, # of connection points: 2
#     Edge 33, Type (0, 0), BuildingBlock: EZIPEK_clean_linker_0, # of connection points: 2
#     Edge 34, Type (0, 0), BuildingBlock: EZIPEK_clean_linker_0, # of connection points: 2
#     Edge 35, Type (0, 0), BuildingBlock: EZIPEK_clean_linker_0, # of connection points: 2
#     Edge 36, Type (0, 0), BuildingBlock: EZIPEK_clean_linker_0, # of connection points: 2
#     Edge 37, Type (0, 0), BuildingBlock: EZIPEK_clean_linker_0, # of connection points: 2
#     Edge 38, Type (0, 0), BuildingBlock: EZIPEK_clean_linker_0, # of connection points: 2
#     Edge 39, Type (0, 0), BuildingBlock: EZIPEK_clean_linker_0, # of connection points: 2
#     Edge 40, Type (0, 0), BuildingBlock: EZIPEK_clean_linker_0, # of connection points: 2
#     Edge 41, Type (0, 0), BuildingBlock: EZIPEK_clean_linker_0, # of connection points: 2
#     Edge 42, Type (0, 0), BuildingBlock: EZIPEK_clean_linker_0, # of connection points: 2
#     Edge 43, Type (0, 0), BuildingBlock: EZIPEK_clean_linker_0, # of connection points: 2
#     Edge 44, Type (0, 0), BuildingBlock: EZIPEK_clean_linker_0, # of connection points: 2
#     Edge 45, Type (0, 0), BuildingBlock: EZIPEK_clean_linker_0, # of connection points: 2
#     Edge 46, Type (0, 0), BuildingBlock: EZIPEK_clean_linker_0, # of connection points: 2
#     Edge 47, Type (0, 0), BuildingBlock: EZIPEK_clean_linker_0, # of connection points: 2
# Relax obj value: 0.066
# Max RMSD: 0.197
# Mean RMSD: 0.197
data_MOF--net-umd--node1-QUQFOY_clean_sbu_1--edge1-EZIPEK_clean_linker_0
_symmetry_space_group_name_H-M    P1
_symmetry_Int_Tables_number       1
_symmetry_cell_setting            triclinic
loop_
_symmetry_equiv_pos_as_xyz
'x, y, z'
_cell_length_a     29.751047
_cell_length_b     29.747561
_cell_length_c     42.398529
_cell_angle_alpha  90.02921
_cell_angle_beta   90.109671
_cell_angle_gamma 90.226465
loop_
_atom_site_label
_atom_site_type_symbol
_atom_site_fract_x
_atom_site_fract_y
_atom_site_fract_z
_atom_type_partial_charge
O0 O 0.21593 0.46511 0.0825 0.0
Cd1 Cd 0.19519 0.43715 0.12432 0.0
Cd2 Cd 0.22008 0.51647 0.14401 0.0
O3 O 0.25882 0.51811 0.10334 0.0
O4 O 0.1978 0.37024 0.11799 0.0
O5 O 0.24568 0.40798 0.14816 0.0
C6 C 0.2343 0.37081 0.13456 0.0
C7 C 0.2422 0.51918 0.19631 0.0
C8 C 0.24538 0.49583 0.07946 0.0
C9 C 0.12219 0.49992 0.14052 0.0
O10 O 0.15271 0.52974 0.13839 0.0
O11 O 0.13233 0.45829 0.14016 0.0
O12 O 0.24243 0.55522 0.17927 0.0
O13 O 0.23345 0.48121 0.18286 0.0
O14 O 0.57105 0.21691 0.5797 0.0
Cd15 Cd 0.60116 0.19385 0.62041 0.0
Cd16 Cd 0.51993 0.21364 0.64224 0.0
O17 O 0.5128 0.25091 0.60128 0.0
O18 O 0.66782 0.20092 0.61371 0.0
O19 O 0.62888 0.24174 0.64767 0.0
C20 C 0.66644 0.2338 0.63357 0.0
C21 C 0.51352 0.23732 0.69405 0.0
C22 C 0.5368 0.24207 0.57729 0.0
C23 C 0.54224 0.11643 0.63712 0.0
O24 O 0.51084 0.14525 0.63791 0.0
O25 O 0.5831 0.12882 0.63397 0.0
O26 O 0.47847 0.23474 0.67609 0.0
O27 O 0.55257 0.23112 0.68158 0.0
O28 O 0.83367 0.58163 0.08782 0.0
Cd29 Cd 0.858 0.61452 0.12703 0.0
Cd30 Cd 0.83852 0.53288 0.1512 0.0
O31 O 0.80273 0.52167 0.10985 0.0
O32 O 0.85221 0.67999 0.11571 0.0
O33 O 0.81195 0.64727 0.15308 0.0
C34 C 0.81987 0.68213 0.13591 0.0
C35 C 0.81192 0.53649 0.20249 0.0
C36 C 0.81033 0.54591 0.08569 0.0
C37 C 0.93626 0.55767 0.14489 0.0
O38 O 0.90746 0.52631 0.14803 0.0
O39 O 0.92378 0.59799 0.13964 0.0
O40 O 0.81847 0.49799 0.18914 0.0
O41 O 0.8163 0.57238 0.18567 0.0
O42 O 0.4696 0.82569 0.58373 0.0
Cd43 Cd 0.43575 0.84817 0.62301 0.0
Cd44 Cd 0.51707 0.83241 0.64742 0.0
O45 O 0.52876 0.79527 0.60695 0.0
O46 O 0.36994 0.83781 0.61391 0.0
O47 O 0.40816 0.79985 0.64988 0.0
C48 C 0.37136 0.80562 0.63429 0.0
C49 C 0.51851 0.80894 0.69948 0.0
C50 C 0.5054 0.80261 0.58232 0.0
C51 C 0.49031 0.92852 0.63974 0.0
O52 O 0.52261 0.90092 0.64217 0.0
O53 O 0.45009 0.91455 0.63572 0.0
O54 O 0.55556 0.81504 0.6842 0.0
O55 O 0.48095 0.81281 0.68448 0.0
O56 O 0.21678 0.57489 0.44713 0.0
Cd57 Cd 0.19507 0.6084 0.40736 0.0
Cd58 Cd 0.21015 0.5263 0.38414 0.0
O59 O 0.24641 0.51462 0.42498 0.0
O60 O 0.20524 0.67388 0.41728 0.0
O61 O 0.24324 0.63704 0.38071 0.0
C62 C 0.23735 0.6733 0.39687 0.0
C63 C 0.2354 0.52384 0.33249 0.0
C64 C 0.23919 0.53874 0.44922 0.0
C65 C 0.11418 0.55466 0.39072 0.0
O66 O 0.14139 0.52194 0.38892 0.0
O67 O 0.12861 0.59479 0.39436 0.0
O68 O 0.22799 0.48709 0.34788 0.0
O69 O 0.23147 0.56167 0.34713 0.0
O70 O 0.46824 0.21591 0.94486 0.0
Cd71 Cd 0.43694 0.19182 0.90482 0.0
Cd72 Cd 0.51736 0.21479 0.88266 0.0
O73 O 0.52404 0.25376 0.9229 0.0
O74 O 0.37101 0.19341 0.91551 0.0
O75 O 0.40242 0.23813 0.88011 0.0
C76 C 0.36769 0.22723 0.89658 0.0
C77 C 0.51211 0.23716 0.83049 0.0
C78 C 0.5012 0.24304 0.94712 0.0
C79 C 0.49817 0.11684 0.88837 0.0
O80 O 0.52863 0.14692 0.88844 0.0
O81 O 0.4568 0.12779 0.89021 0.0
O82 O 0.55088 0.23517 0.84425 0.0
O83 O 0.4765 0.23054 0.84721 0.0
O84 O 0.82816 0.47353 0.45232 0.0
Cd85 Cd 0.84907 0.44414 0.41083 0.0
Cd86 Cd 0.82913 0.52495 0.39079 0.0
O87 O 0.79121 0.53041 0.43145 0.0
O88 O 0.84285 0.37787 0.41869 0.0
O89 O 0.80046 0.41509 0.38462 0.0
C90 C 0.80924 0.3782 0.39939 0.0
C91 C 0.80646 0.53269 0.33882 0.0
C92 C 0.80175 0.50669 0.45524 0.0
C93 C 0.92616 0.50312 0.39475 0.0
O94 O 0.89742 0.53458 0.39598 0.0
O95 O 0.91355 0.46209 0.39592 0.0
O96 O 0.80744 0.56701 0.3575 0.0
O97 O 0.81336 0.49331 0.3507 0.0
O98 O 0.58334 0.83197 0.94826 0.0
Cd99 Cd 0.6126 0.85315 0.90671 0.0
Cd100 Cd 0.52991 0.83322 0.88754 0.0
O101 O 0.52427 0.79627 0.92866 0.0
O102 O 0.67928 0.84476 0.91293 0.0
O103 O 0.63822 0.80398 0.87992 0.0
C104 C 0.67623 0.81106 0.89382 0.0
C105 C 0.52368 0.8097 0.8357 0.0
C106 C 0.54931 0.80654 0.95194 0.0
C107 C 0.55379 0.93015 0.89111 0.0
O108 O 0.52218 0.90142 0.89265 0.0
O109 O 0.5948 0.91775 0.89198 0.0
O110 O 0.48826 0.81349 0.85311 0.0
O111 O 0.56262 0.81532 0.84857 0.0
O112 O 0.83239 0.57951 0.95233 0.0
Cd113 Cd 0.85511 0.60931 0.9114 0.0
Cd114 Cd 0.83441 0.52747 0.89008 0.0
O115 O 0.79759 0.52097 0.93141 0.0
O116 O 0.84438 0.67551 0.91774 0.0
O117 O 0.80852 0.63437 0.88211 0.0
C118 C 0.8128 0.67206 0.89691 0.0
C119 C 0.80997 0.51939 0.83843 0.0
C120 C 0.80734 0.54508 0.95527 0.0
C121 C 0.93207 0.5511 0.89459 0.0
O122 O 0.90301 0.51966 0.89388 0.0
O123 O 0.92013 0.59197 0.89801 0.0
O124 O 0.81311 0.48479 0.85671 0.0
O125 O 0.81614 0.55875 0.85049 0.0
O126 O 0.47494 0.82756 0.45041 0.0
Cd127 Cd 0.44286 0.85032 0.4104 0.0
Cd128 Cd 0.52472 0.8328 0.38771 0.0
O129 O 0.53404 0.79545 0.42845 0.0
O130 O 0.37667 0.84244 0.419 0.0
O131 O 0.41378 0.8024 0.38366 0.0
C132 C 0.37705 0.80989 0.39886 0.0
C133 C 0.52669 0.80935 0.33568 0.0
C134 C 0.51007 0.80359 0.4526 0.0
C135 C 0.49954 0.92946 0.39383 0.0
O136 O 0.53152 0.90134 0.39246 0.0
O137 O 0.45902 0.9161 0.39726 0.0
O138 O 0.56355 0.81435 0.35149 0.0
O139 O 0.48891 0.81393 0.35023 0.0
O140 O 0.21444 0.45987 0.94733 0.0
Cd141 Cd 0.19112 0.43022 0.9067 0.0
Cd142 Cd 0.21553 0.50905 0.88458 0.0
O143 O 0.25463 0.51372 0.92501 0.0
O144 O 0.19337 0.36376 0.91489 0.0
O145 O 0.23941 0.39897 0.88209 0.0
C146 C 0.22859 0.36282 0.89713 0.0
C147 C 0.23812 0.5098 0.83236 0.0
C148 C 0.24296 0.49162 0.94938 0.0
C149 C 0.11738 0.49233 0.8906 0.0
O150 O 0.14815 0.52206 0.89037 0.0
O151 O 0.12727 0.45074 0.89252 0.0
O152 O 0.23706 0.54662 0.84853 0.0
O153 O 0.22978 0.47232 0.84655 0.0
O154 O 0.57288 0.21962 0.44567 0.0
Cd155 Cd 0.60645 0.19732 0.40632 0.0
Cd156 Cd 0.52536 0.21508 0.38223 0.0
O157 O 0.51457 0.25219 0.42287 0.0
O158 O 0.67209 0.20438 0.41725 0.0
O159 O 0.63765 0.24589 0.3814 0.0
C160 C 0.67305 0.23804 0.39804 0.0
C161 C 0.52905 0.23947 0.33042 0.0
C162 C 0.53774 0.24361 0.4474 0.0
C163 C 0.55019 0.11813 0.38909 0.0
O164 O 0.5184 0.14638 0.38694 0.0
O165 O 0.59071 0.13147 0.39287 0.0
O166 O 0.49053 0.23368 0.34392 0.0
O167 O 0.56498 0.2355 0.34727 0.0
O168 O 0.82308 0.47116 0.58764 0.0
Cd169 Cd 0.84599 0.43764 0.62725 0.0
Cd170 Cd 0.82903 0.5197 0.64966 0.0
O171 O 0.79016 0.52965 0.60983 0.0
O172 O 0.83785 0.37179 0.61675 0.0
O173 O 0.79859 0.40686 0.65342 0.0
C174 C 0.80546 0.37112 0.63696 0.0
C175 C 0.80759 0.51627 0.70209 0.0
C176 C 0.79875 0.50609 0.58554 0.0
C177 C 0.92534 0.49458 0.64279 0.0
O178 O 0.89724 0.52664 0.64288 0.0
O179 O 0.91167 0.45384 0.64135 0.0
O180 O 0.81216 0.55474 0.68826 0.0
O181 O 0.81125 0.48023 0.68539 0.0
O182 O 0.58543 0.83854 0.08531 0.0
Cd183 Cd 0.61605 0.85937 0.1264 0.0
Cd184 Cd 0.53639 0.83726 0.14763 0.0
O185 O 0.53024 0.79944 0.10688 0.0
O186 O 0.68229 0.85469 0.11808 0.0
O187 O 0.64567 0.80979 0.15094 0.0
C188 C 0.68219 0.81963 0.13604 0.0
C189 C 0.53257 0.81329 0.19945 0.0
C190 C 0.5527 0.81123 0.08275 0.0
C191 C 0.55686 0.93486 0.14328 0.0
O192 O 0.52601 0.90525 0.14241 0.0
O193 O 0.59807 0.9235 0.14169 0.0
O194 O 0.49655 0.81626 0.1825 0.0
O195 O 0.57098 0.82027 0.18616 0.0
O196 O 0.21562 0.56853 0.58261 0.0
Cd197 Cd 0.19382 0.60003 0.62316 0.0
Cd198 Cd 0.21087 0.51717 0.6443 0.0
O199 O 0.24771 0.50852 0.60337 0.0
O200 O 0.20309 0.66604 0.61452 0.0
O201 O 0.24169 0.62823 0.65037 0.0
C202 C 0.23555 0.66493 0.63474 0.0
C203 C 0.23547 0.51343 0.69612 0.0
C204 C 0.23925 0.53329 0.57965 0.0
C205 C 0.11445 0.54387 0.63926 0.0
O206 O 0.14219 0.51149 0.63943 0.0
O207 O 0.12818 0.58442 0.63687 0.0
O208 O 0.22936 0.47709 0.67994 0.0
O209 O 0.23083 0.55166 0.68215 0.0
O210 O 0.46793 0.2171 0.08088 0.0
Cd211 Cd 0.43969 0.19611 0.12272 0.0
Cd212 Cd 0.52036 0.21816 0.1423 0.0
O213 O 0.52464 0.25547 0.10118 0.0
O214 O 0.37321 0.20017 0.11535 0.0
O215 O 0.41026 0.24485 0.14826 0.0
C216 C 0.37336 0.23473 0.13379 0.0
C217 C 0.52653 0.24197 0.19404 0.0
C218 C 0.50078 0.24405 0.07757 0.0
C219 C 0.49989 0.12069 0.13957 0.0
O220 O 0.53098 0.15003 0.13803 0.0
O221 O 0.45871 0.13233 0.1381 0.0
O222 O 0.56137 0.24141 0.17587 0.0
O223 O 0.48757 0.23389 0.18174 0.0
C224 C 0.05433 0.53331 0.11442 0.0
C225 C 0.07449 0.51433 0.14173 0.0
C226 C 1.00596 0.52949 0.17215 0.0
C227 C 0.98474 0.5456 0.14432 0.0
N228 N 0.9859 0.55656 0.08795 0.0
N229 N 0.06942 0.49087 0.19598 0.0
C230 C 1.00828 0.54615 0.1152 0.0
C231 C 0.05019 0.5113 0.17043 0.0
N232 N 0.07929 0.53917 0.08765 0.0
N233 N 0.98422 0.53306 0.2004 0.0
H234 H 0.10242 0.47916 0.19603 0.0
H235 H 0.05215 0.48305 0.21658 0.0
H236 H 0.95194 0.54613 0.20235 0.0
H237 H 0.99902 0.52641 0.22214 0.0
H238 H 0.06859 0.55807 0.06841 0.0
H239 H 0.11204 0.5273 0.08521 0.0
H240 H 0.99943 0.55228 0.06553 0.0
H241 H 0.95229 0.56632 0.08739 0.0
C242 C 0.49325 1.00483 0.66529 0.0
C243 C 0.50106 0.97726 0.63856 0.0
C244 C 0.53459 0.0414 0.61047 0.0
C245 C 0.53021 0.06795 0.63811 0.0
N246 N 0.51113 0.07412 0.69312 0.0
N247 N 0.5328 0.96725 0.58668 0.0
C248 C 0.5109 0.04948 0.66588 0.0
C249 C 0.52291 0.99497 0.61146 0.0
N250 N 0.46879 0.98834 0.69001 0.0
N251 N 0.54787 0.06107 0.58282 0.0
H252 H 0.52199 0.93389 0.58537 0.0
H253 H 0.5538 0.97646 0.56814 0.0
H254 H 0.55689 0.09489 0.58108 0.0
H255 H 0.54666 0.04494 0.56104 0.0
H256 H 0.45797 1.00789 0.70887 0.0
H257 H 0.45629 0.95555 0.69058 0.0
H258 H 0.50161 0.06141 0.71499 0.0
H259 H 0.52452 0.10653 0.69444 0.0
C260 C 0.04749 0.52483 0.41987 0.0
C261 C 0.06531 0.54451 0.39203 0.0
C262 C 0.99188 0.53694 0.36581 0.0
C263 C 0.9747 0.51507 0.39312 0.0
N264 N 0.98613 0.48489 0.44532 0.0
N265 N 0.05666 0.56754 0.338 0.0
C266 C 1.0026 0.50793 0.41988 0.0
C267 C 0.03798 0.55039 0.3649 0.0
N268 N 0.07319 0.52395 0.44669 0.0
N269 N 0.96392 0.54473 0.34076 0.0
H270 H 0.08955 0.57974 0.33714 0.0
H271 H 0.04062 0.56824 0.3162 0.0
H272 H 0.93128 0.53193 0.33951 0.0
H273 H 0.97218 0.56492 0.3216 0.0
H274 H 0.06126 0.51443 0.46875 0.0
H275 H 0.1061 0.53617 0.44759 0.0
H276 H 1.00588 0.4737 0.46398 0.0
H277 H 0.95275 0.47448 0.44718 0.0
C278 C 0.54641 1.00367 0.86233 0.0
C279 C 0.54188 0.97852 0.89054 0.0
C280 C 0.50488 0.04255 0.91624 0.0
C281 C 0.51177 0.06872 0.88859 0.0
N282 N 0.54488 0.07663 0.8369 0.0
N283 N 0.52336 0.9751 0.94577 0.0
C284 C 0.53439 0.05001 0.86213 0.0
C285 C 0.52274 0.99823 0.91786 0.0
N286 N 0.5604 0.98273 0.83537 0.0
N287 N 0.4815 0.06013 0.94108 0.0
H288 H 0.53636 0.94271 0.9479 0.0
H289 H 0.51452 0.98901 0.96739 0.0
H290 H 0.47093 0.09345 0.94208 0.0
H291 H 0.47027 0.04113 0.96013 0.0
H292 H 0.55927 0.99756 0.81315 0.0
H293 H 0.57012 0.94908 0.83477 0.0
H294 H 0.56584 0.06653 0.81861 0.0
H295 H 0.53513 0.11011 0.83517 0.0
C296 C 1.00711 0.54097 0.92066 0.0
C297 C 0.98035 0.53897 0.89295 0.0
C298 C 0.04228 0.50279 0.86426 0.0
C299 C 0.06979 0.50706 0.89149 0.0
N300 N 0.08094 0.53452 0.94456 0.0
N301 N 0.97319 0.52389 0.83736 0.0
C302 C 0.05296 0.52761 0.91934 0.0
C303 C 0.99814 0.52138 0.86444 0.0
N304 N 0.98801 0.55345 0.94866 0.0
N305 N 0.05837 0.48079 0.83832 0.0
H306 H 0.94101 0.53769 0.83671 0.0
H307 H 0.98529 0.51563 0.8151 0.0
H308 H 0.09109 0.46846 0.83696 0.0
H309 H 0.0388 0.47227 0.81884 0.0
H310 H 1.00394 0.55038 0.97042 0.0
H311 H 0.95474 0.564 0.9506 0.0
H312 H 0.07263 0.55444 0.96386 0.0
H313 H 0.11376 0.5224 0.94557 0.0
C314 C 0.51647 0.04917 0.36366 0.0
C315 C 0.53872 0.06934 0.38983 0.0
C316 C 0.53522 0.99758 0.4185 0.0
C317 C 0.51065 0.97822 0.39307 0.0
N318 N 0.47271 0.98647 0.34315 0.0
N319 N 0.56142 0.06547 0.44446 0.0
C320 C 0.49958 1.00438 0.3662 0.0
C321 C 0.54625 0.0442 0.41783 0.0
N322 N 0.51303 0.07234 0.33593 0.0
N323 N 0.54798 0.97138 0.44345 0.0
H324 H 0.56933 0.09962 0.44526 0.0
H325 H 0.56253 0.05032 0.46657 0.0
H326 H 0.53746 0.93814 0.44633 0.0
H327 H 0.571 0.98175 0.46052 0.0
H328 H 0.50191 0.05815 0.31486 0.0
H329 H 0.52476 0.10513 0.33328 0.0
H330 H 0.45923 1.00511 0.32468 0.0
H331 H 0.4611 0.95337 0.3436 0.0
C332 C 1.00079 0.49466 0.61581 0.0
C333 C 0.97429 0.50573 0.64261 0.0
C334 C 0.03997 0.54246 0.66731 0.0
C335 C 0.06563 0.53324 0.63994 0.0
N336 N 0.06965 0.50712 0.58625 0.0
N337 N 0.96685 0.54467 0.69237 0.0
C338 C 0.04586 0.51087 0.61374 0.0
C339 C 0.99338 0.53106 0.66788 0.0
N340 N 0.98278 0.46907 0.59209 0.0
N341 N 0.06063 0.56056 0.69324 0.0
H342 H 0.93347 0.53474 0.69492 0.0
H343 H 0.97699 0.56788 0.70934 0.0
H344 H 0.09419 0.57082 0.6933 0.0
H345 H 0.04563 0.56284 0.71534 0.0
H346 H 1.00172 0.45474 0.57412 0.0
H347 H 0.94897 0.45999 0.59096 0.0
H348 H 0.056 0.49574 0.56508 0.0
H349 H 0.10249 0.519 0.58373 0.0
C350 C 0.51068 0.04599 0.11338 0.0
C351 C 0.5124 0.07249 0.14121 0.0
C352 C 0.54286 1.00836 0.17088 0.0
C353 C 0.54386 0.98292 0.14259 0.0
N354 N 0.53435 0.97819 0.08622 0.0
N355 N 0.53307 0.08124 0.19587 0.0
C356 C 0.52918 1.00191 0.11364 0.0
C357 C 0.52943 0.05432 0.16982 0.0
N358 N 0.49103 0.06292 0.08673 0.0
N359 N 0.55333 0.98805 0.19887 0.0
H360 H 0.52086 0.11406 0.19649 0.0
H361 H 0.54998 0.07204 0.21636 0.0
H362 H 0.56442 0.95488 0.20029 0.0
H363 H 0.54854 1.00289 0.22083 0.0
H364 H 0.48394 0.04381 0.06675 0.0
H365 H 0.47884 0.09566 0.08516 0.0
H366 H 0.52899 0.9916 0.06388 0.0
H367 H 0.54746 0.94572 0.0855 0.0
C368 C 0.19963 0.53358 0.27985 0.0
C369 C 0.23864 0.52315 0.29767 0.0
C370 C 0.28045 0.50844 0.24887 0.0
C371 C 0.24242 0.52224 0.23114 0.0
N372 N 0.16715 0.55249 0.22921 0.0
N373 N 0.31725 0.50486 0.30014 0.0
C374 C 0.2025 0.53639 0.24651 0.0
C375 C 0.27943 0.51164 0.28246 0.0
N376 N 0.15918 0.53856 0.29477 0.0
N377 N 0.31714 0.49169 0.23354 0.0
H378 H 0.31715 0.50633 0.32474 0.0
H379 H 0.34916 0.50067 0.29061 0.0
H380 H 0.31941 0.49055 0.209 0.0
H381 H 0.34419 0.47666 0.24495 0.0
H382 H 0.12852 0.5407 0.283 0.0
H383 H 0.15545 0.53664 0.31918 0.0
H384 H 0.13959 0.56863 0.23911 0.0
H385 H 0.16633 0.55251 0.20463 0.0
C386 C 0.52921 0.2766 0.74566 0.0
C387 C 0.50892 0.24049 0.72884 0.0
C388 C 0.4902 0.20297 0.77871 0.0
C389 C 0.50882 0.23993 0.7956 0.0
N390 N 0.5394 0.31491 0.7959 0.0
N391 N 0.46477 0.17188 0.72912 0.0
C392 C 0.52656 0.27762 0.77926 0.0
C393 C 0.48736 0.2048 0.74531 0.0
N394 N 0.55128 0.3097 0.72947 0.0
N395 N 0.47821 0.1645 0.79437 0.0
H396 H 0.46565 0.16818 0.70473 0.0
H397 H 0.44278 0.14926 0.73982 0.0
H398 H 0.4793 0.16108 0.81878 0.0
H399 H 0.47072 0.13424 0.78315 0.0
H400 H 0.5714 0.33402 0.74019 0.0
H401 H 0.5512 0.31168 0.70491 0.0
H402 H 0.54859 0.34525 0.7855 0.0
H403 H 0.5374 0.31673 0.82043 0.0
C404 C 0.84097 0.56188 0.25504 0.0
C405 C 0.80689 0.53977 0.23726 0.0
C406 C 0.7702 0.51538 0.28631 0.0
C407 C 0.80366 0.53856 0.30404 0.0
N408 N 0.86723 0.58989 0.30523 0.0
N409 N 0.73525 0.50218 0.23516 0.0
C410 C 0.83749 0.56409 0.28839 0.0
C411 C 0.77039 0.51834 0.25269 0.0
N412 N 0.87875 0.57782 0.24033 0.0
N413 N 0.73841 0.49037 0.30166 0.0
H414 H 0.73435 0.50437 0.2106 0.0
H415 H 0.70549 0.48992 0.24479 0.0
H416 H 0.73499 0.4904 0.32614 0.0
H417 H 0.71652 0.46821 0.29037 0.0
H418 H 0.90763 0.58806 0.25228 0.0
H419 H 0.88333 0.57742 0.21601 0.0
H420 H 0.88742 0.61453 0.295 0.0
H421 H 0.87058 0.58895 0.32963 0.0
C422 C 0.50643 0.84688 0.78444 0.0
C423 C 0.51979 0.80754 0.80092 0.0
C424 C 0.52927 0.7674 0.7507 0.0
C425 C 0.51867 0.80756 0.73435 0.0
N426 N 0.50412 0.88732 0.73488 0.0
N427 N 0.54813 0.73183 0.80065 0.0
C428 C 0.50884 0.84772 0.75101 0.0
C429 C 0.53247 0.76816 0.78429 0.0
N430 N 0.4917 0.88372 0.80076 0.0
N431 N 0.53517 0.72849 0.73409 0.0
H432 H 0.54896 0.73072 0.82524 0.0
H433 H 0.56246 0.7038 0.79005 0.0
H434 H 0.53363 0.72726 0.70951 0.0
H435 H 0.53866 0.69702 0.74449 0.0
H436 H 0.47591 0.91101 0.79018 0.0
H437 H 0.49264 0.88627 0.82527 0.0
H438 H 0.50251 0.91871 0.74567 0.0
H439 H 0.50547 0.88959 0.71036 0.0
C440 C 0.84129 0.49238 0.78707 0.0
C441 C 0.80606 0.51416 0.80372 0.0
C442 C 0.76833 0.53166 0.75352 0.0
C443 C 0.80536 0.5133 0.73698 0.0
N444 N 0.8797 0.48079 0.73751 0.0
N445 N 0.73714 0.55644 0.80353 0.0
C446 C 0.8422 0.49426 0.7536 0.0
C447 C 0.76984 0.53435 0.78712 0.0
N448 N 0.87465 0.47057 0.80318 0.0
N449 N 0.73117 0.54508 0.73706 0.0
H450 H 0.73542 0.55629 0.82811 0.0
H451 H 0.71278 0.57653 0.79304 0.0
H452 H 0.7291 0.5432 0.71252 0.0
H453 H 0.70116 0.55483 0.74755 0.0
H454 H 0.89692 0.44828 0.79261 0.0
H455 H 0.87924 0.47265 0.82747 0.0
H456 H 0.91015 0.47296 0.74826 0.0
H457 H 0.88206 0.48054 0.71302 0.0
C458 C 0.5392 0.76933 0.28401 0.0
C459 C 0.5276 0.80884 0.30079 0.0
C460 C 0.51542 0.84923 0.25112 0.0
C461 C 0.52954 0.81053 0.23423 0.0
N462 N 0.55945 0.73545 0.23377 0.0
N463 N 0.51271 0.88857 0.30107 0.0
C464 C 0.54286 0.77101 0.25046 0.0
C465 C 0.51765 0.84932 0.28454 0.0
N466 N 0.54552 0.73009 0.30016 0.0
N467 N 0.49999 0.88613 0.2352 0.0
H468 H 0.51423 0.89037 0.3256 0.0
H469 H 0.51099 0.92014 0.29058 0.0
H470 H 0.50088 0.88925 0.21072 0.0
H471 H 0.48365 0.91284 0.24608 0.0
H472 H 0.54975 0.69898 0.28936 0.0
H473 H 0.54362 0.72819 0.32469 0.0
H474 H 0.57415 0.70741 0.24414 0.0
H475 H 0.56079 0.73506 0.20918 0.0
C476 C 0.19792 0.51943 0.78133 0.0
C477 C 0.23892 0.51131 0.79751 0.0
C478 C 0.27891 0.5061 0.747 0.0
C479 C 0.23742 0.51161 0.73096 0.0
N480 N 0.15644 0.51563 0.7322 0.0
N481 N 0.31731 0.49177 0.79673 0.0
C482 C 0.19665 0.51614 0.74797 0.0
C483 C 0.27918 0.5031 0.78061 0.0
N484 N 0.16019 0.53089 0.7979 0.0
N485 N 0.31794 0.50472 0.73009 0.0
H486 H 0.31867 0.49061 0.82132 0.0
H487 H 0.34672 0.48095 0.78593 0.0
H488 H 0.31846 0.50583 0.70549 0.0
H489 H 0.34979 0.50519 0.74026 0.0
H490 H 0.13086 0.54267 0.78739 0.0
H491 H 0.15889 0.53178 0.82246 0.0
H492 H 0.12537 0.51339 0.74334 0.0
H493 H 0.15391 0.51363 0.70771 0.0
C494 C 0.51152 0.27973 0.27961 0.0
C495 C 0.53223 0.24338 0.2956 0.0
C496 C 0.55597 0.21112 0.24498 0.0
C497 C 0.53153 0.24511 0.22883 0.0
N498 N 0.48425 0.31069 0.23013 0.0
N499 N 0.56877 0.17095 0.29367 0.0
C500 C 0.50876 0.27915 0.246 0.0
C501 C 0.55362 0.20851 0.27837 0.0
N502 N 0.49591 0.31545 0.29662 0.0
N503 N 0.58083 0.18042 0.22853 0.0
H504 H 0.56828 0.16707 0.31806 0.0
H505 H 0.57848 0.14162 0.28219 0.0
H506 H 0.5797 0.17664 0.20415 0.0
H507 H 0.60479 0.1598 0.23901 0.0
H508 H 0.48427 0.3451 0.28653 0.0
H509 H 0.49792 0.31693 0.32117 0.0
H510 H 0.46241 0.33304 0.24105 0.0
H511 H 0.48422 0.31331 0.20559 0.0
C512 C 0.24153 0.54072 0.99728 0.0
C513 C 0.26002 0.50333 0.98113 0.0
C514 C 0.28544 0.47081 0.03107 0.0
C515 C 0.26221 0.50526 0.0473 0.0
N516 N 0.23081 0.57964 0.04714 0.0
N517 N 0.30963 0.43991 0.98067 0.0
C518 C 0.24501 0.54281 0.03074 0.0
C519 C 0.28583 0.47092 0.99751 0.0
N520 N 0.21758 0.57213 0.98087 0.0
N521 N 0.3053 0.43719 0.048 0.0
H522 H 0.31033 0.4401 0.95604 0.0
H523 H 0.33091 0.41616 0.99064 0.0
H524 H 0.30717 0.438 0.07259 0.0
H525 H 0.31931 0.4085 0.03811 0.0
H526 H 0.19827 0.59703 0.99141 0.0
H527 H 0.21554 0.57228 0.95632 0.0
H528 H 0.22113 0.60965 0.03656 0.0
H529 H 0.23248 0.58159 0.07166 0.0
C530 C 0.55127 0.28856 0.49616 0.0
C531 C 0.52339 0.25832 0.47914 0.0
C532 C 0.49148 0.22968 0.52838 0.0
C533 C 0.52293 0.25634 0.54532 0.0
N534 N 0.57135 0.32086 0.54705 0.0
N535 N 0.45771 0.21092 0.47777 0.0
C536 C 0.54889 0.28933 0.52965 0.0
C537 C 0.48989 0.23295 0.49491 0.0
N538 N 0.5814 0.31474 0.48017 0.0
N539 N 0.46561 0.19901 0.54415 0.0
H540 H 0.45631 0.21248 0.45322 0.0
H541 H 0.43025 0.19452 0.48775 0.0
H542 H 0.46494 0.19699 0.5687 0.0
H543 H 0.44613 0.17449 0.53309 0.0
H544 H 0.60636 0.33389 0.49103 0.0
H545 H 0.58196 0.31616 0.45556 0.0
H546 H 0.58902 0.34774 0.53735 0.0
H547 H 0.56863 0.32212 0.57159 0.0
C548 C 0.81845 0.4989 0.03703 0.0
C549 C 0.79472 0.53251 0.05384 0.0
C550 C 0.7648 0.56282 1.00444 0.0
C551 C 0.79256 0.53264 0.98754 0.0
N552 N 0.83432 0.46349 0.9866 0.0
N553 N 0.7358 0.58727 0.05529 0.0
C554 C 0.81509 0.49742 1.00353 0.0
C555 C 0.76434 0.56122 0.03797 0.0
N556 N 0.84689 0.47085 0.0529 0.0
N557 N 0.74048 0.59407 0.98821 0.0
H558 H 0.73508 0.58591 0.0799 0.0
H559 H 0.71081 0.60738 0.04561 0.0
H560 H 0.73813 0.5935 0.96367 0.0
H561 H 0.72336 0.62058 0.99869 0.0
H562 H 0.86971 0.44956 0.04192 0.0
H563 H 0.84898 0.4701 0.07744 0.0
H564 H 0.84809 0.43483 0.99676 0.0
H565 H 0.83296 0.46201 0.96206 0.0
C566 C 0.49966 0.7552 0.53407 0.0
C567 C 0.52198 0.79002 0.55068 0.0
C568 C 0.55431 0.81807 0.50133 0.0
C569 C 0.52439 0.78965 0.48455 0.0
N570 N 0.4745 0.72617 0.48325 0.0
N571 N 0.57399 0.85223 0.55158 0.0
C572 C 0.49948 0.75598 0.50048 0.0
C573 C 0.55148 0.81995 0.53479 0.0
N574 N 0.47819 0.72223 0.55071 0.0
N575 N 0.58428 0.84411 0.48506 0.0
H576 H 0.57381 0.85332 0.57617 0.0
H577 H 0.5916 0.87877 0.54139 0.0
H578 H 0.58645 0.84346 0.46052 0.0
H579 H 0.60934 0.86337 0.49568 0.0
H580 H 0.4623 0.69458 0.54056 0.0
H581 H 0.47921 0.72116 0.57532 0.0
H582 H 0.45218 0.703 0.49289 0.0
H583 H 0.47623 0.72505 0.45866 0.0
C584 C 0.2206 0.49379 0.49712 0.0
C585 C 0.25105 0.52268 0.48116 0.0
C586 C 0.28583 0.54438 0.53131 0.0
C587 C 0.25212 0.51965 0.54734 0.0
N588 N 0.19659 0.46073 0.5468 0.0
N589 N 0.31954 0.56543 0.48106 0.0
C590 C 0.2229 0.4905 0.53056 0.0
C591 C 0.28629 0.54444 0.49772 0.0
N592 N 0.1875 0.47226 0.48047 0.0
N593 N 0.31611 0.56889 0.54847 0.0
H594 H 0.32047 0.5646 0.45645 0.0
H595 H 0.34759 0.58061 0.49122 0.0
H596 H 0.31798 0.5663 0.57298 0.0
H597 H 0.33894 0.59157 0.53881 0.0
H598 H 0.16065 0.45532 0.4908 0.0
H599 H 0.18591 0.47276 0.45589 0.0
H600 H 0.17689 0.43606 0.53613 0.0
H601 H 0.19745 0.45823 0.57133 0.0
C602 C 0.54905 0.23896 0.99536 0.0
C603 C 0.51307 0.2596 0.97902 0.0
C604 C 0.4824 0.28727 0.02899 0.0
C605 C 0.51249 0.25865 0.04524 0.0
N606 N 0.57685 0.20975 0.04517 0.0
N607 N 0.45006 0.3097 0.9786 0.0
C608 C 0.54745 0.23628 0.02886 0.0
C609 C 0.48157 0.28649 0.99541 0.0
N610 N 0.5839 0.22093 0.97873 0.0
N611 N 0.45433 0.31429 0.04596 0.0
H612 H 0.45055 0.311 0.95398 0.0
H613 H 0.42352 0.32727 0.9886 0.0
H614 H 0.45523 0.3154 0.07057 0.0
H615 H 0.43244 0.33755 0.03608 0.0
H616 H 0.61302 0.20845 0.98908 0.0
H617 H 0.58545 0.22209 0.95419 0.0
H618 H 0.59953 0.18796 0.03456 0.0
H619 H 0.57743 0.20815 0.06973 0.0
C620 C 0.75428 0.49541 0.50306 0.0
C621 C 0.78837 0.52014 0.48744 0.0
C622 C 0.81335 0.55233 0.53775 0.0
C623 C 0.78544 0.52099 0.55355 0.0
N624 N 0.72251 0.4706 0.55314 0.0
N625 N 0.84739 0.57572 0.48829 0.0
C626 C 0.75319 0.49541 0.53666 0.0
C627 C 0.8162 0.55071 0.50428 0.0
N628 N 0.72395 0.47144 0.48552 0.0
N629 N 0.83782 0.58265 0.55497 0.0
H630 H 0.84905 0.57638 0.46372 0.0
H631 H 0.87244 0.59482 0.49905 0.0
H632 H 0.83629 0.58409 0.57952 0.0
H633 H 0.85673 0.60858 0.54519 0.0
H634 H 0.69771 0.45254 0.49486 0.0
H635 H 0.72404 0.47219 0.4609 0.0
H636 H 0.69947 0.44846 0.54308 0.0
H637 H 0.71965 0.47345 0.5776 0.0
C638 C 0.56705 0.76589 0.03423 0.0
C639 C 0.53948 0.79667 0.05073 0.0
C640 C 0.50626 0.82249 1.00113 0.0
C641 C 0.53659 0.79445 0.98456 0.0
N642 N 0.58424 0.72973 0.98424 0.0
N643 N 0.47436 0.8444 0.05155 0.0
C644 C 0.56306 0.76268 1.00089 0.0
C645 C 0.50578 0.82126 0.03466 0.0
N646 N 0.59828 0.74141 0.05039 0.0
N647 N 0.48039 0.8525 0.98485 0.0
H648 H 0.47386 0.8446 0.07614 0.0
H649 H 0.44667 0.86011 0.04142 0.0
H650 H 0.47885 0.85307 0.96027 0.0
H651 H 0.46192 0.87796 0.99548 0.0
H652 H 0.62305 0.72223 0.03956 0.0
H653 H 0.60026 0.74169 0.07498 0.0
H654 H 0.60218 0.70362 0.99459 0.0
H655 H 0.57973 0.72632 0.95993 0.0
C656 C 0.287 0.31994 0.10538 0.0
C657 C 0.26595 0.33213 0.13425 0.0
C658 C 0.31116 0.2755 0.16229 0.0
C659 C 0.33482 0.26643 0.13398 0.0
N660 N 0.35099 0.28572 0.07982 0.0
N661 N 0.25936 0.324 0.19059 0.0
C662 C 0.32392 0.28975 0.10577 0.0
C663 C 0.27848 0.31059 0.16286 0.0
N664 N 0.27248 0.33781 0.07744 0.0
N665 N 0.31911 0.24964 0.18834 0.0
H666 H 0.23328 0.34729 0.19159 0.0
H667 H 0.27055 0.31374 0.2127 0.0
H668 H 0.34275 0.22382 0.18854 0.0
H669 H 0.3002 0.25129 0.20892 0.0
H670 H 0.28191 0.32526 0.0555 0.0
H671 H 0.24897 0.3635 0.07573 0.0
H672 H 0.34845 0.30621 0.06 0.0
H673 H 0.37896 0.26479 0.07894 0.0
C674 C 0.77867 0.29274 0.65106 0.0
C675 C 0.771 0.3348 0.63621 0.0
C676 C 0.69754 0.30814 0.61728 0.0
C677 C 0.70324 0.26769 0.63452 0.0
N678 N 0.74707 0.22176 0.66954 0.0
N679 N 0.72151 0.3847 0.60781 0.0
C680 C 0.74337 0.25992 0.65181 0.0
C681 C 0.72991 0.34309 0.62016 0.0
N682 N 0.81976 0.2842 0.66415 0.0
N683 N 0.66209 0.31236 0.59689 0.0
H684 H 0.74529 0.41049 0.60734 0.0
H685 H 0.68999 0.39473 0.59983 0.0
H686 H 0.63756 0.28758 0.59394 0.0
H687 H 0.65902 0.33852 0.58074 0.0
H688 H 0.82935 0.2529 0.67273 0.0
H689 H 0.84554 0.30807 0.66471 0.0
H690 H 0.77337 0.21566 0.68515 0.0
H691 H 0.72208 0.19705 0.67002 0.0
C692 C 0.75986 0.72624 0.1085 0.0
C693 C 0.78761 0.72019 0.13548 0.0
C694 C 0.74622 0.77966 0.16331 0.0
C695 C 0.72036 0.78746 0.13565 0.0
N696 N 0.70575 0.77196 0.08055 0.0
N697 N 0.81164 0.74409 0.18704 0.0
C698 C 0.72852 0.7622 0.10777 0.0
C699 C 0.78197 0.74773 0.16252 0.0
N700 N 0.76111 0.69562 0.08438 0.0
N701 N 0.73618 0.80244 0.19039 0.0
H702 H 0.83802 0.72108 0.18704 0.0
H703 H 0.81239 0.76586 0.20625 0.0
H704 H 0.71194 0.82765 0.19129 0.0
H705 H 0.75006 0.79494 0.2123 0.0
H706 H 0.73782 0.69467 0.06603 0.0
H707 H 0.78296 0.66833 0.08386 0.0
H708 H 0.71464 0.75919 0.05856 0.0
H709 H 0.67948 0.79493 0.07928 0.0
C710 C 0.31253 0.69342 0.62161 0.0
C711 C 0.2699 0.70142 0.63559 0.0
C712 C 0.29419 0.77789 0.65028 0.0
C713 C 0.33579 0.77044 0.63485 0.0
N714 N 0.38164 0.72474 0.60075 0.0
N715 N 0.21773 0.75207 0.66026 0.0
C716 C 0.34421 0.72912 0.61924 0.0
C717 C 0.25996 0.74402 0.649 0.0
N718 N 0.32288 0.65152 0.61051 0.0
N719 N 0.28806 0.81679 0.66686 0.0
H720 H 0.19271 0.72741 0.66085 0.0
H721 H 0.20659 0.78357 0.6674 0.0
H722 H 0.31226 0.84225 0.66773 0.0
H723 H 0.2605 0.82284 0.68129 0.0
H724 H 0.3552 0.64188 0.6041 0.0
H725 H 0.2998 0.62515 0.60941 0.0
H726 H 0.38706 0.69774 0.58563 0.0
H727 H 0.40578 0.74999 0.59828 0.0
C728 C 0.34355 0.73804 0.41824 0.0
C729 C 0.34007 0.77617 0.39828 0.0
C730 C 0.26683 0.74895 0.3789 0.0
C731 C 0.27227 0.70914 0.39695 0.0
N732 N 0.31781 0.6629 0.43106 0.0
N733 N 0.30108 0.81711 0.35779 0.0
C734 C 0.31124 0.7029 0.41581 0.0
C735 C 0.30235 0.78149 0.3781 0.0
N736 N 0.37705 0.73612 0.44036 0.0
N737 N 0.22748 0.75577 0.36296 0.0
H738 H 0.32607 0.84181 0.3573 0.0
H739 H 0.27692 0.82095 0.34023 0.0
H740 H 0.20158 0.73201 0.36253 0.0
H741 H 0.21924 0.78577 0.35181 0.0
H742 H 0.37832 0.7121 0.45818 0.0
H743 H 0.40185 0.76078 0.44268 0.0
H744 H 0.34801 0.65397 0.44176 0.0
H745 H 0.29412 0.63699 0.43125 0.0
C746 C 0.30214 0.26489 0.86982 0.0
C747 C 0.32795 0.25742 0.89749 0.0
C748 C 0.28276 0.31317 0.9261 0.0
C749 C 0.25976 0.32379 0.8976 0.0
N750 N 0.24837 0.31184 0.84196 0.0
N751 N 0.34735 0.27859 0.95085 0.0
C752 C 0.26967 0.30014 0.86933 0.0
C753 C 0.319 0.28211 0.92549 0.0
N754 N 0.30797 0.23736 0.84433 0.0
N755 N 0.27091 0.33364 0.95378 0.0
H756 H 0.37478 0.25697 0.95161 0.0
H757 H 0.34624 0.29973 0.97039 0.0
H758 H 0.24852 0.36035 0.95524 0.0
H759 H 0.28148 0.32255 0.97585 0.0
H760 H 0.28764 0.23792 0.82435 0.0
H761 H 0.33126 0.21121 0.84417 0.0
H762 H 0.25757 0.29997 0.81981 0.0
H763 H 0.22242 0.3353 0.84118 0.0
C764 C 0.7152 0.29962 0.4257 0.0
C765 C 0.71055 0.27129 0.39884 0.0
C766 C 0.77398 0.31027 0.37328 0.0
C767 C 0.77639 0.34042 0.39917 0.0
N768 N 0.74567 0.36838 0.44798 0.0
N769 N 0.73247 0.2511 0.34608 0.0
C770 C 0.74625 0.33609 0.42495 0.0
C771 C 0.73912 0.27706 0.3723 0.0
N772 N 0.68961 0.29194 0.45197 0.0
N773 N 0.80575 0.3128 0.3501 0.0
H774 H 0.70885 0.2251 0.34524 0.0
H775 H 0.74863 0.25651 0.32466 0.0
H776 H 0.83118 0.33707 0.35012 0.0
H777 H 0.80896 0.28933 0.33205 0.0
H778 H 0.69553 0.30727 0.47366 0.0
H779 H 0.66382 0.2682 0.45293 0.0
H780 H 0.72086 0.37066 0.46518 0.0
H781 H 0.76807 0.3954 0.44868 0.0
C782 C 0.78927 0.75146 0.88312 0.0
C783 C 0.77791 0.7076 0.89391 0.0
C784 C 0.70154 0.73313 0.90623 0.0
C785 C 0.71164 0.77591 0.89319 0.0
N786 N 0.76301 0.8251 0.86616 0.0
N787 N 0.72111 0.65489 0.91176 0.0
C788 C 0.75505 0.78499 0.88086 0.0
C789 C 0.73333 0.69785 0.90396 0.0
N790 N 0.83275 0.761 0.87512 0.0
N791 N 0.66261 0.72694 0.92286 0.0
H792 H 0.74354 0.62826 0.91339 0.0
H793 H 0.68781 0.64482 0.9147 0.0
H794 H 0.6387 0.75204 0.92597 0.0
H795 H 0.65595 0.69847 0.93636 0.0
H796 H 0.84453 0.79329 0.87044 0.0
H797 H 0.85786 0.73664 0.87466 0.0
H798 H 0.79236 0.8325 0.85387 0.0
H799 H 0.73867 0.85013 0.86434 0.0
loop_
_geom_bond_atom_site_label_1
_geom_bond_atom_site_label_2
_geom_bond_distance
_geom_bond_site_symmetry_2
_ccdc_geom_bond_type
O0 Cd1 2.223 . S
O0 C8 1.315 . S
Cd1 O0 2.223 . S
Cd1 O4 2.297 . S
Cd1 O5 2.439 . S
Cd1 O11 2.240 . S
Cd2 O3 2.240 . S
Cd2 O10 2.223 . S
Cd2 O12 2.297 . S
Cd2 O13 2.439 . S
O3 Cd2 2.240 . S
O3 C8 1.279 . S
O4 Cd1 2.297 . S
O4 C6 1.247 . S
O5 Cd1 2.439 . S
O5 C6 1.208 . S
C6 O4 1.247 . S
C6 O5 1.208 . S
C7 O12 1.247 . S
C7 O13 1.208 . S
C8 O0 1.315 . S
C8 O3 1.279 . S
C9 O10 1.315 . S
C9 O11 1.279 . S
O10 Cd2 2.223 . S
O10 C9 1.315 . S
O11 Cd1 2.240 . S
O11 C9 1.279 . S
O12 Cd2 2.297 . S
O12 C7 1.247 . S
O13 Cd2 2.439 . S
O13 C7 1.208 . S
O14 Cd15 2.223 . S
O14 C22 1.315 . S
Cd15 O14 2.223 . S
Cd15 O18 2.297 . S
Cd15 O19 2.439 . S
Cd15 O25 2.240 . S
Cd16 O17 2.240 . S
Cd16 O24 2.223 . S
Cd16 O26 2.297 . S
Cd16 O27 2.439 . S
O17 Cd16 2.240 . S
O17 C22 1.279 . S
O18 Cd15 2.297 . S
O18 C20 1.247 . S
O19 Cd15 2.439 . S
O19 C20 1.208 . S
C20 O18 1.247 . S
C20 O19 1.208 . S
C21 O26 1.247 . S
C21 O27 1.208 . S
C22 O14 1.315 . S
C22 O17 1.279 . S
C23 O24 1.315 . S
C23 O25 1.279 . S
O24 Cd16 2.223 . S
O24 C23 1.315 . S
O25 Cd15 2.240 . S
O25 C23 1.279 . S
O26 Cd16 2.297 . S
O26 C21 1.247 . S
O27 Cd16 2.439 . S
O27 C21 1.208 . S
O28 Cd29 2.223 . S
O28 C36 1.315 . S
Cd29 O28 2.223 . S
Cd29 O32 2.297 . S
Cd29 O33 2.439 . S
Cd29 O39 2.240 . S
Cd30 O31 2.240 . S
Cd30 O38 2.223 . S
Cd30 O40 2.297 . S
Cd30 O41 2.439 . S
O31 Cd30 2.240 . S
O31 C36 1.279 . S
O32 Cd29 2.297 . S
O32 C34 1.247 . S
O33 Cd29 2.439 . S
O33 C34 1.208 . S
C34 O32 1.247 . S
C34 O33 1.208 . S
C35 O40 1.247 . S
C35 O41 1.208 . S
C36 O28 1.315 . S
C36 O31 1.279 . S
C37 O38 1.315 . S
C37 O39 1.279 . S
O38 Cd30 2.223 . S
O38 C37 1.315 . S
O39 Cd29 2.240 . S
O39 C37 1.279 . S
O40 Cd30 2.297 . S
O40 C35 1.247 . S
O41 Cd30 2.439 . S
O41 C35 1.208 . S
O42 Cd43 2.223 . S
O42 C50 1.315 . S
Cd43 O42 2.223 . S
Cd43 O46 2.297 . S
Cd43 O47 2.439 . S
Cd43 O53 2.240 . S
Cd44 O45 2.240 . S
Cd44 O52 2.223 . S
Cd44 O54 2.297 . S
Cd44 O55 2.439 . S
O45 Cd44 2.240 . S
O45 C50 1.279 . S
O46 Cd43 2.297 . S
O46 C48 1.247 . S
O47 Cd43 2.439 . S
O47 C48 1.208 . S
C48 O46 1.247 . S
C48 O47 1.208 . S
C49 O54 1.247 . S
C49 O55 1.208 . S
C50 O42 1.315 . S
C50 O45 1.279 . S
C51 O52 1.315 . S
C51 O53 1.279 . S
O52 Cd44 2.223 . S
O52 C51 1.315 . S
O53 Cd43 2.240 . S
O53 C51 1.279 . S
O54 Cd44 2.297 . S
O54 C49 1.247 . S
O55 Cd44 2.439 . S
O55 C49 1.208 . S
O56 Cd57 2.223 . S
O56 C64 1.315 . S
Cd57 O56 2.223 . S
Cd57 O60 2.297 . S
Cd57 O61 2.439 . S
Cd57 O67 2.240 . S
Cd58 O59 2.240 . S
Cd58 O66 2.223 . S
Cd58 O68 2.297 . S
Cd58 O69 2.439 . S
O59 Cd58 2.240 . S
O59 C64 1.279 . S
O60 Cd57 2.297 . S
O60 C62 1.247 . S
O61 Cd57 2.439 . S
O61 C62 1.208 . S
C62 O60 1.247 . S
C62 O61 1.208 . S
C63 O68 1.247 . S
C63 O69 1.208 . S
C64 O56 1.315 . S
C64 O59 1.279 . S
C65 O66 1.315 . S
C65 O67 1.279 . S
O66 Cd58 2.223 . S
O66 C65 1.315 . S
O67 Cd57 2.240 . S
O67 C65 1.279 . S
O68 Cd58 2.297 . S
O68 C63 1.247 . S
O69 Cd58 2.439 . S
O69 C63 1.208 . S
O70 Cd71 2.223 . S
O70 C78 1.315 . S
Cd71 O70 2.223 . S
Cd71 O74 2.297 . S
Cd71 O75 2.439 . S
Cd71 O81 2.240 . S
Cd72 O73 2.240 . S
Cd72 O80 2.223 . S
Cd72 O82 2.297 . S
Cd72 O83 2.439 . S
O73 Cd72 2.240 . S
O73 C78 1.279 . S
O74 Cd71 2.297 . S
O74 C76 1.247 . S
O75 Cd71 2.439 . S
O75 C76 1.208 . S
C76 O74 1.247 . S
C76 O75 1.208 . S
C77 O82 1.247 . S
C77 O83 1.208 . S
C78 O70 1.315 . S
C78 O73 1.279 . S
C79 O80 1.315 . S
C79 O81 1.279 . S
O80 Cd72 2.223 . S
O80 C79 1.315 . S
O81 Cd71 2.240 . S
O81 C79 1.279 . S
O82 Cd72 2.297 . S
O82 C77 1.247 . S
O83 Cd72 2.439 . S
O83 C77 1.208 . S
O84 Cd85 2.223 . S
O84 C92 1.315 . S
Cd85 O84 2.223 . S
Cd85 O88 2.297 . S
Cd85 O89 2.439 . S
Cd85 O95 2.240 . S
Cd86 O87 2.240 . S
Cd86 O94 2.223 . S
Cd86 O96 2.297 . S
Cd86 O97 2.439 . S
O87 Cd86 2.240 . S
O87 C92 1.279 . S
O88 Cd85 2.297 . S
O88 C90 1.247 . S
O89 Cd85 2.439 . S
O89 C90 1.208 . S
C90 O88 1.247 . S
C90 O89 1.208 . S
C91 O96 1.247 . S
C91 O97 1.208 . S
C92 O84 1.315 . S
C92 O87 1.279 . S
C93 O94 1.315 . S
C93 O95 1.279 . S
O94 Cd86 2.223 . S
O94 C93 1.315 . S
O95 Cd85 2.240 . S
O95 C93 1.279 . S
O96 Cd86 2.297 . S
O96 C91 1.247 . S
O97 Cd86 2.439 . S
O97 C91 1.208 . S
O98 Cd99 2.223 . S
O98 C106 1.315 . S
Cd99 O98 2.223 . S
Cd99 O102 2.297 . S
Cd99 O103 2.439 . S
Cd99 O109 2.240 . S
Cd100 O101 2.240 . S
Cd100 O108 2.223 . S
Cd100 O110 2.297 . S
Cd100 O111 2.439 . S
O101 Cd100 2.240 . S
O101 C106 1.279 . S
O102 Cd99 2.297 . S
O102 C104 1.247 . S
O103 Cd99 2.439 . S
O103 C104 1.208 . S
C104 O102 1.247 . S
C104 O103 1.208 . S
C105 O110 1.247 . S
C105 O111 1.208 . S
C106 O98 1.315 . S
C106 O101 1.279 . S
C107 O108 1.315 . S
C107 O109 1.279 . S
O108 Cd100 2.223 . S
O108 C107 1.315 . S
O109 Cd99 2.240 . S
O109 C107 1.279 . S
O110 Cd100 2.297 . S
O110 C105 1.247 . S
O111 Cd100 2.439 . S
O111 C105 1.208 . S
O112 Cd113 2.223 . S
O112 C120 1.315 . S
Cd113 O112 2.223 . S
Cd113 O116 2.297 . S
Cd113 O117 2.439 . S
Cd113 O123 2.240 . S
Cd114 O115 2.240 . S
Cd114 O122 2.223 . S
Cd114 O124 2.297 . S
Cd114 O125 2.439 . S
O115 Cd114 2.240 . S
O115 C120 1.279 . S
O116 Cd113 2.297 . S
O116 C118 1.247 . S
O117 Cd113 2.439 . S
O117 C118 1.208 . S
C118 O116 1.247 . S
C118 O117 1.208 . S
C119 O124 1.247 . S
C119 O125 1.208 . S
C120 O112 1.315 . S
C120 O115 1.279 . S
C121 O122 1.315 . S
C121 O123 1.279 . S
O122 Cd114 2.223 . S
O122 C121 1.315 . S
O123 Cd113 2.240 . S
O123 C121 1.279 . S
O124 Cd114 2.297 . S
O124 C119 1.247 . S
O125 Cd114 2.439 . S
O125 C119 1.208 . S
O126 Cd127 2.223 . S
O126 C134 1.315 . S
Cd127 O126 2.223 . S
Cd127 O130 2.297 . S
Cd127 O131 2.439 . S
Cd127 O137 2.240 . S
Cd128 O129 2.240 . S
Cd128 O136 2.223 . S
Cd128 O138 2.297 . S
Cd128 O139 2.439 . S
O129 Cd128 2.240 . S
O129 C134 1.279 . S
O130 Cd127 2.297 . S
O130 C132 1.247 . S
O131 Cd127 2.439 . S
O131 C132 1.208 . S
C132 O130 1.247 . S
C132 O131 1.208 . S
C133 O138 1.247 . S
C133 O139 1.208 . S
C134 O126 1.315 . S
C134 O129 1.279 . S
C135 O136 1.315 . S
C135 O137 1.279 . S
O136 Cd128 2.223 . S
O136 C135 1.315 . S
O137 Cd127 2.240 . S
O137 C135 1.279 . S
O138 Cd128 2.297 . S
O138 C133 1.247 . S
O139 Cd128 2.439 . S
O139 C133 1.208 . S
O140 Cd141 2.223 . S
O140 C148 1.315 . S
Cd141 O140 2.223 . S
Cd141 O144 2.297 . S
Cd141 O145 2.439 . S
Cd141 O151 2.240 . S
Cd142 O143 2.240 . S
Cd142 O150 2.223 . S
Cd142 O152 2.297 . S
Cd142 O153 2.439 . S
O143 Cd142 2.240 . S
O143 C148 1.279 . S
O144 Cd141 2.297 . S
O144 C146 1.247 . S
O145 Cd141 2.439 . S
O145 C146 1.208 . S
C146 O144 1.247 . S
C146 O145 1.208 . S
C147 O152 1.247 . S
C147 O153 1.208 . S
C148 O140 1.315 . S
C148 O143 1.279 . S
C149 O150 1.315 . S
C149 O151 1.279 . S
O150 Cd142 2.223 . S
O150 C149 1.315 . S
O151 Cd141 2.240 . S
O151 C149 1.279 . S
O152 Cd142 2.297 . S
O152 C147 1.247 . S
O153 Cd142 2.439 . S
O153 C147 1.208 . S
O154 Cd155 2.223 . S
O154 C162 1.315 . S
Cd155 O154 2.223 . S
Cd155 O158 2.297 . S
Cd155 O159 2.439 . S
Cd155 O165 2.240 . S
Cd156 O157 2.240 . S
Cd156 O164 2.223 . S
Cd156 O166 2.297 . S
Cd156 O167 2.439 . S
O157 Cd156 2.240 . S
O157 C162 1.279 . S
O158 Cd155 2.297 . S
O158 C160 1.247 . S
O159 Cd155 2.439 . S
O159 C160 1.208 . S
C160 O158 1.247 . S
C160 O159 1.208 . S
C161 O166 1.247 . S
C161 O167 1.208 . S
C162 O154 1.315 . S
C162 O157 1.279 . S
C163 O164 1.315 . S
C163 O165 1.279 . S
O164 Cd156 2.223 . S
O164 C163 1.315 . S
O165 Cd155 2.240 . S
O165 C163 1.279 . S
O166 Cd156 2.297 . S
O166 C161 1.247 . S
O167 Cd156 2.439 . S
O167 C161 1.208 . S
O168 Cd169 2.223 . S
O168 C176 1.315 . S
Cd169 O168 2.223 . S
Cd169 O172 2.297 . S
Cd169 O173 2.439 . S
Cd169 O179 2.240 . S
Cd170 O171 2.240 . S
Cd170 O178 2.223 . S
Cd170 O180 2.297 . S
Cd170 O181 2.439 . S
O171 Cd170 2.240 . S
O171 C176 1.279 . S
O172 Cd169 2.297 . S
O172 C174 1.247 . S
O173 Cd169 2.439 . S
O173 C174 1.208 . S
C174 O172 1.247 . S
C174 O173 1.208 . S
C175 O180 1.247 . S
C175 O181 1.208 . S
C176 O168 1.315 . S
C176 O171 1.279 . S
C177 O178 1.315 . S
C177 O179 1.279 . S
O178 Cd170 2.223 . S
O178 C177 1.315 . S
O179 Cd169 2.240 . S
O179 C177 1.279 . S
O180 Cd170 2.297 . S
O180 C175 1.247 . S
O181 Cd170 2.439 . S
O181 C175 1.208 . S
O182 Cd183 2.223 . S
O182 C190 1.315 . S
Cd183 O182 2.223 . S
Cd183 O186 2.297 . S
Cd183 O187 2.439 . S
Cd183 O193 2.240 . S
Cd184 O185 2.240 . S
Cd184 O192 2.223 . S
Cd184 O194 2.297 . S
Cd184 O195 2.439 . S
O185 Cd184 2.240 . S
O185 C190 1.279 . S
O186 Cd183 2.297 . S
O186 C188 1.247 . S
O187 Cd183 2.439 . S
O187 C188 1.208 . S
C188 O186 1.247 . S
C188 O187 1.208 . S
C189 O194 1.247 . S
C189 O195 1.208 . S
C190 O182 1.315 . S
C190 O185 1.279 . S
C191 O192 1.315 . S
C191 O193 1.279 . S
O192 Cd184 2.223 . S
O192 C191 1.315 . S
O193 Cd183 2.240 . S
O193 C191 1.279 . S
O194 Cd184 2.297 . S
O194 C189 1.247 . S
O195 Cd184 2.439 . S
O195 C189 1.208 . S
O196 Cd197 2.223 . S
O196 C204 1.315 . S
Cd197 O196 2.223 . S
Cd197 O200 2.297 . S
Cd197 O201 2.439 . S
Cd197 O207 2.240 . S
Cd198 O199 2.240 . S
Cd198 O206 2.223 . S
Cd198 O208 2.297 . S
Cd198 O209 2.439 . S
O199 Cd198 2.240 . S
O199 C204 1.279 . S
O200 Cd197 2.297 . S
O200 C202 1.247 . S
O201 Cd197 2.439 . S
O201 C202 1.208 . S
C202 O200 1.247 . S
C202 O201 1.208 . S
C203 O208 1.247 . S
C203 O209 1.208 . S
C204 O196 1.315 . S
C204 O199 1.279 . S
C205 O206 1.315 . S
C205 O207 1.279 . S
O206 Cd198 2.223 . S
O206 C205 1.315 . S
O207 Cd197 2.240 . S
O207 C205 1.279 . S
O208 Cd198 2.297 . S
O208 C203 1.247 . S
O209 Cd198 2.439 . S
O209 C203 1.208 . S
O210 Cd211 2.223 . S
O210 C218 1.315 . S
Cd211 O210 2.223 . S
Cd211 O214 2.297 . S
Cd211 O215 2.439 . S
Cd211 O221 2.240 . S
Cd212 O213 2.240 . S
Cd212 O220 2.223 . S
Cd212 O222 2.297 . S
Cd212 O223 2.439 . S
O213 Cd212 2.240 . S
O213 C218 1.279 . S
O214 Cd211 2.297 . S
O214 C216 1.247 . S
O215 Cd211 2.439 . S
O215 C216 1.208 . S
C216 O214 1.247 . S
C216 O215 1.208 . S
C217 O222 1.247 . S
C217 O223 1.208 . S
C218 O210 1.315 . S
C218 O213 1.279 . S
C219 O220 1.315 . S
C219 O221 1.279 . S
O220 Cd212 2.223 . S
O220 C219 1.315 . S
O221 Cd211 2.240 . S
O221 C219 1.279 . S
O222 Cd212 2.297 . S
O222 C217 1.247 . S
O223 Cd212 2.439 . S
O223 C217 1.208 . S
C224 C225 1.363 . S
C224 C230 1.379 1_455 S
C224 N232 1.356 . S
C225 C224 1.363 . S
C225 C231 1.363 . S
C226 C227 1.363 . S
C226 C231 1.379 1_655 S
C226 N233 1.356 . S
C227 C226 1.363 . S
C227 C230 1.363 . S
N228 C230 1.356 . S
N228 H240 0.984 . S
N228 H241 0.985 . S
N229 C231 1.356 . S
N229 H234 0.984 . S
N229 H235 0.985 . S
C230 C224 1.379 1_655 S
C230 C227 1.363 . S
C230 N228 1.356 . S
C231 C225 1.363 . S
C231 C226 1.379 1_455 S
C231 N229 1.356 . S
N232 C224 1.356 . S
N232 H238 0.984 . S
N232 H239 0.984 . S
N233 C226 1.356 . S
N233 H236 0.984 . S
N233 H237 0.985 . S
H234 N229 0.984 . S
H235 N229 0.985 . S
H236 N233 0.984 . S
H237 N233 0.985 . S
H238 N232 0.984 . S
H239 N232 0.984 . S
H240 N228 0.984 . S
H241 N228 0.985 . S
C242 C243 1.363 . S
C242 C248 1.379 1_565 S
C242 N250 1.356 . S
C243 C242 1.363 . S
C243 C249 1.363 . S
C244 C245 1.363 . S
C244 C249 1.379 1_545 S
C244 N251 1.356 . S
C245 C244 1.363 . S
C245 C248 1.363 . S
N246 C248 1.356 . S
N246 H258 0.984 . S
N246 H259 0.985 . S
N247 C249 1.356 . S
N247 H252 0.984 . S
N247 H253 0.985 . S
C248 C242 1.379 1_545 S
C248 C245 1.363 . S
C248 N246 1.356 . S
C249 C243 1.363 . S
C249 C244 1.379 1_565 S
C249 N247 1.356 . S
N250 C242 1.356 . S
N250 H256 0.984 . S
N250 H257 0.984 . S
N251 C244 1.356 . S
N251 H254 0.984 . S
N251 H255 0.985 . S
H252 N247 0.984 . S
H253 N247 0.985 . S
H254 N251 0.984 . S
H255 N251 0.985 . S
H256 N250 0.984 . S
H257 N250 0.984 . S
H258 N246 0.984 . S
H259 N246 0.985 . S
C260 C261 1.363 . S
C260 C266 1.379 1_455 S
C260 N268 1.356 . S
C261 C260 1.363 . S
C261 C267 1.363 . S
C262 C263 1.363 . S
C262 C267 1.379 1_655 S
C262 N269 1.356 . S
C263 C262 1.363 . S
C263 C266 1.363 . S
N264 C266 1.356 . S
N264 H276 0.984 . S
N264 H277 0.985 . S
N265 C267 1.356 . S
N265 H270 0.984 . S
N265 H271 0.985 . S
C266 C260 1.379 1_655 S
C266 C263 1.363 . S
C266 N264 1.356 . S
C267 C261 1.363 . S
C267 C262 1.379 1_455 S
C267 N265 1.356 . S
N268 C260 1.356 . S
N268 H274 0.984 . S
N268 H275 0.984 . S
N269 C262 1.356 . S
N269 H272 0.984 . S
N269 H273 0.985 . S
H270 N265 0.984 . S
H271 N265 0.985 . S
H272 N269 0.984 . S
H273 N269 0.985 . S
H274 N268 0.984 . S
H275 N268 0.984 . S
H276 N264 0.984 . S
H277 N264 0.985 . S
C278 C279 1.363 . S
C278 C284 1.379 1_565 S
C278 N286 1.356 . S
C279 C278 1.363 . S
C279 C285 1.363 . S
C280 C281 1.363 . S
C280 C285 1.379 1_545 S
C280 N287 1.356 . S
C281 C280 1.363 . S
C281 C284 1.363 . S
N282 C284 1.356 . S
N282 H294 0.984 . S
N282 H295 0.985 . S
N283 C285 1.356 . S
N283 H288 0.984 . S
N283 H289 0.985 . S
C284 C278 1.379 1_545 S
C284 C281 1.363 . S
C284 N282 1.356 . S
C285 C279 1.363 . S
C285 C280 1.379 1_565 S
C285 N283 1.356 . S
N286 C278 1.356 . S
N286 H292 0.984 . S
N286 H293 0.984 . S
N287 C280 1.356 . S
N287 H290 0.984 . S
N287 H291 0.985 . S
H288 N283 0.984 . S
H289 N283 0.985 . S
H290 N287 0.984 . S
H291 N287 0.985 . S
H292 N286 0.984 . S
H293 N286 0.984 . S
H294 N282 0.984 . S
H295 N282 0.985 . S
C296 C297 1.363 . S
C296 C302 1.379 1_655 S
C296 N304 1.356 . S
C297 C296 1.363 . S
C297 C303 1.363 . S
C298 C299 1.363 . S
C298 C303 1.379 1_455 S
C298 N305 1.356 . S
C299 C298 1.363 . S
C299 C302 1.363 . S
N300 C302 1.356 . S
N300 H312 0.984 . S
N300 H313 0.985 . S
N301 C303 1.356 . S
N301 H306 0.984 . S
N301 H307 0.985 . S
C302 C296 1.379 1_455 S
C302 C299 1.363 . S
C302 N300 1.356 . S
C303 C297 1.363 . S
C303 C298 1.379 1_655 S
C303 N301 1.356 . S
N304 C296 1.356 . S
N304 H310 0.984 . S
N304 H311 0.984 . S
N305 C298 1.356 . S
N305 H308 0.984 . S
N305 H309 0.985 . S
H306 N301 0.984 . S
H307 N301 0.985 . S
H308 N305 0.984 . S
H309 N305 0.985 . S
H310 N304 0.984 . S
H311 N304 0.984 . S
H312 N300 0.984 . S
H313 N300 0.985 . S
C314 C315 1.363 . S
C314 C320 1.379 1_545 S
C314 N322 1.356 . S
C315 C314 1.363 . S
C315 C321 1.363 . S
C316 C317 1.363 . S
C316 C321 1.379 1_565 S
C316 N323 1.356 . S
C317 C316 1.363 . S
C317 C320 1.363 . S
N318 C320 1.356 . S
N318 H330 0.984 . S
N318 H331 0.985 . S
N319 C321 1.356 . S
N319 H324 0.984 . S
N319 H325 0.985 . S
C320 C314 1.379 1_565 S
C320 C317 1.363 . S
C320 N318 1.356 . S
C321 C315 1.363 . S
C321 C316 1.379 1_545 S
C321 N319 1.356 . S
N322 C314 1.356 . S
N322 H328 0.984 . S
N322 H329 0.984 . S
N323 C316 1.356 . S
N323 H326 0.984 . S
N323 H327 0.985 . S
H324 N319 0.984 . S
H325 N319 0.985 . S
H326 N323 0.984 . S
H327 N323 0.985 . S
H328 N322 0.984 . S
H329 N322 0.984 . S
H330 N318 0.984 . S
H331 N318 0.985 . S
C332 C333 1.363 . S
C332 C338 1.379 1_655 S
C332 N340 1.356 . S
C333 C332 1.363 . S
C333 C339 1.363 . S
C334 C335 1.363 . S
C334 C339 1.379 1_455 S
C334 N341 1.356 . S
C335 C334 1.363 . S
C335 C338 1.363 . S
N336 C338 1.356 . S
N336 H348 0.984 . S
N336 H349 0.985 . S
N337 C339 1.356 . S
N337 H342 0.984 . S
N337 H343 0.985 . S
C338 C332 1.379 1_455 S
C338 C335 1.363 . S
C338 N336 1.356 . S
C339 C333 1.363 . S
C339 C334 1.379 1_655 S
C339 N337 1.356 . S
N340 C332 1.356 . S
N340 H346 0.984 . S
N340 H347 0.984 . S
N341 C334 1.356 . S
N341 H344 0.984 . S
N341 H345 0.985 . S
H342 N337 0.984 . S
H343 N337 0.985 . S
H344 N341 0.984 . S
H345 N341 0.985 . S
H346 N340 0.984 . S
H347 N340 0.984 . S
H348 N336 0.984 . S
H349 N336 0.985 . S
C350 C351 1.363 . S
C350 C356 1.379 1_545 S
C350 N358 1.356 . S
C351 C350 1.363 . S
C351 C357 1.363 . S
C352 C353 1.363 . S
C352 C357 1.379 1_565 S
C352 N359 1.356 . S
C353 C352 1.363 . S
C353 C356 1.363 . S
N354 C356 1.356 . S
N354 H366 0.984 . S
N354 H367 0.985 . S
N355 C357 1.356 . S
N355 H360 0.984 . S
N355 H361 0.985 . S
C356 C350 1.379 1_565 S
C356 C353 1.363 . S
C356 N354 1.356 . S
C357 C351 1.363 . S
C357 C352 1.379 1_545 S
C357 N355 1.356 . S
N358 C350 1.356 . S
N358 H364 0.984 . S
N358 H365 0.984 . S
N359 C352 1.356 . S
N359 H362 0.984 . S
N359 H363 0.985 . S
H360 N355 0.984 . S
H361 N355 0.985 . S
H362 N359 0.984 . S
H363 N359 0.985 . S
H364 N358 0.984 . S
H365 N358 0.984 . S
H366 N354 0.984 . S
H367 N354 0.985 . S
C368 C369 1.363 . S
C368 C374 1.379 . S
C368 N376 1.356 . S
C369 C368 1.363 . S
C369 C375 1.363 . S
C370 C371 1.363 . S
C370 C375 1.379 . S
C370 N377 1.356 . S
C371 C370 1.363 . S
C371 C374 1.363 . S
N372 C374 1.356 . S
N372 H384 0.984 . S
N372 H385 0.985 . S
N373 C375 1.356 . S
N373 H378 0.984 . S
N373 H379 0.985 . S
C374 C368 1.379 . S
C374 C371 1.363 . S
C374 N372 1.356 . S
C375 C369 1.363 . S
C375 C370 1.379 . S
C375 N373 1.356 . S
N376 C368 1.356 . S
N376 H382 0.984 . S
N376 H383 0.984 . S
N377 C370 1.356 . S
N377 H380 0.984 . S
N377 H381 0.985 . S
H378 N373 0.984 . S
H379 N373 0.985 . S
H380 N377 0.984 . S
H381 N377 0.985 . S
H382 N376 0.984 . S
H383 N376 0.984 . S
H384 N372 0.984 . S
H385 N372 0.985 . S
C386 C387 1.363 . S
C386 C392 1.379 . S
C386 N394 1.356 . S
C387 C386 1.363 . S
C387 C393 1.363 . S
C388 C389 1.363 . S
C388 C393 1.379 . S
C388 N395 1.356 . S
C389 C388 1.363 . S
C389 C392 1.363 . S
N390 C392 1.356 . S
N390 H402 0.984 . S
N390 H403 0.985 . S
N391 C393 1.356 . S
N391 H396 0.984 . S
N391 H397 0.985 . S
C392 C386 1.379 . S
C392 C389 1.363 . S
C392 N390 1.356 . S
C393 C387 1.363 . S
C393 C388 1.379 . S
C393 N391 1.356 . S
N394 C386 1.356 . S
N394 H400 0.984 . S
N394 H401 0.984 . S
N395 C388 1.356 . S
N395 H398 0.984 . S
N395 H399 0.985 . S
H396 N391 0.984 . S
H397 N391 0.985 . S
H398 N395 0.984 . S
H399 N395 0.985 . S
H400 N394 0.984 . S
H401 N394 0.984 . S
H402 N390 0.984 . S
H403 N390 0.985 . S
C404 C405 1.363 . S
C404 C410 1.379 . S
C404 N412 1.356 . S
C405 C404 1.363 . S
C405 C411 1.363 . S
C406 C407 1.363 . S
C406 C411 1.379 . S
C406 N413 1.356 . S
C407 C406 1.363 . S
C407 C410 1.363 . S
N408 C410 1.356 . S
N408 H420 0.984 . S
N408 H421 0.985 . S
N409 C411 1.356 . S
N409 H414 0.984 . S
N409 H415 0.985 . S
C410 C404 1.379 . S
C410 C407 1.363 . S
C410 N408 1.356 . S
C411 C405 1.363 . S
C411 C406 1.379 . S
C411 N409 1.356 . S
N412 C404 1.356 . S
N412 H418 0.984 . S
N412 H419 0.984 . S
N413 C406 1.356 . S
N413 H416 0.984 . S
N413 H417 0.985 . S
H414 N409 0.984 . S
H415 N409 0.985 . S
H416 N413 0.984 . S
H417 N413 0.985 . S
H418 N412 0.984 . S
H419 N412 0.984 . S
H420 N408 0.984 . S
H421 N408 0.985 . S
C422 C423 1.363 . S
C422 C428 1.379 . S
C422 N430 1.356 . S
C423 C422 1.363 . S
C423 C429 1.363 . S
C424 C425 1.363 . S
C424 C429 1.379 . S
C424 N431 1.356 . S
C425 C424 1.363 . S
C425 C428 1.363 . S
N426 C428 1.356 . S
N426 H438 0.984 . S
N426 H439 0.985 . S
N427 C429 1.356 . S
N427 H432 0.984 . S
N427 H433 0.985 . S
C428 C422 1.379 . S
C428 C425 1.363 . S
C428 N426 1.356 . S
C429 C423 1.363 . S
C429 C424 1.379 . S
C429 N427 1.356 . S
N430 C422 1.356 . S
N430 H436 0.984 . S
N430 H437 0.984 . S
N431 C424 1.356 . S
N431 H434 0.984 . S
N431 H435 0.985 . S
H432 N427 0.984 . S
H433 N427 0.985 . S
H434 N431 0.984 . S
H435 N431 0.985 . S
H436 N430 0.984 . S
H437 N430 0.984 . S
H438 N426 0.984 . S
H439 N426 0.985 . S
C440 C441 1.363 . S
C440 C446 1.379 . S
C440 N448 1.356 . S
C441 C440 1.363 . S
C441 C447 1.363 . S
C442 C443 1.363 . S
C442 C447 1.379 . S
C442 N449 1.356 . S
C443 C442 1.363 . S
C443 C446 1.363 . S
N444 C446 1.356 . S
N444 H456 0.984 . S
N444 H457 0.985 . S
N445 C447 1.356 . S
N445 H450 0.984 . S
N445 H451 0.985 . S
C446 C440 1.379 . S
C446 C443 1.363 . S
C446 N444 1.356 . S
C447 C441 1.363 . S
C447 C442 1.379 . S
C447 N445 1.356 . S
N448 C440 1.356 . S
N448 H454 0.984 . S
N448 H455 0.984 . S
N449 C442 1.356 . S
N449 H452 0.984 . S
N449 H453 0.985 . S
H450 N445 0.984 . S
H451 N445 0.985 . S
H452 N449 0.984 . S
H453 N449 0.985 . S
H454 N448 0.984 . S
H455 N448 0.984 . S
H456 N444 0.984 . S
H457 N444 0.985 . S
C458 C459 1.363 . S
C458 C464 1.379 . S
C458 N466 1.356 . S
C459 C458 1.363 . S
C459 C465 1.363 . S
C460 C461 1.363 . S
C460 C465 1.379 . S
C460 N467 1.356 . S
C461 C460 1.363 . S
C461 C464 1.363 . S
N462 C464 1.356 . S
N462 H474 0.984 . S
N462 H475 0.985 . S
N463 C465 1.356 . S
N463 H468 0.984 . S
N463 H469 0.985 . S
C464 C458 1.379 . S
C464 C461 1.363 . S
C464 N462 1.356 . S
C465 C459 1.363 . S
C465 C460 1.379 . S
C465 N463 1.356 . S
N466 C458 1.356 . S
N466 H472 0.984 . S
N466 H473 0.984 . S
N467 C460 1.356 . S
N467 H470 0.984 . S
N467 H471 0.985 . S
H468 N463 0.984 . S
H469 N463 0.985 . S
H470 N467 0.984 . S
H471 N467 0.985 . S
H472 N466 0.984 . S
H473 N466 0.984 . S
H474 N462 0.984 . S
H475 N462 0.985 . S
C476 C477 1.363 . S
C476 C482 1.379 . S
C476 N484 1.356 . S
C477 C476 1.363 . S
C477 C483 1.363 . S
C478 C479 1.363 . S
C478 C483 1.379 . S
C478 N485 1.356 . S
C479 C478 1.363 . S
C479 C482 1.363 . S
N480 C482 1.356 . S
N480 H492 0.984 . S
N480 H493 0.985 . S
N481 C483 1.356 . S
N481 H486 0.984 . S
N481 H487 0.985 . S
C482 C476 1.379 . S
C482 C479 1.363 . S
C482 N480 1.356 . S
C483 C477 1.363 . S
C483 C478 1.379 . S
C483 N481 1.356 . S
N484 C476 1.356 . S
N484 H490 0.984 . S
N484 H491 0.984 . S
N485 C478 1.356 . S
N485 H488 0.984 . S
N485 H489 0.985 . S
H486 N481 0.984 . S
H487 N481 0.985 . S
H488 N485 0.984 . S
H489 N485 0.985 . S
H490 N484 0.984 . S
H491 N484 0.984 . S
H492 N480 0.984 . S
H493 N480 0.985 . S
C494 C495 1.363 . S
C494 C500 1.379 . S
C494 N502 1.356 . S
C495 C494 1.363 . S
C495 C501 1.363 . S
C496 C497 1.363 . S
C496 C501 1.379 . S
C496 N503 1.356 . S
C497 C496 1.363 . S
C497 C500 1.363 . S
N498 C500 1.356 . S
N498 H510 0.984 . S
N498 H511 0.985 . S
N499 C501 1.356 . S
N499 H504 0.984 . S
N499 H505 0.985 . S
C500 C494 1.379 . S
C500 C497 1.363 . S
C500 N498 1.356 . S
C501 C495 1.363 . S
C501 C496 1.379 . S
C501 N499 1.356 . S
N502 C494 1.356 . S
N502 H508 0.984 . S
N502 H509 0.984 . S
N503 C496 1.356 . S
N503 H506 0.984 . S
N503 H507 0.985 . S
H504 N499 0.984 . S
H505 N499 0.985 . S
H506 N503 0.984 . S
H507 N503 0.985 . S
H508 N502 0.984 . S
H509 N502 0.984 . S
H510 N498 0.984 . S
H511 N498 0.985 . S
C512 C513 1.363 . S
C512 C518 1.379 1_556 S
C512 N520 1.356 . S
C513 C512 1.363 . S
C513 C519 1.363 . S
C514 C515 1.363 . S
C514 C519 1.379 1_554 S
C514 N521 1.356 . S
C515 C514 1.363 . S
C515 C518 1.363 . S
N516 C518 1.356 . S
N516 H528 0.984 . S
N516 H529 0.985 . S
N517 C519 1.356 . S
N517 H522 0.984 . S
N517 H523 0.985 . S
C518 C512 1.379 1_554 S
C518 C515 1.363 . S
C518 N516 1.356 . S
C519 C513 1.363 . S
C519 C514 1.379 1_556 S
C519 N517 1.356 . S
N520 C512 1.356 . S
N520 H526 0.984 . S
N520 H527 0.984 . S
N521 C514 1.356 . S
N521 H524 0.984 . S
N521 H525 0.985 . S
H522 N517 0.984 . S
H523 N517 0.985 . S
H524 N521 0.984 . S
H525 N521 0.985 . S
H526 N520 0.984 . S
H527 N520 0.984 . S
H528 N516 0.984 . S
H529 N516 0.985 . S
C530 C531 1.363 . S
C530 C536 1.379 . S
C530 N538 1.356 . S
C531 C530 1.363 . S
C531 C537 1.363 . S
C532 C533 1.363 . S
C532 C537 1.379 . S
C532 N539 1.356 . S
C533 C532 1.363 . S
C533 C536 1.363 . S
N534 C536 1.356 . S
N534 H546 0.984 . S
N534 H547 0.985 . S
N535 C537 1.356 . S
N535 H540 0.984 . S
N535 H541 0.985 . S
C536 C530 1.379 . S
C536 C533 1.363 . S
C536 N534 1.356 . S
C537 C531 1.363 . S
C537 C532 1.379 . S
C537 N535 1.356 . S
N538 C530 1.356 . S
N538 H544 0.984 . S
N538 H545 0.984 . S
N539 C532 1.356 . S
N539 H542 0.984 . S
N539 H543 0.985 . S
H540 N535 0.984 . S
H541 N535 0.985 . S
H542 N539 0.984 . S
H543 N539 0.985 . S
H544 N538 0.984 . S
H545 N538 0.984 . S
H546 N534 0.984 . S
H547 N534 0.985 . S
C548 C549 1.363 . S
C548 C554 1.379 1_554 S
C548 N556 1.356 . S
C549 C548 1.363 . S
C549 C555 1.363 . S
C550 C551 1.363 . S
C550 C555 1.379 1_556 S
C550 N557 1.356 . S
C551 C550 1.363 . S
C551 C554 1.363 . S
N552 C554 1.356 . S
N552 H564 0.984 . S
N552 H565 0.985 . S
N553 C555 1.356 . S
N553 H558 0.984 . S
N553 H559 0.985 . S
C554 C548 1.379 1_556 S
C554 C551 1.363 . S
C554 N552 1.356 . S
C555 C549 1.363 . S
C555 C550 1.379 1_554 S
C555 N553 1.356 . S
N556 C548 1.356 . S
N556 H562 0.984 . S
N556 H563 0.984 . S
N557 C550 1.356 . S
N557 H560 0.984 . S
N557 H561 0.985 . S
H558 N553 0.984 . S
H559 N553 0.985 . S
H560 N557 0.984 . S
H561 N557 0.985 . S
H562 N556 0.984 . S
H563 N556 0.984 . S
H564 N552 0.984 . S
H565 N552 0.985 . S
C566 C567 1.363 . S
C566 C572 1.379 . S
C566 N574 1.356 . S
C567 C566 1.363 . S
C567 C573 1.363 . S
C568 C569 1.363 . S
C568 C573 1.379 . S
C568 N575 1.356 . S
C569 C568 1.363 . S
C569 C572 1.363 . S
N570 C572 1.356 . S
N570 H582 0.984 . S
N570 H583 0.985 . S
N571 C573 1.356 . S
N571 H576 0.984 . S
N571 H577 0.985 . S
C572 C566 1.379 . S
C572 C569 1.363 . S
C572 N570 1.356 . S
C573 C567 1.363 . S
C573 C568 1.379 . S
C573 N571 1.356 . S
N574 C566 1.356 . S
N574 H580 0.984 . S
N574 H581 0.984 . S
N575 C568 1.356 . S
N575 H578 0.984 . S
N575 H579 0.985 . S
H576 N571 0.984 . S
H577 N571 0.985 . S
H578 N575 0.984 . S
H579 N575 0.985 . S
H580 N574 0.984 . S
H581 N574 0.984 . S
H582 N570 0.984 . S
H583 N570 0.985 . S
C584 C585 1.363 . S
C584 C590 1.379 . S
C584 N592 1.356 . S
C585 C584 1.363 . S
C585 C591 1.363 . S
C586 C587 1.363 . S
C586 C591 1.379 . S
C586 N593 1.356 . S
C587 C586 1.363 . S
C587 C590 1.363 . S
N588 C590 1.356 . S
N588 H600 0.984 . S
N588 H601 0.985 . S
N589 C591 1.356 . S
N589 H594 0.984 . S
N589 H595 0.985 . S
C590 C584 1.379 . S
C590 C587 1.363 . S
C590 N588 1.356 . S
C591 C585 1.363 . S
C591 C586 1.379 . S
C591 N589 1.356 . S
N592 C584 1.356 . S
N592 H598 0.984 . S
N592 H599 0.984 . S
N593 C586 1.356 . S
N593 H596 0.984 . S
N593 H597 0.985 . S
H594 N589 0.984 . S
H595 N589 0.985 . S
H596 N593 0.984 . S
H597 N593 0.985 . S
H598 N592 0.984 . S
H599 N592 0.984 . S
H600 N588 0.984 . S
H601 N588 0.985 . S
C602 C603 1.363 . S
C602 C608 1.379 1_556 S
C602 N610 1.356 . S
C603 C602 1.363 . S
C603 C609 1.363 . S
C604 C605 1.363 . S
C604 C609 1.379 1_554 S
C604 N611 1.356 . S
C605 C604 1.363 . S
C605 C608 1.363 . S
N606 C608 1.356 . S
N606 H618 0.984 . S
N606 H619 0.985 . S
N607 C609 1.356 . S
N607 H612 0.984 . S
N607 H613 0.985 . S
C608 C602 1.379 1_554 S
C608 C605 1.363 . S
C608 N606 1.356 . S
C609 C603 1.363 . S
C609 C604 1.379 1_556 S
C609 N607 1.356 . S
N610 C602 1.356 . S
N610 H616 0.984 . S
N610 H617 0.984 . S
N611 C604 1.356 . S
N611 H614 0.984 . S
N611 H615 0.985 . S
H612 N607 0.984 . S
H613 N607 0.985 . S
H614 N611 0.984 . S
H615 N611 0.985 . S
H616 N610 0.984 . S
H617 N610 0.984 . S
H618 N606 0.984 . S
H619 N606 0.985 . S
C620 C621 1.363 . S
C620 C626 1.379 . S
C620 N628 1.356 . S
C621 C620 1.363 . S
C621 C627 1.363 . S
C622 C623 1.363 . S
C622 C627 1.379 . S
C622 N629 1.356 . S
C623 C622 1.363 . S
C623 C626 1.363 . S
N624 C626 1.356 . S
N624 H636 0.984 . S
N624 H637 0.985 . S
N625 C627 1.356 . S
N625 H630 0.984 . S
N625 H631 0.985 . S
C626 C620 1.379 . S
C626 C623 1.363 . S
C626 N624 1.356 . S
C627 C621 1.363 . S
C627 C622 1.379 . S
C627 N625 1.356 . S
N628 C620 1.356 . S
N628 H634 0.984 . S
N628 H635 0.984 . S
N629 C622 1.356 . S
N629 H632 0.984 . S
N629 H633 0.985 . S
H630 N625 0.984 . S
H631 N625 0.985 . S
H632 N629 0.984 . S
H633 N629 0.985 . S
H634 N628 0.984 . S
H635 N628 0.984 . S
H636 N624 0.984 . S
H637 N624 0.985 . S
C638 C639 1.363 . S
C638 C644 1.379 1_554 S
C638 N646 1.356 . S
C639 C638 1.363 . S
C639 C645 1.363 . S
C640 C641 1.363 . S
C640 C645 1.379 1_556 S
C640 N647 1.356 . S
C641 C640 1.363 . S
C641 C644 1.363 . S
N642 C644 1.356 . S
N642 H654 0.984 . S
N642 H655 0.985 . S
N643 C645 1.356 . S
N643 H648 0.984 . S
N643 H649 0.985 . S
C644 C638 1.379 1_556 S
C644 C641 1.363 . S
C644 N642 1.356 . S
C645 C639 1.363 . S
C645 C640 1.379 1_554 S
C645 N643 1.356 . S
N646 C638 1.356 . S
N646 H652 0.984 . S
N646 H653 0.984 . S
N647 C640 1.356 . S
N647 H650 0.984 . S
N647 H651 0.985 . S
H648 N643 0.984 . S
H649 N643 0.985 . S
H650 N647 0.984 . S
H651 N647 0.985 . S
H652 N646 0.984 . S
H653 N646 0.984 . S
H654 N642 0.984 . S
H655 N642 0.985 . S
C656 C657 1.363 . S
C656 C662 1.379 . S
C656 N664 1.356 . S
C657 C656 1.363 . S
C657 C663 1.363 . S
C658 C659 1.363 . S
C658 C663 1.379 . S
C658 N665 1.356 . S
C659 C658 1.363 . S
C659 C662 1.363 . S
N660 C662 1.356 . S
N660 H672 0.984 . S
N660 H673 0.985 . S
N661 C663 1.356 . S
N661 H666 0.984 . S
N661 H667 0.985 . S
C662 C656 1.379 . S
C662 C659 1.363 . S
C662 N660 1.356 . S
C663 C657 1.363 . S
C663 C658 1.379 . S
C663 N661 1.356 . S
N664 C656 1.356 . S
N664 H670 0.984 . S
N664 H671 0.984 . S
N665 C658 1.356 . S
N665 H668 0.984 . S
N665 H669 0.985 . S
H666 N661 0.984 . S
H667 N661 0.985 . S
H668 N665 0.984 . S
H669 N665 0.985 . S
H670 N664 0.984 . S
H671 N664 0.984 . S
H672 N660 0.984 . S
H673 N660 0.985 . S
C674 C675 1.363 . S
C674 C680 1.379 . S
C674 N682 1.356 . S
C675 C674 1.363 . S
C675 C681 1.363 . S
C676 C677 1.363 . S
C676 C681 1.379 . S
C676 N683 1.356 . S
C677 C676 1.363 . S
C677 C680 1.363 . S
N678 C680 1.356 . S
N678 H690 0.984 . S
N678 H691 0.985 . S
N679 C681 1.356 . S
N679 H684 0.984 . S
N679 H685 0.985 . S
C680 C674 1.379 . S
C680 C677 1.363 . S
C680 N678 1.356 . S
C681 C675 1.363 . S
C681 C676 1.379 . S
C681 N679 1.356 . S
N682 C674 1.356 . S
N682 H688 0.984 . S
N682 H689 0.984 . S
N683 C676 1.356 . S
N683 H686 0.984 . S
N683 H687 0.985 . S
H684 N679 0.984 . S
H685 N679 0.985 . S
H686 N683 0.984 . S
H687 N683 0.985 . S
H688 N682 0.984 . S
H689 N682 0.984 . S
H690 N678 0.984 . S
H691 N678 0.985 . S
C692 C693 1.363 . S
C692 C698 1.379 . S
C692 N700 1.356 . S
C693 C692 1.363 . S
C693 C699 1.363 . S
C694 C695 1.363 . S
C694 C699 1.379 . S
C694 N701 1.356 . S
C695 C694 1.363 . S
C695 C698 1.363 . S
N696 C698 1.356 . S
N696 H708 0.984 . S
N696 H709 0.985 . S
N697 C699 1.356 . S
N697 H702 0.984 . S
N697 H703 0.985 . S
C698 C692 1.379 . S
C698 C695 1.363 . S
C698 N696 1.356 . S
C699 C693 1.363 . S
C699 C694 1.379 . S
C699 N697 1.356 . S
N700 C692 1.356 . S
N700 H706 0.984 . S
N700 H707 0.984 . S
N701 C694 1.356 . S
N701 H704 0.984 . S
N701 H705 0.985 . S
H702 N697 0.984 . S
H703 N697 0.985 . S
H704 N701 0.984 . S
H705 N701 0.985 . S
H706 N700 0.984 . S
H707 N700 0.984 . S
H708 N696 0.984 . S
H709 N696 0.985 . S
C710 C711 1.363 . S
C710 C716 1.379 . S
C710 N718 1.356 . S
C711 C710 1.363 . S
C711 C717 1.363 . S
C712 C713 1.363 . S
C712 C717 1.379 . S
C712 N719 1.356 . S
C713 C712 1.363 . S
C713 C716 1.363 . S
N714 C716 1.356 . S
N714 H726 0.984 . S
N714 H727 0.985 . S
N715 C717 1.356 . S
N715 H720 0.984 . S
N715 H721 0.985 . S
C716 C710 1.379 . S
C716 C713 1.363 . S
C716 N714 1.356 . S
C717 C711 1.363 . S
C717 C712 1.379 . S
C717 N715 1.356 . S
N718 C710 1.356 . S
N718 H724 0.984 . S
N718 H725 0.984 . S
N719 C712 1.356 . S
N719 H722 0.984 . S
N719 H723 0.985 . S
H720 N715 0.984 . S
H721 N715 0.985 . S
H722 N719 0.984 . S
H723 N719 0.985 . S
H724 N718 0.984 . S
H725 N718 0.984 . S
H726 N714 0.984 . S
H727 N714 0.985 . S
C728 C729 1.363 . S
C728 C734 1.379 . S
C728 N736 1.356 . S
C729 C728 1.363 . S
C729 C735 1.363 . S
C730 C731 1.363 . S
C730 C735 1.379 . S
C730 N737 1.356 . S
C731 C730 1.363 . S
C731 C734 1.363 . S
N732 C734 1.356 . S
N732 H744 0.984 . S
N732 H745 0.985 . S
N733 C735 1.356 . S
N733 H738 0.984 . S
N733 H739 0.985 . S
C734 C728 1.379 . S
C734 C731 1.363 . S
C734 N732 1.356 . S
C735 C729 1.363 . S
C735 C730 1.379 . S
C735 N733 1.356 . S
N736 C728 1.356 . S
N736 H742 0.984 . S
N736 H743 0.984 . S
N737 C730 1.356 . S
N737 H740 0.984 . S
N737 H741 0.985 . S
H738 N733 0.984 . S
H739 N733 0.985 . S
H740 N737 0.984 . S
H741 N737 0.985 . S
H742 N736 0.984 . S
H743 N736 0.984 . S
H744 N732 0.984 . S
H745 N732 0.985 . S
C746 C747 1.363 . S
C746 C752 1.379 . S
C746 N754 1.356 . S
C747 C746 1.363 . S
C747 C753 1.363 . S
C748 C749 1.363 . S
C748 C753 1.379 . S
C748 N755 1.356 . S
C749 C748 1.363 . S
C749 C752 1.363 . S
N750 C752 1.356 . S
N750 H762 0.984 . S
N750 H763 0.985 . S
N751 C753 1.356 . S
N751 H756 0.984 . S
N751 H757 0.985 . S
C752 C746 1.379 . S
C752 C749 1.363 . S
C752 N750 1.356 . S
C753 C747 1.363 . S
C753 C748 1.379 . S
C753 N751 1.356 . S
N754 C746 1.356 . S
N754 H760 0.984 . S
N754 H761 0.984 . S
N755 C748 1.356 . S
N755 H758 0.984 . S
N755 H759 0.985 . S
H756 N751 0.984 . S
H757 N751 0.985 . S
H758 N755 0.984 . S
H759 N755 0.985 . S
H760 N754 0.984 . S
H761 N754 0.984 . S
H762 N750 0.984 . S
H763 N750 0.985 . S
C764 C765 1.363 . S
C764 C770 1.379 . S
C764 N772 1.356 . S
C765 C764 1.363 . S
C765 C771 1.363 . S
C766 C767 1.363 . S
C766 C771 1.379 . S
C766 N773 1.356 . S
C767 C766 1.363 . S
C767 C770 1.363 . S
N768 C770 1.356 . S
N768 H780 0.984 . S
N768 H781 0.985 . S
N769 C771 1.356 . S
N769 H774 0.984 . S
N769 H775 0.985 . S
C770 C764 1.379 . S
C770 C767 1.363 . S
C770 N768 1.356 . S
C771 C765 1.363 . S
C771 C766 1.379 . S
C771 N769 1.356 . S
N772 C764 1.356 . S
N772 H778 0.984 . S
N772 H779 0.984 . S
N773 C766 1.356 . S
N773 H776 0.984 . S
N773 H777 0.985 . S
H774 N769 0.984 . S
H775 N769 0.985 . S
H776 N773 0.984 . S
H777 N773 0.985 . S
H778 N772 0.984 . S
H779 N772 0.984 . S
H780 N768 0.984 . S
H781 N768 0.985 . S
C782 C783 1.363 . S
C782 C788 1.379 . S
C782 N790 1.356 . S
C783 C782 1.363 . S
C783 C789 1.363 . S
C784 C785 1.363 . S
C784 C789 1.379 . S
C784 N791 1.356 . S
C785 C784 1.363 . S
C785 C788 1.363 . S
N786 C788 1.356 . S
N786 H798 0.984 . S
N786 H799 0.985 . S
N787 C789 1.356 . S
N787 H792 0.984 . S
N787 H793 0.985 . S
C788 C782 1.379 . S
C788 C785 1.363 . S
C788 N786 1.356 . S
C789 C783 1.363 . S
C789 C784 1.379 . S
C789 N787 1.356 . S
N790 C782 1.356 . S
N790 H796 0.984 . S
N790 H797 0.984 . S
N791 C784 1.356 . S
N791 H794 0.984 . S
N791 H795 0.985 . S
H792 N787 0.984 . S
H793 N787 0.985 . S
H794 N791 0.984 . S
H795 N791 0.985 . S
H796 N790 0.984 . S
H797 N790 0.984 . S
H798 N786 0.984 . S
H799 N786 0.985 . S
C225 C9 1.310 . S
C227 C37 1.310 . S
C243 C51 1.310 . S
C245 C23 1.310 . S
C261 C65 1.310 . S
C263 C93 1.310 . S
C279 C107 1.310 . S
C281 C79 1.310 . S
C297 C121 1.310 . S
C299 C149 1.310 . S
C315 C163 1.310 . S
C317 C135 1.310 . S
C333 C177 1.310 . S
C335 C205 1.310 . S
C351 C219 1.310 . S
C353 C191 1.310 . S
C369 C63 1.576 . S
C371 C7 1.576 . S
C387 C21 1.576 . S
C389 C77 1.576 . S
C405 C35 1.576 . S
C407 C91 1.576 . S
C423 C105 1.576 . S
C425 C49 1.576 . S
C441 C119 1.576 . S
C443 C175 1.576 . S
C459 C133 1.576 . S
C461 C189 1.576 . S
C477 C147 1.576 . S
C479 C203 1.576 . S
C495 C161 1.576 . S
C497 C217 1.576 . S
C513 C148 1.253 . S
C515 C8 1.253 . S
C531 C162 1.253 . S
C533 C22 1.253 . S
C549 C36 1.253 . S
C551 C120 1.253 . S
C567 C50 1.253 . S
C569 C134 1.253 . S
C585 C64 1.253 . S
C587 C204 1.253 . S
C603 C78 1.253 . S
C605 C218 1.253 . S
C621 C92 1.253 . S
C623 C176 1.253 . S
C639 C190 1.253 . S
C641 C106 1.253 . S
C657 C6 1.462 . S
C659 C216 1.462 . S
C675 C174 1.462 . S
C677 C20 1.462 . S
C693 C34 1.462 . S
C695 C188 1.462 . S
C711 C202 1.462 . S
C713 C48 1.462 . S
C729 C132 1.462 . S
C731 C62 1.462 . S
C747 C76 1.462 . S
C749 C146 1.462 . S
C765 C160 1.462 . S
C767 C90 1.462 . S
C783 C118 1.462 . S
C785 C104 1.462 . S
