# Generated by pormake.
# Topology ukd, (4)-cn, num edge types: 1
# Building blocks:
#     Node 0, Type 0, BuildingBlock: GALJAG_clean_sbu_0, # of connection points: 4
#     Node 1, Type 0, BuildingBlock: GALJAG_clean_sbu_0, # of connection points: 4
#     Node 2, Type 0, BuildingBlock: GALJAG_clean_sbu_0, # of connection points: 4
#     Node 3, Type 0, BuildingBlock: GALJAG_clean_sbu_0, # of connection points: 4
#     Node 4, Type 0, BuildingBlock: GALJAG_clean_sbu_0, # of connection points: 4
#     Node 5, Type 0, BuildingBlock: GALJAG_clean_sbu_0, # of connection points: 4
#     Node 6, Type 0, BuildingBlock: GALJAG_clean_sbu_0, # of connection points: 4
#     Node 7, Type 0, BuildingBlock: GALJAG_clean_sbu_0, # of connection points: 4
#     Node 8, Type 0, BuildingBlock: GALJAG_clean_sbu_0, # of connection points: 4
#     Node 9, Type 0, BuildingBlock: GALJAG_clean_sbu_0, # of connection points: 4
#     Node 10, Type 0, BuildingBlock: GALJAG_clean_sbu_0, # of connection points: 4
#     Node 11, Type 0, BuildingBlock: GALJAG_clean_sbu_0, # of connection points: 4
#     Node 12, Type 0, BuildingBlock: GALJAG_clean_sbu_0, # of connection points: 4
#     Node 13, Type 0, BuildingBlock: GALJAG_clean_sbu_0, # of connection points: 4
#     Node 14, Type 0, BuildingBlock: GALJAG_clean_sbu_0, # of connection points: 4
#     Node 15, Type 0, BuildingBlock: GALJAG_clean_sbu_0, # of connection points: 4
#     Node 16, Type 0, BuildingBlock: GALJAG_clean_sbu_0, # of connection points: 4
#     Node 17, Type 0, BuildingBlock: GALJAG_clean_sbu_0, # of connection points: 4
#     Node 18, Type 0, BuildingBlock: GALJAG_clean_sbu_0, # of connection points: 4
#     Node 19, Type 0, BuildingBlock: GALJAG_clean_sbu_0, # of connection points: 4
#     Node 20, Type 0, BuildingBlock: GALJAG_clean_sbu_0, # of connection points: 4
#     Node 21, Type 0, BuildingBlock: GALJAG_clean_sbu_0, # of connection points: 4
#     Node 22, Type 0, BuildingBlock: GALJAG_clean_sbu_0, # of connection points: 4
#     Node 23, Type 0, BuildingBlock: GALJAG_clean_sbu_0, # of connection points: 4
#     Node 24, Type 0, BuildingBlock: GALJAG_clean_sbu_0, # of connection points: 4
#     Node 25, Type 0, BuildingBlock: GALJAG_clean_sbu_0, # of connection points: 4
#     Node 26, Type 0, BuildingBlock: GALJAG_clean_sbu_0, # of connection points: 4
#     Node 27, Type 0, BuildingBlock: GALJAG_clean_sbu_0, # of connection points: 4
#     Node 28, Type 0, BuildingBlock: GALJAG_clean_sbu_0, # of connection points: 4
#     Node 29, Type 0, BuildingBlock: GALJAG_clean_sbu_0, # of connection points: 4
#     Node 30, Type 0, BuildingBlock: GALJAG_clean_sbu_0, # of connection points: 4
#     Node 31, Type 0, BuildingBlock: GALJAG_clean_sbu_0, # of connection points: 4
#     Edge 32, Type (0, 0), BuildingBlock: AJUNOK_clean_linker_0, # of connection points: 2
#     Edge 33, Type (0, 0), BuildingBlock: AJUNOK_clean_linker_0, # of connection points: 2
#     Edge 34, Type (0, 0), BuildingBlock: AJUNOK_clean_linker_0, # of connection points: 2
#     Edge 35, Type (0, 0), BuildingBlock: AJUNOK_clean_linker_0, # of connection points: 2
#     Edge 36, Type (0, 0), BuildingBlock: AJUNOK_clean_linker_0, # of connection points: 2
#     Edge 37, Type (0, 0), BuildingBlock: AJUNOK_clean_linker_0, # of connection points: 2
#     Edge 38, Type (0, 0), BuildingBlock: AJUNOK_clean_linker_0, # of connection points: 2
#     Edge 39, Type (0, 0), BuildingBlock: AJUNOK_clean_linker_0, # of connection points: 2
#     Edge 40, Type (0, 0), BuildingBlock: AJUNOK_clean_linker_0, # of connection points: 2
#     Edge 41, Type (0, 0), BuildingBlock: AJUNOK_clean_linker_0, # of connection points: 2
#     Edge 42, Type (0, 0), BuildingBlock: AJUNOK_clean_linker_0, # of connection points: 2
#     Edge 43, Type (0, 0), BuildingBlock: AJUNOK_clean_linker_0, # of connection points: 2
#     Edge 44, Type (0, 0), BuildingBlock: AJUNOK_clean_linker_0, # of connection points: 2
#     Edge 45, Type (0, 0), BuildingBlock: AJUNOK_clean_linker_0, # of connection points: 2
#     Edge 46, Type (0, 0), BuildingBlock: AJUNOK_clean_linker_0, # of connection points: 2
#     Edge 47, Type (0, 0), BuildingBlock: AJUNOK_clean_linker_0, # of connection points: 2
#     Edge 48, Type (0, 0), BuildingBlock: AJUNOK_clean_linker_0, # of connection points: 2
#     Edge 49, Type (0, 0), BuildingBlock: AJUNOK_clean_linker_0, # of connection points: 2
#     Edge 50, Type (0, 0), BuildingBlock: AJUNOK_clean_linker_0, # of connection points: 2
#     Edge 51, Type (0, 0), BuildingBlock: AJUNOK_clean_linker_0, # of connection points: 2
#     Edge 52, Type (0, 0), BuildingBlock: AJUNOK_clean_linker_0, # of connection points: 2
#     Edge 53, Type (0, 0), BuildingBlock: AJUNOK_clean_linker_0, # of connection points: 2
#     Edge 54, Type (0, 0), BuildingBlock: AJUNOK_clean_linker_0, # of connection points: 2
#     Edge 55, Type (0, 0), BuildingBlock: AJUNOK_clean_linker_0, # of connection points: 2
#     Edge 56, Type (0, 0), BuildingBlock: AJUNOK_clean_linker_0, # of connection points: 2
#     Edge 57, Type (0, 0), BuildingBlock: AJUNOK_clean_linker_0, # of connection points: 2
#     Edge 58, Type (0, 0), BuildingBlock: AJUNOK_clean_linker_0, # of connection points: 2
#     Edge 59, Type (0, 0), BuildingBlock: AJUNOK_clean_linker_0, # of connection points: 2
#     Edge 60, Type (0, 0), BuildingBlock: AJUNOK_clean_linker_0, # of connection points: 2
#     Edge 61, Type (0, 0), BuildingBlock: AJUNOK_clean_linker_0, # of connection points: 2
#     Edge 62, Type (0, 0), BuildingBlock: AJUNOK_clean_linker_0, # of connection points: 2
#     Edge 63, Type (0, 0), BuildingBlock: AJUNOK_clean_linker_0, # of connection points: 2
#     Edge 64, Type (0, 0), BuildingBlock: AJUNOK_clean_linker_0, # of connection points: 2
#     Edge 65, Type (0, 0), BuildingBlock: AJUNOK_clean_linker_0, # of connection points: 2
#     Edge 66, Type (0, 0), BuildingBlock: AJUNOK_clean_linker_0, # of connection points: 2
#     Edge 67, Type (0, 0), BuildingBlock: AJUNOK_clean_linker_0, # of connection points: 2
#     Edge 68, Type (0, 0), BuildingBlock: AJUNOK_clean_linker_0, # of connection points: 2
#     Edge 69, Type (0, 0), BuildingBlock: AJUNOK_clean_linker_0, # of connection points: 2
#     Edge 70, Type (0, 0), BuildingBlock: AJUNOK_clean_linker_0, # of connection points: 2
#     Edge 71, Type (0, 0), BuildingBlock: AJUNOK_clean_linker_0, # of connection points: 2
#     Edge 72, Type (0, 0), BuildingBlock: AJUNOK_clean_linker_0, # of connection points: 2
#     Edge 73, Type (0, 0), BuildingBlock: AJUNOK_clean_linker_0, # of connection points: 2
#     Edge 74, Type (0, 0), BuildingBlock: AJUNOK_clean_linker_0, # of connection points: 2
#     Edge 75, Type (0, 0), BuildingBlock: AJUNOK_clean_linker_0, # of connection points: 2
#     Edge 76, Type (0, 0), BuildingBlock: AJUNOK_clean_linker_0, # of connection points: 2
#     Edge 77, Type (0, 0), BuildingBlock: AJUNOK_clean_linker_0, # of connection points: 2
#     Edge 78, Type (0, 0), BuildingBlock: AJUNOK_clean_linker_0, # of connection points: 2
#     Edge 79, Type (0, 0), BuildingBlock: AJUNOK_clean_linker_0, # of connection points: 2
#     Edge 80, Type (0, 0), BuildingBlock: AJUNOK_clean_linker_0, # of connection points: 2
#     Edge 81, Type (0, 0), BuildingBlock: AJUNOK_clean_linker_0, # of connection points: 2
#     Edge 82, Type (0, 0), BuildingBlock: AJUNOK_clean_linker_0, # of connection points: 2
#     Edge 83, Type (0, 0), BuildingBlock: AJUNOK_clean_linker_0, # of connection points: 2
#     Edge 84, Type (0, 0), BuildingBlock: AJUNOK_clean_linker_0, # of connection points: 2
#     Edge 85, Type (0, 0), BuildingBlock: AJUNOK_clean_linker_0, # of connection points: 2
#     Edge 86, Type (0, 0), BuildingBlock: AJUNOK_clean_linker_0, # of connection points: 2
#     Edge 87, Type (0, 0), BuildingBlock: AJUNOK_clean_linker_0, # of connection points: 2
#     Edge 88, Type (0, 0), BuildingBlock: AJUNOK_clean_linker_0, # of connection points: 2
#     Edge 89, Type (0, 0), BuildingBlock: AJUNOK_clean_linker_0, # of connection points: 2
#     Edge 90, Type (0, 0), BuildingBlock: AJUNOK_clean_linker_0, # of connection points: 2
#     Edge 91, Type (0, 0), BuildingBlock: AJUNOK_clean_linker_0, # of connection points: 2
#     Edge 92, Type (0, 0), BuildingBlock: AJUNOK_clean_linker_0, # of connection points: 2
#     Edge 93, Type (0, 0), BuildingBlock: AJUNOK_clean_linker_0, # of connection points: 2
#     Edge 94, Type (0, 0), BuildingBlock: AJUNOK_clean_linker_0, # of connection points: 2
#     Edge 95, Type (0, 0), BuildingBlock: AJUNOK_clean_linker_0, # of connection points: 2
# Relax obj value: 0.105
# Max RMSD: 0.103
# Mean RMSD: 0.103
data_MOF--net-ukd--node1-GALJAG_clean_sbu_0--edge1-AJUNOK_clean_linker_0
_symmetry_space_group_name_H-M    P1
_symmetry_Int_Tables_number       1
_symmetry_cell_setting            triclinic
loop_
_symmetry_equiv_pos_as_xyz
'x, y, z'
_cell_length_a     33.867466
_cell_length_b     33.848083
_cell_length_c     52.636795
_cell_angle_alpha  89.995894
_cell_angle_beta   90.043395
_cell_angle_gamma 89.985701
loop_
_atom_site_label
_atom_site_type_symbol
_atom_site_fract_x
_atom_site_fract_y
_atom_site_fract_z
_atom_type_partial_charge
In0 In 0.21334 0.18306 0.34163 0.0
O1 O 0.16022 0.14313 0.33305 0.0
O2 O 0.17304 0.15799 0.37149 0.0
C3 C 0.23655 0.21017 0.29603 0.0
C4 C 0.27276 0.13498 0.35559 0.0
C5 C 0.18609 0.25205 0.35971 0.0
O6 O 0.20762 0.18681 0.29843 0.0
O7 O 0.25458 0.21783 0.31642 0.0
O8 O 0.21259 0.23278 0.37134 0.0
O9 O 0.17402 0.23637 0.33942 0.0
C10 C 0.15069 0.13991 0.35623 0.0
O11 O 0.27121 0.17057 0.36282 0.0
O12 O 0.24495 0.12423 0.34122 0.0
In13 In 0.06699 0.96147 0.59283 0.0
O14 O 0.08545 0.00969 0.6209 0.0
O15 O 0.11617 0.00578 0.58576 0.0
C16 C 0.99636 0.93619 0.60932 0.0
C17 C 0.1131 0.89901 0.60488 0.0
C18 C 0.03683 0.98416 0.54794 0.0
O19 O 0.01434 0.96409 0.62041 0.0
O20 O 0.01458 0.92094 0.59091 0.0
O21 O 0.0613 0.95602 0.54987 0.0
O22 O 0.02926 0.00178 0.56852 0.0
C23 C 0.11245 0.0232 0.6068 0.0
O24 O 0.11009 0.91144 0.58232 0.0
O25 O 0.0935 0.91844 0.62093 0.0
In26 In 0.28223 0.8119 0.8446 0.0
O27 O 0.23578 0.83414 0.87265 0.0
O28 O 0.23563 0.85845 0.83551 0.0
C29 C 0.30608 0.74609 0.86918 0.0
C30 C 0.3426 0.8615 0.85383 0.0
C31 C 0.26771 0.77932 0.79885 0.0
O32 O 0.26999 0.75358 0.86565 0.0
O33 O 0.32958 0.77148 0.86049 0.0
O34 O 0.29435 0.805 0.80204 0.0
O35 O 0.24849 0.77084 0.8186 0.0
C36 C 0.22022 0.85814 0.85728 0.0
O37 O 0.33441 0.85002 0.83156 0.0
O38 O 0.31971 0.84875 0.87088 0.0
In39 In 0.43407 0.0355 0.09112 0.0
O40 O 0.42178 0.97538 0.11001 0.0
O41 O 0.3731 0.00974 0.09735 0.0
C42 C 0.50692 0.05339 0.10835 0.0
C43 C 0.39604 0.10286 0.1031 0.0
C44 C 0.45259 0.01467 0.04324 0.0
O45 O 0.48218 0.03552 0.12219 0.0
O46 O 0.49458 0.06213 0.08651 0.0
O47 O 0.43489 0.04651 0.04844 0.0
O48 O 0.45893 0.99254 0.0621 0.0
C49 C 0.38476 0.97859 0.10804 0.0
O50 O 0.39412 0.08782 0.08116 0.0
O51 O 0.41718 0.08394 0.11868 0.0
In52 In 0.21246 0.81132 0.15375 0.0
O53 O 0.26639 0.8295 0.13005 0.0
O54 O 0.24784 0.86731 0.15999 0.0
C55 C 0.18841 0.74563 0.12948 0.0
C56 C 0.15198 0.8587 0.14122 0.0
C57 C 0.22672 0.7795 0.19992 0.0
O58 O 0.22449 0.75494 0.13057 0.0
O59 O 0.16517 0.76912 0.14037 0.0
O60 O 0.19725 0.8013 0.19559 0.0
O61 O 0.24938 0.77489 0.1812 0.0
C62 C 0.27156 0.86148 0.14195 0.0
O63 O 0.161 0.85178 0.16415 0.0
O64 O 0.17398 0.8423 0.12493 0.0
In65 In 0.43294 0.95914 0.4057 0.0
O66 O 0.42165 0.0169 0.38404 0.0
O67 O 0.3749 0.99215 0.40594 0.0
C68 C 0.50141 0.93034 0.38761 0.0
C69 C 0.38762 0.8976 0.39187 0.0
C70 C 0.45964 0.98301 0.45129 0.0
O71 O 0.48279 0.95742 0.3761 0.0
O72 O 0.48527 0.91829 0.40773 0.0
O73 O 0.43521 0.95495 0.44906 0.0
O74 O 0.46873 -0.00023 0.43072 0.0
C75 C 0.38617 0.01941 0.39132 0.0
O76 O 0.39306 0.9064 0.41499 0.0
O77 O 0.405 0.91986 0.37623 0.0
In78 In 0.28916 0.18313 0.65706 0.0
O79 O 0.3389 0.13869 0.66619 0.0
O80 O 0.33761 0.16577 0.62983 0.0
C81 C 0.26751 0.2083 0.70339 0.0
C82 C 0.22888 0.13744 0.64056 0.0
C83 C 0.31088 0.25578 0.64191 0.0
O84 O 0.29613 0.18489 0.69999 0.0
O85 O 0.24886 0.21752 0.68345 0.0
O86 O 0.28545 0.236 0.62969 0.0
O87 O 0.32493 0.23873 0.66119 0.0
C88 C 0.3554 0.14301 0.64488 0.0
O89 O 0.24161 0.1665 0.62798 0.0
O90 O 0.24629 0.13175 0.66141 0.0
In91 In 0.06287 0.03892 0.90388 0.0
O92 O 0.1051 0.09026 0.91294 0.0
O93 O 0.08822 0.08026 0.8746 0.0
C94 C 0.03629 0.0153 0.94942 0.0
C95 C 0.10733 0.97738 0.88859 0.0
C96 C 0.99205 0.06635 0.88909 0.0
O97 O 0.06124 0.04292 0.94709 0.0
O98 O 0.02628 0.99891 0.92886 0.0
O99 O 0.00807 0.03723 0.87805 0.0
O100 O 0.01212 0.0813 0.90681 0.0
C101 C 0.10716 0.10145 0.89006 0.0
O102 O 0.07806 0.98955 0.8759 0.0
O103 O 0.11374 0.99601 0.90894 0.0
In104 In 0.78919 0.81602 0.65352 0.0
O105 O 0.73698 0.8313 0.62765 0.0
O106 O 0.74523 0.86511 0.6613 0.0
C107 C 0.81895 0.74773 0.63575 0.0
C108 C 0.8484 0.86463 0.63957 0.0
C109 C 0.77085 0.78636 0.69926 0.0
O110 O 0.78817 0.76293 0.62618 0.0
O111 O 0.83408 0.76715 0.6537 0.0
O112 O 0.79733 0.81228 0.69624 0.0
O113 O 0.75256 0.77674 0.67926 0.0
C114 C 0.72504 0.8594 0.64149 0.0
O115 O 0.83957 0.8591 0.66263 0.0
O116 O 0.82667 0.84654 0.62399 0.0
In117 In 0.93436 0.03911 0.40526 0.0
O118 O 0.98605 0.03907 0.3768 0.0
O119 O 0.98787 0.07777 0.40867 0.0
C120 C 0.88676 0.97921 0.39117 0.0
C121 C 0.95795 0.01771 0.4521 0.0
C122 C 0.89211 0.10185 0.38949 0.0
O123 O 0.92261 0.98052 0.38452 0.0
O124 O 0.87554 0.00755 0.40492 0.0
O125 O 0.89407 0.09229 0.4127 0.0
O126 O 0.91102 0.07948 0.37466 0.0
C127 C 0.00494 0.06521 0.38901 0.0
O128 O 0.93501 0.04663 0.44834 0.0
O129 O 0.96716 0.9987 0.43235 0.0
In130 In 0.71002 0.17873 0.15269 0.0
O131 O 0.66005 0.13586 0.16319 0.0
O132 O 0.67448 0.14348 0.12427 0.0
C133 C 0.72798 0.21008 0.19813 0.0
C134 C 0.77521 0.13734 0.14014 0.0
C135 C 0.67941 0.24568 0.13331 0.0
O136 O 0.70281 0.18279 0.19554 0.0
O137 O 0.74512 0.22032 0.17787 0.0
O138 O 0.71169 0.2316 0.12529 0.0
O139 O 0.663 0.22568 0.1505 0.0
C140 C 0.65258 0.12685 0.14039 0.0
O141 O 0.76036 0.16308 0.1256 0.0
O142 O 0.75748 0.13299 0.16102 0.0
In143 In 0.55913 0.96267 0.90123 0.0
O144 O 0.50786 0.964 0.87244 0.0
O145 O 0.50811 0.92016 0.90145 0.0
C146 C 0.60285 0.02666 0.88953 0.0
C147 C 0.52817 0.98302 0.94626 0.0
C148 C 0.60896 0.90343 0.88874 0.0
O149 O 0.57619 0.01364 0.87494 0.0
O150 O 0.60703 0.00765 0.90997 0.0
O151 O 0.60144 0.91196 0.9116 0.0
O152 O 0.59165 0.92491 0.87268 0.0
C153 C 0.49049 0.93497 0.88265 0.0
O154 O 0.55311 0.95538 0.94398 0.0
O155 O 0.52016 0.00115 0.92592 0.0
In156 In 0.78295 0.18474 0.84427 0.0
O157 O 0.83366 0.14157 0.83583 0.0
O158 O 0.82252 0.15803 0.8741 0.0
C159 C 0.76003 0.21017 0.79835 0.0
C160 C 0.72023 0.14166 0.85913 0.0
C161 C 0.81296 0.25489 0.85845 0.0
O162 O 0.78709 0.18473 0.80119 0.0
O163 O 0.74388 0.2216 0.8187 0.0
O164 O 0.78378 0.23977 0.86994 0.0
O165 O 0.82649 0.23444 0.84045 0.0
C166 C 0.84387 0.13886 0.85888 0.0
O167 O 0.73262 0.1708 0.87188 0.0
O168 O 0.73915 0.13479 0.83898 0.0
In169 In 0.56818 0.03863 0.59253 0.0
O170 O 0.56834 0.03734 0.54942 0.0
O171 O 0.52208 0.0069 0.56838 0.0
C172 C 0.62058 0.0984 0.59629 0.0
C173 C 0.50438 0.07235 0.61456 0.0
C174 C 0.60943 0.97542 0.60911 0.0
O175 O 0.59937 0.09302 0.57689 0.0
O176 O 0.61658 0.07271 0.61347 0.0
O177 O 0.58754 0.9956 0.62359 0.0
O178 O 0.60974 0.98671 0.58627 0.0
C179 C 0.53694 0.01749 0.54748 0.0
O180 O 0.51336 0.03669 0.61876 0.0
O181 O 0.52799 0.09018 0.60017 0.0
In182 In 0.7129 0.81408 0.3438 0.0
O183 O 0.66069 0.85392 0.33352 0.0
O184 O 0.66815 0.83677 0.37212 0.0
C185 C 0.73323 0.78929 0.29707 0.0
C186 C 0.77203 0.8629 0.35782 0.0
C187 C 0.68934 0.74401 0.36264 0.0
O188 O 0.70309 0.81034 0.30113 0.0
O189 O 0.75424 0.78273 0.31644 0.0
O190 O 0.67964 0.75684 0.34108 0.0
O191 O 0.71171 0.76666 0.37526 0.0
C192 C 0.64788 0.85564 0.35604 0.0
O193 O 0.77235 0.82659 0.36341 0.0
O194 O 0.74245 0.87402 0.34519 0.0
In195 In 0.93566 0.96045 0.09285 0.0
O196 O 0.93693 0.95401 0.04996 0.0
O197 O 0.97365 0.99796 0.0667 0.0
C198 C 0.8872 0.89986 0.10488 0.0
C199 C 0.00522 0.93279 0.11021 0.0
C200 C 0.89259 0.02347 0.10775 0.0
O201 O 0.89309 0.91028 0.08217 0.0
O202 O 0.90513 0.92043 0.12116 0.0
O203 O 0.92006 0.00926 0.12116 0.0
O204 O 0.88756 0.00646 0.08669 0.0
C205 C 0.96268 0.98054 0.04667 0.0
O206 O 0.98898 0.96289 0.11987 0.0
O207 O 0.98621 0.91705 0.09229 0.0
In208 In 0.71083 0.68753 0.84166 0.0
O209 O 0.76878 0.67531 0.86307 0.0
O210 O 0.73897 0.62711 0.84567 0.0
C211 C 0.68798 0.7594 0.85796 0.0
C212 C 0.64385 0.64842 0.85257 0.0
C213 C 0.73655 0.70957 0.79548 0.0
O214 O 0.70798 0.73658 0.87204 0.0
O215 O 0.67978 0.74564 0.83637 0.0
O216 O 0.70545 0.68944 0.79846 0.0
O217 O 0.75537 0.71658 0.81567 0.0
C218 C 0.76823 0.6387 0.85843 0.0
O219 O 0.65906 0.64744 0.83064 0.0
O220 O 0.66272 0.66863 0.86867 0.0
In221 In 0.56832 0.46044 0.09057 0.0
O222 O 0.58027 0.51939 0.11094 0.0
O223 O 0.62869 0.48878 0.0945 0.0
C224 C 0.49746 0.43728 0.10841 0.0
C225 C 0.60769 0.394 0.10249 0.0
C226 C 0.54601 0.48311 0.04371 0.0
O227 O 0.51989 0.45959 0.12123 0.0
O228 O 0.51086 0.42742 0.08701 0.0
O229 O 0.56762 0.45324 0.04746 0.0
O230 O 0.53744 0.50233 0.06349 0.0
C231 C 0.61697 0.51852 0.10673 0.0
O232 O 0.60834 0.40836 0.08032 0.0
O233 O 0.58769 0.41346 0.11839 0.0
In234 In 0.78734 0.31599 0.33882 0.0
O235 O 0.73131 0.32924 0.36193 0.0
O236 O 0.7559 0.3748 0.33892 0.0
C237 C 0.81567 0.24632 0.35537 0.0
C238 C 0.85065 0.35945 0.35174 0.0
C239 C 0.76161 0.29017 0.29345 0.0
O240 O 0.78945 0.26488 0.3677 0.0
O241 O 0.82718 0.26325 0.33539 0.0
O242 O 0.79082 0.31322 0.29558 0.0
O243 O 0.74451 0.28204 0.31408 0.0
C244 C 0.72948 0.36473 0.35448 0.0
O245 O 0.83951 0.35619 0.32888 0.0
O246 O 0.82966 0.34107 0.36765 0.0
In247 In 0.93755 0.53645 0.59427 0.0
O248 O 0.92419 0.47904 0.61603 0.0
O249 O 0.87761 0.50719 0.59579 0.0
C250 C 0.00825 0.56101 0.61155 0.0
C251 C 0.89575 0.60154 0.60585 0.0
C252 C 0.96204 0.51192 0.54837 0.0
O253 O 0.9871 0.53734 0.62428 0.0
O254 O 0.99341 0.57187 0.59073 0.0
O255 O 0.94104 0.54248 0.55123 0.0
O256 O 0.96868 0.49287 0.56852 0.0
C257 C 0.88811 0.479 0.60987 0.0
O258 O 0.89712 0.58793 0.5835 0.0
O259 O 0.91529 0.58217 0.62207 0.0
In260 In 0.71567 0.30975 0.65263 0.0
O261 O 0.77185 0.32746 0.63088 0.0
O262 O 0.74812 0.36778 0.65776 0.0
C263 C 0.69322 0.24327 0.62849 0.0
C264 C 0.65397 0.35435 0.6384 0.0
C265 C 0.72906 0.28079 0.69968 0.0
O266 O 0.72887 0.25429 0.62866 0.0
O267 O 0.66973 0.26531 0.6404 0.0
O268 O 0.70099 0.30408 0.69484 0.0
O269 O 0.75073 0.27292 0.68093 0.0
C270 C 0.77432 0.36088 0.64141 0.0
O271 O 0.66194 0.34795 0.66153 0.0
O272 O 0.6778 0.33911 0.62271 0.0
In273 In 0.93439 0.46374 0.90228 0.0
O274 O 0.92031 0.52216 0.88197 0.0
O275 O 0.87527 0.49483 0.90398 0.0
C276 C 0.00543 0.44154 0.88462 0.0
C277 C 0.89263 0.3997 0.88823 0.0
C278 C 0.96128 0.48487 0.94832 0.0
O279 O 0.98353 0.46462 0.87194 0.0
O280 O 0.99087 0.42941 0.9052 0.0
O281 O 0.93894 0.45529 0.94525 0.0
O282 O 0.96762 0.50479 0.92848 0.0
C283 C 0.8851 0.52329 0.8899 0.0
O284 O 0.89509 0.41049 0.91119 0.0
O285 O 0.91107 0.42134 0.87273 0.0
In286 In 0.78978 0.68373 0.15578 0.0
O287 O 0.73197 0.67024 0.13467 0.0
O288 O 0.76004 0.62373 0.15499 0.0
C289 C 0.81252 0.75433 0.1373 0.0
C290 C 0.85535 0.64278 0.14372 0.0
C291 C 0.76613 0.70911 0.20173 0.0
O292 O 0.79007 0.73171 0.12472 0.0
O293 O 0.82297 0.74109 0.15864 0.0
O294 O 0.79717 0.68887 0.19873 0.0
O295 O 0.7463 0.71456 0.18174 0.0
C296 C 0.7315 0.63432 0.1412 0.0
O297 O 0.84249 0.64431 0.16626 0.0
O298 O 0.83491 0.6615 0.12767 0.0
In299 In 0.56671 0.53712 0.40658 0.0
O300 O 0.60583 0.58941 0.41785 0.0
O301 O 0.59526 0.57866 0.37857 0.0
C302 C 0.53967 0.51222 0.45184 0.0
C303 C 0.6155 0.47863 0.39186 0.0
C304 C 0.49846 0.56578 0.38775 0.0
O305 O 0.56307 0.54112 0.44969 0.0
O306 O 0.53148 0.49502 0.43124 0.0
O307 O 0.51764 0.5391 0.37626 0.0
O308 O 0.51388 0.57735 0.40823 0.0
C309 C 0.61189 0.59994 0.39513 0.0
O310 O 0.58021 0.48046 0.38407 0.0
O311 O 0.62531 0.5053 0.40733 0.0
In312 In 0.29035 0.31635 0.15414 0.0
O313 O 0.23171 0.32735 0.13313 0.0
O314 O 0.25771 0.37465 0.15386 0.0
C315 C 0.31984 0.24837 0.13552 0.0
C316 C 0.3524 0.36182 0.14139 0.0
C317 C 0.26924 0.28985 0.2004 0.0
O318 O 0.29225 0.26663 0.12427 0.0
O319 O 0.33177 0.26451 0.15567 0.0
O320 O 0.29693 0.31433 0.19715 0.0
O321 O 0.25103 0.28036 0.18039 0.0
C322 C 0.22977 0.36315 0.13987 0.0
O323 O 0.34179 0.35721 0.16423 0.0
O324 O 0.33136 0.34387 0.12527 0.0
In325 In 0.43242 0.54129 0.90486 0.0
O326 O 0.43699 0.54028 0.94788 0.0
O327 O 0.47816 0.50586 0.92685 0.0
C328 C 0.38035 0.60115 0.90013 0.0
C329 C 0.49664 0.57446 0.8833 0.0
C330 C 0.38985 0.47754 0.89094 0.0
O331 O 0.39911 0.59459 0.9204 0.0
O332 O 0.38674 0.57673 0.88252 0.0
O333 O 0.41263 0.49528 0.87571 0.0
O334 O 0.38894 0.49183 0.91307 0.0
C335 C 0.46672 0.51771 0.94836 0.0
O336 O 0.48292 0.54196 0.87538 0.0
O337 O 0.47744 0.58979 0.90121 0.0
In338 In 0.21659 0.68314 0.65352 0.0
O339 O 0.26586 0.66611 0.62566 0.0
O340 O 0.26285 0.63592 0.66097 0.0
C341 C 0.18935 0.75305 0.63612 0.0
C342 C 0.15563 0.63496 0.64161 0.0
C343 C 0.23602 0.70893 0.70012 0.0
O344 O 0.21904 0.73641 0.62622 0.0
O345 O 0.17408 0.73442 0.65435 0.0
O346 O 0.20931 0.68356 0.69625 0.0
O347 O 0.25369 0.72066 0.68036 0.0
C348 C 0.28034 0.63994 0.64002 0.0
O349 O 0.16646 0.64067 0.66424 0.0
O350 O 0.17609 0.65278 0.62524 0.0
In351 In 0.06467 0.45917 0.40549 0.0
O352 O 0.06142 0.44956 0.44816 0.0
O353 O 0.03154 0.49931 0.43268 0.0
C354 C 0.10838 0.39601 0.39258 0.0
C355 C 0.99547 0.434 0.38619 0.0
C356 C 0.11304 0.519 0.39239 0.0
O357 O 0.1049 0.4072 0.41537 0.0
O358 O 0.09 0.41686 0.37657 0.0
O359 O 0.07716 0.51846 0.38575 0.0
O360 O 0.12386 0.48998 0.40566 0.0
C361 C 0.03924 0.47891 0.45214 0.0
O362 O 0.0164 0.4592 0.3746 0.0
O363 O 0.00965 0.4222 0.40698 0.0
In364 In 0.28707 0.68183 0.34276 0.0
O365 O 0.2293 0.66999 0.36426 0.0
O366 O 0.25766 0.622 0.34557 0.0
C367 C 0.31082 0.75321 0.35927 0.0
C368 C 0.35265 0.641 0.35497 0.0
C369 C 0.26133 0.70379 0.29651 0.0
O370 O 0.28925 0.73118 0.37286 0.0
O371 O 0.32012 0.73893 0.33801 0.0
O372 O 0.2924 0.6836 0.29958 0.0
O373 O 0.24267 0.71122 0.31668 0.0
C374 C 0.229 0.63361 0.35887 0.0
O375 O 0.33965 0.64229 0.33245 0.0
O376 O 0.33238 0.66001 0.37096 0.0
In377 In 0.06766 0.53776 0.09 0.0
O378 O 0.06895 0.53893 0.04687 0.0
O379 O 0.02883 0.49944 0.06463 0.0
C380 C 0.11337 0.60142 0.0981 0.0
C381 C 0.0009 0.56759 0.11048 0.0
C382 C 0.11464 0.4774 0.10429 0.0
O383 O 0.09824 0.59391 0.07672 0.0
O384 O 0.10579 0.57668 0.11538 0.0
O385 O 0.07899 0.47944 0.11129 0.0
O386 O 0.12587 0.50511 0.09002 0.0
C387 C 0.04157 0.51401 0.04415 0.0
O388 O 0.02101 0.54169 0.12205 0.0
O389 O 0.01479 0.57779 0.08933 0.0
In390 In 0.2117 0.31813 0.84378 0.0
O391 O 0.26072 0.33346 0.87198 0.0
O392 O 0.25755 0.3661 0.8375 0.0
C393 C 0.18007 0.25003 0.86055 0.0
C394 C 0.15263 0.36855 0.85518 0.0
C395 C 0.23445 0.28729 0.79914 0.0
O396 O 0.21096 0.26424 0.87056 0.0
O397 O 0.16526 0.27082 0.84313 0.0
O398 O 0.20863 0.31423 0.80064 0.0
O399 O 0.24979 0.27744 0.82008 0.0
C400 C 0.27481 0.36097 0.8585 0.0
O401 O 0.16182 0.36068 0.83246 0.0
O402 O 0.17355 0.35144 0.87166 0.0
In403 In 0.43618 0.4583 0.59435 0.0
O404 O 0.43729 0.45123 0.55141 0.0
O405 O 0.47393 0.49537 0.56811 0.0
C406 C 0.38679 0.40028 0.60929 0.0
C407 C 0.5058 0.42798 0.6094 0.0
C408 C 0.39492 0.52279 0.60843 0.0
O409 O 0.39119 0.40917 0.58613 0.0
O410 O 0.40678 0.42102 0.62445 0.0
O411 O 0.42309 0.50925 0.62159 0.0
O412 O 0.38829 0.50428 0.58807 0.0
C413 C 0.46316 0.47771 0.54813 0.0
O414 O 0.49157 0.45866 0.61968 0.0
O415 O 0.48444 0.41272 0.59244 0.0
C416 C 0.12856 0.34759 0.35957 0.0
C417 C 0.13076 0.36042 0.38492 0.0
C418 C 0.14728 0.31295 0.35169 0.0
C419 C 0.16931 0.28979 0.36876 0.0
H420 H 0.11158 0.364 0.34567 0.0
H421 H 0.14409 0.30411 0.33201 0.0
S422 S 0.18588 0.31112 0.43704 0.0
N423 N 0.15777 0.34787 0.42704 0.0
N424 N 0.1934 0.28261 0.41204 0.0
C425 C 0.17279 0.3027 0.39404 0.0
C426 C 0.15336 0.33802 0.40217 0.0
C427 C 0.94462 0.92242 0.64219 0.0
C428 C 0.95676 0.92217 0.61667 0.0
C429 C 0.90873 0.90491 0.64946 0.0
C430 C 0.88366 0.88717 0.63138 0.0
H431 H 0.96367 0.9347 0.65672 0.0
H432 H 0.90116 0.90432 0.66944 0.0
S433 S 0.90004 0.88389 0.56161 0.0
N434 N 0.9396 0.9061 0.57305 0.0
N435 N 0.87214 0.87392 0.58648 0.0
C436 C 0.89463 0.8889 0.60561 0.0
C437 C 0.93122 0.9062 0.59832 0.0
C438 C 0.32457 0.63732 0.87954 0.0
C439 C 0.35742 0.63757 0.89591 0.0
C440 C 0.30595 0.67268 0.87238 0.0
C441 C 0.32053 0.7093 0.88073 0.0
H442 H 0.3139 0.60972 0.87169 0.0
H443 H 0.28159 0.67149 0.85905 0.0
S444 S 0.4046 0.72588 0.92451 0.0
N445 N 0.40225 0.67739 0.92136 0.0
N446 N 0.36837 0.74382 0.90693 0.0
C447 C 0.3525 0.70986 0.89768 0.0
C448 C 0.37068 0.67393 0.90556 0.0
C449 C 0.55355 0.07429 0.14282 0.0
C450 C 0.54645 0.06586 0.11706 0.0
C451 C 0.58896 0.09231 0.15054 0.0
C452 C 0.61842 0.10223 0.13276 0.0
H453 H 0.53085 0.06884 0.15688 0.0
H454 H 0.59247 0.1001 0.17038 0.0
S455 S 0.61651 0.08002 0.06368 0.0
N456 N 0.57343 0.06439 0.0743 0.0
N457 N 0.63988 0.09776 0.08873 0.0
C458 C 0.61266 0.09129 0.10724 0.0
C459 C 0.57667 0.07324 0.09941 0.0
C460 C 0.18753 0.67233 0.12668 0.0
C461 C 0.17379 0.70903 0.11792 0.0
C462 C 0.16834 0.63723 0.11968 0.0
C463 C 0.13571 0.63786 0.10314 0.0
H464 H 0.21173 0.67095 0.14013 0.0
H465 H 0.17857 0.60952 0.12763 0.0
S466 S 0.09019 0.72652 0.07394 0.0
N467 N 0.1266 0.74409 0.09152 0.0
N468 N 0.09171 0.67802 0.07733 0.0
C469 C 0.12309 0.67427 0.09326 0.0
C470 C 0.14184 0.70996 0.10097 0.0
C471 C 0.5615 0.8902 0.39571 0.0
C472 C 0.53929 0.91348 0.37879 0.0
C473 C 0.59677 0.87234 0.38817 0.0
C474 C 0.61126 0.87668 0.36331 0.0
H475 H 0.55154 0.88553 0.41503 0.0
H476 H 0.61248 0.85448 0.40196 0.0
S477 S 0.56468 0.93517 0.31169 0.0
N478 N 0.53458 0.94062 0.33613 0.0
N479 N 0.601 0.90659 0.32177 0.0
C480 C 0.58965 0.90024 0.34618 0.0
C481 C 0.55367 0.91878 0.35398 0.0
C482 C 0.3262 0.30572 0.6082 0.0
C483 C 0.32515 0.29509 0.634 0.0
C484 C 0.34495 0.34066 0.60031 0.0
C485 C 0.36289 0.36622 0.61802 0.0
H486 H 0.3141 0.28609 0.59392 0.0
H487 H 0.34653 0.34697 0.58016 0.0
S488 S 0.36302 0.35407 0.68818 0.0
N489 N 0.34006 0.31448 0.6774 0.0
N490 N 0.37473 0.38014 0.66278 0.0
C491 C 0.35982 0.35692 0.64401 0.0
C492 C 0.3411 0.32133 0.65195 0.0
C493 C 0.93671 0.07553 0.85789 0.0
C494 C 0.95291 0.08237 0.8821 0.0
C495 C 0.90093 0.09325 0.85057 0.0
C496 C 0.87991 0.11786 0.86737 0.0
H497 H 0.95231 0.05733 0.84427 0.0
H498 H 0.88996 0.08805 0.83152 0.0
S499 S 0.9086 0.14281 0.9336 0.0
N500 N 0.94435 0.11389 0.92327 0.0
N501 N 0.87728 0.14668 0.90972 0.0
C502 C 0.89524 0.12374 0.89194 0.0
C503 C 0.93171 0.10614 0.89924 0.0
C504 C 0.88143 0.6553 0.63661 0.0
C505 C 0.8743 0.63807 0.61276 0.0
C506 C 0.86303 0.69051 0.64373 0.0
C507 C 0.83633 0.70982 0.62745 0.0
H508 H 0.90191 0.64185 0.64986 0.0
H509 H 0.86991 0.70269 0.66225 0.0
S510 S 0.80636 0.67641 0.56318 0.0
N511 N 0.83809 0.64254 0.5729 0.0
N512 N 0.80294 0.7088 0.58656 0.0
C513 C 0.82821 0.69264 0.60371 0.0
C514 C 0.84739 0.65679 0.59628 0.0
C515 C 0.09082 0.09808 0.3476 0.0
C516 C 0.11515 0.1183 0.36501 0.0
C517 C 0.05574 0.07961 0.35553 0.0
C518 C 0.04367 0.08114 0.38107 0.0
H519 H 0.09854 0.09706 0.32765 0.0
H520 H 0.0374 0.06516 0.34146 0.0
S521 S 0.09822 0.12753 0.43451 0.0
N522 N 0.12562 0.13652 0.40927 0.0
N523 N 0.05994 0.10224 0.42398 0.0
C524 C 0.06833 0.10016 0.39875 0.0
C525 C 0.10401 0.11862 0.39077 0.0
C526 C 0.61596 0.33747 0.13207 0.0
C527 C 0.62722 0.35648 0.10948 0.0
C528 C 0.63296 0.30162 0.13934 0.0
C529 C 0.66234 0.28348 0.12451 0.0
H530 H 0.59344 0.35012 0.14421 0.0
H531 H 0.62309 0.2882 0.15691 0.0
S532 S 0.7028 0.32135 0.06376 0.0
N533 N 0.66966 0.35465 0.07223 0.0
N534 N 0.70226 0.28725 0.08621 0.0
C535 C 0.67424 0.30224 0.10195 0.0
C536 C 0.65647 0.3387 0.09434 0.0
C537 C 0.42745 0.90143 0.89259 0.0
C538 C 0.4517 0.91977 0.87445 0.0
C539 C 0.39155 0.88422 0.88572 0.0
C540 C 0.37868 0.88397 0.86032 0.0
H541 H 0.43643 0.90003 0.91234 0.0
H542 H 0.37441 0.86986 0.90043 0.0
S543 S 0.43069 0.92946 0.80563 0.0
N544 N 0.45983 0.93832 0.83017 0.0
N545 N 0.39241 0.90489 0.81698 0.0
C546 C 0.40221 0.90298 0.84198 0.0
C547 C 0.43867 0.92123 0.84912 0.0
C548 C 0.84743 0.34274 0.89752 0.0
C549 C 0.87072 0.36399 0.88007 0.0
C550 C 0.82763 0.30804 0.89028 0.0
C551 C 0.83092 0.29317 0.86544 0.0
H552 H 0.84472 0.35275 0.91699 0.0
H553 H 0.81059 0.29219 0.9044 0.0
S554 S 0.88618 0.33884 0.8121 0.0
N555 N 0.89423 0.36844 0.83646 0.0
N556 N 0.8575 0.30331 0.82303 0.0
C557 C 0.85334 0.3146 0.84768 0.0
C558 C 0.87312 0.34999 0.85495 0.0
C559 C 0.40538 0.08828 0.64742 0.0
C560 C 0.39408 0.12571 0.63838 0.0
C561 C 0.44149 0.07122 0.64003 0.0
C562 C 0.4677 0.09144 0.62383 0.0
H563 H 0.38576 0.07168 0.65966 0.0
H564 H 0.44867 0.04186 0.6468 0.0
S565 S 0.45322 0.19231 0.59737 0.0
N566 N 0.41277 0.18356 0.61387 0.0
N567 N 0.48063 0.15231 0.60049 0.0
C568 C 0.4572 0.12966 0.6156 0.0
C569 C 0.42037 0.14657 0.62274 0.0
C570 C 0.65836 0.67899 0.35428 0.0
C571 C 0.67388 0.70589 0.37201 0.0
C572 C 0.63954 0.64438 0.36208 0.0
C573 C 0.63515 0.63525 0.38797 0.0
H574 H 0.6601 0.68501 0.33409 0.0
H575 H 0.62753 0.62511 0.34757 0.0
S576 S 0.67237 0.69497 0.44208 0.0
N577 N 0.68528 0.72043 0.41663 0.0
N578 N 0.6495 0.65514 0.43146 0.0
C579 C 0.6517 0.6612 0.40599 0.0
C580 C 0.6712 0.69656 0.39796 0.0
C581 C 0.10057 0.8749 0.1092 0.0
C582 C 0.11612 0.88068 0.13368 0.0
C583 C 0.06496 0.89235 0.10186 0.0
C584 C 0.04372 0.91684 0.11854 0.0
H585 H 0.11541 0.85577 0.09574 0.0
H586 H 0.05389 0.88633 0.08293 0.0
S587 S 0.07271 0.94331 0.18432 0.0
N588 N 0.10827 0.91364 0.17443 0.0
N589 N 0.04143 0.94727 0.16035 0.0
C590 C 0.05946 0.92399 0.14282 0.0
C591 C 0.0956 0.90564 0.15048 0.0
C592 C 0.66594 0.80664 0.89185 0.0
C593 C 0.67298 0.79843 0.86606 0.0
C594 C 0.64646 0.84148 0.89925 0.0
C595 C 0.63366 0.86928 0.8811 0.0
H596 H 0.6739 0.78527 0.90629 0.0
H597 H 0.6402 0.84594 0.91922 0.0
S598 S 0.65032 0.86397 0.81143 0.0
N599 N 0.66936 0.82261 0.82263 0.0
N600 N 0.6332 0.88789 0.83641 0.0
C601 C 0.64273 0.86234 0.85539 0.0
C602 C 0.66228 0.82695 0.84791 0.0
C603 C 0.43371 0.40339 0.10011 0.0
C604 C 0.45912 0.42192 0.11757 0.0
C605 C 0.39881 0.38519 0.10802 0.0
C606 C 0.38787 0.38449 0.13378 0.0
H607 H 0.4411 0.40229 0.0801 0.0
H608 H 0.38076 0.37074 0.09379 0.0
S609 S 0.44306 0.43062 0.18704 0.0
N610 N 0.47019 0.44009 0.16169 0.0
N611 N 0.40442 0.40554 0.17671 0.0
C612 C 0.41234 0.40397 0.15143 0.0
C613 C 0.44798 0.4228 0.14329 0.0
C614 C 0.84868 0.16082 0.39721 0.0
C615 C 0.87069 0.13729 0.38029 0.0
C616 C 0.82986 0.19556 0.38896 0.0
C617 C 0.83277 0.20813 0.36357 0.0
H618 H 0.84634 0.15265 0.41705 0.0
H619 H 0.81382 0.21316 0.4027 0.0
S620 S 0.88478 0.15591 0.31132 0.0
N621 N 0.89261 0.12825 0.33662 0.0
N622 N 0.85762 0.19328 0.32127 0.0
C623 C 0.85385 0.18435 0.34635 0.0
C624 C 0.87271 0.149 0.35466 0.0
C625 C 0.10685 0.61305 0.60923 0.0
C626 C 0.11986 0.61227 0.63459 0.0
C627 C 0.07123 0.59549 0.60208 0.0
C628 C 0.04716 0.57607 0.6199 0.0
H629 H 0.12375 0.62833 0.59479 0.0
H630 H 0.06225 0.59776 0.58237 0.0
S631 S 0.069 0.56306 0.68844 0.0
N632 N 0.10682 0.5887 0.67746 0.0
N633 N 0.03973 0.55521 0.66384 0.0
C634 C 0.06042 0.5736 0.64516 0.0
C635 C 0.09678 0.59185 0.65255 0.0
C636 C 0.6778 0.13483 0.61508 0.0
C637 C 0.64296 0.13516 0.6005 0.0
C638 C 0.69608 0.17027 0.6225 0.0
C639 C 0.67924 0.20691 0.6162 0.0
H640 H 0.6903 0.10706 0.62142 0.0
H641 H 0.72201 0.16898 0.63453 0.0
S642 S 0.58915 0.22387 0.57777 0.0
N643 N 0.59359 0.17532 0.57901 0.0
N644 N 0.62699 0.24169 0.59391 0.0
C645 C 0.64522 0.20763 0.601 0.0
C646 C 0.6273 0.17175 0.59286 0.0
C647 C 0.08946 0.40329 0.84384 0.0
C648 C 0.11787 0.39275 0.86223 0.0
C649 C 0.05365 0.42125 0.85091 0.0
C650 C 0.04515 0.42886 0.87656 0.0
H651 H 0.09414 0.39614 0.82402 0.0
H652 H 0.03177 0.42731 0.8364 0.0
S653 S 0.11198 0.41301 0.93148 0.0
N654 N 0.13675 0.39589 0.90683 0.0
N655 N 0.06955 0.429 0.91997 0.0
C656 C 0.07425 0.42078 0.89486 0.0
C657 C 0.11062 0.40289 0.88772 0.0
C658 C 0.86122 0.85459 0.13805 0.0
C659 C 0.86389 0.86465 0.1122 0.0
C660 C 0.84333 0.81946 0.14583 0.0
C661 C 0.82706 0.79295 0.12813 0.0
H662 H 0.87405 0.87344 0.15249 0.0
H663 H 0.84299 0.8127 0.16595 0.0
S664 S 0.82365 0.80653 0.05826 0.0
N665 N 0.84681 0.8462 0.06886 0.0
N666 N 0.81275 0.77999 0.08364 0.0
C667 C 0.82784 0.8033 0.10227 0.0
C668 C 0.84639 0.83918 0.09427 0.0
C669 C 0.43875 0.6068 0.39513 0.0
C670 C 0.46083 0.58287 0.37854 0.0
C671 C 0.40372 0.62485 0.38729 0.0
C672 C 0.38928 0.62006 0.36243 0.0
H673 H 0.4486 0.61184 0.41445 0.0
H674 H 0.38811 0.64315 0.40086 0.0
S675 S 0.43555 0.55983 0.31158 0.0
N676 N 0.46548 0.55468 0.33616 0.0
N677 N 0.39947 0.58904 0.32124 0.0
C678 C 0.41079 0.5959 0.34561 0.0
C679 C 0.44655 0.57717 0.35372 0.0
C680 C 0.3829 0.15618 0.13445 0.0
C681 C 0.37547 0.13977 0.1104 0.0
C682 C 0.36449 0.19106 0.14222 0.0
C683 C 0.33764 0.21103 0.12636 0.0
H684 H 0.40336 0.14214 0.14746 0.0
H685 H 0.37151 0.2024 0.16093 0.0
S686 S 0.30736 0.18021 0.06159 0.0
N687 N 0.33908 0.14592 0.0707 0.0
N688 N 0.30416 0.21169 0.08548 0.0
C689 C 0.32955 0.19489 0.1023 0.0
C690 C 0.34857 0.15925 0.09427 0.0
C691 C 0.55108 0.62274 0.88871 0.0
C692 C 0.53369 0.59263 0.87408 0.0
C693 C 0.58666 0.64024 0.88151 0.0
C694 C 0.60622 0.6288 0.85917 0.0
H695 H 0.53741 0.6327 0.90618 0.0
H696 H 0.59878 0.66316 0.89358 0.0
S697 S 0.57292 0.55178 0.81379 0.0
N698 N 0.53857 0.55211 0.83607 0.0
N699 N 0.6055 0.5857 0.82218 0.0
C700 C 0.58907 0.59904 0.84409 0.0
C701 C 0.55283 0.58074 0.85165 0.0
C702 C 0.14869 0.81269 0.64435 0.0
C703 C 0.17302 0.79138 0.62762 0.0
C704 C 0.13051 0.84787 0.63689 0.0
C705 C 0.13541 0.8631 0.61223 0.0
H706 H 0.14334 0.80197 0.66344 0.0
H707 H 0.1117 0.86275 0.6505 0.0
S708 S 0.19712 0.81922 0.56127 0.0
N709 N 0.2022 0.78854 0.58548 0.0
N710 N 0.16736 0.85469 0.57119 0.0
C711 C 0.16025 0.84253 0.59535 0.0
C712 C 0.17926 0.80671 0.60312 0.0
C713 C 0.93323 0.39716 0.39348 0.0
C714 C 0.95753 0.41829 0.37663 0.0
C715 C 0.89842 0.37922 0.38522 0.0
C716 C 0.88644 0.38134 0.35968 0.0
H717 H 0.94132 0.39398 0.41329 0.0
H718 H 0.88119 0.36287 0.399 0.0
S719 S 0.93863 0.43463 0.30802 0.0
N720 N 0.96657 0.44171 0.33336 0.0
N721 N 0.90091 0.40755 0.31764 0.0
C722 C 0.9099 0.40318 0.34264 0.0
C723 C 0.94546 0.42181 0.35117 0.0
C724 C 0.33113 0.8005 0.39353 0.0
C725 C 0.32601 0.792 0.36759 0.0
C726 C 0.35013 0.83534 0.40137 0.0
C727 C 0.36435 0.86288 0.38352 0.0
H728 H 0.32183 0.77943 0.40781 0.0
H729 H 0.35467 0.84014 0.42151 0.0
S730 S 0.35332 0.85657 0.3134 0.0
N731 N 0.33328 0.81545 0.32419 0.0
N732 N 0.36854 0.88079 0.33879 0.0
C733 C 0.35745 0.85555 0.35758 0.0
C734 C 0.33839 0.82013 0.34965 0.0
C735 C 0.94165 0.60943 0.10365 0.0
C736 C 0.96364 0.58504 0.12005 0.0
C737 C 0.90667 0.62739 0.11155 0.0
C738 C 0.8921 0.62205 0.1363 0.0
H739 H 0.95148 0.61488 0.08438 0.0
H740 H 0.89117 0.64601 0.0981 0.0
S741 S 0.93801 0.56056 0.18671 0.0
N742 N 0.96807 0.5559 0.16218 0.0
N743 N 0.90206 0.59012 0.17724 0.0
C744 C 0.91354 0.59756 0.15298 0.0
C745 C 0.94932 0.57892 0.14481 0.0
C746 C 0.17089 0.19413 0.89142 0.0
C747 C 0.16282 0.21144 0.86768 0.0
C748 C 0.15317 0.15823 0.89855 0.0
C749 C 0.12739 0.13816 0.88198 0.0
H750 H 0.19035 0.20878 0.90477 0.0
H751 H 0.15955 0.14625 0.91719 0.0
S752 S 0.09834 0.17024 0.81709 0.0
N753 N 0.12836 0.20517 0.8273 0.0
N754 N 0.09565 0.1379 0.84046 0.0
C755 C 0.11995 0.15479 0.85795 0.0
C756 C 0.1375 0.19139 0.85086 0.0
C757 C 0.5614 0.41779 0.6402 0.0
C758 C 0.54465 0.41104 0.61614 0.0
C759 C 0.59715 0.39976 0.64722 0.0
C760 C 0.6177 0.37511 0.63022 0.0
H761 H 0.5463 0.43625 0.65392 0.0
H762 H 0.60863 0.40498 0.66614 0.0
S763 S 0.58719 0.34966 0.56448 0.0
N764 N 0.55189 0.37898 0.57503 0.0
N765 N 0.61913 0.34579 0.58803 0.0
C766 C 0.60176 0.3691 0.60586 0.0
C767 C 0.5652 0.38688 0.59888 0.0
C768 C 0.23112 0.24207 0.227 0.0
C769 C 0.2609 0.27094 0.22519 0.0
C770 C 0.22395 0.22202 0.24983 0.0
C771 C 0.24634 0.22999 0.27174 0.0
H772 H 0.21324 0.23466 0.21061 0.0
H773 H 0.2005 0.20028 0.2503 0.0
S774 S 0.32784 0.30301 0.27712 0.0
N775 N 0.31294 0.30655 0.24735 0.0
N776 N 0.2996 0.2689 0.29021 0.0
C777 C 0.27628 0.25878 0.27021 0.0
C778 C 0.28349 0.27928 0.24697 0.0
C779 C 0.02478 0.97178 0.50181 0.0
C780 C 0.01645 0.99379 0.5238 0.0
C781 C 0.00496 0.97916 0.47893 0.0
C782 C 0.97602 0.00888 0.4771 0.0
H783 H 0.04677 0.94854 0.5022 0.0
H784 H 0.01282 0.96163 0.46248 0.0
S785 S 0.94248 0.07441 0.52933 0.0
N786 N 0.97666 0.04622 0.54245 0.0
N787 N 0.93954 0.06012 0.49941 0.0
C788 C 0.9671 0.03094 0.499 0.0
C789 C 0.98731 0.02342 0.52234 0.0
C790 C 0.27412 0.75405 0.72869 0.0
C791 C 0.24458 0.72519 0.72565 0.0
C792 C 0.28155 0.77129 0.75244 0.0
C793 C 0.25967 0.76038 0.77403 0.0
H794 H 0.29148 0.76372 0.71257 0.0
H795 H 0.30445 0.79352 0.75381 0.0
S796 S 0.1795 0.68556 0.77635 0.0
N797 N 0.19372 0.68598 0.74638 0.0
N798 N 0.20759 0.71833 0.7909 0.0
C799 C 0.23031 0.73123 0.7713 0.0
C800 C 0.2228 0.71365 0.74715 0.0
C801 C 0.49468 0.97366 0.01469 0.0
C802 C 0.46913 0.00608 0.01782 0.0
C803 C 0.51388 0.96672 0.99158 0.0
C804 C 0.50815 0.99181 0.9706 0.0
H805 H 0.50056 0.95377 0.03037 0.0
H806 H 0.53336 0.94142 0.99018 0.0
S807 S 0.4434 0.08032 0.96861 0.0
N808 N 0.43855 0.06321 0.99781 0.0
N809 N 0.47444 0.05005 0.95427 0.0
C810 C 0.48222 0.02405 0.97331 0.0
C811 C 0.46274 0.03119 0.99692 0.0
C812 C 0.27519 0.71642 0.25065 0.0
C813 C 0.25008 0.72105 0.2717 0.0
C814 C 0.26728 0.73542 0.22758 0.0
C815 C 0.23392 0.7598 0.2246 0.0
H816 H 0.30165 0.69856 0.25211 0.0
H817 H 0.28774 0.73114 0.21201 0.0
S818 S 0.15779 0.78032 0.27353 0.0
N819 N 0.18965 0.75085 0.28784 0.0
N820 N 0.17482 0.78652 0.24443 0.0
C821 C 0.20809 0.7641 0.24532 0.0
C822 C 0.21614 0.74471 0.26886 0.0
C823 C 0.46605 0.97565 0.49844 0.0
C824 C 0.47878 0.99335 0.47571 0.0
C825 C 0.48513 0.98348 0.52156 0.0
C826 C 0.5179 0.00899 0.52275 0.0
H827 H 0.44124 0.95546 0.49841 0.0
H828 H 0.47419 0.96926 0.53859 0.0
S829 S 0.56285 0.06301 0.46862 0.0
N830 N 0.5261 0.03786 0.45588 0.0
N831 N 0.56204 0.05223 0.49919 0.0
C832 C 0.5309 0.02693 0.50016 0.0
C833 C 0.5113 0.01924 0.47668 0.0
C834 C 0.22362 0.27716 0.75266 0.0
C835 C 0.24397 0.26695 0.77501 0.0
C836 C 0.23083 0.25737 0.72976 0.0
C837 C 0.25874 0.22665 0.72828 0.0
H838 H 0.2018 0.30056 0.7528 0.0
H839 H 0.21465 0.26663 0.71302 0.0
S840 S 0.31953 0.188 0.78146 0.0
N841 N 0.29293 0.22363 0.79432 0.0
N842 N 0.30651 0.18657 0.75126 0.0
C843 C 0.27916 0.21595 0.75051 0.0
C844 C 0.27179 0.23608 0.77386 0.0
C845 C 0.02827 0.02601 0.99612 0.0
C846 C 0.01798 0.00493 0.97407 0.0
C847 C 0.00989 0.01821 0.01942 0.0
C848 C 0.98047 0.98905 0.02158 0.0
H849 H 0.05052 0.04897 0.99539 0.0
H850 H 0.01894 0.03518 0.03587 0.0
S851 S 0.94294 0.92519 0.96955 0.0
N852 N 0.97656 0.95336 0.9559 0.0
N853 N 0.94205 0.93877 -0.00035 0.0
C854 C 0.96995 0.96764 -0.00031 0.0
C855 C 0.98871 0.97553 0.97597 0.0
C856 C 0.73138 0.74045 0.72634 0.0
C857 C 0.76311 0.76702 0.72397 0.0
C858 C 0.72368 0.72112 0.74934 0.0
C859 C 0.74755 0.72746 0.77083 0.0
H860 H 0.71207 0.73467 0.71035 0.0
H861 H 0.69847 0.7015 0.75034 0.0
S862 S 0.83541 0.79293 0.77432 0.0
N863 N 0.81929 0.79783 0.74489 0.0
N864 N 0.805 0.76143 0.78807 0.0
C865 C 0.77985 0.75342 0.7686 0.0
C866 C 0.78755 0.77326 0.7452 0.0
C867 C 0.76519 0.25918 0.22426 0.0
C868 C 0.73562 0.23007 0.22266 0.0
C869 C 0.7727 0.27918 0.24706 0.0
C870 C 0.75083 0.27098 0.26914 0.0
H871 H 0.78291 0.26651 0.2078 0.0
H872 H 0.79618 0.30089 0.24741 0.0
S873 S 0.66919 0.19823 0.27486 0.0
N874 N 0.68371 0.19464 0.24502 0.0
N875 N 0.69767 0.23227 0.28783 0.0
C876 C 0.72075 0.24234 0.26772 0.0
C877 C 0.71322 0.22185 0.24452 0.0
C878 C 0.77225 0.21669 0.75179 0.0
C879 C 0.75007 0.22734 0.7733 0.0
C880 C 0.76523 0.23425 0.72814 0.0
C881 C 0.73566 0.26306 0.72502 0.0
H882 H 0.79564 0.19497 0.75325 0.0
H883 H 0.78325 0.22513 0.71218 0.0
S884 S 0.66868 0.30086 0.77522 0.0
N885 N 0.69683 0.26821 0.78989 0.0
N886 N 0.68358 0.30108 0.74537 0.0
C887 C 0.7129 0.27368 0.74628 0.0
C888 C 0.72011 0.25585 0.77042 0.0
C889 C 0.77525 0.74673 0.26932 0.0
C890 C 0.74129 0.77024 0.27229 0.0
C891 C 0.78254 0.72631 0.24666 0.0
C892 C 0.75613 0.72855 0.22608 0.0
H893 H 0.79641 0.7439 0.28465 0.0
H894 H 0.80933 0.70897 0.24521 0.0
S895 S 0.66229 0.78532 0.22431 0.0
N896 N 0.68061 0.7941 0.25282 0.0
N897 N 0.69426 0.75572 0.21025 0.0
C898 C 0.72189 0.75175 0.22883 0.0
C899 C 0.71451 0.77264 0.2519 0.0
C900 C 0.49783 0.52081 0.01742 0.0
C901 C 0.5282 0.49252 0.01876 0.0
C902 C 0.47791 0.5283 0.99464 0.0
C903 C 0.48775 0.50806 0.9722 0.0
H904 H 0.48877 0.53691 0.03422 0.0
H905 H 0.45467 0.5503 0.99466 0.0
S906 S 0.56578 0.43175 0.96531 0.0
N907 N 0.56762 0.44449 0.99557 0.0
N908 N 0.53042 0.45891 0.95258 0.0
C909 C 0.51845 0.48005 0.97313 0.0
C910 C 0.53861 0.47221 0.99644 0.0
C911 C 0.99412 0.51861 0.47956 0.0
C912 C 0.02075 0.48694 0.47706 0.0
C913 C 0.97455 0.52585 0.50251 0.0
C914 C 0.98082 0.50169 0.52387 0.0
H915 H 0.98813 0.53797 0.46363 0.0
H916 H 0.95463 0.55084 0.50354 0.0
S917 S 0.0475 0.4147 0.52728 0.0
N918 N 0.05228 0.43104 0.49791 0.0
N919 N 0.01552 0.44461 0.54105 0.0
C920 C 0.00726 0.46977 0.52163 0.0
C921 C 0.02726 0.46245 0.49824 0.0
C922 C 0.99074 0.47942 0.0178 0.0
C923 C 0.02295 0.50562 0.01927 0.0
C924 C 0.97063 0.47319 0.99486 0.0
C925 C 0.98175 0.49318 0.97258 0.0
H926 H 0.98067 0.46383 0.03456 0.0
H927 H 0.94609 0.45268 0.99464 0.0
S928 S 0.06512 0.56376 0.96599 0.0
N929 N 0.06577 0.55081 0.99621 0.0
N930 N 0.02792 0.53934 0.9532 0.0
C931 C 0.01416 0.51918 0.97371 0.0
C932 C 0.0348 0.52529 0.99701 0.0
C933 C 0.52928 0.52371 0.49818 0.0
C934 C 0.52076 0.50161 0.47624 0.0
C935 C 0.51012 0.516 0.5212 0.0
C936 C 0.48159 0.48594 0.52321 0.0
H937 H 0.55072 0.54744 0.49758 0.0
H938 H 0.51782 0.53383 0.53756 0.0
S939 S 0.44893 0.41903 0.47144 0.0
N940 N 0.48212 0.44797 0.45801 0.0
N941 N 0.4461 0.43354 0.50132 0.0
C942 C 0.47288 0.46344 0.50146 0.0
C943 C 0.4925 0.47122 0.47799 0.0
C944 C 0.29166 0.06737 0.36904 0.0
C945 C 0.3028 0.10675 0.36461 0.0
C946 C 0.3189 0.03962 0.37801 0.0
C947 C 0.35857 0.04993 0.38214 0.0
H948 H 0.26143 0.05804 0.36595 0.0
H949 H 0.30891 0.00966 0.38136 0.0
S950 S 0.40295 0.14895 0.37289 0.0
N951 N 0.35603 0.15488 0.3651 0.0
N952 N 0.4079 0.10202 0.38096 0.0
C953 C 0.37035 0.08904 0.37743 0.0
C954 C 0.34225 0.11768 0.36896 0.0
C955 C 0.14723 0.06081 0.64091 0.0
C956 C 0.13955 0.05502 0.61493 0.0
C957 C 0.1758 0.08801 0.64902 0.0
C958 C 0.19705 0.11106 0.63147 0.0
H959 H 0.13209 0.04321 0.65507 0.0
H960 H 0.18152 0.09074 0.66919 0.0
S961 S 0.18589 0.10906 0.56137 0.0
N962 N 0.15423 0.07564 0.57171 0.0
N963 N 0.20715 0.12755 0.58699 0.0
C964 C 0.18852 0.10668 0.60549 0.0
C965 C 0.15998 0.07842 0.59721 0.0
C966 C 0.18382 0.89579 0.89056 0.0
C967 C 0.18868 0.88595 0.8648 0.0
C968 C 0.15689 0.92494 0.89807 0.0
C969 C 0.13324 0.94477 0.88016 0.0
H970 H 0.20191 0.88185 0.90498 0.0
H971 H 0.1549 0.93228 0.91806 0.0
S972 S 0.1327 0.92796 0.81052 0.0
N973 N 0.16648 0.89711 0.82144 0.0
N974 N 0.11514 0.9513 0.83564 0.0
C975 C 0.13667 0.93414 0.85444 0.0
C976 C 0.16462 0.90491 0.84674 0.0
C977 C 0.33735 0.8799 0.12365 0.0
C978 C 0.30101 0.89133 0.1343 0.0
C979 C 0.36513 0.9083 0.1159 0.0
C980 C 0.35678 0.94889 0.1178 0.0
H981 H 0.34441 0.84888 0.12144 0.0
H982 H 0.39278 0.89846 0.10772 0.0
S983 S 0.26587 0.99399 0.14424 0.0
N984 N 0.25852 0.94593 0.14671 0.0
N985 N 0.30996 0.99907 0.13128 0.0
C986 C 0.32057 0.96059 0.12838 0.0
C987 C 0.29286 0.93184 0.13687 0.0
C988 C 0.68116 0.8893 0.6085 0.0
C989 C 0.69209 0.88578 0.63416 0.0
C990 C 0.65346 0.91762 0.60068 0.0
C991 C 0.63518 0.94302 0.61829 0.0
H992 H 0.69525 0.87116 0.59417 0.0
H993 H 0.64697 0.92015 0.58059 0.0
S994 S 0.6508 0.94305 0.68809 0.0
N995 N 0.68067 0.90826 0.67742 0.0
N996 N 0.62814 0.96097 0.66281 0.0
C997 C 0.6444 0.93844 0.64418 0.0
C998 C 0.67301 0.90998 0.65209 0.0
C999 C 0.81896 0.95856 0.37918 0.0
C1000 C 0.85887 0.94847 0.38255 0.0
C1001 C 0.79138 0.93062 0.37093 0.0
C1002 C 0.80241 0.89122 0.36639 0.0
H1003 H 0.80897 0.98851 0.38262 0.0
H1004 H 0.76099 0.93989 0.36843 0.0
S1005 S 0.90314 0.84946 0.37277 0.0
N1006 N 0.90828 0.89647 0.38059 0.0
N1007 N 0.85589 0.84333 0.36594 0.0
C1008 C 0.84213 0.8805 0.36996 0.0
C1009 C 0.87053 0.90932 0.37777 0.0
C1010 C 0.81565 0.10478 0.10652 0.0
C1011 C 0.80849 0.11175 0.13244 0.0
C1012 C 0.84376 0.07691 0.0987 0.0
C1013 C 0.86631 0.05561 0.11651 0.0
H1014 H 0.79829 0.11973 0.09214 0.0
H1015 H 0.84732 0.0715 0.07855 0.0
S1016 S 0.86123 0.06553 0.18663 0.0
N1017 N 0.82767 0.09678 0.1759 0.0
N1018 N 0.88118 0.04509 0.16121 0.0
C1019 C 0.86079 0.06371 0.14246 0.0
C1020 C 0.83167 0.09158 0.15043 0.0
C1021 C 0.63729 0.06676 0.85656 0.0
C1022 C 0.62951 0.05935 0.88234 0.0
C1023 C 0.66608 0.09423 0.84924 0.0
C1024 C 0.68742 0.11596 0.86743 0.0
H1025 H 0.62224 0.05003 0.84191 0.0
H1026 H 0.67209 0.09802 0.82918 0.0
S1027 S 0.67588 0.1098 0.93737 0.0
N1028 N 0.64403 0.07726 0.9261 0.0
N1029 N 0.69736 0.12976 0.9123 0.0
C1030 C 0.67861 0.11021 0.89324 0.0
C1031 C 0.64987 0.08163 0.90072 0.0
C1032 C 0.78803 0.57175 0.87293 0.0
C1033 C 0.79882 0.61086 0.86731 0.0
C1034 C 0.8162 0.54398 0.88064 0.0
C1035 C 0.85641 0.55397 0.88232 0.0
H1036 H 0.75747 0.56252 0.8715 0.0
H1037 H 0.80647 0.51419 0.88481 0.0
S1038 S 0.90003 0.65242 0.86951 0.0
N1039 N 0.85229 0.6585 0.86427 0.0
N1040 N 0.90569 0.6057 0.87789 0.0
C1041 C 0.86772 0.59293 0.87665 0.0
C1042 C 0.83877 0.62158 0.86942 0.0
C1043 C 0.71156 0.56598 0.12968 0.0
C1044 C 0.7012 0.60593 0.13258 0.0
C1045 C 0.68403 0.53813 0.12118 0.0
C1046 C 0.6448 0.54895 0.11591 0.0
H1047 H 0.74141 0.55619 0.1336 0.0
H1048 H 0.69351 0.50775 0.11896 0.0
S1049 S 0.60238 0.64962 0.12109 0.0
N1050 N 0.64904 0.65506 0.1296 0.0
N1051 N 0.59673 0.60224 0.11444 0.0
C1052 C 0.63378 0.58867 0.11912 0.0
C1053 C 0.66216 0.61732 0.1272 0.0
C1054 C 0.6611 0.38236 0.36892 0.0
C1055 C 0.70047 0.39344 0.36426 0.0
C1056 C 0.63324 0.4102 0.37745 0.0
C1057 C 0.64437 0.4495 0.38239 0.0
H1058 H 0.65165 0.35225 0.36548 0.0
H1059 H 0.60306 0.40081 0.38059 0.0
S1060 S 0.74403 0.49287 0.37378 0.0
N1061 N 0.74907 0.44623 0.3652 0.0
N1062 N 0.69732 0.49795 0.3821 0.0
C1063 C 0.68376 0.46064 0.37815 0.0
C1064 C 0.71169 0.43274 0.36886 0.0
C1065 C 0.87043 0.40914 0.62082 0.0
C1066 C 0.85963 0.44915 0.61882 0.0
C1067 C 0.84257 0.38035 0.62788 0.0
C1068 C 0.80357 0.391 0.63397 0.0
H1069 H 0.90023 0.39994 0.61627 0.0
H1070 H 0.85168 0.3497 0.62883 0.0
S1071 S 0.76106 0.49195 0.63236 0.0
N1072 N 0.80746 0.49789 0.62357 0.0
N1073 N 0.75574 0.44421 0.63778 0.0
C1074 C 0.79277 0.431 0.63254 0.0
C1075 C 0.82067 0.45999 0.62471 0.0
C1076 C 0.18209 0.4579 0.11764 0.0
C1077 C 0.14257 0.4471 0.11345 0.0
C1078 C 0.20974 0.43047 0.12648 0.0
C1079 C 0.19923 0.39087 0.13077 0.0
H1080 H 0.19168 0.48804 0.11442 0.0
H1081 H 0.23981 0.44028 0.12962 0.0
S1082 S 0.09969 0.34731 0.12226 0.0
N1083 N 0.09404 0.39425 0.11439 0.0
N1084 N 0.14669 0.34199 0.13005 0.0
C1085 C 0.15994 0.37942 0.12635 0.0
C1086 C 0.13139 0.40775 0.11799 0.0
C1087 C 0.3546 0.43952 0.85717 0.0
C1088 C 0.36381 0.44465 0.883 0.0
C1089 C 0.32657 0.41155 0.84938 0.0
C1090 C 0.30718 0.38719 0.86709 0.0
H1091 H 0.368 0.45827 0.84289 0.0
H1092 H 0.31951 0.40955 0.82934 0.0
S1093 S 0.32336 0.38654 0.93682 0.0
N1094 N 0.35308 0.42149 0.92619 0.0
N1095 N 0.30092 0.36844 0.91152 0.0
C1096 C 0.31748 0.39073 0.89288 0.0
C1097 C 0.34563 0.41961 0.90084 0.0
C1098 C 0.34656 0.57649 0.59886 0.0
C1099 C 0.36956 0.55592 0.6168 0.0
C1100 C 0.31912 0.6052 0.60644 0.0
C1101 C 0.31309 0.6137 0.63228 0.0
H1102 H 0.34922 0.56983 0.5788 0.0
H1103 H 0.30133 0.61953 0.59203 0.0
S1104 S 0.36746 0.57001 0.68668 0.0
N1105 N 0.38613 0.54783 0.66146 0.0
N1106 N 0.33387 0.60104 0.67575 0.0
C1107 C 0.33677 0.59431 0.65036 0.0
C1108 C 0.36522 0.56563 0.64261 0.0
C1109 C 0.18125 0.53895 0.38105 0.0
C1110 C 0.14139 0.54948 0.38412 0.0
C1111 C 0.20918 0.56649 0.37279 0.0
C1112 C 0.19854 0.6059 0.36796 0.0
H1113 H 0.19089 0.50893 0.38461 0.0
H1114 H 0.23947 0.55689 0.37038 0.0
S1115 S 0.09823 0.64882 0.37367 0.0
N1116 N 0.09254 0.60197 0.38173 0.0
N1117 N 0.1456 0.65437 0.36704 0.0
C1118 C 0.15894 0.61712 0.37136 0.0
C1119 C 0.13018 0.58871 0.37918 0.0
loop_
_geom_bond_atom_site_label_1
_geom_bond_atom_site_label_2
_geom_bond_distance
_geom_bond_site_symmetry_2
_ccdc_geom_bond_type
In0 O1 2.294 . S
In0 O2 2.326 . S
In0 O6 2.266 . S
In0 O7 2.326 . S
In0 O8 2.266 . S
In0 O9 2.326 . S
In0 O11 2.294 . S
In0 O12 2.326 . S
O1 In0 2.294 . S
O1 C10 1.240 . S
O2 In0 2.326 . S
O2 C10 1.252 . S
C3 O6 1.252 . S
C3 O7 1.260 . S
C4 O11 1.240 . S
C4 O12 1.252 . S
C5 O8 1.252 . S
C5 O9 1.260 . S
O6 In0 2.266 . S
O6 C3 1.252 . S
O7 In0 2.326 . S
O7 C3 1.260 . S
O8 In0 2.266 . S
O8 C5 1.252 . S
O9 In0 2.326 . S
O9 C5 1.260 . S
C10 O1 1.240 . S
C10 O2 1.252 . S
O11 In0 2.294 . S
O11 C4 1.240 . S
O12 In0 2.326 . S
O12 C4 1.252 . S
In13 O14 2.294 1_565 S
In13 O15 2.326 . S
In13 O19 2.266 . S
In13 O20 2.326 . S
In13 O21 2.266 . S
In13 O22 2.326 1_565 S
In13 O24 2.294 . S
In13 O25 2.326 . S
O14 In13 2.294 1_545 S
O14 C23 1.240 . S
O15 In13 2.326 . S
O15 C23 1.252 1_565 S
C16 O19 1.252 1_655 S
C16 O20 1.260 1_655 S
C17 O24 1.240 . S
C17 O25 1.252 . S
C18 O21 1.252 . S
C18 O22 1.260 1_565 S
O19 In13 2.266 . S
O19 C16 1.252 1_455 S
O20 In13 2.326 . S
O20 C16 1.260 1_455 S
O21 In13 2.266 . S
O21 C18 1.252 . S
O22 In13 2.326 1_545 S
O22 C18 1.260 1_545 S
C23 O14 1.240 . S
C23 O15 1.252 1_545 S
O24 In13 2.294 . S
O24 C17 1.240 . S
O25 In13 2.326 . S
O25 C17 1.252 . S
In26 O27 2.294 . S
In26 O28 2.326 . S
In26 O32 2.266 . S
In26 O33 2.326 . S
In26 O34 2.266 . S
In26 O35 2.326 . S
In26 O37 2.294 . S
In26 O38 2.326 . S
O27 In26 2.294 . S
O27 C36 1.240 . S
O28 In26 2.326 . S
O28 C36 1.252 . S
C29 O32 1.252 . S
C29 O33 1.260 . S
C30 O37 1.240 . S
C30 O38 1.252 . S
C31 O34 1.252 . S
C31 O35 1.260 . S
O32 In26 2.266 . S
O32 C29 1.252 . S
O33 In26 2.326 . S
O33 C29 1.260 . S
O34 In26 2.266 . S
O34 C31 1.252 . S
O35 In26 2.326 . S
O35 C31 1.260 . S
C36 O27 1.240 . S
C36 O28 1.252 . S
O37 In26 2.294 . S
O37 C30 1.240 . S
O38 In26 2.326 . S
O38 C30 1.252 . S
In39 O40 2.294 1_545 S
In39 O41 2.326 . S
In39 O45 2.266 . S
In39 O46 2.326 . S
In39 O47 2.266 . S
In39 O48 2.326 1_545 S
In39 O50 2.294 . S
In39 O51 2.326 . S
O40 In39 2.294 1_565 S
O40 C49 1.240 . S
O41 In39 2.326 . S
O41 C49 1.252 1_545 S
C42 O45 1.252 . S
C42 O46 1.260 . S
C43 O50 1.240 . S
C43 O51 1.252 . S
C44 O47 1.252 . S
C44 O48 1.260 1_545 S
O45 In39 2.266 . S
O45 C42 1.252 . S
O46 In39 2.326 . S
O46 C42 1.260 . S
O47 In39 2.266 . S
O47 C44 1.252 . S
O48 In39 2.326 1_565 S
O48 C44 1.260 1_565 S
C49 O40 1.240 . S
C49 O41 1.252 1_565 S
O50 In39 2.294 . S
O50 C43 1.240 . S
O51 In39 2.326 . S
O51 C43 1.252 . S
In52 O53 2.294 . S
In52 O54 2.326 . S
In52 O58 2.266 . S
In52 O59 2.326 . S
In52 O60 2.266 . S
In52 O61 2.326 . S
In52 O63 2.294 . S
In52 O64 2.326 . S
O53 In52 2.294 . S
O53 C62 1.240 . S
O54 In52 2.326 . S
O54 C62 1.252 . S
C55 O58 1.252 . S
C55 O59 1.260 . S
C56 O63 1.240 . S
C56 O64 1.252 . S
C57 O60 1.252 . S
C57 O61 1.260 . S
O58 In52 2.266 . S
O58 C55 1.252 . S
O59 In52 2.326 . S
O59 C55 1.260 . S
O60 In52 2.266 . S
O60 C57 1.252 . S
O61 In52 2.326 . S
O61 C57 1.260 . S
C62 O53 1.240 . S
C62 O54 1.252 . S
O63 In52 2.294 . S
O63 C56 1.240 . S
O64 In52 2.326 . S
O64 C56 1.252 . S
In65 O66 2.294 1_565 S
In65 O67 2.326 . S
In65 O71 2.266 . S
In65 O72 2.326 . S
In65 O73 2.266 . S
In65 O74 2.326 1_565 S
In65 O76 2.294 . S
In65 O77 2.326 . S
O66 In65 2.294 1_545 S
O66 C75 1.240 . S
O67 In65 2.326 . S
O67 C75 1.252 1_565 S
C68 O71 1.252 . S
C68 O72 1.260 . S
C69 O76 1.240 . S
C69 O77 1.252 . S
C70 O73 1.252 . S
C70 O74 1.260 1_565 S
O71 In65 2.266 . S
O71 C68 1.252 . S
O72 In65 2.326 . S
O72 C68 1.260 . S
O73 In65 2.266 . S
O73 C70 1.252 . S
O74 In65 2.326 1_545 S
O74 C70 1.260 1_545 S
C75 O66 1.240 . S
C75 O67 1.252 1_545 S
O76 In65 2.294 . S
O76 C69 1.240 . S
O77 In65 2.326 . S
O77 C69 1.252 . S
In78 O79 2.294 . S
In78 O80 2.326 . S
In78 O84 2.266 . S
In78 O85 2.326 . S
In78 O86 2.266 . S
In78 O87 2.326 . S
In78 O89 2.294 . S
In78 O90 2.326 . S
O79 In78 2.294 . S
O79 C88 1.240 . S
O80 In78 2.326 . S
O80 C88 1.252 . S
C81 O84 1.252 . S
C81 O85 1.260 . S
C82 O89 1.240 . S
C82 O90 1.252 . S
C83 O86 1.252 . S
C83 O87 1.260 . S
O84 In78 2.266 . S
O84 C81 1.252 . S
O85 In78 2.326 . S
O85 C81 1.260 . S
O86 In78 2.266 . S
O86 C83 1.252 . S
O87 In78 2.326 . S
O87 C83 1.260 . S
C88 O79 1.240 . S
C88 O80 1.252 . S
O89 In78 2.294 . S
O89 C82 1.240 . S
O90 In78 2.326 . S
O90 C82 1.252 . S
In91 O92 2.294 . S
In91 O93 2.326 . S
In91 O97 2.266 . S
In91 O98 2.326 1_545 S
In91 O99 2.266 . S
In91 O100 2.326 . S
In91 O102 2.294 1_545 S
In91 O103 2.326 . S
O92 In91 2.294 . S
O92 C101 1.240 . S
O93 In91 2.326 . S
O93 C101 1.252 . S
C94 O97 1.252 . S
C94 O98 1.260 1_545 S
C95 O102 1.240 . S
C95 O103 1.252 1_565 S
C96 O99 1.252 1_655 S
C96 O100 1.260 1_655 S
O97 In91 2.266 . S
O97 C94 1.252 . S
O98 In91 2.326 1_565 S
O98 C94 1.260 1_565 S
O99 In91 2.266 . S
O99 C96 1.252 1_455 S
O100 In91 2.326 . S
O100 C96 1.260 1_455 S
C101 O92 1.240 . S
C101 O93 1.252 . S
O102 In91 2.294 1_565 S
O102 C95 1.240 . S
O103 In91 2.326 . S
O103 C95 1.252 1_545 S
In104 O105 2.294 . S
In104 O106 2.326 . S
In104 O110 2.266 . S
In104 O111 2.326 . S
In104 O112 2.266 . S
In104 O113 2.326 . S
In104 O115 2.294 . S
In104 O116 2.326 . S
O105 In104 2.294 . S
O105 C114 1.240 . S
O106 In104 2.326 . S
O106 C114 1.252 . S
C107 O110 1.252 . S
C107 O111 1.260 . S
C108 O115 1.240 . S
C108 O116 1.252 . S
C109 O112 1.252 . S
C109 O113 1.260 . S
O110 In104 2.266 . S
O110 C107 1.252 . S
O111 In104 2.326 . S
O111 C107 1.260 . S
O112 In104 2.266 . S
O112 C109 1.252 . S
O113 In104 2.326 . S
O113 C109 1.260 . S
C114 O105 1.240 . S
C114 O106 1.252 . S
O115 In104 2.294 . S
O115 C108 1.240 . S
O116 In104 2.326 . S
O116 C108 1.252 . S
In117 O118 2.294 . S
In117 O119 2.326 . S
In117 O123 2.266 1_545 S
In117 O124 2.326 . S
In117 O125 2.266 . S
In117 O126 2.326 . S
In117 O128 2.294 . S
In117 O129 2.326 1_545 S
O118 In117 2.294 . S
O118 C127 1.240 1_655 S
O119 In117 2.326 . S
O119 C127 1.252 1_655 S
C120 O123 1.252 . S
C120 O124 1.260 1_565 S
C121 O128 1.240 . S
C121 O129 1.252 1_545 S
C122 O125 1.252 . S
C122 O126 1.260 . S
O123 In117 2.266 1_565 S
O123 C120 1.252 . S
O124 In117 2.326 . S
O124 C120 1.260 1_545 S
O125 In117 2.266 . S
O125 C122 1.252 . S
O126 In117 2.326 . S
O126 C122 1.260 . S
C127 O118 1.240 1_455 S
C127 O119 1.252 1_455 S
O128 In117 2.294 . S
O128 C121 1.240 . S
O129 In117 2.326 1_565 S
O129 C121 1.252 1_565 S
In130 O131 2.294 . S
In130 O132 2.326 . S
In130 O136 2.266 . S
In130 O137 2.326 . S
In130 O138 2.266 . S
In130 O139 2.326 . S
In130 O141 2.294 . S
In130 O142 2.326 . S
O131 In130 2.294 . S
O131 C140 1.240 . S
O132 In130 2.326 . S
O132 C140 1.252 . S
C133 O136 1.252 . S
C133 O137 1.260 . S
C134 O141 1.240 . S
C134 O142 1.252 . S
C135 O138 1.252 . S
C135 O139 1.260 . S
O136 In130 2.266 . S
O136 C133 1.252 . S
O137 In130 2.326 . S
O137 C133 1.260 . S
O138 In130 2.266 . S
O138 C135 1.252 . S
O139 In130 2.326 . S
O139 C135 1.260 . S
C140 O131 1.240 . S
C140 O132 1.252 . S
O141 In130 2.294 . S
O141 C134 1.240 . S
O142 In130 2.326 . S
O142 C134 1.252 . S
In143 O144 2.294 . S
In143 O145 2.326 . S
In143 O149 2.266 1_565 S
In143 O150 2.326 . S
In143 O151 2.266 . S
In143 O152 2.326 . S
In143 O154 2.294 . S
In143 O155 2.326 1_565 S
O144 In143 2.294 . S
O144 C153 1.240 . S
O145 In143 2.326 . S
O145 C153 1.252 . S
C146 O149 1.252 . S
C146 O150 1.260 1_545 S
C147 O154 1.240 . S
C147 O155 1.252 1_565 S
C148 O151 1.252 . S
C148 O152 1.260 . S
O149 In143 2.266 1_545 S
O149 C146 1.252 . S
O150 In143 2.326 . S
O150 C146 1.260 1_565 S
O151 In143 2.266 . S
O151 C148 1.252 . S
O152 In143 2.326 . S
O152 C148 1.260 . S
C153 O144 1.240 . S
C153 O145 1.252 . S
O154 In143 2.294 . S
O154 C147 1.240 . S
O155 In143 2.326 1_545 S
O155 C147 1.252 1_545 S
In156 O157 2.294 . S
In156 O158 2.326 . S
In156 O162 2.266 . S
In156 O163 2.326 . S
In156 O164 2.266 . S
In156 O165 2.326 . S
In156 O167 2.294 . S
In156 O168 2.326 . S
O157 In156 2.294 . S
O157 C166 1.240 . S
O158 In156 2.326 . S
O158 C166 1.252 . S
C159 O162 1.252 . S
C159 O163 1.260 . S
C160 O167 1.240 . S
C160 O168 1.252 . S
C161 O164 1.252 . S
C161 O165 1.260 . S
O162 In156 2.266 . S
O162 C159 1.252 . S
O163 In156 2.326 . S
O163 C159 1.260 . S
O164 In156 2.266 . S
O164 C161 1.252 . S
O165 In156 2.326 . S
O165 C161 1.260 . S
C166 O157 1.240 . S
C166 O158 1.252 . S
O167 In156 2.294 . S
O167 C160 1.240 . S
O168 In156 2.326 . S
O168 C160 1.252 . S
In169 O170 2.294 . S
In169 O171 2.326 1_545 S
In169 O175 2.266 . S
In169 O176 2.326 . S
In169 O177 2.266 1_545 S
In169 O178 2.326 . S
In169 O180 2.294 . S
In169 O181 2.326 . S
O170 In169 2.294 . S
O170 C179 1.240 . S
O171 In169 2.326 1_565 S
O171 C179 1.252 1_565 S
C172 O175 1.252 . S
C172 O176 1.260 . S
C173 O180 1.240 . S
C173 O181 1.252 . S
C174 O177 1.252 . S
C174 O178 1.260 1_565 S
O175 In169 2.266 . S
O175 C172 1.252 . S
O176 In169 2.326 . S
O176 C172 1.260 . S
O177 In169 2.266 1_565 S
O177 C174 1.252 . S
O178 In169 2.326 . S
O178 C174 1.260 1_545 S
C179 O170 1.240 . S
C179 O171 1.252 1_545 S
O180 In169 2.294 . S
O180 C173 1.240 . S
O181 In169 2.326 . S
O181 C173 1.252 . S
In182 O183 2.294 . S
In182 O184 2.326 . S
In182 O188 2.266 . S
In182 O189 2.326 . S
In182 O190 2.266 . S
In182 O191 2.326 . S
In182 O193 2.294 . S
In182 O194 2.326 . S
O183 In182 2.294 . S
O183 C192 1.240 . S
O184 In182 2.326 . S
O184 C192 1.252 . S
C185 O188 1.252 . S
C185 O189 1.260 . S
C186 O193 1.240 . S
C186 O194 1.252 . S
C187 O190 1.252 . S
C187 O191 1.260 . S
O188 In182 2.266 . S
O188 C185 1.252 . S
O189 In182 2.326 . S
O189 C185 1.260 . S
O190 In182 2.266 . S
O190 C187 1.252 . S
O191 In182 2.326 . S
O191 C187 1.260 . S
C192 O183 1.240 . S
C192 O184 1.252 . S
O193 In182 2.294 . S
O193 C186 1.240 . S
O194 In182 2.326 . S
O194 C186 1.252 . S
In195 O196 2.294 . S
In195 O197 2.326 1_565 S
In195 O201 2.266 . S
In195 O202 2.326 . S
In195 O203 2.266 1_565 S
In195 O204 2.326 . S
In195 O206 2.294 . S
In195 O207 2.326 . S
O196 In195 2.294 . S
O196 C205 1.240 . S
O197 In195 2.326 1_545 S
O197 C205 1.252 1_545 S
C198 O201 1.252 . S
C198 O202 1.260 . S
C199 O206 1.240 1_455 S
C199 O207 1.252 1_455 S
C200 O203 1.252 . S
C200 O204 1.260 1_545 S
O201 In195 2.266 . S
O201 C198 1.252 . S
O202 In195 2.326 . S
O202 C198 1.260 . S
O203 In195 2.266 1_545 S
O203 C200 1.252 . S
O204 In195 2.326 . S
O204 C200 1.260 1_565 S
C205 O196 1.240 . S
C205 O197 1.252 1_565 S
O206 In195 2.294 . S
O206 C199 1.240 1_655 S
O207 In195 2.326 . S
O207 C199 1.252 1_655 S
In208 O209 2.294 . S
In208 O210 2.326 . S
In208 O214 2.266 . S
In208 O215 2.326 . S
In208 O216 2.266 . S
In208 O217 2.326 . S
In208 O219 2.294 . S
In208 O220 2.326 . S
O209 In208 2.294 . S
O209 C218 1.240 . S
O210 In208 2.326 . S
O210 C218 1.252 . S
C211 O214 1.252 . S
C211 O215 1.260 . S
C212 O219 1.240 . S
C212 O220 1.252 . S
C213 O216 1.252 . S
C213 O217 1.260 . S
O214 In208 2.266 . S
O214 C211 1.252 . S
O215 In208 2.326 . S
O215 C211 1.260 . S
O216 In208 2.266 . S
O216 C213 1.252 . S
O217 In208 2.326 . S
O217 C213 1.260 . S
C218 O209 1.240 . S
C218 O210 1.252 . S
O219 In208 2.294 . S
O219 C212 1.240 . S
O220 In208 2.326 . S
O220 C212 1.252 . S
In221 O222 2.294 . S
In221 O223 2.326 . S
In221 O227 2.266 . S
In221 O228 2.326 . S
In221 O229 2.266 . S
In221 O230 2.326 . S
In221 O232 2.294 . S
In221 O233 2.326 . S
O222 In221 2.294 . S
O222 C231 1.240 . S
O223 In221 2.326 . S
O223 C231 1.252 . S
C224 O227 1.252 . S
C224 O228 1.260 . S
C225 O232 1.240 . S
C225 O233 1.252 . S
C226 O229 1.252 . S
C226 O230 1.260 . S
O227 In221 2.266 . S
O227 C224 1.252 . S
O228 In221 2.326 . S
O228 C224 1.260 . S
O229 In221 2.266 . S
O229 C226 1.252 . S
O230 In221 2.326 . S
O230 C226 1.260 . S
C231 O222 1.240 . S
C231 O223 1.252 . S
O232 In221 2.294 . S
O232 C225 1.240 . S
O233 In221 2.326 . S
O233 C225 1.252 . S
In234 O235 2.294 . S
In234 O236 2.326 . S
In234 O240 2.266 . S
In234 O241 2.326 . S
In234 O242 2.266 . S
In234 O243 2.326 . S
In234 O245 2.294 . S
In234 O246 2.326 . S
O235 In234 2.294 . S
O235 C244 1.240 . S
O236 In234 2.326 . S
O236 C244 1.252 . S
C237 O240 1.252 . S
C237 O241 1.260 . S
C238 O245 1.240 . S
C238 O246 1.252 . S
C239 O242 1.252 . S
C239 O243 1.260 . S
O240 In234 2.266 . S
O240 C237 1.252 . S
O241 In234 2.326 . S
O241 C237 1.260 . S
O242 In234 2.266 . S
O242 C239 1.252 . S
O243 In234 2.326 . S
O243 C239 1.260 . S
C244 O235 1.240 . S
C244 O236 1.252 . S
O245 In234 2.294 . S
O245 C238 1.240 . S
O246 In234 2.326 . S
O246 C238 1.252 . S
In247 O248 2.294 . S
In247 O249 2.326 . S
In247 O253 2.266 . S
In247 O254 2.326 . S
In247 O255 2.266 . S
In247 O256 2.326 . S
In247 O258 2.294 . S
In247 O259 2.326 . S
O248 In247 2.294 . S
O248 C257 1.240 . S
O249 In247 2.326 . S
O249 C257 1.252 . S
C250 O253 1.252 1_455 S
C250 O254 1.260 1_455 S
C251 O258 1.240 . S
C251 O259 1.252 . S
C252 O255 1.252 . S
C252 O256 1.260 . S
O253 In247 2.266 . S
O253 C250 1.252 1_655 S
O254 In247 2.326 . S
O254 C250 1.260 1_655 S
O255 In247 2.266 . S
O255 C252 1.252 . S
O256 In247 2.326 . S
O256 C252 1.260 . S
C257 O248 1.240 . S
C257 O249 1.252 . S
O258 In247 2.294 . S
O258 C251 1.240 . S
O259 In247 2.326 . S
O259 C251 1.252 . S
In260 O261 2.294 . S
In260 O262 2.326 . S
In260 O266 2.266 . S
In260 O267 2.326 . S
In260 O268 2.266 . S
In260 O269 2.326 . S
In260 O271 2.294 . S
In260 O272 2.326 . S
O261 In260 2.294 . S
O261 C270 1.240 . S
O262 In260 2.326 . S
O262 C270 1.252 . S
C263 O266 1.252 . S
C263 O267 1.260 . S
C264 O271 1.240 . S
C264 O272 1.252 . S
C265 O268 1.252 . S
C265 O269 1.260 . S
O266 In260 2.266 . S
O266 C263 1.252 . S
O267 In260 2.326 . S
O267 C263 1.260 . S
O268 In260 2.266 . S
O268 C265 1.252 . S
O269 In260 2.326 . S
O269 C265 1.260 . S
C270 O261 1.240 . S
C270 O262 1.252 . S
O271 In260 2.294 . S
O271 C264 1.240 . S
O272 In260 2.326 . S
O272 C264 1.252 . S
In273 O274 2.294 . S
In273 O275 2.326 . S
In273 O279 2.266 . S
In273 O280 2.326 . S
In273 O281 2.266 . S
In273 O282 2.326 . S
In273 O284 2.294 . S
In273 O285 2.326 . S
O274 In273 2.294 . S
O274 C283 1.240 . S
O275 In273 2.326 . S
O275 C283 1.252 . S
C276 O279 1.252 1_455 S
C276 O280 1.260 1_455 S
C277 O284 1.240 . S
C277 O285 1.252 . S
C278 O281 1.252 . S
C278 O282 1.260 . S
O279 In273 2.266 . S
O279 C276 1.252 1_655 S
O280 In273 2.326 . S
O280 C276 1.260 1_655 S
O281 In273 2.266 . S
O281 C278 1.252 . S
O282 In273 2.326 . S
O282 C278 1.260 . S
C283 O274 1.240 . S
C283 O275 1.252 . S
O284 In273 2.294 . S
O284 C277 1.240 . S
O285 In273 2.326 . S
O285 C277 1.252 . S
In286 O287 2.294 . S
In286 O288 2.326 . S
In286 O292 2.266 . S
In286 O293 2.326 . S
In286 O294 2.266 . S
In286 O295 2.326 . S
In286 O297 2.294 . S
In286 O298 2.326 . S
O287 In286 2.294 . S
O287 C296 1.240 . S
O288 In286 2.326 . S
O288 C296 1.252 . S
C289 O292 1.252 . S
C289 O293 1.260 . S
C290 O297 1.240 . S
C290 O298 1.252 . S
C291 O294 1.252 . S
C291 O295 1.260 . S
O292 In286 2.266 . S
O292 C289 1.252 . S
O293 In286 2.326 . S
O293 C289 1.260 . S
O294 In286 2.266 . S
O294 C291 1.252 . S
O295 In286 2.326 . S
O295 C291 1.260 . S
C296 O287 1.240 . S
C296 O288 1.252 . S
O297 In286 2.294 . S
O297 C290 1.240 . S
O298 In286 2.326 . S
O298 C290 1.252 . S
In299 O300 2.294 . S
In299 O301 2.326 . S
In299 O305 2.266 . S
In299 O306 2.326 . S
In299 O307 2.266 . S
In299 O308 2.326 . S
In299 O310 2.294 . S
In299 O311 2.326 . S
O300 In299 2.294 . S
O300 C309 1.240 . S
O301 In299 2.326 . S
O301 C309 1.252 . S
C302 O305 1.252 . S
C302 O306 1.260 . S
C303 O310 1.240 . S
C303 O311 1.252 . S
C304 O307 1.252 . S
C304 O308 1.260 . S
O305 In299 2.266 . S
O305 C302 1.252 . S
O306 In299 2.326 . S
O306 C302 1.260 . S
O307 In299 2.266 . S
O307 C304 1.252 . S
O308 In299 2.326 . S
O308 C304 1.260 . S
C309 O300 1.240 . S
C309 O301 1.252 . S
O310 In299 2.294 . S
O310 C303 1.240 . S
O311 In299 2.326 . S
O311 C303 1.252 . S
In312 O313 2.294 . S
In312 O314 2.326 . S
In312 O318 2.266 . S
In312 O319 2.326 . S
In312 O320 2.266 . S
In312 O321 2.326 . S
In312 O323 2.294 . S
In312 O324 2.326 . S
O313 In312 2.294 . S
O313 C322 1.240 . S
O314 In312 2.326 . S
O314 C322 1.252 . S
C315 O318 1.252 . S
C315 O319 1.260 . S
C316 O323 1.240 . S
C316 O324 1.252 . S
C317 O320 1.252 . S
C317 O321 1.260 . S
O318 In312 2.266 . S
O318 C315 1.252 . S
O319 In312 2.326 . S
O319 C315 1.260 . S
O320 In312 2.266 . S
O320 C317 1.252 . S
O321 In312 2.326 . S
O321 C317 1.260 . S
C322 O313 1.240 . S
C322 O314 1.252 . S
O323 In312 2.294 . S
O323 C316 1.240 . S
O324 In312 2.326 . S
O324 C316 1.252 . S
In325 O326 2.294 . S
In325 O327 2.326 . S
In325 O331 2.266 . S
In325 O332 2.326 . S
In325 O333 2.266 . S
In325 O334 2.326 . S
In325 O336 2.294 . S
In325 O337 2.326 . S
O326 In325 2.294 . S
O326 C335 1.240 . S
O327 In325 2.326 . S
O327 C335 1.252 . S
C328 O331 1.252 . S
C328 O332 1.260 . S
C329 O336 1.240 . S
C329 O337 1.252 . S
C330 O333 1.252 . S
C330 O334 1.260 . S
O331 In325 2.266 . S
O331 C328 1.252 . S
O332 In325 2.326 . S
O332 C328 1.260 . S
O333 In325 2.266 . S
O333 C330 1.252 . S
O334 In325 2.326 . S
O334 C330 1.260 . S
C335 O326 1.240 . S
C335 O327 1.252 . S
O336 In325 2.294 . S
O336 C329 1.240 . S
O337 In325 2.326 . S
O337 C329 1.252 . S
In338 O339 2.294 . S
In338 O340 2.326 . S
In338 O344 2.266 . S
In338 O345 2.326 . S
In338 O346 2.266 . S
In338 O347 2.326 . S
In338 O349 2.294 . S
In338 O350 2.326 . S
O339 In338 2.294 . S
O339 C348 1.240 . S
O340 In338 2.326 . S
O340 C348 1.252 . S
C341 O344 1.252 . S
C341 O345 1.260 . S
C342 O349 1.240 . S
C342 O350 1.252 . S
C343 O346 1.252 . S
C343 O347 1.260 . S
O344 In338 2.266 . S
O344 C341 1.252 . S
O345 In338 2.326 . S
O345 C341 1.260 . S
O346 In338 2.266 . S
O346 C343 1.252 . S
O347 In338 2.326 . S
O347 C343 1.260 . S
C348 O339 1.240 . S
C348 O340 1.252 . S
O349 In338 2.294 . S
O349 C342 1.240 . S
O350 In338 2.326 . S
O350 C342 1.252 . S
In351 O352 2.294 . S
In351 O353 2.326 . S
In351 O357 2.266 . S
In351 O358 2.326 . S
In351 O359 2.266 . S
In351 O360 2.326 . S
In351 O362 2.294 . S
In351 O363 2.326 . S
O352 In351 2.294 . S
O352 C361 1.240 . S
O353 In351 2.326 . S
O353 C361 1.252 . S
C354 O357 1.252 . S
C354 O358 1.260 . S
C355 O362 1.240 1_655 S
C355 O363 1.252 1_655 S
C356 O359 1.252 . S
C356 O360 1.260 . S
O357 In351 2.266 . S
O357 C354 1.252 . S
O358 In351 2.326 . S
O358 C354 1.260 . S
O359 In351 2.266 . S
O359 C356 1.252 . S
O360 In351 2.326 . S
O360 C356 1.260 . S
C361 O352 1.240 . S
C361 O353 1.252 . S
O362 In351 2.294 . S
O362 C355 1.240 1_455 S
O363 In351 2.326 . S
O363 C355 1.252 1_455 S
In364 O365 2.294 . S
In364 O366 2.326 . S
In364 O370 2.266 . S
In364 O371 2.326 . S
In364 O372 2.266 . S
In364 O373 2.326 . S
In364 O375 2.294 . S
In364 O376 2.326 . S
O365 In364 2.294 . S
O365 C374 1.240 . S
O366 In364 2.326 . S
O366 C374 1.252 . S
C367 O370 1.252 . S
C367 O371 1.260 . S
C368 O375 1.240 . S
C368 O376 1.252 . S
C369 O372 1.252 . S
C369 O373 1.260 . S
O370 In364 2.266 . S
O370 C367 1.252 . S
O371 In364 2.326 . S
O371 C367 1.260 . S
O372 In364 2.266 . S
O372 C369 1.252 . S
O373 In364 2.326 . S
O373 C369 1.260 . S
C374 O365 1.240 . S
C374 O366 1.252 . S
O375 In364 2.294 . S
O375 C368 1.240 . S
O376 In364 2.326 . S
O376 C368 1.252 . S
In377 O378 2.294 . S
In377 O379 2.326 . S
In377 O383 2.266 . S
In377 O384 2.326 . S
In377 O385 2.266 . S
In377 O386 2.326 . S
In377 O388 2.294 . S
In377 O389 2.326 . S
O378 In377 2.294 . S
O378 C387 1.240 . S
O379 In377 2.326 . S
O379 C387 1.252 . S
C380 O383 1.252 . S
C380 O384 1.260 . S
C381 O388 1.240 1_655 S
C381 O389 1.252 1_655 S
C382 O385 1.252 . S
C382 O386 1.260 . S
O383 In377 2.266 . S
O383 C380 1.252 . S
O384 In377 2.326 . S
O384 C380 1.260 . S
O385 In377 2.266 . S
O385 C382 1.252 . S
O386 In377 2.326 . S
O386 C382 1.260 . S
C387 O378 1.240 . S
C387 O379 1.252 . S
O388 In377 2.294 . S
O388 C381 1.240 1_455 S
O389 In377 2.326 . S
O389 C381 1.252 1_455 S
In390 O391 2.294 . S
In390 O392 2.326 . S
In390 O396 2.266 . S
In390 O397 2.326 . S
In390 O398 2.266 . S
In390 O399 2.326 . S
In390 O401 2.294 . S
In390 O402 2.326 . S
O391 In390 2.294 . S
O391 C400 1.240 . S
O392 In390 2.326 . S
O392 C400 1.252 . S
C393 O396 1.252 . S
C393 O397 1.260 . S
C394 O401 1.240 . S
C394 O402 1.252 . S
C395 O398 1.252 . S
C395 O399 1.260 . S
O396 In390 2.266 . S
O396 C393 1.252 . S
O397 In390 2.326 . S
O397 C393 1.260 . S
O398 In390 2.266 . S
O398 C395 1.252 . S
O399 In390 2.326 . S
O399 C395 1.260 . S
C400 O391 1.240 . S
C400 O392 1.252 . S
O401 In390 2.294 . S
O401 C394 1.240 . S
O402 In390 2.326 . S
O402 C394 1.252 . S
In403 O404 2.294 . S
In403 O405 2.326 . S
In403 O409 2.266 . S
In403 O410 2.326 . S
In403 O411 2.266 . S
In403 O412 2.326 . S
In403 O414 2.294 . S
In403 O415 2.326 . S
O404 In403 2.294 . S
O404 C413 1.240 . S
O405 In403 2.326 . S
O405 C413 1.252 . S
C406 O409 1.252 . S
C406 O410 1.260 . S
C407 O414 1.240 . S
C407 O415 1.252 . S
C408 O411 1.252 . S
C408 O412 1.260 . S
O409 In403 2.266 . S
O409 C406 1.252 . S
O410 In403 2.326 . S
O410 C406 1.260 . S
O411 In403 2.266 . S
O411 C408 1.252 . S
O412 In403 2.326 . S
O412 C408 1.260 . S
C413 O404 1.240 . S
C413 O405 1.252 . S
O414 In403 2.294 . S
O414 C407 1.240 . S
O415 In403 2.326 . S
O415 C407 1.252 . S
C416 C417 1.369 . S
C416 C418 1.419 . S
C416 H420 0.930 . S
C417 C416 1.369 . S
C417 C426 1.429 . S
C418 C416 1.419 . S
C418 C419 1.363 . S
C418 H421 0.929 . S
C419 C418 1.363 . S
C419 C425 1.428 . S
H420 C416 0.930 . S
H421 C418 0.929 . S
S422 N423 1.613 . S
S422 N424 1.610 . S
N423 S422 1.613 . S
N423 C426 1.350 . S
N424 S422 1.610 . S
N424 C425 1.351 . S
C425 C419 1.428 . S
C425 N424 1.351 . S
C425 C426 1.434 . S
C426 C417 1.429 . S
C426 N423 1.350 . S
C426 C425 1.434 . S
C427 C428 1.369 . S
C427 C429 1.419 . S
C427 H431 0.930 . S
C428 C427 1.369 . S
C428 C437 1.429 . S
C429 C427 1.419 . S
C429 C430 1.363 . S
C429 H432 0.929 . S
C430 C429 1.363 . S
C430 C436 1.428 . S
H431 C427 0.930 . S
H432 C429 0.929 . S
S433 N434 1.613 . S
S433 N435 1.610 . S
N434 S433 1.613 . S
N434 C437 1.350 . S
N435 S433 1.610 . S
N435 C436 1.351 . S
C436 C430 1.428 . S
C436 N435 1.351 . S
C436 C437 1.434 . S
C437 C428 1.429 . S
C437 N434 1.350 . S
C437 C436 1.434 . S
C438 C439 1.369 . S
C438 C440 1.419 . S
C438 H442 0.930 . S
C439 C438 1.369 . S
C439 C448 1.429 . S
C440 C438 1.419 . S
C440 C441 1.363 . S
C440 H443 0.929 . S
C441 C440 1.363 . S
C441 C447 1.428 . S
H442 C438 0.930 . S
H443 C440 0.929 . S
S444 N445 1.613 . S
S444 N446 1.610 . S
N445 S444 1.613 . S
N445 C448 1.350 . S
N446 S444 1.610 . S
N446 C447 1.351 . S
C447 C441 1.428 . S
C447 N446 1.351 . S
C447 C448 1.434 . S
C448 C439 1.429 . S
C448 N445 1.350 . S
C448 C447 1.434 . S
C449 C450 1.369 . S
C449 C451 1.419 . S
C449 H453 0.930 . S
C450 C449 1.369 . S
C450 C459 1.429 . S
C451 C449 1.419 . S
C451 C452 1.363 . S
C451 H454 0.929 . S
C452 C451 1.363 . S
C452 C458 1.428 . S
H453 C449 0.930 . S
H454 C451 0.929 . S
S455 N456 1.613 . S
S455 N457 1.610 . S
N456 S455 1.613 . S
N456 C459 1.350 . S
N457 S455 1.610 . S
N457 C458 1.351 . S
C458 C452 1.428 . S
C458 N457 1.351 . S
C458 C459 1.434 . S
C459 C450 1.429 . S
C459 N456 1.350 . S
C459 C458 1.434 . S
C460 C461 1.369 . S
C460 C462 1.419 . S
C460 H464 0.930 . S
C461 C460 1.369 . S
C461 C470 1.429 . S
C462 C460 1.419 . S
C462 C463 1.363 . S
C462 H465 0.929 . S
C463 C462 1.363 . S
C463 C469 1.428 . S
H464 C460 0.930 . S
H465 C462 0.929 . S
S466 N467 1.613 . S
S466 N468 1.610 . S
N467 S466 1.613 . S
N467 C470 1.350 . S
N468 S466 1.610 . S
N468 C469 1.351 . S
C469 C463 1.428 . S
C469 N468 1.351 . S
C469 C470 1.434 . S
C470 C461 1.429 . S
C470 N467 1.350 . S
C470 C469 1.434 . S
C471 C472 1.369 . S
C471 C473 1.419 . S
C471 H475 0.930 . S
C472 C471 1.369 . S
C472 C481 1.429 . S
C473 C471 1.419 . S
C473 C474 1.363 . S
C473 H476 0.929 . S
C474 C473 1.363 . S
C474 C480 1.428 . S
H475 C471 0.930 . S
H476 C473 0.929 . S
S477 N478 1.613 . S
S477 N479 1.610 . S
N478 S477 1.613 . S
N478 C481 1.350 . S
N479 S477 1.610 . S
N479 C480 1.351 . S
C480 C474 1.428 . S
C480 N479 1.351 . S
C480 C481 1.434 . S
C481 C472 1.429 . S
C481 N478 1.350 . S
C481 C480 1.434 . S
C482 C483 1.369 . S
C482 C484 1.419 . S
C482 H486 0.930 . S
C483 C482 1.369 . S
C483 C492 1.429 . S
C484 C482 1.419 . S
C484 C485 1.363 . S
C484 H487 0.929 . S
C485 C484 1.363 . S
C485 C491 1.428 . S
H486 C482 0.930 . S
H487 C484 0.929 . S
S488 N489 1.613 . S
S488 N490 1.610 . S
N489 S488 1.613 . S
N489 C492 1.350 . S
N490 S488 1.610 . S
N490 C491 1.351 . S
C491 C485 1.428 . S
C491 N490 1.351 . S
C491 C492 1.434 . S
C492 C483 1.429 . S
C492 N489 1.350 . S
C492 C491 1.434 . S
C493 C494 1.369 . S
C493 C495 1.419 . S
C493 H497 0.930 . S
C494 C493 1.369 . S
C494 C503 1.429 . S
C495 C493 1.419 . S
C495 C496 1.363 . S
C495 H498 0.929 . S
C496 C495 1.363 . S
C496 C502 1.428 . S
H497 C493 0.930 . S
H498 C495 0.929 . S
S499 N500 1.613 . S
S499 N501 1.610 . S
N500 S499 1.613 . S
N500 C503 1.350 . S
N501 S499 1.610 . S
N501 C502 1.351 . S
C502 C496 1.428 . S
C502 N501 1.351 . S
C502 C503 1.434 . S
C503 C494 1.429 . S
C503 N500 1.350 . S
C503 C502 1.434 . S
C504 C505 1.369 . S
C504 C506 1.419 . S
C504 H508 0.930 . S
C505 C504 1.369 . S
C505 C514 1.429 . S
C506 C504 1.419 . S
C506 C507 1.363 . S
C506 H509 0.929 . S
C507 C506 1.363 . S
C507 C513 1.428 . S
H508 C504 0.930 . S
H509 C506 0.929 . S
S510 N511 1.613 . S
S510 N512 1.610 . S
N511 S510 1.613 . S
N511 C514 1.350 . S
N512 S510 1.610 . S
N512 C513 1.351 . S
C513 C507 1.428 . S
C513 N512 1.351 . S
C513 C514 1.434 . S
C514 C505 1.429 . S
C514 N511 1.350 . S
C514 C513 1.434 . S
C515 C516 1.369 . S
C515 C517 1.419 . S
C515 H519 0.930 . S
C516 C515 1.369 . S
C516 C525 1.429 . S
C517 C515 1.419 . S
C517 C518 1.363 . S
C517 H520 0.929 . S
C518 C517 1.363 . S
C518 C524 1.428 . S
H519 C515 0.930 . S
H520 C517 0.929 . S
S521 N522 1.613 . S
S521 N523 1.610 . S
N522 S521 1.613 . S
N522 C525 1.350 . S
N523 S521 1.610 . S
N523 C524 1.351 . S
C524 C518 1.428 . S
C524 N523 1.351 . S
C524 C525 1.434 . S
C525 C516 1.429 . S
C525 N522 1.350 . S
C525 C524 1.434 . S
C526 C527 1.369 . S
C526 C528 1.419 . S
C526 H530 0.930 . S
C527 C526 1.369 . S
C527 C536 1.429 . S
C528 C526 1.419 . S
C528 C529 1.363 . S
C528 H531 0.929 . S
C529 C528 1.363 . S
C529 C535 1.428 . S
H530 C526 0.930 . S
H531 C528 0.929 . S
S532 N533 1.613 . S
S532 N534 1.610 . S
N533 S532 1.613 . S
N533 C536 1.350 . S
N534 S532 1.610 . S
N534 C535 1.351 . S
C535 C529 1.428 . S
C535 N534 1.351 . S
C535 C536 1.434 . S
C536 C527 1.429 . S
C536 N533 1.350 . S
C536 C535 1.434 . S
C537 C538 1.369 . S
C537 C539 1.419 . S
C537 H541 0.930 . S
C538 C537 1.369 . S
C538 C547 1.429 . S
C539 C537 1.419 . S
C539 C540 1.363 . S
C539 H542 0.929 . S
C540 C539 1.363 . S
C540 C546 1.428 . S
H541 C537 0.930 . S
H542 C539 0.929 . S
S543 N544 1.613 . S
S543 N545 1.610 . S
N544 S543 1.613 . S
N544 C547 1.350 . S
N545 S543 1.610 . S
N545 C546 1.351 . S
C546 C540 1.428 . S
C546 N545 1.351 . S
C546 C547 1.434 . S
C547 C538 1.429 . S
C547 N544 1.350 . S
C547 C546 1.434 . S
C548 C549 1.369 . S
C548 C550 1.419 . S
C548 H552 0.930 . S
C549 C548 1.369 . S
C549 C558 1.429 . S
C550 C548 1.419 . S
C550 C551 1.363 . S
C550 H553 0.929 . S
C551 C550 1.363 . S
C551 C557 1.428 . S
H552 C548 0.930 . S
H553 C550 0.929 . S
S554 N555 1.613 . S
S554 N556 1.610 . S
N555 S554 1.613 . S
N555 C558 1.350 . S
N556 S554 1.610 . S
N556 C557 1.351 . S
C557 C551 1.428 . S
C557 N556 1.351 . S
C557 C558 1.434 . S
C558 C549 1.429 . S
C558 N555 1.350 . S
C558 C557 1.434 . S
C559 C560 1.369 . S
C559 C561 1.419 . S
C559 H563 0.930 . S
C560 C559 1.369 . S
C560 C569 1.429 . S
C561 C559 1.419 . S
C561 C562 1.363 . S
C561 H564 0.929 . S
C562 C561 1.363 . S
C562 C568 1.428 . S
H563 C559 0.930 . S
H564 C561 0.929 . S
S565 N566 1.613 . S
S565 N567 1.610 . S
N566 S565 1.613 . S
N566 C569 1.350 . S
N567 S565 1.610 . S
N567 C568 1.351 . S
C568 C562 1.428 . S
C568 N567 1.351 . S
C568 C569 1.434 . S
C569 C560 1.429 . S
C569 N566 1.350 . S
C569 C568 1.434 . S
C570 C571 1.369 . S
C570 C572 1.419 . S
C570 H574 0.930 . S
C571 C570 1.369 . S
C571 C580 1.429 . S
C572 C570 1.419 . S
C572 C573 1.363 . S
C572 H575 0.929 . S
C573 C572 1.363 . S
C573 C579 1.428 . S
H574 C570 0.930 . S
H575 C572 0.929 . S
S576 N577 1.613 . S
S576 N578 1.610 . S
N577 S576 1.613 . S
N577 C580 1.350 . S
N578 S576 1.610 . S
N578 C579 1.351 . S
C579 C573 1.428 . S
C579 N578 1.351 . S
C579 C580 1.434 . S
C580 C571 1.429 . S
C580 N577 1.350 . S
C580 C579 1.434 . S
C581 C582 1.369 . S
C581 C583 1.419 . S
C581 H585 0.930 . S
C582 C581 1.369 . S
C582 C591 1.429 . S
C583 C581 1.419 . S
C583 C584 1.363 . S
C583 H586 0.929 . S
C584 C583 1.363 . S
C584 C590 1.428 . S
H585 C581 0.930 . S
H586 C583 0.929 . S
S587 N588 1.613 . S
S587 N589 1.610 . S
N588 S587 1.613 . S
N588 C591 1.350 . S
N589 S587 1.610 . S
N589 C590 1.351 . S
C590 C584 1.428 . S
C590 N589 1.351 . S
C590 C591 1.434 . S
C591 C582 1.429 . S
C591 N588 1.350 . S
C591 C590 1.434 . S
C592 C593 1.369 . S
C592 C594 1.419 . S
C592 H596 0.930 . S
C593 C592 1.369 . S
C593 C602 1.429 . S
C594 C592 1.419 . S
C594 C595 1.363 . S
C594 H597 0.929 . S
C595 C594 1.363 . S
C595 C601 1.428 . S
H596 C592 0.930 . S
H597 C594 0.929 . S
S598 N599 1.613 . S
S598 N600 1.610 . S
N599 S598 1.613 . S
N599 C602 1.350 . S
N600 S598 1.610 . S
N600 C601 1.351 . S
C601 C595 1.428 . S
C601 N600 1.351 . S
C601 C602 1.434 . S
C602 C593 1.429 . S
C602 N599 1.350 . S
C602 C601 1.434 . S
C603 C604 1.369 . S
C603 C605 1.419 . S
C603 H607 0.930 . S
C604 C603 1.369 . S
C604 C613 1.429 . S
C605 C603 1.419 . S
C605 C606 1.363 . S
C605 H608 0.929 . S
C606 C605 1.363 . S
C606 C612 1.428 . S
H607 C603 0.930 . S
H608 C605 0.929 . S
S609 N610 1.613 . S
S609 N611 1.610 . S
N610 S609 1.613 . S
N610 C613 1.350 . S
N611 S609 1.610 . S
N611 C612 1.351 . S
C612 C606 1.428 . S
C612 N611 1.351 . S
C612 C613 1.434 . S
C613 C604 1.429 . S
C613 N610 1.350 . S
C613 C612 1.434 . S
C614 C615 1.369 . S
C614 C616 1.419 . S
C614 H618 0.930 . S
C615 C614 1.369 . S
C615 C624 1.429 . S
C616 C614 1.419 . S
C616 C617 1.363 . S
C616 H619 0.929 . S
C617 C616 1.363 . S
C617 C623 1.428 . S
H618 C614 0.930 . S
H619 C616 0.929 . S
S620 N621 1.613 . S
S620 N622 1.610 . S
N621 S620 1.613 . S
N621 C624 1.350 . S
N622 S620 1.610 . S
N622 C623 1.351 . S
C623 C617 1.428 . S
C623 N622 1.351 . S
C623 C624 1.434 . S
C624 C615 1.429 . S
C624 N621 1.350 . S
C624 C623 1.434 . S
C625 C626 1.369 . S
C625 C627 1.419 . S
C625 H629 0.930 . S
C626 C625 1.369 . S
C626 C635 1.429 . S
C627 C625 1.419 . S
C627 C628 1.363 . S
C627 H630 0.929 . S
C628 C627 1.363 . S
C628 C634 1.428 . S
H629 C625 0.930 . S
H630 C627 0.929 . S
S631 N632 1.613 . S
S631 N633 1.610 . S
N632 S631 1.613 . S
N632 C635 1.350 . S
N633 S631 1.610 . S
N633 C634 1.351 . S
C634 C628 1.428 . S
C634 N633 1.351 . S
C634 C635 1.434 . S
C635 C626 1.429 . S
C635 N632 1.350 . S
C635 C634 1.434 . S
C636 C637 1.369 . S
C636 C638 1.419 . S
C636 H640 0.930 . S
C637 C636 1.369 . S
C637 C646 1.429 . S
C638 C636 1.419 . S
C638 C639 1.363 . S
C638 H641 0.929 . S
C639 C638 1.363 . S
C639 C645 1.428 . S
H640 C636 0.930 . S
H641 C638 0.929 . S
S642 N643 1.613 . S
S642 N644 1.610 . S
N643 S642 1.613 . S
N643 C646 1.350 . S
N644 S642 1.610 . S
N644 C645 1.351 . S
C645 C639 1.428 . S
C645 N644 1.351 . S
C645 C646 1.434 . S
C646 C637 1.429 . S
C646 N643 1.350 . S
C646 C645 1.434 . S
C647 C648 1.369 . S
C647 C649 1.419 . S
C647 H651 0.930 . S
C648 C647 1.369 . S
C648 C657 1.429 . S
C649 C647 1.419 . S
C649 C650 1.363 . S
C649 H652 0.929 . S
C650 C649 1.363 . S
C650 C656 1.428 . S
H651 C647 0.930 . S
H652 C649 0.929 . S
S653 N654 1.613 . S
S653 N655 1.610 . S
N654 S653 1.613 . S
N654 C657 1.350 . S
N655 S653 1.610 . S
N655 C656 1.351 . S
C656 C650 1.428 . S
C656 N655 1.351 . S
C656 C657 1.434 . S
C657 C648 1.429 . S
C657 N654 1.350 . S
C657 C656 1.434 . S
C658 C659 1.369 . S
C658 C660 1.419 . S
C658 H662 0.930 . S
C659 C658 1.369 . S
C659 C668 1.429 . S
C660 C658 1.419 . S
C660 C661 1.363 . S
C660 H663 0.929 . S
C661 C660 1.363 . S
C661 C667 1.428 . S
H662 C658 0.930 . S
H663 C660 0.929 . S
S664 N665 1.613 . S
S664 N666 1.610 . S
N665 S664 1.613 . S
N665 C668 1.350 . S
N666 S664 1.610 . S
N666 C667 1.351 . S
C667 C661 1.428 . S
C667 N666 1.351 . S
C667 C668 1.434 . S
C668 C659 1.429 . S
C668 N665 1.350 . S
C668 C667 1.434 . S
C669 C670 1.369 . S
C669 C671 1.419 . S
C669 H673 0.930 . S
C670 C669 1.369 . S
C670 C679 1.429 . S
C671 C669 1.419 . S
C671 C672 1.363 . S
C671 H674 0.929 . S
C672 C671 1.363 . S
C672 C678 1.428 . S
H673 C669 0.930 . S
H674 C671 0.929 . S
S675 N676 1.613 . S
S675 N677 1.610 . S
N676 S675 1.613 . S
N676 C679 1.350 . S
N677 S675 1.610 . S
N677 C678 1.351 . S
C678 C672 1.428 . S
C678 N677 1.351 . S
C678 C679 1.434 . S
C679 C670 1.429 . S
C679 N676 1.350 . S
C679 C678 1.434 . S
C680 C681 1.369 . S
C680 C682 1.419 . S
C680 H684 0.930 . S
C681 C680 1.369 . S
C681 C690 1.429 . S
C682 C680 1.419 . S
C682 C683 1.363 . S
C682 H685 0.929 . S
C683 C682 1.363 . S
C683 C689 1.428 . S
H684 C680 0.930 . S
H685 C682 0.929 . S
S686 N687 1.613 . S
S686 N688 1.610 . S
N687 S686 1.613 . S
N687 C690 1.350 . S
N688 S686 1.610 . S
N688 C689 1.351 . S
C689 C683 1.428 . S
C689 N688 1.351 . S
C689 C690 1.434 . S
C690 C681 1.429 . S
C690 N687 1.350 . S
C690 C689 1.434 . S
C691 C692 1.369 . S
C691 C693 1.419 . S
C691 H695 0.930 . S
C692 C691 1.369 . S
C692 C701 1.429 . S
C693 C691 1.419 . S
C693 C694 1.363 . S
C693 H696 0.929 . S
C694 C693 1.363 . S
C694 C700 1.428 . S
H695 C691 0.930 . S
H696 C693 0.929 . S
S697 N698 1.613 . S
S697 N699 1.610 . S
N698 S697 1.613 . S
N698 C701 1.350 . S
N699 S697 1.610 . S
N699 C700 1.351 . S
C700 C694 1.428 . S
C700 N699 1.351 . S
C700 C701 1.434 . S
C701 C692 1.429 . S
C701 N698 1.350 . S
C701 C700 1.434 . S
C702 C703 1.369 . S
C702 C704 1.419 . S
C702 H706 0.930 . S
C703 C702 1.369 . S
C703 C712 1.429 . S
C704 C702 1.419 . S
C704 C705 1.363 . S
C704 H707 0.929 . S
C705 C704 1.363 . S
C705 C711 1.428 . S
H706 C702 0.930 . S
H707 C704 0.929 . S
S708 N709 1.613 . S
S708 N710 1.610 . S
N709 S708 1.613 . S
N709 C712 1.350 . S
N710 S708 1.610 . S
N710 C711 1.351 . S
C711 C705 1.428 . S
C711 N710 1.351 . S
C711 C712 1.434 . S
C712 C703 1.429 . S
C712 N709 1.350 . S
C712 C711 1.434 . S
C713 C714 1.369 . S
C713 C715 1.419 . S
C713 H717 0.930 . S
C714 C713 1.369 . S
C714 C723 1.429 . S
C715 C713 1.419 . S
C715 C716 1.363 . S
C715 H718 0.929 . S
C716 C715 1.363 . S
C716 C722 1.428 . S
H717 C713 0.930 . S
H718 C715 0.929 . S
S719 N720 1.613 . S
S719 N721 1.610 . S
N720 S719 1.613 . S
N720 C723 1.350 . S
N721 S719 1.610 . S
N721 C722 1.351 . S
C722 C716 1.428 . S
C722 N721 1.351 . S
C722 C723 1.434 . S
C723 C714 1.429 . S
C723 N720 1.350 . S
C723 C722 1.434 . S
C724 C725 1.369 . S
C724 C726 1.419 . S
C724 H728 0.930 . S
C725 C724 1.369 . S
C725 C734 1.429 . S
C726 C724 1.419 . S
C726 C727 1.363 . S
C726 H729 0.929 . S
C727 C726 1.363 . S
C727 C733 1.428 . S
H728 C724 0.930 . S
H729 C726 0.929 . S
S730 N731 1.613 . S
S730 N732 1.610 . S
N731 S730 1.613 . S
N731 C734 1.350 . S
N732 S730 1.610 . S
N732 C733 1.351 . S
C733 C727 1.428 . S
C733 N732 1.351 . S
C733 C734 1.434 . S
C734 C725 1.429 . S
C734 N731 1.350 . S
C734 C733 1.434 . S
C735 C736 1.369 . S
C735 C737 1.419 . S
C735 H739 0.930 . S
C736 C735 1.369 . S
C736 C745 1.429 . S
C737 C735 1.419 . S
C737 C738 1.363 . S
C737 H740 0.929 . S
C738 C737 1.363 . S
C738 C744 1.428 . S
H739 C735 0.930 . S
H740 C737 0.929 . S
S741 N742 1.613 . S
S741 N743 1.610 . S
N742 S741 1.613 . S
N742 C745 1.350 . S
N743 S741 1.610 . S
N743 C744 1.351 . S
C744 C738 1.428 . S
C744 N743 1.351 . S
C744 C745 1.434 . S
C745 C736 1.429 . S
C745 N742 1.350 . S
C745 C744 1.434 . S
C746 C747 1.369 . S
C746 C748 1.419 . S
C746 H750 0.930 . S
C747 C746 1.369 . S
C747 C756 1.429 . S
C748 C746 1.419 . S
C748 C749 1.363 . S
C748 H751 0.929 . S
C749 C748 1.363 . S
C749 C755 1.428 . S
H750 C746 0.930 . S
H751 C748 0.929 . S
S752 N753 1.613 . S
S752 N754 1.610 . S
N753 S752 1.613 . S
N753 C756 1.350 . S
N754 S752 1.610 . S
N754 C755 1.351 . S
C755 C749 1.428 . S
C755 N754 1.351 . S
C755 C756 1.434 . S
C756 C747 1.429 . S
C756 N753 1.350 . S
C756 C755 1.434 . S
C757 C758 1.369 . S
C757 C759 1.419 . S
C757 H761 0.930 . S
C758 C757 1.369 . S
C758 C767 1.429 . S
C759 C757 1.419 . S
C759 C760 1.363 . S
C759 H762 0.929 . S
C760 C759 1.363 . S
C760 C766 1.428 . S
H761 C757 0.930 . S
H762 C759 0.929 . S
S763 N764 1.613 . S
S763 N765 1.610 . S
N764 S763 1.613 . S
N764 C767 1.350 . S
N765 S763 1.610 . S
N765 C766 1.351 . S
C766 C760 1.428 . S
C766 N765 1.351 . S
C766 C767 1.434 . S
C767 C758 1.429 . S
C767 N764 1.350 . S
C767 C766 1.434 . S
C768 C769 1.369 . S
C768 C770 1.419 . S
C768 H772 0.930 . S
C769 C768 1.369 . S
C769 C778 1.429 . S
C770 C768 1.419 . S
C770 C771 1.363 . S
C770 H773 0.929 . S
C771 C770 1.363 . S
C771 C777 1.428 . S
H772 C768 0.930 . S
H773 C770 0.929 . S
S774 N775 1.613 . S
S774 N776 1.610 . S
N775 S774 1.613 . S
N775 C778 1.350 . S
N776 S774 1.610 . S
N776 C777 1.351 . S
C777 C771 1.428 . S
C777 N776 1.351 . S
C777 C778 1.434 . S
C778 C769 1.429 . S
C778 N775 1.350 . S
C778 C777 1.434 . S
C779 C780 1.369 . S
C779 C781 1.419 . S
C779 H783 0.930 . S
C780 C779 1.369 . S
C780 C789 1.429 1_465 S
C781 C779 1.419 . S
C781 C782 1.363 1_465 S
C781 H784 0.929 . S
C782 C781 1.363 1_645 S
C782 C788 1.428 . S
H783 C779 0.930 . S
H784 C781 0.929 . S
S785 N786 1.613 . S
S785 N787 1.610 . S
N786 S785 1.613 . S
N786 C789 1.350 . S
N787 S785 1.610 . S
N787 C788 1.351 . S
C788 C782 1.428 . S
C788 N787 1.351 . S
C788 C789 1.434 . S
C789 C780 1.429 1_645 S
C789 N786 1.350 . S
C789 C788 1.434 . S
C790 C791 1.369 . S
C790 C792 1.419 . S
C790 H794 0.930 . S
C791 C790 1.369 . S
C791 C800 1.429 . S
C792 C790 1.419 . S
C792 C793 1.363 . S
C792 H795 0.929 . S
C793 C792 1.363 . S
C793 C799 1.428 . S
H794 C790 0.930 . S
H795 C792 0.929 . S
S796 N797 1.613 . S
S796 N798 1.610 . S
N797 S796 1.613 . S
N797 C800 1.350 . S
N798 S796 1.610 . S
N798 C799 1.351 . S
C799 C793 1.428 . S
C799 N798 1.351 . S
C799 C800 1.434 . S
C800 C791 1.429 . S
C800 N797 1.350 . S
C800 C799 1.434 . S
C801 C802 1.369 1_565 S
C801 C803 1.419 1_554 S
C801 H805 0.930 . S
C802 C801 1.369 1_545 S
C802 C811 1.429 . S
C803 C801 1.419 1_556 S
C803 C804 1.363 . S
C803 H806 0.929 . S
C804 C803 1.363 . S
C804 C810 1.428 1_565 S
H805 C801 0.930 . S
H806 C803 0.929 . S
S807 N808 1.613 1_556 S
S807 N809 1.610 . S
N808 S807 1.613 1_554 S
N808 C811 1.350 . S
N809 S807 1.610 . S
N809 C810 1.351 . S
C810 C804 1.428 1_545 S
C810 N809 1.351 . S
C810 C811 1.434 1_556 S
C811 C802 1.429 . S
C811 N808 1.350 . S
C811 C810 1.434 1_554 S
C812 C813 1.369 . S
C812 C814 1.419 . S
C812 H816 0.930 . S
C813 C812 1.369 . S
C813 C822 1.429 . S
C814 C812 1.419 . S
C814 C815 1.363 . S
C814 H817 0.929 . S
C815 C814 1.363 . S
C815 C821 1.428 . S
H816 C812 0.930 . S
H817 C814 0.929 . S
S818 N819 1.613 . S
S818 N820 1.610 . S
N819 S818 1.613 . S
N819 C822 1.350 . S
N820 S818 1.610 . S
N820 C821 1.351 . S
C821 C815 1.428 . S
C821 N820 1.351 . S
C821 C822 1.434 . S
C822 C813 1.429 . S
C822 N819 1.350 . S
C822 C821 1.434 . S
C823 C824 1.369 1_545 S
C823 C825 1.419 . S
C823 H827 0.930 . S
C824 C823 1.369 1_565 S
C824 C833 1.429 . S
C825 C823 1.419 . S
C825 C826 1.363 . S
C825 H828 0.929 . S
C826 C825 1.363 . S
C826 C832 1.428 1_545 S
H827 C823 0.930 . S
H828 C825 0.929 . S
S829 N830 1.613 . S
S829 N831 1.610 . S
N830 S829 1.613 . S
N830 C833 1.350 . S
N831 S829 1.610 . S
N831 C832 1.351 . S
C832 C826 1.428 1_565 S
C832 N831 1.351 . S
C832 C833 1.434 . S
C833 C824 1.429 . S
C833 N830 1.350 . S
C833 C832 1.434 . S
C834 C835 1.369 . S
C834 C836 1.419 . S
C834 H838 0.930 . S
C835 C834 1.369 . S
C835 C844 1.429 . S
C836 C834 1.419 . S
C836 C837 1.363 . S
C836 H839 0.929 . S
C837 C836 1.363 . S
C837 C843 1.428 . S
H838 C834 0.930 . S
H839 C836 0.929 . S
S840 N841 1.613 . S
S840 N842 1.610 . S
N841 S840 1.613 . S
N841 C844 1.350 . S
N842 S840 1.610 . S
N842 C843 1.351 . S
C843 C837 1.428 . S
C843 N842 1.351 . S
C843 C844 1.434 . S
C844 C835 1.429 . S
C844 N841 1.350 . S
C844 C843 1.434 . S
C845 C846 1.369 1_655 S
C845 C847 1.419 1_556 S
C845 H849 0.930 . S
C846 C845 1.369 1_455 S
C846 C855 1.429 1_545 S
C847 C845 1.419 1_554 S
C847 C848 1.363 1_545 S
C847 H850 0.929 . S
C848 C847 1.363 1_565 S
C848 C854 1.428 1_655 S
H849 C845 0.930 . S
H850 C847 0.929 . S
S851 N852 1.613 1_554 S
S851 N853 1.610 . S
N852 S851 1.613 1_556 S
N852 C855 1.350 . S
N853 S851 1.610 . S
N853 C854 1.351 . S
C854 C848 1.428 1_455 S
C854 N853 1.351 . S
C854 C855 1.434 1_554 S
C855 C846 1.429 1_565 S
C855 N852 1.350 . S
C855 C854 1.434 1_556 S
C856 C857 1.369 . S
C856 C858 1.419 . S
C856 H860 0.930 . S
C857 C856 1.369 . S
C857 C866 1.429 . S
C858 C856 1.419 . S
C858 C859 1.363 . S
C858 H861 0.929 . S
C859 C858 1.363 . S
C859 C865 1.428 . S
H860 C856 0.930 . S
H861 C858 0.929 . S
S862 N863 1.613 . S
S862 N864 1.610 . S
N863 S862 1.613 . S
N863 C866 1.350 . S
N864 S862 1.610 . S
N864 C865 1.351 . S
C865 C859 1.428 . S
C865 N864 1.351 . S
C865 C866 1.434 . S
C866 C857 1.429 . S
C866 N863 1.350 . S
C866 C865 1.434 . S
C867 C868 1.369 . S
C867 C869 1.419 . S
C867 H871 0.930 . S
C868 C867 1.369 . S
C868 C877 1.429 . S
C869 C867 1.419 . S
C869 C870 1.363 . S
C869 H872 0.929 . S
C870 C869 1.363 . S
C870 C876 1.428 . S
H871 C867 0.930 . S
H872 C869 0.929 . S
S873 N874 1.613 . S
S873 N875 1.610 . S
N874 S873 1.613 . S
N874 C877 1.350 . S
N875 S873 1.610 . S
N875 C876 1.351 . S
C876 C870 1.428 . S
C876 N875 1.351 . S
C876 C877 1.434 . S
C877 C868 1.429 . S
C877 N874 1.350 . S
C877 C876 1.434 . S
C878 C879 1.369 . S
C878 C880 1.419 . S
C878 H882 0.930 . S
C879 C878 1.369 . S
C879 C888 1.429 . S
C880 C878 1.419 . S
C880 C881 1.363 . S
C880 H883 0.929 . S
C881 C880 1.363 . S
C881 C887 1.428 . S
H882 C878 0.930 . S
H883 C880 0.929 . S
S884 N885 1.613 . S
S884 N886 1.610 . S
N885 S884 1.613 . S
N885 C888 1.350 . S
N886 S884 1.610 . S
N886 C887 1.351 . S
C887 C881 1.428 . S
C887 N886 1.351 . S
C887 C888 1.434 . S
C888 C879 1.429 . S
C888 N885 1.350 . S
C888 C887 1.434 . S
C889 C890 1.369 . S
C889 C891 1.419 . S
C889 H893 0.930 . S
C890 C889 1.369 . S
C890 C899 1.429 . S
C891 C889 1.419 . S
C891 C892 1.363 . S
C891 H894 0.929 . S
C892 C891 1.363 . S
C892 C898 1.428 . S
H893 C889 0.930 . S
H894 C891 0.929 . S
S895 N896 1.613 . S
S895 N897 1.610 . S
N896 S895 1.613 . S
N896 C899 1.350 . S
N897 S895 1.610 . S
N897 C898 1.351 . S
C898 C892 1.428 . S
C898 N897 1.351 . S
C898 C899 1.434 . S
C899 C890 1.429 . S
C899 N896 1.350 . S
C899 C898 1.434 . S
C900 C901 1.369 . S
C900 C902 1.419 1_554 S
C900 H904 0.930 . S
C901 C900 1.369 . S
C901 C910 1.429 . S
C902 C900 1.419 1_556 S
C902 C903 1.363 . S
C902 H905 0.929 . S
C903 C902 1.363 . S
C903 C909 1.428 . S
H904 C900 0.930 . S
H905 C902 0.929 . S
S906 N907 1.613 1_556 S
S906 N908 1.610 . S
N907 S906 1.613 1_554 S
N907 C910 1.350 . S
N908 S906 1.610 . S
N908 C909 1.351 . S
C909 C903 1.428 . S
C909 N908 1.351 . S
C909 C910 1.434 1_556 S
C910 C901 1.429 . S
C910 N907 1.350 . S
C910 C909 1.434 1_554 S
C911 C912 1.369 1_655 S
C911 C913 1.419 . S
C911 H915 0.930 . S
C912 C911 1.369 1_455 S
C912 C921 1.429 . S
C913 C911 1.419 . S
C913 C914 1.363 . S
C913 H916 0.929 . S
C914 C913 1.363 . S
C914 C920 1.428 1_655 S
H915 C911 0.930 . S
H916 C913 0.929 . S
S917 N918 1.613 . S
S917 N919 1.610 . S
N918 S917 1.613 . S
N918 C921 1.350 . S
N919 S917 1.610 . S
N919 C920 1.351 . S
C920 C914 1.428 1_455 S
C920 N919 1.351 . S
C920 C921 1.434 . S
C921 C912 1.429 . S
C921 N918 1.350 . S
C921 C920 1.434 . S
C922 C923 1.369 1_655 S
C922 C924 1.419 1_554 S
C922 H926 0.930 . S
C923 C922 1.369 1_455 S
C923 C932 1.429 . S
C924 C922 1.419 1_556 S
C924 C925 1.363 . S
C924 H927 0.929 . S
C925 C924 1.363 . S
C925 C931 1.428 1_655 S
H926 C922 0.930 . S
H927 C924 0.929 . S
S928 N929 1.613 1_556 S
S928 N930 1.610 . S
N929 S928 1.613 1_554 S
N929 C932 1.350 . S
N930 S928 1.610 . S
N930 C931 1.351 . S
C931 C925 1.428 1_455 S
C931 N930 1.351 . S
C931 C932 1.434 1_556 S
C932 C923 1.429 . S
C932 N929 1.350 . S
C932 C931 1.434 1_554 S
C933 C934 1.369 . S
C933 C935 1.419 . S
C933 H937 0.930 . S
C934 C933 1.369 . S
C934 C943 1.429 . S
C935 C933 1.419 . S
C935 C936 1.363 . S
C935 H938 0.929 . S
C936 C935 1.363 . S
C936 C942 1.428 . S
H937 C933 0.930 . S
H938 C935 0.929 . S
S939 N940 1.613 . S
S939 N941 1.610 . S
N940 S939 1.613 . S
N940 C943 1.350 . S
N941 S939 1.610 . S
N941 C942 1.351 . S
C942 C936 1.428 . S
C942 N941 1.351 . S
C942 C943 1.434 . S
C943 C934 1.429 . S
C943 N940 1.350 . S
C943 C942 1.434 . S
C944 C945 1.369 . S
C944 C946 1.419 . S
C944 H948 0.930 . S
C945 C944 1.369 . S
C945 C954 1.429 . S
C946 C944 1.419 . S
C946 C947 1.363 . S
C946 H949 0.929 . S
C947 C946 1.363 . S
C947 C953 1.428 . S
H948 C944 0.930 . S
H949 C946 0.929 . S
S950 N951 1.613 . S
S950 N952 1.610 . S
N951 S950 1.613 . S
N951 C954 1.350 . S
N952 S950 1.610 . S
N952 C953 1.351 . S
C953 C947 1.428 . S
C953 N952 1.351 . S
C953 C954 1.434 . S
C954 C945 1.429 . S
C954 N951 1.350 . S
C954 C953 1.434 . S
C955 C956 1.369 . S
C955 C957 1.419 . S
C955 H959 0.930 . S
C956 C955 1.369 . S
C956 C965 1.429 . S
C957 C955 1.419 . S
C957 C958 1.363 . S
C957 H960 0.929 . S
C958 C957 1.363 . S
C958 C964 1.428 . S
H959 C955 0.930 . S
H960 C957 0.929 . S
S961 N962 1.613 . S
S961 N963 1.610 . S
N962 S961 1.613 . S
N962 C965 1.350 . S
N963 S961 1.610 . S
N963 C964 1.351 . S
C964 C958 1.428 . S
C964 N963 1.351 . S
C964 C965 1.434 . S
C965 C956 1.429 . S
C965 N962 1.350 . S
C965 C964 1.434 . S
C966 C967 1.369 . S
C966 C968 1.419 . S
C966 H970 0.930 . S
C967 C966 1.369 . S
C967 C976 1.429 . S
C968 C966 1.419 . S
C968 C969 1.363 . S
C968 H971 0.929 . S
C969 C968 1.363 . S
C969 C975 1.428 . S
H970 C966 0.930 . S
H971 C968 0.929 . S
S972 N973 1.613 . S
S972 N974 1.610 . S
N973 S972 1.613 . S
N973 C976 1.350 . S
N974 S972 1.610 . S
N974 C975 1.351 . S
C975 C969 1.428 . S
C975 N974 1.351 . S
C975 C976 1.434 . S
C976 C967 1.429 . S
C976 N973 1.350 . S
C976 C975 1.434 . S
C977 C978 1.369 . S
C977 C979 1.419 . S
C977 H981 0.930 . S
C978 C977 1.369 . S
C978 C987 1.429 . S
C979 C977 1.419 . S
C979 C980 1.363 . S
C979 H982 0.929 . S
C980 C979 1.363 . S
C980 C986 1.428 . S
H981 C977 0.930 . S
H982 C979 0.929 . S
S983 N984 1.613 . S
S983 N985 1.610 1_565 S
N984 S983 1.613 . S
N984 C987 1.350 . S
N985 S983 1.610 1_545 S
N985 C986 1.351 1_545 S
C986 C980 1.428 . S
C986 N985 1.351 1_565 S
C986 C987 1.434 . S
C987 C978 1.429 . S
C987 N984 1.350 . S
C987 C986 1.434 . S
C988 C989 1.369 . S
C988 C990 1.419 . S
C988 H992 0.930 . S
C989 C988 1.369 . S
C989 C998 1.429 . S
C990 C988 1.419 . S
C990 C991 1.363 . S
C990 H993 0.929 . S
C991 C990 1.363 . S
C991 C997 1.428 . S
H992 C988 0.930 . S
H993 C990 0.929 . S
S994 N995 1.613 . S
S994 N996 1.610 . S
N995 S994 1.613 . S
N995 C998 1.350 . S
N996 S994 1.610 . S
N996 C997 1.351 . S
C997 C991 1.428 . S
C997 N996 1.351 . S
C997 C998 1.434 . S
C998 C989 1.429 . S
C998 N995 1.350 . S
C998 C997 1.434 . S
C999 C1000 1.369 . S
C999 C1001 1.419 . S
C999 H1003 0.930 . S
C1000 C999 1.369 . S
C1000 C1009 1.429 . S
C1001 C999 1.419 . S
C1001 C1002 1.363 . S
C1001 H1004 0.929 . S
C1002 C1001 1.363 . S
C1002 C1008 1.428 . S
H1003 C999 0.930 . S
H1004 C1001 0.929 . S
S1005 N1006 1.613 . S
S1005 N1007 1.610 . S
N1006 S1005 1.613 . S
N1006 C1009 1.350 . S
N1007 S1005 1.610 . S
N1007 C1008 1.351 . S
C1008 C1002 1.428 . S
C1008 N1007 1.351 . S
C1008 C1009 1.434 . S
C1009 C1000 1.429 . S
C1009 N1006 1.350 . S
C1009 C1008 1.434 . S
C1010 C1011 1.369 . S
C1010 C1012 1.419 . S
C1010 H1014 0.930 . S
C1011 C1010 1.369 . S
C1011 C1020 1.429 . S
C1012 C1010 1.419 . S
C1012 C1013 1.363 . S
C1012 H1015 0.929 . S
C1013 C1012 1.363 . S
C1013 C1019 1.428 . S
H1014 C1010 0.930 . S
H1015 C1012 0.929 . S
S1016 N1017 1.613 . S
S1016 N1018 1.610 . S
N1017 S1016 1.613 . S
N1017 C1020 1.350 . S
N1018 S1016 1.610 . S
N1018 C1019 1.351 . S
C1019 C1013 1.428 . S
C1019 N1018 1.351 . S
C1019 C1020 1.434 . S
C1020 C1011 1.429 . S
C1020 N1017 1.350 . S
C1020 C1019 1.434 . S
C1021 C1022 1.369 . S
C1021 C1023 1.419 . S
C1021 H1025 0.930 . S
C1022 C1021 1.369 . S
C1022 C1031 1.429 . S
C1023 C1021 1.419 . S
C1023 C1024 1.363 . S
C1023 H1026 0.929 . S
C1024 C1023 1.363 . S
C1024 C1030 1.428 . S
H1025 C1021 0.930 . S
H1026 C1023 0.929 . S
S1027 N1028 1.613 . S
S1027 N1029 1.610 . S
N1028 S1027 1.613 . S
N1028 C1031 1.350 . S
N1029 S1027 1.610 . S
N1029 C1030 1.351 . S
C1030 C1024 1.428 . S
C1030 N1029 1.351 . S
C1030 C1031 1.434 . S
C1031 C1022 1.429 . S
C1031 N1028 1.350 . S
C1031 C1030 1.434 . S
C1032 C1033 1.369 . S
C1032 C1034 1.419 . S
C1032 H1036 0.930 . S
C1033 C1032 1.369 . S
C1033 C1042 1.429 . S
C1034 C1032 1.419 . S
C1034 C1035 1.363 . S
C1034 H1037 0.929 . S
C1035 C1034 1.363 . S
C1035 C1041 1.428 . S
H1036 C1032 0.930 . S
H1037 C1034 0.929 . S
S1038 N1039 1.613 . S
S1038 N1040 1.610 . S
N1039 S1038 1.613 . S
N1039 C1042 1.350 . S
N1040 S1038 1.610 . S
N1040 C1041 1.351 . S
C1041 C1035 1.428 . S
C1041 N1040 1.351 . S
C1041 C1042 1.434 . S
C1042 C1033 1.429 . S
C1042 N1039 1.350 . S
C1042 C1041 1.434 . S
C1043 C1044 1.369 . S
C1043 C1045 1.419 . S
C1043 H1047 0.930 . S
C1044 C1043 1.369 . S
C1044 C1053 1.429 . S
C1045 C1043 1.419 . S
C1045 C1046 1.363 . S
C1045 H1048 0.929 . S
C1046 C1045 1.363 . S
C1046 C1052 1.428 . S
H1047 C1043 0.930 . S
H1048 C1045 0.929 . S
S1049 N1050 1.613 . S
S1049 N1051 1.610 . S
N1050 S1049 1.613 . S
N1050 C1053 1.350 . S
N1051 S1049 1.610 . S
N1051 C1052 1.351 . S
C1052 C1046 1.428 . S
C1052 N1051 1.351 . S
C1052 C1053 1.434 . S
C1053 C1044 1.429 . S
C1053 N1050 1.350 . S
C1053 C1052 1.434 . S
C1054 C1055 1.369 . S
C1054 C1056 1.419 . S
C1054 H1058 0.930 . S
C1055 C1054 1.369 . S
C1055 C1064 1.429 . S
C1056 C1054 1.419 . S
C1056 C1057 1.363 . S
C1056 H1059 0.929 . S
C1057 C1056 1.363 . S
C1057 C1063 1.428 . S
H1058 C1054 0.930 . S
H1059 C1056 0.929 . S
S1060 N1061 1.613 . S
S1060 N1062 1.610 . S
N1061 S1060 1.613 . S
N1061 C1064 1.350 . S
N1062 S1060 1.610 . S
N1062 C1063 1.351 . S
C1063 C1057 1.428 . S
C1063 N1062 1.351 . S
C1063 C1064 1.434 . S
C1064 C1055 1.429 . S
C1064 N1061 1.350 . S
C1064 C1063 1.434 . S
C1065 C1066 1.369 . S
C1065 C1067 1.419 . S
C1065 H1069 0.930 . S
C1066 C1065 1.369 . S
C1066 C1075 1.429 . S
C1067 C1065 1.419 . S
C1067 C1068 1.363 . S
C1067 H1070 0.929 . S
C1068 C1067 1.363 . S
C1068 C1074 1.428 . S
H1069 C1065 0.930 . S
H1070 C1067 0.929 . S
S1071 N1072 1.613 . S
S1071 N1073 1.610 . S
N1072 S1071 1.613 . S
N1072 C1075 1.350 . S
N1073 S1071 1.610 . S
N1073 C1074 1.351 . S
C1074 C1068 1.428 . S
C1074 N1073 1.351 . S
C1074 C1075 1.434 . S
C1075 C1066 1.429 . S
C1075 N1072 1.350 . S
C1075 C1074 1.434 . S
C1076 C1077 1.369 . S
C1076 C1078 1.419 . S
C1076 H1080 0.930 . S
C1077 C1076 1.369 . S
C1077 C1086 1.429 . S
C1078 C1076 1.419 . S
C1078 C1079 1.363 . S
C1078 H1081 0.929 . S
C1079 C1078 1.363 . S
C1079 C1085 1.428 . S
H1080 C1076 0.930 . S
H1081 C1078 0.929 . S
S1082 N1083 1.613 . S
S1082 N1084 1.610 . S
N1083 S1082 1.613 . S
N1083 C1086 1.350 . S
N1084 S1082 1.610 . S
N1084 C1085 1.351 . S
C1085 C1079 1.428 . S
C1085 N1084 1.351 . S
C1085 C1086 1.434 . S
C1086 C1077 1.429 . S
C1086 N1083 1.350 . S
C1086 C1085 1.434 . S
C1087 C1088 1.369 . S
C1087 C1089 1.419 . S
C1087 H1091 0.930 . S
C1088 C1087 1.369 . S
C1088 C1097 1.429 . S
C1089 C1087 1.419 . S
C1089 C1090 1.363 . S
C1089 H1092 0.929 . S
C1090 C1089 1.363 . S
C1090 C1096 1.428 . S
H1091 C1087 0.930 . S
H1092 C1089 0.929 . S
S1093 N1094 1.613 . S
S1093 N1095 1.610 . S
N1094 S1093 1.613 . S
N1094 C1097 1.350 . S
N1095 S1093 1.610 . S
N1095 C1096 1.351 . S
C1096 C1090 1.428 . S
C1096 N1095 1.351 . S
C1096 C1097 1.434 . S
C1097 C1088 1.429 . S
C1097 N1094 1.350 . S
C1097 C1096 1.434 . S
C1098 C1099 1.369 . S
C1098 C1100 1.419 . S
C1098 H1102 0.930 . S
C1099 C1098 1.369 . S
C1099 C1108 1.429 . S
C1100 C1098 1.419 . S
C1100 C1101 1.363 . S
C1100 H1103 0.929 . S
C1101 C1100 1.363 . S
C1101 C1107 1.428 . S
H1102 C1098 0.930 . S
H1103 C1100 0.929 . S
S1104 N1105 1.613 . S
S1104 N1106 1.610 . S
N1105 S1104 1.613 . S
N1105 C1108 1.350 . S
N1106 S1104 1.610 . S
N1106 C1107 1.351 . S
C1107 C1101 1.428 . S
C1107 N1106 1.351 . S
C1107 C1108 1.434 . S
C1108 C1099 1.429 . S
C1108 N1105 1.350 . S
C1108 C1107 1.434 . S
C1109 C1110 1.369 . S
C1109 C1111 1.419 . S
C1109 H1113 0.930 . S
C1110 C1109 1.369 . S
C1110 C1119 1.429 . S
C1111 C1109 1.419 . S
C1111 C1112 1.363 . S
C1111 H1114 0.929 . S
C1112 C1111 1.363 . S
C1112 C1118 1.428 . S
H1113 C1109 0.930 . S
H1114 C1111 0.929 . S
S1115 N1116 1.613 . S
S1115 N1117 1.610 . S
N1116 S1115 1.613 . S
N1116 C1119 1.350 . S
N1117 S1115 1.610 . S
N1117 C1118 1.351 . S
C1118 C1112 1.428 . S
C1118 N1117 1.351 . S
C1118 C1119 1.434 . S
C1119 C1110 1.429 . S
C1119 N1116 1.350 . S
C1119 C1118 1.434 . S
C417 C354 1.514 . S
C419 C5 1.516 . S
C428 C16 1.508 . S
C430 C108 1.509 . S
C439 C328 1.511 . S
C441 C29 1.514 . S
C450 C42 1.507 . S
C452 C140 1.508 . S
C461 C55 1.513 . S
C463 C380 1.512 . S
C472 C68 1.506 . S
C474 C192 1.507 . S
C483 C83 1.514 . S
C485 C406 1.513 . S
C494 C96 1.506 . S
C496 C166 1.507 . S
C505 C251 1.516 . S
C507 C107 1.515 . S
C516 C10 1.507 . S
C518 C127 1.508 . S
C527 C225 1.518 . S
C529 C135 1.517 . S
C538 C153 1.510 . S
C540 C30 1.507 . S
C549 C277 1.518 . S
C551 C161 1.516 . S
C560 C88 1.506 . S
C562 C173 1.508 . S
C571 C187 1.515 . S
C573 C309 1.516 . S
C582 C56 1.508 . S
C584 C199 1.510 . S
C593 C211 1.514 . S
C595 C148 1.513 . S
C604 C224 1.507 . S
C606 C316 1.507 . S
C615 C122 1.511 . S
C617 C237 1.514 . S
C626 C342 1.510 . S
C628 C250 1.509 . S
C637 C172 1.512 . S
C639 C263 1.514 . S
C648 C394 1.508 . S
C650 C276 1.507 . S
C659 C198 1.512 . S
C661 C289 1.514 . S
C670 C304 1.508 . S
C672 C368 1.508 . S
C681 C43 1.517 . S
C683 C315 1.517 . S
C692 C329 1.510 . S
C694 C212 1.508 . S
C703 C341 1.516 . S
C705 C17 1.517 . S
C714 C355 1.510 . S
C716 C238 1.509 . S
C725 C367 1.515 . S
C727 C69 1.517 . S
C736 C381 1.510 . S
C738 C290 1.509 . S
C747 C393 1.514 . S
C749 C101 1.516 . S
C758 C407 1.507 . S
C760 C264 1.507 . S
C769 C317 1.534 . S
C771 C3 1.534 . S
C780 C18 1.537 . S
C782 C121 1.533 . S
C791 C343 1.533 . S
C793 C31 1.535 . S
C802 C44 1.535 . S
C804 C147 1.534 . S
C813 C369 1.536 . S
C815 C57 1.533 . S
C824 C70 1.536 . S
C826 C179 1.534 . S
C835 C395 1.534 . S
C837 C81 1.534 . S
C846 C94 1.539 . S
C848 C205 1.531 . S
C857 C109 1.533 . S
C859 C213 1.535 . S
C868 C133 1.532 . S
C870 C239 1.536 . S
C879 C159 1.534 . S
C881 C265 1.535 . S
C890 C185 1.533 . S
C892 C291 1.535 . S
C901 C226 1.538 . S
C903 C335 1.532 . S
C912 C361 1.531 . S
C914 C252 1.538 . S
C923 C387 1.532 . S
C925 C278 1.538 . S
C934 C302 1.539 . S
C936 C413 1.531 . S
C945 C4 1.418 . S
C947 C75 1.419 . S
C956 C23 1.417 . S
C958 C82 1.418 . S
C967 C36 1.417 . S
C969 C95 1.419 . S
C978 C62 1.417 . S
C980 C49 1.418 . S
C989 C114 1.419 . S
C991 C174 1.419 . S
C1000 C120 1.419 . S
C1002 C186 1.420 . S
C1011 C134 1.419 . S
C1013 C200 1.419 . S
C1022 C146 1.418 . S
C1024 C160 1.420 . S
C1033 C218 1.418 . S
C1035 C283 1.419 . S
C1044 C296 1.419 . S
C1046 C231 1.419 . S
C1055 C244 1.417 . S
C1057 C303 1.418 . S
C1066 C257 1.418 . S
C1068 C270 1.418 . S
C1077 C382 1.419 . S
C1079 C322 1.420 . S
C1088 C330 1.417 . S
C1090 C400 1.420 . S
C1099 C408 1.419 . S
C1101 C348 1.419 . S
C1110 C356 1.419 . S
C1112 C374 1.419 . S
