# Generated by pormake.
# Topology wjh, (4)-cn, num edge types: 1
# Building blocks:
#     Node 0, Type 0, BuildingBlock: CEKHIL_clean_sbu_0, # of connection points: 4
#     Node 1, Type 0, BuildingBlock: CEKHIL_clean_sbu_0, # of connection points: 4
#     Node 2, Type 0, BuildingBlock: CEKHIL_clean_sbu_0, # of connection points: 4
#     Node 3, Type 0, BuildingBlock: CEKHIL_clean_sbu_0, # of connection points: 4
#     Node 4, Type 0, BuildingBlock: CEKHIL_clean_sbu_0, # of connection points: 4
#     Node 5, Type 0, BuildingBlock: CEKHIL_clean_sbu_0, # of connection points: 4
#     Node 6, Type 0, BuildingBlock: CEKHIL_clean_sbu_0, # of connection points: 4
#     Node 7, Type 0, BuildingBlock: CEKHIL_clean_sbu_0, # of connection points: 4
#     Node 8, Type 0, BuildingBlock: CEKHIL_clean_sbu_0, # of connection points: 4
#     Node 9, Type 0, BuildingBlock: CEKHIL_clean_sbu_0, # of connection points: 4
#     Node 10, Type 0, BuildingBlock: CEKHIL_clean_sbu_0, # of connection points: 4
#     Node 11, Type 0, BuildingBlock: CEKHIL_clean_sbu_0, # of connection points: 4
#     Edge 12, Type (0, 0), BuildingBlock: CIFDUS_clean_linker_0, # of connection points: 2
#     Edge 13, Type (0, 0), BuildingBlock: CIFDUS_clean_linker_0, # of connection points: 2
#     Edge 14, Type (0, 0), BuildingBlock: CIFDUS_clean_linker_0, # of connection points: 2
#     Edge 15, Type (0, 0), BuildingBlock: CIFDUS_clean_linker_0, # of connection points: 2
#     Edge 16, Type (0, 0), BuildingBlock: CIFDUS_clean_linker_0, # of connection points: 2
#     Edge 17, Type (0, 0), BuildingBlock: CIFDUS_clean_linker_0, # of connection points: 2
#     Edge 18, Type (0, 0), BuildingBlock: CIFDUS_clean_linker_0, # of connection points: 2
#     Edge 19, Type (0, 0), BuildingBlock: CIFDUS_clean_linker_0, # of connection points: 2
#     Edge 20, Type (0, 0), BuildingBlock: CIFDUS_clean_linker_0, # of connection points: 2
#     Edge 21, Type (0, 0), BuildingBlock: CIFDUS_clean_linker_0, # of connection points: 2
#     Edge 22, Type (0, 0), BuildingBlock: CIFDUS_clean_linker_0, # of connection points: 2
#     Edge 23, Type (0, 0), BuildingBlock: CIFDUS_clean_linker_0, # of connection points: 2
#     Edge 24, Type (0, 0), BuildingBlock: CIFDUS_clean_linker_0, # of connection points: 2
#     Edge 25, Type (0, 0), BuildingBlock: CIFDUS_clean_linker_0, # of connection points: 2
#     Edge 26, Type (0, 0), BuildingBlock: CIFDUS_clean_linker_0, # of connection points: 2
#     Edge 27, Type (0, 0), BuildingBlock: CIFDUS_clean_linker_0, # of connection points: 2
#     Edge 28, Type (0, 0), BuildingBlock: CIFDUS_clean_linker_0, # of connection points: 2
#     Edge 29, Type (0, 0), BuildingBlock: CIFDUS_clean_linker_0, # of connection points: 2
#     Edge 30, Type (0, 0), BuildingBlock: CIFDUS_clean_linker_0, # of connection points: 2
#     Edge 31, Type (0, 0), BuildingBlock: CIFDUS_clean_linker_0, # of connection points: 2
#     Edge 32, Type (0, 0), BuildingBlock: CIFDUS_clean_linker_0, # of connection points: 2
#     Edge 33, Type (0, 0), BuildingBlock: CIFDUS_clean_linker_0, # of connection points: 2
#     Edge 34, Type (0, 0), BuildingBlock: CIFDUS_clean_linker_0, # of connection points: 2
#     Edge 35, Type (0, 0), BuildingBlock: CIFDUS_clean_linker_0, # of connection points: 2
# Relax obj value: 0.078
# Max RMSD: 0.099
# Mean RMSD: 0.099
data_MOF--net-wjh--node1-CEKHIL_clean_sbu_0--edge1-CIFDUS_clean_linker_0
_symmetry_space_group_name_H-M    P1
_symmetry_Int_Tables_number       1
_symmetry_cell_setting            triclinic
loop_
_symmetry_equiv_pos_as_xyz
'x, y, z'
_cell_length_a     52.964801
_cell_length_b     52.892518
_cell_length_c     23.127104
_cell_angle_alpha  90.195801
_cell_angle_beta   89.892098
_cell_angle_gamma 119.85692
loop_
_atom_site_label
_atom_site_type_symbol
_atom_site_fract_x
_atom_site_fract_y
_atom_site_fract_z
_atom_type_partial_charge
Co0 Co 0.53004 0.15478 0.02611 0.0
O1 O 0.54818 0.19643 0.03564 0.0
O2 O 0.50137 0.16566 0.04947 0.0
C3 C 0.55288 0.1563 0.94258 0.0
O4 O 0.5034 0.11039 0.02005 0.0
Co5 Co 0.56749 0.12387 0.02145 0.0
O6 O 0.53034 0.08955 -0.00281 0.0
C7 C 0.56098 0.15016 0.12954 0.0
C8 C 0.52285 0.19241 0.05094 0.0
C9 C 0.50589 0.08817 0.00528 0.0
O10 O 0.53916 0.15147 0.10875 0.0
O11 O 0.57659 0.14264 0.0997 0.0
O12 O 0.52953 0.15866 0.9414 0.0
O13 O 0.56205 0.15495 -0.00695 0.0
Co14 Co 0.38569 0.52604 0.1948 0.0
O15 O 0.36567 0.54762 0.20401 0.0
O16 O 0.34703 0.50135 0.22813 0.0
C17 C 0.40238 0.5421 0.1042 0.0
O18 O 0.40074 0.49701 0.19064 0.0
Co19 Co 0.45298 0.56084 0.18033 0.0
O20 O 0.44743 0.52184 0.16052 0.0
C21 C 0.42717 0.55733 0.29489 0.0
C22 C 0.34428 0.5245 0.22674 0.0
C23 C 0.42445 0.4981 0.1733 0.0
O24 O 0.40224 0.53822 0.27482 0.0
O25 O 0.44986 0.57093 0.26312 0.0
O26 O 0.37621 0.52029 0.11207 0.0
O27 O 0.41624 0.55476 0.15091 0.0
Co28 Co 0.86456 0.38218 0.36273 0.0
O29 O 0.82287 0.36053 0.36329 0.0
O30 O 0.85073 0.3432 0.39415 0.0
C31 C 0.86882 0.40039 0.27246 0.0
O32 O 0.90874 0.39903 0.36814 0.0
Co33 Co 0.89494 0.44964 0.35399 0.0
O34 O 0.93014 0.44611 0.34083 0.0
C35 C 0.86815 0.42086 0.46387 0.0
C36 C 0.82461 0.33934 0.38724 0.0
C37 C 0.93145 0.42352 0.35504 0.0
O38 O 0.86415 0.39669 0.44268 0.0
O39 O 0.87798 0.44429 0.43413 0.0
O40 O 0.86539 0.37449 0.27999 0.0
O41 O 0.86706 0.41304 0.31884 0.0
Co42 Co 0.49569 0.85836 0.52615 0.0
O43 O 0.4753 0.81657 0.52749 0.0
O44 O 0.52048 0.84433 0.55818 0.0
C45 C 0.48183 0.86232 0.43554 0.0
O46 O 0.52341 0.90238 0.53171 0.0
Co47 Co 0.46027 0.89057 0.51434 0.0
O48 O 0.49935 0.92535 0.50341 0.0
C49 C 0.46217 0.86507 0.62643 0.0
C50 C 0.49817 0.81826 0.55159 0.0
C51 C 0.52256 0.92567 0.51901 0.0
O52 O 0.48101 0.85893 0.60581 0.0
O53 O 0.44949 0.87564 0.59583 0.0
O54 O 0.50408 0.85858 0.44341 0.0
O55 O 0.46771 0.86126 0.48176 0.0
Co56 Co 0.63648 0.48427 0.69718 0.0
O57 O 0.6558 0.46285 0.7167 0.0
O58 O 0.67379 0.50988 0.73402 0.0
C59 C 0.6231 0.4638 0.60947 0.0
O60 O 0.6228 0.51387 0.68411 0.0
Co61 Co 0.57048 0.45338 0.66287 0.0
O62 O 0.57935 0.49288 0.63927 0.0
C63 C 0.58946 0.45294 0.78346 0.0
C64 C 0.67665 0.48689 0.73813 0.0
C65 C 0.60178 0.51523 0.65914 0.0
O66 O 0.61571 0.47312 0.77272 0.0
O67 O 0.56962 0.4409 0.74483 0.0
O68 O 0.64882 0.48667 0.616 0.0
O69 O 0.60723 0.45464 0.65477 0.0
Co70 Co 0.16018 0.63959 0.85916 0.0
O71 O 0.20185 0.66448 0.86353 0.0
O72 O 0.16981 0.67851 0.88363 0.0
C73 C 0.15927 0.61817 0.77394 0.0
O74 O 0.11573 0.62055 0.86005 0.0
Co75 Co 0.13143 0.57157 0.85593 0.0
O76 O 0.09546 0.5728 0.83848 0.0
C77 C 0.16014 0.60512 0.96143 0.0
C78 C 0.19691 0.68491 0.88158 0.0
C79 C 0.0935 0.59547 0.84848 0.0
O80 O 0.16015 0.62776 0.94133 0.0
O81 O 0.15239 0.58191 0.93178 0.0
O82 O 0.16098 0.64363 0.77431 0.0
O83 O 0.16039 0.60814 0.82367 0.0
Co84 Co 0.85981 0.49504 0.8949 0.0
O85 O 0.81855 0.48035 0.89745 0.0
O86 O 0.85069 0.5236 0.86322 0.0
C87 C 0.86397 0.4813 0.98556 0.0
O88 O 0.90408 0.51726 0.88501 0.0
Co89 Co 0.88226 0.45071 0.90504 0.0
O90 O 0.92105 0.48642 0.90228 0.0
C91 C 0.85797 0.45652 0.79451 0.0
C92 C 0.82351 0.50433 0.87256 0.0
C93 C 0.925 0.5116 0.88984 0.0
O94 O 0.8559 0.47795 0.81546 0.0
O95 O 0.86565 0.4412 0.82466 0.0
O96 O 0.86372 0.50549 0.97729 0.0
O97 O 0.85899 0.46533 0.94013 0.0
Co98 Co 0.37978 0.85735 0.05786 0.0
O99 O 0.35962 0.81565 0.05175 0.0
O100 O 0.34094 0.843 0.02537 0.0
C101 C 0.39735 0.85981 0.14818 0.0
O102 O 0.39497 0.90139 0.05863 0.0
Co103 Co 0.44735 0.88959 0.06998 0.0
O104 O 0.44231 0.92379 0.08483 0.0
C105 C 0.42031 0.86591 0.95701 0.0
C106 C 0.3381 0.81711 0.02873 0.0
C107 C 0.4191 0.92432 0.07273 0.0
O108 O 0.39556 0.86031 0.9777 0.0
O109 O 0.44331 0.87525 0.98794 0.0
O110 O 0.37106 0.85525 0.14075 0.0
O111 O 0.41072 0.85993 0.10147 0.0
Co112 Co 0.53884 0.3815 0.2128 0.0
O113 O 0.56079 0.36191 0.20143 0.0
O114 O 0.51381 0.34204 0.18309 0.0
C115 C 0.5587 0.40061 0.29914 0.0
O116 O 0.50907 0.3956 0.21985 0.0
Co117 Co 0.57172 0.44977 0.22773 0.0
O118 O 0.53241 0.4429 0.24752 0.0
C119 C 0.57171 0.42172 0.11763 0.0
C120 C 0.53713 0.33963 0.18246 0.0
C121 C 0.5092 0.41905 0.23633 0.0
O122 O 0.54934 0.39762 0.13302 0.0
O123 O 0.58575 0.44348 0.15156 0.0
O124 O 0.53683 0.37401 0.29663 0.0
O125 O 0.56813 0.41327 0.25053 0.0
Co126 Co 0.16664 0.52845 0.38612 0.0
O127 O 0.20795 0.54292 0.38388 0.0
O128 O 0.17454 0.49781 0.36155 0.0
C129 C 0.16733 0.54985 0.47136 0.0
O130 O 0.12202 0.50551 0.38245 0.0
Co131 Co 0.14173 0.57122 0.39068 0.0
O132 O 0.10351 0.53514 0.39854 0.0
C133 C 0.16875 0.56411 0.28413 0.0
C134 C 0.20201 0.51739 0.36515 0.0
C135 C 0.10037 0.50997 0.38935 0.0
O136 O 0.16817 0.54117 0.30414 0.0
O137 O 0.16223 0.58043 0.31426 0.0
O138 O 0.16622 0.52466 0.47126 0.0
O139 O 0.16914 0.56108 0.42155 0.0
Co140 Co 0.64758 0.16053 0.55374 0.0
O141 O 0.67232 0.20219 0.54858 0.0
O142 O 0.68641 0.17008 0.52925 0.0
C143 C 0.6268 0.16122 0.63871 0.0
O144 O 0.62867 0.11608 0.55286 0.0
Co145 Co 0.5796 0.13078 0.56071 0.0
O146 O 0.58101 0.09456 0.57495 0.0
C147 C 0.6116 0.15785 0.45217 0.0
C148 C 0.69272 0.19719 0.53087 0.0
C149 C 0.60392 0.09333 0.5637 0.0
O150 O 0.63517 0.1597 0.47177 0.0
O151 O 0.5887 0.14986 0.48289 0.0
O152 O 0.65182 0.16202 0.63879 0.0
O153 O 0.61646 0.16123 0.58877 0.0
Co154 Co 0.50182 0.64297 0.72617 0.0
O155 O 0.48519 0.66781 0.71675 0.0
O156 O 0.53054 0.68029 0.69412 0.0
C157 C 0.48448 0.62715 0.81644 0.0
O158 O 0.52662 0.62333 0.73001 0.0
Co159 Co 0.46154 0.5761 0.74109 0.0
O160 O 0.49855 0.57736 0.76184 0.0
C161 C 0.46875 0.60253 0.62569 0.0
C162 C 0.51008 0.68712 0.69541 0.0
C163 C 0.52324 0.59881 0.74795 0.0
O164 O 0.48877 0.62706 0.64587 0.0
O165 O 0.45363 0.58015 0.65749 0.0
O166 O 0.50809 0.65209 0.80895 0.0
O167 O 0.47096 0.61418 0.76961 0.0
H168 H 0.61079 0.16068 0.18211 0.0
H169 H 0.52774 0.15494 0.2149 0.0
H170 H 0.53814 0.16064 0.31843 0.0
H171 H 0.5683 0.16191 0.39905 0.0
H172 H 0.65047 0.16562 0.36634 0.0
H173 H 0.64301 0.16656 0.26246 0.0
C174 C 0.59495 0.16077 0.2118 0.0
C175 C 0.56824 0.15671 0.1911 0.0
C176 C 0.60088 0.16364 0.27096 0.0
C177 C 0.54831 0.15767 0.2299 0.0
C178 C 0.55422 0.16089 0.28902 0.0
C179 C 0.58475 0.16315 0.36934 0.0
C180 C 0.60959 0.16301 0.39031 0.0
C181 C 0.58006 0.16304 0.30997 0.0
C182 C 0.63098 0.16534 0.35126 0.0
C183 C 0.62669 0.16577 0.29191 0.0
H184 H 0.47165 0.60249 0.35287 0.0
H185 H 0.3883 0.52494 0.37906 0.0
H186 H 0.39332 0.53264 0.48329 0.0
H187 H 0.42218 0.56015 0.56736 0.0
H188 H 0.50495 0.63837 0.54135 0.0
H189 H 0.49917 0.63167 0.43686 0.0
C190 C 0.45455 0.58728 0.38133 0.0
C191 C 0.4298 0.56302 0.35801 0.0
C192 C 0.45744 0.59191 0.44138 0.0
C193 C 0.40767 0.54377 0.39564 0.0
C194 C 0.41052 0.54811 0.45538 0.0
C195 C 0.43892 0.57581 0.53887 0.0
C196 C 0.46406 0.59957 0.56231 0.0
C197 C 0.43544 0.57192 0.47875 0.0
C198 C 0.48536 0.61985 0.52463 0.0
C199 C 0.48214 0.616 0.46478 0.0
H200 H 0.85453 0.41057 0.73447 0.0
H201 H 0.85379 0.49125 0.71206 0.0
H202 H 0.8556 0.48675 0.60743 0.0
H203 H 0.86155 0.46205 0.52257 0.0
H204 H 0.86172 0.38112 0.54565 0.0
H205 H 0.85596 0.3837 0.64952 0.0
C206 C 0.85442 0.42703 0.70678 0.0
C207 C 0.85439 0.45136 0.73131 0.0
C208 C 0.85568 0.42447 0.64661 0.0
C209 C 0.8539 0.47228 0.69455 0.0
C210 C 0.8551 0.46985 0.63459 0.0
C211 C 0.86019 0.44492 0.5503 0.0
C212 C 0.86245 0.42167 0.52631 0.0
C213 C 0.85673 0.4464 0.61022 0.0
C214 C 0.86017 0.39938 0.56283 0.0
C215 C 0.85691 0.40082 0.62237 0.0
H216 H 0.4166 0.86328 0.68472 0.0
H217 H 0.4953 0.85922 0.70965 0.0
H218 H 0.4888 0.85811 0.81408 0.0
H219 H 0.46235 0.8611 0.89856 0.0
H220 H 0.38294 0.8638 0.87371 0.0
H221 H 0.38814 0.86247 0.76918 0.0
C222 C 0.43224 0.86198 0.71298 0.0
C223 C 0.45651 0.86162 0.68934 0.0
C224 C 0.42835 0.86123 0.7731 0.0
C225 C 0.47638 0.85954 0.72659 0.0
C226 C 0.47278 0.85902 0.78642 0.0
C227 C 0.44613 0.86129 0.87028 0.0
C228 C 0.4225 0.86287 0.89393 0.0
C229 C 0.4491 0.86032 0.81015 0.0
C230 C 0.40141 0.86264 0.85669 0.0
C231 C 0.40438 0.86196 0.79684 0.0
H232 H 0.53654 0.39971 0.02551 0.0
H233 H 0.62642 0.45373 0.07545 0.0
H234 H 0.64024 0.46712 0.97462 0.0
H235 H 0.62601 0.46672 0.87447 0.0
H236 H 0.5355 0.41479 0.82545 0.0
H237 H 0.52264 0.39741 0.92425 0.0
C238 C 0.55919 0.41396 0.01398 0.0
C239 C 0.58045 0.42593 0.05711 0.0
C240 C 0.56676 0.42232 0.95658 0.0
C241 C 0.60973 0.44456 0.04238 0.0
C242 C 0.6176 0.45226 0.98503 0.0
C243 C 0.60346 0.45164 0.88533 0.0
C244 C 0.58174 0.44237 0.84295 0.0
C245 C 0.59615 0.44193 0.94211 0.0
C246 C 0.55266 0.42246 0.85749 0.0
C247 C 0.54525 0.41242 0.91387 0.0
H248 H 0.17665 0.61272 0.22971 0.0
H249 H 0.17367 0.5306 0.19925 0.0
H250 H 0.17417 0.53808 0.09513 0.0
H251 H 0.16904 0.56466 0.01432 0.0
H252 H 0.16943 0.64552 0.04521 0.0
H253 H 0.17654 0.64175 0.14833 0.0
C254 C 0.17641 0.59654 0.20043 0.0
C255 C 0.17443 0.57081 0.22216 0.0
C256 C 0.17591 0.60058 0.14094 0.0
C257 C 0.17485 0.55044 0.18362 0.0
C258 C 0.17499 0.55463 0.12412 0.0
C259 C 0.17085 0.58161 0.04344 0.0
C260 C 0.168 0.60497 0.02236 0.0
C261 C 0.17442 0.57908 0.10252 0.0
C262 C 0.17114 0.62709 0.06048 0.0
C263 C 0.17518 0.62495 0.11941 0.0
H264 H 0.49138 0.2857 0.15056 0.0
H265 H 0.58523 0.33593 0.15939 0.0
H266 H 0.58878 0.29564 0.11791 0.0
H267 H 0.56597 0.24629 0.07957 0.0
H268 H 0.47242 0.19385 0.07329 0.0
H269 H 0.46806 0.23466 0.11291 0.0
C270 C 0.51255 0.28774 0.14342 0.0
C271 C 0.53797 0.31395 0.15827 0.0
C272 C 0.51456 0.26409 0.11976 0.0
C273 C 0.56524 0.31612 0.14881 0.0
C274 C 0.56737 0.29306 0.12483 0.0
C275 C 0.54456 0.24374 0.08645 0.0
C276 C 0.51957 0.21708 0.07299 0.0
C277 C 0.54226 0.26699 0.11013 0.0
C278 C 0.49204 0.21417 0.08302 0.0
C279 C 0.48955 0.23751 0.10578 0.0
H280 H 0.28892 0.48004 0.25502 0.0
H281 H 0.34513 0.57346 0.26189 0.0
H282 H 0.30706 0.57893 0.30835 0.0
H283 H 0.2578 0.55813 0.34492 0.0
H284 H 0.19898 0.46547 0.33419 0.0
H285 H 0.23787 0.45877 0.2919 0.0
C286 C 0.29273 0.50151 0.26677 0.0
C287 C 0.3199 0.52629 0.25458 0.0
C288 C 0.27028 0.50471 0.29298 0.0
C289 C 0.32443 0.554 0.27002 0.0
C290 C 0.30267 0.55722 0.29693 0.0
C291 C 0.25343 0.53636 0.33392 0.0
C292 C 0.22555 0.51233 0.34321 0.0
C293 C 0.27553 0.53283 0.30835 0.0
C294 C 0.22031 0.48436 0.32781 0.0
C295 C 0.24254 0.48055 0.30344 0.0
H296 H 0.70204 0.24838 0.48837 0.0
H297 H 0.74543 0.19917 0.51975 0.0
H298 H 0.79056 0.23868 0.47803 0.0
H299 H 0.81762 0.28778 0.43199 0.0
H300 H 0.77133 0.334 0.39601 0.0
H301 H 0.7276 0.29514 0.43956 0.0
C302 C 0.72143 0.24635 0.48658 0.0
C303 C 0.72053 0.2211 0.50787 0.0
C304 C 0.74682 0.26863 0.46112 0.0
C305 C 0.74566 0.21853 0.50398 0.0
C306 C 0.77142 0.2411 0.48001 0.0
C307 C 0.7979 0.28919 0.43345 0.0
C308 C 0.79794 0.31391 0.41068 0.0
C309 C 0.77227 0.26631 0.4582 0.0
C310 C 0.7721 0.31531 0.41284 0.0
C311 C 0.74697 0.2931 0.43805 0.0
H312 H 0.54333 0.81038 0.58846 0.0
H313 H 0.44982 0.76628 0.5696 0.0
H314 H 0.44551 0.7228 0.61392 0.0
H315 H 0.4676 0.69701 0.6588 0.0
H316 H 0.56093 0.73827 0.67347 0.0
H317 H 0.56602 0.78296 0.63024 0.0
C318 C 0.52209 0.79118 0.59385 0.0
C319 C 0.49696 0.7917 0.57563 0.0
C320 C 0.51967 0.76572 0.61891 0.0
C321 C 0.46958 0.76656 0.58276 0.0
C322 C 0.46701 0.74161 0.60841 0.0
C323 C 0.48909 0.71582 0.65288 0.0
C324 C 0.51382 0.71446 0.66997 0.0
C325 C 0.49182 0.74097 0.62686 0.0
C326 C 0.54152 0.73884 0.66092 0.0
C327 C 0.54442 0.76437 0.63617 0.0
H328 H 0.73193 0.53297 0.7568 0.0
H329 H 0.67679 0.44077 0.78698 0.0
H330 H 0.71665 0.43879 0.83463 0.0
H331 H 0.76729 0.46225 0.86445 0.0
H332 H 0.82467 0.55352 0.82987 0.0
H333 H 0.78394 0.55695 0.78767 0.0
C334 C 0.72872 0.51255 0.77414 0.0
C335 C 0.70142 0.48703 0.76816 0.0
C336 C 0.75213 0.51138 0.80067 0.0
C337 C 0.6976 0.46067 0.7905 0.0
C338 C 0.72037 0.45951 0.81796 0.0
C339 C 0.77094 0.48304 0.84828 0.0
C340 C 0.79897 0.50764 0.85068 0.0
C341 C 0.74775 0.4846 0.82282 0.0
C342 C 0.80328 0.53426 0.82874 0.0
C343 C 0.78 0.53619 0.80448 0.0
H344 H 0.2493 0.69527 0.91954 0.0
H345 H 0.19772 0.73688 0.89748 0.0
H346 H 0.23676 0.7819 0.94066 0.0
H347 H 0.28589 0.8093 0.98628 0.0
H348 H 0.3348 0.76492 0.0126 0.0
H349 H 0.29656 0.72136 0.96677 0.0
C350 C 0.24667 0.71426 0.92361 0.0
C351 C 0.22081 0.71283 0.90465 0.0
C352 C 0.26874 0.73963 0.94989 0.0
C353 C 0.21753 0.73748 0.91142 0.0
C354 C 0.23982 0.7632 0.93626 0.0
C355 C 0.28805 0.79004 0.98212 0.0
C356 C 0.3133 0.79054 0.00304 0.0
C357 C 0.26555 0.76452 0.95604 0.0
C358 C 0.31567 0.7653 -0.00267 0.0
C359 C 0.29381 0.74028 0.97081 0.0
H360 H 0.63741 0.15422 0.75198 0.0
H361 H 0.57779 0.16497 0.64155 0.0
H362 H 0.54907 0.16344 0.72458 0.0
H363 H 0.54104 0.16022 0.82932 0.0
H364 H 0.60036 0.14943 0.9404 0.0
H365 H 0.6285 0.14958 0.85711 0.0
C366 C 0.61813 0.15617 0.74628 0.0
C367 C 0.60988 0.15971 0.69071 0.0
C368 C 0.60142 0.15522 0.7945 0.0
C369 C 0.58472 0.16213 0.68389 0.0
C370 C 0.56817 0.1613 0.7314 0.0
C371 C 0.56001 0.15773 0.83514 0.0
C372 C 0.56852 0.15488 0.89087 0.0
C373 C 0.57633 0.15798 0.78698 0.0
C374 C 0.59323 0.15169 0.89784 0.0
C375 C 0.60948 0.15183 0.85022 0.0
H376 H 0.43516 0.57633 0.84189 0.0
H377 H 0.50995 0.64881 0.92125 0.0
H378 H 0.49179 0.6282 0.01697 0.0
H379 H 0.45393 0.59039 0.07836 0.0
H380 H 0.3786 0.51845 -0.0008 0.0
H381 H 0.39778 0.53793 0.90325 0.0
C382 C 0.44755 0.58758 0.88011 0.0
C383 C 0.47387 0.61415 0.87437 0.0
C384 C 0.43687 0.57568 0.93509 0.0
C385 C 0.48963 0.6284 0.92438 0.0
C386 C 0.47925 0.61661 0.97917 0.0
C387 C 0.44178 0.57886 0.04012 0.0
C388 C 0.41481 0.553 0.046 0.0
C389 C 0.4528 0.59038 0.98508 0.0
C390 C 0.39936 0.5384 -0.00405 0.0
C391 C 0.41031 0.54956 0.94104 0.0
H392 H 0.86695 0.43273 0.01074 0.0
H393 H 0.87073 0.50857 0.08972 0.0
H394 H 0.87441 0.49106 0.18538 0.0
H395 H 0.87374 0.45282 0.24685 0.0
H396 H 0.86936 0.37674 0.16764 0.0
H397 H 0.86899 0.39587 0.07177 0.0
C398 C 0.86878 0.44556 0.04883 0.0
C399 C 0.86837 0.47185 0.0431 0.0
C400 C 0.87072 0.43526 0.10367 0.0
C401 C 0.87091 0.48823 0.0929 0.0
C402 C 0.87297 0.4782 0.14764 0.0
C403 C 0.87296 0.44053 0.2086 0.0
C404 C 0.8714 0.41328 0.21444 0.0
C405 C 0.87248 0.45154 0.15359 0.0
C406 C 0.8705 0.39771 0.16442 0.0
C407 C 0.87021 0.40861 0.10955 0.0
H408 H 0.43319 0.86488 0.40991 0.0
H409 H 0.50756 0.86593 0.33085 0.0
H410 H 0.48869 0.8669 0.23486 0.0
H411 H 0.44976 0.86479 0.17347 0.0
H412 H 0.3747 0.86217 0.25288 0.0
H413 H 0.39522 0.86459 0.34871 0.0
C414 C 0.44542 0.86556 0.37171 0.0
C415 C 0.47171 0.86522 0.37754 0.0
C416 C 0.43423 0.86569 0.31673 0.0
C417 C 0.48724 0.8661 0.32758 0.0
C418 C 0.47643 0.8666 0.27267 0.0
C419 C 0.43797 0.86495 0.21173 0.0
C420 C 0.41066 0.86318 0.20603 0.0
C421 C 0.44975 0.86599 0.26673 0.0
C422 C 0.39569 0.86342 0.25605 0.0
C423 C 0.40741 0.86478 0.31087 0.0
H424 H 0.6348 0.4851 0.49954 0.0
H425 H 0.58424 0.40688 0.59913 0.0
H426 H 0.559 0.38014 0.51254 0.0
H427 H 0.54994 0.37915 0.40855 0.0
H428 H 0.60026 0.45745 0.30878 0.0
H429 H 0.6264 0.48379 0.39474 0.0
C430 C 0.61859 0.46213 0.5018 0.0
C431 C 0.61133 0.44798 0.55516 0.0
C432 C 0.60366 0.44689 0.45189 0.0
C433 C 0.59004 0.41827 0.55813 0.0
C434 C 0.5755 0.40292 0.50878 0.0
C435 C 0.56649 0.40198 0.40587 0.0
C436 C 0.5729 0.41627 0.35264 0.0
C437 C 0.58179 0.41709 0.4555 0.0
C438 C 0.59465 0.44587 0.34948 0.0
C439 C 0.60983 0.46103 0.39858 0.0
H440 H 0.14961 0.529 0.58118 0.0
H441 H 0.18356 0.60684 0.47742 0.0
H442 H 0.18226 0.63458 0.5601 0.0
H443 H 0.17262 0.63744 0.66304 0.0
H444 H 0.13934 0.55996 0.7675 0.0
H445 H 0.13867 0.53162 0.68403 0.0
C446 C 0.15674 0.55201 0.57693 0.0
C447 C 0.16664 0.56575 0.52336 0.0
C448 C 0.1558 0.56802 0.62482 0.0
C449 C 0.17566 0.59561 0.51823 0.0
C450 C 0.17494 0.6116 0.56549 0.0
C451 C 0.16488 0.6143 0.66721 0.0
C452 C 0.15608 0.60093 0.72134 0.0
C453 C 0.16506 0.59809 0.61907 0.0
C454 C 0.14636 0.57093 0.72633 0.0
C455 C 0.14604 0.55461 0.67858 0.0
H456 H 0.47178 0.0582 0.09552 0.0
H457 H 0.48444 0.05182 0.91328 0.0
H458 H 0.45176 0.99901 0.91639 0.0
H459 H 0.42791 0.95427 0.97456 0.0
H460 H 0.42084 0.96023 0.15886 0.0
H461 H 0.44226 0.01325 0.15187 0.0
C462 C 0.46636 0.04527 0.05622 0.0
C463 C 0.48006 0.05875 0.00405 0.0
C464 C 0.44881 0.0147 0.05914 0.0
C465 C 0.47375 0.04183 0.95363 0.0
C466 C 0.45529 0.01163 0.95558 0.0
C467 C 0.42995 0.96716 0.01271 0.0
C468 C 0.42235 0.95351 0.06698 0.0
C469 C 0.4438 0.99771 0.00855 0.0
C470 C 0.426 0.97034 0.11657 0.0
C471 C 0.43858 1.00066 0.11257 0.0
H472 H 0.47956 0.41945 0.1423 0.0
H473 H 0.48101 0.42564 0.32796 0.0
H474 H 0.44778 0.44524 0.32465 0.0
H475 H 0.42724 0.47015 0.26803 0.0
H476 H 0.43166 0.46994 0.08223 0.0
H477 H 0.4529 0.4381 0.08583 0.0
C478 C 0.47147 0.42388 0.18198 0.0
C479 C 0.4822 0.42067 0.23536 0.0
C480 C 0.45374 0.43675 0.17939 0.0
C481 C 0.47252 0.42745 0.28653 0.0
C482 C 0.45382 0.43898 0.28453 0.0
C483 C 0.4317 0.462 0.22844 0.0
C484 C 0.4275 0.47187 0.1749 0.0
C485 C 0.44547 0.44508 0.23112 0.0
C486 C 0.43427 0.46213 0.1238 0.0
C487 C 0.44672 0.44421 0.12595 0.0
H488 H 0.05604 0.46858 0.45573 0.0
H489 H 0.07903 0.50208 0.28248 0.0
H490 H 0.02809 0.47418 0.2529 0.0
H491 H 0.97655 0.44687 0.28046 0.0
H492 H 0.95258 0.41171 0.4522 0.0
H493 H 1.0041 0.43285 0.47807 0.0
C494 C 0.04985 0.46889 0.41118 0.0
C495 C 0.07107 0.48724 0.37116 0.0
C496 C 0.02032 0.45269 0.39439 0.0
C497 C 0.06295 0.48788 0.31371 0.0
C498 C 0.03383 0.4721 0.29688 0.0
C499 C 0.98266 0.44301 0.32288 0.0
C500 C 0.96094 0.42786 0.3644 0.0
C501 C 1.01224 0.45534 0.33736 0.0
C502 C 0.96899 0.42305 0.41935 0.0
C503 C 0.99846 0.43546 0.43435 0.0
H504 H 0.55491 0.97155 0.44845 0.0
H505 H 0.54314 0.94425 0.62634 0.0
H506 H 0.57103 0.99509 0.65817 0.0
H507 H 0.59089 0.04739 0.63496 0.0
H508 H 0.60564 0.07453 0.45687 0.0
H509 H 0.58501 0.02388 0.42526 0.0
C510 C 0.55956 0.97679 0.49398 0.0
C511 C 0.54714 0.95438 0.53507 0.0
C512 C 0.57575 1.00607 0.51188 0.0
C513 C 0.55289 0.96125 0.59402 0.0
C514 C 0.56851 0.99033 0.61225 0.0
C515 C 0.59051 0.04217 0.58946 0.0
C516 C 0.59964 0.06444 0.54818 0.0
C517 C 0.57893 0.01296 0.57162 0.0
C518 C 0.59893 0.05761 0.48927 0.0
C519 C 0.58691 0.02866 0.47118 0.0
H520 H 0.59848 0.53864 0.75946 0.0
H521 H 0.59651 0.54831 0.57507 0.0
H522 H 0.57736 0.58167 0.58842 0.0
H523 H 0.55227 0.59979 0.65171 0.0
H524 H 0.54664 0.58256 0.83448 0.0
H525 H 0.57786 0.56087 0.82347 0.0
C526 C 0.59494 0.54905 0.72245 0.0
C527 C 0.59931 0.54157 0.66643 0.0
C528 C 0.58198 0.56642 0.73048 0.0
C529 C 0.5937 0.55423 0.61853 0.0
C530 C 0.58246 0.573 0.62623 0.0
C531 C 0.55884 0.5922 0.68923 0.0
C532 C 0.54765 0.59303 0.74393 0.0
C533 C 0.57522 0.57812 0.68185 0.0
C534 C 0.55539 0.58238 0.79218 0.0
C535 C 0.57302 0.56981 0.78575 0.0
H536 H 0.04764 0.5644 0.7783 0.0
H537 H 0.07285 0.61553 0.93472 0.0
H538 H 0.02153 0.59685 0.95948 0.0
H539 H 0.96947 0.55934 0.94375 0.0
H540 H 0.94543 0.50904 0.78613 0.0
H541 H 0.99604 0.53424 0.75411 0.0
C542 C 0.04183 0.57209 0.81691 0.0
C543 C 0.06382 0.59106 0.85484 0.0
C544 C 1.01241 0.5611 0.83092 0.0
C545 C 0.0562 0.60102 0.90469 0.0
C546 C 0.02685 0.5901 0.91914 0.0
C547 C 0.97536 0.55472 0.90169 0.0
C548 C 0.95399 0.53244 0.8672 0.0
C549 C 1.00474 0.56918 0.88372 0.0
C550 C 0.96169 0.52623 0.81309 0.0
C551 C 0.9906 0.54049 0.79493 0.0
loop_
_geom_bond_atom_site_label_1
_geom_bond_atom_site_label_2
_geom_bond_distance
_geom_bond_site_symmetry_2
_ccdc_geom_bond_type
Co0 O1 2.216 . S
Co0 O2 2.091 . S
Co0 O4 2.004 . S
Co0 O10 2.021 . S
Co0 O12 2.137 1_554 S
Co0 O13 2.244 . S
O1 Co0 2.216 . S
O1 C8 1.247 . S
O2 Co0 2.091 . S
O2 C8 1.261 . S
C3 O12 1.247 . S
C3 O13 1.272 1_556 S
O4 Co0 2.004 . S
O4 C9 1.259 . S
Co5 O6 2.061 . S
Co5 O11 2.052 . S
Co5 O13 2.135 . S
O6 Co5 2.061 . S
O6 C9 1.235 . S
C7 O10 1.238 . S
C7 O11 1.241 . S
C8 O1 1.247 . S
C8 O2 1.261 . S
C9 O4 1.259 . S
C9 O6 1.235 . S
O10 Co0 2.021 . S
O10 C7 1.238 . S
O11 Co5 2.052 . S
O11 C7 1.241 . S
O12 Co0 2.137 1_556 S
O12 C3 1.247 . S
O13 Co0 2.244 . S
O13 C3 1.272 1_554 S
O13 Co5 2.135 . S
Co14 O15 2.216 . S
Co14 O16 2.091 . S
Co14 O18 2.004 . S
Co14 O24 2.021 . S
Co14 O26 2.137 . S
Co14 O27 2.244 . S
O15 Co14 2.216 . S
O15 C22 1.247 . S
O16 Co14 2.091 . S
O16 C22 1.261 . S
C17 O26 1.247 . S
C17 O27 1.272 . S
O18 Co14 2.004 . S
O18 C23 1.259 . S
Co19 O20 2.061 . S
Co19 O25 2.052 . S
Co19 O27 2.135 . S
O20 Co19 2.061 . S
O20 C23 1.235 . S
C21 O24 1.238 . S
C21 O25 1.241 . S
C22 O15 1.247 . S
C22 O16 1.261 . S
C23 O18 1.259 . S
C23 O20 1.235 . S
O24 Co14 2.021 . S
O24 C21 1.238 . S
O25 Co19 2.052 . S
O25 C21 1.241 . S
O26 Co14 2.137 . S
O26 C17 1.247 . S
O27 Co14 2.244 . S
O27 C17 1.272 . S
O27 Co19 2.135 . S
Co28 O29 2.216 . S
Co28 O30 2.091 . S
Co28 O32 2.004 . S
Co28 O38 2.021 . S
Co28 O40 2.137 . S
Co28 O41 2.244 . S
O29 Co28 2.216 . S
O29 C36 1.247 . S
O30 Co28 2.091 . S
O30 C36 1.261 . S
C31 O40 1.247 . S
C31 O41 1.272 . S
O32 Co28 2.004 . S
O32 C37 1.259 . S
Co33 O34 2.061 . S
Co33 O39 2.052 . S
Co33 O41 2.135 . S
O34 Co33 2.061 . S
O34 C37 1.235 . S
C35 O38 1.238 . S
C35 O39 1.241 . S
C36 O29 1.247 . S
C36 O30 1.261 . S
C37 O32 1.259 . S
C37 O34 1.235 . S
O38 Co28 2.021 . S
O38 C35 1.238 . S
O39 Co33 2.052 . S
O39 C35 1.241 . S
O40 Co28 2.137 . S
O40 C31 1.247 . S
O41 Co28 2.244 . S
O41 C31 1.272 . S
O41 Co33 2.135 . S
Co42 O43 2.216 . S
Co42 O44 2.091 . S
Co42 O46 2.004 . S
Co42 O52 2.021 . S
Co42 O54 2.137 . S
Co42 O55 2.244 . S
O43 Co42 2.216 . S
O43 C50 1.247 . S
O44 Co42 2.091 . S
O44 C50 1.261 . S
C45 O54 1.247 . S
C45 O55 1.272 . S
O46 Co42 2.004 . S
O46 C51 1.259 . S
Co47 O48 2.061 . S
Co47 O53 2.052 . S
Co47 O55 2.135 . S
O48 Co47 2.061 . S
O48 C51 1.235 . S
C49 O52 1.238 . S
C49 O53 1.241 . S
C50 O43 1.247 . S
C50 O44 1.261 . S
C51 O46 1.259 . S
C51 O48 1.235 . S
O52 Co42 2.021 . S
O52 C49 1.238 . S
O53 Co47 2.052 . S
O53 C49 1.241 . S
O54 Co42 2.137 . S
O54 C45 1.247 . S
O55 Co42 2.244 . S
O55 C45 1.272 . S
O55 Co47 2.135 . S
Co56 O57 2.216 . S
Co56 O58 2.091 . S
Co56 O60 2.004 . S
Co56 O66 2.021 . S
Co56 O68 2.137 . S
Co56 O69 2.244 . S
O57 Co56 2.216 . S
O57 C64 1.247 . S
O58 Co56 2.091 . S
O58 C64 1.261 . S
C59 O68 1.247 . S
C59 O69 1.272 . S
O60 Co56 2.004 . S
O60 C65 1.259 . S
Co61 O62 2.061 . S
Co61 O67 2.052 . S
Co61 O69 2.135 . S
O62 Co61 2.061 . S
O62 C65 1.235 . S
C63 O66 1.238 . S
C63 O67 1.241 . S
C64 O57 1.247 . S
C64 O58 1.261 . S
C65 O60 1.259 . S
C65 O62 1.235 . S
O66 Co56 2.021 . S
O66 C63 1.238 . S
O67 Co61 2.052 . S
O67 C63 1.241 . S
O68 Co56 2.137 . S
O68 C59 1.247 . S
O69 Co56 2.244 . S
O69 C59 1.272 . S
O69 Co61 2.135 . S
Co70 O71 2.216 . S
Co70 O72 2.091 . S
Co70 O74 2.004 . S
Co70 O80 2.021 . S
Co70 O82 2.137 . S
Co70 O83 2.244 . S
O71 Co70 2.216 . S
O71 C78 1.247 . S
O72 Co70 2.091 . S
O72 C78 1.261 . S
C73 O82 1.247 . S
C73 O83 1.272 . S
O74 Co70 2.004 . S
O74 C79 1.259 . S
Co75 O76 2.061 . S
Co75 O81 2.052 . S
Co75 O83 2.135 . S
O76 Co75 2.061 . S
O76 C79 1.235 . S
C77 O80 1.238 . S
C77 O81 1.241 . S
C78 O71 1.247 . S
C78 O72 1.261 . S
C79 O74 1.259 . S
C79 O76 1.235 . S
O80 Co70 2.021 . S
O80 C77 1.238 . S
O81 Co75 2.052 . S
O81 C77 1.241 . S
O82 Co70 2.137 . S
O82 C73 1.247 . S
O83 Co70 2.244 . S
O83 C73 1.272 . S
O83 Co75 2.135 . S
Co84 O85 2.216 . S
Co84 O86 2.091 . S
Co84 O88 2.004 . S
Co84 O94 2.021 . S
Co84 O96 2.137 . S
Co84 O97 2.244 . S
O85 Co84 2.216 . S
O85 C92 1.247 . S
O86 Co84 2.091 . S
O86 C92 1.261 . S
C87 O96 1.247 . S
C87 O97 1.272 . S
O88 Co84 2.004 . S
O88 C93 1.259 . S
Co89 O90 2.061 . S
Co89 O95 2.052 . S
Co89 O97 2.135 . S
O90 Co89 2.061 . S
O90 C93 1.235 . S
C91 O94 1.238 . S
C91 O95 1.241 . S
C92 O85 1.247 . S
C92 O86 1.261 . S
C93 O88 1.259 . S
C93 O90 1.235 . S
O94 Co84 2.021 . S
O94 C91 1.238 . S
O95 Co89 2.052 . S
O95 C91 1.241 . S
O96 Co84 2.137 . S
O96 C87 1.247 . S
O97 Co84 2.244 . S
O97 C87 1.272 . S
O97 Co89 2.135 . S
Co98 O99 2.216 . S
Co98 O100 2.091 . S
Co98 O102 2.004 . S
Co98 O108 2.021 1_554 S
Co98 O110 2.137 . S
Co98 O111 2.244 . S
O99 Co98 2.216 . S
O99 C106 1.247 . S
O100 Co98 2.091 . S
O100 C106 1.261 . S
C101 O110 1.247 . S
C101 O111 1.272 . S
O102 Co98 2.004 . S
O102 C107 1.259 . S
Co103 O104 2.061 . S
Co103 O109 2.052 1_554 S
Co103 O111 2.135 . S
O104 Co103 2.061 . S
O104 C107 1.235 . S
C105 O108 1.238 . S
C105 O109 1.241 . S
C106 O99 1.247 . S
C106 O100 1.261 . S
C107 O102 1.259 . S
C107 O104 1.235 . S
O108 Co98 2.021 1_556 S
O108 C105 1.238 . S
O109 Co103 2.052 1_556 S
O109 C105 1.241 . S
O110 Co98 2.137 . S
O110 C101 1.247 . S
O111 Co98 2.244 . S
O111 C101 1.272 . S
O111 Co103 2.135 . S
Co112 O113 2.216 . S
Co112 O114 2.091 . S
Co112 O116 2.004 . S
Co112 O122 2.021 . S
Co112 O124 2.137 . S
Co112 O125 2.244 . S
O113 Co112 2.216 . S
O113 C120 1.247 . S
O114 Co112 2.091 . S
O114 C120 1.261 . S
C115 O124 1.247 . S
C115 O125 1.272 . S
O116 Co112 2.004 . S
O116 C121 1.259 . S
Co117 O118 2.061 . S
Co117 O123 2.052 . S
Co117 O125 2.135 . S
O118 Co117 2.061 . S
O118 C121 1.235 . S
C119 O122 1.238 . S
C119 O123 1.241 . S
C120 O113 1.247 . S
C120 O114 1.261 . S
C121 O116 1.259 . S
C121 O118 1.235 . S
O122 Co112 2.021 . S
O122 C119 1.238 . S
O123 Co117 2.052 . S
O123 C119 1.241 . S
O124 Co112 2.137 . S
O124 C115 1.247 . S
O125 Co112 2.244 . S
O125 C115 1.272 . S
O125 Co117 2.135 . S
Co126 O127 2.216 . S
Co126 O128 2.091 . S
Co126 O130 2.004 . S
Co126 O136 2.021 . S
Co126 O138 2.137 . S
Co126 O139 2.244 . S
O127 Co126 2.216 . S
O127 C134 1.247 . S
O128 Co126 2.091 . S
O128 C134 1.261 . S
C129 O138 1.247 . S
C129 O139 1.272 . S
O130 Co126 2.004 . S
O130 C135 1.259 . S
Co131 O132 2.061 . S
Co131 O137 2.052 . S
Co131 O139 2.135 . S
O132 Co131 2.061 . S
O132 C135 1.235 . S
C133 O136 1.238 . S
C133 O137 1.241 . S
C134 O127 1.247 . S
C134 O128 1.261 . S
C135 O130 1.259 . S
C135 O132 1.235 . S
O136 Co126 2.021 . S
O136 C133 1.238 . S
O137 Co131 2.052 . S
O137 C133 1.241 . S
O138 Co126 2.137 . S
O138 C129 1.247 . S
O139 Co126 2.244 . S
O139 C129 1.272 . S
O139 Co131 2.135 . S
Co140 O141 2.216 . S
Co140 O142 2.091 . S
Co140 O144 2.004 . S
Co140 O150 2.021 . S
Co140 O152 2.137 . S
Co140 O153 2.244 . S
O141 Co140 2.216 . S
O141 C148 1.247 . S
O142 Co140 2.091 . S
O142 C148 1.261 . S
C143 O152 1.247 . S
C143 O153 1.272 . S
O144 Co140 2.004 . S
O144 C149 1.259 . S
Co145 O146 2.061 . S
Co145 O151 2.052 . S
Co145 O153 2.135 . S
O146 Co145 2.061 . S
O146 C149 1.235 . S
C147 O150 1.238 . S
C147 O151 1.241 . S
C148 O141 1.247 . S
C148 O142 1.261 . S
C149 O144 1.259 . S
C149 O146 1.235 . S
O150 Co140 2.021 . S
O150 C147 1.238 . S
O151 Co145 2.052 . S
O151 C147 1.241 . S
O152 Co140 2.137 . S
O152 C143 1.247 . S
O153 Co140 2.244 . S
O153 C143 1.272 . S
O153 Co145 2.135 . S
Co154 O155 2.216 . S
Co154 O156 2.091 . S
Co154 O158 2.004 . S
Co154 O164 2.021 . S
Co154 O166 2.137 . S
Co154 O167 2.244 . S
O155 Co154 2.216 . S
O155 C162 1.247 . S
O156 Co154 2.091 . S
O156 C162 1.261 . S
C157 O166 1.247 . S
C157 O167 1.272 . S
O158 Co154 2.004 . S
O158 C163 1.259 . S
Co159 O160 2.061 . S
Co159 O165 2.052 . S
Co159 O167 2.135 . S
O160 Co159 2.061 . S
O160 C163 1.235 . S
C161 O164 1.238 . S
C161 O165 1.241 . S
C162 O155 1.247 . S
C162 O156 1.261 . S
C163 O158 1.259 . S
C163 O160 1.235 . S
O164 Co154 2.021 . S
O164 C161 1.238 . S
O165 Co159 2.052 . S
O165 C161 1.241 . S
O166 Co154 2.137 . S
O166 C157 1.247 . S
O167 Co154 2.244 . S
O167 C157 1.272 . S
O167 Co159 2.135 . S
H168 C174 0.930 . S
H169 C177 0.930 . S
H170 C178 0.930 . S
H171 C179 0.930 . S
H172 C182 0.930 . S
H173 C183 0.930 . S
C174 H168 0.930 . S
C174 C175 1.355 . S
C174 C176 1.415 . S
C175 C174 1.355 . S
C175 C177 1.419 . S
C176 C174 1.415 . S
C176 C181 1.425 . S
C176 C183 1.409 . S
C177 H169 0.930 . S
C177 C175 1.419 . S
C177 C178 1.362 . S
C178 H170 0.930 . S
C178 C177 1.362 . S
C178 C181 1.409 . S
C179 H171 0.930 . S
C179 C180 1.355 . S
C179 C181 1.415 . S
C180 C179 1.355 . S
C180 C182 1.419 . S
C181 C176 1.425 . S
C181 C178 1.409 . S
C181 C179 1.415 . S
C182 H172 0.930 . S
C182 C180 1.419 . S
C182 C183 1.362 . S
C183 H173 0.930 . S
C183 C176 1.409 . S
C183 C182 1.362 . S
H184 C190 0.930 . S
H185 C193 0.930 . S
H186 C194 0.930 . S
H187 C195 0.930 . S
H188 C198 0.930 . S
H189 C199 0.930 . S
C190 H184 0.930 . S
C190 C191 1.355 . S
C190 C192 1.415 . S
C191 C190 1.355 . S
C191 C193 1.419 . S
C192 C190 1.415 . S
C192 C197 1.425 . S
C192 C199 1.409 . S
C193 H185 0.930 . S
C193 C191 1.419 . S
C193 C194 1.362 . S
C194 H186 0.930 . S
C194 C193 1.362 . S
C194 C197 1.409 . S
C195 H187 0.930 . S
C195 C196 1.355 . S
C195 C197 1.415 . S
C196 C195 1.355 . S
C196 C198 1.419 . S
C197 C192 1.425 . S
C197 C194 1.409 . S
C197 C195 1.415 . S
C198 H188 0.930 . S
C198 C196 1.419 . S
C198 C199 1.362 . S
C199 H189 0.930 . S
C199 C192 1.409 . S
C199 C198 1.362 . S
H200 C206 0.930 . S
H201 C209 0.930 . S
H202 C210 0.930 . S
H203 C211 0.930 . S
H204 C214 0.930 . S
H205 C215 0.930 . S
C206 H200 0.930 . S
C206 C207 1.355 . S
C206 C208 1.415 . S
C207 C206 1.355 . S
C207 C209 1.419 . S
C208 C206 1.415 . S
C208 C213 1.425 . S
C208 C215 1.409 . S
C209 H201 0.930 . S
C209 C207 1.419 . S
C209 C210 1.362 . S
C210 H202 0.930 . S
C210 C209 1.362 . S
C210 C213 1.409 . S
C211 H203 0.930 . S
C211 C212 1.355 . S
C211 C213 1.415 . S
C212 C211 1.355 . S
C212 C214 1.419 . S
C213 C208 1.425 . S
C213 C210 1.409 . S
C213 C211 1.415 . S
C214 H204 0.930 . S
C214 C212 1.419 . S
C214 C215 1.362 . S
C215 H205 0.930 . S
C215 C208 1.409 . S
C215 C214 1.362 . S
H216 C222 0.930 . S
H217 C225 0.930 . S
H218 C226 0.930 . S
H219 C227 0.930 . S
H220 C230 0.930 . S
H221 C231 0.930 . S
C222 H216 0.930 . S
C222 C223 1.355 . S
C222 C224 1.415 . S
C223 C222 1.355 . S
C223 C225 1.419 . S
C224 C222 1.415 . S
C224 C229 1.425 . S
C224 C231 1.409 . S
C225 H217 0.930 . S
C225 C223 1.419 . S
C225 C226 1.362 . S
C226 H218 0.930 . S
C226 C225 1.362 . S
C226 C229 1.409 . S
C227 H219 0.930 . S
C227 C228 1.355 . S
C227 C229 1.415 . S
C228 C227 1.355 . S
C228 C230 1.419 . S
C229 C224 1.425 . S
C229 C226 1.409 . S
C229 C227 1.415 . S
C230 H220 0.930 . S
C230 C228 1.419 . S
C230 C231 1.362 . S
C231 H221 0.930 . S
C231 C224 1.409 . S
C231 C230 1.362 . S
H232 C238 0.930 . S
H233 C241 0.930 . S
H234 C242 0.930 . S
H235 C243 0.930 . S
H236 C246 0.930 . S
H237 C247 0.930 . S
C238 H232 0.930 . S
C238 C239 1.355 . S
C238 C240 1.415 1_554 S
C239 C238 1.355 . S
C239 C241 1.419 . S
C240 C238 1.415 1_556 S
C240 C245 1.425 . S
C240 C247 1.409 . S
C241 H233 0.930 . S
C241 C239 1.419 . S
C241 C242 1.362 . S
C242 H234 0.930 . S
C242 C241 1.362 . S
C242 C245 1.409 1_554 S
C243 H235 0.930 . S
C243 C244 1.355 . S
C243 C245 1.415 . S
C244 C243 1.355 . S
C244 C246 1.419 . S
C245 C240 1.425 . S
C245 C242 1.409 1_556 S
C245 C243 1.415 . S
C246 H236 0.930 . S
C246 C244 1.419 . S
C246 C247 1.362 . S
C247 H237 0.930 . S
C247 C240 1.409 . S
C247 C246 1.362 . S
H248 C254 0.930 . S
H249 C257 0.930 . S
H250 C258 0.930 . S
H251 C259 0.930 . S
H252 C262 0.930 . S
H253 C263 0.930 . S
C254 H248 0.930 . S
C254 C255 1.355 . S
C254 C256 1.415 . S
C255 C254 1.355 . S
C255 C257 1.419 . S
C256 C254 1.415 . S
C256 C261 1.425 . S
C256 C263 1.409 . S
C257 H249 0.930 . S
C257 C255 1.419 . S
C257 C258 1.362 . S
C258 H250 0.930 . S
C258 C257 1.362 . S
C258 C261 1.409 . S
C259 H251 0.930 . S
C259 C260 1.355 . S
C259 C261 1.415 . S
C260 C259 1.355 . S
C260 C262 1.419 . S
C261 C256 1.425 . S
C261 C258 1.409 . S
C261 C259 1.415 . S
C262 H252 0.930 . S
C262 C260 1.419 . S
C262 C263 1.362 . S
C263 H253 0.930 . S
C263 C256 1.409 . S
C263 C262 1.362 . S
H264 C270 0.930 . S
H265 C273 0.930 . S
H266 C274 0.930 . S
H267 C275 0.930 . S
H268 C278 0.930 . S
H269 C279 0.930 . S
C270 H264 0.930 . S
C270 C271 1.355 . S
C270 C272 1.415 . S
C271 C270 1.355 . S
C271 C273 1.419 . S
C272 C270 1.415 . S
C272 C277 1.425 . S
C272 C279 1.409 . S
C273 H265 0.930 . S
C273 C271 1.419 . S
C273 C274 1.362 . S
C274 H266 0.930 . S
C274 C273 1.362 . S
C274 C277 1.409 . S
C275 H267 0.930 . S
C275 C276 1.355 . S
C275 C277 1.415 . S
C276 C275 1.355 . S
C276 C278 1.419 . S
C277 C272 1.425 . S
C277 C274 1.409 . S
C277 C275 1.415 . S
C278 H268 0.930 . S
C278 C276 1.419 . S
C278 C279 1.362 . S
C279 H269 0.930 . S
C279 C272 1.409 . S
C279 C278 1.362 . S
H280 C286 0.930 . S
H281 C289 0.930 . S
H282 C290 0.930 . S
H283 C291 0.930 . S
H284 C294 0.930 . S
H285 C295 0.930 . S
C286 H280 0.930 . S
C286 C287 1.355 . S
C286 C288 1.415 . S
C287 C286 1.355 . S
C287 C289 1.419 . S
C288 C286 1.415 . S
C288 C293 1.425 . S
C288 C295 1.409 . S
C289 H281 0.930 . S
C289 C287 1.419 . S
C289 C290 1.362 . S
C290 H282 0.930 . S
C290 C289 1.362 . S
C290 C293 1.409 . S
C291 H283 0.930 . S
C291 C292 1.355 . S
C291 C293 1.415 . S
C292 C291 1.355 . S
C292 C294 1.419 . S
C293 C288 1.425 . S
C293 C290 1.409 . S
C293 C291 1.415 . S
C294 H284 0.930 . S
C294 C292 1.419 . S
C294 C295 1.362 . S
C295 H285 0.930 . S
C295 C288 1.409 . S
C295 C294 1.362 . S
H296 C302 0.930 . S
H297 C305 0.930 . S
H298 C306 0.930 . S
H299 C307 0.930 . S
H300 C310 0.930 . S
H301 C311 0.930 . S
C302 H296 0.930 . S
C302 C303 1.355 . S
C302 C304 1.415 . S
C303 C302 1.355 . S
C303 C305 1.419 . S
C304 C302 1.415 . S
C304 C309 1.425 . S
C304 C311 1.409 . S
C305 H297 0.930 . S
C305 C303 1.419 . S
C305 C306 1.362 . S
C306 H298 0.930 . S
C306 C305 1.362 . S
C306 C309 1.409 . S
C307 H299 0.930 . S
C307 C308 1.355 . S
C307 C309 1.415 . S
C308 C307 1.355 . S
C308 C310 1.419 . S
C309 C304 1.425 . S
C309 C306 1.409 . S
C309 C307 1.415 . S
C310 H300 0.930 . S
C310 C308 1.419 . S
C310 C311 1.362 . S
C311 H301 0.930 . S
C311 C304 1.409 . S
C311 C310 1.362 . S
H312 C318 0.930 . S
H313 C321 0.930 . S
H314 C322 0.930 . S
H315 C323 0.930 . S
H316 C326 0.930 . S
H317 C327 0.930 . S
C318 H312 0.930 . S
C318 C319 1.355 . S
C318 C320 1.415 . S
C319 C318 1.355 . S
C319 C321 1.419 . S
C320 C318 1.415 . S
C320 C325 1.425 . S
C320 C327 1.409 . S
C321 H313 0.930 . S
C321 C319 1.419 . S
C321 C322 1.362 . S
C322 H314 0.930 . S
C322 C321 1.362 . S
C322 C325 1.409 . S
C323 H315 0.930 . S
C323 C324 1.355 . S
C323 C325 1.415 . S
C324 C323 1.355 . S
C324 C326 1.419 . S
C325 C320 1.425 . S
C325 C322 1.409 . S
C325 C323 1.415 . S
C326 H316 0.930 . S
C326 C324 1.419 . S
C326 C327 1.362 . S
C327 H317 0.930 . S
C327 C320 1.409 . S
C327 C326 1.362 . S
H328 C334 0.930 . S
H329 C337 0.930 . S
H330 C338 0.930 . S
H331 C339 0.930 . S
H332 C342 0.930 . S
H333 C343 0.930 . S
C334 H328 0.930 . S
C334 C335 1.355 . S
C334 C336 1.415 . S
C335 C334 1.355 . S
C335 C337 1.419 . S
C336 C334 1.415 . S
C336 C341 1.425 . S
C336 C343 1.409 . S
C337 H329 0.930 . S
C337 C335 1.419 . S
C337 C338 1.362 . S
C338 H330 0.930 . S
C338 C337 1.362 . S
C338 C341 1.409 . S
C339 H331 0.930 . S
C339 C340 1.355 . S
C339 C341 1.415 . S
C340 C339 1.355 . S
C340 C342 1.419 . S
C341 C336 1.425 . S
C341 C338 1.409 . S
C341 C339 1.415 . S
C342 H332 0.930 . S
C342 C340 1.419 . S
C342 C343 1.362 . S
C343 H333 0.930 . S
C343 C336 1.409 . S
C343 C342 1.362 . S
H344 C350 0.930 . S
H345 C353 0.930 . S
H346 C354 0.930 . S
H347 C355 0.930 . S
H348 C358 0.930 . S
H349 C359 0.930 . S
C350 H344 0.930 . S
C350 C351 1.355 . S
C350 C352 1.415 . S
C351 C350 1.355 . S
C351 C353 1.419 . S
C352 C350 1.415 . S
C352 C357 1.425 . S
C352 C359 1.409 1_556 S
C353 H345 0.930 . S
C353 C351 1.419 . S
C353 C354 1.362 . S
C354 H346 0.930 . S
C354 C353 1.362 . S
C354 C357 1.409 . S
C355 H347 0.930 . S
C355 C356 1.355 1_556 S
C355 C357 1.415 . S
C356 C355 1.355 1_554 S
C356 C358 1.419 . S
C357 C352 1.425 . S
C357 C354 1.409 . S
C357 C355 1.415 . S
C358 H348 0.930 . S
C358 C356 1.419 . S
C358 C359 1.362 . S
C359 H349 0.930 . S
C359 C352 1.409 1_554 S
C359 C358 1.362 . S
H360 C366 0.930 . S
H361 C369 0.930 . S
H362 C370 0.930 . S
H363 C371 0.930 . S
H364 C374 0.930 . S
H365 C375 0.930 . S
C366 H360 0.930 . S
C366 C367 1.355 . S
C366 C368 1.415 . S
C367 C366 1.355 . S
C367 C369 1.419 . S
C368 C366 1.415 . S
C368 C373 1.425 . S
C368 C375 1.409 . S
C369 H361 0.930 . S
C369 C367 1.419 . S
C369 C370 1.362 . S
C370 H362 0.930 . S
C370 C369 1.362 . S
C370 C373 1.409 . S
C371 H363 0.930 . S
C371 C372 1.355 . S
C371 C373 1.415 . S
C372 C371 1.355 . S
C372 C374 1.419 . S
C373 C368 1.425 . S
C373 C370 1.409 . S
C373 C371 1.415 . S
C374 H364 0.930 . S
C374 C372 1.419 . S
C374 C375 1.362 . S
C375 H365 0.930 . S
C375 C368 1.409 . S
C375 C374 1.362 . S
H376 C382 0.930 . S
H377 C385 0.930 . S
H378 C386 0.930 . S
H379 C387 0.930 . S
H380 C390 0.930 . S
H381 C391 0.930 . S
C382 H376 0.930 . S
C382 C383 1.355 . S
C382 C384 1.415 . S
C383 C382 1.355 . S
C383 C385 1.419 . S
C384 C382 1.415 . S
C384 C389 1.425 . S
C384 C391 1.409 . S
C385 H377 0.930 . S
C385 C383 1.419 . S
C385 C386 1.362 . S
C386 H378 0.930 . S
C386 C385 1.362 . S
C386 C389 1.409 . S
C387 H379 0.930 . S
C387 C388 1.355 . S
C387 C389 1.415 1_554 S
C388 C387 1.355 . S
C388 C390 1.419 . S
C389 C384 1.425 . S
C389 C386 1.409 . S
C389 C387 1.415 1_556 S
C390 H380 0.930 . S
C390 C388 1.419 . S
C390 C391 1.362 1_554 S
C391 H381 0.930 . S
C391 C384 1.409 . S
C391 C390 1.362 1_556 S
H392 C398 0.930 . S
H393 C401 0.930 . S
H394 C402 0.930 . S
H395 C403 0.930 . S
H396 C406 0.930 . S
H397 C407 0.930 . S
C398 H392 0.930 . S
C398 C399 1.355 . S
C398 C400 1.415 . S
C399 C398 1.355 . S
C399 C401 1.419 . S
C400 C398 1.415 . S
C400 C405 1.425 . S
C400 C407 1.409 . S
C401 H393 0.930 . S
C401 C399 1.419 . S
C401 C402 1.362 . S
C402 H394 0.930 . S
C402 C401 1.362 . S
C402 C405 1.409 . S
C403 H395 0.930 . S
C403 C404 1.355 . S
C403 C405 1.415 . S
C404 C403 1.355 . S
C404 C406 1.419 . S
C405 C400 1.425 . S
C405 C402 1.409 . S
C405 C403 1.415 . S
C406 H396 0.930 . S
C406 C404 1.419 . S
C406 C407 1.362 . S
C407 H397 0.930 . S
C407 C400 1.409 . S
C407 C406 1.362 . S
H408 C414 0.930 . S
H409 C417 0.930 . S
H410 C418 0.930 . S
H411 C419 0.930 . S
H412 C422 0.930 . S
H413 C423 0.930 . S
C414 H408 0.930 . S
C414 C415 1.355 . S
C414 C416 1.415 . S
C415 C414 1.355 . S
C415 C417 1.419 . S
C416 C414 1.415 . S
C416 C421 1.425 . S
C416 C423 1.409 . S
C417 H409 0.930 . S
C417 C415 1.419 . S
C417 C418 1.362 . S
C418 H410 0.930 . S
C418 C417 1.362 . S
C418 C421 1.409 . S
C419 H411 0.930 . S
C419 C420 1.355 . S
C419 C421 1.415 . S
C420 C419 1.355 . S
C420 C422 1.419 . S
C421 C416 1.425 . S
C421 C418 1.409 . S
C421 C419 1.415 . S
C422 H412 0.930 . S
C422 C420 1.419 . S
C422 C423 1.362 . S
C423 H413 0.930 . S
C423 C416 1.409 . S
C423 C422 1.362 . S
H424 C430 0.930 . S
H425 C433 0.930 . S
H426 C434 0.930 . S
H427 C435 0.930 . S
H428 C438 0.930 . S
H429 C439 0.930 . S
C430 H424 0.930 . S
C430 C431 1.355 . S
C430 C432 1.415 . S
C431 C430 1.355 . S
C431 C433 1.419 . S
C432 C430 1.415 . S
C432 C437 1.425 . S
C432 C439 1.409 . S
C433 H425 0.930 . S
C433 C431 1.419 . S
C433 C434 1.362 . S
C434 H426 0.930 . S
C434 C433 1.362 . S
C434 C437 1.409 . S
C435 H427 0.930 . S
C435 C436 1.355 . S
C435 C437 1.415 . S
C436 C435 1.355 . S
C436 C438 1.419 . S
C437 C432 1.425 . S
C437 C434 1.409 . S
C437 C435 1.415 . S
C438 H428 0.930 . S
C438 C436 1.419 . S
C438 C439 1.362 . S
C439 H429 0.930 . S
C439 C432 1.409 . S
C439 C438 1.362 . S
H440 C446 0.930 . S
H441 C449 0.930 . S
H442 C450 0.930 . S
H443 C451 0.930 . S
H444 C454 0.930 . S
H445 C455 0.930 . S
C446 H440 0.930 . S
C446 C447 1.355 . S
C446 C448 1.415 . S
C447 C446 1.355 . S
C447 C449 1.419 . S
C448 C446 1.415 . S
C448 C453 1.425 . S
C448 C455 1.409 . S
C449 H441 0.930 . S
C449 C447 1.419 . S
C449 C450 1.362 . S
C450 H442 0.930 . S
C450 C449 1.362 . S
C450 C453 1.409 . S
C451 H443 0.930 . S
C451 C452 1.355 . S
C451 C453 1.415 . S
C452 C451 1.355 . S
C452 C454 1.419 . S
C453 C448 1.425 . S
C453 C450 1.409 . S
C453 C451 1.415 . S
C454 H444 0.930 . S
C454 C452 1.419 . S
C454 C455 1.362 . S
C455 H445 0.930 . S
C455 C448 1.409 . S
C455 C454 1.362 . S
H456 C462 0.930 . S
H457 C465 0.930 1_556 S
H458 C466 0.930 1_556 S
H459 C467 0.936 . S
H460 C470 0.930 . S
H461 C471 0.930 . S
C462 H456 0.930 . S
C462 C463 1.355 . S
C462 C464 1.415 . S
C463 C462 1.355 . S
C463 C465 1.419 . S
C464 C462 1.415 . S
C464 C469 1.425 1_545 S
C464 C471 1.409 1_545 S
C465 H457 0.930 1_554 S
C465 C463 1.419 . S
C465 C466 1.362 . S
C466 H458 0.930 1_554 S
C466 C465 1.362 . S
C466 C469 1.409 1_545 S
C467 H459 0.936 . S
C467 C468 1.355 . S
C467 C469 1.415 . S
C468 C467 1.355 . S
C468 C470 1.419 . S
C469 C464 1.425 1_565 S
C469 C466 1.409 1_565 S
C469 C467 1.415 . S
C470 H460 0.930 . S
C470 C468 1.419 . S
C470 C471 1.362 . S
C471 H461 0.930 . S
C471 C464 1.409 1_565 S
C471 C470 1.362 . S
H472 C478 0.930 . S
H473 C481 0.930 . S
H474 C482 0.930 . S
H475 C483 0.930 . S
H476 C486 0.930 . S
H477 C487 0.930 . S
C478 H472 0.930 . S
C478 C479 1.355 . S
C478 C480 1.415 . S
C479 C478 1.355 . S
C479 C481 1.419 . S
C480 C478 1.415 . S
C480 C485 1.425 . S
C480 C487 1.409 . S
C481 H473 0.930 . S
C481 C479 1.419 . S
C481 C482 1.362 . S
C482 H474 0.930 . S
C482 C481 1.362 . S
C482 C485 1.409 . S
C483 H475 0.930 . S
C483 C484 1.355 . S
C483 C485 1.415 . S
C484 C483 1.355 . S
C484 C486 1.419 . S
C485 C480 1.425 . S
C485 C482 1.409 . S
C485 C483 1.415 . S
C486 H476 0.930 . S
C486 C484 1.419 . S
C486 C487 1.362 . S
C487 H477 0.930 . S
C487 C480 1.409 . S
C487 C486 1.362 . S
H488 C494 0.930 . S
H489 C497 0.930 . S
H490 C498 0.930 . S
H491 C499 0.930 . S
H492 C502 0.930 . S
H493 C503 0.930 . S
C494 H488 0.930 . S
C494 C495 1.355 . S
C494 C496 1.415 . S
C495 C494 1.355 . S
C495 C497 1.419 . S
C496 C494 1.415 . S
C496 C501 1.425 1_455 S
C496 C503 1.409 1_455 S
C497 H489 0.930 . S
C497 C495 1.419 . S
C497 C498 1.362 . S
C498 H490 0.930 . S
C498 C497 1.362 . S
C498 C501 1.409 1_455 S
C499 H491 0.930 . S
C499 C500 1.355 . S
C499 C501 1.415 . S
C500 C499 1.355 . S
C500 C502 1.419 . S
C501 C496 1.425 1_655 S
C501 C498 1.409 1_655 S
C501 C499 1.415 . S
C502 H492 0.930 . S
C502 C500 1.419 . S
C502 C503 1.362 . S
C503 H493 0.930 . S
C503 C496 1.409 1_655 S
C503 C502 1.362 . S
H504 C510 0.930 . S
H505 C513 0.930 . S
H506 C514 0.930 . S
H507 C515 0.930 . S
H508 C518 0.930 . S
H509 C519 0.930 . S
C510 H504 0.930 . S
C510 C511 1.355 . S
C510 C512 1.415 . S
C511 C510 1.355 . S
C511 C513 1.419 . S
C512 C510 1.415 . S
C512 C517 1.425 1_565 S
C512 C519 1.409 1_565 S
C513 H505 0.930 . S
C513 C511 1.419 . S
C513 C514 1.362 . S
C514 H506 0.930 . S
C514 C513 1.362 . S
C514 C517 1.409 1_565 S
C515 H507 0.930 . S
C515 C516 1.355 . S
C515 C517 1.415 . S
C516 C515 1.355 . S
C516 C518 1.419 . S
C517 C512 1.425 1_545 S
C517 C514 1.409 1_545 S
C517 C515 1.415 . S
C518 H508 0.930 . S
C518 C516 1.419 . S
C518 C519 1.362 . S
C519 H509 0.930 . S
C519 C512 1.409 1_545 S
C519 C518 1.362 . S
H520 C526 0.930 . S
H521 C529 0.930 . S
H522 C530 0.930 . S
H523 C531 0.930 . S
H524 C534 0.930 . S
H525 C535 0.930 . S
C526 H520 0.930 . S
C526 C527 1.355 . S
C526 C528 1.415 . S
C527 C526 1.355 . S
C527 C529 1.419 . S
C528 C526 1.415 . S
C528 C533 1.425 . S
C528 C535 1.409 . S
C529 H521 0.930 . S
C529 C527 1.419 . S
C529 C530 1.362 . S
C530 H522 0.930 . S
C530 C529 1.362 . S
C530 C533 1.409 . S
C531 H523 0.930 . S
C531 C532 1.355 . S
C531 C533 1.415 . S
C532 C531 1.355 . S
C532 C534 1.419 . S
C533 C528 1.425 . S
C533 C530 1.409 . S
C533 C531 1.415 . S
C534 H524 0.930 . S
C534 C532 1.419 . S
C534 C535 1.362 . S
C535 H525 0.930 . S
C535 C528 1.409 . S
C535 C534 1.362 . S
H536 C542 0.930 . S
H537 C545 0.930 . S
H538 C546 0.930 . S
H539 C547 0.930 . S
H540 C550 0.930 . S
H541 C551 0.930 . S
C542 H536 0.930 . S
C542 C543 1.355 . S
C542 C544 1.415 . S
C543 C542 1.355 . S
C543 C545 1.419 . S
C544 C542 1.415 . S
C544 C549 1.425 1_455 S
C544 C551 1.409 1_455 S
C545 H537 0.930 . S
C545 C543 1.419 . S
C545 C546 1.362 . S
C546 H538 0.930 . S
C546 C545 1.362 . S
C546 C549 1.409 1_455 S
C547 H539 0.930 . S
C547 C548 1.355 . S
C547 C549 1.415 . S
C548 C547 1.355 . S
C548 C550 1.419 . S
C549 C544 1.425 1_655 S
C549 C546 1.409 1_655 S
C549 C547 1.415 . S
C550 H540 0.930 . S
C550 C548 1.419 . S
C550 C551 1.362 . S
C551 H541 0.930 . S
C551 C544 1.409 1_655 S
C551 C550 1.362 . S
C175 C7 1.143 . S
C180 C147 1.160 . S
C191 C21 1.162 . S
C196 C161 1.117 . S
C207 C91 1.159 . S
C212 C35 1.146 . S
C223 C49 1.144 . S
C228 C105 1.160 . S
C239 C119 1.137 . S
C244 C63 1.097 . S
C255 C133 1.119 . S
C260 C77 1.163 1_554 S
C271 C120 1.381 . S
C276 C8 1.389 . S
C287 C22 1.375 . S
C292 C134 1.381 . S
C303 C148 1.399 . S
C308 C36 1.390 . S
C319 C50 1.379 . S
C324 C162 1.386 . S
C335 C64 1.378 . S
C340 C92 1.386 . S
C351 C78 1.400 . S
C356 C106 1.391 . S
C367 C143 1.615 . S
C372 C3 1.612 . S
C383 C157 1.621 . S
C388 C17 1.606 . S
C399 C87 1.616 1_554 S
C404 C31 1.611 . S
C415 C45 1.607 . S
C420 C101 1.620 . S
C431 C59 1.610 . S
C436 C115 1.617 . S
C447 C129 1.618 . S
C452 C73 1.609 . S
C463 C9 1.311 . S
C468 C107 1.375 . S
C479 C121 1.322 . S
C484 C23 1.363 . S
C495 C135 1.323 . S
C500 C37 1.367 . S
C511 C51 1.363 . S
C516 C149 1.327 . S
C527 C65 1.371 . S
C532 C163 1.314 . S
C543 C79 1.377 . S
C548 C93 1.310 . S
