# Generated by pormake.
# Topology neb, (4)-cn, num edge types: 1
# Building blocks:
#     Node 0, Type 0, BuildingBlock: UXUYUI_clean_sbu_0, # of connection points: 4
#     Node 1, Type 0, BuildingBlock: UXUYUI_clean_sbu_0, # of connection points: 4
#     Node 2, Type 0, BuildingBlock: UXUYUI_clean_sbu_0, # of connection points: 4
#     Node 3, Type 0, BuildingBlock: UXUYUI_clean_sbu_0, # of connection points: 4
#     Node 4, Type 0, BuildingBlock: UXUYUI_clean_sbu_0, # of connection points: 4
#     Node 5, Type 0, BuildingBlock: UXUYUI_clean_sbu_0, # of connection points: 4
#     Node 6, Type 0, BuildingBlock: UXUYUI_clean_sbu_0, # of connection points: 4
#     Node 7, Type 0, BuildingBlock: UXUYUI_clean_sbu_0, # of connection points: 4
#     Node 8, Type 0, BuildingBlock: UXUYUI_clean_sbu_0, # of connection points: 4
#     Node 9, Type 0, BuildingBlock: UXUYUI_clean_sbu_0, # of connection points: 4
#     Node 10, Type 0, BuildingBlock: UXUYUI_clean_sbu_0, # of connection points: 4
#     Node 11, Type 0, BuildingBlock: UXUYUI_clean_sbu_0, # of connection points: 4
#     Node 12, Type 0, BuildingBlock: UXUYUI_clean_sbu_0, # of connection points: 4
#     Node 13, Type 0, BuildingBlock: UXUYUI_clean_sbu_0, # of connection points: 4
#     Node 14, Type 0, BuildingBlock: UXUYUI_clean_sbu_0, # of connection points: 4
#     Node 15, Type 0, BuildingBlock: UXUYUI_clean_sbu_0, # of connection points: 4
#     Edge 16, Type (0, 0), BuildingBlock: XIVTED_clean_linker_0, # of connection points: 2
#     Edge 17, Type (0, 0), BuildingBlock: XIVTED_clean_linker_0, # of connection points: 2
#     Edge 18, Type (0, 0), BuildingBlock: XIVTED_clean_linker_0, # of connection points: 2
#     Edge 19, Type (0, 0), BuildingBlock: XIVTED_clean_linker_0, # of connection points: 2
#     Edge 20, Type (0, 0), BuildingBlock: XIVTED_clean_linker_0, # of connection points: 2
#     Edge 21, Type (0, 0), BuildingBlock: XIVTED_clean_linker_0, # of connection points: 2
#     Edge 22, Type (0, 0), BuildingBlock: XIVTED_clean_linker_0, # of connection points: 2
#     Edge 23, Type (0, 0), BuildingBlock: XIVTED_clean_linker_0, # of connection points: 2
#     Edge 24, Type (0, 0), BuildingBlock: XIVTED_clean_linker_0, # of connection points: 2
#     Edge 25, Type (0, 0), BuildingBlock: XIVTED_clean_linker_0, # of connection points: 2
#     Edge 26, Type (0, 0), BuildingBlock: XIVTED_clean_linker_0, # of connection points: 2
#     Edge 27, Type (0, 0), BuildingBlock: XIVTED_clean_linker_0, # of connection points: 2
#     Edge 28, Type (0, 0), BuildingBlock: XIVTED_clean_linker_0, # of connection points: 2
#     Edge 29, Type (0, 0), BuildingBlock: XIVTED_clean_linker_0, # of connection points: 2
#     Edge 30, Type (0, 0), BuildingBlock: XIVTED_clean_linker_0, # of connection points: 2
#     Edge 31, Type (0, 0), BuildingBlock: XIVTED_clean_linker_0, # of connection points: 2
#     Edge 32, Type (0, 0), BuildingBlock: XIVTED_clean_linker_0, # of connection points: 2
#     Edge 33, Type (0, 0), BuildingBlock: XIVTED_clean_linker_0, # of connection points: 2
#     Edge 34, Type (0, 0), BuildingBlock: XIVTED_clean_linker_0, # of connection points: 2
#     Edge 35, Type (0, 0), BuildingBlock: XIVTED_clean_linker_0, # of connection points: 2
#     Edge 36, Type (0, 0), BuildingBlock: XIVTED_clean_linker_0, # of connection points: 2
#     Edge 37, Type (0, 0), BuildingBlock: XIVTED_clean_linker_0, # of connection points: 2
#     Edge 38, Type (0, 0), BuildingBlock: XIVTED_clean_linker_0, # of connection points: 2
#     Edge 39, Type (0, 0), BuildingBlock: XIVTED_clean_linker_0, # of connection points: 2
#     Edge 40, Type (0, 0), BuildingBlock: XIVTED_clean_linker_0, # of connection points: 2
#     Edge 41, Type (0, 0), BuildingBlock: XIVTED_clean_linker_0, # of connection points: 2
#     Edge 42, Type (0, 0), BuildingBlock: XIVTED_clean_linker_0, # of connection points: 2
#     Edge 43, Type (0, 0), BuildingBlock: XIVTED_clean_linker_0, # of connection points: 2
#     Edge 44, Type (0, 0), BuildingBlock: XIVTED_clean_linker_0, # of connection points: 2
#     Edge 45, Type (0, 0), BuildingBlock: XIVTED_clean_linker_0, # of connection points: 2
#     Edge 46, Type (0, 0), BuildingBlock: XIVTED_clean_linker_0, # of connection points: 2
#     Edge 47, Type (0, 0), BuildingBlock: XIVTED_clean_linker_0, # of connection points: 2
# Relax obj value: 0.156
# Max RMSD: 0.184
# Mean RMSD: 0.183
data_MOF--net-neb--node1-UXUYUI_clean_sbu_0--edge1-XIVTED_clean_linker_0
_symmetry_space_group_name_H-M    P1
_symmetry_Int_Tables_number       1
_symmetry_cell_setting            triclinic
loop_
_symmetry_equiv_pos_as_xyz
'x, y, z'
_cell_length_a     67.488665
_cell_length_b     31.967678
_cell_length_c     108.52988
_cell_angle_alpha  89.996213
_cell_angle_beta   90.000979
_cell_angle_gamma 90.017141
loop_
_atom_site_label
_atom_site_type_symbol
_atom_site_fract_x
_atom_site_fract_y
_atom_site_fract_z
_atom_type_partial_charge
Li0 Li 0.1068 0.11139 0.44726 0.0
Li1 Li 0.14045 0.13917 0.44762 0.0
Li2 Li 0.11549 0.16529 0.43357 0.0
Li3 Li 0.12922 0.09498 0.4307 0.0
C4 C 0.10795 0.20764 0.4539 0.0
N5 N 0.09299 0.28717 0.45764 0.0
C6 C 0.11893 0.23725 0.46047 0.0
C7 C 0.08914 0.21824 0.44951 0.0
C8 C 0.11118 0.27734 0.4622 0.0
C9 C 0.0819 0.25866 0.4514 0.0
C10 C 0.13466 0.06238 0.45969 0.0
C11 C 0.14436 0.00556 0.47301 0.0
N12 N 0.13957 0.02915 0.483 0.0
C13 C 0.12979 0.08605 0.4701 0.0
C14 C 0.14197 0.02179 0.46115 0.0
C15 C 0.13239 0.06869 0.4818 0.0
C16 C 0.08436 0.0462 0.45803 0.0
N17 N 0.08605 0.08845 0.45707 0.0
C18 C 0.05722 0.09826 0.46947 0.0
C19 C 0.073 0.1145 0.4627 0.0
C20 C 0.05497 0.0547 0.4706 0.0
C21 C 0.06888 0.02855 0.46479 0.0
H22 H 0.09498 0.0262 0.45345 0.0
H23 H 0.07468 0.14791 0.46183 0.0
C24 C 0.16865 0.19654 0.45559 0.0
N25 N 0.16353 0.15556 0.45653 0.0
C26 C 0.18528 0.21184 0.46175 0.0
C27 C 0.19182 0.1419 0.46914 0.0
C28 C 0.17497 0.12803 0.46289 0.0
C29 C 0.19705 0.18446 0.46875 0.0
H30 H 0.15972 0.2174 0.45004 0.0
H31 H 0.17125 0.09522 0.46304 0.0
C32 C 0.08425 0.09046 0.42887 0.0
N33 N 0.04996 0.04313 0.42901 0.0
C34 C 0.08508 0.04746 0.42659 0.0
C35 C 0.06594 0.10942 0.43112 0.0
C36 C 0.06759 0.02407 0.42671 0.0
C37 C 0.04879 0.08494 0.43119 0.0
C38 C 0.16251 0.14453 0.42641 0.0
C39 C 0.17166 0.1744 0.41893 0.0
C40 C 0.17326 0.10971 0.43042 0.0
C41 C 0.19147 0.16889 0.41555 0.0
C42 C 0.19303 0.10534 0.42684 0.0
N43 N 0.20165 0.13477 0.41954 0.0
C44 C 0.12062 0.24633 0.42448 0.0
C45 C 0.09125 0.21301 0.41758 0.0
C46 C 0.11679 0.28089 0.41701 0.0
N47 N 0.10801 0.21324 0.4245 0.0
C48 C 0.08675 0.24706 0.41004 0.0
C49 C 0.09979 0.28131 0.4095 0.0
H50 H 0.13396 0.24526 0.43 0.0
H51 H 0.08162 0.18602 0.41769 0.0
C52 C 0.13961 0.01522 0.42109 0.0
N53 N 0.13728 0.05649 0.4185 0.0
C54 C 0.14428 0.9871 0.41168 0.0
C55 C 0.1448 0.0449 0.3973 0.0
C56 C 0.13995 0.07177 0.40695 0.0
C57 C 0.14668 0.00178 0.39954 0.0
H58 H 0.13727 0.00405 0.43038 0.0
H59 H 0.13804 0.10486 0.40522 0.0
O60 O 0.11537 0.16823 0.45206 0.0
O61 O 0.13208 0.07834 0.4481 0.0
O62 O 0.10132 0.11365 0.42913 0.0
O63 O 0.14318 0.1498 0.42987 0.0
H64 H 0.13318 0.22929 0.46435 0.0
H65 H 0.08033 0.19566 0.44453 0.0
H66 H 0.11957 0.30058 0.46722 0.0
H67 H 0.06747 0.26736 0.4479 0.0
H68 H 0.15003 0.9742 0.47427 0.0
H69 H 0.12409 0.11747 0.46921 0.0
H70 H 0.14577 0.00302 0.4532 0.0
H71 H 0.1287 0.08666 0.48993 0.0
H72 H 0.04673 0.11968 0.47361 0.0
H73 H 0.06793 0.99484 0.46554 0.0
H74 H 0.18865 0.2449 0.46118 0.0
H75 H 0.20075 0.11941 0.47412 0.0
H76 H 0.09907 0.03216 0.42489 0.0
H77 H 0.06495 0.14257 0.43295 0.0
H78 H 0.06804 0.99073 0.42503 0.0
H79 H 0.03455 0.09918 0.43302 0.0
H80 H 0.16354 0.20159 0.41579 0.0
H81 H 0.16647 0.08635 0.43626 0.0
H82 H 0.19875 0.19177 0.40976 0.0
H83 H 0.20153 0.07857 0.42988 0.0
H84 H 0.12746 0.30617 0.41675 0.0
H85 H 0.07336 0.24622 0.40454 0.0
H86 H 0.1453 0.95409 0.41382 0.0
H87 H 0.14687 0.05777 0.38816 0.0
Li88 Li 0.13145 0.15977 0.80981 0.0
Li89 Li 0.11838 0.08864 0.81165 0.0
Li90 Li 0.14197 0.10719 0.79553 0.0
Li91 Li 0.10787 0.13212 0.79475 0.0
C92 C 0.16374 0.08876 0.81458 0.0
N93 N 0.19975 0.04775 0.81516 0.0
C94 C 0.16446 0.0457 0.81676 0.0
C95 C 0.18133 0.11102 0.81276 0.0
C96 C 0.18282 0.02553 0.81701 0.0
C97 C 0.19939 0.08969 0.81307 0.0
C98 C 0.09121 0.13647 0.8221 0.0
C99 C 0.06285 0.10263 0.83125 0.0
N100 N 0.06679 0.12225 0.8421 0.0
C101 C 0.09493 0.15643 0.83332 0.0
C102 C 0.07499 0.1095 0.82103 0.0
C103 C 0.08242 0.14879 0.84333 0.0
C104 C 0.12559 0.24089 0.81872 0.0
N105 N 0.13783 0.20727 0.81944 0.0
C106 C 0.15505 0.23743 0.83649 0.0
C107 C 0.15258 0.20518 0.82794 0.0
C108 C 0.14211 0.27185 0.83629 0.0
C109 C 0.12759 0.27387 0.82702 0.0
H110 H 0.11368 0.24117 0.81206 0.0
H111 H 0.16176 0.17755 0.82849 0.0
C112 C 0.10457 0.00927 0.82029 0.0
N113 N 0.11159 0.04758 0.8235 0.0
C114 C 0.10102 0.97911 0.82936 0.0
C115 C 0.11151 0.02899 0.84478 0.0
C116 C 0.11521 0.05774 0.83543 0.0
C117 C 0.10464 0.9887 0.84182 0.0
H118 H 0.1022 0.0018 0.81068 0.0
H119 H 0.12118 0.08819 0.83766 0.0
C120 C 0.13695 0.20529 0.79009 0.0
N121 N 0.14532 0.28964 0.78811 0.0
C122 C 0.12241 0.23312 0.78598 0.0
C123 C 0.15577 0.22034 0.79314 0.0
C124 C 0.12693 0.27565 0.78504 0.0
C125 C 0.1597 0.26311 0.79211 0.0
C126 C 0.10646 0.05748 0.78471 0.0
C127 C 0.11445 0.05554 0.77284 0.0
C128 C 0.08695 0.04456 0.78674 0.0
C129 C 0.10269 0.04094 0.76316 0.0
C130 C 0.07566 0.03024 0.77681 0.0
N131 N 0.0837 0.02875 0.76532 0.0
C132 C 0.16529 0.04362 0.78524 0.0
C133 C 0.17691 0.11208 0.78096 0.0
C134 C 0.18112 0.02614 0.77878 0.0
N135 N 0.16353 0.08583 0.78622 0.0
C136 C 0.19304 0.09596 0.77446 0.0
C137 C 0.19531 0.05241 0.77329 0.0
H138 H 0.15436 0.02355 0.78951 0.0
H139 H 0.17515 0.14549 0.7819 0.0
C140 C 0.06904 0.15926 0.7897 0.0
N141 N 0.08635 0.14737 0.78436 0.0
C142 C 0.05334 0.17351 0.78248 0.0
C143 C 0.07353 0.16291 0.76435 0.0
C144 C 0.08889 0.14902 0.77195 0.0
C145 C 0.05549 0.17573 0.76961 0.0
H146 H 0.06758 0.15879 0.7996 0.0
H147 H 0.10299 0.14033 0.76797 0.0
O148 O 0.14589 0.10886 0.81392 0.0
O149 O 0.10346 0.14303 0.81223 0.0
O150 O 0.13276 0.16359 0.79119 0.0
O151 O 0.11763 0.07226 0.79428 0.0
H152 H 0.15098 0.02794 0.81809 0.0
H153 H 0.18102 0.14431 0.81097 0.0
H154 H 0.18359 0.99218 0.81862 0.0
H155 H 0.21311 0.10646 0.81159 0.0
H156 H 0.05033 0.08164 0.83057 0.0
H157 H 0.10745 0.17723 0.83436 0.0
H158 H 0.07193 0.0937 0.81242 0.0
H159 H 0.08517 0.16387 0.85209 0.0
H160 H 0.16625 0.23429 0.84357 0.0
H161 H 0.11743 0.30002 0.82644 0.0
H162 H 0.09607 0.94831 0.82658 0.0
H163 H 0.11419 0.0383 0.85422 0.0
H164 H 0.10775 0.22211 0.78361 0.0
H165 H 0.16713 0.19935 0.79649 0.0
H166 H 0.11581 0.29756 0.78191 0.0
H167 H 0.17415 0.27522 0.79453 0.0
H168 H 0.12949 0.06568 0.77109 0.0
H169 H 0.08056 0.04583 0.79587 0.0
H170 H 0.10864 0.03948 0.75392 0.0
H171 H 0.0605 0.02034 0.77823 0.0
H172 H 0.18207 0.99245 0.77796 0.0
H173 H 0.20373 0.11741 0.77053 0.0
H174 H 0.0399 0.18392 0.78698 0.0
H175 H 0.07582 0.16382 0.75448 0.0
Li176 Li 0.89103 0.88805 0.5455 0.0
Li177 Li 0.86811 0.90371 0.56145 0.0
Li178 Li 0.88119 0.83443 0.56046 0.0
Li179 Li 0.85661 0.86012 0.54486 0.0
C180 C 0.91563 0.8792 0.56594 0.0
N181 N 0.95526 0.86391 0.57045 0.0
C182 C 0.92601 0.90375 0.57442 0.0
C183 C 0.92539 0.84687 0.55977 0.0
C184 C 0.94604 0.89554 0.57657 0.0
C185 C 0.94543 0.83961 0.56218 0.0
C186 C 0.86958 0.96062 0.54168 0.0
C187 C 0.865 0.02368 0.52982 0.0
N188 N 0.87822 0.04374 0.53721 0.0
C189 C 0.88312 0.98186 0.54916 0.0
C190 C 0.86043 0.98165 0.53194 0.0
C191 C 0.88729 0.02386 0.54675 0.0
C192 C 0.91267 0.89763 0.52336 0.0
N193 N 0.91192 0.90864 0.53545 0.0
C194 C 0.94086 0.95094 0.53325 0.0
C195 C 0.92555 0.93493 0.54044 0.0
C196 C 0.94206 0.94033 0.52071 0.0
C197 C 0.92771 0.91317 0.51578 0.0
H198 H 0.90147 0.87704 0.5196 0.0
H199 H 0.9245 0.94381 0.55002 0.0
C200 C 0.86904 0.94383 0.58418 0.0
N201 N 0.86003 0.94485 0.573 0.0
C202 C 0.86398 0.97287 0.59321 0.0
C203 C 0.84046 0.0036 0.57903 0.0
C204 C 0.8459 0.9737 0.57028 0.0
C205 C 0.8496 0.00341 0.59067 0.0
H206 H 0.88018 0.92036 0.58605 0.0
H207 H 0.83887 0.97345 0.56132 0.0
C208 C 0.88571 0.79336 0.53634 0.0
N209 N 0.89263 0.71841 0.52439 0.0
C210 C 0.87048 0.76404 0.53506 0.0
C211 C 0.90439 0.7848 0.53137 0.0
C212 C 0.8743 0.72626 0.52904 0.0
C213 C 0.90761 0.74667 0.52541 0.0
C214 C 0.84116 0.85873 0.57235 0.0
C215 C 0.84689 0.84784 0.5843 0.0
C216 C 0.82327 0.87978 0.57044 0.0
C217 C 0.83465 0.85851 0.59419 0.0
C218 C 0.81145 0.8899 0.58058 0.0
N219 N 0.81734 0.87917 0.59214 0.0
C220 C 0.89948 0.78988 0.58025 0.0
C221 C 0.87822 0.75025 0.56738 0.0
C222 C 0.90174 0.75597 0.58823 0.0
N223 N 0.88784 0.78646 0.57006 0.0
C224 C 0.88 0.71564 0.57512 0.0
C225 C 0.89157 0.71853 0.58584 0.0
H226 H 0.90621 0.81946 0.58258 0.0
H227 H 0.86836 0.74883 0.55958 0.0
C228 C 0.83531 0.84968 0.5225 0.0
N229 N 0.8352 0.84294 0.53486 0.0
C230 C 0.81986 0.83437 0.51518 0.0
C231 C 0.80453 0.8061 0.53352 0.0
C232 C 0.82023 0.8218 0.54044 0.0
C233 C 0.80428 0.81188 0.52069 0.0
H234 H 0.84756 0.86627 0.51832 0.0
H235 H 0.82068 0.81646 0.55027 0.0
O236 O 0.89607 0.88738 0.56366 0.0
O237 O 0.86527 0.91939 0.54378 0.0
O238 O 0.88218 0.83093 0.54198 0.0
O239 O 0.85321 0.84961 0.56258 0.0
H240 H 0.91866 0.92902 0.57924 0.0
H241 H 0.91756 0.8274 0.55329 0.0
H242 H 0.95427 0.91433 0.58309 0.0
H243 H 0.95315 0.81463 0.55748 0.0
H244 H 0.85803 0.04035 0.52231 0.0
H245 H 0.89035 0.96617 0.55675 0.0
H246 H 0.84993 0.96561 0.52606 0.0
H247 H 0.89775 0.04066 0.55246 0.0
H248 H 0.95172 0.97124 0.53752 0.0
H249 H 0.92787 0.90459 0.50613 0.0
H250 H 0.87158 0.97198 0.602 0.0
H251 H 0.8292 0.02644 0.57675 0.0
H252 H 0.8559 0.77018 0.53876 0.0
H253 H 0.91626 0.80743 0.53203 0.0
H254 H 0.86267 0.70319 0.52807 0.0
H255 H 0.92201 0.7396 0.52156 0.0
H256 H 0.86074 0.83173 0.58593 0.0
H257 H 0.81873 0.88876 0.56125 0.0
H258 H 0.83894 0.85049 0.6035 0.0
H259 H 0.79763 0.90645 0.57926 0.0
H260 H 0.91043 0.75982 0.59655 0.0
H261 H 0.8719 0.68735 0.57294 0.0
H262 H 0.82039 0.83915 0.50531 0.0
H263 H 0.79271 0.78954 0.53819 0.0
Li264 Li 0.88274 0.90679 0.18356 0.0
Li265 Li 0.85571 0.88683 0.19854 0.0
Li266 Li 0.89003 0.85341 0.1992 0.0
Li267 Li 0.86725 0.84055 0.18268 0.0
C268 C 0.88715 0.95179 0.20619 0.0
N269 N 0.8966 0.03056 0.21492 0.0
C270 C 0.87263 0.98286 0.20687 0.0
C271 C 0.90641 0.96062 0.21016 0.0
C272 C 0.87771 0.02254 0.21125 0.0
C273 C 0.91091 0.00067 0.21449 0.0
C274 C 0.84246 0.8884 0.17081 0.0
C275 C 0.81121 0.86602 0.16231 0.0
N276 N 0.81881 0.87005 0.15077 0.0
C277 C 0.84994 0.89261 0.15887 0.0
C278 C 0.82293 0.87519 0.17258 0.0
C279 C 0.83775 0.88306 0.14885 0.0
C280 C 0.90507 0.94508 0.16426 0.0
N281 N 0.89211 0.95209 0.17364 0.0
C282 C 0.88837 0.02341 0.16744 0.0
C283 C 0.88364 0.99024 0.17526 0.0
C284 C 0.90177 0.01716 0.1577 0.0
C285 C 0.91032 0.97741 0.15626 0.0
H286 H 0.91086 0.9141 0.16266 0.0
H287 H 0.87253 0.99451 0.18229 0.0
C288 C 0.83256 0.89241 0.21999 0.0
N289 N 0.83428 0.90594 0.20818 0.0
C290 C 0.81708 0.90681 0.2274 0.0
C291 C 0.80551 0.94873 0.21029 0.0
C292 C 0.82114 0.93334 0.20321 0.0
C293 C 0.80338 0.93557 0.22257 0.0
H294 H 0.84332 0.87065 0.22367 0.0
H295 H 0.82295 0.94357 0.19377 0.0
C296 C 0.91602 0.85317 0.17978 0.0
N297 N 0.95675 0.85521 0.17721 0.0
C298 C 0.92578 0.82148 0.17331 0.0
C299 C 0.92699 0.88573 0.18499 0.0
C300 C 0.94638 0.8231 0.1721 0.0
C301 C 0.94755 0.88628 0.18357 0.0
C302 C 0.85631 0.78756 0.20092 0.0
C303 C 0.86841 0.75428 0.19731 0.0
C304 C 0.837 0.77973 0.20496 0.0
C305 C 0.86088 0.71358 0.19768 0.0
C306 C 0.83005 0.73857 0.20523 0.0
N307 N 0.84202 0.70664 0.2016 0.0
C308 C 0.91286 0.85022 0.22092 0.0
C309 C 0.92002 0.79715 0.20633 0.0
C310 C 0.92756 0.8351 0.2288 0.0
N311 N 0.90953 0.83134 0.2099 0.0
C312 C 0.93475 0.78082 0.21394 0.0
C313 C 0.93875 0.79999 0.22531 0.0
H314 H 0.90411 0.87709 0.22358 0.0
H315 H 0.91705 0.78275 0.19751 0.0
C316 C 0.87109 0.79453 0.16115 0.0
N317 N 0.85878 0.79973 0.17093 0.0
C318 C 0.86635 0.76629 0.15184 0.0
C319 C 0.83616 0.74929 0.16274 0.0
C320 C 0.8414 0.77833 0.17179 0.0
C321 C 0.84875 0.74304 0.1526 0.0
H322 H 0.88455 0.81271 0.16052 0.0
H323 H 0.83149 0.78406 0.17942 0.0
O324 O 0.88235 0.91254 0.20209 0.0
O325 O 0.85432 0.89652 0.18073 0.0
O326 O 0.89591 0.85132 0.18136 0.0
O327 O 0.86335 0.82761 0.20058 0.0
H328 H 0.85764 0.97664 0.2039 0.0
H329 H 0.91778 0.93679 0.21001 0.0
H330 H 0.86664 0.04695 0.21171 0.0
H331 H 0.92578 0.00794 0.21755 0.0
H332 H 0.7961 0.85549 0.16353 0.0
H333 H 0.86507 0.90264 0.15737 0.0
H334 H 0.81699 0.87149 0.18178 0.0
H335 H 0.84337 0.88587 0.13955 0.0
H336 H 0.88091 0.05309 0.1687 0.0
H337 H 0.92069 0.97106 0.14888 0.0
H338 H 0.81608 0.89621 0.23685 0.0
H339 H 0.79514 0.97049 0.20618 0.0
H340 H 0.91756 0.79567 0.16937 0.0
H341 H 0.91966 0.91049 0.18996 0.0
H342 H 0.95412 0.79876 0.16713 0.0
H343 H 0.95619 0.91143 0.18752 0.0
H344 H 0.88332 0.7599 0.19407 0.0
H345 H 0.82748 0.80521 0.2078 0.0
H346 H 0.87002 0.68753 0.19483 0.0
H347 H 0.81511 0.73202 0.2083 0.0
H348 H 0.93004 0.85047 0.23756 0.0
H349 H 0.94319 0.75398 0.21084 0.0
H350 H 0.87652 0.7622 0.14421 0.0
H351 H 0.82233 0.73234 0.16356 0.0
Li352 Li 0.13953 0.63553 0.94906 0.0
Li353 Li 0.10541 0.6102 0.94981 0.0
Li354 Li 0.1286 0.58552 0.93412 0.0
Li355 Li 0.11541 0.65676 0.93355 0.0
C356 C 0.13465 0.53662 0.95308 0.0
N357 N 0.14305 0.45206 0.95372 0.0
C358 C 0.12014 0.50806 0.95679 0.0
C359 C 0.15346 0.5222 0.94976 0.0
C360 C 0.12468 0.46543 0.95704 0.0
C361 C 0.1574 0.47932 0.95011 0.0
C362 C 0.10432 0.68283 0.96108 0.0
C363 C 0.07358 0.70717 0.96984 0.0
N364 N 0.08219 0.70795 0.98117 0.0
C365 C 0.11289 0.68399 0.97279 0.0
C366 C 0.08453 0.69467 0.95956 0.0
C367 C 0.10145 0.69677 0.98284 0.0
C368 C 0.16328 0.6977 0.95961 0.0
N369 N 0.16138 0.6556 0.95837 0.0
C370 C 0.19128 0.64433 0.96966 0.0
C371 C 0.17487 0.62884 0.96329 0.0
C372 C 0.19374 0.68778 0.97103 0.0
C373 C 0.17941 0.71456 0.96593 0.0
H374 H 0.15226 0.71819 0.95561 0.0
H375 H 0.173 0.59551 0.96215 0.0
C376 C 0.06681 0.58149 0.9547 0.0
N377 N 0.0841 0.5931 0.96013 0.0
C378 C 0.05115 0.56648 0.96182 0.0
C379 C 0.0713 0.57587 0.98003 0.0
C380 C 0.08666 0.5904 0.97253 0.0
C381 C 0.05332 0.56333 0.97465 0.0
H382 H 0.06529 0.58313 0.94481 0.0
H383 H 0.10076 0.59877 0.97656 0.0
C384 C 0.16073 0.65729 0.93 0.0
N385 N 0.19678 0.69821 0.92948 0.0
C386 C 0.16146 0.70056 0.92821 0.0
C387 C 0.17833 0.63478 0.93146 0.0
C388 C 0.17984 0.72067 0.92798 0.0
C389 C 0.1964 0.65606 0.9312 0.0
C390 C 0.08843 0.61112 0.92241 0.0
C391 C 0.0926 0.5944 0.91079 0.0
C392 C 0.07194 0.63707 0.92394 0.0
C393 C 0.08025 0.60417 0.90087 0.0
C394 C 0.05997 0.64615 0.91378 0.0
N395 N 0.06435 0.62966 0.90255 0.0
C396 C 0.12238 0.50615 0.9241 0.0
C397 C 0.14975 0.54228 0.91547 0.0
C398 C 0.12444 0.47401 0.91553 0.0
N399 N 0.13481 0.53954 0.92383 0.0
C400 C 0.1523 0.51088 0.90666 0.0
C401 C 0.13923 0.47664 0.90645 0.0
H402 H 0.11035 0.50533 0.93068 0.0
H403 H 0.1591 0.56972 0.91528 0.0
C404 C 0.10074 0.73717 0.92697 0.0
N405 N 0.10814 0.70045 0.92266 0.0
C406 C 0.09693 0.77009 0.91884 0.0
C407 C 0.10798 0.72625 0.90202 0.0
C408 C 0.11185 0.6945 0.91048 0.0
C409 C 0.10067 0.76481 0.9062 0.0
H410 H 0.09828 0.74125 0.93674 0.0
H411 H 0.11825 0.66533 0.90739 0.0
O412 O 0.13044 0.57845 0.95264 0.0
O413 O 0.11518 0.66986 0.95115 0.0
O414 O 0.14287 0.63719 0.93061 0.0
O415 O 0.10051 0.60249 0.93221 0.0
H416 H 0.10549 0.5186 0.95936 0.0
H417 H 0.1648 0.54381 0.94674 0.0
H418 H 0.11357 0.44296 0.95985 0.0
H419 H 0.17184 0.4677 0.94748 0.0
H420 H 0.05822 0.71619 0.96881 0.0
H421 H 0.12814 0.67466 0.97415 0.0
H422 H 0.07767 0.69386 0.95056 0.0
H423 H 0.10786 0.69764 0.99197 0.0
H424 H 0.20206 0.62253 0.97331 0.0
H425 H 0.18049 0.74818 0.96692 0.0
H426 H 0.03748 0.55737 0.95732 0.0
H427 H 0.07368 0.57332 0.98987 0.0
H428 H 0.14798 0.71851 0.92715 0.0
H429 H 0.17801 0.60133 0.93296 0.0
H430 H 0.18062 0.75417 0.92666 0.0
H431 H 0.21013 0.6391 0.93241 0.0
H432 H 0.10534 0.57447 0.9094 0.0
H433 H 0.06854 0.65041 0.93285 0.0
H434 H 0.08335 0.59161 0.89182 0.0
H435 H 0.04724 0.66639 0.91482 0.0
H436 H 0.11418 0.44796 0.91579 0.0
H437 H 0.16372 0.51447 0.89973 0.0
H438 H 0.09134 0.79946 0.92239 0.0
H439 H 0.11142 0.72128 0.89238 0.0
Li440 Li 0.13284 0.66687 0.31019 0.0
Li441 Li 0.11931 0.59689 0.31369 0.0
Li442 Li 0.14203 0.61207 0.29706 0.0
Li443 Li 0.10819 0.63951 0.29632 0.0
C444 C 0.16445 0.59413 0.31629 0.0
N445 N 0.19932 0.54915 0.31814 0.0
C446 C 0.16425 0.55325 0.32086 0.0
C447 C 0.18246 0.6123 0.31282 0.0
C448 C 0.18202 0.531 0.3217 0.0
C449 C 0.1999 0.589 0.31376 0.0
C450 C 0.08588 0.64506 0.31754 0.0
C451 C 0.05565 0.60486 0.31683 0.0
N452 N 0.04695 0.63289 0.32455 0.0
C453 C 0.07664 0.67348 0.32545 0.0
C454 C 0.07532 0.61045 0.31317 0.0
C455 C 0.05695 0.66677 0.32889 0.0
C456 C 0.12683 0.74739 0.31934 0.0
N457 N 0.1403 0.71592 0.31874 0.0
C458 C 0.16226 0.75266 0.33216 0.0
C459 C 0.15785 0.718 0.32484 0.0
C460 C 0.14836 0.78518 0.3333 0.0
C461 C 0.13058 0.78253 0.32658 0.0
H462 H 0.1129 0.74451 0.31448 0.0
H463 H 0.1682 0.69229 0.32427 0.0
C464 C 0.11011 0.51712 0.32338 0.0
N465 N 0.11123 0.55863 0.32593 0.0
C466 C 0.10551 0.48868 0.33272 0.0
C467 C 0.10255 0.54658 0.34695 0.0
C468 C 0.10741 0.5738 0.33737 0.0
C469 C 0.10189 0.50327 0.34474 0.0
H470 H 0.11344 0.50604 0.3142 0.0
H471 H 0.10843 0.60707 0.33909 0.0
C472 C 0.1402 0.70819 0.29025 0.0
N473 N 0.15413 0.7891 0.28776 0.0
C474 C 0.12759 0.73993 0.28615 0.0
C475 C 0.16 0.7175 0.29287 0.0
C476 C 0.13488 0.78066 0.285 0.0
C477 C 0.16673 0.75861 0.29162 0.0
C478 C 0.11439 0.56082 0.28508 0.0
C479 C 0.12093 0.58117 0.27441 0.0
C480 C 0.10572 0.52125 0.28417 0.0
C481 C 0.11863 0.56154 0.263 0.0
C482 C 0.10364 0.50272 0.27258 0.0
N483 N 0.11009 0.52306 0.26233 0.0
C484 C 0.16658 0.54642 0.28896 0.0
C485 C 0.17275 0.61154 0.27922 0.0
C486 C 0.18166 0.52746 0.28218 0.0
N487 N 0.16264 0.58782 0.28749 0.0
C488 C 0.18779 0.59375 0.27213 0.0
C489 C 0.19245 0.55124 0.27363 0.0
H490 H 0.15796 0.52815 0.29541 0.0
H491 H 0.16906 0.64417 0.27807 0.0
C492 C 0.07766 0.69356 0.29026 0.0
N493 N 0.08515 0.65551 0.28718 0.0
C494 C 0.06091 0.70915 0.28431 0.0
C495 C 0.05945 0.64561 0.27231 0.0
C496 C 0.07617 0.63113 0.27856 0.0
C497 C 0.05168 0.68529 0.27508 0.0
H498 H 0.08476 0.71187 0.29739 0.0
H499 H 0.08181 0.60042 0.27648 0.0
O500 O 0.14714 0.6162 0.31523 0.0
O501 O 0.10513 0.6515 0.31405 0.0
O502 O 0.13324 0.66823 0.29167 0.0
O503 O 0.11688 0.57883 0.29641 0.0
H504 H 0.15055 0.53869 0.32368 0.0
H505 H 0.18298 0.64389 0.30931 0.0
H506 H 0.18204 0.49926 0.32515 0.0
H507 H 0.2139 0.60258 0.311 0.0
H508 H 0.0473 0.57824 0.31352 0.0
H509 H 0.08462 0.70046 0.32888 0.0
H510 H 0.08218 0.58816 0.30702 0.0
H511 H 0.04961 0.68852 0.33501 0.0
H512 H 0.17624 0.75361 0.33705 0.0
H513 H 0.11928 0.80643 0.32732 0.0
H514 H 0.1055 0.45558 0.33061 0.0
H515 H 0.09956 0.55933 0.356 0.0
H516 H 0.11237 0.73326 0.28381 0.0
H517 H 0.17 0.69335 0.29596 0.0
H518 H 0.12524 0.80554 0.28189 0.0
H519 H 0.18197 0.76627 0.29373 0.0
H520 H 0.12761 0.61184 0.27489 0.0
H521 H 0.10062 0.50503 0.29233 0.0
H522 H 0.1236 0.57693 0.25468 0.0
H523 H 0.09692 0.47212 0.27174 0.0
H524 H 0.18463 0.49446 0.28346 0.0
H525 H 0.19583 0.61312 0.26564 0.0
H526 H 0.0552 0.73946 0.28699 0.0
H527 H 0.05288 0.62612 0.26524 0.0
Li528 Li 0.89078 0.38772 0.04885 0.0
Li529 Li 0.86373 0.40542 0.06397 0.0
Li530 Li 0.87979 0.33997 0.06446 0.0
Li531 Li 0.85679 0.35264 0.04809 0.0
C532 C 0.90339 0.3881 0.07698 0.0
N533 N 0.92555 0.36979 0.09769 0.0
C534 C 0.89524 0.39349 0.08871 0.0
C535 C 0.92283 0.3736 0.07577 0.0
C536 C 0.90668 0.38399 0.09907 0.0
C537 C 0.93379 0.36449 0.08635 0.0
C538 C 0.86 0.45239 0.04164 0.0
C539 C 0.83786 0.5035 0.03281 0.0
N540 N 0.85246 0.53275 0.03347 0.0
C541 C 0.87484 0.48284 0.04209 0.0
C542 C 0.8414 0.46268 0.03683 0.0
C543 C 0.87072 0.52332 0.03798 0.0
C544 C 0.91183 0.40273 0.0269 0.0
N545 N 0.91197 0.40875 0.03929 0.0
C546 C 0.94235 0.44683 0.03802 0.0
C547 C 0.92675 0.43034 0.04493 0.0
C548 C 0.94265 0.44131 0.02517 0.0
C549 C 0.92709 0.41886 0.01962 0.0
H550 H 0.89975 0.38569 0.02268 0.0
H551 H 0.92633 0.43508 0.05478 0.0
C552 C 0.83954 0.44565 0.08246 0.0
N553 N 0.85422 0.45056 0.07398 0.0
C554 C 0.83452 0.4784 0.09038 0.0
C555 C 0.86013 0.52038 0.08096 0.0
C556 C 0.8646 0.48689 0.07322 0.0
C557 C 0.84499 0.51631 0.08977 0.0
H558 H 0.83212 0.416 0.08348 0.0
H559 H 0.87697 0.48929 0.06696 0.0
C560 C 0.89148 0.28909 0.04566 0.0
N561 N 0.90725 0.20963 0.04393 0.0
C562 C 0.87999 0.25432 0.04879 0.0
C563 C 0.91092 0.28352 0.04154 0.0
C564 C 0.88826 0.21438 0.0479 0.0
C565 C 0.91864 0.24306 0.04075 0.0
C566 C 0.83089 0.35261 0.06754 0.0
C567 C 0.82091 0.32448 0.07521 0.0
C568 C 0.82014 0.38301 0.06115 0.0
C569 C 0.80035 0.32756 0.07645 0.0
C570 C 0.79961 0.3851 0.06263 0.0
N571 N 0.79022 0.35756 0.07019 0.0
C572 C 0.87665 0.29336 0.08588 0.0
C573 C 0.90587 0.27677 0.0748 0.0
C574 C 0.88153 0.26468 0.09505 0.0
N575 N 0.88864 0.29857 0.07595 0.0
C576 C 0.91122 0.24727 0.0837 0.0
C577 C 0.89894 0.24098 0.09398 0.0
H578 H 0.86333 0.31187 0.08674 0.0
H579 H 0.91557 0.28254 0.06708 0.0
C580 C 0.83356 0.3481 0.02641 0.0
N581 N 0.83732 0.32984 0.03747 0.0
C582 C 0.81866 0.33226 0.01879 0.0
C583 C 0.81207 0.27885 0.03403 0.0
C584 C 0.82705 0.29572 0.04135 0.0
C585 C 0.80763 0.29725 0.02261 0.0
H586 H 0.84208 0.37507 0.02356 0.0
H587 H 0.83033 0.28194 0.05021 0.0
O588 O 0.89224 0.39618 0.06674 0.0
O589 O 0.86385 0.41238 0.04548 0.0
O590 O 0.88371 0.32843 0.04648 0.0
O591 O 0.85094 0.3491 0.06595 0.0
H592 H 0.88017 0.40442 0.08981 0.0
H593 H 0.92926 0.36873 0.06675 0.0
H594 H 0.90054 0.38777 0.10821 0.0
H595 H 0.9488 0.35296 0.08556 0.0
H596 H 0.82351 0.5119 0.02911 0.0
H597 H 0.88934 0.4755 0.04571 0.0
H598 H 0.82982 0.43939 0.03614 0.0
H599 H 0.88204 0.54725 0.03837 0.0
H600 H 0.9541 0.46342 0.04273 0.0
H601 H 0.92652 0.41437 0.00974 0.0
H602 H 0.8228 0.47375 0.09705 0.0
H603 H 0.86905 0.54848 0.08042 0.0
H604 H 0.86495 0.25819 0.05204 0.0
H605 H 0.91996 0.3102 0.03905 0.0
H606 H 0.8796 0.18717 0.05037 0.0
H607 H 0.93368 0.23823 0.03762 0.0
H608 H 0.82893 0.3003 0.08008 0.0
H609 H 0.82759 0.40491 0.0552 0.0
H610 H 0.79245 0.306 0.08236 0.0
H611 H 0.79114 0.40861 0.05776 0.0
H612 H 0.87159 0.2606 0.10279 0.0
H613 H 0.92492 0.22999 0.08265 0.0
H614 H 0.81589 0.3471 0.00999 0.0
H615 H 0.80377 0.25222 0.03742 0.0
Li616 Li 0.86377 0.32925 0.68314 0.0
Li617 Li 0.89066 0.35184 0.69781 0.0
Li618 Li 0.85548 0.3807 0.69927 0.0
Li619 Li 0.87704 0.39757 0.68248 0.0
C620 C 0.86228 0.28267 0.706 0.0
N621 N 0.85721 0.20305 0.71545 0.0
C622 C 0.87812 0.25451 0.7062 0.0
C623 C 0.84391 0.27044 0.71077 0.0
C624 C 0.87525 0.21438 0.71096 0.0
C625 C 0.84163 0.23002 0.71545 0.0
C626 C 0.90305 0.35578 0.67005 0.0
C627 C 0.93238 0.38866 0.66185 0.0
N628 N 0.92554 0.38193 0.65023 0.0
C629 C 0.89634 0.349 0.65804 0.0
C630 C 0.92123 0.37566 0.672 0.0
C631 C 0.90791 0.36254 0.64813 0.0
C632 C 0.84382 0.29436 0.66279 0.0
N633 N 0.85482 0.28451 0.67288 0.0
C634 C 0.85648 0.21301 0.66653 0.0
C635 C 0.8612 0.24476 0.67486 0.0
C636 C 0.84528 0.22236 0.65597 0.0
C637 C 0.83867 0.2636 0.65426 0.0
H638 H 0.83959 0.32643 0.6611 0.0
H639 H 0.87067 0.23791 0.68259 0.0
C640 C 0.91268 0.33833 0.71946 0.0
N641 N 0.91282 0.3337 0.70702 0.0
C642 C 0.92827 0.32257 0.72654 0.0
C643 C 0.94393 0.29827 0.70781 0.0
C644 C 0.928 0.31426 0.70112 0.0
C645 C 0.94411 0.30201 0.72071 0.0
H646 H 0.90029 0.3537 0.72388 0.0
H647 H 0.92749 0.31025 0.69123 0.0
C648 C 0.82881 0.37639 0.68033 0.0
N649 N 0.78835 0.36519 0.67825 0.0
C650 C 0.81731 0.40564 0.67397 0.0
C651 C 0.81972 0.34153 0.68565 0.0
C652 C 0.79687 0.39941 0.67302 0.0
C653 C 0.79926 0.33637 0.68448 0.0
C654 C 0.88948 0.44891 0.70094 0.0
C655 C 0.87763 0.48411 0.69896 0.0
C656 C 0.90956 0.45386 0.70373 0.0
C657 C 0.88618 0.52385 0.69963 0.0
C658 C 0.91754 0.49414 0.70435 0.0
N659 N 0.90579 0.528 0.70228 0.0
C660 C 0.83155 0.38167 0.72092 0.0
C661 C 0.82478 0.43401 0.70602 0.0
C662 C 0.81595 0.39588 0.72828 0.0
N663 N 0.83546 0.40059 0.70997 0.0
C664 C 0.80906 0.44912 0.71304 0.0
C665 C 0.80433 0.42977 0.72428 0.0
H666 H 0.84041 0.35532 0.72385 0.0
H667 H 0.82837 0.44868 0.69733 0.0
C668 C 0.86972 0.44089 0.66105 0.0
N669 N 0.88273 0.44031 0.67059 0.0
C670 C 0.87166 0.47014 0.65164 0.0
C671 C 0.90079 0.49738 0.66179 0.0
C672 C 0.89835 0.46722 0.67099 0.0
C673 C 0.88716 0.49941 0.65201 0.0
H674 H 0.85787 0.41819 0.66067 0.0
H675 H 0.909 0.46526 0.67838 0.0
O676 O 0.86491 0.32245 0.70161 0.0
O677 O 0.8917 0.34373 0.67986 0.0
O678 O 0.84879 0.38267 0.68157 0.0
O679 O 0.88141 0.40978 0.70042 0.0
H680 H 0.89241 0.26324 0.70251 0.0
H681 H 0.83154 0.29194 0.7109 0.0
H682 H 0.88735 0.1922 0.71108 0.0
H683 H 0.82748 0.22014 0.71913 0.0
H684 H 0.94642 0.40435 0.66322 0.0
H685 H 0.88226 0.33383 0.65638 0.0
H686 H 0.92651 0.38166 0.68125 0.0
H687 H 0.90286 0.35772 0.63878 0.0
H688 H 0.86235 0.18192 0.66807 0.0
H689 H 0.82998 0.27227 0.64627 0.0
H690 H 0.92793 0.3264 0.73645 0.0
H691 H 0.95569 0.28207 0.70298 0.0
H692 H 0.82407 0.43306 0.6699 0.0
H693 H 0.82839 0.31857 0.69054 0.0
H694 H 0.78779 0.42184 0.66814 0.0
H695 H 0.79206 0.30945 0.68854 0.0
H696 H 0.86207 0.48074 0.69681 0.0
H697 H 0.91889 0.42686 0.70534 0.0
H698 H 0.87724 0.5514 0.69803 0.0
H699 H 0.93307 0.49849 0.70644 0.0
H700 H 0.81274 0.37998 0.73686 0.0
H701 H 0.80074 0.4758 0.70971 0.0
H702 H 0.86116 0.46958 0.64409 0.0
H703 H 0.91301 0.51921 0.66243 0.0
Li704 Li 0.60516 0.1114 0.94862 0.0
Li705 Li 0.64137 0.1385 0.94844 0.0
Li706 Li 0.61687 0.15988 0.93309 0.0
Li707 Li 0.62901 0.09177 0.93266 0.0
C708 C 0.60791 0.20822 0.952 0.0
N709 N 0.59226 0.28798 0.9528 0.0
C710 C 0.62016 0.2429 0.95013 0.0
C711 C 0.58774 0.21405 0.95436 0.0
C712 C 0.61194 0.28299 0.95053 0.0
C713 C 0.58011 0.25465 0.95472 0.0
C714 C 0.63857 0.04121 0.95079 0.0
C715 C 0.66639 0.99407 0.95188 0.0
N716 N 0.65392 0.96117 0.95013 0.0
C717 C 0.626 0.00697 0.94907 0.0
C718 C 0.65892 0.0348 0.95225 0.0
C719 C 0.63406 0.96673 0.94873 0.0
C720 C 0.57278 0.06051 0.9538 0.0
N721 N 0.5841 0.0918 0.9585 0.0
C722 C 0.565 0.0925 0.97702 0.0
C723 C 0.58063 0.10788 0.96989 0.0
C724 C 0.55292 0.06035 0.97235 0.0
C725 C 0.557 0.04432 0.96057 0.0
H726 H 0.57604 0.04818 0.94474 0.0
H727 H 0.58998 0.13266 0.9734 0.0
C728 C 0.67327 0.19025 0.95404 0.0
N729 N 0.66274 0.15699 0.95825 0.0
C730 C 0.6891 0.20596 0.96088 0.0
C731 C 0.68291 0.15289 0.97629 0.0
C732 C 0.66715 0.1382 0.96914 0.0
C733 C 0.69409 0.18731 0.97218 0.0
H734 H 0.66941 0.20442 0.94532 0.0
H735 H 0.65837 0.11197 0.97228 0.0
C736 C 0.58656 0.12081 0.92293 0.0
N737 N 0.5572 0.14699 0.90694 0.0
C738 C 0.59059 0.1251 0.91036 0.0
C739 C 0.56755 0.12955 0.92736 0.0
C740 C 0.57557 0.1385 0.90243 0.0
C741 C 0.55292 0.14277 0.91913 0.0
C742 C 0.65929 0.13199 0.92261 0.0
C743 C 0.65519 0.12824 0.91003 0.0
C744 C 0.67841 0.1238 0.92694 0.0
C745 C 0.67028 0.11596 0.90199 0.0
C746 C 0.6931 0.11171 0.9186 0.0
N747 N 0.68876 0.10802 0.90641 0.0
C748 C 0.6241 0.22071 0.91525 0.0
C749 C 0.59109 0.22345 0.92263 0.0
C750 C 0.61997 0.25113 0.90645 0.0
N751 N 0.60962 0.20657 0.92288 0.0
C752 C 0.58633 0.25431 0.91399 0.0
C753 C 0.60078 0.26766 0.90557 0.0
H754 H 0.63884 0.20788 0.91583 0.0
H755 H 0.57984 0.21223 0.92887 0.0
C756 C 0.62026 0.03118 0.91506 0.0
N757 N 0.63554 0.04591 0.92195 0.0
C758 C 0.62355 0.00127 0.90598 0.0
C759 C 0.65813 -0.00019 0.91172 0.0
C760 C 0.65414 0.02994 0.92072 0.0
C761 C 0.64277 0.98598 0.904 0.0
H762 H 0.60549 0.04314 0.91645 0.0
H763 H 0.66602 0.04133 0.92647 0.0
O764 O 0.61561 0.16873 0.95149 0.0
O765 O 0.63102 0.08085 0.95095 0.0
O766 O 0.6011 0.10778 0.93084 0.0
O767 O 0.64472 0.14413 0.93062 0.0
H768 H 0.63578 0.23886 0.94826 0.0
H769 H 0.57805 0.1875 0.95575 0.0
H770 H 0.62121 0.31012 0.94902 0.0
H771 H 0.56451 0.25966 0.95647 0.0
H772 H 0.68212 0.98863 0.95294 0.0
H773 H 0.61023 0.01147 0.94788 0.0
H774 H 0.66886 0.06104 0.9535 0.0
H775 H 0.62453 0.93993 0.94733 0.0
H776 H 0.56227 0.10595 0.98602 0.0
H777 H 0.54828 0.01911 0.9567 0.0
H778 H 0.69748 0.23214 0.95727 0.0
H779 H 0.6861 0.1379 0.98502 0.0
H780 H 0.6052 0.1184 0.90677 0.0
H781 H 0.56419 0.12679 0.93707 0.0
H782 H 0.57852 0.1422 0.8927 0.0
H783 H 0.53818 0.14987 0.92244 0.0
H784 H 0.64049 0.13447 0.90652 0.0
H785 H 0.68184 0.12618 0.93664 0.0
H786 H 0.66728 0.11269 0.89225 0.0
H787 H 0.70793 0.10506 0.92183 0.0
H788 H 0.63167 0.2614 0.90032 0.0
H789 H 0.57137 0.26648 0.91363 0.0
H790 H 0.61118 0.9905 0.90047 0.0
H791 H 0.67315 0.98861 0.91054 0.0
Li792 Li 0.63257 0.15956 0.31262 0.0
Li793 Li 0.61724 0.09183 0.31355 0.0
Li794 Li 0.6409 0.10801 0.29749 0.0
Li795 Li 0.60863 0.13903 0.29722 0.0
C796 C 0.65107 0.09997 0.32754 0.0
N797 N 0.66154 0.08916 0.35195 0.0
C798 C 0.63949 0.11745 0.33689 0.0
C799 C 0.66799 0.07702 0.3306 0.0
C800 C 0.64502 0.11163 0.34918 0.0
C801 C 0.67303 0.07191 0.343 0.0
C802 C 0.58431 0.14311 0.31749 0.0
C803 C 0.55349 0.10548 0.31544 0.0
N804 N 0.54423 0.13549 0.3222 0.0
C805 C 0.57449 0.17356 0.32441 0.0
C806 C 0.57374 0.10876 0.31296 0.0
C807 C 0.55423 0.16915 0.3267 0.0
C808 C 0.62903 0.23781 0.32364 0.0
N809 N 0.64181 0.20544 0.32209 0.0
C810 C 0.66543 0.23752 0.33547 0.0
C811 C 0.65993 0.20511 0.32757 0.0
C812 C 0.65226 0.27074 0.33756 0.0
C813 C 0.63401 0.2711 0.33134 0.0
H814 H 0.61474 0.23716 0.31911 0.0
H815 H 0.66992 0.17917 0.32607 0.0
C816 C 0.61363 0.00917 0.32194 0.0
N817 N 0.60856 0.04932 0.32454 0.0
C818 C 0.60928 0.97722 0.33029 0.0
C819 C 0.59415 0.02851 0.34368 0.0
C820 C 0.59887 0.05942 0.33511 0.0
C821 C 0.59964 0.98682 0.34142 0.0
H822 H 0.62157 0.00221 0.31352 0.0
H823 H 0.59525 0.09166 0.33708 0.0
C824 C 0.65086 0.19066 0.29191 0.0
N825 N 0.68427 0.23733 0.28665 0.0
C826 C 0.64969 0.22459 0.28383 0.0
C827 C 0.66904 0.18046 0.29732 0.0
C828 C 0.66674 0.24781 0.28128 0.0
C829 C 0.68575 0.20443 0.29454 0.0
C830 C 0.61316 0.06456 0.2839 0.0
C831 C 0.61628 0.09183 0.27402 0.0
C832 C 0.60819 0.02285 0.28161 0.0
C833 C 0.61437 0.07687 0.26199 0.0
C834 C 0.60642 0.00908 0.26944 0.0
N835 N 0.60952 0.03615 0.25997 0.0
C836 C 0.67227 0.05315 0.29219 0.0
C837 C 0.66562 0.10242 0.27639 0.0
C838 C 0.68788 0.03625 0.28536 0.0
N839 N 0.66161 0.0857 0.28764 0.0
C840 C 0.68104 0.08646 0.26925 0.0
C841 C 0.69249 0.05303 0.27374 0.0
H842 H 0.6687 0.04051 0.30116 0.0
H843 H 0.65689 0.12826 0.27297 0.0
C844 C 0.58709 0.2016 0.28534 0.0
N845 N 0.58755 0.15972 0.28741 0.0
C846 C 0.57172 0.21924 0.27849 0.0
C847 C 0.55759 0.15019 0.27605 0.0
C848 C 0.57322 0.13392 0.28296 0.0
C849 C 0.55669 0.19342 0.27375 0.0
H850 H 0.59866 0.2213 0.28907 0.0
H851 H 0.57382 0.10075 0.28487 0.0
O852 O 0.64593 0.10483 0.31542 0.0
O853 O 0.60412 0.14734 0.31512 0.0
O854 O 0.63419 0.16794 0.29451 0.0
O855 O 0.61506 0.07821 0.29579 0.0
H856 H 0.62638 0.13543 0.33473 0.0
H857 H 0.67712 0.06329 0.32348 0.0
H858 H 0.63619 0.12499 0.3565 0.0
H859 H 0.68608 0.0542 0.3455 0.0
H860 H 0.54514 0.07908 0.31199 0.0
H861 H 0.58246 0.20035 0.32798 0.0
H862 H 0.58106 0.08482 0.3076 0.0
H863 H 0.54644 0.19249 0.33205 0.0
H864 H 0.6797 0.23638 0.34003 0.0
H865 H 0.62338 0.29598 0.3328 0.0
H866 H 0.61407 0.94566 0.32824 0.0
H867 H 0.58652 0.0373 0.35207 0.0
H868 H 0.63572 0.2329 0.27958 0.0
H869 H 0.67028 0.15429 0.30358 0.0
H870 H 0.66604 0.27417 0.27505 0.0
H871 H 0.6999 0.19687 0.29865 0.0
H872 H 0.62012 0.12422 0.2756 0.0
H873 H 0.60575 0.00135 0.28917 0.0
H874 H 0.61675 0.09764 0.25426 0.0
H875 H 0.60258 0.97687 0.26753 0.0
H876 H 0.69643 0.01081 0.28925 0.0
H877 H 0.68384 0.09995 0.26027 0.0
H878 H 0.57171 0.25264 0.27683 0.0
H879 H 0.54617 0.12925 0.27272 0.0
Li880 Li 0.35568 0.86126 0.04611 0.0
Li881 Li 0.37975 0.83829 0.06196 0.0
Li882 Li 0.3661 0.90713 0.06229 0.0
Li883 Li 0.38929 0.88978 0.04678 0.0
C884 C 0.33607 0.86606 0.07113 0.0
N885 N 0.3054 0.8945 0.08576 0.0
C886 C 0.3356 0.85621 0.08367 0.0
C887 C 0.32087 0.89016 0.06601 0.0
C888 C 0.31999 0.87096 0.09092 0.0
C889 C 0.30551 0.90428 0.07356 0.0
C890 C 0.37771 0.79113 0.03971 0.0
C891 C 0.38423 0.73361 0.02592 0.0
N892 N 0.36974 0.71101 0.03154 0.0
C893 C 0.36287 0.76734 0.04535 0.0
C894 C 0.38846 0.77421 0.0299 0.0
C895 C 0.35907 0.7269 0.04109 0.0
C896 C 0.33536 0.84919 0.02352 0.0
N897 N 0.3347 0.84242 0.03587 0.0
C898 C 0.30481 0.80304 0.03386 0.0
C899 C 0.31982 0.81999 0.04112 0.0
C900 C 0.30516 0.80889 0.02103 0.0
C901 C 0.32062 0.83267 0.01587 0.0
H902 H 0.34753 0.86673 0.01959 0.0
H903 H 0.3198 0.81454 0.05095 0.0
C904 C 0.38747 0.80291 0.0847 0.0
N905 N 0.38845 0.79418 0.07246 0.0
C906 C 0.39167 0.772 0.09339 0.0
C907 C 0.3987 0.72413 0.07671 0.0
C908 C 0.39474 0.75624 0.06835 0.0
C909 C 0.39677 0.73172 0.08938 0.0
H910 H 0.38298 0.83374 0.0877 0.0
H911 H 0.39635 0.75042 0.05861 0.0
C912 C 0.36771 0.96146 0.04183 0.0
N913 N 0.37581 0.04408 0.03629 0.0
C914 C 0.38049 0.98468 0.04931 0.0
C915 C 0.35906 0.98026 0.03153 0.0
C916 C 0.3844 0.0264 0.04636 0.0
C917 C 0.36334 0.02207 0.02888 0.0
C918 C 0.41338 0.88222 0.06731 0.0
C919 C 0.42335 0.90379 0.07664 0.0
C920 C 0.42335 0.85143 0.06058 0.0
C921 C 0.44317 0.89428 0.07906 0.0
C922 C 0.44317 0.84284 0.06328 0.0
N923 N 0.45259 0.86426 0.07238 0.0
C924 C 0.36553 0.94656 0.08506 0.0
C925 C 0.34501 0.98022 0.07034 0.0
C926 C 0.3608 0.97654 0.0939 0.0
N927 N 0.35777 0.94915 0.07354 0.0
C928 C 0.34 0.01115 0.07888 0.0
C929 C 0.34806 0.00964 0.09081 0.0
H930 H 0.37556 0.92132 0.08732 0.0
H931 H 0.33887 0.98117 0.06114 0.0
C932 C 0.41293 0.89623 0.02531 0.0
N933 N 0.41061 0.91027 0.03704 0.0
C934 C 0.42851 0.91112 0.01804 0.0
C935 C 0.4389 0.95468 0.03506 0.0
C936 C 0.42318 0.93897 0.04198 0.0
C937 C 0.44178 0.94072 0.02293 0.0
H938 H 0.40267 0.87345 0.02162 0.0
H939 H 0.42097 0.94989 0.05129 0.0
O940 O 0.35149 0.85291 0.06393 0.0
O941 O 0.38142 0.83121 0.04349 0.0
O942 O 0.36369 0.92046 0.04445 0.0
O943 O 0.39395 0.89139 0.06491 0.0
H944 H 0.34718 0.83748 0.08779 0.0
H945 H 0.32113 0.89846 0.05634 0.0
H946 H 0.31947 0.86371 0.10065 0.0
H947 H 0.29373 0.92319 0.06974 0.0
H948 H 0.39245 0.7201 0.01834 0.0
H949 H 0.35449 0.77976 0.053 0.0
H950 H 0.39994 0.79229 0.02541 0.0
H951 H 0.34766 0.70813 0.04538 0.0
H952 H 0.29306 0.78549 0.03827 0.0
H953 H 0.3216 0.83756 0.00602 0.0
H954 H 0.39004 0.77895 0.10311 0.0
H955 H 0.40292 0.69353 0.07332 0.0
H956 H 0.38733 0.97071 0.05733 0.0
H957 H 0.34915 0.96266 0.02564 0.0
H958 H 0.39426 0.04471 0.05208 0.0
H959 H 0.35674 0.03702 0.02094 0.0
H960 H 0.41583 0.92768 0.08194 0.0
H961 H 0.41594 0.83434 0.05333 0.0
H962 H 0.45107 0.91077 0.08624 0.0
H963 H 0.45106 0.81914 0.05813 0.0
H964 H 0.36753 0.9745 0.10294 0.0
H965 H 0.32997 0.03596 0.07618 0.0
H966 H 0.43028 0.89922 0.00876 0.0
H967 H 0.44853 0.97798 0.03914 0.0
Li968 Li 0.38115 0.90877 0.68237 0.0
Li969 Li 0.35702 0.88215 0.69749 0.0
Li970 Li 0.39092 0.8561 0.69709 0.0
Li971 Li 0.36863 0.8389 0.68097 0.0
C972 C 0.37751 0.95319 0.7048 0.0
N973 N 0.36783 0.03219 0.71319 0.0
C974 C 0.3632 0.97698 0.69865 0.0
C975 C 0.38685 0.96955 0.71522 0.0
C976 C 0.35853 0.01685 0.70303 0.0
C977 C 0.38178 0.00958 0.71932 0.0
C978 C 0.33741 0.87946 0.6729 0.0
C979 C 0.3079 0.83761 0.67063 0.0
N980 N 0.30579 0.85196 0.65891 0.0
C981 C 0.33492 0.89396 0.66085 0.0
C982 C 0.32377 0.85119 0.67786 0.0
C983 C 0.31884 0.87963 0.65392 0.0
C984 C 0.38703 0.94922 0.66025 0.0
N985 N 0.38955 0.95464 0.67256 0.0
C986 C 0.40222 0.02357 0.66935 0.0
C987 C 0.39755 0.99039 0.6772 0.0
C988 C 0.39903 0.01938 0.65662 0.0
C989 C 0.3917 0.98132 0.65206 0.0
H990 H 0.38113 0.92001 0.65683 0.0
H991 H 0.40014 0.99343 0.68698 0.0
C992 C 0.33591 0.89094 0.71991 0.0
N993 N 0.33551 0.8988 0.70761 0.0
C994 C 0.32095 0.90658 0.72755 0.0
C995 C 0.30542 0.9374 0.70964 0.0
C996 C 0.32065 0.92136 0.70239 0.0
C997 C 0.30555 0.9306 0.72243 0.0
H998 H 0.3481 0.87341 0.72381 0.0
H999 H 0.32087 0.92783 0.69262 0.0
C1000 C 0.41561 0.86789 0.67689 0.0
N1001 N 0.45457 0.88932 0.67227 0.0
C1002 C 0.42587 0.84915 0.66717 0.0
C1003 C 0.42515 0.89763 0.68425 0.0
C1004 C 0.44557 0.86037 0.66498 0.0
C1005 C 0.44485 0.90801 0.68176 0.0
C1006 C 0.37048 0.78216 0.70075 0.0
C1007 C 0.3845 0.7618 0.6934 0.0
C1008 C 0.36141 0.76054 0.71041 0.0
C1009 C 0.38917 0.72005 0.69584 0.0
C1010 C 0.36648 0.7188 0.71255 0.0
N1011 N 0.38014 0.69959 0.70528 0.0
C1012 C 0.41253 0.84723 0.71918 0.0
C1013 C 0.42584 0.81004 0.70219 0.0
C1014 C 0.42756 0.83218 0.72685 0.0
N1015 N 0.41197 0.83595 0.70712 0.0
C1016 C 0.4411 0.79434 0.7095 0.0
C1017 C 0.44208 0.80521 0.72202 0.0
H1018 H 0.4012 0.86764 0.72285 0.0
H1019 H 0.42503 0.80133 0.69259 0.0
C1020 C 0.36679 0.80939 0.65714 0.0
N1021 N 0.36136 0.79895 0.66879 0.0
C1022 C 0.36271 0.78257 0.64735 0.0
C1023 C 0.34759 0.73443 0.66173 0.0
C1024 C 0.35151 0.7628 0.67122 0.0
C1025 C 0.3534 0.74391 0.64958 0.0
H1026 H 0.3743 0.83874 0.65549 0.0
H1027 H 0.34695 0.75562 0.68052 0.0
O1028 O 0.38213 0.91373 0.70085 0.0
O1029 O 0.35333 0.89217 0.67975 0.0
O1030 O 0.39628 0.85718 0.67903 0.0
O1031 O 0.36579 0.8232 0.69869 0.0
H1032 H 0.35585 0.96497 0.69054 0.0
H1033 H 0.39791 0.95146 0.72011 0.0
H1034 H 0.3475 0.03559 0.69836 0.0
H1035 H 0.3889 0.02264 0.72737 0.0
H1036 H 0.2973 0.81553 0.67433 0.0
H1037 H 0.34527 0.91596 0.65688 0.0
H1038 H 0.32559 0.83942 0.68715 0.0
H1039 H 0.31675 0.89047 0.64457 0.0
H1040 H 0.40815 0.05225 0.67318 0.0
H1041 H 0.38896 0.97689 0.64232 0.0
H1042 H 0.32178 0.90098 0.73737 0.0
H1043 H 0.29372 0.95519 0.70526 0.0
H1044 H 0.41866 0.82615 0.66137 0.0
H1045 H 0.41749 0.91256 0.6918 0.0
H1046 H 0.4537 0.84608 0.6575 0.0
H1047 H 0.45242 0.93094 0.68739 0.0
H1048 H 0.39165 0.77794 0.68586 0.0
H1049 H 0.35058 0.77593 0.71621 0.0
H1050 H 0.39998 0.70392 0.69022 0.0
H1051 H 0.35957 0.70168 0.72 0.0
H1052 H 0.42761 0.84098 0.73648 0.0
H1053 H 0.45211 0.77416 0.70533 0.0
H1054 H 0.36693 0.79214 0.63816 0.0
H1055 H 0.34055 0.70502 0.664 0.0
Li1056 Li 0.60767 0.60295 0.44717 0.0
Li1057 Li 0.64039 0.63525 0.44785 0.0
Li1058 Li 0.61681 0.65248 0.43159 0.0
Li1059 Li 0.63332 0.58452 0.4322 0.0
C1060 C 0.6022 0.67425 0.45883 0.0
N1061 N 0.57738 0.69322 0.47828 0.0
C1062 C 0.60983 0.67777 0.47075 0.0
C1063 C 0.58198 0.68063 0.45678 0.0
C1064 C 0.59703 0.68737 0.48047 0.0
C1065 C 0.56966 0.69008 0.46674 0.0
C1066 C 0.63973 0.53539 0.45122 0.0
C1067 C 0.66509 0.48282 0.44886 0.0
N1068 N 0.65176 0.45282 0.45207 0.0
C1069 C 0.6263 0.50405 0.45453 0.0
C1070 C 0.65931 0.52475 0.4484 0.0
C1071 C 0.63267 0.46249 0.4549 0.0
C1072 C 0.57011 0.56636 0.45077 0.0
N1073 N 0.58642 0.58104 0.45669 0.0
C1074 C 0.57267 0.56255 0.47622 0.0
C1075 C 0.58808 0.57904 0.46915 0.0
C1076 C 0.55553 0.54727 0.47038 0.0
C1077 C 0.55442 0.54927 0.45746 0.0
H1078 H 0.56938 0.56737 0.44084 0.0
H1079 H 0.60142 0.59016 0.47359 0.0
C1080 C 0.66148 0.70016 0.45947 0.0
N1081 N 0.66057 0.65798 0.45803 0.0
C1082 C 0.67687 0.7182 0.46622 0.0
C1083 C 0.68988 0.64894 0.47004 0.0
C1084 C 0.67422 0.63227 0.46323 0.0
C1085 C 0.69142 0.6925 0.47155 0.0
H1086 H 0.65034 0.71979 0.45523 0.0
H1087 H 0.67313 0.59887 0.46195 0.0
C1088 C 0.59354 0.60274 0.41911 0.0
N1089 N 0.57129 0.61926 0.3983 0.0
C1090 C 0.60011 0.58936 0.40755 0.0
C1091 C 0.57558 0.62426 0.42009 0.0
C1092 C 0.58866 0.59805 0.39713 0.0
C1093 C 0.56457 0.63241 0.40946 0.0
C1094 C 0.66217 0.66288 0.4297 0.0
C1095 C 0.66107 0.70624 0.42819 0.0
C1096 C 0.68057 0.64388 0.43159 0.0
C1097 C 0.67844 0.72995 0.42868 0.0
C1098 C 0.69759 0.6687 0.43206 0.0
N1099 N 0.69618 0.71086 0.43061 0.0
C1100 C 0.59695 0.72736 0.42417 0.0
C1101 C 0.61538 0.69168 0.40882 0.0
C1102 C 0.59197 0.75882 0.41578 0.0
N1103 N 0.60849 0.6948 0.42054 0.0
C1104 C 0.61067 0.72217 0.40014 0.0
C1105 C 0.59896 0.7565 0.4036 0.0
H1106 H 0.59188 0.72923 0.4336 0.0
H1107 H 0.62482 0.66573 0.40629 0.0
C1108 C 0.63366 0.50398 0.42183 0.0
N1109 N 0.64312 0.5415 0.42187 0.0
C1110 C 0.63914 0.47308 0.41343 0.0
C1111 C 0.6638 0.52027 0.40515 0.0
C1112 C 0.65802 0.55008 0.41383 0.0
C1113 C 0.65415 0.48138 0.40482 0.0
H1114 H 0.62143 0.49858 0.42806 0.0
H1115 H 0.66493 0.58057 0.41387 0.0
O1116 O 0.61443 0.66435 0.44922 0.0
O1117 O 0.63374 0.57624 0.4507 0.0
O1118 O 0.60474 0.59536 0.42938 0.0
O1119 O 0.64528 0.63924 0.4296 0.0
H1120 H 0.62542 0.67271 0.47252 0.0
H1121 H 0.57581 0.67781 0.44761 0.0
H1122 H 0.60271 0.69 0.48976 0.0
H1123 H 0.55396 0.69481 0.4653 0.0
H1124 H 0.68015 0.47411 0.44661 0.0
H1125 H 0.61109 0.51164 0.45671 0.0
H1126 H 0.66985 0.54851 0.44568 0.0
H1127 H 0.62241 0.4379 0.45741 0.0
H1128 H 0.57415 0.56206 0.48616 0.0
H1129 H 0.54173 0.53706 0.45253 0.0
H1130 H 0.67729 0.75186 0.4673 0.0
H1131 H 0.70088 0.62795 0.47385 0.0
H1132 H 0.614 0.57283 0.40659 0.0
H1133 H 0.57032 0.63504 0.42895 0.0
H1134 H 0.59361 0.58807 0.38812 0.0
H1135 H 0.55072 0.64929 0.41008 0.0
H1136 H 0.64693 0.7215 0.42682 0.0
H1137 H 0.68165 0.61039 0.43288 0.0
H1138 H 0.67781 0.76356 0.4276 0.0
H1139 H 0.71191 0.65447 0.43361 0.0
H1140 H 0.58286 0.78475 0.4188 0.0
H1141 H 0.61669 0.71956 0.39092 0.0
H1142 H 0.63108 0.44378 0.4133 0.0
H1143 H 0.6754 0.5278 0.39862 0.0
Li1144 Li 0.61482 0.59011 0.81293 0.0
Li1145 Li 0.63154 0.65766 0.81262 0.0
Li1146 Li 0.60638 0.63737 0.79645 0.0
Li1147 Li 0.63961 0.60623 0.79645 0.0
C1148 C 0.58856 0.6406 0.82326 0.0
N1149 N 0.56035 0.62709 0.84128 0.0
C1150 C 0.59147 0.65604 0.83517 0.0
C1151 C 0.57116 0.61885 0.82047 0.0
C1152 C 0.57706 0.64875 0.84417 0.0
C1153 C 0.55712 0.61217 0.82972 0.0
C1154 C 0.66154 0.60344 0.82043 0.0
C1155 C 0.69612 0.62259 0.82056 0.0
N1156 N 0.69784 0.60713 0.83219 0.0
C1157 C 0.66372 0.58728 0.83232 0.0
C1158 C 0.67792 0.62088 0.81446 0.0
C1159 C 0.68216 0.58963 0.83813 0.0
C1160 C 0.59711 0.51273 0.81963 0.0
N1161 N 0.60559 0.54841 0.82392 0.0
C1162 C 0.6033 0.52405 0.84466 0.0
C1163 C 0.6086 0.55473 0.83615 0.0
C1164 C 0.59494 0.48634 0.84051 0.0
C1165 C 0.5916 0.4811 0.82782 0.0
H1166 H 0.59504 0.50843 0.80983 0.0
H1167 H 0.61555 0.5833 0.83927 0.0
C1168 C 0.64173 0.7411 0.81829 0.0
N1169 N 0.64093 0.7015 0.8228 0.0
C1170 C 0.64651 0.77442 0.82605 0.0
C1171 C 0.64967 0.72548 0.84292 0.0
C1172 C 0.64499 0.69311 0.83481 0.0
C1173 C 0.65012 0.76694 0.83862 0.0
H1174 H 0.63802 0.747 0.80876 0.0
H1175 H 0.6436 0.66153 0.83824 0.0
C1176 C 0.6026 0.56166 0.78554 0.0
N1177 N 0.5802 0.53159 0.76615 0.0
C1178 C 0.61142 0.55425 0.77409 0.0
C1179 C 0.58245 0.5532 0.78717 0.0
C1180 C 0.59983 0.53916 0.76439 0.0
C1181 C 0.57136 0.53821 0.77724 0.0
C1182 C 0.64408 0.68889 0.78667 0.0
C1183 C 0.63763 0.6978 0.77471 0.0
C1184 C 0.6624 0.70415 0.79066 0.0
C1185 C 0.64984 0.72091 0.76685 0.0
C1186 C 0.67418 0.72716 0.78253 0.0
N1187 N 0.66773 0.73494 0.77089 0.0
C1188 C 0.57082 0.68056 0.79216 0.0
C1189 C 0.58499 0.65151 0.77411 0.0
C1190 C 0.55495 0.69647 0.78539 0.0
N1191 N 0.58533 0.65827 0.78648 0.0
C1192 C 0.56934 0.66668 0.76698 0.0
C1193 C 0.55403 0.68946 0.77263 0.0
H1194 H 0.57157 0.68609 0.80197 0.0
H1195 H 0.5969 0.63455 0.76975 0.0
C1196 C 0.67054 0.55025 0.79179 0.0
N1197 N 0.66049 0.58299 0.78681 0.0
C1198 C 0.68619 0.53176 0.78539 0.0
C1199 C 0.68054 0.58032 0.76869 0.0
C1200 C 0.66503 0.5979 0.77543 0.0
C1201 C 0.6914 0.54687 0.77368 0.0
H1202 H 0.66639 0.53851 0.80078 0.0
H1203 H 0.65652 0.6231 0.77149 0.0
O1204 O 0.60265 0.64678 0.81437 0.0
O1205 O 0.64354 0.60151 0.81463 0.0
O1206 O 0.61371 0.57659 0.79513 0.0
O1207 O 0.63224 0.66641 0.79449 0.0
H1208 H 0.60473 0.67328 0.83747 0.0
H1209 H 0.56856 0.60716 0.81128 0.0
H1210 H 0.57919 0.66029 0.85344 0.0
H1211 H 0.54365 0.59515 0.8277 0.0
H1212 H 0.7089 0.63607 0.81604 0.0
H1213 H 0.65129 0.5732 0.83705 0.0
H1214 H 0.67668 0.63246 0.80515 0.0
H1215 H 0.684 0.57748 0.84736 0.0
H1216 H 0.60648 0.52918 0.85432 0.0
H1217 H 0.58508 0.45262 0.82424 0.0
H1218 H 0.64687 0.80579 0.8223 0.0
H1219 H 0.6519 0.71823 0.85256 0.0
H1220 H 0.627 0.56029 0.77268 0.0
H1221 H 0.57542 0.55825 0.79599 0.0
H1222 H 0.60644 0.53352 0.75547 0.0
H1223 H 0.55572 0.53179 0.77835 0.0
H1224 H 0.62343 0.68673 0.77148 0.0
H1225 H 0.66739 0.69883 0.79999 0.0
H1226 H 0.6451 0.72771 0.75754 0.0
H1227 H 0.68841 0.73903 0.78551 0.0
H1228 H 0.5434 0.71364 0.79012 0.0
H1229 H 0.5694 0.66118 0.75714 0.0
H1230 H 0.69392 0.50557 0.7895 0.0
H1231 H 0.68409 0.59311 0.75972 0.0
Li1232 Li 0.39131 0.38593 0.54572 0.0
Li1233 Li 0.36722 0.40861 0.5601 0.0
Li1234 Li 0.37965 0.33888 0.56162 0.0
Li1235 Li 0.35737 0.35981 0.54461 0.0
C1236 C 0.41351 0.38167 0.56722 0.0
N1237 N 0.45174 0.36201 0.57424 0.0
C1238 C 0.42276 0.40412 0.57665 0.0
C1239 C 0.42368 0.3491 0.56138 0.0
C1240 C 0.4421 0.39374 0.58006 0.0
C1241 C 0.443 0.33969 0.56506 0.0
C1242 C 0.37163 0.45797 0.53889 0.0
C1243 C 0.36898 0.51712 0.52519 0.0
N1244 N 0.382 0.53861 0.53237 0.0
C1245 C 0.38499 0.48064 0.54612 0.0
C1246 C 0.36357 0.4763 0.52833 0.0
C1247 C 0.39004 0.52137 0.54268 0.0
C1248 C 0.4146 0.38905 0.52417 0.0
N1249 N 0.41343 0.40261 0.53601 0.0
C1250 C 0.44326 0.44204 0.53372 0.0
C1251 C 0.42728 0.4288 0.54085 0.0
C1252 C 0.44487 0.42869 0.52144 0.0
C1253 C 0.43027 0.40192 0.51665 0.0
H1254 H 0.40326 0.36851 0.52055 0.0
H1255 H 0.42582 0.43996 0.55019 0.0
C1256 C 0.36416 0.45028 0.58237 0.0
N1257 N 0.35883 0.45354 0.57034 0.0
C1258 C 0.35932 0.48189 0.59067 0.0
C1259 C 0.34362 0.51982 0.57404 0.0
C1260 C 0.34839 0.48696 0.56609 0.0
C1261 C 0.34922 0.51746 0.58647 0.0
H1262 H 0.37237 0.42319 0.58546 0.0
H1263 H 0.344 0.4884 0.55652 0.0
C1264 C 0.37869 0.28662 0.54043 0.0
N1265 N 0.37014 0.20515 0.5338 0.0
C1266 C 0.36295 0.2654 0.54602 0.0
C1267 C 0.39003 0.26646 0.53145 0.0
C1268 C 0.35887 0.22422 0.54254 0.0
C1269 C 0.3855 0.22523 0.52824 0.0
C1270 C 0.33601 0.37142 0.569 0.0
C1271 C 0.3343 0.36265 0.58156 0.0
C1272 C 0.32191 0.39683 0.56326 0.0
C1273 C 0.31858 0.37984 0.58823 0.0
C1274 C 0.3064 0.41341 0.57024 0.0
N1275 N 0.30508 0.40468 0.58248 0.0
C1276 C 0.38598 0.31073 0.58522 0.0
C1277 C 0.39335 0.25831 0.5705 0.0
C1278 C 0.3905 0.28356 0.59486 0.0
N1279 N 0.38705 0.29753 0.57335 0.0
C1280 C 0.39774 0.2298 0.57987 0.0
C1281 C 0.39607 0.24211 0.59227 0.0
H1282 H 0.38156 0.34256 0.58719 0.0
H1283 H 0.39488 0.24885 0.56101 0.0
C1284 C 0.33938 0.34268 0.52163 0.0
N1285 N 0.33704 0.34026 0.53404 0.0
C1286 C 0.32503 0.32584 0.51377 0.0
C1287 C 0.30614 0.30484 0.53167 0.0
C1288 C 0.32085 0.32186 0.53915 0.0
C1289 C 0.30817 0.30633 0.51879 0.0
H1290 H 0.35258 0.35702 0.51786 0.0
H1291 H 0.31951 0.31975 0.54905 0.0
O1292 O 0.39451 0.39148 0.5639 0.0
O1293 O 0.36654 0.41786 0.54196 0.0
O1294 O 0.38273 0.32729 0.54343 0.0
O1295 O 0.35158 0.35584 0.56236 0.0
H1296 H 0.41505 0.42931 0.58128 0.0
H1297 H 0.41679 0.33125 0.55409 0.0
H1298 H 0.44945 0.41089 0.58734 0.0
H1299 H 0.45104 0.31461 0.56062 0.0
H1300 H 0.36285 0.53169 0.51705 0.0
H1301 H 0.39137 0.46707 0.55434 0.0
H1302 H 0.35324 0.45909 0.52262 0.0
H1303 H 0.40035 0.53926 0.5482 0.0
H1304 H 0.45402 0.46327 0.53769 0.0
H1305 H 0.43104 0.39087 0.50722 0.0
H1306 H 0.36403 0.47925 0.60018 0.0
H1307 H 0.33575 0.54682 0.57052 0.0
H1308 H 0.35404 0.28039 0.55302 0.0
H1309 H 0.40219 0.28257 0.52699 0.0
H1310 H 0.34676 0.20741 0.5468 0.0
H1311 H 0.39416 0.20922 0.52131 0.0
H1312 H 0.34503 0.3429 0.58614 0.0
H1313 H 0.32312 0.40418 0.55355 0.0
H1314 H 0.31711 0.37346 0.59797 0.0
H1315 H 0.29546 0.43337 0.56594 0.0
H1316 H 0.38958 0.29498 0.60423 0.0
H1317 H 0.40191 0.19823 0.57738 0.0
H1318 H 0.32735 0.32723 0.50391 0.0
H1319 H 0.29329 0.29071 0.53596 0.0
Li1320 Li 0.3795 0.40499 0.18387 0.0
Li1321 Li 0.35687 0.38468 0.19985 0.0
Li1322 Li 0.39247 0.35866 0.19928 0.0
Li1323 Li 0.3672 0.33553 0.18363 0.0
C1324 C 0.38965 0.45454 0.20394 0.0
N1325 N 0.40481 0.53337 0.20835 0.0
C1326 C 0.37739 0.48963 0.20306 0.0
C1327 C 0.40957 0.45943 0.20716 0.0
C1328 C 0.38536 0.52926 0.20529 0.0
C1329 C 0.41696 0.49959 0.20933 0.0
C1330 C 0.33202 0.3801 0.17991 0.0
C1331 C 0.30277 0.33817 0.18312 0.0
N1332 N 0.29223 0.36494 0.17592 0.0
C1333 C 0.32092 0.40721 0.17254 0.0
C1334 C 0.32289 0.34532 0.18526 0.0
C1335 C 0.30082 0.399 0.17063 0.0
C1336 C 0.37542 0.44433 0.16159 0.0
N1337 N 0.38532 0.44887 0.1724 0.0
C1338 C 0.40063 0.51159 0.16505 0.0
C1339 C 0.3981 0.48122 0.17419 0.0
C1340 C 0.39029 0.50806 0.15383 0.0
C1341 C 0.37784 0.47327 0.15213 0.0
H1342 H 0.36575 0.41772 0.16027 0.0
H1343 H 0.40642 0.48361 0.18262 0.0
C1344 C 0.33139 0.38176 0.2207 0.0
N1345 N 0.33584 0.40227 0.21009 0.0
C1346 C 0.31548 0.39498 0.22796 0.0
C1347 C 0.30939 0.45052 0.21331 0.0
C1348 C 0.32528 0.43606 0.20632 0.0
C1349 C 0.30419 0.42981 0.22427 0.0
H1350 H 0.34016 0.3551 0.2235 0.0
H1351 H 0.32924 0.4518 0.19785 0.0
C1352 C 0.40761 0.36653 0.17233 0.0
N1353 N 0.43223 0.39748 0.15417 0.0
C1354 C 0.40379 0.35757 0.15996 0.0
C1355 C 0.42402 0.39096 0.17549 0.0
C1356 C 0.4164 0.37358 0.1509 0.0
C1357 C 0.43628 0.40637 0.16616 0.0
C1358 C 0.36558 0.28645 0.2061 0.0
C1359 C 0.38228 0.26054 0.20612 0.0
C1360 C 0.34757 0.27115 0.2106 0.0
C1361 C 0.38063 0.21966 0.21055 0.0
C1362 C 0.34653 0.23006 0.21494 0.0
N1363 N 0.36294 0.20538 0.21483 0.0
C1364 C 0.4134 0.34539 0.22143 0.0
C1365 C 0.43027 0.32477 0.20324 0.0
C1366 C 0.42896 0.33063 0.22871 0.0
N1367 N 0.41432 0.34194 0.20896 0.0
C1368 C 0.44613 0.30963 0.21015 0.0
C1369 C 0.44552 0.31205 0.22307 0.0
H1370 H 0.4004 0.35891 0.22569 0.0
H1371 H 0.43047 0.32202 0.19332 0.0
C1372 C 0.35083 0.30404 0.16189 0.0
N1373 N 0.35904 0.29182 0.17275 0.0
C1374 C 0.34556 0.27448 0.15302 0.0
C1375 C 0.35748 0.22012 0.16659 0.0
C1376 C 0.36241 0.25076 0.17522 0.0
C1377 C 0.34909 0.23185 0.15525 0.0
H1378 H 0.34874 0.33693 0.15998 0.0
H1379 H 0.36944 0.24164 0.1837 0.0
O1380 O 0.38211 0.41546 0.20197 0.0
O1381 O 0.35167 0.38812 0.18196 0.0
O1382 O 0.39513 0.35215 0.1813 0.0
O1383 O 0.36699 0.32694 0.20207 0.0
H1384 H 0.36194 0.48632 0.20061 0.0
H1385 H 0.41922 0.43252 0.20794 0.0
H1386 H 0.37608 0.55674 0.20458 0.0
H1387 H 0.43236 0.5039 0.21179 0.0
H1388 H 0.29553 0.31132 0.1872 0.0
H1389 H 0.32777 0.43437 0.16837 0.0
H1390 H 0.33126 0.324 0.19094 0.0
H1391 H 0.29204 0.41974 0.16495 0.0
H1392 H 0.41035 0.53778 0.16689 0.0
H1393 H 0.37006 0.46812 0.14354 0.0
H1394 H 0.31192 0.3778 0.23626 0.0
H1395 H 0.30142 0.47797 0.2102 0.0
H1396 H 0.39111 0.33878 0.15737 0.0
H1397 H 0.42706 0.3985 0.18503 0.0
H1398 H 0.41356 0.36712 0.14128 0.0
H1399 H 0.44895 0.42559 0.16846 0.0
H1400 H 0.39626 0.2715 0.20252 0.0
H1401 H 0.33452 0.29077 0.21078 0.0
H1402 H 0.39341 0.19923 0.21054 0.0
H1403 H 0.33267 0.21782 0.21843 0.0
H1404 H 0.42779 0.33269 0.23864 0.0
H1405 H 0.4587 0.29604 0.20542 0.0
H1406 H 0.33901 0.28502 0.14446 0.0
H1407 H 0.3609 0.18775 0.16861 0.0
H1408 H 0.29377 0.33545 0.49668 0.0
H1409 H 0.20996 0.16003 0.49161 0.0
H1410 H 0.28765 0.23335 0.52246 0.0
H1411 H 0.22378 0.24533 0.46196 0.0
H1412 H 0.23791 0.18777 0.50325 0.0
H1413 H 0.26774 0.30423 0.48398 0.0
C1414 C 0.28709 0.30633 0.49963 0.0
C1415 C 0.29285 0.28721 0.51072 0.0
C1416 C 0.23488 0.2003 0.49417 0.0
C1417 C 0.26284 0.25164 0.49631 0.0
C1418 C 0.21897 0.18429 0.48747 0.0
C1419 C 0.21443 0.20032 0.47576 0.0
C1420 C 0.24633 0.23287 0.48919 0.0
C1421 C 0.22647 0.23242 0.47103 0.0
C1422 C 0.27216 0.28863 0.4924 0.0
C1423 C 0.28344 0.24974 0.51413 0.0
N1424 N 0.24181 0.24774 0.47778 0.0
N1425 N 0.26887 0.23333 0.50699 0.0
H1426 H 0.95798 0.01922 0.52144 0.0
H1427 H 0.03297 0.98425 0.46554 0.0
H1428 H 0.96281 0.90162 0.50208 0.0
H1429 H 0.03863 0.08435 0.49204 0.0
H1430 H 0.00528 0.95606 0.47746 0.0
H1431 H 0.98536 0.04655 0.50924 0.0
C1432 C 0.96485 -0.00101 0.51468 0.0
C1433 C 0.95816 0.95782 0.5129 0.0
C1434 C 0.01263 0.98417 0.48065 0.0
C1435 C 0.98937 0.98938 0.4987 0.0
C1436 C 0.02852 0.00019 0.47389 0.0
C1437 C 0.0382 0.03683 0.47776 0.0
C1438 C 0.00625 0.0051 0.4913 0.0
C1439 C 0.03146 0.05648 0.48855 0.0
C1440 C 0.98045 0.01474 0.50767 0.0
C1441 C 0.96734 0.93361 0.50372 0.0
N1442 N 0.01589 0.04044 0.49491 0.0
N1443 N 0.9825 0.94974 0.49697 0.0
H1444 H 0.28878 0.00829 0.72037 0.0
H1445 H 0.21718 0.98209 0.77857 0.0
H1446 H 0.28687 0.89631 0.74259 0.0
H1447 H 0.21199 0.08179 0.75192 0.0
H1448 H 0.2444 0.95251 0.76654 0.0
H1449 H 0.26242 0.03815 0.73293 0.0
C1450 C 0.28274 0.98981 0.72785 0.0
C1451 C 0.28995 0.94948 0.73033 0.0
C1452 C 0.2373 0.98088 0.76334 0.0
C1453 C 0.25989 0.98393 0.74492 0.0
C1454 C 0.22168 0.9977 0.77017 0.0
C1455 C 0.2122 0.0345 0.76625 0.0
C1456 C 0.24357 0.00107 0.75254 0.0
C1457 C 0.21898 0.05373 0.75541 0.0
C1458 C 0.26774 0.00703 0.73506 0.0
C1459 C 0.28188 0.92758 0.74038 0.0
N1460 N 0.23422 0.03679 0.74894 0.0
N1461 N 0.26725 0.94506 0.74728 0.0
H1462 H 0.05851 0.22697 0.74938 0.0
H1463 H 0.94143 0.25722 0.74215 0.0
H1464 H 0.01538 0.16406 0.7722 0.0
H1465 H 0.98398 0.30421 0.71588 0.0
H1466 H 0.9685 0.22564 0.75386 0.0
H1467 H 0.03155 0.25714 0.73731 0.0
C1468 C 0.0434 0.2191 0.75179 0.0
C1469 C 0.03925 0.19289 0.76185 0.0
C1470 C 0.97192 0.24283 0.74553 0.0
C1471 C 0.00826 0.22808 0.74819 0.0
C1472 C 0.95649 0.26115 0.73889 0.0
C1473 C 0.96046 0.28345 0.72803 0.0
C1474 C 0.99151 0.24702 0.74133 0.0
C1475 C 0.98024 0.28695 0.72414 0.0
C1476 C 0.02799 0.23662 0.74494 0.0
C1477 C 0.01931 0.18457 0.76465 0.0
N1478 N 0.99502 0.26903 0.7308 0.0
N1479 N 0.00458 0.20219 0.75789 0.0
H1480 H 0.78638 0.7356 0.52344 0.0
H1481 H 0.71255 0.76388 0.4664 0.0
H1482 H 0.78524 0.84643 0.50071 0.0
H1483 H 0.70854 0.66307 0.49276 0.0
H1484 H 0.74017 0.79324 0.47813 0.0
H1485 H 0.75902 0.70691 0.51149 0.0
C1486 C 0.7803 0.75407 0.51598 0.0
C1487 C 0.78803 0.79371 0.51316 0.0
C1488 C 0.73323 0.76471 0.48134 0.0
C1489 C 0.75679 0.76064 0.49929 0.0
C1490 C 0.71737 0.74804 0.47469 0.0
C1491 C 0.70816 0.71091 0.4786 0.0
C1492 C 0.73999 0.74405 0.49196 0.0
C1493 C 0.71533 0.69139 0.48929 0.0
C1494 C 0.76472 0.73754 0.50911 0.0
C1495 C 0.77985 0.81565 0.50317 0.0
N1496 N 0.73079 0.70818 0.49558 0.0
N1497 N 0.76463 0.79885 0.49661 0.0
H1498 H 0.71934 0.09632 0.25969 0.0
H1499 H 0.77965 0.89277 0.23877 0.0
H1500 H 0.70376 0.97098 0.27094 0.0
H1501 H 0.79011 0.01631 0.2241 0.0
H1502 H 0.75292 0.92115 0.25149 0.0
H1503 H 0.7463 0.06778 0.24732 0.0
C1504 C 0.7215 0.06276 0.25951 0.0
C1505 C 0.70917 0.03602 0.26634 0.0
C1506 C 0.76105 0.94203 0.24548 0.0
C1507 C 0.74026 0.00313 0.25229 0.0
C1508 C 0.77638 0.9259 0.23826 0.0
C1509 C 0.7871 0.9522 0.23034 0.0
C1510 C 0.75649 0.98484 0.24482 0.0
C1511 C 0.78207 0.99479 0.22995 0.0
C1512 C 0.73698 0.04649 0.25249 0.0
C1513 C 0.713 0.99285 0.26594 0.0
N1514 N 0.76716 0.00977 0.2371 0.0
N1515 N 0.72819 0.97775 0.25902 0.0
H1516 H 0.96683 0.84463 0.23788 0.0
H1517 H 0.01861 0.64269 0.26721 0.0
H1518 H 0.94701 0.7184 0.23104 0.0
H1519 H 0.04491 0.76588 0.26747 0.0
H1520 H 0.99062 0.67057 0.25555 0.0
H1521 H 0.99371 0.81705 0.25061 0.0
C1522 C 0.96805 0.81112 0.23914 0.0
C1523 C 0.95471 0.78374 0.23337 0.0
C1524 C 0.00252 0.69148 0.25818 0.0
C1525 C 0.98548 0.75196 0.24785 0.0
C1526 C 0.01857 0.67555 0.26479 0.0
C1527 C 0.03423 0.70191 0.26831 0.0
C1528 C 0.00203 0.73414 0.25512 0.0
C1529 C 0.0331 0.74444 0.26511 0.0
C1530 C 0.98347 0.79538 0.24634 0.0
C1531 C 0.95712 0.74057 0.2352 0.0
N1532 N 0.0173 0.75919 0.2587 0.0
N1533 N 0.97221 0.726 0.24229 0.0
H1534 H 0.28826 0.73136 0.02336 0.0
H1535 H 0.21567 0.75783 0.96559 0.0
H1536 H 0.2867 0.8423 0.00069 0.0
H1537 H 0.21122 0.65731 0.99203 0.0
H1538 H 0.24336 0.78683 0.97733 0.0
H1539 H 0.26178 0.70125 0.01092 0.0
C1540 C 0.28229 0.74953 0.0158 0.0
C1541 C 0.28961 0.78966 0.01316 0.0
C1542 C 0.23633 0.75839 0.98054 0.0
C1543 C 0.2594 0.75497 -0.00127 0.0
C1544 C 0.22045 0.74191 0.97389 0.0
C1545 C 0.211 0.70511 0.97785 0.0
C1546 C 0.24291 0.7379 0.99122 0.0
C1547 C 0.21815 0.68543 0.98853 0.0
C1548 C 0.26722 0.73218 0.00865 0.0
C1549 C 0.28162 0.81119 0.00303 0.0
N1550 N 0.23363 0.7021 0.99484 0.0
N1551 N 0.2669 0.79363 0.99621 0.0
H1552 H 0.03944 0.59205 0.99685 0.0
H1553 H 0.96087 0.40656 0.00498 0.0
H1554 H 0.03038 0.49466 0.9699 0.0
H1555 H 0.96191 0.51643 0.02813 0.0
H1556 H 0.98766 0.43634 0.99269 0.0
H1557 H 0.01261 0.56235 0.00927 0.0
C1558 C 0.03185 0.56434 0.99357 0.0
C1559 C 0.0371 0.54587 0.98231 0.0
C1560 C 0.98201 0.45394 0.00046 0.0
C1561 C 0.0064 0.5118 0.99644 0.0
C1562 C 0.96662 0.43705 0.00745 0.0
C1563 C 0.95904 0.45898 0.01762 0.0
C1564 C 0.99002 0.493 0.00367 0.0
C1565 C 0.96743 0.49805 0.02049 0.0
C1566 C 0.01647 0.54755 0.00062 0.0
C1567 C 0.02664 0.51023 0.97844 0.0
N1568 N 0.98246 0.51376 0.01356 0.0
N1569 N 0.01184 0.49431 0.98551 0.0
H1570 H 0.30088 0.43252 0.24953 0.0
H1571 H 0.19902 0.55884 0.24889 0.0
H1572 H 0.26869 0.46148 0.21619 0.0
H1573 H 0.22211 0.49949 0.28158 0.0
H1574 H 0.22579 0.52736 0.23688 0.0
H1575 H 0.2732 0.45985 0.2616 0.0
C1576 C 0.28795 0.44423 0.24473 0.0
C1577 C 0.28722 0.44485 0.23179 0.0
C1578 C 0.22497 0.52108 0.24667 0.0
C1579 C 0.25565 0.47693 0.24559 0.0
C1580 C 0.20978 0.53925 0.25353 0.0
C1581 C 0.20841 0.53179 0.26624 0.0
C1582 C 0.23903 0.49565 0.25258 0.0
C1583 C 0.22258 0.50575 0.27178 0.0
C1584 C 0.2722 0.46004 0.25164 0.0
C1585 C 0.27016 0.46111 0.22612 0.0
N1586 N 0.23739 0.4888 0.26492 0.0
N1587 N 0.25512 0.47669 0.23305 0.0
H1588 H 0.70406 0.26925 0.97627 0.0
H1589 H 0.79821 0.21511 0.01823 0.0
H1590 H 0.72221 0.14326 0.98505 0.0
H1591 H 0.77988 0.34093 0.00938 0.0
H1592 H 0.7706 0.18811 0.00603 0.0
H1593 H 0.73198 0.29599 0.98819 0.0
C1594 C 0.71398 0.24718 0.98065 0.0
C1595 C 0.71081 0.20391 0.97962 0.0
C1596 C 0.77263 0.22163 0.00674 0.0
C1597 C 0.74274 0.23439 0.99341 0.0
C1598 C 0.78834 0.23708 0.01375 0.0
C1599 C 0.79135 0.28038 0.01486 0.0
C1600 C 0.75978 0.24965 0.00079 0.0
C1601 C 0.77828 0.30733 0.00867 0.0
C1602 C 0.72987 0.26249 0.98752 0.0
C1603 C 0.72395 0.17685 0.9857 0.0
N1604 N 0.76305 0.29152 0.00194 0.0
N1605 N 0.73936 0.19253 0.99232 0.0
H1606 H 0.72742 0.52034 0.78244 0.0
H1607 H 0.76774 0.45325 0.71596 0.0
H1608 H 0.69319 0.52976 0.74895 0.0
H1609 H 0.80193 0.44039 0.74935 0.0
H1610 H 0.74013 0.48042 0.72803 0.0
H1611 H 0.75463 0.48962 0.77065 0.0
C1612 C 0.72557 0.5157 0.77262 0.0
C1613 C 0.70799 0.52776 0.76668 0.0
C1614 C 0.75364 0.47161 0.73274 0.0
C1615 C 0.73917 0.49299 0.7531 0.0
C1616 C 0.76947 0.45629 0.72584 0.0
C1617 C 0.78724 0.4448 0.73164 0.0
C1618 C 0.75555 0.4756 0.74557 0.0
C1619 C 0.78846 0.44861 0.74451 0.0
C1620 C 0.74116 0.49835 0.76589 0.0
C1621 C 0.70656 0.52155 0.7539 0.0
N1622 N 0.77286 0.46387 0.75104 0.0
N1623 N 0.72194 0.50464 0.74755 0.0
H1624 H 0.51568 0.03934 0.96441 0.0
H1625 H 0.47979 0.95716 0.03041 0.0
H1626 H 0.55219 0.04226 0.99705 0.0
H1627 H 0.44185 0.96214 -0.00158 0.0
H1628 H 0.50671 0.98678 0.01821 0.0
H1629 H 0.48873 0.00935 0.97657 0.0
C1630 C 0.51805 0.03354 0.97413 0.0
C1631 C 0.53625 0.04325 0.97972 0.0
C1632 C 0.4925 0.98139 0.01384 0.0
C1633 C 0.50539 0.00914 0.99371 0.0
C1634 C 0.47708 0.96464 0.02083 0.0
C1635 C 0.45847 0.95729 0.01546 0.0
C1636 C 0.48936 0.99088 0.00137 0.0
C1637 C 0.45599 0.96684 0.00292 0.0
C1638 C 0.50262 0.01659 0.98108 0.0
C1639 C 0.53836 0.03568 0.99239 0.0
N1640 N 0.47124 0.98321 0.99631 0.0
N1641 N 0.52314 0.01897 -0.00105 0.0
H1642 H 0.46558 0.23874 0.21933 0.0
H1643 H 0.5362 0.26608 0.27804 0.0
H1644 H 0.46257 0.34452 0.24398 0.0
H1645 H 0.53951 0.16181 0.25285 0.0
H1646 H 0.50915 0.29531 0.2658 0.0
H1647 H 0.49259 0.21006 0.23161 0.0
C1648 C 0.47069 0.2561 0.22728 0.0
C1649 C 0.46185 0.29424 0.23058 0.0
C1650 C 0.51579 0.26603 0.26295 0.0
C1651 C 0.49268 0.26123 0.24482 0.0
C1652 C 0.53131 0.24944 0.2699 0.0
C1653 C 0.54016 0.21145 0.26646 0.0
C1654 C 0.50907 0.24453 0.25247 0.0
C1655 C 0.53298 0.19091 0.25593 0.0
C1656 C 0.48605 0.23956 0.23435 0.0
C1657 C 0.46883 0.31487 0.24115 0.0
N1658 N 0.51789 0.20775 0.24931 0.0
N1659 N 0.48386 0.29814 0.24788 0.0
H1660 H 0.46304 0.84575 0.74014 0.0
H1661 H 0.53371 0.65021 0.75408 0.0
H1662 H 0.45774 0.7261 0.72199 0.0
H1663 H 0.53613 0.76623 0.77437 0.0
H1664 H 0.50623 0.67809 0.74196 0.0
H1665 H 0.4899 0.81747 0.75273 0.0
C1666 C 0.46741 0.81345 0.73886 0.0
C1667 C 0.45814 0.78833 0.72995 0.0
C1668 C 0.51274 0.69745 0.74908 0.0
C1669 C 0.48907 0.7559 0.74424 0.0
C1670 C 0.52852 0.68164 0.75595 0.0
C1671 C 0.53725 0.70594 0.76524 0.0
C1672 C 0.50567 0.73797 0.75147 0.0
C1673 C 0.5297 0.74622 0.76738 0.0
C1674 C 0.48284 0.79739 0.746 0.0
C1675 C 0.46466 0.74686 0.72859 0.0
N1676 N 0.51438 0.76101 0.76053 0.0
N1677 N 0.47973 0.732 0.73563 0.0
H1678 H 0.48414 0.43281 0.52748 0.0
H1679 H 0.51548 0.55376 0.46619 0.0
H1680 H 0.44337 0.45866 0.49783 0.0
H1681 H 0.55781 0.4988 0.49126 0.0
H1682 H 0.48866 0.52276 0.4782 0.0
H1683 H 0.51118 0.46074 0.51493 0.0
C1684 C 0.48091 0.44436 0.51831 0.0
C1685 C 0.4615 0.44351 0.51368 0.0
C1686 C 0.50383 0.51742 0.48104 0.0
C1687 C 0.49232 0.47558 0.49929 0.0
C1688 C 0.51918 0.53497 0.47416 0.0
C1689 C 0.53901 0.52893 0.47769 0.0
C1690 C 0.50827 0.49391 0.49161 0.0
C1691 C 0.54279 0.50494 0.48828 0.0
C1692 C 0.49634 0.46011 0.51114 0.0
C1693 C 0.45815 0.45844 0.5017 0.0
N1694 N 0.52757 0.48843 0.49487 0.0
N1695 N 0.47339 0.47415 0.49494 0.0
H1696 H 0.13881 0.86817 0.33046 0.0
H1697 H 0.16946 0.93036 0.39931 0.0
H1698 H 0.16512 0.78174 0.3563 0.0
H1699 H 0.1314 0.00534 0.37616 0.0
H1700 H 0.17265 0.87969 0.38255 0.0
H1701 H 0.14088 0.9232 0.34603 0.0
C1702 C 0.1451 0.86078 0.33938 0.0
C1703 C 0.15162 0.8201 0.34209 0.0
C1704 C 0.16372 0.90742 0.38113 0.0
C1705 C 0.15418 0.88306 0.35992 0.0
C1706 C 0.1618 0.93626 0.39072 0.0
C1707 C 0.15004 0.97214 0.3892 0.0
C1708 C 0.15387 0.91452 0.36993 0.0
C1709 C 0.14081 0.97848 0.37774 0.0
C1710 C 0.14634 0.89224 0.34824 0.0
C1711 C 0.16005 0.81264 0.35373 0.0
N1712 N 0.14285 0.94988 0.36859 0.0
N1713 N 0.16095 0.84374 0.36224 0.0
H1714 H 0.08523 0.27613 0.38595 0.0
H1715 H 0.11533 0.50885 0.36854 0.0
H1716 H 0.10709 0.36532 0.41258 0.0
H1717 H 0.08112 0.42918 0.34443 0.0
H1718 H 0.1117 0.45738 0.38492 0.0
H1719 H 0.08271 0.33213 0.37081 0.0
C1720 C 0.0892 0.30758 0.3887 0.0
C1721 C 0.0965 0.31587 0.40058 0.0
C1722 C 0.10483 0.45131 0.37608 0.0
C1723 C 0.09407 0.38008 0.38312 0.0
C1724 C 0.10679 0.48085 0.36672 0.0
C1725 C 0.09858 0.47338 0.35503 0.0
C1726 C 0.09477 0.41372 0.37375 0.0
C1727 C 0.08802 0.436 0.35321 0.0
C1728 C 0.08787 0.33954 0.38 0.0
C1729 C 0.10176 0.35723 0.40348 0.0
N1730 N 0.08656 0.40744 0.36243 0.0
N1731 N 0.10061 0.3877 0.39478 0.0
H1732 H 0.17453 0.30752 0.84761 0.0
H1733 H 0.10804 0.44216 0.89407 0.0
H1734 H 0.11056 0.30741 0.84803 0.0
H1735 H 0.17198 0.44136 0.89539 0.0
H1736 H 0.10909 0.39292 0.87702 0.0
H1737 H 0.17434 0.35709 0.86485 0.0
C1738 C 0.16046 0.31796 0.8513 0.0
C1739 C 0.14253 0.30347 0.8463 0.0
C1740 C 0.12293 0.40333 0.88104 0.0
C1741 C 0.14221 0.3601 0.86597 0.0
C1742 C 0.12233 0.43124 0.89087 0.0
C1743 C 0.13995 0.44567 0.89627 0.0
C1744 C 0.14128 0.38966 0.87648 0.0
C1745 C 0.15803 0.43122 0.89147 0.0
C1746 C 0.16037 0.3463 0.86111 0.0
C1747 C 0.12475 0.31828 0.85139 0.0
N1748 N 0.15824 0.40395 0.88185 0.0
N1749 N 0.12506 0.34565 0.86093 0.0
H1750 H 0.11382 0.84486 0.90904 0.0
H1751 H 0.0768 0.92552 0.84335 0.0
H1752 H 0.08286 0.76467 0.88351 0.0
H1753 H 0.12689 0.97804 0.86278 0.0
H1754 H 0.0739 0.87216 0.85944 0.0
H1755 H 0.11301 0.90108 0.89375 0.0
C1756 C 0.10658 0.83934 0.90028 0.0
C1757 C 0.09845 0.80011 0.89749 0.0
C1758 C 0.08543 0.89561 0.86015 0.0
C1759 C 0.09759 0.86404 0.87998 0.0
C1760 C 0.0872 0.92595 0.85094 0.0
C1761 C 0.10211 0.9566 0.85165 0.0
C1762 C 0.09847 0.89624 0.87022 0.0
C1763 C 0.11488 0.95582 0.86189 0.0
C1764 C 0.10627 0.87126 0.89154 0.0
C1765 C 0.08946 0.79442 0.88595 0.0
N1766 N 0.11273 0.92625 0.87075 0.0
N1767 N 0.08927 0.82607 0.87758 0.0
H1768 H 0.83678 0.1389 0.65908 0.0
H1769 H 0.8446 0.08749 0.58707 0.0
H1770 H 0.84637 0.23207 0.63088 0.0
H1771 H 0.84397 0.99301 0.61548 0.0
H1772 H 0.83993 0.14115 0.60284 0.0
H1773 H 0.83451 0.08537 0.64305 0.0
C1774 C 0.83832 0.14816 0.64953 0.0
C1775 C 0.84191 0.19007 0.64635 0.0
C1776 C 0.84066 0.10865 0.60562 0.0
C1777 C 0.83917 0.129 0.62796 0.0
C1778 C 0.84319 0.07799 0.59662 0.0
C1779 C 0.84485 0.03577 0.59999 0.0
C1780 C 0.83975 0.09701 0.61809 0.0
C1781 C 0.84311 0.02529 0.6125 0.0
C1782 C 0.83694 0.11761 0.64038 0.0
C1783 C 0.84339 0.2003 0.6338 0.0
N1784 N 0.84078 0.05572 0.62111 0.0
N1785 N 0.84215 0.16996 0.62508 0.0
H1786 H 0.92083 0.53093 0.64099 0.0
H1787 H 0.85984 0.6732 0.59378 0.0
H1788 H 0.85707 0.54246 0.64089 0.0
H1789 H 0.92292 0.68659 0.59904 0.0
H1790 H 0.85927 0.61946 0.60967 0.0
H1791 H 0.92256 0.5837 0.62464 0.0
C1792 C 0.90722 0.54466 0.6376 0.0
C1793 C 0.88876 0.53197 0.64229 0.0
C1794 C 0.87327 0.63402 0.60735 0.0
C1795 C 0.89065 0.59172 0.62348 0.0
C1796 C 0.87364 0.66444 0.59818 0.0
C1797 C 0.89148 0.68426 0.59504 0.0
C1798 C 0.89087 0.6231 0.61344 0.0
C1799 C 0.90883 0.67223 0.60124 0.0
C1800 C 0.90822 0.57458 0.62823 0.0
C1801 C 0.87161 0.55052 0.63741 0.0
N1802 N 0.90811 0.64232 0.61016 0.0
N1803 N 0.87298 0.57927 0.62827 0.0
H1804 H 0.83676 0.50906 0.11444 0.0
H1805 H 0.85137 0.75217 0.12762 0.0
H1806 H 0.84495 0.60113 0.08577 0.0
H1807 H 0.83549 0.66282 0.15573 0.0
H1808 H 0.84693 0.69798 0.11199 0.0
H1809 H 0.83379 0.56535 0.12949 0.0
C1810 C 0.83761 0.54112 0.11126 0.0
C1811 C 0.84125 0.55031 0.0988 0.0
C1812 C 0.84422 0.69026 0.12155 0.0
C1813 C 0.83826 0.61499 0.11608 0.0
C1814 C 0.84683 0.72114 0.13048 0.0
C1815 C 0.84399 0.71179 0.14298 0.0
C1816 C 0.83892 0.64958 0.12517 0.0
C1817 C 0.8378 0.67133 0.14618 0.0
C1818 C 0.83604 0.57328 0.11989 0.0
C1819 C 0.84253 0.59251 0.0953 0.0
N1820 N 0.83569 0.64155 0.13734 0.0
N1821 N 0.84121 0.62324 0.1039 0.0
H1822 H 0.90582 0.10149 0.16197 0.0
H1823 H 0.91144 0.1605 0.09038 0.0
H1824 H 0.90621 0.01019 0.13264 0.0
H1825 H 0.89728 0.24908 0.11904 0.0
H1826 H 0.91592 0.10634 0.10609 0.0
H1827 H 0.90865 0.15707 0.14661 0.0
C1828 C 0.90658 0.09307 0.15232 0.0
C1829 C 0.90558 0.05103 0.14862 0.0
C1830 C 0.91199 0.13772 0.10894 0.0
C1831 C 0.90905 0.11453 0.131 0.0
C1832 C 0.90956 0.16866 0.09999 0.0
C1833 C 0.90378 0.20916 0.10342 0.0
C1834 C 0.90873 0.14746 0.1214 0.0
C1835 C 0.90141 0.21803 0.116 0.0
C1836 C 0.90828 0.12482 0.14356 0.0
C1837 C 0.90709 0.04204 0.13597 0.0
N1838 N 0.9038 0.18737 0.12453 0.0
N1839 N 0.90862 0.07352 0.12763 0.0
H1840 H 0.67441 0.77201 0.85899 0.0
H1841 H 0.62846 0.99067 0.88057 0.0
H1842 H 0.63082 0.8422 0.83846 0.0
H1843 H 0.66599 0.91521 0.90386 0.0
H1844 H 0.63282 0.9403 0.86397 0.0
H1845 H 0.67502 0.82773 0.87447 0.0
C1846 C 0.66506 0.79918 0.85769 0.0
C1847 C 0.65247 0.80224 0.84741 0.0
C1848 C 0.64018 0.93471 0.87269 0.0
C1849 C 0.65324 0.86615 0.86503 0.0
C1850 C 0.63761 0.96337 0.8822 0.0
C1851 C 0.64661 0.95674 0.89368 0.0
C1852 C 0.65183 0.89895 0.87463 0.0
C1853 C 0.65876 0.92145 0.89515 0.0
C1854 C 0.66548 0.83102 0.8665 0.0
C1855 C 0.64095 0.83854 0.84611 0.0
N1856 N 0.66088 0.89361 0.88575 0.0
N1857 N 0.64154 0.86886 0.85484 0.0
H1858 H 0.58021 0.34154 0.90731 0.0
H1859 H 0.60252 0.40307 0.83719 0.0
H1860 H 0.61044 0.26201 0.88128 0.0
H1861 H 0.57954 0.49047 0.86394 0.0
H1862 H 0.60024 0.34756 0.8525 0.0
H1863 H 0.57495 0.39309 0.89086 0.0
C1864 C 0.58554 0.33479 0.8981 0.0
C1865 C 0.59602 0.29782 0.89566 0.0
C1866 C 0.59553 0.3788 0.85501 0.0
C1867 C 0.59009 0.35631 0.87689 0.0
C1868 C 0.59666 0.41049 0.84622 0.0
C1869 C 0.59135 0.45161 0.84931 0.0
C1870 C 0.58909 0.38819 0.867 0.0
C1871 C 0.58412 0.45936 0.86123 0.0
C1872 C 0.58261 0.36421 0.88875 0.0
C1873 C 0.60264 0.29053 0.8836 0.0
N1874 N 0.58335 0.428 0.86968 0.0
N1875 N 0.59966 0.31958 0.87469 0.0
H1876 H 0.64786 0.35551 0.33532 0.0
H1877 H 0.65986 0.39696 0.40699 0.0
H1878 H 0.66663 0.25998 0.36085 0.0
H1879 H 0.65774 0.49643 0.38016 0.0
H1880 H 0.66306 0.34621 0.39022 0.0
H1881 H 0.65202 0.40799 0.35153 0.0
C1882 C 0.65302 0.34571 0.34432 0.0
C1883 C 0.65681 0.30341 0.34679 0.0
C1884 C 0.66216 0.37918 0.38801 0.0
C1885 C 0.66146 0.36302 0.36538 0.0
C1886 C 0.66026 0.40807 0.39756 0.0
C1887 C 0.65845 0.45084 0.39493 0.0
C1888 C 0.66191 0.39315 0.37573 0.0
C1889 C 0.65922 0.46373 0.38258 0.0
C1890 C 0.65548 0.37562 0.35355 0.0
C1891 C 0.66365 0.29233 0.35855 0.0
N1892 N 0.66064 0.43494 0.37342 0.0
N1893 N 0.66551 0.32189 0.36747 0.0
H1894 H 0.58904 0.74993 0.37918 0.0
H1895 H 0.60363 0.99393 0.36646 0.0
H1896 H 0.60051 0.84092 0.40768 0.0
H1897 H 0.58846 0.90486 0.33807 0.0
H1898 H 0.60012 0.939 0.38185 0.0
H1899 H 0.58649 0.80668 0.36417 0.0
C1900 C 0.59091 0.78189 0.38229 0.0
C1901 C 0.59515 0.7907 0.39468 0.0
C1902 C 0.5974 0.93148 0.37227 0.0
C1903 C 0.59226 0.85579 0.37756 0.0
C1904 C 0.59929 0.96295 0.36346 0.0
C1905 C 0.59638 0.95406 0.35092 0.0
C1906 C 0.5927 0.89062 0.36854 0.0
C1907 C 0.59115 0.91304 0.3476 0.0
C1908 C 0.58938 0.81428 0.37373 0.0
C1909 C 0.5971 0.8327 0.39824 0.0
N1910 N 0.58959 0.8828 0.35635 0.0
N1911 N 0.59583 0.86364 0.3897 0.0
H1912 H 0.33478 0.15185 0.15805 0.0
H1913 H 0.34775 0.09408 0.08676 0.0
H1914 H 0.3547 0.23912 0.1303 0.0
H1915 H 0.33969 0.00203 0.11541 0.0
H1916 H 0.34462 0.14945 0.10217 0.0
H1917 H 0.33132 0.09835 0.14211 0.0
C1918 C 0.33838 0.15984 0.14862 0.0
C1919 C 0.3452 0.20004 0.14556 0.0
C1920 C 0.34339 0.11714 0.10507 0.0
C1921 C 0.34103 0.13905 0.12724 0.0
C1922 C 0.34502 0.08554 0.09627 0.0
C1923 C 0.34413 0.0434 0.09984 0.0
C1924 C 0.34078 0.10654 0.11752 0.0
C1925 C 0.34078 0.03413 0.11231 0.0
C1926 C 0.33631 0.12933 0.13951 0.0
C1927 C 0.34921 0.20878 0.13312 0.0
N1928 N 0.33932 0.06545 0.12072 0.0
N1929 N 0.34717 0.17848 0.12444 0.0
H1930 H 0.36186 0.53429 0.13743 0.0
H1931 H 0.41899 0.72832 0.11051 0.0
H1932 H 0.42278 0.5569 0.14785 0.0
H1933 H 0.37755 0.65719 0.0887 0.0
H1934 H 0.41869 0.67232 0.12609 0.0
H1935 H 0.36515 0.58623 0.1212 0.0
C1936 C 0.37602 0.54967 0.13627 0.0
C1937 C 0.39214 0.54052 0.14403 0.0
C1938 C 0.40986 0.66893 0.11781 0.0
C1939 C 0.39566 0.60142 0.12564 0.0
C1940 C 0.40998 0.70075 0.10898 0.0
C1941 C 0.39833 0.69709 0.09834 0.0
C1942 C 0.39758 0.63398 0.11607 0.0
C1943 C 0.38687 0.66091 0.09674 0.0
C1944 C 0.37781 0.57958 0.12703 0.0
C1945 C 0.40984 0.56305 0.14226 0.0
N1946 N 0.38658 0.63096 0.1056 0.0
N1947 N 0.41109 0.59269 0.13329 0.0
H1948 H 0.37704 0.73128 0.62925 0.0
H1949 H 0.33171 0.51649 0.60918 0.0
H1950 H 0.32352 0.68544 0.64655 0.0
H1951 H 0.35987 0.59863 0.58298 0.0
H1952 H 0.33021 0.57455 0.62399 0.0
H1953 H 0.3729 0.67969 0.61304 0.0
C1954 C 0.36422 0.71096 0.62961 0.0
C1955 C 0.35057 0.71318 0.63938 0.0
C1956 C 0.33644 0.57993 0.61493 0.0
C1957 C 0.34626 0.65272 0.62092 0.0
C1958 C 0.33734 0.54692 0.60653 0.0
C1959 C 0.34593 0.55301 0.5949 0.0
C1960 C 0.34465 0.61879 0.61175 0.0
C1961 C 0.35303 0.59288 0.59184 0.0
C1962 C 0.36198 0.68127 0.62034 0.0
C1963 C 0.33467 0.68465 0.6394 0.0
N1964 N 0.35253 0.62416 0.6003 0.0
N1965 N 0.33308 0.65527 0.63039 0.0
H1966 H 0.42303 0.17733 0.59343 0.0
H1967 H 0.38738 0.10033 0.65991 0.0
H1968 H 0.37648 0.23696 0.61438 0.0
H1969 H 0.41731 0.01956 0.63406 0.0
H1970 H 0.38921 0.15733 0.64492 0.0
H1971 H 0.42634 0.12509 0.60976 0.0
C1972 C 0.41351 0.17956 0.60143 0.0
C1973 C 0.39935 0.21163 0.60244 0.0
C1974 C 0.39552 0.12722 0.64258 0.0
C1975 C 0.40344 0.15243 0.62127 0.0
C1976 C 0.39463 0.09481 0.65115 0.0
C1977 C 0.4021 0.05515 0.64817 0.0
C1978 C 0.40408 0.12 0.63098 0.0
C1979 C 0.41115 0.04958 0.63664 0.0
C1980 C 0.41552 0.14985 0.61077 0.0
C1981 C 0.38779 0.21333 0.6132 0.0
N1982 N 0.41184 0.08164 0.62843 0.0
N1983 N 0.39007 0.18413 0.62217 0.0
loop_
_geom_bond_atom_site_label_1
_geom_bond_atom_site_label_2
_geom_bond_distance
_geom_bond_site_symmetry_2
_ccdc_geom_bond_type
Li0 N17 1.990 . S
Li0 O60 1.956 . S
Li0 O61 1.970 . S
Li0 O62 1.961 . S
Li1 N25 1.990 . S
Li1 O60 1.970 . S
Li1 O61 1.956 . S
Li1 O63 1.961 . S
Li2 N47 1.990 . S
Li2 O60 1.961 . S
Li2 O62 1.956 . S
Li2 O63 1.970 . S
Li3 N53 1.990 . S
Li3 O61 1.961 . S
Li3 O62 1.970 . S
Li3 O63 1.956 . S
C4 C6 1.348 . S
C4 C7 1.356 . S
C4 O60 1.325 . S
N5 C8 1.314 . S
N5 C9 1.279 . S
C6 C4 1.348 . S
C6 C8 1.353 . S
C6 H64 0.929 . S
C7 C4 1.356 . S
C7 C9 1.358 . S
C7 H65 0.930 . S
C8 N5 1.314 . S
C8 C6 1.353 . S
C8 H66 0.930 . S
C9 N5 1.279 . S
C9 C7 1.358 . S
C9 H67 0.930 . S
C10 C13 1.348 . S
C10 C14 1.356 . S
C10 O61 1.325 . S
C11 N12 1.279 . S
C11 C14 1.358 1_565 S
C11 H68 0.930 . S
N12 C11 1.279 . S
N12 C15 1.314 1_565 S
C13 C10 1.348 . S
C13 C15 1.353 . S
C13 H69 0.929 . S
C14 C10 1.356 . S
C14 C11 1.358 1_545 S
C14 H70 0.930 . S
C15 N12 1.314 1_545 S
C15 C13 1.353 . S
C15 H71 0.930 1_545 S
C16 N17 1.314 . S
C16 C21 1.353 . S
C16 H22 0.930 . S
N17 Li0 1.990 . S
N17 C16 1.314 . S
N17 C19 1.279 . S
C18 C19 1.358 . S
C18 C20 1.356 . S
C18 H72 0.930 . S
C19 N17 1.279 . S
C19 C18 1.358 . S
C19 H23 0.930 . S
C20 C18 1.356 . S
C20 C21 1.348 . S
C21 C16 1.353 . S
C21 C20 1.348 . S
C21 H73 0.929 . S
H22 C16 0.930 . S
H23 C19 0.930 . S
C24 N25 1.314 . S
C24 C26 1.353 . S
C24 H30 0.930 . S
N25 Li1 1.990 . S
N25 C24 1.314 . S
N25 C28 1.279 . S
C26 C24 1.353 . S
C26 C29 1.348 . S
C26 H74 0.929 . S
C27 C28 1.358 . S
C27 C29 1.356 . S
C27 H75 0.930 . S
C28 N25 1.279 . S
C28 C27 1.358 . S
C28 H31 0.930 . S
C29 C26 1.348 . S
C29 C27 1.356 . S
H30 C24 0.930 . S
H31 C28 0.930 . S
C32 C34 1.348 . S
C32 C35 1.356 . S
C32 O62 1.325 . S
N33 C36 1.314 . S
N33 C37 1.279 . S
C34 C32 1.348 . S
C34 C36 1.353 . S
C34 H76 0.929 . S
C35 C32 1.356 . S
C35 C37 1.358 . S
C35 H77 0.930 . S
C36 N33 1.314 . S
C36 C34 1.353 . S
C36 H78 0.930 . S
C37 N33 1.279 . S
C37 C35 1.358 . S
C37 H79 0.930 . S
C38 C39 1.348 . S
C38 C40 1.356 . S
C38 O63 1.325 . S
C39 C38 1.348 . S
C39 C41 1.353 . S
C39 H80 0.929 . S
C40 C38 1.356 . S
C40 C42 1.358 . S
C40 H81 0.930 . S
C41 C39 1.353 . S
C41 N43 1.314 . S
C41 H82 0.930 . S
C42 C40 1.358 . S
C42 N43 1.279 . S
C42 H83 0.930 . S
N43 C41 1.314 . S
N43 C42 1.279 . S
C44 C46 1.353 . S
C44 N47 1.314 . S
C44 H50 0.930 . S
C45 N47 1.279 . S
C45 C48 1.358 . S
C45 H51 0.930 . S
C46 C44 1.353 . S
C46 C49 1.348 . S
C46 H84 0.929 . S
N47 Li2 1.990 . S
N47 C44 1.314 . S
N47 C45 1.279 . S
C48 C45 1.358 . S
C48 C49 1.356 . S
C48 H85 0.930 . S
C49 C46 1.348 . S
C49 C48 1.356 . S
H50 C44 0.930 . S
H51 C45 0.930 . S
C52 N53 1.314 1_565 S
C52 C54 1.353 . S
C52 H58 0.930 . S
N53 Li3 1.990 . S
N53 C52 1.314 1_545 S
N53 C56 1.279 . S
C54 C52 1.353 . S
C54 C57 1.348 . S
C54 H86 0.929 . S
C55 C56 1.358 . S
C55 C57 1.356 1_545 S
C55 H87 0.930 . S
C56 N53 1.279 . S
C56 C55 1.358 . S
C56 H59 0.930 . S
C57 C54 1.348 . S
C57 C55 1.356 1_565 S
H58 C52 0.930 . S
H59 C56 0.930 . S
O60 Li0 1.956 . S
O60 Li1 1.970 . S
O60 Li2 1.961 . S
O60 C4 1.325 . S
O61 Li0 1.970 . S
O61 Li1 1.956 . S
O61 Li3 1.961 . S
O61 C10 1.325 . S
O62 Li0 1.961 . S
O62 Li2 1.956 . S
O62 Li3 1.970 . S
O62 C32 1.325 . S
O63 Li1 1.961 . S
O63 Li2 1.970 . S
O63 Li3 1.956 . S
O63 C38 1.325 . S
H64 C6 0.929 . S
H65 C7 0.930 . S
H66 C8 0.930 . S
H67 C9 0.930 . S
H68 C11 0.930 . S
H69 C13 0.929 . S
H70 C14 0.930 . S
H71 C15 0.930 1_565 S
H72 C18 0.930 . S
H73 C21 0.929 . S
H74 C26 0.929 . S
H75 C27 0.930 . S
H76 C34 0.929 . S
H77 C35 0.930 . S
H78 C36 0.930 . S
H79 C37 0.930 . S
H80 C39 0.929 . S
H81 C40 0.930 . S
H82 C41 0.930 . S
H83 C42 0.930 . S
H84 C46 0.929 . S
H85 C48 0.930 . S
H86 C54 0.929 . S
H87 C55 0.930 . S
Li88 N105 1.990 . S
Li88 O148 1.956 . S
Li88 O149 1.970 . S
Li88 O150 1.961 . S
Li89 N113 1.990 . S
Li89 O148 1.970 . S
Li89 O149 1.956 . S
Li89 O151 1.961 . S
Li90 N135 1.990 . S
Li90 O148 1.961 . S
Li90 O150 1.956 . S
Li90 O151 1.970 . S
Li91 N141 1.990 . S
Li91 O149 1.961 . S
Li91 O150 1.970 . S
Li91 O151 1.956 . S
C92 C94 1.348 . S
C92 C95 1.356 . S
C92 O148 1.325 . S
N93 C96 1.314 . S
N93 C97 1.279 . S
C94 C92 1.348 . S
C94 C96 1.353 . S
C94 H152 0.929 . S
C95 C92 1.356 . S
C95 C97 1.358 . S
C95 H153 0.930 . S
C96 N93 1.314 . S
C96 C94 1.353 . S
C96 H154 0.930 . S
C97 N93 1.279 . S
C97 C95 1.358 . S
C97 H155 0.930 . S
C98 C101 1.348 . S
C98 C102 1.356 . S
C98 O149 1.325 . S
C99 N100 1.279 . S
C99 C102 1.358 . S
C99 H156 0.930 . S
N100 C99 1.279 . S
N100 C103 1.314 . S
C101 C98 1.348 . S
C101 C103 1.353 . S
C101 H157 0.929 . S
C102 C98 1.356 . S
C102 C99 1.358 . S
C102 H158 0.930 . S
C103 N100 1.314 . S
C103 C101 1.353 . S
C103 H159 0.930 . S
C104 N105 1.314 . S
C104 C109 1.353 . S
C104 H110 0.930 . S
N105 Li88 1.990 . S
N105 C104 1.314 . S
N105 C107 1.279 . S
C106 C107 1.358 . S
C106 C108 1.356 . S
C106 H160 0.930 . S
C107 N105 1.279 . S
C107 C106 1.358 . S
C107 H111 0.930 . S
C108 C106 1.356 . S
C108 C109 1.348 . S
C109 C104 1.353 . S
C109 C108 1.348 . S
C109 H161 0.929 . S
H110 C104 0.930 . S
H111 C107 0.930 . S
C112 N113 1.314 1_565 S
C112 C114 1.353 . S
C112 H118 0.930 . S
N113 Li89 1.990 . S
N113 C112 1.314 1_545 S
N113 C116 1.279 . S
C114 C112 1.353 . S
C114 C117 1.348 . S
C114 H162 0.929 . S
C115 C116 1.358 . S
C115 C117 1.356 1_545 S
C115 H163 0.930 . S
C116 N113 1.279 . S
C116 C115 1.358 . S
C116 H119 0.930 . S
C117 C114 1.348 . S
C117 C115 1.356 1_565 S
H118 C112 0.930 . S
H119 C116 0.930 . S
C120 C122 1.348 . S
C120 C123 1.356 . S
C120 O150 1.325 . S
N121 C124 1.314 . S
N121 C125 1.279 . S
C122 C120 1.348 . S
C122 C124 1.353 . S
C122 H164 0.929 . S
C123 C120 1.356 . S
C123 C125 1.358 . S
C123 H165 0.930 . S
C124 N121 1.314 . S
C124 C122 1.353 . S
C124 H166 0.930 . S
C125 N121 1.279 . S
C125 C123 1.358 . S
C125 H167 0.930 . S
C126 C127 1.348 . S
C126 C128 1.356 . S
C126 O151 1.325 . S
C127 C126 1.348 . S
C127 C129 1.353 . S
C127 H168 0.929 . S
C128 C126 1.356 . S
C128 C130 1.358 1_545 S
C128 H169 0.930 . S
C129 C127 1.353 . S
C129 N131 1.314 1_545 S
C129 H170 0.930 1_545 S
C130 C128 1.358 1_565 S
C130 N131 1.279 . S
C130 H171 0.930 . S
N131 C129 1.314 1_565 S
N131 C130 1.279 . S
C132 C134 1.353 . S
C132 N135 1.314 . S
C132 H138 0.930 . S
C133 N135 1.279 . S
C133 C136 1.358 . S
C133 H139 0.930 . S
C134 C132 1.353 . S
C134 C137 1.348 . S
C134 H172 0.929 . S
N135 Li90 1.990 . S
N135 C132 1.314 . S
N135 C133 1.279 . S
C136 C133 1.358 . S
C136 C137 1.356 . S
C136 H173 0.930 . S
C137 C134 1.348 . S
C137 C136 1.356 . S
H138 C132 0.930 . S
H139 C133 0.930 . S
C140 N141 1.314 . S
C140 C142 1.353 . S
C140 H146 0.930 . S
N141 Li91 1.990 . S
N141 C140 1.314 . S
N141 C144 1.279 . S
C142 C140 1.353 . S
C142 C145 1.348 . S
C142 H174 0.929 . S
C143 C144 1.358 . S
C143 C145 1.356 . S
C143 H175 0.930 . S
C144 N141 1.279 . S
C144 C143 1.358 . S
C144 H147 0.930 . S
C145 C142 1.348 . S
C145 C143 1.356 . S
H146 C140 0.930 . S
H147 C144 0.930 . S
O148 Li88 1.956 . S
O148 Li89 1.970 . S
O148 Li90 1.961 . S
O148 C92 1.325 . S
O149 Li88 1.970 . S
O149 Li89 1.956 . S
O149 Li91 1.961 . S
O149 C98 1.325 . S
O150 Li88 1.961 . S
O150 Li90 1.956 . S
O150 Li91 1.970 . S
O150 C120 1.325 . S
O151 Li89 1.961 . S
O151 Li90 1.970 . S
O151 Li91 1.956 . S
O151 C126 1.325 . S
H152 C94 0.929 . S
H153 C95 0.930 . S
H154 C96 0.930 . S
H155 C97 0.930 . S
H156 C99 0.930 . S
H157 C101 0.929 . S
H158 C102 0.930 . S
H159 C103 0.930 . S
H160 C106 0.930 . S
H161 C109 0.929 . S
H162 C114 0.929 . S
H163 C115 0.930 . S
H164 C122 0.929 . S
H165 C123 0.930 . S
H166 C124 0.930 . S
H167 C125 0.930 . S
H168 C127 0.929 . S
H169 C128 0.930 . S
H170 C129 0.930 1_565 S
H171 C130 0.930 . S
H172 C134 0.929 . S
H173 C136 0.930 . S
H174 C142 0.929 . S
H175 C143 0.930 . S
Li176 N193 1.990 . S
Li176 O236 1.956 . S
Li176 O237 1.970 . S
Li176 O238 1.961 . S
Li177 N201 1.990 . S
Li177 O236 1.970 . S
Li177 O237 1.956 . S
Li177 O239 1.961 . S
Li178 N223 1.990 . S
Li178 O236 1.961 . S
Li178 O238 1.956 . S
Li178 O239 1.970 . S
Li179 N229 1.990 . S
Li179 O237 1.961 . S
Li179 O238 1.970 . S
Li179 O239 1.956 . S
C180 C182 1.348 . S
C180 C183 1.356 . S
C180 O236 1.325 . S
N181 C184 1.314 . S
N181 C185 1.279 . S
C182 C180 1.348 . S
C182 C184 1.353 . S
C182 H240 0.929 . S
C183 C180 1.356 . S
C183 C185 1.358 . S
C183 H241 0.930 . S
C184 N181 1.314 . S
C184 C182 1.353 . S
C184 H242 0.930 . S
C185 N181 1.279 . S
C185 C183 1.358 . S
C185 H243 0.930 . S
C186 C189 1.348 . S
C186 C190 1.356 . S
C186 O237 1.325 . S
C187 N188 1.279 . S
C187 C190 1.358 1_545 S
C187 H244 0.930 . S
N188 C187 1.279 . S
N188 C191 1.314 . S
C189 C186 1.348 . S
C189 C191 1.353 1_565 S
C189 H245 0.929 . S
C190 C186 1.356 . S
C190 C187 1.358 1_565 S
C190 H246 0.930 . S
C191 N188 1.314 . S
C191 C189 1.353 1_545 S
C191 H247 0.930 . S
C192 N193 1.314 . S
C192 C197 1.353 . S
C192 H198 0.930 . S
N193 Li176 1.990 . S
N193 C192 1.314 . S
N193 C195 1.279 . S
C194 C195 1.358 . S
C194 C196 1.356 . S
C194 H248 0.930 . S
C195 N193 1.279 . S
C195 C194 1.358 . S
C195 H199 0.930 . S
C196 C194 1.356 . S
C196 C197 1.348 . S
C197 C192 1.353 . S
C197 C196 1.348 . S
C197 H249 0.929 . S
H198 C192 0.930 . S
H199 C195 0.930 . S
C200 N201 1.314 . S
C200 C202 1.353 . S
C200 H206 0.930 . S
N201 Li177 1.990 . S
N201 C200 1.314 . S
N201 C204 1.279 1_565 S
C202 C200 1.353 . S
C202 C205 1.348 1_565 S
C202 H250 0.929 . S
C203 C204 1.358 . S
C203 C205 1.356 . S
C203 H251 0.930 . S
C204 N201 1.279 1_545 S
C204 C203 1.358 . S
C204 H207 0.930 . S
C205 C202 1.348 1_545 S
C205 C203 1.356 . S
H206 C200 0.930 . S
H207 C204 0.930 . S
C208 C210 1.348 . S
C208 C211 1.356 . S
C208 O238 1.325 . S
N209 C212 1.314 . S
N209 C213 1.279 . S
C210 C208 1.348 . S
C210 C212 1.353 . S
C210 H252 0.929 . S
C211 C208 1.356 . S
C211 C213 1.358 . S
C211 H253 0.930 . S
C212 N209 1.314 . S
C212 C210 1.353 . S
C212 H254 0.930 . S
C213 N209 1.279 . S
C213 C211 1.358 . S
C213 H255 0.930 . S
C214 C215 1.348 . S
C214 C216 1.356 . S
C214 O239 1.325 . S
C215 C214 1.348 . S
C215 C217 1.353 . S
C215 H256 0.929 . S
C216 C214 1.356 . S
C216 C218 1.358 . S
C216 H257 0.930 . S
C217 C215 1.353 . S
C217 N219 1.314 . S
C217 H258 0.930 . S
C218 C216 1.358 . S
C218 N219 1.279 . S
C218 H259 0.930 . S
N219 C217 1.314 . S
N219 C218 1.279 . S
C220 C222 1.353 . S
C220 N223 1.314 . S
C220 H226 0.930 . S
C221 N223 1.279 . S
C221 C224 1.358 . S
C221 H227 0.930 . S
C222 C220 1.353 . S
C222 C225 1.348 . S
C222 H260 0.929 . S
N223 Li178 1.990 . S
N223 C220 1.314 . S
N223 C221 1.279 . S
C224 C221 1.358 . S
C224 C225 1.356 . S
C224 H261 0.930 . S
C225 C222 1.348 . S
C225 C224 1.356 . S
H226 C220 0.930 . S
H227 C221 0.930 . S
C228 N229 1.314 . S
C228 C230 1.353 . S
C228 H234 0.930 . S
N229 Li179 1.990 . S
N229 C228 1.314 . S
N229 C232 1.279 . S
C230 C228 1.353 . S
C230 C233 1.348 . S
C230 H262 0.929 . S
C231 C232 1.358 . S
C231 C233 1.356 . S
C231 H263 0.930 . S
C232 N229 1.279 . S
C232 C231 1.358 . S
C232 H235 0.930 . S
C233 C230 1.348 . S
C233 C231 1.356 . S
H234 C228 0.930 . S
H235 C232 0.930 . S
O236 Li176 1.956 . S
O236 Li177 1.970 . S
O236 Li178 1.961 . S
O236 C180 1.325 . S
O237 Li176 1.970 . S
O237 Li177 1.956 . S
O237 Li179 1.961 . S
O237 C186 1.325 . S
O238 Li176 1.961 . S
O238 Li178 1.956 . S
O238 Li179 1.970 . S
O238 C208 1.325 . S
O239 Li177 1.961 . S
O239 Li178 1.970 . S
O239 Li179 1.956 . S
O239 C214 1.325 . S
H240 C182 0.929 . S
H241 C183 0.930 . S
H242 C184 0.930 . S
H243 C185 0.930 . S
H244 C187 0.930 . S
H245 C189 0.929 . S
H246 C190 0.930 . S
H247 C191 0.930 . S
H248 C194 0.930 . S
H249 C197 0.929 . S
H250 C202 0.929 . S
H251 C203 0.930 . S
H252 C210 0.929 . S
H253 C211 0.930 . S
H254 C212 0.930 . S
H255 C213 0.930 . S
H256 C215 0.929 . S
H257 C216 0.930 . S
H258 C217 0.930 . S
H259 C218 0.930 . S
H260 C222 0.929 . S
H261 C224 0.930 . S
H262 C230 0.929 . S
H263 C231 0.930 . S
Li264 N281 1.990 . S
Li264 O324 1.956 . S
Li264 O325 1.970 . S
Li264 O326 1.961 . S
Li265 N289 1.990 . S
Li265 O324 1.970 . S
Li265 O325 1.956 . S
Li265 O327 1.961 . S
Li266 N311 1.990 . S
Li266 O324 1.961 . S
Li266 O326 1.956 . S
Li266 O327 1.970 . S
Li267 N317 1.990 . S
Li267 O325 1.961 . S
Li267 O326 1.970 . S
Li267 O327 1.956 . S
C268 C270 1.348 . S
C268 C271 1.356 . S
C268 O324 1.325 . S
N269 C272 1.314 . S
N269 C273 1.279 . S
C270 C268 1.348 . S
C270 C272 1.353 1_565 S
C270 H328 0.929 . S
C271 C268 1.356 . S
C271 C273 1.358 1_565 S
C271 H329 0.930 . S
C272 N269 1.314 . S
C272 C270 1.353 1_545 S
C272 H330 0.930 . S
C273 N269 1.279 . S
C273 C271 1.358 1_545 S
C273 H331 0.930 . S
C274 C277 1.348 . S
C274 C278 1.356 . S
C274 O325 1.325 . S
C275 N276 1.279 . S
C275 C278 1.358 . S
C275 H332 0.930 . S
N276 C275 1.279 . S
N276 C279 1.314 . S
C277 C274 1.348 . S
C277 C279 1.353 . S
C277 H333 0.929 . S
C278 C274 1.356 . S
C278 C275 1.358 . S
C278 H334 0.930 . S
C279 N276 1.314 . S
C279 C277 1.353 . S
C279 H335 0.930 . S
C280 N281 1.314 . S
C280 C285 1.353 . S
C280 H286 0.930 . S
N281 Li264 1.990 . S
N281 C280 1.314 . S
N281 C283 1.279 1_565 S
C282 C283 1.358 . S
C282 C284 1.356 . S
C282 H336 0.930 . S
C283 N281 1.279 1_545 S
C283 C282 1.358 . S
C283 H287 0.930 . S
C284 C282 1.356 . S
C284 C285 1.348 1_545 S
C285 C280 1.353 . S
C285 C284 1.348 1_565 S
C285 H337 0.929 . S
H286 C280 0.930 . S
H287 C283 0.930 . S
C288 N289 1.314 . S
C288 C290 1.353 . S
C288 H294 0.930 . S
N289 Li265 1.990 . S
N289 C288 1.314 . S
N289 C292 1.279 . S
C290 C288 1.353 . S
C290 C293 1.348 . S
C290 H338 0.929 . S
C291 C292 1.358 . S
C291 C293 1.356 . S
C291 H339 0.930 . S
C292 N289 1.279 . S
C292 C291 1.358 . S
C292 H295 0.930 . S
C293 C290 1.348 . S
C293 C291 1.356 . S
H294 C288 0.930 . S
H295 C292 0.930 . S
C296 C298 1.348 . S
C296 C299 1.356 . S
C296 O326 1.325 . S
N297 C300 1.314 . S
N297 C301 1.279 . S
C298 C296 1.348 . S
C298 C300 1.353 . S
C298 H340 0.929 . S
C299 C296 1.356 . S
C299 C301 1.358 . S
C299 H341 0.930 . S
C300 N297 1.314 . S
C300 C298 1.353 . S
C300 H342 0.930 . S
C301 N297 1.279 . S
C301 C299 1.358 . S
C301 H343 0.930 . S
C302 C303 1.348 . S
C302 C304 1.356 . S
C302 O327 1.325 . S
C303 C302 1.348 . S
C303 C305 1.353 . S
C303 H344 0.929 . S
C304 C302 1.356 . S
C304 C306 1.358 . S
C304 H345 0.930 . S
C305 C303 1.353 . S
C305 N307 1.314 . S
C305 H346 0.930 . S
C306 C304 1.358 . S
C306 N307 1.279 . S
C306 H347 0.930 . S
N307 C305 1.314 . S
N307 C306 1.279 . S
C308 C310 1.353 . S
C308 N311 1.314 . S
C308 H314 0.930 . S
C309 N311 1.279 . S
C309 C312 1.358 . S
C309 H315 0.930 . S
C310 C308 1.353 . S
C310 C313 1.348 . S
C310 H348 0.929 . S
N311 Li266 1.990 . S
N311 C308 1.314 . S
N311 C309 1.279 . S
C312 C309 1.358 . S
C312 C313 1.356 . S
C312 H349 0.930 . S
C313 C310 1.348 . S
C313 C312 1.356 . S
H314 C308 0.930 . S
H315 C309 0.930 . S
C316 N317 1.314 . S
C316 C318 1.353 . S
C316 H322 0.930 . S
N317 Li267 1.990 . S
N317 C316 1.314 . S
N317 C320 1.279 . S
C318 C316 1.353 . S
C318 C321 1.348 . S
C318 H350 0.929 . S
C319 C320 1.358 . S
C319 C321 1.356 . S
C319 H351 0.930 . S
C320 N317 1.279 . S
C320 C319 1.358 . S
C320 H323 0.930 . S
C321 C318 1.348 . S
C321 C319 1.356 . S
H322 C316 0.930 . S
H323 C320 0.930 . S
O324 Li264 1.956 . S
O324 Li265 1.970 . S
O324 Li266 1.961 . S
O324 C268 1.325 . S
O325 Li264 1.970 . S
O325 Li265 1.956 . S
O325 Li267 1.961 . S
O325 C274 1.325 . S
O326 Li264 1.961 . S
O326 Li266 1.956 . S
O326 Li267 1.970 . S
O326 C296 1.325 . S
O327 Li265 1.961 . S
O327 Li266 1.970 . S
O327 Li267 1.956 . S
O327 C302 1.325 . S
H328 C270 0.929 . S
H329 C271 0.930 . S
H330 C272 0.930 . S
H331 C273 0.930 . S
H332 C275 0.930 . S
H333 C277 0.929 . S
H334 C278 0.930 . S
H335 C279 0.930 . S
H336 C282 0.930 . S
H337 C285 0.929 . S
H338 C290 0.929 . S
H339 C291 0.930 . S
H340 C298 0.929 . S
H341 C299 0.930 . S
H342 C300 0.930 . S
H343 C301 0.930 . S
H344 C303 0.929 . S
H345 C304 0.930 . S
H346 C305 0.930 . S
H347 C306 0.930 . S
H348 C310 0.929 . S
H349 C312 0.930 . S
H350 C318 0.929 . S
H351 C319 0.930 . S
Li352 N369 1.990 . S
Li352 O412 1.956 . S
Li352 O413 1.970 . S
Li352 O414 1.961 . S
Li353 N377 1.990 . S
Li353 O412 1.970 . S
Li353 O413 1.956 . S
Li353 O415 1.961 . S
Li354 N399 1.990 . S
Li354 O412 1.961 . S
Li354 O414 1.956 . S
Li354 O415 1.970 . S
Li355 N405 1.990 . S
Li355 O413 1.961 . S
Li355 O414 1.970 . S
Li355 O415 1.956 . S
C356 C358 1.348 . S
C356 C359 1.356 . S
C356 O412 1.325 . S
N357 C360 1.314 . S
N357 C361 1.279 . S
C358 C356 1.348 . S
C358 C360 1.353 . S
C358 H416 0.929 . S
C359 C356 1.356 . S
C359 C361 1.358 . S
C359 H417 0.930 . S
C360 N357 1.314 . S
C360 C358 1.353 . S
C360 H418 0.930 . S
C361 N357 1.279 . S
C361 C359 1.358 . S
C361 H419 0.930 . S
C362 C365 1.348 . S
C362 C366 1.356 . S
C362 O413 1.325 . S
C363 N364 1.279 . S
C363 C366 1.358 . S
C363 H420 0.930 . S
N364 C363 1.279 . S
N364 C367 1.314 . S
C365 C362 1.348 . S
C365 C367 1.353 . S
C365 H421 0.929 . S
C366 C362 1.356 . S
C366 C363 1.358 . S
C366 H422 0.930 . S
C367 N364 1.314 . S
C367 C365 1.353 . S
C367 H423 0.930 . S
C368 N369 1.314 . S
C368 C373 1.353 . S
C368 H374 0.930 . S
N369 Li352 1.990 . S
N369 C368 1.314 . S
N369 C371 1.279 . S
C370 C371 1.358 . S
C370 C372 1.356 . S
C370 H424 0.930 . S
C371 N369 1.279 . S
C371 C370 1.358 . S
C371 H375 0.930 . S
C372 C370 1.356 . S
C372 C373 1.348 . S
C373 C368 1.353 . S
C373 C372 1.348 . S
C373 H425 0.929 . S
H374 C368 0.930 . S
H375 C371 0.930 . S
C376 N377 1.314 . S
C376 C378 1.353 . S
C376 H382 0.930 . S
N377 Li353 1.990 . S
N377 C376 1.314 . S
N377 C380 1.279 . S
C378 C376 1.353 . S
C378 C381 1.348 . S
C378 H426 0.929 . S
C379 C380 1.358 . S
C379 C381 1.356 . S
C379 H427 0.930 . S
C380 N377 1.279 . S
C380 C379 1.358 . S
C380 H383 0.930 . S
C381 C378 1.348 . S
C381 C379 1.356 . S
H382 C376 0.930 . S
H383 C380 0.930 . S
C384 C386 1.348 . S
C384 C387 1.356 . S
C384 O414 1.325 . S
N385 C388 1.314 . S
N385 C389 1.279 . S
C386 C384 1.348 . S
C386 C388 1.353 . S
C386 H428 0.929 . S
C387 C384 1.356 . S
C387 C389 1.358 . S
C387 H429 0.930 . S
C388 N385 1.314 . S
C388 C386 1.353 . S
C388 H430 0.930 . S
C389 N385 1.279 . S
C389 C387 1.358 . S
C389 H431 0.930 . S
C390 C391 1.348 . S
C390 C392 1.356 . S
C390 O415 1.325 . S
C391 C390 1.348 . S
C391 C393 1.353 . S
C391 H432 0.929 . S
C392 C390 1.356 . S
C392 C394 1.358 . S
C392 H433 0.930 . S
C393 C391 1.353 . S
C393 N395 1.314 . S
C393 H434 0.930 . S
C394 C392 1.358 . S
C394 N395 1.279 . S
C394 H435 0.930 . S
N395 C393 1.314 . S
N395 C394 1.279 . S
C396 C398 1.353 . S
C396 N399 1.314 . S
C396 H402 0.930 . S
C397 N399 1.279 . S
C397 C400 1.358 . S
C397 H403 0.930 . S
C398 C396 1.353 . S
C398 C401 1.348 . S
C398 H436 0.929 . S
N399 Li354 1.990 . S
N399 C396 1.314 . S
N399 C397 1.279 . S
C400 C397 1.358 . S
C400 C401 1.356 . S
C400 H437 0.930 . S
C401 C398 1.348 . S
C401 C400 1.356 . S
H402 C396 0.930 . S
H403 C397 0.930 . S
C404 N405 1.314 . S
C404 C406 1.353 . S
C404 H410 0.930 . S
N405 Li355 1.990 . S
N405 C404 1.314 . S
N405 C408 1.279 . S
C406 C404 1.353 . S
C406 C409 1.348 . S
C406 H438 0.929 . S
C407 C408 1.358 . S
C407 C409 1.356 . S
C407 H439 0.930 . S
C408 N405 1.279 . S
C408 C407 1.358 . S
C408 H411 0.930 . S
C409 C406 1.348 . S
C409 C407 1.356 . S
H410 C404 0.930 . S
H411 C408 0.930 . S
O412 Li352 1.956 . S
O412 Li353 1.970 . S
O412 Li354 1.961 . S
O412 C356 1.325 . S
O413 Li352 1.970 . S
O413 Li353 1.956 . S
O413 Li355 1.961 . S
O413 C362 1.325 . S
O414 Li352 1.961 . S
O414 Li354 1.956 . S
O414 Li355 1.970 . S
O414 C384 1.325 . S
O415 Li353 1.961 . S
O415 Li354 1.970 . S
O415 Li355 1.956 . S
O415 C390 1.325 . S
H416 C358 0.929 . S
H417 C359 0.930 . S
H418 C360 0.930 . S
H419 C361 0.930 . S
H420 C363 0.930 . S
H421 C365 0.929 . S
H422 C366 0.930 . S
H423 C367 0.930 . S
H424 C370 0.930 . S
H425 C373 0.929 . S
H426 C378 0.929 . S
H427 C379 0.930 . S
H428 C386 0.929 . S
H429 C387 0.930 . S
H430 C388 0.930 . S
H431 C389 0.930 . S
H432 C391 0.929 . S
H433 C392 0.930 . S
H434 C393 0.930 . S
H435 C394 0.930 . S
H436 C398 0.929 . S
H437 C400 0.930 . S
H438 C406 0.929 . S
H439 C407 0.930 . S
Li440 N457 1.990 . S
Li440 O500 1.956 . S
Li440 O501 1.970 . S
Li440 O502 1.961 . S
Li441 N465 1.990 . S
Li441 O500 1.970 . S
Li441 O501 1.956 . S
Li441 O503 1.961 . S
Li442 N487 1.990 . S
Li442 O500 1.961 . S
Li442 O502 1.956 . S
Li442 O503 1.970 . S
Li443 N493 1.990 . S
Li443 O501 1.961 . S
Li443 O502 1.970 . S
Li443 O503 1.956 . S
C444 C446 1.348 . S
C444 C447 1.356 . S
C444 O500 1.325 . S
N445 C448 1.314 . S
N445 C449 1.279 . S
C446 C444 1.348 . S
C446 C448 1.353 . S
C446 H504 0.929 . S
C447 C444 1.356 . S
C447 C449 1.358 . S
C447 H505 0.930 . S
C448 N445 1.314 . S
C448 C446 1.353 . S
C448 H506 0.930 . S
C449 N445 1.279 . S
C449 C447 1.358 . S
C449 H507 0.930 . S
C450 C453 1.348 . S
C450 C454 1.356 . S
C450 O501 1.325 . S
C451 N452 1.279 . S
C451 C454 1.358 . S
C451 H508 0.930 . S
N452 C451 1.279 . S
N452 C455 1.314 . S
C453 C450 1.348 . S
C453 C455 1.353 . S
C453 H509 0.929 . S
C454 C450 1.356 . S
C454 C451 1.358 . S
C454 H510 0.930 . S
C455 N452 1.314 . S
C455 C453 1.353 . S
C455 H511 0.930 . S
C456 N457 1.314 . S
C456 C461 1.353 . S
C456 H462 0.930 . S
N457 Li440 1.990 . S
N457 C456 1.314 . S
N457 C459 1.279 . S
C458 C459 1.358 . S
C458 C460 1.356 . S
C458 H512 0.930 . S
C459 N457 1.279 . S
C459 C458 1.358 . S
C459 H463 0.930 . S
C460 C458 1.356 . S
C460 C461 1.348 . S
C461 C456 1.353 . S
C461 C460 1.348 . S
C461 H513 0.929 . S
H462 C456 0.930 . S
H463 C459 0.930 . S
C464 N465 1.314 . S
C464 C466 1.353 . S
C464 H470 0.930 . S
N465 Li441 1.990 . S
N465 C464 1.314 . S
N465 C468 1.279 . S
C466 C464 1.353 . S
C466 C469 1.348 . S
C466 H514 0.929 . S
C467 C468 1.358 . S
C467 C469 1.356 . S
C467 H515 0.930 . S
C468 N465 1.279 . S
C468 C467 1.358 . S
C468 H471 0.930 . S
C469 C466 1.348 . S
C469 C467 1.356 . S
H470 C464 0.930 . S
H471 C468 0.930 . S
C472 C474 1.348 . S
C472 C475 1.356 . S
C472 O502 1.325 . S
N473 C476 1.314 . S
N473 C477 1.279 . S
C474 C472 1.348 . S
C474 C476 1.353 . S
C474 H516 0.929 . S
C475 C472 1.356 . S
C475 C477 1.358 . S
C475 H517 0.930 . S
C476 N473 1.314 . S
C476 C474 1.353 . S
C476 H518 0.930 . S
C477 N473 1.279 . S
C477 C475 1.358 . S
C477 H519 0.930 . S
C478 C479 1.348 . S
C478 C480 1.356 . S
C478 O503 1.325 . S
C479 C478 1.348 . S
C479 C481 1.353 . S
C479 H520 0.929 . S
C480 C478 1.356 . S
C480 C482 1.358 . S
C480 H521 0.930 . S
C481 C479 1.353 . S
C481 N483 1.314 . S
C481 H522 0.930 . S
C482 C480 1.358 . S
C482 N483 1.279 . S
C482 H523 0.930 . S
N483 C481 1.314 . S
N483 C482 1.279 . S
C484 C486 1.353 . S
C484 N487 1.314 . S
C484 H490 0.930 . S
C485 N487 1.279 . S
C485 C488 1.358 . S
C485 H491 0.930 . S
C486 C484 1.353 . S
C486 C489 1.348 . S
C486 H524 0.929 . S
N487 Li442 1.990 . S
N487 C484 1.314 . S
N487 C485 1.279 . S
C488 C485 1.358 . S
C488 C489 1.356 . S
C488 H525 0.930 . S
C489 C486 1.348 . S
C489 C488 1.356 . S
H490 C484 0.930 . S
H491 C485 0.930 . S
C492 N493 1.314 . S
C492 C494 1.353 . S
C492 H498 0.930 . S
N493 Li443 1.990 . S
N493 C492 1.314 . S
N493 C496 1.279 . S
C494 C492 1.353 . S
C494 C497 1.348 . S
C494 H526 0.929 . S
C495 C496 1.358 . S
C495 C497 1.356 . S
C495 H527 0.930 . S
C496 N493 1.279 . S
C496 C495 1.358 . S
C496 H499 0.930 . S
C497 C494 1.348 . S
C497 C495 1.356 . S
H498 C492 0.930 . S
H499 C496 0.930 . S
O500 Li440 1.956 . S
O500 Li441 1.970 . S
O500 Li442 1.961 . S
O500 C444 1.325 . S
O501 Li440 1.970 . S
O501 Li441 1.956 . S
O501 Li443 1.961 . S
O501 C450 1.325 . S
O502 Li440 1.961 . S
O502 Li442 1.956 . S
O502 Li443 1.970 . S
O502 C472 1.325 . S
O503 Li441 1.961 . S
O503 Li442 1.970 . S
O503 Li443 1.956 . S
O503 C478 1.325 . S
H504 C446 0.929 . S
H505 C447 0.930 . S
H506 C448 0.930 . S
H507 C449 0.930 . S
H508 C451 0.930 . S
H509 C453 0.929 . S
H510 C454 0.930 . S
H511 C455 0.930 . S
H512 C458 0.930 . S
H513 C461 0.929 . S
H514 C466 0.929 . S
H515 C467 0.930 . S
H516 C474 0.929 . S
H517 C475 0.930 . S
H518 C476 0.930 . S
H519 C477 0.930 . S
H520 C479 0.929 . S
H521 C480 0.930 . S
H522 C481 0.930 . S
H523 C482 0.930 . S
H524 C486 0.929 . S
H525 C488 0.930 . S
H526 C494 0.929 . S
H527 C495 0.930 . S
Li528 N545 1.990 . S
Li528 O588 1.956 . S
Li528 O589 1.970 . S
Li528 O590 1.961 . S
Li529 N553 1.990 . S
Li529 O588 1.970 . S
Li529 O589 1.956 . S
Li529 O591 1.961 . S
Li530 N575 1.990 . S
Li530 O588 1.961 . S
Li530 O590 1.956 . S
Li530 O591 1.970 . S
Li531 N581 1.990 . S
Li531 O589 1.961 . S
Li531 O590 1.970 . S
Li531 O591 1.956 . S
C532 C534 1.348 . S
C532 C535 1.356 . S
C532 O588 1.325 . S
N533 C536 1.314 . S
N533 C537 1.279 . S
C534 C532 1.348 . S
C534 C536 1.353 . S
C534 H592 0.929 . S
C535 C532 1.356 . S
C535 C537 1.358 . S
C535 H593 0.930 . S
C536 N533 1.314 . S
C536 C534 1.353 . S
C536 H594 0.930 . S
C537 N533 1.279 . S
C537 C535 1.358 . S
C537 H595 0.930 . S
C538 C541 1.348 . S
C538 C542 1.356 . S
C538 O589 1.325 . S
C539 N540 1.279 . S
C539 C542 1.358 . S
C539 H596 0.930 . S
N540 C539 1.279 . S
N540 C543 1.314 . S
C541 C538 1.348 . S
C541 C543 1.353 . S
C541 H597 0.929 . S
C542 C538 1.356 . S
C542 C539 1.358 . S
C542 H598 0.930 . S
C543 N540 1.314 . S
C543 C541 1.353 . S
C543 H599 0.930 . S
C544 N545 1.314 . S
C544 C549 1.353 . S
C544 H550 0.930 . S
N545 Li528 1.990 . S
N545 C544 1.314 . S
N545 C547 1.279 . S
C546 C547 1.358 . S
C546 C548 1.356 . S
C546 H600 0.930 . S
C547 N545 1.279 . S
C547 C546 1.358 . S
C547 H551 0.930 . S
C548 C546 1.356 . S
C548 C549 1.348 . S
C549 C544 1.353 . S
C549 C548 1.348 . S
C549 H601 0.929 . S
H550 C544 0.930 . S
H551 C547 0.930 . S
C552 N553 1.314 . S
C552 C554 1.353 . S
C552 H558 0.930 . S
N553 Li529 1.990 . S
N553 C552 1.314 . S
N553 C556 1.279 . S
C554 C552 1.353 . S
C554 C557 1.348 . S
C554 H602 0.929 . S
C555 C556 1.358 . S
C555 C557 1.356 . S
C555 H603 0.930 . S
C556 N553 1.279 . S
C556 C555 1.358 . S
C556 H559 0.930 . S
C557 C554 1.348 . S
C557 C555 1.356 . S
H558 C552 0.930 . S
H559 C556 0.930 . S
C560 C562 1.348 . S
C560 C563 1.356 . S
C560 O590 1.325 . S
N561 C564 1.314 . S
N561 C565 1.279 . S
C562 C560 1.348 . S
C562 C564 1.353 . S
C562 H604 0.929 . S
C563 C560 1.356 . S
C563 C565 1.358 . S
C563 H605 0.930 . S
C564 N561 1.314 . S
C564 C562 1.353 . S
C564 H606 0.930 . S
C565 N561 1.279 . S
C565 C563 1.358 . S
C565 H607 0.930 . S
C566 C567 1.348 . S
C566 C568 1.356 . S
C566 O591 1.325 . S
C567 C566 1.348 . S
C567 C569 1.353 . S
C567 H608 0.929 . S
C568 C566 1.356 . S
C568 C570 1.358 . S
C568 H609 0.930 . S
C569 C567 1.353 . S
C569 N571 1.314 . S
C569 H610 0.930 . S
C570 C568 1.358 . S
C570 N571 1.279 . S
C570 H611 0.930 . S
N571 C569 1.314 . S
N571 C570 1.279 . S
C572 C574 1.353 . S
C572 N575 1.314 . S
C572 H578 0.930 . S
C573 N575 1.279 . S
C573 C576 1.358 . S
C573 H579 0.930 . S
C574 C572 1.353 . S
C574 C577 1.348 . S
C574 H612 0.929 . S
N575 Li530 1.990 . S
N575 C572 1.314 . S
N575 C573 1.279 . S
C576 C573 1.358 . S
C576 C577 1.356 . S
C576 H613 0.930 . S
C577 C574 1.348 . S
C577 C576 1.356 . S
H578 C572 0.930 . S
H579 C573 0.930 . S
C580 N581 1.314 . S
C580 C582 1.353 . S
C580 H586 0.930 . S
N581 Li531 1.990 . S
N581 C580 1.314 . S
N581 C584 1.279 . S
C582 C580 1.353 . S
C582 C585 1.348 . S
C582 H614 0.929 . S
C583 C584 1.358 . S
C583 C585 1.356 . S
C583 H615 0.930 . S
C584 N581 1.279 . S
C584 C583 1.358 . S
C584 H587 0.930 . S
C585 C582 1.348 . S
C585 C583 1.356 . S
H586 C580 0.930 . S
H587 C584 0.930 . S
O588 Li528 1.956 . S
O588 Li529 1.970 . S
O588 Li530 1.961 . S
O588 C532 1.325 . S
O589 Li528 1.970 . S
O589 Li529 1.956 . S
O589 Li531 1.961 . S
O589 C538 1.325 . S
O590 Li528 1.961 . S
O590 Li530 1.956 . S
O590 Li531 1.970 . S
O590 C560 1.325 . S
O591 Li529 1.961 . S
O591 Li530 1.970 . S
O591 Li531 1.956 . S
O591 C566 1.325 . S
H592 C534 0.929 . S
H593 C535 0.930 . S
H594 C536 0.930 . S
H595 C537 0.930 . S
H596 C539 0.930 . S
H597 C541 0.929 . S
H598 C542 0.930 . S
H599 C543 0.930 . S
H600 C546 0.930 . S
H601 C549 0.929 . S
H602 C554 0.929 . S
H603 C555 0.930 . S
H604 C562 0.929 . S
H605 C563 0.930 . S
H606 C564 0.930 . S
H607 C565 0.930 . S
H608 C567 0.929 . S
H609 C568 0.930 . S
H610 C569 0.930 . S
H611 C570 0.930 . S
H612 C574 0.929 . S
H613 C576 0.930 . S
H614 C582 0.929 . S
H615 C583 0.930 . S
Li616 N633 1.990 . S
Li616 O676 1.956 . S
Li616 O677 1.970 . S
Li616 O678 1.961 . S
Li617 N641 1.990 . S
Li617 O676 1.970 . S
Li617 O677 1.956 . S
Li617 O679 1.961 . S
Li618 N663 1.990 . S
Li618 O676 1.961 . S
Li618 O678 1.956 . S
Li618 O679 1.970 . S
Li619 N669 1.990 . S
Li619 O677 1.961 . S
Li619 O678 1.970 . S
Li619 O679 1.956 . S
C620 C622 1.348 . S
C620 C623 1.356 . S
C620 O676 1.325 . S
N621 C624 1.314 . S
N621 C625 1.279 . S
C622 C620 1.348 . S
C622 C624 1.353 . S
C622 H680 0.929 . S
C623 C620 1.356 . S
C623 C625 1.358 . S
C623 H681 0.930 . S
C624 N621 1.314 . S
C624 C622 1.353 . S
C624 H682 0.930 . S
C625 N621 1.279 . S
C625 C623 1.358 . S
C625 H683 0.930 . S
C626 C629 1.348 . S
C626 C630 1.356 . S
C626 O677 1.325 . S
C627 N628 1.279 . S
C627 C630 1.358 . S
C627 H684 0.930 . S
N628 C627 1.279 . S
N628 C631 1.314 . S
C629 C626 1.348 . S
C629 C631 1.353 . S
C629 H685 0.929 . S
C630 C626 1.356 . S
C630 C627 1.358 . S
C630 H686 0.930 . S
C631 N628 1.314 . S
C631 C629 1.353 . S
C631 H687 0.930 . S
C632 N633 1.314 . S
C632 C637 1.353 . S
C632 H638 0.930 . S
N633 Li616 1.990 . S
N633 C632 1.314 . S
N633 C635 1.279 . S
C634 C635 1.358 . S
C634 C636 1.356 . S
C634 H688 0.930 . S
C635 N633 1.279 . S
C635 C634 1.358 . S
C635 H639 0.930 . S
C636 C634 1.356 . S
C636 C637 1.348 . S
C637 C632 1.353 . S
C637 C636 1.348 . S
C637 H689 0.929 . S
H638 C632 0.930 . S
H639 C635 0.930 . S
C640 N641 1.314 . S
C640 C642 1.353 . S
C640 H646 0.930 . S
N641 Li617 1.990 . S
N641 C640 1.314 . S
N641 C644 1.279 . S
C642 C640 1.353 . S
C642 C645 1.348 . S
C642 H690 0.929 . S
C643 C644 1.358 . S
C643 C645 1.356 . S
C643 H691 0.930 . S
C644 N641 1.279 . S
C644 C643 1.358 . S
C644 H647 0.930 . S
C645 C642 1.348 . S
C645 C643 1.356 . S
H646 C640 0.930 . S
H647 C644 0.930 . S
C648 C650 1.348 . S
C648 C651 1.356 . S
C648 O678 1.325 . S
N649 C652 1.314 . S
N649 C653 1.279 . S
C650 C648 1.348 . S
C650 C652 1.353 . S
C650 H692 0.929 . S
C651 C648 1.356 . S
C651 C653 1.358 . S
C651 H693 0.930 . S
C652 N649 1.314 . S
C652 C650 1.353 . S
C652 H694 0.930 . S
C653 N649 1.279 . S
C653 C651 1.358 . S
C653 H695 0.930 . S
C654 C655 1.348 . S
C654 C656 1.356 . S
C654 O679 1.325 . S
C655 C654 1.348 . S
C655 C657 1.353 . S
C655 H696 0.929 . S
C656 C654 1.356 . S
C656 C658 1.358 . S
C656 H697 0.930 . S
C657 C655 1.353 . S
C657 N659 1.314 . S
C657 H698 0.930 . S
C658 C656 1.358 . S
C658 N659 1.279 . S
C658 H699 0.930 . S
N659 C657 1.314 . S
N659 C658 1.279 . S
C660 C662 1.353 . S
C660 N663 1.314 . S
C660 H666 0.930 . S
C661 N663 1.279 . S
C661 C664 1.358 . S
C661 H667 0.930 . S
C662 C660 1.353 . S
C662 C665 1.348 . S
C662 H700 0.929 . S
N663 Li618 1.990 . S
N663 C660 1.314 . S
N663 C661 1.279 . S
C664 C661 1.358 . S
C664 C665 1.356 . S
C664 H701 0.930 . S
C665 C662 1.348 . S
C665 C664 1.356 . S
H666 C660 0.930 . S
H667 C661 0.930 . S
C668 N669 1.314 . S
C668 C670 1.353 . S
C668 H674 0.930 . S
N669 Li619 1.990 . S
N669 C668 1.314 . S
N669 C672 1.279 . S
C670 C668 1.353 . S
C670 C673 1.348 . S
C670 H702 0.929 . S
C671 C672 1.358 . S
C671 C673 1.356 . S
C671 H703 0.930 . S
C672 N669 1.279 . S
C672 C671 1.358 . S
C672 H675 0.930 . S
C673 C670 1.348 . S
C673 C671 1.356 . S
H674 C668 0.930 . S
H675 C672 0.930 . S
O676 Li616 1.956 . S
O676 Li617 1.970 . S
O676 Li618 1.961 . S
O676 C620 1.325 . S
O677 Li616 1.970 . S
O677 Li617 1.956 . S
O677 Li619 1.961 . S
O677 C626 1.325 . S
O678 Li616 1.961 . S
O678 Li618 1.956 . S
O678 Li619 1.970 . S
O678 C648 1.325 . S
O679 Li617 1.961 . S
O679 Li618 1.970 . S
O679 Li619 1.956 . S
O679 C654 1.325 . S
H680 C622 0.929 . S
H681 C623 0.930 . S
H682 C624 0.930 . S
H683 C625 0.930 . S
H684 C627 0.930 . S
H685 C629 0.929 . S
H686 C630 0.930 . S
H687 C631 0.930 . S
H688 C634 0.930 . S
H689 C637 0.929 . S
H690 C642 0.929 . S
H691 C643 0.930 . S
H692 C650 0.929 . S
H693 C651 0.930 . S
H694 C652 0.930 . S
H695 C653 0.930 . S
H696 C655 0.929 . S
H697 C656 0.930 . S
H698 C657 0.930 . S
H699 C658 0.930 . S
H700 C662 0.929 . S
H701 C664 0.930 . S
H702 C670 0.929 . S
H703 C671 0.930 . S
Li704 N721 1.990 . S
Li704 O764 1.956 . S
Li704 O765 1.970 . S
Li704 O766 1.961 . S
Li705 N729 1.990 . S
Li705 O764 1.970 . S
Li705 O765 1.956 . S
Li705 O767 1.961 . S
Li706 N751 1.990 . S
Li706 O764 1.961 . S
Li706 O766 1.956 . S
Li706 O767 1.970 . S
Li707 N757 1.990 . S
Li707 O765 1.961 . S
Li707 O766 1.970 . S
Li707 O767 1.956 . S
C708 C710 1.348 . S
C708 C711 1.356 . S
C708 O764 1.325 . S
N709 C712 1.314 . S
N709 C713 1.279 . S
C710 C708 1.348 . S
C710 C712 1.353 . S
C710 H768 0.929 . S
C711 C708 1.356 . S
C711 C713 1.358 . S
C711 H769 0.930 . S
C712 N709 1.314 . S
C712 C710 1.353 . S
C712 H770 0.930 . S
C713 N709 1.279 . S
C713 C711 1.358 . S
C713 H771 0.930 . S
C714 C717 1.348 . S
C714 C718 1.356 . S
C714 O765 1.325 . S
C715 N716 1.279 . S
C715 C718 1.358 1_565 S
C715 H772 0.930 . S
N716 C715 1.279 . S
N716 C719 1.314 1_565 S
C717 C714 1.348 . S
C717 C719 1.353 . S
C717 H773 0.929 . S
C718 C714 1.356 . S
C718 C715 1.358 1_545 S
C718 H774 0.930 . S
C719 N716 1.314 1_545 S
C719 C717 1.353 . S
C719 H775 0.930 1_545 S
C720 N721 1.314 . S
C720 C725 1.353 . S
C720 H726 0.930 . S
N721 Li704 1.990 . S
N721 C720 1.314 . S
N721 C723 1.279 . S
C722 C723 1.358 . S
C722 C724 1.356 . S
C722 H776 0.930 . S
C723 N721 1.279 . S
C723 C722 1.358 . S
C723 H727 0.930 . S
C724 C722 1.356 . S
C724 C725 1.348 . S
C725 C720 1.353 . S
C725 C724 1.348 . S
C725 H777 0.929 . S
H726 C720 0.930 . S
H727 C723 0.930 . S
C728 N729 1.314 . S
C728 C730 1.353 . S
C728 H734 0.930 . S
N729 Li705 1.990 . S
N729 C728 1.314 . S
N729 C732 1.279 . S
C730 C728 1.353 . S
C730 C733 1.348 . S
C730 H778 0.929 . S
C731 C732 1.358 . S
C731 C733 1.356 . S
C731 H779 0.930 . S
C732 N729 1.279 . S
C732 C731 1.358 . S
C732 H735 0.930 . S
C733 C730 1.348 . S
C733 C731 1.356 . S
H734 C728 0.930 . S
H735 C732 0.930 . S
C736 C738 1.348 . S
C736 C739 1.356 . S
C736 O766 1.325 . S
N737 C740 1.314 . S
N737 C741 1.279 . S
C738 C736 1.348 . S
C738 C740 1.353 . S
C738 H780 0.929 . S
C739 C736 1.356 . S
C739 C741 1.358 . S
C739 H781 0.930 . S
C740 N737 1.314 . S
C740 C738 1.353 . S
C740 H782 0.930 . S
C741 N737 1.279 . S
C741 C739 1.358 . S
C741 H783 0.930 . S
C742 C743 1.348 . S
C742 C744 1.356 . S
C742 O767 1.325 . S
C743 C742 1.348 . S
C743 C745 1.353 . S
C743 H784 0.929 . S
C744 C742 1.356 . S
C744 C746 1.358 . S
C744 H785 0.930 . S
C745 C743 1.353 . S
C745 N747 1.314 . S
C745 H786 0.930 . S
C746 C744 1.358 . S
C746 N747 1.279 . S
C746 H787 0.930 . S
N747 C745 1.314 . S
N747 C746 1.279 . S
C748 C750 1.353 . S
C748 N751 1.314 . S
C748 H754 0.930 . S
C749 N751 1.279 . S
C749 C752 1.358 . S
C749 H755 0.930 . S
C750 C748 1.353 . S
C750 C753 1.348 . S
C750 H788 0.929 . S
N751 Li706 1.990 . S
N751 C748 1.314 . S
N751 C749 1.279 . S
C752 C749 1.358 . S
C752 C753 1.356 . S
C752 H789 0.930 . S
C753 C750 1.348 . S
C753 C752 1.356 . S
H754 C748 0.930 . S
H755 C749 0.930 . S
C756 N757 1.314 1_565 S
C756 C758 1.353 . S
C756 H762 0.930 . S
N757 Li707 1.990 . S
N757 C756 1.314 1_545 S
N757 C760 1.279 . S
C758 C756 1.353 . S
C758 C761 1.348 . S
C758 H790 0.929 . S
C759 C760 1.358 . S
C759 C761 1.356 1_545 S
C759 H791 0.930 . S
C760 N757 1.279 . S
C760 C759 1.358 . S
C760 H763 0.930 . S
C761 C758 1.348 . S
C761 C759 1.356 1_565 S
H762 C756 0.930 . S
H763 C760 0.930 . S
O764 Li704 1.956 . S
O764 Li705 1.970 . S
O764 Li706 1.961 . S
O764 C708 1.325 . S
O765 Li704 1.970 . S
O765 Li705 1.956 . S
O765 Li707 1.961 . S
O765 C714 1.325 . S
O766 Li704 1.961 . S
O766 Li706 1.956 . S
O766 Li707 1.970 . S
O766 C736 1.325 . S
O767 Li705 1.961 . S
O767 Li706 1.970 . S
O767 Li707 1.956 . S
O767 C742 1.325 . S
H768 C710 0.929 . S
H769 C711 0.930 . S
H770 C712 0.930 . S
H771 C713 0.930 . S
H772 C715 0.930 . S
H773 C717 0.929 . S
H774 C718 0.930 . S
H775 C719 0.930 1_565 S
H776 C722 0.930 . S
H777 C725 0.929 . S
H778 C730 0.929 . S
H779 C731 0.930 . S
H780 C738 0.929 . S
H781 C739 0.930 . S
H782 C740 0.930 . S
H783 C741 0.930 . S
H784 C743 0.929 . S
H785 C744 0.930 . S
H786 C745 0.930 . S
H787 C746 0.930 . S
H788 C750 0.929 . S
H789 C752 0.930 . S
H790 C758 0.929 . S
H791 C759 0.930 . S
Li792 N809 1.990 . S
Li792 O852 1.956 . S
Li792 O853 1.970 . S
Li792 O854 1.961 . S
Li793 N817 1.990 . S
Li793 O852 1.970 . S
Li793 O853 1.956 . S
Li793 O855 1.961 . S
Li794 N839 1.990 . S
Li794 O852 1.961 . S
Li794 O854 1.956 . S
Li794 O855 1.970 . S
Li795 N845 1.990 . S
Li795 O853 1.961 . S
Li795 O854 1.970 . S
Li795 O855 1.956 . S
C796 C798 1.348 . S
C796 C799 1.356 . S
C796 O852 1.325 . S
N797 C800 1.314 . S
N797 C801 1.279 . S
C798 C796 1.348 . S
C798 C800 1.353 . S
C798 H856 0.929 . S
C799 C796 1.356 . S
C799 C801 1.358 . S
C799 H857 0.930 . S
C800 N797 1.314 . S
C800 C798 1.353 . S
C800 H858 0.930 . S
C801 N797 1.279 . S
C801 C799 1.358 . S
C801 H859 0.930 . S
C802 C805 1.348 . S
C802 C806 1.356 . S
C802 O853 1.325 . S
C803 N804 1.279 . S
C803 C806 1.358 . S
C803 H860 0.930 . S
N804 C803 1.279 . S
N804 C807 1.314 . S
C805 C802 1.348 . S
C805 C807 1.353 . S
C805 H861 0.929 . S
C806 C802 1.356 . S
C806 C803 1.358 . S
C806 H862 0.930 . S
C807 N804 1.314 . S
C807 C805 1.353 . S
C807 H863 0.930 . S
C808 N809 1.314 . S
C808 C813 1.353 . S
C808 H814 0.930 . S
N809 Li792 1.990 . S
N809 C808 1.314 . S
N809 C811 1.279 . S
C810 C811 1.358 . S
C810 C812 1.356 . S
C810 H864 0.930 . S
C811 N809 1.279 . S
C811 C810 1.358 . S
C811 H815 0.930 . S
C812 C810 1.356 . S
C812 C813 1.348 . S
C813 C808 1.353 . S
C813 C812 1.348 . S
C813 H865 0.929 . S
H814 C808 0.930 . S
H815 C811 0.930 . S
C816 N817 1.314 1_565 S
C816 C818 1.353 . S
C816 H822 0.930 . S
N817 Li793 1.990 . S
N817 C816 1.314 1_545 S
N817 C820 1.279 . S
C818 C816 1.353 . S
C818 C821 1.348 . S
C818 H866 0.929 . S
C819 C820 1.358 . S
C819 C821 1.356 1_545 S
C819 H867 0.930 . S
C820 N817 1.279 . S
C820 C819 1.358 . S
C820 H823 0.930 . S
C821 C818 1.348 . S
C821 C819 1.356 1_565 S
H822 C816 0.930 . S
H823 C820 0.930 . S
C824 C826 1.348 . S
C824 C827 1.356 . S
C824 O854 1.325 . S
N825 C828 1.314 . S
N825 C829 1.279 . S
C826 C824 1.348 . S
C826 C828 1.353 . S
C826 H868 0.929 . S
C827 C824 1.356 . S
C827 C829 1.358 . S
C827 H869 0.930 . S
C828 N825 1.314 . S
C828 C826 1.353 . S
C828 H870 0.930 . S
C829 N825 1.279 . S
C829 C827 1.358 . S
C829 H871 0.930 . S
C830 C831 1.348 . S
C830 C832 1.356 . S
C830 O855 1.325 . S
C831 C830 1.348 . S
C831 C833 1.353 . S
C831 H872 0.929 . S
C832 C830 1.356 . S
C832 C834 1.358 1_545 S
C832 H873 0.930 . S
C833 C831 1.353 . S
C833 N835 1.314 1_545 S
C833 H874 0.930 1_545 S
C834 C832 1.358 1_565 S
C834 N835 1.279 . S
C834 H875 0.930 . S
N835 C833 1.314 1_565 S
N835 C834 1.279 . S
C836 C838 1.353 . S
C836 N839 1.314 . S
C836 H842 0.930 . S
C837 N839 1.279 . S
C837 C840 1.358 . S
C837 H843 0.930 . S
C838 C836 1.353 . S
C838 C841 1.348 . S
C838 H876 0.929 . S
N839 Li794 1.990 . S
N839 C836 1.314 . S
N839 C837 1.279 . S
C840 C837 1.358 . S
C840 C841 1.356 . S
C840 H877 0.930 . S
C841 C838 1.348 . S
C841 C840 1.356 . S
H842 C836 0.930 . S
H843 C837 0.930 . S
C844 N845 1.314 . S
C844 C846 1.353 . S
C844 H850 0.930 . S
N845 Li795 1.990 . S
N845 C844 1.314 . S
N845 C848 1.279 . S
C846 C844 1.353 . S
C846 C849 1.348 . S
C846 H878 0.929 . S
C847 C848 1.358 . S
C847 C849 1.356 . S
C847 H879 0.930 . S
C848 N845 1.279 . S
C848 C847 1.358 . S
C848 H851 0.930 . S
C849 C846 1.348 . S
C849 C847 1.356 . S
H850 C844 0.930 . S
H851 C848 0.930 . S
O852 Li792 1.956 . S
O852 Li793 1.970 . S
O852 Li794 1.961 . S
O852 C796 1.325 . S
O853 Li792 1.970 . S
O853 Li793 1.956 . S
O853 Li795 1.961 . S
O853 C802 1.325 . S
O854 Li792 1.961 . S
O854 Li794 1.956 . S
O854 Li795 1.970 . S
O854 C824 1.325 . S
O855 Li793 1.961 . S
O855 Li794 1.970 . S
O855 Li795 1.956 . S
O855 C830 1.325 . S
H856 C798 0.929 . S
H857 C799 0.930 . S
H858 C800 0.930 . S
H859 C801 0.930 . S
H860 C803 0.930 . S
H861 C805 0.929 . S
H862 C806 0.930 . S
H863 C807 0.930 . S
H864 C810 0.930 . S
H865 C813 0.929 . S
H866 C818 0.929 . S
H867 C819 0.930 . S
H868 C826 0.929 . S
H869 C827 0.930 . S
H870 C828 0.930 . S
H871 C829 0.930 . S
H872 C831 0.929 . S
H873 C832 0.930 . S
H874 C833 0.930 1_565 S
H875 C834 0.930 . S
H876 C838 0.929 . S
H877 C840 0.930 . S
H878 C846 0.929 . S
H879 C847 0.930 . S
Li880 N897 1.990 . S
Li880 O940 1.956 . S
Li880 O941 1.970 . S
Li880 O942 1.961 . S
Li881 N905 1.990 . S
Li881 O940 1.970 . S
Li881 O941 1.956 . S
Li881 O943 1.961 . S
Li882 N927 1.990 . S
Li882 O940 1.961 . S
Li882 O942 1.956 . S
Li882 O943 1.970 . S
Li883 N933 1.990 . S
Li883 O941 1.961 . S
Li883 O942 1.970 . S
Li883 O943 1.956 . S
C884 C886 1.348 . S
C884 C887 1.356 . S
C884 O940 1.325 . S
N885 C888 1.314 . S
N885 C889 1.279 . S
C886 C884 1.348 . S
C886 C888 1.353 . S
C886 H944 0.929 . S
C887 C884 1.356 . S
C887 C889 1.358 . S
C887 H945 0.930 . S
C888 N885 1.314 . S
C888 C886 1.353 . S
C888 H946 0.930 . S
C889 N885 1.279 . S
C889 C887 1.358 . S
C889 H947 0.930 . S
C890 C893 1.348 . S
C890 C894 1.356 . S
C890 O941 1.325 . S
C891 N892 1.279 . S
C891 C894 1.358 . S
C891 H948 0.930 . S
N892 C891 1.279 . S
N892 C895 1.314 . S
C893 C890 1.348 . S
C893 C895 1.353 . S
C893 H949 0.929 . S
C894 C890 1.356 . S
C894 C891 1.358 . S
C894 H950 0.930 . S
C895 N892 1.314 . S
C895 C893 1.353 . S
C895 H951 0.930 . S
C896 N897 1.314 . S
C896 C901 1.353 . S
C896 H902 0.930 . S
N897 Li880 1.990 . S
N897 C896 1.314 . S
N897 C899 1.279 . S
C898 C899 1.358 . S
C898 C900 1.356 . S
C898 H952 0.930 . S
C899 N897 1.279 . S
C899 C898 1.358 . S
C899 H903 0.930 . S
C900 C898 1.356 . S
C900 C901 1.348 . S
C901 C896 1.353 . S
C901 C900 1.348 . S
C901 H953 0.929 . S
H902 C896 0.930 . S
H903 C899 0.930 . S
C904 N905 1.314 . S
C904 C906 1.353 . S
C904 H910 0.930 . S
N905 Li881 1.990 . S
N905 C904 1.314 . S
N905 C908 1.279 . S
C906 C904 1.353 . S
C906 C909 1.348 . S
C906 H954 0.929 . S
C907 C908 1.358 . S
C907 C909 1.356 . S
C907 H955 0.930 . S
C908 N905 1.279 . S
C908 C907 1.358 . S
C908 H911 0.930 . S
C909 C906 1.348 . S
C909 C907 1.356 . S
H910 C904 0.930 . S
H911 C908 0.930 . S
C912 C914 1.348 . S
C912 C915 1.356 . S
C912 O942 1.325 . S
N913 C916 1.314 . S
N913 C917 1.279 . S
C914 C912 1.348 . S
C914 C916 1.353 1_565 S
C914 H956 0.929 . S
C915 C912 1.356 . S
C915 C917 1.358 1_565 S
C915 H957 0.930 . S
C916 N913 1.314 . S
C916 C914 1.353 1_545 S
C916 H958 0.930 . S
C917 N913 1.279 . S
C917 C915 1.358 1_545 S
C917 H959 0.930 . S
C918 C919 1.348 . S
C918 C920 1.356 . S
C918 O943 1.325 . S
C919 C918 1.348 . S
C919 C921 1.353 . S
C919 H960 0.929 . S
C920 C918 1.356 . S
C920 C922 1.358 . S
C920 H961 0.930 . S
C921 C919 1.353 . S
C921 N923 1.314 . S
C921 H962 0.930 . S
C922 C920 1.358 . S
C922 N923 1.279 . S
C922 H963 0.930 . S
N923 C921 1.314 . S
N923 C922 1.279 . S
C924 C926 1.353 . S
C924 N927 1.314 . S
C924 H930 0.930 . S
C925 N927 1.279 1_545 S
C925 C928 1.358 . S
C925 H931 0.930 . S
C926 C924 1.353 . S
C926 C929 1.348 1_565 S
C926 H964 0.929 . S
N927 Li882 1.990 . S
N927 C924 1.314 . S
N927 C925 1.279 1_565 S
C928 C925 1.358 . S
C928 C929 1.356 . S
C928 H965 0.930 . S
C929 C926 1.348 1_545 S
C929 C928 1.356 . S
H930 C924 0.930 . S
H931 C925 0.930 . S
C932 N933 1.314 . S
C932 C934 1.353 . S
C932 H938 0.930 . S
N933 Li883 1.990 . S
N933 C932 1.314 . S
N933 C936 1.279 . S
C934 C932 1.353 . S
C934 C937 1.348 . S
C934 H966 0.929 . S
C935 C936 1.358 . S
C935 C937 1.356 . S
C935 H967 0.930 . S
C936 N933 1.279 . S
C936 C935 1.358 . S
C936 H939 0.930 . S
C937 C934 1.348 . S
C937 C935 1.356 . S
H938 C932 0.930 . S
H939 C936 0.930 . S
O940 Li880 1.956 . S
O940 Li881 1.970 . S
O940 Li882 1.961 . S
O940 C884 1.325 . S
O941 Li880 1.970 . S
O941 Li881 1.956 . S
O941 Li883 1.961 . S
O941 C890 1.325 . S
O942 Li880 1.961 . S
O942 Li882 1.956 . S
O942 Li883 1.970 . S
O942 C912 1.325 . S
O943 Li881 1.961 . S
O943 Li882 1.970 . S
O943 Li883 1.956 . S
O943 C918 1.325 . S
H944 C886 0.929 . S
H945 C887 0.930 . S
H946 C888 0.930 . S
H947 C889 0.930 . S
H948 C891 0.930 . S
H949 C893 0.929 . S
H950 C894 0.930 . S
H951 C895 0.930 . S
H952 C898 0.930 . S
H953 C901 0.929 . S
H954 C906 0.929 . S
H955 C907 0.930 . S
H956 C914 0.929 . S
H957 C915 0.930 . S
H958 C916 0.930 . S
H959 C917 0.930 . S
H960 C919 0.929 . S
H961 C920 0.930 . S
H962 C921 0.930 . S
H963 C922 0.930 . S
H964 C926 0.929 . S
H965 C928 0.930 . S
H966 C934 0.929 . S
H967 C935 0.930 . S
Li968 N985 1.990 . S
Li968 O1028 1.956 . S
Li968 O1029 1.970 . S
Li968 O1030 1.961 . S
Li969 N993 1.990 . S
Li969 O1028 1.970 . S
Li969 O1029 1.956 . S
Li969 O1031 1.961 . S
Li970 N1015 1.990 . S
Li970 O1028 1.961 . S
Li970 O1030 1.956 . S
Li970 O1031 1.970 . S
Li971 N1021 1.990 . S
Li971 O1029 1.961 . S
Li971 O1030 1.970 . S
Li971 O1031 1.956 . S
C972 C974 1.348 . S
C972 C975 1.356 . S
C972 O1028 1.325 . S
N973 C976 1.314 . S
N973 C977 1.279 . S
C974 C972 1.348 . S
C974 C976 1.353 1_565 S
C974 H1032 0.929 . S
C975 C972 1.356 . S
C975 C977 1.358 1_565 S
C975 H1033 0.930 . S
C976 N973 1.314 . S
C976 C974 1.353 1_545 S
C976 H1034 0.930 . S
C977 N973 1.279 . S
C977 C975 1.358 1_545 S
C977 H1035 0.930 . S
C978 C981 1.348 . S
C978 C982 1.356 . S
C978 O1029 1.325 . S
C979 N980 1.279 . S
C979 C982 1.358 . S
C979 H1036 0.930 . S
N980 C979 1.279 . S
N980 C983 1.314 . S
C981 C978 1.348 . S
C981 C983 1.353 . S
C981 H1037 0.929 . S
C982 C978 1.356 . S
C982 C979 1.358 . S
C982 H1038 0.930 . S
C983 N980 1.314 . S
C983 C981 1.353 . S
C983 H1039 0.930 . S
C984 N985 1.314 . S
C984 C989 1.353 . S
C984 H990 0.930 . S
N985 Li968 1.990 . S
N985 C984 1.314 . S
N985 C987 1.279 1_565 S
C986 C987 1.358 . S
C986 C988 1.356 . S
C986 H1040 0.930 . S
C987 N985 1.279 1_545 S
C987 C986 1.358 . S
C987 H991 0.930 . S
C988 C986 1.356 . S
C988 C989 1.348 1_545 S
C989 C984 1.353 . S
C989 C988 1.348 1_565 S
C989 H1041 0.929 . S
H990 C984 0.930 . S
H991 C987 0.930 . S
C992 N993 1.314 . S
C992 C994 1.353 . S
C992 H998 0.930 . S
N993 Li969 1.990 . S
N993 C992 1.314 . S
N993 C996 1.279 . S
C994 C992 1.353 . S
C994 C997 1.348 . S
C994 H1042 0.929 . S
C995 C996 1.358 . S
C995 C997 1.356 . S
C995 H1043 0.930 . S
C996 N993 1.279 . S
C996 C995 1.358 . S
C996 H999 0.930 . S
C997 C994 1.348 . S
C997 C995 1.356 . S
H998 C992 0.930 . S
H999 C996 0.930 . S
C1000 C1002 1.348 . S
C1000 C1003 1.356 . S
C1000 O1030 1.325 . S
N1001 C1004 1.314 . S
N1001 C1005 1.279 . S
C1002 C1000 1.348 . S
C1002 C1004 1.353 . S
C1002 H1044 0.929 . S
C1003 C1000 1.356 . S
C1003 C1005 1.358 . S
C1003 H1045 0.930 . S
C1004 N1001 1.314 . S
C1004 C1002 1.353 . S
C1004 H1046 0.930 . S
C1005 N1001 1.279 . S
C1005 C1003 1.358 . S
C1005 H1047 0.930 . S
C1006 C1007 1.348 . S
C1006 C1008 1.356 . S
C1006 O1031 1.325 . S
C1007 C1006 1.348 . S
C1007 C1009 1.353 . S
C1007 H1048 0.929 . S
C1008 C1006 1.356 . S
C1008 C1010 1.358 . S
C1008 H1049 0.930 . S
C1009 C1007 1.353 . S
C1009 N1011 1.314 . S
C1009 H1050 0.930 . S
C1010 C1008 1.358 . S
C1010 N1011 1.279 . S
C1010 H1051 0.930 . S
N1011 C1009 1.314 . S
N1011 C1010 1.279 . S
C1012 C1014 1.353 . S
C1012 N1015 1.314 . S
C1012 H1018 0.930 . S
C1013 N1015 1.279 . S
C1013 C1016 1.358 . S
C1013 H1019 0.930 . S
C1014 C1012 1.353 . S
C1014 C1017 1.348 . S
C1014 H1052 0.929 . S
N1015 Li970 1.990 . S
N1015 C1012 1.314 . S
N1015 C1013 1.279 . S
C1016 C1013 1.358 . S
C1016 C1017 1.356 . S
C1016 H1053 0.930 . S
C1017 C1014 1.348 . S
C1017 C1016 1.356 . S
H1018 C1012 0.930 . S
H1019 C1013 0.930 . S
C1020 N1021 1.314 . S
C1020 C1022 1.353 . S
C1020 H1026 0.930 . S
N1021 Li971 1.990 . S
N1021 C1020 1.314 . S
N1021 C1024 1.279 . S
C1022 C1020 1.353 . S
C1022 C1025 1.348 . S
C1022 H1054 0.929 . S
C1023 C1024 1.358 . S
C1023 C1025 1.356 . S
C1023 H1055 0.930 . S
C1024 N1021 1.279 . S
C1024 C1023 1.358 . S
C1024 H1027 0.930 . S
C1025 C1022 1.348 . S
C1025 C1023 1.356 . S
H1026 C1020 0.930 . S
H1027 C1024 0.930 . S
O1028 Li968 1.956 . S
O1028 Li969 1.970 . S
O1028 Li970 1.961 . S
O1028 C972 1.325 . S
O1029 Li968 1.970 . S
O1029 Li969 1.956 . S
O1029 Li971 1.961 . S
O1029 C978 1.325 . S
O1030 Li968 1.961 . S
O1030 Li970 1.956 . S
O1030 Li971 1.970 . S
O1030 C1000 1.325 . S
O1031 Li969 1.961 . S
O1031 Li970 1.970 . S
O1031 Li971 1.956 . S
O1031 C1006 1.325 . S
H1032 C974 0.929 . S
H1033 C975 0.930 . S
H1034 C976 0.930 . S
H1035 C977 0.930 . S
H1036 C979 0.930 . S
H1037 C981 0.929 . S
H1038 C982 0.930 . S
H1039 C983 0.930 . S
H1040 C986 0.930 . S
H1041 C989 0.929 . S
H1042 C994 0.929 . S
H1043 C995 0.930 . S
H1044 C1002 0.929 . S
H1045 C1003 0.930 . S
H1046 C1004 0.930 . S
H1047 C1005 0.930 . S
H1048 C1007 0.929 . S
H1049 C1008 0.930 . S
H1050 C1009 0.930 . S
H1051 C1010 0.930 . S
H1052 C1014 0.929 . S
H1053 C1016 0.930 . S
H1054 C1022 0.929 . S
H1055 C1023 0.930 . S
Li1056 N1073 1.990 . S
Li1056 O1116 1.956 . S
Li1056 O1117 1.970 . S
Li1056 O1118 1.961 . S
Li1057 N1081 1.990 . S
Li1057 O1116 1.970 . S
Li1057 O1117 1.956 . S
Li1057 O1119 1.961 . S
Li1058 N1103 1.990 . S
Li1058 O1116 1.961 . S
Li1058 O1118 1.956 . S
Li1058 O1119 1.970 . S
Li1059 N1109 1.990 . S
Li1059 O1117 1.961 . S
Li1059 O1118 1.970 . S
Li1059 O1119 1.956 . S
C1060 C1062 1.348 . S
C1060 C1063 1.356 . S
C1060 O1116 1.325 . S
N1061 C1064 1.314 . S
N1061 C1065 1.279 . S
C1062 C1060 1.348 . S
C1062 C1064 1.353 . S
C1062 H1120 0.929 . S
C1063 C1060 1.356 . S
C1063 C1065 1.358 . S
C1063 H1121 0.930 . S
C1064 N1061 1.314 . S
C1064 C1062 1.353 . S
C1064 H1122 0.930 . S
C1065 N1061 1.279 . S
C1065 C1063 1.358 . S
C1065 H1123 0.930 . S
C1066 C1069 1.348 . S
C1066 C1070 1.356 . S
C1066 O1117 1.325 . S
C1067 N1068 1.279 . S
C1067 C1070 1.358 . S
C1067 H1124 0.930 . S
N1068 C1067 1.279 . S
N1068 C1071 1.314 . S
C1069 C1066 1.348 . S
C1069 C1071 1.353 . S
C1069 H1125 0.929 . S
C1070 C1066 1.356 . S
C1070 C1067 1.358 . S
C1070 H1126 0.930 . S
C1071 N1068 1.314 . S
C1071 C1069 1.353 . S
C1071 H1127 0.930 . S
C1072 N1073 1.314 . S
C1072 C1077 1.353 . S
C1072 H1078 0.930 . S
N1073 Li1056 1.990 . S
N1073 C1072 1.314 . S
N1073 C1075 1.279 . S
C1074 C1075 1.358 . S
C1074 C1076 1.356 . S
C1074 H1128 0.930 . S
C1075 N1073 1.279 . S
C1075 C1074 1.358 . S
C1075 H1079 0.930 . S
C1076 C1074 1.356 . S
C1076 C1077 1.348 . S
C1077 C1072 1.353 . S
C1077 C1076 1.348 . S
C1077 H1129 0.929 . S
H1078 C1072 0.930 . S
H1079 C1075 0.930 . S
C1080 N1081 1.314 . S
C1080 C1082 1.353 . S
C1080 H1086 0.930 . S
N1081 Li1057 1.990 . S
N1081 C1080 1.314 . S
N1081 C1084 1.279 . S
C1082 C1080 1.353 . S
C1082 C1085 1.348 . S
C1082 H1130 0.929 . S
C1083 C1084 1.358 . S
C1083 C1085 1.356 . S
C1083 H1131 0.930 . S
C1084 N1081 1.279 . S
C1084 C1083 1.358 . S
C1084 H1087 0.930 . S
C1085 C1082 1.348 . S
C1085 C1083 1.356 . S
H1086 C1080 0.930 . S
H1087 C1084 0.930 . S
C1088 C1090 1.348 . S
C1088 C1091 1.356 . S
C1088 O1118 1.325 . S
N1089 C1092 1.314 . S
N1089 C1093 1.279 . S
C1090 C1088 1.348 . S
C1090 C1092 1.353 . S
C1090 H1132 0.929 . S
C1091 C1088 1.356 . S
C1091 C1093 1.358 . S
C1091 H1133 0.930 . S
C1092 N1089 1.314 . S
C1092 C1090 1.353 . S
C1092 H1134 0.930 . S
C1093 N1089 1.279 . S
C1093 C1091 1.358 . S
C1093 H1135 0.930 . S
C1094 C1095 1.348 . S
C1094 C1096 1.356 . S
C1094 O1119 1.325 . S
C1095 C1094 1.348 . S
C1095 C1097 1.353 . S
C1095 H1136 0.929 . S
C1096 C1094 1.356 . S
C1096 C1098 1.358 . S
C1096 H1137 0.930 . S
C1097 C1095 1.353 . S
C1097 N1099 1.314 . S
C1097 H1138 0.930 . S
C1098 C1096 1.358 . S
C1098 N1099 1.279 . S
C1098 H1139 0.930 . S
N1099 C1097 1.314 . S
N1099 C1098 1.279 . S
C1100 C1102 1.353 . S
C1100 N1103 1.314 . S
C1100 H1106 0.930 . S
C1101 N1103 1.279 . S
C1101 C1104 1.358 . S
C1101 H1107 0.930 . S
C1102 C1100 1.353 . S
C1102 C1105 1.348 . S
C1102 H1140 0.929 . S
N1103 Li1058 1.990 . S
N1103 C1100 1.314 . S
N1103 C1101 1.279 . S
C1104 C1101 1.358 . S
C1104 C1105 1.356 . S
C1104 H1141 0.930 . S
C1105 C1102 1.348 . S
C1105 C1104 1.356 . S
H1106 C1100 0.930 . S
H1107 C1101 0.930 . S
C1108 N1109 1.314 . S
C1108 C1110 1.353 . S
C1108 H1114 0.930 . S
N1109 Li1059 1.990 . S
N1109 C1108 1.314 . S
N1109 C1112 1.279 . S
C1110 C1108 1.353 . S
C1110 C1113 1.348 . S
C1110 H1142 0.929 . S
C1111 C1112 1.358 . S
C1111 C1113 1.356 . S
C1111 H1143 0.930 . S
C1112 N1109 1.279 . S
C1112 C1111 1.358 . S
C1112 H1115 0.930 . S
C1113 C1110 1.348 . S
C1113 C1111 1.356 . S
H1114 C1108 0.930 . S
H1115 C1112 0.930 . S
O1116 Li1056 1.956 . S
O1116 Li1057 1.970 . S
O1116 Li1058 1.961 . S
O1116 C1060 1.325 . S
O1117 Li1056 1.970 . S
O1117 Li1057 1.956 . S
O1117 Li1059 1.961 . S
O1117 C1066 1.325 . S
O1118 Li1056 1.961 . S
O1118 Li1058 1.956 . S
O1118 Li1059 1.970 . S
O1118 C1088 1.325 . S
O1119 Li1057 1.961 . S
O1119 Li1058 1.970 . S
O1119 Li1059 1.956 . S
O1119 C1094 1.325 . S
H1120 C1062 0.929 . S
H1121 C1063 0.930 . S
H1122 C1064 0.930 . S
H1123 C1065 0.930 . S
H1124 C1067 0.930 . S
H1125 C1069 0.929 . S
H1126 C1070 0.930 . S
H1127 C1071 0.930 . S
H1128 C1074 0.930 . S
H1129 C1077 0.929 . S
H1130 C1082 0.929 . S
H1131 C1083 0.930 . S
H1132 C1090 0.929 . S
H1133 C1091 0.930 . S
H1134 C1092 0.930 . S
H1135 C1093 0.930 . S
H1136 C1095 0.929 . S
H1137 C1096 0.930 . S
H1138 C1097 0.930 . S
H1139 C1098 0.930 . S
H1140 C1102 0.929 . S
H1141 C1104 0.930 . S
H1142 C1110 0.929 . S
H1143 C1111 0.930 . S
Li1144 N1161 1.990 . S
Li1144 O1204 1.956 . S
Li1144 O1205 1.970 . S
Li1144 O1206 1.961 . S
Li1145 N1169 1.990 . S
Li1145 O1204 1.970 . S
Li1145 O1205 1.956 . S
Li1145 O1207 1.961 . S
Li1146 N1191 1.990 . S
Li1146 O1204 1.961 . S
Li1146 O1206 1.956 . S
Li1146 O1207 1.970 . S
Li1147 N1197 1.990 . S
Li1147 O1205 1.961 . S
Li1147 O1206 1.970 . S
Li1147 O1207 1.956 . S
C1148 C1150 1.348 . S
C1148 C1151 1.356 . S
C1148 O1204 1.325 . S
N1149 C1152 1.314 . S
N1149 C1153 1.279 . S
C1150 C1148 1.348 . S
C1150 C1152 1.353 . S
C1150 H1208 0.929 . S
C1151 C1148 1.356 . S
C1151 C1153 1.358 . S
C1151 H1209 0.930 . S
C1152 N1149 1.314 . S
C1152 C1150 1.353 . S
C1152 H1210 0.930 . S
C1153 N1149 1.279 . S
C1153 C1151 1.358 . S
C1153 H1211 0.930 . S
C1154 C1157 1.348 . S
C1154 C1158 1.356 . S
C1154 O1205 1.325 . S
C1155 N1156 1.279 . S
C1155 C1158 1.358 . S
C1155 H1212 0.930 . S
N1156 C1155 1.279 . S
N1156 C1159 1.314 . S
C1157 C1154 1.348 . S
C1157 C1159 1.353 . S
C1157 H1213 0.929 . S
C1158 C1154 1.356 . S
C1158 C1155 1.358 . S
C1158 H1214 0.930 . S
C1159 N1156 1.314 . S
C1159 C1157 1.353 . S
C1159 H1215 0.930 . S
C1160 N1161 1.314 . S
C1160 C1165 1.353 . S
C1160 H1166 0.930 . S
N1161 Li1144 1.990 . S
N1161 C1160 1.314 . S
N1161 C1163 1.279 . S
C1162 C1163 1.358 . S
C1162 C1164 1.356 . S
C1162 H1216 0.930 . S
C1163 N1161 1.279 . S
C1163 C1162 1.358 . S
C1163 H1167 0.930 . S
C1164 C1162 1.356 . S
C1164 C1165 1.348 . S
C1165 C1160 1.353 . S
C1165 C1164 1.348 . S
C1165 H1217 0.929 . S
H1166 C1160 0.930 . S
H1167 C1163 0.930 . S
C1168 N1169 1.314 . S
C1168 C1170 1.353 . S
C1168 H1174 0.930 . S
N1169 Li1145 1.990 . S
N1169 C1168 1.314 . S
N1169 C1172 1.279 . S
C1170 C1168 1.353 . S
C1170 C1173 1.348 . S
C1170 H1218 0.929 . S
C1171 C1172 1.358 . S
C1171 C1173 1.356 . S
C1171 H1219 0.930 . S
C1172 N1169 1.279 . S
C1172 C1171 1.358 . S
C1172 H1175 0.930 . S
C1173 C1170 1.348 . S
C1173 C1171 1.356 . S
H1174 C1168 0.930 . S
H1175 C1172 0.930 . S
C1176 C1178 1.348 . S
C1176 C1179 1.356 . S
C1176 O1206 1.325 . S
N1177 C1180 1.314 . S
N1177 C1181 1.279 . S
C1178 C1176 1.348 . S
C1178 C1180 1.353 . S
C1178 H1220 0.929 . S
C1179 C1176 1.356 . S
C1179 C1181 1.358 . S
C1179 H1221 0.930 . S
C1180 N1177 1.314 . S
C1180 C1178 1.353 . S
C1180 H1222 0.930 . S
C1181 N1177 1.279 . S
C1181 C1179 1.358 . S
C1181 H1223 0.930 . S
C1182 C1183 1.348 . S
C1182 C1184 1.356 . S
C1182 O1207 1.325 . S
C1183 C1182 1.348 . S
C1183 C1185 1.353 . S
C1183 H1224 0.929 . S
C1184 C1182 1.356 . S
C1184 C1186 1.358 . S
C1184 H1225 0.930 . S
C1185 C1183 1.353 . S
C1185 N1187 1.314 . S
C1185 H1226 0.930 . S
C1186 C1184 1.358 . S
C1186 N1187 1.279 . S
C1186 H1227 0.930 . S
N1187 C1185 1.314 . S
N1187 C1186 1.279 . S
C1188 C1190 1.353 . S
C1188 N1191 1.314 . S
C1188 H1194 0.930 . S
C1189 N1191 1.279 . S
C1189 C1192 1.358 . S
C1189 H1195 0.930 . S
C1190 C1188 1.353 . S
C1190 C1193 1.348 . S
C1190 H1228 0.929 . S
N1191 Li1146 1.990 . S
N1191 C1188 1.314 . S
N1191 C1189 1.279 . S
C1192 C1189 1.358 . S
C1192 C1193 1.356 . S
C1192 H1229 0.930 . S
C1193 C1190 1.348 . S
C1193 C1192 1.356 . S
H1194 C1188 0.930 . S
H1195 C1189 0.930 . S
C1196 N1197 1.314 . S
C1196 C1198 1.353 . S
C1196 H1202 0.930 . S
N1197 Li1147 1.990 . S
N1197 C1196 1.314 . S
N1197 C1200 1.279 . S
C1198 C1196 1.353 . S
C1198 C1201 1.348 . S
C1198 H1230 0.929 . S
C1199 C1200 1.358 . S
C1199 C1201 1.356 . S
C1199 H1231 0.930 . S
C1200 N1197 1.279 . S
C1200 C1199 1.358 . S
C1200 H1203 0.930 . S
C1201 C1198 1.348 . S
C1201 C1199 1.356 . S
H1202 C1196 0.930 . S
H1203 C1200 0.930 . S
O1204 Li1144 1.956 . S
O1204 Li1145 1.970 . S
O1204 Li1146 1.961 . S
O1204 C1148 1.325 . S
O1205 Li1144 1.970 . S
O1205 Li1145 1.956 . S
O1205 Li1147 1.961 . S
O1205 C1154 1.325 . S
O1206 Li1144 1.961 . S
O1206 Li1146 1.956 . S
O1206 Li1147 1.970 . S
O1206 C1176 1.325 . S
O1207 Li1145 1.961 . S
O1207 Li1146 1.970 . S
O1207 Li1147 1.956 . S
O1207 C1182 1.325 . S
H1208 C1150 0.929 . S
H1209 C1151 0.930 . S
H1210 C1152 0.930 . S
H1211 C1153 0.930 . S
H1212 C1155 0.930 . S
H1213 C1157 0.929 . S
H1214 C1158 0.930 . S
H1215 C1159 0.930 . S
H1216 C1162 0.930 . S
H1217 C1165 0.929 . S
H1218 C1170 0.929 . S
H1219 C1171 0.930 . S
H1220 C1178 0.929 . S
H1221 C1179 0.930 . S
H1222 C1180 0.930 . S
H1223 C1181 0.930 . S
H1224 C1183 0.929 . S
H1225 C1184 0.930 . S
H1226 C1185 0.930 . S
H1227 C1186 0.930 . S
H1228 C1190 0.929 . S
H1229 C1192 0.930 . S
H1230 C1198 0.929 . S
H1231 C1199 0.930 . S
Li1232 N1249 1.990 . S
Li1232 O1292 1.956 . S
Li1232 O1293 1.970 . S
Li1232 O1294 1.961 . S
Li1233 N1257 1.990 . S
Li1233 O1292 1.970 . S
Li1233 O1293 1.956 . S
Li1233 O1295 1.961 . S
Li1234 N1279 1.990 . S
Li1234 O1292 1.961 . S
Li1234 O1294 1.956 . S
Li1234 O1295 1.970 . S
Li1235 N1285 1.990 . S
Li1235 O1293 1.961 . S
Li1235 O1294 1.970 . S
Li1235 O1295 1.956 . S
C1236 C1238 1.348 . S
C1236 C1239 1.356 . S
C1236 O1292 1.325 . S
N1237 C1240 1.314 . S
N1237 C1241 1.279 . S
C1238 C1236 1.348 . S
C1238 C1240 1.353 . S
C1238 H1296 0.929 . S
C1239 C1236 1.356 . S
C1239 C1241 1.358 . S
C1239 H1297 0.930 . S
C1240 N1237 1.314 . S
C1240 C1238 1.353 . S
C1240 H1298 0.930 . S
C1241 N1237 1.279 . S
C1241 C1239 1.358 . S
C1241 H1299 0.930 . S
C1242 C1245 1.348 . S
C1242 C1246 1.356 . S
C1242 O1293 1.325 . S
C1243 N1244 1.279 . S
C1243 C1246 1.358 . S
C1243 H1300 0.930 . S
N1244 C1243 1.279 . S
N1244 C1247 1.314 . S
C1245 C1242 1.348 . S
C1245 C1247 1.353 . S
C1245 H1301 0.929 . S
C1246 C1242 1.356 . S
C1246 C1243 1.358 . S
C1246 H1302 0.930 . S
C1247 N1244 1.314 . S
C1247 C1245 1.353 . S
C1247 H1303 0.930 . S
C1248 N1249 1.314 . S
C1248 C1253 1.353 . S
C1248 H1254 0.930 . S
N1249 Li1232 1.990 . S
N1249 C1248 1.314 . S
N1249 C1251 1.279 . S
C1250 C1251 1.358 . S
C1250 C1252 1.356 . S
C1250 H1304 0.930 . S
C1251 N1249 1.279 . S
C1251 C1250 1.358 . S
C1251 H1255 0.930 . S
C1252 C1250 1.356 . S
C1252 C1253 1.348 . S
C1253 C1248 1.353 . S
C1253 C1252 1.348 . S
C1253 H1305 0.929 . S
H1254 C1248 0.930 . S
H1255 C1251 0.930 . S
C1256 N1257 1.314 . S
C1256 C1258 1.353 . S
C1256 H1262 0.930 . S
N1257 Li1233 1.990 . S
N1257 C1256 1.314 . S
N1257 C1260 1.279 . S
C1258 C1256 1.353 . S
C1258 C1261 1.348 . S
C1258 H1306 0.929 . S
C1259 C1260 1.358 . S
C1259 C1261 1.356 . S
C1259 H1307 0.930 . S
C1260 N1257 1.279 . S
C1260 C1259 1.358 . S
C1260 H1263 0.930 . S
C1261 C1258 1.348 . S
C1261 C1259 1.356 . S
H1262 C1256 0.930 . S
H1263 C1260 0.930 . S
C1264 C1266 1.348 . S
C1264 C1267 1.356 . S
C1264 O1294 1.325 . S
N1265 C1268 1.314 . S
N1265 C1269 1.279 . S
C1266 C1264 1.348 . S
C1266 C1268 1.353 . S
C1266 H1308 0.929 . S
C1267 C1264 1.356 . S
C1267 C1269 1.358 . S
C1267 H1309 0.930 . S
C1268 N1265 1.314 . S
C1268 C1266 1.353 . S
C1268 H1310 0.930 . S
C1269 N1265 1.279 . S
C1269 C1267 1.358 . S
C1269 H1311 0.930 . S
C1270 C1271 1.348 . S
C1270 C1272 1.356 . S
C1270 O1295 1.325 . S
C1271 C1270 1.348 . S
C1271 C1273 1.353 . S
C1271 H1312 0.929 . S
C1272 C1270 1.356 . S
C1272 C1274 1.358 . S
C1272 H1313 0.930 . S
C1273 C1271 1.353 . S
C1273 N1275 1.314 . S
C1273 H1314 0.930 . S
C1274 C1272 1.358 . S
C1274 N1275 1.279 . S
C1274 H1315 0.930 . S
N1275 C1273 1.314 . S
N1275 C1274 1.279 . S
C1276 C1278 1.353 . S
C1276 N1279 1.314 . S
C1276 H1282 0.930 . S
C1277 N1279 1.279 . S
C1277 C1280 1.358 . S
C1277 H1283 0.930 . S
C1278 C1276 1.353 . S
C1278 C1281 1.348 . S
C1278 H1316 0.929 . S
N1279 Li1234 1.990 . S
N1279 C1276 1.314 . S
N1279 C1277 1.279 . S
C1280 C1277 1.358 . S
C1280 C1281 1.356 . S
C1280 H1317 0.930 . S
C1281 C1278 1.348 . S
C1281 C1280 1.356 . S
H1282 C1276 0.930 . S
H1283 C1277 0.930 . S
C1284 N1285 1.314 . S
C1284 C1286 1.353 . S
C1284 H1290 0.930 . S
N1285 Li1235 1.990 . S
N1285 C1284 1.314 . S
N1285 C1288 1.279 . S
C1286 C1284 1.353 . S
C1286 C1289 1.348 . S
C1286 H1318 0.929 . S
C1287 C1288 1.358 . S
C1287 C1289 1.356 . S
C1287 H1319 0.930 . S
C1288 N1285 1.279 . S
C1288 C1287 1.358 . S
C1288 H1291 0.930 . S
C1289 C1286 1.348 . S
C1289 C1287 1.356 . S
H1290 C1284 0.930 . S
H1291 C1288 0.930 . S
O1292 Li1232 1.956 . S
O1292 Li1233 1.970 . S
O1292 Li1234 1.961 . S
O1292 C1236 1.325 . S
O1293 Li1232 1.970 . S
O1293 Li1233 1.956 . S
O1293 Li1235 1.961 . S
O1293 C1242 1.325 . S
O1294 Li1232 1.961 . S
O1294 Li1234 1.956 . S
O1294 Li1235 1.970 . S
O1294 C1264 1.325 . S
O1295 Li1233 1.961 . S
O1295 Li1234 1.970 . S
O1295 Li1235 1.956 . S
O1295 C1270 1.325 . S
H1296 C1238 0.929 . S
H1297 C1239 0.930 . S
H1298 C1240 0.930 . S
H1299 C1241 0.930 . S
H1300 C1243 0.930 . S
H1301 C1245 0.929 . S
H1302 C1246 0.930 . S
H1303 C1247 0.930 . S
H1304 C1250 0.930 . S
H1305 C1253 0.929 . S
H1306 C1258 0.929 . S
H1307 C1259 0.930 . S
H1308 C1266 0.929 . S
H1309 C1267 0.930 . S
H1310 C1268 0.930 . S
H1311 C1269 0.930 . S
H1312 C1271 0.929 . S
H1313 C1272 0.930 . S
H1314 C1273 0.930 . S
H1315 C1274 0.930 . S
H1316 C1278 0.929 . S
H1317 C1280 0.930 . S
H1318 C1286 0.929 . S
H1319 C1287 0.930 . S
Li1320 N1337 1.990 . S
Li1320 O1380 1.956 . S
Li1320 O1381 1.970 . S
Li1320 O1382 1.961 . S
Li1321 N1345 1.990 . S
Li1321 O1380 1.970 . S
Li1321 O1381 1.956 . S
Li1321 O1383 1.961 . S
Li1322 N1367 1.990 . S
Li1322 O1380 1.961 . S
Li1322 O1382 1.956 . S
Li1322 O1383 1.970 . S
Li1323 N1373 1.990 . S
Li1323 O1381 1.961 . S
Li1323 O1382 1.970 . S
Li1323 O1383 1.956 . S
C1324 C1326 1.348 . S
C1324 C1327 1.356 . S
C1324 O1380 1.325 . S
N1325 C1328 1.314 . S
N1325 C1329 1.279 . S
C1326 C1324 1.348 . S
C1326 C1328 1.353 . S
C1326 H1384 0.929 . S
C1327 C1324 1.356 . S
C1327 C1329 1.358 . S
C1327 H1385 0.930 . S
C1328 N1325 1.314 . S
C1328 C1326 1.353 . S
C1328 H1386 0.930 . S
C1329 N1325 1.279 . S
C1329 C1327 1.358 . S
C1329 H1387 0.930 . S
C1330 C1333 1.348 . S
C1330 C1334 1.356 . S
C1330 O1381 1.325 . S
C1331 N1332 1.279 . S
C1331 C1334 1.358 . S
C1331 H1388 0.930 . S
N1332 C1331 1.279 . S
N1332 C1335 1.314 . S
C1333 C1330 1.348 . S
C1333 C1335 1.353 . S
C1333 H1389 0.929 . S
C1334 C1330 1.356 . S
C1334 C1331 1.358 . S
C1334 H1390 0.930 . S
C1335 N1332 1.314 . S
C1335 C1333 1.353 . S
C1335 H1391 0.930 . S
C1336 N1337 1.314 . S
C1336 C1341 1.353 . S
C1336 H1342 0.930 . S
N1337 Li1320 1.990 . S
N1337 C1336 1.314 . S
N1337 C1339 1.279 . S
C1338 C1339 1.358 . S
C1338 C1340 1.356 . S
C1338 H1392 0.930 . S
C1339 N1337 1.279 . S
C1339 C1338 1.358 . S
C1339 H1343 0.930 . S
C1340 C1338 1.356 . S
C1340 C1341 1.348 . S
C1341 C1336 1.353 . S
C1341 C1340 1.348 . S
C1341 H1393 0.929 . S
H1342 C1336 0.930 . S
H1343 C1339 0.930 . S
C1344 N1345 1.314 . S
C1344 C1346 1.353 . S
C1344 H1350 0.930 . S
N1345 Li1321 1.990 . S
N1345 C1344 1.314 . S
N1345 C1348 1.279 . S
C1346 C1344 1.353 . S
C1346 C1349 1.348 . S
C1346 H1394 0.929 . S
C1347 C1348 1.358 . S
C1347 C1349 1.356 . S
C1347 H1395 0.930 . S
C1348 N1345 1.279 . S
C1348 C1347 1.358 . S
C1348 H1351 0.930 . S
C1349 C1346 1.348 . S
C1349 C1347 1.356 . S
H1350 C1344 0.930 . S
H1351 C1348 0.930 . S
C1352 C1354 1.348 . S
C1352 C1355 1.356 . S
C1352 O1382 1.325 . S
N1353 C1356 1.314 . S
N1353 C1357 1.279 . S
C1354 C1352 1.348 . S
C1354 C1356 1.353 . S
C1354 H1396 0.929 . S
C1355 C1352 1.356 . S
C1355 C1357 1.358 . S
C1355 H1397 0.930 . S
C1356 N1353 1.314 . S
C1356 C1354 1.353 . S
C1356 H1398 0.930 . S
C1357 N1353 1.279 . S
C1357 C1355 1.358 . S
C1357 H1399 0.930 . S
C1358 C1359 1.348 . S
C1358 C1360 1.356 . S
C1358 O1383 1.325 . S
C1359 C1358 1.348 . S
C1359 C1361 1.353 . S
C1359 H1400 0.929 . S
C1360 C1358 1.356 . S
C1360 C1362 1.358 . S
C1360 H1401 0.930 . S
C1361 C1359 1.353 . S
C1361 N1363 1.314 . S
C1361 H1402 0.930 . S
C1362 C1360 1.358 . S
C1362 N1363 1.279 . S
C1362 H1403 0.930 . S
N1363 C1361 1.314 . S
N1363 C1362 1.279 . S
C1364 C1366 1.353 . S
C1364 N1367 1.314 . S
C1364 H1370 0.930 . S
C1365 N1367 1.279 . S
C1365 C1368 1.358 . S
C1365 H1371 0.930 . S
C1366 C1364 1.353 . S
C1366 C1369 1.348 . S
C1366 H1404 0.929 . S
N1367 Li1322 1.990 . S
N1367 C1364 1.314 . S
N1367 C1365 1.279 . S
C1368 C1365 1.358 . S
C1368 C1369 1.356 . S
C1368 H1405 0.930 . S
C1369 C1366 1.348 . S
C1369 C1368 1.356 . S
H1370 C1364 0.930 . S
H1371 C1365 0.930 . S
C1372 N1373 1.314 . S
C1372 C1374 1.353 . S
C1372 H1378 0.930 . S
N1373 Li1323 1.990 . S
N1373 C1372 1.314 . S
N1373 C1376 1.279 . S
C1374 C1372 1.353 . S
C1374 C1377 1.348 . S
C1374 H1406 0.929 . S
C1375 C1376 1.358 . S
C1375 C1377 1.356 . S
C1375 H1407 0.930 . S
C1376 N1373 1.279 . S
C1376 C1375 1.358 . S
C1376 H1379 0.930 . S
C1377 C1374 1.348 . S
C1377 C1375 1.356 . S
H1378 C1372 0.930 . S
H1379 C1376 0.930 . S
O1380 Li1320 1.956 . S
O1380 Li1321 1.970 . S
O1380 Li1322 1.961 . S
O1380 C1324 1.325 . S
O1381 Li1320 1.970 . S
O1381 Li1321 1.956 . S
O1381 Li1323 1.961 . S
O1381 C1330 1.325 . S
O1382 Li1320 1.961 . S
O1382 Li1322 1.956 . S
O1382 Li1323 1.970 . S
O1382 C1352 1.325 . S
O1383 Li1321 1.961 . S
O1383 Li1322 1.970 . S
O1383 Li1323 1.956 . S
O1383 C1358 1.325 . S
H1384 C1326 0.929 . S
H1385 C1327 0.930 . S
H1386 C1328 0.930 . S
H1387 C1329 0.930 . S
H1388 C1331 0.930 . S
H1389 C1333 0.929 . S
H1390 C1334 0.930 . S
H1391 C1335 0.930 . S
H1392 C1338 0.930 . S
H1393 C1341 0.929 . S
H1394 C1346 0.929 . S
H1395 C1347 0.930 . S
H1396 C1354 0.929 . S
H1397 C1355 0.930 . S
H1398 C1356 0.930 . S
H1399 C1357 0.930 . S
H1400 C1359 0.929 . S
H1401 C1360 0.930 . S
H1402 C1361 0.930 . S
H1403 C1362 0.930 . S
H1404 C1366 0.929 . S
H1405 C1368 0.930 . S
H1406 C1374 0.929 . S
H1407 C1375 0.930 . S
H1408 C1414 0.930 . S
H1409 C1418 0.930 . S
H1410 C1423 0.929 . S
H1411 C1421 0.929 . S
H1412 C1416 0.929 . S
H1413 C1422 0.929 . S
C1414 H1408 0.930 . S
C1414 C1415 1.367 . S
C1414 C1422 1.378 . S
C1415 C1414 1.367 . S
C1415 C1423 1.433 . S
C1416 H1412 0.929 . S
C1416 C1418 1.378 . S
C1416 C1420 1.350 . S
C1417 C1420 1.463 . S
C1417 C1422 1.350 . S
C1417 N1425 1.427 . S
C1418 H1409 0.930 . S
C1418 C1416 1.378 . S
C1418 C1419 1.367 . S
C1419 C1418 1.367 . S
C1419 C1421 1.433 . S
C1420 C1416 1.350 . S
C1420 C1417 1.463 . S
C1420 N1424 1.427 . S
C1421 H1411 0.929 . S
C1421 C1419 1.433 . S
C1421 N1424 1.384 . S
C1422 H1413 0.929 . S
C1422 C1414 1.378 . S
C1422 C1417 1.350 . S
C1423 H1410 0.929 . S
C1423 C1415 1.433 . S
C1423 N1425 1.384 . S
N1424 C1420 1.427 . S
N1424 C1421 1.384 . S
N1425 C1417 1.427 . S
N1425 C1423 1.384 . S
H1426 C1432 0.930 . S
H1427 C1436 0.930 . S
H1428 C1441 0.929 . S
H1429 C1439 0.929 . S
H1430 C1434 0.929 1_565 S
H1431 C1440 0.929 1_545 S
C1432 H1426 0.930 . S
C1432 C1433 1.367 . S
C1432 C1440 1.378 . S
C1433 C1432 1.367 . S
C1433 C1441 1.433 . S
C1434 H1430 0.929 1_545 S
C1434 C1436 1.378 . S
C1434 C1438 1.350 . S
C1435 C1438 1.463 1_665 S
C1435 C1440 1.350 . S
C1435 N1443 1.427 . S
C1436 H1427 0.930 . S
C1436 C1434 1.378 . S
C1436 C1437 1.367 . S
C1437 C1436 1.367 . S
C1437 C1439 1.433 . S
C1438 C1434 1.350 . S
C1438 C1435 1.463 1_445 S
C1438 N1442 1.427 . S
C1439 H1429 0.929 . S
C1439 C1437 1.433 . S
C1439 N1442 1.384 . S
C1440 H1431 0.929 1_565 S
C1440 C1432 1.378 . S
C1440 C1435 1.350 . S
C1441 H1428 0.929 . S
C1441 C1433 1.433 . S
C1441 N1443 1.384 . S
N1442 C1438 1.427 . S
N1442 C1439 1.384 . S
N1443 C1435 1.427 . S
N1443 C1441 1.384 . S
H1444 C1450 0.930 . S
H1445 C1454 0.930 . S
H1446 C1459 0.929 . S
H1447 C1457 0.929 . S
H1448 C1452 0.929 1_565 S
H1449 C1458 0.929 1_545 S
C1450 H1444 0.930 . S
C1450 C1451 1.367 . S
C1450 C1458 1.378 . S
C1451 C1450 1.367 . S
C1451 C1459 1.433 . S
C1452 H1448 0.929 1_545 S
C1452 C1454 1.378 . S
C1452 C1456 1.350 . S
C1453 C1456 1.463 1_565 S
C1453 C1458 1.350 . S
C1453 N1461 1.427 . S
C1454 H1445 0.930 . S
C1454 C1452 1.378 . S
C1454 C1455 1.367 . S
C1455 C1454 1.367 . S
C1455 C1457 1.433 . S
C1456 C1452 1.350 . S
C1456 C1453 1.463 1_545 S
C1456 N1460 1.427 . S
C1457 H1447 0.929 . S
C1457 C1455 1.433 . S
C1457 N1460 1.384 . S
C1458 H1449 0.929 1_565 S
C1458 C1450 1.378 . S
C1458 C1453 1.350 . S
C1459 H1446 0.929 . S
C1459 C1451 1.433 . S
C1459 N1461 1.384 . S
N1460 C1456 1.427 . S
N1460 C1457 1.384 . S
N1461 C1453 1.427 . S
N1461 C1459 1.384 . S
H1462 C1468 0.930 . S
H1463 C1472 0.930 . S
H1464 C1477 0.929 . S
H1465 C1475 0.929 . S
H1466 C1470 0.929 . S
H1467 C1476 0.929 . S
C1468 H1462 0.930 . S
C1468 C1469 1.367 . S
C1468 C1476 1.378 . S
C1469 C1468 1.367 . S
C1469 C1477 1.433 . S
C1470 H1466 0.929 . S
C1470 C1472 1.378 . S
C1470 C1474 1.350 . S
C1471 C1474 1.463 1_455 S
C1471 C1476 1.350 . S
C1471 N1479 1.427 1_455 S
C1472 H1463 0.930 . S
C1472 C1470 1.378 . S
C1472 C1473 1.367 . S
C1473 C1472 1.367 . S
C1473 C1475 1.433 . S
C1474 C1470 1.350 . S
C1474 C1471 1.463 1_655 S
C1474 N1478 1.427 1_655 S
C1475 H1465 0.929 . S
C1475 C1473 1.433 . S
C1475 N1478 1.384 1_655 S
C1476 H1467 0.929 . S
C1476 C1468 1.378 . S
C1476 C1471 1.350 . S
C1477 H1464 0.929 . S
C1477 C1469 1.433 . S
C1477 N1479 1.384 1_455 S
N1478 C1474 1.427 1_455 S
N1478 C1475 1.384 1_455 S
N1479 C1471 1.427 1_655 S
N1479 C1477 1.384 1_655 S
H1480 C1486 0.930 . S
H1481 C1490 0.930 . S
H1482 C1495 0.929 . S
H1483 C1493 0.929 . S
H1484 C1488 0.929 . S
H1485 C1494 0.929 . S
C1486 H1480 0.930 . S
C1486 C1487 1.367 . S
C1486 C1494 1.378 . S
C1487 C1486 1.367 . S
C1487 C1495 1.433 . S
C1488 H1484 0.929 . S
C1488 C1490 1.378 . S
C1488 C1492 1.350 . S
C1489 C1492 1.463 . S
C1489 C1494 1.350 . S
C1489 N1497 1.427 . S
C1490 H1481 0.930 . S
C1490 C1488 1.378 . S
C1490 C1491 1.367 . S
C1491 C1490 1.367 . S
C1491 C1493 1.433 . S
C1492 C1488 1.350 . S
C1492 C1489 1.463 . S
C1492 N1496 1.427 . S
C1493 H1483 0.929 . S
C1493 C1491 1.433 . S
C1493 N1496 1.384 . S
C1494 H1485 0.929 . S
C1494 C1486 1.378 . S
C1494 C1489 1.350 . S
C1495 H1482 0.929 . S
C1495 C1487 1.433 . S
C1495 N1497 1.384 . S
N1496 C1492 1.427 . S
N1496 C1493 1.384 . S
N1497 C1489 1.427 . S
N1497 C1495 1.384 . S
H1498 C1504 0.930 . S
H1499 C1508 0.930 . S
H1500 C1513 0.929 . S
H1501 C1511 0.929 . S
H1502 C1506 0.929 . S
H1503 C1512 0.929 . S
C1504 H1498 0.930 . S
C1504 C1505 1.367 . S
C1504 C1512 1.378 . S
C1505 C1504 1.367 . S
C1505 C1513 1.433 . S
C1506 H1502 0.929 . S
C1506 C1508 1.378 . S
C1506 C1510 1.350 . S
C1507 C1510 1.463 1_545 S
C1507 C1512 1.350 . S
C1507 N1515 1.427 1_545 S
C1508 H1499 0.930 . S
C1508 C1506 1.378 . S
C1508 C1509 1.367 . S
C1509 C1508 1.367 . S
C1509 C1511 1.433 . S
C1510 C1506 1.350 . S
C1510 C1507 1.463 1_565 S
C1510 N1514 1.427 1_565 S
C1511 H1501 0.929 . S
C1511 C1509 1.433 . S
C1511 N1514 1.384 1_565 S
C1512 H1503 0.929 . S
C1512 C1504 1.378 . S
C1512 C1507 1.350 . S
C1513 H1500 0.929 . S
C1513 C1505 1.433 . S
C1513 N1515 1.384 1_545 S
N1514 C1510 1.427 1_545 S
N1514 C1511 1.384 1_545 S
N1515 C1507 1.427 1_565 S
N1515 C1513 1.384 1_565 S
H1516 C1522 0.930 . S
H1517 C1526 0.930 . S
H1518 C1531 0.929 . S
H1519 C1529 0.929 . S
H1520 C1524 0.929 1_655 S
H1521 C1530 0.929 1_455 S
C1522 H1516 0.930 . S
C1522 C1523 1.367 . S
C1522 C1530 1.378 . S
C1523 C1522 1.367 . S
C1523 C1531 1.433 . S
C1524 H1520 0.929 1_455 S
C1524 C1526 1.378 . S
C1524 C1528 1.350 . S
C1525 C1528 1.463 1_655 S
C1525 C1530 1.350 . S
C1525 N1533 1.427 . S
C1526 H1517 0.930 . S
C1526 C1524 1.378 . S
C1526 C1527 1.367 . S
C1527 C1526 1.367 . S
C1527 C1529 1.433 . S
C1528 C1524 1.350 . S
C1528 C1525 1.463 1_455 S
C1528 N1532 1.427 . S
C1529 H1519 0.929 . S
C1529 C1527 1.433 . S
C1529 N1532 1.384 . S
C1530 H1521 0.929 1_655 S
C1530 C1522 1.378 . S
C1530 C1525 1.350 . S
C1531 H1518 0.929 . S
C1531 C1523 1.433 . S
C1531 N1533 1.384 . S
N1532 C1528 1.427 . S
N1532 C1529 1.384 . S
N1533 C1525 1.427 . S
N1533 C1531 1.384 . S
H1534 C1540 0.930 . S
H1535 C1544 0.930 . S
H1536 C1549 0.929 1_556 S
H1537 C1547 0.945 . S
H1538 C1542 0.929 . S
H1539 C1548 0.929 . S
C1540 H1534 0.930 . S
C1540 C1541 1.367 . S
C1540 C1548 1.378 . S
C1541 C1540 1.367 . S
C1541 C1549 1.433 . S
C1542 H1538 0.929 . S
C1542 C1544 1.378 . S
C1542 C1546 1.350 . S
C1543 C1546 1.463 1_554 S
C1543 C1548 1.350 . S
C1543 N1551 1.427 1_554 S
C1544 H1535 0.930 . S
C1544 C1542 1.378 . S
C1544 C1545 1.367 . S
C1545 C1544 1.367 . S
C1545 C1547 1.433 . S
C1546 C1542 1.350 . S
C1546 C1543 1.463 1_556 S
C1546 N1550 1.427 1_556 S
C1547 H1537 0.945 . S
C1547 C1545 1.433 . S
C1547 N1550 1.384 1_556 S
C1548 H1539 0.929 . S
C1548 C1540 1.378 . S
C1548 C1543 1.350 . S
C1549 H1536 0.929 1_554 S
C1549 C1541 1.433 . S
C1549 N1551 1.384 1_554 S
N1550 C1546 1.427 1_554 S
N1550 C1547 1.384 1_554 S
N1551 C1543 1.427 1_556 S
N1551 C1549 1.384 1_556 S
H1552 C1558 0.930 . S
H1553 C1562 0.930 . S
H1554 C1567 0.929 . S
H1555 C1565 0.929 . S
H1556 C1560 0.929 1_456 S
H1557 C1566 0.944 1_655 S
C1558 H1552 0.930 . S
C1558 C1559 1.367 . S
C1558 C1566 1.378 . S
C1559 C1558 1.367 . S
C1559 C1567 1.433 . S
C1560 H1556 0.929 1_654 S
C1560 C1562 1.378 . S
C1560 C1564 1.350 . S
C1561 C1564 1.463 1_456 S
C1561 C1566 1.350 . S
C1561 N1569 1.427 . S
C1562 H1553 0.930 . S
C1562 C1560 1.378 . S
C1562 C1563 1.367 . S
C1563 C1562 1.367 . S
C1563 C1565 1.433 . S
C1564 C1560 1.350 . S
C1564 C1561 1.463 1_654 S
C1564 N1568 1.427 . S
C1565 H1555 0.929 . S
C1565 C1563 1.433 . S
C1565 N1568 1.384 . S
C1566 H1557 0.944 1_455 S
C1566 C1558 1.378 . S
C1566 C1561 1.350 . S
C1567 H1554 0.929 . S
C1567 C1559 1.433 . S
C1567 N1569 1.384 . S
N1568 C1564 1.427 . S
N1568 C1565 1.384 . S
N1569 C1561 1.427 . S
N1569 C1567 1.384 . S
H1570 C1576 0.930 . S
H1571 C1580 0.930 . S
H1572 C1585 0.929 . S
H1573 C1583 0.929 . S
H1574 C1578 0.929 . S
H1575 C1584 0.929 . S
C1576 H1570 0.930 . S
C1576 C1577 1.367 . S
C1576 C1584 1.378 . S
C1577 C1576 1.367 . S
C1577 C1585 1.433 . S
C1578 H1574 0.929 . S
C1578 C1580 1.378 . S
C1578 C1582 1.350 . S
C1579 C1582 1.463 . S
C1579 C1584 1.350 . S
C1579 N1587 1.427 . S
C1580 H1571 0.930 . S
C1580 C1578 1.378 . S
C1580 C1581 1.367 . S
C1581 C1580 1.367 . S
C1581 C1583 1.433 . S
C1582 C1578 1.350 . S
C1582 C1579 1.463 . S
C1582 N1586 1.427 . S
C1583 H1573 0.929 . S
C1583 C1581 1.433 . S
C1583 N1586 1.384 . S
C1584 H1575 0.929 . S
C1584 C1576 1.378 . S
C1584 C1579 1.350 . S
C1585 H1572 0.929 . S
C1585 C1577 1.433 . S
C1585 N1587 1.384 . S
N1586 C1582 1.427 . S
N1586 C1583 1.384 . S
N1587 C1579 1.427 . S
N1587 C1585 1.384 . S
H1588 C1594 0.930 . S
H1589 C1598 0.930 . S
H1590 C1603 0.929 . S
H1591 C1601 0.929 . S
H1592 C1596 0.929 . S
H1593 C1602 0.929 . S
C1594 H1588 0.930 . S
C1594 C1595 1.367 . S
C1594 C1602 1.378 . S
C1595 C1594 1.367 . S
C1595 C1603 1.433 . S
C1596 H1592 0.929 . S
C1596 C1598 1.378 . S
C1596 C1600 1.350 . S
C1597 C1600 1.463 1_556 S
C1597 C1602 1.350 . S
C1597 N1605 1.427 . S
C1598 H1589 0.930 . S
C1598 C1596 1.378 . S
C1598 C1599 1.367 . S
C1599 C1598 1.367 . S
C1599 C1601 1.433 . S
C1600 C1596 1.350 . S
C1600 C1597 1.463 1_554 S
C1600 N1604 1.427 . S
C1601 H1591 0.929 . S
C1601 C1599 1.433 . S
C1601 N1604 1.384 . S
C1602 H1593 0.929 . S
C1602 C1594 1.378 . S
C1602 C1597 1.350 . S
C1603 H1590 0.929 . S
C1603 C1595 1.433 . S
C1603 N1605 1.384 . S
N1604 C1600 1.427 . S
N1604 C1601 1.384 . S
N1605 C1597 1.427 . S
N1605 C1603 1.384 . S
H1606 C1612 0.930 . S
H1607 C1616 0.930 . S
H1608 C1621 0.929 . S
H1609 C1619 0.929 . S
H1610 C1614 0.929 . S
H1611 C1620 0.929 . S
C1612 H1606 0.930 . S
C1612 C1613 1.367 . S
C1612 C1620 1.378 . S
C1613 C1612 1.367 . S
C1613 C1621 1.433 . S
C1614 H1610 0.929 . S
C1614 C1616 1.378 . S
C1614 C1618 1.350 . S
C1615 C1618 1.463 . S
C1615 C1620 1.350 . S
C1615 N1623 1.427 . S
C1616 H1607 0.930 . S
C1616 C1614 1.378 . S
C1616 C1617 1.367 . S
C1617 C1616 1.367 . S
C1617 C1619 1.433 . S
C1618 C1614 1.350 . S
C1618 C1615 1.463 . S
C1618 N1622 1.427 . S
C1619 H1609 0.929 . S
C1619 C1617 1.433 . S
C1619 N1622 1.384 . S
C1620 H1611 0.929 . S
C1620 C1612 1.378 . S
C1620 C1615 1.350 . S
C1621 H1608 0.929 . S
C1621 C1613 1.433 . S
C1621 N1623 1.384 . S
N1622 C1618 1.427 . S
N1622 C1619 1.384 . S
N1623 C1615 1.427 . S
N1623 C1621 1.384 . S
H1624 C1630 0.930 . S
H1625 C1634 0.930 . S
H1626 C1639 0.966 . S
H1627 C1637 0.929 1_556 S
H1628 C1632 0.929 . S
H1629 C1638 0.929 . S
C1630 H1624 0.930 . S
C1630 C1631 1.367 . S
C1630 C1638 1.378 . S
C1631 C1630 1.367 . S
C1631 C1639 1.433 . S
C1632 H1628 0.929 . S
C1632 C1634 1.378 . S
C1632 C1636 1.350 . S
C1633 C1636 1.463 1_546 S
C1633 C1638 1.350 . S
C1633 N1641 1.427 1_556 S
C1634 H1625 0.930 . S
C1634 C1632 1.378 . S
C1634 C1635 1.367 . S
C1635 C1634 1.367 . S
C1635 C1637 1.433 . S
C1636 C1632 1.350 . S
C1636 C1633 1.463 1_564 S
C1636 N1640 1.427 1_554 S
C1637 H1627 0.929 1_554 S
C1637 C1635 1.433 . S
C1637 N1640 1.384 1_554 S
C1638 H1629 0.929 . S
C1638 C1630 1.378 . S
C1638 C1633 1.350 . S
C1639 H1626 0.966 . S
C1639 C1631 1.433 . S
C1639 N1641 1.384 1_556 S
N1640 C1636 1.427 1_556 S
N1640 C1637 1.384 1_556 S
N1641 C1633 1.427 1_554 S
N1641 C1639 1.384 1_554 S
H1642 C1648 0.930 . S
H1643 C1652 0.930 . S
H1644 C1657 0.929 . S
H1645 C1655 0.929 . S
H1646 C1650 0.929 . S
H1647 C1656 0.929 . S
C1648 H1642 0.930 . S
C1648 C1649 1.367 . S
C1648 C1656 1.378 . S
C1649 C1648 1.367 . S
C1649 C1657 1.433 . S
C1650 H1646 0.929 . S
C1650 C1652 1.378 . S
C1650 C1654 1.350 . S
C1651 C1654 1.463 . S
C1651 C1656 1.350 . S
C1651 N1659 1.427 . S
C1652 H1643 0.930 . S
C1652 C1650 1.378 . S
C1652 C1653 1.367 . S
C1653 C1652 1.367 . S
C1653 C1655 1.433 . S
C1654 C1650 1.350 . S
C1654 C1651 1.463 . S
C1654 N1658 1.427 . S
C1655 H1645 0.929 . S
C1655 C1653 1.433 . S
C1655 N1658 1.384 . S
C1656 H1647 0.929 . S
C1656 C1648 1.378 . S
C1656 C1651 1.350 . S
C1657 H1644 0.929 . S
C1657 C1649 1.433 . S
C1657 N1659 1.384 . S
N1658 C1654 1.427 . S
N1658 C1655 1.384 . S
N1659 C1651 1.427 . S
N1659 C1657 1.384 . S
H1660 C1666 0.930 . S
H1661 C1670 0.930 . S
H1662 C1675 0.929 . S
H1663 C1673 0.929 . S
H1664 C1668 0.929 . S
H1665 C1674 0.929 . S
C1666 H1660 0.930 . S
C1666 C1667 1.367 . S
C1666 C1674 1.378 . S
C1667 C1666 1.367 . S
C1667 C1675 1.433 . S
C1668 H1664 0.929 . S
C1668 C1670 1.378 . S
C1668 C1672 1.350 . S
C1669 C1672 1.463 . S
C1669 C1674 1.350 . S
C1669 N1677 1.427 . S
C1670 H1661 0.930 . S
C1670 C1668 1.378 . S
C1670 C1671 1.367 . S
C1671 C1670 1.367 . S
C1671 C1673 1.433 . S
C1672 C1668 1.350 . S
C1672 C1669 1.463 . S
C1672 N1676 1.427 . S
C1673 H1663 0.929 . S
C1673 C1671 1.433 . S
C1673 N1676 1.384 . S
C1674 H1665 0.929 . S
C1674 C1666 1.378 . S
C1674 C1669 1.350 . S
C1675 H1662 0.929 . S
C1675 C1667 1.433 . S
C1675 N1677 1.384 . S
N1676 C1672 1.427 . S
N1676 C1673 1.384 . S
N1677 C1669 1.427 . S
N1677 C1675 1.384 . S
H1678 C1684 0.930 . S
H1679 C1688 0.930 . S
H1680 C1693 0.929 . S
H1681 C1691 0.929 . S
H1682 C1686 0.929 . S
H1683 C1692 0.929 . S
C1684 H1678 0.930 . S
C1684 C1685 1.367 . S
C1684 C1692 1.378 . S
C1685 C1684 1.367 . S
C1685 C1693 1.433 . S
C1686 H1682 0.929 . S
C1686 C1688 1.378 . S
C1686 C1690 1.350 . S
C1687 C1690 1.463 . S
C1687 C1692 1.350 . S
C1687 N1695 1.427 . S
C1688 H1679 0.930 . S
C1688 C1686 1.378 . S
C1688 C1689 1.367 . S
C1689 C1688 1.367 . S
C1689 C1691 1.433 . S
C1690 C1686 1.350 . S
C1690 C1687 1.463 . S
C1690 N1694 1.427 . S
C1691 H1681 0.929 . S
C1691 C1689 1.433 . S
C1691 N1694 1.384 . S
C1692 H1683 0.929 . S
C1692 C1684 1.378 . S
C1692 C1687 1.350 . S
C1693 H1680 0.929 . S
C1693 C1685 1.433 . S
C1693 N1695 1.384 . S
N1694 C1690 1.427 . S
N1694 C1691 1.384 . S
N1695 C1687 1.427 . S
N1695 C1693 1.384 . S
H1696 C1702 0.930 . S
H1697 C1706 0.930 . S
H1698 C1711 0.929 . S
H1699 C1709 0.929 . S
H1700 C1704 0.929 . S
H1701 C1710 0.929 . S
C1702 H1696 0.930 . S
C1702 C1703 1.367 . S
C1702 C1710 1.378 . S
C1703 C1702 1.367 . S
C1703 C1711 1.433 . S
C1704 H1700 0.929 . S
C1704 C1706 1.378 . S
C1704 C1708 1.350 . S
C1705 C1708 1.463 . S
C1705 C1710 1.350 . S
C1705 N1713 1.427 . S
C1706 H1697 0.930 . S
C1706 C1704 1.378 . S
C1706 C1707 1.367 . S
C1707 C1706 1.367 . S
C1707 C1709 1.433 . S
C1708 C1704 1.350 . S
C1708 C1705 1.463 . S
C1708 N1712 1.427 . S
C1709 H1699 0.929 . S
C1709 C1707 1.433 . S
C1709 N1712 1.384 . S
C1710 H1701 0.929 . S
C1710 C1702 1.378 . S
C1710 C1705 1.350 . S
C1711 H1698 0.929 . S
C1711 C1703 1.433 . S
C1711 N1713 1.384 . S
N1712 C1708 1.427 . S
N1712 C1709 1.384 . S
N1713 C1705 1.427 . S
N1713 C1711 1.384 . S
H1714 C1720 0.930 . S
H1715 C1724 0.930 . S
H1716 C1729 0.929 . S
H1717 C1727 0.929 . S
H1718 C1722 0.929 . S
H1719 C1728 0.929 . S
C1720 H1714 0.930 . S
C1720 C1721 1.367 . S
C1720 C1728 1.378 . S
C1721 C1720 1.367 . S
C1721 C1729 1.433 . S
C1722 H1718 0.929 . S
C1722 C1724 1.378 . S
C1722 C1726 1.350 . S
C1723 C1726 1.463 . S
C1723 C1728 1.350 . S
C1723 N1731 1.427 . S
C1724 H1715 0.930 . S
C1724 C1722 1.378 . S
C1724 C1725 1.367 . S
C1725 C1724 1.367 . S
C1725 C1727 1.433 . S
C1726 C1722 1.350 . S
C1726 C1723 1.463 . S
C1726 N1730 1.427 . S
C1727 H1717 0.929 . S
C1727 C1725 1.433 . S
C1727 N1730 1.384 . S
C1728 H1719 0.929 . S
C1728 C1720 1.378 . S
C1728 C1723 1.350 . S
C1729 H1716 0.929 . S
C1729 C1721 1.433 . S
C1729 N1731 1.384 . S
N1730 C1726 1.427 . S
N1730 C1727 1.384 . S
N1731 C1723 1.427 . S
N1731 C1729 1.384 . S
H1732 C1738 0.930 . S
H1733 C1742 0.930 . S
H1734 C1747 0.929 . S
H1735 C1745 0.929 . S
H1736 C1740 0.929 . S
H1737 C1746 0.929 . S
C1738 H1732 0.930 . S
C1738 C1739 1.367 . S
C1738 C1746 1.378 . S
C1739 C1738 1.367 . S
C1739 C1747 1.433 . S
C1740 H1736 0.929 . S
C1740 C1742 1.378 . S
C1740 C1744 1.350 . S
C1741 C1744 1.463 . S
C1741 C1746 1.350 . S
C1741 N1749 1.427 . S
C1742 H1733 0.930 . S
C1742 C1740 1.378 . S
C1742 C1743 1.367 . S
C1743 C1742 1.367 . S
C1743 C1745 1.433 . S
C1744 C1740 1.350 . S
C1744 C1741 1.463 . S
C1744 N1748 1.427 . S
C1745 H1735 0.929 . S
C1745 C1743 1.433 . S
C1745 N1748 1.384 . S
C1746 H1737 0.929 . S
C1746 C1738 1.378 . S
C1746 C1741 1.350 . S
C1747 H1734 0.929 . S
C1747 C1739 1.433 . S
C1747 N1749 1.384 . S
N1748 C1744 1.427 . S
N1748 C1745 1.384 . S
N1749 C1741 1.427 . S
N1749 C1747 1.384 . S
H1750 C1756 0.930 . S
H1751 C1760 0.930 . S
H1752 C1765 0.929 . S
H1753 C1763 0.929 . S
H1754 C1758 0.929 . S
H1755 C1764 0.929 . S
C1756 H1750 0.930 . S
C1756 C1757 1.367 . S
C1756 C1764 1.378 . S
C1757 C1756 1.367 . S
C1757 C1765 1.433 . S
C1758 H1754 0.929 . S
C1758 C1760 1.378 . S
C1758 C1762 1.350 . S
C1759 C1762 1.463 . S
C1759 C1764 1.350 . S
C1759 N1767 1.427 . S
C1760 H1751 0.930 . S
C1760 C1758 1.378 . S
C1760 C1761 1.367 . S
C1761 C1760 1.367 . S
C1761 C1763 1.433 . S
C1762 C1758 1.350 . S
C1762 C1759 1.463 . S
C1762 N1766 1.427 . S
C1763 H1753 0.929 . S
C1763 C1761 1.433 . S
C1763 N1766 1.384 . S
C1764 H1755 0.929 . S
C1764 C1756 1.378 . S
C1764 C1759 1.350 . S
C1765 H1752 0.929 . S
C1765 C1757 1.433 . S
C1765 N1767 1.384 . S
N1766 C1762 1.427 . S
N1766 C1763 1.384 . S
N1767 C1759 1.427 . S
N1767 C1765 1.384 . S
H1768 C1774 0.930 . S
H1769 C1778 0.930 . S
H1770 C1783 0.929 . S
H1771 C1781 0.929 . S
H1772 C1776 0.929 . S
H1773 C1782 0.929 . S
C1774 H1768 0.930 . S
C1774 C1775 1.367 . S
C1774 C1782 1.378 . S
C1775 C1774 1.367 . S
C1775 C1783 1.433 . S
C1776 H1772 0.929 . S
C1776 C1778 1.378 . S
C1776 C1780 1.350 . S
C1777 C1780 1.463 . S
C1777 C1782 1.350 . S
C1777 N1785 1.427 . S
C1778 H1769 0.930 . S
C1778 C1776 1.378 . S
C1778 C1779 1.367 . S
C1779 C1778 1.367 . S
C1779 C1781 1.433 . S
C1780 C1776 1.350 . S
C1780 C1777 1.463 . S
C1780 N1784 1.427 . S
C1781 H1771 0.929 . S
C1781 C1779 1.433 . S
C1781 N1784 1.384 . S
C1782 H1773 0.929 . S
C1782 C1774 1.378 . S
C1782 C1777 1.350 . S
C1783 H1770 0.929 . S
C1783 C1775 1.433 . S
C1783 N1785 1.384 . S
N1784 C1780 1.427 . S
N1784 C1781 1.384 . S
N1785 C1777 1.427 . S
N1785 C1783 1.384 . S
H1786 C1792 0.930 . S
H1787 C1796 0.930 . S
H1788 C1801 0.929 . S
H1789 C1799 0.929 . S
H1790 C1794 0.929 . S
H1791 C1800 0.929 . S
C1792 H1786 0.930 . S
C1792 C1793 1.367 . S
C1792 C1800 1.378 . S
C1793 C1792 1.367 . S
C1793 C1801 1.433 . S
C1794 H1790 0.929 . S
C1794 C1796 1.378 . S
C1794 C1798 1.350 . S
C1795 C1798 1.463 . S
C1795 C1800 1.350 . S
C1795 N1803 1.427 . S
C1796 H1787 0.930 . S
C1796 C1794 1.378 . S
C1796 C1797 1.367 . S
C1797 C1796 1.367 . S
C1797 C1799 1.433 . S
C1798 C1794 1.350 . S
C1798 C1795 1.463 . S
C1798 N1802 1.427 . S
C1799 H1789 0.929 . S
C1799 C1797 1.433 . S
C1799 N1802 1.384 . S
C1800 H1791 0.929 . S
C1800 C1792 1.378 . S
C1800 C1795 1.350 . S
C1801 H1788 0.929 . S
C1801 C1793 1.433 . S
C1801 N1803 1.384 . S
N1802 C1798 1.427 . S
N1802 C1799 1.384 . S
N1803 C1795 1.427 . S
N1803 C1801 1.384 . S
H1804 C1810 0.930 . S
H1805 C1814 0.930 . S
H1806 C1819 0.929 . S
H1807 C1817 0.929 . S
H1808 C1812 0.929 . S
H1809 C1818 0.929 . S
C1810 H1804 0.930 . S
C1810 C1811 1.367 . S
C1810 C1818 1.378 . S
C1811 C1810 1.367 . S
C1811 C1819 1.433 . S
C1812 H1808 0.929 . S
C1812 C1814 1.378 . S
C1812 C1816 1.350 . S
C1813 C1816 1.463 . S
C1813 C1818 1.350 . S
C1813 N1821 1.427 . S
C1814 H1805 0.930 . S
C1814 C1812 1.378 . S
C1814 C1815 1.367 . S
C1815 C1814 1.367 . S
C1815 C1817 1.433 . S
C1816 C1812 1.350 . S
C1816 C1813 1.463 . S
C1816 N1820 1.427 . S
C1817 H1807 0.929 . S
C1817 C1815 1.433 . S
C1817 N1820 1.384 . S
C1818 H1809 0.929 . S
C1818 C1810 1.378 . S
C1818 C1813 1.350 . S
C1819 H1806 0.929 . S
C1819 C1811 1.433 . S
C1819 N1821 1.384 . S
N1820 C1816 1.427 . S
N1820 C1817 1.384 . S
N1821 C1813 1.427 . S
N1821 C1819 1.384 . S
H1822 C1828 0.930 . S
H1823 C1832 0.930 . S
H1824 C1837 0.929 . S
H1825 C1835 0.929 . S
H1826 C1830 0.929 . S
H1827 C1836 0.929 . S
C1828 H1822 0.930 . S
C1828 C1829 1.367 . S
C1828 C1836 1.378 . S
C1829 C1828 1.367 . S
C1829 C1837 1.433 . S
C1830 H1826 0.929 . S
C1830 C1832 1.378 . S
C1830 C1834 1.350 . S
C1831 C1834 1.463 . S
C1831 C1836 1.350 . S
C1831 N1839 1.427 . S
C1832 H1823 0.930 . S
C1832 C1830 1.378 . S
C1832 C1833 1.367 . S
C1833 C1832 1.367 . S
C1833 C1835 1.433 . S
C1834 C1830 1.350 . S
C1834 C1831 1.463 . S
C1834 N1838 1.427 . S
C1835 H1825 0.929 . S
C1835 C1833 1.433 . S
C1835 N1838 1.384 . S
C1836 H1827 0.929 . S
C1836 C1828 1.378 . S
C1836 C1831 1.350 . S
C1837 H1824 0.929 . S
C1837 C1829 1.433 . S
C1837 N1839 1.384 . S
N1838 C1834 1.427 . S
N1838 C1835 1.384 . S
N1839 C1831 1.427 . S
N1839 C1837 1.384 . S
H1840 C1846 0.930 . S
H1841 C1850 0.930 . S
H1842 C1855 0.929 . S
H1843 C1853 0.929 . S
H1844 C1848 0.929 . S
H1845 C1854 0.929 . S
C1846 H1840 0.930 . S
C1846 C1847 1.367 . S
C1846 C1854 1.378 . S
C1847 C1846 1.367 . S
C1847 C1855 1.433 . S
C1848 H1844 0.929 . S
C1848 C1850 1.378 . S
C1848 C1852 1.350 . S
C1849 C1852 1.463 . S
C1849 C1854 1.350 . S
C1849 N1857 1.427 . S
C1850 H1841 0.930 . S
C1850 C1848 1.378 . S
C1850 C1851 1.367 . S
C1851 C1850 1.367 . S
C1851 C1853 1.433 . S
C1852 C1848 1.350 . S
C1852 C1849 1.463 . S
C1852 N1856 1.427 . S
C1853 H1843 0.929 . S
C1853 C1851 1.433 . S
C1853 N1856 1.384 . S
C1854 H1845 0.929 . S
C1854 C1846 1.378 . S
C1854 C1849 1.350 . S
C1855 H1842 0.929 . S
C1855 C1847 1.433 . S
C1855 N1857 1.384 . S
N1856 C1852 1.427 . S
N1856 C1853 1.384 . S
N1857 C1849 1.427 . S
N1857 C1855 1.384 . S
H1858 C1864 0.930 . S
H1859 C1868 0.930 . S
H1860 C1873 0.929 . S
H1861 C1871 0.929 . S
H1862 C1866 0.929 . S
H1863 C1872 0.929 . S
C1864 H1858 0.930 . S
C1864 C1865 1.367 . S
C1864 C1872 1.378 . S
C1865 C1864 1.367 . S
C1865 C1873 1.433 . S
C1866 H1862 0.929 . S
C1866 C1868 1.378 . S
C1866 C1870 1.350 . S
C1867 C1870 1.463 . S
C1867 C1872 1.350 . S
C1867 N1875 1.427 . S
C1868 H1859 0.930 . S
C1868 C1866 1.378 . S
C1868 C1869 1.367 . S
C1869 C1868 1.367 . S
C1869 C1871 1.433 . S
C1870 C1866 1.350 . S
C1870 C1867 1.463 . S
C1870 N1874 1.427 . S
C1871 H1861 0.929 . S
C1871 C1869 1.433 . S
C1871 N1874 1.384 . S
C1872 H1863 0.929 . S
C1872 C1864 1.378 . S
C1872 C1867 1.350 . S
C1873 H1860 0.929 . S
C1873 C1865 1.433 . S
C1873 N1875 1.384 . S
N1874 C1870 1.427 . S
N1874 C1871 1.384 . S
N1875 C1867 1.427 . S
N1875 C1873 1.384 . S
H1876 C1882 0.930 . S
H1877 C1886 0.930 . S
H1878 C1891 0.929 . S
H1879 C1889 0.929 . S
H1880 C1884 0.929 . S
H1881 C1890 0.929 . S
C1882 H1876 0.930 . S
C1882 C1883 1.367 . S
C1882 C1890 1.378 . S
C1883 C1882 1.367 . S
C1883 C1891 1.433 . S
C1884 H1880 0.929 . S
C1884 C1886 1.378 . S
C1884 C1888 1.350 . S
C1885 C1888 1.463 . S
C1885 C1890 1.350 . S
C1885 N1893 1.427 . S
C1886 H1877 0.930 . S
C1886 C1884 1.378 . S
C1886 C1887 1.367 . S
C1887 C1886 1.367 . S
C1887 C1889 1.433 . S
C1888 C1884 1.350 . S
C1888 C1885 1.463 . S
C1888 N1892 1.427 . S
C1889 H1879 0.929 . S
C1889 C1887 1.433 . S
C1889 N1892 1.384 . S
C1890 H1881 0.929 . S
C1890 C1882 1.378 . S
C1890 C1885 1.350 . S
C1891 H1878 0.929 . S
C1891 C1883 1.433 . S
C1891 N1893 1.384 . S
N1892 C1888 1.427 . S
N1892 C1889 1.384 . S
N1893 C1885 1.427 . S
N1893 C1891 1.384 . S
H1894 C1900 0.930 . S
H1895 C1904 0.930 . S
H1896 C1909 0.929 . S
H1897 C1907 0.929 . S
H1898 C1902 0.929 . S
H1899 C1908 0.929 . S
C1900 H1894 0.930 . S
C1900 C1901 1.367 . S
C1900 C1908 1.378 . S
C1901 C1900 1.367 . S
C1901 C1909 1.433 . S
C1902 H1898 0.929 . S
C1902 C1904 1.378 . S
C1902 C1906 1.350 . S
C1903 C1906 1.463 . S
C1903 C1908 1.350 . S
C1903 N1911 1.427 . S
C1904 H1895 0.930 . S
C1904 C1902 1.378 . S
C1904 C1905 1.367 . S
C1905 C1904 1.367 . S
C1905 C1907 1.433 . S
C1906 C1902 1.350 . S
C1906 C1903 1.463 . S
C1906 N1910 1.427 . S
C1907 H1897 0.929 . S
C1907 C1905 1.433 . S
C1907 N1910 1.384 . S
C1908 H1899 0.929 . S
C1908 C1900 1.378 . S
C1908 C1903 1.350 . S
C1909 H1896 0.929 . S
C1909 C1901 1.433 . S
C1909 N1911 1.384 . S
N1910 C1906 1.427 . S
N1910 C1907 1.384 . S
N1911 C1903 1.427 . S
N1911 C1909 1.384 . S
H1912 C1918 0.930 . S
H1913 C1922 0.930 . S
H1914 C1927 0.929 . S
H1915 C1925 0.929 . S
H1916 C1920 0.929 . S
H1917 C1926 0.929 . S
C1918 H1912 0.930 . S
C1918 C1919 1.367 . S
C1918 C1926 1.378 . S
C1919 C1918 1.367 . S
C1919 C1927 1.433 . S
C1920 H1916 0.929 . S
C1920 C1922 1.378 . S
C1920 C1924 1.350 . S
C1921 C1924 1.463 . S
C1921 C1926 1.350 . S
C1921 N1929 1.427 . S
C1922 H1913 0.930 . S
C1922 C1920 1.378 . S
C1922 C1923 1.367 . S
C1923 C1922 1.367 . S
C1923 C1925 1.433 . S
C1924 C1920 1.350 . S
C1924 C1921 1.463 . S
C1924 N1928 1.427 . S
C1925 H1915 0.929 . S
C1925 C1923 1.433 . S
C1925 N1928 1.384 . S
C1926 H1917 0.929 . S
C1926 C1918 1.378 . S
C1926 C1921 1.350 . S
C1927 H1914 0.929 . S
C1927 C1919 1.433 . S
C1927 N1929 1.384 . S
N1928 C1924 1.427 . S
N1928 C1925 1.384 . S
N1929 C1921 1.427 . S
N1929 C1927 1.384 . S
H1930 C1936 0.930 . S
H1931 C1940 0.930 . S
H1932 C1945 0.929 . S
H1933 C1943 0.929 . S
H1934 C1938 0.929 . S
H1935 C1944 0.929 . S
C1936 H1930 0.930 . S
C1936 C1937 1.367 . S
C1936 C1944 1.378 . S
C1937 C1936 1.367 . S
C1937 C1945 1.433 . S
C1938 H1934 0.929 . S
C1938 C1940 1.378 . S
C1938 C1942 1.350 . S
C1939 C1942 1.463 . S
C1939 C1944 1.350 . S
C1939 N1947 1.427 . S
C1940 H1931 0.930 . S
C1940 C1938 1.378 . S
C1940 C1941 1.367 . S
C1941 C1940 1.367 . S
C1941 C1943 1.433 . S
C1942 C1938 1.350 . S
C1942 C1939 1.463 . S
C1942 N1946 1.427 . S
C1943 H1933 0.929 . S
C1943 C1941 1.433 . S
C1943 N1946 1.384 . S
C1944 H1935 0.929 . S
C1944 C1936 1.378 . S
C1944 C1939 1.350 . S
C1945 H1932 0.929 . S
C1945 C1937 1.433 . S
C1945 N1947 1.384 . S
N1946 C1942 1.427 . S
N1946 C1943 1.384 . S
N1947 C1939 1.427 . S
N1947 C1945 1.384 . S
H1948 C1954 0.930 . S
H1949 C1958 0.930 . S
H1950 C1963 0.929 . S
H1951 C1961 0.929 . S
H1952 C1956 0.929 . S
H1953 C1962 0.929 . S
C1954 H1948 0.930 . S
C1954 C1955 1.367 . S
C1954 C1962 1.378 . S
C1955 C1954 1.367 . S
C1955 C1963 1.433 . S
C1956 H1952 0.929 . S
C1956 C1958 1.378 . S
C1956 C1960 1.350 . S
C1957 C1960 1.463 . S
C1957 C1962 1.350 . S
C1957 N1965 1.427 . S
C1958 H1949 0.930 . S
C1958 C1956 1.378 . S
C1958 C1959 1.367 . S
C1959 C1958 1.367 . S
C1959 C1961 1.433 . S
C1960 C1956 1.350 . S
C1960 C1957 1.463 . S
C1960 N1964 1.427 . S
C1961 H1951 0.929 . S
C1961 C1959 1.433 . S
C1961 N1964 1.384 . S
C1962 H1953 0.929 . S
C1962 C1954 1.378 . S
C1962 C1957 1.350 . S
C1963 H1950 0.929 . S
C1963 C1955 1.433 . S
C1963 N1965 1.384 . S
N1964 C1960 1.427 . S
N1964 C1961 1.384 . S
N1965 C1957 1.427 . S
N1965 C1963 1.384 . S
H1966 C1972 0.930 . S
H1967 C1976 0.930 . S
H1968 C1981 0.929 . S
H1969 C1979 0.929 . S
H1970 C1974 0.929 . S
H1971 C1980 0.929 . S
C1972 H1966 0.930 . S
C1972 C1973 1.367 . S
C1972 C1980 1.378 . S
C1973 C1972 1.367 . S
C1973 C1981 1.433 . S
C1974 H1970 0.929 . S
C1974 C1976 1.378 . S
C1974 C1978 1.350 . S
C1975 C1978 1.463 . S
C1975 C1980 1.350 . S
C1975 N1983 1.427 . S
C1976 H1967 0.930 . S
C1976 C1974 1.378 . S
C1976 C1977 1.367 . S
C1977 C1976 1.367 . S
C1977 C1979 1.433 . S
C1978 C1974 1.350 . S
C1978 C1975 1.463 . S
C1978 N1982 1.427 . S
C1979 H1969 0.929 . S
C1979 C1977 1.433 . S
C1979 N1982 1.384 . S
C1980 H1971 0.929 . S
C1980 C1972 1.378 . S
C1980 C1975 1.350 . S
C1981 H1968 0.929 . S
C1981 C1973 1.433 . S
C1981 N1983 1.384 . S
N1982 C1978 1.427 . S
N1982 C1979 1.384 . S
N1983 C1975 1.427 . S
N1983 C1981 1.384 . S
C1415 C1289 1.692 . S
C1419 C29 1.694 . S
C1433 C196 1.686 . S
C1437 C20 1.689 . S
C1451 C997 1.686 . S
C1455 C137 1.689 . S
C1469 C145 1.690 . S
C1473 C645 1.688 . S
C1487 C233 1.688 . S
C1491 C1085 1.691 . S
C1505 C841 1.697 . S
C1509 C293 1.695 . S
C1523 C313 1.695 . S
C1527 C497 1.698 . S
C1541 C900 1.688 . S
C1545 C372 1.691 . S
C1559 C381 1.698 . S
C1563 C548 1.695 . S
C1577 C1349 1.688 . S
C1581 C489 1.690 . S
C1595 C733 1.688 . S
C1599 C585 1.685 . S
C1613 C1201 1.695 . S
C1617 C665 1.692 . S
C1631 C724 1.692 . S
C1635 C937 1.689 . S
C1649 C1369 1.688 . S
C1653 C849 1.691 . S
C1667 C1017 1.695 . S
C1671 C1193 1.697 . S
C1685 C1252 1.692 . S
C1689 C1076 1.695 . S
C1703 C460 0.958 . S
C1707 C57 0.960 . S
C1721 C49 0.949 . S
C1725 C469 0.947 . S
C1739 C108 0.954 . S
C1743 C401 0.948 . S
C1757 C409 0.951 . S
C1761 C117 0.957 . S
C1775 C636 0.970 . S
C1779 C205 0.969 . S
C1793 C673 0.969 . S
C1797 C225 0.962 . S
C1811 C557 0.958 . S
C1815 C321 0.960 . S
C1829 C284 0.970 . S
C1833 C577 0.966 . S
C1847 C1173 0.954 . S
C1851 C761 0.948 . S
C1865 C753 0.960 . S
C1869 C1164 0.954 . S
C1883 C812 0.958 . S
C1887 C1113 0.960 . S
C1901 C1105 0.950 . S
C1905 C821 0.947 . S
C1919 C1377 0.970 . S
C1923 C929 0.965 . S
C1937 C1340 0.958 . S
C1941 C909 0.960 . S
C1955 C1025 0.958 . S
C1959 C1261 0.963 . S
C1973 C1281 0.970 . S
C1977 C988 0.967 . S
