# Generated by pormake.
# Topology qtz-x, (6)-cn, num edge types: 1
# Building blocks:
#     Node 0, Type 0, BuildingBlock: NUHQIS_clean_sbu_0, # of connection points: 6
#     Node 1, Type 0, BuildingBlock: NUHQIS_clean_sbu_0, # of connection points: 6
#     Node 2, Type 0, BuildingBlock: NUHQIS_clean_sbu_0, # of connection points: 6
#     Edge 3, Type (0, 0), BuildingBlock: XUDNAN_clean_linker_2, # of connection points: 2
#     Edge 4, Type (0, 0), BuildingBlock: XUDNAN_clean_linker_2, # of connection points: 2
#     Edge 5, Type (0, 0), BuildingBlock: XUDNAN_clean_linker_2, # of connection points: 2
#     Edge 6, Type (0, 0), BuildingBlock: XUDNAN_clean_linker_2, # of connection points: 2
#     Edge 7, Type (0, 0), BuildingBlock: XUDNAN_clean_linker_2, # of connection points: 2
#     Edge 8, Type (0, 0), BuildingBlock: XUDNAN_clean_linker_2, # of connection points: 2
#     Edge 9, Type (0, 0), BuildingBlock: XUDNAN_clean_linker_2, # of connection points: 2
#     Edge 10, Type (0, 0), BuildingBlock: XUDNAN_clean_linker_2, # of connection points: 2
#     Edge 11, Type (0, 0), BuildingBlock: XUDNAN_clean_linker_2, # of connection points: 2
# Relax obj value: 0.241
# Max RMSD: 0.263
# Mean RMSD: 0.245
data_MOF--net-qtz-x--node1-NUHQIS_clean_sbu_0--edge1-XUDNAN_clean_linker_2
_symmetry_space_group_name_H-M    P1
_symmetry_Int_Tables_number       1
_symmetry_cell_setting            triclinic
loop_
_symmetry_equiv_pos_as_xyz
'x, y, z'
_cell_length_a     15.265447
_cell_length_b     15.176975
_cell_length_c     53.186984
_cell_angle_alpha  66.256657
_cell_angle_beta   116.06435
_cell_angle_gamma 121.10396
loop_
_atom_site_label
_atom_site_type_symbol
_atom_site_fract_x
_atom_site_fract_y
_atom_site_fract_z
_atom_type_partial_charge
Tb0 Tb 1.03115 0.59963 0.21255 0.0
Eu1 Eu 0.24304 0.75085 0.18877 0.0
C2 C 0.12377 0.84791 0.19912 0.0
C3 C 1.00891 0.65791 0.14701 0.0
C4 C 0.86994 0.45799 0.26335 0.0
C5 C 0.89375 0.51418 0.30368 0.0
C6 C 0.8929 0.53758 0.27535 0.0
C7 C 0.84523 0.35402 0.28015 0.0
C8 C 0.84681 0.33066 0.30864 0.0
C9 C 0.87278 0.41085 0.32093 0.0
C10 C 0.87715 0.48325 0.23412 0.0
O11 O 0.12384 0.51023 0.22543 0.0
O12 O 0.18594 0.5825 0.18679 0.0
O13 O 0.31026 0.71902 0.23713 0.0
O14 O 0.15819 0.66388 0.24901 0.0
C15 C 0.15338 0.50101 0.20727 0.0
O16 O 0.39101 0.77661 0.18456 0.0
O17 O 0.32686 0.89523 0.16113 0.0
O18 O 0.21822 0.85817 0.20191 0.0
O19 O 1.03787 0.7592 0.19546 0.0
O20 O 0.97793 0.58128 0.16865 0.0
O21 O 0.09532 0.74453 0.15153 0.0
C22 C 0.26239 0.6954 0.25588 0.0
O23 O 0.89511 0.57979 0.21907 0.0
O24 O 0.93502 0.44831 0.23204 0.0
C25 C 0.39972 0.86253 0.13688 0.0
C26 C 0.39617 0.86793 0.08268 0.0
C27 C 0.3401 0.77282 0.09964 0.0
C28 C 0.34122 0.77033 0.12632 0.0
C29 C 0.45611 -0.04257 0.12021 0.0
C30 C 0.45429 -0.03975 0.09335 0.0
C31 C 0.39484 0.86178 0.16402 0.0
H32 H 0.91179 0.57771 0.31212 0.0
H33 H 0.91207 0.61858 0.26307 0.0
H34 H 0.8273 0.29116 0.27144 0.0
H35 H 0.83114 0.25045 0.32127 0.0
H36 H 0.2958 0.69976 0.09245 0.0
H37 H 0.2956 0.69637 0.13862 0.0
H38 H 0.50012 0.02978 0.12775 0.0
H39 H 0.49694 0.03528 0.08076 0.0
Tb40 Tb 0.90124 0.16252 0.58468 0.0
Eu41 Eu 0.75515 0.9363 0.56545 0.0
C42 C 1.01159 0.04294 0.5809 0.0
C43 C 0.84642 0.15623 0.52126 0.0
C44 C 0.98583 0.3616 0.62135 0.0
C45 C 0.05481 0.45687 0.65786 0.0
C46 C 0.06882 0.43963 0.63624 0.0
C47 C 0.88757 0.30332 0.62754 0.0
C48 C 0.8732 0.32104 0.64893 0.0
C49 C 0.95749 0.39633 0.66469 0.0
C50 C 1.00539 0.3306 0.60226 0.0
O51 O 0.73799 0.15031 0.5647 0.0
O52 O 0.64646 -0.02893 0.57483 0.0
O53 O 0.81193 0.89686 0.61442 0.0
O54 O 0.83482 0.05067 0.61973 0.0
C55 C 0.65157 0.06584 0.56911 0.0
O56 O 0.59759 0.82881 0.54464 0.0
O57 O 0.73217 0.78818 0.56067 0.0
O58 O 0.92154 -0.01393 0.56447 0.0
O59 O 1.01307 0.09571 0.59561 0.0
O60 O 0.92001 0.19735 0.54319 0.0
O61 O 0.76308 0.06609 0.52473 0.0
C62 C 0.82518 -0.04726 0.63048 0.0
O63 O 1.0299 0.24952 0.61452 0.0
O64 O 0.93364 0.3219 0.57723 0.0
C65 C 0.6046 0.75038 0.51553 0.0
C66 C 0.55696 0.73647 0.45899 0.0
C67 C 0.48867 0.7527 0.46611 0.0
C68 C 0.51176 0.7588 0.49401 0.0
C69 C 0.67148 0.73114 0.50872 0.0
C70 C 0.64788 0.72419 0.48079 0.0
C71 C 0.63354 0.76813 0.54421 0.0
H72 H 0.12074 0.51569 0.66969 0.0
H73 H 0.1455 0.48425 0.63191 0.0
H74 H 0.82356 0.24093 0.6167 0.0
H75 H 0.7981 0.27224 0.65409 0.0
H76 H 0.41867 0.76384 0.44994 0.0
H77 H 0.45802 0.77302 0.49851 0.0
H78 H 0.74312 0.72322 0.52481 0.0
H79 H 0.70124 0.70948 0.4763 0.0
Tb80 Tb 0.84723 0.83152 0.88269 0.0
Eu81 Eu 0.98548 0.69054 0.90442 0.0
C82 C 0.09619 0.93339 0.90009 0.0
C83 C 0.90449 0.79938 0.83667 0.0
C84 C 0.67268 0.92496 0.88543 0.0
C85 C 0.62949 0.009 0.90612 0.0
C86 C 0.68442 0.01653 0.88959 0.0
C87 C 0.60278 0.82572 0.89738 0.0
C88 C 0.54709 0.81825 0.91365 0.0
C89 C 0.56126 0.90966 0.91862 0.0
C90 C 0.74056 0.93345 0.87088 0.0
O91 O 0.74013 0.66405 0.89193 0.0
O92 O 0.82008 0.60558 0.87863 0.0
O93 O 0.92248 0.64693 0.9407 0.0
O94 O 0.89991 0.79775 0.92983 0.0
C95 C 0.73711 0.59118 0.88382 0.0
O96 O 1.00377 0.54214 0.92617 0.0
O97 O 0.12654 0.67788 0.90796 0.0
O98 O 0.09562 0.8435 0.91777 0.0
O99 O 1.00886 0.93982 0.88012 0.0
O100 O 0.8437 0.82458 0.8417 0.0
O101 O 0.97189 0.76046 0.85741 0.0
C102 C 0.90764 0.71028 0.94787 0.0
O103 O 0.84215 -0.03629 0.88502 0.0
O104 O 0.70577 0.85504 0.85955 0.0
C105 C 0.07142 0.51513 0.89875 0.0
C106 C 1.02093 0.44698 0.85019 0.0
C107 C 0.9464 0.40005 0.86545 0.0
C108 C 0.9714 0.43359 0.88955 0.0
C109 C 0.14995 0.55354 0.88541 0.0
C110 C 0.12485 0.51989 0.86126 0.0
C111 C 0.0853 0.57521 0.91724 0.0
H112 H 0.64147 0.08076 0.90947 0.0
H113 H 0.73842 0.09378 0.88071 0.0
H114 H 0.59338 0.75364 0.89487 0.0
H115 H 0.49627 0.74056 0.92331 0.0
H116 H 0.86666 0.34156 0.85782 0.0
H117 H 0.90933 0.40095 0.89956 0.0
H118 H 0.22779 0.616 0.89215 0.0
H119 H 0.18421 0.55711 0.85001 0.0
H120 H 0.24538 0.06326 0.18511 0.0
H121 H 0.97789 0.8297 0.21897 0.0
H122 H 0.96009 -0.02852 0.22517 0.0
H123 H 0.36035 0.24325 0.23045 0.0
H124 H 0.39465 0.36126 0.20264 0.0
H125 H 0.38904 0.2418 0.2012 0.0
H126 H 0.25312 0.25019 0.15031 0.0
H127 H 0.2586 0.3699 0.15155 0.0
H128 H 0.13171 0.25795 0.14472 0.0
H129 H 0.97545 0.13455 0.23004 0.0
H130 H 1.01063 0.31331 0.22886 0.0
H131 H 0.25924 0.44772 0.18833 0.0
C132 C 0.18318 0.04234 0.19381 0.0
C133 C 0.11302 0.93538 0.20162 0.0
C134 C 1.03197 0.91099 0.21267 0.0
C135 C 1.02156 -0.00905 0.21642 0.0
C136 C 0.09174 0.09533 0.20859 0.0
C137 C 0.17001 0.12179 0.19712 0.0
C138 C 0.2321 0.24112 0.18959 0.0
C139 C 0.35109 0.27375 0.20701 0.0
C140 C 0.218 0.28219 0.15711 0.0
C141 C 0.17689 0.27708 0.19888 0.0
C142 C 0.09715 0.19112 0.2101 0.0
C143 C 1.03703 0.20261 0.2211 0.0
C144 C 0.05811 0.30468 0.22044 0.0
C145 C 0.13755 0.39462 0.20847 0.0
C146 C 0.19756 0.38048 0.19744 0.0
H147 H 0.4403 0.92137 0.56581 0.0
H148 H 0.66388 0.24254 0.57469 0.0
H149 H 0.52583 0.26691 0.57965 0.0
H150 H 0.20788 -0.01506 0.52264 0.0
H151 H 0.11538 0.86227 0.53865 0.0
H152 H 0.23229 0.86745 0.53633 0.0
H153 H 0.28873 0.79286 0.59132 0.0
H154 H 0.17233 0.78804 0.59383 0.0
H155 H 0.3039 0.85986 0.61527 0.0
H156 H 0.37048 0.25592 0.58633 0.0
H157 H 0.19693 0.2175 0.58888 0.0
H158 H 0.06262 0.90869 0.57176 0.0
C159 C 0.45984 -0.00318 0.56869 0.0
C160 C 0.56365 0.07977 0.57008 0.0
C161 C 0.58556 0.1776 0.57362 0.0
C162 C 0.50759 0.19231 0.57655 0.0
C163 C 0.40687 0.10917 0.57538 0.0
C164 C 0.38164 0.01388 0.57105 0.0
C165 C 0.26516 0.9394 0.56967 0.0
C166 C 0.20142 0.91192 0.54006 0.0
C167 C 0.2571 0.83911 0.59397 0.0
C168 C 0.22984 0.00775 0.57418 0.0
C169 C 0.31387 0.10474 0.57779 0.0
C170 C 0.3037 0.18064 0.5833 0.0
C171 C 0.20473 0.15764 0.58489 0.0
C172 C 0.11602 0.06009 0.58055 0.0
C173 C 0.12882 -0.01588 0.57503 0.0
H174 H 0.16606 0.1387 0.90136 0.0
H175 H 0.25722 0.92364 0.89465 0.0
H176 H 0.43135 0.06953 0.88981 0.0
H177 H 0.28634 0.36481 0.8516 0.0
H178 H 0.33375 0.45854 0.87224 0.0
H179 H 0.21703 0.33671 0.87587 0.0
H180 H 0.30556 0.29237 0.93075 0.0
H181 H 0.42268 0.4141 0.92729 0.0
H182 H 0.43546 0.29009 0.9441 0.0
H183 H 0.58637 0.23727 0.88213 0.0
H184 H 0.72775 0.41711 0.87745 0.0
H185 H 0.54419 0.52602 0.89203 0.0
C186 C 0.22344 0.12303 0.89903 0.0
C187 C 0.19995 0.02083 0.89852 0.0
C188 C 0.27574 0.0017 0.89553 0.0
C189 C 0.37409 0.08388 0.89261 0.0
C190 C 0.39532 0.18408 0.8931 0.0
C191 C 0.3234 0.20405 0.89674 0.0
C192 C 0.36832 0.31907 0.89714 0.0
C193 C 0.29711 0.37295 0.87275 0.0
C194 C 0.38396 0.32948 0.92658 0.0
C195 C 0.47479 0.36097 0.89212 0.0
C196 C 0.48811 0.28141 0.88981 0.0
C197 C 0.57783 0.30018 0.88427 0.0
C198 C 0.65743 0.40299 0.88148 0.0
C199 C 0.6473 0.48574 0.8845 0.0
C200 C 0.5543 0.46437 0.88972 0.0
H201 H 0.6544 0.01313 0.96176 0.0
H202 H 0.35469 0.78237 0.92061 0.0
H203 H 0.27469 0.75766 0.9559 0.0
H204 H 0.64959 0.87624 1.03204 0.0
H205 H 0.70837 -0.00814 1.04579 0.0
H206 H 0.73748 0.00108 1.01529 0.0
H207 H 0.6716 0.15047 0.98545 0.0
H208 H 0.64221 0.14203 1.01588 0.0
H209 H 0.5391 0.12805 0.98192 0.0
H210 H 0.23067 0.75129 0.9971 0.0
H211 H 0.22876 0.75582 1.04261 0.0
H212 H 0.56101 -0.01573 0.05812 0.0
C213 C 0.57105 -0.04052 0.95969 0.0
C214 C 0.51024 0.90058 0.93824 0.0
C215 C 0.4026 0.82825 0.93689 0.0
C216 C 0.35632 0.81427 0.95667 0.0
C217 C 0.41894 0.87278 0.97775 0.0
C218 C 0.52411 0.94367 0.97944 0.0
C219 C 0.57709 -0.01026 1.00562 0.0
C220 C 0.6738 -0.0369 1.02587 0.0
C221 C 0.60937 0.10969 0.99668 0.0
C222 C 0.48599 0.93192 1.01877 0.0
C223 C 0.39494 0.8662 1.00212 0.0
C224 C 0.30151 0.8026 1.01029 0.0
C225 C 0.30157 0.80522 1.03637 0.0
C226 C 0.39484 0.87025 0.0542 0.0
C227 C 0.4877 0.93503 1.04493 0.0
H228 H 0.73207 0.08506 0.47076 0.0
H229 H 0.99715 0.35257 0.50619 0.0
H230 H 1.03111 0.44369 0.45923 0.0
H231 H 0.8561 0.09307 0.4254 0.0
H232 H 0.73457 0.05871 0.39618 0.0
H233 H 0.7284 0.01364 0.43253 0.0
H234 H 0.59926 0.09978 0.41776 0.0
H235 H 0.6048 0.14503 0.38133 0.0
H236 H 0.63809 0.23827 0.40041 0.0
H237 H 1.04041 0.50575 0.40942 0.0
H238 H 1.02139 0.53773 0.35862 0.0
H239 H 0.74905 0.23324 0.35381 0.0
C240 C 0.79668 0.16314 0.46857 0.0
C241 C 0.86177 0.21156 0.49229 0.0
C242 C 0.94608 0.31348 0.48849 0.0
C243 C 0.96621 0.36611 0.46185 0.0
C244 C 0.90154 0.31607 0.43907 0.0
C245 C 0.81827 0.21711 0.44199 0.0
C246 C 0.76171 0.18157 0.41384 0.0
C247 C 0.7708 0.0808 0.4172 0.0
C248 C 0.64399 0.16525 0.40268 0.0
C249 C 0.82637 0.27637 0.39475 0.0
C250 C 0.90661 0.35263 0.40989 0.0
C251 C 0.9773 0.44706 0.39724 0.0
C252 C 0.96535 0.46479 0.36822 0.0
C253 C 0.88318 0.38882 0.3519 0.0
C254 C 0.81314 0.29289 0.36558 0.0
H255 H 0.85731 0.94497 0.78643 0.0
H256 H 0.92301 0.66634 0.81914 0.0
H257 H 0.90224 0.67045 0.7701 0.0
H258 H 0.66191 0.88463 0.71836 0.0
H259 H 0.70972 0.01931 0.69806 0.0
H260 H 0.72465 -0.00759 0.7356 0.0
H261 H 0.92862 0.10626 0.74528 0.0
H262 H 0.91417 0.13348 0.70779 0.0
H263 H 1.00585 0.07647 0.7347 0.0
H264 H 0.87228 0.70253 0.71723 0.0
H265 H 0.85041 0.77009 0.665 0.0
H266 H 0.8138 0.03321 0.66647 0.0
C267 C 0.86659 0.88463 0.78316 0.0
C268 C 0.89138 0.80507 0.80668 0.0
C269 C 0.90451 0.72838 0.80155 0.0
C270 C 0.89236 0.72966 0.7737 0.0
C271 C 0.86845 0.8091 0.75101 0.0
C272 C 0.85698 0.88608 0.7554 0.0
C273 C 0.83646 -0.03447 0.72732 0.0
C274 C 0.72663 -0.03461 0.71937 0.0
C275 C 0.92665 0.07699 0.72887 0.0
C276 C 0.83781 0.92071 0.7066 0.0
C277 C 0.85522 0.82985 0.72065 0.0
C278 C 0.85892 0.7739 0.706 0.0
C279 C 0.84597 0.8126 0.67627 0.0
C280 C 0.83055 0.90699 0.66148 0.0
C281 C 0.82575 -0.03909 0.67702 0.0
H282 H 0.96514 0.84309 0.98085 0.0
H283 H 0.83386 0.51207 0.9812 0.0
H284 H 0.82436 0.46162 1.03056 0.0
H285 H 0.13492 0.8221 0.05301 0.0
H286 H 0.11778 0.91874 0.05962 0.0
H287 H 0.10404 0.92502 1.02364 0.0
H288 H 0.914 0.92082 1.00737 0.0
H289 H 0.92772 0.91037 1.04377 0.0
H290 H 0.81546 0.81228 1.02457 0.0
H291 H 0.83724 0.44705 0.08089 0.0
H292 H 0.88955 0.47076 0.12964 0.0
H293 H 1.01906 0.81097 0.09719 0.0
C294 C 0.9328 0.76002 0.99118 0.0
C295 C 0.89937 0.68141 0.97712 0.0
C296 C 0.85989 0.57358 0.99158 0.0
C297 C 0.85351 0.54411 1.01956 0.0
C298 C 0.88775 0.62339 1.03295 0.0
C299 C 0.92771 0.72924 1.01936 0.0
C300 C 0.96782 0.79899 1.03941 0.0
C301 C 0.08824 0.8704 1.04417 0.0
C302 C 0.90233 0.86446 1.0281 0.0
C303 C 0.94625 0.71592 0.06651 0.0
C304 C 0.89803 0.61507 0.0622 0.0
C305 C 0.87424 0.52567 0.08446 0.0
C306 C 0.90358 0.53981 0.11206 0.0
C307 C 0.95777 0.64256 0.11721 0.0
C308 C 0.97689 0.73134 0.0939 0.0
H309 H 0.19058 0.63489 0.30187 0.0
H310 H 0.48202 0.78344 0.27765 0.0
H311 H 0.58941 0.80706 0.32716 0.0
H312 H 0.28212 0.80207 0.34834 0.0
H313 H 0.21273 0.69645 0.37352 0.0
H314 H 0.16136 0.69207 0.33619 0.0
H315 H 0.1649 0.50771 0.3513 0.0
H316 H 0.21751 0.51369 0.38853 0.0
H317 H 0.28858 0.49368 0.37321 0.0
H318 H 0.66469 0.82071 0.37907 0.0
H319 H 0.70194 0.81862 0.42933 0.0
H320 H 0.36082 0.65374 0.41981 0.0
C321 C 0.27702 0.67222 0.30688 0.0
C322 C 0.32775 0.70745 0.28574 0.0
C323 C 0.44114 0.75557 0.29341 0.0
C324 C 0.50288 0.76947 0.32149 0.0
C325 C 0.45013 0.73427 0.34171 0.0
C326 C 0.33974 0.68618 0.33477 0.0
C327 C 0.3024 0.65599 0.36034 0.0
C328 C 0.23572 0.71516 0.35423 0.0
C329 C 0.23967 0.53563 0.36885 0.0
C330 C 0.40913 0.69454 0.38283 0.0
C331 C 0.49337 0.73994 0.37165 0.0
C332 C 0.59935 0.78413 0.38814 0.0
C333 C 0.61972 0.78182 0.4168 0.0
C334 C 0.5346 0.73522 0.42882 0.0
C335 C 0.42799 0.69071 0.41142 0.0
H336 H 0.13101 0.41779 0.82724 0.0
H337 H 0.83593 0.4428 0.80726 0.0
H338 H 0.78513 0.42942 0.7576 0.0
H339 H 0.18659 0.57358 0.76203 0.0
H340 H 0.23804 0.49447 0.75974 0.0
H341 H 0.24767 0.49784 0.79433 0.0
H342 H 0.14741 0.29365 0.80692 0.0
H343 H 0.13831 0.28924 0.77248 0.0
H344 H 1.01876 0.2297 0.783 0.0
H345 H 0.77034 0.42073 0.70962 0.0
H346 H 0.79155 0.41371 0.66698 0.0
H347 H 0.09714 0.39614 0.71867 0.0
C348 C 0.05511 0.41871 0.8126 0.0
C349 C 0.98681 0.42949 0.82127 0.0
C350 C 0.88838 0.43188 0.80128 0.0
C351 C 0.85916 0.42512 0.77298 0.0
C352 C 0.92897 0.41538 0.76512 0.0
C353 C 1.02449 0.41128 0.7844 0.0
C354 C 0.08652 0.40306 0.77039 0.0
C355 C 0.19617 0.49791 0.7717 0.0
C356 C 0.09842 0.29766 0.78401 0.0
C357 C 1.01222 0.40599 0.74001 0.0
C358 C 0.92132 0.41215 0.73743 0.0
C359 C 0.84097 0.41554 0.71137 0.0
C360 C 0.85364 0.41162 0.68734 0.0
C361 C 0.94635 0.40547 0.68961 0.0
C362 C 1.02642 0.40279 0.71627 0.0
loop_
_geom_bond_atom_site_label_1
_geom_bond_atom_site_label_2
_geom_bond_distance
_geom_bond_site_symmetry_2
_ccdc_geom_bond_type
Tb0 C10 2.825 . S
Tb0 O11 2.347 . S
Tb0 O14 2.366 1_655 S
Tb0 O19 2.418 . S
Tb0 O20 2.384 . S
Tb0 O23 2.479 . S
Tb0 O24 2.471 . S
Eu1 O12 2.418 . S
Eu1 O13 2.384 . S
Eu1 O16 2.479 . S
Eu1 O17 2.471 . S
Eu1 O18 2.347 . S
Eu1 O21 2.366 1_455 S
Eu1 C31 2.825 . S
C2 O18 1.259 1_655 S
C2 O19 1.265 . S
C3 O20 1.255 . S
C3 O21 1.265 . S
C4 C6 1.380 . S
C4 C7 1.374 . S
C4 C10 1.507 . S
C5 C6 1.384 . S
C5 C9 1.387 . S
C5 H32 0.930 . S
C6 C4 1.380 . S
C6 C5 1.384 . S
C6 H33 0.931 . S
C7 C4 1.374 . S
C7 C8 1.390 . S
C7 H34 0.930 . S
C8 C7 1.390 . S
C8 C9 1.391 . S
C8 H35 0.930 . S
C9 C5 1.387 . S
C9 C8 1.391 . S
C10 Tb0 2.825 . S
C10 C4 1.507 . S
C10 O23 1.238 . S
C10 O24 1.247 . S
O11 Tb0 2.347 . S
O11 C15 1.259 1_655 S
O12 Eu1 2.418 . S
O12 C15 1.265 . S
O13 Eu1 2.384 . S
O13 C22 1.255 . S
O14 Tb0 2.366 1_455 S
O14 C22 1.265 . S
C15 O11 1.259 1_455 S
C15 O12 1.265 . S
O16 Eu1 2.479 . S
O16 C31 1.238 . S
O17 Eu1 2.471 . S
O17 C31 1.247 . S
O18 Eu1 2.347 . S
O18 C2 1.259 1_455 S
O19 Tb0 2.418 . S
O19 C2 1.265 . S
O20 Tb0 2.384 . S
O20 C3 1.255 . S
O21 Eu1 2.366 1_655 S
O21 C3 1.265 . S
C22 O13 1.255 . S
C22 O14 1.265 . S
O23 Tb0 2.479 . S
O23 C10 1.238 . S
O24 Tb0 2.471 . S
O24 C10 1.247 . S
C25 C28 1.380 . S
C25 C29 1.374 . S
C25 C31 1.507 . S
C26 C27 1.387 . S
C26 C30 1.391 1_565 S
C27 C26 1.387 . S
C27 C28 1.384 . S
C27 H36 0.930 . S
C28 C25 1.380 . S
C28 C27 1.384 . S
C28 H37 0.931 . S
C29 C25 1.374 . S
C29 C30 1.390 1_565 S
C29 H38 0.930 . S
C30 C26 1.391 1_545 S
C30 C29 1.390 1_545 S
C30 H39 0.930 . S
C31 Eu1 2.825 . S
C31 O16 1.238 . S
C31 O17 1.247 . S
C31 C25 1.507 . S
H32 C5 0.930 . S
H33 C6 0.931 . S
H34 C7 0.930 . S
H35 C8 0.930 . S
H36 C27 0.930 . S
H37 C28 0.931 . S
H38 C29 0.930 . S
H39 C30 0.930 . S
Tb40 C50 2.825 . S
Tb40 O51 2.347 . S
Tb40 O54 2.366 . S
Tb40 O59 2.418 . S
Tb40 O60 2.384 . S
Tb40 O63 2.479 . S
Tb40 O64 2.471 . S
Eu41 O52 2.418 . S
Eu41 O53 2.384 . S
Eu41 O56 2.479 . S
Eu41 O57 2.471 . S
Eu41 O58 2.347 . S
Eu41 O61 2.367 . S
Eu41 C71 2.825 . S
C42 O58 1.259 1_545 S
C42 O59 1.265 . S
C43 O60 1.255 . S
C43 O61 1.263 1_545 S
C44 C46 1.380 1_655 S
C44 C47 1.374 . S
C44 C50 1.507 . S
C45 C46 1.384 . S
C45 C49 1.387 1_455 S
C45 H72 0.930 . S
C46 C44 1.380 1_455 S
C46 C45 1.384 . S
C46 H73 0.931 . S
C47 C44 1.374 . S
C47 C48 1.390 . S
C47 H74 0.930 . S
C48 C47 1.390 . S
C48 C49 1.391 . S
C48 H75 0.930 . S
C49 C45 1.387 1_655 S
C49 C48 1.391 . S
C50 Tb40 2.825 . S
C50 C44 1.507 . S
C50 O63 1.238 . S
C50 O64 1.247 . S
O51 Tb40 2.347 . S
O51 C55 1.259 1_545 S
O52 Eu41 2.418 . S
O52 C55 1.265 . S
O53 Eu41 2.384 . S
O53 C62 1.255 . S
O54 Tb40 2.366 . S
O54 C62 1.265 1_545 S
C55 O51 1.259 1_565 S
C55 O52 1.265 . S
O56 Eu41 2.479 . S
O56 C71 1.238 . S
O57 Eu41 2.471 . S
O57 C71 1.247 . S
O58 Eu41 2.347 . S
O58 C42 1.259 1_565 S
O59 Tb40 2.418 . S
O59 C42 1.265 . S
O60 Tb40 2.384 . S
O60 C43 1.255 . S
O61 Eu41 2.367 . S
O61 C43 1.263 1_565 S
C62 O53 1.255 . S
C62 O54 1.265 1_565 S
O63 Tb40 2.479 . S
O63 C50 1.238 . S
O64 Tb40 2.471 . S
O64 C50 1.247 . S
C65 C68 1.380 . S
C65 C69 1.374 . S
C65 C71 1.507 . S
C66 C67 1.387 . S
C66 C70 1.391 . S
C67 C66 1.387 . S
C67 C68 1.384 . S
C67 H76 0.930 . S
C68 C65 1.380 . S
C68 C67 1.384 . S
C68 H77 0.931 . S
C69 C65 1.374 . S
C69 C70 1.390 . S
C69 H78 0.930 . S
C70 C66 1.391 . S
C70 C69 1.390 . S
C70 H79 0.930 . S
C71 Eu41 2.825 . S
C71 O56 1.238 . S
C71 O57 1.247 . S
C71 C65 1.507 . S
H72 C45 0.930 . S
H73 C46 0.931 . S
H74 C47 0.930 . S
H75 C48 0.930 . S
H76 C67 0.930 . S
H77 C68 0.931 . S
H78 C69 0.930 . S
H79 C70 0.930 . S
Tb80 C90 2.825 . S
Tb80 O91 2.347 1_545 S
Tb80 O94 2.366 1_545 S
Tb80 O99 2.418 1_655 S
Tb80 O100 2.384 . S
Tb80 O103 2.479 . S
Tb80 O104 2.471 1_545 S
Eu81 O92 2.418 . S
Eu81 O93 2.384 . S
Eu81 O96 2.479 . S
Eu81 O97 2.471 1_655 S
Eu81 O98 2.347 1_665 S
Eu81 O101 2.366 . S
Eu81 C111 2.825 1_655 S
C82 O98 1.259 . S
C82 O99 1.265 . S
C83 O100 1.255 1_565 S
C83 O101 1.265 . S
C84 C86 1.380 . S
C84 C87 1.374 1_545 S
C84 C90 1.507 . S
C85 C86 1.384 . S
C85 C89 1.387 . S
C85 H112 0.930 . S
C86 C84 1.380 . S
C86 C85 1.384 . S
C86 H113 0.931 . S
C87 C84 1.374 1_565 S
C87 C88 1.390 . S
C87 H114 0.930 . S
C88 C87 1.390 . S
C88 C89 1.391 1_565 S
C88 H115 0.930 . S
C89 C85 1.387 . S
C89 C88 1.391 1_545 S
C90 Tb80 2.825 . S
C90 C84 1.507 . S
C90 O103 1.238 . S
C90 O104 1.247 1_545 S
O91 Tb80 2.347 1_565 S
O91 C95 1.259 . S
O92 Eu81 2.418 . S
O92 C95 1.265 . S
O93 Eu81 2.384 . S
O93 C102 1.255 . S
O94 Tb80 2.366 1_565 S
O94 C102 1.265 . S
C95 O91 1.259 . S
C95 O92 1.265 . S
O96 Eu81 2.479 . S
O96 C111 1.238 1_655 S
O97 Eu81 2.471 1_455 S
O97 C111 1.247 . S
O98 Eu81 2.347 1_445 S
O98 C82 1.259 . S
O99 Tb80 2.418 1_455 S
O99 C82 1.265 . S
O100 Tb80 2.384 . S
O100 C83 1.255 1_545 S
O101 Eu81 2.366 . S
O101 C83 1.265 . S
C102 O93 1.255 . S
C102 O94 1.265 . S
O103 Tb80 2.479 . S
O103 C90 1.238 . S
O104 Tb80 2.471 1_565 S
O104 C90 1.247 1_565 S
C105 C108 1.380 . S
C105 C109 1.374 . S
C105 C111 1.507 . S
C106 C107 1.387 . S
C106 C110 1.391 . S
C107 C106 1.387 . S
C107 C108 1.384 . S
C107 H116 0.930 . S
C108 C105 1.380 . S
C108 C107 1.384 . S
C108 H117 0.931 1_455 S
C109 C105 1.374 . S
C109 C110 1.390 . S
C109 H118 0.930 . S
C110 C106 1.391 . S
C110 C109 1.390 . S
C110 H119 0.930 . S
C111 Eu81 2.825 1_455 S
C111 O96 1.238 1_455 S
C111 O97 1.247 . S
C111 C105 1.507 . S
H112 C85 0.930 . S
H113 C86 0.931 . S
H114 C87 0.930 . S
H115 C88 0.930 . S
H116 C107 0.930 . S
H117 C108 0.931 1_655 S
H118 C109 0.930 . S
H119 C110 0.930 . S
H120 C132 0.930 . S
H121 C134 0.930 . S
H122 C135 0.930 1_565 S
H123 C139 0.959 . S
H124 C139 0.959 . S
H125 C139 0.961 . S
H126 C140 0.960 . S
H127 C140 0.961 . S
H128 C140 0.959 . S
H129 C143 0.929 . S
H130 C144 0.931 . S
H131 C146 0.930 . S
C132 H120 0.930 . S
C132 C133 1.399 1_445 S
C132 C137 1.399 . S
C133 C132 1.399 1_665 S
C133 C134 1.376 . S
C134 H121 0.930 . S
C134 C133 1.376 . S
C134 C135 1.388 1_565 S
C135 H122 0.930 1_545 S
C135 C134 1.388 1_545 S
C135 C136 1.390 . S
C136 C135 1.390 . S
C136 C137 1.394 1_655 S
C136 C142 1.465 . S
C137 C132 1.399 . S
C137 C136 1.394 1_455 S
C137 C138 1.516 . S
C138 C137 1.516 . S
C138 C139 1.502 . S
C138 C140 1.561 . S
C138 C141 1.526 . S
C139 H123 0.959 . S
C139 H124 0.959 . S
C139 H125 0.961 . S
C139 C138 1.502 . S
C140 H126 0.960 . S
C140 H127 0.961 . S
C140 H128 0.959 . S
C140 C138 1.561 . S
C141 C138 1.526 . S
C141 C142 1.396 1_455 S
C141 C146 1.390 . S
C142 C136 1.465 . S
C142 C141 1.396 1_655 S
C142 C143 1.399 . S
C143 H129 0.929 . S
C143 C142 1.399 . S
C143 C144 1.385 . S
C144 H130 0.931 . S
C144 C143 1.385 . S
C144 C145 1.389 . S
C145 C144 1.389 . S
C145 C146 1.387 1_655 S
C146 H131 0.930 . S
C146 C141 1.390 . S
C146 C145 1.387 1_455 S
H147 C159 0.930 . S
H148 C161 0.930 . S
H149 C162 0.930 . S
H150 C166 0.959 . S
H151 C166 0.959 . S
H152 C166 0.961 . S
H153 C167 0.960 . S
H154 C167 0.961 . S
H155 C167 0.959 . S
H156 C170 0.929 . S
H157 C171 0.931 . S
H158 C173 0.930 1_655 S
C159 H147 0.930 . S
C159 C160 1.399 1_565 S
C159 C164 1.399 . S
C160 C159 1.399 1_545 S
C160 C161 1.376 . S
C161 H148 0.930 . S
C161 C160 1.376 . S
C161 C162 1.388 . S
C162 H149 0.930 . S
C162 C161 1.388 . S
C162 C163 1.390 . S
C163 C162 1.390 . S
C163 C164 1.394 1_545 S
C163 C169 1.465 . S
C164 C159 1.399 . S
C164 C163 1.394 1_565 S
C164 C165 1.516 . S
C165 C164 1.516 . S
C165 C166 1.502 . S
C165 C167 1.561 . S
C165 C168 1.526 . S
C166 H150 0.959 . S
C166 H151 0.959 . S
C166 H152 0.961 . S
C166 C165 1.502 . S
C167 H153 0.960 . S
C167 H154 0.961 . S
C167 H155 0.959 . S
C167 C165 1.561 . S
C168 C165 1.526 . S
C168 C169 1.396 1_565 S
C168 C173 1.390 . S
C169 C163 1.465 . S
C169 C168 1.396 1_545 S
C169 C170 1.399 . S
C170 H156 0.929 . S
C170 C169 1.399 . S
C170 C171 1.385 . S
C171 H157 0.931 . S
C171 C170 1.385 . S
C171 C172 1.389 . S
C172 C171 1.389 . S
C172 C173 1.387 1_545 S
C173 H158 0.930 1_455 S
C173 C168 1.390 . S
C173 C172 1.387 1_565 S
H174 C186 0.930 . S
H175 C188 0.930 . S
H176 C189 0.930 . S
H177 C193 0.959 . S
H178 C193 0.959 . S
H179 C193 0.961 . S
H180 C194 0.960 . S
H181 C194 0.961 . S
H182 C194 0.959 . S
H183 C197 0.929 . S
H184 C198 0.931 . S
H185 C200 0.930 . S
C186 H174 0.930 . S
C186 C187 1.399 . S
C186 C191 1.399 . S
C187 C186 1.399 . S
C187 C188 1.376 . S
C188 H175 0.930 . S
C188 C187 1.376 . S
C188 C189 1.388 . S
C189 H176 0.930 . S
C189 C188 1.388 . S
C189 C190 1.390 . S
C190 C189 1.390 . S
C190 C191 1.394 . S
C190 C196 1.465 . S
C191 C186 1.399 . S
C191 C190 1.394 . S
C191 C192 1.516 . S
C192 C191 1.516 . S
C192 C193 1.502 . S
C192 C194 1.561 . S
C192 C195 1.526 . S
C193 H177 0.959 . S
C193 H178 0.959 . S
C193 H179 0.961 . S
C193 C192 1.502 . S
C194 H180 0.960 . S
C194 H181 0.961 . S
C194 H182 0.959 . S
C194 C192 1.561 . S
C195 C192 1.526 . S
C195 C196 1.396 . S
C195 C200 1.390 . S
C196 C190 1.465 . S
C196 C195 1.396 . S
C196 C197 1.399 . S
C197 H183 0.929 . S
C197 C196 1.399 . S
C197 C198 1.385 . S
C198 H184 0.931 . S
C198 C197 1.385 . S
C198 C199 1.389 . S
C199 C198 1.389 . S
C199 C200 1.387 . S
C200 H185 0.930 . S
C200 C195 1.390 . S
C200 C199 1.387 . S
H201 C213 0.930 . S
H202 C215 0.930 . S
H203 C216 0.930 . S
H204 C220 0.959 1_554 S
H205 C220 0.959 1_554 S
H206 C220 0.961 . S
H207 C221 0.960 . S
H208 C221 0.961 . S
H209 C221 0.959 . S
H210 C224 0.929 . S
H211 C225 0.931 . S
H212 C227 0.930 . S
C213 H201 0.930 . S
C213 C214 1.399 . S
C213 C218 1.399 . S
C214 C213 1.399 . S
C214 C215 1.376 1_545 S
C215 H202 0.930 . S
C215 C214 1.376 1_565 S
C215 C216 1.388 . S
C216 H203 0.930 . S
C216 C215 1.388 . S
C216 C217 1.390 1_565 S
C217 C216 1.390 1_545 S
C217 C218 1.394 . S
C217 C223 1.465 1_545 S
C218 C213 1.399 . S
C218 C217 1.394 . S
C218 C219 1.516 . S
C219 C218 1.516 . S
C219 C220 1.502 . S
C219 C221 1.561 . S
C219 C222 1.526 . S
C220 H204 0.959 1_556 S
C220 H205 0.959 1_556 S
C220 H206 0.961 . S
C220 C219 1.502 . S
C221 H207 0.960 . S
C221 H208 0.961 . S
C221 H209 0.959 . S
C221 C219 1.561 . S
C222 C219 1.526 . S
C222 C223 1.396 1_545 S
C222 C227 1.390 1_556 S
C223 C217 1.465 1_565 S
C223 C222 1.396 1_565 S
C223 C224 1.399 . S
C224 H210 0.929 . S
C224 C223 1.399 . S
C224 C225 1.385 1_556 S
C225 H211 0.931 . S
C225 C224 1.385 1_554 S
C225 C226 1.389 1_565 S
C226 C225 1.389 1_545 S
C226 C227 1.387 . S
C227 H212 0.930 . S
C227 C222 1.390 1_554 S
C227 C226 1.387 . S
H228 C240 0.930 . S
H229 C242 0.930 . S
H230 C243 0.930 . S
H231 C247 0.959 . S
H232 C247 0.959 . S
H233 C247 0.960 . S
H234 C248 0.960 1_565 S
H235 C248 0.961 . S
H236 C248 0.959 . S
H237 C251 0.929 . S
H238 C252 0.931 . S
H239 C254 0.930 . S
C240 H228 0.930 . S
C240 C241 1.399 . S
C240 C245 1.399 . S
C241 C240 1.399 . S
C241 C242 1.376 . S
C242 H229 0.930 . S
C242 C241 1.376 . S
C242 C243 1.388 . S
C243 H230 0.930 . S
C243 C242 1.388 . S
C243 C244 1.390 . S
C244 C243 1.390 . S
C244 C245 1.394 . S
C244 C250 1.465 . S
C245 C240 1.399 . S
C245 C244 1.394 . S
C245 C246 1.516 . S
C246 C245 1.516 . S
C246 C247 1.502 . S
C246 C248 1.561 . S
C246 C249 1.526 . S
C247 H231 0.959 . S
C247 H232 0.959 . S
C247 H233 0.960 . S
C247 C246 1.502 . S
C248 H234 0.960 1_545 S
C248 H235 0.961 . S
C248 H236 0.959 . S
C248 C246 1.561 . S
C249 C246 1.526 . S
C249 C250 1.396 . S
C249 C254 1.390 . S
C250 C244 1.465 . S
C250 C249 1.396 . S
C250 C251 1.399 . S
C251 H237 0.929 . S
C251 C250 1.399 . S
C251 C252 1.385 . S
C252 H238 0.931 . S
C252 C251 1.385 . S
C252 C253 1.389 . S
C253 C252 1.389 . S
C253 C254 1.387 . S
C254 H239 0.930 . S
C254 C249 1.390 . S
C254 C253 1.387 . S
H255 C267 0.930 . S
H256 C269 0.930 . S
H257 C270 0.930 . S
H258 C274 0.959 . S
H259 C274 0.959 . S
H260 C274 0.961 . S
H261 C275 0.960 . S
H262 C275 0.961 . S
H263 C275 0.959 . S
H264 C278 0.929 . S
H265 C279 0.931 . S
H266 C281 0.930 1_545 S
C267 H255 0.930 . S
C267 C268 1.399 1_545 S
C267 C272 1.399 1_545 S
C268 C267 1.399 1_565 S
C268 C269 1.376 . S
C269 H256 0.930 . S
C269 C268 1.376 . S
C269 C270 1.388 . S
C270 H257 0.930 . S
C270 C269 1.388 . S
C270 C271 1.390 . S
C271 C270 1.390 . S
C271 C272 1.394 . S
C271 C277 1.465 . S
C272 C267 1.399 1_565 S
C272 C271 1.394 . S
C272 C273 1.516 1_565 S
C273 C272 1.516 1_545 S
C273 C274 1.502 . S
C273 C275 1.561 . S
C273 C276 1.526 1_545 S
C274 H258 0.959 . S
C274 H259 0.959 . S
C274 H260 0.961 . S
C274 C273 1.502 . S
C275 H261 0.960 . S
C275 H262 0.961 . S
C275 H263 0.959 . S
C275 C273 1.561 . S
C276 C273 1.526 1_565 S
C276 C277 1.396 . S
C276 C281 1.390 . S
C277 C271 1.465 . S
C277 C276 1.396 . S
C277 C278 1.399 . S
C278 H264 0.929 . S
C278 C277 1.399 . S
C278 C279 1.385 . S
C279 H265 0.931 . S
C279 C278 1.385 . S
C279 C280 1.389 . S
C280 C279 1.389 . S
C280 C281 1.387 . S
C281 H266 0.930 1_565 S
C281 C276 1.390 . S
C281 C280 1.387 . S
H282 C294 0.930 1_455 S
H283 C296 0.930 . S
H284 C297 0.930 . S
H285 C301 0.959 . S
H286 C301 0.959 1_545 S
H287 C301 0.961 1_546 S
H288 C302 0.960 1_545 S
H289 C302 0.961 . S
H290 C302 0.959 . S
H291 C305 0.929 . S
H292 C306 0.931 . S
H293 C308 0.930 . S
C294 H282 0.930 1_655 S
C294 C295 1.399 . S
C294 C299 1.399 . S
C295 C294 1.399 . S
C295 C296 1.376 . S
C296 H283 0.930 . S
C296 C295 1.376 . S
C296 C297 1.388 . S
C297 H284 0.930 . S
C297 C296 1.388 . S
C297 C298 1.390 . S
C298 C297 1.390 . S
C298 C299 1.394 . S
C298 C304 1.465 1_556 S
C299 C294 1.399 . S
C299 C298 1.394 . S
C299 C300 1.516 . S
C300 C299 1.516 . S
C300 C301 1.502 1_656 S
C300 C302 1.561 . S
C300 C303 1.526 1_556 S
C301 H285 0.959 . S
C301 H286 0.959 1_565 S
C301 H287 0.961 1_564 S
C301 C300 1.502 1_454 S
C302 H288 0.960 1_565 S
C302 H289 0.961 . S
C302 H290 0.959 . S
C302 C300 1.561 . S
C303 C300 1.526 1_554 S
C303 C304 1.396 . S
C303 C308 1.390 . S
C304 C298 1.465 1_554 S
C304 C303 1.396 . S
C304 C305 1.399 . S
C305 H291 0.929 . S
C305 C304 1.399 . S
C305 C306 1.385 . S
C306 H292 0.931 . S
C306 C305 1.385 . S
C306 C307 1.389 . S
C307 C306 1.389 . S
C307 C308 1.387 . S
C308 H293 0.930 . S
C308 C303 1.390 . S
C308 C307 1.387 . S
H309 C321 0.930 . S
H310 C323 0.930 . S
H311 C324 0.930 . S
H312 C328 0.959 . S
H313 C328 0.959 . S
H314 C328 0.961 . S
H315 C329 0.960 . S
H316 C329 0.961 . S
H317 C329 0.959 . S
H318 C332 0.929 . S
H319 C333 0.931 . S
H320 C335 0.930 . S
C321 H309 0.930 . S
C321 C322 1.399 . S
C321 C326 1.399 . S
C322 C321 1.399 . S
C322 C323 1.376 . S
C323 H310 0.930 . S
C323 C322 1.376 . S
C323 C324 1.388 . S
C324 H311 0.930 . S
C324 C323 1.388 . S
C324 C325 1.390 . S
C325 C324 1.390 . S
C325 C326 1.394 . S
C325 C331 1.465 . S
C326 C321 1.399 . S
C326 C325 1.394 . S
C326 C327 1.516 . S
C327 C326 1.516 . S
C327 C328 1.502 . S
C327 C329 1.561 . S
C327 C330 1.526 . S
C328 H312 0.959 . S
C328 H313 0.959 . S
C328 H314 0.961 . S
C328 C327 1.502 . S
C329 H315 0.960 . S
C329 H316 0.961 . S
C329 H317 0.959 . S
C329 C327 1.561 . S
C330 C327 1.526 . S
C330 C331 1.396 . S
C330 C335 1.390 . S
C331 C325 1.465 . S
C331 C330 1.396 . S
C331 C332 1.399 . S
C332 H318 0.929 . S
C332 C331 1.399 . S
C332 C333 1.385 . S
C333 H319 0.931 . S
C333 C332 1.385 . S
C333 C334 1.389 . S
C334 C333 1.389 . S
C334 C335 1.387 . S
C335 H320 0.930 . S
C335 C330 1.390 . S
C335 C334 1.387 . S
H336 C348 0.930 . S
H337 C350 0.930 . S
H338 C351 0.930 . S
H339 C355 0.959 . S
H340 C355 0.959 . S
H341 C355 0.961 . S
H342 C356 0.960 . S
H343 C356 0.961 . S
H344 C356 0.959 . S
H345 C359 0.929 . S
H346 C360 0.931 . S
H347 C362 0.930 . S
C348 H336 0.930 . S
C348 C349 1.399 . S
C348 C353 1.399 . S
C349 C348 1.399 . S
C349 C350 1.376 . S
C350 H337 0.930 . S
C350 C349 1.376 . S
C350 C351 1.388 1_455 S
C351 H338 0.930 . S
C351 C350 1.388 1_655 S
C351 C352 1.390 1_655 S
C352 C351 1.390 1_455 S
C352 C353 1.394 . S
C352 C358 1.465 . S
C353 C348 1.399 . S
C353 C352 1.394 . S
C353 C354 1.516 . S
C354 C353 1.516 . S
C354 C355 1.502 . S
C354 C356 1.561 . S
C354 C357 1.526 . S
C355 H339 0.959 . S
C355 H340 0.959 . S
C355 H341 0.961 . S
C355 C354 1.502 . S
C356 H342 0.960 . S
C356 H343 0.961 . S
C356 H344 0.959 . S
C356 C354 1.561 . S
C357 C354 1.526 . S
C357 C358 1.396 . S
C357 C362 1.390 . S
C358 C352 1.465 . S
C358 C357 1.396 . S
C358 C359 1.399 1_455 S
C359 H345 0.929 . S
C359 C358 1.399 1_655 S
C359 C360 1.385 . S
C360 H346 0.931 . S
C360 C359 1.385 . S
C360 C361 1.389 . S
C361 C360 1.389 . S
C361 C362 1.387 1_655 S
C362 H347 0.930 . S
C362 C357 1.390 . S
C362 C361 1.387 1_455 S
C133 C2 1.546 . S
C145 C15 1.603 1_655 S
C160 C55 1.667 1_545 S
C172 C42 1.626 1_455 S
C187 C82 1.395 . S
C199 C95 1.338 . S
C214 C89 0.958 . S
C226 C26 0.942 1_545 S
C241 C43 1.884 . S
C253 C9 1.841 . S
C268 C83 2.401 . S
C280 C62 2.405 . S
C295 C102 2.334 . S
C307 C3 2.319 . S
C322 C22 1.856 . S
C334 C66 1.751 . S
C349 C106 0.971 . S
C361 C49 1.028 . S
