# Generated by pormake.
# Topology wju, (5)-cn, num edge types: 1
# Building blocks:
#     Node 0, Type 0, BuildingBlock: BEQFEK_clean_sbu_0, # of connection points: 5
#     Node 1, Type 0, BuildingBlock: BEQFEK_clean_sbu_0, # of connection points: 5
#     Node 2, Type 0, BuildingBlock: BEQFEK_clean_sbu_0, # of connection points: 5
#     Node 3, Type 0, BuildingBlock: BEQFEK_clean_sbu_0, # of connection points: 5
#     Node 4, Type 0, BuildingBlock: BEQFEK_clean_sbu_0, # of connection points: 5
#     Node 5, Type 0, BuildingBlock: BEQFEK_clean_sbu_0, # of connection points: 5
#     Node 6, Type 0, BuildingBlock: BEQFEK_clean_sbu_0, # of connection points: 5
#     Node 7, Type 0, BuildingBlock: BEQFEK_clean_sbu_0, # of connection points: 5
#     Node 8, Type 0, BuildingBlock: BEQFEK_clean_sbu_0, # of connection points: 5
#     Node 9, Type 0, BuildingBlock: BEQFEK_clean_sbu_0, # of connection points: 5
#     Node 10, Type 0, BuildingBlock: BEQFEK_clean_sbu_0, # of connection points: 5
#     Node 11, Type 0, BuildingBlock: BEQFEK_clean_sbu_0, # of connection points: 5
#     Edge 12, Type (0, 0), BuildingBlock: TEMPAE_clean_linker_10, # of connection points: 2
#     Edge 13, Type (0, 0), BuildingBlock: TEMPAE_clean_linker_10, # of connection points: 2
#     Edge 14, Type (0, 0), BuildingBlock: TEMPAE_clean_linker_10, # of connection points: 2
#     Edge 15, Type (0, 0), BuildingBlock: TEMPAE_clean_linker_10, # of connection points: 2
#     Edge 16, Type (0, 0), BuildingBlock: TEMPAE_clean_linker_10, # of connection points: 2
#     Edge 17, Type (0, 0), BuildingBlock: TEMPAE_clean_linker_10, # of connection points: 2
#     Edge 18, Type (0, 0), BuildingBlock: TEMPAE_clean_linker_10, # of connection points: 2
#     Edge 19, Type (0, 0), BuildingBlock: TEMPAE_clean_linker_10, # of connection points: 2
#     Edge 20, Type (0, 0), BuildingBlock: TEMPAE_clean_linker_10, # of connection points: 2
#     Edge 21, Type (0, 0), BuildingBlock: TEMPAE_clean_linker_10, # of connection points: 2
#     Edge 22, Type (0, 0), BuildingBlock: TEMPAE_clean_linker_10, # of connection points: 2
#     Edge 23, Type (0, 0), BuildingBlock: TEMPAE_clean_linker_10, # of connection points: 2
#     Edge 24, Type (0, 0), BuildingBlock: TEMPAE_clean_linker_10, # of connection points: 2
#     Edge 25, Type (0, 0), BuildingBlock: TEMPAE_clean_linker_10, # of connection points: 2
#     Edge 26, Type (0, 0), BuildingBlock: TEMPAE_clean_linker_10, # of connection points: 2
#     Edge 27, Type (0, 0), BuildingBlock: TEMPAE_clean_linker_10, # of connection points: 2
#     Edge 28, Type (0, 0), BuildingBlock: TEMPAE_clean_linker_10, # of connection points: 2
#     Edge 29, Type (0, 0), BuildingBlock: TEMPAE_clean_linker_10, # of connection points: 2
#     Edge 30, Type (0, 0), BuildingBlock: TEMPAE_clean_linker_10, # of connection points: 2
#     Edge 31, Type (0, 0), BuildingBlock: TEMPAE_clean_linker_10, # of connection points: 2
#     Edge 32, Type (0, 0), BuildingBlock: TEMPAE_clean_linker_10, # of connection points: 2
#     Edge 33, Type (0, 0), BuildingBlock: TEMPAE_clean_linker_10, # of connection points: 2
#     Edge 34, Type (0, 0), BuildingBlock: TEMPAE_clean_linker_10, # of connection points: 2
#     Edge 35, Type (0, 0), BuildingBlock: TEMPAE_clean_linker_10, # of connection points: 2
#     Edge 36, Type (0, 0), BuildingBlock: TEMPAE_clean_linker_10, # of connection points: 2
#     Edge 37, Type (0, 0), BuildingBlock: TEMPAE_clean_linker_10, # of connection points: 2
#     Edge 38, Type (0, 0), BuildingBlock: TEMPAE_clean_linker_10, # of connection points: 2
#     Edge 39, Type (0, 0), BuildingBlock: TEMPAE_clean_linker_10, # of connection points: 2
#     Edge 40, Type (0, 0), BuildingBlock: TEMPAE_clean_linker_10, # of connection points: 2
#     Edge 41, Type (0, 0), BuildingBlock: TEMPAE_clean_linker_10, # of connection points: 2
# Relax obj value: 0.122
# Max RMSD: 0.141
# Mean RMSD: 0.141
data_MOF--net-wju--node1-BEQFEK_clean_sbu_0--edge1-TEMPAE_clean_linker_10
_symmetry_space_group_name_H-M    P1
_symmetry_Int_Tables_number       1
_symmetry_cell_setting            triclinic
loop_
_symmetry_equiv_pos_as_xyz
'x, y, z'
_cell_length_a     27.440196
_cell_length_b     27.43116
_cell_length_c     112.84653
_cell_angle_alpha  90.031463
_cell_angle_beta   89.957639
_cell_angle_gamma 119.95696
loop_
_atom_site_label
_atom_site_type_symbol
_atom_site_fract_x
_atom_site_fract_y
_atom_site_fract_z
_atom_type_partial_charge
Co0 Co 0.30717 0.18045 0.11126 0.0
Co1 Co 0.30449 0.16832 0.08331 0.0
C2 C 0.19931 0.12807 0.0975 0.0
O3 O 0.22632 0.14192 0.10723 0.0
O4 O 0.22432 0.13794 0.08754 0.0
C5 C 0.27814 0.13694 0.13482 0.0
O6 O 0.23974 0.09254 0.12911 0.0
C7 C 0.27216 0.11734 0.05929 0.0
C8 C 0.35338 0.16291 0.04985 0.0
C9 C 0.29811 0.12025 0.04848 0.0
N10 N 0.31082 0.15546 0.06673 0.0
N11 N 0.35901 0.18302 0.06096 0.0
C12 C 0.21128 0.08111 0.06239 0.0
H13 H 0.19569 0.10723 0.0666 0.0
H14 H 0.20655 0.04861 0.06888 0.0
H15 H 0.18502 0.06072 0.05448 0.0
C16 C 0.36476 0.11381 0.10894 0.0
N17 N 0.33898 0.14008 0.10422 0.0
N18 N 0.33471 0.132 0.09267 0.0
C19 C 0.35639 0.0991 0.08973 0.0
C20 C 0.37647 0.08688 0.09992 0.0
C21 C 0.38067 0.11716 0.12172 0.0
H22 H 0.39292 0.15936 0.12532 0.0
H23 H 0.34395 0.08515 0.1268 0.0
H24 H 0.4161 0.10899 0.12291 0.0
O25 O 0.34763 0.2596 0.1057 0.0
O26 O 0.35009 0.2508 0.08612 0.0
H27 H 0.38721 0.1105 0.07196 0.0
H28 H 0.36194 0.04048 0.07768 0.0
C29 C 0.35451 0.07669 0.07754 0.0
H30 H 0.31279 0.0627 0.07351 0.0
H31 H 0.3962 0.21466 0.0647 0.0
O32 O 0.31254 0.18002 0.1289 0.0
C33 C 0.36325 0.28115 0.09543 0.0
Co34 Co 0.11693 0.31139 0.44457 0.0
Co35 Co 0.12812 0.30977 0.41663 0.0
C36 C 0.0638 0.20399 0.43068 0.0
O37 O 0.07609 0.23062 0.44046 0.0
O38 O 0.07914 0.2294 0.42078 0.0
C39 C 0.1323 0.28334 0.46814 0.0
O40 O 0.14095 0.24658 0.46243 0.0
C41 C 0.14853 0.27796 0.3927 0.0
C42 C 0.18295 0.35891 0.38321 0.0
C43 C 0.17143 0.30392 0.3819 0.0
N44 N 0.14809 0.31638 0.4001 0.0
N45 N 0.16801 0.36441 0.39428 0.0
C46 C 0.12471 0.21721 0.39585 0.0
H47 H 0.0826 0.20097 0.3999 0.0
H48 H 0.15233 0.21315 0.40248 0.0
H49 H 0.11991 0.191 0.38798 0.0
C50 C 0.24127 0.37114 0.44256 0.0
N51 N 0.18952 0.34451 0.43772 0.0
N52 N 0.19413 0.34091 0.42616 0.0
C53 C 0.24898 0.36402 0.42335 0.0
C54 C 0.28052 0.38418 0.43362 0.0
C55 C 0.25302 0.38669 0.45537 0.0
H56 H 0.22224 0.39788 0.45895 0.0
H57 H 0.24913 0.35018 0.4604 0.0
H58 H 0.29618 0.42275 0.45665 0.0
O59 O 0.0774 0.35086 0.43888 0.0
O60 O 0.08995 0.3542 0.41933 0.0
H61 H 0.26836 0.39611 0.40568 0.0
H62 H 0.31478 0.37289 0.41139 0.0
C63 C 0.2706 0.36379 0.41118 0.0
H64 H 0.24427 0.32206 0.40702 0.0
H65 H 0.17268 0.40139 0.39797 0.0
O66 O 0.12163 0.31639 0.46222 0.0
C67 C 0.07176 0.36658 0.4286 0.0
Co68 Co 0.80351 0.11825 0.7786 0.0
Co69 Co 0.81667 0.13234 0.75067 0.0
C70 C 0.86709 0.07546 0.76444 0.0
O71 O 0.84675 0.0802 0.77424 0.0
O72 O 0.8583 0.09362 0.75478 0.0
C73 C 0.84742 0.13541 0.80215 0.0
O74 O 0.89386 0.14778 0.79641 0.0
C75 C 0.86783 0.15604 0.72658 0.0
C76 C 0.81747 0.18684 0.71736 0.0
C77 C 0.8627 0.17817 0.71585 0.0
N78 N 0.82844 0.1533 0.73414 0.0
N79 N 0.79807 0.17109 0.72848 0.0
C80 C 0.90721 0.13481 0.72944 0.0
H81 H 0.88364 0.09302 0.73373 0.0
H82 H 0.9397 0.16428 0.73572 0.0
H83 H 0.92772 0.13011 0.7214 0.0
C84 C 0.85836 0.24252 0.77701 0.0
N85 N 0.83803 0.19148 0.77198 0.0
N86 N 0.84485 0.19753 0.7604 0.0
C87 C 0.87154 0.25278 0.75777 0.0
C88 C 0.88038 0.28295 0.76818 0.0
C89 C 0.85332 0.25212 0.7899 0.0
H90 H 0.81245 0.21859 0.79339 0.0
H91 H 0.88769 0.25095 0.79483 0.0
H92 H 0.85655 0.29361 0.79143 0.0
O93 O 0.72517 0.07753 0.77295 0.0
O94 O 0.7337 0.08421 0.7533 0.0
H95 H 0.85625 0.27227 0.74032 0.0
H96 H 0.92504 0.32143 0.74602 0.0
C97 C 0.89205 0.27639 0.74565 0.0
H98 H 0.90984 0.25272 0.74121 0.0
H99 H 0.76477 0.17364 0.73231 0.0
O100 O 0.80287 0.12167 0.79626 0.0
C101 C 0.70348 0.06738 0.76263 0.0
Co102 Co 0.67501 0.80032 0.11102 0.0
Co103 Co 0.675 0.81191 0.08318 0.0
C104 C 0.7817 0.86337 0.09723 0.0
O105 O 0.75551 0.84723 0.10703 0.0
O106 O 0.75598 0.85073 0.08736 0.0
C107 C 0.70036 0.8445 0.13452 0.0
O108 O 0.73401 0.89084 0.12871 0.0
C109 C 0.70279 0.87366 0.06063 0.0
C110 C 0.64381 0.80915 0.04816 0.0
C111 C 0.68675 0.86488 0.04873 0.0
N112 N 0.67092 0.82557 0.06664 0.0
N113 N 0.63592 0.78713 0.05912 0.0
C114 C 0.74484 0.92723 0.06654 0.0
H115 H 0.7362 0.92539 0.07619 0.0
H116 H 0.74368 0.96373 0.06262 0.0
H117 H 0.7876 0.9331 0.06536 0.0
C118 C 0.60285 0.85207 0.10901 0.0
N119 N 0.63493 0.8329 0.10416 0.0
N120 N 0.6359 0.83909 0.09256 0.0
C121 C 0.60431 0.86234 0.08968 0.0
C122 C 0.5826 0.87148 0.10002 0.0
C123 C 0.58928 0.84902 0.12193 0.0
H124 H 0.58197 0.80854 0.12566 0.0
H125 H 0.62535 0.88388 0.12663 0.0
H126 H 0.55137 0.85285 0.12346 0.0
O127 O 0.64229 0.72139 0.10526 0.0
O128 O 0.63833 0.72959 0.08569 0.0
H129 H 0.58001 0.83902 0.07161 0.0
H130 H 0.56822 0.89463 0.07684 0.0
C131 C 0.59674 0.87702 0.07729 0.0
H132 H 0.63806 0.90892 0.07371 0.0
H133 H 0.60656 0.74589 0.06148 0.0
O134 O 0.66986 0.79961 0.12869 0.0
C135 C 0.62841 0.6995 0.09496 0.0
Co136 Co 0.86581 0.67994 0.44447 0.0
Co137 Co 0.85248 0.67874 0.41663 0.0
C138 C 0.91025 0.78611 0.43031 0.0
O139 O 0.90025 0.76024 0.44015 0.0
O140 O 0.89638 0.76006 0.42046 0.0
C141 C 0.84821 0.70688 0.46795 0.0
O142 O 0.83589 0.74076 0.46211 0.0
C143 C 0.82346 0.70618 0.39334 0.0
C144 C 0.80584 0.63142 0.38274 0.0
C145 C 0.80661 0.68227 0.38216 0.0
N146 N 0.83221 0.67105 0.40017 0.0
N147 N 0.8221 0.6267 0.39374 0.0
C148 C 0.8259 0.75869 0.39785 0.0
H149 H 0.81449 0.75409 0.40738 0.0
H150 H 0.7971 0.76836 0.39279 0.0
H151 H 0.8695 0.79437 0.39689 0.0
C152 C 0.7417 0.6098 0.44282 0.0
N153 N 0.79281 0.64068 0.43784 0.0
N154 N 0.78697 0.64236 0.42628 0.0
C155 C 0.73182 0.61314 0.42357 0.0
C156 C 0.70149 0.59148 0.43396 0.0
C157 C 0.73173 0.59551 0.45572 0.0
H158 H 0.76506 0.58803 0.45929 0.0
H159 H 0.73299 0.63129 0.46057 0.0
H160 H 0.69009 0.55751 0.45723 0.0
O161 O 0.91052 0.64569 0.43873 0.0
O162 O 0.89702 0.64085 0.41922 0.0
H163 H 0.71935 0.58162 0.40585 0.0
H164 H 0.66231 0.59016 0.41142 0.0
C165 C 0.7086 0.60841 0.41136 0.0
H166 H 0.7278 0.65069 0.40728 0.0
H167 H 0.82515 0.59263 0.39693 0.0
O168 O 0.86212 0.67591 0.46214 0.0
C169 C 0.9175 0.63098 0.42843 0.0
Co170 Co 0.18451 0.86832 0.77697 0.0
Co171 Co 0.17168 0.85435 0.74912 0.0
C172 C 0.13217 0.92217 0.76248 0.0
O173 O 0.14973 0.914 0.77231 0.0
O174 O 0.13833 0.90182 0.75283 0.0
C175 C 0.14151 0.85897 0.80046 0.0
O176 O 0.0975 0.85328 0.79465 0.0
C177 C 0.11562 0.82671 0.72571 0.0
C178 C 0.17004 0.80447 0.71535 0.0
C179 C 0.12167 0.80833 0.71462 0.0
N180 N 0.15845 0.83345 0.73266 0.0
N181 N 0.19108 0.82056 0.72636 0.0
C182 C 0.06704 0.83219 0.73003 0.0
H183 H 0.06043 0.8228 0.73965 0.0
H184 H 0.02796 0.80332 0.72516 0.0
H185 H 0.07644 0.87605 0.72858 0.0
C186 C 0.11709 0.74403 0.77563 0.0
N187 N 0.14274 0.79517 0.7705 0.0
N188 N 0.13689 0.78916 0.75891 0.0
C189 C 0.10639 0.73392 0.75633 0.0
C190 C 0.09309 0.70365 0.76683 0.0
C191 C 0.11931 0.73396 0.78861 0.0
H192 H 0.16166 0.76366 0.79214 0.0
H193 H 0.08797 0.74122 0.7933 0.0
H194 H 0.1097 0.69026 0.79037 0.0
O195 O 0.26285 0.9009 0.77145 0.0
O196 O 0.25491 0.89497 0.75178 0.0
H197 H 0.12575 0.71947 0.73877 0.0
H198 H 0.0582 0.66492 0.74414 0.0
C199 C 0.08827 0.71082 0.74409 0.0
H200 H 0.06751 0.73192 0.7398 0.0
H201 H 0.22709 0.82154 0.72965 0.0
O202 O 0.18413 0.8656 0.79464 0.0
C203 C 0.28474 0.90893 0.76117 0.0
Co204 Co 0.79742 0.68134 0.58117 0.0
Co205 Co 0.8115 0.68161 0.60906 0.0
C206 C 0.85544 0.78821 0.59519 0.0
O207 O 0.84001 0.76205 0.58537 0.0
O208 O 0.84501 0.76234 0.60503 0.0
C209 C 0.83995 0.7096 0.55757 0.0
O210 O 0.88544 0.74608 0.56327 0.0
C211 C 0.86614 0.71224 0.63272 0.0
C212 C 0.81809 0.63205 0.64241 0.0
C213 C 0.86311 0.68633 0.64353 0.0
N214 N 0.82573 0.67445 0.62551 0.0
N215 N 0.79677 0.62689 0.63144 0.0
C216 C 0.9045 0.77253 0.62941 0.0
H217 H 0.87929 0.79045 0.6258 0.0
H218 H 0.93396 0.77489 0.6224 0.0
H219 H 0.9284 0.79848 0.63712 0.0
C220 C 0.85792 0.61731 0.58269 0.0
N221 N 0.83494 0.64561 0.58774 0.0
N222 N 0.84364 0.64845 0.59927 0.0
C223 C 0.87353 0.62305 0.60186 0.0
C224 C 0.88316 0.60222 0.59146 0.0
C225 C 0.85306 0.60228 0.56982 0.0
H226 H 0.81116 0.59222 0.56642 0.0
H227 H 0.88581 0.63867 0.56479 0.0
H228 H 0.85907 0.56563 0.56833 0.0
O229 O 0.71877 0.64402 0.58711 0.0
O230 O 0.72874 0.63983 0.60661 0.0
H231 H 0.86035 0.59026 0.61947 0.0
H232 H 0.929 0.61053 0.61355 0.0
C233 C 0.89537 0.62172 0.61394 0.0
H234 H 0.91272 0.66357 0.61816 0.0
H235 H 0.76319 0.59043 0.6279 0.0
O236 O 0.79628 0.67661 0.5635 0.0
C237 C 0.69779 0.62861 0.59744 0.0
Co238 Co 0.11677 0.80988 0.91365 0.0
Co239 Co 0.13027 0.82215 0.94152 0.0
C240 C 0.07254 0.87193 0.92794 0.0
O241 O 0.07818 0.85237 0.91812 0.0
O242 O 0.09045 0.86301 0.93762 0.0
C243 C 0.13332 0.85412 0.8901 0.0
O244 O 0.1451 0.9004 0.89586 0.0
C245 C 0.1589 0.87722 0.96501 0.0
C246 C 0.17507 0.81878 0.97548 0.0
C247 C 0.17469 0.86903 0.9762 0.0
N248 N 0.15023 0.83376 0.95803 0.0
N249 N 0.15956 0.79879 0.96438 0.0
C250 C 0.15768 0.92808 0.96063 0.0
H251 H 0.17134 0.93625 0.95124 0.0
H252 H 0.18544 0.96575 0.96601 0.0
H253 H 0.11397 0.92025 0.96118 0.0
C254 C 0.24095 0.86466 0.9153 0.0
N255 N 0.18986 0.84454 0.92028 0.0
N256 N 0.19564 0.85076 0.93187 0.0
C257 C 0.25073 0.8765 0.93459 0.0
C258 C 0.28115 0.88572 0.92419 0.0
C259 C 0.25064 0.85998 0.9024 0.0
H260 H 0.21718 0.81915 0.89887 0.0
H261 H 0.24932 0.89439 0.89752 0.0
H262 H 0.29214 0.86331 0.90085 0.0
O263 O 0.07639 0.73133 0.91919 0.0
O264 O 0.08274 0.73928 0.93884 0.0
H265 H 0.26399 0.85753 0.95226 0.0
H266 H 0.3198 0.92415 0.94679 0.0
C267 C 0.27373 0.89499 0.94683 0.0
H268 H 0.25355 0.91699 0.95098 0.0
H269 H 0.15633 0.76174 0.96109 0.0
O270 O 0.12027 0.8097 0.89599 0.0
C271 C 0.06622 0.70934 0.92947 0.0
Co272 Co 0.30502 0.1162 0.24806 0.0
Co273 Co 0.30734 0.13322 0.27581 0.0
C274 C 0.1994 0.07441 0.26228 0.0
O275 O 0.22458 0.08215 0.25241 0.0
O276 O 0.22598 0.09051 0.27203 0.0
C277 C 0.27873 0.13225 0.22444 0.0
O278 O 0.2458 0.14637 0.23012 0.0
C279 C 0.27993 0.16411 0.29891 0.0
C280 C 0.35429 0.18197 0.30965 0.0
C281 C 0.30341 0.18116 0.31011 0.0
N282 N 0.31525 0.15514 0.29217 0.0
N283 N 0.35941 0.16551 0.29869 0.0
C284 C 0.22752 0.16145 0.29429 0.0
H285 H 0.23269 0.1734 0.28479 0.0
H286 H 0.2172 0.18979 0.29937 0.0
H287 H 0.19202 0.11767 0.29511 0.0
C288 C 0.37645 0.24079 0.24912 0.0
N289 N 0.3452 0.19026 0.25433 0.0
N290 N 0.34417 0.1975 0.26586 0.0
C291 C 0.37404 0.25292 0.26831 0.0
C292 C 0.39562 0.28205 0.25779 0.0
C293 C 0.39042 0.24922 0.23619 0.0
H294 H 0.39712 0.21509 0.2328 0.0
H295 H 0.35485 0.24814 0.2313 0.0
H296 H 0.42878 0.29039 0.23452 0.0
O297 O 0.3388 0.07162 0.2541 0.0
O298 O 0.34423 0.08724 0.27355 0.0
H299 H 0.40638 0.26733 0.28597 0.0
H300 H 0.39761 0.3238 0.28012 0.0
C301 C 0.37935 0.27751 0.28041 0.0
H302 H 0.33728 0.25878 0.28458 0.0
H303 H 0.3935 0.16224 0.29559 0.0
O304 O 0.30885 0.11783 0.2304 0.0
C305 C 0.35353 0.06547 0.26446 0.0
Co306 Co 0.17973 0.31231 0.58141 0.0
Co307 Co 0.16585 0.31349 0.60921 0.0
C308 C 0.12006 0.20606 0.59561 0.0
O309 O 0.13587 0.23196 0.58577 0.0
O310 O 0.13095 0.23217 0.60544 0.0
C311 C 0.13753 0.28372 0.55777 0.0
O312 O 0.0915 0.24811 0.56344 0.0
C313 C 0.1083 0.28507 0.63242 0.0
C314 C 0.1628 0.36117 0.64292 0.0
C315 C 0.11391 0.30933 0.64352 0.0
N316 N 0.15185 0.32097 0.6256 0.0
N317 N 0.18451 0.36612 0.63198 0.0
C318 C 0.05975 0.23135 0.62795 0.0
H319 H 0.05292 0.23513 0.61838 0.0
H320 H 0.02071 0.22038 0.63293 0.0
H321 H 0.06946 0.1969 0.62905 0.0
C322 C 0.12148 0.37865 0.58269 0.0
N323 N 0.14335 0.34953 0.58782 0.0
N324 N 0.13518 0.34781 0.59936 0.0
C325 C 0.1072 0.37524 0.6019 0.0
C326 C 0.09784 0.39577 0.59144 0.0
C327 C 0.12584 0.39243 0.56977 0.0
H328 H 0.16744 0.40171 0.56632 0.0
H329 H 0.09265 0.35568 0.5649 0.0
H330 H 0.12017 0.42918 0.56812 0.0
O331 O 0.25837 0.34874 0.58733 0.0
O332 O 0.24857 0.35379 0.60681 0.0
H333 H 0.12429 0.40731 0.6196 0.0
H334 H 0.05797 0.39589 0.61383 0.0
C335 C 0.08746 0.37932 0.61404 0.0
H336 H 0.06561 0.33708 0.61816 0.0
H337 H 0.22101 0.40089 0.62878 0.0
O338 O 0.18124 0.31626 0.56373 0.0
C339 C 0.27945 0.36423 0.59765 0.0
Co340 Co 0.86533 0.18968 0.91526 0.0
Co341 Co 0.85389 0.17829 0.94316 0.0
C342 C 0.91914 0.1368 0.9294 0.0
O343 O 0.91073 0.15432 0.9196 0.0
O344 O 0.89969 0.14367 0.9391 0.0
C345 C 0.8545 0.14618 0.89178 0.0
O346 O 0.8499 0.10261 0.89761 0.0
C347 C 0.82373 0.11866 0.96609 0.0
C348 C 0.82243 0.18173 0.97803 0.0
C349 C 0.81459 0.12765 0.97787 0.0
N350 N 0.83631 0.1651 0.95976 0.0
N351 N 0.8357 0.20271 0.96697 0.0
C352 C 0.81712 0.06597 0.96063 0.0
H353 H 0.81129 0.06611 0.9509 0.0
H354 H 0.78055 0.02837 0.96454 0.0
H355 H 0.85566 0.06355 0.96231 0.0
C356 C 0.74132 0.12357 0.91713 0.0
N357 N 0.79277 0.14898 0.92208 0.0
N358 N 0.78757 0.14454 0.93371 0.0
C359 C 0.73247 0.11574 0.9365 0.0
C360 C 0.7015 0.10138 0.92608 0.0
C361 C 0.7305 0.12428 0.90415 0.0
H362 H 0.75961 0.16641 0.90042 0.0
H363 H 0.73807 0.09283 0.89959 0.0
H364 H 0.68659 0.11402 0.90241 0.0
O365 O 0.89933 0.26829 0.92072 0.0
O366 O 0.89529 0.26134 0.94041 0.0
H367 H 0.7282 0.13923 0.95442 0.0
H368 H 0.66386 0.07884 0.9493 0.0
C369 C 0.71034 0.10066 0.9489 0.0
H370 H 0.7237 0.07206 0.95271 0.0
H371 H 0.84408 0.24262 0.96433 0.0
O372 O 0.86097 0.18878 0.89759 0.0
C373 C 0.90863 0.29071 0.93096 0.0
Co374 Co 0.67457 0.86784 0.24777 0.0
Co375 Co 0.675 0.85406 0.27563 0.0
C376 C 0.78162 0.92182 0.26187 0.0
O377 O 0.75525 0.91086 0.25206 0.0
O378 O 0.7556 0.90394 0.27167 0.0
C379 C 0.7047 0.85566 0.22414 0.0
O380 O 0.74284 0.84908 0.2298 0.0
C381 C 0.70585 0.83226 0.29951 0.0
C382 C 0.62453 0.79676 0.30889 0.0
C383 C 0.67963 0.80878 0.31026 0.0
N384 N 0.66757 0.83269 0.2921 0.0
N385 N 0.61927 0.81204 0.29784 0.0
C386 C 0.7668 0.85713 0.29647 0.0
H387 H 0.78265 0.8999 0.29284 0.0
H388 H 0.77162 0.83114 0.28954 0.0
H389 H 0.79272 0.86076 0.30431 0.0
C390 C 0.61667 0.74314 0.24927 0.0
N391 N 0.64244 0.79452 0.25432 0.0
N392 N 0.64516 0.78892 0.26586 0.0
C393 C 0.62235 0.73387 0.26846 0.0
C394 C 0.60325 0.70313 0.25805 0.0
C395 C 0.60207 0.7324 0.23639 0.0
H396 H 0.58987 0.76266 0.23296 0.0
H397 H 0.6394 0.73809 0.2314 0.0
H398 H 0.567 0.68892 0.23489 0.0
O399 O 0.6332 0.90532 0.25357 0.0
O400 O 0.62995 0.89188 0.27307 0.0
H401 H 0.58887 0.71291 0.286 0.0
H402 H 0.61288 0.66721 0.28022 0.0
C403 C 0.62172 0.7113 0.28057 0.0
H404 H 0.66306 0.73746 0.28488 0.0
H405 H 0.58232 0.80725 0.29412 0.0
O406 O 0.67024 0.86413 0.2301 0.0
C407 C 0.61718 0.91016 0.26389 0.0
C408 C 0.29519 0.10655 0.02654 0.0
C409 C 0.27551 0.08382 0.03783 0.0
C410 C 0.27766 0.07239 0.01638 0.0
C411 C 0.23935 0.014 0.01751 0.0
C412 C 0.21896 0.99085 0.02888 0.0
C413 C 0.23797 0.02586 0.03891 0.0
C414 C 0.30108 0.09859 1.00445 0.0
C415 C 0.17797 0.92885 0.03048 0.0
C416 C 0.16022 0.93245 0.99 0.0
C417 C 0.19101 0.9064 0.9867 0.0
C418 C 0.17527 0.96739 1.00003 0.0
C419 C 0.22245 0.97676 1.00688 0.0
C420 C 0.25357 0.9504 1.00357 0.0
C421 C 0.23711 0.9151 0.99359 0.0
C422 C 0.14041 -0.00612 1.00338 0.0
C423 C 0.30454 0.95979 1.01053 0.0
H424 H 0.32481 0.15118 0.02567 0.0
H425 H 0.22465 0.00736 0.04762 0.0
H426 H 0.32475 0.07943 1.00055 0.0
H427 H 0.26629 0.09004 0.99827 0.0
H428 H 0.32959 0.14482 1.00504 0.0
H429 H 0.16296 0.91821 0.03977 0.0
H430 H 0.14103 0.91546 0.0246 0.0
H431 H 0.1983 0.90416 0.02792 0.0
H432 H 0.12372 0.92469 0.98485 0.0
H433 H 0.26092 0.89492 0.99106 0.0
H434 H 0.16717 0.04037 1.0035 0.0
H435 H 0.1232 0.98054 1.01245 0.0
H436 H 0.10491 0.98227 0.99716 0.0
H437 H 0.33605 0.00536 1.0108 0.0
H438 H 0.32469 0.93691 1.00668 0.0
H439 H 0.29244 0.94569 0.01982 0.0
C440 C 0.20722 0.24477 0.37243 0.0
C441 C 0.18587 0.28154 0.37129 0.0
C442 C 0.22366 0.2259 0.36244 0.0
C443 C 0.22044 0.24571 0.35104 0.0
C444 C 0.19944 0.28327 0.34984 0.0
C445 C 0.18235 0.30064 0.35997 0.0
C446 C 0.24564 0.18571 0.36411 0.0
C447 C 0.19615 0.30609 0.33787 0.0
C448 C 0.31824 0.24442 0.32728 0.0
C449 C 0.28153 0.19775 0.32044 0.0
C450 C 0.29877 0.26085 0.33717 0.0
C451 C 0.24134 0.22909 0.34044 0.0
C452 C 0.20419 0.18142 0.33364 0.0
C453 C 0.2247 0.16645 0.32368 0.0
C454 C 0.33964 0.31237 0.34408 0.0
C455 C 0.14294 0.14587 0.33696 0.0
H456 H 0.21277 0.23194 0.38116 0.0
H457 H 0.16662 0.32967 0.35904 0.0
H458 H 0.22264 0.14854 0.35826 0.0
H459 H 0.29068 0.20663 0.36157 0.0
H460 H 0.24147 0.17096 0.37342 0.0
H461 H 0.17768 0.334 0.33841 0.0
H462 H 0.23889 0.33026 0.33397 0.0
H463 H 0.17038 0.27095 0.33172 0.0
H464 H 0.36223 0.26863 0.32479 0.0
H465 H 0.19649 0.12952 0.31857 0.0
H466 H 0.34201 0.30066 0.35338 0.0
H467 H 0.32469 0.34322 0.34431 0.0
H468 H 0.38263 0.33316 0.34022 0.0
H469 H 0.13929 0.12881 0.34604 0.0
H470 H 0.11955 0.11019 0.33075 0.0
H471 H 0.12257 0.17206 0.33705 0.0
C472 C 0.9573 0.21719 0.70608 0.0
C473 C 0.89884 0.19369 0.70512 0.0
C474 C -0.00818 0.23357 0.69598 0.0
C475 C 0.96759 0.22806 0.68463 0.0
C476 C 0.9087 0.20518 0.6836 0.0
C477 C 0.87507 0.18824 0.69385 0.0
C478 C 0.05439 0.25768 0.69747 0.0
C479 C 0.88133 0.19946 0.67169 0.0
C480 C 0.06398 0.32427 0.66039 0.0
C481 C 0.07533 0.28767 0.65383 0.0
C482 C 0.02825 0.30518 0.67029 0.0
C483 C 0.00419 0.2483 0.67389 0.0
C484 C 0.01591 0.21123 0.66735 0.0
C485 C 0.05119 0.23132 0.65736 0.0
C486 C 0.01627 0.34592 0.67691 0.0
C487 C -0.00807 0.15059 0.67102 0.0
H488 H 0.97644 0.22417 0.71477 0.0
H489 H 0.83001 0.17084 0.69306 0.0
H490 H 0.06912 0.23452 0.69181 0.0
H491 H 0.07706 0.30227 0.69458 0.0
H492 H 0.06613 0.25565 0.70681 0.0
H493 H 0.83491 0.18004 0.67238 0.0
H494 H 0.89857 0.24152 0.66752 0.0
H495 H 0.89104 0.17339 0.66569 0.0
H496 H 0.08262 0.36788 0.65767 0.0
H497 H 0.06093 0.20324 0.65247 0.0
H498 H 0.03129 0.35034 0.68619 0.0
H499 H 0.97025 0.32954 0.67727 0.0
H500 H 0.03684 0.38827 0.67275 0.0
H501 H 0.00641 0.14862 0.6801 0.0
H502 H 0.00455 0.12703 0.66492 0.0
H503 H 0.94534 0.12921 0.67129 0.0
C504 C 0.81075 0.04588 0.9891 0.0
C505 C 0.79761 0.08912 0.9883 0.0
C506 C 0.79329 0.00905 0.99885 0.0
C507 C 0.76391 0.01691 1.00829 0.0
C508 C 0.75235 0.06169 1.00778 0.0
C509 C 0.76891 0.09687 0.99778 0.0
C510 C 0.806 0.96146 0.99899 0.0
C511 C 0.72234 0.0724 0.01779 0.0
C512 C 0.67212 0.89436 0.02867 0.0
C513 C 0.70747 0.90456 0.03847 0.0
C514 C 0.69018 0.9301 0.01876 0.0
C515 C 0.74473 0.97797 0.01867 0.0
C516 C 0.7808 0.98854 0.02848 0.0
C517 C 0.76218 0.95115 0.03814 0.0
C518 C 0.65085 0.91652 1.00835 0.0
C519 C 0.83912 0.03947 0.0288 0.0
H520 H 0.83543 0.04095 0.98226 0.0
H521 H 0.75899 0.13044 0.99737 0.0
H522 H 0.83334 0.96621 1.00665 0.0
H523 H 0.76645 0.92068 1.00008 0.0
H524 H 0.82727 0.95973 0.99075 0.0
H525 H 0.71862 0.11041 0.01625 0.0
H526 H 0.67949 0.03565 0.01889 0.0
H527 H 0.74519 0.07778 0.02623 0.0
H528 H 0.62996 0.85826 0.02872 0.0
H529 H 0.7912 0.95825 0.04526 0.0
H530 H 0.6712 0.91293 1.00015 0.0
H531 H 0.64159 0.9511 1.00695 0.0
H532 H 0.61047 0.87666 1.00963 0.0
H533 H 0.86495 0.03713 0.0215 0.0
H534 H 0.86094 0.04326 0.03733 0.0
H535 H 0.83675 0.07829 0.02742 0.0
C536 C 0.6832 0.79857 0.3322 0.0
C537 C 0.70214 0.79472 0.32088 0.0
C538 C 0.70114 0.78228 0.34236 0.0
C539 C 0.73909 0.76174 0.34117 0.0
C540 C 0.75861 0.75806 0.32977 0.0
C541 C 0.7392 0.77371 0.31976 0.0
C542 C 0.67859 0.786 0.35433 0.0
C543 C 0.79917 0.7365 0.32811 0.0
C544 C 0.81999 0.75999 0.36844 0.0
C545 C 0.78933 0.7033 0.37182 0.0
C546 C 0.80425 0.77967 0.35847 0.0
C547 C 0.75645 0.74179 0.35179 0.0
C548 C 0.72531 0.6845 0.3552 0.0
C549 C 0.7425 0.66588 0.3651 0.0
C550 C 0.83914 0.84079 0.355 0.0
C551 C 0.67367 0.64287 0.34843 0.0
H552 H 0.65394 0.81403 0.33312 0.0
H553 H 0.7519 0.76793 0.31102 0.0
H554 H 0.655 0.74346 0.35834 0.0
H555 H 0.71385 0.81246 0.36039 0.0
H556 H 0.65024 0.80395 0.35377 0.0
H557 H 0.81349 0.74011 0.31877 0.0
H558 H 0.83657 0.76024 0.33386 0.0
H559 H 0.77878 0.69167 0.33079 0.0
H560 H 0.857 0.78876 0.37346 0.0
H561 H 0.71875 0.622 0.36769 0.0
H562 H 0.81255 0.86073 0.35489 0.0
H563 H 0.85588 0.8441 0.3459 0.0
H564 H 0.87499 0.86483 0.36113 0.0
H565 H 0.64251 0.65741 0.3482 0.0
H566 H 0.65339 0.60012 0.3524 0.0
H567 H 0.68505 0.64006 0.33912 0.0
C568 C 0.07144 0.74399 0.6977 0.0
C569 C 0.08353 0.79215 0.70425 0.0
C570 C 0.03518 0.72749 0.68789 0.0
C571 C 0.01133 0.76065 0.68438 0.0
C572 C 0.02416 0.80989 0.69087 0.0
C573 C 0.05995 0.82493 0.70076 0.0
C574 C 0.02206 0.67432 0.68133 0.0
C575 C 0.00045 0.84692 0.68728 0.0
C576 C 0.95932 0.74259 0.65255 0.0
C577 C 0.90102 0.70817 0.65396 0.0
C578 C -0.00449 0.76131 0.66239 0.0
C579 C 0.97311 0.74374 0.67392 0.0
C580 C 0.91436 0.70836 0.67539 0.0
C581 C 0.87907 0.69107 0.6654 0.0
C582 C 0.05787 0.79909 0.66042 0.0
C583 C 0.88887 0.68795 0.68751 0.0
H584 H 0.08967 0.7186 0.70039 0.0
H585 H 0.07029 0.86294 0.70563 0.0
H586 H 0.97601 0.64475 0.68135 0.0
H587 H 0.03539 0.68418 0.67194 0.0
H588 H 0.04332 0.65279 0.6853 0.0
H589 H 0.01469 0.88391 0.69322 0.0
H590 H 0.0134 0.8621 0.67808 0.0
H591 H 0.95382 0.82235 0.68742 0.0
H592 H 0.97702 0.75375 0.64372 0.0
H593 H 0.83412 0.66381 0.66654 0.0
H594 H 0.08062 0.77698 0.66314 0.0
H595 H 0.07387 0.83744 0.66598 0.0
H596 H 0.06814 0.81204 0.65101 0.0
H597 H 0.90643 0.66317 0.69156 0.0
H598 H 0.84233 0.6613 0.68717 0.0
H599 H 0.89987 0.72432 0.69342 0.0
C600 C 0.56683 0.94569 0.10869 0.0
C601 C 0.54838 0.89879 0.1013 0.0
C602 C 0.53689 0.9746 0.10943 0.0
C603 C 0.48769 0.95611 0.10253 0.0
C604 C 0.46779 0.9074 0.09538 0.0
C605 C 0.49833 0.87902 0.09492 0.0
C606 C 0.55902 0.02607 0.11723 0.0
C607 C 0.41551 0.88654 0.0879 0.0
C608 C 0.38837 0.01109 0.10926 0.0
C609 C 0.40543 0.05401 0.10084 0.0
C610 C 0.41509 0.97897 0.11002 0.0
C611 C 0.45947 0.99009 0.10209 0.0
C612 C 0.47698 0.03372 0.09362 0.0
C613 C 0.44987 0.0654 0.09315 0.0
C614 C 0.39566 0.93298 0.1192 0.0
C615 C 0.5241 0.04671 0.085 0.0
H616 H 0.60559 0.96068 0.11364 0.0
H617 H 0.48373 0.84196 0.08939 0.0
H618 H 0.57319 0.06406 0.11164 0.0
H619 H 0.52519 0.02305 0.1231 0.0
H620 H 0.5949 0.03188 0.1228 0.0
H621 H 0.40387 0.84612 0.0834 0.0
H622 H 0.3796 0.8807 0.09345 0.0
H623 H 0.42242 0.91836 0.08104 0.0
H624 H 0.35366 0.0022 0.11515 0.0
H625 H 0.46342 0.09921 0.08675 0.0
H626 H 0.43146 0.94 0.12492 0.0
H627 H 0.38006 0.89169 0.11478 0.0
H628 H 0.3616 0.93079 0.1249 0.0
H629 H 0.56335 0.05803 0.08992 0.0
H630 H 0.5323 0.08185 0.07892 0.0
H631 H 0.51365 0.00888 0.07961 0.0
C632 C 0.37497 0.46013 0.42736 0.0
C633 C 0.3422 0.41413 0.43471 0.0
C634 C 0.43373 0.48804 0.42796 0.0
C635 C 0.46001 0.46945 0.43615 0.0
C636 C 0.42697 0.42354 0.44375 0.0
C637 C 0.36819 0.3963 0.44293 0.0
C638 C 0.46765 0.53696 0.41973 0.0
C639 C 0.45371 0.4027 0.45259 0.0
C640 C 0.60942 0.50918 0.4284 0.0
C641 C 0.64004 0.55755 0.43528 0.0
C642 C 0.55059 0.47885 0.4289 0.0
C643 C 0.52215 0.49748 0.4365 0.0
C644 C 0.55314 0.54514 0.44382 0.0
C645 C 0.61198 0.57473 0.44311 0.0
C646 C 0.51887 0.4281 0.42099 0.0
C647 C 0.52414 0.56606 0.45205 0.0
H648 H 0.35451 0.47415 0.42112 0.0
H649 H 0.3425 0.36042 0.44856 0.0
H650 H 0.49598 0.57506 0.42494 0.0
H651 H 0.49457 0.52744 0.41395 0.0
H652 H 0.4406 0.54664 0.41403 0.0
H653 H 0.42199 0.36788 0.45816 0.0
H654 H 0.4791 0.38759 0.44785 0.0
H655 H 0.48276 0.43762 0.45847 0.0
H656 H 0.63157 0.49572 0.42248 0.0
H657 H 0.63601 0.61233 0.4484 0.0
H658 H 0.49393 0.43646 0.41441 0.0
H659 H 0.48884 0.39117 0.4263 0.0
H660 H 0.5474 0.41716 0.41616 0.0
H661 H 0.50027 0.58128 0.44677 0.0
H662 H 0.55439 0.60093 0.45781 0.0
H663 H 0.49344 0.53128 0.45774 0.0
C664 C 0.01621 0.61673 0.77606 0.0
C665 C 0.06195 0.64213 0.76828 0.0
C666 C 0.98502 0.55804 0.77717 0.0
C667 C 5e-05 0.5245 0.77026 0.0
C668 C 0.04702 0.55022 0.76256 0.0
C669 C 0.07768 0.60892 0.76173 0.0
C670 C 0.93543 0.53191 0.78552 0.0
C671 C 0.06418 0.51573 0.75503 0.0
C672 C 0.95099 0.37247 0.77775 0.0
C673 C 0.90771 0.34446 0.7695 0.0
C674 C 0.98008 0.43132 0.77846 0.0
C675 C 0.96558 0.4624 0.77065 0.0
C676 C 0.92053 0.43406 0.76258 0.0
C677 C 0.89189 0.37523 0.76215 0.0
C678 C 0.02761 0.46025 0.78724 0.0
C679 C 0.90398 0.46588 0.7541 0.0
H680 H 0.00426 0.64279 0.78111 0.0
H681 H 0.11376 0.62897 0.75587 0.0
H682 H 0.89606 0.50683 0.78042 0.0
H683 H 0.93943 0.50268 0.79171 0.0
H684 H 0.93146 0.56402 0.79078 0.0
H685 H 0.10246 0.5424 0.74969 0.0
H686 H 0.07234 0.48763 0.76073 0.0
H687 H 0.02943 0.48854 0.74892 0.0
H688 H 0.96324 0.34842 0.78339 0.0
H689 H 0.85773 0.3532 0.7559 0.0
H690 H 0.02252 0.49163 0.79249 0.0
H691 H 0.06816 0.48334 0.78242 0.0
H692 H 0.03 0.43 0.79342 0.0
H693 H 0.89568 0.49601 0.75902 0.0
H694 H 0.86598 0.43741 0.74885 0.0
H695 H 0.93915 0.49072 0.74787 0.0
C696 C 0.02394 0.41013 0.58205 0.0
C697 C 0.06891 0.42835 0.58997 0.0
C698 C -0.00636 0.43867 0.58117 0.0
C699 C 0.00893 0.48628 0.58843 0.0
C700 C 0.05561 0.50585 0.59615 0.0
C701 C 0.0852 0.4766 0.5968 0.0
C702 C 0.94419 0.4168 0.57281 0.0
C703 C 0.0732 0.55657 0.604 0.0
C704 C 0.95676 0.58787 0.58184 0.0
C705 C 0.91316 0.5706 0.5901 0.0
C706 C 0.98755 0.55982 0.58095 0.0
C707 C 0.97418 0.51371 0.58852 0.0
C708 C 0.9291 0.49529 0.59667 0.0
C709 C 0.899 0.524 0.59733 0.0
C710 C 0.03528 0.58043 0.57215 0.0
C711 C 0.91357 0.44616 0.60487 0.0
H712 H 0.01151 0.37262 0.57679 0.0
H713 H 0.12061 0.49088 0.6028 0.0
H714 H 0.90473 0.40113 0.57798 0.0
H715 H 0.94796 0.4512 0.56703 0.0
H716 H 0.94059 0.38204 0.56714 0.0
H717 H 0.11218 0.56793 0.60905 0.0
H718 H 0.0803 0.59332 0.59859 0.0
H719 H 0.03907 0.54795 0.61039 0.0
H720 H 0.96766 0.62417 0.5763 0.0
H721 H 0.86466 0.51041 0.6036 0.0
H722 H 0.0303 0.54518 0.56648 0.0
H723 H 0.07575 0.59677 0.57695 0.0
H724 H 0.03776 0.61437 0.56637 0.0
H725 H 0.90501 0.40835 0.59968 0.0
H726 H 0.87598 0.43588 0.61035 0.0
H727 H 0.94931 0.45593 0.61088 0.0
C728 C 0.60618 0.08539 0.9309 0.0
C729 C 0.63999 0.06927 0.9247 0.0
C730 C 0.54754 0.05385 0.93004 0.0
C731 C 0.52255 0.00609 0.92255 0.0
C732 C 0.5567 0.99086 0.91593 0.0
C733 C 0.61525 0.02251 0.91717 0.0
C734 C 0.51233 0.07097 0.93733 0.0
C735 C 0.5314 0.94083 0.90768 0.0
C736 C 0.37321 0.89683 0.93028 0.0
C737 C 0.34264 0.91281 0.92291 0.0
C738 C 0.43204 0.926 0.93004 0.0
C739 C 0.46057 0.9712 0.92201 0.0
C740 C 0.42973 0.98539 0.91406 0.0
C741 C 0.37089 0.95624 0.91469 0.0
C742 C 0.4636 0.91005 0.93872 0.0
C743 C 0.45886 0.03262 0.90522 0.0
H744 H 0.62571 0.12245 0.9365 0.0
H745 H 0.64176 0.01038 0.91235 0.0
H746 H 0.48495 0.07932 0.93145 0.0
H747 H 0.48441 0.03612 0.94336 0.0
H748 H 0.53847 0.10917 0.94274 0.0
H749 H 0.56398 0.93693 0.90259 0.0
H750 H 0.50625 0.90163 0.91283 0.0
H751 H 0.50241 0.94431 0.90133 0.0
H752 H 0.35102 0.86239 0.93646 0.0
H753 H 0.34704 0.96854 0.909 0.0
H754 H 0.48806 0.94558 0.94489 0.0
H755 H 0.49406 0.90167 0.93397 0.0
H756 H 0.43503 0.87225 0.94401 0.0
H757 H 0.48101 0.07345 0.90996 0.0
H758 H 0.42886 0.03418 0.89884 0.0
H759 H 0.49102 0.02787 0.90019 0.0
C760 C 0.41348 0.37121 0.24822 0.0
C761 C 0.43022 0.3434 0.25621 0.0
C762 C 0.4433 0.43006 0.24738 0.0
C763 C 0.49071 0.46136 0.25473 0.0
C764 C 0.50908 0.43313 0.26245 0.0
C765 C 0.47856 0.37429 0.26307 0.0
C766 C 0.42265 0.45877 0.23901 0.0
C767 C 0.55956 0.46511 0.2704 0.0
C768 C 0.59172 0.61585 0.24856 0.0
C769 C 0.5733 0.64144 0.25676 0.0
C770 C 0.56468 0.55705 0.24763 0.0
C771 C 0.51834 0.52357 0.2551 0.0
C772 C 0.49906 0.54947 0.26325 0.0
C773 C 0.52679 0.60823 0.26395 0.0
C774 C 0.58626 0.53076 0.23884 0.0
C775 C 0.44969 0.51513 0.27134 0.0
H776 H 0.37592 0.34702 0.24293 0.0
H777 H 0.49174 0.35237 0.26912 0.0
H778 H 0.40653 0.48216 0.24419 0.0
H779 H 0.45775 0.48985 0.23343 0.0
H780 H 0.38849 0.42834 0.23313 0.0
H781 H 0.57066 0.43675 0.27525 0.0
H782 H 0.59651 0.49541 0.26514 0.0
H783 H 0.55072 0.48978 0.27699 0.0
H784 H 0.62796 0.64185 0.24304 0.0
H785 H 0.51227 0.62834 0.27018 0.0
H786 H 0.55169 0.50141 0.23293 0.0
H787 H 0.60169 0.50576 0.24362 0.0
H788 H 0.62105 0.56275 0.23331 0.0
H789 H 0.41203 0.48665 0.26604 0.0
H790 H 0.43934 0.5419 0.277 0.0
H791 H 0.45911 0.48834 0.27718 0.0
C792 C 0.3141 0.11649 0.20509 0.0
C793 C 0.28137 0.13426 0.21129 0.0
C794 C 0.316 0.11741 0.19264 0.0
C795 C 0.2846 0.13677 0.18623 0.0
C796 C 0.25206 0.1554 0.19244 0.0
C797 C 0.25076 0.15383 0.20488 0.0
C798 C 0.35111 0.09709 0.18633 0.0
C799 C 0.21814 0.17654 0.18594 0.0
C800 C 0.32216 0.18361 0.15414 0.0
C801 C 0.2811 0.13657 0.14795 0.0
C802 C 0.32433 0.18402 0.16659 0.0
C803 C 0.2845 0.13626 0.17301 0.0
C804 C 0.24344 0.08841 0.16681 0.0
C805 C 0.24224 0.08915 0.15438 0.0
C806 C 0.36878 0.23582 0.17287 0.0
C807 C 0.20025 0.03664 0.17333 0.0
H808 H 0.33796 0.10137 0.20997 0.0
H809 H 0.22553 0.16789 0.20957 0.0
H810 H 0.32376 0.06043 0.18066 0.0
H811 H 0.38208 0.1306 0.18043 0.0
H812 H 0.37411 0.08457 0.1926 0.0
H813 H 0.19614 0.19086 0.19208 0.0
H814 H 0.24598 0.21209 0.18006 0.0
H815 H 0.18632 0.14268 0.18023 0.0
H816 H 0.35247 0.22039 0.14926 0.0
H817 H 0.21041 0.05254 0.14969 0.0
H818 H 0.39398 0.22456 0.17877 0.0
H819 H 0.34848 0.25365 0.17855 0.0
H820 H 0.39766 0.26886 0.16659 0.0
H821 H 0.22152 0.02068 0.17922 0.0
H822 H 0.17211 0.00234 0.1672 0.0
H823 H 0.17407 0.04748 0.17903 0.0
C824 C 0.1498 0.25142 0.48766 0.0
C825 C 0.13542 0.28633 0.48128 0.0
C826 C 0.15182 0.25272 0.5001 0.0
C827 C 0.139 0.28969 0.50634 0.0
C828 C 0.1251 0.32554 0.49996 0.0
C829 C 0.12357 0.3235 0.48751 0.0
C830 C 0.16704 0.21397 0.50656 0.0
C831 C 0.11108 0.36548 0.5063 0.0
C832 C 0.08901 0.25113 0.53818 0.0
C833 C 0.13796 0.28629 0.54462 0.0
C834 C 0.08866 0.25233 0.52574 0.0
C835 C 0.1385 0.28952 0.51955 0.0
C836 C 0.18796 0.32549 0.52599 0.0
C837 C 0.18709 0.32349 0.53844 0.0
C838 C 0.03501 0.21338 0.51922 0.0
C839 C 0.24194 0.36567 0.51971 0.0
H840 H 0.15926 0.22271 0.48294 0.0
H841 H 0.11251 0.35071 0.48266 0.0
H842 H 0.20357 0.23872 0.51247 0.0
H843 H 0.1314 0.18453 0.51225 0.0
H844 H 0.17757 0.18897 0.5004 0.0
H845 H 0.10267 0.3917 0.50005 0.0
H846 H 0.07341 0.34135 0.51196 0.0
H847 H 0.14624 0.3937 0.51221 0.0
H848 H 0.05079 0.22234 0.54285 0.0
H849 H 0.2251 0.3509 0.54334 0.0
H850 H 0.04173 0.1844 0.51348 0.0
H851 H 0.02292 0.23806 0.51336 0.0
H852 H -0.00049 0.18788 0.52534 0.0
H853 H 0.25561 0.34179 0.514 0.0
H854 H 0.27644 0.39167 0.526 0.0
H855 H 0.23499 0.39411 0.51386 0.0
C856 C 0.89774 0.15767 0.82164 0.0
C857 C 0.84745 0.13848 0.81529 0.0
C858 C 0.89856 0.16021 0.83407 0.0
C859 C 0.84782 0.14293 0.84035 0.0
C860 C 0.79697 0.12395 0.83401 0.0
C861 C 0.7974 0.12207 0.82156 0.0
C862 C 0.95371 0.18095 0.8405 0.0
C863 C 0.74198 0.10499 0.84038 0.0
C864 C 0.84254 0.0972 0.87236 0.0
C865 C 0.85157 0.1452 0.87863 0.0
C866 C 0.84054 0.09571 0.85992 0.0
C867 C 0.8479 0.14341 0.85357 0.0
C868 C 0.85655 0.19185 0.85984 0.0
C869 C 0.8582 0.19214 0.87229 0.0
C870 C 0.83105 0.04318 0.85358 0.0
C871 C 0.86469 0.24359 0.85338 0.0
H872 H 0.93668 0.17067 0.81689 0.0
H873 H 0.75835 0.10725 0.81674 0.0
H874 H 0.96219 0.2171 0.84627 0.0
H875 H 0.95132 0.14722 0.84631 0.0
H876 H 0.98967 0.19427 0.83431 0.0
H877 H 0.70632 0.0925 0.83416 0.0
H878 H 0.73238 0.06865 0.84619 0.0
H879 H 0.7453 0.13925 0.84616 0.0
H880 H 0.8372 0.06065 0.87716 0.0
H881 H 0.86512 0.22939 0.87705 0.0
H882 H 0.8677 0.05308 0.84784 0.0
H883 H 0.79366 0.02725 0.84774 0.0
H884 H 0.8247 0.00918 0.85982 0.0
H885 H 0.90246 0.26026 0.84763 0.0
H886 H 0.86982 0.27741 0.85955 0.0
H887 H 0.82813 0.2326 0.84754 0.0
C888 C 0.73001 0.89544 0.15392 0.0
C889 C 0.69793 0.84501 0.14767 0.0
C890 C 0.72933 0.89674 0.16635 0.0
C891 C 0.69587 0.84636 0.17274 0.0
C892 C 0.66289 0.79539 0.16649 0.0
C893 C 0.66424 0.79533 0.15403 0.0
C894 C 0.76496 0.952 0.17267 0.0
C895 C 0.62675 0.74079 0.17298 0.0
C896 C 0.73904 0.84178 0.20455 0.0
C897 C 0.70143 0.85218 0.211 0.0
C898 C 0.73715 0.83903 0.19212 0.0
C899 C 0.69672 0.84695 0.18595 0.0
C900 C 0.65825 0.85693 0.1924 0.0
C901 C 0.66103 0.85938 0.20485 0.0
C902 C 0.77886 0.8282 0.18558 0.0
C903 C 0.61457 0.86564 0.18615 0.0
H904 H 0.75603 0.93411 0.1491 0.0
H905 H 0.63925 0.75618 0.14929 0.0
H906 H 0.73827 0.96127 0.17858 0.0
H907 H 0.79651 0.9492 0.17833 0.0
H908 H 0.78744 0.98767 0.16641 0.0
H909 H 0.60247 0.70505 0.16683 0.0
H910 H 0.65356 0.73066 0.17863 0.0
H911 H 0.59684 0.74501 0.17892 0.0
H912 H 0.77032 0.83599 0.20921 0.0
H913 H 0.6317 0.8673 0.20975 0.0
H914 H 0.80549 0.86442 0.17973 0.0
H915 H 0.7563 0.7906 0.17982 0.0
H916 H 0.80668 0.82146 0.19169 0.0
H917 H 0.63556 0.90317 0.18033 0.0
H918 H 0.58683 0.87156 0.19245 0.0
H919 H 0.58809 0.82898 0.1804 0.0
C920 C 0.85939 0.66942 0.48745 0.0
C921 C 0.84506 0.70443 0.48109 0.0
C922 C 0.85752 0.66776 0.49991 0.0
C923 C 0.84081 0.70182 0.50616 0.0
C924 C 0.8256 0.73665 0.49978 0.0
C925 C 0.82795 0.73757 0.48735 0.0
C926 C 0.8741 0.6301 0.50639 0.0
C927 C 0.80744 0.7735 0.5061 0.0
C928 C 0.79205 0.66743 0.53822 0.0
C929 C 0.84015 0.70657 0.54443 0.0
C930 C 0.79181 0.66493 0.52577 0.0
C931 C 0.84082 0.70243 0.51937 0.0
C932 C 0.88963 0.74161 0.52559 0.0
C933 C 0.8887 0.7432 0.53802 0.0
C934 C 0.73893 0.62256 0.51946 0.0
C935 C 0.94276 0.78229 0.5191 0.0
H936 H 0.87253 0.64357 0.48271 0.0
H937 H 0.8166 0.76461 0.48253 0.0
H938 H 0.91116 0.65589 0.51209 0.0
H939 H 0.83938 0.60082 0.51228 0.0
H940 H 0.88457 0.60504 0.50023 0.0
H941 H 0.79545 0.797 0.49985 0.0
H942 H 0.77106 0.74752 0.51196 0.0
H943 H 0.8421 0.80425 0.51182 0.0
H944 H 0.75439 0.63885 0.54309 0.0
H945 H 0.92614 0.77352 0.54272 0.0
H946 H 0.74802 0.59528 0.5137 0.0
H947 H 0.72363 0.64469 0.51365 0.0
H948 H 0.70479 0.59548 0.52573 0.0
H949 H 0.95685 0.75888 0.51335 0.0
H950 H 0.97752 0.80929 0.52525 0.0
H951 H 0.93438 0.8098 0.51326 0.0
C952 C 0.1535 0.90406 0.87059 0.0
C953 C 0.136 0.85409 0.87696 0.0
C954 C 0.15559 0.90475 0.85815 0.0
C955 C 0.13962 0.85421 0.8519 0.0
C956 C 0.12233 0.80369 0.85827 0.0
C957 C 0.12084 0.80425 0.87072 0.0
C958 C 0.17449 0.95954 0.8517 0.0
C959 C 0.10484 0.74892 0.85192 0.0
C960 C 0.09264 0.84655 0.81992 0.0
C961 C 0.14096 0.85681 0.81361 0.0
C962 C 0.09148 0.845 0.83236 0.0
C963 C 0.13987 0.8541 0.83868 0.0
C964 C 0.18867 0.86411 0.83238 0.0
C965 C 0.18861 0.86524 0.81993 0.0
C966 C 0.03853 0.83398 0.83874 0.0
C967 C 0.24115 0.87416 0.83881 0.0
H968 H 0.16549 0.94284 0.87532 0.0
H969 H 0.10733 0.76544 0.87555 0.0
H970 H 0.21085 0.96914 0.84589 0.0
H971 H 0.14013 0.95584 0.84591 0.0
H972 H 0.18681 -0.00459 0.85786 0.0
H973 H 0.09344 0.71351 0.85816 0.0
H974 H 0.06815 0.73817 0.84613 0.0
H975 H 0.13946 0.75327 0.84612 0.0
H976 H 0.05554 0.83981 0.81514 0.0
H977 H 0.22612 0.87313 0.81514 0.0
H978 H 0.04744 0.87039 0.84447 0.0
H979 H 0.0237 0.79674 0.8446 0.0
H980 H 0.0041 0.82652 0.83253 0.0
H981 H 0.25675 0.91189 0.84455 0.0
H982 H 0.27531 0.88045 0.83261 0.0
H983 H 0.23145 0.83794 0.84466 0.0
C984 C 0.55102 0.61389 0.08545 0.0
C985 C 0.59425 0.63768 0.09388 0.0
C986 C 0.51338 0.55571 0.08518 0.0
C987 C 0.52037 0.5203 0.09329 0.0
C988 C 0.56563 0.54388 0.10145 0.0
C989 C 0.60142 0.60249 0.10181 0.0
C990 C 0.46472 0.53249 0.07659 0.0
C991 C 0.57563 0.50731 0.10996 0.0
C992 C 0.39496 0.37948 0.10196 0.0
C993 C 0.40122 0.34246 0.0944 0.0
C994 C 0.43268 0.43765 0.10147 0.0
C995 C 0.47893 0.45893 0.09355 0.0
C996 C 0.48558 0.42156 0.08595 0.0
C997 C 0.44601 0.36382 0.08632 0.0
C998 C 0.42306 0.47631 0.10943 0.0
C999 C 0.53529 0.44234 0.07768 0.0
H1000 H 0.54492 0.64113 0.07941 0.0
H1001 H 0.63496 0.62086 0.1083 0.0
H1002 H 0.46485 0.49933 0.07099 0.0
H1003 H 0.42446 0.51265 0.08157 0.0
H1004 H 0.46591 0.56556 0.07071 0.0
H1005 H 0.61561 0.53154 0.11495 0.0
H1006 H 0.54052 0.48766 0.11641 0.0
H1007 H 0.57677 0.47274 0.10509 0.0
H1008 H 0.36023 0.3629 0.10819 0.0
H1009 H 0.45131 0.33504 0.0806 0.0
H1010 H 0.42173 0.50956 0.10408 0.0
H1011 H 0.45843 0.49764 0.11577 0.0
H1012 H 0.38327 0.45344 0.11455 0.0
H1013 H 0.5359 0.47391 0.07145 0.0
H1014 H 0.53465 0.40771 0.07244 0.0
H1015 H 0.57496 0.46355 0.08284 0.0
C1016 C 0.00368 0.39675 0.43492 0.0
C1017 C 0.04781 0.40401 0.42753 0.0
C1018 C 0.98281 0.43416 0.43444 0.0
C1019 C 0.00823 0.48109 0.42671 0.0
C1020 C 0.05301 0.48865 0.41925 0.0
C1021 C 0.0716 0.44939 0.4196 0.0
C1022 C 0.93377 0.42362 0.44224 0.0
C1023 C 0.08238 0.53909 0.41118 0.0
C1024 C 0.92595 0.55398 0.41871 0.0
C1025 C 0.94486 0.59652 0.42731 0.0
C1026 C 0.9465 0.51631 0.41836 0.0
C1027 C 0.98825 0.52252 0.42655 0.0
C1028 C 0.00934 0.56704 0.4349 0.0
C1029 C 0.98664 0.60294 0.43532 0.0
C1030 C 0.9218 0.46849 0.40954 0.0
C1031 C 0.05518 0.57616 0.44353 0.0
H1032 H 0.98525 0.36155 0.44103 0.0
H1033 H 0.10633 0.45544 0.41401 0.0
H1034 H 0.94712 0.4583 0.44875 0.0
H1035 H 0.8997 0.42281 0.4368 0.0
H1036 H 0.91646 0.38327 0.44717 0.0
H1037 H 0.11666 0.53888 0.40597 0.0
H1038 H 0.05183 0.54032 0.40494 0.0
H1039 H 0.10055 0.5783 0.41651 0.0
H1040 H 0.89312 0.54849 0.4126 0.0
H1041 H 0.00144 0.63596 0.44194 0.0
H1042 H 0.90097 0.42774 0.41435 0.0
H1043 H 0.95552 0.46911 0.40402 0.0
H1044 H 0.89045 0.4703 0.40361 0.0
H1045 H 0.03926 0.54033 0.44981 0.0
H1046 H 0.07042 0.61559 0.44871 0.0
H1047 H 0.09131 0.57789 0.43872 0.0
C1048 C 0.37898 0.97208 0.75208 0.0
C1049 C 0.34565 0.93019 0.76026 0.0
C1050 C 0.43747 -0.00627 0.75164 0.0
C1051 C 0.46245 0.97119 0.75924 0.0
C1052 C 0.42826 0.92696 0.76711 0.0
C1053 C 0.37045 0.9078 0.76769 0.0
C1054 C 0.47274 0.04217 0.74343 0.0
C1055 C 0.45285 0.90048 0.77507 0.0
C1056 C 0.61154 0.00173 0.75287 0.0
C1057 C 0.64194 0.04175 0.76162 0.0
C1058 C 0.55284 0.97797 0.75199 0.0
C1059 C 0.52468 -0.00339 0.75971 0.0
C1060 C 0.55575 0.0383 0.76831 0.0
C1061 C 0.61378 0.05952 0.76931 0.0
C1062 C 0.52084 0.93212 0.743 0.0
C1063 C 0.52774 0.06064 0.77648 0.0
H1064 H 0.35958 0.98925 0.74634 0.0
H1065 H 0.34436 0.87468 0.77388 0.0
H1066 H 0.50189 0.07966 0.74872 0.0
H1067 H 0.49891 0.03175 0.73763 0.0
H1068 H 0.44668 0.05336 0.73776 0.0
H1069 H 0.4198 0.86251 0.77968 0.0
H1070 H 0.47952 0.88846 0.76985 0.0
H1071 H 0.48013 0.93129 0.78186 0.0
H1072 H 0.63348 0.98811 0.74693 0.0
H1073 H 0.63754 0.09125 0.77594 0.0
H1074 H 0.49722 0.94459 0.73693 0.0
H1075 H 0.48952 0.89319 0.7476 0.0
H1076 H 0.54896 0.92245 0.73765 0.0
H1077 H 0.50317 0.07514 0.77123 0.0
H1078 H 0.55859 0.09616 0.78202 0.0
H1079 H 0.49786 0.02664 0.78243 0.0
C1080 C 0.5998 0.59899 0.59099 0.0
C1081 C 0.63625 0.59251 0.59866 0.0
C1082 C 0.54145 0.56222 0.59152 0.0
C1083 C 0.51937 0.51671 0.59964 0.0
C1084 C 0.55607 0.5102 0.60745 0.0
C1085 C 0.61403 0.54877 0.607 0.0
C1086 C 0.50352 0.57166 0.58331 0.0
C1087 C 0.53439 0.46133 0.61597 0.0
C1088 C 0.3636 0.4439 0.60711 0.0
C1089 C 0.34104 0.39983 0.59885 0.0
C1090 C 0.42162 0.48223 0.6075 0.0
C1091 C 0.45805 0.47514 0.5997 0.0
C1092 C 0.43565 0.42924 0.59168 0.0
C1093 C 0.37724 0.39271 0.5912 0.0
C1094 C 0.44362 0.53153 0.61592 0.0
C1095 C 0.47329 0.41919 0.58349 0.0
H1096 H 0.61697 0.63293 0.58457 0.0
H1097 H 0.64228 0.54326 0.61283 0.0
H1098 H 0.4829 0.53617 0.57697 0.0
H1099 H 0.46973 0.573 0.58846 0.0
H1100 H 0.52685 0.61139 0.5782 0.0
H1101 H 0.56838 0.46273 0.62156 0.0
H1102 H 0.50184 0.46101 0.62185 0.0
H1103 H 0.51417 0.42117 0.61095 0.0
H1104 H 0.33555 0.44991 0.61293 0.0
H1105 H 0.35981 0.35852 0.58484 0.0
H1106 H 0.46363 0.57142 0.61081 0.0
H1107 H 0.47641 0.53217 0.62176 0.0
H1108 H 0.40986 0.53042 0.62155 0.0
H1109 H 0.49368 0.45421 0.57704 0.0
H1110 H 0.44977 0.37909 0.5785 0.0
H1111 H 0.50727 0.41823 0.58863 0.0
C1112 C 0.00174 0.61731 0.93932 0.0
C1113 C 0.04076 0.64779 0.93042 0.0
C1114 C 0.97831 0.55865 0.94019 0.0
C1115 C -0.00373 0.53061 0.93227 0.0
C1116 C 0.0369 0.56173 0.92349 0.0
C1117 C 0.05782 0.61973 0.92253 0.0
C1118 C 0.93356 0.52656 0.94938 0.0
C1119 C 0.05846 0.5338 0.9151 0.0
C1120 C 0.97312 0.38527 0.93974 0.0
C1121 C 0.93025 0.35168 0.93178 0.0
C1122 C -0.00525 0.44376 0.94014 0.0
C1123 C 0.9712 0.46845 0.93274 0.0
C1124 C 0.92609 0.43401 0.92509 0.0
C1125 C 0.90694 0.3762 0.92453 0.0
C1126 C 0.04413 0.47934 0.94811 0.0
C1127 C 0.89855 0.45832 0.91735 0.0
H1128 H 0.98868 0.63918 0.94542 0.0
H1129 H 0.08879 0.64354 0.91577 0.0
H1130 H 0.89423 0.49496 0.94495 0.0
H1131 H 0.94695 0.50326 0.95533 0.0
H1132 H 0.92423 0.5546 0.95485 0.0
H1133 H 0.0932 0.5647 0.90939 0.0
H1134 H 0.07381 0.50949 0.92018 0.0
H1135 H 0.02384 0.50368 0.9093 0.0
H1136 H -0.00904 0.36604 0.94534 0.0
H1137 H 0.87304 0.34987 0.91852 0.0
H1138 H 0.0342 0.50536 0.95407 0.0
H1139 H 0.08084 0.50866 0.94265 0.0
H1140 H 0.05628 0.4535 0.9536 0.0
H1141 H 0.8869 0.48487 0.92272 0.0
H1142 H 0.8602 0.4251 0.91289 0.0
H1143 H 0.92856 0.48568 0.91046 0.0
C1144 C 0.53554 0.91133 0.27336 0.0
C1145 C 0.57957 0.93398 0.26509 0.0
C1146 C 0.49632 0.92998 0.27389 0.0
C1147 C 0.50249 0.97363 0.26624 0.0
C1148 C 0.54807 -0.0021 0.25815 0.0
C1149 C 0.58547 0.97705 0.25752 0.0
C1150 C 0.44735 0.90183 0.28237 0.0
C1151 C 0.55715 0.04569 0.2501 0.0
C1152 C 0.37964 -0.00578 0.25803 0.0
C1153 C 0.38744 0.03756 0.26575 0.0
C1154 C 0.41526 0.97119 0.25847 0.0
C1155 C 0.46095 0.99351 0.26653 0.0
C1156 C 0.46844 0.03673 0.27447 0.0
C1157 C 0.43101 0.0576 0.27411 0.0
C1158 C 0.40471 0.92382 0.25014 0.0
C1159 C 0.5175 0.06277 0.28296 0.0
H1160 H 0.53051 0.87745 0.27911 0.0
H1161 H 0.61962 -0.00532 0.25115 0.0
H1162 H 0.44698 0.93336 0.28846 0.0
H1163 H 0.40726 0.88258 0.27734 0.0
H1164 H 0.44868 0.86856 0.28773 0.0
H1165 H 0.59665 0.06233 0.24489 0.0
H1166 H 0.5214 0.03124 0.24384 0.0
H1167 H 0.55873 0.08056 0.2554 0.0
H1168 H 0.34582 0.97854 0.25159 0.0
H1169 H 0.43756 0.09162 0.27999 0.0
H1170 H 0.40404 0.88863 0.25513 0.0
H1171 H 0.43933 0.9387 0.24358 0.0
H1172 H 0.36434 0.90754 0.24528 0.0
H1173 H 0.51797 0.02987 0.28858 0.0
H1174 H 0.51632 0.09475 0.28881 0.0
H1175 H 0.55749 0.08321 0.27788 0.0
C1176 C 0.10435 0.09952 0.08921 0.0
C1177 C 0.13758 0.09341 0.09783 0.0
C1178 C 0.04573 0.06389 0.08913 0.0
C1179 C 0.02045 0.01974 0.09753 0.0
C1180 C 0.05408 0.01329 0.10619 0.0
C1181 C 0.11214 0.05094 0.10637 0.0
C1182 C 0.01091 0.0734 0.08006 0.0
C1183 C 0.02905 0.96559 0.11503 0.0
C1184 C 0.865 0.94932 0.10484 0.0
C1185 C 0.8427 0.90225 0.09738 0.0
C1186 C 0.9226 0.98895 0.10468 0.0
C1187 C 0.95888 0.97984 0.09725 0.0
C1188 C 0.93653 0.93172 0.08984 0.0
C1189 C 0.87831 0.89406 0.0898 0.0
C1190 C 0.94449 0.0408 0.11236 0.0
C1191 C 0.97417 0.91949 0.08214 0.0
H1192 H 0.12421 0.13241 0.0826 0.0
H1193 H 0.13807 0.04565 0.11291 0.0
H1194 H -0.00937 0.03691 0.07395 0.0
H1195 H 0.9768 0.077 0.08452 0.0
H1196 H 0.03653 0.11201 0.07472 0.0
H1197 H 0.06135 0.96562 0.12097 0.0
H1198 H -0.00283 0.96843 0.12057 0.0
H1199 H 0.00725 0.92472 0.11028 0.0
H1200 H 0.83701 0.95593 0.11055 0.0
H1201 H 0.86071 0.85755 0.08403 0.0
H1202 H 0.96821 0.07916 0.10686 0.0
H1203 H 0.97406 0.04098 0.11907 0.0
H1204 H 0.91015 0.04331 0.11703 0.0
H1205 H -0.00308 0.95405 0.07567 0.0
H1206 H 0.95029 0.87933 0.07718 0.0
H1207 H 0.00633 0.91719 0.08769 0.0
C1208 C -0.00228 0.10915 0.42233 0.0
C1209 C 0.03732 0.14232 0.4309 0.0
C1210 C 0.97491 0.05053 0.42218 0.0
C1211 C -0.00575 0.02524 0.43048 0.0
C1212 C 0.03477 0.05886 0.43907 0.0
C1213 C 0.05498 0.1169 0.43932 0.0
C1214 C 0.9301 0.01571 0.4132 0.0
C1215 C 0.05792 0.03379 0.44779 0.0
C1216 C 0.90891 0.87006 0.43795 0.0
C1217 C 0.93285 0.84722 0.4304 0.0
C1218 C 0.92726 0.92776 0.43777 0.0
C1219 C 0.97224 0.9636 0.43023 0.0
C1220 C -0.00281 0.9407 0.42271 0.0
C1221 C 0.97622 0.88238 0.42269 0.0
C1222 C 0.89814 0.95022 0.44557 0.0
C1223 C 0.04662 0.97789 0.41488 0.0
H1224 H 0.98424 0.12903 0.41582 0.0
H1225 H 0.0864 0.14284 0.44583 0.0
H1226 H 0.94573 -0.00506 0.40708 0.0
H1227 H 0.89249 0.98196 0.41775 0.0
H1228 H 0.91718 0.04144 0.40789 0.0
H1229 H 0.09083 0.06616 0.45361 0.0
H1230 H 0.0236 0.00229 0.45345 0.0
H1231 H 0.07626 0.01152 0.44294 0.0
H1232 H 0.87462 0.84242 0.44375 0.0
H1233 H -0.00553 0.86435 0.41686 0.0
H1234 H 0.88348 0.97413 0.44013 0.0
H1235 H 0.92806 0.97977 0.45221 0.0
H1236 H 0.86147 0.91617 0.45032 0.0
H1237 H 0.03466 0.00075 0.40848 0.0
H1238 H 0.06226 0.95361 0.40985 0.0
H1239 H 0.08155 0.00998 0.42035 0.0
C1240 C 0.89804 0.00909 0.7717 0.0
C1241 C 0.9066 0.05386 0.76439 0.0
C1242 C 0.93606 0.98886 0.77159 0.0
C1243 C 0.98454 0.01547 0.76429 0.0
C1244 C -0.00592 0.06183 0.75716 0.0
C1245 C 0.95454 0.0799 0.75717 0.0
C1246 C 0.92375 0.93832 0.77905 0.0
C1247 C 0.04604 0.09237 0.74953 0.0
C1248 C 0.10487 0.98896 0.77127 0.0
C1249 C 0.09775 0.94979 0.76249 0.0
C1250 C 0.06901 0.01169 0.77184 0.0
C1251 C 0.02406 0.99335 0.76367 0.0
C1252 C 0.01682 0.95386 0.75479 0.0
C1253 C 0.05421 0.93317 0.75422 0.0
C1254 C 0.07903 0.05508 0.7812 0.0
C1255 C 0.96871 0.93232 0.74606 0.0
H1256 H 0.861 0.98915 0.7773 0.0
H1257 H 0.96182 0.11543 0.75172 0.0
H1258 H 0.92009 0.90389 0.77328 0.0
H1259 H 0.95892 0.94909 0.78529 0.0
H1260 H 0.88425 0.9225 0.78423 0.0
H1261 H 0.04878 0.12978 0.74508 0.0
H1262 H 0.08432 0.10621 0.75501 0.0
H1263 H 0.04609 0.06358 0.74264 0.0
H1264 H 0.13848 0.00181 0.77769 0.0
H1265 H 0.04785 0.90212 0.74756 0.0
H1266 H 0.04249 0.03861 0.7873 0.0
H1267 H 0.08322 0.09355 0.77699 0.0
H1268 H 0.11747 0.06688 0.78649 0.0
H1269 H 0.92808 0.9128 0.75091 0.0
H1270 H 0.9684 0.90073 0.73985 0.0
H1271 H 0.97137 0.96772 0.74081 0.0
C1272 C 0.88474 0.88343 0.60337 0.0
C1273 C 0.89199 0.84968 0.59507 0.0
C1274 C 0.92121 0.94192 0.60354 0.0
C1275 C 0.96732 0.96642 0.59558 0.0
C1276 C 0.97527 0.93209 0.58734 0.0
C1277 C 0.93676 0.87422 0.58702 0.0
C1278 C 0.91011 0.97749 0.61213 0.0
C1279 C 0.02505 0.95628 0.57901 0.0
C1280 C 0.03735 0.12102 0.58757 0.0
C1281 C 0.08263 0.14474 0.59549 0.0
C1282 C -0.0014 0.0632 0.58774 0.0
C1283 C 0.00681 0.02809 0.5957 0.0
C1284 C 0.05327 0.0518 0.60356 0.0
C1285 C 0.09001 0.11026 0.60356 0.0
C1286 C 0.94844 0.03988 0.57954 0.0
C1287 C 0.0646 0.01539 0.61185 0.0
H1288 H 0.85007 0.86415 0.6096 0.0
H1289 H 0.94281 0.84774 0.58075 0.0
H1290 H 0.94581 -0.001 0.61838 0.0
H1291 H 0.90657 0.01069 0.60724 0.0
H1292 H 0.87096 0.95221 0.61732 0.0
H1293 H 0.02667 0.92332 0.57358 0.0
H1294 H 0.02324 0.98714 0.57296 0.0
H1295 H 0.06472 0.97909 0.58414 0.0
H1296 H 0.03125 0.14808 0.58148 0.0
H1297 H 0.12511 0.12892 0.60968 0.0
H1298 H 0.909 0.0164 0.58472 0.0
H1299 H 0.95008 0.00977 0.57321 0.0
H1300 H 0.94652 0.0734 0.57439 0.0
H1301 H 0.02897 0.99306 0.61809 0.0
H1302 H 0.10378 0.04018 0.61706 0.0
H1303 H 0.06824 0.98285 0.60671 0.0
C1304 C 0.98511 0.10854 0.92059 0.0
C1305 C 0.94601 0.10176 0.92935 0.0
C1306 C 0.0076 0.07247 0.92009 0.0
C1307 C 0.98905 0.02768 0.92832 0.0
C1308 C 0.94944 0.02065 0.93715 0.0
C1309 C 0.929 0.05824 0.93765 0.0
C1310 C 0.05111 0.08223 0.91079 0.0
C1311 C 0.92766 0.97267 0.94592 0.0
C1312 C 0.00559 0.90187 0.9206 0.0
C1313 C 0.0503 0.91088 0.92798 0.0
C1314 C 0.98505 0.93962 0.92061 0.0
C1315 C 0.01133 0.9883 0.92785 0.0
C1316 C 0.05755 -0.00176 0.93506 0.0
C1317 C 0.07591 0.95894 0.93516 0.0
C1318 C 0.93462 0.92688 0.91307 0.0
C1319 C 0.08771 0.05044 0.94263 0.0
H1320 H -0.00178 0.14215 0.91416 0.0
H1321 H 0.89796 0.05219 0.94428 0.0
H1322 H 0.08964 0.08693 0.91507 0.0
H1323 H 0.03492 0.04535 0.90479 0.0
H1324 H 0.06274 0.12033 0.90538 0.0
H1325 H 0.89572 0.97234 0.95203 0.0
H1326 H 0.90853 0.93194 0.94112 0.0
H1327 H 0.96289 0.97562 0.95129 0.0
H1328 H 0.98601 0.86473 0.91502 0.0
H1329 H 0.11138 0.96658 0.94066 0.0
H1330 H 0.94541 0.9618 0.90676 0.0
H1331 H 0.90006 0.92335 0.91878 0.0
H1332 H 0.91899 0.88719 0.90797 0.0
H1333 H 0.10162 0.08856 0.9371 0.0
H1334 H 0.12502 0.05342 0.94718 0.0
H1335 H 0.05866 0.05058 0.94945 0.0
C1336 C 0.11935 0.09053 0.25951 0.0
C1337 C 0.13878 0.05349 0.26227 0.0
C1338 C 0.06166 0.07224 0.25955 0.0
C1339 C 0.02276 0.01535 0.26225 0.0
C1340 C 0.04248 0.97776 0.26502 0.0
C1341 C 0.10059 -0.00248 0.26509 0.0
C1342 C 0.04236 0.11374 0.25672 0.0
C1343 C 0.0022 0.91666 0.2678 0.0
C1344 C 0.87462 0.97307 0.27223 0.0
C1345 C 0.84387 0.95092 0.26176 0.0
C1346 C 0.9331 -0.0047 0.27247 0.0
C1347 C 0.96137 -0.00507 0.26201 0.0
C1348 C 0.93083 0.97406 0.25133 0.0
C1349 C 0.87251 0.95264 0.25132 0.0
C1350 C 0.96446 0.01818 0.28398 0.0
C1351 C 0.95947 0.97272 0.24 0.0
H1352 H 0.14948 0.13399 0.2574 0.0
H1353 H 0.11619 0.96923 0.26723 0.0
H1354 H 0.01522 0.09982 0.24873 0.0
H1355 H 0.01669 0.11547 0.26414 0.0
H1356 H 0.07815 0.15681 0.25512 0.0
H1357 H 0.02433 0.89293 0.2697 0.0
H1358 H 0.97597 0.91331 0.27558 0.0
H1359 H 0.97328 0.89642 0.26021 0.0
H1360 H 0.85293 0.97257 0.28029 0.0
H1361 H 0.84909 0.93536 0.24319 0.0
H1362 H -0.0007 0.06198 0.28271 0.0
H1363 H 0.98354 0.99273 0.28683 0.0
H1364 H 0.93668 0.01778 0.29119 0.0
H1365 H -0.00595 0.01556 0.23778 0.0
H1366 H 0.92991 0.9564 0.23239 0.0
H1367 H 0.97855 0.94566 0.2412 0.0
loop_
_geom_bond_atom_site_label_1
_geom_bond_atom_site_label_2
_geom_bond_distance
_geom_bond_site_symmetry_2
_ccdc_geom_bond_type
Co0 O3 1.970 . S
Co0 N17 1.989 . S
Co0 O25 1.967 . S
Co0 O32 1.920 . S
Co1 O4 1.966 . S
Co1 N10 2.022 . S
Co1 N18 1.993 . S
Co1 O26 1.941 . S
C2 O3 1.258 . S
C2 O4 1.263 . S
O3 Co0 1.970 . S
O3 C2 1.258 . S
O4 Co1 1.966 . S
O4 C2 1.263 . S
C5 O6 1.235 . S
C5 O32 1.289 . S
O6 C5 1.235 . S
C7 C9 1.400 . S
C7 N10 1.351 . S
C7 C12 1.501 . S
C8 C9 1.387 . S
C8 N11 1.341 . S
C9 C7 1.400 . S
C9 C8 1.387 . S
N10 Co1 2.022 . S
N10 C7 1.351 . S
N10 N11 1.365 . S
N11 C8 1.341 . S
N11 N10 1.365 . S
N11 H31 0.862 . S
C12 C7 1.501 . S
C12 H13 0.961 . S
C12 H14 0.961 . S
C12 H15 0.960 . S
H13 C12 0.961 . S
H14 C12 0.961 . S
H15 C12 0.960 . S
C16 N17 1.342 . S
C16 C20 1.401 . S
C16 C21 1.499 . S
N17 Co0 1.989 . S
N17 C16 1.342 . S
N17 N18 1.388 . S
N18 Co1 1.993 . S
N18 N17 1.388 . S
N18 C19 1.346 . S
C19 N18 1.346 . S
C19 C20 1.396 . S
C19 C29 1.510 . S
C20 C16 1.401 . S
C20 C19 1.396 . S
C21 C16 1.499 . S
C21 H22 0.959 . S
C21 H23 0.960 . S
C21 H24 0.961 . S
H22 C21 0.959 . S
H23 C21 0.960 . S
H24 C21 0.961 . S
O25 Co0 1.967 . S
O25 C33 1.258 . S
O26 Co1 1.941 . S
O26 C33 1.266 . S
H27 C29 0.959 . S
H28 C29 0.961 . S
C29 C19 1.510 . S
C29 H27 0.959 . S
C29 H28 0.961 . S
C29 H30 0.960 . S
H30 C29 0.960 . S
H31 N11 0.862 . S
O32 Co0 1.920 . S
O32 C5 1.289 . S
C33 O25 1.258 . S
C33 O26 1.266 . S
Co34 O37 1.970 . S
Co34 N51 1.989 . S
Co34 O59 1.967 . S
Co34 O66 1.920 . S
Co35 O38 1.966 . S
Co35 N44 2.022 . S
Co35 N52 1.993 . S
Co35 O60 1.941 . S
C36 O37 1.258 . S
C36 O38 1.263 . S
O37 Co34 1.970 . S
O37 C36 1.258 . S
O38 Co35 1.966 . S
O38 C36 1.263 . S
C39 O40 1.235 . S
C39 O66 1.289 . S
O40 C39 1.235 . S
C41 C43 1.400 . S
C41 N44 1.351 . S
C41 C46 1.501 . S
C42 C43 1.387 . S
C42 N45 1.341 . S
C43 C41 1.400 . S
C43 C42 1.387 . S
N44 Co35 2.022 . S
N44 C41 1.351 . S
N44 N45 1.365 . S
N45 C42 1.341 . S
N45 N44 1.365 . S
N45 H65 0.862 . S
C46 C41 1.501 . S
C46 H47 0.961 . S
C46 H48 0.961 . S
C46 H49 0.960 . S
H47 C46 0.961 . S
H48 C46 0.961 . S
H49 C46 0.960 . S
C50 N51 1.342 . S
C50 C54 1.401 . S
C50 C55 1.499 . S
N51 Co34 1.989 . S
N51 C50 1.342 . S
N51 N52 1.388 . S
N52 Co35 1.993 . S
N52 N51 1.388 . S
N52 C53 1.346 . S
C53 N52 1.346 . S
C53 C54 1.396 . S
C53 C63 1.510 . S
C54 C50 1.401 . S
C54 C53 1.396 . S
C55 C50 1.499 . S
C55 H56 0.959 . S
C55 H57 0.960 . S
C55 H58 0.961 . S
H56 C55 0.959 . S
H57 C55 0.960 . S
H58 C55 0.961 . S
O59 Co34 1.967 . S
O59 C67 1.258 . S
O60 Co35 1.941 . S
O60 C67 1.266 . S
H61 C63 0.959 . S
H62 C63 0.961 . S
C63 C53 1.510 . S
C63 H61 0.959 . S
C63 H62 0.961 . S
C63 H64 0.960 . S
H64 C63 0.960 . S
H65 N45 0.862 . S
O66 Co34 1.920 . S
O66 C39 1.289 . S
C67 O59 1.258 . S
C67 O60 1.266 . S
Co68 O71 1.970 . S
Co68 N85 1.989 . S
Co68 O93 1.967 . S
Co68 O100 1.920 . S
Co69 O72 1.966 . S
Co69 N78 2.022 . S
Co69 N86 1.993 . S
Co69 O94 1.941 . S
C70 O71 1.258 . S
C70 O72 1.263 . S
O71 Co68 1.970 . S
O71 C70 1.258 . S
O72 Co69 1.966 . S
O72 C70 1.263 . S
C73 O74 1.235 . S
C73 O100 1.289 . S
O74 C73 1.235 . S
C75 C77 1.400 . S
C75 N78 1.351 . S
C75 C80 1.501 . S
C76 C77 1.387 . S
C76 N79 1.341 . S
C77 C75 1.400 . S
C77 C76 1.387 . S
N78 Co69 2.022 . S
N78 C75 1.351 . S
N78 N79 1.365 . S
N79 C76 1.341 . S
N79 N78 1.365 . S
N79 H99 0.862 . S
C80 C75 1.501 . S
C80 H81 0.961 . S
C80 H82 0.961 . S
C80 H83 0.960 . S
H81 C80 0.961 . S
H82 C80 0.961 . S
H83 C80 0.960 . S
C84 N85 1.342 . S
C84 C88 1.401 . S
C84 C89 1.499 . S
N85 Co68 1.989 . S
N85 C84 1.342 . S
N85 N86 1.388 . S
N86 Co69 1.993 . S
N86 N85 1.388 . S
N86 C87 1.346 . S
C87 N86 1.346 . S
C87 C88 1.396 . S
C87 C97 1.510 . S
C88 C84 1.401 . S
C88 C87 1.396 . S
C89 C84 1.499 . S
C89 H90 0.959 . S
C89 H91 0.960 . S
C89 H92 0.961 . S
H90 C89 0.959 . S
H91 C89 0.960 . S
H92 C89 0.961 . S
O93 Co68 1.967 . S
O93 C101 1.258 . S
O94 Co69 1.941 . S
O94 C101 1.266 . S
H95 C97 0.959 . S
H96 C97 0.961 . S
C97 C87 1.510 . S
C97 H95 0.959 . S
C97 H96 0.961 . S
C97 H98 0.960 . S
H98 C97 0.960 . S
H99 N79 0.862 . S
O100 Co68 1.920 . S
O100 C73 1.289 . S
C101 O93 1.258 . S
C101 O94 1.266 . S
Co102 O105 1.970 . S
Co102 N119 1.989 . S
Co102 O127 1.967 . S
Co102 O134 1.920 . S
Co103 O106 1.966 . S
Co103 N112 2.022 . S
Co103 N120 1.993 . S
Co103 O128 1.941 . S
C104 O105 1.258 . S
C104 O106 1.263 . S
O105 Co102 1.970 . S
O105 C104 1.258 . S
O106 Co103 1.966 . S
O106 C104 1.263 . S
C107 O108 1.235 . S
C107 O134 1.289 . S
O108 C107 1.235 . S
C109 C111 1.400 . S
C109 N112 1.351 . S
C109 C114 1.501 . S
C110 C111 1.387 . S
C110 N113 1.341 . S
C111 C109 1.400 . S
C111 C110 1.387 . S
N112 Co103 2.022 . S
N112 C109 1.351 . S
N112 N113 1.365 . S
N113 C110 1.341 . S
N113 N112 1.365 . S
N113 H133 0.862 . S
C114 C109 1.501 . S
C114 H115 0.961 . S
C114 H116 0.961 . S
C114 H117 0.960 . S
H115 C114 0.961 . S
H116 C114 0.961 . S
H117 C114 0.960 . S
C118 N119 1.342 . S
C118 C122 1.401 . S
C118 C123 1.499 . S
N119 Co102 1.989 . S
N119 C118 1.342 . S
N119 N120 1.388 . S
N120 Co103 1.993 . S
N120 N119 1.388 . S
N120 C121 1.346 . S
C121 N120 1.346 . S
C121 C122 1.396 . S
C121 C131 1.510 . S
C122 C118 1.401 . S
C122 C121 1.396 . S
C123 C118 1.499 . S
C123 H124 0.959 . S
C123 H125 0.960 . S
C123 H126 0.961 . S
H124 C123 0.959 . S
H125 C123 0.960 . S
H126 C123 0.961 . S
O127 Co102 1.967 . S
O127 C135 1.258 . S
O128 Co103 1.941 . S
O128 C135 1.266 . S
H129 C131 0.959 . S
H130 C131 0.961 . S
C131 C121 1.510 . S
C131 H129 0.959 . S
C131 H130 0.961 . S
C131 H132 0.960 . S
H132 C131 0.960 . S
H133 N113 0.862 . S
O134 Co102 1.920 . S
O134 C107 1.289 . S
C135 O127 1.258 . S
C135 O128 1.266 . S
Co136 O139 1.970 . S
Co136 N153 1.989 . S
Co136 O161 1.967 . S
Co136 O168 1.920 . S
Co137 O140 1.966 . S
Co137 N146 2.022 . S
Co137 N154 1.993 . S
Co137 O162 1.941 . S
C138 O139 1.258 . S
C138 O140 1.263 . S
O139 Co136 1.970 . S
O139 C138 1.258 . S
O140 Co137 1.966 . S
O140 C138 1.263 . S
C141 O142 1.235 . S
C141 O168 1.289 . S
O142 C141 1.235 . S
C143 C145 1.400 . S
C143 N146 1.351 . S
C143 C148 1.501 . S
C144 C145 1.387 . S
C144 N147 1.341 . S
C145 C143 1.400 . S
C145 C144 1.387 . S
N146 Co137 2.022 . S
N146 C143 1.351 . S
N146 N147 1.365 . S
N147 C144 1.341 . S
N147 N146 1.365 . S
N147 H167 0.862 . S
C148 C143 1.501 . S
C148 H149 0.961 . S
C148 H150 0.961 . S
C148 H151 0.960 . S
H149 C148 0.961 . S
H150 C148 0.961 . S
H151 C148 0.960 . S
C152 N153 1.342 . S
C152 C156 1.401 . S
C152 C157 1.499 . S
N153 Co136 1.989 . S
N153 C152 1.342 . S
N153 N154 1.388 . S
N154 Co137 1.993 . S
N154 N153 1.388 . S
N154 C155 1.346 . S
C155 N154 1.346 . S
C155 C156 1.396 . S
C155 C165 1.510 . S
C156 C152 1.401 . S
C156 C155 1.396 . S
C157 C152 1.499 . S
C157 H158 0.959 . S
C157 H159 0.960 . S
C157 H160 0.961 . S
H158 C157 0.959 . S
H159 C157 0.960 . S
H160 C157 0.961 . S
O161 Co136 1.967 . S
O161 C169 1.258 . S
O162 Co137 1.941 . S
O162 C169 1.266 . S
H163 C165 0.959 . S
H164 C165 0.961 . S
C165 C155 1.510 . S
C165 H163 0.959 . S
C165 H164 0.961 . S
C165 H166 0.960 . S
H166 C165 0.960 . S
H167 N147 0.862 . S
O168 Co136 1.920 . S
O168 C141 1.289 . S
C169 O161 1.258 . S
C169 O162 1.266 . S
Co170 O173 1.970 . S
Co170 N187 1.989 . S
Co170 O195 1.967 . S
Co170 O202 1.920 . S
Co171 O174 1.966 . S
Co171 N180 2.022 . S
Co171 N188 1.993 . S
Co171 O196 1.941 . S
C172 O173 1.258 . S
C172 O174 1.263 . S
O173 Co170 1.970 . S
O173 C172 1.258 . S
O174 Co171 1.966 . S
O174 C172 1.263 . S
C175 O176 1.235 . S
C175 O202 1.289 . S
O176 C175 1.235 . S
C177 C179 1.400 . S
C177 N180 1.351 . S
C177 C182 1.501 . S
C178 C179 1.387 . S
C178 N181 1.341 . S
C179 C177 1.400 . S
C179 C178 1.387 . S
N180 Co171 2.022 . S
N180 C177 1.351 . S
N180 N181 1.365 . S
N181 C178 1.341 . S
N181 N180 1.365 . S
N181 H201 0.862 . S
C182 C177 1.501 . S
C182 H183 0.961 . S
C182 H184 0.961 . S
C182 H185 0.960 . S
H183 C182 0.961 . S
H184 C182 0.961 . S
H185 C182 0.960 . S
C186 N187 1.342 . S
C186 C190 1.401 . S
C186 C191 1.499 . S
N187 Co170 1.989 . S
N187 C186 1.342 . S
N187 N188 1.388 . S
N188 Co171 1.993 . S
N188 N187 1.388 . S
N188 C189 1.346 . S
C189 N188 1.346 . S
C189 C190 1.396 . S
C189 C199 1.510 . S
C190 C186 1.401 . S
C190 C189 1.396 . S
C191 C186 1.499 . S
C191 H192 0.959 . S
C191 H193 0.960 . S
C191 H194 0.961 . S
H192 C191 0.959 . S
H193 C191 0.960 . S
H194 C191 0.961 . S
O195 Co170 1.967 . S
O195 C203 1.258 . S
O196 Co171 1.941 . S
O196 C203 1.266 . S
H197 C199 0.959 . S
H198 C199 0.961 . S
C199 C189 1.510 . S
C199 H197 0.959 . S
C199 H198 0.961 . S
C199 H200 0.960 . S
H200 C199 0.960 . S
H201 N181 0.862 . S
O202 Co170 1.920 . S
O202 C175 1.289 . S
C203 O195 1.258 . S
C203 O196 1.266 . S
Co204 O207 1.970 . S
Co204 N221 1.989 . S
Co204 O229 1.967 . S
Co204 O236 1.920 . S
Co205 O208 1.966 . S
Co205 N214 2.022 . S
Co205 N222 1.993 . S
Co205 O230 1.941 . S
C206 O207 1.258 . S
C206 O208 1.263 . S
O207 Co204 1.970 . S
O207 C206 1.258 . S
O208 Co205 1.966 . S
O208 C206 1.263 . S
C209 O210 1.235 . S
C209 O236 1.289 . S
O210 C209 1.235 . S
C211 C213 1.400 . S
C211 N214 1.351 . S
C211 C216 1.501 . S
C212 C213 1.387 . S
C212 N215 1.341 . S
C213 C211 1.400 . S
C213 C212 1.387 . S
N214 Co205 2.022 . S
N214 C211 1.351 . S
N214 N215 1.365 . S
N215 C212 1.341 . S
N215 N214 1.365 . S
N215 H235 0.862 . S
C216 C211 1.501 . S
C216 H217 0.961 . S
C216 H218 0.961 . S
C216 H219 0.960 . S
H217 C216 0.961 . S
H218 C216 0.961 . S
H219 C216 0.960 . S
C220 N221 1.342 . S
C220 C224 1.401 . S
C220 C225 1.499 . S
N221 Co204 1.989 . S
N221 C220 1.342 . S
N221 N222 1.388 . S
N222 Co205 1.993 . S
N222 N221 1.388 . S
N222 C223 1.346 . S
C223 N222 1.346 . S
C223 C224 1.396 . S
C223 C233 1.510 . S
C224 C220 1.401 . S
C224 C223 1.396 . S
C225 C220 1.499 . S
C225 H226 0.959 . S
C225 H227 0.960 . S
C225 H228 0.961 . S
H226 C225 0.959 . S
H227 C225 0.960 . S
H228 C225 0.961 . S
O229 Co204 1.967 . S
O229 C237 1.258 . S
O230 Co205 1.941 . S
O230 C237 1.266 . S
H231 C233 0.959 . S
H232 C233 0.961 . S
C233 C223 1.510 . S
C233 H231 0.959 . S
C233 H232 0.961 . S
C233 H234 0.960 . S
H234 C233 0.960 . S
H235 N215 0.862 . S
O236 Co204 1.920 . S
O236 C209 1.289 . S
C237 O229 1.258 . S
C237 O230 1.266 . S
Co238 O241 1.970 . S
Co238 N255 1.989 . S
Co238 O263 1.967 . S
Co238 O270 1.920 . S
Co239 O242 1.966 . S
Co239 N248 2.022 . S
Co239 N256 1.993 . S
Co239 O264 1.941 . S
C240 O241 1.258 . S
C240 O242 1.263 . S
O241 Co238 1.970 . S
O241 C240 1.258 . S
O242 Co239 1.966 . S
O242 C240 1.263 . S
C243 O244 1.235 . S
C243 O270 1.289 . S
O244 C243 1.235 . S
C245 C247 1.400 . S
C245 N248 1.351 . S
C245 C250 1.501 . S
C246 C247 1.387 . S
C246 N249 1.341 . S
C247 C245 1.400 . S
C247 C246 1.387 . S
N248 Co239 2.022 . S
N248 C245 1.351 . S
N248 N249 1.365 . S
N249 C246 1.341 . S
N249 N248 1.365 . S
N249 H269 0.862 . S
C250 C245 1.501 . S
C250 H251 0.961 . S
C250 H252 0.961 . S
C250 H253 0.960 . S
H251 C250 0.961 . S
H252 C250 0.961 . S
H253 C250 0.960 . S
C254 N255 1.342 . S
C254 C258 1.401 . S
C254 C259 1.499 . S
N255 Co238 1.989 . S
N255 C254 1.342 . S
N255 N256 1.388 . S
N256 Co239 1.993 . S
N256 N255 1.388 . S
N256 C257 1.346 . S
C257 N256 1.346 . S
C257 C258 1.396 . S
C257 C267 1.510 . S
C258 C254 1.401 . S
C258 C257 1.396 . S
C259 C254 1.499 . S
C259 H260 0.959 . S
C259 H261 0.960 . S
C259 H262 0.961 . S
H260 C259 0.959 . S
H261 C259 0.960 . S
H262 C259 0.961 . S
O263 Co238 1.967 . S
O263 C271 1.258 . S
O264 Co239 1.941 . S
O264 C271 1.266 . S
H265 C267 0.959 . S
H266 C267 0.961 . S
C267 C257 1.510 . S
C267 H265 0.959 . S
C267 H266 0.961 . S
C267 H268 0.960 . S
H268 C267 0.960 . S
H269 N249 0.862 . S
O270 Co238 1.920 . S
O270 C243 1.289 . S
C271 O263 1.258 . S
C271 O264 1.266 . S
Co272 O275 1.970 . S
Co272 N289 1.989 . S
Co272 O297 1.967 . S
Co272 O304 1.920 . S
Co273 O276 1.966 . S
Co273 N282 2.022 . S
Co273 N290 1.993 . S
Co273 O298 1.941 . S
C274 O275 1.258 . S
C274 O276 1.263 . S
O275 Co272 1.970 . S
O275 C274 1.258 . S
O276 Co273 1.966 . S
O276 C274 1.263 . S
C277 O278 1.235 . S
C277 O304 1.289 . S
O278 C277 1.235 . S
C279 C281 1.400 . S
C279 N282 1.351 . S
C279 C284 1.501 . S
C280 C281 1.387 . S
C280 N283 1.341 . S
C281 C279 1.400 . S
C281 C280 1.387 . S
N282 Co273 2.022 . S
N282 C279 1.351 . S
N282 N283 1.365 . S
N283 C280 1.341 . S
N283 N282 1.365 . S
N283 H303 0.862 . S
C284 C279 1.501 . S
C284 H285 0.961 . S
C284 H286 0.961 . S
C284 H287 0.960 . S
H285 C284 0.961 . S
H286 C284 0.961 . S
H287 C284 0.960 . S
C288 N289 1.342 . S
C288 C292 1.401 . S
C288 C293 1.499 . S
N289 Co272 1.989 . S
N289 C288 1.342 . S
N289 N290 1.388 . S
N290 Co273 1.993 . S
N290 N289 1.388 . S
N290 C291 1.346 . S
C291 N290 1.346 . S
C291 C292 1.396 . S
C291 C301 1.510 . S
C292 C288 1.401 . S
C292 C291 1.396 . S
C293 C288 1.499 . S
C293 H294 0.959 . S
C293 H295 0.960 . S
C293 H296 0.961 . S
H294 C293 0.959 . S
H295 C293 0.960 . S
H296 C293 0.961 . S
O297 Co272 1.967 . S
O297 C305 1.258 . S
O298 Co273 1.941 . S
O298 C305 1.266 . S
H299 C301 0.959 . S
H300 C301 0.961 . S
C301 C291 1.510 . S
C301 H299 0.959 . S
C301 H300 0.961 . S
C301 H302 0.960 . S
H302 C301 0.960 . S
H303 N283 0.862 . S
O304 Co272 1.920 . S
O304 C277 1.289 . S
C305 O297 1.258 . S
C305 O298 1.266 . S
Co306 O309 1.970 . S
Co306 N323 1.989 . S
Co306 O331 1.967 . S
Co306 O338 1.920 . S
Co307 O310 1.966 . S
Co307 N316 2.022 . S
Co307 N324 1.993 . S
Co307 O332 1.941 . S
C308 O309 1.258 . S
C308 O310 1.263 . S
O309 Co306 1.970 . S
O309 C308 1.258 . S
O310 Co307 1.966 . S
O310 C308 1.263 . S
C311 O312 1.235 . S
C311 O338 1.289 . S
O312 C311 1.235 . S
C313 C315 1.400 . S
C313 N316 1.351 . S
C313 C318 1.501 . S
C314 C315 1.387 . S
C314 N317 1.341 . S
C315 C313 1.400 . S
C315 C314 1.387 . S
N316 Co307 2.022 . S
N316 C313 1.351 . S
N316 N317 1.365 . S
N317 C314 1.341 . S
N317 N316 1.365 . S
N317 H337 0.862 . S
C318 C313 1.501 . S
C318 H319 0.961 . S
C318 H320 0.961 . S
C318 H321 0.960 . S
H319 C318 0.961 . S
H320 C318 0.961 . S
H321 C318 0.960 . S
C322 N323 1.342 . S
C322 C326 1.401 . S
C322 C327 1.499 . S
N323 Co306 1.989 . S
N323 C322 1.342 . S
N323 N324 1.388 . S
N324 Co307 1.993 . S
N324 N323 1.388 . S
N324 C325 1.346 . S
C325 N324 1.346 . S
C325 C326 1.396 . S
C325 C335 1.510 . S
C326 C322 1.401 . S
C326 C325 1.396 . S
C327 C322 1.499 . S
C327 H328 0.959 . S
C327 H329 0.960 . S
C327 H330 0.961 . S
H328 C327 0.959 . S
H329 C327 0.960 . S
H330 C327 0.961 . S
O331 Co306 1.967 . S
O331 C339 1.258 . S
O332 Co307 1.941 . S
O332 C339 1.266 . S
H333 C335 0.959 . S
H334 C335 0.961 . S
C335 C325 1.510 . S
C335 H333 0.959 . S
C335 H334 0.961 . S
C335 H336 0.960 . S
H336 C335 0.960 . S
H337 N317 0.862 . S
O338 Co306 1.920 . S
O338 C311 1.289 . S
C339 O331 1.258 . S
C339 O332 1.266 . S
Co340 O343 1.970 . S
Co340 N357 1.989 . S
Co340 O365 1.967 . S
Co340 O372 1.920 . S
Co341 O344 1.966 . S
Co341 N350 2.022 . S
Co341 N358 1.993 . S
Co341 O366 1.941 . S
C342 O343 1.258 . S
C342 O344 1.263 . S
O343 Co340 1.970 . S
O343 C342 1.258 . S
O344 Co341 1.966 . S
O344 C342 1.263 . S
C345 O346 1.235 . S
C345 O372 1.289 . S
O346 C345 1.235 . S
C347 C349 1.400 . S
C347 N350 1.351 . S
C347 C352 1.501 . S
C348 C349 1.387 . S
C348 N351 1.341 . S
C349 C347 1.400 . S
C349 C348 1.387 . S
N350 Co341 2.022 . S
N350 C347 1.351 . S
N350 N351 1.365 . S
N351 C348 1.341 . S
N351 N350 1.365 . S
N351 H371 0.862 . S
C352 C347 1.501 . S
C352 H353 0.961 . S
C352 H354 0.961 . S
C352 H355 0.960 . S
H353 C352 0.961 . S
H354 C352 0.961 . S
H355 C352 0.960 . S
C356 N357 1.342 . S
C356 C360 1.401 . S
C356 C361 1.499 . S
N357 Co340 1.989 . S
N357 C356 1.342 . S
N357 N358 1.388 . S
N358 Co341 1.993 . S
N358 N357 1.388 . S
N358 C359 1.346 . S
C359 N358 1.346 . S
C359 C360 1.396 . S
C359 C369 1.510 . S
C360 C356 1.401 . S
C360 C359 1.396 . S
C361 C356 1.499 . S
C361 H362 0.959 . S
C361 H363 0.960 . S
C361 H364 0.961 . S
H362 C361 0.959 . S
H363 C361 0.960 . S
H364 C361 0.961 . S
O365 Co340 1.967 . S
O365 C373 1.258 . S
O366 Co341 1.941 . S
O366 C373 1.266 . S
H367 C369 0.959 . S
H368 C369 0.961 . S
C369 C359 1.510 . S
C369 H367 0.959 . S
C369 H368 0.961 . S
C369 H370 0.960 . S
H370 C369 0.960 . S
H371 N351 0.862 . S
O372 Co340 1.920 . S
O372 C345 1.289 . S
C373 O365 1.258 . S
C373 O366 1.266 . S
Co374 O377 1.970 . S
Co374 N391 1.989 . S
Co374 O399 1.967 . S
Co374 O406 1.920 . S
Co375 O378 1.966 . S
Co375 N384 2.022 . S
Co375 N392 1.993 . S
Co375 O400 1.941 . S
C376 O377 1.258 . S
C376 O378 1.263 . S
O377 Co374 1.970 . S
O377 C376 1.258 . S
O378 Co375 1.966 . S
O378 C376 1.263 . S
C379 O380 1.235 . S
C379 O406 1.289 . S
O380 C379 1.235 . S
C381 C383 1.400 . S
C381 N384 1.351 . S
C381 C386 1.501 . S
C382 C383 1.387 . S
C382 N385 1.341 . S
C383 C381 1.400 . S
C383 C382 1.387 . S
N384 Co375 2.022 . S
N384 C381 1.351 . S
N384 N385 1.365 . S
N385 C382 1.341 . S
N385 N384 1.365 . S
N385 H405 0.862 . S
C386 C381 1.501 . S
C386 H387 0.961 . S
C386 H388 0.961 . S
C386 H389 0.960 . S
H387 C386 0.961 . S
H388 C386 0.961 . S
H389 C386 0.960 . S
C390 N391 1.342 . S
C390 C394 1.401 . S
C390 C395 1.499 . S
N391 Co374 1.989 . S
N391 C390 1.342 . S
N391 N392 1.388 . S
N392 Co375 1.993 . S
N392 N391 1.388 . S
N392 C393 1.346 . S
C393 N392 1.346 . S
C393 C394 1.396 . S
C393 C403 1.510 . S
C394 C390 1.401 . S
C394 C393 1.396 . S
C395 C390 1.499 . S
C395 H396 0.959 . S
C395 H397 0.960 . S
C395 H398 0.961 . S
H396 C395 0.959 . S
H397 C395 0.960 . S
H398 C395 0.961 . S
O399 Co374 1.967 . S
O399 C407 1.258 . S
O400 Co375 1.941 . S
O400 C407 1.266 . S
H401 C403 0.959 . S
H402 C403 0.961 . S
C403 C393 1.510 . S
C403 H401 0.959 . S
C403 H402 0.961 . S
C403 H404 0.960 . S
H404 C403 0.960 . S
H405 N385 0.862 . S
O406 Co374 1.920 . S
O406 C379 1.289 . S
C407 O399 1.258 . S
C407 O400 1.266 . S
C408 C409 1.391 . S
C408 C410 1.394 . S
C408 H424 0.931 . S
C409 C408 1.391 . S
C409 C413 1.376 1_545 S
C410 C408 1.394 . S
C410 C411 1.369 . S
C410 C414 1.531 1_554 S
C411 C410 1.369 . S
C411 C412 1.410 1_545 S
C411 C419 1.503 1_544 S
C412 C411 1.410 1_565 S
C412 C413 1.392 . S
C412 C415 1.511 . S
C413 C409 1.376 1_565 S
C413 C412 1.392 . S
C413 H425 0.929 . S
C414 C410 1.531 1_556 S
C414 H426 0.960 . S
C414 H427 0.962 . S
C414 H428 0.960 1_556 S
C415 C412 1.511 . S
C415 H429 0.961 . S
C415 H430 0.961 . S
C415 H431 0.961 . S
C416 C417 1.370 . S
C416 C418 1.363 . S
C416 H432 0.931 . S
C417 C416 1.370 . S
C417 C421 1.408 . S
C418 C416 1.363 . S
C418 C419 1.370 . S
C418 C422 1.524 1_565 S
C419 C411 1.503 1_566 S
C419 C418 1.370 . S
C419 C420 1.403 . S
C420 C419 1.403 . S
C420 C421 1.404 . S
C420 C423 1.539 . S
C421 C417 1.408 . S
C421 C420 1.404 . S
C421 H433 0.930 . S
C422 C418 1.524 1_545 S
C422 H434 0.956 . S
C422 H435 0.961 1_546 S
C422 H436 0.961 . S
C423 C420 1.539 . S
C423 H437 0.958 . S
C423 H438 0.961 . S
C423 H439 0.960 1_556 S
H424 C408 0.931 . S
H425 C413 0.929 . S
H426 C414 0.960 . S
H427 C414 0.962 . S
H428 C414 0.960 1_554 S
H429 C415 0.961 . S
H430 C415 0.961 . S
H431 C415 0.961 . S
H432 C416 0.931 . S
H433 C421 0.930 . S
H434 C422 0.956 . S
H435 C422 0.961 1_564 S
H436 C422 0.961 . S
H437 C423 0.958 . S
H438 C423 0.961 . S
H439 C423 0.960 1_554 S
C440 C441 1.391 . S
C440 C442 1.394 . S
C440 H456 0.931 . S
C441 C440 1.391 . S
C441 C445 1.376 . S
C442 C440 1.394 . S
C442 C443 1.369 . S
C442 C446 1.531 . S
C443 C442 1.369 . S
C443 C444 1.410 . S
C443 C451 1.503 . S
C444 C443 1.410 . S
C444 C445 1.392 . S
C444 C447 1.511 . S
C445 C441 1.376 . S
C445 C444 1.392 . S
C445 H457 0.929 . S
C446 C442 1.531 . S
C446 H458 0.960 . S
C446 H459 0.962 . S
C446 H460 0.960 . S
C447 C444 1.511 . S
C447 H461 0.961 . S
C447 H462 0.961 . S
C447 H463 0.961 . S
C448 C449 1.370 . S
C448 C450 1.363 . S
C448 H464 0.931 . S
C449 C448 1.370 . S
C449 C453 1.408 . S
C450 C448 1.363 . S
C450 C451 1.370 . S
C450 C454 1.524 . S
C451 C443 1.503 . S
C451 C450 1.370 . S
C451 C452 1.403 . S
C452 C451 1.403 . S
C452 C453 1.404 . S
C452 C455 1.539 . S
C453 C449 1.408 . S
C453 C452 1.404 . S
C453 H465 0.930 . S
C454 C450 1.524 . S
C454 H466 0.956 . S
C454 H467 0.961 . S
C454 H468 0.961 . S
C455 C452 1.539 . S
C455 H469 0.958 . S
C455 H470 0.961 . S
C455 H471 0.960 . S
H456 C440 0.931 . S
H457 C445 0.929 . S
H458 C446 0.960 . S
H459 C446 0.962 . S
H460 C446 0.960 . S
H461 C447 0.961 . S
H462 C447 0.961 . S
H463 C447 0.961 . S
H464 C448 0.931 . S
H465 C453 0.930 . S
H466 C454 0.956 . S
H467 C454 0.961 . S
H468 C454 0.961 . S
H469 C455 0.958 . S
H470 C455 0.961 . S
H471 C455 0.960 . S
C472 C473 1.391 1_455 S
C472 C474 1.394 . S
C472 H488 0.931 . S
C473 C472 1.391 1_655 S
C473 C477 1.376 . S
C474 C472 1.394 . S
C474 C475 1.369 1_455 S
C474 C478 1.531 . S
C475 C474 1.369 1_655 S
C475 C476 1.410 . S
C475 C483 1.503 1_655 S
C476 C475 1.410 . S
C476 C477 1.392 . S
C476 C479 1.511 . S
C477 C473 1.376 . S
C477 C476 1.392 . S
C477 H489 0.929 . S
C478 C474 1.531 . S
C478 H490 0.960 . S
C478 H491 0.962 . S
C478 H492 0.960 . S
C479 C476 1.511 . S
C479 H493 0.961 . S
C479 H494 0.961 . S
C479 H495 0.961 . S
C480 C481 1.370 . S
C480 C482 1.363 . S
C480 H496 0.931 . S
C481 C480 1.370 . S
C481 C485 1.408 . S
C482 C480 1.363 . S
C482 C483 1.370 . S
C482 C486 1.524 1_455 S
C483 C475 1.503 1_455 S
C483 C482 1.370 . S
C483 C484 1.403 . S
C484 C483 1.403 . S
C484 C485 1.404 . S
C484 C487 1.539 . S
C485 C481 1.408 . S
C485 C484 1.404 . S
C485 H497 0.930 . S
C486 C482 1.524 1_655 S
C486 H498 0.956 . S
C486 H499 0.961 . S
C486 H500 0.961 . S
C487 C484 1.539 . S
C487 H501 0.958 . S
C487 H502 0.961 . S
C487 H503 0.960 . S
H488 C472 0.931 . S
H489 C477 0.929 . S
H490 C478 0.960 . S
H491 C478 0.962 . S
H492 C478 0.960 . S
H493 C479 0.961 . S
H494 C479 0.961 . S
H495 C479 0.961 . S
H496 C480 0.931 . S
H497 C485 0.930 . S
H498 C486 0.956 . S
H499 C486 0.961 . S
H500 C486 0.961 . S
H501 C487 0.958 . S
H502 C487 0.961 . S
H503 C487 0.960 . S
C504 C505 1.391 . S
C504 C506 1.394 1_545 S
C504 H520 0.931 1_545 S
C505 C504 1.391 . S
C505 C509 1.376 . S
C506 C504 1.394 1_565 S
C506 C507 1.369 1_565 S
C506 C510 1.531 . S
C507 C506 1.369 1_545 S
C507 C508 1.410 . S
C507 C515 1.503 1_546 S
C508 C507 1.410 . S
C508 C509 1.392 . S
C508 C511 1.445 1_556 S
C509 C505 1.376 . S
C509 C508 1.392 . S
C509 H521 0.929 . S
C510 C506 1.531 . S
C510 H522 0.960 . S
C510 H523 0.962 . S
C510 H524 0.960 . S
C511 C508 1.445 1_554 S
C511 H525 0.925 1_554 S
C511 H526 1.034 . S
C511 H527 1.002 . S
C512 C513 1.370 . S
C512 C514 1.363 . S
C512 H528 0.931 . S
C513 C512 1.370 . S
C513 C517 1.408 . S
C514 C512 1.363 . S
C514 C515 1.370 . S
C514 C518 1.552 . S
C515 C507 1.503 1_564 S
C515 C514 1.370 . S
C515 C516 1.403 1_565 S
C516 C515 1.403 1_545 S
C516 C517 1.404 1_545 S
C516 C519 1.539 . S
C517 C513 1.408 . S
C517 C516 1.404 1_565 S
C517 H529 0.930 . S
C518 C514 1.552 . S
C518 H530 0.926 1_554 S
C518 H531 0.945 1_554 S
C518 H532 0.980 . S
C519 C516 1.539 . S
C519 H533 0.958 . S
C519 H534 0.961 . S
C519 H535 0.960 . S
H520 C504 0.931 1_565 S
H521 C509 0.929 . S
H522 C510 0.960 . S
H523 C510 0.962 . S
H524 C510 0.960 . S
H525 C511 0.925 1_556 S
H526 C511 1.034 . S
H527 C511 1.002 . S
H528 C512 0.931 . S
H529 C517 0.930 . S
H530 C518 0.926 1_556 S
H531 C518 0.945 1_556 S
H532 C518 0.980 . S
H533 C519 0.958 . S
H534 C519 0.961 . S
H535 C519 0.960 . S
C536 C537 1.391 . S
C536 C538 1.394 . S
C536 H552 0.931 . S
C537 C536 1.391 . S
C537 C541 1.376 . S
C538 C536 1.394 . S
C538 C539 1.369 . S
C538 C542 1.531 . S
C539 C538 1.369 . S
C539 C540 1.410 . S
C539 C547 1.503 . S
C540 C539 1.410 . S
C540 C541 1.392 . S
C540 C543 1.511 . S
C541 C537 1.376 . S
C541 C540 1.392 . S
C541 H553 0.929 . S
C542 C538 1.531 . S
C542 H554 0.960 . S
C542 H555 0.962 . S
C542 H556 0.960 . S
C543 C540 1.511 . S
C543 H557 0.961 . S
C543 H558 0.961 . S
C543 H559 0.961 . S
C544 C545 1.370 . S
C544 C546 1.363 . S
C544 H560 0.931 . S
C545 C544 1.370 . S
C545 C549 1.408 . S
C546 C544 1.363 . S
C546 C547 1.370 . S
C546 C550 1.524 . S
C547 C539 1.503 . S
C547 C546 1.370 . S
C547 C548 1.403 . S
C548 C547 1.403 . S
C548 C549 1.404 . S
C548 C551 1.539 . S
C549 C545 1.408 . S
C549 C548 1.404 . S
C549 H561 0.930 . S
C550 C546 1.524 . S
C550 H562 0.956 . S
C550 H563 0.961 . S
C550 H564 0.961 . S
C551 C548 1.539 . S
C551 H565 0.958 . S
C551 H566 0.961 . S
C551 H567 0.960 . S
H552 C536 0.931 . S
H553 C541 0.929 . S
H554 C542 0.960 . S
H555 C542 0.962 . S
H556 C542 0.960 . S
H557 C543 0.961 . S
H558 C543 0.961 . S
H559 C543 0.961 . S
H560 C544 0.931 . S
H561 C549 0.930 . S
H562 C550 0.956 . S
H563 C550 0.961 . S
H564 C550 0.961 . S
H565 C551 0.958 . S
H566 C551 0.961 . S
H567 C551 0.960 . S
C568 C569 1.391 . S
C568 C570 1.394 . S
C568 H584 0.931 . S
C569 C568 1.391 . S
C569 C573 1.376 . S
C570 C568 1.394 . S
C570 C571 1.370 1_455 S
C570 C574 1.531 . S
C571 C570 1.370 1_655 S
C571 C572 1.409 . S
C571 C579 1.503 . S
C572 C571 1.409 . S
C572 C573 1.392 1_655 S
C572 C575 1.511 . S
C573 C569 1.376 . S
C573 C572 1.392 1_455 S
C573 H585 0.929 . S
C574 C570 1.531 . S
C574 H586 0.960 . S
C574 H587 0.962 . S
C574 H588 0.960 . S
C575 C572 1.511 . S
C575 H589 0.961 . S
C575 H590 0.961 . S
C575 H591 0.961 . S
C576 C577 1.380 . S
C576 C578 1.359 1_655 S
C576 H592 0.925 1_655 S
C577 C576 1.380 . S
C577 C581 1.408 . S
C578 C576 1.359 1_455 S
C578 C579 1.370 1_455 S
C578 C582 1.524 . S
C579 C571 1.503 . S
C579 C578 1.370 1_655 S
C579 C580 1.403 . S
C580 C579 1.403 . S
C580 C581 1.404 . S
C580 C583 1.539 . S
C581 C577 1.408 . S
C581 C580 1.404 . S
C581 H593 0.930 . S
C582 C578 1.524 . S
C582 H594 0.956 . S
C582 H595 0.961 . S
C582 H596 0.961 . S
C583 C580 1.539 . S
C583 H597 0.958 . S
C583 H598 0.961 . S
C583 H599 0.960 . S
H584 C568 0.931 . S
H585 C573 0.929 . S
H586 C574 0.960 . S
H587 C574 0.962 . S
H588 C574 0.960 . S
H589 C575 0.961 . S
H590 C575 0.961 . S
H591 C575 0.961 . S
H592 C576 0.925 1_455 S
H593 C581 0.930 . S
H594 C582 0.956 . S
H595 C582 0.961 . S
H596 C582 0.961 . S
H597 C583 0.958 . S
H598 C583 0.961 . S
H599 C583 0.960 . S
C600 C601 1.391 . S
C600 C602 1.394 . S
C600 H616 0.931 . S
C601 C600 1.391 . S
C601 C605 1.376 . S
C602 C600 1.394 . S
C602 C603 1.369 . S
C602 C606 1.531 1_565 S
C603 C602 1.369 . S
C603 C604 1.410 . S
C603 C611 1.503 1_565 S
C604 C603 1.410 . S
C604 C605 1.392 . S
C604 C607 1.511 . S
C605 C601 1.376 . S
C605 C604 1.392 . S
C605 H617 0.929 . S
C606 C602 1.531 1_545 S
C606 H618 0.960 . S
C606 H619 0.962 1_545 S
C606 H620 0.960 . S
C607 C604 1.511 . S
C607 H621 0.961 . S
C607 H622 0.961 . S
C607 H623 0.961 1_565 S
C608 C609 1.370 . S
C608 C610 1.363 1_545 S
C608 H624 0.931 1_545 S
C609 C608 1.370 . S
C609 C613 1.408 . S
C610 C608 1.363 1_565 S
C610 C611 1.370 1_565 S
C610 C614 1.524 . S
C611 C603 1.503 1_545 S
C611 C610 1.370 1_545 S
C611 C612 1.403 . S
C612 C611 1.403 . S
C612 C613 1.404 . S
C612 C615 1.539 . S
C613 C609 1.408 . S
C613 C612 1.404 . S
C613 H625 0.930 . S
C614 C610 1.524 . S
C614 H626 0.956 . S
C614 H627 0.961 . S
C614 H628 0.961 . S
C615 C612 1.539 . S
C615 H629 0.958 . S
C615 H630 0.961 . S
C615 H631 0.960 . S
H616 C600 0.931 . S
H617 C605 0.929 . S
H618 C606 0.960 . S
H619 C606 0.962 1_565 S
H620 C606 0.960 . S
H621 C607 0.961 . S
H622 C607 0.961 . S
H623 C607 0.961 1_545 S
H624 C608 0.931 1_565 S
H625 C613 0.930 . S
H626 C614 0.956 . S
H627 C614 0.961 . S
H628 C614 0.961 . S
H629 C615 0.958 . S
H630 C615 0.961 . S
H631 C615 0.960 . S
C632 C633 1.391 . S
C632 C634 1.394 . S
C632 H648 0.931 . S
C633 C632 1.391 . S
C633 C637 1.376 . S
C634 C632 1.394 . S
C634 C635 1.369 . S
C634 C638 1.531 . S
C635 C634 1.369 . S
C635 C636 1.410 . S
C635 C643 1.503 . S
C636 C635 1.410 . S
C636 C637 1.392 . S
C636 C639 1.511 . S
C637 C633 1.376 . S
C637 C636 1.392 . S
C637 H649 0.929 . S
C638 C634 1.531 . S
C638 H650 0.960 . S
C638 H651 0.962 . S
C638 H652 0.960 . S
C639 C636 1.511 . S
C639 H653 0.961 . S
C639 H654 0.961 . S
C639 H655 0.961 . S
C640 C641 1.370 . S
C640 C642 1.363 . S
C640 H656 0.931 . S
C641 C640 1.370 . S
C641 C645 1.408 . S
C642 C640 1.363 . S
C642 C643 1.370 . S
C642 C646 1.524 . S
C643 C635 1.503 . S
C643 C642 1.370 . S
C643 C644 1.403 . S
C644 C643 1.403 . S
C644 C645 1.404 . S
C644 C647 1.539 . S
C645 C641 1.408 . S
C645 C644 1.404 . S
C645 H657 0.930 . S
C646 C642 1.524 . S
C646 H658 0.956 . S
C646 H659 0.961 . S
C646 H660 0.961 . S
C647 C644 1.539 . S
C647 H661 0.958 . S
C647 H662 0.961 . S
C647 H663 0.960 . S
H648 C632 0.931 . S
H649 C637 0.929 . S
H650 C638 0.960 . S
H651 C638 0.962 . S
H652 C638 0.960 . S
H653 C639 0.961 . S
H654 C639 0.961 . S
H655 C639 0.961 . S
H656 C640 0.931 . S
H657 C645 0.930 . S
H658 C646 0.956 . S
H659 C646 0.961 . S
H660 C646 0.961 . S
H661 C647 0.958 . S
H662 C647 0.961 . S
H663 C647 0.960 . S
C664 C665 1.391 . S
C664 C666 1.394 . S
C664 H680 0.931 . S
C665 C664 1.391 . S
C665 C669 1.376 . S
C666 C664 1.394 . S
C666 C667 1.369 . S
C666 C670 1.531 . S
C667 C666 1.369 . S
C667 C668 1.410 . S
C667 C675 1.503 1_455 S
C668 C667 1.410 . S
C668 C669 1.392 . S
C668 C671 1.511 1_455 S
C669 C665 1.376 . S
C669 C668 1.392 . S
C669 H681 0.929 . S
C670 C666 1.531 . S
C670 H682 0.960 1_455 S
C670 H683 0.962 . S
C670 H684 0.960 . S
C671 C668 1.511 1_655 S
C671 H685 0.961 1_655 S
C671 H686 0.961 . S
C671 H687 0.961 . S
C672 C673 1.370 . S
C672 C674 1.363 1_655 S
C672 H688 0.931 1_655 S
C673 C672 1.370 . S
C673 C677 1.408 . S
C674 C672 1.363 1_455 S
C674 C675 1.370 1_455 S
C674 C678 1.524 . S
C675 C667 1.503 1_655 S
C675 C674 1.370 1_655 S
C675 C676 1.403 . S
C676 C675 1.403 . S
C676 C677 1.404 . S
C676 C679 1.539 . S
C677 C673 1.408 . S
C677 C676 1.404 . S
C677 H689 0.930 . S
C678 C674 1.524 . S
C678 H690 0.956 . S
C678 H691 0.961 . S
C678 H692 0.961 . S
C679 C676 1.539 . S
C679 H693 0.958 . S
C679 H694 0.961 . S
C679 H695 0.960 . S
H680 C664 0.931 . S
H681 C669 0.929 . S
H682 C670 0.960 1_655 S
H683 C670 0.962 . S
H684 C670 0.960 . S
H685 C671 0.961 1_455 S
H686 C671 0.961 . S
H687 C671 0.961 . S
H688 C672 0.931 1_455 S
H689 C677 0.930 . S
H690 C678 0.956 . S
H691 C678 0.961 . S
H692 C678 0.961 . S
H693 C679 0.958 . S
H694 C679 0.961 . S
H695 C679 0.960 . S
C696 C697 1.391 . S
C696 C698 1.394 1_455 S
C696 H712 0.931 1_455 S
C697 C696 1.391 . S
C697 C701 1.376 . S
C698 C696 1.394 1_655 S
C698 C699 1.369 1_655 S
C698 C702 1.531 . S
C699 C698 1.369 1_455 S
C699 C700 1.410 . S
C699 C707 1.503 1_455 S
C700 C699 1.410 . S
C700 C701 1.392 . S
C700 C703 1.511 . S
C701 C697 1.376 . S
C701 C700 1.392 . S
C701 H713 0.929 . S
C702 C698 1.531 . S
C702 H714 0.960 . S
C702 H715 0.962 . S
C702 H716 0.960 . S
C703 C700 1.511 . S
C703 H717 0.961 . S
C703 H718 0.961 . S
C703 H719 0.961 . S
C704 C705 1.370 . S
C704 C706 1.363 . S
C704 H720 0.931 . S
C705 C704 1.370 . S
C705 C709 1.408 . S
C706 C704 1.363 . S
C706 C707 1.370 . S
C706 C710 1.524 . S
C707 C699 1.503 1_655 S
C707 C706 1.370 . S
C707 C708 1.403 . S
C708 C707 1.403 . S
C708 C709 1.404 . S
C708 C711 1.539 1_655 S
C709 C705 1.408 . S
C709 C708 1.404 . S
C709 H721 0.930 . S
C710 C706 1.524 . S
C710 H722 0.956 . S
C710 H723 0.961 1_655 S
C710 H724 0.961 . S
C711 C708 1.539 1_455 S
C711 H725 0.958 1_455 S
C711 H726 0.961 . S
C711 H727 0.960 . S
H712 C696 0.931 1_655 S
H713 C701 0.929 . S
H714 C702 0.960 . S
H715 C702 0.962 . S
H716 C702 0.960 . S
H717 C703 0.961 . S
H718 C703 0.961 . S
H719 C703 0.961 . S
H720 C704 0.931 . S
H721 C709 0.930 . S
H722 C710 0.956 . S
H723 C710 0.961 1_455 S
H724 C710 0.961 . S
H725 C711 0.958 1_655 S
H726 C711 0.961 . S
H727 C711 0.960 . S
C728 C729 1.391 . S
C728 C730 1.394 . S
C728 H744 0.931 . S
C729 C728 1.391 . S
C729 C733 1.376 . S
C730 C728 1.394 . S
C730 C731 1.369 . S
C730 C734 1.531 . S
C731 C730 1.369 . S
C731 C732 1.410 . S
C731 C739 1.503 1_545 S
C732 C731 1.410 . S
C732 C733 1.392 . S
C732 C735 1.511 1_545 S
C733 C729 1.376 . S
C733 C732 1.392 . S
C733 H745 0.929 . S
C734 C730 1.531 . S
C734 H746 0.960 . S
C734 H747 0.962 . S
C734 H748 0.960 . S
C735 C732 1.511 1_565 S
C735 H749 0.961 . S
C735 H750 0.961 . S
C735 H751 0.961 . S
C736 C737 1.370 . S
C736 C738 1.363 . S
C736 H752 0.931 . S
C737 C736 1.370 . S
C737 C741 1.408 . S
C738 C736 1.363 . S
C738 C739 1.370 . S
C738 C742 1.524 . S
C739 C731 1.503 1_565 S
C739 C738 1.370 . S
C739 C740 1.405 . S
C740 C739 1.405 . S
C740 C741 1.404 . S
C740 C743 1.537 1_565 S
C741 C737 1.408 . S
C741 C740 1.404 . S
C741 H753 0.930 . S
C742 C738 1.524 . S
C742 H754 0.956 . S
C742 H755 0.961 . S
C742 H756 0.961 . S
C743 C740 1.537 1_545 S
C743 H757 0.958 . S
C743 H758 0.961 . S
C743 H759 0.960 . S
H744 C728 0.931 . S
H745 C733 0.929 . S
H746 C734 0.960 . S
H747 C734 0.962 . S
H748 C734 0.960 . S
H749 C735 0.961 . S
H750 C735 0.961 . S
H751 C735 0.961 . S
H752 C736 0.931 . S
H753 C741 0.930 . S
H754 C742 0.956 . S
H755 C742 0.961 . S
H756 C742 0.961 . S
H757 C743 0.958 . S
H758 C743 0.961 . S
H759 C743 0.960 . S
C760 C761 1.391 . S
C760 C762 1.394 . S
C760 H776 0.931 . S
C761 C760 1.391 . S
C761 C765 1.376 . S
C762 C760 1.394 . S
C762 C763 1.369 . S
C762 C766 1.531 . S
C763 C762 1.369 . S
C763 C764 1.410 . S
C763 C771 1.503 . S
C764 C763 1.410 . S
C764 C765 1.392 . S
C764 C767 1.511 . S
C765 C761 1.376 . S
C765 C764 1.392 . S
C765 H777 0.929 . S
C766 C762 1.531 . S
C766 H778 0.960 . S
C766 H779 0.962 . S
C766 H780 0.960 . S
C767 C764 1.511 . S
C767 H781 0.961 . S
C767 H782 0.961 . S
C767 H783 0.961 . S
C768 C769 1.370 . S
C768 C770 1.363 . S
C768 H784 0.931 . S
C769 C768 1.370 . S
C769 C773 1.408 . S
C770 C768 1.363 . S
C770 C771 1.370 . S
C770 C774 1.524 . S
C771 C763 1.503 . S
C771 C770 1.370 . S
C771 C772 1.403 . S
C772 C771 1.403 . S
C772 C773 1.404 . S
C772 C775 1.539 . S
C773 C769 1.408 . S
C773 C772 1.404 . S
C773 H785 0.930 . S
C774 C770 1.524 . S
C774 H786 0.956 . S
C774 H787 0.961 . S
C774 H788 0.961 . S
C775 C772 1.539 . S
C775 H789 0.958 . S
C775 H790 0.961 . S
C775 H791 0.960 . S
H776 C760 0.931 . S
H777 C765 0.929 . S
H778 C766 0.960 . S
H779 C766 0.962 . S
H780 C766 0.960 . S
H781 C767 0.961 . S
H782 C767 0.961 . S
H783 C767 0.961 . S
H784 C768 0.931 . S
H785 C773 0.930 . S
H786 C774 0.956 . S
H787 C774 0.961 . S
H788 C774 0.961 . S
H789 C775 0.958 . S
H790 C775 0.961 . S
H791 C775 0.960 . S
C792 C793 1.391 . S
C792 C794 1.394 . S
C792 H808 0.931 . S
C793 C792 1.391 . S
C793 C797 1.376 . S
C794 C792 1.394 . S
C794 C795 1.369 . S
C794 C798 1.531 . S
C795 C794 1.369 . S
C795 C796 1.410 . S
C795 C803 1.503 . S
C796 C795 1.410 . S
C796 C797 1.392 . S
C796 C799 1.511 . S
C797 C793 1.376 . S
C797 C796 1.392 . S
C797 H809 0.929 . S
C798 C794 1.531 . S
C798 H810 0.960 . S
C798 H811 0.962 . S
C798 H812 0.960 . S
C799 C796 1.511 . S
C799 H813 0.961 . S
C799 H814 0.961 . S
C799 H815 0.961 . S
C800 C801 1.370 . S
C800 C802 1.363 . S
C800 H816 0.931 . S
C801 C800 1.370 . S
C801 C805 1.408 . S
C802 C800 1.363 . S
C802 C803 1.370 . S
C802 C806 1.524 . S
C803 C795 1.503 . S
C803 C802 1.370 . S
C803 C804 1.403 . S
C804 C803 1.403 . S
C804 C805 1.404 . S
C804 C807 1.539 . S
C805 C801 1.408 . S
C805 C804 1.404 . S
C805 H817 0.930 . S
C806 C802 1.524 . S
C806 H818 0.956 . S
C806 H819 0.961 . S
C806 H820 0.961 . S
C807 C804 1.539 . S
C807 H821 0.958 . S
C807 H822 0.961 . S
C807 H823 0.960 . S
H808 C792 0.931 . S
H809 C797 0.929 . S
H810 C798 0.960 . S
H811 C798 0.962 . S
H812 C798 0.960 . S
H813 C799 0.961 . S
H814 C799 0.961 . S
H815 C799 0.961 . S
H816 C800 0.931 . S
H817 C805 0.930 . S
H818 C806 0.956 . S
H819 C806 0.961 . S
H820 C806 0.961 . S
H821 C807 0.958 . S
H822 C807 0.961 . S
H823 C807 0.960 . S
C824 C825 1.391 . S
C824 C826 1.394 . S
C824 H840 0.931 . S
C825 C824 1.391 . S
C825 C829 1.376 . S
C826 C824 1.394 . S
C826 C827 1.369 . S
C826 C830 1.531 . S
C827 C826 1.369 . S
C827 C828 1.410 . S
C827 C835 1.503 . S
C828 C827 1.410 . S
C828 C829 1.392 . S
C828 C831 1.511 . S
C829 C825 1.376 . S
C829 C828 1.392 . S
C829 H841 0.929 . S
C830 C826 1.531 . S
C830 H842 0.960 . S
C830 H843 0.962 . S
C830 H844 0.960 . S
C831 C828 1.511 . S
C831 H845 0.961 . S
C831 H846 0.961 . S
C831 H847 0.961 . S
C832 C833 1.370 . S
C832 C834 1.363 . S
C832 H848 0.931 . S
C833 C832 1.370 . S
C833 C837 1.408 . S
C834 C832 1.363 . S
C834 C835 1.370 . S
C834 C838 1.524 . S
C835 C827 1.503 . S
C835 C834 1.370 . S
C835 C836 1.403 . S
C836 C835 1.403 . S
C836 C837 1.404 . S
C836 C839 1.539 . S
C837 C833 1.408 . S
C837 C836 1.404 . S
C837 H849 0.930 . S
C838 C834 1.524 . S
C838 H850 0.956 . S
C838 H851 0.961 . S
C838 H852 0.961 . S
C839 C836 1.539 . S
C839 H853 0.958 . S
C839 H854 0.961 . S
C839 H855 0.960 . S
H840 C824 0.931 . S
H841 C829 0.929 . S
H842 C830 0.960 . S
H843 C830 0.962 . S
H844 C830 0.960 . S
H845 C831 0.961 . S
H846 C831 0.961 . S
H847 C831 0.961 . S
H848 C832 0.931 . S
H849 C837 0.930 . S
H850 C838 0.956 . S
H851 C838 0.961 . S
H852 C838 0.961 . S
H853 C839 0.958 . S
H854 C839 0.961 . S
H855 C839 0.960 . S
C856 C857 1.391 . S
C856 C858 1.394 . S
C856 H872 0.931 . S
C857 C856 1.391 . S
C857 C861 1.376 . S
C858 C856 1.394 . S
C858 C859 1.369 . S
C858 C862 1.531 . S
C859 C858 1.369 . S
C859 C860 1.410 . S
C859 C867 1.503 . S
C860 C859 1.410 . S
C860 C861 1.392 . S
C860 C863 1.511 . S
C861 C857 1.376 . S
C861 C860 1.392 . S
C861 H873 0.929 . S
C862 C858 1.531 . S
C862 H874 0.960 . S
C862 H875 0.962 . S
C862 H876 0.960 . S
C863 C860 1.511 . S
C863 H877 0.961 . S
C863 H878 0.961 . S
C863 H879 0.961 . S
C864 C865 1.370 . S
C864 C866 1.363 . S
C864 H880 0.931 . S
C865 C864 1.370 . S
C865 C869 1.408 . S
C866 C864 1.363 . S
C866 C867 1.370 . S
C866 C870 1.524 . S
C867 C859 1.503 . S
C867 C866 1.370 . S
C867 C868 1.403 . S
C868 C867 1.403 . S
C868 C869 1.404 . S
C868 C871 1.539 . S
C869 C865 1.408 . S
C869 C868 1.404 . S
C869 H881 0.930 . S
C870 C866 1.524 . S
C870 H882 0.956 . S
C870 H883 0.961 . S
C870 H884 0.961 . S
C871 C868 1.539 . S
C871 H885 0.958 . S
C871 H886 0.961 . S
C871 H887 0.960 . S
H872 C856 0.931 . S
H873 C861 0.929 . S
H874 C862 0.960 . S
H875 C862 0.962 . S
H876 C862 0.960 . S
H877 C863 0.961 . S
H878 C863 0.961 . S
H879 C863 0.961 . S
H880 C864 0.931 . S
H881 C869 0.930 . S
H882 C870 0.956 . S
H883 C870 0.961 . S
H884 C870 0.961 . S
H885 C871 0.958 . S
H886 C871 0.961 . S
H887 C871 0.960 . S
C888 C889 1.391 . S
C888 C890 1.394 . S
C888 H904 0.931 . S
C889 C888 1.391 . S
C889 C893 1.376 . S
C890 C888 1.394 . S
C890 C891 1.369 . S
C890 C894 1.531 . S
C891 C890 1.369 . S
C891 C892 1.410 . S
C891 C899 1.503 . S
C892 C891 1.410 . S
C892 C893 1.392 . S
C892 C895 1.511 . S
C893 C889 1.376 . S
C893 C892 1.392 . S
C893 H905 0.929 . S
C894 C890 1.531 . S
C894 H906 0.960 . S
C894 H907 0.962 . S
C894 H908 0.960 . S
C895 C892 1.511 . S
C895 H909 0.961 . S
C895 H910 0.961 . S
C895 H911 0.961 . S
C896 C897 1.370 . S
C896 C898 1.363 . S
C896 H912 0.931 . S
C897 C896 1.370 . S
C897 C901 1.408 . S
C898 C896 1.363 . S
C898 C899 1.370 . S
C898 C902 1.524 . S
C899 C891 1.503 . S
C899 C898 1.370 . S
C899 C900 1.403 . S
C900 C899 1.403 . S
C900 C901 1.404 . S
C900 C903 1.539 . S
C901 C897 1.408 . S
C901 C900 1.404 . S
C901 H913 0.930 . S
C902 C898 1.524 . S
C902 H914 0.956 . S
C902 H915 0.961 . S
C902 H916 0.961 . S
C903 C900 1.539 . S
C903 H917 0.958 . S
C903 H918 0.961 . S
C903 H919 0.960 . S
H904 C888 0.931 . S
H905 C893 0.929 . S
H906 C894 0.960 . S
H907 C894 0.962 . S
H908 C894 0.960 . S
H909 C895 0.961 . S
H910 C895 0.961 . S
H911 C895 0.961 . S
H912 C896 0.931 . S
H913 C901 0.930 . S
H914 C902 0.956 . S
H915 C902 0.961 . S
H916 C902 0.961 . S
H917 C903 0.958 . S
H918 C903 0.961 . S
H919 C903 0.960 . S
C920 C921 1.391 . S
C920 C922 1.394 . S
C920 H936 0.931 . S
C921 C920 1.391 . S
C921 C925 1.376 . S
C922 C920 1.394 . S
C922 C923 1.369 . S
C922 C926 1.531 . S
C923 C922 1.369 . S
C923 C924 1.410 . S
C923 C931 1.503 . S
C924 C923 1.410 . S
C924 C925 1.392 . S
C924 C927 1.511 . S
C925 C921 1.376 . S
C925 C924 1.392 . S
C925 H937 0.929 . S
C926 C922 1.531 . S
C926 H938 0.960 . S
C926 H939 0.962 . S
C926 H940 0.960 . S
C927 C924 1.511 . S
C927 H941 0.961 . S
C927 H942 0.961 . S
C927 H943 0.961 . S
C928 C929 1.370 . S
C928 C930 1.363 . S
C928 H944 0.931 . S
C929 C928 1.370 . S
C929 C933 1.408 . S
C930 C928 1.363 . S
C930 C931 1.370 . S
C930 C934 1.524 . S
C931 C923 1.503 . S
C931 C930 1.370 . S
C931 C932 1.403 . S
C932 C931 1.403 . S
C932 C933 1.404 . S
C932 C935 1.539 . S
C933 C929 1.408 . S
C933 C932 1.404 . S
C933 H945 0.930 . S
C934 C930 1.524 . S
C934 H946 0.956 . S
C934 H947 0.961 . S
C934 H948 0.961 . S
C935 C932 1.539 . S
C935 H949 0.958 . S
C935 H950 0.961 . S
C935 H951 0.960 . S
H936 C920 0.931 . S
H937 C925 0.929 . S
H938 C926 0.960 . S
H939 C926 0.962 . S
H940 C926 0.960 . S
H941 C927 0.961 . S
H942 C927 0.961 . S
H943 C927 0.961 . S
H944 C928 0.931 . S
H945 C933 0.930 . S
H946 C934 0.956 . S
H947 C934 0.961 . S
H948 C934 0.961 . S
H949 C935 0.958 . S
H950 C935 0.961 . S
H951 C935 0.960 . S
C952 C953 1.391 . S
C952 C954 1.394 . S
C952 H968 0.931 . S
C953 C952 1.391 . S
C953 C957 1.376 . S
C954 C952 1.394 . S
C954 C955 1.369 . S
C954 C958 1.531 . S
C955 C954 1.369 . S
C955 C956 1.410 . S
C955 C963 1.503 . S
C956 C955 1.410 . S
C956 C957 1.392 . S
C956 C959 1.511 . S
C957 C953 1.376 . S
C957 C956 1.392 . S
C957 H969 0.929 . S
C958 C954 1.531 . S
C958 H970 0.960 . S
C958 H971 0.962 . S
C958 H972 0.960 . S
C959 C956 1.511 . S
C959 H973 0.961 . S
C959 H974 0.961 . S
C959 H975 0.961 . S
C960 C961 1.370 . S
C960 C962 1.363 . S
C960 H976 0.931 . S
C961 C960 1.370 . S
C961 C965 1.408 . S
C962 C960 1.363 . S
C962 C963 1.370 . S
C962 C966 1.524 . S
C963 C955 1.503 . S
C963 C962 1.370 . S
C963 C964 1.403 . S
C964 C963 1.403 . S
C964 C965 1.404 . S
C964 C967 1.539 . S
C965 C961 1.408 . S
C965 C964 1.404 . S
C965 H977 0.930 . S
C966 C962 1.524 . S
C966 H978 0.956 . S
C966 H979 0.961 . S
C966 H980 0.961 . S
C967 C964 1.539 . S
C967 H981 0.958 . S
C967 H982 0.961 . S
C967 H983 0.960 . S
H968 C952 0.931 . S
H969 C957 0.929 . S
H970 C958 0.960 . S
H971 C958 0.962 . S
H972 C958 0.960 . S
H973 C959 0.961 . S
H974 C959 0.961 . S
H975 C959 0.961 . S
H976 C960 0.931 . S
H977 C965 0.930 . S
H978 C966 0.956 . S
H979 C966 0.961 . S
H980 C966 0.961 . S
H981 C967 0.958 . S
H982 C967 0.961 . S
H983 C967 0.960 . S
C984 C985 1.391 . S
C984 C986 1.394 . S
C984 H1000 0.931 . S
C985 C984 1.391 . S
C985 C989 1.376 . S
C986 C984 1.394 . S
C986 C987 1.369 . S
C986 C990 1.531 . S
C987 C986 1.369 . S
C987 C988 1.410 . S
C987 C995 1.503 . S
C988 C987 1.410 . S
C988 C989 1.392 . S
C988 C991 1.511 . S
C989 C985 1.376 . S
C989 C988 1.392 . S
C989 H1001 0.929 . S
C990 C986 1.531 . S
C990 H1002 0.960 . S
C990 H1003 0.962 . S
C990 H1004 0.960 . S
C991 C988 1.511 . S
C991 H1005 0.961 . S
C991 H1006 0.961 . S
C991 H1007 0.961 . S
C992 C993 1.370 . S
C992 C994 1.363 . S
C992 H1008 0.931 . S
C993 C992 1.370 . S
C993 C997 1.408 . S
C994 C992 1.363 . S
C994 C995 1.370 . S
C994 C998 1.524 . S
C995 C987 1.503 . S
C995 C994 1.370 . S
C995 C996 1.403 . S
C996 C995 1.403 . S
C996 C997 1.404 . S
C996 C999 1.539 . S
C997 C993 1.408 . S
C997 C996 1.404 . S
C997 H1009 0.930 . S
C998 C994 1.524 . S
C998 H1010 0.956 . S
C998 H1011 0.961 . S
C998 H1012 0.961 . S
C999 C996 1.539 . S
C999 H1013 0.958 . S
C999 H1014 0.961 . S
C999 H1015 0.960 . S
H1000 C984 0.931 . S
H1001 C989 0.929 . S
H1002 C990 0.960 . S
H1003 C990 0.962 . S
H1004 C990 0.960 . S
H1005 C991 0.961 . S
H1006 C991 0.961 . S
H1007 C991 0.961 . S
H1008 C992 0.931 . S
H1009 C997 0.930 . S
H1010 C998 0.956 . S
H1011 C998 0.961 . S
H1012 C998 0.961 . S
H1013 C999 0.958 . S
H1014 C999 0.961 . S
H1015 C999 0.960 . S
C1016 C1017 1.372 1_655 S
C1016 C1018 1.410 . S
C1016 H1032 0.933 . S
C1017 C1016 1.372 1_455 S
C1017 C1021 1.376 . S
C1018 C1016 1.410 . S
C1018 C1019 1.369 1_655 S
C1018 C1022 1.531 . S
C1019 C1018 1.369 1_455 S
C1019 C1020 1.410 . S
C1019 C1027 1.503 1_455 S
C1020 C1019 1.410 . S
C1020 C1021 1.392 . S
C1020 C1023 1.511 . S
C1021 C1017 1.376 . S
C1021 C1020 1.392 . S
C1021 H1033 0.929 . S
C1022 C1018 1.531 . S
C1022 H1034 0.960 . S
C1022 H1035 0.962 . S
C1022 H1036 0.960 . S
C1023 C1020 1.511 . S
C1023 H1037 0.961 . S
C1023 H1038 0.961 . S
C1023 H1039 0.961 . S
C1024 C1025 1.370 . S
C1024 C1026 1.363 . S
C1024 H1040 0.931 . S
C1025 C1024 1.370 . S
C1025 C1029 1.408 . S
C1026 C1024 1.363 . S
C1026 C1027 1.370 . S
C1026 C1030 1.524 1_655 S
C1027 C1019 1.503 1_655 S
C1027 C1026 1.370 . S
C1027 C1028 1.403 . S
C1028 C1027 1.403 . S
C1028 C1029 1.404 . S
C1028 C1031 1.539 . S
C1029 C1025 1.408 . S
C1029 C1028 1.404 . S
C1029 H1041 0.930 . S
C1030 C1026 1.524 1_455 S
C1030 H1042 0.956 1_455 S
C1030 H1043 0.961 . S
C1030 H1044 0.961 . S
C1031 C1028 1.539 . S
C1031 H1045 0.958 . S
C1031 H1046 0.961 . S
C1031 H1047 0.960 . S
H1032 C1016 0.933 . S
H1033 C1021 0.929 . S
H1034 C1022 0.960 . S
H1035 C1022 0.962 . S
H1036 C1022 0.960 . S
H1037 C1023 0.961 . S
H1038 C1023 0.961 . S
H1039 C1023 0.961 . S
H1040 C1024 0.931 . S
H1041 C1029 0.930 . S
H1042 C1030 0.956 1_655 S
H1043 C1030 0.961 . S
H1044 C1030 0.961 . S
H1045 C1031 0.958 . S
H1046 C1031 0.961 . S
H1047 C1031 0.960 . S
C1048 C1049 1.391 . S
C1048 C1050 1.394 1_565 S
C1048 H1064 0.931 . S
C1049 C1048 1.391 . S
C1049 C1053 1.376 . S
C1050 C1048 1.394 1_545 S
C1050 C1051 1.363 1_545 S
C1050 C1054 1.531 . S
C1051 C1050 1.363 1_565 S
C1051 C1052 1.414 . S
C1051 C1059 1.506 1_565 S
C1052 C1051 1.414 . S
C1052 C1053 1.392 . S
C1052 C1055 1.511 . S
C1053 C1049 1.376 . S
C1053 C1052 1.392 . S
C1053 H1065 0.929 . S
C1054 C1050 1.531 . S
C1054 H1066 0.960 . S
C1054 H1067 0.962 . S
C1054 H1068 0.960 . S
C1055 C1052 1.511 . S
C1055 H1069 0.961 . S
C1055 H1070 0.961 . S
C1055 H1071 0.961 . S
C1056 C1057 1.370 . S
C1056 C1058 1.363 1_545 S
C1056 H1072 0.931 1_545 S
C1057 C1056 1.370 . S
C1057 C1061 1.408 . S
C1058 C1056 1.363 1_565 S
C1058 C1059 1.370 1_565 S
C1058 C1062 1.524 . S
C1059 C1051 1.506 1_545 S
C1059 C1058 1.370 1_545 S
C1059 C1060 1.403 . S
C1060 C1059 1.403 . S
C1060 C1061 1.404 . S
C1060 C1063 1.539 . S
C1061 C1057 1.408 . S
C1061 C1060 1.404 . S
C1061 H1073 0.930 . S
C1062 C1058 1.524 . S
C1062 H1074 0.956 . S
C1062 H1075 0.961 . S
C1062 H1076 0.961 . S
C1063 C1060 1.539 . S
C1063 H1077 0.958 . S
C1063 H1078 0.961 . S
C1063 H1079 0.960 . S
H1064 C1048 0.931 . S
H1065 C1053 0.929 . S
H1066 C1054 0.960 . S
H1067 C1054 0.962 . S
H1068 C1054 0.960 . S
H1069 C1055 0.961 . S
H1070 C1055 0.961 . S
H1071 C1055 0.961 . S
H1072 C1056 0.931 1_565 S
H1073 C1061 0.930 . S
H1074 C1062 0.956 . S
H1075 C1062 0.961 . S
H1076 C1062 0.961 . S
H1077 C1063 0.958 . S
H1078 C1063 0.961 . S
H1079 C1063 0.960 . S
C1080 C1081 1.391 . S
C1080 C1082 1.394 . S
C1080 H1096 0.931 . S
C1081 C1080 1.391 . S
C1081 C1085 1.376 . S
C1082 C1080 1.394 . S
C1082 C1083 1.369 . S
C1082 C1086 1.531 . S
C1083 C1082 1.369 . S
C1083 C1084 1.410 . S
C1083 C1091 1.503 . S
C1084 C1083 1.410 . S
C1084 C1085 1.392 . S
C1084 C1087 1.511 . S
C1085 C1081 1.376 . S
C1085 C1084 1.392 . S
C1085 H1097 0.929 . S
C1086 C1082 1.531 . S
C1086 H1098 0.960 . S
C1086 H1099 0.962 . S
C1086 H1100 0.960 . S
C1087 C1084 1.511 . S
C1087 H1101 0.961 . S
C1087 H1102 0.961 . S
C1087 H1103 0.961 . S
C1088 C1089 1.370 . S
C1088 C1090 1.363 . S
C1088 H1104 0.931 . S
C1089 C1088 1.370 . S
C1089 C1093 1.408 . S
C1090 C1088 1.363 . S
C1090 C1091 1.370 . S
C1090 C1094 1.524 . S
C1091 C1083 1.503 . S
C1091 C1090 1.370 . S
C1091 C1092 1.403 . S
C1092 C1091 1.403 . S
C1092 C1093 1.404 . S
C1092 C1095 1.539 . S
C1093 C1089 1.408 . S
C1093 C1092 1.404 . S
C1093 H1105 0.930 . S
C1094 C1090 1.524 . S
C1094 H1106 0.956 . S
C1094 H1107 0.961 . S
C1094 H1108 0.961 . S
C1095 C1092 1.539 . S
C1095 H1109 0.958 . S
C1095 H1110 0.961 . S
C1095 H1111 0.960 . S
H1096 C1080 0.931 . S
H1097 C1085 0.929 . S
H1098 C1086 0.960 . S
H1099 C1086 0.962 . S
H1100 C1086 0.960 . S
H1101 C1087 0.961 . S
H1102 C1087 0.961 . S
H1103 C1087 0.961 . S
H1104 C1088 0.931 . S
H1105 C1093 0.930 . S
H1106 C1094 0.956 . S
H1107 C1094 0.961 . S
H1108 C1094 0.961 . S
H1109 C1095 0.958 . S
H1110 C1095 0.961 . S
H1111 C1095 0.960 . S
C1112 C1113 1.391 . S
C1112 C1114 1.394 1_455 S
C1112 H1128 0.931 1_455 S
C1113 C1112 1.391 . S
C1113 C1117 1.376 . S
C1114 C1112 1.394 1_655 S
C1114 C1115 1.369 1_655 S
C1114 C1118 1.531 . S
C1115 C1114 1.369 1_455 S
C1115 C1116 1.410 . S
C1115 C1123 1.503 1_455 S
C1116 C1115 1.410 . S
C1116 C1117 1.392 . S
C1116 C1119 1.511 . S
C1117 C1113 1.376 . S
C1117 C1116 1.392 . S
C1117 H1129 0.929 . S
C1118 C1114 1.531 . S
C1118 H1130 0.960 . S
C1118 H1131 0.962 . S
C1118 H1132 0.960 . S
C1119 C1116 1.511 . S
C1119 H1133 0.961 . S
C1119 H1134 0.961 . S
C1119 H1135 0.961 . S
C1120 C1121 1.370 . S
C1120 C1122 1.363 1_655 S
C1120 H1136 0.931 . S
C1121 C1120 1.370 . S
C1121 C1125 1.408 . S
C1122 C1120 1.363 1_455 S
C1122 C1123 1.370 1_455 S
C1122 C1126 1.524 . S
C1123 C1115 1.503 1_655 S
C1123 C1122 1.370 1_655 S
C1123 C1124 1.403 . S
C1124 C1123 1.403 . S
C1124 C1125 1.404 . S
C1124 C1127 1.539 . S
C1125 C1121 1.408 . S
C1125 C1124 1.404 . S
C1125 H1137 0.930 . S
C1126 C1122 1.524 . S
C1126 H1138 0.956 . S
C1126 H1139 0.961 . S
C1126 H1140 0.961 . S
C1127 C1124 1.539 . S
C1127 H1141 0.958 . S
C1127 H1142 0.961 . S
C1127 H1143 0.960 . S
H1128 C1112 0.931 1_655 S
H1129 C1117 0.929 . S
H1130 C1118 0.960 . S
H1131 C1118 0.962 . S
H1132 C1118 0.960 . S
H1133 C1119 0.961 . S
H1134 C1119 0.961 . S
H1135 C1119 0.961 . S
H1136 C1120 0.931 . S
H1137 C1125 0.930 . S
H1138 C1126 0.956 . S
H1139 C1126 0.961 . S
H1140 C1126 0.961 . S
H1141 C1127 0.958 . S
H1142 C1127 0.961 . S
H1143 C1127 0.960 . S
C1144 C1145 1.391 . S
C1144 C1146 1.394 . S
C1144 H1160 0.931 . S
C1145 C1144 1.391 . S
C1145 C1149 1.376 . S
C1146 C1144 1.394 . S
C1146 C1147 1.369 . S
C1146 C1150 1.531 . S
C1147 C1146 1.369 . S
C1147 C1148 1.410 1_565 S
C1147 C1155 1.503 1_565 S
C1148 C1147 1.410 1_545 S
C1148 C1149 1.392 1_545 S
C1148 C1151 1.511 . S
C1149 C1145 1.376 . S
C1149 C1148 1.392 1_565 S
C1149 H1161 0.929 1_565 S
C1150 C1146 1.531 . S
C1150 H1162 0.960 . S
C1150 H1163 0.962 . S
C1150 H1164 0.960 . S
C1151 C1148 1.511 . S
C1151 H1165 0.961 . S
C1151 H1166 0.961 . S
C1151 H1167 0.961 . S
C1152 C1153 1.370 . S
C1152 C1154 1.363 . S
C1152 H1168 0.931 . S
C1153 C1152 1.370 . S
C1153 C1157 1.408 . S
C1154 C1152 1.363 . S
C1154 C1155 1.370 . S
C1154 C1158 1.524 1_545 S
C1155 C1147 1.503 1_545 S
C1155 C1154 1.370 . S
C1155 C1156 1.403 . S
C1156 C1155 1.403 . S
C1156 C1157 1.404 . S
C1156 C1159 1.539 . S
C1157 C1153 1.408 . S
C1157 C1156 1.404 . S
C1157 H1169 0.930 . S
C1158 C1154 1.524 1_565 S
C1158 H1170 0.956 . S
C1158 H1171 0.961 . S
C1158 H1172 0.961 . S
C1159 C1156 1.539 . S
C1159 H1173 0.958 . S
C1159 H1174 0.961 . S
C1159 H1175 0.960 . S
H1160 C1144 0.931 . S
H1161 C1149 0.929 1_545 S
H1162 C1150 0.960 . S
H1163 C1150 0.962 . S
H1164 C1150 0.960 . S
H1165 C1151 0.961 . S
H1166 C1151 0.961 . S
H1167 C1151 0.961 . S
H1168 C1152 0.931 . S
H1169 C1157 0.930 . S
H1170 C1158 0.956 . S
H1171 C1158 0.961 . S
H1172 C1158 0.961 . S
H1173 C1159 0.958 . S
H1174 C1159 0.961 . S
H1175 C1159 0.960 . S
C1176 C1177 1.391 . S
C1176 C1178 1.394 . S
C1176 H1192 0.931 . S
C1177 C1176 1.391 . S
C1177 C1181 1.376 . S
C1178 C1176 1.394 . S
C1178 C1179 1.369 . S
C1178 C1182 1.531 . S
C1179 C1178 1.369 . S
C1179 C1180 1.410 . S
C1179 C1187 1.503 1_445 S
C1180 C1179 1.410 . S
C1180 C1181 1.392 . S
C1180 C1183 1.511 1_545 S
C1181 C1177 1.376 . S
C1181 C1180 1.392 . S
C1181 H1193 0.929 . S
C1182 C1178 1.531 . S
C1182 H1194 0.960 1_455 S
C1182 H1195 0.962 . S
C1182 H1196 0.960 . S
C1183 C1180 1.511 1_565 S
C1183 H1197 0.961 . S
C1183 H1198 0.939 1_455 S
C1183 H1199 0.961 . S
C1184 C1185 1.370 . S
C1184 C1186 1.363 . S
C1184 H1200 0.931 . S
C1185 C1184 1.370 . S
C1185 C1189 1.408 . S
C1186 C1184 1.363 . S
C1186 C1187 1.370 . S
C1186 C1190 1.524 1_565 S
C1187 C1179 1.503 1_665 S
C1187 C1186 1.370 . S
C1187 C1188 1.403 . S
C1188 C1187 1.403 . S
C1188 C1189 1.404 . S
C1188 C1191 1.539 . S
C1189 C1185 1.408 . S
C1189 C1188 1.404 . S
C1189 H1201 0.930 . S
C1190 C1186 1.524 1_545 S
C1190 H1202 0.956 . S
C1190 H1203 0.961 . S
C1190 H1204 0.961 . S
C1191 C1188 1.539 . S
C1191 H1205 0.958 . S
C1191 H1206 0.961 . S
C1191 H1207 0.960 1_655 S
H1192 C1176 0.931 . S
H1193 C1181 0.929 . S
H1194 C1182 0.960 1_655 S
H1195 C1182 0.962 . S
H1196 C1182 0.960 . S
H1197 C1183 0.961 . S
H1198 C1183 0.939 1_655 S
H1199 C1183 0.961 . S
H1200 C1184 0.931 . S
H1201 C1189 0.930 . S
H1202 C1190 0.956 . S
H1203 C1190 0.961 . S
H1204 C1190 0.961 . S
H1205 C1191 0.958 . S
H1206 C1191 0.961 . S
H1207 C1191 0.960 1_455 S
C1208 C1209 1.391 . S
C1208 C1210 1.394 . S
C1208 H1224 0.931 . S
C1209 C1208 1.391 . S
C1209 C1213 1.376 . S
C1210 C1208 1.394 . S
C1210 C1211 1.369 . S
C1210 C1214 1.531 1_455 S
C1211 C1210 1.369 . S
C1211 C1212 1.410 . S
C1211 C1219 1.503 1_445 S
C1212 C1211 1.410 . S
C1212 C1213 1.392 . S
C1212 C1215 1.511 . S
C1213 C1209 1.376 . S
C1213 C1212 1.392 . S
C1213 H1225 0.929 . S
C1214 C1210 1.531 1_655 S
C1214 H1226 0.960 1_545 S
C1214 H1227 0.962 . S
C1214 H1228 0.960 . S
C1215 C1212 1.511 . S
C1215 H1229 0.961 . S
C1215 H1230 0.960 . S
C1215 H1231 0.961 . S
C1216 C1217 1.370 . S
C1216 C1218 1.363 . S
C1216 H1232 0.931 . S
C1217 C1216 1.370 . S
C1217 C1221 1.408 . S
C1218 C1216 1.363 . S
C1218 C1219 1.370 . S
C1218 C1222 1.524 . S
C1219 C1211 1.503 1_665 S
C1219 C1218 1.370 . S
C1219 C1220 1.403 1_655 S
C1220 C1219 1.403 1_455 S
C1220 C1221 1.404 1_455 S
C1220 C1223 1.539 . S
C1221 C1217 1.408 . S
C1221 C1220 1.404 1_655 S
C1221 H1233 0.930 1_655 S
C1222 C1218 1.524 . S
C1222 H1234 0.956 . S
C1222 H1235 0.961 . S
C1222 H1236 0.961 . S
C1223 C1220 1.539 . S
C1223 H1237 0.958 . S
C1223 H1238 0.961 . S
C1223 H1239 0.960 1_565 S
H1224 C1208 0.931 . S
H1225 C1213 0.929 . S
H1226 C1214 0.960 1_565 S
H1227 C1214 0.962 . S
H1228 C1214 0.960 . S
H1229 C1215 0.961 . S
H1230 C1215 0.960 . S
H1231 C1215 0.961 . S
H1232 C1216 0.931 . S
H1233 C1221 0.930 1_455 S
H1234 C1222 0.956 . S
H1235 C1222 0.961 . S
H1236 C1222 0.961 . S
H1237 C1223 0.958 . S
H1238 C1223 0.961 . S
H1239 C1223 0.960 1_545 S
C1240 C1241 1.391 . S
C1240 C1242 1.394 1_545 S
C1240 H1256 0.931 1_545 S
C1241 C1240 1.391 . S
C1241 C1245 1.376 . S
C1242 C1240 1.394 1_565 S
C1242 C1243 1.369 1_565 S
C1242 C1246 1.531 . S
C1243 C1242 1.369 1_545 S
C1243 C1244 1.410 1_655 S
C1243 C1251 1.503 1_645 S
C1244 C1243 1.410 1_455 S
C1244 C1245 1.392 1_455 S
C1244 C1247 1.511 . S
C1245 C1241 1.376 . S
C1245 C1244 1.392 1_655 S
C1245 H1257 0.929 . S
C1246 C1242 1.531 . S
C1246 H1258 0.960 . S
C1246 H1259 0.962 . S
C1246 H1260 0.960 . S
C1247 C1244 1.511 . S
C1247 H1261 0.961 . S
C1247 H1262 0.961 . S
C1247 H1263 0.961 . S
C1248 C1249 1.370 . S
C1248 C1250 1.363 . S
C1248 H1264 0.931 . S
C1249 C1248 1.370 . S
C1249 C1253 1.408 . S
C1250 C1248 1.363 . S
C1250 C1251 1.370 . S
C1250 C1254 1.524 . S
C1251 C1243 1.503 1_465 S
C1251 C1250 1.370 . S
C1251 C1252 1.403 . S
C1252 C1251 1.403 . S
C1252 C1253 1.404 . S
C1252 C1255 1.539 . S
C1253 C1249 1.408 . S
C1253 C1252 1.404 . S
C1253 H1265 0.930 . S
C1254 C1250 1.524 . S
C1254 H1266 0.956 1_455 S
C1254 H1267 0.961 1_565 S
C1254 H1268 0.961 . S
C1255 C1252 1.539 . S
C1255 H1269 0.958 1_455 S
C1255 H1270 0.961 . S
C1255 H1271 0.960 1_565 S
H1256 C1240 0.931 1_565 S
H1257 C1245 0.929 . S
H1258 C1246 0.960 . S
H1259 C1246 0.962 . S
H1260 C1246 0.960 . S
H1261 C1247 0.961 . S
H1262 C1247 0.961 . S
H1263 C1247 0.961 . S
H1264 C1248 0.931 . S
H1265 C1253 0.930 . S
H1266 C1254 0.956 1_655 S
H1267 C1254 0.961 1_545 S
H1268 C1254 0.961 . S
H1269 C1255 0.958 1_655 S
H1270 C1255 0.961 . S
H1271 C1255 0.960 1_545 S
C1272 C1273 1.391 . S
C1272 C1274 1.394 . S
C1272 H1288 0.931 . S
C1273 C1272 1.391 . S
C1273 C1277 1.376 . S
C1274 C1272 1.394 . S
C1274 C1275 1.369 . S
C1274 C1278 1.531 . S
C1275 C1274 1.369 . S
C1275 C1276 1.410 . S
C1275 C1283 1.503 1_665 S
C1276 C1275 1.410 . S
C1276 C1277 1.392 . S
C1276 C1279 1.511 1_655 S
C1277 C1273 1.376 . S
C1277 C1276 1.392 . S
C1277 H1289 0.929 . S
C1278 C1274 1.531 . S
C1278 H1290 0.960 1_565 S
C1278 H1291 0.962 . S
C1278 H1292 0.960 . S
C1279 C1276 1.511 1_455 S
C1279 H1293 0.961 . S
C1279 H1294 0.951 1_565 S
C1279 H1295 0.961 . S
C1280 C1281 1.370 . S
C1280 C1282 1.363 . S
C1280 H1296 0.931 . S
C1281 C1280 1.370 . S
C1281 C1285 1.408 . S
C1282 C1280 1.363 . S
C1282 C1283 1.370 . S
C1282 C1286 1.524 1_455 S
C1283 C1275 1.503 1_445 S
C1283 C1282 1.370 . S
C1283 C1284 1.403 . S
C1284 C1283 1.403 . S
C1284 C1285 1.404 . S
C1284 C1287 1.539 . S
C1285 C1281 1.408 . S
C1285 C1284 1.404 . S
C1285 H1297 0.930 . S
C1286 C1282 1.524 1_655 S
C1286 H1298 0.956 . S
C1286 H1299 0.961 . S
C1286 H1300 0.961 . S
C1287 C1284 1.539 . S
C1287 H1301 0.958 . S
C1287 H1302 0.961 . S
C1287 H1303 0.960 1_545 S
H1288 C1272 0.931 . S
H1289 C1277 0.929 . S
H1290 C1278 0.960 1_545 S
H1291 C1278 0.962 . S
H1292 C1278 0.960 . S
H1293 C1279 0.961 . S
H1294 C1279 0.951 1_545 S
H1295 C1279 0.961 . S
H1296 C1280 0.931 . S
H1297 C1285 0.930 . S
H1298 C1286 0.956 . S
H1299 C1286 0.961 . S
H1300 C1286 0.961 . S
H1301 C1287 0.958 . S
H1302 C1287 0.961 . S
H1303 C1287 0.960 1_565 S
C1304 C1305 1.391 . S
C1304 C1306 1.394 . S
C1304 H1320 0.931 . S
C1305 C1304 1.391 . S
C1305 C1309 1.376 . S
C1306 C1304 1.394 . S
C1306 C1307 1.369 . S
C1306 C1310 1.531 1_655 S
C1307 C1306 1.369 . S
C1307 C1308 1.410 . S
C1307 C1315 1.503 1_645 S
C1308 C1307 1.410 . S
C1308 C1309 1.392 . S
C1308 C1311 1.511 . S
C1309 C1305 1.376 . S
C1309 C1308 1.392 . S
C1309 H1321 0.929 . S
C1310 C1306 1.531 1_455 S
C1310 H1322 0.960 . S
C1310 H1323 0.962 1_445 S
C1310 H1324 0.960 . S
C1311 C1308 1.511 . S
C1311 H1325 0.961 . S
C1311 H1326 0.961 1_545 S
C1311 H1327 0.961 1_655 S
C1312 C1313 1.370 . S
C1312 C1314 1.363 1_455 S
C1312 H1328 0.931 1_455 S
C1313 C1312 1.370 . S
C1313 C1317 1.408 . S
C1314 C1312 1.363 1_655 S
C1314 C1315 1.370 1_655 S
C1314 C1318 1.524 . S
C1315 C1307 1.503 1_465 S
C1315 C1314 1.370 1_455 S
C1315 C1316 1.403 1_565 S
C1316 C1315 1.403 1_545 S
C1316 C1317 1.404 1_545 S
C1316 C1319 1.539 . S
C1317 C1313 1.408 . S
C1317 C1316 1.404 1_565 S
C1317 H1329 0.930 . S
C1318 C1314 1.524 . S
C1318 H1330 0.956 . S
C1318 H1331 0.961 . S
C1318 H1332 0.961 . S
C1319 C1316 1.539 . S
C1319 H1333 0.958 . S
C1319 H1334 0.961 . S
C1319 H1335 0.960 . S
H1320 C1304 0.931 . S
H1321 C1309 0.929 . S
H1322 C1310 0.960 . S
H1323 C1310 0.962 1_665 S
H1324 C1310 0.960 . S
H1325 C1311 0.961 . S
H1326 C1311 0.961 1_565 S
H1327 C1311 0.961 1_455 S
H1328 C1312 0.931 1_655 S
H1329 C1317 0.930 . S
H1330 C1318 0.956 . S
H1331 C1318 0.961 . S
H1332 C1318 0.961 . S
H1333 C1319 0.958 . S
H1334 C1319 0.961 . S
H1335 C1319 0.960 . S
C1336 C1337 1.391 . S
C1336 C1338 1.394 . S
C1336 H1352 0.931 . S
C1337 C1336 1.391 . S
C1337 C1341 1.376 . S
C1338 C1336 1.394 . S
C1338 C1339 1.369 . S
C1338 C1342 1.531 . S
C1339 C1338 1.369 . S
C1339 C1340 1.410 1_545 S
C1339 C1347 1.503 1_445 S
C1340 C1339 1.410 1_565 S
C1340 C1341 1.392 1_565 S
C1340 C1343 1.511 . S
C1341 C1337 1.376 . S
C1341 C1340 1.392 1_545 S
C1341 H1353 0.929 1_545 S
C1342 C1338 1.531 . S
C1342 H1354 0.960 . S
C1342 H1355 0.962 . S
C1342 H1356 0.960 . S
C1343 C1340 1.511 . S
C1343 H1357 0.961 . S
C1343 H1358 0.961 1_455 S
C1343 H1359 0.961 . S
C1344 C1345 1.370 . S
C1344 C1346 1.363 . S
C1344 H1360 0.931 . S
C1345 C1344 1.370 . S
C1345 C1349 1.408 . S
C1346 C1344 1.363 . S
C1346 C1347 1.370 . S
C1346 C1350 1.524 1_565 S
C1347 C1339 1.503 1_665 S
C1347 C1346 1.370 . S
C1347 C1348 1.403 . S
C1348 C1347 1.403 . S
C1348 C1349 1.404 . S
C1348 C1351 1.539 . S
C1349 C1345 1.408 . S
C1349 C1348 1.404 . S
C1349 H1361 0.930 . S
C1350 C1346 1.524 1_545 S
C1350 H1362 0.956 1_655 S
C1350 H1363 0.961 1_645 S
C1350 H1364 0.961 1_545 S
C1351 C1348 1.539 . S
C1351 H1365 0.958 . S
C1351 H1366 0.961 . S
C1351 H1367 0.960 . S
H1352 C1336 0.931 . S
H1353 C1341 0.929 1_565 S
H1354 C1342 0.960 . S
H1355 C1342 0.962 . S
H1356 C1342 0.960 . S
H1357 C1343 0.961 . S
H1358 C1343 0.961 1_655 S
H1359 C1343 0.961 . S
H1360 C1344 0.931 . S
H1361 C1349 0.930 . S
H1362 C1350 0.956 1_455 S
H1363 C1350 0.961 1_465 S
H1364 C1350 0.961 1_565 S
H1365 C1351 0.958 . S
H1366 C1351 0.961 . S
H1367 C1351 0.960 . S
C409 C9 1.451 . S
C417 C247 1.451 . S
C441 C43 1.467 . S
C449 C281 1.466 . S
C473 C77 1.476 . S
C481 C315 1.461 . S
C505 C349 1.450 . S
C513 C111 1.470 . S
C537 C383 1.454 . S
C545 C145 1.450 . S
C569 C179 1.474 . S
C577 C213 1.448 . S
C601 C122 0.524 . S
C609 C20 0.569 . S
C633 C54 0.577 . S
C641 C156 0.548 . S
C665 C190 0.523 . S
C673 C88 0.569 . S
C697 C326 0.568 . S
C705 C224 0.550 . S
C729 C360 0.578 . S
C737 C258 0.548 . S
C761 C292 0.526 . S
C769 C394 0.567 . S
C793 C277 1.480 . S
C801 C5 1.496 . S
C825 C39 1.505 . S
C833 C311 1.498 . S
C857 C73 1.501 . S
C865 C345 1.501 . S
C889 C107 1.494 . S
C897 C379 1.501 . S
C921 C141 1.480 . S
C929 C209 1.494 . S
C953 C243 1.485 . S
C961 C175 1.499 . S
C985 C135 2.241 . S
C993 C33 2.241 . S
C1017 C67 2.242 . S
C1025 C169 2.244 . S
C1049 C203 2.246 . S
C1057 C101 2.241 . S
C1081 C237 2.230 . S
C1089 C339 2.247 . S
C1113 C271 2.245 . S
C1121 C373 2.242 . S
C1145 C407 2.242 . S
C1153 C305 2.242 . S
C1177 C2 1.448 . S
C1185 C104 1.478 . S
C1209 C36 1.450 . S
C1217 C138 1.477 . S
C1241 C70 1.469 . S
C1249 C172 1.471 . S
C1273 C206 1.449 . S
C1281 C308 1.477 . S
C1305 C342 1.487 . S
C1313 C240 1.461 . S
C1337 C274 1.467 . S
C1345 C376 1.465 . S
