# Generated by pormake.
# Topology uoo, (4)-cn, num edge types: 1
# Building blocks:
#     Node 0, Type 0, BuildingBlock: QUQFOY_clean_sbu_1, # of connection points: 4
#     Node 1, Type 0, BuildingBlock: QUQFOY_clean_sbu_1, # of connection points: 4
#     Node 2, Type 0, BuildingBlock: QUQFOY_clean_sbu_1, # of connection points: 4
#     Node 3, Type 0, BuildingBlock: QUQFOY_clean_sbu_1, # of connection points: 4
#     Node 4, Type 0, BuildingBlock: QUQFOY_clean_sbu_1, # of connection points: 4
#     Node 5, Type 0, BuildingBlock: QUQFOY_clean_sbu_1, # of connection points: 4
#     Edge 6, Type (0, 0), BuildingBlock: FUNLAD_clean_linker_1, # of connection points: 2
#     Edge 7, Type (0, 0), BuildingBlock: FUNLAD_clean_linker_1, # of connection points: 2
#     Edge 8, Type (0, 0), BuildingBlock: FUNLAD_clean_linker_1, # of connection points: 2
#     Edge 9, Type (0, 0), BuildingBlock: FUNLAD_clean_linker_1, # of connection points: 2
#     Edge 10, Type (0, 0), BuildingBlock: FUNLAD_clean_linker_1, # of connection points: 2
#     Edge 11, Type (0, 0), BuildingBlock: FUNLAD_clean_linker_1, # of connection points: 2
#     Edge 12, Type (0, 0), BuildingBlock: FUNLAD_clean_linker_1, # of connection points: 2
#     Edge 13, Type (0, 0), BuildingBlock: FUNLAD_clean_linker_1, # of connection points: 2
#     Edge 14, Type (0, 0), BuildingBlock: FUNLAD_clean_linker_1, # of connection points: 2
#     Edge 15, Type (0, 0), BuildingBlock: FUNLAD_clean_linker_1, # of connection points: 2
#     Edge 16, Type (0, 0), BuildingBlock: FUNLAD_clean_linker_1, # of connection points: 2
#     Edge 17, Type (0, 0), BuildingBlock: FUNLAD_clean_linker_1, # of connection points: 2
# Relax obj value: 0.244
# Max RMSD: 0.195
# Mean RMSD: 0.195
data_MOF--net-uoo--node1-QUQFOY_clean_sbu_1--edge1-FUNLAD_clean_linker_1
_symmetry_space_group_name_H-M    P1
_symmetry_Int_Tables_number       1
_symmetry_cell_setting            triclinic
loop_
_symmetry_equiv_pos_as_xyz
'x, y, z'
_cell_length_a     26.120649
_cell_length_b     26.061965
_cell_length_c     42.595364
_cell_angle_alpha  89.999591
_cell_angle_beta   89.961594
_cell_angle_gamma 119.62702
loop_
_atom_site_label
_atom_site_type_symbol
_atom_site_fract_x
_atom_site_fract_y
_atom_site_fract_z
_atom_type_partial_charge
O0 O 0.15099 0.26039 0.96346 0.0
Cd1 Cd 0.1789 0.32231 0.99898 0.0
Cd2 Cd 0.0652 0.24922 0.01854 0.0
O3 O 0.05893 0.2017 0.97827 0.0
O4 O 0.26248 0.37627 0.98797 0.0
O5 O 0.23587 0.32432 0.03189 0.0
C6 C 0.27716 0.36251 0.01413 0.0
C7 C 0.05156 0.20761 0.06819 0.0
C8 C 0.10089 0.21499 0.95902 0.0
C9 C 0.09896 0.37486 0.00667 0.0
O10 O 0.05755 0.32425 0.01465 0.0
O11 O 0.14944 0.38245 0.99977 0.0
O12 O 0.00718 0.19796 0.0508 0.0
O13 O 0.10399 0.23944 0.05691 0.0
O14 O 0.87923 0.17323 0.30407 0.0
Cd15 Cd 0.84717 0.18178 0.34721 0.0
Cd16 Cd 0.8385 0.07185 0.35182 0.0
O17 O 0.88338 0.09102 0.30974 0.0
O18 O 0.84124 0.25388 0.34009 0.0
O19 O 0.90112 0.25016 0.37546 0.0
C20 C 0.87955 0.27946 0.36181 0.0
C21 C 0.87766 0.06836 0.39997 0.0
C22 C 0.8927 0.13579 0.29352 0.0
C23 C 0.72722 0.07316 0.35658 0.0
O24 O 0.74875 0.03998 0.35052 0.0
O25 O 0.76021 0.12846 0.35897 0.0
O26 O 0.85534 0.02306 0.38149 0.0
O27 O 0.88063 0.11677 0.39026 0.0
O28 O 0.70032 0.74079 0.67034 0.0
Cd29 Cd 0.75776 0.8302 0.67588 0.0
Cd30 Cd 0.65585 0.83631 0.6616 0.0
O31 O 0.6191 0.74691 0.66885 0.0
O32 O 0.82303 0.83493 0.70205 0.0
O33 O 0.76171 0.8651 0.71853 0.0
C34 C 0.80503 0.85574 0.72427 0.0
C35 C 0.59486 0.87523 0.67474 0.0
C36 C 0.64453 0.71619 0.66987 0.0
C37 C 0.76083 0.89104 0.6165 0.0
O38 O 0.70685 0.8736 0.622 0.0
O39 O 0.7921 0.88192 0.63616 0.0
O40 O 0.58315 0.83962 0.65158 0.0
O41 O 0.64154 0.88916 0.69108 0.0
O42 O 0.84545 0.73935 0.95511 0.0
Cd43 Cd 0.82855 0.68349 0.99278 0.0
Cd44 Cd 0.93581 0.77306 0.01081 0.0
O45 O 0.92598 0.8171 0.97266 0.0
O46 O 0.74742 0.61806 0.98501 0.0
O47 O 0.77038 0.67782 0.02586 0.0
C48 C 0.73129 0.63313 0.0103 0.0
C49 C 0.94475 0.80711 0.06198 0.0
C50 C 0.88605 0.79268 0.95194 0.0
C51 C 0.92745 0.65636 0.99971 0.0
O52 O 0.96266 0.71108 1.00396 0.0
O53 O 0.87279 0.63708 0.99622 0.0
O54 O 0.98908 0.82984 0.04295 0.0
O55 O 0.89438 0.76689 0.0514 0.0
O56 O 0.11169 0.84764 0.29454 0.0
Cd57 Cd 0.14964 0.82386 0.33002 0.0
Cd58 Cd 0.18943 0.94293 0.34555 0.0
O59 O 0.14772 0.9427 0.30414 0.0
O60 O 0.12862 0.74319 0.31635 0.0
O61 O 0.09895 0.76072 0.36166 0.0
C62 C 0.10093 0.72358 0.34235 0.0
C63 C 0.16503 0.96663 0.39379 0.0
C64 C 0.11702 0.89739 0.28733 0.0
C65 C 0.28154 0.90898 0.33643 0.0
O66 O 0.27193 0.95108 0.34277 0.0
O67 O 0.23937 0.85764 0.33081 0.0
O68 O 0.19644 0.00706 0.37364 0.0
O69 O 0.14505 0.91201 0.386 0.0
O70 O 0.26857 0.24132 0.67716 0.0
Cd71 Cd 0.22122 0.15124 0.68513 0.0
Cd72 Cd 0.32137 0.15392 0.66327 0.0
O73 O 0.3529 0.2427 0.67012 0.0
O74 O 0.16109 0.13681 0.7179 0.0
O75 O 0.23855 0.12502 0.72608 0.0
C76 C 0.19226 0.12487 0.73693 0.0
C77 C 0.38687 0.11985 0.67474 0.0
C78 C 0.32409 0.26981 0.67357 0.0
C79 C 0.20942 0.08881 0.62489 0.0
O80 O 0.26516 0.11195 0.62606 0.0
O81 O 0.18128 0.0949 0.64758 0.0
O82 O 0.39471 0.15352 0.65106 0.0
O83 O 0.34168 0.10537 0.69252 0.0
H84 H 0.21632 0.12945 0.78678 0.0
C85 C 0.17988 0.1191 0.77094 0.0
H86 H 0.09178 0.09899 0.76639 0.0
H87 H 0.15168 0.10438 0.92151 0.0
H88 H 0.17212 0.02452 0.91116 0.0
H89 H 0.16743 0.98784 0.85725 0.0
H90 H 0.14247 0.03073 0.81337 0.0
C91 C 0.12788 0.10941 0.78248 0.0
C92 C 0.12179 0.12398 0.81573 0.0
C93 C 0.13429 0.09683 0.84125 0.0
C94 C 0.13582 0.11715 0.87246 0.0
C95 C 0.14997 0.0905 0.8974 0.0
C96 C 0.16159 0.04459 0.89179 0.0
C97 C 0.1591 0.02403 0.86143 0.0
C98 C 0.14525 0.04941 0.8364 0.0
H99 H 0.04558 0.14602 0.92448 0.0
C100 C 0.09037 0.17963 0.93013 0.0
H101 H 0.1793 0.22416 0.91534 0.0
H102 H 0.09173 0.18354 0.77269 0.0
H103 H 0.06725 0.25971 0.78375 0.0
H104 H 0.06796 0.29299 0.838 0.0
H105 H 0.09332 0.2501 0.88152 0.0
C106 C 0.13424 0.19111 0.90983 0.0
C107 C 0.12342 0.16341 0.87821 0.0
C108 C 0.10712 0.18789 0.85304 0.0
C109 C 0.10632 0.16827 0.82177 0.0
C110 C 0.09211 0.19547 0.79701 0.0
C111 C 0.07816 0.23968 0.80298 0.0
C112 C 0.0786 0.25845 0.8335 0.0
C113 C 0.09317 0.23329 0.8583 0.0
H114 H 0.92198 0.18318 0.24874 0.0
C115 C 0.91794 0.14532 0.26165 0.0
H116 H 0.92968 0.07072 0.25969 0.0
H117 H 0.91051 0.06279 0.11048 0.0
H118 H 0.82836 0.96788 0.12545 0.0
H119 H 0.8037 0.94191 0.18122 0.0
H120 H 0.86113 0.01059 0.22238 0.0
C121 C 0.93485 0.1098 0.24771 0.0
C122 C 0.95601 0.12111 0.21448 0.0
C123 C 0.9223 0.08029 0.19071 0.0
C124 C 0.93612 0.09564 0.15852 0.0
C125 C 0.90143 0.05397 0.13527 0.0
C126 C 0.85425 -0.00081 0.14353 0.0
C127 C 0.84041 0.98454 0.17494 0.0
C128 C 0.87377 0.02445 0.19834 0.0
H129 H 0.07994 0.18642 0.11295 0.0
C130 C 0.04297 0.18555 0.10078 0.0
H131 H 0.95554 0.16884 0.10405 0.0
H132 H 0.03813 0.20269 0.25407 0.0
H133 H 0.11875 0.29916 0.23967 0.0
H134 H 0.13591 0.33106 0.1843 0.0
H135 H 0.07418 0.26643 0.14311 0.0
C136 C 0.99247 0.16977 0.11633 0.0
C137 C 0.98348 0.15192 0.15008 0.0
C138 C 0.01856 0.19201 0.17399 0.0
C139 C 0.00613 0.17545 0.20612 0.0
C140 C 0.04393 0.21447 0.22945 0.0
C141 C 0.09055 0.26973 0.2215 0.0
C142 C 0.10039 0.28754 0.19032 0.0
C143 C 0.06485 0.24951 0.16679 0.0
H144 H 0.92007 0.10406 0.4458 0.0
C145 C 0.89381 0.06367 0.4326 0.0
H146 H 0.84204 0.97095 0.43436 0.0
H147 H 0.90789 0.90319 0.56098 0.0
H148 H 0.9532 0.86609 0.52446 0.0
H149 H 0.96272 0.89252 0.46833 0.0
H150 H 0.92751 0.95678 0.4484 0.0
C151 C 0.8686 0.01134 0.44752 0.0
C152 C 0.87284 0.00522 0.48214 0.0
C153 C 0.89505 0.9689 0.49364 0.0
C154 C 0.88984 0.95385 0.52608 0.0
C155 C 0.9108 0.9161 0.53664 0.0
C156 C 0.93694 0.89449 0.51592 0.0
C157 C 0.94222 0.90931 0.48431 0.0
C158 C 0.92164 0.94606 0.47316 0.0
H159 H 0.75408 0.92032 0.56927 0.0
C160 C 0.78532 0.92067 0.58627 0.0
H161 H 0.87481 0.94806 0.59512 0.0
H162 H 0.82174 0.07389 0.46888 0.0
H163 H 0.788 0.11981 0.50648 0.0
H164 H 0.79218 0.10414 0.56333 0.0
H165 H 0.82829 0.04009 0.58259 0.0
C166 C 0.8429 0.94796 0.57876 0.0
C167 C 0.86253 0.97529 0.54698 0.0
C168 C 0.847 0.01727 0.53619 0.0
C169 C 0.8493 0.03009 0.50359 0.0
C170 C 0.82559 0.06583 0.49336 0.0
C171 C 0.80524 0.09207 0.51477 0.0
C172 C 0.80726 0.08299 0.54675 0.0
C173 C 0.82764 0.04588 0.55746 0.0
H174 H 0.91222 0.87455 0.92468 0.0
C175 C 0.88599 0.82669 0.92414 0.0
H176 H 0.82724 0.75136 0.89844 0.0
H177 H 0.70936 0.83721 0.80422 0.0
H178 H 0.62931 0.78006 0.84006 0.0
H179 H 0.6476 0.74728 0.89105 0.0
H180 H 0.74626 0.77087 0.90622 0.0
C181 C 0.85382 0.79924 0.89856 0.0
C182 C 0.84666 0.83082 0.87115 0.0
C183 C 0.78914 0.81913 0.86315 0.0
C184 C 0.77887 0.83953 0.83412 0.0
C185 C 0.72029 0.82407 0.82613 0.0
C186 C 0.67367 0.79111 0.84652 0.0
C187 C 0.68394 0.77256 0.87519 0.0
C188 C 0.74082 0.78621 0.88353 0.0
H189 H 0.85692 0.84163 0.76018 0.0
C190 C 0.82947 0.86156 0.75611 0.0
H191 H 0.7859 0.90288 0.7766 0.0
H192 H 0.96297 0.86131 0.87839 0.0
H193 H 0.04413 0.92674 0.84508 0.0
H194 H 0.02769 0.97291 0.79839 0.0
H195 H 0.92879 0.95069 0.78394 0.0
C196 C 0.81406 0.88378 0.78051 0.0
C197 C 0.82654 0.87307 0.81342 0.0
C198 C 0.88487 0.89033 0.82307 0.0
C199 C 0.89483 0.86731 0.85131 0.0
C200 C 0.95293 0.88007 0.85833 0.0
C201 C 0.0001 0.91753 0.83926 0.0
C202 C 0.99077 0.94312 0.81286 0.0
C203 C 0.93387 0.92969 0.8047 0.0
H204 H 0.11365 0.94641 0.24575 0.0
C205 C 0.0927 0.90348 0.25715 0.0
H206 H 0.02957 0.81342 0.25395 0.0
H207 H 0.98113 0.93565 0.12632 0.0
H208 H 0.96482 -0.00093 0.16171 0.0
H209 H 0.97702 0.99494 0.2189 0.0
H210 H 0.00834 0.92901 0.24097 0.0
C211 C 0.05006 0.85606 0.24224 0.0
C212 C 0.03777 0.85673 0.20808 0.0
C213 C 0.0166 0.89348 0.19585 0.0
C214 C 0.00676 0.894 0.16298 0.0
C215 C 0.98814 0.9328 0.15115 0.0
C216 C 0.97837 0.96926 0.17122 0.0
C217 C 0.98565 0.96715 0.20341 0.0
C218 C 0.00417 0.92949 0.21574 0.0
H219 H 0.9144 0.79919 0.11108 0.0
C220 C 0.95239 0.82201 0.09573 0.0
H221 H 0.04468 0.877 0.09328 0.0
H222 H 0.08009 0.78184 0.22322 0.0
H223 H 0.0942 0.71745 0.18777 0.0
H224 H 0.07229 0.71514 0.13132 0.0
H225 H 0.03662 0.77782 0.11 0.0
C226 C 0.00597 0.85626 0.10826 0.0
C227 C 0.01585 0.85626 0.14264 0.0
C228 C 0.03588 0.81875 0.15488 0.0
C229 C 0.04729 0.81925 0.18754 0.0
C230 C 0.06908 0.78246 0.19882 0.0
C231 C 0.07777 0.74536 0.17866 0.0
C232 C 0.06555 0.74412 0.14688 0.0
C233 C 0.04506 0.7804 0.13498 0.0
H234 H 0.12932 0.02851 0.59784 0.0
C235 C 0.17707 0.05468 0.59685 0.0
H236 H 0.25344 0.08153 0.56953 0.0
H237 H 0.17709 0.88536 0.47082 0.0
H238 H 0.23408 0.85995 0.50584 0.0
H239 H 0.26389 0.90604 0.55811 0.0
H240 H 0.23706 0.97821 0.57555 0.0
C241 C 0.20562 0.05615 0.57028 0.0
C242 C 0.17575 0.01969 0.54209 0.0
C243 C 0.18996 0.97608 0.53258 0.0
C244 C 0.17183 0.94874 0.50266 0.0
C245 C 0.18887 0.90708 0.4934 0.0
C246 C 0.2217 0.89204 0.51329 0.0
C247 C 0.23856 0.91804 0.54269 0.0
C248 C 0.22307 0.9596 0.55234 0.0
H249 H 0.18101 0.03082 0.4312 0.0
C250 C 0.15782 0.98393 0.42576 0.0
H251 H 0.10872 0.89774 0.444 0.0
H252 H 0.13704 0.09859 0.55366 0.0
H253 H 0.07327 0.11794 0.52041 0.0
H254 H 0.03779 0.06664 0.46974 0.0
H255 H 0.06626 0.99566 0.45198 0.0
C256 C 0.13038 0.94475 0.44894 0.0
C257 C 0.13915 0.96486 0.48231 0.0
C258 C 0.12033 0.00444 0.493 0.0
C259 C 0.13932 0.03261 0.52273 0.0
C260 C 0.12258 0.07448 0.53185 0.0
C261 C 0.08618 0.08628 0.51288 0.0
C262 C 0.06634 0.05754 0.4843 0.0
C263 C 0.08326 0.01721 0.47431 0.0
H264 H 0.35364 0.36523 0.03829 0.0
C265 C 0.33975 0.38913 0.02277 0.0
H266 H 0.36459 0.46438 0.99479 0.0
H267 H 0.61408 0.53885 0.07182 0.0
H268 H 0.56031 0.5283 0.12007 0.0
H269 H 0.45317 0.49093 0.11919 0.0
H270 H 0.39896 0.46247 0.07018 0.0
C271 C 0.37945 0.44112 0.01022 0.0
C272 C 0.44401 0.46412 0.01177 0.0
C273 C 0.47524 0.4829 0.04054 0.0
C274 C 0.53755 0.50752 0.04086 0.0
C275 C 0.56724 0.5225 0.07007 0.0
C276 C 0.53683 0.51627 0.09797 0.0
C277 C 0.47647 0.495 0.09748 0.0
C278 C 0.4458 0.4785 0.06918 0.0
H279 H 0.65103 0.62581 0.03204 0.0
C280 C 0.66904 0.60156 0.01992 0.0
H281 H 0.65319 0.52148 0.99966 0.0
H282 H 0.39707 0.42777 0.95292 0.0
H283 H 0.45112 0.44248 0.90452 0.0
H284 H 0.55964 0.49272 0.90446 0.0
H285 H 0.61454 0.52764 0.95279 0.0
C286 C 0.63404 0.54498 0.0115 0.0
C287 C 0.56866 0.51632 0.01223 0.0
C288 C 0.5373 0.49745 0.98348 0.0
C289 C 0.47493 0.47045 0.98335 0.0
C290 C 0.44461 0.4502 0.9544 0.0
C291 C 0.47506 0.45807 0.92637 0.0
C292 C 0.53609 0.48618 0.92635 0.0
C293 C 0.56707 0.50577 0.95443 0.0
H294 H 0.86666 0.35602 0.36439 0.0
C295 C 0.89787 0.34096 0.36952 0.0
H296 H 0.98596 0.36697 0.38114 0.0
H297 H 0.96866 0.59669 0.32127 0.0
H298 H 0.93207 0.53762 0.27394 0.0
H299 H 0.9201 0.43764 0.27151 0.0
H300 H 0.94153 0.3953 0.31675 0.0
C301 C 0.95367 0.38081 0.37653 0.0
C302 C 0.97318 0.4451 0.37572 0.0
C303 C 0.96592 0.47098 0.34789 0.0
C304 C 0.9787 0.53056 0.34814 0.0
C305 C 0.96391 0.55303 0.32144 0.0
C306 C 0.94239 0.51945 0.29425 0.0
C307 C 0.93527 0.46307 0.29296 0.0
C308 C 0.94699 0.43898 0.31933 0.0
H309 H 0.08555 0.63478 0.33323 0.0
C310 C 0.07389 0.66026 0.34898 0.0
H311 H 0.02222 0.65659 0.38807 0.0
H312 H 0.99148 0.4094 0.43297 0.0
H313 H 0.03476 0.47114 0.47888 0.0
H314 H 0.06667 0.57741 0.4774 0.0
H315 H 0.0546 0.62248 0.43018 0.0
C316 C 0.03409 0.63219 0.37172 0.0
C317 C 0.00661 0.56678 0.37461 0.0
C318 C 0.0145 0.54134 0.4023 0.0
C319 C 0.99711 0.48021 0.40296 0.0
C320 C 0.00452 0.45567 0.43108 0.0
C321 C 0.0293 0.49061 0.45759 0.0
C322 C 0.04726 0.55046 0.45676 0.0
C323 C 0.04015 0.5758 0.42949 0.0
H324 H 0.46976 0.11961 0.6672 0.0
C325 C 0.42819 0.0977 0.67988 0.0
H326 H 0.37262 0.02538 0.70874 0.0
H327 H 0.57009 0.97261 0.63482 0.0
H328 H 0.52444 0.97912 0.58663 0.0
H329 H 0.44183 -0.00033 0.58791 0.0
H330 H 0.40659 0.01665 0.63726 0.0
C331 C 0.41398 0.04809 0.69596 0.0
C332 C 0.45385 0.02224 0.69573 0.0
C333 C 0.46987 0.00676 0.66683 0.0
C334 C 0.51327 0.98901 0.66629 0.0
C335 C 0.53391 0.98146 0.63681 0.0
C336 C 0.50857 0.98576 0.60889 0.0
C337 C 0.46239 0.99774 0.6096 0.0
C338 C 0.44306 0.00811 0.63813 0.0
H339 H 0.51185 0.87637 0.67082 0.0
C340 C 0.55574 0.89963 0.68099 0.0
H341 H 0.61795 0.97666 0.70464 0.0
H342 H 0.43247 0.04724 0.75508 0.0
H343 H 0.47268 0.03318 0.80357 0.0
H344 H 0.54091 0.99333 0.80297 0.0
H345 H 0.57008 0.96807 0.75384 0.0
C346 C 0.5741 0.9524 0.69455 0.0
C347 C 0.53529 0.97948 0.69491 0.0
C348 C 0.51799 0.99319 0.72385 0.0
C349 C 0.4777 0.01516 0.72424 0.0
C350 C 0.4623 0.02976 0.75344 0.0
C351 C 0.48508 0.02193 0.78146 0.0
C352 C 0.52353 -0.00048 0.78111 0.0
C353 C 0.53992 0.9852 0.75274 0.0
H354 H 0.33012 0.35755 0.6757 0.0
C355 C 0.35558 0.33498 0.67378 0.0
H356 H 0.44044 0.34443 0.6694 0.0
H357 H 0.56456 0.60063 0.61295 0.0
H358 H 0.55852 0.54319 0.56692 0.0
H359 H 0.50153 0.43439 0.56811 0.0
H360 H 0.44998 0.38241 0.61529 0.0
C361 C 0.4147 0.36655 0.67209 0.0
C362 C 0.44719 0.43218 0.67145 0.0
C363 C 0.4777 0.46186 0.64379 0.0
C364 C 0.51107 0.52455 0.6432 0.0
C365 C 0.53966 0.55306 0.61496 0.0
C366 C 0.53629 0.52063 0.58828 0.0
C367 C 0.50417 0.45939 0.58894 0.0
C368 C 0.47496 0.43011 0.61624 0.0
H369 H 0.6319 0.62581 0.66995 0.0
C370 C 0.60909 0.65118 0.6701 0.0
H371 H 0.52634 0.6475 0.67128 0.0
H372 H 0.39757 0.38914 0.72914 0.0
H373 H 0.40312 0.44674 0.77496 0.0
H374 H 0.45916 0.55556 0.77349 0.0
H375 H 0.51043 0.60741 0.72619 0.0
C376 C 0.54987 0.6229 0.67016 0.0
C377 C 0.51449 0.55738 0.67043 0.0
C378 C 0.48346 0.5278 0.69798 0.0
C379 C 0.45027 0.46506 0.69864 0.0
C380 C 0.42202 0.43668 0.72697 0.0
C381 C 0.42516 0.46922 0.75356 0.0
C382 C 0.45677 0.53049 0.75274 0.0
C383 C 0.48586 0.55967 0.7254 0.0
H384 H 0.91594 0.56762 0.99388 0.0
C385 C 0.94829 0.61321 0.99919 0.0
H386 H 0.03623 0.67113 0.0129 0.0
H387 H 0.05382 0.45551 0.07203 0.0
H388 H 0.05998 0.51219 0.11853 0.0
H389 H 0.04727 0.59972 0.11484 0.0
H390 H 0.02862 0.63134 0.06464 0.0
C391 C 0.00362 0.62658 0.00609 0.0
C392 C 0.01894 0.57866 0.00764 0.0
C393 C 0.03021 0.5611 0.03714 0.0
C394 C 0.03709 0.51036 0.03931 0.0
C395 C 0.04797 0.49354 0.06909 0.0
C396 C 0.05163 0.52568 0.09596 0.0
C397 C 0.04449 0.57498 0.09388 0.0
C398 C 0.03378 0.59263 0.0649 0.0
H399 H 0.12493 0.46694 0.99519 0.0
C400 C 0.08952 0.42603 1.00477 0.0
H401 H 0.00462 0.38477 0.0252 0.0
H402 H 0.00702 0.60575 0.94696 0.0
H403 H 0.0001 0.54878 0.90049 0.0
H404 H 0.00662 0.45774 0.90457 0.0
H405 H 0.02086 0.42359 0.95504 0.0
C406 C 0.03978 0.42429 0.01439 0.0
C407 C 0.033 0.47756 0.01197 0.0
C408 C 0.0232 0.49599 0.98233 0.0
C409 C 0.01725 0.54723 0.98011 0.0
C410 C 0.00972 0.56596 0.9501 0.0
C411 C 0.00609 0.53391 0.92322 0.0
C412 C 0.00994 0.48276 0.92551 0.0
C413 C 0.01839 0.4638 0.95464 0.0
H414 H 0.64917 0.08035 0.36769 0.0
C415 C 0.66349 0.04976 0.35972 0.0
H416 H 0.63576 0.96512 0.34071 0.0
H417 H 0.39974 0.96423 0.40475 0.0
H418 H 0.44331 0.96236 0.45475 0.0
H419 H 0.54023 0.96769 0.45699 0.0
H420 H 0.5942 0.97499 0.40917 0.0
C421 C 0.62285 0.9955 0.35056 0.0
C422 C 0.56014 0.9807 0.3492 0.0
C423 C 0.52879 0.97552 0.37728 0.0
C424 C 0.47272 0.97187 0.37595 0.0
C425 C 0.44256 0.96721 0.40439 0.0
C426 C 0.46701 0.966 0.43325 0.0
C427 C 0.52161 0.96907 0.43451 0.0
C428 C 0.55228 0.97364 0.40693 0.0
H429 H 0.34741 0.8812 0.32828 0.0
C430 C 0.34173 0.91793 0.33588 0.0
H431 H 0.38408 0.00436 0.35451 0.0
H432 H 0.60676 0.98543 0.29097 0.0
H433 H 0.56298 0.98633 0.24091 0.0
H434 H 0.46651 0.98191 0.23855 0.0
H435 H 0.4132 0.9764 0.2862 0.0
C436 C 0.38887 0.96804 0.34535 0.0
C437 C 0.44777 0.97245 0.34651 0.0
C438 C 0.47832 0.97576 0.31836 0.0
C439 C 0.53432 0.97921 0.31972 0.0
C440 C 0.56417 0.98294 0.2913 0.0
C441 C 0.53955 0.98349 0.2624 0.0
C442 C 0.4852 0.98091 0.26107 0.0
C443 C 0.45486 0.97734 0.28863 0.0
loop_
_geom_bond_atom_site_label_1
_geom_bond_atom_site_label_2
_geom_bond_distance
_geom_bond_site_symmetry_2
_ccdc_geom_bond_type
O0 Cd1 2.223 . S
O0 C8 1.315 . S
Cd1 O0 2.223 . S
Cd1 O4 2.297 . S
Cd1 O5 2.439 1_556 S
Cd1 O11 2.240 1_556 S
Cd2 O3 2.240 1_554 S
Cd2 O10 2.223 1_554 S
Cd2 O12 2.297 1_455 S
Cd2 O13 2.439 . S
O3 Cd2 2.240 1_556 S
O3 C8 1.279 . S
O4 Cd1 2.297 . S
O4 C6 1.247 1_556 S
O5 Cd1 2.439 1_554 S
O5 C6 1.208 . S
C6 O4 1.247 1_554 S
C6 O5 1.208 . S
C7 O12 1.247 1_455 S
C7 O13 1.208 . S
C8 O0 1.315 . S
C8 O3 1.279 . S
C9 O10 1.315 . S
C9 O11 1.279 1_556 S
O10 Cd2 2.223 1_556 S
O10 C9 1.315 . S
O11 Cd1 2.240 1_554 S
O11 C9 1.279 1_554 S
O12 Cd2 2.297 1_655 S
O12 C7 1.247 1_655 S
O13 Cd2 2.439 . S
O13 C7 1.208 . S
O14 Cd15 2.223 . S
O14 C22 1.315 . S
Cd15 O14 2.223 . S
Cd15 O18 2.297 . S
Cd15 O19 2.439 . S
Cd15 O25 2.240 . S
Cd16 O17 2.240 . S
Cd16 O24 2.223 . S
Cd16 O26 2.297 1_545 S
Cd16 O27 2.439 . S
O17 Cd16 2.240 . S
O17 C22 1.279 . S
O18 Cd15 2.297 . S
O18 C20 1.247 . S
O19 Cd15 2.439 . S
O19 C20 1.208 . S
C20 O18 1.247 . S
C20 O19 1.208 . S
C21 O26 1.247 1_545 S
C21 O27 1.208 . S
C22 O14 1.315 . S
C22 O17 1.279 . S
C23 O24 1.315 . S
C23 O25 1.279 . S
O24 Cd16 2.223 . S
O24 C23 1.315 . S
O25 Cd15 2.240 . S
O25 C23 1.279 . S
O26 Cd16 2.297 1_565 S
O26 C21 1.247 1_565 S
O27 Cd16 2.439 . S
O27 C21 1.208 . S
O28 Cd29 2.223 . S
O28 C36 1.315 . S
Cd29 O28 2.223 . S
Cd29 O32 2.297 . S
Cd29 O33 2.439 . S
Cd29 O39 2.240 . S
Cd30 O31 2.240 . S
Cd30 O38 2.223 . S
Cd30 O40 2.297 . S
Cd30 O41 2.439 . S
O31 Cd30 2.240 . S
O31 C36 1.279 . S
O32 Cd29 2.297 . S
O32 C34 1.247 . S
O33 Cd29 2.439 . S
O33 C34 1.208 . S
C34 O32 1.247 . S
C34 O33 1.208 . S
C35 O40 1.247 . S
C35 O41 1.208 . S
C36 O28 1.315 . S
C36 O31 1.279 . S
C37 O38 1.315 . S
C37 O39 1.279 . S
O38 Cd30 2.223 . S
O38 C37 1.315 . S
O39 Cd29 2.240 . S
O39 C37 1.279 . S
O40 Cd30 2.297 . S
O40 C35 1.247 . S
O41 Cd30 2.439 . S
O41 C35 1.208 . S
O42 Cd43 2.223 . S
O42 C50 1.315 . S
Cd43 O42 2.223 . S
Cd43 O46 2.297 . S
Cd43 O47 2.439 1_556 S
Cd43 O53 2.240 1_556 S
Cd44 O45 2.240 1_554 S
Cd44 O52 2.223 1_554 S
Cd44 O54 2.297 1_655 S
Cd44 O55 2.439 . S
O45 Cd44 2.240 1_556 S
O45 C50 1.279 . S
O46 Cd43 2.297 . S
O46 C48 1.247 1_556 S
O47 Cd43 2.439 1_554 S
O47 C48 1.208 . S
C48 O46 1.247 1_554 S
C48 O47 1.208 . S
C49 O54 1.247 1_655 S
C49 O55 1.208 . S
C50 O42 1.315 . S
C50 O45 1.279 . S
C51 O52 1.315 . S
C51 O53 1.279 1_556 S
O52 Cd44 2.223 1_556 S
O52 C51 1.315 . S
O53 Cd43 2.240 1_554 S
O53 C51 1.279 1_554 S
O54 Cd44 2.297 1_455 S
O54 C49 1.247 1_455 S
O55 Cd44 2.439 . S
O55 C49 1.208 . S
O56 Cd57 2.223 . S
O56 C64 1.315 . S
Cd57 O56 2.223 . S
Cd57 O60 2.297 . S
Cd57 O61 2.439 . S
Cd57 O67 2.240 . S
Cd58 O59 2.240 . S
Cd58 O66 2.223 . S
Cd58 O68 2.297 1_565 S
Cd58 O69 2.439 . S
O59 Cd58 2.240 . S
O59 C64 1.279 . S
O60 Cd57 2.297 . S
O60 C62 1.247 . S
O61 Cd57 2.439 . S
O61 C62 1.208 . S
C62 O60 1.247 . S
C62 O61 1.208 . S
C63 O68 1.247 1_565 S
C63 O69 1.208 . S
C64 O56 1.315 . S
C64 O59 1.279 . S
C65 O66 1.315 . S
C65 O67 1.279 . S
O66 Cd58 2.223 . S
O66 C65 1.315 . S
O67 Cd57 2.240 . S
O67 C65 1.279 . S
O68 Cd58 2.297 1_545 S
O68 C63 1.247 1_545 S
O69 Cd58 2.439 . S
O69 C63 1.208 . S
O70 Cd71 2.223 . S
O70 C78 1.315 . S
Cd71 O70 2.223 . S
Cd71 O74 2.297 . S
Cd71 O75 2.439 . S
Cd71 O81 2.240 . S
Cd72 O73 2.240 . S
Cd72 O80 2.223 . S
Cd72 O82 2.297 . S
Cd72 O83 2.439 . S
O73 Cd72 2.240 . S
O73 C78 1.279 . S
O74 Cd71 2.297 . S
O74 C76 1.247 . S
O75 Cd71 2.439 . S
O75 C76 1.208 . S
C76 O74 1.247 . S
C76 O75 1.208 . S
C77 O82 1.247 . S
C77 O83 1.208 . S
C78 O70 1.315 . S
C78 O73 1.279 . S
C79 O80 1.315 . S
C79 O81 1.279 . S
O80 Cd72 2.223 . S
O80 C79 1.315 . S
O81 Cd71 2.240 . S
O81 C79 1.279 . S
O82 Cd72 2.297 . S
O82 C77 1.247 . S
O83 Cd72 2.439 . S
O83 C77 1.208 . S
H84 C85 0.951 . S
C85 H84 0.951 . S
C85 C91 1.265 . S
H86 C91 0.950 . S
H87 C95 0.949 . S
H88 C96 0.950 . S
H89 C97 0.951 . S
H90 C98 0.951 . S
C91 C85 1.265 . S
C91 H86 0.950 . S
C91 C92 1.478 . S
C92 C91 1.478 . S
C92 C93 1.397 . S
C92 C109 1.394 . S
C93 C92 1.397 . S
C93 C94 1.438 . S
C93 C98 1.429 . S
C94 C93 1.438 . S
C94 C95 1.428 . S
C94 C107 1.394 . S
C95 H87 0.949 . S
C95 C94 1.428 . S
C95 C96 1.345 . S
C96 H88 0.950 . S
C96 C95 1.345 . S
C96 C97 1.424 . S
C97 H89 0.951 . S
C97 C96 1.424 . S
C97 C98 1.347 . S
C98 H90 0.951 . S
C98 C93 1.429 . S
C98 C97 1.347 . S
H99 C100 0.951 . S
C100 H99 0.951 . S
C100 C106 1.265 . S
H101 C106 0.950 . S
H102 C110 0.949 . S
H103 C111 0.950 . S
H104 C112 0.951 . S
H105 C113 0.951 . S
C106 C100 1.265 . S
C106 H101 0.950 . S
C106 C107 1.478 . S
C107 C94 1.394 . S
C107 C106 1.478 . S
C107 C108 1.397 . S
C108 C107 1.397 . S
C108 C109 1.438 . S
C108 C113 1.429 . S
C109 C92 1.394 . S
C109 C108 1.438 . S
C109 C110 1.428 . S
C110 H102 0.949 . S
C110 C109 1.428 . S
C110 C111 1.345 . S
C111 H103 0.950 . S
C111 C110 1.345 . S
C111 C112 1.424 . S
C112 H104 0.951 . S
C112 C111 1.424 . S
C112 C113 1.347 . S
C113 H105 0.951 . S
C113 C108 1.429 . S
C113 C112 1.347 . S
H114 C115 0.951 . S
C115 H114 0.951 . S
C115 C121 1.265 . S
H116 C121 0.950 . S
H117 C125 0.949 . S
H118 C126 0.950 . S
H119 C127 0.951 1_565 S
H120 C128 0.951 . S
C121 C115 1.265 . S
C121 H116 0.950 . S
C121 C122 1.478 . S
C122 C121 1.478 . S
C122 C123 1.397 . S
C122 C139 1.394 . S
C123 C122 1.397 . S
C123 C124 1.438 . S
C123 C128 1.429 . S
C124 C123 1.438 . S
C124 C125 1.428 . S
C124 C137 1.394 . S
C125 H117 0.949 . S
C125 C124 1.428 . S
C125 C126 1.345 . S
C126 H118 0.950 . S
C126 C125 1.345 . S
C126 C127 1.424 . S
C127 H119 0.951 1_545 S
C127 C126 1.424 . S
C127 C128 1.347 . S
C128 H120 0.951 . S
C128 C123 1.429 . S
C128 C127 1.347 . S
H129 C130 0.951 . S
C130 H129 0.951 . S
C130 C136 1.265 1_455 S
H131 C136 0.950 . S
H132 C140 0.949 . S
H133 C141 0.950 . S
H134 C142 0.951 . S
H135 C143 0.951 . S
C136 C130 1.265 1_655 S
C136 H131 0.950 . S
C136 C137 1.478 . S
C137 C124 1.394 . S
C137 C136 1.478 . S
C137 C138 1.397 . S
C138 C137 1.397 . S
C138 C139 1.438 . S
C138 C143 1.429 1_655 S
C139 C122 1.394 . S
C139 C138 1.438 . S
C139 C140 1.428 . S
C140 H132 0.949 . S
C140 C139 1.428 . S
C140 C141 1.345 . S
C141 H133 0.950 . S
C141 C140 1.345 . S
C141 C142 1.424 1_655 S
C142 H134 0.951 . S
C142 C141 1.424 1_455 S
C142 C143 1.347 . S
C143 H135 0.951 . S
C143 C138 1.429 1_455 S
C143 C142 1.347 . S
H144 C145 0.951 . S
C145 H144 0.951 . S
C145 C151 1.265 1_545 S
H146 C151 0.950 . S
H147 C155 0.949 . S
H148 C156 0.950 . S
H149 C157 0.951 . S
H150 C158 0.951 . S
C151 C145 1.265 1_565 S
C151 H146 0.950 . S
C151 C152 1.478 . S
C152 C151 1.478 . S
C152 C153 1.397 . S
C152 C169 1.394 1_565 S
C153 C152 1.397 . S
C153 C154 1.438 . S
C153 C158 1.429 . S
C154 C153 1.438 . S
C154 C155 1.428 . S
C154 C167 1.394 . S
C155 H147 0.949 . S
C155 C154 1.428 . S
C155 C156 1.345 . S
C156 H148 0.950 . S
C156 C155 1.345 . S
C156 C157 1.424 . S
C157 H149 0.951 . S
C157 C156 1.424 . S
C157 C158 1.347 . S
C158 H150 0.951 . S
C158 C153 1.429 . S
C158 C157 1.347 . S
H159 C160 0.951 . S
C160 H159 0.951 . S
C160 C166 1.265 . S
H161 C166 0.950 . S
H162 C170 0.949 . S
H163 C171 0.950 . S
H164 C172 0.951 . S
H165 C173 0.951 . S
C166 C160 1.265 . S
C166 H161 0.950 . S
C166 C167 1.478 . S
C167 C154 1.394 . S
C167 C166 1.478 . S
C167 C168 1.397 . S
C168 C167 1.397 . S
C168 C169 1.438 1_565 S
C168 C173 1.429 1_565 S
C169 C152 1.394 1_545 S
C169 C168 1.438 1_545 S
C169 C170 1.428 . S
C170 H162 0.949 . S
C170 C169 1.428 . S
C170 C171 1.345 . S
C171 H163 0.950 . S
C171 C170 1.345 . S
C171 C172 1.424 . S
C172 H164 0.951 . S
C172 C171 1.424 . S
C172 C173 1.347 . S
C173 H165 0.951 . S
C173 C168 1.429 1_545 S
C173 C172 1.347 . S
H174 C175 0.951 . S
C175 H174 0.951 . S
C175 C181 1.265 . S
H176 C181 0.950 . S
H177 C185 0.949 . S
H178 C186 0.950 . S
H179 C187 0.951 . S
H180 C188 0.951 . S
C181 C175 1.265 . S
C181 H176 0.950 . S
C181 C182 1.478 . S
C182 C181 1.478 . S
C182 C183 1.397 . S
C182 C199 1.394 . S
C183 C182 1.397 . S
C183 C184 1.438 . S
C183 C188 1.429 . S
C184 C183 1.438 . S
C184 C185 1.428 . S
C184 C197 1.394 . S
C185 H177 0.949 . S
C185 C184 1.428 . S
C185 C186 1.345 . S
C186 H178 0.950 . S
C186 C185 1.345 . S
C186 C187 1.424 . S
C187 H179 0.951 . S
C187 C186 1.424 . S
C187 C188 1.347 . S
C188 H180 0.951 . S
C188 C183 1.429 . S
C188 C187 1.347 . S
H189 C190 0.951 . S
C190 H189 0.951 . S
C190 C196 1.265 . S
H191 C196 0.950 . S
H192 C200 0.949 . S
H193 C201 0.950 1_455 S
H194 C202 0.951 . S
H195 C203 0.951 . S
C196 C190 1.265 . S
C196 H191 0.950 . S
C196 C197 1.478 . S
C197 C184 1.394 . S
C197 C196 1.478 . S
C197 C198 1.397 . S
C198 C197 1.397 . S
C198 C199 1.438 . S
C198 C203 1.429 . S
C199 C182 1.394 . S
C199 C198 1.438 . S
C199 C200 1.428 . S
C200 H192 0.949 . S
C200 C199 1.428 . S
C200 C201 1.345 . S
C201 H193 0.950 1_655 S
C201 C200 1.345 . S
C201 C202 1.424 . S
C202 H194 0.951 . S
C202 C201 1.424 . S
C202 C203 1.347 . S
C203 H195 0.951 . S
C203 C198 1.429 . S
C203 C202 1.347 . S
H204 C205 0.951 . S
C205 H204 0.951 . S
C205 C211 1.265 . S
H206 C211 0.950 . S
H207 C215 0.949 . S
H208 C216 0.950 . S
H209 C217 0.951 1_545 S
H210 C218 0.951 . S
C211 C205 1.265 . S
C211 H206 0.950 . S
C211 C212 1.478 . S
C212 C211 1.478 . S
C212 C213 1.397 . S
C212 C229 1.394 . S
C213 C212 1.397 . S
C213 C214 1.438 . S
C213 C218 1.429 . S
C214 C213 1.438 . S
C214 C215 1.428 . S
C214 C227 1.394 . S
C215 H207 0.949 . S
C215 C214 1.428 . S
C215 C216 1.345 . S
C216 H208 0.950 . S
C216 C215 1.345 . S
C216 C217 1.424 . S
C217 H209 0.951 1_565 S
C217 C216 1.424 . S
C217 C218 1.347 . S
C218 H210 0.951 . S
C218 C213 1.429 . S
C218 C217 1.347 . S
H219 C220 0.951 . S
C220 H219 0.951 . S
C220 C226 1.265 1_655 S
H221 C226 0.950 . S
H222 C230 0.949 . S
H223 C231 0.950 . S
H224 C232 0.951 . S
H225 C233 0.951 . S
C226 C220 1.265 1_455 S
C226 H221 0.950 . S
C226 C227 1.478 . S
C227 C214 1.394 . S
C227 C226 1.478 . S
C227 C228 1.397 . S
C228 C227 1.397 . S
C228 C229 1.438 . S
C228 C233 1.429 . S
C229 C212 1.394 . S
C229 C228 1.438 . S
C229 C230 1.428 . S
C230 H222 0.949 . S
C230 C229 1.428 . S
C230 C231 1.345 . S
C231 H223 0.950 . S
C231 C230 1.345 . S
C231 C232 1.424 . S
C232 H224 0.951 . S
C232 C231 1.424 . S
C232 C233 1.347 . S
C233 H225 0.951 . S
C233 C228 1.429 . S
C233 C232 1.347 . S
H234 C235 0.951 . S
C235 H234 0.951 . S
C235 C241 1.265 . S
H236 C241 0.950 . S
H237 C245 0.949 . S
H238 C246 0.950 . S
H239 C247 0.951 . S
H240 C248 0.951 . S
C241 C235 1.265 . S
C241 H236 0.950 . S
C241 C242 1.478 . S
C242 C241 1.478 . S
C242 C243 1.397 . S
C242 C259 1.394 . S
C243 C242 1.397 . S
C243 C244 1.438 . S
C243 C248 1.429 . S
C244 C243 1.438 . S
C244 C245 1.428 1_545 S
C244 C257 1.394 . S
C245 H237 0.949 . S
C245 C244 1.428 1_565 S
C245 C246 1.345 . S
C246 H238 0.950 . S
C246 C245 1.345 . S
C246 C247 1.424 . S
C247 H239 0.951 . S
C247 C246 1.424 . S
C247 C248 1.347 1_565 S
C248 H240 0.951 . S
C248 C243 1.429 . S
C248 C247 1.347 1_545 S
H249 C250 0.951 . S
C250 H249 0.951 . S
C250 C256 1.265 . S
H251 C256 0.950 . S
H252 C260 0.949 . S
H253 C261 0.950 . S
H254 C262 0.951 . S
H255 C263 0.951 . S
C256 C250 1.265 . S
C256 H251 0.950 . S
C256 C257 1.478 1_565 S
C257 C244 1.394 . S
C257 C256 1.478 1_545 S
C257 C258 1.397 . S
C258 C257 1.397 . S
C258 C259 1.438 . S
C258 C263 1.429 . S
C259 C242 1.394 . S
C259 C258 1.438 . S
C259 C260 1.428 . S
C260 H252 0.949 . S
C260 C259 1.428 . S
C260 C261 1.345 . S
C261 H253 0.950 . S
C261 C260 1.345 . S
C261 C262 1.424 . S
C262 H254 0.951 . S
C262 C261 1.424 . S
C262 C263 1.347 . S
C263 H255 0.951 . S
C263 C258 1.429 . S
C263 C262 1.347 . S
H264 C265 0.951 . S
C265 H264 0.951 . S
C265 C271 1.265 . S
H266 C271 0.950 . S
H267 C275 0.949 . S
H268 C276 0.950 . S
H269 C277 0.951 . S
H270 C278 0.951 . S
C271 C265 1.265 . S
C271 H266 0.950 . S
C271 C272 1.478 . S
C272 C271 1.478 . S
C272 C273 1.397 . S
C272 C289 1.394 1_554 S
C273 C272 1.397 . S
C273 C274 1.438 . S
C273 C278 1.429 . S
C274 C273 1.438 . S
C274 C275 1.428 . S
C274 C287 1.394 . S
C275 H267 0.949 . S
C275 C274 1.428 . S
C275 C276 1.345 . S
C276 H268 0.950 . S
C276 C275 1.345 . S
C276 C277 1.424 . S
C277 H269 0.951 . S
C277 C276 1.424 . S
C277 C278 1.347 . S
C278 H270 0.951 . S
C278 C273 1.429 . S
C278 C277 1.347 . S
H279 C280 0.951 . S
C280 H279 0.951 . S
C280 C286 1.265 . S
H281 C286 0.950 . S
H282 C290 0.949 . S
H283 C291 0.950 . S
H284 C292 0.951 . S
H285 C293 0.951 . S
C286 C280 1.265 . S
C286 H281 0.950 . S
C286 C287 1.478 . S
C287 C274 1.394 . S
C287 C286 1.478 . S
C287 C288 1.397 1_554 S
C288 C287 1.397 1_556 S
C288 C289 1.438 . S
C288 C293 1.429 . S
C289 C272 1.394 1_556 S
C289 C288 1.438 . S
C289 C290 1.428 . S
C290 H282 0.949 . S
C290 C289 1.428 . S
C290 C291 1.345 . S
C291 H283 0.950 . S
C291 C290 1.345 . S
C291 C292 1.424 . S
C292 H284 0.951 . S
C292 C291 1.424 . S
C292 C293 1.347 . S
C293 H285 0.951 . S
C293 C288 1.429 . S
C293 C292 1.347 . S
H294 C295 0.951 . S
C295 H294 0.951 . S
C295 C301 1.265 . S
H296 C301 0.950 1_455 S
H297 C305 0.949 . S
H298 C306 0.950 . S
H299 C307 0.951 . S
H300 C308 0.951 . S
C301 C295 1.265 . S
C301 H296 0.950 1_655 S
C301 C302 1.478 . S
C302 C301 1.478 . S
C302 C303 1.397 1_655 S
C302 C319 1.394 . S
C303 C302 1.397 1_455 S
C303 C304 1.438 . S
C303 C308 1.429 . S
C304 C303 1.438 . S
C304 C305 1.428 . S
C304 C317 1.394 . S
C305 H297 0.949 . S
C305 C304 1.428 . S
C305 C306 1.345 . S
C306 H298 0.950 . S
C306 C305 1.345 . S
C306 C307 1.424 . S
C307 H299 0.951 . S
C307 C306 1.424 . S
C307 C308 1.347 . S
C308 H300 0.951 . S
C308 C303 1.429 . S
C308 C307 1.347 . S
H309 C310 0.951 . S
C310 H309 0.951 . S
C310 C316 1.265 . S
H311 C316 0.950 1_655 S
H312 C320 0.949 . S
H313 C321 0.950 . S
H314 C322 0.951 . S
H315 C323 0.951 . S
C316 C310 1.265 . S
C316 H311 0.950 1_455 S
C316 C317 1.478 . S
C317 C304 1.394 . S
C317 C316 1.478 . S
C317 C318 1.397 1_455 S
C318 C317 1.397 1_655 S
C318 C319 1.438 . S
C318 C323 1.429 . S
C319 C302 1.394 . S
C319 C318 1.438 . S
C319 C320 1.428 . S
C320 H312 0.949 . S
C320 C319 1.428 . S
C320 C321 1.345 . S
C321 H313 0.950 . S
C321 C320 1.345 . S
C321 C322 1.424 . S
C322 H314 0.951 . S
C322 C321 1.424 . S
C322 C323 1.347 . S
C323 H315 0.951 . S
C323 C318 1.429 . S
C323 C322 1.347 . S
H324 C325 0.951 . S
C325 H324 0.951 . S
C325 C331 1.265 . S
H326 C331 0.950 1_565 S
H327 C335 0.949 . S
H328 C336 0.950 . S
H329 C337 0.951 . S
H330 C338 0.951 . S
C331 C325 1.265 . S
C331 H326 0.950 1_545 S
C331 C332 1.478 . S
C332 C331 1.478 . S
C332 C333 1.397 1_545 S
C332 C349 1.394 . S
C333 C332 1.397 1_565 S
C333 C334 1.438 . S
C333 C338 1.429 . S
C334 C333 1.438 . S
C334 C335 1.428 . S
C334 C347 1.394 . S
C335 H327 0.949 . S
C335 C334 1.428 . S
C335 C336 1.345 . S
C336 H328 0.950 . S
C336 C335 1.345 . S
C336 C337 1.424 . S
C337 H329 0.951 . S
C337 C336 1.424 . S
C337 C338 1.347 . S
C338 H330 0.951 . S
C338 C333 1.429 . S
C338 C337 1.347 . S
H339 C340 0.951 . S
C340 H339 0.951 . S
C340 C346 1.265 . S
H341 C346 0.950 1_545 S
H342 C350 0.949 . S
H343 C351 0.950 . S
H344 C352 0.951 . S
H345 C353 0.951 . S
C346 C340 1.265 . S
C346 H341 0.950 1_565 S
C346 C347 1.478 . S
C347 C334 1.394 . S
C347 C346 1.478 . S
C347 C348 1.397 1_565 S
C348 C347 1.397 1_545 S
C348 C349 1.438 . S
C348 C353 1.429 . S
C349 C332 1.394 . S
C349 C348 1.438 . S
C349 C350 1.428 . S
C350 H342 0.949 . S
C350 C349 1.428 . S
C350 C351 1.345 . S
C351 H343 0.950 . S
C351 C350 1.345 . S
C351 C352 1.424 . S
C352 H344 0.951 . S
C352 C351 1.424 . S
C352 C353 1.347 . S
C353 H345 0.951 . S
C353 C348 1.429 . S
C353 C352 1.347 . S
H354 C355 0.951 . S
C355 H354 0.951 . S
C355 C361 1.265 . S
H356 C361 0.950 . S
H357 C365 0.949 . S
H358 C366 0.950 . S
H359 C367 0.951 . S
H360 C368 0.951 . S
C361 C355 1.265 . S
C361 H356 0.950 . S
C361 C362 1.478 . S
C362 C361 1.478 . S
C362 C363 1.397 . S
C362 C379 1.394 . S
C363 C362 1.397 . S
C363 C364 1.438 . S
C363 C368 1.429 . S
C364 C363 1.438 . S
C364 C365 1.428 . S
C364 C377 1.394 . S
C365 H357 0.949 . S
C365 C364 1.428 . S
C365 C366 1.345 . S
C366 H358 0.950 . S
C366 C365 1.345 . S
C366 C367 1.424 . S
C367 H359 0.951 . S
C367 C366 1.424 . S
C367 C368 1.347 . S
C368 H360 0.951 . S
C368 C363 1.429 . S
C368 C367 1.347 . S
H369 C370 0.951 . S
C370 H369 0.951 . S
C370 C376 1.265 . S
H371 C376 0.950 . S
H372 C380 0.949 . S
H373 C381 0.950 . S
H374 C382 0.951 . S
H375 C383 0.951 . S
C376 C370 1.265 . S
C376 H371 0.950 . S
C376 C377 1.478 . S
C377 C364 1.394 . S
C377 C376 1.478 . S
C377 C378 1.397 . S
C378 C377 1.397 . S
C378 C379 1.438 . S
C378 C383 1.429 . S
C379 C362 1.394 . S
C379 C378 1.438 . S
C379 C380 1.428 . S
C380 H372 0.949 . S
C380 C379 1.428 . S
C380 C381 1.345 . S
C381 H373 0.950 . S
C381 C380 1.345 . S
C381 C382 1.424 . S
C382 H374 0.951 . S
C382 C381 1.424 . S
C382 C383 1.347 . S
C383 H375 0.951 . S
C383 C378 1.429 . S
C383 C382 1.347 . S
H384 C385 0.951 . S
C385 H384 0.951 . S
C385 C391 1.265 1_655 S
H386 C391 0.950 . S
H387 C395 0.949 . S
H388 C396 0.950 . S
H389 C397 0.951 . S
H390 C398 0.951 . S
C391 C385 1.265 1_455 S
C391 H386 0.950 . S
C391 C392 1.469 . S
C392 C391 1.469 . S
C392 C393 1.409 1_556 S
C392 C409 1.392 1_455 S
C393 C392 1.409 1_554 S
C393 C394 1.438 . S
C393 C398 1.429 . S
C394 C393 1.438 . S
C394 C395 1.428 . S
C394 C407 1.392 1_454 S
C395 H387 0.949 . S
C395 C394 1.428 . S
C395 C396 1.345 . S
C396 H388 0.950 . S
C396 C395 1.345 . S
C396 C397 1.424 . S
C397 H389 0.951 . S
C397 C396 1.424 . S
C397 C398 1.347 . S
C398 H390 0.951 . S
C398 C393 1.429 . S
C398 C397 1.347 . S
H399 C400 0.951 . S
C400 H399 0.951 . S
C400 C406 1.265 1_455 S
H401 C406 0.950 . S
H402 C410 0.949 . S
H403 C411 0.950 . S
H404 C412 0.951 . S
H405 C413 0.951 . S
C406 C400 1.265 1_655 S
C406 H401 0.950 . S
C406 C407 1.469 . S
C407 C394 1.392 1_656 S
C407 C406 1.469 . S
C407 C408 1.409 . S
C408 C407 1.409 . S
C408 C409 1.438 . S
C408 C413 1.429 . S
C409 C392 1.392 1_655 S
C409 C408 1.438 . S
C409 C410 1.428 . S
C410 H402 0.949 . S
C410 C409 1.428 . S
C410 C411 1.345 . S
C411 H403 0.950 . S
C411 C410 1.345 . S
C411 C412 1.424 . S
C412 H404 0.951 . S
C412 C411 1.424 . S
C412 C413 1.347 . S
C413 H405 0.951 . S
C413 C408 1.429 . S
C413 C412 1.347 . S
H414 C415 0.951 . S
C415 H414 0.951 . S
C415 C421 1.265 1_545 S
H416 C421 0.950 . S
H417 C425 0.949 . S
H418 C426 0.950 . S
H419 C427 0.951 . S
H420 C428 0.951 . S
C421 C415 1.265 1_565 S
C421 H416 0.950 . S
C421 C422 1.487 . S
C422 C421 1.487 . S
C422 C423 1.396 . S
C422 C439 1.386 1_565 S
C423 C422 1.396 . S
C423 C424 1.438 . S
C423 C428 1.429 . S
C424 C423 1.438 . S
C424 C425 1.428 . S
C424 C437 1.386 1_565 S
C425 H417 0.949 . S
C425 C424 1.428 . S
C425 C426 1.345 . S
C426 H418 0.950 . S
C426 C425 1.345 . S
C426 C427 1.424 . S
C427 H419 0.951 . S
C427 C426 1.424 . S
C427 C428 1.347 . S
C428 H420 0.951 . S
C428 C423 1.429 . S
C428 C427 1.347 . S
H429 C430 0.951 . S
C430 H429 0.951 . S
C430 C436 1.265 1_565 S
H431 C436 0.950 . S
H432 C440 0.949 . S
H433 C441 0.950 . S
H434 C442 0.951 . S
H435 C443 0.951 . S
C436 C430 1.265 1_545 S
C436 H431 0.950 . S
C436 C437 1.487 . S
C437 C424 1.386 1_545 S
C437 C436 1.487 . S
C437 C438 1.396 . S
C438 C437 1.396 . S
C438 C439 1.438 . S
C438 C443 1.429 . S
C439 C422 1.386 1_545 S
C439 C438 1.438 . S
C439 C440 1.428 . S
C440 H432 0.949 . S
C440 C439 1.428 . S
C440 C441 1.345 . S
C441 H433 0.950 . S
C441 C440 1.345 . S
C441 C442 1.424 . S
C442 H434 0.951 . S
C442 C441 1.424 . S
C442 C443 1.347 . S
C443 H435 0.951 . S
C443 C438 1.429 . S
C443 C442 1.347 . S
C85 C76 1.320 . S
C100 C8 1.327 . S
C115 C22 1.253 . S
C130 C7 1.356 . S
C145 C21 1.345 . S
C160 C37 1.234 . S
C175 C50 1.293 . S
C190 C34 1.306 . S
C205 C64 1.276 . S
C220 C49 1.364 . S
C235 C79 1.328 . S
C250 C63 1.320 . S
C265 C6 1.378 . S
C280 C48 1.375 . S
C295 C20 1.255 . S
C310 C62 1.252 . S
C325 C77 1.256 . S
C340 C35 1.251 . S
C355 C78 1.499 . S
C370 C36 1.501 . S
C385 C51 1.481 . S
C400 C9 1.483 . S
C415 C23 1.485 . S
C430 C65 1.479 . S
