# Generated by pormake.
# Topology ukn, (4)-cn, num edge types: 1
# Building blocks:
#     Node 0, Type 0, BuildingBlock: QUQFOY_clean_sbu_3, # of connection points: 4
#     Node 1, Type 0, BuildingBlock: QUQFOY_clean_sbu_3, # of connection points: 4
#     Node 2, Type 0, BuildingBlock: QUQFOY_clean_sbu_3, # of connection points: 4
#     Node 3, Type 0, BuildingBlock: QUQFOY_clean_sbu_3, # of connection points: 4
#     Node 4, Type 0, BuildingBlock: QUQFOY_clean_sbu_3, # of connection points: 4
#     Node 5, Type 0, BuildingBlock: QUQFOY_clean_sbu_3, # of connection points: 4
#     Node 6, Type 0, BuildingBlock: QUQFOY_clean_sbu_3, # of connection points: 4
#     Node 7, Type 0, BuildingBlock: QUQFOY_clean_sbu_3, # of connection points: 4
#     Node 8, Type 0, BuildingBlock: QUQFOY_clean_sbu_3, # of connection points: 4
#     Node 9, Type 0, BuildingBlock: QUQFOY_clean_sbu_3, # of connection points: 4
#     Node 10, Type 0, BuildingBlock: QUQFOY_clean_sbu_3, # of connection points: 4
#     Node 11, Type 0, BuildingBlock: QUQFOY_clean_sbu_3, # of connection points: 4
#     Node 12, Type 0, BuildingBlock: QUQFOY_clean_sbu_3, # of connection points: 4
#     Node 13, Type 0, BuildingBlock: QUQFOY_clean_sbu_3, # of connection points: 4
#     Node 14, Type 0, BuildingBlock: QUQFOY_clean_sbu_3, # of connection points: 4
#     Node 15, Type 0, BuildingBlock: QUQFOY_clean_sbu_3, # of connection points: 4
#     Node 16, Type 0, BuildingBlock: QUQFOY_clean_sbu_3, # of connection points: 4
#     Node 17, Type 0, BuildingBlock: QUQFOY_clean_sbu_3, # of connection points: 4
#     Node 18, Type 0, BuildingBlock: QUQFOY_clean_sbu_3, # of connection points: 4
#     Node 19, Type 0, BuildingBlock: QUQFOY_clean_sbu_3, # of connection points: 4
#     Node 20, Type 0, BuildingBlock: QUQFOY_clean_sbu_3, # of connection points: 4
#     Node 21, Type 0, BuildingBlock: QUQFOY_clean_sbu_3, # of connection points: 4
#     Node 22, Type 0, BuildingBlock: QUQFOY_clean_sbu_3, # of connection points: 4
#     Node 23, Type 0, BuildingBlock: QUQFOY_clean_sbu_3, # of connection points: 4
#     Node 24, Type 0, BuildingBlock: QUQFOY_clean_sbu_3, # of connection points: 4
#     Node 25, Type 0, BuildingBlock: QUQFOY_clean_sbu_3, # of connection points: 4
#     Node 26, Type 0, BuildingBlock: QUQFOY_clean_sbu_3, # of connection points: 4
#     Node 27, Type 0, BuildingBlock: QUQFOY_clean_sbu_3, # of connection points: 4
#     Node 28, Type 0, BuildingBlock: QUQFOY_clean_sbu_3, # of connection points: 4
#     Node 29, Type 0, BuildingBlock: QUQFOY_clean_sbu_3, # of connection points: 4
#     Node 30, Type 0, BuildingBlock: QUQFOY_clean_sbu_3, # of connection points: 4
#     Node 31, Type 0, BuildingBlock: QUQFOY_clean_sbu_3, # of connection points: 4
#     Node 32, Type 0, BuildingBlock: QUQFOY_clean_sbu_3, # of connection points: 4
#     Node 33, Type 0, BuildingBlock: QUQFOY_clean_sbu_3, # of connection points: 4
#     Node 34, Type 0, BuildingBlock: QUQFOY_clean_sbu_3, # of connection points: 4
#     Node 35, Type 0, BuildingBlock: QUQFOY_clean_sbu_3, # of connection points: 4
#     Edge 36, Type (0, 0), BuildingBlock: MIFKUJ_clean_linker_0, # of connection points: 2
#     Edge 37, Type (0, 0), BuildingBlock: MIFKUJ_clean_linker_0, # of connection points: 2
#     Edge 38, Type (0, 0), BuildingBlock: MIFKUJ_clean_linker_0, # of connection points: 2
#     Edge 39, Type (0, 0), BuildingBlock: MIFKUJ_clean_linker_0, # of connection points: 2
#     Edge 40, Type (0, 0), BuildingBlock: MIFKUJ_clean_linker_0, # of connection points: 2
#     Edge 41, Type (0, 0), BuildingBlock: MIFKUJ_clean_linker_0, # of connection points: 2
#     Edge 42, Type (0, 0), BuildingBlock: MIFKUJ_clean_linker_0, # of connection points: 2
#     Edge 43, Type (0, 0), BuildingBlock: MIFKUJ_clean_linker_0, # of connection points: 2
#     Edge 44, Type (0, 0), BuildingBlock: MIFKUJ_clean_linker_0, # of connection points: 2
#     Edge 45, Type (0, 0), BuildingBlock: MIFKUJ_clean_linker_0, # of connection points: 2
#     Edge 46, Type (0, 0), BuildingBlock: MIFKUJ_clean_linker_0, # of connection points: 2
#     Edge 47, Type (0, 0), BuildingBlock: MIFKUJ_clean_linker_0, # of connection points: 2
#     Edge 48, Type (0, 0), BuildingBlock: MIFKUJ_clean_linker_0, # of connection points: 2
#     Edge 49, Type (0, 0), BuildingBlock: MIFKUJ_clean_linker_0, # of connection points: 2
#     Edge 50, Type (0, 0), BuildingBlock: MIFKUJ_clean_linker_0, # of connection points: 2
#     Edge 51, Type (0, 0), BuildingBlock: MIFKUJ_clean_linker_0, # of connection points: 2
#     Edge 52, Type (0, 0), BuildingBlock: MIFKUJ_clean_linker_0, # of connection points: 2
#     Edge 53, Type (0, 0), BuildingBlock: MIFKUJ_clean_linker_0, # of connection points: 2
#     Edge 54, Type (0, 0), BuildingBlock: MIFKUJ_clean_linker_0, # of connection points: 2
#     Edge 55, Type (0, 0), BuildingBlock: MIFKUJ_clean_linker_0, # of connection points: 2
#     Edge 56, Type (0, 0), BuildingBlock: MIFKUJ_clean_linker_0, # of connection points: 2
#     Edge 57, Type (0, 0), BuildingBlock: MIFKUJ_clean_linker_0, # of connection points: 2
#     Edge 58, Type (0, 0), BuildingBlock: MIFKUJ_clean_linker_0, # of connection points: 2
#     Edge 59, Type (0, 0), BuildingBlock: MIFKUJ_clean_linker_0, # of connection points: 2
#     Edge 60, Type (0, 0), BuildingBlock: MIFKUJ_clean_linker_0, # of connection points: 2
#     Edge 61, Type (0, 0), BuildingBlock: MIFKUJ_clean_linker_0, # of connection points: 2
#     Edge 62, Type (0, 0), BuildingBlock: MIFKUJ_clean_linker_0, # of connection points: 2
#     Edge 63, Type (0, 0), BuildingBlock: MIFKUJ_clean_linker_0, # of connection points: 2
#     Edge 64, Type (0, 0), BuildingBlock: MIFKUJ_clean_linker_0, # of connection points: 2
#     Edge 65, Type (0, 0), BuildingBlock: MIFKUJ_clean_linker_0, # of connection points: 2
#     Edge 66, Type (0, 0), BuildingBlock: MIFKUJ_clean_linker_0, # of connection points: 2
#     Edge 67, Type (0, 0), BuildingBlock: MIFKUJ_clean_linker_0, # of connection points: 2
#     Edge 68, Type (0, 0), BuildingBlock: MIFKUJ_clean_linker_0, # of connection points: 2
#     Edge 69, Type (0, 0), BuildingBlock: MIFKUJ_clean_linker_0, # of connection points: 2
#     Edge 70, Type (0, 0), BuildingBlock: MIFKUJ_clean_linker_0, # of connection points: 2
#     Edge 71, Type (0, 0), BuildingBlock: MIFKUJ_clean_linker_0, # of connection points: 2
#     Edge 72, Type (0, 0), BuildingBlock: MIFKUJ_clean_linker_0, # of connection points: 2
#     Edge 73, Type (0, 0), BuildingBlock: MIFKUJ_clean_linker_0, # of connection points: 2
#     Edge 74, Type (0, 0), BuildingBlock: MIFKUJ_clean_linker_0, # of connection points: 2
#     Edge 75, Type (0, 0), BuildingBlock: MIFKUJ_clean_linker_0, # of connection points: 2
#     Edge 76, Type (0, 0), BuildingBlock: MIFKUJ_clean_linker_0, # of connection points: 2
#     Edge 77, Type (0, 0), BuildingBlock: MIFKUJ_clean_linker_0, # of connection points: 2
#     Edge 78, Type (0, 0), BuildingBlock: MIFKUJ_clean_linker_0, # of connection points: 2
#     Edge 79, Type (0, 0), BuildingBlock: MIFKUJ_clean_linker_0, # of connection points: 2
#     Edge 80, Type (0, 0), BuildingBlock: MIFKUJ_clean_linker_0, # of connection points: 2
#     Edge 81, Type (0, 0), BuildingBlock: MIFKUJ_clean_linker_0, # of connection points: 2
#     Edge 82, Type (0, 0), BuildingBlock: MIFKUJ_clean_linker_0, # of connection points: 2
#     Edge 83, Type (0, 0), BuildingBlock: MIFKUJ_clean_linker_0, # of connection points: 2
#     Edge 84, Type (0, 0), BuildingBlock: MIFKUJ_clean_linker_0, # of connection points: 2
#     Edge 85, Type (0, 0), BuildingBlock: MIFKUJ_clean_linker_0, # of connection points: 2
#     Edge 86, Type (0, 0), BuildingBlock: MIFKUJ_clean_linker_0, # of connection points: 2
#     Edge 87, Type (0, 0), BuildingBlock: MIFKUJ_clean_linker_0, # of connection points: 2
#     Edge 88, Type (0, 0), BuildingBlock: MIFKUJ_clean_linker_0, # of connection points: 2
#     Edge 89, Type (0, 0), BuildingBlock: MIFKUJ_clean_linker_0, # of connection points: 2
#     Edge 90, Type (0, 0), BuildingBlock: MIFKUJ_clean_linker_0, # of connection points: 2
#     Edge 91, Type (0, 0), BuildingBlock: MIFKUJ_clean_linker_0, # of connection points: 2
#     Edge 92, Type (0, 0), BuildingBlock: MIFKUJ_clean_linker_0, # of connection points: 2
#     Edge 93, Type (0, 0), BuildingBlock: MIFKUJ_clean_linker_0, # of connection points: 2
#     Edge 94, Type (0, 0), BuildingBlock: MIFKUJ_clean_linker_0, # of connection points: 2
#     Edge 95, Type (0, 0), BuildingBlock: MIFKUJ_clean_linker_0, # of connection points: 2
#     Edge 96, Type (0, 0), BuildingBlock: MIFKUJ_clean_linker_0, # of connection points: 2
#     Edge 97, Type (0, 0), BuildingBlock: MIFKUJ_clean_linker_0, # of connection points: 2
#     Edge 98, Type (0, 0), BuildingBlock: MIFKUJ_clean_linker_0, # of connection points: 2
#     Edge 99, Type (0, 0), BuildingBlock: MIFKUJ_clean_linker_0, # of connection points: 2
#     Edge 100, Type (0, 0), BuildingBlock: MIFKUJ_clean_linker_0, # of connection points: 2
#     Edge 101, Type (0, 0), BuildingBlock: MIFKUJ_clean_linker_0, # of connection points: 2
#     Edge 102, Type (0, 0), BuildingBlock: MIFKUJ_clean_linker_0, # of connection points: 2
#     Edge 103, Type (0, 0), BuildingBlock: MIFKUJ_clean_linker_0, # of connection points: 2
#     Edge 104, Type (0, 0), BuildingBlock: MIFKUJ_clean_linker_0, # of connection points: 2
#     Edge 105, Type (0, 0), BuildingBlock: MIFKUJ_clean_linker_0, # of connection points: 2
#     Edge 106, Type (0, 0), BuildingBlock: MIFKUJ_clean_linker_0, # of connection points: 2
#     Edge 107, Type (0, 0), BuildingBlock: MIFKUJ_clean_linker_0, # of connection points: 2
# Relax obj value: 0.073
# Max RMSD: 0.095
# Mean RMSD: 0.095
data_MOF--net-ukn--node1-QUQFOY_clean_sbu_3--edge1-MIFKUJ_clean_linker_0
_symmetry_space_group_name_H-M    P1
_symmetry_Int_Tables_number       1
_symmetry_cell_setting            triclinic
loop_
_symmetry_equiv_pos_as_xyz
'x, y, z'
_cell_length_a     139.92818
_cell_length_b     139.94282
_cell_length_c     34.775823
_cell_angle_alpha  90.034201
_cell_angle_beta   89.966314
_cell_angle_gamma 119.99271
loop_
_atom_site_label
_atom_site_type_symbol
_atom_site_fract_x
_atom_site_fract_y
_atom_site_fract_z
_atom_type_partial_charge
C0 C 0.07993 0.31338 0.14055 0.0
O1 O 0.08602 0.31959 0.11375 0.0
Cd2 Cd 0.08704 0.31346 0.05099 0.0
O3 O 0.0735 0.30309 0.1347 0.0
Cd4 Cd 0.06859 0.29047 0.07807 0.0
C5 C 0.09355 0.29326 0.07186 0.0
O6 O 0.06854 0.30278 0.02912 0.0
O7 O 0.07081 0.28962 0.00792 0.0
O8 O 0.04906 0.28196 0.09174 0.0
C9 C 0.06882 0.29732 0.00063 0.0
O10 O 0.09611 0.30241 0.0558 0.0
C11 C 0.04697 0.27208 0.08794 0.0
O12 O 0.08404 0.28732 0.08669 0.0
O13 O 0.05516 0.27068 0.08247 0.0
C14 C 0.68207 0.76424 0.13165 0.0
O15 O 0.67465 0.76275 0.10751 0.0
Cd16 Cd 0.67737 0.76847 0.04253 0.0
O17 O 0.69223 0.76911 0.1218 0.0
Cd18 Cd 0.70263 0.7771 0.06029 0.0
C19 C 0.69495 0.79633 0.05645 0.0
O20 O 0.68947 0.76255 0.01891 0.0
O21 O 0.70103 0.77738 0.98964 0.0
O22 O 0.71491 0.76987 0.07448 0.0
C23 C 0.69348 0.76738 0.98738 0.0
O24 O 0.68572 0.78854 0.04451 0.0
C25 C 0.72361 0.77836 0.0628 0.0
O26 O 0.70253 0.79441 0.06715 0.0
O27 O 0.72268 0.78659 0.05293 0.0
C28 C 0.22764 0.91851 0.13907 0.0
O29 O 0.22773 0.91194 0.11409 0.0
Cd30 Cd 0.22342 0.91114 0.04765 0.0
O31 O 0.2246 0.92545 0.13028 0.0
Cd32 Cd 0.21727 0.92934 0.07038 0.0
C33 C 0.19621 0.90353 0.05814 0.0
O34 O 0.23102 0.92966 0.02687 0.0
O35 O 0.21653 0.92808 -0.00027 0.0
O36 O 0.22589 0.94902 0.08415 0.0
C37 C 0.22614 0.92944 -0.00395 0.0
O38 O 0.20339 0.90152 0.04376 0.0
C39 C 0.21729 0.94964 0.07757 0.0
O40 O 0.19906 0.91273 0.07435 0.0
O41 O 0.20851 0.94066 0.07025 0.0
C42 C 0.30822 0.07605 0.84964 0.0
O43 O 0.31578 0.0821 0.87322 0.0
Cd44 Cd 0.31374 0.08604 0.9378 0.0
O45 O 0.29807 0.07105 0.85969 0.0
Cd46 Cd 0.28769 0.06904 0.9209 0.0
C47 C 0.29601 0.09625 0.92416 0.0
O48 O 0.30124 0.06825 0.96112 0.0
O49 O 0.28903 0.07005 0.99221 0.0
O50 O 0.27509 0.04957 0.90758 0.0
C51 C 0.29736 0.06876 0.99327 0.0
O52 O 0.30538 0.09773 0.93467 0.0
C53 C 0.26644 0.04973 0.91762 0.0
O54 O 0.28822 0.08668 0.91504 0.0
O55 O 0.26761 0.05906 0.92638 0.0
C56 C 0.91406 0.22917 0.86358 0.0
O57 O 0.90731 0.22881 0.88876 0.0
Cd58 Cd 0.90408 0.22078 0.95057 0.0
O59 O 0.92022 0.22502 0.87012 0.0
Cd60 Cd 0.92353 0.2154 0.92504 0.0
C61 C 0.89718 0.19439 0.92172 0.0
O62 O 0.92226 0.22719 0.97185 0.0
O63 O 0.92309 0.21356 -0.00365 0.0
O64 O 0.94305 0.22568 0.91046 0.0
C65 C 0.92283 0.22238 0.00165 0.0
O66 O 0.89462 0.20115 0.9364 0.0
C67 C 0.94477 0.21773 0.91667 0.0
O68 O 0.90715 0.19743 0.91301 0.0
O69 O 0.93635 0.20836 0.9231 0.0
C70 C 0.77111 0.68585 0.86258 0.0
O71 O 0.7712 0.67944 0.88823 0.0
Cd72 Cd 0.77457 0.68308 0.95487 0.0
O73 O 0.77324 0.69561 0.87115 0.0
Cd74 Cd 0.77824 0.70673 0.93189 0.0
C75 C 0.801 0.70474 0.94926 0.0
O76 O 0.76429 0.69186 0.96974 0.0
O77 O 0.77589 0.70573 0.00299 0.0
O78 O 0.7682 0.71608 0.91261 0.0
C79 C 0.76706 0.69648 0.00218 0.0
O80 O 0.79443 0.69503 0.96137 0.0
C81 C 0.77593 0.72569 0.92115 0.0
O82 O 0.79732 0.71055 0.93413 0.0
O83 O 0.78497 0.72654 0.93209 0.0
C84 C 0.91325 0.68589 0.85897 0.0
O85 O 0.90729 0.67967 0.88601 0.0
Cd86 Cd 0.9072 0.68475 0.95086 0.0
O87 O 0.92004 0.69612 0.86487 0.0
Cd88 Cd 0.92586 0.70868 0.92211 0.0
C89 C 0.90054 0.70516 0.9388 0.0
O90 O 0.92634 0.69525 0.96364 0.0
O91 O 0.92775 0.70928 0.99348 0.0
O92 O 0.94494 0.71815 0.9004 0.0
C93 C 0.92805 0.70039 -0.00506 0.0
O94 O 0.89814 0.69578 0.95251 0.0
C95 C 0.94675 0.72777 0.90841 0.0
O96 O 0.90986 0.71131 0.92299 0.0
O97 O 0.93851 0.72856 0.91931 0.0
C98 C 0.30694 0.22905 0.84819 0.0
O99 O 0.31472 0.23119 0.87155 0.0
Cd100 Cd 0.31276 0.22576 0.93672 0.0
O101 O 0.29688 0.22391 0.85921 0.0
Cd102 Cd 0.28717 0.21681 0.92236 0.0
C103 C 0.295 0.19771 0.92651 0.0
O104 O 0.30085 0.23168 0.96158 0.0
O105 O 0.28924 0.21735 0.99304 0.0
O106 O 0.27512 0.22426 0.90817 0.0
C107 C 0.29712 0.22723 0.99384 0.0
O108 O 0.30442 0.20571 0.93593 0.0
C109 C 0.26639 0.21598 0.92082 0.0
O110 O 0.28714 0.19939 0.91752 0.0
O111 O 0.26717 0.2077 0.93122 0.0
C112 C 0.76295 0.07678 0.84633 0.0
O113 O 0.76236 0.0829 0.87204 0.0
Cd114 Cd 0.76957 0.08545 0.93497 0.0
O115 O 0.76756 0.07105 0.85343 0.0
Cd116 Cd 0.77652 0.06799 0.91117 0.0
C117 C 0.7967 0.09448 0.91138 0.0
O118 O 0.7632 0.06717 0.95729 0.0
O119 O 0.77842 0.06989 0.98191 0.0
O120 O 0.7685 0.04845 0.89586 0.0
C121 C 0.76858 0.06772 0.98716 0.0
O122 O 0.78956 0.09652 0.92598 0.0
C123 C 0.7771 0.048 0.90429 0.0
O124 O 0.79405 0.08474 0.90102 0.0
O125 O 0.78566 0.05703 0.91291 0.0
C126 C 0.68695 0.91921 0.14287 0.0
O127 O 0.67902 0.9139 0.11965 0.0
Cd128 Cd 0.68063 0.911 0.0535 0.0
O129 O 0.69694 0.924 0.13126 0.0
Cd130 Cd 0.70641 0.9268 0.06777 0.0
C131 C 0.69754 0.89968 0.0606 0.0
O132 O 0.69297 0.92895 0.03029 0.0
O133 O 0.7042 0.92605 -0.00277 0.0
O134 O 0.71941 0.94578 0.08633 0.0
C135 C 0.69651 0.92833 -0.00248 0.0
O136 O 0.68828 0.89866 0.05119 0.0
C137 C 0.72775 0.94595 0.07116 0.0
O138 O 0.70555 0.90901 0.07073 0.0
O139 O 0.7263 0.93696 0.05696 0.0
C140 C 0.08547 0.77386 0.13728 0.0
O141 O 0.09235 0.77444 0.11218 0.0
Cd142 Cd 0.09247 0.77755 0.0449 0.0
O143 O 0.07753 0.77546 0.12814 0.0
Cd144 Cd 0.07128 0.78017 0.06727 0.0
C145 C 0.09551 0.80339 0.04811 0.0
O146 O 0.07356 0.76689 0.03052 0.0
O147 O 0.06925 0.77694 -0.00358 0.0
O148 O 0.05189 0.76943 0.08515 0.0
C149 C 0.0711 0.76896 -0.00206 0.0
O150 O 0.09903 0.79708 0.0365 0.0
C151 C 0.04966 0.77693 0.07662 0.0
O152 O 0.0861 0.7995 0.06409 0.0
O153 O 0.05771 0.78623 0.06694 0.0
C154 C 0.22354 0.31046 0.13737 0.0
O155 O 0.22306 0.31714 0.11381 0.0
Cd156 Cd 0.21827 0.31445 0.04761 0.0
O157 O 0.22105 0.30072 0.12693 0.0
Cd158 Cd 0.2148 0.28985 0.06567 0.0
C159 C 0.19198 0.29241 0.05662 0.0
O160 O 0.22771 0.30528 0.02796 0.0
O161 O 0.21686 0.29114 0.99419 0.0
O162 O 0.22485 0.28019 0.08053 0.0
C163 C 0.22496 0.3009 -0.00481 0.0
O164 O 0.19837 0.3023 0.04571 0.0
C165 C 0.21692 0.27067 0.07195 0.0
O166 O 0.19582 0.28636 0.06813 0.0
O167 O 0.20783 0.27004 0.06303 0.0
C168 C 0.74431 0.64194 0.48137 0.0
O169 O 0.75008 0.64908 0.45619 0.0
Cd170 Cd 0.75168 0.64559 0.39049 0.0
O171 O 0.7383 0.63177 0.47243 0.0
Cd172 Cd 0.73365 0.62095 0.41115 0.0
C173 C 0.7596 0.62601 0.39962 0.0
O174 O 0.73309 0.63472 0.37046 0.0
O175 O 0.73388 0.62179 0.34012 0.0
O176 O 0.71421 0.61024 0.42832 0.0
C177 C 0.73271 0.63019 0.33866 0.0
O178 O 0.76183 0.63556 0.38827 0.0
C179 C 0.71306 0.601 0.41822 0.0
O180 O 0.75006 0.61918 0.4124 0.0
O181 O 0.72174 0.60094 0.40801 0.0
C182 C 0.35078 0.10102 0.46905 0.0
O183 O 0.34423 0.10075 0.44326 0.0
Cd184 Cd 0.34787 0.10638 0.37837 0.0
O185 O 0.36104 0.10489 0.46189 0.0
Cd186 Cd 0.37326 0.11277 0.40367 0.0
C187 C 0.36777 0.13369 0.39293 0.0
O188 O 0.35949 0.09936 0.36219 0.0
O189 O 0.37356 0.11176 0.33196 0.0
O190 O 0.38392 0.10402 0.42183 0.0
C191 C 0.36429 0.10298 0.33046 0.0
O192 O 0.35828 0.12643 0.3808 0.0
C193 C 0.39325 0.11234 0.41402 0.0
O194 O 0.37464 0.13095 0.40526 0.0
O195 O 0.39331 0.12112 0.40442 0.0
C196 C 0.8936 0.25153 0.48492 0.0
O197 O 0.89503 0.24493 0.46387 0.0
Cd198 Cd 0.89319 0.24246 0.39627 0.0
O199 O 0.89029 0.25783 0.47113 0.0
Cd200 Cd 0.88439 0.26052 0.40617 0.0
C201 C 0.86531 0.23321 0.39476 0.0
O202 O 0.89977 0.26065 0.37473 0.0
O203 O 0.88825 0.26152 0.33653 0.0
O204 O 0.8909 0.27974 0.42226 0.0
C205 C 0.89713 0.26132 0.34058 0.0
O206 O 0.87335 0.23157 0.38861 0.0
C207 C 0.88284 0.28003 0.4067 0.0
O208 O 0.86698 0.24275 0.40397 0.0
O209 O 0.87508 0.271 0.3936 0.0
C210 C 0.97642 0.41673 0.18502 0.0
O211 O 0.98338 0.42375 0.20833 0.0
Cd212 Cd 0.98104 0.42595 0.27443 0.0
O213 O 0.96662 0.40977 0.19597 0.0
Cd214 Cd 0.95605 0.40561 0.25816 0.0
C215 C 0.95982 0.43151 0.2651 0.0
O216 O 0.97154 0.4072 0.2933 0.0
O217 O 0.95796 0.40444 0.32922 0.0
O218 O 0.94511 0.38629 0.23802 0.0
C219 C 0.96748 0.40554 0.32661 0.0
O220 O 0.96978 0.43472 0.27433 0.0
C221 C 0.93616 0.3849 0.25246 0.0
O222 O 0.95323 0.42149 0.25623 0.0
O223 O 0.93638 0.3933 0.26718 0.0
C224 C 0.58036 0.56268 0.17758 0.0
O225 O 0.57282 0.56211 0.19942 0.0
Cd226 Cd 0.5677 0.55427 0.26137 0.0
O227 O 0.58658 0.55888 0.18807 0.0
Cd228 Cd 0.58915 0.55042 0.24812 0.0
C229 C 0.56353 0.52805 0.24246 0.0
O230 O 0.58529 0.5618 0.28882 0.0
O231 O 0.58758 0.54983 0.31981 0.0
O232 O 0.60899 0.5617 0.24139 0.0
C233 C 0.58573 0.55781 0.32079 0.0
O234 O 0.56 0.53456 0.25173 0.0
C235 C 0.61102 0.55393 0.24721 0.0
O236 O 0.5738 0.53164 0.23762 0.0
O237 O 0.60276 0.54428 0.25074 0.0
C238 C 0.43105 0.01981 0.18927 0.0
O239 O 0.42928 0.01185 0.21126 0.0
Cd240 Cd 0.43482 0.0126 0.27586 0.0
O241 O 0.43607 0.02979 0.20122 0.0
Cd242 Cd 0.44332 0.0392 0.265 0.0
C243 C 0.46277 0.03141 0.2657 0.0
O244 O 0.4288 0.02436 0.30031 0.0
O245 O 0.4413 0.03673 0.33617 0.0
O246 O 0.43579 0.05124 0.2519 0.0
C247 C 0.43216 0.02782 0.33382 0.0
O248 O 0.45495 0.02166 0.27268 0.0
C249 C 0.44414 0.05997 0.26419 0.0
O250 O 0.46082 0.03929 0.2604 0.0
O251 O 0.45244 0.05917 0.27428 0.0
C252 C 0.58434 0.02154 0.18178 0.0
O253 O 0.57886 0.01422 0.20688 0.0
Cd254 Cd 0.57633 0.01667 0.27245 0.0
O255 O 0.58964 0.03179 0.19056 0.0
Cd256 Cd 0.59332 0.04285 0.25146 0.0
C257 C 0.56612 0.03454 0.26116 0.0
O258 O 0.59473 0.02929 0.28927 0.0
O259 O 0.59479 0.04215 0.32269 0.0
O260 O 0.61225 0.05504 0.23057 0.0
C261 C 0.59553 0.03349 0.32197 0.0
O262 O 0.56475 0.02516 0.27091 0.0
C263 C 0.61274 0.06382 0.24296 0.0
O264 O 0.5756 0.04237 0.25125 0.0
O265 O 0.60389 0.06293 0.25633 0.0
C266 C 0.97849 0.56354 0.18735 0.0
O267 O 0.98491 0.56361 0.21327 0.0
Cd268 Cd 0.98025 0.5571 0.27691 0.0
O269 O 0.96824 0.55985 0.19417 0.0
Cd270 Cd 0.95563 0.55241 0.25139 0.0
C271 C 0.95942 0.53041 0.25718 0.0
O272 O 0.96954 0.56519 0.29354 0.0
O273 O 0.95517 0.55304 0.32328 0.0
O274 O 0.94681 0.56288 0.23308 0.0
C275 C 0.96456 0.56169 0.32506 0.0
O276 O 0.9691 0.53714 0.26923 0.0
C277 C 0.93702 0.5551 0.23883 0.0
O278 O 0.95281 0.53375 0.24746 0.0
O279 O 0.93582 0.54576 0.24761 0.0
C280 C 0.43375 0.41314 0.17993 0.0
O281 O 0.4336 0.41988 0.20409 0.0
Cd282 Cd 0.43827 0.42205 0.26996 0.0
O283 O 0.43692 0.40635 0.18975 0.0
Cd284 Cd 0.44359 0.40242 0.25187 0.0
C285 C 0.46527 0.42843 0.26063 0.0
O286 O 0.42962 0.40338 0.28908 0.0
O287 O 0.44166 0.40215 0.32327 0.0
O288 O 0.43532 0.38266 0.23831 0.0
C289 C 0.43273 0.40236 0.32202 0.0
O290 O 0.45834 0.43129 0.27112 0.0
C291 C 0.44367 0.38212 0.24975 0.0
O292 O 0.46205 0.4186 0.24981 0.0
O293 O 0.45218 0.39115 0.25871 0.0
C294 C 0.34985 0.2472 0.46668 0.0
O295 O 0.34348 0.24143 0.43964 0.0
Cd296 Cd 0.3482 0.24173 0.37421 0.0
O297 O 0.36004 0.25403 0.46019 0.0
Cd298 Cd 0.37219 0.2598 0.40168 0.0
C299 C 0.36799 0.23424 0.38469 0.0
O300 O 0.35892 0.26084 0.36028 0.0
O301 O 0.37246 0.26112 0.33044 0.0
O302 O 0.38227 0.27904 0.42204 0.0
C303 C 0.36394 0.2621 0.32891 0.0
O304 O 0.35862 0.23208 0.37164 0.0
C305 C 0.39176 0.2804 0.41464 0.0
O306 O 0.37444 0.24356 0.39998 0.0
O307 O 0.39217 0.27191 0.40439 0.0
C308 C 0.74264 0.09861 0.46486 0.0
O309 O 0.74833 0.09676 0.44074 0.0
Cd310 Cd 0.75219 0.10329 0.37687 0.0
O311 O 0.73804 0.1042 0.45544 0.0
Cd312 Cd 0.73612 0.11265 0.39406 0.0
C313 C 0.76316 0.13132 0.39134 0.0
O314 O 0.73442 0.098 0.35228 0.0
O315 O 0.73794 0.11289 0.32318 0.0
O316 O 0.7169 0.10603 0.41139 0.0
C317 C 0.73552 0.1029 0.32075 0.0
O318 O 0.76438 0.12329 0.38053 0.0
C319 C 0.71664 0.11433 0.39801 0.0
O320 O 0.75369 0.12975 0.40075 0.0
O321 O 0.72565 0.12219 0.38523 0.0
C322 C 0.89249 0.64375 0.47755 0.0
O323 O 0.89287 0.65111 0.4552 0.0
Cd324 Cd 0.88737 0.64916 0.39014 0.0
O325 O 0.88892 0.63388 0.4658 0.0
Cd326 Cd 0.88223 0.62386 0.40301 0.0
C327 C 0.86043 0.62813 0.40003 0.0
O328 O 0.89572 0.63925 0.36639 0.0
O329 O 0.88398 0.62574 0.33192 0.0
O330 O 0.89174 0.61363 0.41545 0.0
C331 C 0.8926 0.63515 0.33335 0.0
O332 O 0.86731 0.63821 0.39292 0.0
C333 C 0.88374 0.60435 0.40519 0.0
O334 O 0.86364 0.6212 0.40594 0.0
O335 O 0.87475 0.60402 0.39687 0.0
C336 C 0.41566 0.97577 0.81158 0.0
O337 O 0.42255 0.98185 0.78618 0.0
Cd338 Cd 0.42303 0.9771 0.72093 0.0
O339 O 0.40823 0.96588 0.80372 0.0
Cd340 Cd 0.40301 0.95385 0.74537 0.0
C341 C 0.42769 0.95551 0.73385 0.0
O342 O 0.4042 0.96804 0.70281 0.0
O343 O 0.40242 0.95364 0.67415 0.0
O344 O 0.38356 0.94523 0.76188 0.0
C345 C 0.40257 0.96274 0.67182 0.0
O346 O 0.43082 0.96498 0.71943 0.0
C347 C 0.38135 0.93547 0.75416 0.0
O348 O 0.41819 0.94993 0.74913 0.0
O349 O 0.38946 0.93415 0.74597 0.0
C350 C 0.01919 0.42974 0.80468 0.0
O351 O 0.01203 0.42767 0.77873 0.0
Cd352 Cd 0.01537 0.43352 0.71379 0.0
O353 O 0.02951 0.43517 0.79709 0.0
Cd354 Cd 0.04106 0.44319 0.73773 0.0
C355 C 0.03226 0.46159 0.72855 0.0
O356 O 0.02857 0.42856 0.69559 0.0
O357 O 0.04133 0.44265 0.66645 0.0
O358 O 0.05344 0.43662 0.75781 0.0
C359 C 0.03318 0.43295 0.66417 0.0
O360 O 0.0232 0.45353 0.71652 0.0
C361 C 0.06222 0.44529 0.74773 0.0
O362 O 0.04003 0.46007 0.74017 0.0
O363 O 0.0612 0.45334 0.73617 0.0
C364 C 0.56196 0.5865 0.79794 0.0
O365 O 0.56338 0.58087 0.77227 0.0
Cd366 Cd 0.55773 0.57863 0.70705 0.0
O367 O 0.55696 0.59182 0.79027 0.0
Cd368 Cd 0.5484 0.59509 0.73226 0.0
C369 C 0.52976 0.56798 0.72181 0.0
O370 O 0.56279 0.59685 0.69011 0.0
O371 O 0.54885 0.59583 0.66092 0.0
O372 O 0.55522 0.61397 0.75413 0.0
C373 C 0.55843 0.59704 0.65861 0.0
O374 O 0.53768 0.56697 0.70835 0.0
C375 C 0.54681 0.61443 0.74302 0.0
O376 O 0.53142 0.57713 0.73558 0.0
O377 O 0.53878 0.60559 0.72989 0.0
C378 C 0.64092 0.74233 0.51602 0.0
O379 O 0.64768 0.74739 0.54306 0.0
Cd380 Cd 0.64346 0.74892 0.60798 0.0
O381 O 0.63052 0.73722 0.52216 0.0
Cd382 Cd 0.61862 0.73394 0.58027 0.0
C383 C 0.62736 0.76083 0.593 0.0
O384 O 0.62999 0.7307 0.625 0.0
O385 O 0.61832 0.73438 0.65106 0.0
O386 O 0.60578 0.71498 0.56131 0.0
C387 C 0.62538 0.73133 0.65536 0.0
O388 O 0.63589 0.76134 0.60813 0.0
C389 C 0.59717 0.71524 0.5713 0.0
O390 O 0.62003 0.75201 0.57695 0.0
O391 O 0.59851 0.72452 0.58169 0.0
C392 C 0.24622 0.89425 0.51898 0.0
O393 O 0.23955 0.89441 0.54333 0.0
Cd394 Cd 0.23784 0.88862 0.60825 0.0
O395 O 0.25275 0.89073 0.52816 0.0
Cd396 Cd 0.25624 0.88292 0.5877 0.0
C397 C 0.23048 0.86151 0.59118 0.0
O398 O 0.25596 0.89591 0.63312 0.0
O399 O 0.25323 0.88063 0.65767 0.0
O400 O 0.27587 0.89378 0.57642 0.0
C401 C 0.25526 0.89043 0.6629 0.0
O402 O 0.22824 0.86861 0.6048 0.0
C403 C 0.27801 0.88613 0.58295 0.0
O404 O 0.24014 0.86443 0.5788 0.0
O405 O 0.26982 0.87656 0.58885 0.0
C406 C 0.10147 0.35432 0.52465 0.0
O407 O 0.09947 0.34672 0.54871 0.0
Cd408 Cd 0.10465 0.34916 0.61444 0.0
O409 O 0.1066 0.36443 0.53494 0.0
Cd410 Cd 0.11441 0.37469 0.5966 0.0
C411 C 0.13278 0.36602 0.60322 0.0
O412 O 0.09938 0.3618 0.63742 0.0
O413 O 0.1143 0.37297 0.66705 0.0
O414 O 0.10796 0.38731 0.57782 0.0
C415 C 0.10423 0.3656 0.66909 0.0
O416 O 0.12467 0.35698 0.61511 0.0
C417 C 0.11614 0.39585 0.59192 0.0
O418 O 0.13134 0.37379 0.59107 0.0
O419 O 0.12389 0.3947 0.60573 0.0
C420 C 0.25286 0.35319 0.51939 0.0
O421 O 0.24798 0.3462 0.54602 0.0
Cd422 Cd 0.24675 0.34964 0.61208 0.0
O423 O 0.25819 0.36354 0.52655 0.0
Cd424 Cd 0.26266 0.37525 0.58583 0.0
C425 C 0.23568 0.36671 0.60158 0.0
O426 O 0.2651 0.36286 0.62736 0.0
O427 O 0.26373 0.37555 0.65688 0.0
O428 O 0.28171 0.38737 0.56615 0.0
C429 C 0.26535 0.36743 0.65892 0.0
O430 O 0.23486 0.35778 0.6141 0.0
C431 C 0.28186 0.39627 0.57463 0.0
O432 O 0.24468 0.37424 0.587 0.0
O433 O 0.27276 0.39542 0.58498 0.0
C434 C 0.64657 0.8946 0.52785 0.0
O435 O 0.65283 0.89548 0.55567 0.0
Cd436 Cd 0.64735 0.89109 0.62084 0.0
O437 O 0.63629 0.89098 0.53331 0.0
Cd438 Cd 0.62358 0.88427 0.58991 0.0
C439 C 0.62868 0.86362 0.60888 0.0
O440 O 0.63599 0.89896 0.63201 0.0
O441 O 0.62236 0.8855 0.66077 0.0
O442 O 0.61347 0.8928 0.5642 0.0
C443 C 0.63058 0.89518 0.66272 0.0
O444 O 0.6376 0.87103 0.62418 0.0
C445 C 0.60399 0.88486 0.57299 0.0
O446 O 0.62229 0.86618 0.59133 0.0
O447 O 0.6036 0.87621 0.58617 0.0
C448 C 0.09891 0.74339 0.5179 0.0
O449 O 0.09728 0.74886 0.54363 0.0
Cd450 Cd 0.10265 0.75048 0.60889 0.0
O451 O 0.10337 0.73761 0.52615 0.0
Cd452 Cd 0.10992 0.73278 0.58632 0.0
C453 C 0.13031 0.75912 0.59551 0.0
O454 O 0.09568 0.73194 0.62752 0.0
O455 O 0.10944 0.73284 0.6578 0.0
O456 O 0.10113 0.71342 0.56839 0.0
C457 C 0.09985 0.73165 0.65934 0.0
O458 O 0.12282 0.76102 0.60757 0.0
C459 C 0.10935 0.71229 0.57657 0.0
O460 O 0.1279 0.74958 0.58348 0.0
O461 O 0.11817 0.72095 0.58646 0.0
C462 C 0.01991 0.58299 0.80519 0.0
O463 O 0.01228 0.57707 0.78161 0.0
Cd464 Cd 0.01399 0.57391 0.71577 0.0
O465 O 0.03002 0.58822 0.79465 0.0
Cd466 Cd 0.04043 0.59092 0.73324 0.0
C467 C 0.03176 0.56359 0.72567 0.0
O468 O 0.02662 0.59205 0.6963 0.0
O469 O 0.03927 0.59194 0.66201 0.0
O470 O 0.05276 0.61 0.75177 0.0
C471 C 0.03059 0.59262 0.66331 0.0
O472 O 0.02239 0.56227 0.71612 0.0
C473 C 0.06147 0.61033 0.73946 0.0
O474 O 0.03965 0.57306 0.73533 0.0
O475 O 0.0605 0.60134 0.72719 0.0
C476 C 0.41039 0.43349 0.79868 0.0
O477 O 0.41605 0.43222 0.77271 0.0
Cd478 Cd 0.41791 0.43732 0.70715 0.0
O479 O 0.40468 0.4381 0.79124 0.0
Cd480 Cd 0.40097 0.44584 0.73134 0.0
C481 C 0.42784 0.46516 0.71887 0.0
O482 O 0.39939 0.43115 0.69108 0.0
O483 O 0.40016 0.44467 0.65979 0.0
O484 O 0.38169 0.43885 0.7488 0.0
C485 C 0.39889 0.43505 0.65902 0.0
O486 O 0.42917 0.45739 0.70584 0.0
C487 C 0.38156 0.44752 0.73868 0.0
O488 O 0.41863 0.46319 0.73298 0.0
O489 O 0.39073 0.45572 0.72868 0.0
C490 C 0.55935 0.97782 0.80083 0.0
O491 O 0.55855 0.98411 0.77628 0.0
Cd492 Cd 0.55349 0.98034 0.71063 0.0
O493 O 0.55704 0.96804 0.79185 0.0
Cd494 Cd 0.55075 0.95667 0.73169 0.0
C495 C 0.52748 0.95826 0.72244 0.0
O496 O 0.56365 0.97173 0.69245 0.0
O497 O 0.55222 0.95757 0.66001 0.0
O498 O 0.56105 0.94733 0.74751 0.0
C499 C 0.56068 0.96711 0.66011 0.0
O500 O 0.53358 0.96796 0.70935 0.0
C501 C 0.55333 0.9378 0.73792 0.0
O502 O 0.53167 0.95267 0.73551 0.0
O503 O 0.54419 0.937 0.72865 0.0
H504 H 0.11204 0.30096 0.02808 0.0
H505 H 0.12552 0.29481 0.02775 0.0
H506 H 0.10711 0.27078 0.1155 0.0
H507 H 0.09338 0.27686 0.11584 0.0
H508 H 0.13002 0.28379 0.13062 0.0
H509 H 0.10687 0.26074 0.0323 0.0
H510 H 0.09504 0.25548 0.97473 0.0
H511 H 0.1228 0.27793 0.90621 0.0
H512 H 0.13477 0.28347 0.96346 0.0
H513 H 0.17611 0.27518 0.0987 0.0
H514 H 0.15645 0.26951 0.10331 0.0
H515 H 0.1612 0.2943 0.01984 0.0
H516 H 0.18072 0.30005 0.01535 0.0
H517 H 0.14157 0.274 0.00881 0.0
H518 H 0.16248 0.30024 0.11204 0.0
H519 H 0.17427 0.30591 0.16985 0.0
H520 H 0.15017 0.27687 0.22917 0.0
H521 H 0.1383 0.27097 0.17145 0.0
C522 C 0.1108 0.29435 0.04732 0.0
C523 C 0.10165 0.28941 0.07207 0.0
C524 C 0.11848 0.29079 0.04686 0.0
C525 C 0.11722 0.28225 0.07124 0.0
C526 C 0.10815 0.27732 0.09627 0.0
C527 C 0.10034 0.2808 0.09641 0.0
C528 C 0.12583 0.27907 0.07135 0.0
C529 C 0.13236 0.28129 0.10435 0.0
C530 C 0.12886 0.27584 0.03703 0.0
C531 C 0.12172 0.27255 0.0023 0.0
C532 C 0.11045 0.26462 0.00502 0.0
C533 C 0.10371 0.26157 0.97242 0.0
C534 C 0.10816 0.26637 0.93684 0.0
C535 C 0.11936 0.27421 0.93379 0.0
C536 C 0.12614 0.2773 0.96631 0.0
C537 C 0.17291 0.2793 0.08096 0.0
C538 C 0.17996 0.28813 0.05693 0.0
C539 C 0.1617 0.27606 0.08365 0.0
C540 C 0.15742 0.28152 0.06198 0.0
C541 C 0.16435 0.28996 0.03668 0.0
C542 C 0.17552 0.29329 0.03437 0.0
C543 C 0.146 0.27925 0.06747 0.0
C544 C 0.13897 0.27603 0.03548 0.0
C545 C 0.14248 0.28152 0.10273 0.0
C546 C 0.14959 0.28509 0.13734 0.0
C547 C 0.15975 0.29502 0.13732 0.0
C548 C 0.16644 0.29829 0.17007 0.0
C549 C 0.16299 0.29173 0.20312 0.0
C550 C 0.15284 0.28192 0.20352 0.0
C551 C 0.14614 0.27861 0.17081 0.0
H552 H 0.16818 0.29428 0.22845 0.0
H553 H 0.10294 0.264 0.91163 0.0
H554 H 0.68118 0.80345 0.03072 0.0
H555 H 0.6842 0.82216 0.03166 0.0
H556 H 0.7159 0.83382 0.08536 0.0
H557 H 0.71293 0.815 0.08477 0.0
H558 H 0.70372 0.84233 0.11927 0.0
H559 H 0.71547 0.83929 0.99359 0.0
H560 H 0.71427 0.83068 0.93057 0.0
H561 H 0.68518 0.8323 0.9034 0.0
H562 H 0.68611 0.84078 0.96651 0.0
H563 H 0.71506 0.89787 0.08689 0.0
H564 H 0.71697 0.88139 0.08637 0.0
H565 H 0.68505 0.86288 0.03251 0.0
H566 H 0.68307 0.87922 0.03275 0.0
H567 H 0.70068 0.85937 -0.00183 0.0
H568 H 0.68781 0.86034 0.12667 0.0
H569 H 0.68886 0.86887 0.18977 0.0
H570 H 0.72018 0.87122 0.21135 0.0
H571 H 0.71939 0.86285 0.14808 0.0
C572 C 0.68881 0.80996 0.04277 0.0
C573 C 0.69683 0.80772 0.05754 0.0
C574 C 0.69053 0.82067 0.04314 0.0
C575 C 0.70033 0.82938 0.05813 0.0
C576 C 0.70831 0.8272 0.07352 0.0
C577 C 0.7066 0.81645 0.07305 0.0
C578 C 0.70208 0.84073 0.05765 0.0
C579 C 0.7033 0.84618 0.09274 0.0
C580 C 0.7014 0.84566 0.02305 0.0
C581 C 0.70083 0.84061 0.98493 0.0
C582 C 0.70877 0.83774 0.9743 0.0
C583 C 0.70814 0.8329 0.93854 0.0
C584 C 0.69964 0.83093 0.91302 0.0
C585 C 0.69176 0.83383 0.9232 0.0
C586 C 0.69234 0.83867 0.95895 0.0
C587 C 0.70846 0.8903 0.07485 0.0
C588 C 0.6989 0.88986 0.05996 0.0
C589 C 0.70956 0.8809 0.07469 0.0
C590 C 0.70112 0.87093 0.05957 0.0
C591 C 0.69166 0.87051 0.04424 0.0
C592 C 0.69053 0.87986 0.04457 0.0
C593 C 0.702 0.86082 0.05982 0.0
C594 C 0.7013 0.85561 0.02463 0.0
C595 C 0.70316 0.85614 0.09432 0.0
C596 C 0.7036 0.86109 0.13245 0.0
C597 C 0.69496 0.86276 0.14473 0.0
C598 C 0.69551 0.86755 0.18055 0.0
C599 C 0.7046 0.87062 0.2045 0.0
C600 C 0.71315 0.86886 0.19273 0.0
C601 C 0.71266 0.86409 0.1569 0.0
H602 H 0.70501 0.87432 0.23222 0.0
H603 H 0.69917 0.82718 0.88534 0.0
H604 H 0.11023 0.81435 0.99146 0.0
H605 H 0.12521 0.83348 0.99286 0.0
H606 H 0.11299 0.83854 0.10039 0.0
H607 H 0.09766 0.81939 0.09843 0.0
H608 H 0.12367 0.858 0.05257 0.0
H609 H 0.13076 0.83052 0.10687 0.0
H610 H 0.13046 0.81275 0.10684 0.0
H611 H 0.15101 0.8226 0.00623 0.0
H612 H 0.15129 0.84037 0.00532 0.0
H613 H 0.1792 0.90069 0.10506 0.0
H614 H 0.16012 0.88525 0.10399 0.0
H615 H 0.16772 0.87193 0.00414 0.0
H616 H 0.18674 0.88701 0.00591 0.0
H617 H 0.15855 0.85688 0.05702 0.0
H618 H 0.15108 0.88435 0.00174 0.0
H619 H 0.15104 0.90196 0.00144 0.0
H620 H 0.13147 0.89243 0.10439 0.0
H621 H 0.13151 0.87481 0.10556 0.0
C622 C 0.11056 0.81963 0.01485 0.0
C623 C 0.10294 0.81539 0.04519 0.0
C624 C 0.11908 0.83055 0.01557 0.0
C625 C 0.12032 0.83731 0.04716 0.0
C626 C 0.11217 0.83342 0.07584 0.0
C627 C 0.10346 0.82249 0.07475 0.0
C628 C 0.13096 0.84761 0.0528 0.0
C629 C 0.13131 0.8578 0.05401 0.0
C630 C 0.14089 0.8473 0.0548 0.0
C631 C 0.14099 0.83674 0.05591 0.0
C632 C 0.13518 0.82887 0.08465 0.0
C633 C 0.13501 0.8188 0.08479 0.0
C634 C 0.1407 0.81654 0.05652 0.0
C635 C 0.1466 0.82436 0.02811 0.0
C636 C 0.14678 0.83444 0.02779 0.0
C637 C 0.17673 0.89451 0.08269 0.0
C638 C 0.18447 0.89495 0.05587 0.0
C639 C 0.16583 0.88574 0.08198 0.0
C640 C 0.16249 0.87743 0.05396 0.0
C641 C 0.17013 0.87819 0.02621 0.0
C642 C 0.181 0.8868 0.02729 0.0
C643 C 0.15141 0.86742 0.05494 0.0
C644 C 0.15095 0.85718 0.05563 0.0
C645 C 0.14146 0.86776 0.05482 0.0
C646 C 0.1414 0.87832 0.05396 0.0
C647 C 0.14684 0.88605 0.02448 0.0
C648 C 0.1468 0.89602 0.02412 0.0
C649 C 0.14128 0.89832 0.05294 0.0
C650 C 0.13576 0.89064 0.08212 0.0
C651 C 0.13577 0.88066 0.08262 0.0
H652 H 0.14127 0.90605 0.05262 0.0
H653 H 0.14055 0.80873 0.05665 0.0
H654 H 0.31084 0.11768 0.94137 0.0
H655 H 0.30781 0.13335 0.94223 0.0
H656 H 0.27408 0.1123 0.90644 0.0
H657 H 0.27706 0.09647 0.90507 0.0
H658 H 0.28413 0.1321 0.86762 0.0
H659 H 0.27889 0.12018 -0.00221 0.0
H660 H 0.2832 0.1141 0.0586 0.0
H661 H 0.31322 0.1452 0.06884 0.0
H662 H 0.30918 0.15141 0.00777 0.0
H663 H 0.2762 0.17835 0.90757 0.0
H664 H 0.27364 0.1597 0.90768 0.0
H665 H 0.30737 0.17285 0.94441 0.0
H666 H 0.30996 0.19138 0.94481 0.0
H667 H 0.29341 0.15493 0.98578 0.0
H668 H 0.29961 0.16555 0.85087 0.0
H669 H 0.29534 0.17146 0.78954 0.0
H670 H 0.26314 0.14256 0.78886 0.0
H671 H 0.26718 0.13655 0.85047 0.0
C672 C 0.30276 0.11633 0.9336 0.0
C673 C 0.29417 0.10578 0.92338 0.0
C674 C 0.30104 0.12531 0.93427 0.0
C675 C 0.29067 0.12394 0.92503 0.0
C676 C 0.28212 0.1135 0.91388 0.0
C677 C 0.28385 0.10447 0.91319 0.0
C678 C 0.28891 0.13352 0.92715 0.0
C679 C 0.28593 0.13698 0.89365 0.0
C680 C 0.29132 0.1399 0.96109 0.0
C681 C 0.29375 0.13624 -0.00195 0.0
C682 C 0.28645 0.1257 0.01287 0.0
C683 C 0.28884 0.12223 0.04741 0.0
C684 C 0.29849 0.12925 0.06754 0.0
C685 C 0.30575 0.13977 0.05321 0.0
C686 C 0.3034 0.14327 0.01866 0.0
C687 C 0.28306 0.17726 0.91566 0.0
C688 C 0.29329 0.18637 0.92615 0.0
C689 C 0.28159 0.1666 0.91561 0.0
C690 C 0.29033 0.1649 0.92591 0.0
C691 C 0.3005 0.17397 0.9365 0.0
C692 C 0.30198 0.18458 0.93657 0.0
C693 C 0.28906 0.15374 0.92588 0.0
C694 C 0.29142 0.14996 0.95991 0.0
C695 C 0.28605 0.14707 0.89249 0.0
C696 C 0.28364 0.15068 0.85548 0.0
C697 C 0.29159 0.16051 0.8378 0.0
C698 C 0.28922 0.16386 0.80296 0.0
C699 C 0.27896 0.15741 0.78538 0.0
C700 C 0.27107 0.14756 0.80255 0.0
C701 C 0.2734 0.14418 0.83741 0.0
H702 H 0.27715 0.16002 0.75841 0.0
H703 H 0.30033 0.12655 0.09428 0.0
H704 H 0.81511 0.09303 0.89465 0.0
H705 H 0.83408 0.1083 0.88667 0.0
H706 H 0.82307 0.13164 0.90775 0.0
H707 H 0.8042 0.11653 0.91597 0.0
H708 H 0.83721 0.13695 0.84395 0.0
H709 H 0.83466 0.12531 0.97798 0.0
H710 H 0.83158 0.11176 0.02877 0.0
H711 H 0.85758 0.10738 0.98223 0.0
H712 H 0.86071 0.12081 0.93083 0.0
H713 H 0.87512 0.1867 0.92256 0.0
H714 H 0.86027 0.16806 0.90984 0.0
H715 H 0.88396 0.15742 0.89037 0.0
H716 H 0.89908 0.17628 0.90302 0.0
H717 H 0.86607 0.14339 0.93993 0.0
H718 H 0.87139 0.1585 0.81517 0.0
H719 H 0.8747 0.17245 0.76578 0.0
H720 H 0.84382 0.17037 0.79363 0.0
H721 H 0.8404 0.15654 0.84364 0.0
C722 C 0.81673 0.10142 0.89747 0.0
C723 C 0.80816 0.10358 0.90606 0.0
C724 C 0.82756 0.11011 0.89293 0.0
C725 C 0.82993 0.12106 0.89661 0.0
C726 C 0.82137 0.12323 0.90463 0.0
C727 C 0.81061 0.11458 0.90955 0.0
C728 C 0.84133 0.13041 0.89318 0.0
C729 C 0.84355 0.13836 0.86477 0.0
C730 C 0.84971 0.13199 0.91946 0.0
C731 C 0.84781 0.12393 0.95029 0.0
C732 C 0.83965 0.12137 0.97837 0.0
C733 C 0.83791 0.11374 0.00731 0.0
C734 C 0.84435 0.10868 0.00864 0.0
C735 C 0.85257 0.11128 0.9811 0.0
C736 C 0.85433 0.1189 0.95207 0.0
C737 C 0.87724 0.18044 0.91555 0.0
C738 C 0.8883 0.18298 0.91381 0.0
C739 C 0.86872 0.16979 0.90806 0.0
C740 C 0.87104 0.16142 0.89871 0.0
C741 C 0.88205 0.16382 0.8973 0.0
C742 C 0.89064 0.17458 0.90446 0.0
C743 C 0.86175 0.15016 0.89179 0.0
C744 C 0.85989 0.14184 0.91821 0.0
C745 C 0.85371 0.14821 0.86355 0.0
C746 C 0.85565 0.15649 0.83329 0.0
C747 C 0.86533 0.16106 0.81095 0.0
C748 C 0.86722 0.16895 0.78281 0.0
C749 C 0.85948 0.1723 0.77658 0.0
C750 C 0.84981 0.16776 0.79846 0.0
C751 C 0.84788 0.15988 0.82667 0.0
H752 H 0.86096 0.17841 0.75478 0.0
H753 H 0.843 0.10278 0.03107 0.0
H754 H 0.81159 0.69664 0.9923 0.0
H755 H 0.83114 0.70249 0.99195 0.0
H756 H 0.83731 0.7283 0.91098 0.0
H757 H 0.81759 0.72245 0.9111 0.0
H758 H 0.84621 0.71581 0.88776 0.0
H759 H 0.84786 0.7357 -0.00087 0.0
H760 H 0.84219 0.73934 0.06203 0.0
H761 H 0.8468 0.71409 0.11375 0.0
H762 H 0.85234 0.71016 0.05107 0.0
H763 H 0.90075 0.72267 0.90218 0.0
H764 H 0.88652 0.72802 0.90493 0.0
H765 H 0.86762 0.70131 0.98381 0.0
H766 H 0.88168 0.69594 0.98133 0.0
H767 H 0.86833 0.72073 0.00524 0.0
H768 H 0.86178 0.69825 0.88947 0.0
H769 H 0.86706 0.69438 0.82613 0.0
H770 H 0.87171 0.72517 0.78291 0.0
H771 H 0.86658 0.72926 0.84622 0.0
C772 C 0.81709 0.70365 0.97472 0.0
C773 C 0.81302 0.70904 0.95155 0.0
C774 C 0.8283 0.70705 0.9748 0.0
C775 C 0.8357 0.71591 0.95174 0.0
C776 C 0.83173 0.72149 0.92916 0.0
C777 C 0.82048 0.71814 0.92932 0.0
C778 C 0.84732 0.7185 0.94902 0.0
C779 C 0.85121 0.71723 0.91328 0.0
C780 C 0.8538 0.72031 0.98233 0.0
C781 C 0.85049 0.72262 0.02027 0.0
C782 C 0.8476 0.73087 0.02385 0.0
C783 C 0.84441 0.73299 0.05949 0.0
C784 C 0.84413 0.72694 0.09186 0.0
C785 C 0.84704 0.71877 0.08866 0.0
C786 C 0.85022 0.71661 0.05307 0.0
C787 C 0.8936 0.71799 0.92031 0.0
C788 C 0.8923 0.70882 0.94131 0.0
C789 C 0.88549 0.72106 0.92183 0.0
C790 C 0.87603 0.71504 0.94451 0.0
C791 C 0.87489 0.7061 0.96627 0.0
C792 C 0.88291 0.70299 0.96457 0.0
C793 C 0.86689 0.71749 0.94439 0.0
C794 C 0.86349 0.71971 0.97959 0.0
C795 C 0.86088 0.7166 0.9106 0.0
C796 C 0.86396 0.71413 0.87265 0.0
C797 C 0.86403 0.70423 0.86654 0.0
C798 C 0.86697 0.70199 0.83064 0.0
C799 C 0.86976 0.70954 0.80055 0.0
C800 C 0.86958 0.71934 0.80627 0.0
C801 C 0.86665 0.72162 0.84214 0.0
H802 H 0.87203 0.70779 0.77277 0.0
H803 H 0.84166 0.7286 0.11943 0.0
H804 H 0.85129 0.64063 0.41883 0.0
H805 H 0.83172 0.63502 0.42014 0.0
H806 H 0.82321 0.60212 0.38543 0.0
H807 H 0.84289 0.6076 0.38511 0.0
H808 H 0.81396 0.6148 0.3402 0.0
H809 H 0.81556 0.60104 0.46377 0.0
H810 H 0.82362 0.60166 0.52738 0.0
H811 H 0.82031 0.62954 0.55886 0.0
H812 H 0.8124 0.6292 0.49518 0.0
H813 H 0.75903 0.60768 0.43027 0.0
H814 H 0.77375 0.60302 0.42911 0.0
H815 H 0.7944 0.63267 0.36468 0.0
H816 H 0.77982 0.63737 0.36556 0.0
H817 H 0.79457 0.61506 0.45943 0.0
H818 H 0.80993 0.62811 0.30233 0.0
H819 H 0.80207 0.62769 0.23851 0.0
H820 H 0.77101 0.60026 0.27358 0.0
H821 H 0.77872 0.60039 0.33744 0.0
C822 C 0.84526 0.63218 0.41167 0.0
C823 C 0.84859 0.62455 0.40179 0.0
C824 C 0.83411 0.62899 0.41259 0.0
C825 C 0.8261 0.61817 0.40301 0.0
C826 C 0.82933 0.61049 0.39305 0.0
C827 C 0.84053 0.61362 0.39297 0.0
C828 C 0.81442 0.61525 0.40203 0.0
C829 C 0.8096 0.61466 0.36618 0.0
C830 C 0.80876 0.61492 0.43607 0.0
C831 C 0.81344 0.61513 0.47457 0.0
C832 C 0.81663 0.60736 0.48413 0.0
C833 C 0.82116 0.60765 0.52023 0.0
C834 C 0.82249 0.61565 0.54712 0.0
C835 C 0.81927 0.62335 0.53799 0.0
C836 C 0.81475 0.6231 0.50191 0.0
C837 C 0.76668 0.61316 0.41559 0.0
C838 C 0.76827 0.62291 0.39807 0.0
C839 C 0.77506 0.61048 0.415 0.0
C840 C 0.78509 0.61743 0.39642 0.0
C841 C 0.78664 0.6271 0.3786 0.0
C842 C 0.77832 0.62981 0.37939 0.0
C843 C 0.79428 0.61508 0.39748 0.0
C844 C 0.79871 0.61481 0.43338 0.0
C845 C 0.79955 0.61457 0.36342 0.0
C846 C 0.7949 0.6143 0.32478 0.0
C847 C 0.80144 0.62193 0.29636 0.0
C848 C 0.79701 0.62176 0.26019 0.0
C849 C 0.78604 0.61397 0.25201 0.0
C850 C 0.77949 0.60631 0.27998 0.0
C851 C 0.78389 0.60644 0.3162 0.0
H852 H 0.78262 0.61385 0.224 0.0
H853 H 0.82601 0.61586 0.57505 0.0
H854 H 0.35491 0.14206 0.36913 0.0
H855 H 0.35967 0.16127 0.3658 0.0
H856 H 0.39207 0.17136 0.41081 0.0
H857 H 0.38732 0.15194 0.41467 0.0
H858 H 0.38219 0.18241 0.4447 0.0
H859 H 0.3903 0.17559 0.31854 0.0
H860 H 0.38703 0.16497 0.2586 0.0
H861 H 0.35811 0.16734 0.23624 0.0
H862 H 0.36111 0.17783 0.29632 0.0
H863 H 0.3874 0.23557 0.40829 0.0
H864 H 0.39209 0.22086 0.40681 0.0
H865 H 0.3604 0.19879 0.35607 0.0
H866 H 0.35578 0.21336 0.35664 0.0
H867 H 0.37618 0.19662 0.32175 0.0
H868 H 0.3658 0.19913 0.45472 0.0
H869 H 0.36824 0.20888 0.51625 0.0
H870 H 0.4012 0.21432 0.52579 0.0
H871 H 0.39898 0.2047 0.46407 0.0
C872 C 0.36306 0.14831 0.37837 0.0
C873 C 0.37075 0.14544 0.39197 0.0
C874 C 0.36579 0.15932 0.37626 0.0
C875 C 0.37629 0.16773 0.38738 0.0
C876 C 0.38395 0.16496 0.40181 0.0
C877 C 0.38122 0.15388 0.40394 0.0
C878 C 0.37897 0.17936 0.38406 0.0
C879 C 0.38118 0.18567 0.41766 0.0
C880 C 0.37763 0.18357 0.34877 0.0
C881 C 0.37593 0.17749 0.31203 0.0
C882 C 0.38322 0.17382 0.30091 0.0
C883 C 0.38141 0.16781 0.26691 0.0
C884 C 0.37236 0.16547 0.24364 0.0
C885 C 0.36512 0.16917 0.25427 0.0
C886 C 0.36689 0.17517 0.28826 0.0
C887 C 0.38147 0.2276 0.3966 0.0
C888 C 0.37119 0.22563 0.38279 0.0
C889 C 0.38416 0.2192 0.39586 0.0
C890 C 0.37656 0.20871 0.38159 0.0
C891 C 0.36642 0.20684 0.36707 0.0
C892 C 0.36376 0.21518 0.36762 0.0
C893 C 0.37877 0.19939 0.38274 0.0
C894 C 0.37754 0.19354 0.3486 0.0
C895 C 0.38099 0.19561 0.41752 0.0
C896 C 0.38227 0.20133 0.45463 0.0
C897 C 0.37359 0.20248 0.46984 0.0
C898 C 0.37493 0.20797 0.50475 0.0
C899 C 0.38488 0.21225 0.52485 0.0
C900 C 0.3935 0.21102 0.51014 0.0
C901 C 0.39221 0.20555 0.47522 0.0
H902 H 0.3859 0.2165 0.55187 0.0
H903 H 0.37096 0.1608 0.21737 0.0
H904 H 0.85918 0.21167 0.38302 0.0
H905 H 0.84065 0.19588 0.37983 0.0
H906 H 0.82698 0.2172 0.39675 0.0
H907 H 0.84569 0.2332 0.40092 0.0
H908 H 0.81652 0.19877 0.44047 0.0
H909 H 0.82611 0.20646 0.30818 0.0
H910 H 0.83811 0.21083 0.2513 0.0
H911 H 0.83752 0.18 0.26312 0.0
H912 H 0.82563 0.17551 0.32039 0.0
H913 H 0.76357 0.15097 0.40167 0.0
H914 H 0.77969 0.16957 0.39952 0.0
H915 H 0.80077 0.15571 0.38059 0.0
H916 H 0.78476 0.13719 0.38188 0.0
H917 H 0.80583 0.17223 0.3323 0.0
H918 H 0.79858 0.16598 0.46937 0.0
H919 H 0.78719 0.16186 0.52782 0.0
H920 H 0.78358 0.19013 0.50701 0.0
H921 H 0.79485 0.19434 0.44815 0.0
C922 C 0.85227 0.21307 0.38592 0.0
C923 C 0.85394 0.22373 0.39204 0.0
C924 C 0.84166 0.20401 0.38391 0.0
C925 C 0.83243 0.20538 0.38734 0.0
C926 C 0.834 0.21598 0.39379 0.0
C927 C 0.84468 0.2251 0.39607 0.0
C928 C 0.82121 0.1956 0.38496 0.0
C929 C 0.81406 0.19308 0.41644 0.0
C930 C 0.81807 0.18813 0.35377 0.0
C931 C 0.825 0.19067 0.31872 0.0
C932 C 0.82857 0.20063 0.29875 0.0
C933 C 0.83536 0.20313 0.26643 0.0
C934 C 0.8386 0.1957 0.25364 0.0
C935 C 0.83501 0.18574 0.27305 0.0
C936 C 0.82822 0.1832 0.3054 0.0
C937 C 0.77164 0.15189 0.39724 0.0
C938 C 0.77287 0.14259 0.39193 0.0
C939 C 0.78085 0.16253 0.39608 0.0
C940 C 0.79144 0.16403 0.39005 0.0
C941 C 0.79267 0.15475 0.38508 0.0
C942 C 0.7835 0.14416 0.38596 0.0
C943 C 0.80132 0.17521 0.38844 0.0
C944 C 0.80819 0.17801 0.35603 0.0
C945 C 0.80419 0.18292 0.41875 0.0
C946 C 0.79744 0.1804 0.45414 0.0
C947 C 0.79528 0.17126 0.4771 0.0
C948 C 0.78886 0.16892 0.51033 0.0
C949 C 0.78463 0.17571 0.52105 0.0
C950 C 0.78684 0.18487 0.49863 0.0
C951 C 0.79325 0.18724 0.46535 0.0
H952 H 0.77967 0.17388 0.54679 0.0
H953 H 0.84387 0.19767 0.22868 0.0
H954 H 0.93843 0.51256 0.25215 0.0
H955 H 0.93322 0.49301 0.24693 0.0
H956 H 0.96761 0.5023 0.24785 0.0
H957 H 0.97286 0.52165 0.25357 0.0
H958 H 0.95463 0.48679 0.18899 0.0
H959 H 0.95406 0.49394 0.32747 0.0
H960 H 0.94687 0.49904 0.38387 0.0
H961 H 0.91416 0.47262 0.35913 0.0
H962 H 0.92116 0.46745 0.30225 0.0
H963 H 0.97275 0.45384 0.26646 0.0
H964 H 0.96711 0.46757 0.25815 0.0
H965 H 0.93308 0.44185 0.24967 0.0
H966 H 0.93867 0.42785 0.25747 0.0
H967 H 0.93894 0.46188 0.30153 0.0
H968 H 0.94083 0.45183 0.17294 0.0
H969 H 0.94842 0.44663 0.11802 0.0
H970 H 0.97814 0.47814 0.12285 0.0
H971 H 0.97081 0.48347 0.17825 0.0
C972 C 0.94485 0.5104 0.25111 0.0
C973 C 0.95605 0.51863 0.25344 0.0
C974 C 0.94187 0.49927 0.24814 0.0
C975 C 0.95005 0.49627 0.24687 0.0
C976 C 0.96119 0.50448 0.24857 0.0
C977 C 0.96417 0.51553 0.25211 0.0
C978 C 0.94728 0.48462 0.24502 0.0
C979 C 0.95106 0.48126 0.21331 0.0
C980 C 0.94227 0.47731 0.27623 0.0
C981 C 0.9381 0.48042 0.31037 0.0
C982 C 0.94532 0.48929 0.33387 0.0
C983 C 0.94129 0.49218 0.36595 0.0
C984 C 0.93006 0.48619 0.37499 0.0
C985 C 0.92285 0.47727 0.35203 0.0
C986 C 0.92685 0.47436 0.31987 0.0
C987 C 0.96405 0.45104 0.2631 0.0
C988 C 0.95616 0.43974 0.26249 0.0
C989 C 0.96085 0.45891 0.25824 0.0
C990 C 0.94971 0.45568 0.253 0.0
C991 C 0.94172 0.44445 0.25356 0.0
C992 C 0.94494 0.4365 0.25793 0.0
C993 C 0.94677 0.4643 0.24626 0.0
C994 C 0.942 0.46715 0.27636 0.0
C995 C 0.95081 0.47113 0.21343 0.0
C996 C 0.95527 0.46804 0.17989 0.0
C997 C 0.94902 0.45763 0.16249 0.0
C998 C 0.95327 0.45466 0.13123 0.0
C999 C 0.96376 0.46204 0.11697 0.0
C1000 C 0.97001 0.47242 0.13392 0.0
C1001 C 0.9658 0.47544 0.16521 0.0
H1002 H 0.96703 0.45972 0.09277 0.0
H1003 H 0.92695 0.48843 0.39986 0.0
H1004 H 0.54118 0.51831 0.24281 0.0
H1005 H 0.52776 0.49873 0.24518 0.0
H1006 H 0.55386 0.49095 0.23704 0.0
H1007 H 0.56758 0.51077 0.23481 0.0
H1008 H 0.53157 0.47713 0.18951 0.0
H1009 H 0.54659 0.48745 0.3166 0.0
H1010 H 0.55382 0.50011 0.37202 0.0
H1011 H 0.52266 0.4988 0.3846 0.0
H1012 H 0.51529 0.48627 0.32888 0.0
H1013 H 0.48277 0.42559 0.24147 0.0
H1014 H 0.50237 0.43977 0.23951 0.0
H1015 H 0.49409 0.46419 0.27633 0.0
H1016 H 0.4747 0.45019 0.27904 0.0
H1017 H 0.51167 0.46646 0.31427 0.0
H1018 H 0.49868 0.46041 0.18003 0.0
H1019 H 0.49116 0.44886 0.12198 0.0
H1020 H 0.5182 0.44253 0.12181 0.0
H1021 H 0.5258 0.45396 0.18012 0.0
C1022 C 0.54414 0.5125 0.24111 0.0
C1023 C 0.55548 0.51612 0.23916 0.0
C1024 C 0.53643 0.5013 0.24233 0.0
C1025 C 0.53987 0.49347 0.24162 0.0
C1026 C 0.55111 0.49693 0.2376 0.0
C1027 C 0.5589 0.50823 0.23644 0.0
C1028 C 0.53154 0.48181 0.24845 0.0
C1029 C 0.5274 0.47459 0.21706 0.0
C1030 C 0.52611 0.47862 0.28435 0.0
C1031 C 0.5304 0.48593 0.31851 0.0
C1032 C 0.54129 0.4899 0.33108 0.0
C1033 C 0.54542 0.49706 0.36255 0.0
C1034 C 0.5387 0.50026 0.38181 0.0
C1035 C 0.52784 0.4963 0.36969 0.0
C1036 C 0.52368 0.48915 0.33821 0.0
C1037 C 0.48516 0.43398 0.24934 0.0
C1038 C 0.47716 0.43677 0.2603 0.0
C1039 C 0.49634 0.44206 0.24813 0.0
C1040 C 0.49967 0.45304 0.25764 0.0
C1041 C 0.49171 0.45576 0.2691 0.0
C1042 C 0.4806 0.44773 0.27046 0.0
C1043 C 0.51133 0.46195 0.25482 0.0
C1044 C 0.51609 0.4687 0.28711 0.0
C1045 C 0.51727 0.46469 0.21973 0.0
C1046 C 0.51272 0.45791 0.18462 0.0
C1047 C 0.50297 0.45649 0.16773 0.0
C1048 C 0.49871 0.44998 0.13478 0.0
C1049 C 0.50418 0.44493 0.1183 0.0
C1050 C 0.51395 0.44642 0.13466 0.0
C1051 C 0.51824 0.45291 0.16764 0.0
H1052 H 0.50086 0.4399 0.0928 0.0
H1053 H 0.54192 0.50581 0.40614 0.0
H1054 H 0.54445 0.01864 0.26375 0.0
H1055 H 0.52837 0.02101 0.26031 0.0
H1056 H 0.54956 0.05628 0.25312 0.0
H1057 H 0.56585 0.054 0.25616 0.0
H1058 H 0.53122 0.04869 0.30694 0.0
H1059 H 0.53819 0.04498 0.17546 0.0
H1060 H 0.54252 0.03682 0.12 0.0
H1061 H 0.51245 0.00617 0.13771 0.0
H1062 H 0.50802 0.01409 0.19369 0.0
H1063 H 0.48207 0.05133 0.2633 0.0
H1064 H 0.50092 0.05446 0.2591 0.0
H1065 H 0.48812 0.01931 0.25775 0.0
H1066 H 0.46935 0.0161 0.26204 0.0
H1067 H 0.50403 0.03033 0.20195 0.0
H1068 H 0.49856 0.03323 0.33807 0.0
H1069 H 0.49435 0.04096 0.39508 0.0
H1070 H 0.52168 0.07304 0.3689 0.0
H1071 H 0.52595 0.06551 0.31137 0.0
C1072 C 0.54574 0.02692 0.26156 0.0
C1073 C 0.55644 0.03613 0.26013 0.0
C1074 C 0.53653 0.02825 0.25945 0.0
C1075 C 0.5378 0.03881 0.25614 0.0
C1076 C 0.54844 0.04807 0.25555 0.0
C1077 C 0.55771 0.04674 0.25717 0.0
C1078 C 0.52789 0.03996 0.25317 0.0
C1079 C 0.52537 0.04493 0.28355 0.0
C1080 C 0.52024 0.0349 0.22286 0.0
C1081 C 0.52281 0.03011 0.18897 0.0
C1082 C 0.53254 0.03647 0.16772 0.0
C1083 C 0.53501 0.0319 0.13616 0.0
C1084 C 0.52778 0.02098 0.12539 0.0
C1085 C 0.51805 0.01463 0.1461 0.0
C1086 C 0.51555 0.01916 0.17773 0.0
C1087 C 0.48328 0.04427 0.26206 0.0
C1088 C 0.47421 0.03346 0.2631 0.0
C1089 C 0.49405 0.04608 0.25975 0.0
C1090 C 0.49589 0.03711 0.25818 0.0
C1091 C 0.48686 0.02634 0.25881 0.0
C1092 C 0.47614 0.02453 0.26147 0.0
C1093 C 0.5072 0.03879 0.25626 0.0
C1094 C 0.50997 0.03434 0.22491 0.0
C1095 C 0.51506 0.04431 0.28568 0.0
C1096 C 0.51248 0.04884 0.32015 0.0
C1097 C 0.5036 0.04195 0.34425 0.0
C1098 C 0.50122 0.04629 0.37671 0.0
C1099 C 0.50772 0.05749 0.38553 0.0
C1100 C 0.51663 0.06437 0.36197 0.0
C1101 C 0.51904 0.06007 0.32945 0.0
H1102 H 0.50587 0.06083 0.41068 0.0
H1103 H 0.52971 0.01745 0.10095 0.0
H1104 H 0.44449 0.96096 0.68375 0.0
H1105 H 0.45817 0.95506 0.68478 0.0
H1106 H 0.4422 0.93451 0.78343 0.0
H1107 H 0.42825 0.94031 0.78225 0.0
H1108 H 0.465 0.94907 0.79284 0.0
H1109 H 0.44164 0.92155 0.70588 0.0
H1110 H 0.42907 0.91325 0.65078 0.0
H1111 H 0.45517 0.93391 0.57311 0.0
H1112 H 0.46787 0.94246 0.62776 0.0
H1113 H 0.51241 0.94212 0.76983 0.0
H1114 H 0.49262 0.93581 0.77478 0.0
H1115 H 0.49563 0.95758 0.68197 0.0
H1116 H 0.51534 0.96404 0.6773 0.0
H1117 H 0.47631 0.93596 0.67826 0.0
H1118 H 0.49712 0.96656 0.76779 0.0
H1119 H 0.50964 0.97534 0.82279 0.0
H1120 H 0.48778 0.94846 0.89577 0.0
H1121 H 0.4752 0.93945 0.84096 0.0
C1122 C 0.44379 0.95508 0.70542 0.0
C1123 C 0.43535 0.95114 0.73305 0.0
C1124 C 0.45156 0.95165 0.70578 0.0
C1125 C 0.45113 0.94427 0.73396 0.0
C1126 C 0.4426 0.94014 0.76129 0.0
C1127 C 0.43467 0.94345 0.76055 0.0
C1128 C 0.46027 0.94188 0.73634 0.0
C1129 C 0.46729 0.94584 0.76834 0.0
C1130 C 0.46329 0.93776 0.70421 0.0
C1131 C 0.45571 0.93267 0.67103 0.0
C1132 C 0.44469 0.92438 0.67708 0.0
C1133 C 0.43754 0.91962 0.64591 0.0
C1134 C 0.44132 0.92305 0.60847 0.0
C1135 C 0.45226 0.93125 0.60213 0.0
C1136 C 0.45944 0.93604 0.63321 0.0
C1137 C 0.5088 0.94544 0.75018 0.0
C1138 C 0.51542 0.95364 0.72338 0.0
C1139 C 0.49753 0.94183 0.75305 0.0
C1140 C 0.49271 0.94625 0.72873 0.0
C1141 C 0.49921 0.95405 0.70085 0.0
C1142 C 0.51047 0.95778 0.69841 0.0
C1143 C 0.48117 0.94358 0.73398 0.0
C1144 C 0.47376 0.93873 0.70336 0.0
C1145 C 0.47778 0.94686 0.76737 0.0
C1146 C 0.48532 0.95226 0.80022 0.0
C1147 C 0.49505 0.96247 0.79548 0.0
C1148 C 0.50213 0.9675 0.82662 0.0
C1149 C 0.49953 0.96244 0.86272 0.0
C1150 C 0.4898 0.95235 0.86776 0.0
C1151 C 0.4827 0.94728 0.83668 0.0
H1152 H 0.50502 0.96635 0.88681 0.0
H1153 H 0.43577 0.91936 0.58437 0.0
H1154 H 0.05005 0.56258 0.74852 0.0
H1155 H 0.05199 0.54614 0.75224 0.0
H1156 H 0.01893 0.52626 0.70826 0.0
H1157 H 0.01687 0.5425 0.70485 0.0
H1158 H 0.02233 0.51707 0.77085 0.0
H1159 H 0.04154 0.53364 0.6518 0.0
H1160 H 0.05579 0.54858 0.61213 0.0
H1161 H 0.0812 0.5486 0.68133 0.0
H1162 H 0.06709 0.53374 0.72172 0.0
H1163 H 0.01732 0.46763 0.70649 0.0
H1164 H 0.0192 0.48587 0.70983 0.0
H1165 H 0.05199 0.4992 0.75643 0.0
H1166 H 0.05024 0.4809 0.75287 0.0
H1167 H 0.05082 0.51268 0.7009 0.0
H1168 H 0.03166 0.4948 0.81579 0.0
H1169 H 0.01745 0.47976 0.85518 0.0
H1170 H 0.99204 0.48228 0.79478 0.0
H1171 H 0.0061 0.49724 0.75462 0.0
C1172 C 0.04321 0.55472 0.73947 0.0
C1173 C 0.03329 0.55386 0.7265 0.0
C1174 C 0.04435 0.54534 0.74153 0.0
C1175 C 0.03561 0.53499 0.73045 0.0
C1176 C 0.02576 0.53416 0.71712 0.0
C1177 C 0.02462 0.54348 0.7151 0.0
C1178 C 0.03646 0.52489 0.73343 0.0
C1179 C 0.02851 0.51608 0.75535 0.0
C1180 C 0.04478 0.52377 0.71435 0.0
C1181 C 0.05326 0.53268 0.69005 0.0
C1182 C 0.05016 0.5369 0.65875 0.0
C1183 C 0.05822 0.54534 0.6361 0.0
C1184 C 0.06939 0.54956 0.64428 0.0
C1185 C 0.07254 0.54533 0.67507 0.0
C1186 C 0.06452 0.5369 0.69784 0.0
C1187 C 0.02496 0.47442 0.71742 0.0
C1188 C 0.0336 0.47277 0.72966 0.0
C1189 C 0.026 0.48484 0.71941 0.0
C1190 C 0.03567 0.49384 0.73392 0.0
C1191 C 0.04444 0.49233 0.74532 0.0
C1192 C 0.04341 0.48187 0.74335 0.0
C1193 C 0.03645 0.50476 0.73727 0.0
C1194 C 0.04472 0.51372 0.71679 0.0
C1195 C 0.02843 0.50605 0.75775 0.0
C1196 C 0.01994 0.4971 0.78201 0.0
C1197 C 0.02304 0.4921 0.81071 0.0
C1198 C 0.01501 0.48359 0.83321 0.0
C1199 C 0.00385 0.48005 0.82744 0.0
C1200 C 0.00069 0.48503 0.79921 0.0
C1201 C 0.00869 0.49353 0.77661 0.0
H1202 H -0.00235 0.47347 0.84489 0.0
H1203 H 0.07562 0.5561 0.62671 0.0
H1204 H 0.44601 0.47334 0.67314 0.0
H1205 H 0.46233 0.49165 0.67523 0.0
H1206 H 0.44768 0.50101 0.76628 0.0
H1207 H 0.43106 0.48272 0.76338 0.0
H1208 H 0.4588 0.51787 0.71748 0.0
H1209 H 0.4667 0.49301 0.78652 0.0
H1210 H 0.46765 0.47605 0.79622 0.0
H1211 H 0.4899 0.48462 0.70066 0.0
H1212 H 0.48897 0.50157 0.69006 0.0
H1213 H 0.51192 0.56437 0.76554 0.0
H1214 H 0.49373 0.54764 0.76738 0.0
H1215 H 0.50402 0.53313 0.67863 0.0
H1216 H 0.52223 0.54957 0.67763 0.0
H1217 H 0.4946 0.51909 0.73407 0.0
H1218 H 0.48578 0.54351 0.66294 0.0
H1219 H 0.4847 0.56042 0.65359 0.0
H1220 H 0.46434 0.55281 0.75414 0.0
H1221 H 0.4654 0.53591 0.76434 0.0
C1222 C 0.44622 0.4793 0.69347 0.0
C1223 C 0.43732 0.47654 0.71846 0.0
C1224 C 0.45557 0.48977 0.6947 0.0
C1225 C 0.45634 0.49761 0.72159 0.0
C1226 C 0.44728 0.49506 0.7455 0.0
C1227 C 0.43781 0.4846 0.74386 0.0
C1228 C 0.46679 0.50826 0.72547 0.0
C1229 C 0.46662 0.51816 0.72165 0.0
C1230 C 0.477 0.50864 0.73069 0.0
C1231 C 0.47771 0.49852 0.73737 0.0
C1232 C 0.47175 0.49125 0.76746 0.0
C1233 C 0.47229 0.48164 0.77313 0.0
C1234 C 0.47882 0.47925 0.74903 0.0
C1235 C 0.48485 0.48648 0.71929 0.0
C1236 C 0.48433 0.4961 0.71348 0.0
C1237 C 0.51025 0.55763 0.74626 0.0
C1238 C 0.51852 0.55825 0.72161 0.0
C1239 C 0.49984 0.54809 0.74722 0.0
C1240 C 0.49747 0.53914 0.72296 0.0
C1241 C 0.50566 0.53989 0.69776 0.0
C1242 C 0.51607 0.54931 0.6972 0.0
C1243 C 0.48669 0.52872 0.72469 0.0
C1244 C 0.48679 0.51883 0.73 0.0
C1245 C 0.47646 0.5284 0.72093 0.0
C1246 C 0.47576 0.53851 0.71462 0.0
C1247 C 0.48113 0.54549 0.6832 0.0
C1248 C 0.48051 0.55506 0.67772 0.0
C1249 C 0.47448 0.5577 0.70332 0.0
C1250 C 0.46902 0.55076 0.73437 0.0
C1251 C 0.46962 0.54118 0.73999 0.0
H1252 H 0.47402 0.56512 0.69903 0.0
H1253 H 0.47921 0.4718 0.75345 0.0
H1254 H 0.61424 0.84641 0.56331 0.0
H1255 H 0.6121 0.82795 0.55975 0.0
H1256 H 0.63531 0.83625 0.65286 0.0
H1257 H 0.63767 0.8547 0.656 0.0
H1258 H 0.6409 0.82829 0.59331 0.0
H1259 H 0.60711 0.81792 0.66329 0.0
H1260 H 0.58898 0.81648 0.6732 0.0
H1261 H 0.57703 0.79791 0.56858 0.0
H1262 H 0.59514 0.79936 0.5578 0.0
H1263 H 0.63786 0.77858 0.64047 0.0
H1264 H 0.63617 0.79507 0.64198 0.0
H1265 H 0.61237 0.78204 0.54982 0.0
H1266 H 0.61374 0.76524 0.54905 0.0
H1267 H 0.60639 0.79208 0.60166 0.0
H1268 H 0.63943 0.80164 0.53217 0.0
H1269 H 0.65746 0.80304 0.52027 0.0
H1270 H 0.6708 0.82336 0.62061 0.0
H1271 H 0.65281 0.82196 0.63342 0.0
C1272 C 0.61875 0.84423 0.5834 0.0
C1273 C 0.62621 0.85204 0.60968 0.0
C1274 C 0.61749 0.83367 0.5814 0.0
C1275 C 0.62355 0.83073 0.60603 0.0
C1276 C 0.63061 0.83837 0.6334 0.0
C1277 C 0.63195 0.84891 0.63516 0.0
C1278 C 0.62329 0.82006 0.60168 0.0
C1279 C 0.63336 0.82037 0.59563 0.0
C1280 C 0.61341 0.80975 0.60297 0.0
C1281 C 0.60252 0.80885 0.60954 0.0
C1282 C 0.60065 0.81361 0.64224 0.0
C1283 C 0.59037 0.81277 0.64805 0.0
C1284 C 0.58187 0.80713 0.62148 0.0
C1285 C 0.58362 0.80229 0.58911 0.0
C1286 C 0.59389 0.80311 0.58316 0.0
C1287 C 0.63226 0.7792 0.62051 0.0
C1288 C 0.62603 0.77066 0.59432 0.0
C1289 C 0.63132 0.78865 0.62135 0.0
C1290 C 0.62433 0.7899 0.59542 0.0
C1291 C 0.61786 0.78127 0.56994 0.0
C1292 C 0.61867 0.7717 0.56946 0.0
C1293 C 0.62405 0.80035 0.59464 0.0
C1294 C 0.61391 0.80001 0.59928 0.0
C1295 C 0.63387 0.81069 0.59171 0.0
C1296 C 0.64474 0.81163 0.58389 0.0
C1297 C 0.64619 0.80635 0.55182 0.0
C1298 C 0.65641 0.80715 0.5449 0.0
C1299 C 0.66527 0.81327 0.5697 0.0
C1300 C 0.66393 0.81862 0.60143 0.0
C1301 C 0.65373 0.81784 0.6085 0.0
H1302 H 0.67317 0.81387 0.5643 0.0
H1303 H 0.57392 0.8065 0.62603 0.0
H1304 H 0.13865 0.7795 0.62758 0.0
H1305 H 0.15714 0.79527 0.62038 0.0
H1306 H 0.16669 0.77564 0.55232 0.0
H1307 H 0.1481 0.75962 0.55983 0.0
H1308 H 0.18328 0.78992 0.60347 0.0
H1309 H 0.16057 0.79209 0.50643 0.0
H1310 H 0.14385 0.79133 0.48011 0.0
H1311 H 0.14944 0.81887 0.55045 0.0
H1312 H 0.16606 0.81964 0.57795 0.0
H1313 H 0.23061 0.84396 0.5553 0.0
H1314 H 0.21504 0.825 0.54934 0.0
H1315 H 0.19476 0.83389 0.61669 0.0
H1316 H 0.21002 0.85264 0.62252 0.0
H1317 H 0.18476 0.82352 0.55018 0.0
H1318 H 0.20559 0.81888 0.65445 0.0
H1319 H 0.22203 0.81925 0.68177 0.0
H1320 H 0.22013 0.7964 0.59548 0.0
H1321 H 0.20374 0.796 0.56737 0.0
C1322 C 0.14467 0.77846 0.61129 0.0
C1323 C 0.14185 0.76833 0.59386 0.0
C1324 C 0.15524 0.7875 0.60718 0.0
C1325 C 0.1632 0.78666 0.5852 0.0
C1326 C 0.16063 0.77645 0.56922 0.0
C1327 C 0.15001 0.76733 0.57348 0.0
C1328 C 0.17395 0.7967 0.57776 0.0
C1329 C 0.18367 0.79722 0.59109 0.0
C1330 C 0.17444 0.80618 0.56138 0.0
C1331 C 0.16455 0.80589 0.54438 0.0
C1332 C 0.1582 0.79795 0.51646 0.0
C1333 C 0.14874 0.79751 0.50131 0.0
C1334 C 0.14559 0.80505 0.51354 0.0
C1335 C 0.1519 0.81304 0.54096 0.0
C1336 C 0.16135 0.81348 0.55634 0.0
C1337 C 0.22284 0.84183 0.56902 0.0
C1338 C 0.22153 0.84984 0.58909 0.0
C1339 C 0.21398 0.83101 0.56563 0.0
C1340 C 0.20374 0.82808 0.58243 0.0
C1341 C 0.20255 0.83601 0.6032 0.0
C1342 C 0.21132 0.84674 0.60653 0.0
C1343 C 0.19399 0.81693 0.57786 0.0
C1344 C 0.18444 0.81617 0.56183 0.0
C1345 C 0.19371 0.80728 0.59156 0.0
C1346 C 0.20354 0.80753 0.60852 0.0
C1347 C 0.20874 0.81401 0.6411 0.0
C1348 C 0.21803 0.81421 0.65678 0.0
C1349 C 0.22215 0.80788 0.64029 0.0
C1350 C 0.21695 0.80132 0.60817 0.0
C1351 C 0.20766 0.8011 0.59237 0.0
H1352 H 0.22934 0.80804 0.65247 0.0
H1353 H 0.13826 0.80469 0.50177 0.0
H1354 H 0.2324 0.38212 0.56426 0.0
H1355 H 0.21557 0.3834 0.56366 0.0
H1356 H 0.20011 0.35589 0.6421 0.0
H1357 H 0.21674 0.35441 0.64225 0.0
H1358 H 0.18697 0.35302 0.58333 0.0
H1359 H 0.20926 0.38296 0.67051 0.0
H1360 H 0.2257 0.4004 0.68972 0.0
H1361 H 0.22024 0.41724 0.59655 0.0
H1362 H 0.20385 0.39985 0.5765 0.0
H1363 H 0.13959 0.35359 0.64202 0.0
H1364 H 0.15774 0.35521 0.64078 0.0
H1365 H 0.16941 0.38283 0.56305 0.0
H1366 H 0.15126 0.38148 0.56508 0.0
H1367 H 0.18482 0.38644 0.61546 0.0
H1368 H 0.16219 0.35693 0.52978 0.0
H1369 H 0.14573 0.33958 0.50997 0.0
H1370 H 0.15194 0.32205 0.59867 0.0
H1371 H 0.16836 0.33931 0.61936 0.0
C1372 C 0.22544 0.37641 0.58164 0.0
C1373 C 0.22588 0.36811 0.6031 0.0
C1374 C 0.21585 0.37717 0.58136 0.0
C1375 C 0.20659 0.36976 0.60295 0.0
C1376 C 0.20713 0.36166 0.62507 0.0
C1377 C 0.21665 0.36083 0.62513 0.0
C1378 C 0.19613 0.37002 0.60131 0.0
C1379 C 0.18649 0.3603 0.5908 0.0
C1380 C 0.19556 0.37963 0.60963 0.0
C1381 C 0.2054 0.39008 0.62177 0.0
C1382 C 0.21162 0.39036 0.65394 0.0
C1383 C 0.22091 0.40024 0.66502 0.0
C1384 C 0.22403 0.40992 0.6443 0.0
C1385 C 0.21783 0.40973 0.61253 0.0
C1386 C 0.20853 0.39987 0.60132 0.0
C1387 C 0.14601 0.36003 0.62467 0.0
C1388 C 0.14395 0.36734 0.6033 0.0
C1389 C 0.15638 0.36092 0.62391 0.0
C1390 C 0.16487 0.36899 0.60115 0.0
C1391 C 0.16296 0.37651 0.58063 0.0
C1392 C 0.15258 0.37571 0.58175 0.0
C1393 C 0.17563 0.36936 0.59847 0.0
C1394 C 0.18532 0.37919 0.60786 0.0
C1395 C 0.17628 0.35986 0.58894 0.0
C1396 C 0.16647 0.34943 0.57628 0.0
C1397 C 0.16001 0.34938 0.5452 0.0
C1398 C 0.15069 0.33956 0.5338 0.0
C1399 C 0.14778 0.32972 0.5531 0.0
C1400 C 0.1542 0.32968 0.58377 0.0
C1401 C 0.16353 0.33947 0.59531 0.0
H1402 H 0.14056 0.32213 0.54424 0.0
H1403 H 0.23123 0.41756 0.65292 0.0
H1404 H 0.03966 0.25001 0.0782 0.0
H1405 H 0.0214 0.23604 0.05508 0.0
H1406 H 0.01052 0.25995 0.06094 0.0
H1407 H 0.0284 0.27364 0.08573 0.0
H1408 H 0.99404 0.24136 0.0749 0.0
H1409 H 0.02257 0.25521 0.97705 0.0
H1410 H 0.04005 0.25857 0.94769 0.0
H1411 H 0.02806 0.22371 0.94518 0.0
H1412 H 0.01056 0.22016 0.97496 0.0
H1413 H 0.964 0.23729 0.91072 0.0
H1414 H 0.98131 0.242 0.9427 0.0
H1415 H 0.96846 0.2079 0.97334 0.0
H1416 H 0.95095 0.20306 0.94182 0.0
H1417 H 0.9955 0.22684 0.94606 0.0
H1418 H 0.96468 0.21491 0.04069 0.0
H1419 H 0.94788 0.21496 0.06223 0.0
H1420 H 0.9655 0.25038 0.06198 0.0
H1421 H 0.98234 0.25053 0.03999 0.0
C1422 C 0.03324 0.25216 0.07568 0.0
C1423 C 0.03551 0.26297 0.0832 0.0
C1424 C 0.02284 0.2442 0.06214 0.0
C1425 C 0.01468 0.24703 0.05512 0.0
C1426 C 0.01667 0.25755 0.06585 0.0
C1427 C 0.02695 0.26541 0.07999 0.0
C1428 C 0.0045 0.23964 0.03318 0.0
C1429 C 0.99438 0.23805 0.04703 0.0
C1430 C 0.00486 0.23532 -0.0034 0.0
C1431 C 0.01534 0.23743 0.97867 0.0
C1432 C 0.0237 0.24827 0.97045 0.0
C1433 C 0.0336 0.25021 0.95372 0.0
C1434 C 0.03518 0.24136 0.9447 0.0
C1435 C 0.02684 0.23055 0.95229 0.0
C1436 C 0.01693 0.22858 0.96909 0.0
C1437 C 0.96495 0.2307 0.92305 0.0
C1438 C 0.95604 0.21983 0.92433 0.0
C1439 C 0.97485 0.23342 0.94132 0.0
C1440 C 0.97603 0.2253 0.96072 0.0
C1441 C 0.96763 0.21425 0.95853 0.0
C1442 C 0.95765 0.21152 0.94044 0.0
C1443 C 0.98527 0.22877 0.98782 0.0
C1444 C 0.99516 0.22972 0.97473 0.0
C1445 C 0.98481 0.23285 0.02455 0.0
C1446 C 0.97473 0.23272 0.03847 0.0
C1447 C 0.96493 0.2227 0.04499 0.0
C1448 C 0.95541 0.2227 0.05735 0.0
C1449 C 0.95562 0.23267 0.0635 0.0
C1450 C 0.96535 0.24266 0.05731 0.0
C1451 C 0.97488 0.24271 0.04494 0.0
H1452 H 0.94827 0.23267 0.07313 0.0
H1453 H 0.04285 0.24287 0.93174 0.0
H1454 H 0.75655 0.72551 0.91008 0.0
H1455 H 0.75238 0.73979 0.9288 0.0
H1456 H 0.78658 0.76149 0.95793 0.0
H1457 H 0.79077 0.74707 0.94012 0.0
H1458 H 0.77422 0.76018 0.01563 0.0
H1459 H 0.77391 0.76767 0.88289 0.0
H1460 H 0.7694 0.76351 0.81418 0.0
H1461 H 0.7349 0.74923 0.83972 0.0
H1462 H 0.73918 0.75315 0.90864 0.0
H1463 H 0.74108 0.79246 0.01822 0.0
H1464 H 0.75529 0.78904 0.9916 0.0
H1465 H 0.74304 0.75968 0.06099 0.0
H1466 H 0.72878 0.76299 0.08743 0.0
H1467 H 0.74952 0.77064 0.94868 0.0
H1468 H 0.76381 0.75458 0.07915 0.0
H1469 H 0.76899 0.75951 0.14706 0.0
H1470 H 0.77722 0.7929 0.12388 0.0
H1471 H 0.77224 0.78822 0.05572 0.0
C1472 C 0.76325 0.73342 0.91947 0.0
C1473 C 0.77397 0.73512 0.92391 0.0
C1474 C 0.76086 0.74162 0.93004 0.0
C1475 C 0.76917 0.75176 0.9447 0.0
C1476 C 0.78003 0.75374 0.94678 0.0
C1477 C 0.78242 0.7455 0.93644 0.0
C1478 C 0.76619 0.75961 0.96208 0.0
C1479 C 0.76895 0.7626 0.00081 0.0
C1480 C 0.75952 0.763 0.94255 0.0
C1481 C 0.75688 0.76069 0.90102 0.0
C1482 C 0.76536 0.76359 0.8739 0.0
C1483 C 0.76284 0.76128 0.83489 0.0
C1484 C 0.75187 0.7561 0.8226 0.0
C1485 C 0.7434 0.75325 0.84928 0.0
C1486 C 0.74587 0.75554 0.88832 0.0
C1487 C 0.74164 0.78547 0.02874 0.0
C1488 C 0.73375 0.77793 0.05467 0.0
C1489 C 0.74973 0.78351 0.01334 0.0
C1490 C 0.75019 0.7741 0.02421 0.0
C1491 C 0.74289 0.76705 0.05244 0.0
C1492 C 0.73473 0.76893 0.06749 0.0
C1493 C 0.75713 0.7707 0.00256 0.0
C1494 C 0.75506 0.76849 0.96313 0.0
C1495 C 0.76452 0.76814 0.0213 0.0
C1496 C 0.76758 0.77102 0.0623 0.0
C1497 C 0.76678 0.76299 0.08846 0.0
C1498 C 0.76967 0.76574 0.12703 0.0
C1499 C 0.77341 0.7765 0.13979 0.0
C1500 C 0.77428 0.78455 0.11399 0.0
C1501 C 0.77141 0.78185 0.07539 0.0
H1502 H 0.77565 0.77861 0.16965 0.0
H1503 H 0.74994 0.75432 0.79239 0.0
H1504 H 0.23514 0.97009 0.0887 0.0
H1505 H 0.23742 0.98752 0.06561 0.0
H1506 H 0.20324 0.97112 0.03102 0.0
H1507 H 0.20093 0.95354 0.05364 0.0
H1508 H 0.21597 0.98187 0.97277 0.0
H1509 H 0.21279 0.99161 0.0998 0.0
H1510 H 0.21579 0.99363 0.16988 0.0
H1511 H 0.25035 0.01595 0.15196 0.0
H1512 H 0.24761 0.01395 0.08179 0.0
H1513 H 0.24814 0.04732 0.95471 0.0
H1514 H 0.2332 0.03023 0.98189 0.0
H1515 H 0.24648 0.01179 0.92648 0.0
H1516 H 0.26135 0.02876 0.8992 0.0
H1517 H 0.23747 0.0188 0.03289 0.0
H1518 H 0.22738 0.98568 0.9129 0.0
H1519 H 0.22364 0.98366 0.84324 0.0
H1520 H 0.21376 0.00816 0.848 0.0
H1521 H 0.21727 0.01022 0.9178 0.0
C1522 C 0.22801 0.97022 0.07724 0.0
C1523 C 0.21789 0.96042 0.07261 0.0
C1524 C 0.22931 0.98023 0.06419 0.0
C1525 C 0.22049 0.98064 0.04658 0.0
C1526 C 0.21015 0.97099 0.04447 0.0
C1527 C 0.20884 0.96096 0.05754 0.0
C1528 C 0.22262 0.99076 0.02571 0.0
C1529 C 0.22051 0.98995 0.986 0.0
C1530 C 0.22825 0.00129 0.04316 0.0
C1531 C 0.22998 0.00261 0.08543 0.0
C1532 C 0.22104 0.9969 0.11078 0.0
C1533 C 0.2227 -0.00195 0.15054 0.0
C1534 C 0.23325 0.00491 0.16536 0.0
C1535 C 0.24218 0.01065 0.14044 0.0
C1536 C 0.24057 0.00953 0.10065 0.0
C1537 C 0.24766 0.03958 0.94724 0.0
C1538 C 0.256 0.03939 0.92519 0.0
C1539 C 0.23913 0.02983 0.96293 0.0
C1540 C 0.23873 0.01974 0.95634 0.0
C1541 C 0.24652 0.01945 0.93163 0.0
C1542 C 0.25507 0.02918 0.91615 0.0
C1543 C 0.23144 0.00987 0.97966 0.0
C1544 C 0.23261 0.01073 0.01983 0.0
C1545 C 0.22484 -0.00061 0.96269 0.0
C1546 C 0.22263 -0.00188 0.92067 0.0
C1547 C 0.22433 0.99058 0.89918 0.0
C1548 C 0.22227 0.98945 0.85963 0.0
C1549 C 0.21848 0.99579 0.8412 0.0
C1550 C 0.21673 0.00327 0.86229 0.0
C1551 C 0.21877 0.00444 0.90185 0.0
H1552 H 0.2169 0.9949 0.81057 0.0
H1553 H 0.23452 0.00579 0.19615 0.0
H1554 H 0.96593 0.72766 0.89604 0.0
H1555 H 0.98382 0.74051 0.92409 0.0
H1556 H 0.97131 0.76161 0.96076 0.0
H1557 H 0.95327 0.74871 0.93322 0.0
H1558 H -0.00111 0.76864 0.92738 0.0
H1559 H 0.96904 0.75382 0.03093 0.0
H1560 H 0.95151 0.73801 0.05361 0.0
H1561 H 0.96537 0.7168 0.0436 0.0
H1562 H 0.98292 0.73247 0.02043 0.0
H1563 H 0.04223 0.79133 0.06191 0.0
H1564 H 0.0241 0.78658 0.03633 0.0
H1565 H 0.01328 0.75199 0.05006 0.0
H1566 H 0.03113 0.75668 0.07707 0.0
H1567 H 0.9966 0.75454 0.0601 0.0
H1568 H 0.0255 0.76686 0.96451 0.0
H1569 H 0.04328 0.78008 0.93468 0.0
H1570 H 0.03218 0.80349 0.92129 0.0
H1571 H 0.01438 0.79043 0.9515 0.0
C1572 C 0.96707 0.73523 0.90873 0.0
C1573 C 0.95812 0.73707 0.91308 0.0
C1574 C 0.97731 0.74257 0.9247 0.0
C1575 C 0.97877 0.75189 0.9448 0.0
C1576 C 0.97028 0.75442 0.94535 0.0
C1577 C 0.95998 0.74704 0.92957 0.0
C1578 C 0.98827 0.75754 0.97104 0.0
C1579 C -0.00161 0.76584 0.95679 0.0
C1580 C 0.98761 0.75355 0.00878 0.0
C1581 C 0.97722 0.74427 0.0239 0.0
C1582 C 0.96831 0.74577 0.03352 0.0
C1583 C 0.95839 0.73684 0.04641 0.0
C1584 C 0.95733 0.72641 0.05001 0.0
C1585 C 0.9662 0.72488 0.0408 0.0
C1586 C 0.97613 0.73378 0.02784 0.0
C1587 C 0.03586 0.78273 0.06059 0.0
C1588 C 0.03815 0.77437 0.07096 0.0
C1589 C 0.02553 0.78002 0.04567 0.0
C1590 C 0.01744 0.76892 0.04012 0.0
C1591 C 0.01941 0.76062 0.05375 0.0
C1592 C 0.02964 0.76331 0.06924 0.0
C1593 C 0.00741 0.76582 0.01685 0.0
C1594 C -0.00287 0.75779 0.03138 0.0
C1595 C 0.00803 0.76992 0.97902 0.0
C1596 C 0.01868 0.77774 0.96066 0.0
C1597 C 0.02689 0.77485 0.95541 0.0
C1598 C 0.03696 0.78231 0.93842 0.0
C1599 C 0.03887 0.79264 0.92621 0.0
C1600 C 0.0307 0.7955 0.93085 0.0
C1601 C 0.02062 0.78808 0.9479 0.0
H1602 H 0.04668 0.7984 0.91306 0.0
H1603 H 0.94966 0.71951 0.06001 0.0
H1604 H 0.24879 0.20215 0.96552 0.0
H1605 H 0.23503 0.20612 0.99294 0.0
H1606 H 0.24807 0.23572 0.92451 0.0
H1607 H 0.26182 0.23184 0.8971 0.0
H1608 H 0.24117 0.22415 0.03677 0.0
H1609 H 0.2285 0.24244 0.90857 0.0
H1610 H 0.22351 0.23829 0.84017 0.0
H1611 H 0.21372 0.20431 0.85943 0.0
H1612 H 0.2185 0.2082 0.92806 0.0
H1613 H 0.23608 0.27024 0.08081 0.0
H1614 H 0.23973 0.25577 0.05968 0.0
H1615 H 0.20539 0.23506 0.03023 0.0
H1616 H 0.2017 0.24964 0.05067 0.0
H1617 H 0.2178 0.23661 0.97158 0.0
H1618 H 0.21726 0.22769 0.10328 0.0
H1619 H 0.2216 0.23109 0.17237 0.0
H1620 H 0.25603 0.24441 0.14793 0.0
H1621 H 0.25194 0.24125 0.07864 0.0
C1622 C 0.24849 0.20932 0.95536 0.0
C1623 C 0.25645 0.21675 0.92941 0.0
C1624 C 0.24066 0.21159 0.97122 0.0
C1625 C 0.24055 0.22123 0.96088 0.0
C1626 C 0.24792 0.22818 0.93265 0.0
C1627 C 0.25581 0.22597 0.91705 0.0
C1628 C 0.23392 0.22491 0.98304 0.0
C1629 C 0.23592 0.22674 0.02267 0.0
C1630 C 0.2269 0.22806 0.96476 0.0
C1631 C 0.22392 0.22564 0.9235 0.0
C1632 C 0.22522 0.23407 0.8983 0.0
C1633 C 0.22244 0.23176 0.85945 0.0
C1634 C 0.21832 0.22105 0.84545 0.0
C1635 C 0.21695 0.21261 0.87029 0.0
C1636 C 0.21971 0.21487 0.90916 0.0
C1637 C 0.22924 0.26251 0.07078 0.0
C1638 C 0.21862 0.26112 0.06715 0.0
C1639 C 0.23133 0.2542 0.05881 0.0
C1640 C 0.22282 0.2443 0.04343 0.0
C1641 C 0.21208 0.24264 0.04193 0.0
C1642 C 0.20998 0.25097 0.05378 0.0
C1643 C 0.22548 0.23634 0.02497 0.0
C1644 C 0.22278 0.23376 0.98598 0.0
C1645 C 0.23177 0.23239 0.04396 0.0
C1646 C 0.23428 0.23426 0.08569 0.0
C1647 C 0.22577 0.23141 0.1126 0.0
C1648 C 0.22818 0.23328 0.15182 0.0
C1649 C 0.23908 0.23797 0.16453 0.0
C1650 C 0.24759 0.24077 0.13805 0.0
C1651 C 0.24523 0.23892 0.0988 0.0
H1652 H 0.24093 0.23942 0.1949 0.0
H1653 H 0.21618 0.21929 0.81537 0.0
H1654 H 0.76091 0.02758 0.88169 0.0
H1655 H 0.75703 0.01009 0.91046 0.0
H1656 H 0.78759 0.02676 0.97371 0.0
H1657 H 0.7917 0.04425 0.94415 0.0
H1658 H 0.78141 0.00494 0.95941 0.0
H1659 H 0.76617 0.02564 0.01403 0.0
H1660 H 0.7564 0.03621 0.01282 0.0
H1661 H 0.727 0.00754 0.97301 0.0
H1662 H 0.73666 0.99685 0.97331 0.0
H1663 H 0.73558 0.96529 0.1107 0.0
H1664 H 0.74943 0.98358 0.08791 0.0
H1665 H 0.75586 0.96868 0.98981 0.0
H1666 H 0.74261 0.95047 0.01385 0.0
H1667 H 0.74615 0.99164 0.02989 0.0
H1668 H 0.77862 0.98592 0.94119 0.0
H1669 H 0.78986 0.97698 0.94872 0.0
H1670 H 0.78727 0.97792 0.07153 0.0
H1671 H 0.77614 0.98701 0.06481 0.0
C1672 C 0.76701 0.02746 0.90053 0.0
C1673 C 0.77648 0.0373 0.91134 0.0
C1674 C 0.76478 0.01746 0.917 0.0
C1675 C 0.77188 0.01722 0.94505 0.0
C1676 C 0.78198 0.0268 0.95236 0.0
C1677 C 0.78429 0.03679 0.93545 0.0
C1678 C 0.76784 0.00763 0.97123 0.0
C1679 C 0.7737 0.00196 0.97487 0.0
C1680 C 0.75809 0.00414 0.99292 0.0
C1681 C 0.75217 0.01047 0.99341 0.0
C1682 C 0.75764 0.02161 0.00482 0.0
C1683 C 0.75212 0.02762 0.00429 0.0
C1684 C 0.74109 0.02256 0.99278 0.0
C1685 C 0.73554 0.01145 0.98188 0.0
C1686 C 0.74104 0.00541 0.98224 0.0
C1687 C 0.7403 0.96593 0.08514 0.0
C1688 C 0.73796 0.95649 0.06385 0.0
C1689 C 0.74817 0.97638 0.07199 0.0
C1690 C 0.75365 0.97758 0.03684 0.0
C1691 C 0.75194 0.96807 0.01728 0.0
C1692 C 0.74429 0.95761 0.031 0.0
C1693 C 0.75947 0.98852 0.01744 0.0
C1694 C 0.75393 0.99454 0.01499 0.0
C1695 C 0.76971 0.99249 -0.00185 0.0
C1696 C 0.77646 0.98709 0.00245 0.0
C1697 C 0.78049 0.98428 0.96982 0.0
C1698 C 0.78683 0.97917 0.97395 0.0
C1699 C 0.78925 0.97686 0.01057 0.0
C1700 C 0.78535 0.97968 0.04317 0.0
C1701 C 0.77901 0.98479 0.03921 0.0
H1702 H 0.79416 0.9729 0.0137 0.0
H1703 H 0.73683 0.02723 0.99238 0.0
H1704 H 0.62932 0.57404 0.25616 0.0
H1705 H 0.64705 0.578 0.28173 0.0
H1706 H 0.63636 0.54323 0.28193 0.0
H1707 H 0.61825 0.53915 0.25784 0.0
H1708 H 0.64503 0.55119 0.34733 0.0
H1709 H 0.65768 0.56249 0.22018 0.0
H1710 H 0.65999 0.57171 0.15768 0.0
H1711 H 0.6759 0.60332 0.21344 0.0
H1712 H 0.67354 0.5943 0.27635 0.0
H1713 H 0.70797 0.58147 0.38342 0.0
H1714 H 0.69024 0.56856 0.35387 0.0
H1715 H 0.67556 0.5862 0.4052 0.0
H1716 H 0.69315 0.59908 0.43504 0.0
H1717 H 0.68093 0.58285 0.30682 0.0
H1718 H 0.66124 0.56837 0.43515 0.0
H1719 H 0.65958 0.55834 0.49541 0.0
H1720 H 0.65843 0.5316 0.43092 0.0
H1721 H 0.66022 0.54157 0.37033 0.0
C1722 C 0.6308 0.56723 0.26075 0.0
C1723 C 0.62237 0.55628 0.25503 0.0
C1724 C 0.641 0.56951 0.27523 0.0
C1725 C 0.64315 0.56093 0.28336 0.0
C1726 C 0.63492 0.54999 0.27586 0.0
C1727 C 0.6246 0.54768 0.26188 0.0
C1728 C 0.65355 0.56345 0.30318 0.0
C1729 C 0.6529 0.55798 0.33789 0.0
C1730 C 0.66392 0.5722 0.29094 0.0
C1731 C 0.6654 0.5777 0.25307 0.0
C1732 C 0.66162 0.57141 0.21917 0.0
C1733 C 0.66294 0.5766 0.18365 0.0
C1734 C 0.66808 0.58809 0.1816 0.0
C1735 C 0.67192 0.59442 0.21507 0.0
C1736 C 0.67062 0.58927 0.25066 0.0
C1737 C 0.70086 0.58233 0.38978 0.0
C1738 C 0.70199 0.5914 0.41112 0.0
C1739 C 0.69074 0.57494 0.37286 0.0
C1740 C 0.68164 0.57644 0.37757 0.0
C1741 C 0.68248 0.58483 0.40179 0.0
C1742 C 0.69256 0.59221 0.4187 0.0
C1743 C 0.67213 0.571 0.35131 0.0
C1744 C 0.67305 0.57591 0.31541 0.0
C1745 C 0.6621 0.56169 0.36209 0.0
C1746 C 0.66101 0.55576 0.39841 0.0
C1747 C 0.66075 0.56041 0.43391 0.0
C1748 C 0.65975 0.55472 0.46809 0.0
C1749 C 0.65894 0.54436 0.46701 0.0
C1750 C 0.65909 0.53964 0.43173 0.0
C1751 C 0.6601 0.5453 0.39749 0.0
H1752 H 0.65816 0.53996 0.49349 0.0
H1753 H 0.66909 0.59209 0.15407 0.0
H1754 H 0.42745 0.06387 0.2459 0.0
H1755 H 0.42457 0.07844 0.27139 0.0
H1756 H 0.45645 0.0934 0.32647 0.0
H1757 H 0.45934 0.0787 0.30134 0.0
H1758 H 0.441 0.0899 0.37694 0.0
H1759 H 0.45134 0.10744 0.25607 0.0
H1760 H 0.45197 0.10913 0.18544 0.0
H1761 H 0.41738 0.09842 0.18311 0.0
H1762 H 0.41649 0.09651 0.25367 0.0
H1763 H 0.41342 0.12765 0.3857 0.0
H1764 H 0.42807 0.12423 0.36396 0.0
H1765 H 0.41 0.09112 0.40908 0.0
H1766 H 0.39543 0.0945 0.43114 0.0
H1767 H 0.42478 0.1097 0.30976 0.0
H1768 H 0.42644 0.08105 0.4288 0.0
H1769 H 0.42665 0.08022 0.49958 0.0
H1770 H 0.43937 0.11517 0.506 0.0
H1771 H 0.4394 0.11625 0.43525 0.0
C1772 C 0.43399 0.07041 0.26254 0.0
C1773 C 0.44358 0.07007 0.27188 0.0
C1774 C 0.43236 0.07879 0.27699 0.0
C1775 C 0.4403 0.08703 0.30085 0.0
C1776 C 0.45021 0.08712 0.30816 0.0
C1777 C 0.45186 0.07873 0.29362 0.0
C1778 C 0.43754 0.09457 0.32189 0.0
C1779 C 0.4376 0.09437 0.36227 0.0
C1780 C 0.43338 0.10065 0.30278 0.0
C1781 C 0.43385 0.10181 0.26025 0.0
C1782 C 0.44385 0.10538 0.2405 0.0
C1783 C 0.44425 0.10639 0.20046 0.0
C1784 C 0.43472 0.10387 0.1798 0.0
C1785 C 0.42476 0.10037 0.19915 0.0
C1786 C 0.42431 0.09935 0.2392 0.0
C1787 C 0.41274 0.11976 0.3921 0.0
C1788 C 0.40321 0.1113 0.40982 0.0
C1789 C 0.4211 0.11781 0.37949 0.0
C1790 C 0.42013 0.10742 0.38478 0.0
C1791 C 0.41102 0.09925 0.40508 0.0
C1792 C 0.40265 0.10118 0.41758 0.0
C1793 C 0.42768 0.1045 0.36471 0.0
C1794 C 0.42848 0.10552 0.32449 0.0
C1795 C 0.43276 0.0993 0.38399 0.0
C1796 C 0.43288 0.09872 0.42663 0.0
C1797 C 0.42936 0.08858 0.44527 0.0
C1798 C 0.42941 0.08806 0.48541 0.0
C1799 C 0.433 0.09763 0.50727 0.0
C1800 C 0.43656 0.10776 0.48903 0.0
C1801 C 0.43653 0.10832 0.4489 0.0
H1802 H 0.43304 0.09721 0.53834 0.0
H1803 H 0.43505 0.10465 0.1488 0.0
H1804 H 0.87045 0.28385 0.35498 0.0
H1805 H 0.87559 0.30163 0.32543 0.0
H1806 H 0.90194 0.31803 0.40772 0.0
H1807 H 0.89706 0.30027 0.43673 0.0
H1808 H 0.88004 0.32294 0.34036 0.0
H1809 H 0.9253 0.33307 0.35903 0.0
H1810 H 0.9355 0.3231 0.3689 0.0
H1811 H 0.90954 0.29449 0.31314 0.0
H1812 H 0.89929 0.30436 0.30234 0.0
H1813 H 0.91914 0.37872 0.30255 0.0
H1814 H 0.9059 0.36002 0.32235 0.0
H1815 H 0.91783 0.34712 0.23322 0.0
H1816 H 0.93157 0.36593 0.21474 0.0
H1817 H 0.91865 0.33865 0.29498 0.0
H1818 H 0.8901 0.34238 0.2375 0.0
H1819 H 0.87895 0.35097 0.22112 0.0
H1820 H 0.86999 0.34991 0.33979 0.0
H1821 H 0.88121 0.34146 0.35701 0.0
C1822 C 0.8771 0.29128 0.36766 0.0
C1823 C 0.88353 0.29067 0.3976 0.0
C1824 C 0.88 0.30144 0.35074 0.0
C1825 C 0.88932 0.31108 0.36377 0.0
C1826 C 0.89484 0.31063 0.39681 0.0
C1827 C 0.89204 0.30048 0.41341 0.0
C1828 C 0.89441 0.32109 0.3394 0.0
C1829 C 0.88848 0.32644 0.33039 0.0
C1830 C 0.90522 0.32531 0.32487 0.0
C1831 C 0.91149 0.31943 0.33022 0.0
C1832 C 0.92181 0.32468 0.34867 0.0
C1833 C 0.92759 0.31904 0.35445 0.0
C1834 C 0.92315 0.30816 0.34175 0.0
C1835 C 0.91295 0.30291 0.32305 0.0
C1836 C 0.90716 0.30852 0.3171 0.0
C1837 C 0.91875 0.37191 0.28644 0.0
C1838 C 0.92649 0.37377 0.25741 0.0
C1839 C 0.91109 0.36117 0.29766 0.0
C1840 C 0.91082 0.35209 0.27936 0.0
C1841 C 0.91792 0.35397 0.24805 0.0
C1842 C 0.92575 0.36472 0.23738 0.0
C1843 C 0.90447 0.3409 0.29662 0.0
C1844 C 0.91017 0.33523 0.3044 0.0
C1845 C 0.89334 0.33626 0.30874 0.0
C1846 C 0.88657 0.34135 0.29858 0.0
C1847 C 0.88582 0.34406 0.26017 0.0
C1848 C 0.87947 0.34889 0.25072 0.0
C1849 C 0.87378 0.351 0.27941 0.0
C1850 C 0.87441 0.34827 0.3176 0.0
C1851 C 0.88074 0.34344 0.32721 0.0
H1852 H 0.86887 0.35475 0.27203 0.0
H1853 H 0.92763 0.3038 0.34635 0.0
H1854 H 0.71198 0.12512 0.34276 0.0
H1855 H 0.6937 0.12051 0.32017 0.0
H1856 H 0.679 0.09816 0.41585 0.0
H1857 H 0.69732 0.10227 0.43706 0.0
H1858 H 0.67051 0.08756 0.35649 0.0
H1859 H 0.67627 0.12218 0.39903 0.0
H1860 H 0.68591 0.14234 0.4081 0.0
H1861 H 0.68577 0.14698 0.28611 0.0
H1862 H 0.67627 0.12684 0.27622 0.0
H1863 H 0.61713 0.08168 0.28734 0.0
H1864 H 0.63512 0.09482 0.31433 0.0
H1865 H 0.65068 0.08196 0.23988 0.0
H1866 H 0.63272 0.06863 0.21337 0.0
H1867 H 0.6571 0.11078 0.29593 0.0
H1868 H 0.6643 0.07351 0.29655 0.0
H1869 H 0.65326 0.05319 0.29358 0.0
H1870 H 0.6256 0.05401 0.34347 0.0
H1871 H 0.63654 0.07431 0.3474 0.0
C1872 C 0.70487 0.11949 0.35967 0.0
C1873 C 0.70604 0.11395 0.39141 0.0
C1874 C 0.69438 0.11688 0.34681 0.0
C1875 C 0.6849 0.10893 0.36614 0.0
C1876 C 0.68616 0.10423 0.40013 0.0
C1877 C 0.69663 0.10661 0.41239 0.0
C1878 C 0.67385 0.10424 0.3477 0.0
C1879 C 0.6676 0.09272 0.34374 0.0
C1880 C 0.66988 0.11085 0.33112 0.0
C1881 C 0.67561 0.12298 0.33688 0.0
C1882 C 0.67837 0.12749 0.3741 0.0
C1883 C 0.68379 0.13892 0.3794 0.0
C1884 C 0.68647 0.14594 0.3477 0.0
C1885 C 0.6837 0.14154 0.31064 0.0
C1886 C 0.67827 0.13011 0.30517 0.0
C1887 C 0.62442 0.08192 0.27562 0.0
C1888 C 0.6235 0.07394 0.24892 0.0
C1889 C 0.63471 0.08947 0.29106 0.0
C1890 C 0.64416 0.08915 0.27977 0.0
C1891 C 0.64343 0.0822 0.24938 0.0
C1892 C 0.63316 0.07459 0.23424 0.0
C1893 C 0.65416 0.0943 0.30425 0.0
C1894 C 0.66011 0.10578 0.30921 0.0
C1895 C 0.65773 0.08767 0.32302 0.0
C1896 C 0.65121 0.07543 0.32188 0.0
C1897 C 0.65588 0.06935 0.30709 0.0
C1898 C 0.64965 0.05783 0.30523 0.0
C1899 C 0.63873 0.05231 0.31822 0.0
C1900 C 0.63405 0.05829 0.33332 0.0
C1901 C 0.64026 0.0698 0.33537 0.0
H1902 H 0.63391 0.04341 0.31665 0.0
H1903 H 0.69067 0.15479 0.35186 0.0
H1904 H 0.90272 0.60357 0.41278 0.0
H1905 H 0.90688 0.59043 0.38171 0.0
H1906 H 0.87298 0.57089 0.34578 0.0
H1907 H 0.86872 0.5841 0.37637 0.0
H1908 H 0.89254 0.56245 0.37877 0.0
H1909 H 0.87858 0.57817 0.27602 0.0
H1910 H 0.87752 0.59426 0.25251 0.0
H1911 H 0.91278 0.61435 0.25963 0.0
H1912 H 0.91401 0.59838 0.28362 0.0
H1913 H 0.91505 0.54023 0.24968 0.0
H1914 H 0.90096 0.54451 0.27137 0.0
H1915 H 0.92436 0.57929 0.26005 0.0
H1916 H 0.93819 0.57507 0.23672 0.0
H1917 H 0.90528 0.5765 0.24662 0.0
H1918 H 0.92075 0.56382 0.34631 0.0
H1919 H 0.92473 0.5503 0.37711 0.0
H1920 H 0.89003 0.52694 0.38381 0.0
H1921 H 0.88587 0.5403 0.35264 0.0
C1922 C 0.89605 0.5963 0.39938 0.0
C1923 C 0.88543 0.59496 0.3965 0.0
C1924 C 0.89845 0.5888 0.38169 0.0
C1925 C 0.89025 0.57981 0.36121 0.0
C1926 C 0.8794 0.57783 0.36144 0.0
C1927 C 0.87699 0.58538 0.37896 0.0
C1928 C 0.89357 0.57374 0.33489 0.0
C1929 C 0.89501 0.56522 0.34943 0.0
C1930 C 0.89709 0.57766 0.29719 0.0
C1931 C 0.89637 0.58713 0.28173 0.0
C1932 C 0.88609 0.58603 0.27267 0.0
C1933 C 0.88546 0.59512 0.25928 0.0
C1934 C 0.89508 0.60533 0.25463 0.0
C1935 C 0.90534 0.60645 0.26326 0.0
C1936 C 0.90601 0.59738 0.2767 0.0
C1937 C 0.91706 0.54877 0.25065 0.0
C1938 C 0.92779 0.55733 0.24215 0.0
C1939 C 0.90902 0.55121 0.26333 0.0
C1940 C 0.9117 0.56223 0.26854 0.0
C1941 C 0.92209 0.57072 0.25657 0.0
C1942 C 0.93003 0.56829 0.24327 0.0
C1943 C 0.90435 0.56512 0.2903 0.0
C1944 C 0.90232 0.57323 0.27518 0.0
C1945 C 0.90052 0.56097 0.32783 0.0
C1946 C 0.90301 0.55298 0.34676 0.0
C1947 C 0.91398 0.55578 0.35419 0.0
C1948 C 0.91627 0.54815 0.3717 0.0
C1949 C 0.90764 0.53776 0.38229 0.0
C1950 C 0.89671 0.53498 0.3755 0.0
C1951 C 0.89438 0.54257 0.35792 0.0
H1952 H 0.90942 0.53186 0.39585 0.0
H1953 H 0.89458 0.61235 0.24426 0.0
H1954 H 0.45846 0.37873 0.28979 0.0
H1955 H 0.45497 0.3615 0.3198 0.0
H1956 H 0.42348 0.34417 0.26241 0.0
H1957 H 0.42684 0.3614 0.23262 0.0
H1958 H 0.43753 0.3507 0.36986 0.0
H1959 H 0.41703 0.31743 0.2496 0.0
H1960 H 0.41977 0.31536 0.18072 0.0
H1961 H 0.45397 0.34007 0.19035 0.0
H1962 H 0.45149 0.34219 0.2594 0.0
H1963 H 0.39261 0.3001 0.42587 0.0
H1964 H 0.40688 0.31802 0.40283 0.0
H1965 H 0.42717 0.30407 0.37115 0.0
H1966 H 0.41274 0.28596 0.3934 0.0
H1967 H 0.4244 0.31383 0.31191 0.0
H1968 H 0.4357 0.32471 0.44087 0.0
H1969 H 0.4335 0.32687 0.51014 0.0
H1970 H 0.4193 0.34714 0.4846 0.0
H1971 H 0.42126 0.34499 0.41519 0.0
C1972 C 0.45094 0.3712 0.28259 0.0
C1973 C 0.44286 0.37144 0.25914 0.0
C1974 C 0.44895 0.36137 0.29993 0.0
C1975 C 0.43896 0.3516 0.29349 0.0
C1976 C 0.43129 0.35163 0.26755 0.0
C1977 C 0.43321 0.36148 0.25056 0.0
C1978 C 0.43582 0.34174 0.31755 0.0
C1979 C 0.43478 0.34264 0.35736 0.0
C1980 C 0.43248 0.33129 0.30123 0.0
C1981 C 0.43404 0.33001 0.2597 0.0
C1982 C 0.42515 0.32238 0.2371 0.0
C1983 C 0.42665 0.32121 0.19799 0.0
C1984 C 0.43703 0.32759 0.18115 0.0
C1985 C 0.44593 0.33516 0.2034 0.0
C1986 C 0.44447 0.33636 0.24251 0.0
C1987 C 0.40025 0.30089 0.41515 0.0
C1988 C 0.40149 0.29158 0.41104 0.0
C1989 C 0.40845 0.31119 0.40207 0.0
C1990 C 0.41812 0.31241 0.38517 0.0
C1991 C 0.41976 0.3033 0.38395 0.0
C1992 C 0.41152 0.29297 0.39686 0.0
C1993 C 0.42562 0.32271 0.36411 0.0
C1994 C 0.42741 0.3219 0.32475 0.0
C1995 C 0.42973 0.33325 0.38093 0.0
C1996 C 0.42861 0.33465 0.42274 0.0
C1997 C 0.43205 0.32958 0.45 0.0
C1998 C 0.43085 0.33081 0.48931 0.0
C1999 C 0.42626 0.33713 0.50176 0.0
C2000 C 0.42287 0.34226 0.47492 0.0
C2001 C 0.42404 0.34105 0.43558 0.0
H2002 H 0.42533 0.33807 0.5322 0.0
H2003 H 0.43818 0.32667 0.15087 0.0
H2004 H 0.28568 0.87178 0.59649 0.0
H2005 H 0.304 0.87661 0.62077 0.0
H2006 H 0.31416 0.91118 0.61194 0.0
H2007 H 0.29628 0.90644 0.58576 0.0
H2008 H 0.33085 0.90959 0.59883 0.0
H2009 H 0.30248 0.89438 0.69777 0.0
H2010 H 0.2853 0.87989 0.72757 0.0
H2011 H 0.29849 0.858 0.72992 0.0
H2012 H 0.31571 0.87234 0.69973 0.0
H2013 H 0.36277 0.93707 0.75751 0.0
H2014 H 0.34516 0.92463 0.72687 0.0
H2015 H 0.35627 0.90156 0.70271 0.0
H2016 H 0.37409 0.91407 0.73279 0.0
H2017 H 0.33025 0.89422 0.72802 0.0
H2018 H 0.36063 0.91308 0.63448 0.0
H2019 H 0.37737 0.92986 0.61245 0.0
H2020 H 0.35933 0.94721 0.60699 0.0
H2021 H 0.34253 0.93058 0.62976 0.0
C2022 C 0.29195 0.8804 0.59872 0.0
C2023 C 0.28949 0.88873 0.58968 0.0
C2024 C 0.30239 0.88316 0.61296 0.0
C2025 C 0.31039 0.89426 0.61934 0.0
C2026 C 0.30816 0.90255 0.60753 0.0
C2027 C 0.29787 0.89981 0.59259 0.0
C2028 C 0.3207 0.89745 0.64116 0.0
C2029 C 0.33068 0.90611 0.62687 0.0
C2030 C 0.32061 0.89294 0.67783 0.0
C2031 C 0.3103 0.88436 0.69608 0.0
C2032 C 0.30168 0.88645 0.70445 0.0
C2033 C 0.29195 0.87827 0.72142 0.0
C2034 C 0.29079 0.86802 0.73051 0.0
C2035 C 0.29939 0.86594 0.72277 0.0
C2036 C 0.30913 0.87408 0.70573 0.0
C2037 C 0.36137 0.92919 0.7469 0.0
C2038 C 0.36988 0.92663 0.74704 0.0
C2039 C 0.3513 0.92211 0.72937 0.0
C2040 C 0.34954 0.9123 0.71221 0.0
C2041 C 0.35754 0.90913 0.71583 0.0
C2042 C 0.3677 0.91628 0.73304 0.0
C2043 C 0.34013 0.9064 0.68579 0.0
C2044 C 0.3304 0.89734 0.69935 0.0
C2045 C 0.34034 0.91074 0.64892 0.0
C2046 C 0.35036 0.92062 0.6341 0.0
C2047 C 0.36026 0.9205 0.62886 0.0
C2048 C 0.36975 0.92998 0.61622 0.0
C2049 C 0.36942 0.9396 0.60839 0.0
C2050 C 0.35958 0.93975 0.61309 0.0
C2051 C 0.35007 0.9303 0.62584 0.0
H2052 H 0.37677 0.94693 0.59861 0.0
H2053 H 0.28325 0.8617 0.74365 0.0
H2054 H 0.08041 0.45995 0.707 0.0
H2055 H 0.09417 0.45608 0.67913 0.0
H2056 H 0.08118 0.42631 0.74651 0.0
H2057 H 0.06727 0.42998 0.7739 0.0
H2058 H 0.11035 0.45014 0.69687 0.0
H2059 H 0.07343 0.40553 0.68413 0.0
H2060 H 0.05309 0.3961 0.68317 0.0
H2061 H 0.05445 0.42546 0.6396 0.0
H2062 H 0.07478 0.43499 0.6396 0.0
H2063 H 0.12609 0.41093 0.64886 0.0
H2064 H 0.12095 0.42425 0.67093 0.0
H2065 H 0.10001 0.41724 0.57144 0.0
H2066 H 0.10458 0.40331 0.55074 0.0
H2067 H 0.08847 0.41456 0.62814 0.0
H2068 H 0.12342 0.44411 0.59375 0.0
H2069 H 0.14368 0.455 0.58812 0.0
H2070 H 0.14659 0.45826 0.71095 0.0
H2071 H 0.12635 0.44725 0.7174 0.0
C2072 C 0.08075 0.4528 0.71705 0.0
C2073 C 0.07259 0.44511 0.74192 0.0
C2074 C 0.08865 0.45063 0.70111 0.0
C2075 C 0.08849 0.44078 0.71007 0.0
C2076 C 0.08131 0.43388 0.73882 0.0
C2077 C 0.07336 0.43598 0.75447 0.0
C2078 C 0.09411 0.43663 0.68469 0.0
C2079 C 0.10565 0.44237 0.68176 0.0
C2080 C 0.08788 0.4268 0.66344 0.0
C2081 C 0.07563 0.421 0.66224 0.0
C2082 C 0.06939 0.40995 0.67412 0.0
C2083 C 0.05786 0.40459 0.67376 0.0
C2084 C 0.05248 0.41018 0.66144 0.0
C2085 C 0.05862 0.42114 0.64924 0.0
C2086 C 0.07015 0.42652 0.64942 0.0
C2087 C 0.12067 0.41249 0.63102 0.0
C2088 C 0.11563 0.40601 0.59833 0.0
C2089 C 0.11777 0.42019 0.6436 0.0
C2090 C 0.11004 0.42178 0.62302 0.0
C2091 C 0.10589 0.41609 0.58814 0.0
C2092 C 0.10854 0.40817 0.57616 0.0
C2093 C 0.10492 0.42782 0.64099 0.0
C2094 C 0.09334 0.42241 0.64263 0.0
C2095 C 0.11116 0.43815 0.65969 0.0
C2096 C 0.12335 0.44478 0.65605 0.0
C2097 C 0.12838 0.44707 0.61959 0.0
C2098 C 0.13986 0.45329 0.61625 0.0
C2099 C 0.14642 0.45731 0.64916 0.0
C2100 C 0.1415 0.45514 0.68548 0.0
C2101 C 0.13002 0.44893 0.68899 0.0
H2102 H 0.15531 0.46211 0.6465 0.0
H2103 H 0.04355 0.40603 0.66128 0.0
H2104 H 0.56051 0.63388 0.77937 0.0
H2105 H 0.56492 0.65225 0.75777 0.0
H2106 H 0.53948 0.63754 0.67123 0.0
H2107 H 0.53464 0.61927 0.69424 0.0
H2108 H 0.57385 0.65941 0.6948 0.0
H2109 H 0.53312 0.6553 0.63078 0.0
H2110 H 0.51366 0.64756 0.64986 0.0
H2111 H 0.52266 0.64932 0.76874 0.0
H2112 H 0.54219 0.65723 0.75047 0.0
H2113 H 0.59084 0.69457 0.54468 0.0
H2114 H 0.57755 0.67739 0.57611 0.0
H2115 H 0.56735 0.69539 0.65012 0.0
H2116 H 0.58031 0.71255 0.61788 0.0
H2117 H 0.55073 0.67396 0.64164 0.0
H2118 H 0.5886 0.6934 0.67776 0.0
H2119 H 0.60869 0.70311 0.66645 0.0
H2120 H 0.6061 0.67343 0.62032 0.0
H2121 H 0.58595 0.66359 0.63075 0.0
C2122 C 0.55556 0.63459 0.75682 0.0
C2123 C 0.54732 0.62516 0.7382 0.0
C2124 C 0.55812 0.6451 0.74432 0.0
C2125 C 0.55265 0.64634 0.71247 0.0
C2126 C 0.54375 0.63689 0.69615 0.0
C2127 C 0.54102 0.62639 0.70927 0.0
C2128 C 0.55741 0.65714 0.69223 0.0
C2129 C 0.56874 0.66259 0.68368 0.0
C2130 C 0.55088 0.66149 0.67796 0.0
C2131 C 0.53913 0.65678 0.68918 0.0
C2132 C 0.53096 0.65409 0.661 0.0
C2133 C 0.51991 0.64966 0.67168 0.0
C2134 C 0.51692 0.64792 0.71048 0.0
C2135 C 0.52498 0.65063 0.73869 0.0
C2136 C 0.53604 0.65507 0.72818 0.0
C2137 C 0.58541 0.6948 0.56644 0.0
C2138 C 0.58679 0.70492 0.57943 0.0
C2139 C 0.57785 0.68499 0.58448 0.0
C2140 C 0.57176 0.6852 0.6163 0.0
C2141 C 0.57205 0.69507 0.62589 0.0
C2142 C 0.57949 0.70488 0.60738 0.0
C2143 C 0.56693 0.67579 0.6435 0.0
C2144 C 0.55571 0.6707 0.65328 0.0
C2145 C 0.57361 0.67198 0.66038 0.0
C2146 C 0.58576 0.67779 0.65475 0.0
C2147 C 0.59231 0.68896 0.66502 0.0
C2148 C 0.6037 0.69449 0.65876 0.0
C2149 C 0.60866 0.68889 0.64261 0.0
C2150 C 0.60224 0.67775 0.63279 0.0
C2151 C 0.59083 0.6722 0.63888 0.0
H2152 H 0.61749 0.69319 0.63778 0.0
H2153 H 0.50836 0.64449 0.71868 0.0
H2154 H 0.37859 0.4634 0.70421 0.0
H2155 H 0.36138 0.4609 0.677 0.0
H2156 H 0.34363 0.42851 0.72803 0.0
H2157 H 0.36073 0.43098 0.75549 0.0
H2158 H 0.3505 0.44595 0.62389 0.0
H2159 H 0.31717 0.42019 0.74029 0.0
H2160 H 0.31477 0.42064 0.81036 0.0
H2161 H 0.33841 0.4553 0.81223 0.0
H2162 H 0.34084 0.45511 0.74209 0.0
H2163 H 0.30256 0.40008 0.559 0.0
H2164 H 0.31977 0.41515 0.58379 0.0
H2165 H 0.30242 0.43117 0.62705 0.0
H2166 H 0.28505 0.41592 0.60289 0.0
H2167 H 0.31325 0.42858 0.68264 0.0
H2168 H 0.32328 0.44402 0.55884 0.0
H2169 H 0.32571 0.44458 0.4885 0.0
H2170 H 0.34863 0.43285 0.50082 0.0
H2171 H 0.34623 0.43206 0.57118 0.0
C2172 C 0.37096 0.4559 0.71076 0.0
C2173 C 0.37104 0.44733 0.73167 0.0
C2174 C 0.36114 0.45447 0.69501 0.0
C2175 C 0.35122 0.44451 0.70029 0.0
C2176 C 0.35115 0.43632 0.72388 0.0
C2177 C 0.36096 0.43773 0.73952 0.0
C2178 C 0.34132 0.44189 0.67694 0.0
C2179 C 0.34235 0.44231 0.6367 0.0
C2180 C 0.33072 0.43744 0.69361 0.0
C2181 C 0.32922 0.43762 0.73585 0.0
C2182 C 0.32181 0.42793 0.75556 0.0
C2183 C 0.32045 0.42814 0.79534 0.0
C2184 C 0.32644 0.43799 0.81574 0.0
C2185 C 0.33379 0.44767 0.79641 0.0
C2186 C 0.33518 0.44751 0.75664 0.0
C2187 C 0.30244 0.40697 0.57266 0.0
C2188 C 0.29241 0.40672 0.57941 0.0
C2189 C 0.31232 0.41565 0.58673 0.0
C2190 C 0.31241 0.42432 0.60742 0.0
C2191 C 0.30254 0.42456 0.61131 0.0
C2192 C 0.29263 0.41585 0.59729 0.0
C2193 C 0.3224 0.43203 0.62965 0.0
C2194 C 0.32139 0.43253 0.66971 0.0
C2195 C 0.33302 0.43747 0.61277 0.0
C2196 C 0.33455 0.43796 0.57038 0.0
C2197 C 0.3288 0.4415 0.54656 0.0
C2198 C 0.33018 0.44186 0.50666 0.0
C2199 C 0.33732 0.43875 0.4902 0.0
C2200 C 0.34311 0.43527 0.51361 0.0
C2201 C 0.34176 0.43489 0.55353 0.0
H2202 H 0.33837 0.43903 0.45931 0.0
H2203 H 0.32538 0.43813 0.84653 0.0
H2204 H 0.60286 0.90303 0.55164 0.0
H2205 H 0.58994 0.90832 0.57719 0.0
H2206 H 0.57067 0.8761 0.6282 0.0
H2207 H 0.58364 0.87076 0.60309 0.0
H2208 H 0.56824 0.90234 0.58099 0.0
H2209 H 0.56687 0.88039 0.72247 0.0
H2210 H 0.57732 0.87284 0.75525 0.0
H2211 H 0.6069 0.89628 0.69683 0.0
H2212 H 0.59666 0.90406 0.66422 0.0
H2213 H 0.53917 0.91753 0.70772 0.0
H2214 H 0.54421 0.9046 0.68007 0.0
H2215 H 0.57736 0.92447 0.72305 0.0
H2216 H 0.57241 0.93744 0.75088 0.0
H2217 H 0.57075 0.90236 0.72349 0.0
H2218 H 0.57192 0.92973 0.63692 0.0
H2219 H 0.56425 0.93997 0.60366 0.0
H2220 H 0.53945 0.90995 0.55119 0.0
H2221 H 0.54688 0.8995 0.58469 0.0
C2222 C 0.59566 0.89692 0.56707 0.0
C2223 C 0.59442 0.88657 0.57615 0.0
C2224 C 0.58826 0.89996 0.58163 0.0
C2225 C 0.57953 0.8927 0.60543 0.0
C2226 C 0.57748 0.88188 0.61042 0.0
C2227 C 0.58489 0.87883 0.59588 0.0
C2228 C 0.57388 0.89706 0.62976 0.0
C2229 C 0.56859 0.90216 0.61214 0.0
C2230 C 0.57468 0.89713 0.67041 0.0
C2231 C 0.58097 0.8927 0.69059 0.0
C2232 C 0.57561 0.88395 0.71677 0.0
C2233 C 0.5815 0.87963 0.7353 0.0
C2234 C 0.59276 0.88405 0.72801 0.0
C2235 C 0.59817 0.89284 0.70235 0.0
C2236 C 0.59233 0.8972 0.68384 0.0
C2237 C 0.54745 0.91898 0.71236 0.0
C2238 C 0.55546 0.92861 0.73094 0.0
C2239 C 0.55031 0.91159 0.69641 0.0
C2240 C 0.5612 0.91371 0.69887 0.0
C2241 C 0.56892 0.92272 0.72071 0.0
C2242 C 0.56608 0.93014 0.73656 0.0
C2243 C 0.56496 0.9075 0.67473 0.0
C2244 C 0.57003 0.90218 0.6924 0.0
C2245 C 0.56429 0.90755 0.63408 0.0
C2246 C 0.55986 0.91382 0.61368 0.0
C2247 C 0.56477 0.9253 0.61854 0.0
C2248 C 0.56048 0.93114 0.59962 0.0
C2249 C 0.55135 0.92561 0.57543 0.0
C2250 C 0.54651 0.91422 0.57002 0.0
C2251 C 0.55076 0.90833 0.58897 0.0
H2252 H 0.54804 0.93015 0.56078 0.0
H2253 H 0.5973 0.88069 0.74232 0.0
H2254 H 0.06597 0.63073 0.76341 0.0
H2255 H 0.07956 0.64826 0.73507 0.0
H2256 H 0.09335 0.6317 0.67043 0.0
H2257 H 0.07972 0.61408 0.69854 0.0
H2258 H 0.10168 0.66179 0.72275 0.0
H2259 H 0.09455 0.64008 0.57675 0.0
H2260 H 0.08122 0.62251 0.54578 0.0
H2261 H 0.05551 0.61996 0.62002 0.0
H2262 H 0.06865 0.63759 0.65092 0.0
H2263 H 0.12515 0.70712 0.59696 0.0
H2264 H 0.12185 0.6892 0.62017 0.0
H2265 H 0.08733 0.67474 0.59184 0.0
H2266 H 0.09063 0.69242 0.56748 0.0
H2267 H 0.09302 0.65985 0.58354 0.0
H2268 H 0.09797 0.68665 0.68194 0.0
H2269 H 0.10838 0.7044 0.71616 0.0
H2270 H 0.13408 0.6971 0.74191 0.0
H2271 H 0.12385 0.67935 0.70743 0.0
C2272 C 0.07214 0.63086 0.74423 0.0
C2273 C 0.07162 0.62099 0.73255 0.0
C2274 C 0.07993 0.6409 0.72813 0.0
C2275 C 0.08729 0.64122 0.70002 0.0
C2276 C 0.08764 0.63159 0.69172 0.0
C2277 C 0.07985 0.62152 0.70792 0.0
C2278 C 0.09306 0.65109 0.67516 0.0
C2279 C 0.1 0.66137 0.69215 0.0
C2280 C 0.09063 0.65054 0.63541 0.0
C2281 C 0.08262 0.64006 0.61646 0.0
C2282 C 0.08605 0.63578 0.58635 0.0
C2283 C 0.07852 0.62581 0.56881 0.0
C2284 C 0.06754 0.6201 0.58104 0.0
C2285 C 0.06403 0.62437 0.61067 0.0
C2286 C 0.07151 0.63435 0.62819 0.0
C2287 C 0.11693 0.70003 0.59454 0.0
C2288 C 0.10811 0.70122 0.58103 0.0
C2289 C 0.11505 0.68981 0.60802 0.0
C2290 C 0.10429 0.6807 0.60874 0.0
C2291 C 0.0957 0.68166 0.59183 0.0
C2292 C 0.09759 0.69181 0.57796 0.0
C2293 C 0.10158 0.67063 0.63116 0.0
C2294 C 0.09513 0.66028 0.61377 0.0
C2295 C 0.10412 0.67115 0.67086 0.0
C2296 C 0.11023 0.68177 0.69175 0.0
C2297 C 0.10587 0.68887 0.69473 0.0
C2298 C 0.11173 0.69892 0.71417 0.0
C2299 C 0.1219 0.70189 0.73109 0.0
C2300 C 0.12621 0.6948 0.72871 0.0
C2301 C 0.12039 0.68475 0.70922 0.0
H2302 H 0.12643 0.70968 0.74614 0.0
H2303 H 0.06173 0.61238 0.56749 0.0
H2304 H 0.11511 0.36493 0.73311 0.0
H2305 H 0.10711 0.35257 0.78833 0.0
H2306 H 0.0745 0.34036 0.74167 0.0
H2307 H 0.08245 0.35247 0.68564 0.0
H2308 H 0.08084 0.3469 0.83343 0.0
H2309 H 0.0795 0.3241 0.7229 0.0
H2310 H 0.08854 0.32099 0.66723 0.0
H2311 H 0.11386 0.32254 0.74108 0.0
H2312 H 0.10506 0.32586 0.79709 0.0
H2313 H 0.05534 0.30293 0.96343 0.0
H2314 H 0.05921 0.31325 0.90311 0.0
H2315 H 0.0902 0.31363 0.89361 0.0
H2316 H 0.08582 0.30251 0.95206 0.0
H2317 H 0.08347 0.31285 0.82686 0.0
H2318 H 0.08693 0.33564 0.93531 0.0
H2319 H 0.08079 0.34096 0.99396 0.0
H2320 H 0.05506 0.34195 0.92999 0.0
H2321 H 0.06096 0.3365 0.87105 0.0
C2322 C 0.10622 0.35977 0.73495 0.0
C2323 C 0.09938 0.35958 0.70507 0.0
C2324 C 0.10169 0.35272 0.7664 0.0
C2325 C 0.09027 0.34558 0.76867 0.0
C2326 C 0.08335 0.34585 0.74016 0.0
C2327 C 0.08789 0.35273 0.70828 0.0
C2328 C 0.08569 0.33723 0.79932 0.0
C2329 C 0.0812 0.33934 0.83194 0.0
C2330 C 0.08658 0.32764 0.79752 0.0
C2331 C 0.09168 0.32533 0.76406 0.0
C2332 C 0.08704 0.32386 0.72719 0.0
C2333 C 0.09211 0.32205 0.69559 0.0
C2334 C 0.10179 0.32159 0.70059 0.0
C2335 C 0.10638 0.3229 0.73724 0.0
C2336 C 0.10135 0.32475 0.76891 0.0
C2337 C 0.06282 0.305 0.94772 0.0
C2338 C 0.0703 0.30198 0.96197 0.0
C2339 C 0.0651 0.311 0.91359 0.0
C2340 C 0.07517 0.31455 0.89439 0.0
C2341 C 0.08239 0.31104 0.90785 0.0
C2342 C 0.07991 0.30469 0.9412 0.0
C2343 C 0.07852 0.32241 0.86171 0.0
C2344 C 0.08289 0.32028 0.82855 0.0
C2345 C 0.07782 0.33218 0.86359 0.0
C2346 C 0.07431 0.33555 0.8989 0.0
C2347 C 0.07992 0.33693 0.93382 0.0
C2348 C 0.07649 0.33997 0.9671 0.0
C2349 C 0.06752 0.34176 0.96573 0.0
C2350 C 0.06199 0.34054 0.93103 0.0
C2351 C 0.06538 0.33748 0.89768 0.0
H2352 H 0.06488 0.34411 0.99153 0.0
H2353 H 0.10571 0.3202 0.67609 0.0
H2354 H 0.69495 0.77792 0.91963 0.0
H2355 H 0.68321 0.77005 0.86299 0.0
H2356 H 0.66758 0.73786 0.91605 0.0
H2357 H 0.67903 0.74574 0.97319 0.0
H2358 H 0.67906 0.75492 0.81065 0.0
H2359 H 0.64023 0.72472 0.8982 0.0
H2360 H 0.6327 0.72313 0.96358 0.0
H2361 H 0.6513 0.75835 0.97637 0.0
H2362 H 0.65879 0.76016 0.9109 0.0
H2363 H 0.63884 0.72326 0.67442 0.0
H2364 H 0.6499 0.72722 0.73288 0.0
H2365 H 0.63474 0.74513 0.77885 0.0
H2366 H 0.62341 0.74087 0.7211 0.0
H2367 H 0.63867 0.7351 0.83477 0.0
H2368 H 0.65913 0.75831 0.72944 0.0
H2369 H 0.66659 0.76242 0.66349 0.0
H2370 H 0.68486 0.74583 0.68552 0.0
H2371 H 0.67734 0.74146 0.75145 0.0
C2372 C 0.68912 0.76914 0.91896 0.0
C2373 C 0.68776 0.76246 0.95097 0.0
C2374 C 0.68244 0.76465 0.88658 0.0
C2375 C 0.67437 0.75342 0.8857 0.0
C2376 C 0.67358 0.7466 0.91654 0.0
C2377 C 0.68014 0.7511 0.94907 0.0
C2378 C 0.66631 0.749 0.8538 0.0
C2379 C 0.67023 0.75052 0.81591 0.0
C2380 C 0.6548 0.74354 0.86068 0.0
C2381 C 0.65016 0.74255 0.89982 0.0
C2382 C 0.64267 0.73212 0.91492 0.0
C2383 C 0.63841 0.73119 0.95199 0.0
C2384 C 0.64155 0.74063 0.97416 0.0
C2385 C 0.64891 0.75104 0.95923 0.0
C2386 C 0.65316 0.75202 0.92215 0.0
C2387 C 0.63771 0.72784 0.69739 0.0
C2388 C 0.63041 0.73191 0.69306 0.0
C2389 C 0.64405 0.73013 0.73065 0.0
C2390 C 0.64334 0.73671 0.75971 0.0
C2391 C 0.63546 0.74009 0.75665 0.0
C2392 C 0.629 0.73766 0.72362 0.0
C2393 C 0.65141 0.74087 0.79164 0.0
C2394 C 0.6475 0.73936 0.82953 0.0
C2395 C 0.66293 0.74672 0.78468 0.0
C2396 C 0.66758 0.74946 0.74523 0.0
C2397 C 0.66468 0.75548 0.72013 0.0
C2398 C 0.66892 0.75786 0.68277 0.0
C2399 C 0.67618 0.75436 0.67029 0.0
C2400 C 0.67922 0.74851 0.69521 0.0
C2401 C 0.67497 0.74608 0.73258 0.0
H2402 H 0.67945 0.75621 0.64135 0.0
H2403 H 0.63826 0.73988 0.00288 0.0
H2404 H 0.24717 0.93539 0.97599 0.0
H2405 H 0.25317 0.92977 0.91817 0.0
H2406 H 0.21969 0.91281 0.87636 0.0
H2407 H 0.21367 0.91866 0.93341 0.0
H2408 H 0.23428 0.90084 0.88981 0.0
H2409 H 0.23132 0.93065 0.82678 0.0
H2410 H 0.23588 0.95005 0.82135 0.0
H2411 H 0.27038 0.96043 0.81542 0.0
H2412 H 0.26601 0.94109 0.8214 0.0
H2413 H 0.23735 0.88001 0.70874 0.0
H2414 H 0.23338 0.88741 0.76633 0.0
H2415 H 0.26576 0.91646 0.75936 0.0
H2416 H 0.26927 0.90939 0.6997 0.0
H2417 H 0.25275 0.92301 0.77368 0.0
H2418 H 0.25718 0.89464 0.8317 0.0
H2419 H 0.25437 0.87595 0.84139 0.0
H2420 H 0.21993 0.86352 0.86314 0.0
H2421 H 0.2225 0.88211 0.8531 0.0
C2422 C 0.24115 0.93066 0.95405 0.0
C2423 C 0.22997 0.92745 0.95908 0.0
C2424 C 0.24457 0.92746 0.92121 0.0
C2425 C 0.23684 0.92088 0.89335 0.0
C2426 C 0.22574 0.91793 0.89769 0.0
C2427 C 0.22234 0.92131 0.93013 0.0
C2428 C 0.2402 0.9164 0.86114 0.0
C2429 C 0.23822 0.90559 0.86411 0.0
C2430 C 0.24575 0.92284 0.82876 0.0
C2431 C 0.24835 0.93445 0.82505 0.0
C2432 C 0.23988 0.93708 0.82477 0.0
C2433 C 0.24243 0.94806 0.82148 0.0
C2434 C 0.25342 0.95647 0.81818 0.0
C2435 C 0.26188 0.95391 0.81805 0.0
C2436 C 0.25937 0.94294 0.82137 0.0
C2437 C 0.24365 0.88788 0.72005 0.0
C2438 C 0.25364 0.89413 0.70041 0.0
C2439 C 0.24143 0.8921 0.75307 0.0
C2440 C 0.24935 0.90243 0.76784 0.0
C2441 C 0.2595 0.90849 0.74864 0.0
C2442 C 0.26155 0.90444 0.71482 0.0
C2443 C 0.24674 0.90722 0.80164 0.0
C2444 C 0.24889 0.91816 0.79925 0.0
C2445 C 0.2416 0.90096 0.83512 0.0
C2446 C 0.24003 0.88976 0.84135 0.0
C2447 C 0.249 0.88791 0.83831 0.0
C2448 C 0.24744 0.87733 0.8439 0.0
C2449 C 0.23697 0.86855 0.85279 0.0
C2450 C 0.22804 0.87033 0.85622 0.0
C2451 C 0.22954 0.88089 0.85064 0.0
H2452 H 0.23579 0.86037 0.8571 0.0
H2453 H 0.25538 0.96497 0.81562 0.0
H2454 H 0.31756 0.07056 -0.00021 0.0
H2455 H 0.32921 0.07562 0.05668 0.0
H2456 H 0.30349 0.07605 0.12397 0.0
H2457 H 0.29185 0.07129 0.06656 0.0
H2458 H 0.32244 0.09395 0.13719 0.0
H2459 H 0.31007 0.0554 0.13397 0.0
H2460 H 0.30634 0.0377 0.10568 0.0
H2461 H 0.34092 0.0511 0.08372 0.0
H2462 H 0.34485 0.06894 0.11143 0.0
H2463 H 0.34225 0.08941 0.32205 0.0
H2464 H 0.33178 0.08339 0.2623 0.0
H2465 H 0.3619 0.10069 0.19697 0.0
H2466 H 0.37255 0.10711 0.25708 0.0
H2467 H 0.34162 0.07427 0.18225 0.0
H2468 H 0.35313 0.1136 0.1844 0.0
H2469 H 0.35583 0.1304 0.2173 0.0
H2470 H 0.32138 0.11411 0.24589 0.0
H2471 H 0.31852 0.09715 0.21368 0.0
C2472 C 0.31431 0.0716 0.02677 0.0
C2473 C 0.3038 0.07057 0.02874 0.0
C2474 C 0.32097 0.07445 0.05932 0.0
C2475 C 0.31719 0.07613 0.09462 0.0
C2476 C 0.30657 0.07481 0.09694 0.0
C2477 C 0.29992 0.07205 0.06423 0.0
C2478 C 0.32456 0.07985 0.1285 0.0
C2479 C 0.32655 0.08958 0.14713 0.0
C2480 C 0.33007 0.07425 0.14116 0.0
C2481 C 0.32774 0.06354 0.12443 0.0
C2482 C 0.31687 0.0546 0.12282 0.0
C2483 C 0.31472 0.04454 0.10694 0.0
C2484 C 0.32338 0.04328 0.09282 0.0
C2485 C 0.33422 0.05209 0.09462 0.0
C2486 C 0.33641 0.06217 0.11045 0.0
C2487 C 0.34669 0.0919 0.29504 0.0
C2488 C 0.35822 0.09876 0.29413 0.0
C2489 C 0.34069 0.08846 0.26102 0.0
C2490 C 0.34611 0.09167 0.22559 0.0
C2491 C 0.35764 0.0982 0.22431 0.0
C2492 C 0.36367 0.10185 0.25849 0.0
C2493 C 0.33951 0.08835 0.19018 0.0
C2494 C 0.33759 0.07866 0.17167 0.0
C2495 C 0.33395 0.09388 0.1779 0.0
C2496 C 0.33564 0.10408 0.19709 0.0
C2497 C 0.34616 0.11356 0.1981 0.0
C2498 C 0.34771 0.12312 0.21652 0.0
C2499 C 0.33879 0.12331 0.2338 0.0
C2500 C 0.32829 0.11395 0.23257 0.0
C2501 C 0.32669 0.10437 0.21422 0.0
H2502 H 0.34001 0.13072 0.24804 0.0
H2503 H 0.3217 0.03549 0.08054 0.0
H2504 H 0.89356 0.26264 0.26432 0.0
H2505 H 0.89961 0.25561 0.21091 0.0
H2506 H 0.91775 0.2468 0.28975 0.0
H2507 H 0.91198 0.2541 0.34325 0.0
H2508 H 0.9287 0.25398 0.2232 0.0
H2509 H 0.89254 0.22745 0.26189 0.0
H2510 H 0.87308 0.22019 0.28007 0.0
H2511 H 0.86608 0.22764 0.16739 0.0
H2512 H 0.88555 0.23512 0.14869 0.0
H2513 H 0.92681 0.21625 0.07204 0.0
H2514 H 0.92385 0.2222 0.13545 0.0
H2515 H 0.9121 0.24196 0.08013 0.0
H2516 H 0.91524 0.23634 0.01731 0.0
H2517 H 0.89812 0.22638 0.14214 0.0
H2518 H 0.93599 0.25512 0.10957 0.0
H2519 H 0.95528 0.26087 0.0933 0.0
H2520 H 0.95855 0.2468 0.19871 0.0
H2521 H 0.9392 0.24082 0.21532 0.0
C2522 C 0.89899 0.25937 0.27018 0.0
C2523 C 0.90216 0.25875 0.30793 0.0
C2524 C 0.9024 0.25532 0.23972 0.0
C2525 C 0.90888 0.25042 0.24663 0.0
C2526 C 0.91268 0.25046 0.28393 0.0
C2527 C 0.90936 0.25463 0.31442 0.0
C2528 C 0.91105 0.24466 0.21516 0.0
C2529 C 0.92201 0.24782 0.20587 0.0
C2530 C 0.9023 0.23647 0.19299 0.0
C2531 C 0.89054 0.23193 0.20397 0.0
C2532 C 0.88688 0.22762 0.24105 0.0
C2533 C 0.87584 0.22345 0.25145 0.0
C2534 C 0.86836 0.22347 0.22492 0.0
C2535 C 0.87189 0.22763 0.18791 0.0
C2536 C 0.88293 0.23183 0.17739 0.0
C2537 C 0.92362 0.22187 0.07359 0.0
C2538 C 0.92126 0.22585 0.0399 0.0
C2539 C 0.92195 0.22525 0.10962 0.0
C2540 C 0.91773 0.23246 0.11211 0.0
C2541 C 0.91533 0.23636 0.07856 0.0
C2542 C 0.91718 0.23317 0.04276 0.0
C2543 C 0.91571 0.23605 0.14944 0.0
C2544 C 0.90477 0.23242 0.15995 0.0
C2545 C 0.92444 0.24359 0.17309 0.0
C2546 C 0.93613 0.24742 0.16347 0.0
C2547 C 0.9408 0.25318 0.12913 0.0
C2548 C 0.95174 0.2565 0.11988 0.0
C2549 C 0.95813 0.25417 0.14491 0.0
C2550 C 0.95359 0.24857 0.17933 0.0
C2551 C 0.94264 0.24523 0.18869 0.0
H2552 H 0.9666 0.25673 0.13767 0.0
H2553 H 0.85982 0.22025 0.23302 0.0
H2554 H 0.73151 0.64885 0.32851 0.0
H2555 H 0.73518 0.65962 0.26966 0.0
H2556 H 0.73945 0.63531 0.20753 0.0
H2557 H 0.7359 0.62451 0.26652 0.0
H2558 H 0.75654 0.65572 0.19638 0.0
H2559 H 0.71724 0.63816 0.19058 0.0
H2560 H 0.69846 0.63204 0.21446 0.0
H2561 H 0.70687 0.66575 0.23134 0.0
H2562 H 0.72576 0.67208 0.20802 0.0
H2563 H 0.7497 0.67555 0.00703 0.0
H2564 H 0.74202 0.66446 0.06497 0.0
H2565 H 0.7643 0.69215 0.13495 0.0
H2566 H 0.77221 0.70336 0.07692 0.0
H2567 H 0.73333 0.66981 0.14023 0.0
H2568 H 0.77526 0.68426 0.16957 0.0
H2569 H 0.79333 0.68931 0.14077 0.0
H2570 H 0.7781 0.65978 0.07246 0.0
H2571 H 0.75993 0.65466 0.10062 0.0
C2572 C 0.73308 0.64571 0.30222 0.0
C2573 C 0.73351 0.63589 0.30214 0.0
C2574 C 0.73512 0.65185 0.26858 0.0
C2575 C 0.73757 0.64825 0.23429 0.0
C2576 C 0.7376 0.63823 0.2338 0.0
C2577 C 0.73554 0.63207 0.26745 0.0
C2578 C 0.74095 0.65537 0.19982 0.0
C2579 C 0.75141 0.65875 0.18419 0.0
C2580 C 0.7343 0.65936 0.18385 0.0
C2581 C 0.72295 0.65559 0.19788 0.0
C2582 C 0.71512 0.64427 0.19969 0.0
C2583 C 0.70444 0.64076 0.21306 0.0
C2584 C 0.70148 0.6485 0.2245 0.0
C2585 C 0.70918 0.65977 0.2225 0.0
C2586 C 0.71987 0.66332 0.20916 0.0
C2587 C 0.7529 0.67935 0.03474 0.0
C2588 C 0.76164 0.6903 0.03746 0.0
C2589 C 0.74846 0.673 0.06774 0.0
C2590 C 0.75267 0.6775 0.10393 0.0
C2591 C 0.76104 0.68856 0.10704 0.0
C2592 C 0.76552 0.69494 0.07396 0.0
C2593 C 0.74893 0.67029 0.13794 0.0
C2594 C 0.73842 0.66683 0.15306 0.0
C2595 C 0.75544 0.66615 0.15344 0.0
C2596 C 0.76631 0.66913 0.13697 0.0
C2597 C 0.7758 0.67888 0.14835 0.0
C2598 C 0.78604 0.68175 0.13213 0.0
C2599 C 0.78686 0.67488 0.10476 0.0
C2600 C 0.77745 0.66511 0.0936 0.0
C2601 C 0.76719 0.66222 0.10963 0.0
H2602 H 0.79479 0.67711 0.09225 0.0
H2603 H 0.69321 0.64577 0.23484 0.0
H2604 H 0.92632 0.68034 0.00418 0.0
H2605 H 0.9226 0.66984 0.06362 0.0
H2606 H 0.92512 0.69734 0.12798 0.0
H2607 H 0.92859 0.70791 0.06821 0.0
H2608 H 0.93546 0.6831 0.16018 0.0
H2609 H 0.902 0.68213 0.11294 0.0
H2610 H 0.88897 0.67963 0.06093 0.0
H2611 H 0.88298 0.6468 0.04099 0.0
H2612 H 0.89615 0.64919 0.09246 0.0
H2613 H 0.90661 0.65724 0.32956 0.0
H2614 H 0.91461 0.66843 0.27231 0.0
H2615 H 0.89874 0.63916 0.20163 0.0
H2616 H 0.89024 0.62793 0.25908 0.0
H2617 H 0.89599 0.65423 0.1709 0.0
H2618 H 0.92742 0.65362 0.21969 0.0
H2619 H 0.94117 0.65541 0.26774 0.0
H2620 H 0.95184 0.68981 0.28147 0.0
H2621 H 0.93805 0.68819 0.23386 0.0
C2622 C 0.92627 0.68425 0.03099 0.0
C2623 C 0.92761 0.6949 0.03155 0.0
C2624 C 0.92419 0.67825 0.06487 0.0
C2625 C 0.92356 0.68284 0.09984 0.0
C2626 C 0.92564 0.69373 0.10105 0.0
C2627 C 0.92757 0.69972 0.06697 0.0
C2628 C 0.91942 0.67576 0.13404 0.0
C2629 C 0.92683 0.67687 0.16304 0.0
C2630 C 0.90823 0.66741 0.13655 0.0
C2631 C 0.90014 0.66588 0.10623 0.0
C2632 C 0.89798 0.67441 0.09723 0.0
C2633 C 0.89056 0.67302 0.06789 0.0
C2634 C 0.88517 0.66308 0.04759 0.0
C2635 C 0.88717 0.6545 0.0567 0.0
C2636 C 0.8946 0.65587 0.08596 0.0
C2637 C 0.90488 0.65317 0.30185 0.0
C2638 C 0.89782 0.64172 0.29866 0.0
C2639 C 0.90954 0.65957 0.26915 0.0
C2640 C 0.90745 0.65462 0.23272 0.0
C2641 C 0.90049 0.64315 0.2295 0.0
C2642 C 0.89566 0.63674 0.26224 0.0
C2643 C 0.912 0.66155 0.19793 0.0
C2644 C 0.90465 0.66041 0.16847 0.0
C2645 C 0.9233 0.66974 0.19482 0.0
C2646 C 0.93163 0.67076 0.22342 0.0
C2647 C 0.93264 0.66155 0.23315 0.0
C2648 C 0.94046 0.66254 0.26028 0.0
C2649 C 0.94736 0.67271 0.27771 0.0
C2650 C 0.94648 0.68193 0.26797 0.0
C2651 C 0.93868 0.68099 0.24087 0.0
H2652 H 0.9534 0.67346 0.29871 0.0
H2653 H 0.87944 0.66201 0.02488 0.0
H2654 H 0.2925 0.21865 0.06648 0.0
H2655 H 0.30378 0.22648 0.12417 0.0
H2656 H 0.3269 0.25501 0.05909 0.0
H2657 H 0.31562 0.24735 0.00159 0.0
H2658 H 0.32434 0.23067 0.13473 0.0
H2659 H 0.33922 0.27732 0.11845 0.0
H2660 H 0.33228 0.28923 0.09362 0.0
H2661 H 0.29893 0.2634 0.11313 0.0
H2662 H 0.30567 0.2514 0.13854 0.0
H2663 H 0.3699 0.25943 0.25641 0.0
H2664 H 0.35898 0.25579 0.19761 0.0
H2665 H 0.33482 0.26019 0.26012 0.0
H2666 H 0.3457 0.26396 0.31871 0.0
H2667 H 0.33745 0.26819 0.18728 0.0
H2668 H 0.33127 0.23509 0.25144 0.0
H2669 H 0.33698 0.22265 0.28047 0.0
H2670 H 0.35016 0.22002 0.17195 0.0
H2671 H 0.34468 0.23261 0.14244 0.0
C2672 C 0.29991 0.22666 0.06463 0.0
C2673 C 0.30322 0.23236 0.02953 0.0
C2674 C 0.30635 0.2311 0.09753 0.0
C2675 C 0.31615 0.24133 0.09587 0.0
C2676 C 0.3193 0.24718 0.0611 0.0
C2677 C 0.31286 0.24276 0.02825 0.0
C2678 C 0.32345 0.24556 0.12981 0.0
C2679 C 0.32719 0.23887 0.14621 0.0
C2680 C 0.3271 0.25623 0.14491 0.0
C2681 C 0.32296 0.26343 0.13004 0.0
C2682 C 0.33041 0.2742 0.11757 0.0
C2683 C 0.32651 0.28096 0.10337 0.0
C2684 C 0.31517 0.27706 0.10168 0.0
C2685 C 0.30771 0.2664 0.1143 0.0
C2686 C 0.31157 0.25961 0.12855 0.0
C2687 C 0.36239 0.25985 0.2574 0.0
C2688 C 0.35854 0.26178 0.29222 0.0
C2689 C 0.35616 0.25776 0.22386 0.0
C2690 C 0.34602 0.25754 0.22482 0.0
C2691 C 0.3426 0.26029 0.25888 0.0
C2692 C 0.3488 0.26238 0.29235 0.0
C2693 C 0.33841 0.25334 0.19172 0.0
C2694 C 0.33463 0.26003 0.17554 0.0
C2695 C 0.33451 0.24256 0.1773 0.0
C2696 C 0.33767 0.23488 0.19484 0.0
C2697 C 0.33545 0.23192 0.23384 0.0
C2698 C 0.33864 0.22484 0.25038 0.0
C2699 C 0.34395 0.22057 0.22809 0.0
C2700 C 0.34606 0.22335 0.18919 0.0
C2701 C 0.34291 0.23045 0.17255 0.0
H2702 H 0.34642 0.21509 0.24094 0.0
H2703 H 0.31217 0.28231 0.09066 0.0
H2704 H 0.74729 0.05961 0.00893 0.0
H2705 H 0.74065 0.0638 0.06803 0.0
H2706 H 0.77414 0.08273 0.1093 0.0
H2707 H 0.78079 0.07821 0.05081 0.0
H2708 H 0.76083 0.07284 0.16737 0.0
H2709 H 0.76179 0.09513 0.06166 0.0
H2710 H 0.75767 0.0987 -0.00396 0.0
H2711 H 0.72299 0.08107 0.02148 0.0
H2712 H 0.72691 0.07724 0.0871 0.0
H2713 H 0.74441 0.11365 0.25316 0.0
H2714 H 0.74912 0.10633 0.19695 0.0
H2715 H 0.73418 0.0742 0.25024 0.0
H2716 H 0.72974 0.08155 0.30696 0.0
H2717 H 0.73862 0.09103 0.14505 0.0
H2718 H 0.74955 0.06222 0.23104 0.0
H2719 H 0.75595 0.061 0.29601 0.0
H2720 H 0.77092 0.0961 0.30927 0.0
H2721 H 0.76476 0.09755 0.2442 0.0
C2722 C 0.75321 0.06449 0.03098 0.0
C2723 C 0.76455 0.06873 0.02518 0.0
C2724 C 0.74942 0.0669 0.06461 0.0
C2725 C 0.75693 0.07382 0.09255 0.0
C2726 C 0.76821 0.07744 0.08798 0.0
C2727 C 0.772 0.07486 0.05457 0.0
C2728 C 0.75315 0.07799 0.12485 0.0
C2729 C 0.75592 0.07676 0.16254 0.0
C2730 C 0.74702 0.08341 0.11842 0.0
C2731 C 0.74464 0.08581 0.07916 0.0
C2732 C 0.75329 0.09196 0.05318 0.0
C2733 C 0.75098 0.09403 0.01599 0.0
C2734 C 0.74007 0.09009 0.00457 0.0
C2735 C 0.73144 0.0841 0.03036 0.0
C2736 C 0.7337 0.08198 0.06755 0.0
C2737 C 0.74201 0.105 0.25267 0.0
C2738 C 0.73685 0.0982 0.28459 0.0
C2739 C 0.74469 0.10082 0.22054 0.0
C2740 C 0.7422 0.08978 0.2198 0.0
C2741 C 0.73641 0.08281 0.25063 0.0
C2742 C 0.73383 0.087 0.2829 0.0
C2743 C 0.74614 0.08571 0.18763 0.0
C2744 C 0.74343 0.08701 0.14994 0.0
C2745 C 0.75266 0.08072 0.194 0.0
C2746 C 0.75658 0.07996 0.23292 0.0
C2747 C 0.75424 0.06968 0.24777 0.0
C2748 C 0.75783 0.06895 0.28461 0.0
C2749 C 0.7638 0.07846 0.3068 0.0
C2750 C 0.76625 0.08873 0.29212 0.0
C2751 C 0.76271 0.08951 0.25527 0.0
H2752 H 0.76655 0.07788 0.33533 0.0
H2753 H 0.7383 0.0917 0.97577 0.0
H2754 H 0.6488 0.91525 0.67389 0.0
H2755 H 0.65869 0.92266 0.73402 0.0
H2756 H 0.63295 0.89499 0.79566 0.0
H2757 H 0.62303 0.88738 0.73521 0.0
H2758 H 0.65571 0.92885 0.8047 0.0
H2759 H 0.64574 0.88588 0.85706 0.0
H2760 H 0.63936 0.86726 0.83079 0.0
H2761 H 0.65398 0.88132 0.72163 0.0
H2762 H 0.66058 0.90002 0.74746 0.0
H2763 H 0.67858 0.93103 0.99135 0.0
H2764 H 0.66674 0.92728 0.93514 0.0
H2765 H 0.68828 0.91991 0.86852 0.0
H2766 H 0.70012 0.92355 0.92468 0.0
H2767 H 0.66709 0.90374 0.86329 0.0
H2768 H 0.68748 0.9431 0.85162 0.0
H2769 H 0.69522 0.96235 0.87333 0.0
H2770 H 0.66256 0.95674 0.89401 0.0
H2771 H 0.65462 0.93741 0.87291 0.0
C2772 C 0.64512 0.91083 0.70031 0.0
C2773 C 0.63528 0.90059 0.6998 0.0
C2774 C 0.65076 0.91513 0.7347 0.0
C2775 C 0.64665 0.90927 0.76908 0.0
C2776 C 0.63632 0.89954 0.76922 0.0
C2777 C 0.63068 0.89521 0.73472 0.0
C2778 C 0.65386 0.91262 0.80329 0.0
C2779 C 0.65812 0.92334 0.81786 0.0
C2780 C 0.65722 0.9055 0.81965 0.0
C2781 C 0.65353 0.89432 0.80408 0.0
C2782 C 0.64762 0.88499 0.82752 0.0
C2783 C 0.64397 0.87443 0.8127 0.0
C2784 C 0.64623 0.87311 0.77453 0.0
C2785 C 0.6522 0.88235 0.75116 0.0
C2786 C 0.6559 0.89293 0.76587 0.0
C2787 C 0.68088 0.92876 0.96458 0.0
C2788 C 0.69022 0.9275 0.96246 0.0
C2789 C 0.67412 0.92666 0.9325 0.0
C2790 C 0.67664 0.9233 0.89778 0.0
C2791 C 0.68619 0.92244 0.89518 0.0
C2792 C 0.69296 0.92456 0.92722 0.0
C2793 C 0.66894 0.91998 0.8649 0.0
C2794 C 0.66459 0.90923 0.85058 0.0
C2795 C 0.66571 0.92716 0.84831 0.0
C2796 C 0.67046 0.93877 0.86109 0.0
C2797 C 0.68195 0.94594 0.86114 0.0
C2798 C 0.68637 0.95687 0.87326 0.0
C2799 C 0.67939 0.96076 0.88515 0.0
C2800 C 0.66796 0.95372 0.88485 0.0
C2801 C 0.66349 0.94278 0.87278 0.0
H2802 H 0.68283 0.96923 0.89451 0.0
H2803 H 0.64336 0.86492 0.76309 0.0
H2804 H 0.10828 0.7342 0.73213 0.0
H2805 H 0.1013 0.73841 0.79057 0.0
H2806 H 0.07369 0.73588 0.72678 0.0
H2807 H 0.08059 0.7317 0.66843 0.0
H2808 H 0.08524 0.75546 0.76664 0.0
H2809 H 0.06943 0.71652 0.79103 0.0
H2810 H 0.06995 0.69927 0.79862 0.0
H2811 H 0.09292 0.71361 0.89193 0.0
H2812 H 0.09265 0.731 0.88456 0.0
H2813 H 0.06102 0.76611 0.92822 0.0
H2814 H 0.0637 0.75757 0.87066 0.0
H2815 H 0.08766 0.75248 0.93179 0.0
H2816 H 0.08446 0.76028 0.98961 0.0
H2817 H 0.0764 0.73565 0.89132 0.0
H2818 H 0.09444 0.77466 0.86483 0.0
H2819 H 0.09572 0.79279 0.85747 0.0
H2820 H 0.07101 0.77964 0.76905 0.0
H2821 H 0.0695 0.76139 0.77622 0.0
C2822 C 0.10063 0.73437 0.73074 0.0
C2823 C 0.09503 0.73273 0.69568 0.0
C2824 C 0.09664 0.73674 0.76411 0.0
C2825 C 0.08699 0.73746 0.76285 0.0
C2826 C 0.08117 0.73539 0.72823 0.0
C2827 C 0.08512 0.73299 0.69497 0.0
C2828 C 0.08341 0.7412 0.79681 0.0
C2829 C 0.08312 0.75105 0.7938 0.0
C2830 C 0.081 0.73559 0.83235 0.0
C2831 C 0.08108 0.72509 0.83703 0.0
C2832 C 0.07465 0.71602 0.81299 0.0
C2833 C 0.07489 0.70621 0.81729 0.0
C2834 C 0.08148 0.70535 0.84569 0.0
C2835 C 0.08782 0.71429 0.86993 0.0
C2836 C 0.08761 0.72412 0.86573 0.0
C2837 C 0.06681 0.7631 0.9292 0.0
C2838 C 0.07255 0.76386 0.96314 0.0
C2839 C 0.06838 0.75828 0.89635 0.0
C2840 C 0.07603 0.75454 0.89664 0.0
C2841 C 0.08169 0.75525 0.93079 0.0
C2842 C 0.07988 0.75976 0.96379 0.0
C2843 C 0.07837 0.75005 0.86148 0.0
C2844 C 0.07843 0.74005 0.86417 0.0
C2845 C 0.08084 0.75566 0.82579 0.0
C2846 C 0.08177 0.76663 0.82137 0.0
C2847 C 0.08923 0.77562 0.84401 0.0
C2848 C 0.09 0.78592 0.83984 0.0
C2849 C 0.08343 0.78736 0.8129 0.0
C2850 C 0.07608 0.77851 0.78997 0.0
C2851 C 0.07527 0.76819 0.79405 0.0
H2852 H 0.08404 0.79534 0.80972 0.0
H2853 H 0.08166 0.69775 0.84895 0.0
H2854 H 0.22537 0.2936 0.92252 0.0
H2855 H 0.23358 0.30501 0.86483 0.0
H2856 H 0.24304 0.33438 0.93162 0.0
H2857 H 0.23523 0.32316 0.98926 0.0
H2858 H 0.23034 0.33073 0.85531 0.0
H2859 H 0.26236 0.33201 0.91649 0.0
H2860 H 0.27242 0.32334 0.94406 0.0
H2861 H 0.26954 0.3068 0.837 0.0
H2862 H 0.25931 0.31525 0.80899 0.0
H2863 H 0.26315 0.37388 0.73102 0.0
H2864 H 0.25781 0.36264 0.78939 0.0
H2865 H 0.25901 0.33652 0.72755 0.0
H2866 H 0.26459 0.34778 0.66939 0.0
H2867 H 0.26596 0.33762 0.79996 0.0
H2868 H 0.23508 0.33612 0.7364 0.0
H2869 H 0.22442 0.34371 0.70571 0.0
H2870 H 0.22369 0.35878 0.81243 0.0
H2871 H 0.23454 0.35145 0.84361 0.0
C2872 C 0.22923 0.30249 0.92476 0.0
C2873 C 0.22971 0.30752 0.96023 0.0
C2874 C 0.2339 0.30896 0.89198 0.0
C2875 C 0.23889 0.32048 0.8943 0.0
C2876 C 0.23922 0.32549 0.9295 0.0
C2877 C 0.2348 0.31907 0.96232 0.0
C2878 C 0.24375 0.32742 0.86006 0.0
C2879 C 0.23817 0.33235 0.84334 0.0
C2880 C 0.25378 0.32919 0.84406 0.0
C2881 C 0.25995 0.32414 0.86084 0.0
C2882 C 0.26376 0.32642 0.89898 0.0
C2883 C 0.26952 0.32158 0.91465 0.0
C2884 C 0.27158 0.31449 0.89234 0.0
C2885 C 0.26792 0.31227 0.85427 0.0
C2886 C 0.26214 0.31709 0.83849 0.0
C2887 C 0.2625 0.36584 0.73008 0.0
C2888 C 0.2641 0.36162 0.69553 0.0
C2889 C 0.25941 0.35942 0.76336 0.0
C2890 C 0.25777 0.34866 0.76243 0.0
C2891 C 0.26017 0.34477 0.72875 0.0
C2892 C 0.26332 0.35121 0.69553 0.0
C2893 C 0.25266 0.34116 0.79547 0.0
C2894 C 0.25813 0.33605 0.81184 0.0
C2895 C 0.2424 0.33904 0.81072 0.0
C2896 C 0.23572 0.34333 0.79225 0.0
C2897 C 0.23271 0.34112 0.75327 0.0
C2898 C 0.22663 0.34537 0.73578 0.0
C2899 C 0.2234 0.35174 0.75708 0.0
C2900 C 0.22622 0.35385 0.79596 0.0
C2901 C 0.23233 0.34965 0.81356 0.0
H2902 H 0.2187 0.35503 0.74349 0.0
H2903 H 0.27605 0.31075 0.90451 0.0
H2904 H 0.01271 0.41522 0.65337 0.0
H2905 H 0.00246 0.40907 0.59339 0.0
H2906 H 0.03084 0.4337 0.53123 0.0
H2907 H 0.04106 0.4402 0.59172 0.0
H2908 H 0.01369 0.43484 0.51165 0.0
H2909 H 0.02111 0.40533 0.52187 0.0
H2910 H 0.02225 0.39009 0.55281 0.0
H2911 H 0.98711 0.37232 0.56845 0.0
H2912 H 0.98577 0.38754 0.53811 0.0
H2913 H 0.9897 0.41422 0.32868 0.0
H2914 H 0.00128 0.41733 0.38504 0.0
H2915 H 0.97241 0.40262 0.4575 0.0
H2916 H 0.96067 0.39965 0.40103 0.0
H2917 H 0.99033 0.39604 0.46885 0.0
H2918 H 0.98397 0.42714 0.46196 0.0
H2919 H 0.98357 0.44242 0.42817 0.0
H2920 H 0.01813 0.45713 0.40284 0.0
H2921 H 0.01869 0.44182 0.43598 0.0
C2922 C 0.01684 0.41922 0.62688 0.0
C2923 C 0.02765 0.42826 0.62722 0.0
C2924 C 0.01099 0.41564 0.59251 0.0
C2925 C 0.0159 0.42086 0.55771 0.0
C2926 C 0.02688 0.42957 0.55777 0.0
C2927 C 0.03271 0.43325 0.59228 0.0
C2928 C 0.00922 0.41791 0.52207 0.0
C2929 C 0.00876 0.42637 0.50199 0.0
C2930 C 0.0026 0.40683 0.50978 0.0
C2931 C 0.00335 0.39763 0.52797 0.0
C2932 C 0.01363 0.39821 0.53217 0.0
C2933 C 0.01431 0.38957 0.54956 0.0
C2934 C 0.00476 0.38025 0.56265 0.0
C2935 C 0.9945 0.37955 0.55831 0.0
C2936 C 0.99377 0.38818 0.54097 0.0
C2937 C 0.98578 0.41156 0.35653 0.0
C2938 C 0.97428 0.40674 0.36058 0.0
C2939 C 0.99241 0.41334 0.38862 0.0
C2940 C 0.98766 0.4102 0.42517 0.0
C2941 C 0.97617 0.40505 0.42932 0.0
C2942 C 0.96951 0.40342 0.3972 0.0
C2943 C 0.99483 0.41296 0.45917 0.0
C2944 C 0.99536 0.40449 0.4787 0.0
C2945 C 0.00165 0.42403 0.47071 0.0
C2946 C 0.00134 0.43327 0.45104 0.0
C2947 C 0.99146 0.43357 0.44884 0.0
C2948 C 0.99121 0.44225 0.42989 0.0
C2949 C 0.00081 0.45072 0.41326 0.0
C2950 C 0.01069 0.45055 0.41567 0.0
C2951 C 0.01098 0.44188 0.43455 0.0
H2952 H 0.0006 0.45743 0.39861 0.0
H2953 H 0.00531 0.37357 0.57611 0.0
H2954 H 0.57252 0.56668 0.32736 0.0
H2955 H 0.56834 0.57371 0.38519 0.0
H2956 H 0.58865 0.56472 0.45209 0.0
H2957 H 0.59237 0.55707 0.39412 0.0
H2958 H 0.5712 0.56059 0.49148 0.0
H2959 H 0.59801 0.59197 0.42097 0.0
H2960 H 0.60595 0.60387 0.36401 0.0
H2961 H 0.57806 0.60881 0.35857 0.0
H2962 H 0.56988 0.59682 0.41521 0.0
H2963 H 0.57639 0.59464 0.64869 0.0
H2964 H 0.58181 0.5889 0.59029 0.0
H2965 H 0.55568 0.58978 0.52766 0.0
H2966 H 0.55008 0.59545 0.58626 0.0
H2967 H 0.57684 0.59855 0.4875 0.0
H2968 H 0.55012 0.56651 0.55846 0.0
H2969 H 0.54301 0.55523 0.61718 0.0
H2970 H 0.57208 0.55227 0.62327 0.0
H2971 H 0.57945 0.56371 0.56495 0.0
C2972 C 0.57605 0.56615 0.35444 0.0
C2973 C 0.58286 0.56146 0.35637 0.0
C2974 C 0.57371 0.57023 0.38742 0.0
C2975 C 0.57845 0.57005 0.42275 0.0
C2976 C 0.58498 0.56503 0.42502 0.0
C2977 C 0.58711 0.56068 0.39202 0.0
C2978 C 0.57664 0.57523 0.45703 0.0
C2979 C 0.57261 0.56895 0.49074 0.0
C2980 C 0.57832 0.58609 0.45594 0.0
C2981 C 0.5833 0.59343 0.42217 0.0
C2982 C 0.59354 0.59555 0.40751 0.0
C2983 C 0.59809 0.60231 0.37529 0.0
C2984 C 0.59251 0.60707 0.35764 0.0
C2985 C 0.58238 0.60511 0.37225 0.0
C2986 C 0.57779 0.59834 0.40445 0.0
C2987 C 0.5719 0.5938 0.62239 0.0
C2988 C 0.56272 0.59535 0.62209 0.0
C2989 C 0.575 0.5905 0.58913 0.0
C2990 C 0.56903 0.5888 0.55505 0.0
C2991 C 0.56033 0.59104 0.5539 0.0
C2992 C 0.55714 0.59425 0.58733 0.0
C2993 C 0.57139 0.58389 0.52147 0.0
C2994 C 0.57551 0.59022 0.48806 0.0
C2995 C 0.56992 0.57314 0.52298 0.0
C2996 C 0.56539 0.56606 0.55756 0.0
C2997 C 0.55503 0.56352 0.57248 0.0
C2998 C 0.55095 0.5571 0.60568 0.0
C2999 C 0.5571 0.55306 0.624 0.0
C3000 C 0.56733 0.55541 0.60908 0.0
C3001 C 0.57146 0.56187 0.57594 0.0
H3002 H 0.55393 0.54809 0.64971 0.0
H3003 H 0.59604 0.6123 0.33268 0.0
H3004 H 0.40588 0.98335 0.66009 0.0
H3005 H 0.40792 0.99263 0.59913 0.0
H3006 H 0.4016 0.96315 0.53819 0.0
H3007 H 0.39986 0.95383 0.59968 0.0
H3008 H 0.41901 0.98022 0.50975 0.0
H3009 H 0.38278 0.97223 0.5376 0.0
H3010 H 0.36733 0.97077 0.57617 0.0
H3011 H 0.38409 0.00602 0.58833 0.0
H3012 H 0.39975 0.00769 0.55037 0.0
H3013 H 0.41743 0.00584 0.33336 0.0
H3014 H 0.40986 0.99355 0.38874 0.0
H3015 H 0.42726 0.02123 0.4653 0.0
H3016 H 0.43517 0.03363 0.4098 0.0
H3017 H 0.40207 0.00321 0.48019 0.0
H3018 H 0.43956 0.00965 0.45902 0.0
H3019 H 0.45408 0.01016 0.41739 0.0
H3020 H 0.43293 0.97602 0.38863 0.0
H3021 H 0.41821 0.97538 0.42966 0.0
C3022 C 0.40481 0.97877 0.63378 0.0
C3023 C 0.40278 0.96788 0.63462 0.0
C3024 C 0.40589 0.98408 0.59888 0.0
C3025 C 0.40477 0.97855 0.56408 0.0
C3026 C 0.40246 0.96755 0.56476 0.0
C3027 C 0.40147 0.96225 0.59983 0.0
C3028 C 0.40693 0.98463 0.52737 0.0
C3029 C 0.41512 0.98506 0.50298 0.0
C3030 C 0.40192 0.99101 0.51858 0.0
C3031 C 0.39249 0.99008 0.54128 0.0
C3032 C 0.38322 0.97967 0.54871 0.0
C3033 C 0.37442 0.97881 0.57045 0.0
C3034 C 0.37474 0.9883 0.58473 0.0
C3035 C 0.38386 -0.00133 0.57724 0.0
C3036 C 0.39269 -0.00041 0.55556 0.0
C3037 C 0.41957 0.00935 0.36196 0.0
C3038 C 0.42694 0.02068 0.36739 0.0
C3039 C 0.41522 0.00232 0.39346 0.0
C3040 C 0.41803 0.00654 0.4308 0.0
C3041 C 0.42501 0.0179 0.43649 0.0
C3042 C 0.42954 0.02493 0.40491 0.0
C3043 C 0.41429 -0.00105 0.46377 0.0
C3044 C 0.4058 -0.00176 0.48709 0.0
C3045 C 0.41886 0.99215 0.47127 0.0
C3046 C 0.42775 0.99251 0.44698 0.0
C3047 C 0.43797 0.00229 0.44351 0.0
C3048 C 0.44624 0.00259 0.42009 0.0
C3049 C 0.44442 0.99314 0.40027 0.0
C3050 C 0.43432 0.98335 0.40394 0.0
C3051 C 0.42602 0.983 0.42727 0.0
H3052 H 0.45083 0.99339 0.38215 0.0
H3053 H 0.36791 0.98761 0.60155 0.0
H3054 H 0.55807 0.95933 0.58621 0.0
H3055 H 0.5655 0.97038 0.52735 0.0
H3056 H 0.58122 0.0001 0.59549 0.0
H3057 H 0.57408 0.98923 0.65401 0.0
H3058 H 0.56698 -0.0006 0.53227 0.0
H3059 H 0.59708 0.99269 0.56197 0.0
H3060 H 0.60489 0.98064 0.57488 0.0
H3061 H 0.59372 0.96525 0.46454 0.0
H3062 H 0.5857 0.9771 0.45121 0.0
H3063 H 0.5974 0.0403 0.39669 0.0
H3064 H 0.59314 0.02884 0.45433 0.0
H3065 H 0.58633 0.00075 0.3837 0.0
H3066 H 0.59097 0.01222 0.32635 0.0
H3067 H 0.59564 -0.00022 0.44708 0.0
H3068 H 0.56553 0.00519 0.41505 0.0
H3069 H 0.55625 0.01574 0.39946 0.0
H3070 H 0.56518 0.0315 0.50999 0.0
H3071 H 0.57466 0.02116 0.52603 0.0
C3072 C 0.56318 0.96821 0.58852 0.0
C3073 C 0.56547 0.97343 0.62457 0.0
C3074 C 0.56743 0.97448 0.55504 0.0
C3075 C 0.57387 0.98602 0.55737 0.0
C3076 C 0.57625 0.9912 0.5933 0.0
C3077 C 0.57218 0.98497 0.62665 0.0
C3078 C 0.57779 0.99284 0.52242 0.0
C3079 C 0.57333 -0.00041 0.51379 0.0
C3080 C 0.58578 0.99274 0.49789 0.0
C3081 C 0.59068 0.98569 0.50579 0.0
C3082 C 0.5962 0.98666 0.54061 0.0
C3083 C 0.60069 0.97989 0.54797 0.0
C3084 C 0.59978 0.97216 0.5206 0.0
C3085 C 0.59441 0.97122 0.48574 0.0
C3086 C 0.5899 0.97797 0.47826 0.0
C3087 C 0.59516 0.03173 0.39359 0.0
C3088 C 0.59436 0.02711 0.35707 0.0
C3089 C 0.59269 0.02518 0.42645 0.0
C3090 C 0.58916 0.01388 0.42317 0.0
C3091 C 0.58898 0.00943 0.38689 0.0
C3092 C 0.5916 0.016 0.35412 0.0
C3093 C 0.58497 0.00654 0.45712 0.0
C3094 C 0.5893 -0.00037 0.46549 0.0
C3095 C 0.57665 0.00628 0.48102 0.0
C3096 C 0.57091 0.01248 0.47158 0.0
C3097 C 0.56559 0.01097 0.43592 0.0
C3098 C 0.56028 0.0169 0.42702 0.0
C3099 C 0.56015 0.02431 0.45368 0.0
C3100 C 0.5653 0.02577 0.48934 0.0
C3101 C 0.57064 0.01987 0.49837 0.0
H3102 H 0.55604 0.02889 0.44673 0.0
H3103 H 0.60325 0.96692 0.52635 0.0
H3104 H 0.98608 0.5772 0.33386 0.0
H3105 H 0.99654 0.58344 0.39346 0.0
H3106 H 0.96707 0.56273 0.45865 0.0
H3107 H 0.95643 0.5562 0.39858 0.0
H3108 H 0.98315 0.5869 0.48574 0.0
H3109 H 0.98065 0.55209 0.45186 0.0
H3110 H 0.98188 0.53921 0.40644 0.0
H3111 H 0.01603 0.56267 0.38597 0.0
H3112 H 0.01495 0.57577 0.43081 0.0
H3113 H 0.00897 0.5868 0.66028 0.0
H3114 H -0.00246 0.58297 0.60336 0.0
H3115 H 0.02596 0.59227 0.53107 0.0
H3116 H 0.03742 0.59568 0.58839 0.0
H3117 H 0.00979 0.57382 0.50743 0.0
H3118 H 0.01319 0.60849 0.54087 0.0
H3119 H 0.01259 0.62237 0.5829 0.0
H3120 H 0.9779 0.60078 0.60124 0.0
H3121 H 0.97832 0.5867 0.55971 0.0
C3122 C 0.98176 0.57403 0.36082 0.0
C3123 C 0.97045 0.56612 0.3616 0.0
C3124 C 0.98775 0.57763 0.39478 0.0
C3125 C 0.98255 0.57348 0.43013 0.0
C3126 C 0.97117 0.56599 0.4314 0.0
C3127 C 0.96514 0.56225 0.39721 0.0
C3128 C 0.9893 0.57649 0.46523 0.0
C3129 C 0.98886 0.58393 0.49106 0.0
C3130 C 0.99697 0.57287 0.47096 0.0
C3131 C -0.00232 0.56495 0.44438 0.0
C3132 C 0.98839 0.55454 0.4374 0.0
C3133 C 0.98907 0.54719 0.41182 0.0
C3134 C -0.00098 0.55013 0.39325 0.0
C3135 C 0.00833 0.56041 0.40033 0.0
C3136 C 0.00769 0.5678 0.42585 0.0
C3137 C 0.01283 0.58816 0.63227 0.0
C3138 C 0.02407 0.59149 0.62867 0.0
C3139 C 0.00629 0.58604 0.59972 0.0
C3140 C 0.01091 0.58746 0.56292 0.0
C3141 C 0.02223 0.59112 0.55924 0.0
C3142 C 0.02876 0.59308 0.5919 0.0
C3143 C 0.00374 0.58433 0.52849 0.0
C3144 C 0.0041 0.57683 0.50252 0.0
C3145 C 0.9961 0.58803 0.52248 0.0
C3146 C 0.99581 0.59649 0.54743 0.0
C3147 C 0.00545 0.60666 0.55409 0.0
C3148 C 0.00514 0.61457 0.57779 0.0
C3149 C 0.99522 0.61245 0.5948 0.0
C3150 C 0.98558 0.60241 0.58807 0.0
C3151 C 0.98585 0.59447 0.56442 0.0
H3152 H 0.99499 0.61858 0.61314 0.0
H3153 H -0.00047 0.54443 0.37345 0.0
H3154 H 0.41799 0.40957 0.32527 0.0
H3155 H 0.41055 0.41358 0.38258 0.0
H3156 H 0.42816 0.40246 0.45445 0.0
H3157 H 0.43591 0.39861 0.39693 0.0
H3158 H 0.40362 0.39499 0.47267 0.0
H3159 H 0.43999 0.4268 0.45097 0.0
H3160 H 0.45432 0.44141 0.41053 0.0
H3161 H 0.43257 0.45397 0.38585 0.0
H3162 H 0.41804 0.4393 0.42567 0.0
H3163 H 0.40298 0.41811 0.6518 0.0
H3164 H 0.40663 0.41108 0.59308 0.0
H3165 H 0.40021 0.43321 0.52595 0.0
H3166 H 0.39701 0.44069 0.58522 0.0
H3167 H 0.41827 0.43458 0.5029 0.0
H3168 H 0.38233 0.40424 0.52699 0.0
H3169 H 0.36723 0.38947 0.56457 0.0
H3170 H 0.38665 0.37387 0.58172 0.0
H3171 H 0.40193 0.38863 0.54467 0.0
C3172 C 0.42021 0.40786 0.35322 0.0
C3173 C 0.42759 0.40384 0.35674 0.0
C3174 C 0.41595 0.41016 0.38585 0.0
C3175 C 0.41886 0.40832 0.42245 0.0
C3176 C 0.42585 0.40388 0.42623 0.0
C3177 C 0.43028 0.40175 0.3935 0.0
C3178 C 0.41511 0.41174 0.45659 0.0
C3179 C 0.40688 0.40362 0.47978 0.0
C3180 C 0.41913 0.423 0.46459 0.0
C3181 C 0.42789 0.43188 0.44091 0.0
C3182 C 0.43823 0.43261 0.4366 0.0
C3183 C 0.44639 0.44091 0.41386 0.0
C3184 C 0.44435 0.44859 0.39553 0.0
C3185 C 0.43414 0.448 0.4 0.0
C3186 C 0.42594 0.4397 0.42267 0.0
C3187 C 0.40219 0.42139 0.62453 0.0
C3188 C 0.39975 0.42998 0.62304 0.0
C3189 C 0.40421 0.41729 0.5909 0.0
C3190 C 0.40356 0.4215 0.55502 0.0
C3191 C 0.40075 0.42984 0.55336 0.0
C3192 C 0.3989 0.43408 0.58715 0.0
C3193 C 0.40672 0.41783 0.51971 0.0
C3194 C 0.41489 0.42592 0.49603 0.0
C3195 C 0.4025 0.40652 0.51106 0.0
C3196 C 0.39331 0.3976 0.53328 0.0
C3197 C 0.38341 0.3977 0.539 0.0
C3198 C 0.37482 0.38932 0.56017 0.0
C3199 C 0.37599 0.38075 0.57559 0.0
C3200 C 0.38575 0.38052 0.56978 0.0
C3201 C 0.39438 0.38889 0.54865 0.0
H3202 H 0.36932 0.37427 0.59198 0.0
H3203 H 0.45068 0.45502 0.37794 0.0
H3204 H 0.07176 0.30262 0.20897 0.0
H3205 H 0.07399 0.31092 0.27264 0.0
H3206 H 0.09149 0.34341 0.22214 0.0
H3207 H 0.08956 0.33521 0.15873 0.0
H3208 H 0.10236 0.34247 0.28127 0.0
H3209 H 0.06487 0.33248 0.25823 0.0
H3210 H 0.04538 0.32019 0.24074 0.0
H3211 H 0.04145 0.29908 0.33619 0.0
H3212 H 0.06096 0.31116 0.35396 0.0
H3213 H 0.10571 0.36796 0.46231 0.0
H3214 H 0.10054 0.36241 0.39517 0.0
H3215 H 0.08415 0.32818 0.42891 0.0
H3216 H 0.0891 0.33358 0.49563 0.0
H3217 H 0.0722 0.33188 0.37605 0.0
H3218 H 0.11021 0.34075 0.3934 0.0
H3219 H 0.12975 0.35295 0.41059 0.0
H3220 H 0.13252 0.37628 0.32489 0.0
H3221 H 0.11294 0.36428 0.30753 0.0
C3222 C 0.07599 0.31153 0.21141 0.0
C3223 C 0.08053 0.31825 0.17884 0.0
C3224 C 0.07721 0.31626 0.24778 0.0
C3225 C 0.08282 0.32779 0.25211 0.0
C3226 C 0.08714 0.3345 0.2195 0.0
C3227 C 0.08602 0.32978 0.18326 0.0
C3228 C 0.0848 0.33288 0.29084 0.0
C3229 C 0.09572 0.34032 0.3017 0.0
C3230 C 0.07618 0.32995 0.31773 0.0
C3231 C 0.06441 0.32269 0.30725 0.0
C3232 C 0.05987 0.32518 0.27534 0.0
C3233 C 0.04881 0.31825 0.26539 0.0
C3234 C 0.04218 0.30885 0.28729 0.0
C3235 C 0.04659 0.30636 0.31924 0.0
C3236 C 0.05765 0.31325 0.32929 0.0
C3237 C 0.10092 0.35926 0.45543 0.0
C3238 C 0.09791 0.35122 0.48429 0.0
C3239 C 0.098 0.35611 0.4171 0.0
C3240 C 0.09205 0.34488 0.40709 0.0
C3241 C 0.08872 0.33688 0.43601 0.0
C3242 C 0.09164 0.34 0.47416 0.0
C3243 C 0.08974 0.34132 0.36642 0.0
C3244 C 0.07878 0.33415 0.35528 0.0
C3245 C 0.09831 0.3445 0.33919 0.0
C3246 C 0.11009 0.35169 0.3495 0.0
C3247 C 0.11497 0.34853 0.37843 0.0
C3248 C 0.12605 0.35539 0.38817 0.0
C3249 C 0.13237 0.3654 0.36893 0.0
C3250 C 0.12762 0.36854 0.33982 0.0
C3251 C 0.11653 0.36171 0.33002 0.0
H3252 H 0.14095 0.37071 0.3765 0.0
H3253 H 0.03362 0.3035 0.27954 0.0
H3254 H 0.62956 0.73512 0.44783 0.0
H3255 H 0.63741 0.73716 0.38331 0.0
H3256 H 0.67013 0.75236 0.4319 0.0
H3257 H 0.66244 0.75051 0.49603 0.0
H3258 H 0.66931 0.76435 0.37441 0.0
H3259 H 0.65797 0.72632 0.39488 0.0
H3260 H 0.64505 0.70686 0.41112 0.0
H3261 H 0.62429 0.70441 0.31634 0.0
H3262 H 0.63701 0.72391 0.29983 0.0
H3263 H 0.69527 0.76776 0.19486 0.0
H3264 H 0.68922 0.76234 0.2615 0.0
H3265 H 0.65523 0.74682 0.22513 0.0
H3266 H 0.66112 0.752 0.15895 0.0
H3267 H 0.65798 0.73445 0.27806 0.0
H3268 H 0.66812 0.77272 0.26207 0.0
H3269 H 0.68071 0.79226 0.24584 0.0
H3270 H 0.70343 0.7942 0.33265 0.0
H3271 H 0.69102 0.77462 0.34905 0.0
C3272 C 0.63841 0.73879 0.44477 0.0
C3273 C 0.64537 0.74271 0.47706 0.0
C3274 C 0.64289 0.73991 0.40793 0.0
C3275 C 0.65436 0.74488 0.40287 0.0
C3276 C 0.66127 0.74854 0.43514 0.0
C3277 C 0.65683 0.74746 0.47181 0.0
C3278 C 0.65927 0.74689 0.36389 0.0
C3279 C 0.66698 0.75777 0.35358 0.0
C3280 C 0.65607 0.73834 0.33652 0.0
C3281 C 0.6484 0.72661 0.34633 0.0
C3282 C 0.65061 0.72166 0.37768 0.0
C3283 C 0.64333 0.71062 0.3869 0.0
C3284 C 0.63384 0.70441 0.36483 0.0
C3285 C 0.63164 0.70923 0.33343 0.0
C3286 C 0.63888 0.72027 0.32411 0.0
C3287 C 0.68651 0.7631 0.20106 0.0
C3288 C 0.67869 0.76042 0.17164 0.0
C3289 C 0.68307 0.76003 0.2391 0.0
C3290 C 0.67177 0.75428 0.24824 0.0
C3291 C 0.66399 0.75125 0.21872 0.0
C3292 C 0.66739 0.75429 0.18087 0.0
C3293 C 0.66794 0.75191 0.28863 0.0
C3294 C 0.66041 0.74098 0.29914 0.0
C3295 C 0.67127 0.76041 0.31623 0.0
C3296 C 0.67871 0.77218 0.30646 0.0
C3297 C 0.67584 0.7773 0.27748 0.0
C3298 C 0.68294 0.78838 0.26829 0.0
C3299 C 0.69288 0.79446 0.28811 0.0
C3300 C 0.69574 0.78948 0.31726 0.0
C3301 C 0.68868 0.77839 0.32652 0.0
H3302 H 0.69837 0.80304 0.28096 0.0
H3303 H 0.62822 0.69587 0.37201 0.0
H3304 H 0.23684 0.93501 0.19291 0.0
H3305 H 0.24343 0.9339 0.25724 0.0
H3306 H 0.23212 0.89934 0.23891 0.0
H3307 H 0.22612 0.90057 0.17442 0.0
H3308 H 0.23434 0.92382 0.31831 0.0
H3309 H 0.24656 0.89029 0.28359 0.0
H3310 H 0.25492 0.88542 0.23017 0.0
H3311 H 0.27002 0.91862 0.18757 0.0
H3312 H 0.26188 0.92374 0.24103 0.0
H3313 H 0.22886 0.89324 0.48106 0.0
H3314 H 0.22862 0.90004 0.41693 0.0
H3315 H 0.26338 0.9114 0.40441 0.0
H3316 H 0.26349 0.90396 0.46824 0.0
H3317 H 0.25427 0.90333 0.34102 0.0
H3318 H 0.25308 0.92972 0.42166 0.0
H3319 H 0.24711 0.93697 0.4755 0.0
H3320 H 0.21464 0.92264 0.4268 0.0
H3321 H 0.22036 0.91516 0.37294 0.0
C3322 C 0.23581 0.92721 0.20273 0.0
C3323 C 0.23108 0.91791 0.17864 0.0
C3324 C 0.23959 0.92658 0.2394 0.0
C3325 C 0.23854 0.9166 0.25264 0.0
C3326 C 0.23342 0.90723 0.22895 0.0
C3327 C 0.22989 0.90792 0.19217 0.0
C3328 C 0.24231 0.91572 0.29172 0.0
C3329 C 0.2388 0.91943 0.32324 0.0
C3330 C 0.24851 0.91038 0.29829 0.0
C3331 C 0.25355 0.90738 0.26626 0.0
C3332 C 0.25172 0.89658 0.26298 0.0
C3333 C 0.2564 0.89376 0.23265 0.0
C3334 C 0.26298 0.9017 0.20546 0.0
C3335 C 0.2649 0.91247 0.2086 0.0
C3336 C 0.26024 0.91533 0.23889 0.0
C3337 C 0.23646 0.89719 0.46464 0.0
C3338 C 0.24622 0.89815 0.47964 0.0
C3339 C 0.23634 0.90117 0.42808 0.0
C3340 C 0.24606 0.90656 0.40619 0.0
C3341 C 0.2558 0.90737 0.42087 0.0
C3342 C 0.25586 0.90311 0.45725 0.0
C3343 C 0.24581 0.91093 0.36752 0.0
C3344 C 0.25001 0.9079 0.33609 0.0
C3345 C 0.24065 0.9173 0.36109 0.0
C3346 C 0.23715 0.92184 0.3933 0.0
C3347 C 0.24465 0.92806 0.42252 0.0
C3348 C 0.24131 0.93222 0.45305 0.0
C3349 C 0.2305 0.93026 0.45459 0.0
C3350 C 0.22301 0.92416 0.42556 0.0
C3351 C 0.2263 0.91997 0.39498 0.0
H3352 H 0.22793 0.93348 0.47825 0.0
H3353 H 0.26659 0.8995 0.18198 0.0
H3354 H 0.36182 0.10136 0.53514 0.0
H3355 H 0.35373 0.09446 0.59883 0.0
H3356 H 0.32126 0.08362 0.55291 0.0
H3357 H 0.32917 0.09055 0.48994 0.0
H3358 H 0.3246 0.09526 0.6166 0.0
H3359 H 0.32935 0.06515 0.57597 0.0
H3360 H 0.33958 0.05629 0.55167 0.0
H3361 H 0.36102 0.06804 0.64988 0.0
H3362 H 0.351 0.07711 0.67452 0.0
H3363 H 0.29514 0.06891 0.78517 0.0
H3364 H 0.30137 0.07016 0.71844 0.0
H3365 H 0.33479 0.08282 0.75786 0.0
H3366 H 0.32869 0.08152 0.82416 0.0
H3367 H 0.33005 0.06896 0.69622 0.0
H3368 H 0.32652 0.10041 0.73306 0.0
H3369 H 0.31651 0.10949 0.75771 0.0
H3370 H 0.29299 0.09529 0.66589 0.0
H3371 H 0.30279 0.086 0.64101 0.0
C3372 C 0.35296 0.09746 0.53865 0.0
C3373 C 0.34617 0.0966 0.50751 0.0
C3374 C 0.34835 0.09347 0.57494 0.0
C3375 C 0.33689 0.08849 0.58047 0.0
C3376 C 0.33012 0.08746 0.54929 0.0
C3377 C 0.33469 0.09146 0.51326 0.0
C3378 C 0.3319 0.08488 0.61905 0.0
C3379 C 0.32565 0.08936 0.6337 0.0
C3380 C 0.33345 0.07735 0.64163 0.0
C3381 C 0.33949 0.07191 0.62689 0.0
C3382 C 0.3363 0.06593 0.59222 0.0
C3383 C 0.34206 0.06085 0.57842 0.0
C3384 C 0.35096 0.06162 0.59917 0.0
C3385 C 0.35412 0.06746 0.63381 0.0
C3386 C 0.34841 0.07256 0.64773 0.0
C3387 C 0.30377 0.07176 0.7796 0.0
C3388 C 0.31145 0.07529 0.80983 0.0
C3389 C 0.30732 0.07248 0.74154 0.0
C3390 C 0.31856 0.07672 0.73333 0.0
C3391 C 0.32609 0.07955 0.7636 0.0
C3392 C 0.32258 0.07888 0.80148 0.0
C3393 C 0.32275 0.07932 0.69346 0.0
C3394 C 0.3289 0.07473 0.67875 0.0
C3395 C 0.32115 0.08678 0.67071 0.0
C3396 C 0.3153 0.09242 0.68546 0.0
C3397 C 0.31916 0.09916 0.71831 0.0
C3398 C 0.31354 0.10435 0.73229 0.0
C3399 C 0.3041 0.10294 0.71345 0.0
C3400 C 0.30029 0.09636 0.6805 0.0
C3401 C 0.30587 0.09113 0.66644 0.0
H3402 H 0.29976 0.10697 0.72431 0.0
H3403 H 0.3554 0.05768 0.58844 0.0
H3404 H 0.89946 0.235 0.8367 0.0
H3405 H 0.8988 0.24187 0.77335 0.0
H3406 H 0.92872 0.24203 0.74173 0.0
H3407 H 0.92923 0.23469 0.80526 0.0
H3408 H 0.91065 0.25912 0.73182 0.0
H3409 H 0.92704 0.23496 0.64763 0.0
H3410 H 0.92896 0.21843 0.65439 0.0
H3411 H 0.90086 0.20374 0.72964 0.0
H3412 H 0.89873 0.22013 0.72297 0.0
H3413 H 0.90775 0.26902 0.52918 0.0
H3414 H 0.91378 0.26808 0.59477 0.0
H3415 H 0.89015 0.23315 0.59802 0.0
H3416 H 0.88469 0.23403 0.53211 0.0
H3417 H 0.90855 0.23596 0.6206 0.0
H3418 H 0.88735 0.25379 0.64964 0.0
H3419 H 0.88245 0.2684 0.64453 0.0
H3420 H 0.91493 0.2925 0.68233 0.0
H3421 H 0.92006 0.27804 0.68723 0.0
C3422 C 0.90597 0.23655 0.81648 0.0
C3423 C 0.91433 0.23416 0.82587 0.0
C3424 C 0.90562 0.24057 0.78027 0.0
C3425 C 0.91365 0.24238 0.75266 0.0
C3426 C 0.92234 0.24053 0.76246 0.0
C3427 C 0.92262 0.23634 0.7987 0.0
C3428 C 0.91224 0.24529 0.71294 0.0
C3429 C 0.9103 0.25413 0.70737 0.0
C3430 C 0.91166 0.23872 0.68114 0.0
C3431 C 0.91283 0.22882 0.68521 0.0
C3432 C 0.92128 0.22819 0.66558 0.0
C3433 C 0.9224 0.21885 0.66939 0.0
C3434 C 0.91507 0.21006 0.69256 0.0
C3435 C 0.90657 0.21057 0.71184 0.0
C3436 C 0.90541 0.21989 0.70808 0.0
C3437 C 0.90375 0.26123 0.54444 0.0
C3438 C 0.89577 0.2516 0.5261 0.0
C3439 C 0.90718 0.26068 0.58176 0.0
C3440 C 0.90244 0.25053 0.60133 0.0
C3441 C 0.89404 0.24105 0.58339 0.0
C3442 C 0.89084 0.24155 0.54595 0.0
C3443 C 0.90645 0.24947 0.63967 0.0
C3444 C 0.90906 0.24108 0.64484 0.0
C3445 C 0.9072 0.25618 0.6713 0.0
C3446 C 0.90413 0.26486 0.66834 0.0
C3447 C 0.89347 0.26222 0.65656 0.0
C3448 C 0.89065 0.27047 0.65376 0.0
C3449 C 0.89839 0.28138 0.66297 0.0
C3450 C 0.90896 0.28405 0.67512 0.0
C3451 C 0.91182 0.27583 0.67793 0.0
H3452 H 0.89618 0.28775 0.66079 0.0
H3453 H 0.91595 0.20284 0.69549 0.0
H3454 H 0.76611 0.66555 0.83624 0.0
H3455 H 0.76082 0.65822 0.77159 0.0
H3456 H 0.76417 0.68908 0.73345 0.0
H3457 H 0.76935 0.69652 0.79883 0.0
H3458 H 0.74541 0.67152 0.70612 0.0
H3459 H 0.78361 0.68264 0.71036 0.0
H3460 H 0.80064 0.68403 0.73647 0.0
H3461 H 0.78635 0.64889 0.72781 0.0
H3462 H 0.76916 0.64727 0.70215 0.0
H3463 H 0.74926 0.66231 0.50584 0.0
H3464 H 0.75227 0.66916 0.57186 0.0
H3465 H 0.74423 0.63697 0.61352 0.0
H3466 H 0.741 0.62996 0.54722 0.0
H3467 H 0.76515 0.65521 0.63865 0.0
H3468 H 0.72687 0.64459 0.63245 0.0
H3469 H 0.71035 0.6439 0.60447 0.0
H3470 H 0.72561 0.67912 0.61427 0.0
H3471 H 0.7423 0.68004 0.64179 0.0
C3472 C 0.76577 0.67085 0.81422 0.0
C3473 C 0.7682 0.68166 0.82274 0.0
C3474 C 0.76277 0.66663 0.77717 0.0
C3475 C 0.76223 0.67315 0.74765 0.0
C3476 C 0.76457 0.68393 0.75591 0.0
C3477 C 0.76757 0.68818 0.79318 0.0
C3478 C 0.7591 0.66855 0.70837 0.0
C3479 C 0.74982 0.6681 0.6911 0.0
C3480 C 0.76473 0.66389 0.6892 0.0
C3481 C 0.77505 0.66482 0.70467 0.0
C3482 C 0.78406 0.67519 0.71433 0.0
C3483 C 0.79375 0.67603 0.72899 0.0
C3484 C 0.79457 0.66655 0.73389 0.0
C3485 C 0.7857 0.65623 0.72405 0.0
C3486 C 0.77599 0.65534 0.70941 0.0
C3487 C 0.74799 0.65664 0.52909 0.0
C3488 C 0.74495 0.64561 0.52148 0.0
C3489 C 0.74967 0.66056 0.56673 0.0
C3490 C 0.74846 0.65356 0.59739 0.0
C3491 C 0.74517 0.64247 0.59008 0.0
C3492 C 0.74329 0.63848 0.55234 0.0
C3493 C 0.75144 0.65811 0.63665 0.0
C3494 C 0.76073 0.6586 0.6538 0.0
C3495 C 0.7459 0.66292 0.65542 0.0
C3496 C 0.73588 0.66239 0.63884 0.0
C3497 C 0.72675 0.6522 0.6283 0.0
C3498 C 0.71734 0.65177 0.6126 0.0
C3499 C 0.71694 0.66146 0.6075 0.0
C3500 C 0.72594 0.67161 0.61818 0.0
C3501 C 0.73537 0.6721 0.63388 0.0
H3502 H 0.70965 0.66111 0.59535 0.0
H3503 H 0.80208 0.66722 0.74523 0.0
H3504 H 0.8896 0.6302 0.53907 0.0
H3505 H 0.89482 0.63584 0.60621 0.0
H3506 H 0.90894 0.66998 0.57321 0.0
H3507 H 0.90391 0.6645 0.50667 0.0
H3508 H 0.92179 0.6671 0.62557 0.0
H3509 H 0.88303 0.65594 0.60769 0.0
H3510 H 0.86372 0.64267 0.59054 0.0
H3511 H 0.8627 0.62025 0.67689 0.0
H3512 H 0.88206 0.63335 0.69422 0.0
H3513 H 0.92068 0.69646 0.78971 0.0
H3514 H 0.91863 0.68791 0.72653 0.0
H3515 H 0.90228 0.65566 0.77916 0.0
H3516 H 0.90396 0.66408 0.84188 0.0
H3517 H 0.89126 0.65545 0.7195 0.0
H3518 H 0.92921 0.66769 0.74397 0.0
H3519 H 0.94851 0.68089 0.76135 0.0
H3520 H 0.95137 0.70094 0.66376 0.0
H3521 H 0.93204 0.68794 0.64608 0.0
C3522 C 0.89393 0.6389 0.54614 0.0
C3523 C 0.89622 0.64689 0.51765 0.0
C3524 C 0.89688 0.6421 0.58443 0.0
C3525 C 0.90219 0.65332 0.59458 0.0
C3526 C 0.90487 0.66129 0.56594 0.0
C3527 C 0.9019 0.65812 0.52792 0.0
C3528 C 0.90432 0.65689 0.63517 0.0
C3529 C 0.91514 0.66458 0.64622 0.0
C3530 C 0.89566 0.65339 0.66217 0.0
C3531 C 0.88401 0.64556 0.65192 0.0
C3532 C 0.87871 0.64815 0.62281 0.0
C3533 C 0.86776 0.64066 0.6131 0.0
C3534 C 0.862 0.63061 0.63252 0.0
C3535 C 0.86718 0.62803 0.66181 0.0
C3536 C 0.87813 0.63548 0.6716 0.0
C3537 C 0.91669 0.68756 0.78776 0.0
C3538 C 0.91243 0.68095 0.82071 0.0
C3539 C 0.91559 0.68268 0.75172 0.0
C3540 C 0.91041 0.67114 0.74819 0.0
C3541 C 0.90629 0.66457 0.78117 0.0
C3542 C 0.90726 0.66941 0.81701 0.0
C3543 C 0.90875 0.66586 0.70997 0.0
C3544 C 0.89799 0.65785 0.6993 0.0
C3545 C 0.9175 0.66905 0.68342 0.0
C3546 C 0.92915 0.67687 0.69387 0.0
C3547 C 0.93393 0.67495 0.72637 0.0
C3548 C 0.94488 0.6824 0.73625 0.0
C3549 C 0.95115 0.69176 0.71372 0.0
C3550 C 0.9465 0.69369 0.6812 0.0
C3551 C 0.93555 0.68628 0.67121 0.0
H3552 H 0.95963 0.69752 0.72142 0.0
H3553 H 0.85352 0.62482 0.62496 0.0
H3554 H 0.32649 0.24529 0.82055 0.0
H3555 H 0.33228 0.24925 0.75362 0.0
H3556 H 0.2999 0.22409 0.71687 0.0
H3557 H 0.29398 0.22006 0.78432 0.0
H3558 H 0.31702 0.22175 0.68633 0.0
H3559 H 0.30767 0.25004 0.69801 0.0
H3560 H 0.30749 0.26596 0.72765 0.0
H3561 H 0.34266 0.28547 0.71487 0.0
H3562 H 0.34308 0.26961 0.68566 0.0
H3563 H 0.32879 0.23287 0.48924 0.0
H3564 H 0.32078 0.23066 0.55291 0.0
H3565 H 0.35204 0.25622 0.59673 0.0
H3566 H 0.3602 0.25862 0.53247 0.0
H3567 H 0.33446 0.25832 0.62223 0.0
H3568 H 0.34411 0.22999 0.61508 0.0
H3569 H 0.34466 0.21413 0.58663 0.0
H3570 H 0.30932 0.19476 0.59248 0.0
H3571 H 0.30855 0.21056 0.62046 0.0
C3572 C 0.32053 0.24069 0.79825 0.0
C3573 C 0.3098 0.23231 0.80762 0.0
C3574 C 0.32384 0.24303 0.76001 0.0
C3575 C 0.31651 0.23699 0.73038 0.0
C3576 C 0.30566 0.22885 0.73947 0.0
C3577 C 0.30228 0.22659 0.77789 0.0
C3578 C 0.32059 0.23858 0.69037 0.0
C3579 C 0.32062 0.22968 0.67193 0.0
C3580 C 0.32562 0.24903 0.67233 0.0
C3581 C 0.32541 0.2586 0.68991 0.0
C3582 C 0.31538 0.2577 0.70182 0.0
C3583 C 0.31524 0.26672 0.71848 0.0
C3584 C 0.32506 0.27671 0.72322 0.0
C3585 C 0.33506 0.27772 0.71122 0.0
C3586 C 0.33525 0.26872 0.69455 0.0
C3587 C 0.33402 0.23805 0.5123 0.0
C3588 C 0.34518 0.24591 0.50576 0.0
C3589 C 0.32941 0.23674 0.54874 0.0
C3590 C 0.33585 0.24319 0.57954 0.0
C3591 C 0.34695 0.25115 0.57322 0.0
C3592 C 0.3516 0.25247 0.5366 0.0
C3593 C 0.33091 0.2415 0.61832 0.0
C3594 C 0.33076 0.25037 0.63652 0.0
C3595 C 0.32583 0.23103 0.63632 0.0
C3596 C 0.32626 0.2215 0.61949 0.0
C3597 C 0.33645 0.22238 0.60998 0.0
C3598 C 0.3368 0.2134 0.594 0.0
C3599 C 0.32703 0.20345 0.58765 0.0
C3600 C 0.31688 0.20247 0.59736 0.0
C3601 C 0.31648 0.21144 0.61331 0.0
H3602 H 0.32732 0.1965 0.57529 0.0
H3603 H 0.32493 0.28369 0.73611 0.0
H3604 H 0.7539 0.089 0.82195 0.0
H3605 H 0.74791 0.09019 0.75754 0.0
H3606 H 0.75585 0.06574 0.7181 0.0
H3607 H 0.76218 0.06468 0.78284 0.0
H3608 H 0.76433 0.08304 0.67197 0.0
H3609 H 0.72867 0.06 0.72695 0.0
H3610 H 0.71385 0.05436 0.77504 0.0
H3611 H 0.7126 0.08392 0.75346 0.0
H3612 H 0.72752 0.08982 0.7056 0.0
H3613 H 0.74457 0.08108 0.48675 0.0
H3614 H 0.74527 0.0751 0.55192 0.0
H3615 H 0.73946 0.10043 0.5975 0.0
H3616 H 0.73845 0.10632 0.53178 0.0
H3617 H 0.72895 0.08133 0.63983 0.0
H3618 H 0.76547 0.10507 0.59003 0.0
H3619 H 0.78053 0.11115 0.54266 0.0
H3620 H 0.78032 0.08054 0.55591 0.0
H3621 H 0.76515 0.07422 0.603 0.0
C3622 C 0.75429 0.08377 0.79979 0.0
C3623 C 0.75857 0.07676 0.80758 0.0
C3624 C 0.75076 0.08441 0.76294 0.0
C3625 C 0.75127 0.07794 0.7331 0.0
C3626 C 0.75534 0.07076 0.74082 0.0
C3627 C 0.75895 0.07016 0.77778 0.0
C3628 C 0.74841 0.0794 0.69334 0.0
C3629 C 0.75649 0.08241 0.6648 0.0
C3630 C 0.73831 0.07896 0.68428 0.0
C3631 C 0.72927 0.07539 0.71285 0.0
C3632 C 0.72529 0.06534 0.73263 0.0
C3633 C 0.71686 0.06209 0.75983 0.0
C3634 C 0.7123 0.06879 0.76735 0.0
C3635 C 0.71614 0.07874 0.74761 0.0
C3636 C 0.72457 0.08203 0.7204 0.0
C3637 C 0.74332 0.08531 0.5106 0.0
C3638 C 0.74164 0.09429 0.50425 0.0
C3639 C 0.74371 0.08188 0.54782 0.0
C3640 C 0.74268 0.08749 0.5795 0.0
C3641 C 0.74034 0.09604 0.57336 0.0
C3642 C 0.73979 0.0994 0.53589 0.0
C3643 C 0.74486 0.08492 0.61871 0.0
C3644 C 0.73671 0.08179 0.64706 0.0
C3645 C 0.75491 0.0853 0.62778 0.0
C3646 C 0.7641 0.08913 0.59975 0.0
C3647 C 0.76859 0.09961 0.58265 0.0
C3648 C 0.77715 0.1031 0.55587 0.0
C3649 C 0.78136 0.09623 0.5462 0.0
C3650 C 0.77704 0.08585 0.56338 0.0
C3651 C 0.76846 0.08231 0.59013 0.0
H3652 H 0.78798 0.09894 0.52546 0.0
H3653 H 0.70578 0.06626 0.78843 0.0
H3654 H 0.70058 0.92348 0.20497 0.0
H3655 H 0.6953 0.92137 0.27309 0.0
H3656 H 0.66224 0.91304 0.24117 0.0
H3657 H 0.66739 0.9151 0.17347 0.0
H3658 H 0.66994 0.92675 0.30495 0.0
H3659 H 0.66744 0.89301 0.2576 0.0
H3660 H 0.67479 0.88207 0.22724 0.0
H3661 H 0.69922 0.89193 0.31611 0.0
H3662 H 0.69211 0.90306 0.3467 0.0
H3663 H 0.63648 0.89573 0.46174 0.0
H3664 H 0.64485 0.90174 0.3981 0.0
H3665 H 0.67597 0.90725 0.44267 0.0
H3666 H 0.6677 0.90119 0.50608 0.0
H3667 H 0.67103 0.89641 0.37494 0.0
H3668 H 0.67243 0.92881 0.42585 0.0
H3669 H 0.66507 0.93974 0.4561 0.0
H3670 H 0.6429 0.93261 0.36115 0.0
H3671 H 0.65001 0.92149 0.33057 0.0
C3672 C 0.69225 0.92137 0.21257 0.0
C3673 C 0.68436 0.91933 0.18394 0.0
C3674 C 0.68924 0.92014 0.25139 0.0
C3675 C 0.67836 0.91694 0.26198 0.0
C3676 C 0.67067 0.9155 0.23353 0.0
C3677 C 0.67362 0.91662 0.19486 0.0
C3678 C 0.67466 0.91429 0.30231 0.0
C3679 C 0.67013 0.9201 0.32028 0.0
C3680 C 0.67511 0.90573 0.32235 0.0
C3681 C 0.67933 0.89898 0.30416 0.0
C3682 C 0.67444 0.89292 0.27049 0.0
C3683 C 0.67855 0.88667 0.25327 0.0
C3684 C 0.68749 0.88634 0.26966 0.0
C3685 C 0.69231 0.89222 0.30339 0.0
C3686 C 0.68824 0.8985 0.32069 0.0
C3687 C 0.64509 0.8982 0.45799 0.0
C3688 C 0.65142 0.89801 0.48903 0.0
C3689 C 0.64988 0.90168 0.42168 0.0
C3690 C 0.66106 0.90505 0.41586 0.0
C3691 C 0.66734 0.90471 0.44661 0.0
C3692 C 0.66259 0.90126 0.48287 0.0
C3693 C 0.66619 0.9088 0.37756 0.0
C3694 C 0.67096 0.90317 0.35991 0.0
C3695 C 0.66597 0.91753 0.35785 0.0
C3696 C 0.66169 0.92423 0.37609 0.0
C3697 C 0.66592 0.92949 0.41156 0.0
C3698 C 0.66181 0.93574 0.42874 0.0
C3699 C 0.65351 0.93685 0.4106 0.0
C3700 C 0.64932 0.93173 0.37519 0.0
C3701 C 0.6534 0.92547 0.3579 0.0
H3702 H 0.65033 0.94169 0.42395 0.0
H3703 H 0.69066 0.8815 0.25629 0.0
H3704 H 0.10745 0.74003 0.45172 0.0
H3705 H 0.1043 0.74413 0.38586 0.0
H3706 H 0.08082 0.75304 0.42812 0.0
H3707 H 0.08395 0.74907 0.49374 0.0
H3708 H 0.07421 0.74058 0.35918 0.0
H3709 H 0.1057 0.77278 0.41371 0.0
H3710 H 0.12399 0.78285 0.44464 0.0
H3711 H 0.1384 0.77478 0.34997 0.0
H3712 H 0.12016 0.76454 0.31874 0.0
H3713 H 0.07293 0.77213 0.20067 0.0
H3714 H 0.0745 0.76616 0.26543 0.0
H3715 H 0.10174 0.76224 0.22787 0.0
H3716 H 0.10044 0.76842 0.16384 0.0
H3717 H 0.10624 0.77184 0.29484 0.0
H3718 H 0.07542 0.73997 0.23914 0.0
H3719 H 0.05733 0.72948 0.20721 0.0
H3720 H 0.04182 0.73611 0.30197 0.0
H3721 H 0.05985 0.74678 0.33425 0.0
C3722 C 0.10148 0.74268 0.44684 0.0
C3723 C 0.09602 0.74433 0.47783 0.0
C3724 C 0.09972 0.74505 0.40931 0.0
C3725 C 0.09241 0.74899 0.40236 0.0
C3726 C 0.0865 0.75003 0.43299 0.0
C3727 C 0.08835 0.7478 0.47044 0.0
C3728 C 0.09144 0.75276 0.36366 0.0
C3729 C 0.08117 0.74747 0.34513 0.0
C3730 C 0.10059 0.76162 0.34531 0.0
C3731 C 0.11155 0.76779 0.3641 0.0
C3732 C 0.11275 0.77307 0.39967 0.0
C3733 C 0.12311 0.77882 0.41722 0.0
C3734 C 0.13234 0.77942 0.39932 0.0
C3735 C 0.13124 0.77429 0.36382 0.0
C3736 C 0.1209 0.76852 0.34618 0.0
C3737 C 0.07929 0.77005 0.20631 0.0
C3738 C 0.08654 0.77073 0.17703 0.0
C3739 C 0.08013 0.76658 0.24324 0.0
C3740 C 0.08815 0.76362 0.25132 0.0
C3741 C 0.09549 0.76448 0.22231 0.0
C3742 C 0.09471 0.76801 0.18563 0.0
C3743 C 0.089 0.75962 0.28993 0.0
C3744 C 0.09926 0.76492 0.30863 0.0
C3745 C 0.07986 0.75069 0.30821 0.0
C3746 C 0.069 0.74427 0.28891 0.0
C3747 C 0.06817 0.73927 0.25302 0.0
C3748 C 0.05792 0.73328 0.23489 0.0
C3749 C 0.04844 0.73216 0.2525 0.0
C3750 C 0.04917 0.73701 0.28834 0.0
C3751 C 0.0594 0.74302 0.30658 0.0
H3752 H 0.04051 0.72752 0.23842 0.0
H3753 H 0.14036 0.78389 0.41287 0.0
H3754 H 0.23225 0.3314 0.16472 0.0
H3755 H 0.23858 0.33803 0.22957 0.0
H3756 H 0.22992 0.30515 0.26512 0.0
H3757 H 0.22349 0.29834 0.19973 0.0
H3758 H 0.22237 0.31566 0.31484 0.0
H3759 H 0.25626 0.32356 0.25419 0.0
H3760 H 0.27053 0.331 0.20367 0.0
H3761 H 0.27644 0.36369 0.22599 0.0
H3762 H 0.26209 0.35643 0.27629 0.0
H3763 H 0.24643 0.33221 0.49706 0.0
H3764 H 0.24286 0.32477 0.43205 0.0
H3765 H 0.25308 0.35715 0.38647 0.0
H3766 H 0.25692 0.36476 0.45184 0.0
H3767 H 0.26032 0.34615 0.34208 0.0
H3768 H 0.22594 0.33859 0.39828 0.0
H3769 H 0.21128 0.3316 0.44748 0.0
H3770 H 0.20586 0.29881 0.43204 0.0
H3771 H 0.2206 0.30564 0.3831 0.0
C3772 C 0.23168 0.32554 0.18619 0.0
C3773 C 0.22735 0.31432 0.17701 0.0
C3774 C 0.23538 0.32938 0.22322 0.0
C3775 C 0.23484 0.32211 0.25192 0.0
C3776 C 0.23045 0.31089 0.24317 0.0
C3777 C 0.2268 0.30702 0.20587 0.0
C3778 C 0.23853 0.32629 0.29134 0.0
C3779 C 0.23072 0.32217 0.32103 0.0
C3780 C 0.24934 0.33502 0.29892 0.0
C3781 C 0.25803 0.33943 0.26883 0.0
C3782 C 0.26054 0.33232 0.24813 0.0
C3783 C 0.26866 0.33651 0.21957 0.0
C3784 C 0.27438 0.34781 0.21157 0.0
C3785 C 0.272 0.35494 0.2322 0.0
C3786 C 0.26389 0.3508 0.26078 0.0
C3787 C 0.24801 0.3378 0.47325 0.0
C3788 C 0.25183 0.34907 0.47961 0.0
C3789 C 0.24594 0.33351 0.43609 0.0
C3790 C 0.24747 0.34036 0.40455 0.0
C3791 C 0.25178 0.35172 0.41053 0.0
C3792 C 0.25396 0.35605 0.44784 0.0
C3793 C 0.24414 0.33554 0.36561 0.0
C3794 C 0.252 0.33956 0.336 0.0
C3795 C 0.23333 0.32678 0.35795 0.0
C3796 C 0.22445 0.32265 0.38733 0.0
C3797 C 0.22168 0.32991 0.40561 0.0
C3798 C 0.21335 0.32597 0.4334 0.0
C3799 C 0.20767 0.31478 0.44296 0.0
C3800 C 0.21028 0.30749 0.42466 0.0
C3801 C 0.21862 0.31138 0.39687 0.0
H3802 H 0.20122 0.31175 0.46448 0.0
H3803 H 0.28066 0.35103 0.18945 0.0
H3804 H 0.03007 0.4387 0.87222 0.0
H3805 H 0.02234 0.4341 0.9372 0.0
H3806 H 0.99179 0.40783 0.89117 0.0
H3807 H -0.00067 0.41265 0.82631 0.0
H3808 H 0.9875 0.41969 0.9367 0.0
H3809 H 0.00996 0.40294 0.94654 0.0
H3810 H 0.02701 0.4019 0.94207 0.0
H3811 H 0.04267 0.42799 0.02495 0.0
H3812 H 0.02577 0.42929 0.02954 0.0
H3813 H 0.96484 0.40231 0.1263 0.0
H3814 H 0.97155 0.40214 0.06119 0.0
H3815 H 0.00287 0.43071 0.08893 0.0
H3816 H 0.99638 0.43091 0.15349 0.0
H3817 H 0.00561 0.41523 0.05235 0.0
H3818 H 0.98382 0.43315 0.03656 0.0
H3819 H 0.96683 0.43431 0.04084 0.0
H3820 H 0.94989 0.40569 0.96875 0.0
H3821 H 0.96676 0.4043 0.96445 0.0
C3822 C 0.02179 0.43183 0.87612 0.0
C3823 C 0.01528 0.42609 0.84426 0.0
C3824 C 0.01737 0.42917 0.91325 0.0
C3825 C 0.00648 0.42057 0.91911 0.0
C3826 C 0.00018 0.41453 0.88737 0.0
C3827 C 0.00451 0.41728 0.85033 0.0
C3828 C 0.00133 0.41843 0.95778 0.0
C3829 C 0.99136 0.41849 0.96184 0.0
C3830 C 0.00645 0.41706 0.99074 0.0
C3831 C 0.01662 0.41627 0.98816 0.0
C3832 C 0.01707 0.40851 0.96361 0.0
C3833 C 0.0267 0.40786 0.96109 0.0
C3834 C 0.03592 0.41488 0.98315 0.0
C3835 C 0.03552 0.42255 0.00786 0.0
C3836 C 0.02591 0.42324 0.01047 0.0
C3837 C 0.97314 0.40857 0.11844 0.0
C3838 C 0.98006 0.41662 0.14513 0.0
C3839 C 0.97696 0.40846 0.08129 0.0
C3840 C 0.98771 0.41642 0.07032 0.0
C3841 C 0.99458 0.42445 0.0969 0.0
C3842 C 0.99081 0.42457 0.1338 0.0
C3843 C 0.99191 0.41664 0.03109 0.0
C3844 C 0.00169 0.41625 0.02699 0.0
C3845 C 0.98663 0.41769 -0.00194 0.0
C3846 C 0.97651 0.41855 0.00057 0.0
C3847 C 0.97645 0.42706 0.02189 0.0
C3848 C 0.96685 0.42776 0.02426 0.0
C3849 C 0.95728 0.42006 0.00518 0.0
C3850 C 0.9573 0.41164 0.98358 0.0
C3851 C 0.96688 0.41089 0.98115 0.0
H3852 H 0.94985 0.42062 0.00705 0.0
H3853 H 0.04337 0.41437 0.98116 0.0
H3854 H 0.57464 0.57783 0.15749 0.0
H3855 H 0.57433 0.58457 0.09329 0.0
H3856 H 0.58847 0.5658 0.0469 0.0
H3857 H 0.58905 0.55914 0.1118 0.0
H3858 H 0.59622 0.58618 0.0104 0.0
H3859 H 0.56141 0.55476 0.04506 0.0
H3860 H 0.54525 0.54395 0.08674 0.0
H3861 H 0.53671 0.5694 0.07925 0.0
H3862 H 0.55292 0.58044 0.03796 0.0
H3863 H 0.57451 0.57771 0.82146 0.0
H3864 H 0.58023 0.57666 0.88658 0.0
H3865 H 0.56463 0.59452 0.92875 0.0
H3866 H 0.55871 0.59553 0.86331 0.0
H3867 H 0.55834 0.57573 0.96815 0.0
H3868 H 0.59261 0.6065 0.92806 0.0
H3869 H 0.60869 0.61689 0.88569 0.0
H3870 H 0.61815 0.59232 0.90166 0.0
H3871 H 0.60202 0.58168 0.9437 0.0
C3872 C 0.57782 0.57523 0.13374 0.0
C3873 C 0.58168 0.56779 0.13945 0.0
C3874 C 0.57766 0.57911 0.0971 0.0
C3875 C 0.58115 0.57549 0.06536 0.0
C3876 C 0.58569 0.56864 0.07115 0.0
C3877 C 0.58599 0.56482 0.1081 0.0
C3878 C 0.57905 0.57806 0.02613 0.0
C3879 C 0.58794 0.58382 0.0009 0.0
C3880 C 0.56825 0.57514 0.01421 0.0
C3881 C 0.55844 0.56847 0.03874 0.0
C3882 C 0.55613 0.55808 0.05253 0.0
C3883 C 0.54695 0.55191 0.07605 0.0
C3884 C 0.53997 0.556 0.08572 0.0
C3885 C 0.54213 0.56625 0.07178 0.0
C3886 C 0.55131 0.57247 0.0483 0.0
C3887 C 0.57236 0.58152 0.84444 0.0
C3888 C 0.56607 0.58664 0.83721 0.0
C3889 C 0.57573 0.58099 0.88165 0.0
C3890 C 0.57296 0.58561 0.9124 0.0
C3891 C 0.5669 0.59095 0.90528 0.0
C3892 C 0.56352 0.59152 0.86794 0.0
C3893 C 0.57551 0.58393 0.95222 0.0
C3894 C 0.56665 0.57824 0.97762 0.0
C3895 C 0.58632 0.58685 0.96403 0.0
C3896 C 0.59605 0.59324 0.93881 0.0
C3897 C 0.59807 0.60326 0.9223 0.0
C3898 C 0.6072 0.6092 0.89838 0.0
C3899 C 0.61442 0.60525 0.89092 0.0
C3900 C 0.61254 0.59536 0.90744 0.0
C3901 C 0.60341 0.58938 0.93136 0.0
H3902 H 0.62149 0.60987 0.8724 0.0
H3903 H 0.53287 0.5512 0.10393 0.0
H3904 H 0.4126 0.00188 0.16351 0.0
H3905 H 0.40821 0.99541 0.09728 0.0
H3906 H 0.4372 0.02491 0.05799 0.0
H3907 H 0.44144 0.03164 0.12461 0.0
H3908 H 0.42018 0.01768 0.00615 0.0
H3909 H 0.43867 0.00211 0.07678 0.0
H3910 H 0.44144 0.9925 0.13134 0.0
H3911 H 0.40996 0.9638 0.10931 0.0
H3912 H 0.40693 0.9733 0.05493 0.0
H3913 H 0.43073 0.99629 0.83734 0.0
H3914 H 0.43155 0.00435 0.9001 0.0
H3915 H 0.40263 0.97429 0.93599 0.0
H3916 H 0.4018 0.96603 0.87304 0.0
H3917 H 0.41877 0.98176 0.98919 0.0
H3918 H 0.40103 0.99724 0.91465 0.0
H3919 H 0.39877 0.00706 0.85972 0.0
H3920 H 0.42939 0.03611 0.88793 0.0
H3921 H 0.43192 0.02641 0.94273 0.0
C3922 C 0.4179 0.00711 0.14065 0.0
C3923 C 0.42744 0.01718 0.14903 0.0
C3924 C 0.4154 0.00339 0.10288 0.0
C3925 C 0.42255 0.00954 0.07293 0.0
C3926 C 0.43162 0.02001 0.08082 0.0
C3927 C 0.43404 0.02385 0.11876 0.0
C3928 C 0.42112 0.0045 0.03442 0.0
C3929 C 0.41997 0.00988 0.00229 0.0
C3930 C 0.42068 0.99423 0.02961 0.0
C3931 C 0.42253 0.98845 0.06203 0.0
C3932 C 0.43231 0.99377 0.08373 0.0
C3933 C 0.43393 0.98835 0.11461 0.0
C3934 C 0.42587 0.97756 0.12385 0.0
C3935 C 0.41619 0.97216 0.10215 0.0
C3936 C 0.41452 0.97756 0.07129 0.0
C3937 C 0.42451 0.99135 0.85846 0.0
C3938 C 0.41618 0.98049 0.85012 0.0
C3939 C 0.42496 0.99603 0.89428 0.0
C3940 C 0.41704 0.98999 0.92243 0.0
C3941 C 0.40877 0.97911 0.91447 0.0
C3942 C 0.40832 0.9744 0.87855 0.0
C3943 C 0.41776 0.9949 0.96078 0.0
C3944 C 0.41886 0.98951 0.99295 0.0
C3945 C 0.41823 0.00518 0.96546 0.0
C3946 C 0.4167 0.01106 0.93263 0.0
C3947 C 0.40732 0.00569 0.90898 0.0
C3948 C 0.40599 0.01125 0.87789 0.0
C3949 C 0.41394 0.0222 0.87029 0.0
C3950 C 0.42324 0.02763 0.89383 0.0
C3951 C 0.42462 0.02211 0.92494 0.0
H3952 H 0.41289 0.02648 0.8462 0.0
H3953 H 0.42714 0.97337 0.14777 0.0
H3954 H 0.5685 -0.00084 0.82436 0.0
H3955 H 0.57455 0.00655 0.88871 0.0
H3956 H 0.56514 0.974 0.93051 0.0
H3957 H 0.559 0.96644 0.8657 0.0
H3958 H 0.55711 0.98506 0.97479 0.0
H3959 H 0.59169 0.99228 0.92158 0.0
H3960 H 0.60662 -0.0007 0.87345 0.0
H3961 H 0.61252 0.03221 0.89035 0.0
H3962 H 0.59751 0.02537 0.93821 0.0
H3963 H 0.57901 0.00097 0.15844 0.0
H3964 H 0.5766 0.99403 0.09299 0.0
H3965 H 0.58671 0.02654 0.049 0.0
H3966 H 0.58934 0.03368 0.11507 0.0
H3967 H 0.59483 0.01543 0.00573 0.0
H3968 H 0.56005 0.00858 0.05517 0.0
H3969 H 0.54488 0.00202 0.10227 0.0
H3970 H 0.53903 0.96896 0.09083 0.0
H3971 H 0.55427 0.97536 0.04402 0.0
C3972 C 0.56773 0.99353 0.84712 0.0
C3973 C 0.56323 0.98218 0.83993 0.0
C3974 C 0.57127 0.99781 0.88384 0.0
C3975 C 0.57039 0.99084 0.91417 0.0
C3976 C 0.56593 0.9795 0.90729 0.0
C3977 C 0.56244 0.97521 0.87033 0.0
C3978 C 0.57361 0.99539 0.95341 0.0
C3979 C 0.56541 0.99155 0.98178 0.0
C3980 C 0.58434 0.00413 0.96194 0.0
C3981 C 0.59341 0.00829 0.93326 0.0
C3982 C 0.59611 0.001 0.91481 0.0
C3983 C 0.6046 0.00495 0.88762 0.0
C3984 C 0.6105 0.01619 0.87878 0.0
C3985 C 0.60794 0.02351 0.8972 0.0
C3986 C 0.59945 0.0196 0.9244 0.0
C3987 C 0.58082 0.0067 0.13492 0.0
C3988 C 0.5842 0.01785 0.14189 0.0
C3989 C 0.57944 0.0027 0.09752 0.0
C3990 C 0.58125 0.00972 0.06628 0.0
C3991 C 0.58521 0.02099 0.07287 0.0
C3992 C 0.58669 0.02505 0.11053 0.0
C3993 C 0.57835 0.00504 0.02709 0.0
C3994 C 0.58656 0.00888 -0.00125 0.0
C3995 C 0.56759 0.99636 0.01837 0.0
C3996 C 0.55837 0.99247 0.04636 0.0
C3997 C 0.55558 -8e-05 0.06292 0.0
C3998 C 0.54696 0.99623 0.08952 0.0
C3999 C 0.54102 0.98508 0.09961 0.0
C4000 C 0.54366 0.9776 0.08302 0.0
C4001 C 0.55228 0.98125 0.05642 0.0
H4002 H 0.53434 0.98224 0.12022 0.0
H4003 H 0.61707 0.01924 0.85772 0.0
H4004 H -0.00073 0.57586 0.833 0.0
H4005 H 0.99377 0.57572 0.89935 0.0
H4006 H 0.02783 0.59143 0.93503 0.0
H4007 H 0.03348 0.59154 0.86812 0.0
H4008 H 0.01444 0.57305 0.9771 0.0
H4009 H 0.0144 0.6057 0.93875 0.0
H4010 H 0.01011 0.61737 0.89749 0.0
H4011 H 0.97545 0.59556 0.91574 0.0
H4012 H 0.97952 0.58365 0.95668 0.0
H4013 H 0.00018 0.57582 0.16844 0.0
H4014 H 0.00819 0.58178 0.10479 0.0
H4015 H 0.97559 0.56687 0.05527 0.0
H4016 H 0.96743 0.56099 0.11944 0.0
H4017 H 0.98984 0.58683 0.02211 0.0
H4018 H 0.98972 0.55327 0.05368 0.0
H4019 H 0.99368 0.54113 0.09375 0.0
H4020 H 0.0284 0.56436 0.08668 0.0
H4021 H 0.02463 0.57672 0.04698 0.0
C4022 C 0.00564 0.57938 0.8548 0.0
C4023 C 0.01682 0.58365 0.84531 0.0
C4024 C 0.00247 0.57937 0.89272 0.0
C4025 C 0.0104 0.58368 0.92198 0.0
C4026 C 0.0216 0.58813 0.9127 0.0
C4027 C 0.02481 0.58819 0.87454 0.0
C4028 C 0.00677 0.58262 0.96243 0.0
C4029 C 0.00928 0.57629 0.98725 0.0
C4030 C -0.00023 0.58657 0.97513 0.0
C4031 C -0.00273 0.59374 0.95061 0.0
C4032 C 0.00586 0.60334 0.93374 0.0
C4033 C 0.00347 0.61001 0.91045 0.0
C4034 C 0.99251 0.6072 0.90395 0.0
C4035 C 0.98393 0.59772 0.9208 0.0
C4036 C 0.98628 0.59102 0.9441 0.0
C4037 C 0.99468 0.57383 0.14411 0.0
C4038 C 0.98315 0.56778 0.14889 0.0
C4039 C -0.00071 0.57726 0.10775 0.0
C4040 C 0.99248 0.57459 0.07534 0.0
C4041 C 0.98097 0.56897 0.08003 0.0
C4042 C 0.97633 0.56559 0.11662 0.0
C4043 C -0.00257 0.57719 0.0365 0.0
C4044 C 0.99514 0.58375 0.01205 0.0
C4045 C 0.00459 0.57341 0.02397 0.0
C4046 C 0.00688 0.56597 0.04771 0.0
C4047 C -0.00181 0.55583 0.06092 0.0
C4048 C 0.0004 0.5489 0.08352 0.0
C4049 C 0.01128 0.55199 0.09285 0.0
C4050 C 0.01997 0.56199 0.07949 0.0
C4051 C 0.0178 0.56896 0.05692 0.0
H4052 H 0.01298 0.54661 0.11034 0.0
H4053 H 0.99068 0.61238 0.8859 0.0
H4054 H 0.43456 0.40182 0.11622 0.0
H4055 H 0.42884 0.403 0.05043 0.0
H4056 H 0.41895 0.42611 0.08866 0.0
H4057 H 0.42445 0.42492 0.15381 0.0
H4058 H 0.40398 0.4112 0.03989 0.0
H4059 H 0.4436 0.43511 0.04572 0.0
H4060 H 0.46274 0.4394 0.05717 0.0
H4061 H 0.45916 0.41583 0.97107 0.0
H4062 H 0.43994 0.4113 0.95948 0.0
H4063 H 0.40508 0.4395 0.86725 0.0
H4064 H 0.40735 0.43393 0.93194 0.0
H4065 H 0.41834 0.41276 0.88255 0.0
H4066 H 0.41637 0.41846 0.8184 0.0
H4067 H 0.43204 0.42502 0.93604 0.0
H4068 H 0.3927 0.40235 0.9261 0.0
H4069 H 0.37366 0.3984 0.91482 0.0
H4070 H 0.37664 0.41977 0.00832 0.0
H4071 H 0.39575 0.42397 0.01984 0.0
C4072 C 0.4311 0.40709 0.11057 0.0
C4073 C 0.43005 0.41334 0.14022 0.0
C4074 C 0.42786 0.40777 0.07304 0.0
C4075 C 0.42354 0.4147 0.06472 0.0
C4076 C 0.42223 0.42069 0.09446 0.0
C4077 C 0.42547 0.42005 0.13172 0.0
C4078 C 0.42078 0.4162 0.02492 0.0
C4079 C 0.41011 0.41426 0.01714 0.0
C4080 C 0.42874 0.42002 -0.00478 0.0
C4081 C 0.4403 0.42277 0.00207 0.0
C4082 C 0.44687 0.43078 0.02946 0.0
C4083 C 0.45773 0.43327 0.03593 0.0
C4084 C 0.46215 0.42787 0.01495 0.0
C4085 C 0.45572 0.41999 0.98736 0.0
C4086 C 0.44485 0.41746 0.98081 0.0
C4087 C 0.40785 0.43357 0.87028 0.0
C4088 C 0.41064 0.4295 0.83779 0.0
C4089 C 0.40911 0.43036 0.9072 0.0
C4090 C 0.41299 0.42289 0.91205 0.0
C4091 C 0.41541 0.41857 0.87953 0.0
C4092 C 0.41427 0.42185 0.84285 0.0
C4093 C 0.41521 0.42006 0.95084 0.0
C4094 C 0.42582 0.42181 0.95852 0.0
C4095 C 0.40719 0.41608 0.9804 0.0
C4096 C 0.39569 0.41355 0.97361 0.0
C4097 C 0.38932 0.40627 0.94407 0.0
C4098 C 0.37851 0.40398 0.93767 0.0
C4099 C 0.37395 0.40885 0.96078 0.0
C4100 C 0.38018 0.41601 0.99041 0.0
C4101 C 0.391 0.41834 -0.00308 0.0
H4102 H 0.36558 0.40706 0.95578 0.0
H4103 H 0.47057 0.4298 0.02 0.0
loop_
_geom_bond_atom_site_label_1
_geom_bond_atom_site_label_2
_geom_bond_distance
_geom_bond_site_symmetry_2
_ccdc_geom_bond_type
C0 O1 1.306 . S
C0 O3 1.160 . S
O1 C0 1.306 . S
O1 Cd2 2.228 . S
Cd2 O1 2.228 . S
Cd2 O6 2.273 . S
Cd2 O10 2.277 . S
O3 C0 1.160 . S
O3 Cd4 2.203 . S
Cd4 O3 2.203 . S
Cd4 O6 2.411 . S
Cd4 O7 2.333 1_554 S
Cd4 O8 2.352 . S
Cd4 O12 2.277 . S
Cd4 O13 2.356 . S
C5 O10 1.209 . S
C5 O12 1.226 . S
O6 Cd2 2.273 . S
O6 Cd4 2.411 . S
O6 C9 1.320 . S
O7 Cd4 2.333 1_556 S
O7 C9 1.214 1_556 S
O8 Cd4 2.352 . S
O8 C11 1.258 . S
C9 O6 1.320 . S
C9 O7 1.214 1_554 S
O10 Cd2 2.277 . S
O10 C5 1.209 . S
C11 O8 1.258 . S
C11 O13 1.282 . S
O12 Cd4 2.277 . S
O12 C5 1.226 . S
O13 Cd4 2.356 . S
O13 C11 1.282 . S
C14 O15 1.306 . S
C14 O17 1.160 . S
O15 C14 1.306 . S
O15 Cd16 2.228 . S
Cd16 O15 2.228 . S
Cd16 O20 2.273 . S
Cd16 O24 2.277 . S
O17 C14 1.160 . S
O17 Cd18 2.203 . S
Cd18 O17 2.203 . S
Cd18 O20 2.411 . S
Cd18 O21 2.333 1_554 S
Cd18 O22 2.352 . S
Cd18 O26 2.277 . S
Cd18 O27 2.356 . S
C19 O24 1.209 . S
C19 O26 1.226 . S
O20 Cd16 2.273 . S
O20 Cd18 2.411 . S
O20 C23 1.320 . S
O21 Cd18 2.333 1_556 S
O21 C23 1.214 1_556 S
O22 Cd18 2.352 . S
O22 C25 1.258 . S
C23 O20 1.320 . S
C23 O21 1.214 1_554 S
O24 Cd16 2.277 . S
O24 C19 1.209 . S
C25 O22 1.258 . S
C25 O27 1.282 . S
O26 Cd18 2.277 . S
O26 C19 1.226 . S
O27 Cd18 2.356 . S
O27 C25 1.282 . S
C28 O29 1.306 . S
C28 O31 1.160 . S
O29 C28 1.306 . S
O29 Cd30 2.228 . S
Cd30 O29 2.228 . S
Cd30 O34 2.273 . S
Cd30 O38 2.277 . S
O31 C28 1.160 . S
O31 Cd32 2.203 . S
Cd32 O31 2.203 . S
Cd32 O34 2.411 . S
Cd32 O35 2.333 1_554 S
Cd32 O36 2.352 . S
Cd32 O40 2.277 . S
Cd32 O41 2.356 . S
C33 O38 1.209 . S
C33 O40 1.226 . S
O34 Cd30 2.273 . S
O34 Cd32 2.411 . S
O34 C37 1.320 . S
O35 Cd32 2.333 1_556 S
O35 C37 1.214 1_556 S
O36 Cd32 2.352 . S
O36 C39 1.258 . S
C37 O34 1.320 . S
C37 O35 1.214 1_554 S
O38 Cd30 2.277 . S
O38 C33 1.209 . S
C39 O36 1.258 . S
C39 O41 1.282 . S
O40 Cd32 2.277 . S
O40 C33 1.226 . S
O41 Cd32 2.356 . S
O41 C39 1.282 . S
C42 O43 1.306 . S
C42 O45 1.160 . S
O43 C42 1.306 . S
O43 Cd44 2.228 . S
Cd44 O43 2.228 . S
Cd44 O48 2.273 . S
Cd44 O52 2.277 . S
O45 C42 1.160 . S
O45 Cd46 2.203 . S
Cd46 O45 2.203 . S
Cd46 O48 2.411 . S
Cd46 O49 2.333 1_556 S
Cd46 O50 2.352 . S
Cd46 O54 2.277 . S
Cd46 O55 2.356 . S
C47 O52 1.209 . S
C47 O54 1.226 . S
O48 Cd44 2.273 . S
O48 Cd46 2.411 . S
O48 C51 1.320 . S
O49 Cd46 2.333 1_554 S
O49 C51 1.214 1_554 S
O50 Cd46 2.352 . S
O50 C53 1.258 . S
C51 O48 1.320 . S
C51 O49 1.214 1_556 S
O52 Cd44 2.277 . S
O52 C47 1.209 . S
C53 O50 1.258 . S
C53 O55 1.282 . S
O54 Cd46 2.277 . S
O54 C47 1.226 . S
O55 Cd46 2.356 . S
O55 C53 1.282 . S
C56 O57 1.306 . S
C56 O59 1.160 . S
O57 C56 1.306 . S
O57 Cd58 2.228 . S
Cd58 O57 2.228 . S
Cd58 O62 2.273 . S
Cd58 O66 2.277 . S
O59 C56 1.160 . S
O59 Cd60 2.203 . S
Cd60 O59 2.203 . S
Cd60 O62 2.411 . S
Cd60 O63 2.333 1_556 S
Cd60 O64 2.352 . S
Cd60 O68 2.277 . S
Cd60 O69 2.356 . S
C61 O66 1.209 . S
C61 O68 1.226 . S
O62 Cd58 2.273 . S
O62 Cd60 2.411 . S
O62 C65 1.320 . S
O63 Cd60 2.333 1_554 S
O63 C65 1.214 1_554 S
O64 Cd60 2.352 . S
O64 C67 1.258 . S
C65 O62 1.320 . S
C65 O63 1.214 1_556 S
O66 Cd58 2.277 . S
O66 C61 1.209 . S
C67 O64 1.258 . S
C67 O69 1.282 . S
O68 Cd60 2.277 . S
O68 C61 1.226 . S
O69 Cd60 2.356 . S
O69 C67 1.282 . S
C70 O71 1.306 . S
C70 O73 1.160 . S
O71 C70 1.306 . S
O71 Cd72 2.228 . S
Cd72 O71 2.228 . S
Cd72 O76 2.273 . S
Cd72 O80 2.277 . S
O73 C70 1.160 . S
O73 Cd74 2.203 . S
Cd74 O73 2.203 . S
Cd74 O76 2.411 . S
Cd74 O77 2.333 1_556 S
Cd74 O78 2.352 . S
Cd74 O82 2.277 . S
Cd74 O83 2.356 . S
C75 O80 1.209 . S
C75 O82 1.226 . S
O76 Cd72 2.273 . S
O76 Cd74 2.411 . S
O76 C79 1.320 . S
O77 Cd74 2.333 1_554 S
O77 C79 1.214 1_554 S
O78 Cd74 2.352 . S
O78 C81 1.258 . S
C79 O76 1.320 . S
C79 O77 1.214 1_556 S
O80 Cd72 2.277 . S
O80 C75 1.209 . S
C81 O78 1.258 . S
C81 O83 1.282 . S
O82 Cd74 2.277 . S
O82 C75 1.226 . S
O83 Cd74 2.356 . S
O83 C81 1.282 . S
C84 O85 1.306 . S
C84 O87 1.160 . S
O85 C84 1.306 . S
O85 Cd86 2.228 . S
Cd86 O85 2.228 . S
Cd86 O90 2.273 . S
Cd86 O94 2.277 . S
O87 C84 1.160 . S
O87 Cd88 2.203 . S
Cd88 O87 2.203 . S
Cd88 O90 2.411 . S
Cd88 O91 2.333 1_556 S
Cd88 O92 2.352 . S
Cd88 O96 2.277 . S
Cd88 O97 2.356 . S
C89 O94 1.209 . S
C89 O96 1.226 . S
O90 Cd86 2.273 . S
O90 Cd88 2.411 . S
O90 C93 1.320 . S
O91 Cd88 2.333 1_554 S
O91 C93 1.214 1_554 S
O92 Cd88 2.352 . S
O92 C95 1.258 . S
C93 O90 1.320 . S
C93 O91 1.214 1_556 S
O94 Cd86 2.277 . S
O94 C89 1.209 . S
C95 O92 1.258 . S
C95 O97 1.282 . S
O96 Cd88 2.277 . S
O96 C89 1.226 . S
O97 Cd88 2.356 . S
O97 C95 1.282 . S
C98 O99 1.306 . S
C98 O101 1.160 . S
O99 C98 1.306 . S
O99 Cd100 2.228 . S
Cd100 O99 2.228 . S
Cd100 O104 2.273 . S
Cd100 O108 2.277 . S
O101 C98 1.160 . S
O101 Cd102 2.203 . S
Cd102 O101 2.203 . S
Cd102 O104 2.411 . S
Cd102 O105 2.333 1_556 S
Cd102 O106 2.352 . S
Cd102 O110 2.277 . S
Cd102 O111 2.356 . S
C103 O108 1.209 . S
C103 O110 1.226 . S
O104 Cd100 2.273 . S
O104 Cd102 2.411 . S
O104 C107 1.320 . S
O105 Cd102 2.333 1_554 S
O105 C107 1.214 1_554 S
O106 Cd102 2.352 . S
O106 C109 1.258 . S
C107 O104 1.320 . S
C107 O105 1.214 1_556 S
O108 Cd100 2.277 . S
O108 C103 1.209 . S
C109 O106 1.258 . S
C109 O111 1.282 . S
O110 Cd102 2.277 . S
O110 C103 1.226 . S
O111 Cd102 2.356 . S
O111 C109 1.282 . S
C112 O113 1.306 . S
C112 O115 1.160 . S
O113 C112 1.306 . S
O113 Cd114 2.228 . S
Cd114 O113 2.228 . S
Cd114 O118 2.273 . S
Cd114 O122 2.277 . S
O115 C112 1.160 . S
O115 Cd116 2.203 . S
Cd116 O115 2.203 . S
Cd116 O118 2.411 . S
Cd116 O119 2.333 1_556 S
Cd116 O120 2.352 . S
Cd116 O124 2.277 . S
Cd116 O125 2.356 . S
C117 O122 1.209 . S
C117 O124 1.226 . S
O118 Cd114 2.273 . S
O118 Cd116 2.411 . S
O118 C121 1.320 . S
O119 Cd116 2.333 1_554 S
O119 C121 1.214 1_554 S
O120 Cd116 2.352 . S
O120 C123 1.258 . S
C121 O118 1.320 . S
C121 O119 1.214 1_556 S
O122 Cd114 2.277 . S
O122 C117 1.209 . S
C123 O120 1.258 . S
C123 O125 1.282 . S
O124 Cd116 2.277 . S
O124 C117 1.226 . S
O125 Cd116 2.356 . S
O125 C123 1.282 . S
C126 O127 1.306 . S
C126 O129 1.160 . S
O127 C126 1.306 . S
O127 Cd128 2.228 . S
Cd128 O127 2.228 . S
Cd128 O132 2.273 . S
Cd128 O136 2.277 . S
O129 C126 1.160 . S
O129 Cd130 2.203 . S
Cd130 O129 2.203 . S
Cd130 O132 2.411 . S
Cd130 O133 2.333 1_554 S
Cd130 O134 2.352 . S
Cd130 O138 2.277 . S
Cd130 O139 2.356 . S
C131 O136 1.209 . S
C131 O138 1.226 . S
O132 Cd128 2.273 . S
O132 Cd130 2.411 . S
O132 C135 1.320 . S
O133 Cd130 2.333 1_556 S
O133 C135 1.214 1_556 S
O134 Cd130 2.352 . S
O134 C137 1.258 . S
C135 O132 1.320 . S
C135 O133 1.214 1_554 S
O136 Cd128 2.277 . S
O136 C131 1.209 . S
C137 O134 1.258 . S
C137 O139 1.282 . S
O138 Cd130 2.277 . S
O138 C131 1.226 . S
O139 Cd130 2.356 . S
O139 C137 1.282 . S
C140 O141 1.306 . S
C140 O143 1.160 . S
O141 C140 1.306 . S
O141 Cd142 2.228 . S
Cd142 O141 2.228 . S
Cd142 O146 2.273 . S
Cd142 O150 2.277 . S
O143 C140 1.160 . S
O143 Cd144 2.203 . S
Cd144 O143 2.203 . S
Cd144 O146 2.411 . S
Cd144 O147 2.333 1_554 S
Cd144 O148 2.352 . S
Cd144 O152 2.277 . S
Cd144 O153 2.356 . S
C145 O150 1.209 . S
C145 O152 1.226 . S
O146 Cd142 2.273 . S
O146 Cd144 2.411 . S
O146 C149 1.320 . S
O147 Cd144 2.333 1_556 S
O147 C149 1.214 1_556 S
O148 Cd144 2.352 . S
O148 C151 1.258 . S
C149 O146 1.320 . S
C149 O147 1.214 1_554 S
O150 Cd142 2.277 . S
O150 C145 1.209 . S
C151 O148 1.258 . S
C151 O153 1.282 . S
O152 Cd144 2.277 . S
O152 C145 1.226 . S
O153 Cd144 2.356 . S
O153 C151 1.282 . S
C154 O155 1.306 . S
C154 O157 1.160 . S
O155 C154 1.306 . S
O155 Cd156 2.228 . S
Cd156 O155 2.228 . S
Cd156 O160 2.273 . S
Cd156 O164 2.277 . S
O157 C154 1.160 . S
O157 Cd158 2.203 . S
Cd158 O157 2.203 . S
Cd158 O160 2.411 . S
Cd158 O161 2.333 1_554 S
Cd158 O162 2.352 . S
Cd158 O166 2.277 . S
Cd158 O167 2.356 . S
C159 O164 1.209 . S
C159 O166 1.226 . S
O160 Cd156 2.273 . S
O160 Cd158 2.411 . S
O160 C163 1.320 . S
O161 Cd158 2.333 1_556 S
O161 C163 1.214 1_556 S
O162 Cd158 2.352 . S
O162 C165 1.258 . S
C163 O160 1.320 . S
C163 O161 1.214 1_554 S
O164 Cd156 2.277 . S
O164 C159 1.209 . S
C165 O162 1.258 . S
C165 O167 1.282 . S
O166 Cd158 2.277 . S
O166 C159 1.226 . S
O167 Cd158 2.356 . S
O167 C165 1.282 . S
C168 O169 1.306 . S
C168 O171 1.160 . S
O169 C168 1.306 . S
O169 Cd170 2.228 . S
Cd170 O169 2.228 . S
Cd170 O174 2.273 . S
Cd170 O178 2.277 . S
O171 C168 1.160 . S
O171 Cd172 2.203 . S
Cd172 O171 2.203 . S
Cd172 O174 2.411 . S
Cd172 O175 2.333 . S
Cd172 O176 2.352 . S
Cd172 O180 2.277 . S
Cd172 O181 2.356 . S
C173 O178 1.209 . S
C173 O180 1.226 . S
O174 Cd170 2.273 . S
O174 Cd172 2.411 . S
O174 C177 1.320 . S
O175 Cd172 2.333 . S
O175 C177 1.214 . S
O176 Cd172 2.352 . S
O176 C179 1.258 . S
C177 O174 1.320 . S
C177 O175 1.214 . S
O178 Cd170 2.277 . S
O178 C173 1.209 . S
C179 O176 1.258 . S
C179 O181 1.282 . S
O180 Cd172 2.277 . S
O180 C173 1.226 . S
O181 Cd172 2.356 . S
O181 C179 1.282 . S
C182 O183 1.306 . S
C182 O185 1.160 . S
O183 C182 1.306 . S
O183 Cd184 2.228 . S
Cd184 O183 2.228 . S
Cd184 O188 2.273 . S
Cd184 O192 2.277 . S
O185 C182 1.160 . S
O185 Cd186 2.203 . S
Cd186 O185 2.203 . S
Cd186 O188 2.411 . S
Cd186 O189 2.333 . S
Cd186 O190 2.352 . S
Cd186 O194 2.277 . S
Cd186 O195 2.356 . S
C187 O192 1.209 . S
C187 O194 1.226 . S
O188 Cd184 2.273 . S
O188 Cd186 2.411 . S
O188 C191 1.320 . S
O189 Cd186 2.333 . S
O189 C191 1.214 . S
O190 Cd186 2.352 . S
O190 C193 1.258 . S
C191 O188 1.320 . S
C191 O189 1.214 . S
O192 Cd184 2.277 . S
O192 C187 1.209 . S
C193 O190 1.258 . S
C193 O195 1.282 . S
O194 Cd186 2.277 . S
O194 C187 1.226 . S
O195 Cd186 2.356 . S
O195 C193 1.282 . S
C196 O197 1.306 . S
C196 O199 1.160 . S
O197 C196 1.306 . S
O197 Cd198 2.228 . S
Cd198 O197 2.228 . S
Cd198 O202 2.273 . S
Cd198 O206 2.277 . S
O199 C196 1.160 . S
O199 Cd200 2.203 . S
Cd200 O199 2.203 . S
Cd200 O202 2.411 . S
Cd200 O203 2.333 . S
Cd200 O204 2.352 . S
Cd200 O208 2.277 . S
Cd200 O209 2.356 . S
C201 O206 1.209 . S
C201 O208 1.226 . S
O202 Cd198 2.273 . S
O202 Cd200 2.411 . S
O202 C205 1.320 . S
O203 Cd200 2.333 . S
O203 C205 1.214 . S
O204 Cd200 2.352 . S
O204 C207 1.258 . S
C205 O202 1.320 . S
C205 O203 1.214 . S
O206 Cd198 2.277 . S
O206 C201 1.209 . S
C207 O204 1.258 . S
C207 O209 1.282 . S
O208 Cd200 2.277 . S
O208 C201 1.226 . S
O209 Cd200 2.356 . S
O209 C207 1.282 . S
C210 O211 1.306 . S
C210 O213 1.160 . S
O211 C210 1.306 . S
O211 Cd212 2.228 . S
Cd212 O211 2.228 . S
Cd212 O216 2.273 . S
Cd212 O220 2.277 . S
O213 C210 1.160 . S
O213 Cd214 2.203 . S
Cd214 O213 2.203 . S
Cd214 O216 2.411 . S
Cd214 O217 2.333 . S
Cd214 O218 2.352 . S
Cd214 O222 2.277 . S
Cd214 O223 2.356 . S
C215 O220 1.209 . S
C215 O222 1.226 . S
O216 Cd212 2.273 . S
O216 Cd214 2.411 . S
O216 C219 1.320 . S
O217 Cd214 2.333 . S
O217 C219 1.214 . S
O218 Cd214 2.352 . S
O218 C221 1.258 . S
C219 O216 1.320 . S
C219 O217 1.214 . S
O220 Cd212 2.277 . S
O220 C215 1.209 . S
C221 O218 1.258 . S
C221 O223 1.282 . S
O222 Cd214 2.277 . S
O222 C215 1.226 . S
O223 Cd214 2.356 . S
O223 C221 1.282 . S
C224 O225 1.306 . S
C224 O227 1.160 . S
O225 C224 1.306 . S
O225 Cd226 2.228 . S
Cd226 O225 2.228 . S
Cd226 O230 2.273 . S
Cd226 O234 2.277 . S
O227 C224 1.160 . S
O227 Cd228 2.203 . S
Cd228 O227 2.203 . S
Cd228 O230 2.411 . S
Cd228 O231 2.333 . S
Cd228 O232 2.352 . S
Cd228 O236 2.277 . S
Cd228 O237 2.356 . S
C229 O234 1.209 . S
C229 O236 1.226 . S
O230 Cd226 2.273 . S
O230 Cd228 2.411 . S
O230 C233 1.320 . S
O231 Cd228 2.333 . S
O231 C233 1.214 . S
O232 Cd228 2.352 . S
O232 C235 1.258 . S
C233 O230 1.320 . S
C233 O231 1.214 . S
O234 Cd226 2.277 . S
O234 C229 1.209 . S
C235 O232 1.258 . S
C235 O237 1.282 . S
O236 Cd228 2.277 . S
O236 C229 1.226 . S
O237 Cd228 2.356 . S
O237 C235 1.282 . S
C238 O239 1.306 . S
C238 O241 1.160 . S
O239 C238 1.306 . S
O239 Cd240 2.228 . S
Cd240 O239 2.228 . S
Cd240 O244 2.273 . S
Cd240 O248 2.277 . S
O241 C238 1.160 . S
O241 Cd242 2.203 . S
Cd242 O241 2.203 . S
Cd242 O244 2.411 . S
Cd242 O245 2.333 . S
Cd242 O246 2.352 . S
Cd242 O250 2.277 . S
Cd242 O251 2.356 . S
C243 O248 1.209 . S
C243 O250 1.226 . S
O244 Cd240 2.273 . S
O244 Cd242 2.411 . S
O244 C247 1.320 . S
O245 Cd242 2.333 . S
O245 C247 1.214 . S
O246 Cd242 2.352 . S
O246 C249 1.258 . S
C247 O244 1.320 . S
C247 O245 1.214 . S
O248 Cd240 2.277 . S
O248 C243 1.209 . S
C249 O246 1.258 . S
C249 O251 1.282 . S
O250 Cd242 2.277 . S
O250 C243 1.226 . S
O251 Cd242 2.356 . S
O251 C249 1.282 . S
C252 O253 1.306 . S
C252 O255 1.160 . S
O253 C252 1.306 . S
O253 Cd254 2.228 . S
Cd254 O253 2.228 . S
Cd254 O258 2.273 . S
Cd254 O262 2.277 . S
O255 C252 1.160 . S
O255 Cd256 2.203 . S
Cd256 O255 2.203 . S
Cd256 O258 2.411 . S
Cd256 O259 2.333 . S
Cd256 O260 2.352 . S
Cd256 O264 2.277 . S
Cd256 O265 2.356 . S
C257 O262 1.209 . S
C257 O264 1.226 . S
O258 Cd254 2.273 . S
O258 Cd256 2.411 . S
O258 C261 1.320 . S
O259 Cd256 2.333 . S
O259 C261 1.214 . S
O260 Cd256 2.352 . S
O260 C263 1.258 . S
C261 O258 1.320 . S
C261 O259 1.214 . S
O262 Cd254 2.277 . S
O262 C257 1.209 . S
C263 O260 1.258 . S
C263 O265 1.282 . S
O264 Cd256 2.277 . S
O264 C257 1.226 . S
O265 Cd256 2.356 . S
O265 C263 1.282 . S
C266 O267 1.306 . S
C266 O269 1.160 . S
O267 C266 1.306 . S
O267 Cd268 2.228 . S
Cd268 O267 2.228 . S
Cd268 O272 2.273 . S
Cd268 O276 2.277 . S
O269 C266 1.160 . S
O269 Cd270 2.203 . S
Cd270 O269 2.203 . S
Cd270 O272 2.411 . S
Cd270 O273 2.333 . S
Cd270 O274 2.352 . S
Cd270 O278 2.277 . S
Cd270 O279 2.356 . S
C271 O276 1.209 . S
C271 O278 1.226 . S
O272 Cd268 2.273 . S
O272 Cd270 2.411 . S
O272 C275 1.320 . S
O273 Cd270 2.333 . S
O273 C275 1.214 . S
O274 Cd270 2.352 . S
O274 C277 1.258 . S
C275 O272 1.320 . S
C275 O273 1.214 . S
O276 Cd268 2.277 . S
O276 C271 1.209 . S
C277 O274 1.258 . S
C277 O279 1.282 . S
O278 Cd270 2.277 . S
O278 C271 1.226 . S
O279 Cd270 2.356 . S
O279 C277 1.282 . S
C280 O281 1.306 . S
C280 O283 1.160 . S
O281 C280 1.306 . S
O281 Cd282 2.228 . S
Cd282 O281 2.228 . S
Cd282 O286 2.273 . S
Cd282 O290 2.277 . S
O283 C280 1.160 . S
O283 Cd284 2.203 . S
Cd284 O283 2.203 . S
Cd284 O286 2.411 . S
Cd284 O287 2.333 . S
Cd284 O288 2.352 . S
Cd284 O292 2.277 . S
Cd284 O293 2.356 . S
C285 O290 1.209 . S
C285 O292 1.226 . S
O286 Cd282 2.273 . S
O286 Cd284 2.411 . S
O286 C289 1.320 . S
O287 Cd284 2.333 . S
O287 C289 1.214 . S
O288 Cd284 2.352 . S
O288 C291 1.258 . S
C289 O286 1.320 . S
C289 O287 1.214 . S
O290 Cd282 2.277 . S
O290 C285 1.209 . S
C291 O288 1.258 . S
C291 O293 1.282 . S
O292 Cd284 2.277 . S
O292 C285 1.226 . S
O293 Cd284 2.356 . S
O293 C291 1.282 . S
C294 O295 1.306 . S
C294 O297 1.160 . S
O295 C294 1.306 . S
O295 Cd296 2.228 . S
Cd296 O295 2.228 . S
Cd296 O300 2.273 . S
Cd296 O304 2.277 . S
O297 C294 1.160 . S
O297 Cd298 2.203 . S
Cd298 O297 2.203 . S
Cd298 O300 2.411 . S
Cd298 O301 2.333 . S
Cd298 O302 2.352 . S
Cd298 O306 2.277 . S
Cd298 O307 2.356 . S
C299 O304 1.209 . S
C299 O306 1.226 . S
O300 Cd296 2.273 . S
O300 Cd298 2.411 . S
O300 C303 1.320 . S
O301 Cd298 2.333 . S
O301 C303 1.214 . S
O302 Cd298 2.352 . S
O302 C305 1.258 . S
C303 O300 1.320 . S
C303 O301 1.214 . S
O304 Cd296 2.277 . S
O304 C299 1.209 . S
C305 O302 1.258 . S
C305 O307 1.282 . S
O306 Cd298 2.277 . S
O306 C299 1.226 . S
O307 Cd298 2.356 . S
O307 C305 1.282 . S
C308 O309 1.306 . S
C308 O311 1.160 . S
O309 C308 1.306 . S
O309 Cd310 2.228 . S
Cd310 O309 2.228 . S
Cd310 O314 2.273 . S
Cd310 O318 2.277 . S
O311 C308 1.160 . S
O311 Cd312 2.203 . S
Cd312 O311 2.203 . S
Cd312 O314 2.411 . S
Cd312 O315 2.333 . S
Cd312 O316 2.352 . S
Cd312 O320 2.277 . S
Cd312 O321 2.356 . S
C313 O318 1.209 . S
C313 O320 1.226 . S
O314 Cd310 2.273 . S
O314 Cd312 2.411 . S
O314 C317 1.320 . S
O315 Cd312 2.333 . S
O315 C317 1.214 . S
O316 Cd312 2.352 . S
O316 C319 1.258 . S
C317 O314 1.320 . S
C317 O315 1.214 . S
O318 Cd310 2.277 . S
O318 C313 1.209 . S
C319 O316 1.258 . S
C319 O321 1.282 . S
O320 Cd312 2.277 . S
O320 C313 1.226 . S
O321 Cd312 2.356 . S
O321 C319 1.282 . S
C322 O323 1.306 . S
C322 O325 1.160 . S
O323 C322 1.306 . S
O323 Cd324 2.228 . S
Cd324 O323 2.228 . S
Cd324 O328 2.273 . S
Cd324 O332 2.277 . S
O325 C322 1.160 . S
O325 Cd326 2.203 . S
Cd326 O325 2.203 . S
Cd326 O328 2.411 . S
Cd326 O329 2.333 . S
Cd326 O330 2.352 . S
Cd326 O334 2.277 . S
Cd326 O335 2.356 . S
C327 O332 1.209 . S
C327 O334 1.226 . S
O328 Cd324 2.273 . S
O328 Cd326 2.411 . S
O328 C331 1.320 . S
O329 Cd326 2.333 . S
O329 C331 1.214 . S
O330 Cd326 2.352 . S
O330 C333 1.258 . S
C331 O328 1.320 . S
C331 O329 1.214 . S
O332 Cd324 2.277 . S
O332 C327 1.209 . S
C333 O330 1.258 . S
C333 O335 1.282 . S
O334 Cd326 2.277 . S
O334 C327 1.226 . S
O335 Cd326 2.356 . S
O335 C333 1.282 . S
C336 O337 1.306 . S
C336 O339 1.160 . S
O337 C336 1.306 . S
O337 Cd338 2.228 . S
Cd338 O337 2.228 . S
Cd338 O342 2.273 . S
Cd338 O346 2.277 . S
O339 C336 1.160 . S
O339 Cd340 2.203 . S
Cd340 O339 2.203 . S
Cd340 O342 2.411 . S
Cd340 O343 2.333 . S
Cd340 O344 2.352 . S
Cd340 O348 2.277 . S
Cd340 O349 2.356 . S
C341 O346 1.209 . S
C341 O348 1.226 . S
O342 Cd338 2.273 . S
O342 Cd340 2.411 . S
O342 C345 1.320 . S
O343 Cd340 2.333 . S
O343 C345 1.214 . S
O344 Cd340 2.352 . S
O344 C347 1.258 . S
C345 O342 1.320 . S
C345 O343 1.214 . S
O346 Cd338 2.277 . S
O346 C341 1.209 . S
C347 O344 1.258 . S
C347 O349 1.282 . S
O348 Cd340 2.277 . S
O348 C341 1.226 . S
O349 Cd340 2.356 . S
O349 C347 1.282 . S
C350 O351 1.306 . S
C350 O353 1.160 . S
O351 C350 1.306 . S
O351 Cd352 2.228 . S
Cd352 O351 2.228 . S
Cd352 O356 2.273 . S
Cd352 O360 2.277 . S
O353 C350 1.160 . S
O353 Cd354 2.203 . S
Cd354 O353 2.203 . S
Cd354 O356 2.411 . S
Cd354 O357 2.333 . S
Cd354 O358 2.352 . S
Cd354 O362 2.277 . S
Cd354 O363 2.356 . S
C355 O360 1.209 . S
C355 O362 1.226 . S
O356 Cd352 2.273 . S
O356 Cd354 2.411 . S
O356 C359 1.320 . S
O357 Cd354 2.333 . S
O357 C359 1.214 . S
O358 Cd354 2.352 . S
O358 C361 1.258 . S
C359 O356 1.320 . S
C359 O357 1.214 . S
O360 Cd352 2.277 . S
O360 C355 1.209 . S
C361 O358 1.258 . S
C361 O363 1.282 . S
O362 Cd354 2.277 . S
O362 C355 1.226 . S
O363 Cd354 2.356 . S
O363 C361 1.282 . S
C364 O365 1.306 . S
C364 O367 1.160 . S
O365 C364 1.306 . S
O365 Cd366 2.228 . S
Cd366 O365 2.228 . S
Cd366 O370 2.273 . S
Cd366 O374 2.277 . S
O367 C364 1.160 . S
O367 Cd368 2.203 . S
Cd368 O367 2.203 . S
Cd368 O370 2.411 . S
Cd368 O371 2.333 . S
Cd368 O372 2.352 . S
Cd368 O376 2.277 . S
Cd368 O377 2.356 . S
C369 O374 1.209 . S
C369 O376 1.226 . S
O370 Cd366 2.273 . S
O370 Cd368 2.411 . S
O370 C373 1.320 . S
O371 Cd368 2.333 . S
O371 C373 1.214 . S
O372 Cd368 2.352 . S
O372 C375 1.258 . S
C373 O370 1.320 . S
C373 O371 1.214 . S
O374 Cd366 2.277 . S
O374 C369 1.209 . S
C375 O372 1.258 . S
C375 O377 1.282 . S
O376 Cd368 2.277 . S
O376 C369 1.226 . S
O377 Cd368 2.356 . S
O377 C375 1.282 . S
C378 O379 1.306 . S
C378 O381 1.160 . S
O379 C378 1.306 . S
O379 Cd380 2.228 . S
Cd380 O379 2.228 . S
Cd380 O384 2.273 . S
Cd380 O388 2.277 . S
O381 C378 1.160 . S
O381 Cd382 2.203 . S
Cd382 O381 2.203 . S
Cd382 O384 2.411 . S
Cd382 O385 2.333 . S
Cd382 O386 2.352 . S
Cd382 O390 2.277 . S
Cd382 O391 2.356 . S
C383 O388 1.209 . S
C383 O390 1.226 . S
O384 Cd380 2.273 . S
O384 Cd382 2.411 . S
O384 C387 1.320 . S
O385 Cd382 2.333 . S
O385 C387 1.214 . S
O386 Cd382 2.352 . S
O386 C389 1.258 . S
C387 O384 1.320 . S
C387 O385 1.214 . S
O388 Cd380 2.277 . S
O388 C383 1.209 . S
C389 O386 1.258 . S
C389 O391 1.282 . S
O390 Cd382 2.277 . S
O390 C383 1.226 . S
O391 Cd382 2.356 . S
O391 C389 1.282 . S
C392 O393 1.306 . S
C392 O395 1.160 . S
O393 C392 1.306 . S
O393 Cd394 2.228 . S
Cd394 O393 2.228 . S
Cd394 O398 2.273 . S
Cd394 O402 2.277 . S
O395 C392 1.160 . S
O395 Cd396 2.203 . S
Cd396 O395 2.203 . S
Cd396 O398 2.411 . S
Cd396 O399 2.333 . S
Cd396 O400 2.352 . S
Cd396 O404 2.277 . S
Cd396 O405 2.356 . S
C397 O402 1.209 . S
C397 O404 1.226 . S
O398 Cd394 2.273 . S
O398 Cd396 2.411 . S
O398 C401 1.320 . S
O399 Cd396 2.333 . S
O399 C401 1.214 . S
O400 Cd396 2.352 . S
O400 C403 1.258 . S
C401 O398 1.320 . S
C401 O399 1.214 . S
O402 Cd394 2.277 . S
O402 C397 1.209 . S
C403 O400 1.258 . S
C403 O405 1.282 . S
O404 Cd396 2.277 . S
O404 C397 1.226 . S
O405 Cd396 2.356 . S
O405 C403 1.282 . S
C406 O407 1.306 . S
C406 O409 1.160 . S
O407 C406 1.306 . S
O407 Cd408 2.228 . S
Cd408 O407 2.228 . S
Cd408 O412 2.273 . S
Cd408 O416 2.277 . S
O409 C406 1.160 . S
O409 Cd410 2.203 . S
Cd410 O409 2.203 . S
Cd410 O412 2.411 . S
Cd410 O413 2.333 . S
Cd410 O414 2.352 . S
Cd410 O418 2.277 . S
Cd410 O419 2.356 . S
C411 O416 1.209 . S
C411 O418 1.226 . S
O412 Cd408 2.273 . S
O412 Cd410 2.411 . S
O412 C415 1.320 . S
O413 Cd410 2.333 . S
O413 C415 1.214 . S
O414 Cd410 2.352 . S
O414 C417 1.258 . S
C415 O412 1.320 . S
C415 O413 1.214 . S
O416 Cd408 2.277 . S
O416 C411 1.209 . S
C417 O414 1.258 . S
C417 O419 1.282 . S
O418 Cd410 2.277 . S
O418 C411 1.226 . S
O419 Cd410 2.356 . S
O419 C417 1.282 . S
C420 O421 1.306 . S
C420 O423 1.160 . S
O421 C420 1.306 . S
O421 Cd422 2.228 . S
Cd422 O421 2.228 . S
Cd422 O426 2.273 . S
Cd422 O430 2.277 . S
O423 C420 1.160 . S
O423 Cd424 2.203 . S
Cd424 O423 2.203 . S
Cd424 O426 2.411 . S
Cd424 O427 2.333 . S
Cd424 O428 2.352 . S
Cd424 O432 2.277 . S
Cd424 O433 2.356 . S
C425 O430 1.209 . S
C425 O432 1.226 . S
O426 Cd422 2.273 . S
O426 Cd424 2.411 . S
O426 C429 1.320 . S
O427 Cd424 2.333 . S
O427 C429 1.214 . S
O428 Cd424 2.352 . S
O428 C431 1.258 . S
C429 O426 1.320 . S
C429 O427 1.214 . S
O430 Cd422 2.277 . S
O430 C425 1.209 . S
C431 O428 1.258 . S
C431 O433 1.282 . S
O432 Cd424 2.277 . S
O432 C425 1.226 . S
O433 Cd424 2.356 . S
O433 C431 1.282 . S
C434 O435 1.306 . S
C434 O437 1.160 . S
O435 C434 1.306 . S
O435 Cd436 2.228 . S
Cd436 O435 2.228 . S
Cd436 O440 2.273 . S
Cd436 O444 2.277 . S
O437 C434 1.160 . S
O437 Cd438 2.203 . S
Cd438 O437 2.203 . S
Cd438 O440 2.411 . S
Cd438 O441 2.333 . S
Cd438 O442 2.352 . S
Cd438 O446 2.277 . S
Cd438 O447 2.356 . S
C439 O444 1.209 . S
C439 O446 1.226 . S
O440 Cd436 2.273 . S
O440 Cd438 2.411 . S
O440 C443 1.320 . S
O441 Cd438 2.333 . S
O441 C443 1.214 . S
O442 Cd438 2.352 . S
O442 C445 1.258 . S
C443 O440 1.320 . S
C443 O441 1.214 . S
O444 Cd436 2.277 . S
O444 C439 1.209 . S
C445 O442 1.258 . S
C445 O447 1.282 . S
O446 Cd438 2.277 . S
O446 C439 1.226 . S
O447 Cd438 2.356 . S
O447 C445 1.282 . S
C448 O449 1.306 . S
C448 O451 1.160 . S
O449 C448 1.306 . S
O449 Cd450 2.228 . S
Cd450 O449 2.228 . S
Cd450 O454 2.273 . S
Cd450 O458 2.277 . S
O451 C448 1.160 . S
O451 Cd452 2.203 . S
Cd452 O451 2.203 . S
Cd452 O454 2.411 . S
Cd452 O455 2.333 . S
Cd452 O456 2.352 . S
Cd452 O460 2.277 . S
Cd452 O461 2.356 . S
C453 O458 1.209 . S
C453 O460 1.226 . S
O454 Cd450 2.273 . S
O454 Cd452 2.411 . S
O454 C457 1.320 . S
O455 Cd452 2.333 . S
O455 C457 1.214 . S
O456 Cd452 2.352 . S
O456 C459 1.258 . S
C457 O454 1.320 . S
C457 O455 1.214 . S
O458 Cd450 2.277 . S
O458 C453 1.209 . S
C459 O456 1.258 . S
C459 O461 1.282 . S
O460 Cd452 2.277 . S
O460 C453 1.226 . S
O461 Cd452 2.356 . S
O461 C459 1.282 . S
C462 O463 1.306 . S
C462 O465 1.160 . S
O463 C462 1.306 . S
O463 Cd464 2.228 . S
Cd464 O463 2.228 . S
Cd464 O468 2.273 . S
Cd464 O472 2.277 . S
O465 C462 1.160 . S
O465 Cd466 2.203 . S
Cd466 O465 2.203 . S
Cd466 O468 2.411 . S
Cd466 O469 2.333 . S
Cd466 O470 2.352 . S
Cd466 O474 2.277 . S
Cd466 O475 2.356 . S
C467 O472 1.209 . S
C467 O474 1.226 . S
O468 Cd464 2.273 . S
O468 Cd466 2.411 . S
O468 C471 1.320 . S
O469 Cd466 2.333 . S
O469 C471 1.214 . S
O470 Cd466 2.352 . S
O470 C473 1.258 . S
C471 O468 1.320 . S
C471 O469 1.214 . S
O472 Cd464 2.277 . S
O472 C467 1.209 . S
C473 O470 1.258 . S
C473 O475 1.282 . S
O474 Cd466 2.277 . S
O474 C467 1.226 . S
O475 Cd466 2.356 . S
O475 C473 1.282 . S
C476 O477 1.306 . S
C476 O479 1.160 . S
O477 C476 1.306 . S
O477 Cd478 2.228 . S
Cd478 O477 2.228 . S
Cd478 O482 2.273 . S
Cd478 O486 2.277 . S
O479 C476 1.160 . S
O479 Cd480 2.203 . S
Cd480 O479 2.203 . S
Cd480 O482 2.411 . S
Cd480 O483 2.333 . S
Cd480 O484 2.352 . S
Cd480 O488 2.277 . S
Cd480 O489 2.356 . S
C481 O486 1.209 . S
C481 O488 1.226 . S
O482 Cd478 2.273 . S
O482 Cd480 2.411 . S
O482 C485 1.320 . S
O483 Cd480 2.333 . S
O483 C485 1.214 . S
O484 Cd480 2.352 . S
O484 C487 1.258 . S
C485 O482 1.320 . S
C485 O483 1.214 . S
O486 Cd478 2.277 . S
O486 C481 1.209 . S
C487 O484 1.258 . S
C487 O489 1.282 . S
O488 Cd480 2.277 . S
O488 C481 1.226 . S
O489 Cd480 2.356 . S
O489 C487 1.282 . S
C490 O491 1.306 . S
C490 O493 1.160 . S
O491 C490 1.306 . S
O491 Cd492 2.228 . S
Cd492 O491 2.228 . S
Cd492 O496 2.273 . S
Cd492 O500 2.277 . S
O493 C490 1.160 . S
O493 Cd494 2.203 . S
Cd494 O493 2.203 . S
Cd494 O496 2.411 . S
Cd494 O497 2.333 . S
Cd494 O498 2.352 . S
Cd494 O502 2.277 . S
Cd494 O503 2.356 . S
C495 O500 1.209 . S
C495 O502 1.226 . S
O496 Cd492 2.273 . S
O496 Cd494 2.411 . S
O496 C499 1.320 . S
O497 Cd494 2.333 . S
O497 C499 1.214 . S
O498 Cd494 2.352 . S
O498 C501 1.258 . S
C499 O496 1.320 . S
C499 O497 1.214 . S
O500 Cd492 2.277 . S
O500 C495 1.209 . S
C501 O498 1.258 . S
C501 O503 1.282 . S
O502 Cd494 2.277 . S
O502 C495 1.226 . S
O503 Cd494 2.356 . S
O503 C501 1.282 . S
H504 C522 0.951 . S
H505 C524 0.951 . S
H506 C526 0.950 . S
H507 C527 0.950 . S
H508 C529 0.950 . S
H509 C532 0.950 . S
H510 C533 0.950 . S
H511 C535 0.950 . S
H512 C536 0.950 . S
H513 C537 0.951 . S
H514 C539 0.951 . S
H515 C541 0.950 . S
H516 C542 0.950 . S
H517 C544 0.950 . S
H518 C547 0.950 . S
H519 C548 0.950 . S
H520 C550 0.950 . S
H521 C551 0.950 . S
C522 H504 0.951 . S
C522 C523 1.366 . S
C522 C524 1.388 . S
C523 C522 1.366 . S
C523 C527 1.385 . S
C524 H505 0.951 . S
C524 C522 1.388 . S
C524 C525 1.366 . S
C525 C524 1.366 . S
C525 C526 1.414 . S
C525 C528 1.499 . S
C526 H506 0.950 . S
C526 C525 1.414 . S
C526 C527 1.374 . S
C527 H507 0.950 . S
C527 C523 1.385 . S
C527 C526 1.374 . S
C528 C525 1.499 . S
C528 C529 1.373 . S
C528 C530 1.389 . S
C529 H508 0.950 . S
C529 C528 1.373 . S
C529 C545 1.377 . S
C530 C528 1.389 . S
C530 C531 1.524 . S
C530 C544 1.377 . S
C531 C530 1.524 . S
C531 C532 1.397 . S
C531 C536 1.363 1_554 S
C532 H509 0.950 . S
C532 C531 1.397 . S
C532 C533 1.334 . S
C533 H510 0.950 . S
C533 C532 1.334 . S
C533 C534 1.287 1_554 S
C534 C533 1.287 1_556 S
C534 C535 1.524 . S
C534 H553 0.913 . S
C535 H511 0.950 . S
C535 C534 1.524 . S
C535 C536 1.415 . S
C536 H512 0.950 . S
C536 C531 1.363 1_556 S
C536 C535 1.415 . S
C537 H513 0.951 . S
C537 C538 1.366 . S
C537 C539 1.388 . S
C538 C537 1.366 . S
C538 C542 1.385 . S
C539 H514 0.951 . S
C539 C537 1.388 . S
C539 C540 1.366 . S
C540 C539 1.366 . S
C540 C541 1.414 . S
C540 C543 1.499 . S
C541 H515 0.950 . S
C541 C540 1.414 . S
C541 C542 1.374 . S
C542 H516 0.950 . S
C542 C538 1.385 . S
C542 C541 1.374 . S
C543 C540 1.499 . S
C543 C544 1.373 . S
C543 C545 1.389 . S
C544 H517 0.950 . S
C544 C530 1.377 . S
C544 C543 1.373 . S
C545 C529 1.377 . S
C545 C543 1.389 . S
C545 C546 1.524 . S
C546 C545 1.524 . S
C546 C547 1.397 . S
C546 C551 1.363 . S
C547 H518 0.950 . S
C547 C546 1.397 . S
C547 C548 1.334 . S
C548 H519 0.950 . S
C548 C547 1.334 . S
C548 C549 1.287 . S
C549 C548 1.287 . S
C549 C550 1.524 . S
C549 H552 0.999 . S
C550 H520 0.950 . S
C550 C549 1.524 . S
C550 C551 1.415 . S
C551 H521 0.950 . S
C551 C546 1.363 . S
C551 C550 1.415 . S
H552 C549 0.999 . S
H553 C534 0.913 . S
H554 C572 0.951 . S
H555 C574 0.951 . S
H556 C576 0.950 . S
H557 C577 0.950 . S
H558 C579 0.950 . S
H559 C582 0.950 . S
H560 C583 0.950 . S
H561 C585 0.950 . S
H562 C586 0.950 1_554 S
H563 C587 0.951 . S
H564 C589 0.951 . S
H565 C591 0.950 . S
H566 C592 0.950 . S
H567 C594 0.950 . S
H568 C597 0.950 . S
H569 C598 0.950 . S
H570 C600 0.950 . S
H571 C601 0.950 . S
C572 H554 0.951 . S
C572 C573 1.366 . S
C572 C574 1.388 . S
C573 C572 1.366 . S
C573 C577 1.385 . S
C574 H555 0.951 . S
C574 C572 1.388 . S
C574 C575 1.366 . S
C575 C574 1.366 . S
C575 C576 1.414 . S
C575 C578 1.499 . S
C576 H556 0.950 . S
C576 C575 1.414 . S
C576 C577 1.374 . S
C577 H557 0.950 . S
C577 C573 1.385 . S
C577 C576 1.374 . S
C578 C575 1.499 . S
C578 C579 1.373 . S
C578 C580 1.389 . S
C579 H558 0.950 . S
C579 C578 1.373 . S
C579 C595 1.377 . S
C580 C578 1.389 . S
C580 C581 1.524 . S
C580 C594 1.377 . S
C581 C580 1.524 . S
C581 C582 1.397 1_554 S
C581 C586 1.363 1_554 S
C582 H559 0.950 . S
C582 C581 1.397 1_556 S
C582 C583 1.334 . S
C583 H560 0.950 . S
C583 C582 1.334 . S
C583 C584 1.287 . S
C584 C583 1.287 . S
C584 C585 1.524 . S
C584 H603 0.913 . S
C585 H561 0.950 . S
C585 C584 1.524 . S
C585 C586 1.415 . S
C586 H562 0.950 1_556 S
C586 C581 1.363 1_556 S
C586 C585 1.415 . S
C587 H563 0.951 . S
C587 C588 1.366 . S
C587 C589 1.388 . S
C588 C587 1.366 . S
C588 C592 1.385 . S
C589 H564 0.951 . S
C589 C587 1.388 . S
C589 C590 1.366 . S
C590 C589 1.366 . S
C590 C591 1.414 . S
C590 C593 1.499 . S
C591 H565 0.950 . S
C591 C590 1.414 . S
C591 C592 1.374 . S
C592 H566 0.950 . S
C592 C588 1.385 . S
C592 C591 1.374 . S
C593 C590 1.499 . S
C593 C594 1.373 . S
C593 C595 1.389 . S
C594 H567 0.950 . S
C594 C580 1.377 . S
C594 C593 1.373 . S
C595 C579 1.377 . S
C595 C593 1.389 . S
C595 C596 1.524 . S
C596 C595 1.524 . S
C596 C597 1.397 . S
C596 C601 1.363 . S
C597 H568 0.950 . S
C597 C596 1.397 . S
C597 C598 1.334 . S
C598 H569 0.950 . S
C598 C597 1.334 . S
C598 C599 1.287 . S
C599 C598 1.287 . S
C599 C600 1.524 . S
C599 H602 0.999 . S
C600 H570 0.950 . S
C600 C599 1.524 . S
C600 C601 1.415 . S
C601 H571 0.950 . S
C601 C596 1.363 . S
C601 C600 1.415 . S
H602 C599 0.999 . S
H603 C584 0.913 . S
H604 C622 0.951 . S
H605 C624 0.951 . S
H606 C626 0.950 . S
H607 C627 0.950 . S
H608 C629 0.950 . S
H609 C632 0.950 . S
H610 C633 0.950 . S
H611 C635 0.950 . S
H612 C636 0.950 . S
H613 C637 0.951 . S
H614 C639 0.951 . S
H615 C641 0.950 . S
H616 C642 0.950 . S
H617 C644 0.950 . S
H618 C647 0.950 . S
H619 C648 0.950 . S
H620 C650 0.950 . S
H621 C651 0.950 . S
C622 H604 0.951 . S
C622 C623 1.366 . S
C622 C624 1.388 . S
C623 C622 1.366 . S
C623 C627 1.385 . S
C624 H605 0.951 . S
C624 C622 1.388 . S
C624 C625 1.366 . S
C625 C624 1.366 . S
C625 C626 1.414 . S
C625 C628 1.499 . S
C626 H606 0.950 . S
C626 C625 1.414 . S
C626 C627 1.374 . S
C627 H607 0.950 . S
C627 C623 1.385 . S
C627 C626 1.374 . S
C628 C625 1.499 . S
C628 C629 1.373 . S
C628 C630 1.389 . S
C629 H608 0.950 . S
C629 C628 1.373 . S
C629 C645 1.377 . S
C630 C628 1.389 . S
C630 C631 1.524 . S
C630 C644 1.377 . S
C631 C630 1.524 . S
C631 C632 1.397 . S
C631 C636 1.363 1_554 S
C632 H609 0.950 . S
C632 C631 1.397 . S
C632 C633 1.334 . S
C633 H610 0.950 . S
C633 C632 1.334 . S
C633 C634 1.287 1_554 S
C634 C633 1.287 1_556 S
C634 C635 1.524 . S
C634 H653 0.913 . S
C635 H611 0.950 . S
C635 C634 1.524 . S
C635 C636 1.415 . S
C636 H612 0.950 . S
C636 C631 1.363 1_556 S
C636 C635 1.415 . S
C637 H613 0.951 . S
C637 C638 1.366 . S
C637 C639 1.388 . S
C638 C637 1.366 . S
C638 C642 1.385 . S
C639 H614 0.951 . S
C639 C637 1.388 . S
C639 C640 1.366 . S
C640 C639 1.366 . S
C640 C641 1.414 . S
C640 C643 1.499 . S
C641 H615 0.950 . S
C641 C640 1.414 . S
C641 C642 1.374 . S
C642 H616 0.950 . S
C642 C638 1.385 . S
C642 C641 1.374 . S
C643 C640 1.499 . S
C643 C644 1.373 . S
C643 C645 1.389 . S
C644 H617 0.950 . S
C644 C630 1.377 . S
C644 C643 1.373 . S
C645 C629 1.377 . S
C645 C643 1.389 . S
C645 C646 1.524 . S
C646 C645 1.524 . S
C646 C647 1.397 . S
C646 C651 1.363 . S
C647 H618 0.950 . S
C647 C646 1.397 . S
C647 C648 1.334 . S
C648 H619 0.950 . S
C648 C647 1.334 . S
C648 C649 1.287 . S
C649 C648 1.287 . S
C649 C650 1.524 . S
C649 H652 0.999 . S
C650 H620 0.950 . S
C650 C649 1.524 . S
C650 C651 1.415 . S
C651 H621 0.950 . S
C651 C646 1.363 . S
C651 C650 1.415 . S
H652 C649 0.999 . S
H653 C634 0.913 . S
H654 C672 0.951 . S
H655 C674 0.951 . S
H656 C676 0.950 . S
H657 C677 0.950 . S
H658 C679 0.950 . S
H659 C682 0.950 . S
H660 C683 0.950 . S
H661 C685 0.950 . S
H662 C686 0.950 . S
H663 C687 0.951 . S
H664 C689 0.951 . S
H665 C691 0.950 . S
H666 C692 0.950 . S
H667 C694 0.950 . S
H668 C697 0.950 . S
H669 C698 0.950 . S
H670 C700 0.950 . S
H671 C701 0.950 . S
C672 H654 0.951 . S
C672 C673 1.366 . S
C672 C674 1.388 . S
C673 C672 1.366 . S
C673 C677 1.385 . S
C674 H655 0.951 . S
C674 C672 1.388 . S
C674 C675 1.366 . S
C675 C674 1.366 . S
C675 C676 1.414 . S
C675 C678 1.499 . S
C676 H656 0.950 . S
C676 C675 1.414 . S
C676 C677 1.374 . S
C677 H657 0.950 . S
C677 C673 1.385 . S
C677 C676 1.374 . S
C678 C675 1.499 . S
C678 C679 1.373 . S
C678 C680 1.389 . S
C679 H658 0.950 . S
C679 C678 1.373 . S
C679 C695 1.377 . S
C680 C678 1.389 . S
C680 C681 1.524 . S
C680 C694 1.377 . S
C681 C680 1.524 . S
C681 C682 1.397 1_556 S
C681 C686 1.363 . S
C682 H659 0.950 . S
C682 C681 1.397 1_554 S
C682 C683 1.334 . S
C683 H660 0.950 . S
C683 C682 1.334 . S
C683 C684 1.287 . S
C684 C683 1.287 . S
C684 C685 1.524 . S
C684 H703 0.913 . S
C685 H661 0.950 . S
C685 C684 1.524 . S
C685 C686 1.415 1_554 S
C686 H662 0.950 . S
C686 C681 1.363 . S
C686 C685 1.415 1_556 S
C687 H663 0.951 . S
C687 C688 1.366 . S
C687 C689 1.388 . S
C688 C687 1.366 . S
C688 C692 1.385 . S
C689 H664 0.951 . S
C689 C687 1.388 . S
C689 C690 1.366 . S
C690 C689 1.366 . S
C690 C691 1.414 . S
C690 C693 1.499 . S
C691 H665 0.950 . S
C691 C690 1.414 . S
C691 C692 1.374 . S
C692 H666 0.950 . S
C692 C688 1.385 . S
C692 C691 1.374 . S
C693 C690 1.499 . S
C693 C694 1.373 . S
C693 C695 1.389 . S
C694 H667 0.950 . S
C694 C680 1.377 . S
C694 C693 1.373 . S
C695 C679 1.377 . S
C695 C693 1.389 . S
C695 C696 1.524 . S
C696 C695 1.524 . S
C696 C697 1.397 . S
C696 C701 1.363 . S
C697 H668 0.950 . S
C697 C696 1.397 . S
C697 C698 1.334 . S
C698 H669 0.950 . S
C698 C697 1.334 . S
C698 C699 1.287 . S
C699 C698 1.287 . S
C699 C700 1.524 . S
C699 H702 0.999 . S
C700 H670 0.950 . S
C700 C699 1.524 . S
C700 C701 1.415 . S
C701 H671 0.950 . S
C701 C696 1.363 . S
C701 C700 1.415 . S
H702 C699 0.999 . S
H703 C684 0.913 . S
H704 C722 0.951 . S
H705 C724 0.951 . S
H706 C726 0.950 . S
H707 C727 0.950 . S
H708 C729 0.950 . S
H709 C732 0.950 . S
H710 C733 0.950 . S
H711 C735 0.950 . S
H712 C736 0.950 1_556 S
H713 C737 0.951 . S
H714 C739 0.951 . S
H715 C741 0.950 . S
H716 C742 0.950 . S
H717 C744 0.950 . S
H718 C747 0.950 . S
H719 C748 0.950 . S
H720 C750 0.950 . S
H721 C751 0.950 . S
C722 H704 0.951 . S
C722 C723 1.366 . S
C722 C724 1.388 . S
C723 C722 1.366 . S
C723 C727 1.385 . S
C724 H705 0.951 . S
C724 C722 1.388 . S
C724 C725 1.366 . S
C725 C724 1.366 . S
C725 C726 1.414 . S
C725 C728 1.499 . S
C726 H706 0.950 . S
C726 C725 1.414 . S
C726 C727 1.374 . S
C727 H707 0.950 . S
C727 C723 1.385 . S
C727 C726 1.374 . S
C728 C725 1.499 . S
C728 C729 1.373 . S
C728 C730 1.389 . S
C729 H708 0.950 . S
C729 C728 1.373 . S
C729 C745 1.377 . S
C730 C728 1.389 . S
C730 C731 1.524 . S
C730 C744 1.377 . S
C731 C730 1.524 . S
C731 C732 1.397 1_556 S
C731 C736 1.363 1_556 S
C732 H709 0.950 . S
C732 C731 1.397 1_554 S
C732 C733 1.334 . S
C733 H710 0.950 . S
C733 C732 1.334 . S
C733 C734 1.287 . S
C734 C733 1.287 . S
C734 C735 1.524 . S
C734 H753 0.913 . S
C735 H711 0.950 . S
C735 C734 1.524 . S
C735 C736 1.415 . S
C736 H712 0.950 1_554 S
C736 C731 1.363 1_554 S
C736 C735 1.415 . S
C737 H713 0.951 . S
C737 C738 1.366 . S
C737 C739 1.388 . S
C738 C737 1.366 . S
C738 C742 1.385 . S
C739 H714 0.951 . S
C739 C737 1.388 . S
C739 C740 1.366 . S
C740 C739 1.366 . S
C740 C741 1.414 . S
C740 C743 1.499 . S
C741 H715 0.950 . S
C741 C740 1.414 . S
C741 C742 1.374 . S
C742 H716 0.950 . S
C742 C738 1.385 . S
C742 C741 1.374 . S
C743 C740 1.499 . S
C743 C744 1.373 . S
C743 C745 1.389 . S
C744 H717 0.950 . S
C744 C730 1.377 . S
C744 C743 1.373 . S
C745 C729 1.377 . S
C745 C743 1.389 . S
C745 C746 1.524 . S
C746 C745 1.524 . S
C746 C747 1.397 . S
C746 C751 1.363 . S
C747 H718 0.950 . S
C747 C746 1.397 . S
C747 C748 1.334 . S
C748 H719 0.950 . S
C748 C747 1.334 . S
C748 C749 1.287 . S
C749 C748 1.287 . S
C749 C750 1.524 . S
C749 H752 0.999 . S
C750 H720 0.950 . S
C750 C749 1.524 . S
C750 C751 1.415 . S
C751 H721 0.950 . S
C751 C746 1.363 . S
C751 C750 1.415 . S
H752 C749 0.999 . S
H753 C734 0.913 . S
H754 C772 0.951 . S
H755 C774 0.951 . S
H756 C776 0.950 . S
H757 C777 0.950 . S
H758 C779 0.950 . S
H759 C782 0.950 1_556 S
H760 C783 0.950 . S
H761 C785 0.950 . S
H762 C786 0.950 . S
H763 C787 0.951 . S
H764 C789 0.951 . S
H765 C791 0.950 . S
H766 C792 0.950 . S
H767 C794 0.950 . S
H768 C797 0.950 . S
H769 C798 0.950 . S
H770 C800 0.950 . S
H771 C801 0.950 . S
C772 H754 0.951 . S
C772 C773 1.366 . S
C772 C774 1.388 . S
C773 C772 1.366 . S
C773 C777 1.385 . S
C774 H755 0.951 . S
C774 C772 1.388 . S
C774 C775 1.366 . S
C775 C774 1.366 . S
C775 C776 1.414 . S
C775 C778 1.499 . S
C776 H756 0.950 . S
C776 C775 1.414 . S
C776 C777 1.374 . S
C777 H757 0.950 . S
C777 C773 1.385 . S
C777 C776 1.374 . S
C778 C775 1.499 . S
C778 C779 1.373 . S
C778 C780 1.389 . S
C779 H758 0.950 . S
C779 C778 1.373 . S
C779 C795 1.377 . S
C780 C778 1.389 . S
C780 C781 1.524 1_556 S
C780 C794 1.377 . S
C781 C780 1.524 1_554 S
C781 C782 1.397 . S
C781 C786 1.363 . S
C782 H759 0.950 1_554 S
C782 C781 1.397 . S
C782 C783 1.334 . S
C783 H760 0.950 . S
C783 C782 1.334 . S
C783 C784 1.287 . S
C784 C783 1.287 . S
C784 C785 1.524 . S
C784 H803 0.913 . S
C785 H761 0.950 . S
C785 C784 1.524 . S
C785 C786 1.415 . S
C786 H762 0.950 . S
C786 C781 1.363 . S
C786 C785 1.415 . S
C787 H763 0.951 . S
C787 C788 1.366 . S
C787 C789 1.388 . S
C788 C787 1.366 . S
C788 C792 1.385 . S
C789 H764 0.951 . S
C789 C787 1.388 . S
C789 C790 1.366 . S
C790 C789 1.366 . S
C790 C791 1.414 . S
C790 C793 1.499 . S
C791 H765 0.950 . S
C791 C790 1.414 . S
C791 C792 1.374 . S
C792 H766 0.950 . S
C792 C788 1.385 . S
C792 C791 1.374 . S
C793 C790 1.499 . S
C793 C794 1.373 . S
C793 C795 1.389 . S
C794 H767 0.950 . S
C794 C780 1.377 . S
C794 C793 1.373 . S
C795 C779 1.377 . S
C795 C793 1.389 . S
C795 C796 1.524 . S
C796 C795 1.524 . S
C796 C797 1.397 . S
C796 C801 1.363 . S
C797 H768 0.950 . S
C797 C796 1.397 . S
C797 C798 1.334 . S
C798 H769 0.950 . S
C798 C797 1.334 . S
C798 C799 1.287 . S
C799 C798 1.287 . S
C799 C800 1.524 . S
C799 H802 0.999 . S
C800 H770 0.950 . S
C800 C799 1.524 . S
C800 C801 1.415 . S
C801 H771 0.950 . S
C801 C796 1.363 . S
C801 C800 1.415 . S
H802 C799 0.999 . S
H803 C784 0.913 . S
H804 C822 0.951 . S
H805 C824 0.951 . S
H806 C826 0.950 . S
H807 C827 0.950 . S
H808 C829 0.950 . S
H809 C832 0.950 . S
H810 C833 0.950 . S
H811 C835 0.950 . S
H812 C836 0.950 . S
H813 C837 0.951 . S
H814 C839 0.951 . S
H815 C841 0.950 . S
H816 C842 0.950 . S
H817 C844 0.950 . S
H818 C847 0.950 . S
H819 C848 0.950 . S
H820 C850 0.950 . S
H821 C851 0.950 . S
C822 H804 0.951 . S
C822 C823 1.366 . S
C822 C824 1.388 . S
C823 C822 1.366 . S
C823 C827 1.385 . S
C824 H805 0.951 . S
C824 C822 1.388 . S
C824 C825 1.366 . S
C825 C824 1.366 . S
C825 C826 1.414 . S
C825 C828 1.499 . S
C826 H806 0.950 . S
C826 C825 1.414 . S
C826 C827 1.374 . S
C827 H807 0.950 . S
C827 C823 1.385 . S
C827 C826 1.374 . S
C828 C825 1.499 . S
C828 C829 1.373 . S
C828 C830 1.389 . S
C829 H808 0.950 . S
C829 C828 1.373 . S
C829 C845 1.377 . S
C830 C828 1.389 . S
C830 C831 1.524 . S
C830 C844 1.377 . S
C831 C830 1.524 . S
C831 C832 1.397 . S
C831 C836 1.363 . S
C832 H809 0.950 . S
C832 C831 1.397 . S
C832 C833 1.334 . S
C833 H810 0.950 . S
C833 C832 1.334 . S
C833 C834 1.287 . S
C834 C833 1.287 . S
C834 C835 1.524 . S
C834 H853 0.913 . S
C835 H811 0.950 . S
C835 C834 1.524 . S
C835 C836 1.415 . S
C836 H812 0.950 . S
C836 C831 1.363 . S
C836 C835 1.415 . S
C837 H813 0.951 . S
C837 C838 1.366 . S
C837 C839 1.388 . S
C838 C837 1.366 . S
C838 C842 1.385 . S
C839 H814 0.951 . S
C839 C837 1.388 . S
C839 C840 1.366 . S
C840 C839 1.366 . S
C840 C841 1.414 . S
C840 C843 1.499 . S
C841 H815 0.950 . S
C841 C840 1.414 . S
C841 C842 1.374 . S
C842 H816 0.950 . S
C842 C838 1.385 . S
C842 C841 1.374 . S
C843 C840 1.499 . S
C843 C844 1.373 . S
C843 C845 1.389 . S
C844 H817 0.950 . S
C844 C830 1.377 . S
C844 C843 1.373 . S
C845 C829 1.377 . S
C845 C843 1.389 . S
C845 C846 1.524 . S
C846 C845 1.524 . S
C846 C847 1.397 . S
C846 C851 1.363 . S
C847 H818 0.950 . S
C847 C846 1.397 . S
C847 C848 1.334 . S
C848 H819 0.950 . S
C848 C847 1.334 . S
C848 C849 1.287 . S
C849 C848 1.287 . S
C849 C850 1.524 . S
C849 H852 0.999 . S
C850 H820 0.950 . S
C850 C849 1.524 . S
C850 C851 1.415 . S
C851 H821 0.950 . S
C851 C846 1.363 . S
C851 C850 1.415 . S
H852 C849 0.999 . S
H853 C834 0.913 . S
H854 C872 0.951 . S
H855 C874 0.951 . S
H856 C876 0.950 . S
H857 C877 0.950 . S
H858 C879 0.950 . S
H859 C882 0.950 . S
H860 C883 0.950 . S
H861 C885 0.950 . S
H862 C886 0.950 . S
H863 C887 0.951 . S
H864 C889 0.951 . S
H865 C891 0.950 . S
H866 C892 0.950 . S
H867 C894 0.950 . S
H868 C897 0.950 . S
H869 C898 0.950 . S
H870 C900 0.950 . S
H871 C901 0.950 . S
C872 H854 0.951 . S
C872 C873 1.366 . S
C872 C874 1.388 . S
C873 C872 1.366 . S
C873 C877 1.385 . S
C874 H855 0.951 . S
C874 C872 1.388 . S
C874 C875 1.366 . S
C875 C874 1.366 . S
C875 C876 1.414 . S
C875 C878 1.499 . S
C876 H856 0.950 . S
C876 C875 1.414 . S
C876 C877 1.374 . S
C877 H857 0.950 . S
C877 C873 1.385 . S
C877 C876 1.374 . S
C878 C875 1.499 . S
C878 C879 1.373 . S
C878 C880 1.389 . S
C879 H858 0.950 . S
C879 C878 1.373 . S
C879 C895 1.377 . S
C880 C878 1.389 . S
C880 C881 1.524 . S
C880 C894 1.377 . S
C881 C880 1.524 . S
C881 C882 1.397 . S
C881 C886 1.363 . S
C882 H859 0.950 . S
C882 C881 1.397 . S
C882 C883 1.334 . S
C883 H860 0.950 . S
C883 C882 1.334 . S
C883 C884 1.287 . S
C884 C883 1.287 . S
C884 C885 1.524 . S
C884 H903 0.913 . S
C885 H861 0.950 . S
C885 C884 1.524 . S
C885 C886 1.415 . S
C886 H862 0.950 . S
C886 C881 1.363 . S
C886 C885 1.415 . S
C887 H863 0.951 . S
C887 C888 1.366 . S
C887 C889 1.388 . S
C888 C887 1.366 . S
C888 C892 1.385 . S
C889 H864 0.951 . S
C889 C887 1.388 . S
C889 C890 1.366 . S
C890 C889 1.366 . S
C890 C891 1.414 . S
C890 C893 1.499 . S
C891 H865 0.950 . S
C891 C890 1.414 . S
C891 C892 1.374 . S
C892 H866 0.950 . S
C892 C888 1.385 . S
C892 C891 1.374 . S
C893 C890 1.499 . S
C893 C894 1.373 . S
C893 C895 1.389 . S
C894 H867 0.950 . S
C894 C880 1.377 . S
C894 C893 1.373 . S
C895 C879 1.377 . S
C895 C893 1.389 . S
C895 C896 1.524 . S
C896 C895 1.524 . S
C896 C897 1.397 . S
C896 C901 1.363 . S
C897 H868 0.950 . S
C897 C896 1.397 . S
C897 C898 1.334 . S
C898 H869 0.950 . S
C898 C897 1.334 . S
C898 C899 1.287 . S
C899 C898 1.287 . S
C899 C900 1.524 . S
C899 H902 0.999 . S
C900 H870 0.950 . S
C900 C899 1.524 . S
C900 C901 1.415 . S
C901 H871 0.950 . S
C901 C896 1.363 . S
C901 C900 1.415 . S
H902 C899 0.999 . S
H903 C884 0.913 . S
H904 C922 0.951 . S
H905 C924 0.951 . S
H906 C926 0.950 . S
H907 C927 0.950 . S
H908 C929 0.950 . S
H909 C932 0.950 . S
H910 C933 0.950 . S
H911 C935 0.950 . S
H912 C936 0.950 . S
H913 C937 0.951 . S
H914 C939 0.951 . S
H915 C941 0.950 . S
H916 C942 0.950 . S
H917 C944 0.950 . S
H918 C947 0.950 . S
H919 C948 0.950 . S
H920 C950 0.950 . S
H921 C951 0.950 . S
C922 H904 0.951 . S
C922 C923 1.366 . S
C922 C924 1.388 . S
C923 C922 1.366 . S
C923 C927 1.385 . S
C924 H905 0.951 . S
C924 C922 1.388 . S
C924 C925 1.366 . S
C925 C924 1.366 . S
C925 C926 1.414 . S
C925 C928 1.499 . S
C926 H906 0.950 . S
C926 C925 1.414 . S
C926 C927 1.374 . S
C927 H907 0.950 . S
C927 C923 1.385 . S
C927 C926 1.374 . S
C928 C925 1.499 . S
C928 C929 1.373 . S
C928 C930 1.389 . S
C929 H908 0.950 . S
C929 C928 1.373 . S
C929 C945 1.377 . S
C930 C928 1.389 . S
C930 C931 1.524 . S
C930 C944 1.377 . S
C931 C930 1.524 . S
C931 C932 1.397 . S
C931 C936 1.363 . S
C932 H909 0.950 . S
C932 C931 1.397 . S
C932 C933 1.334 . S
C933 H910 0.950 . S
C933 C932 1.334 . S
C933 C934 1.287 . S
C934 C933 1.287 . S
C934 C935 1.524 . S
C934 H953 0.913 . S
C935 H911 0.950 . S
C935 C934 1.524 . S
C935 C936 1.415 . S
C936 H912 0.950 . S
C936 C931 1.363 . S
C936 C935 1.415 . S
C937 H913 0.951 . S
C937 C938 1.366 . S
C937 C939 1.388 . S
C938 C937 1.366 . S
C938 C942 1.385 . S
C939 H914 0.951 . S
C939 C937 1.388 . S
C939 C940 1.366 . S
C940 C939 1.366 . S
C940 C941 1.414 . S
C940 C943 1.499 . S
C941 H915 0.950 . S
C941 C940 1.414 . S
C941 C942 1.374 . S
C942 H916 0.950 . S
C942 C938 1.385 . S
C942 C941 1.374 . S
C943 C940 1.499 . S
C943 C944 1.373 . S
C943 C945 1.389 . S
C944 H917 0.950 . S
C944 C930 1.377 . S
C944 C943 1.373 . S
C945 C929 1.377 . S
C945 C943 1.389 . S
C945 C946 1.524 . S
C946 C945 1.524 . S
C946 C947 1.397 . S
C946 C951 1.363 . S
C947 H918 0.950 . S
C947 C946 1.397 . S
C947 C948 1.334 . S
C948 H919 0.950 . S
C948 C947 1.334 . S
C948 C949 1.287 . S
C949 C948 1.287 . S
C949 C950 1.524 . S
C949 H952 0.999 . S
C950 H920 0.950 . S
C950 C949 1.524 . S
C950 C951 1.415 . S
C951 H921 0.950 . S
C951 C946 1.363 . S
C951 C950 1.415 . S
H952 C949 0.999 . S
H953 C934 0.913 . S
H954 C972 0.951 . S
H955 C974 0.951 . S
H956 C976 0.950 . S
H957 C977 0.950 . S
H958 C979 0.950 . S
H959 C982 0.950 . S
H960 C983 0.950 . S
H961 C985 0.950 . S
H962 C986 0.950 . S
H963 C987 0.951 . S
H964 C989 0.951 . S
H965 C991 0.950 . S
H966 C992 0.950 . S
H967 C994 0.950 . S
H968 C997 0.950 . S
H969 C998 0.950 . S
H970 C1000 0.950 . S
H971 C1001 0.950 . S
C972 H954 0.951 . S
C972 C973 1.366 . S
C972 C974 1.388 . S
C973 C972 1.366 . S
C973 C977 1.385 . S
C974 H955 0.951 . S
C974 C972 1.388 . S
C974 C975 1.366 . S
C975 C974 1.366 . S
C975 C976 1.414 . S
C975 C978 1.499 . S
C976 H956 0.950 . S
C976 C975 1.414 . S
C976 C977 1.374 . S
C977 H957 0.950 . S
C977 C973 1.385 . S
C977 C976 1.374 . S
C978 C975 1.499 . S
C978 C979 1.373 . S
C978 C980 1.389 . S
C979 H958 0.950 . S
C979 C978 1.373 . S
C979 C995 1.377 . S
C980 C978 1.389 . S
C980 C981 1.524 . S
C980 C994 1.377 . S
C981 C980 1.524 . S
C981 C982 1.397 . S
C981 C986 1.363 . S
C982 H959 0.950 . S
C982 C981 1.397 . S
C982 C983 1.334 . S
C983 H960 0.950 . S
C983 C982 1.334 . S
C983 C984 1.287 . S
C984 C983 1.287 . S
C984 C985 1.524 . S
C984 H1003 0.913 . S
C985 H961 0.950 . S
C985 C984 1.524 . S
C985 C986 1.415 . S
C986 H962 0.950 . S
C986 C981 1.363 . S
C986 C985 1.415 . S
C987 H963 0.951 . S
C987 C988 1.366 . S
C987 C989 1.388 . S
C988 C987 1.366 . S
C988 C992 1.385 . S
C989 H964 0.951 . S
C989 C987 1.388 . S
C989 C990 1.366 . S
C990 C989 1.366 . S
C990 C991 1.414 . S
C990 C993 1.499 . S
C991 H965 0.950 . S
C991 C990 1.414 . S
C991 C992 1.374 . S
C992 H966 0.950 . S
C992 C988 1.385 . S
C992 C991 1.374 . S
C993 C990 1.499 . S
C993 C994 1.373 . S
C993 C995 1.389 . S
C994 H967 0.950 . S
C994 C980 1.377 . S
C994 C993 1.373 . S
C995 C979 1.377 . S
C995 C993 1.389 . S
C995 C996 1.524 . S
C996 C995 1.524 . S
C996 C997 1.397 . S
C996 C1001 1.363 . S
C997 H968 0.950 . S
C997 C996 1.397 . S
C997 C998 1.334 . S
C998 H969 0.950 . S
C998 C997 1.334 . S
C998 C999 1.287 . S
C999 C998 1.287 . S
C999 C1000 1.524 . S
C999 H1002 0.999 . S
C1000 H970 0.950 . S
C1000 C999 1.524 . S
C1000 C1001 1.415 . S
C1001 H971 0.950 . S
C1001 C996 1.363 . S
C1001 C1000 1.415 . S
H1002 C999 0.999 . S
H1003 C984 0.913 . S
H1004 C1022 0.951 . S
H1005 C1024 0.951 . S
H1006 C1026 0.950 . S
H1007 C1027 0.950 . S
H1008 C1029 0.950 . S
H1009 C1032 0.950 . S
H1010 C1033 0.950 . S
H1011 C1035 0.950 . S
H1012 C1036 0.950 . S
H1013 C1037 0.951 . S
H1014 C1039 0.951 . S
H1015 C1041 0.950 . S
H1016 C1042 0.950 . S
H1017 C1044 0.950 . S
H1018 C1047 0.950 . S
H1019 C1048 0.950 . S
H1020 C1050 0.950 . S
H1021 C1051 0.950 . S
C1022 H1004 0.951 . S
C1022 C1023 1.366 . S
C1022 C1024 1.388 . S
C1023 C1022 1.366 . S
C1023 C1027 1.385 . S
C1024 H1005 0.951 . S
C1024 C1022 1.388 . S
C1024 C1025 1.366 . S
C1025 C1024 1.366 . S
C1025 C1026 1.414 . S
C1025 C1028 1.499 . S
C1026 H1006 0.950 . S
C1026 C1025 1.414 . S
C1026 C1027 1.374 . S
C1027 H1007 0.950 . S
C1027 C1023 1.385 . S
C1027 C1026 1.374 . S
C1028 C1025 1.499 . S
C1028 C1029 1.373 . S
C1028 C1030 1.389 . S
C1029 H1008 0.950 . S
C1029 C1028 1.373 . S
C1029 C1045 1.377 . S
C1030 C1028 1.389 . S
C1030 C1031 1.524 . S
C1030 C1044 1.377 . S
C1031 C1030 1.524 . S
C1031 C1032 1.397 . S
C1031 C1036 1.363 . S
C1032 H1009 0.950 . S
C1032 C1031 1.397 . S
C1032 C1033 1.334 . S
C1033 H1010 0.950 . S
C1033 C1032 1.334 . S
C1033 C1034 1.287 . S
C1034 C1033 1.287 . S
C1034 C1035 1.524 . S
C1034 H1053 0.913 . S
C1035 H1011 0.950 . S
C1035 C1034 1.524 . S
C1035 C1036 1.415 . S
C1036 H1012 0.950 . S
C1036 C1031 1.363 . S
C1036 C1035 1.415 . S
C1037 H1013 0.951 . S
C1037 C1038 1.366 . S
C1037 C1039 1.388 . S
C1038 C1037 1.366 . S
C1038 C1042 1.385 . S
C1039 H1014 0.951 . S
C1039 C1037 1.388 . S
C1039 C1040 1.366 . S
C1040 C1039 1.366 . S
C1040 C1041 1.414 . S
C1040 C1043 1.499 . S
C1041 H1015 0.950 . S
C1041 C1040 1.414 . S
C1041 C1042 1.374 . S
C1042 H1016 0.950 . S
C1042 C1038 1.385 . S
C1042 C1041 1.374 . S
C1043 C1040 1.499 . S
C1043 C1044 1.373 . S
C1043 C1045 1.389 . S
C1044 H1017 0.950 . S
C1044 C1030 1.377 . S
C1044 C1043 1.373 . S
C1045 C1029 1.377 . S
C1045 C1043 1.389 . S
C1045 C1046 1.524 . S
C1046 C1045 1.524 . S
C1046 C1047 1.397 . S
C1046 C1051 1.363 . S
C1047 H1018 0.950 . S
C1047 C1046 1.397 . S
C1047 C1048 1.334 . S
C1048 H1019 0.950 . S
C1048 C1047 1.334 . S
C1048 C1049 1.287 . S
C1049 C1048 1.287 . S
C1049 C1050 1.524 . S
C1049 H1052 0.999 . S
C1050 H1020 0.950 . S
C1050 C1049 1.524 . S
C1050 C1051 1.415 . S
C1051 H1021 0.950 . S
C1051 C1046 1.363 . S
C1051 C1050 1.415 . S
H1052 C1049 0.999 . S
H1053 C1034 0.913 . S
H1054 C1072 0.951 . S
H1055 C1074 0.951 . S
H1056 C1076 0.950 . S
H1057 C1077 0.950 . S
H1058 C1079 0.950 . S
H1059 C1082 0.950 . S
H1060 C1083 0.950 . S
H1061 C1085 0.950 . S
H1062 C1086 0.950 . S
H1063 C1087 0.951 . S
H1064 C1089 0.951 . S
H1065 C1091 0.950 . S
H1066 C1092 0.950 . S
H1067 C1094 0.950 . S
H1068 C1097 0.950 . S
H1069 C1098 0.950 . S
H1070 C1100 0.950 . S
H1071 C1101 0.950 . S
C1072 H1054 0.951 . S
C1072 C1073 1.366 . S
C1072 C1074 1.388 . S
C1073 C1072 1.366 . S
C1073 C1077 1.385 . S
C1074 H1055 0.951 . S
C1074 C1072 1.388 . S
C1074 C1075 1.366 . S
C1075 C1074 1.366 . S
C1075 C1076 1.414 . S
C1075 C1078 1.499 . S
C1076 H1056 0.950 . S
C1076 C1075 1.414 . S
C1076 C1077 1.374 . S
C1077 H1057 0.950 . S
C1077 C1073 1.385 . S
C1077 C1076 1.374 . S
C1078 C1075 1.499 . S
C1078 C1079 1.373 . S
C1078 C1080 1.389 . S
C1079 H1058 0.950 . S
C1079 C1078 1.373 . S
C1079 C1095 1.377 . S
C1080 C1078 1.389 . S
C1080 C1081 1.524 . S
C1080 C1094 1.377 . S
C1081 C1080 1.524 . S
C1081 C1082 1.397 . S
C1081 C1086 1.363 . S
C1082 H1059 0.950 . S
C1082 C1081 1.397 . S
C1082 C1083 1.334 . S
C1083 H1060 0.950 . S
C1083 C1082 1.334 . S
C1083 C1084 1.287 . S
C1084 C1083 1.287 . S
C1084 C1085 1.524 . S
C1084 H1103 0.913 . S
C1085 H1061 0.950 . S
C1085 C1084 1.524 . S
C1085 C1086 1.415 . S
C1086 H1062 0.950 . S
C1086 C1081 1.363 . S
C1086 C1085 1.415 . S
C1087 H1063 0.951 . S
C1087 C1088 1.366 . S
C1087 C1089 1.388 . S
C1088 C1087 1.366 . S
C1088 C1092 1.385 . S
C1089 H1064 0.951 . S
C1089 C1087 1.388 . S
C1089 C1090 1.366 . S
C1090 C1089 1.366 . S
C1090 C1091 1.414 . S
C1090 C1093 1.499 . S
C1091 H1065 0.950 . S
C1091 C1090 1.414 . S
C1091 C1092 1.374 . S
C1092 H1066 0.950 . S
C1092 C1088 1.385 . S
C1092 C1091 1.374 . S
C1093 C1090 1.499 . S
C1093 C1094 1.373 . S
C1093 C1095 1.389 . S
C1094 H1067 0.950 . S
C1094 C1080 1.377 . S
C1094 C1093 1.373 . S
C1095 C1079 1.377 . S
C1095 C1093 1.389 . S
C1095 C1096 1.524 . S
C1096 C1095 1.524 . S
C1096 C1097 1.397 . S
C1096 C1101 1.363 . S
C1097 H1068 0.950 . S
C1097 C1096 1.397 . S
C1097 C1098 1.334 . S
C1098 H1069 0.950 . S
C1098 C1097 1.334 . S
C1098 C1099 1.287 . S
C1099 C1098 1.287 . S
C1099 C1100 1.524 . S
C1099 H1102 0.999 . S
C1100 H1070 0.950 . S
C1100 C1099 1.524 . S
C1100 C1101 1.415 . S
C1101 H1071 0.950 . S
C1101 C1096 1.363 . S
C1101 C1100 1.415 . S
H1102 C1099 0.999 . S
H1103 C1084 0.913 . S
H1104 C1122 0.951 . S
H1105 C1124 0.951 . S
H1106 C1126 0.950 . S
H1107 C1127 0.950 . S
H1108 C1129 0.950 . S
H1109 C1132 0.950 . S
H1110 C1133 0.950 . S
H1111 C1135 0.950 . S
H1112 C1136 0.950 . S
H1113 C1137 0.951 . S
H1114 C1139 0.951 . S
H1115 C1141 0.950 . S
H1116 C1142 0.950 . S
H1117 C1144 0.950 . S
H1118 C1147 0.950 . S
H1119 C1148 0.950 . S
H1120 C1150 0.950 1_545 S
H1121 C1151 0.950 . S
C1122 H1104 0.951 . S
C1122 C1123 1.366 . S
C1122 C1124 1.388 . S
C1123 C1122 1.366 . S
C1123 C1127 1.385 . S
C1124 H1105 0.951 . S
C1124 C1122 1.388 . S
C1124 C1125 1.366 . S
C1125 C1124 1.366 . S
C1125 C1126 1.414 . S
C1125 C1128 1.499 . S
C1126 H1106 0.950 . S
C1126 C1125 1.414 . S
C1126 C1127 1.374 . S
C1127 H1107 0.950 . S
C1127 C1123 1.385 . S
C1127 C1126 1.374 . S
C1128 C1125 1.499 . S
C1128 C1129 1.373 . S
C1128 C1130 1.389 . S
C1129 H1108 0.950 . S
C1129 C1128 1.373 . S
C1129 C1145 1.377 . S
C1130 C1128 1.389 . S
C1130 C1131 1.524 . S
C1130 C1144 1.377 . S
C1131 C1130 1.524 . S
C1131 C1132 1.397 . S
C1131 C1136 1.363 . S
C1132 H1109 0.950 . S
C1132 C1131 1.397 . S
C1132 C1133 1.334 . S
C1133 H1110 0.950 . S
C1133 C1132 1.334 . S
C1133 C1134 1.287 . S
C1134 C1133 1.287 . S
C1134 C1135 1.524 . S
C1134 H1153 0.913 . S
C1135 H1111 0.950 . S
C1135 C1134 1.524 . S
C1135 C1136 1.415 . S
C1136 H1112 0.950 . S
C1136 C1131 1.363 . S
C1136 C1135 1.415 . S
C1137 H1113 0.951 . S
C1137 C1138 1.366 . S
C1137 C1139 1.388 . S
C1138 C1137 1.366 . S
C1138 C1142 1.385 . S
C1139 H1114 0.951 . S
C1139 C1137 1.388 . S
C1139 C1140 1.366 . S
C1140 C1139 1.366 . S
C1140 C1141 1.414 . S
C1140 C1143 1.499 . S
C1141 H1115 0.950 . S
C1141 C1140 1.414 . S
C1141 C1142 1.374 . S
C1142 H1116 0.950 . S
C1142 C1138 1.385 . S
C1142 C1141 1.374 . S
C1143 C1140 1.499 . S
C1143 C1144 1.373 . S
C1143 C1145 1.389 . S
C1144 H1117 0.950 . S
C1144 C1130 1.377 . S
C1144 C1143 1.373 . S
C1145 C1129 1.377 . S
C1145 C1143 1.389 . S
C1145 C1146 1.524 . S
C1146 C1145 1.524 . S
C1146 C1147 1.397 . S
C1146 C1151 1.363 . S
C1147 H1118 0.950 . S
C1147 C1146 1.397 . S
C1147 C1148 1.334 . S
C1148 H1119 0.950 . S
C1148 C1147 1.334 . S
C1148 C1149 1.276 1_565 S
C1149 C1148 1.276 1_545 S
C1149 C1150 1.526 1_545 S
C1149 H1152 1.009 . S
C1150 H1120 0.950 1_565 S
C1150 C1149 1.526 1_565 S
C1150 C1151 1.415 . S
C1151 H1121 0.950 . S
C1151 C1146 1.363 . S
C1151 C1150 1.415 . S
H1152 C1149 1.009 . S
H1153 C1134 0.913 . S
H1154 C1172 0.951 . S
H1155 C1174 0.951 . S
H1156 C1176 0.950 . S
H1157 C1177 0.950 . S
H1158 C1179 0.950 . S
H1159 C1182 0.950 . S
H1160 C1183 0.950 . S
H1161 C1185 0.950 . S
H1162 C1186 0.950 . S
H1163 C1187 0.951 . S
H1164 C1189 0.951 . S
H1165 C1191 0.950 . S
H1166 C1192 0.950 . S
H1167 C1194 0.950 . S
H1168 C1197 0.950 . S
H1169 C1198 0.950 . S
H1170 C1200 0.950 1_655 S
H1171 C1201 0.950 . S
C1172 H1154 0.951 . S
C1172 C1173 1.366 . S
C1172 C1174 1.388 . S
C1173 C1172 1.366 . S
C1173 C1177 1.385 . S
C1174 H1155 0.951 . S
C1174 C1172 1.388 . S
C1174 C1175 1.366 . S
C1175 C1174 1.366 . S
C1175 C1176 1.414 . S
C1175 C1178 1.499 . S
C1176 H1156 0.950 . S
C1176 C1175 1.414 . S
C1176 C1177 1.374 . S
C1177 H1157 0.950 . S
C1177 C1173 1.385 . S
C1177 C1176 1.374 . S
C1178 C1175 1.499 . S
C1178 C1179 1.373 . S
C1178 C1180 1.389 . S
C1179 H1158 0.950 . S
C1179 C1178 1.373 . S
C1179 C1195 1.377 . S
C1180 C1178 1.389 . S
C1180 C1181 1.524 . S
C1180 C1194 1.377 . S
C1181 C1180 1.524 . S
C1181 C1182 1.397 . S
C1181 C1186 1.363 . S
C1182 H1159 0.950 . S
C1182 C1181 1.397 . S
C1182 C1183 1.334 . S
C1183 H1160 0.950 . S
C1183 C1182 1.334 . S
C1183 C1184 1.287 . S
C1184 C1183 1.287 . S
C1184 C1185 1.524 . S
C1184 H1203 0.913 . S
C1185 H1161 0.950 . S
C1185 C1184 1.524 . S
C1185 C1186 1.415 . S
C1186 H1162 0.950 . S
C1186 C1181 1.363 . S
C1186 C1185 1.415 . S
C1187 H1163 0.951 . S
C1187 C1188 1.366 . S
C1187 C1189 1.388 . S
C1188 C1187 1.366 . S
C1188 C1192 1.385 . S
C1189 H1164 0.951 . S
C1189 C1187 1.388 . S
C1189 C1190 1.366 . S
C1190 C1189 1.366 . S
C1190 C1191 1.414 . S
C1190 C1193 1.499 . S
C1191 H1165 0.950 . S
C1191 C1190 1.414 . S
C1191 C1192 1.374 . S
C1192 H1166 0.950 . S
C1192 C1188 1.385 . S
C1192 C1191 1.374 . S
C1193 C1190 1.499 . S
C1193 C1194 1.373 . S
C1193 C1195 1.389 . S
C1194 H1167 0.950 . S
C1194 C1180 1.377 . S
C1194 C1193 1.373 . S
C1195 C1179 1.377 . S
C1195 C1193 1.389 . S
C1195 C1196 1.524 . S
C1196 C1195 1.524 . S
C1196 C1197 1.397 . S
C1196 C1201 1.363 . S
C1197 H1168 0.950 . S
C1197 C1196 1.397 . S
C1197 C1198 1.334 . S
C1198 H1169 0.950 . S
C1198 C1197 1.334 . S
C1198 C1199 1.287 . S
C1199 C1198 1.287 . S
C1199 C1200 1.524 . S
C1199 H1202 0.999 1_455 S
C1200 H1170 0.950 1_455 S
C1200 C1199 1.524 . S
C1200 C1201 1.415 . S
C1201 H1171 0.950 . S
C1201 C1196 1.363 . S
C1201 C1200 1.415 . S
H1202 C1199 0.999 1_655 S
H1203 C1184 0.913 . S
H1204 C1222 0.951 . S
H1205 C1224 0.951 . S
H1206 C1226 0.950 . S
H1207 C1227 0.950 . S
H1208 C1229 0.950 . S
H1209 C1232 0.950 . S
H1210 C1233 0.950 . S
H1211 C1235 0.950 . S
H1212 C1236 0.950 . S
H1213 C1237 0.951 . S
H1214 C1239 0.951 . S
H1215 C1241 0.950 . S
H1216 C1242 0.950 . S
H1217 C1244 0.950 . S
H1218 C1247 0.950 . S
H1219 C1248 0.950 . S
H1220 C1250 0.950 . S
H1221 C1251 0.950 . S
C1222 H1204 0.951 . S
C1222 C1223 1.366 . S
C1222 C1224 1.388 . S
C1223 C1222 1.366 . S
C1223 C1227 1.385 . S
C1224 H1205 0.951 . S
C1224 C1222 1.388 . S
C1224 C1225 1.366 . S
C1225 C1224 1.366 . S
C1225 C1226 1.414 . S
C1225 C1228 1.499 . S
C1226 H1206 0.950 . S
C1226 C1225 1.414 . S
C1226 C1227 1.374 . S
C1227 H1207 0.950 . S
C1227 C1223 1.385 . S
C1227 C1226 1.374 . S
C1228 C1225 1.499 . S
C1228 C1229 1.373 . S
C1228 C1230 1.389 . S
C1229 H1208 0.950 . S
C1229 C1228 1.373 . S
C1229 C1245 1.377 . S
C1230 C1228 1.389 . S
C1230 C1231 1.524 . S
C1230 C1244 1.377 . S
C1231 C1230 1.524 . S
C1231 C1232 1.397 . S
C1231 C1236 1.363 . S
C1232 H1209 0.950 . S
C1232 C1231 1.397 . S
C1232 C1233 1.334 . S
C1233 H1210 0.950 . S
C1233 C1232 1.334 . S
C1233 C1234 1.287 . S
C1234 C1233 1.287 . S
C1234 C1235 1.524 . S
C1234 H1253 0.913 . S
C1235 H1211 0.950 . S
C1235 C1234 1.524 . S
C1235 C1236 1.415 . S
C1236 H1212 0.950 . S
C1236 C1231 1.363 . S
C1236 C1235 1.415 . S
C1237 H1213 0.951 . S
C1237 C1238 1.366 . S
C1237 C1239 1.388 . S
C1238 C1237 1.366 . S
C1238 C1242 1.385 . S
C1239 H1214 0.951 . S
C1239 C1237 1.388 . S
C1239 C1240 1.366 . S
C1240 C1239 1.366 . S
C1240 C1241 1.414 . S
C1240 C1243 1.499 . S
C1241 H1215 0.950 . S
C1241 C1240 1.414 . S
C1241 C1242 1.374 . S
C1242 H1216 0.950 . S
C1242 C1238 1.385 . S
C1242 C1241 1.374 . S
C1243 C1240 1.499 . S
C1243 C1244 1.373 . S
C1243 C1245 1.389 . S
C1244 H1217 0.950 . S
C1244 C1230 1.377 . S
C1244 C1243 1.373 . S
C1245 C1229 1.377 . S
C1245 C1243 1.389 . S
C1245 C1246 1.524 . S
C1246 C1245 1.524 . S
C1246 C1247 1.397 . S
C1246 C1251 1.363 . S
C1247 H1218 0.950 . S
C1247 C1246 1.397 . S
C1247 C1248 1.334 . S
C1248 H1219 0.950 . S
C1248 C1247 1.334 . S
C1248 C1249 1.287 . S
C1249 C1248 1.287 . S
C1249 C1250 1.524 . S
C1249 H1252 0.999 . S
C1250 H1220 0.950 . S
C1250 C1249 1.524 . S
C1250 C1251 1.415 . S
C1251 H1221 0.950 . S
C1251 C1246 1.363 . S
C1251 C1250 1.415 . S
H1252 C1249 0.999 . S
H1253 C1234 0.913 . S
H1254 C1272 0.951 . S
H1255 C1274 0.951 . S
H1256 C1276 0.950 . S
H1257 C1277 0.950 . S
H1258 C1279 0.950 . S
H1259 C1282 0.950 . S
H1260 C1283 0.950 . S
H1261 C1285 0.950 . S
H1262 C1286 0.950 . S
H1263 C1287 0.951 . S
H1264 C1289 0.951 . S
H1265 C1291 0.950 . S
H1266 C1292 0.950 . S
H1267 C1294 0.950 . S
H1268 C1297 0.950 . S
H1269 C1298 0.950 . S
H1270 C1300 0.950 . S
H1271 C1301 0.950 . S
C1272 H1254 0.951 . S
C1272 C1273 1.366 . S
C1272 C1274 1.388 . S
C1273 C1272 1.366 . S
C1273 C1277 1.385 . S
C1274 H1255 0.951 . S
C1274 C1272 1.388 . S
C1274 C1275 1.366 . S
C1275 C1274 1.366 . S
C1275 C1276 1.414 . S
C1275 C1278 1.499 . S
C1276 H1256 0.950 . S
C1276 C1275 1.414 . S
C1276 C1277 1.374 . S
C1277 H1257 0.950 . S
C1277 C1273 1.385 . S
C1277 C1276 1.374 . S
C1278 C1275 1.499 . S
C1278 C1279 1.373 . S
C1278 C1280 1.389 . S
C1279 H1258 0.950 . S
C1279 C1278 1.373 . S
C1279 C1295 1.377 . S
C1280 C1278 1.389 . S
C1280 C1281 1.524 . S
C1280 C1294 1.377 . S
C1281 C1280 1.524 . S
C1281 C1282 1.397 . S
C1281 C1286 1.363 . S
C1282 H1259 0.950 . S
C1282 C1281 1.397 . S
C1282 C1283 1.334 . S
C1283 H1260 0.950 . S
C1283 C1282 1.334 . S
C1283 C1284 1.287 . S
C1284 C1283 1.287 . S
C1284 C1285 1.524 . S
C1284 H1303 0.913 . S
C1285 H1261 0.950 . S
C1285 C1284 1.524 . S
C1285 C1286 1.415 . S
C1286 H1262 0.950 . S
C1286 C1281 1.363 . S
C1286 C1285 1.415 . S
C1287 H1263 0.951 . S
C1287 C1288 1.366 . S
C1287 C1289 1.388 . S
C1288 C1287 1.366 . S
C1288 C1292 1.385 . S
C1289 H1264 0.951 . S
C1289 C1287 1.388 . S
C1289 C1290 1.366 . S
C1290 C1289 1.366 . S
C1290 C1291 1.414 . S
C1290 C1293 1.499 . S
C1291 H1265 0.950 . S
C1291 C1290 1.414 . S
C1291 C1292 1.374 . S
C1292 H1266 0.950 . S
C1292 C1288 1.385 . S
C1292 C1291 1.374 . S
C1293 C1290 1.499 . S
C1293 C1294 1.373 . S
C1293 C1295 1.389 . S
C1294 H1267 0.950 . S
C1294 C1280 1.377 . S
C1294 C1293 1.373 . S
C1295 C1279 1.377 . S
C1295 C1293 1.389 . S
C1295 C1296 1.524 . S
C1296 C1295 1.524 . S
C1296 C1297 1.397 . S
C1296 C1301 1.363 . S
C1297 H1268 0.950 . S
C1297 C1296 1.397 . S
C1297 C1298 1.334 . S
C1298 H1269 0.950 . S
C1298 C1297 1.334 . S
C1298 C1299 1.287 . S
C1299 C1298 1.287 . S
C1299 C1300 1.524 . S
C1299 H1302 0.999 . S
C1300 H1270 0.950 . S
C1300 C1299 1.524 . S
C1300 C1301 1.415 . S
C1301 H1271 0.950 . S
C1301 C1296 1.363 . S
C1301 C1300 1.415 . S
H1302 C1299 0.999 . S
H1303 C1284 0.913 . S
H1304 C1322 0.951 . S
H1305 C1324 0.951 . S
H1306 C1326 0.950 . S
H1307 C1327 0.950 . S
H1308 C1329 0.950 . S
H1309 C1332 0.950 . S
H1310 C1333 0.950 . S
H1311 C1335 0.950 . S
H1312 C1336 0.950 . S
H1313 C1337 0.951 . S
H1314 C1339 0.951 . S
H1315 C1341 0.950 . S
H1316 C1342 0.950 . S
H1317 C1344 0.950 . S
H1318 C1347 0.950 . S
H1319 C1348 0.950 . S
H1320 C1350 0.950 . S
H1321 C1351 0.950 . S
C1322 H1304 0.951 . S
C1322 C1323 1.366 . S
C1322 C1324 1.388 . S
C1323 C1322 1.366 . S
C1323 C1327 1.385 . S
C1324 H1305 0.951 . S
C1324 C1322 1.388 . S
C1324 C1325 1.366 . S
C1325 C1324 1.366 . S
C1325 C1326 1.414 . S
C1325 C1328 1.499 . S
C1326 H1306 0.950 . S
C1326 C1325 1.414 . S
C1326 C1327 1.374 . S
C1327 H1307 0.950 . S
C1327 C1323 1.385 . S
C1327 C1326 1.374 . S
C1328 C1325 1.499 . S
C1328 C1329 1.373 . S
C1328 C1330 1.389 . S
C1329 H1308 0.950 . S
C1329 C1328 1.373 . S
C1329 C1345 1.377 . S
C1330 C1328 1.389 . S
C1330 C1331 1.524 . S
C1330 C1344 1.377 . S
C1331 C1330 1.524 . S
C1331 C1332 1.397 . S
C1331 C1336 1.363 . S
C1332 H1309 0.950 . S
C1332 C1331 1.397 . S
C1332 C1333 1.334 . S
C1333 H1310 0.950 . S
C1333 C1332 1.334 . S
C1333 C1334 1.287 . S
C1334 C1333 1.287 . S
C1334 C1335 1.524 . S
C1334 H1353 0.913 . S
C1335 H1311 0.950 . S
C1335 C1334 1.524 . S
C1335 C1336 1.415 . S
C1336 H1312 0.950 . S
C1336 C1331 1.363 . S
C1336 C1335 1.415 . S
C1337 H1313 0.951 . S
C1337 C1338 1.366 . S
C1337 C1339 1.388 . S
C1338 C1337 1.366 . S
C1338 C1342 1.385 . S
C1339 H1314 0.951 . S
C1339 C1337 1.388 . S
C1339 C1340 1.366 . S
C1340 C1339 1.366 . S
C1340 C1341 1.414 . S
C1340 C1343 1.499 . S
C1341 H1315 0.950 . S
C1341 C1340 1.414 . S
C1341 C1342 1.374 . S
C1342 H1316 0.950 . S
C1342 C1338 1.385 . S
C1342 C1341 1.374 . S
C1343 C1340 1.499 . S
C1343 C1344 1.373 . S
C1343 C1345 1.389 . S
C1344 H1317 0.950 . S
C1344 C1330 1.377 . S
C1344 C1343 1.373 . S
C1345 C1329 1.377 . S
C1345 C1343 1.389 . S
C1345 C1346 1.524 . S
C1346 C1345 1.524 . S
C1346 C1347 1.397 . S
C1346 C1351 1.363 . S
C1347 H1318 0.950 . S
C1347 C1346 1.397 . S
C1347 C1348 1.334 . S
C1348 H1319 0.950 . S
C1348 C1347 1.334 . S
C1348 C1349 1.287 . S
C1349 C1348 1.287 . S
C1349 C1350 1.524 . S
C1349 H1352 0.999 . S
C1350 H1320 0.950 . S
C1350 C1349 1.524 . S
C1350 C1351 1.415 . S
C1351 H1321 0.950 . S
C1351 C1346 1.363 . S
C1351 C1350 1.415 . S
H1352 C1349 0.999 . S
H1353 C1334 0.913 . S
H1354 C1372 0.951 . S
H1355 C1374 0.951 . S
H1356 C1376 0.950 . S
H1357 C1377 0.950 . S
H1358 C1379 0.950 . S
H1359 C1382 0.950 . S
H1360 C1383 0.950 . S
H1361 C1385 0.950 . S
H1362 C1386 0.950 . S
H1363 C1387 0.951 . S
H1364 C1389 0.951 . S
H1365 C1391 0.950 . S
H1366 C1392 0.950 . S
H1367 C1394 0.950 . S
H1368 C1397 0.950 . S
H1369 C1398 0.950 . S
H1370 C1400 0.950 . S
H1371 C1401 0.950 . S
C1372 H1354 0.951 . S
C1372 C1373 1.366 . S
C1372 C1374 1.388 . S
C1373 C1372 1.366 . S
C1373 C1377 1.385 . S
C1374 H1355 0.951 . S
C1374 C1372 1.388 . S
C1374 C1375 1.366 . S
C1375 C1374 1.366 . S
C1375 C1376 1.414 . S
C1375 C1378 1.499 . S
C1376 H1356 0.950 . S
C1376 C1375 1.414 . S
C1376 C1377 1.374 . S
C1377 H1357 0.950 . S
C1377 C1373 1.385 . S
C1377 C1376 1.374 . S
C1378 C1375 1.499 . S
C1378 C1379 1.373 . S
C1378 C1380 1.389 . S
C1379 H1358 0.950 . S
C1379 C1378 1.373 . S
C1379 C1395 1.377 . S
C1380 C1378 1.389 . S
C1380 C1381 1.524 . S
C1380 C1394 1.377 . S
C1381 C1380 1.524 . S
C1381 C1382 1.397 . S
C1381 C1386 1.363 . S
C1382 H1359 0.950 . S
C1382 C1381 1.397 . S
C1382 C1383 1.334 . S
C1383 H1360 0.950 . S
C1383 C1382 1.334 . S
C1383 C1384 1.287 . S
C1384 C1383 1.287 . S
C1384 C1385 1.524 . S
C1384 H1403 0.913 . S
C1385 H1361 0.950 . S
C1385 C1384 1.524 . S
C1385 C1386 1.415 . S
C1386 H1362 0.950 . S
C1386 C1381 1.363 . S
C1386 C1385 1.415 . S
C1387 H1363 0.951 . S
C1387 C1388 1.366 . S
C1387 C1389 1.388 . S
C1388 C1387 1.366 . S
C1388 C1392 1.385 . S
C1389 H1364 0.951 . S
C1389 C1387 1.388 . S
C1389 C1390 1.366 . S
C1390 C1389 1.366 . S
C1390 C1391 1.414 . S
C1390 C1393 1.499 . S
C1391 H1365 0.950 . S
C1391 C1390 1.414 . S
C1391 C1392 1.374 . S
C1392 H1366 0.950 . S
C1392 C1388 1.385 . S
C1392 C1391 1.374 . S
C1393 C1390 1.499 . S
C1393 C1394 1.373 . S
C1393 C1395 1.389 . S
C1394 H1367 0.950 . S
C1394 C1380 1.377 . S
C1394 C1393 1.373 . S
C1395 C1379 1.377 . S
C1395 C1393 1.389 . S
C1395 C1396 1.524 . S
C1396 C1395 1.524 . S
C1396 C1397 1.397 . S
C1396 C1401 1.363 . S
C1397 H1368 0.950 . S
C1397 C1396 1.397 . S
C1397 C1398 1.334 . S
C1398 H1369 0.950 . S
C1398 C1397 1.334 . S
C1398 C1399 1.287 . S
C1399 C1398 1.287 . S
C1399 C1400 1.524 . S
C1399 H1402 0.999 . S
C1400 H1370 0.950 . S
C1400 C1399 1.524 . S
C1400 C1401 1.415 . S
C1401 H1371 0.950 . S
C1401 C1396 1.363 . S
C1401 C1400 1.415 . S
H1402 C1399 0.999 . S
H1403 C1384 0.913 . S
H1404 C1422 0.951 . S
H1405 C1424 0.951 . S
H1406 C1426 0.950 . S
H1407 C1427 0.950 . S
H1408 C1429 0.950 . S
H1409 C1432 0.950 . S
H1410 C1433 0.950 . S
H1411 C1435 0.950 . S
H1412 C1436 0.950 . S
H1413 C1437 0.951 . S
H1414 C1439 0.951 . S
H1415 C1441 0.950 . S
H1416 C1442 0.950 . S
H1417 C1444 0.950 . S
H1418 C1447 0.950 . S
H1419 C1448 0.950 . S
H1420 C1450 0.950 . S
H1421 C1451 0.950 . S
C1422 H1404 0.951 . S
C1422 C1423 1.366 . S
C1422 C1424 1.388 . S
C1423 C1422 1.366 . S
C1423 C1427 1.385 . S
C1424 H1405 0.951 . S
C1424 C1422 1.388 . S
C1424 C1425 1.366 . S
C1425 C1424 1.366 . S
C1425 C1426 1.414 . S
C1425 C1428 1.499 . S
C1426 H1406 0.950 . S
C1426 C1425 1.414 . S
C1426 C1427 1.374 . S
C1427 H1407 0.950 . S
C1427 C1423 1.385 . S
C1427 C1426 1.374 . S
C1428 C1425 1.499 . S
C1428 C1429 1.373 . S
C1428 C1430 1.389 1_554 S
C1429 H1408 0.950 . S
C1429 C1428 1.373 . S
C1429 C1445 1.377 1_455 S
C1430 C1428 1.389 1_556 S
C1430 C1431 1.524 . S
C1430 C1444 1.377 1_455 S
C1431 C1430 1.524 . S
C1431 C1432 1.397 . S
C1431 C1436 1.363 . S
C1432 H1409 0.950 . S
C1432 C1431 1.397 . S
C1432 C1433 1.334 . S
C1433 H1410 0.950 . S
C1433 C1432 1.334 . S
C1433 C1434 1.287 . S
C1434 C1433 1.287 . S
C1434 C1435 1.524 . S
C1434 H1453 0.913 . S
C1435 H1411 0.950 . S
C1435 C1434 1.524 . S
C1435 C1436 1.415 . S
C1436 H1412 0.950 . S
C1436 C1431 1.363 . S
C1436 C1435 1.415 . S
C1437 H1413 0.951 . S
C1437 C1438 1.366 . S
C1437 C1439 1.388 . S
C1438 C1437 1.366 . S
C1438 C1442 1.385 . S
C1439 H1414 0.951 . S
C1439 C1437 1.388 . S
C1439 C1440 1.366 . S
C1440 C1439 1.366 . S
C1440 C1441 1.414 . S
C1440 C1443 1.499 . S
C1441 H1415 0.950 . S
C1441 C1440 1.414 . S
C1441 C1442 1.374 . S
C1442 H1416 0.950 . S
C1442 C1438 1.385 . S
C1442 C1441 1.374 . S
C1443 C1440 1.499 . S
C1443 C1444 1.373 . S
C1443 C1445 1.389 1_556 S
C1444 H1417 0.950 . S
C1444 C1430 1.377 1_655 S
C1444 C1443 1.373 . S
C1445 C1429 1.377 1_655 S
C1445 C1443 1.389 1_554 S
C1445 C1446 1.524 . S
C1446 C1445 1.524 . S
C1446 C1447 1.397 . S
C1446 C1451 1.363 . S
C1447 H1418 0.950 . S
C1447 C1446 1.397 . S
C1447 C1448 1.334 . S
C1448 H1419 0.950 . S
C1448 C1447 1.334 . S
C1448 C1449 1.287 . S
C1449 C1448 1.287 . S
C1449 C1450 1.524 . S
C1449 H1452 0.999 . S
C1450 H1420 0.950 . S
C1450 C1449 1.524 . S
C1450 C1451 1.415 . S
C1451 H1421 0.950 . S
C1451 C1446 1.363 . S
C1451 C1450 1.415 . S
H1452 C1449 0.999 . S
H1453 C1434 0.913 . S
H1454 C1472 0.951 . S
H1455 C1474 0.951 . S
H1456 C1476 0.950 . S
H1457 C1477 0.950 . S
H1458 C1479 0.950 . S
H1459 C1482 0.950 . S
H1460 C1483 0.950 . S
H1461 C1485 0.950 . S
H1462 C1486 0.950 . S
H1463 C1487 0.951 . S
H1464 C1489 0.951 . S
H1465 C1491 0.950 . S
H1466 C1492 0.950 . S
H1467 C1494 0.950 . S
H1468 C1497 0.950 . S
H1469 C1498 0.950 . S
H1470 C1500 0.950 . S
H1471 C1501 0.950 . S
C1472 H1454 0.951 . S
C1472 C1473 1.366 . S
C1472 C1474 1.388 . S
C1473 C1472 1.366 . S
C1473 C1477 1.385 . S
C1474 H1455 0.951 . S
C1474 C1472 1.388 . S
C1474 C1475 1.366 . S
C1475 C1474 1.366 . S
C1475 C1476 1.414 . S
C1475 C1478 1.499 . S
C1476 H1456 0.950 . S
C1476 C1475 1.414 . S
C1476 C1477 1.374 . S
C1477 H1457 0.950 . S
C1477 C1473 1.385 . S
C1477 C1476 1.374 . S
C1478 C1475 1.499 . S
C1478 C1479 1.373 1_556 S
C1478 C1480 1.389 . S
C1479 H1458 0.950 . S
C1479 C1478 1.373 1_554 S
C1479 C1495 1.377 . S
C1480 C1478 1.389 . S
C1480 C1481 1.524 . S
C1480 C1494 1.377 . S
C1481 C1480 1.524 . S
C1481 C1482 1.397 . S
C1481 C1486 1.363 . S
C1482 H1459 0.950 . S
C1482 C1481 1.397 . S
C1482 C1483 1.334 . S
C1483 H1460 0.950 . S
C1483 C1482 1.334 . S
C1483 C1484 1.287 . S
C1484 C1483 1.287 . S
C1484 C1485 1.524 . S
C1484 H1503 0.913 . S
C1485 H1461 0.950 . S
C1485 C1484 1.524 . S
C1485 C1486 1.415 . S
C1486 H1462 0.950 . S
C1486 C1481 1.363 . S
C1486 C1485 1.415 . S
C1487 H1463 0.951 . S
C1487 C1488 1.366 . S
C1487 C1489 1.388 . S
C1488 C1487 1.366 . S
C1488 C1492 1.385 . S
C1489 H1464 0.951 . S
C1489 C1487 1.388 . S
C1489 C1490 1.366 . S
C1490 C1489 1.366 . S
C1490 C1491 1.414 . S
C1490 C1493 1.499 . S
C1491 H1465 0.950 . S
C1491 C1490 1.414 . S
C1491 C1492 1.374 . S
C1492 H1466 0.950 . S
C1492 C1488 1.385 . S
C1492 C1491 1.374 . S
C1493 C1490 1.499 . S
C1493 C1494 1.373 1_554 S
C1493 C1495 1.389 . S
C1494 H1467 0.950 . S
C1494 C1480 1.377 . S
C1494 C1493 1.373 1_556 S
C1495 C1479 1.377 . S
C1495 C1493 1.389 . S
C1495 C1496 1.524 . S
C1496 C1495 1.524 . S
C1496 C1497 1.397 . S
C1496 C1501 1.363 . S
C1497 H1468 0.950 . S
C1497 C1496 1.397 . S
C1497 C1498 1.334 . S
C1498 H1469 0.950 . S
C1498 C1497 1.334 . S
C1498 C1499 1.287 . S
C1499 C1498 1.287 . S
C1499 C1500 1.524 . S
C1499 H1502 0.999 . S
C1500 H1470 0.950 . S
C1500 C1499 1.524 . S
C1500 C1501 1.415 . S
C1501 H1471 0.950 . S
C1501 C1496 1.363 . S
C1501 C1500 1.415 . S
H1502 C1499 0.999 . S
H1503 C1484 0.913 . S
H1504 C1522 0.951 . S
H1505 C1524 0.951 . S
H1506 C1526 0.950 . S
H1507 C1527 0.950 . S
H1508 C1529 0.950 . S
H1509 C1532 0.950 . S
H1510 C1533 0.950 . S
H1511 C1535 0.950 1_545 S
H1512 C1536 0.951 1_545 S
H1513 C1537 0.951 . S
H1514 C1539 0.951 . S
H1515 C1541 0.950 . S
H1516 C1542 0.950 . S
H1517 C1544 0.950 . S
H1518 C1547 0.950 . S
H1519 C1548 0.950 . S
H1520 C1550 0.950 1_565 S
H1521 C1551 0.951 1_565 S
C1522 H1504 0.951 . S
C1522 C1523 1.366 . S
C1522 C1524 1.388 . S
C1523 C1522 1.366 . S
C1523 C1527 1.385 . S
C1524 H1505 0.951 . S
C1524 C1522 1.388 . S
C1524 C1525 1.366 . S
C1525 C1524 1.366 . S
C1525 C1526 1.414 . S
C1525 C1528 1.499 . S
C1526 H1506 0.950 . S
C1526 C1525 1.414 . S
C1526 C1527 1.374 . S
C1527 H1507 0.950 . S
C1527 C1523 1.385 . S
C1527 C1526 1.374 . S
C1528 C1525 1.499 . S
C1528 C1529 1.373 1_554 S
C1528 C1530 1.389 . S
C1529 H1508 0.950 . S
C1529 C1528 1.373 1_556 S
C1529 C1545 1.377 1_565 S
C1530 C1528 1.389 . S
C1530 C1531 1.524 . S
C1530 C1544 1.377 1_565 S
C1531 C1530 1.524 . S
C1531 C1532 1.397 . S
C1531 C1536 1.364 . S
C1532 H1509 0.950 . S
C1532 C1531 1.397 . S
C1532 C1533 1.334 . S
C1533 H1510 0.950 . S
C1533 C1532 1.334 . S
C1533 C1534 1.287 . S
C1534 C1533 1.287 . S
C1534 C1535 1.524 . S
C1534 H1553 0.913 . S
C1535 H1511 0.950 1_565 S
C1535 C1534 1.524 . S
C1535 C1536 1.412 . S
C1536 H1512 0.951 1_565 S
C1536 C1531 1.364 . S
C1536 C1535 1.412 . S
C1537 H1513 0.951 . S
C1537 C1538 1.366 . S
C1537 C1539 1.388 . S
C1538 C1537 1.366 . S
C1538 C1542 1.385 . S
C1539 H1514 0.951 . S
C1539 C1537 1.388 . S
C1539 C1540 1.366 . S
C1540 C1539 1.366 . S
C1540 C1541 1.414 . S
C1540 C1543 1.499 . S
C1541 H1515 0.950 . S
C1541 C1540 1.414 . S
C1541 C1542 1.374 . S
C1542 H1516 0.950 . S
C1542 C1538 1.385 . S
C1542 C1541 1.374 . S
C1543 C1540 1.499 . S
C1543 C1544 1.373 1_556 S
C1543 C1545 1.389 . S
C1544 H1517 0.950 . S
C1544 C1530 1.377 1_545 S
C1544 C1543 1.373 1_554 S
C1545 C1529 1.377 1_545 S
C1545 C1543 1.389 . S
C1545 C1546 1.524 . S
C1546 C1545 1.524 . S
C1546 C1547 1.397 . S
C1546 C1551 1.364 . S
C1547 H1518 0.950 . S
C1547 C1546 1.397 . S
C1547 C1548 1.334 . S
C1548 H1519 0.950 . S
C1548 C1547 1.334 . S
C1548 C1549 1.287 . S
C1549 C1548 1.287 . S
C1549 C1550 1.524 . S
C1549 H1552 0.999 . S
C1550 H1520 0.950 1_545 S
C1550 C1549 1.524 . S
C1550 C1551 1.412 . S
C1551 H1521 0.951 1_545 S
C1551 C1546 1.364 . S
C1551 C1550 1.412 . S
H1552 C1549 0.999 . S
H1553 C1534 0.913 . S
H1554 C1572 0.951 . S
H1555 C1574 0.951 . S
H1556 C1576 0.950 . S
H1557 C1577 0.950 . S
H1558 C1579 0.950 . S
H1559 C1582 0.950 . S
H1560 C1583 0.950 . S
H1561 C1585 0.950 . S
H1562 C1586 0.950 . S
H1563 C1587 0.951 . S
H1564 C1589 0.951 . S
H1565 C1591 0.950 . S
H1566 C1592 0.950 . S
H1567 C1594 0.950 . S
H1568 C1597 0.950 . S
H1569 C1598 0.950 . S
H1570 C1600 0.950 . S
H1571 C1601 0.950 . S
C1572 H1554 0.951 . S
C1572 C1573 1.366 . S
C1572 C1574 1.388 . S
C1573 C1572 1.366 . S
C1573 C1577 1.385 . S
C1574 H1555 0.951 . S
C1574 C1572 1.388 . S
C1574 C1575 1.366 . S
C1575 C1574 1.366 . S
C1575 C1576 1.414 . S
C1575 C1578 1.499 . S
C1576 H1556 0.950 . S
C1576 C1575 1.414 . S
C1576 C1577 1.374 . S
C1577 H1557 0.950 . S
C1577 C1573 1.385 . S
C1577 C1576 1.374 . S
C1578 C1575 1.499 . S
C1578 C1579 1.373 . S
C1578 C1580 1.389 1_556 S
C1579 H1558 0.950 . S
C1579 C1578 1.373 . S
C1579 C1595 1.377 1_655 S
C1580 C1578 1.389 1_554 S
C1580 C1581 1.524 . S
C1580 C1594 1.377 1_655 S
C1581 C1580 1.524 . S
C1581 C1582 1.397 . S
C1581 C1586 1.363 . S
C1582 H1559 0.950 . S
C1582 C1581 1.397 . S
C1582 C1583 1.334 . S
C1583 H1560 0.950 . S
C1583 C1582 1.334 . S
C1583 C1584 1.287 . S
C1584 C1583 1.287 . S
C1584 C1585 1.524 . S
C1584 H1603 0.913 . S
C1585 H1561 0.950 . S
C1585 C1584 1.524 . S
C1585 C1586 1.415 . S
C1586 H1562 0.950 . S
C1586 C1581 1.363 . S
C1586 C1585 1.415 . S
C1587 H1563 0.951 . S
C1587 C1588 1.366 . S
C1587 C1589 1.388 . S
C1588 C1587 1.366 . S
C1588 C1592 1.385 . S
C1589 H1564 0.951 . S
C1589 C1587 1.388 . S
C1589 C1590 1.366 . S
C1590 C1589 1.366 . S
C1590 C1591 1.414 . S
C1590 C1593 1.499 . S
C1591 H1565 0.950 . S
C1591 C1590 1.414 . S
C1591 C1592 1.374 . S
C1592 H1566 0.950 . S
C1592 C1588 1.385 . S
C1592 C1591 1.374 . S
C1593 C1590 1.499 . S
C1593 C1594 1.373 . S
C1593 C1595 1.389 1_554 S
C1594 H1567 0.950 . S
C1594 C1580 1.377 1_455 S
C1594 C1593 1.373 . S
C1595 C1579 1.377 1_455 S
C1595 C1593 1.389 1_556 S
C1595 C1596 1.524 . S
C1596 C1595 1.524 . S
C1596 C1597 1.397 . S
C1596 C1601 1.363 . S
C1597 H1568 0.950 . S
C1597 C1596 1.397 . S
C1597 C1598 1.334 . S
C1598 H1569 0.950 . S
C1598 C1597 1.334 . S
C1598 C1599 1.287 . S
C1599 C1598 1.287 . S
C1599 C1600 1.524 . S
C1599 H1602 0.999 . S
C1600 H1570 0.950 . S
C1600 C1599 1.524 . S
C1600 C1601 1.415 . S
C1601 H1571 0.950 . S
C1601 C1596 1.363 . S
C1601 C1600 1.415 . S
H1602 C1599 0.999 . S
H1603 C1584 0.913 . S
H1604 C1622 0.951 . S
H1605 C1624 0.951 . S
H1606 C1626 0.950 . S
H1607 C1627 0.950 . S
H1608 C1629 0.950 . S
H1609 C1632 0.950 . S
H1610 C1633 0.950 . S
H1611 C1635 0.950 . S
H1612 C1636 0.950 . S
H1613 C1637 0.951 . S
H1614 C1639 0.951 . S
H1615 C1641 0.950 . S
H1616 C1642 0.950 . S
H1617 C1644 0.950 . S
H1618 C1647 0.950 . S
H1619 C1648 0.950 . S
H1620 C1650 0.950 . S
H1621 C1651 0.950 . S
C1622 H1604 0.951 . S
C1622 C1623 1.366 . S
C1622 C1624 1.388 . S
C1623 C1622 1.366 . S
C1623 C1627 1.385 . S
C1624 H1605 0.951 . S
C1624 C1622 1.388 . S
C1624 C1625 1.366 . S
C1625 C1624 1.366 . S
C1625 C1626 1.414 . S
C1625 C1628 1.499 . S
C1626 H1606 0.950 . S
C1626 C1625 1.414 . S
C1626 C1627 1.374 . S
C1627 H1607 0.950 . S
C1627 C1623 1.385 . S
C1627 C1626 1.374 . S
C1628 C1625 1.499 . S
C1628 C1629 1.373 1_556 S
C1628 C1630 1.389 . S
C1629 H1608 0.950 . S
C1629 C1628 1.373 1_554 S
C1629 C1645 1.377 . S
C1630 C1628 1.389 . S
C1630 C1631 1.524 . S
C1630 C1644 1.377 . S
C1631 C1630 1.524 . S
C1631 C1632 1.397 . S
C1631 C1636 1.363 . S
C1632 H1609 0.950 . S
C1632 C1631 1.397 . S
C1632 C1633 1.334 . S
C1633 H1610 0.950 . S
C1633 C1632 1.334 . S
C1633 C1634 1.287 . S
C1634 C1633 1.287 . S
C1634 C1635 1.524 . S
C1634 H1653 0.913 . S
C1635 H1611 0.950 . S
C1635 C1634 1.524 . S
C1635 C1636 1.415 . S
C1636 H1612 0.950 . S
C1636 C1631 1.363 . S
C1636 C1635 1.415 . S
C1637 H1613 0.951 . S
C1637 C1638 1.366 . S
C1637 C1639 1.388 . S
C1638 C1637 1.366 . S
C1638 C1642 1.385 . S
C1639 H1614 0.951 . S
C1639 C1637 1.388 . S
C1639 C1640 1.366 . S
C1640 C1639 1.366 . S
C1640 C1641 1.414 . S
C1640 C1643 1.499 . S
C1641 H1615 0.950 . S
C1641 C1640 1.414 . S
C1641 C1642 1.374 . S
C1642 H1616 0.950 . S
C1642 C1638 1.385 . S
C1642 C1641 1.374 . S
C1643 C1640 1.499 . S
C1643 C1644 1.373 1_554 S
C1643 C1645 1.389 . S
C1644 H1617 0.950 . S
C1644 C1630 1.377 . S
C1644 C1643 1.373 1_556 S
C1645 C1629 1.377 . S
C1645 C1643 1.389 . S
C1645 C1646 1.524 . S
C1646 C1645 1.524 . S
C1646 C1647 1.397 . S
C1646 C1651 1.363 . S
C1647 H1618 0.950 . S
C1647 C1646 1.397 . S
C1647 C1648 1.334 . S
C1648 H1619 0.950 . S
C1648 C1647 1.334 . S
C1648 C1649 1.287 . S
C1649 C1648 1.287 . S
C1649 C1650 1.524 . S
C1649 H1652 0.999 . S
C1650 H1620 0.950 . S
C1650 C1649 1.524 . S
C1650 C1651 1.415 . S
C1651 H1621 0.950 . S
C1651 C1646 1.363 . S
C1651 C1650 1.415 . S
H1652 C1649 0.999 . S
H1653 C1634 0.913 . S
H1654 C1672 0.951 . S
H1655 C1674 0.951 . S
H1656 C1676 0.950 1_554 S
H1657 C1677 0.956 . S
H1658 C1679 0.950 . S
H1659 C1682 0.950 1_554 S
H1660 C1683 0.944 1_554 S
H1661 C1685 0.950 . S
H1662 C1686 0.950 1_565 S
H1663 C1687 0.951 . S
H1664 C1689 0.951 . S
H1665 C1691 0.950 1_556 S
H1666 C1692 0.957 . S
H1667 C1694 0.950 . S
H1668 C1697 0.950 1_556 S
H1669 C1698 0.945 1_556 S
H1670 C1700 0.950 . S
H1671 C1701 0.950 1_545 S
C1672 H1654 0.951 . S
C1672 C1673 1.366 . S
C1672 C1674 1.388 . S
C1673 C1672 1.366 . S
C1673 C1677 1.385 . S
C1674 H1655 0.951 . S
C1674 C1672 1.388 . S
C1674 C1675 1.366 . S
C1675 C1674 1.366 . S
C1675 C1676 1.414 . S
C1675 C1678 1.499 . S
C1676 H1656 0.950 1_556 S
C1676 C1675 1.414 . S
C1676 C1677 1.374 . S
C1677 H1657 0.956 . S
C1677 C1673 1.385 . S
C1677 C1676 1.374 . S
C1678 C1675 1.499 . S
C1678 C1679 1.373 1_556 S
C1678 C1680 1.389 . S
C1679 H1658 0.950 . S
C1679 C1678 1.373 1_554 S
C1679 C1695 1.377 1_545 S
C1680 C1678 1.389 . S
C1680 C1681 1.524 . S
C1680 C1694 1.377 1_545 S
C1681 C1680 1.524 . S
C1681 C1682 1.397 . S
C1681 C1686 1.363 . S
C1682 H1659 0.950 1_556 S
C1682 C1681 1.397 . S
C1682 C1683 1.334 . S
C1683 H1660 0.944 1_556 S
C1683 C1682 1.334 . S
C1683 C1684 1.287 . S
C1684 C1683 1.287 . S
C1684 C1685 1.524 . S
C1684 H1703 0.913 . S
C1685 H1661 0.950 . S
C1685 C1684 1.524 . S
C1685 C1686 1.415 . S
C1686 H1662 0.950 1_545 S
C1686 C1681 1.363 . S
C1686 C1685 1.415 . S
C1687 H1663 0.951 . S
C1687 C1688 1.366 . S
C1687 C1689 1.388 . S
C1688 C1687 1.366 . S
C1688 C1692 1.385 . S
C1689 H1664 0.951 . S
C1689 C1687 1.388 . S
C1689 C1690 1.366 . S
C1690 C1689 1.366 . S
C1690 C1691 1.414 . S
C1690 C1693 1.499 . S
C1691 H1665 0.950 1_554 S
C1691 C1690 1.414 . S
C1691 C1692 1.374 . S
C1692 H1666 0.957 . S
C1692 C1688 1.385 . S
C1692 C1691 1.374 . S
C1693 C1690 1.499 . S
C1693 C1694 1.373 1_554 S
C1693 C1695 1.389 . S
C1694 H1667 0.950 . S
C1694 C1680 1.377 1_565 S
C1694 C1693 1.373 1_556 S
C1695 C1679 1.377 1_565 S
C1695 C1693 1.389 . S
C1695 C1696 1.524 . S
C1696 C1695 1.524 . S
C1696 C1697 1.397 . S
C1696 C1701 1.363 . S
C1697 H1668 0.950 1_554 S
C1697 C1696 1.397 . S
C1697 C1698 1.334 . S
C1698 H1669 0.945 1_554 S
C1698 C1697 1.334 . S
C1698 C1699 1.287 . S
C1699 C1698 1.287 . S
C1699 C1700 1.524 . S
C1699 H1702 0.999 . S
C1700 H1670 0.950 . S
C1700 C1699 1.524 . S
C1700 C1701 1.415 . S
C1701 H1671 0.950 1_565 S
C1701 C1696 1.363 . S
C1701 C1700 1.415 . S
H1702 C1699 0.999 . S
H1703 C1684 0.913 . S
H1704 C1722 0.951 . S
H1705 C1724 0.951 . S
H1706 C1726 0.950 . S
H1707 C1727 0.950 . S
H1708 C1729 0.950 . S
H1709 C1732 0.950 . S
H1710 C1733 0.950 . S
H1711 C1735 0.950 . S
H1712 C1736 0.950 . S
H1713 C1737 0.951 . S
H1714 C1739 0.951 . S
H1715 C1741 0.950 . S
H1716 C1742 0.950 . S
H1717 C1744 0.950 . S
H1718 C1747 0.950 . S
H1719 C1748 0.950 . S
H1720 C1750 0.950 . S
H1721 C1751 0.950 . S
C1722 H1704 0.951 . S
C1722 C1723 1.366 . S
C1722 C1724 1.388 . S
C1723 C1722 1.366 . S
C1723 C1727 1.385 . S
C1724 H1705 0.951 . S
C1724 C1722 1.388 . S
C1724 C1725 1.366 . S
C1725 C1724 1.366 . S
C1725 C1726 1.414 . S
C1725 C1728 1.499 . S
C1726 H1706 0.950 . S
C1726 C1725 1.414 . S
C1726 C1727 1.374 . S
C1727 H1707 0.950 . S
C1727 C1723 1.385 . S
C1727 C1726 1.374 . S
C1728 C1725 1.499 . S
C1728 C1729 1.373 . S
C1728 C1730 1.389 . S
C1729 H1708 0.950 . S
C1729 C1728 1.373 . S
C1729 C1745 1.377 . S
C1730 C1728 1.389 . S
C1730 C1731 1.524 . S
C1730 C1744 1.377 . S
C1731 C1730 1.524 . S
C1731 C1732 1.397 . S
C1731 C1736 1.363 . S
C1732 H1709 0.950 . S
C1732 C1731 1.397 . S
C1732 C1733 1.334 . S
C1733 H1710 0.950 . S
C1733 C1732 1.334 . S
C1733 C1734 1.287 . S
C1734 C1733 1.287 . S
C1734 C1735 1.524 . S
C1734 H1753 0.913 . S
C1735 H1711 0.950 . S
C1735 C1734 1.524 . S
C1735 C1736 1.415 . S
C1736 H1712 0.950 . S
C1736 C1731 1.363 . S
C1736 C1735 1.415 . S
C1737 H1713 0.951 . S
C1737 C1738 1.366 . S
C1737 C1739 1.388 . S
C1738 C1737 1.366 . S
C1738 C1742 1.385 . S
C1739 H1714 0.951 . S
C1739 C1737 1.388 . S
C1739 C1740 1.366 . S
C1740 C1739 1.366 . S
C1740 C1741 1.414 . S
C1740 C1743 1.499 . S
C1741 H1715 0.950 . S
C1741 C1740 1.414 . S
C1741 C1742 1.374 . S
C1742 H1716 0.950 . S
C1742 C1738 1.385 . S
C1742 C1741 1.374 . S
C1743 C1740 1.499 . S
C1743 C1744 1.373 . S
C1743 C1745 1.389 . S
C1744 H1717 0.950 . S
C1744 C1730 1.377 . S
C1744 C1743 1.373 . S
C1745 C1729 1.377 . S
C1745 C1743 1.389 . S
C1745 C1746 1.524 . S
C1746 C1745 1.524 . S
C1746 C1747 1.397 . S
C1746 C1751 1.363 . S
C1747 H1718 0.950 . S
C1747 C1746 1.397 . S
C1747 C1748 1.334 . S
C1748 H1719 0.950 . S
C1748 C1747 1.334 . S
C1748 C1749 1.287 . S
C1749 C1748 1.287 . S
C1749 C1750 1.524 . S
C1749 H1752 0.999 . S
C1750 H1720 0.950 . S
C1750 C1749 1.524 . S
C1750 C1751 1.415 . S
C1751 H1721 0.950 . S
C1751 C1746 1.363 . S
C1751 C1750 1.415 . S
H1752 C1749 0.999 . S
H1753 C1734 0.913 . S
H1754 C1772 0.951 . S
H1755 C1774 0.951 . S
H1756 C1776 0.950 . S
H1757 C1777 0.950 . S
H1758 C1779 0.950 . S
H1759 C1782 0.950 . S
H1760 C1783 0.950 . S
H1761 C1785 0.950 . S
H1762 C1786 0.950 . S
H1763 C1787 0.951 . S
H1764 C1789 0.951 . S
H1765 C1791 0.950 . S
H1766 C1792 0.950 . S
H1767 C1794 0.950 . S
H1768 C1797 0.950 . S
H1769 C1798 0.950 . S
H1770 C1800 0.950 . S
H1771 C1801 0.950 . S
C1772 H1754 0.951 . S
C1772 C1773 1.366 . S
C1772 C1774 1.388 . S
C1773 C1772 1.366 . S
C1773 C1777 1.385 . S
C1774 H1755 0.951 . S
C1774 C1772 1.388 . S
C1774 C1775 1.366 . S
C1775 C1774 1.366 . S
C1775 C1776 1.414 . S
C1775 C1778 1.499 . S
C1776 H1756 0.950 . S
C1776 C1775 1.414 . S
C1776 C1777 1.374 . S
C1777 H1757 0.950 . S
C1777 C1773 1.385 . S
C1777 C1776 1.374 . S
C1778 C1775 1.499 . S
C1778 C1779 1.373 . S
C1778 C1780 1.389 . S
C1779 H1758 0.950 . S
C1779 C1778 1.373 . S
C1779 C1795 1.377 . S
C1780 C1778 1.389 . S
C1780 C1781 1.524 . S
C1780 C1794 1.377 . S
C1781 C1780 1.524 . S
C1781 C1782 1.397 . S
C1781 C1786 1.363 . S
C1782 H1759 0.950 . S
C1782 C1781 1.397 . S
C1782 C1783 1.334 . S
C1783 H1760 0.950 . S
C1783 C1782 1.334 . S
C1783 C1784 1.287 . S
C1784 C1783 1.287 . S
C1784 C1785 1.524 . S
C1784 H1803 0.913 . S
C1785 H1761 0.950 . S
C1785 C1784 1.524 . S
C1785 C1786 1.415 . S
C1786 H1762 0.950 . S
C1786 C1781 1.363 . S
C1786 C1785 1.415 . S
C1787 H1763 0.951 . S
C1787 C1788 1.366 . S
C1787 C1789 1.388 . S
C1788 C1787 1.366 . S
C1788 C1792 1.385 . S
C1789 H1764 0.951 . S
C1789 C1787 1.388 . S
C1789 C1790 1.366 . S
C1790 C1789 1.366 . S
C1790 C1791 1.414 . S
C1790 C1793 1.499 . S
C1791 H1765 0.950 . S
C1791 C1790 1.414 . S
C1791 C1792 1.374 . S
C1792 H1766 0.950 . S
C1792 C1788 1.385 . S
C1792 C1791 1.374 . S
C1793 C1790 1.499 . S
C1793 C1794 1.373 . S
C1793 C1795 1.389 . S
C1794 H1767 0.950 . S
C1794 C1780 1.377 . S
C1794 C1793 1.373 . S
C1795 C1779 1.377 . S
C1795 C1793 1.389 . S
C1795 C1796 1.524 . S
C1796 C1795 1.524 . S
C1796 C1797 1.397 . S
C1796 C1801 1.363 . S
C1797 H1768 0.950 . S
C1797 C1796 1.397 . S
C1797 C1798 1.334 . S
C1798 H1769 0.950 . S
C1798 C1797 1.334 . S
C1798 C1799 1.287 . S
C1799 C1798 1.287 . S
C1799 C1800 1.524 . S
C1799 H1802 0.999 . S
C1800 H1770 0.950 . S
C1800 C1799 1.524 . S
C1800 C1801 1.415 . S
C1801 H1771 0.950 . S
C1801 C1796 1.363 . S
C1801 C1800 1.415 . S
H1802 C1799 0.999 . S
H1803 C1784 0.913 . S
H1804 C1822 0.951 . S
H1805 C1824 0.951 . S
H1806 C1826 0.950 . S
H1807 C1827 0.950 . S
H1808 C1829 0.950 . S
H1809 C1832 0.950 . S
H1810 C1833 0.950 . S
H1811 C1835 0.950 . S
H1812 C1836 0.950 . S
H1813 C1837 0.951 . S
H1814 C1839 0.951 . S
H1815 C1841 0.950 . S
H1816 C1842 0.950 . S
H1817 C1844 0.950 . S
H1818 C1847 0.950 . S
H1819 C1848 0.950 . S
H1820 C1850 0.950 . S
H1821 C1851 0.950 . S
C1822 H1804 0.951 . S
C1822 C1823 1.366 . S
C1822 C1824 1.388 . S
C1823 C1822 1.366 . S
C1823 C1827 1.385 . S
C1824 H1805 0.951 . S
C1824 C1822 1.388 . S
C1824 C1825 1.366 . S
C1825 C1824 1.366 . S
C1825 C1826 1.414 . S
C1825 C1828 1.499 . S
C1826 H1806 0.950 . S
C1826 C1825 1.414 . S
C1826 C1827 1.374 . S
C1827 H1807 0.950 . S
C1827 C1823 1.385 . S
C1827 C1826 1.374 . S
C1828 C1825 1.499 . S
C1828 C1829 1.373 . S
C1828 C1830 1.389 . S
C1829 H1808 0.950 . S
C1829 C1828 1.373 . S
C1829 C1845 1.377 . S
C1830 C1828 1.389 . S
C1830 C1831 1.524 . S
C1830 C1844 1.377 . S
C1831 C1830 1.524 . S
C1831 C1832 1.397 . S
C1831 C1836 1.363 . S
C1832 H1809 0.950 . S
C1832 C1831 1.397 . S
C1832 C1833 1.334 . S
C1833 H1810 0.950 . S
C1833 C1832 1.334 . S
C1833 C1834 1.287 . S
C1834 C1833 1.287 . S
C1834 C1835 1.524 . S
C1834 H1853 0.913 . S
C1835 H1811 0.950 . S
C1835 C1834 1.524 . S
C1835 C1836 1.415 . S
C1836 H1812 0.950 . S
C1836 C1831 1.363 . S
C1836 C1835 1.415 . S
C1837 H1813 0.951 . S
C1837 C1838 1.366 . S
C1837 C1839 1.388 . S
C1838 C1837 1.366 . S
C1838 C1842 1.385 . S
C1839 H1814 0.951 . S
C1839 C1837 1.388 . S
C1839 C1840 1.366 . S
C1840 C1839 1.366 . S
C1840 C1841 1.414 . S
C1840 C1843 1.499 . S
C1841 H1815 0.950 . S
C1841 C1840 1.414 . S
C1841 C1842 1.374 . S
C1842 H1816 0.950 . S
C1842 C1838 1.385 . S
C1842 C1841 1.374 . S
C1843 C1840 1.499 . S
C1843 C1844 1.373 . S
C1843 C1845 1.389 . S
C1844 H1817 0.950 . S
C1844 C1830 1.377 . S
C1844 C1843 1.373 . S
C1845 C1829 1.377 . S
C1845 C1843 1.389 . S
C1845 C1846 1.524 . S
C1846 C1845 1.524 . S
C1846 C1847 1.397 . S
C1846 C1851 1.363 . S
C1847 H1818 0.950 . S
C1847 C1846 1.397 . S
C1847 C1848 1.334 . S
C1848 H1819 0.950 . S
C1848 C1847 1.334 . S
C1848 C1849 1.287 . S
C1849 C1848 1.287 . S
C1849 C1850 1.524 . S
C1849 H1852 0.999 . S
C1850 H1820 0.950 . S
C1850 C1849 1.524 . S
C1850 C1851 1.415 . S
C1851 H1821 0.950 . S
C1851 C1846 1.363 . S
C1851 C1850 1.415 . S
H1852 C1849 0.999 . S
H1853 C1834 0.913 . S
H1854 C1872 0.951 . S
H1855 C1874 0.951 . S
H1856 C1876 0.950 . S
H1857 C1877 0.950 . S
H1858 C1879 0.950 . S
H1859 C1882 0.950 . S
H1860 C1883 0.950 . S
H1861 C1885 0.950 . S
H1862 C1886 0.950 . S
H1863 C1887 0.951 . S
H1864 C1889 0.951 . S
H1865 C1891 0.950 . S
H1866 C1892 0.950 . S
H1867 C1894 0.950 . S
H1868 C1897 0.950 . S
H1869 C1898 0.950 . S
H1870 C1900 0.950 . S
H1871 C1901 0.950 . S
C1872 H1854 0.951 . S
C1872 C1873 1.366 . S
C1872 C1874 1.388 . S
C1873 C1872 1.366 . S
C1873 C1877 1.385 . S
C1874 H1855 0.951 . S
C1874 C1872 1.388 . S
C1874 C1875 1.366 . S
C1875 C1874 1.366 . S
C1875 C1876 1.414 . S
C1875 C1878 1.499 . S
C1876 H1856 0.950 . S
C1876 C1875 1.414 . S
C1876 C1877 1.374 . S
C1877 H1857 0.950 . S
C1877 C1873 1.385 . S
C1877 C1876 1.374 . S
C1878 C1875 1.499 . S
C1878 C1879 1.373 . S
C1878 C1880 1.389 . S
C1879 H1858 0.950 . S
C1879 C1878 1.373 . S
C1879 C1895 1.377 . S
C1880 C1878 1.389 . S
C1880 C1881 1.524 . S
C1880 C1894 1.377 . S
C1881 C1880 1.524 . S
C1881 C1882 1.397 . S
C1881 C1886 1.363 . S
C1882 H1859 0.950 . S
C1882 C1881 1.397 . S
C1882 C1883 1.334 . S
C1883 H1860 0.950 . S
C1883 C1882 1.334 . S
C1883 C1884 1.287 . S
C1884 C1883 1.287 . S
C1884 C1885 1.524 . S
C1884 H1903 0.913 . S
C1885 H1861 0.950 . S
C1885 C1884 1.524 . S
C1885 C1886 1.415 . S
C1886 H1862 0.950 . S
C1886 C1881 1.363 . S
C1886 C1885 1.415 . S
C1887 H1863 0.951 . S
C1887 C1888 1.366 . S
C1887 C1889 1.388 . S
C1888 C1887 1.366 . S
C1888 C1892 1.385 . S
C1889 H1864 0.951 . S
C1889 C1887 1.388 . S
C1889 C1890 1.366 . S
C1890 C1889 1.366 . S
C1890 C1891 1.414 . S
C1890 C1893 1.499 . S
C1891 H1865 0.950 . S
C1891 C1890 1.414 . S
C1891 C1892 1.374 . S
C1892 H1866 0.950 . S
C1892 C1888 1.385 . S
C1892 C1891 1.374 . S
C1893 C1890 1.499 . S
C1893 C1894 1.373 . S
C1893 C1895 1.389 . S
C1894 H1867 0.950 . S
C1894 C1880 1.377 . S
C1894 C1893 1.373 . S
C1895 C1879 1.377 . S
C1895 C1893 1.389 . S
C1895 C1896 1.524 . S
C1896 C1895 1.524 . S
C1896 C1897 1.397 . S
C1896 C1901 1.363 . S
C1897 H1868 0.950 . S
C1897 C1896 1.397 . S
C1897 C1898 1.334 . S
C1898 H1869 0.950 . S
C1898 C1897 1.334 . S
C1898 C1899 1.287 . S
C1899 C1898 1.287 . S
C1899 C1900 1.524 . S
C1899 H1902 0.999 . S
C1900 H1870 0.950 . S
C1900 C1899 1.524 . S
C1900 C1901 1.415 . S
C1901 H1871 0.950 . S
C1901 C1896 1.363 . S
C1901 C1900 1.415 . S
H1902 C1899 0.999 . S
H1903 C1884 0.913 . S
H1904 C1922 0.951 . S
H1905 C1924 0.951 . S
H1906 C1926 0.950 . S
H1907 C1927 0.950 . S
H1908 C1929 0.950 . S
H1909 C1932 0.950 . S
H1910 C1933 0.950 . S
H1911 C1935 0.950 . S
H1912 C1936 0.950 . S
H1913 C1937 0.951 . S
H1914 C1939 0.951 . S
H1915 C1941 0.950 . S
H1916 C1942 0.950 . S
H1917 C1944 0.950 . S
H1918 C1947 0.950 . S
H1919 C1948 0.950 . S
H1920 C1950 0.950 . S
H1921 C1951 0.950 . S
C1922 H1904 0.951 . S
C1922 C1923 1.366 . S
C1922 C1924 1.388 . S
C1923 C1922 1.366 . S
C1923 C1927 1.385 . S
C1924 H1905 0.951 . S
C1924 C1922 1.388 . S
C1924 C1925 1.366 . S
C1925 C1924 1.366 . S
C1925 C1926 1.414 . S
C1925 C1928 1.499 . S
C1926 H1906 0.950 . S
C1926 C1925 1.414 . S
C1926 C1927 1.374 . S
C1927 H1907 0.950 . S
C1927 C1923 1.385 . S
C1927 C1926 1.374 . S
C1928 C1925 1.499 . S
C1928 C1929 1.373 . S
C1928 C1930 1.389 . S
C1929 H1908 0.950 . S
C1929 C1928 1.373 . S
C1929 C1945 1.377 . S
C1930 C1928 1.389 . S
C1930 C1931 1.524 . S
C1930 C1944 1.377 . S
C1931 C1930 1.524 . S
C1931 C1932 1.397 . S
C1931 C1936 1.363 . S
C1932 H1909 0.950 . S
C1932 C1931 1.397 . S
C1932 C1933 1.334 . S
C1933 H1910 0.950 . S
C1933 C1932 1.334 . S
C1933 C1934 1.287 . S
C1934 C1933 1.287 . S
C1934 C1935 1.524 . S
C1934 H1953 0.913 . S
C1935 H1911 0.950 . S
C1935 C1934 1.524 . S
C1935 C1936 1.415 . S
C1936 H1912 0.950 . S
C1936 C1931 1.363 . S
C1936 C1935 1.415 . S
C1937 H1913 0.951 . S
C1937 C1938 1.366 . S
C1937 C1939 1.388 . S
C1938 C1937 1.366 . S
C1938 C1942 1.385 . S
C1939 H1914 0.951 . S
C1939 C1937 1.388 . S
C1939 C1940 1.366 . S
C1940 C1939 1.366 . S
C1940 C1941 1.414 . S
C1940 C1943 1.499 . S
C1941 H1915 0.950 . S
C1941 C1940 1.414 . S
C1941 C1942 1.374 . S
C1942 H1916 0.950 . S
C1942 C1938 1.385 . S
C1942 C1941 1.374 . S
C1943 C1940 1.499 . S
C1943 C1944 1.373 . S
C1943 C1945 1.389 . S
C1944 H1917 0.950 . S
C1944 C1930 1.377 . S
C1944 C1943 1.373 . S
C1945 C1929 1.377 . S
C1945 C1943 1.389 . S
C1945 C1946 1.524 . S
C1946 C1945 1.524 . S
C1946 C1947 1.397 . S
C1946 C1951 1.363 . S
C1947 H1918 0.950 . S
C1947 C1946 1.397 . S
C1947 C1948 1.334 . S
C1948 H1919 0.950 . S
C1948 C1947 1.334 . S
C1948 C1949 1.287 . S
C1949 C1948 1.287 . S
C1949 C1950 1.524 . S
C1949 H1952 0.999 . S
C1950 H1920 0.950 . S
C1950 C1949 1.524 . S
C1950 C1951 1.415 . S
C1951 H1921 0.950 . S
C1951 C1946 1.363 . S
C1951 C1950 1.415 . S
H1952 C1949 0.999 . S
H1953 C1934 0.913 . S
H1954 C1972 0.951 . S
H1955 C1974 0.951 . S
H1956 C1976 0.950 . S
H1957 C1977 0.950 . S
H1958 C1979 0.950 . S
H1959 C1982 0.950 . S
H1960 C1983 0.950 . S
H1961 C1985 0.950 . S
H1962 C1986 0.950 . S
H1963 C1987 0.951 . S
H1964 C1989 0.951 . S
H1965 C1991 0.950 . S
H1966 C1992 0.950 . S
H1967 C1994 0.950 . S
H1968 C1997 0.950 . S
H1969 C1998 0.950 . S
H1970 C2000 0.950 . S
H1971 C2001 0.950 . S
C1972 H1954 0.951 . S
C1972 C1973 1.366 . S
C1972 C1974 1.388 . S
C1973 C1972 1.366 . S
C1973 C1977 1.385 . S
C1974 H1955 0.951 . S
C1974 C1972 1.388 . S
C1974 C1975 1.366 . S
C1975 C1974 1.366 . S
C1975 C1976 1.414 . S
C1975 C1978 1.499 . S
C1976 H1956 0.950 . S
C1976 C1975 1.414 . S
C1976 C1977 1.374 . S
C1977 H1957 0.950 . S
C1977 C1973 1.385 . S
C1977 C1976 1.374 . S
C1978 C1975 1.499 . S
C1978 C1979 1.373 . S
C1978 C1980 1.389 . S
C1979 H1958 0.950 . S
C1979 C1978 1.373 . S
C1979 C1995 1.377 . S
C1980 C1978 1.389 . S
C1980 C1981 1.524 . S
C1980 C1994 1.377 . S
C1981 C1980 1.524 . S
C1981 C1982 1.397 . S
C1981 C1986 1.363 . S
C1982 H1959 0.950 . S
C1982 C1981 1.397 . S
C1982 C1983 1.334 . S
C1983 H1960 0.950 . S
C1983 C1982 1.334 . S
C1983 C1984 1.287 . S
C1984 C1983 1.287 . S
C1984 C1985 1.524 . S
C1984 H2003 0.913 . S
C1985 H1961 0.950 . S
C1985 C1984 1.524 . S
C1985 C1986 1.415 . S
C1986 H1962 0.950 . S
C1986 C1981 1.363 . S
C1986 C1985 1.415 . S
C1987 H1963 0.951 . S
C1987 C1988 1.366 . S
C1987 C1989 1.388 . S
C1988 C1987 1.366 . S
C1988 C1992 1.385 . S
C1989 H1964 0.951 . S
C1989 C1987 1.388 . S
C1989 C1990 1.366 . S
C1990 C1989 1.366 . S
C1990 C1991 1.414 . S
C1990 C1993 1.499 . S
C1991 H1965 0.950 . S
C1991 C1990 1.414 . S
C1991 C1992 1.374 . S
C1992 H1966 0.950 . S
C1992 C1988 1.385 . S
C1992 C1991 1.374 . S
C1993 C1990 1.499 . S
C1993 C1994 1.373 . S
C1993 C1995 1.389 . S
C1994 H1967 0.950 . S
C1994 C1980 1.377 . S
C1994 C1993 1.373 . S
C1995 C1979 1.377 . S
C1995 C1993 1.389 . S
C1995 C1996 1.524 . S
C1996 C1995 1.524 . S
C1996 C1997 1.397 . S
C1996 C2001 1.363 . S
C1997 H1968 0.950 . S
C1997 C1996 1.397 . S
C1997 C1998 1.334 . S
C1998 H1969 0.950 . S
C1998 C1997 1.334 . S
C1998 C1999 1.287 . S
C1999 C1998 1.287 . S
C1999 C2000 1.524 . S
C1999 H2002 0.999 . S
C2000 H1970 0.950 . S
C2000 C1999 1.524 . S
C2000 C2001 1.415 . S
C2001 H1971 0.950 . S
C2001 C1996 1.363 . S
C2001 C2000 1.415 . S
H2002 C1999 0.999 . S
H2003 C1984 0.913 . S
H2004 C2022 0.951 . S
H2005 C2024 0.951 . S
H2006 C2026 0.950 . S
H2007 C2027 0.950 . S
H2008 C2029 0.950 . S
H2009 C2032 0.950 . S
H2010 C2033 0.950 . S
H2011 C2035 0.950 . S
H2012 C2036 0.950 . S
H2013 C2037 0.951 . S
H2014 C2039 0.951 . S
H2015 C2041 0.950 . S
H2016 C2042 0.950 . S
H2017 C2044 0.950 . S
H2018 C2047 0.950 . S
H2019 C2048 0.950 . S
H2020 C2050 0.950 . S
H2021 C2051 0.950 . S
C2022 H2004 0.951 . S
C2022 C2023 1.366 . S
C2022 C2024 1.388 . S
C2023 C2022 1.366 . S
C2023 C2027 1.385 . S
C2024 H2005 0.951 . S
C2024 C2022 1.388 . S
C2024 C2025 1.366 . S
C2025 C2024 1.366 . S
C2025 C2026 1.414 . S
C2025 C2028 1.499 . S
C2026 H2006 0.950 . S
C2026 C2025 1.414 . S
C2026 C2027 1.374 . S
C2027 H2007 0.950 . S
C2027 C2023 1.385 . S
C2027 C2026 1.374 . S
C2028 C2025 1.499 . S
C2028 C2029 1.373 . S
C2028 C2030 1.389 . S
C2029 H2008 0.950 . S
C2029 C2028 1.373 . S
C2029 C2045 1.377 . S
C2030 C2028 1.389 . S
C2030 C2031 1.524 . S
C2030 C2044 1.377 . S
C2031 C2030 1.524 . S
C2031 C2032 1.397 . S
C2031 C2036 1.363 . S
C2032 H2009 0.950 . S
C2032 C2031 1.397 . S
C2032 C2033 1.334 . S
C2033 H2010 0.950 . S
C2033 C2032 1.334 . S
C2033 C2034 1.287 . S
C2034 C2033 1.287 . S
C2034 C2035 1.524 . S
C2034 H2053 0.913 . S
C2035 H2011 0.950 . S
C2035 C2034 1.524 . S
C2035 C2036 1.415 . S
C2036 H2012 0.950 . S
C2036 C2031 1.363 . S
C2036 C2035 1.415 . S
C2037 H2013 0.951 . S
C2037 C2038 1.366 . S
C2037 C2039 1.388 . S
C2038 C2037 1.366 . S
C2038 C2042 1.385 . S
C2039 H2014 0.951 . S
C2039 C2037 1.388 . S
C2039 C2040 1.366 . S
C2040 C2039 1.366 . S
C2040 C2041 1.414 . S
C2040 C2043 1.499 . S
C2041 H2015 0.950 . S
C2041 C2040 1.414 . S
C2041 C2042 1.374 . S
C2042 H2016 0.950 . S
C2042 C2038 1.385 . S
C2042 C2041 1.374 . S
C2043 C2040 1.499 . S
C2043 C2044 1.373 . S
C2043 C2045 1.389 . S
C2044 H2017 0.950 . S
C2044 C2030 1.377 . S
C2044 C2043 1.373 . S
C2045 C2029 1.377 . S
C2045 C2043 1.389 . S
C2045 C2046 1.524 . S
C2046 C2045 1.524 . S
C2046 C2047 1.397 . S
C2046 C2051 1.363 . S
C2047 H2018 0.950 . S
C2047 C2046 1.397 . S
C2047 C2048 1.334 . S
C2048 H2019 0.950 . S
C2048 C2047 1.334 . S
C2048 C2049 1.287 . S
C2049 C2048 1.287 . S
C2049 C2050 1.524 . S
C2049 H2052 0.999 . S
C2050 H2020 0.950 . S
C2050 C2049 1.524 . S
C2050 C2051 1.415 . S
C2051 H2021 0.950 . S
C2051 C2046 1.363 . S
C2051 C2050 1.415 . S
H2052 C2049 0.999 . S
H2053 C2034 0.913 . S
H2054 C2072 0.951 . S
H2055 C2074 0.951 . S
H2056 C2076 0.950 . S
H2057 C2077 0.950 . S
H2058 C2079 0.950 . S
H2059 C2082 0.950 . S
H2060 C2083 0.950 . S
H2061 C2085 0.950 . S
H2062 C2086 0.950 . S
H2063 C2087 0.951 . S
H2064 C2089 0.951 . S
H2065 C2091 0.950 . S
H2066 C2092 0.950 . S
H2067 C2094 0.950 . S
H2068 C2097 0.950 . S
H2069 C2098 0.950 . S
H2070 C2100 0.950 . S
H2071 C2101 0.950 . S
C2072 H2054 0.951 . S
C2072 C2073 1.366 . S
C2072 C2074 1.388 . S
C2073 C2072 1.366 . S
C2073 C2077 1.385 . S
C2074 H2055 0.951 . S
C2074 C2072 1.388 . S
C2074 C2075 1.366 . S
C2075 C2074 1.366 . S
C2075 C2076 1.414 . S
C2075 C2078 1.499 . S
C2076 H2056 0.950 . S
C2076 C2075 1.414 . S
C2076 C2077 1.374 . S
C2077 H2057 0.950 . S
C2077 C2073 1.385 . S
C2077 C2076 1.374 . S
C2078 C2075 1.499 . S
C2078 C2079 1.373 . S
C2078 C2080 1.389 . S
C2079 H2058 0.950 . S
C2079 C2078 1.373 . S
C2079 C2095 1.377 . S
C2080 C2078 1.389 . S
C2080 C2081 1.524 . S
C2080 C2094 1.377 . S
C2081 C2080 1.524 . S
C2081 C2082 1.397 . S
C2081 C2086 1.363 . S
C2082 H2059 0.950 . S
C2082 C2081 1.397 . S
C2082 C2083 1.334 . S
C2083 H2060 0.950 . S
C2083 C2082 1.334 . S
C2083 C2084 1.287 . S
C2084 C2083 1.287 . S
C2084 C2085 1.524 . S
C2084 H2103 0.913 . S
C2085 H2061 0.950 . S
C2085 C2084 1.524 . S
C2085 C2086 1.415 . S
C2086 H2062 0.950 . S
C2086 C2081 1.363 . S
C2086 C2085 1.415 . S
C2087 H2063 0.951 . S
C2087 C2088 1.366 . S
C2087 C2089 1.388 . S
C2088 C2087 1.366 . S
C2088 C2092 1.385 . S
C2089 H2064 0.951 . S
C2089 C2087 1.388 . S
C2089 C2090 1.366 . S
C2090 C2089 1.366 . S
C2090 C2091 1.414 . S
C2090 C2093 1.499 . S
C2091 H2065 0.950 . S
C2091 C2090 1.414 . S
C2091 C2092 1.374 . S
C2092 H2066 0.950 . S
C2092 C2088 1.385 . S
C2092 C2091 1.374 . S
C2093 C2090 1.499 . S
C2093 C2094 1.373 . S
C2093 C2095 1.389 . S
C2094 H2067 0.950 . S
C2094 C2080 1.377 . S
C2094 C2093 1.373 . S
C2095 C2079 1.377 . S
C2095 C2093 1.389 . S
C2095 C2096 1.524 . S
C2096 C2095 1.524 . S
C2096 C2097 1.397 . S
C2096 C2101 1.363 . S
C2097 H2068 0.950 . S
C2097 C2096 1.397 . S
C2097 C2098 1.334 . S
C2098 H2069 0.950 . S
C2098 C2097 1.334 . S
C2098 C2099 1.287 . S
C2099 C2098 1.287 . S
C2099 C2100 1.524 . S
C2099 H2102 0.999 . S
C2100 H2070 0.950 . S
C2100 C2099 1.524 . S
C2100 C2101 1.415 . S
C2101 H2071 0.950 . S
C2101 C2096 1.363 . S
C2101 C2100 1.415 . S
H2102 C2099 0.999 . S
H2103 C2084 0.913 . S
H2104 C2122 0.951 . S
H2105 C2124 0.951 . S
H2106 C2126 0.950 . S
H2107 C2127 0.950 . S
H2108 C2129 0.950 . S
H2109 C2132 0.950 . S
H2110 C2133 0.950 . S
H2111 C2135 0.950 . S
H2112 C2136 0.950 . S
H2113 C2137 0.951 . S
H2114 C2139 0.951 . S
H2115 C2141 0.950 . S
H2116 C2142 0.950 . S
H2117 C2144 0.950 . S
H2118 C2147 0.950 . S
H2119 C2148 0.950 . S
H2120 C2150 0.950 . S
H2121 C2151 0.950 . S
C2122 H2104 0.951 . S
C2122 C2123 1.366 . S
C2122 C2124 1.388 . S
C2123 C2122 1.366 . S
C2123 C2127 1.385 . S
C2124 H2105 0.951 . S
C2124 C2122 1.388 . S
C2124 C2125 1.366 . S
C2125 C2124 1.366 . S
C2125 C2126 1.414 . S
C2125 C2128 1.499 . S
C2126 H2106 0.950 . S
C2126 C2125 1.414 . S
C2126 C2127 1.374 . S
C2127 H2107 0.950 . S
C2127 C2123 1.385 . S
C2127 C2126 1.374 . S
C2128 C2125 1.499 . S
C2128 C2129 1.373 . S
C2128 C2130 1.389 . S
C2129 H2108 0.950 . S
C2129 C2128 1.373 . S
C2129 C2145 1.377 . S
C2130 C2128 1.389 . S
C2130 C2131 1.524 . S
C2130 C2144 1.377 . S
C2131 C2130 1.524 . S
C2131 C2132 1.397 . S
C2131 C2136 1.363 . S
C2132 H2109 0.950 . S
C2132 C2131 1.397 . S
C2132 C2133 1.334 . S
C2133 H2110 0.950 . S
C2133 C2132 1.334 . S
C2133 C2134 1.287 . S
C2134 C2133 1.287 . S
C2134 C2135 1.524 . S
C2134 H2153 0.913 . S
C2135 H2111 0.950 . S
C2135 C2134 1.524 . S
C2135 C2136 1.415 . S
C2136 H2112 0.950 . S
C2136 C2131 1.363 . S
C2136 C2135 1.415 . S
C2137 H2113 0.951 . S
C2137 C2138 1.366 . S
C2137 C2139 1.388 . S
C2138 C2137 1.366 . S
C2138 C2142 1.385 . S
C2139 H2114 0.951 . S
C2139 C2137 1.388 . S
C2139 C2140 1.366 . S
C2140 C2139 1.366 . S
C2140 C2141 1.414 . S
C2140 C2143 1.499 . S
C2141 H2115 0.950 . S
C2141 C2140 1.414 . S
C2141 C2142 1.374 . S
C2142 H2116 0.950 . S
C2142 C2138 1.385 . S
C2142 C2141 1.374 . S
C2143 C2140 1.499 . S
C2143 C2144 1.373 . S
C2143 C2145 1.389 . S
C2144 H2117 0.950 . S
C2144 C2130 1.377 . S
C2144 C2143 1.373 . S
C2145 C2129 1.377 . S
C2145 C2143 1.389 . S
C2145 C2146 1.524 . S
C2146 C2145 1.524 . S
C2146 C2147 1.397 . S
C2146 C2151 1.363 . S
C2147 H2118 0.950 . S
C2147 C2146 1.397 . S
C2147 C2148 1.334 . S
C2148 H2119 0.950 . S
C2148 C2147 1.334 . S
C2148 C2149 1.287 . S
C2149 C2148 1.287 . S
C2149 C2150 1.524 . S
C2149 H2152 0.999 . S
C2150 H2120 0.950 . S
C2150 C2149 1.524 . S
C2150 C2151 1.415 . S
C2151 H2121 0.950 . S
C2151 C2146 1.363 . S
C2151 C2150 1.415 . S
H2152 C2149 0.999 . S
H2153 C2134 0.913 . S
H2154 C2172 0.951 . S
H2155 C2174 0.951 . S
H2156 C2176 0.950 . S
H2157 C2177 0.950 . S
H2158 C2179 0.950 . S
H2159 C2182 0.950 . S
H2160 C2183 0.950 . S
H2161 C2185 0.950 . S
H2162 C2186 0.950 . S
H2163 C2187 0.951 . S
H2164 C2189 0.951 . S
H2165 C2191 0.950 . S
H2166 C2192 0.950 . S
H2167 C2194 0.950 . S
H2168 C2197 0.950 . S
H2169 C2198 0.950 . S
H2170 C2200 0.950 . S
H2171 C2201 0.950 . S
C2172 H2154 0.951 . S
C2172 C2173 1.366 . S
C2172 C2174 1.388 . S
C2173 C2172 1.366 . S
C2173 C2177 1.385 . S
C2174 H2155 0.951 . S
C2174 C2172 1.388 . S
C2174 C2175 1.366 . S
C2175 C2174 1.366 . S
C2175 C2176 1.414 . S
C2175 C2178 1.499 . S
C2176 H2156 0.950 . S
C2176 C2175 1.414 . S
C2176 C2177 1.374 . S
C2177 H2157 0.950 . S
C2177 C2173 1.385 . S
C2177 C2176 1.374 . S
C2178 C2175 1.499 . S
C2178 C2179 1.373 . S
C2178 C2180 1.389 . S
C2179 H2158 0.950 . S
C2179 C2178 1.373 . S
C2179 C2195 1.377 . S
C2180 C2178 1.389 . S
C2180 C2181 1.524 . S
C2180 C2194 1.377 . S
C2181 C2180 1.524 . S
C2181 C2182 1.397 . S
C2181 C2186 1.363 . S
C2182 H2159 0.950 . S
C2182 C2181 1.397 . S
C2182 C2183 1.334 . S
C2183 H2160 0.950 . S
C2183 C2182 1.334 . S
C2183 C2184 1.287 . S
C2184 C2183 1.287 . S
C2184 C2185 1.524 . S
C2184 H2203 0.913 . S
C2185 H2161 0.950 . S
C2185 C2184 1.524 . S
C2185 C2186 1.415 . S
C2186 H2162 0.950 . S
C2186 C2181 1.363 . S
C2186 C2185 1.415 . S
C2187 H2163 0.951 . S
C2187 C2188 1.366 . S
C2187 C2189 1.388 . S
C2188 C2187 1.366 . S
C2188 C2192 1.385 . S
C2189 H2164 0.951 . S
C2189 C2187 1.388 . S
C2189 C2190 1.366 . S
C2190 C2189 1.366 . S
C2190 C2191 1.414 . S
C2190 C2193 1.499 . S
C2191 H2165 0.950 . S
C2191 C2190 1.414 . S
C2191 C2192 1.374 . S
C2192 H2166 0.950 . S
C2192 C2188 1.385 . S
C2192 C2191 1.374 . S
C2193 C2190 1.499 . S
C2193 C2194 1.373 . S
C2193 C2195 1.389 . S
C2194 H2167 0.950 . S
C2194 C2180 1.377 . S
C2194 C2193 1.373 . S
C2195 C2179 1.377 . S
C2195 C2193 1.389 . S
C2195 C2196 1.524 . S
C2196 C2195 1.524 . S
C2196 C2197 1.397 . S
C2196 C2201 1.363 . S
C2197 H2168 0.950 . S
C2197 C2196 1.397 . S
C2197 C2198 1.334 . S
C2198 H2169 0.950 . S
C2198 C2197 1.334 . S
C2198 C2199 1.287 . S
C2199 C2198 1.287 . S
C2199 C2200 1.524 . S
C2199 H2202 0.999 . S
C2200 H2170 0.950 . S
C2200 C2199 1.524 . S
C2200 C2201 1.415 . S
C2201 H2171 0.950 . S
C2201 C2196 1.363 . S
C2201 C2200 1.415 . S
H2202 C2199 0.999 . S
H2203 C2184 0.913 . S
H2204 C2222 0.951 . S
H2205 C2224 0.951 . S
H2206 C2226 0.950 . S
H2207 C2227 0.950 . S
H2208 C2229 0.950 . S
H2209 C2232 0.950 . S
H2210 C2233 0.950 . S
H2211 C2235 0.950 . S
H2212 C2236 0.950 . S
H2213 C2237 0.951 . S
H2214 C2239 0.951 . S
H2215 C2241 0.950 . S
H2216 C2242 0.950 . S
H2217 C2244 0.950 . S
H2218 C2247 0.950 . S
H2219 C2248 0.950 . S
H2220 C2250 0.950 . S
H2221 C2251 0.950 . S
C2222 H2204 0.951 . S
C2222 C2223 1.366 . S
C2222 C2224 1.388 . S
C2223 C2222 1.366 . S
C2223 C2227 1.385 . S
C2224 H2205 0.951 . S
C2224 C2222 1.388 . S
C2224 C2225 1.366 . S
C2225 C2224 1.366 . S
C2225 C2226 1.414 . S
C2225 C2228 1.499 . S
C2226 H2206 0.950 . S
C2226 C2225 1.414 . S
C2226 C2227 1.374 . S
C2227 H2207 0.950 . S
C2227 C2223 1.385 . S
C2227 C2226 1.374 . S
C2228 C2225 1.499 . S
C2228 C2229 1.373 . S
C2228 C2230 1.389 . S
C2229 H2208 0.950 . S
C2229 C2228 1.373 . S
C2229 C2245 1.377 . S
C2230 C2228 1.389 . S
C2230 C2231 1.524 . S
C2230 C2244 1.377 . S
C2231 C2230 1.524 . S
C2231 C2232 1.397 . S
C2231 C2236 1.363 . S
C2232 H2209 0.950 . S
C2232 C2231 1.397 . S
C2232 C2233 1.334 . S
C2233 H2210 0.950 . S
C2233 C2232 1.334 . S
C2233 C2234 1.287 . S
C2234 C2233 1.287 . S
C2234 C2235 1.524 . S
C2234 H2253 0.913 . S
C2235 H2211 0.950 . S
C2235 C2234 1.524 . S
C2235 C2236 1.415 . S
C2236 H2212 0.950 . S
C2236 C2231 1.363 . S
C2236 C2235 1.415 . S
C2237 H2213 0.951 . S
C2237 C2238 1.366 . S
C2237 C2239 1.388 . S
C2238 C2237 1.366 . S
C2238 C2242 1.385 . S
C2239 H2214 0.951 . S
C2239 C2237 1.388 . S
C2239 C2240 1.366 . S
C2240 C2239 1.366 . S
C2240 C2241 1.414 . S
C2240 C2243 1.499 . S
C2241 H2215 0.950 . S
C2241 C2240 1.414 . S
C2241 C2242 1.374 . S
C2242 H2216 0.950 . S
C2242 C2238 1.385 . S
C2242 C2241 1.374 . S
C2243 C2240 1.499 . S
C2243 C2244 1.373 . S
C2243 C2245 1.389 . S
C2244 H2217 0.950 . S
C2244 C2230 1.377 . S
C2244 C2243 1.373 . S
C2245 C2229 1.377 . S
C2245 C2243 1.389 . S
C2245 C2246 1.524 . S
C2246 C2245 1.524 . S
C2246 C2247 1.397 . S
C2246 C2251 1.363 . S
C2247 H2218 0.950 . S
C2247 C2246 1.397 . S
C2247 C2248 1.334 . S
C2248 H2219 0.950 . S
C2248 C2247 1.334 . S
C2248 C2249 1.287 . S
C2249 C2248 1.287 . S
C2249 C2250 1.524 . S
C2249 H2252 0.999 . S
C2250 H2220 0.950 . S
C2250 C2249 1.524 . S
C2250 C2251 1.415 . S
C2251 H2221 0.950 . S
C2251 C2246 1.363 . S
C2251 C2250 1.415 . S
H2252 C2249 0.999 . S
H2253 C2234 0.913 . S
H2254 C2272 0.951 . S
H2255 C2274 0.951 . S
H2256 C2276 0.950 . S
H2257 C2277 0.950 . S
H2258 C2279 0.950 . S
H2259 C2282 0.950 . S
H2260 C2283 0.950 . S
H2261 C2285 0.950 . S
H2262 C2286 0.950 . S
H2263 C2287 0.951 . S
H2264 C2289 0.951 . S
H2265 C2291 0.950 . S
H2266 C2292 0.950 . S
H2267 C2294 0.950 . S
H2268 C2297 0.950 . S
H2269 C2298 0.950 . S
H2270 C2300 0.950 . S
H2271 C2301 0.950 . S
C2272 H2254 0.951 . S
C2272 C2273 1.366 . S
C2272 C2274 1.388 . S
C2273 C2272 1.366 . S
C2273 C2277 1.385 . S
C2274 H2255 0.951 . S
C2274 C2272 1.388 . S
C2274 C2275 1.366 . S
C2275 C2274 1.366 . S
C2275 C2276 1.414 . S
C2275 C2278 1.499 . S
C2276 H2256 0.950 . S
C2276 C2275 1.414 . S
C2276 C2277 1.374 . S
C2277 H2257 0.950 . S
C2277 C2273 1.385 . S
C2277 C2276 1.374 . S
C2278 C2275 1.499 . S
C2278 C2279 1.373 . S
C2278 C2280 1.389 . S
C2279 H2258 0.950 . S
C2279 C2278 1.373 . S
C2279 C2295 1.377 . S
C2280 C2278 1.389 . S
C2280 C2281 1.524 . S
C2280 C2294 1.377 . S
C2281 C2280 1.524 . S
C2281 C2282 1.397 . S
C2281 C2286 1.363 . S
C2282 H2259 0.950 . S
C2282 C2281 1.397 . S
C2282 C2283 1.334 . S
C2283 H2260 0.950 . S
C2283 C2282 1.334 . S
C2283 C2284 1.287 . S
C2284 C2283 1.287 . S
C2284 C2285 1.524 . S
C2284 H2303 0.913 . S
C2285 H2261 0.950 . S
C2285 C2284 1.524 . S
C2285 C2286 1.415 . S
C2286 H2262 0.950 . S
C2286 C2281 1.363 . S
C2286 C2285 1.415 . S
C2287 H2263 0.951 . S
C2287 C2288 1.366 . S
C2287 C2289 1.388 . S
C2288 C2287 1.366 . S
C2288 C2292 1.385 . S
C2289 H2264 0.951 . S
C2289 C2287 1.388 . S
C2289 C2290 1.366 . S
C2290 C2289 1.366 . S
C2290 C2291 1.414 . S
C2290 C2293 1.499 . S
C2291 H2265 0.950 . S
C2291 C2290 1.414 . S
C2291 C2292 1.374 . S
C2292 H2266 0.950 . S
C2292 C2288 1.385 . S
C2292 C2291 1.374 . S
C2293 C2290 1.499 . S
C2293 C2294 1.373 . S
C2293 C2295 1.389 . S
C2294 H2267 0.950 . S
C2294 C2280 1.377 . S
C2294 C2293 1.373 . S
C2295 C2279 1.377 . S
C2295 C2293 1.389 . S
C2295 C2296 1.524 . S
C2296 C2295 1.524 . S
C2296 C2297 1.397 . S
C2296 C2301 1.363 . S
C2297 H2268 0.950 . S
C2297 C2296 1.397 . S
C2297 C2298 1.334 . S
C2298 H2269 0.950 . S
C2298 C2297 1.334 . S
C2298 C2299 1.287 . S
C2299 C2298 1.287 . S
C2299 C2300 1.524 . S
C2299 H2302 0.999 . S
C2300 H2270 0.950 . S
C2300 C2299 1.524 . S
C2300 C2301 1.415 . S
C2301 H2271 0.950 . S
C2301 C2296 1.363 . S
C2301 C2300 1.415 . S
H2302 C2299 0.999 . S
H2303 C2284 0.913 . S
H2304 C2322 0.951 . S
H2305 C2324 0.951 . S
H2306 C2326 0.950 . S
H2307 C2327 0.950 . S
H2308 C2329 0.950 . S
H2309 C2332 0.950 . S
H2310 C2333 0.950 . S
H2311 C2335 0.950 . S
H2312 C2336 0.950 . S
H2313 C2337 0.951 . S
H2314 C2339 0.951 . S
H2315 C2341 0.950 . S
H2316 C2342 0.950 . S
H2317 C2344 0.950 . S
H2318 C2347 0.950 . S
H2319 C2348 0.950 . S
H2320 C2350 0.950 . S
H2321 C2351 0.950 . S
C2322 H2304 0.951 . S
C2322 C2323 1.366 . S
C2322 C2324 1.388 . S
C2323 C2322 1.366 . S
C2323 C2327 1.385 . S
C2324 H2305 0.951 . S
C2324 C2322 1.388 . S
C2324 C2325 1.366 . S
C2325 C2324 1.366 . S
C2325 C2326 1.414 . S
C2325 C2328 1.499 . S
C2326 H2306 0.950 . S
C2326 C2325 1.414 . S
C2326 C2327 1.374 . S
C2327 H2307 0.950 . S
C2327 C2323 1.385 . S
C2327 C2326 1.374 . S
C2328 C2325 1.499 . S
C2328 C2329 1.373 . S
C2328 C2330 1.389 . S
C2329 H2308 0.950 . S
C2329 C2328 1.373 . S
C2329 C2345 1.377 . S
C2330 C2328 1.389 . S
C2330 C2331 1.524 . S
C2330 C2344 1.377 . S
C2331 C2330 1.524 . S
C2331 C2332 1.397 . S
C2331 C2336 1.363 . S
C2332 H2309 0.950 . S
C2332 C2331 1.397 . S
C2332 C2333 1.334 . S
C2333 H2310 0.950 . S
C2333 C2332 1.334 . S
C2333 C2334 1.287 . S
C2334 C2333 1.287 . S
C2334 C2335 1.524 . S
C2334 H2353 0.913 . S
C2335 H2311 0.950 . S
C2335 C2334 1.524 . S
C2335 C2336 1.415 . S
C2336 H2312 0.950 . S
C2336 C2331 1.363 . S
C2336 C2335 1.415 . S
C2337 H2313 0.951 . S
C2337 C2338 1.366 . S
C2337 C2339 1.388 . S
C2338 C2337 1.366 . S
C2338 C2342 1.385 . S
C2339 H2314 0.951 . S
C2339 C2337 1.388 . S
C2339 C2340 1.366 . S
C2340 C2339 1.366 . S
C2340 C2341 1.414 . S
C2340 C2343 1.499 . S
C2341 H2315 0.950 . S
C2341 C2340 1.414 . S
C2341 C2342 1.374 . S
C2342 H2316 0.950 . S
C2342 C2338 1.385 . S
C2342 C2341 1.374 . S
C2343 C2340 1.499 . S
C2343 C2344 1.373 . S
C2343 C2345 1.389 . S
C2344 H2317 0.950 . S
C2344 C2330 1.377 . S
C2344 C2343 1.373 . S
C2345 C2329 1.377 . S
C2345 C2343 1.389 . S
C2345 C2346 1.524 . S
C2346 C2345 1.524 . S
C2346 C2347 1.397 . S
C2346 C2351 1.363 . S
C2347 H2318 0.950 . S
C2347 C2346 1.397 . S
C2347 C2348 1.334 . S
C2348 H2319 0.950 . S
C2348 C2347 1.334 . S
C2348 C2349 1.287 . S
C2349 C2348 1.287 . S
C2349 C2350 1.524 . S
C2349 H2352 0.999 . S
C2350 H2320 0.950 . S
C2350 C2349 1.524 . S
C2350 C2351 1.415 . S
C2351 H2321 0.950 . S
C2351 C2346 1.363 . S
C2351 C2350 1.415 . S
H2352 C2349 0.999 . S
H2353 C2334 0.913 . S
H2354 C2372 0.951 . S
H2355 C2374 0.951 . S
H2356 C2376 0.950 . S
H2357 C2377 0.950 . S
H2358 C2379 0.950 . S
H2359 C2382 0.950 . S
H2360 C2383 0.950 . S
H2361 C2385 0.950 . S
H2362 C2386 0.950 . S
H2363 C2387 0.951 . S
H2364 C2389 0.951 . S
H2365 C2391 0.950 . S
H2366 C2392 0.950 . S
H2367 C2394 0.950 . S
H2368 C2397 0.950 . S
H2369 C2398 0.950 . S
H2370 C2400 0.950 . S
H2371 C2401 0.950 . S
C2372 H2354 0.951 . S
C2372 C2373 1.366 . S
C2372 C2374 1.388 . S
C2373 C2372 1.366 . S
C2373 C2377 1.385 . S
C2374 H2355 0.951 . S
C2374 C2372 1.388 . S
C2374 C2375 1.366 . S
C2375 C2374 1.366 . S
C2375 C2376 1.414 . S
C2375 C2378 1.499 . S
C2376 H2356 0.950 . S
C2376 C2375 1.414 . S
C2376 C2377 1.374 . S
C2377 H2357 0.950 . S
C2377 C2373 1.385 . S
C2377 C2376 1.374 . S
C2378 C2375 1.499 . S
C2378 C2379 1.373 . S
C2378 C2380 1.389 . S
C2379 H2358 0.950 . S
C2379 C2378 1.373 . S
C2379 C2395 1.377 . S
C2380 C2378 1.389 . S
C2380 C2381 1.524 . S
C2380 C2394 1.377 . S
C2381 C2380 1.524 . S
C2381 C2382 1.397 . S
C2381 C2386 1.363 . S
C2382 H2359 0.950 . S
C2382 C2381 1.397 . S
C2382 C2383 1.334 . S
C2383 H2360 0.950 . S
C2383 C2382 1.334 . S
C2383 C2384 1.287 . S
C2384 C2383 1.287 . S
C2384 C2385 1.524 . S
C2384 H2403 0.913 . S
C2385 H2361 0.950 . S
C2385 C2384 1.524 . S
C2385 C2386 1.415 . S
C2386 H2362 0.950 . S
C2386 C2381 1.363 . S
C2386 C2385 1.415 . S
C2387 H2363 0.951 . S
C2387 C2388 1.366 . S
C2387 C2389 1.388 . S
C2388 C2387 1.366 . S
C2388 C2392 1.385 . S
C2389 H2364 0.951 . S
C2389 C2387 1.388 . S
C2389 C2390 1.366 . S
C2390 C2389 1.366 . S
C2390 C2391 1.414 . S
C2390 C2393 1.499 . S
C2391 H2365 0.950 . S
C2391 C2390 1.414 . S
C2391 C2392 1.374 . S
C2392 H2366 0.950 . S
C2392 C2388 1.385 . S
C2392 C2391 1.374 . S
C2393 C2390 1.499 . S
C2393 C2394 1.373 . S
C2393 C2395 1.389 . S
C2394 H2367 0.950 . S
C2394 C2380 1.377 . S
C2394 C2393 1.373 . S
C2395 C2379 1.377 . S
C2395 C2393 1.389 . S
C2395 C2396 1.524 . S
C2396 C2395 1.524 . S
C2396 C2397 1.397 . S
C2396 C2401 1.363 . S
C2397 H2368 0.950 . S
C2397 C2396 1.397 . S
C2397 C2398 1.334 . S
C2398 H2369 0.950 . S
C2398 C2397 1.334 . S
C2398 C2399 1.287 . S
C2399 C2398 1.287 . S
C2399 C2400 1.524 . S
C2399 H2402 0.999 . S
C2400 H2370 0.950 . S
C2400 C2399 1.524 . S
C2400 C2401 1.415 . S
C2401 H2371 0.950 . S
C2401 C2396 1.363 . S
C2401 C2400 1.415 . S
H2402 C2399 0.999 . S
H2403 C2384 0.913 . S
H2404 C2422 0.951 . S
H2405 C2424 0.951 . S
H2406 C2426 0.950 . S
H2407 C2427 0.950 . S
H2408 C2429 0.950 . S
H2409 C2432 0.950 . S
H2410 C2433 0.950 . S
H2411 C2435 0.950 . S
H2412 C2436 0.950 . S
H2413 C2437 0.951 . S
H2414 C2439 0.951 . S
H2415 C2441 0.950 . S
H2416 C2442 0.950 . S
H2417 C2444 0.950 . S
H2418 C2447 0.950 . S
H2419 C2448 0.950 . S
H2420 C2450 0.950 . S
H2421 C2451 0.950 . S
C2422 H2404 0.951 . S
C2422 C2423 1.366 . S
C2422 C2424 1.388 . S
C2423 C2422 1.366 . S
C2423 C2427 1.385 . S
C2424 H2405 0.951 . S
C2424 C2422 1.388 . S
C2424 C2425 1.366 . S
C2425 C2424 1.366 . S
C2425 C2426 1.414 . S
C2425 C2428 1.499 . S
C2426 H2406 0.950 . S
C2426 C2425 1.414 . S
C2426 C2427 1.374 . S
C2427 H2407 0.950 . S
C2427 C2423 1.385 . S
C2427 C2426 1.374 . S
C2428 C2425 1.499 . S
C2428 C2429 1.373 . S
C2428 C2430 1.389 . S
C2429 H2408 0.950 . S
C2429 C2428 1.373 . S
C2429 C2445 1.377 . S
C2430 C2428 1.389 . S
C2430 C2431 1.524 . S
C2430 C2444 1.377 . S
C2431 C2430 1.524 . S
C2431 C2432 1.397 . S
C2431 C2436 1.363 . S
C2432 H2409 0.950 . S
C2432 C2431 1.397 . S
C2432 C2433 1.334 . S
C2433 H2410 0.950 . S
C2433 C2432 1.334 . S
C2433 C2434 1.287 . S
C2434 C2433 1.287 . S
C2434 C2435 1.524 . S
C2434 H2453 0.913 . S
C2435 H2411 0.950 . S
C2435 C2434 1.524 . S
C2435 C2436 1.415 . S
C2436 H2412 0.950 . S
C2436 C2431 1.363 . S
C2436 C2435 1.415 . S
C2437 H2413 0.951 . S
C2437 C2438 1.366 . S
C2437 C2439 1.388 . S
C2438 C2437 1.366 . S
C2438 C2442 1.385 . S
C2439 H2414 0.951 . S
C2439 C2437 1.388 . S
C2439 C2440 1.366 . S
C2440 C2439 1.366 . S
C2440 C2441 1.414 . S
C2440 C2443 1.499 . S
C2441 H2415 0.950 . S
C2441 C2440 1.414 . S
C2441 C2442 1.374 . S
C2442 H2416 0.950 . S
C2442 C2438 1.385 . S
C2442 C2441 1.374 . S
C2443 C2440 1.499 . S
C2443 C2444 1.373 . S
C2443 C2445 1.389 . S
C2444 H2417 0.950 . S
C2444 C2430 1.377 . S
C2444 C2443 1.373 . S
C2445 C2429 1.377 . S
C2445 C2443 1.389 . S
C2445 C2446 1.524 . S
C2446 C2445 1.524 . S
C2446 C2447 1.397 . S
C2446 C2451 1.363 . S
C2447 H2418 0.950 . S
C2447 C2446 1.397 . S
C2447 C2448 1.334 . S
C2448 H2419 0.950 . S
C2448 C2447 1.334 . S
C2448 C2449 1.287 . S
C2449 C2448 1.287 . S
C2449 C2450 1.524 . S
C2449 H2452 0.999 . S
C2450 H2420 0.950 . S
C2450 C2449 1.524 . S
C2450 C2451 1.415 . S
C2451 H2421 0.950 . S
C2451 C2446 1.363 . S
C2451 C2450 1.415 . S
H2452 C2449 0.999 . S
H2453 C2434 0.913 . S
H2454 C2472 0.951 . S
H2455 C2474 0.951 . S
H2456 C2476 0.950 . S
H2457 C2477 0.950 . S
H2458 C2479 0.950 . S
H2459 C2482 0.950 . S
H2460 C2483 0.950 . S
H2461 C2485 0.950 . S
H2462 C2486 0.950 . S
H2463 C2487 0.951 . S
H2464 C2489 0.951 . S
H2465 C2491 0.950 . S
H2466 C2492 0.950 . S
H2467 C2494 0.950 . S
H2468 C2497 0.950 . S
H2469 C2498 0.950 . S
H2470 C2500 0.950 . S
H2471 C2501 0.950 . S
C2472 H2454 0.951 . S
C2472 C2473 1.366 . S
C2472 C2474 1.388 . S
C2473 C2472 1.366 . S
C2473 C2477 1.385 . S
C2474 H2455 0.951 . S
C2474 C2472 1.388 . S
C2474 C2475 1.366 . S
C2475 C2474 1.366 . S
C2475 C2476 1.414 . S
C2475 C2478 1.499 . S
C2476 H2456 0.950 . S
C2476 C2475 1.414 . S
C2476 C2477 1.374 . S
C2477 H2457 0.950 . S
C2477 C2473 1.385 . S
C2477 C2476 1.374 . S
C2478 C2475 1.499 . S
C2478 C2479 1.373 . S
C2478 C2480 1.389 . S
C2479 H2458 0.950 . S
C2479 C2478 1.373 . S
C2479 C2495 1.377 . S
C2480 C2478 1.389 . S
C2480 C2481 1.524 . S
C2480 C2494 1.377 . S
C2481 C2480 1.524 . S
C2481 C2482 1.397 . S
C2481 C2486 1.363 . S
C2482 H2459 0.950 . S
C2482 C2481 1.397 . S
C2482 C2483 1.334 . S
C2483 H2460 0.950 . S
C2483 C2482 1.334 . S
C2483 C2484 1.287 . S
C2484 C2483 1.287 . S
C2484 C2485 1.524 . S
C2484 H2503 0.913 . S
C2485 H2461 0.950 . S
C2485 C2484 1.524 . S
C2485 C2486 1.415 . S
C2486 H2462 0.950 . S
C2486 C2481 1.363 . S
C2486 C2485 1.415 . S
C2487 H2463 0.951 . S
C2487 C2488 1.366 . S
C2487 C2489 1.388 . S
C2488 C2487 1.366 . S
C2488 C2492 1.385 . S
C2489 H2464 0.951 . S
C2489 C2487 1.388 . S
C2489 C2490 1.366 . S
C2490 C2489 1.366 . S
C2490 C2491 1.414 . S
C2490 C2493 1.499 . S
C2491 H2465 0.950 . S
C2491 C2490 1.414 . S
C2491 C2492 1.374 . S
C2492 H2466 0.950 . S
C2492 C2488 1.385 . S
C2492 C2491 1.374 . S
C2493 C2490 1.499 . S
C2493 C2494 1.373 . S
C2493 C2495 1.389 . S
C2494 H2467 0.950 . S
C2494 C2480 1.377 . S
C2494 C2493 1.373 . S
C2495 C2479 1.377 . S
C2495 C2493 1.389 . S
C2495 C2496 1.524 . S
C2496 C2495 1.524 . S
C2496 C2497 1.397 . S
C2496 C2501 1.363 . S
C2497 H2468 0.950 . S
C2497 C2496 1.397 . S
C2497 C2498 1.334 . S
C2498 H2469 0.950 . S
C2498 C2497 1.334 . S
C2498 C2499 1.287 . S
C2499 C2498 1.287 . S
C2499 C2500 1.524 . S
C2499 H2502 0.999 . S
C2500 H2470 0.950 . S
C2500 C2499 1.524 . S
C2500 C2501 1.415 . S
C2501 H2471 0.950 . S
C2501 C2496 1.363 . S
C2501 C2500 1.415 . S
H2502 C2499 0.999 . S
H2503 C2484 0.913 . S
H2504 C2522 0.951 . S
H2505 C2524 0.951 . S
H2506 C2526 0.950 . S
H2507 C2527 0.950 . S
H2508 C2529 0.950 . S
H2509 C2532 0.950 . S
H2510 C2533 0.950 . S
H2511 C2535 0.950 . S
H2512 C2536 0.950 . S
H2513 C2537 0.951 . S
H2514 C2539 0.951 . S
H2515 C2541 0.950 . S
H2516 C2542 0.939 1_556 S
H2517 C2544 0.950 . S
H2518 C2547 0.950 . S
H2519 C2548 0.950 . S
H2520 C2550 0.950 . S
H2521 C2551 0.950 . S
C2522 H2504 0.951 . S
C2522 C2523 1.366 . S
C2522 C2524 1.388 . S
C2523 C2522 1.366 . S
C2523 C2527 1.385 . S
C2524 H2505 0.951 . S
C2524 C2522 1.388 . S
C2524 C2525 1.366 . S
C2525 C2524 1.366 . S
C2525 C2526 1.414 . S
C2525 C2528 1.499 . S
C2526 H2506 0.950 . S
C2526 C2525 1.414 . S
C2526 C2527 1.374 . S
C2527 H2507 0.950 . S
C2527 C2523 1.385 . S
C2527 C2526 1.374 . S
C2528 C2525 1.499 . S
C2528 C2529 1.373 . S
C2528 C2530 1.389 . S
C2529 H2508 0.950 . S
C2529 C2528 1.373 . S
C2529 C2545 1.377 . S
C2530 C2528 1.389 . S
C2530 C2531 1.524 . S
C2530 C2544 1.377 . S
C2531 C2530 1.524 . S
C2531 C2532 1.397 . S
C2531 C2536 1.363 . S
C2532 H2509 0.950 . S
C2532 C2531 1.397 . S
C2532 C2533 1.334 . S
C2533 H2510 0.950 . S
C2533 C2532 1.334 . S
C2533 C2534 1.287 . S
C2534 C2533 1.287 . S
C2534 C2535 1.524 . S
C2534 H2553 0.913 . S
C2535 H2511 0.950 . S
C2535 C2534 1.524 . S
C2535 C2536 1.415 . S
C2536 H2512 0.950 . S
C2536 C2531 1.363 . S
C2536 C2535 1.415 . S
C2537 H2513 0.951 . S
C2537 C2538 1.366 . S
C2537 C2539 1.388 . S
C2538 C2537 1.366 . S
C2538 C2542 1.385 . S
C2539 H2514 0.951 . S
C2539 C2537 1.388 . S
C2539 C2540 1.366 . S
C2540 C2539 1.366 . S
C2540 C2541 1.414 . S
C2540 C2543 1.499 . S
C2541 H2515 0.950 . S
C2541 C2540 1.414 . S
C2541 C2542 1.374 . S
C2542 H2516 0.939 1_554 S
C2542 C2538 1.385 . S
C2542 C2541 1.374 . S
C2543 C2540 1.499 . S
C2543 C2544 1.373 . S
C2543 C2545 1.389 . S
C2544 H2517 0.950 . S
C2544 C2530 1.377 . S
C2544 C2543 1.373 . S
C2545 C2529 1.377 . S
C2545 C2543 1.389 . S
C2545 C2546 1.524 . S
C2546 C2545 1.524 . S
C2546 C2547 1.397 . S
C2546 C2551 1.363 . S
C2547 H2518 0.950 . S
C2547 C2546 1.397 . S
C2547 C2548 1.334 . S
C2548 H2519 0.950 . S
C2548 C2547 1.334 . S
C2548 C2549 1.287 . S
C2549 C2548 1.287 . S
C2549 C2550 1.524 . S
C2549 H2552 0.999 . S
C2550 H2520 0.950 . S
C2550 C2549 1.524 . S
C2550 C2551 1.415 . S
C2551 H2521 0.950 . S
C2551 C2546 1.363 . S
C2551 C2550 1.415 . S
H2552 C2549 0.999 . S
H2553 C2534 0.913 . S
H2554 C2572 0.951 . S
H2555 C2574 0.951 . S
H2556 C2576 0.950 . S
H2557 C2577 0.950 . S
H2558 C2579 0.950 . S
H2559 C2582 0.950 . S
H2560 C2583 0.950 . S
H2561 C2585 0.950 . S
H2562 C2586 0.950 . S
H2563 C2587 0.951 . S
H2564 C2589 0.951 . S
H2565 C2591 0.950 . S
H2566 C2592 0.950 . S
H2567 C2594 0.950 . S
H2568 C2597 0.950 . S
H2569 C2598 0.950 . S
H2570 C2600 0.950 . S
H2571 C2601 0.950 . S
C2572 H2554 0.951 . S
C2572 C2573 1.366 . S
C2572 C2574 1.388 . S
C2573 C2572 1.366 . S
C2573 C2577 1.385 . S
C2574 H2555 0.951 . S
C2574 C2572 1.388 . S
C2574 C2575 1.366 . S
C2575 C2574 1.366 . S
C2575 C2576 1.414 . S
C2575 C2578 1.499 . S
C2576 H2556 0.950 . S
C2576 C2575 1.414 . S
C2576 C2577 1.374 . S
C2577 H2557 0.950 . S
C2577 C2573 1.385 . S
C2577 C2576 1.374 . S
C2578 C2575 1.499 . S
C2578 C2579 1.373 . S
C2578 C2580 1.389 . S
C2579 H2558 0.950 . S
C2579 C2578 1.373 . S
C2579 C2595 1.377 . S
C2580 C2578 1.389 . S
C2580 C2581 1.524 . S
C2580 C2594 1.377 . S
C2581 C2580 1.524 . S
C2581 C2582 1.397 . S
C2581 C2586 1.363 . S
C2582 H2559 0.950 . S
C2582 C2581 1.397 . S
C2582 C2583 1.334 . S
C2583 H2560 0.950 . S
C2583 C2582 1.334 . S
C2583 C2584 1.287 . S
C2584 C2583 1.287 . S
C2584 C2585 1.524 . S
C2584 H2603 0.913 . S
C2585 H2561 0.950 . S
C2585 C2584 1.524 . S
C2585 C2586 1.415 . S
C2586 H2562 0.950 . S
C2586 C2581 1.363 . S
C2586 C2585 1.415 . S
C2587 H2563 0.951 . S
C2587 C2588 1.366 . S
C2587 C2589 1.388 . S
C2588 C2587 1.366 . S
C2588 C2592 1.385 . S
C2589 H2564 0.951 . S
C2589 C2587 1.388 . S
C2589 C2590 1.366 . S
C2590 C2589 1.366 . S
C2590 C2591 1.414 . S
C2590 C2593 1.499 . S
C2591 H2565 0.950 . S
C2591 C2590 1.414 . S
C2591 C2592 1.374 . S
C2592 H2566 0.950 . S
C2592 C2588 1.385 . S
C2592 C2591 1.374 . S
C2593 C2590 1.499 . S
C2593 C2594 1.373 . S
C2593 C2595 1.389 . S
C2594 H2567 0.950 . S
C2594 C2580 1.377 . S
C2594 C2593 1.373 . S
C2595 C2579 1.377 . S
C2595 C2593 1.389 . S
C2595 C2596 1.524 . S
C2596 C2595 1.524 . S
C2596 C2597 1.397 . S
C2596 C2601 1.363 . S
C2597 H2568 0.950 . S
C2597 C2596 1.397 . S
C2597 C2598 1.334 . S
C2598 H2569 0.950 . S
C2598 C2597 1.334 . S
C2598 C2599 1.287 . S
C2599 C2598 1.287 . S
C2599 C2600 1.524 . S
C2599 H2602 0.999 . S
C2600 H2570 0.950 . S
C2600 C2599 1.524 . S
C2600 C2601 1.415 . S
C2601 H2571 0.950 . S
C2601 C2596 1.363 . S
C2601 C2600 1.415 . S
H2602 C2599 0.999 . S
H2603 C2584 0.913 . S
H2604 C2622 0.950 . S
H2605 C2624 0.951 . S
H2606 C2626 0.950 . S
H2607 C2627 0.950 . S
H2608 C2629 0.950 . S
H2609 C2632 0.950 . S
H2610 C2633 0.950 . S
H2611 C2635 0.950 . S
H2612 C2636 0.950 . S
H2613 C2637 0.951 . S
H2614 C2639 0.951 . S
H2615 C2641 0.950 . S
H2616 C2642 0.950 . S
H2617 C2644 0.950 . S
H2618 C2647 0.950 . S
H2619 C2648 0.950 . S
H2620 C2650 0.950 . S
H2621 C2651 0.950 . S
C2622 H2604 0.950 . S
C2622 C2623 1.366 . S
C2622 C2624 1.388 . S
C2623 C2622 1.366 . S
C2623 C2627 1.385 . S
C2624 H2605 0.951 . S
C2624 C2622 1.388 . S
C2624 C2625 1.366 . S
C2625 C2624 1.366 . S
C2625 C2626 1.414 . S
C2625 C2628 1.499 . S
C2626 H2606 0.950 . S
C2626 C2625 1.414 . S
C2626 C2627 1.374 . S
C2627 H2607 0.950 . S
C2627 C2623 1.385 . S
C2627 C2626 1.374 . S
C2628 C2625 1.499 . S
C2628 C2629 1.373 . S
C2628 C2630 1.389 . S
C2629 H2608 0.950 . S
C2629 C2628 1.373 . S
C2629 C2645 1.377 . S
C2630 C2628 1.389 . S
C2630 C2631 1.524 . S
C2630 C2644 1.377 . S
C2631 C2630 1.524 . S
C2631 C2632 1.397 . S
C2631 C2636 1.363 . S
C2632 H2609 0.950 . S
C2632 C2631 1.397 . S
C2632 C2633 1.334 . S
C2633 H2610 0.950 . S
C2633 C2632 1.334 . S
C2633 C2634 1.287 . S
C2634 C2633 1.287 . S
C2634 C2635 1.524 . S
C2634 H2653 0.913 . S
C2635 H2611 0.950 . S
C2635 C2634 1.524 . S
C2635 C2636 1.415 . S
C2636 H2612 0.950 . S
C2636 C2631 1.363 . S
C2636 C2635 1.415 . S
C2637 H2613 0.951 . S
C2637 C2638 1.366 . S
C2637 C2639 1.388 . S
C2638 C2637 1.366 . S
C2638 C2642 1.385 . S
C2639 H2614 0.951 . S
C2639 C2637 1.388 . S
C2639 C2640 1.366 . S
C2640 C2639 1.366 . S
C2640 C2641 1.414 . S
C2640 C2643 1.499 . S
C2641 H2615 0.950 . S
C2641 C2640 1.414 . S
C2641 C2642 1.374 . S
C2642 H2616 0.950 . S
C2642 C2638 1.385 . S
C2642 C2641 1.374 . S
C2643 C2640 1.499 . S
C2643 C2644 1.373 . S
C2643 C2645 1.389 . S
C2644 H2617 0.950 . S
C2644 C2630 1.377 . S
C2644 C2643 1.373 . S
C2645 C2629 1.377 . S
C2645 C2643 1.389 . S
C2645 C2646 1.524 . S
C2646 C2645 1.524 . S
C2646 C2647 1.397 . S
C2646 C2651 1.363 . S
C2647 H2618 0.950 . S
C2647 C2646 1.397 . S
C2647 C2648 1.334 . S
C2648 H2619 0.950 . S
C2648 C2647 1.334 . S
C2648 C2649 1.287 . S
C2649 C2648 1.287 . S
C2649 C2650 1.524 . S
C2649 H2652 0.999 . S
C2650 H2620 0.950 . S
C2650 C2649 1.524 . S
C2650 C2651 1.415 . S
C2651 H2621 0.950 . S
C2651 C2646 1.363 . S
C2651 C2650 1.415 . S
H2652 C2649 0.999 . S
H2653 C2634 0.913 . S
H2654 C2672 0.951 . S
H2655 C2674 0.951 . S
H2656 C2676 0.950 . S
H2657 C2677 0.950 . S
H2658 C2679 0.950 . S
H2659 C2682 0.950 . S
H2660 C2683 0.950 . S
H2661 C2685 0.950 . S
H2662 C2686 0.950 . S
H2663 C2687 0.951 . S
H2664 C2689 0.951 . S
H2665 C2691 0.950 . S
H2666 C2692 0.950 . S
H2667 C2694 0.950 . S
H2668 C2697 0.950 . S
H2669 C2698 0.950 . S
H2670 C2700 0.950 . S
H2671 C2701 0.950 . S
C2672 H2654 0.951 . S
C2672 C2673 1.366 . S
C2672 C2674 1.388 . S
C2673 C2672 1.366 . S
C2673 C2677 1.385 . S
C2674 H2655 0.951 . S
C2674 C2672 1.388 . S
C2674 C2675 1.366 . S
C2675 C2674 1.366 . S
C2675 C2676 1.414 . S
C2675 C2678 1.499 . S
C2676 H2656 0.950 . S
C2676 C2675 1.414 . S
C2676 C2677 1.374 . S
C2677 H2657 0.950 . S
C2677 C2673 1.385 . S
C2677 C2676 1.374 . S
C2678 C2675 1.499 . S
C2678 C2679 1.373 . S
C2678 C2680 1.389 . S
C2679 H2658 0.950 . S
C2679 C2678 1.373 . S
C2679 C2695 1.377 . S
C2680 C2678 1.389 . S
C2680 C2681 1.524 . S
C2680 C2694 1.377 . S
C2681 C2680 1.524 . S
C2681 C2682 1.397 . S
C2681 C2686 1.363 . S
C2682 H2659 0.950 . S
C2682 C2681 1.397 . S
C2682 C2683 1.334 . S
C2683 H2660 0.950 . S
C2683 C2682 1.334 . S
C2683 C2684 1.287 . S
C2684 C2683 1.287 . S
C2684 C2685 1.524 . S
C2684 H2703 0.913 . S
C2685 H2661 0.950 . S
C2685 C2684 1.524 . S
C2685 C2686 1.415 . S
C2686 H2662 0.950 . S
C2686 C2681 1.363 . S
C2686 C2685 1.415 . S
C2687 H2663 0.951 . S
C2687 C2688 1.366 . S
C2687 C2689 1.388 . S
C2688 C2687 1.366 . S
C2688 C2692 1.385 . S
C2689 H2664 0.951 . S
C2689 C2687 1.388 . S
C2689 C2690 1.366 . S
C2690 C2689 1.366 . S
C2690 C2691 1.414 . S
C2690 C2693 1.499 . S
C2691 H2665 0.950 . S
C2691 C2690 1.414 . S
C2691 C2692 1.374 . S
C2692 H2666 0.950 . S
C2692 C2688 1.385 . S
C2692 C2691 1.374 . S
C2693 C2690 1.499 . S
C2693 C2694 1.373 . S
C2693 C2695 1.389 . S
C2694 H2667 0.950 . S
C2694 C2680 1.377 . S
C2694 C2693 1.373 . S
C2695 C2679 1.377 . S
C2695 C2693 1.389 . S
C2695 C2696 1.524 . S
C2696 C2695 1.524 . S
C2696 C2697 1.397 . S
C2696 C2701 1.363 . S
C2697 H2668 0.950 . S
C2697 C2696 1.397 . S
C2697 C2698 1.334 . S
C2698 H2669 0.950 . S
C2698 C2697 1.334 . S
C2698 C2699 1.287 . S
C2699 C2698 1.287 . S
C2699 C2700 1.524 . S
C2699 H2702 0.999 . S
C2700 H2670 0.950 . S
C2700 C2699 1.524 . S
C2700 C2701 1.415 . S
C2701 H2671 0.950 . S
C2701 C2696 1.363 . S
C2701 C2700 1.415 . S
H2702 C2699 0.999 . S
H2703 C2684 0.913 . S
H2704 C2722 0.951 . S
H2705 C2724 0.951 . S
H2706 C2726 0.950 . S
H2707 C2727 0.950 . S
H2708 C2729 0.950 . S
H2709 C2732 0.950 . S
H2710 C2733 0.950 . S
H2711 C2735 0.950 . S
H2712 C2736 0.950 . S
H2713 C2737 0.951 . S
H2714 C2739 0.951 . S
H2715 C2741 0.950 . S
H2716 C2742 0.950 . S
H2717 C2744 0.950 . S
H2718 C2747 0.950 . S
H2719 C2748 0.950 . S
H2720 C2750 0.950 . S
H2721 C2751 0.950 . S
C2722 H2704 0.951 . S
C2722 C2723 1.366 . S
C2722 C2724 1.388 . S
C2723 C2722 1.366 . S
C2723 C2727 1.385 . S
C2724 H2705 0.951 . S
C2724 C2722 1.388 . S
C2724 C2725 1.366 . S
C2725 C2724 1.366 . S
C2725 C2726 1.414 . S
C2725 C2728 1.499 . S
C2726 H2706 0.950 . S
C2726 C2725 1.414 . S
C2726 C2727 1.374 . S
C2727 H2707 0.950 . S
C2727 C2723 1.385 . S
C2727 C2726 1.374 . S
C2728 C2725 1.499 . S
C2728 C2729 1.373 . S
C2728 C2730 1.389 . S
C2729 H2708 0.950 . S
C2729 C2728 1.373 . S
C2729 C2745 1.377 . S
C2730 C2728 1.389 . S
C2730 C2731 1.524 . S
C2730 C2744 1.377 . S
C2731 C2730 1.524 . S
C2731 C2732 1.397 . S
C2731 C2736 1.363 . S
C2732 H2709 0.950 . S
C2732 C2731 1.397 . S
C2732 C2733 1.334 . S
C2733 H2710 0.950 . S
C2733 C2732 1.334 . S
C2733 C2734 1.287 . S
C2734 C2733 1.287 . S
C2734 C2735 1.524 . S
C2734 H2753 0.913 . S
C2735 H2711 0.950 . S
C2735 C2734 1.524 . S
C2735 C2736 1.415 . S
C2736 H2712 0.950 . S
C2736 C2731 1.363 . S
C2736 C2735 1.415 . S
C2737 H2713 0.951 . S
C2737 C2738 1.366 . S
C2737 C2739 1.388 . S
C2738 C2737 1.366 . S
C2738 C2742 1.385 . S
C2739 H2714 0.951 . S
C2739 C2737 1.388 . S
C2739 C2740 1.366 . S
C2740 C2739 1.366 . S
C2740 C2741 1.414 . S
C2740 C2743 1.499 . S
C2741 H2715 0.950 . S
C2741 C2740 1.414 . S
C2741 C2742 1.374 . S
C2742 H2716 0.950 . S
C2742 C2738 1.385 . S
C2742 C2741 1.374 . S
C2743 C2740 1.499 . S
C2743 C2744 1.373 . S
C2743 C2745 1.389 . S
C2744 H2717 0.950 . S
C2744 C2730 1.377 . S
C2744 C2743 1.373 . S
C2745 C2729 1.377 . S
C2745 C2743 1.389 . S
C2745 C2746 1.524 . S
C2746 C2745 1.524 . S
C2746 C2747 1.397 . S
C2746 C2751 1.363 . S
C2747 H2718 0.950 . S
C2747 C2746 1.397 . S
C2747 C2748 1.334 . S
C2748 H2719 0.950 . S
C2748 C2747 1.334 . S
C2748 C2749 1.287 . S
C2749 C2748 1.287 . S
C2749 C2750 1.524 . S
C2749 H2752 0.999 . S
C2750 H2720 0.950 . S
C2750 C2749 1.524 . S
C2750 C2751 1.415 . S
C2751 H2721 0.950 . S
C2751 C2746 1.363 . S
C2751 C2750 1.415 . S
H2752 C2749 0.999 . S
H2753 C2734 0.913 . S
H2754 C2772 0.951 . S
H2755 C2774 0.951 . S
H2756 C2776 0.950 . S
H2757 C2777 0.950 . S
H2758 C2779 0.950 . S
H2759 C2782 0.950 . S
H2760 C2783 0.950 . S
H2761 C2785 0.950 . S
H2762 C2786 0.950 . S
H2763 C2787 0.951 . S
H2764 C2789 0.951 . S
H2765 C2791 0.950 . S
H2766 C2792 0.950 . S
H2767 C2794 0.950 . S
H2768 C2797 0.950 . S
H2769 C2798 0.950 . S
H2770 C2800 0.950 . S
H2771 C2801 0.950 . S
C2772 H2754 0.951 . S
C2772 C2773 1.366 . S
C2772 C2774 1.388 . S
C2773 C2772 1.366 . S
C2773 C2777 1.385 . S
C2774 H2755 0.951 . S
C2774 C2772 1.388 . S
C2774 C2775 1.366 . S
C2775 C2774 1.366 . S
C2775 C2776 1.414 . S
C2775 C2778 1.499 . S
C2776 H2756 0.950 . S
C2776 C2775 1.414 . S
C2776 C2777 1.374 . S
C2777 H2757 0.950 . S
C2777 C2773 1.385 . S
C2777 C2776 1.374 . S
C2778 C2775 1.499 . S
C2778 C2779 1.373 . S
C2778 C2780 1.389 . S
C2779 H2758 0.950 . S
C2779 C2778 1.373 . S
C2779 C2795 1.377 . S
C2780 C2778 1.389 . S
C2780 C2781 1.524 . S
C2780 C2794 1.377 . S
C2781 C2780 1.524 . S
C2781 C2782 1.397 . S
C2781 C2786 1.363 . S
C2782 H2759 0.950 . S
C2782 C2781 1.397 . S
C2782 C2783 1.334 . S
C2783 H2760 0.950 . S
C2783 C2782 1.334 . S
C2783 C2784 1.287 . S
C2784 C2783 1.287 . S
C2784 C2785 1.524 . S
C2784 H2803 0.913 . S
C2785 H2761 0.950 . S
C2785 C2784 1.524 . S
C2785 C2786 1.415 . S
C2786 H2762 0.950 . S
C2786 C2781 1.363 . S
C2786 C2785 1.415 . S
C2787 H2763 0.951 . S
C2787 C2788 1.366 . S
C2787 C2789 1.388 . S
C2788 C2787 1.366 . S
C2788 C2792 1.385 . S
C2789 H2764 0.951 . S
C2789 C2787 1.388 . S
C2789 C2790 1.366 . S
C2790 C2789 1.366 . S
C2790 C2791 1.414 . S
C2790 C2793 1.499 . S
C2791 H2765 0.950 . S
C2791 C2790 1.414 . S
C2791 C2792 1.374 . S
C2792 H2766 0.950 . S
C2792 C2788 1.385 . S
C2792 C2791 1.374 . S
C2793 C2790 1.499 . S
C2793 C2794 1.373 . S
C2793 C2795 1.389 . S
C2794 H2767 0.950 . S
C2794 C2780 1.377 . S
C2794 C2793 1.373 . S
C2795 C2779 1.377 . S
C2795 C2793 1.389 . S
C2795 C2796 1.524 . S
C2796 C2795 1.524 . S
C2796 C2797 1.397 . S
C2796 C2801 1.363 . S
C2797 H2768 0.950 . S
C2797 C2796 1.397 . S
C2797 C2798 1.334 . S
C2798 H2769 0.950 . S
C2798 C2797 1.334 . S
C2798 C2799 1.287 . S
C2799 C2798 1.287 . S
C2799 C2800 1.524 . S
C2799 H2802 0.999 . S
C2800 H2770 0.950 . S
C2800 C2799 1.524 . S
C2800 C2801 1.415 . S
C2801 H2771 0.950 . S
C2801 C2796 1.363 . S
C2801 C2800 1.415 . S
H2802 C2799 0.999 . S
H2803 C2784 0.913 . S
H2804 C2822 0.951 . S
H2805 C2824 0.951 . S
H2806 C2826 0.950 . S
H2807 C2827 0.950 . S
H2808 C2829 0.950 . S
H2809 C2832 0.950 . S
H2810 C2833 0.950 . S
H2811 C2835 0.950 . S
H2812 C2836 0.950 . S
H2813 C2837 0.951 . S
H2814 C2839 0.951 . S
H2815 C2841 0.950 . S
H2816 C2842 0.950 . S
H2817 C2844 0.950 . S
H2818 C2847 0.950 . S
H2819 C2848 0.950 . S
H2820 C2850 0.950 . S
H2821 C2851 0.950 . S
C2822 H2804 0.951 . S
C2822 C2823 1.366 . S
C2822 C2824 1.388 . S
C2823 C2822 1.366 . S
C2823 C2827 1.385 . S
C2824 H2805 0.951 . S
C2824 C2822 1.388 . S
C2824 C2825 1.366 . S
C2825 C2824 1.366 . S
C2825 C2826 1.414 . S
C2825 C2828 1.499 . S
C2826 H2806 0.950 . S
C2826 C2825 1.414 . S
C2826 C2827 1.374 . S
C2827 H2807 0.950 . S
C2827 C2823 1.385 . S
C2827 C2826 1.374 . S
C2828 C2825 1.499 . S
C2828 C2829 1.373 . S
C2828 C2830 1.389 . S
C2829 H2808 0.950 . S
C2829 C2828 1.373 . S
C2829 C2845 1.377 . S
C2830 C2828 1.389 . S
C2830 C2831 1.524 . S
C2830 C2844 1.377 . S
C2831 C2830 1.524 . S
C2831 C2832 1.397 . S
C2831 C2836 1.363 . S
C2832 H2809 0.950 . S
C2832 C2831 1.397 . S
C2832 C2833 1.334 . S
C2833 H2810 0.950 . S
C2833 C2832 1.334 . S
C2833 C2834 1.287 . S
C2834 C2833 1.287 . S
C2834 C2835 1.524 . S
C2834 H2853 0.913 . S
C2835 H2811 0.950 . S
C2835 C2834 1.524 . S
C2835 C2836 1.415 . S
C2836 H2812 0.950 . S
C2836 C2831 1.363 . S
C2836 C2835 1.415 . S
C2837 H2813 0.951 . S
C2837 C2838 1.366 . S
C2837 C2839 1.388 . S
C2838 C2837 1.366 . S
C2838 C2842 1.385 . S
C2839 H2814 0.951 . S
C2839 C2837 1.388 . S
C2839 C2840 1.366 . S
C2840 C2839 1.366 . S
C2840 C2841 1.414 . S
C2840 C2843 1.499 . S
C2841 H2815 0.950 . S
C2841 C2840 1.414 . S
C2841 C2842 1.374 . S
C2842 H2816 0.950 . S
C2842 C2838 1.385 . S
C2842 C2841 1.374 . S
C2843 C2840 1.499 . S
C2843 C2844 1.373 . S
C2843 C2845 1.389 . S
C2844 H2817 0.950 . S
C2844 C2830 1.377 . S
C2844 C2843 1.373 . S
C2845 C2829 1.377 . S
C2845 C2843 1.389 . S
C2845 C2846 1.524 . S
C2846 C2845 1.524 . S
C2846 C2847 1.397 . S
C2846 C2851 1.363 . S
C2847 H2818 0.950 . S
C2847 C2846 1.397 . S
C2847 C2848 1.334 . S
C2848 H2819 0.950 . S
C2848 C2847 1.334 . S
C2848 C2849 1.287 . S
C2849 C2848 1.287 . S
C2849 C2850 1.524 . S
C2849 H2852 0.999 . S
C2850 H2820 0.950 . S
C2850 C2849 1.524 . S
C2850 C2851 1.415 . S
C2851 H2821 0.950 . S
C2851 C2846 1.363 . S
C2851 C2850 1.415 . S
H2852 C2849 0.999 . S
H2853 C2834 0.913 . S
H2854 C2872 0.951 . S
H2855 C2874 0.951 . S
H2856 C2876 0.950 . S
H2857 C2877 0.950 . S
H2858 C2879 0.950 . S
H2859 C2882 0.950 . S
H2860 C2883 0.950 . S
H2861 C2885 0.950 . S
H2862 C2886 0.950 . S
H2863 C2887 0.951 . S
H2864 C2889 0.951 . S
H2865 C2891 0.950 . S
H2866 C2892 0.950 . S
H2867 C2894 0.950 . S
H2868 C2897 0.950 . S
H2869 C2898 0.950 . S
H2870 C2900 0.950 . S
H2871 C2901 0.950 . S
C2872 H2854 0.951 . S
C2872 C2873 1.366 . S
C2872 C2874 1.388 . S
C2873 C2872 1.366 . S
C2873 C2877 1.385 . S
C2874 H2855 0.951 . S
C2874 C2872 1.388 . S
C2874 C2875 1.366 . S
C2875 C2874 1.366 . S
C2875 C2876 1.414 . S
C2875 C2878 1.499 . S
C2876 H2856 0.950 . S
C2876 C2875 1.414 . S
C2876 C2877 1.374 . S
C2877 H2857 0.950 . S
C2877 C2873 1.385 . S
C2877 C2876 1.374 . S
C2878 C2875 1.499 . S
C2878 C2879 1.373 . S
C2878 C2880 1.389 . S
C2879 H2858 0.950 . S
C2879 C2878 1.373 . S
C2879 C2895 1.377 . S
C2880 C2878 1.389 . S
C2880 C2881 1.524 . S
C2880 C2894 1.377 . S
C2881 C2880 1.524 . S
C2881 C2882 1.397 . S
C2881 C2886 1.363 . S
C2882 H2859 0.950 . S
C2882 C2881 1.397 . S
C2882 C2883 1.334 . S
C2883 H2860 0.950 . S
C2883 C2882 1.334 . S
C2883 C2884 1.287 . S
C2884 C2883 1.287 . S
C2884 C2885 1.524 . S
C2884 H2903 0.913 . S
C2885 H2861 0.950 . S
C2885 C2884 1.524 . S
C2885 C2886 1.415 . S
C2886 H2862 0.950 . S
C2886 C2881 1.363 . S
C2886 C2885 1.415 . S
C2887 H2863 0.951 . S
C2887 C2888 1.366 . S
C2887 C2889 1.388 . S
C2888 C2887 1.366 . S
C2888 C2892 1.385 . S
C2889 H2864 0.951 . S
C2889 C2887 1.388 . S
C2889 C2890 1.366 . S
C2890 C2889 1.366 . S
C2890 C2891 1.414 . S
C2890 C2893 1.499 . S
C2891 H2865 0.950 . S
C2891 C2890 1.414 . S
C2891 C2892 1.374 . S
C2892 H2866 0.950 . S
C2892 C2888 1.385 . S
C2892 C2891 1.374 . S
C2893 C2890 1.499 . S
C2893 C2894 1.373 . S
C2893 C2895 1.389 . S
C2894 H2867 0.950 . S
C2894 C2880 1.377 . S
C2894 C2893 1.373 . S
C2895 C2879 1.377 . S
C2895 C2893 1.389 . S
C2895 C2896 1.524 . S
C2896 C2895 1.524 . S
C2896 C2897 1.397 . S
C2896 C2901 1.363 . S
C2897 H2868 0.950 . S
C2897 C2896 1.397 . S
C2897 C2898 1.334 . S
C2898 H2869 0.950 . S
C2898 C2897 1.334 . S
C2898 C2899 1.287 . S
C2899 C2898 1.287 . S
C2899 C2900 1.524 . S
C2899 H2902 0.999 . S
C2900 H2870 0.950 . S
C2900 C2899 1.524 . S
C2900 C2901 1.415 . S
C2901 H2871 0.950 . S
C2901 C2896 1.363 . S
C2901 C2900 1.415 . S
H2902 C2899 0.999 . S
H2903 C2884 0.913 . S
H2904 C2922 0.951 . S
H2905 C2924 0.934 1_655 S
H2906 C2926 0.950 . S
H2907 C2927 0.950 . S
H2908 C2929 0.950 . S
H2909 C2932 0.950 . S
H2910 C2933 0.950 . S
H2911 C2935 0.950 . S
H2912 C2936 0.950 . S
H2913 C2937 0.951 . S
H2914 C2939 0.933 1_455 S
H2915 C2941 0.950 . S
H2916 C2942 0.950 . S
H2917 C2944 0.950 . S
H2918 C2947 0.950 . S
H2919 C2948 0.950 . S
H2920 C2950 0.950 . S
H2921 C2951 0.950 . S
C2922 H2904 0.951 . S
C2922 C2923 1.366 . S
C2922 C2924 1.388 . S
C2923 C2922 1.366 . S
C2923 C2927 1.385 . S
C2924 H2905 0.934 1_455 S
C2924 C2922 1.388 . S
C2924 C2925 1.366 . S
C2925 C2924 1.366 . S
C2925 C2926 1.414 . S
C2925 C2928 1.499 . S
C2926 H2906 0.950 . S
C2926 C2925 1.414 . S
C2926 C2927 1.374 . S
C2927 H2907 0.950 . S
C2927 C2923 1.385 . S
C2927 C2926 1.374 . S
C2928 C2925 1.499 . S
C2928 C2929 1.373 . S
C2928 C2930 1.389 . S
C2929 H2908 0.950 . S
C2929 C2928 1.373 . S
C2929 C2945 1.377 1_455 S
C2930 C2928 1.389 . S
C2930 C2931 1.524 . S
C2930 C2944 1.377 1_455 S
C2931 C2930 1.524 . S
C2931 C2932 1.397 . S
C2931 C2936 1.363 1_455 S
C2932 H2909 0.950 . S
C2932 C2931 1.397 . S
C2932 C2933 1.334 . S
C2933 H2910 0.950 . S
C2933 C2932 1.334 . S
C2933 C2934 1.287 . S
C2934 C2933 1.287 . S
C2934 C2935 1.524 1_455 S
C2934 H2953 0.913 . S
C2935 H2911 0.950 . S
C2935 C2934 1.524 1_655 S
C2935 C2936 1.415 . S
C2936 H2912 0.950 . S
C2936 C2931 1.363 1_655 S
C2936 C2935 1.415 . S
C2937 H2913 0.951 . S
C2937 C2938 1.366 . S
C2937 C2939 1.388 . S
C2938 C2937 1.366 . S
C2938 C2942 1.385 . S
C2939 H2914 0.933 1_655 S
C2939 C2937 1.388 . S
C2939 C2940 1.366 . S
C2940 C2939 1.366 . S
C2940 C2941 1.414 . S
C2940 C2943 1.499 . S
C2941 H2915 0.950 . S
C2941 C2940 1.414 . S
C2941 C2942 1.374 . S
C2942 H2916 0.950 . S
C2942 C2938 1.385 . S
C2942 C2941 1.374 . S
C2943 C2940 1.499 . S
C2943 C2944 1.373 . S
C2943 C2945 1.389 . S
C2944 H2917 0.950 . S
C2944 C2930 1.377 1_655 S
C2944 C2943 1.373 . S
C2945 C2929 1.377 1_655 S
C2945 C2943 1.389 . S
C2945 C2946 1.524 . S
C2946 C2945 1.524 . S
C2946 C2947 1.397 . S
C2946 C2951 1.363 1_655 S
C2947 H2918 0.950 . S
C2947 C2946 1.397 . S
C2947 C2948 1.334 . S
C2948 H2919 0.950 . S
C2948 C2947 1.334 . S
C2948 C2949 1.287 . S
C2949 C2948 1.287 . S
C2949 C2950 1.524 1_655 S
C2949 H2952 0.999 . S
C2950 H2920 0.950 . S
C2950 C2949 1.524 1_455 S
C2950 C2951 1.415 . S
C2951 H2921 0.950 . S
C2951 C2946 1.363 1_455 S
C2951 C2950 1.415 . S
H2952 C2949 0.999 . S
H2953 C2934 0.913 . S
H2954 C2972 0.951 . S
H2955 C2974 0.951 . S
H2956 C2976 0.950 . S
H2957 C2977 0.950 . S
H2958 C2979 0.950 . S
H2959 C2982 0.950 . S
H2960 C2983 0.950 . S
H2961 C2985 0.950 . S
H2962 C2986 0.950 . S
H2963 C2987 0.951 . S
H2964 C2989 0.951 . S
H2965 C2991 0.950 . S
H2966 C2992 0.950 . S
H2967 C2994 0.950 . S
H2968 C2997 0.950 . S
H2969 C2998 0.950 . S
H2970 C3000 0.950 . S
H2971 C3001 0.950 . S
C2972 H2954 0.951 . S
C2972 C2973 1.366 . S
C2972 C2974 1.388 . S
C2973 C2972 1.366 . S
C2973 C2977 1.385 . S
C2974 H2955 0.951 . S
C2974 C2972 1.388 . S
C2974 C2975 1.366 . S
C2975 C2974 1.366 . S
C2975 C2976 1.414 . S
C2975 C2978 1.499 . S
C2976 H2956 0.950 . S
C2976 C2975 1.414 . S
C2976 C2977 1.374 . S
C2977 H2957 0.950 . S
C2977 C2973 1.385 . S
C2977 C2976 1.374 . S
C2978 C2975 1.499 . S
C2978 C2979 1.373 . S
C2978 C2980 1.389 . S
C2979 H2958 0.950 . S
C2979 C2978 1.373 . S
C2979 C2995 1.377 . S
C2980 C2978 1.389 . S
C2980 C2981 1.524 . S
C2980 C2994 1.377 . S
C2981 C2980 1.524 . S
C2981 C2982 1.397 . S
C2981 C2986 1.363 . S
C2982 H2959 0.950 . S
C2982 C2981 1.397 . S
C2982 C2983 1.334 . S
C2983 H2960 0.950 . S
C2983 C2982 1.334 . S
C2983 C2984 1.287 . S
C2984 C2983 1.287 . S
C2984 C2985 1.524 . S
C2984 H3003 0.913 . S
C2985 H2961 0.950 . S
C2985 C2984 1.524 . S
C2985 C2986 1.415 . S
C2986 H2962 0.950 . S
C2986 C2981 1.363 . S
C2986 C2985 1.415 . S
C2987 H2963 0.951 . S
C2987 C2988 1.366 . S
C2987 C2989 1.388 . S
C2988 C2987 1.366 . S
C2988 C2992 1.385 . S
C2989 H2964 0.951 . S
C2989 C2987 1.388 . S
C2989 C2990 1.366 . S
C2990 C2989 1.366 . S
C2990 C2991 1.414 . S
C2990 C2993 1.499 . S
C2991 H2965 0.950 . S
C2991 C2990 1.414 . S
C2991 C2992 1.374 . S
C2992 H2966 0.950 . S
C2992 C2988 1.385 . S
C2992 C2991 1.374 . S
C2993 C2990 1.499 . S
C2993 C2994 1.373 . S
C2993 C2995 1.389 . S
C2994 H2967 0.950 . S
C2994 C2980 1.377 . S
C2994 C2993 1.373 . S
C2995 C2979 1.377 . S
C2995 C2993 1.389 . S
C2995 C2996 1.524 . S
C2996 C2995 1.524 . S
C2996 C2997 1.397 . S
C2996 C3001 1.363 . S
C2997 H2968 0.950 . S
C2997 C2996 1.397 . S
C2997 C2998 1.334 . S
C2998 H2969 0.950 . S
C2998 C2997 1.334 . S
C2998 C2999 1.287 . S
C2999 C2998 1.287 . S
C2999 C3000 1.524 . S
C2999 H3002 0.999 . S
C3000 H2970 0.950 . S
C3000 C2999 1.524 . S
C3000 C3001 1.415 . S
C3001 H2971 0.950 . S
C3001 C2996 1.363 . S
C3001 C3000 1.415 . S
H3002 C2999 0.999 . S
H3003 C2984 0.913 . S
H3004 C3022 0.951 . S
H3005 C3024 0.951 1_545 S
H3006 C3026 0.950 . S
H3007 C3027 0.950 . S
H3008 C3029 0.950 . S
H3009 C3032 0.950 . S
H3010 C3033 0.950 . S
H3011 C3035 0.950 . S
H3012 C3036 0.950 . S
H3013 C3037 0.951 . S
H3014 C3039 0.951 1_565 S
H3015 C3041 0.950 . S
H3016 C3042 0.950 . S
H3017 C3044 0.950 . S
H3018 C3047 0.950 . S
H3019 C3048 0.950 . S
H3020 C3050 0.950 . S
H3021 C3051 0.950 . S
C3022 H3004 0.951 . S
C3022 C3023 1.366 . S
C3022 C3024 1.388 . S
C3023 C3022 1.366 . S
C3023 C3027 1.385 . S
C3024 H3005 0.951 1_565 S
C3024 C3022 1.388 . S
C3024 C3025 1.366 . S
C3025 C3024 1.366 . S
C3025 C3026 1.414 . S
C3025 C3028 1.499 . S
C3026 H3006 0.950 . S
C3026 C3025 1.414 . S
C3026 C3027 1.374 . S
C3027 H3007 0.950 . S
C3027 C3023 1.385 . S
C3027 C3026 1.374 . S
C3028 C3025 1.499 . S
C3028 C3029 1.373 . S
C3028 C3030 1.362 1_565 S
C3029 H3008 0.950 . S
C3029 C3028 1.373 . S
C3029 C3045 1.391 . S
C3030 C3028 1.362 1_545 S
C3030 C3031 1.514 . S
C3030 C3044 1.390 . S
C3031 C3030 1.514 . S
C3031 C3032 1.366 1_545 S
C3031 C3036 1.418 . S
C3032 H3009 0.950 . S
C3032 C3031 1.366 1_565 S
C3032 C3033 1.334 . S
C3033 H3010 0.950 . S
C3033 C3032 1.334 . S
C3033 C3034 1.287 . S
C3034 C3033 1.287 . S
C3034 C3035 1.524 1_565 S
C3034 H3053 0.913 . S
C3035 H3011 0.950 . S
C3035 C3034 1.524 1_545 S
C3035 C3036 1.415 . S
C3036 H3012 0.950 . S
C3036 C3031 1.418 . S
C3036 C3035 1.415 . S
C3037 H3013 0.951 . S
C3037 C3038 1.366 . S
C3037 C3039 1.388 . S
C3038 C3037 1.366 . S
C3038 C3042 1.385 . S
C3039 H3014 0.951 1_545 S
C3039 C3037 1.388 . S
C3039 C3040 1.366 . S
C3040 C3039 1.366 . S
C3040 C3041 1.414 . S
C3040 C3043 1.499 . S
C3041 H3015 0.950 . S
C3041 C3040 1.414 . S
C3041 C3042 1.374 . S
C3042 H3016 0.950 . S
C3042 C3038 1.385 . S
C3042 C3041 1.374 . S
C3043 C3040 1.499 . S
C3043 C3044 1.373 . S
C3043 C3045 1.361 1_545 S
C3044 H3017 0.950 . S
C3044 C3030 1.390 . S
C3044 C3043 1.373 . S
C3045 C3029 1.391 . S
C3045 C3043 1.361 1_565 S
C3045 C3046 1.514 . S
C3046 C3045 1.514 . S
C3046 C3047 1.365 1_565 S
C3046 C3051 1.420 . S
C3047 H3018 0.950 . S
C3047 C3046 1.365 1_545 S
C3047 C3048 1.334 . S
C3048 H3019 0.950 . S
C3048 C3047 1.334 . S
C3048 C3049 1.287 . S
C3049 C3048 1.287 . S
C3049 C3050 1.524 1_545 S
C3049 H3052 0.999 . S
C3050 H3020 0.950 . S
C3050 C3049 1.524 1_565 S
C3050 C3051 1.415 . S
C3051 H3021 0.950 . S
C3051 C3046 1.420 . S
C3051 C3050 1.415 . S
H3052 C3049 0.999 . S
H3053 C3034 0.913 . S
H3054 C3072 0.951 . S
H3055 C3074 0.951 . S
H3056 C3076 0.950 1_545 S
H3057 C3077 0.950 . S
H3058 C3079 0.955 . S
H3059 C3082 0.950 1_545 S
H3060 C3083 0.950 . S
H3061 C3085 0.950 . S
H3062 C3086 0.950 . S
H3063 C3087 0.951 . S
H3064 C3089 0.951 . S
H3065 C3091 0.950 1_565 S
H3066 C3092 0.950 . S
H3067 C3094 0.955 . S
H3068 C3097 0.950 1_565 S
H3069 C3098 0.950 . S
H3070 C3100 0.950 . S
H3071 C3101 0.950 . S
C3072 H3054 0.951 . S
C3072 C3073 1.366 . S
C3072 C3074 1.388 . S
C3073 C3072 1.366 . S
C3073 C3077 1.385 . S
C3074 H3055 0.951 . S
C3074 C3072 1.388 . S
C3074 C3075 1.366 . S
C3075 C3074 1.366 . S
C3075 C3076 1.414 . S
C3075 C3078 1.499 . S
C3076 H3056 0.950 1_565 S
C3076 C3075 1.414 . S
C3076 C3077 1.374 . S
C3077 H3057 0.950 . S
C3077 C3073 1.385 . S
C3077 C3076 1.374 . S
C3078 C3075 1.499 . S
C3078 C3079 1.392 . S
C3078 C3080 1.389 . S
C3079 H3058 0.955 . S
C3079 C3078 1.392 . S
C3079 C3095 1.368 1_565 S
C3080 C3078 1.389 . S
C3080 C3081 1.524 . S
C3080 C3094 1.367 1_565 S
C3081 C3080 1.524 . S
C3081 C3082 1.397 . S
C3081 C3086 1.363 . S
C3082 H3059 0.950 1_565 S
C3082 C3081 1.397 . S
C3082 C3083 1.334 . S
C3083 H3060 0.950 . S
C3083 C3082 1.334 . S
C3083 C3084 1.287 . S
C3084 C3083 1.287 . S
C3084 C3085 1.524 . S
C3084 H3103 0.913 . S
C3085 H3061 0.950 . S
C3085 C3084 1.524 . S
C3085 C3086 1.415 . S
C3086 H3062 0.950 . S
C3086 C3081 1.363 . S
C3086 C3085 1.415 . S
C3087 H3063 0.951 . S
C3087 C3088 1.366 . S
C3087 C3089 1.388 . S
C3088 C3087 1.366 . S
C3088 C3092 1.385 . S
C3089 H3064 0.951 . S
C3089 C3087 1.388 . S
C3089 C3090 1.366 . S
C3090 C3089 1.366 . S
C3090 C3091 1.414 . S
C3090 C3093 1.499 . S
C3091 H3065 0.950 1_545 S
C3091 C3090 1.414 . S
C3091 C3092 1.374 . S
C3092 H3066 0.950 . S
C3092 C3088 1.385 . S
C3092 C3091 1.374 . S
C3093 C3090 1.499 . S
C3093 C3094 1.393 . S
C3093 C3095 1.389 . S
C3094 H3067 0.955 . S
C3094 C3080 1.367 1_545 S
C3094 C3093 1.393 . S
C3095 C3079 1.368 1_545 S
C3095 C3093 1.389 . S
C3095 C3096 1.524 . S
C3096 C3095 1.524 . S
C3096 C3097 1.397 . S
C3096 C3101 1.363 . S
C3097 H3068 0.950 1_545 S
C3097 C3096 1.397 . S
C3097 C3098 1.334 . S
C3098 H3069 0.950 . S
C3098 C3097 1.334 . S
C3098 C3099 1.287 . S
C3099 C3098 1.287 . S
C3099 C3100 1.524 . S
C3099 H3102 0.999 . S
C3100 H3070 0.950 . S
C3100 C3099 1.524 . S
C3100 C3101 1.415 . S
C3101 H3071 0.950 . S
C3101 C3096 1.363 . S
C3101 C3100 1.415 . S
H3102 C3099 0.999 . S
H3103 C3084 0.913 . S
H3104 C3122 0.951 . S
H3105 C3124 0.951 1_455 S
H3106 C3126 0.950 . S
H3107 C3127 0.950 . S
H3108 C3129 0.950 . S
H3109 C3132 0.950 1_655 S
H3110 C3133 0.950 . S
H3111 C3135 0.950 . S
H3112 C3136 0.950 . S
H3113 C3137 0.951 . S
H3114 C3139 0.951 1_655 S
H3115 C3141 0.950 . S
H3116 C3142 0.950 . S
H3117 C3144 0.950 . S
H3118 C3147 0.950 1_455 S
H3119 C3148 0.950 . S
H3120 C3150 0.950 . S
H3121 C3151 0.950 . S
C3122 H3104 0.951 . S
C3122 C3123 1.366 . S
C3122 C3124 1.388 . S
C3123 C3122 1.366 . S
C3123 C3127 1.385 . S
C3124 H3105 0.951 1_655 S
C3124 C3122 1.388 . S
C3124 C3125 1.366 . S
C3125 C3124 1.366 . S
C3125 C3126 1.414 . S
C3125 C3128 1.499 . S
C3126 H3106 0.950 . S
C3126 C3125 1.414 . S
C3126 C3127 1.374 . S
C3127 H3107 0.950 . S
C3127 C3123 1.385 . S
C3127 C3126 1.374 . S
C3128 C3125 1.499 . S
C3128 C3129 1.373 . S
C3128 C3130 1.389 1_655 S
C3129 H3108 0.950 . S
C3129 C3128 1.373 . S
C3129 C3145 1.377 . S
C3130 C3128 1.389 1_455 S
C3130 C3131 1.524 . S
C3130 C3144 1.377 . S
C3131 C3130 1.524 . S
C3131 C3132 1.397 . S
C3131 C3136 1.363 . S
C3132 H3109 0.950 1_455 S
C3132 C3131 1.397 . S
C3132 C3133 1.334 . S
C3133 H3110 0.950 . S
C3133 C3132 1.334 . S
C3133 C3134 1.287 . S
C3134 C3133 1.287 . S
C3134 C3135 1.524 . S
C3134 H3153 0.913 . S
C3135 H3111 0.950 . S
C3135 C3134 1.524 . S
C3135 C3136 1.415 . S
C3136 H3112 0.950 . S
C3136 C3131 1.363 . S
C3136 C3135 1.415 . S
C3137 H3113 0.951 . S
C3137 C3138 1.366 . S
C3137 C3139 1.388 . S
C3138 C3137 1.366 . S
C3138 C3142 1.385 . S
C3139 H3114 0.951 1_455 S
C3139 C3137 1.388 . S
C3139 C3140 1.366 . S
C3140 C3139 1.366 . S
C3140 C3141 1.414 . S
C3140 C3143 1.499 . S
C3141 H3115 0.950 . S
C3141 C3140 1.414 . S
C3141 C3142 1.374 . S
C3142 H3116 0.950 . S
C3142 C3138 1.385 . S
C3142 C3141 1.374 . S
C3143 C3140 1.499 . S
C3143 C3144 1.373 . S
C3143 C3145 1.389 1_455 S
C3144 H3117 0.950 . S
C3144 C3130 1.377 . S
C3144 C3143 1.373 . S
C3145 C3129 1.377 . S
C3145 C3143 1.389 1_655 S
C3145 C3146 1.524 . S
C3146 C3145 1.524 . S
C3146 C3147 1.397 . S
C3146 C3151 1.363 . S
C3147 H3118 0.950 1_655 S
C3147 C3146 1.397 . S
C3147 C3148 1.334 . S
C3148 H3119 0.950 . S
C3148 C3147 1.334 . S
C3148 C3149 1.287 . S
C3149 C3148 1.287 . S
C3149 C3150 1.524 . S
C3149 H3152 0.999 . S
C3150 H3120 0.950 . S
C3150 C3149 1.524 . S
C3150 C3151 1.415 . S
C3151 H3121 0.950 . S
C3151 C3146 1.363 . S
C3151 C3150 1.415 . S
H3152 C3149 0.999 . S
H3153 C3134 0.913 . S
H3154 C3172 0.951 . S
H3155 C3174 0.951 . S
H3156 C3176 0.950 . S
H3157 C3177 0.950 . S
H3158 C3179 0.950 . S
H3159 C3182 0.950 . S
H3160 C3183 0.950 . S
H3161 C3185 0.950 . S
H3162 C3186 0.950 . S
H3163 C3187 0.951 . S
H3164 C3189 0.951 . S
H3165 C3191 0.950 . S
H3166 C3192 0.950 . S
H3167 C3194 0.950 . S
H3168 C3197 0.950 . S
H3169 C3198 0.950 . S
H3170 C3200 0.950 . S
H3171 C3201 0.950 . S
C3172 H3154 0.951 . S
C3172 C3173 1.366 . S
C3172 C3174 1.388 . S
C3173 C3172 1.366 . S
C3173 C3177 1.385 . S
C3174 H3155 0.951 . S
C3174 C3172 1.388 . S
C3174 C3175 1.366 . S
C3175 C3174 1.366 . S
C3175 C3176 1.414 . S
C3175 C3178 1.499 . S
C3176 H3156 0.950 . S
C3176 C3175 1.414 . S
C3176 C3177 1.374 . S
C3177 H3157 0.950 . S
C3177 C3173 1.385 . S
C3177 C3176 1.374 . S
C3178 C3175 1.499 . S
C3178 C3179 1.373 . S
C3178 C3180 1.389 . S
C3179 H3158 0.950 . S
C3179 C3178 1.373 . S
C3179 C3195 1.377 . S
C3180 C3178 1.389 . S
C3180 C3181 1.524 . S
C3180 C3194 1.377 . S
C3181 C3180 1.524 . S
C3181 C3182 1.397 . S
C3181 C3186 1.363 . S
C3182 H3159 0.950 . S
C3182 C3181 1.397 . S
C3182 C3183 1.334 . S
C3183 H3160 0.950 . S
C3183 C3182 1.334 . S
C3183 C3184 1.287 . S
C3184 C3183 1.287 . S
C3184 C3185 1.524 . S
C3184 H3203 0.913 . S
C3185 H3161 0.950 . S
C3185 C3184 1.524 . S
C3185 C3186 1.415 . S
C3186 H3162 0.950 . S
C3186 C3181 1.363 . S
C3186 C3185 1.415 . S
C3187 H3163 0.951 . S
C3187 C3188 1.366 . S
C3187 C3189 1.388 . S
C3188 C3187 1.366 . S
C3188 C3192 1.385 . S
C3189 H3164 0.951 . S
C3189 C3187 1.388 . S
C3189 C3190 1.366 . S
C3190 C3189 1.366 . S
C3190 C3191 1.414 . S
C3190 C3193 1.499 . S
C3191 H3165 0.950 . S
C3191 C3190 1.414 . S
C3191 C3192 1.374 . S
C3192 H3166 0.950 . S
C3192 C3188 1.385 . S
C3192 C3191 1.374 . S
C3193 C3190 1.499 . S
C3193 C3194 1.373 . S
C3193 C3195 1.389 . S
C3194 H3167 0.950 . S
C3194 C3180 1.377 . S
C3194 C3193 1.373 . S
C3195 C3179 1.377 . S
C3195 C3193 1.389 . S
C3195 C3196 1.524 . S
C3196 C3195 1.524 . S
C3196 C3197 1.397 . S
C3196 C3201 1.363 . S
C3197 H3168 0.950 . S
C3197 C3196 1.397 . S
C3197 C3198 1.334 . S
C3198 H3169 0.950 . S
C3198 C3197 1.334 . S
C3198 C3199 1.287 . S
C3199 C3198 1.287 . S
C3199 C3200 1.524 . S
C3199 H3202 0.999 . S
C3200 H3170 0.950 . S
C3200 C3199 1.524 . S
C3200 C3201 1.415 . S
C3201 H3171 0.950 . S
C3201 C3196 1.363 . S
C3201 C3200 1.415 . S
H3202 C3199 0.999 . S
H3203 C3184 0.913 . S
H3204 C3222 0.951 . S
H3205 C3224 0.951 . S
H3206 C3226 0.950 . S
H3207 C3227 0.950 . S
H3208 C3229 0.950 . S
H3209 C3232 0.950 . S
H3210 C3233 0.950 . S
H3211 C3235 0.950 . S
H3212 C3236 0.950 . S
H3213 C3237 0.951 . S
H3214 C3239 0.951 . S
H3215 C3241 0.950 . S
H3216 C3242 0.950 . S
H3217 C3244 0.950 . S
H3218 C3247 0.950 . S
H3219 C3248 0.950 . S
H3220 C3250 0.950 . S
H3221 C3251 0.950 . S
C3222 H3204 0.951 . S
C3222 C3223 1.366 . S
C3222 C3224 1.388 . S
C3223 C3222 1.366 . S
C3223 C3227 1.385 . S
C3224 H3205 0.951 . S
C3224 C3222 1.388 . S
C3224 C3225 1.366 . S
C3225 C3224 1.366 . S
C3225 C3226 1.414 . S
C3225 C3228 1.499 . S
C3226 H3206 0.950 . S
C3226 C3225 1.414 . S
C3226 C3227 1.374 . S
C3227 H3207 0.950 . S
C3227 C3223 1.385 . S
C3227 C3226 1.374 . S
C3228 C3225 1.499 . S
C3228 C3229 1.373 . S
C3228 C3230 1.389 . S
C3229 H3208 0.950 . S
C3229 C3228 1.373 . S
C3229 C3245 1.377 . S
C3230 C3228 1.389 . S
C3230 C3231 1.524 . S
C3230 C3244 1.377 . S
C3231 C3230 1.524 . S
C3231 C3232 1.397 . S
C3231 C3236 1.363 . S
C3232 H3209 0.950 . S
C3232 C3231 1.397 . S
C3232 C3233 1.334 . S
C3233 H3210 0.950 . S
C3233 C3232 1.334 . S
C3233 C3234 1.287 . S
C3234 C3233 1.287 . S
C3234 C3235 1.524 . S
C3234 H3253 0.913 . S
C3235 H3211 0.950 . S
C3235 C3234 1.524 . S
C3235 C3236 1.415 . S
C3236 H3212 0.950 . S
C3236 C3231 1.363 . S
C3236 C3235 1.415 . S
C3237 H3213 0.951 . S
C3237 C3238 1.366 . S
C3237 C3239 1.388 . S
C3238 C3237 1.366 . S
C3238 C3242 1.385 . S
C3239 H3214 0.951 . S
C3239 C3237 1.388 . S
C3239 C3240 1.366 . S
C3240 C3239 1.366 . S
C3240 C3241 1.414 . S
C3240 C3243 1.499 . S
C3241 H3215 0.950 . S
C3241 C3240 1.414 . S
C3241 C3242 1.374 . S
C3242 H3216 0.950 . S
C3242 C3238 1.385 . S
C3242 C3241 1.374 . S
C3243 C3240 1.499 . S
C3243 C3244 1.373 . S
C3243 C3245 1.389 . S
C3244 H3217 0.950 . S
C3244 C3230 1.377 . S
C3244 C3243 1.373 . S
C3245 C3229 1.377 . S
C3245 C3243 1.389 . S
C3245 C3246 1.524 . S
C3246 C3245 1.524 . S
C3246 C3247 1.397 . S
C3246 C3251 1.363 . S
C3247 H3218 0.950 . S
C3247 C3246 1.397 . S
C3247 C3248 1.334 . S
C3248 H3219 0.950 . S
C3248 C3247 1.334 . S
C3248 C3249 1.287 . S
C3249 C3248 1.287 . S
C3249 C3250 1.524 . S
C3249 H3252 0.999 . S
C3250 H3220 0.950 . S
C3250 C3249 1.524 . S
C3250 C3251 1.415 . S
C3251 H3221 0.950 . S
C3251 C3246 1.363 . S
C3251 C3250 1.415 . S
H3252 C3249 0.999 . S
H3253 C3234 0.913 . S
H3254 C3272 0.951 . S
H3255 C3274 0.951 . S
H3256 C3276 0.950 . S
H3257 C3277 0.950 . S
H3258 C3279 0.950 . S
H3259 C3282 0.950 . S
H3260 C3283 0.950 . S
H3261 C3285 0.950 . S
H3262 C3286 0.950 . S
H3263 C3287 0.951 . S
H3264 C3289 0.951 . S
H3265 C3291 0.950 . S
H3266 C3292 0.950 . S
H3267 C3294 0.950 . S
H3268 C3297 0.950 . S
H3269 C3298 0.950 . S
H3270 C3300 0.950 . S
H3271 C3301 0.950 . S
C3272 H3254 0.951 . S
C3272 C3273 1.366 . S
C3272 C3274 1.388 . S
C3273 C3272 1.366 . S
C3273 C3277 1.385 . S
C3274 H3255 0.951 . S
C3274 C3272 1.388 . S
C3274 C3275 1.366 . S
C3275 C3274 1.366 . S
C3275 C3276 1.414 . S
C3275 C3278 1.499 . S
C3276 H3256 0.950 . S
C3276 C3275 1.414 . S
C3276 C3277 1.374 . S
C3277 H3257 0.950 . S
C3277 C3273 1.385 . S
C3277 C3276 1.374 . S
C3278 C3275 1.499 . S
C3278 C3279 1.373 . S
C3278 C3280 1.389 . S
C3279 H3258 0.950 . S
C3279 C3278 1.373 . S
C3279 C3295 1.377 . S
C3280 C3278 1.389 . S
C3280 C3281 1.524 . S
C3280 C3294 1.377 . S
C3281 C3280 1.524 . S
C3281 C3282 1.397 . S
C3281 C3286 1.363 . S
C3282 H3259 0.950 . S
C3282 C3281 1.397 . S
C3282 C3283 1.334 . S
C3283 H3260 0.950 . S
C3283 C3282 1.334 . S
C3283 C3284 1.287 . S
C3284 C3283 1.287 . S
C3284 C3285 1.524 . S
C3284 H3303 0.913 . S
C3285 H3261 0.950 . S
C3285 C3284 1.524 . S
C3285 C3286 1.415 . S
C3286 H3262 0.950 . S
C3286 C3281 1.363 . S
C3286 C3285 1.415 . S
C3287 H3263 0.951 . S
C3287 C3288 1.366 . S
C3287 C3289 1.388 . S
C3288 C3287 1.366 . S
C3288 C3292 1.385 . S
C3289 H3264 0.951 . S
C3289 C3287 1.388 . S
C3289 C3290 1.366 . S
C3290 C3289 1.366 . S
C3290 C3291 1.414 . S
C3290 C3293 1.499 . S
C3291 H3265 0.950 . S
C3291 C3290 1.414 . S
C3291 C3292 1.374 . S
C3292 H3266 0.950 . S
C3292 C3288 1.385 . S
C3292 C3291 1.374 . S
C3293 C3290 1.499 . S
C3293 C3294 1.373 . S
C3293 C3295 1.389 . S
C3294 H3267 0.950 . S
C3294 C3280 1.377 . S
C3294 C3293 1.373 . S
C3295 C3279 1.377 . S
C3295 C3293 1.389 . S
C3295 C3296 1.524 . S
C3296 C3295 1.524 . S
C3296 C3297 1.397 . S
C3296 C3301 1.363 . S
C3297 H3268 0.950 . S
C3297 C3296 1.397 . S
C3297 C3298 1.334 . S
C3298 H3269 0.950 . S
C3298 C3297 1.334 . S
C3298 C3299 1.287 . S
C3299 C3298 1.287 . S
C3299 C3300 1.524 . S
C3299 H3302 0.999 . S
C3300 H3270 0.950 . S
C3300 C3299 1.524 . S
C3300 C3301 1.415 . S
C3301 H3271 0.950 . S
C3301 C3296 1.363 . S
C3301 C3300 1.415 . S
H3302 C3299 0.999 . S
H3303 C3284 0.913 . S
H3304 C3322 0.951 . S
H3305 C3324 0.951 . S
H3306 C3326 0.950 . S
H3307 C3327 0.950 . S
H3308 C3329 0.950 . S
H3309 C3332 0.950 . S
H3310 C3333 0.950 . S
H3311 C3335 0.950 . S
H3312 C3336 0.950 . S
H3313 C3337 0.951 . S
H3314 C3339 0.951 . S
H3315 C3341 0.950 . S
H3316 C3342 0.950 . S
H3317 C3344 0.950 . S
H3318 C3347 0.950 . S
H3319 C3348 0.950 . S
H3320 C3350 0.950 . S
H3321 C3351 0.950 . S
C3322 H3304 0.951 . S
C3322 C3323 1.366 . S
C3322 C3324 1.388 . S
C3323 C3322 1.366 . S
C3323 C3327 1.385 . S
C3324 H3305 0.951 . S
C3324 C3322 1.388 . S
C3324 C3325 1.366 . S
C3325 C3324 1.366 . S
C3325 C3326 1.414 . S
C3325 C3328 1.499 . S
C3326 H3306 0.950 . S
C3326 C3325 1.414 . S
C3326 C3327 1.374 . S
C3327 H3307 0.950 . S
C3327 C3323 1.385 . S
C3327 C3326 1.374 . S
C3328 C3325 1.499 . S
C3328 C3329 1.373 . S
C3328 C3330 1.389 . S
C3329 H3308 0.950 . S
C3329 C3328 1.373 . S
C3329 C3345 1.377 . S
C3330 C3328 1.389 . S
C3330 C3331 1.524 . S
C3330 C3344 1.377 . S
C3331 C3330 1.524 . S
C3331 C3332 1.397 . S
C3331 C3336 1.363 . S
C3332 H3309 0.950 . S
C3332 C3331 1.397 . S
C3332 C3333 1.334 . S
C3333 H3310 0.950 . S
C3333 C3332 1.334 . S
C3333 C3334 1.287 . S
C3334 C3333 1.287 . S
C3334 C3335 1.524 . S
C3334 H3353 0.913 . S
C3335 H3311 0.950 . S
C3335 C3334 1.524 . S
C3335 C3336 1.415 . S
C3336 H3312 0.950 . S
C3336 C3331 1.363 . S
C3336 C3335 1.415 . S
C3337 H3313 0.951 . S
C3337 C3338 1.366 . S
C3337 C3339 1.388 . S
C3338 C3337 1.366 . S
C3338 C3342 1.385 . S
C3339 H3314 0.951 . S
C3339 C3337 1.388 . S
C3339 C3340 1.366 . S
C3340 C3339 1.366 . S
C3340 C3341 1.414 . S
C3340 C3343 1.499 . S
C3341 H3315 0.950 . S
C3341 C3340 1.414 . S
C3341 C3342 1.374 . S
C3342 H3316 0.950 . S
C3342 C3338 1.385 . S
C3342 C3341 1.374 . S
C3343 C3340 1.499 . S
C3343 C3344 1.373 . S
C3343 C3345 1.389 . S
C3344 H3317 0.950 . S
C3344 C3330 1.377 . S
C3344 C3343 1.373 . S
C3345 C3329 1.377 . S
C3345 C3343 1.389 . S
C3345 C3346 1.524 . S
C3346 C3345 1.524 . S
C3346 C3347 1.397 . S
C3346 C3351 1.363 . S
C3347 H3318 0.950 . S
C3347 C3346 1.397 . S
C3347 C3348 1.334 . S
C3348 H3319 0.950 . S
C3348 C3347 1.334 . S
C3348 C3349 1.287 . S
C3349 C3348 1.287 . S
C3349 C3350 1.524 . S
C3349 H3352 0.999 . S
C3350 H3320 0.950 . S
C3350 C3349 1.524 . S
C3350 C3351 1.415 . S
C3351 H3321 0.950 . S
C3351 C3346 1.363 . S
C3351 C3350 1.415 . S
H3352 C3349 0.999 . S
H3353 C3334 0.913 . S
H3354 C3372 0.951 . S
H3355 C3374 0.951 . S
H3356 C3376 0.950 . S
H3357 C3377 0.950 . S
H3358 C3379 0.950 . S
H3359 C3382 0.950 . S
H3360 C3383 0.950 . S
H3361 C3385 0.950 . S
H3362 C3386 0.950 . S
H3363 C3387 0.951 . S
H3364 C3389 0.951 . S
H3365 C3391 0.950 . S
H3366 C3392 0.950 . S
H3367 C3394 0.950 . S
H3368 C3397 0.950 . S
H3369 C3398 0.950 . S
H3370 C3400 0.950 . S
H3371 C3401 0.950 . S
C3372 H3354 0.951 . S
C3372 C3373 1.366 . S
C3372 C3374 1.388 . S
C3373 C3372 1.366 . S
C3373 C3377 1.385 . S
C3374 H3355 0.951 . S
C3374 C3372 1.388 . S
C3374 C3375 1.366 . S
C3375 C3374 1.366 . S
C3375 C3376 1.414 . S
C3375 C3378 1.499 . S
C3376 H3356 0.950 . S
C3376 C3375 1.414 . S
C3376 C3377 1.374 . S
C3377 H3357 0.950 . S
C3377 C3373 1.385 . S
C3377 C3376 1.374 . S
C3378 C3375 1.499 . S
C3378 C3379 1.373 . S
C3378 C3380 1.389 . S
C3379 H3358 0.950 . S
C3379 C3378 1.373 . S
C3379 C3395 1.377 . S
C3380 C3378 1.389 . S
C3380 C3381 1.524 . S
C3380 C3394 1.377 . S
C3381 C3380 1.524 . S
C3381 C3382 1.397 . S
C3381 C3386 1.363 . S
C3382 H3359 0.950 . S
C3382 C3381 1.397 . S
C3382 C3383 1.334 . S
C3383 H3360 0.950 . S
C3383 C3382 1.334 . S
C3383 C3384 1.287 . S
C3384 C3383 1.287 . S
C3384 C3385 1.524 . S
C3384 H3403 0.913 . S
C3385 H3361 0.950 . S
C3385 C3384 1.524 . S
C3385 C3386 1.415 . S
C3386 H3362 0.950 . S
C3386 C3381 1.363 . S
C3386 C3385 1.415 . S
C3387 H3363 0.951 . S
C3387 C3388 1.366 . S
C3387 C3389 1.388 . S
C3388 C3387 1.366 . S
C3388 C3392 1.385 . S
C3389 H3364 0.951 . S
C3389 C3387 1.388 . S
C3389 C3390 1.366 . S
C3390 C3389 1.366 . S
C3390 C3391 1.414 . S
C3390 C3393 1.499 . S
C3391 H3365 0.950 . S
C3391 C3390 1.414 . S
C3391 C3392 1.374 . S
C3392 H3366 0.950 . S
C3392 C3388 1.385 . S
C3392 C3391 1.374 . S
C3393 C3390 1.499 . S
C3393 C3394 1.373 . S
C3393 C3395 1.389 . S
C3394 H3367 0.950 . S
C3394 C3380 1.377 . S
C3394 C3393 1.373 . S
C3395 C3379 1.377 . S
C3395 C3393 1.389 . S
C3395 C3396 1.524 . S
C3396 C3395 1.524 . S
C3396 C3397 1.397 . S
C3396 C3401 1.363 . S
C3397 H3368 0.950 . S
C3397 C3396 1.397 . S
C3397 C3398 1.334 . S
C3398 H3369 0.950 . S
C3398 C3397 1.334 . S
C3398 C3399 1.287 . S
C3399 C3398 1.287 . S
C3399 C3400 1.524 . S
C3399 H3402 0.999 . S
C3400 H3370 0.950 . S
C3400 C3399 1.524 . S
C3400 C3401 1.415 . S
C3401 H3371 0.950 . S
C3401 C3396 1.363 . S
C3401 C3400 1.415 . S
H3402 C3399 0.999 . S
H3403 C3384 0.913 . S
H3404 C3422 0.951 . S
H3405 C3424 0.951 . S
H3406 C3426 0.950 . S
H3407 C3427 0.950 . S
H3408 C3429 0.950 . S
H3409 C3432 0.950 . S
H3410 C3433 0.950 . S
H3411 C3435 0.950 . S
H3412 C3436 0.950 . S
H3413 C3437 0.951 . S
H3414 C3439 0.951 . S
H3415 C3441 0.950 . S
H3416 C3442 0.950 . S
H3417 C3444 0.950 . S
H3418 C3447 0.950 . S
H3419 C3448 0.950 . S
H3420 C3450 0.950 . S
H3421 C3451 0.950 . S
C3422 H3404 0.951 . S
C3422 C3423 1.366 . S
C3422 C3424 1.388 . S
C3423 C3422 1.366 . S
C3423 C3427 1.385 . S
C3424 H3405 0.951 . S
C3424 C3422 1.388 . S
C3424 C3425 1.366 . S
C3425 C3424 1.366 . S
C3425 C3426 1.414 . S
C3425 C3428 1.499 . S
C3426 H3406 0.950 . S
C3426 C3425 1.414 . S
C3426 C3427 1.374 . S
C3427 H3407 0.950 . S
C3427 C3423 1.385 . S
C3427 C3426 1.374 . S
C3428 C3425 1.499 . S
C3428 C3429 1.373 . S
C3428 C3430 1.389 . S
C3429 H3408 0.950 . S
C3429 C3428 1.373 . S
C3429 C3445 1.377 . S
C3430 C3428 1.389 . S
C3430 C3431 1.524 . S
C3430 C3444 1.377 . S
C3431 C3430 1.524 . S
C3431 C3432 1.397 . S
C3431 C3436 1.363 . S
C3432 H3409 0.950 . S
C3432 C3431 1.397 . S
C3432 C3433 1.334 . S
C3433 H3410 0.950 . S
C3433 C3432 1.334 . S
C3433 C3434 1.287 . S
C3434 C3433 1.287 . S
C3434 C3435 1.524 . S
C3434 H3453 0.913 . S
C3435 H3411 0.950 . S
C3435 C3434 1.524 . S
C3435 C3436 1.415 . S
C3436 H3412 0.950 . S
C3436 C3431 1.363 . S
C3436 C3435 1.415 . S
C3437 H3413 0.951 . S
C3437 C3438 1.366 . S
C3437 C3439 1.388 . S
C3438 C3437 1.366 . S
C3438 C3442 1.385 . S
C3439 H3414 0.951 . S
C3439 C3437 1.388 . S
C3439 C3440 1.366 . S
C3440 C3439 1.366 . S
C3440 C3441 1.414 . S
C3440 C3443 1.499 . S
C3441 H3415 0.950 . S
C3441 C3440 1.414 . S
C3441 C3442 1.374 . S
C3442 H3416 0.950 . S
C3442 C3438 1.385 . S
C3442 C3441 1.374 . S
C3443 C3440 1.499 . S
C3443 C3444 1.373 . S
C3443 C3445 1.389 . S
C3444 H3417 0.950 . S
C3444 C3430 1.377 . S
C3444 C3443 1.373 . S
C3445 C3429 1.377 . S
C3445 C3443 1.389 . S
C3445 C3446 1.524 . S
C3446 C3445 1.524 . S
C3446 C3447 1.397 . S
C3446 C3451 1.363 . S
C3447 H3418 0.950 . S
C3447 C3446 1.397 . S
C3447 C3448 1.334 . S
C3448 H3419 0.950 . S
C3448 C3447 1.334 . S
C3448 C3449 1.287 . S
C3449 C3448 1.287 . S
C3449 C3450 1.524 . S
C3449 H3452 0.999 . S
C3450 H3420 0.950 . S
C3450 C3449 1.524 . S
C3450 C3451 1.415 . S
C3451 H3421 0.950 . S
C3451 C3446 1.363 . S
C3451 C3450 1.415 . S
H3452 C3449 0.999 . S
H3453 C3434 0.913 . S
H3454 C3472 0.951 . S
H3455 C3474 0.951 . S
H3456 C3476 0.950 . S
H3457 C3477 0.950 . S
H3458 C3479 0.950 . S
H3459 C3482 0.950 . S
H3460 C3483 0.950 . S
H3461 C3485 0.950 . S
H3462 C3486 0.950 . S
H3463 C3487 0.951 . S
H3464 C3489 0.951 . S
H3465 C3491 0.950 . S
H3466 C3492 0.950 . S
H3467 C3494 0.950 . S
H3468 C3497 0.950 . S
H3469 C3498 0.950 . S
H3470 C3500 0.950 . S
H3471 C3501 0.950 . S
C3472 H3454 0.951 . S
C3472 C3473 1.366 . S
C3472 C3474 1.388 . S
C3473 C3472 1.366 . S
C3473 C3477 1.385 . S
C3474 H3455 0.951 . S
C3474 C3472 1.388 . S
C3474 C3475 1.366 . S
C3475 C3474 1.366 . S
C3475 C3476 1.414 . S
C3475 C3478 1.499 . S
C3476 H3456 0.950 . S
C3476 C3475 1.414 . S
C3476 C3477 1.374 . S
C3477 H3457 0.950 . S
C3477 C3473 1.385 . S
C3477 C3476 1.374 . S
C3478 C3475 1.499 . S
C3478 C3479 1.373 . S
C3478 C3480 1.389 . S
C3479 H3458 0.950 . S
C3479 C3478 1.373 . S
C3479 C3495 1.377 . S
C3480 C3478 1.389 . S
C3480 C3481 1.524 . S
C3480 C3494 1.377 . S
C3481 C3480 1.524 . S
C3481 C3482 1.397 . S
C3481 C3486 1.363 . S
C3482 H3459 0.950 . S
C3482 C3481 1.397 . S
C3482 C3483 1.334 . S
C3483 H3460 0.950 . S
C3483 C3482 1.334 . S
C3483 C3484 1.287 . S
C3484 C3483 1.287 . S
C3484 C3485 1.524 . S
C3484 H3503 0.913 . S
C3485 H3461 0.950 . S
C3485 C3484 1.524 . S
C3485 C3486 1.415 . S
C3486 H3462 0.950 . S
C3486 C3481 1.363 . S
C3486 C3485 1.415 . S
C3487 H3463 0.951 . S
C3487 C3488 1.366 . S
C3487 C3489 1.388 . S
C3488 C3487 1.366 . S
C3488 C3492 1.385 . S
C3489 H3464 0.951 . S
C3489 C3487 1.388 . S
C3489 C3490 1.366 . S
C3490 C3489 1.366 . S
C3490 C3491 1.414 . S
C3490 C3493 1.499 . S
C3491 H3465 0.950 . S
C3491 C3490 1.414 . S
C3491 C3492 1.374 . S
C3492 H3466 0.950 . S
C3492 C3488 1.385 . S
C3492 C3491 1.374 . S
C3493 C3490 1.499 . S
C3493 C3494 1.373 . S
C3493 C3495 1.389 . S
C3494 H3467 0.950 . S
C3494 C3480 1.377 . S
C3494 C3493 1.373 . S
C3495 C3479 1.377 . S
C3495 C3493 1.389 . S
C3495 C3496 1.524 . S
C3496 C3495 1.524 . S
C3496 C3497 1.397 . S
C3496 C3501 1.363 . S
C3497 H3468 0.950 . S
C3497 C3496 1.397 . S
C3497 C3498 1.334 . S
C3498 H3469 0.950 . S
C3498 C3497 1.334 . S
C3498 C3499 1.287 . S
C3499 C3498 1.287 . S
C3499 C3500 1.524 . S
C3499 H3502 0.999 . S
C3500 H3470 0.950 . S
C3500 C3499 1.524 . S
C3500 C3501 1.415 . S
C3501 H3471 0.950 . S
C3501 C3496 1.363 . S
C3501 C3500 1.415 . S
H3502 C3499 0.999 . S
H3503 C3484 0.913 . S
H3504 C3522 0.951 . S
H3505 C3524 0.951 . S
H3506 C3526 0.950 . S
H3507 C3527 0.950 . S
H3508 C3529 0.950 . S
H3509 C3532 0.950 . S
H3510 C3533 0.950 . S
H3511 C3535 0.950 . S
H3512 C3536 0.950 . S
H3513 C3537 0.951 . S
H3514 C3539 0.951 . S
H3515 C3541 0.950 . S
H3516 C3542 0.950 . S
H3517 C3544 0.950 . S
H3518 C3547 0.950 . S
H3519 C3548 0.950 . S
H3520 C3550 0.950 . S
H3521 C3551 0.950 . S
C3522 H3504 0.951 . S
C3522 C3523 1.366 . S
C3522 C3524 1.388 . S
C3523 C3522 1.366 . S
C3523 C3527 1.385 . S
C3524 H3505 0.951 . S
C3524 C3522 1.388 . S
C3524 C3525 1.366 . S
C3525 C3524 1.366 . S
C3525 C3526 1.414 . S
C3525 C3528 1.499 . S
C3526 H3506 0.950 . S
C3526 C3525 1.414 . S
C3526 C3527 1.374 . S
C3527 H3507 0.950 . S
C3527 C3523 1.385 . S
C3527 C3526 1.374 . S
C3528 C3525 1.499 . S
C3528 C3529 1.373 . S
C3528 C3530 1.389 . S
C3529 H3508 0.950 . S
C3529 C3528 1.373 . S
C3529 C3545 1.377 . S
C3530 C3528 1.389 . S
C3530 C3531 1.524 . S
C3530 C3544 1.377 . S
C3531 C3530 1.524 . S
C3531 C3532 1.397 . S
C3531 C3536 1.363 . S
C3532 H3509 0.950 . S
C3532 C3531 1.397 . S
C3532 C3533 1.334 . S
C3533 H3510 0.950 . S
C3533 C3532 1.334 . S
C3533 C3534 1.287 . S
C3534 C3533 1.287 . S
C3534 C3535 1.524 . S
C3534 H3553 0.913 . S
C3535 H3511 0.950 . S
C3535 C3534 1.524 . S
C3535 C3536 1.415 . S
C3536 H3512 0.950 . S
C3536 C3531 1.363 . S
C3536 C3535 1.415 . S
C3537 H3513 0.951 . S
C3537 C3538 1.366 . S
C3537 C3539 1.388 . S
C3538 C3537 1.366 . S
C3538 C3542 1.385 . S
C3539 H3514 0.951 . S
C3539 C3537 1.388 . S
C3539 C3540 1.366 . S
C3540 C3539 1.366 . S
C3540 C3541 1.414 . S
C3540 C3543 1.499 . S
C3541 H3515 0.950 . S
C3541 C3540 1.414 . S
C3541 C3542 1.374 . S
C3542 H3516 0.950 . S
C3542 C3538 1.385 . S
C3542 C3541 1.374 . S
C3543 C3540 1.499 . S
C3543 C3544 1.373 . S
C3543 C3545 1.389 . S
C3544 H3517 0.950 . S
C3544 C3530 1.377 . S
C3544 C3543 1.373 . S
C3545 C3529 1.377 . S
C3545 C3543 1.389 . S
C3545 C3546 1.524 . S
C3546 C3545 1.524 . S
C3546 C3547 1.397 . S
C3546 C3551 1.363 . S
C3547 H3518 0.950 . S
C3547 C3546 1.397 . S
C3547 C3548 1.334 . S
C3548 H3519 0.950 . S
C3548 C3547 1.334 . S
C3548 C3549 1.287 . S
C3549 C3548 1.287 . S
C3549 C3550 1.524 . S
C3549 H3552 0.999 . S
C3550 H3520 0.950 . S
C3550 C3549 1.524 . S
C3550 C3551 1.415 . S
C3551 H3521 0.950 . S
C3551 C3546 1.363 . S
C3551 C3550 1.415 . S
H3552 C3549 0.999 . S
H3553 C3534 0.913 . S
H3554 C3572 0.951 . S
H3555 C3574 0.951 . S
H3556 C3576 0.950 . S
H3557 C3577 0.950 . S
H3558 C3579 0.950 . S
H3559 C3582 0.950 . S
H3560 C3583 0.950 . S
H3561 C3585 0.950 . S
H3562 C3586 0.950 . S
H3563 C3587 0.951 . S
H3564 C3589 0.951 . S
H3565 C3591 0.950 . S
H3566 C3592 0.950 . S
H3567 C3594 0.950 . S
H3568 C3597 0.950 . S
H3569 C3598 0.950 . S
H3570 C3600 0.950 . S
H3571 C3601 0.950 . S
C3572 H3554 0.951 . S
C3572 C3573 1.366 . S
C3572 C3574 1.388 . S
C3573 C3572 1.366 . S
C3573 C3577 1.385 . S
C3574 H3555 0.951 . S
C3574 C3572 1.388 . S
C3574 C3575 1.366 . S
C3575 C3574 1.366 . S
C3575 C3576 1.414 . S
C3575 C3578 1.499 . S
C3576 H3556 0.950 . S
C3576 C3575 1.414 . S
C3576 C3577 1.374 . S
C3577 H3557 0.950 . S
C3577 C3573 1.385 . S
C3577 C3576 1.374 . S
C3578 C3575 1.499 . S
C3578 C3579 1.373 . S
C3578 C3580 1.389 . S
C3579 H3558 0.950 . S
C3579 C3578 1.373 . S
C3579 C3595 1.377 . S
C3580 C3578 1.389 . S
C3580 C3581 1.524 . S
C3580 C3594 1.377 . S
C3581 C3580 1.524 . S
C3581 C3582 1.397 . S
C3581 C3586 1.363 . S
C3582 H3559 0.950 . S
C3582 C3581 1.397 . S
C3582 C3583 1.334 . S
C3583 H3560 0.950 . S
C3583 C3582 1.334 . S
C3583 C3584 1.287 . S
C3584 C3583 1.287 . S
C3584 C3585 1.524 . S
C3584 H3603 0.913 . S
C3585 H3561 0.950 . S
C3585 C3584 1.524 . S
C3585 C3586 1.415 . S
C3586 H3562 0.950 . S
C3586 C3581 1.363 . S
C3586 C3585 1.415 . S
C3587 H3563 0.951 . S
C3587 C3588 1.366 . S
C3587 C3589 1.388 . S
C3588 C3587 1.366 . S
C3588 C3592 1.385 . S
C3589 H3564 0.951 . S
C3589 C3587 1.388 . S
C3589 C3590 1.366 . S
C3590 C3589 1.366 . S
C3590 C3591 1.414 . S
C3590 C3593 1.499 . S
C3591 H3565 0.950 . S
C3591 C3590 1.414 . S
C3591 C3592 1.374 . S
C3592 H3566 0.950 . S
C3592 C3588 1.385 . S
C3592 C3591 1.374 . S
C3593 C3590 1.499 . S
C3593 C3594 1.373 . S
C3593 C3595 1.389 . S
C3594 H3567 0.950 . S
C3594 C3580 1.377 . S
C3594 C3593 1.373 . S
C3595 C3579 1.377 . S
C3595 C3593 1.389 . S
C3595 C3596 1.524 . S
C3596 C3595 1.524 . S
C3596 C3597 1.397 . S
C3596 C3601 1.363 . S
C3597 H3568 0.950 . S
C3597 C3596 1.397 . S
C3597 C3598 1.334 . S
C3598 H3569 0.950 . S
C3598 C3597 1.334 . S
C3598 C3599 1.287 . S
C3599 C3598 1.287 . S
C3599 C3600 1.524 . S
C3599 H3602 0.999 . S
C3600 H3570 0.950 . S
C3600 C3599 1.524 . S
C3600 C3601 1.415 . S
C3601 H3571 0.950 . S
C3601 C3596 1.363 . S
C3601 C3600 1.415 . S
H3602 C3599 0.999 . S
H3603 C3584 0.913 . S
H3604 C3622 0.951 . S
H3605 C3624 0.951 . S
H3606 C3626 0.950 . S
H3607 C3627 0.950 . S
H3608 C3629 0.950 . S
H3609 C3632 0.950 . S
H3610 C3633 0.950 . S
H3611 C3635 0.950 . S
H3612 C3636 0.950 . S
H3613 C3637 0.951 . S
H3614 C3639 0.951 . S
H3615 C3641 0.950 . S
H3616 C3642 0.950 . S
H3617 C3644 0.950 . S
H3618 C3647 0.950 . S
H3619 C3648 0.950 . S
H3620 C3650 0.950 . S
H3621 C3651 0.950 . S
C3622 H3604 0.951 . S
C3622 C3623 1.366 . S
C3622 C3624 1.388 . S
C3623 C3622 1.366 . S
C3623 C3627 1.385 . S
C3624 H3605 0.951 . S
C3624 C3622 1.388 . S
C3624 C3625 1.366 . S
C3625 C3624 1.366 . S
C3625 C3626 1.414 . S
C3625 C3628 1.499 . S
C3626 H3606 0.950 . S
C3626 C3625 1.414 . S
C3626 C3627 1.374 . S
C3627 H3607 0.950 . S
C3627 C3623 1.385 . S
C3627 C3626 1.374 . S
C3628 C3625 1.499 . S
C3628 C3629 1.373 . S
C3628 C3630 1.389 . S
C3629 H3608 0.950 . S
C3629 C3628 1.373 . S
C3629 C3645 1.377 . S
C3630 C3628 1.389 . S
C3630 C3631 1.524 . S
C3630 C3644 1.377 . S
C3631 C3630 1.524 . S
C3631 C3632 1.397 . S
C3631 C3636 1.363 . S
C3632 H3609 0.950 . S
C3632 C3631 1.397 . S
C3632 C3633 1.334 . S
C3633 H3610 0.950 . S
C3633 C3632 1.334 . S
C3633 C3634 1.287 . S
C3634 C3633 1.287 . S
C3634 C3635 1.524 . S
C3634 H3653 0.913 . S
C3635 H3611 0.950 . S
C3635 C3634 1.524 . S
C3635 C3636 1.415 . S
C3636 H3612 0.950 . S
C3636 C3631 1.363 . S
C3636 C3635 1.415 . S
C3637 H3613 0.951 . S
C3637 C3638 1.366 . S
C3637 C3639 1.388 . S
C3638 C3637 1.366 . S
C3638 C3642 1.385 . S
C3639 H3614 0.951 . S
C3639 C3637 1.388 . S
C3639 C3640 1.366 . S
C3640 C3639 1.366 . S
C3640 C3641 1.414 . S
C3640 C3643 1.499 . S
C3641 H3615 0.950 . S
C3641 C3640 1.414 . S
C3641 C3642 1.374 . S
C3642 H3616 0.950 . S
C3642 C3638 1.385 . S
C3642 C3641 1.374 . S
C3643 C3640 1.499 . S
C3643 C3644 1.373 . S
C3643 C3645 1.389 . S
C3644 H3617 0.950 . S
C3644 C3630 1.377 . S
C3644 C3643 1.373 . S
C3645 C3629 1.377 . S
C3645 C3643 1.389 . S
C3645 C3646 1.524 . S
C3646 C3645 1.524 . S
C3646 C3647 1.397 . S
C3646 C3651 1.363 . S
C3647 H3618 0.950 . S
C3647 C3646 1.397 . S
C3647 C3648 1.334 . S
C3648 H3619 0.950 . S
C3648 C3647 1.334 . S
C3648 C3649 1.287 . S
C3649 C3648 1.287 . S
C3649 C3650 1.524 . S
C3649 H3652 0.999 . S
C3650 H3620 0.950 . S
C3650 C3649 1.524 . S
C3650 C3651 1.415 . S
C3651 H3621 0.950 . S
C3651 C3646 1.363 . S
C3651 C3650 1.415 . S
H3652 C3649 0.999 . S
H3653 C3634 0.913 . S
H3654 C3672 0.951 . S
H3655 C3674 0.951 . S
H3656 C3676 0.950 . S
H3657 C3677 0.950 . S
H3658 C3679 0.950 . S
H3659 C3682 0.950 . S
H3660 C3683 0.950 . S
H3661 C3685 0.950 . S
H3662 C3686 0.950 . S
H3663 C3687 0.951 . S
H3664 C3689 0.951 . S
H3665 C3691 0.950 . S
H3666 C3692 0.950 . S
H3667 C3694 0.950 . S
H3668 C3697 0.950 . S
H3669 C3698 0.950 . S
H3670 C3700 0.950 . S
H3671 C3701 0.950 . S
C3672 H3654 0.951 . S
C3672 C3673 1.366 . S
C3672 C3674 1.388 . S
C3673 C3672 1.366 . S
C3673 C3677 1.385 . S
C3674 H3655 0.951 . S
C3674 C3672 1.388 . S
C3674 C3675 1.366 . S
C3675 C3674 1.366 . S
C3675 C3676 1.414 . S
C3675 C3678 1.499 . S
C3676 H3656 0.950 . S
C3676 C3675 1.414 . S
C3676 C3677 1.374 . S
C3677 H3657 0.950 . S
C3677 C3673 1.385 . S
C3677 C3676 1.374 . S
C3678 C3675 1.499 . S
C3678 C3679 1.373 . S
C3678 C3680 1.389 . S
C3679 H3658 0.950 . S
C3679 C3678 1.373 . S
C3679 C3695 1.377 . S
C3680 C3678 1.389 . S
C3680 C3681 1.524 . S
C3680 C3694 1.377 . S
C3681 C3680 1.524 . S
C3681 C3682 1.397 . S
C3681 C3686 1.363 . S
C3682 H3659 0.950 . S
C3682 C3681 1.397 . S
C3682 C3683 1.334 . S
C3683 H3660 0.950 . S
C3683 C3682 1.334 . S
C3683 C3684 1.287 . S
C3684 C3683 1.287 . S
C3684 C3685 1.524 . S
C3684 H3703 0.913 . S
C3685 H3661 0.950 . S
C3685 C3684 1.524 . S
C3685 C3686 1.415 . S
C3686 H3662 0.950 . S
C3686 C3681 1.363 . S
C3686 C3685 1.415 . S
C3687 H3663 0.951 . S
C3687 C3688 1.366 . S
C3687 C3689 1.388 . S
C3688 C3687 1.366 . S
C3688 C3692 1.385 . S
C3689 H3664 0.951 . S
C3689 C3687 1.388 . S
C3689 C3690 1.366 . S
C3690 C3689 1.366 . S
C3690 C3691 1.414 . S
C3690 C3693 1.499 . S
C3691 H3665 0.950 . S
C3691 C3690 1.414 . S
C3691 C3692 1.374 . S
C3692 H3666 0.950 . S
C3692 C3688 1.385 . S
C3692 C3691 1.374 . S
C3693 C3690 1.499 . S
C3693 C3694 1.373 . S
C3693 C3695 1.389 . S
C3694 H3667 0.950 . S
C3694 C3680 1.377 . S
C3694 C3693 1.373 . S
C3695 C3679 1.377 . S
C3695 C3693 1.389 . S
C3695 C3696 1.524 . S
C3696 C3695 1.524 . S
C3696 C3697 1.397 . S
C3696 C3701 1.363 . S
C3697 H3668 0.950 . S
C3697 C3696 1.397 . S
C3697 C3698 1.334 . S
C3698 H3669 0.950 . S
C3698 C3697 1.334 . S
C3698 C3699 1.287 . S
C3699 C3698 1.287 . S
C3699 C3700 1.524 . S
C3699 H3702 0.999 . S
C3700 H3670 0.950 . S
C3700 C3699 1.524 . S
C3700 C3701 1.415 . S
C3701 H3671 0.950 . S
C3701 C3696 1.363 . S
C3701 C3700 1.415 . S
H3702 C3699 0.999 . S
H3703 C3684 0.913 . S
H3704 C3722 0.951 . S
H3705 C3724 0.951 . S
H3706 C3726 0.950 . S
H3707 C3727 0.950 . S
H3708 C3729 0.950 . S
H3709 C3732 0.950 . S
H3710 C3733 0.950 . S
H3711 C3735 0.950 . S
H3712 C3736 0.950 . S
H3713 C3737 0.951 . S
H3714 C3739 0.951 . S
H3715 C3741 0.950 . S
H3716 C3742 0.950 . S
H3717 C3744 0.950 . S
H3718 C3747 0.950 . S
H3719 C3748 0.950 . S
H3720 C3750 0.950 . S
H3721 C3751 0.950 . S
C3722 H3704 0.951 . S
C3722 C3723 1.366 . S
C3722 C3724 1.388 . S
C3723 C3722 1.366 . S
C3723 C3727 1.385 . S
C3724 H3705 0.951 . S
C3724 C3722 1.388 . S
C3724 C3725 1.366 . S
C3725 C3724 1.366 . S
C3725 C3726 1.414 . S
C3725 C3728 1.499 . S
C3726 H3706 0.950 . S
C3726 C3725 1.414 . S
C3726 C3727 1.374 . S
C3727 H3707 0.950 . S
C3727 C3723 1.385 . S
C3727 C3726 1.374 . S
C3728 C3725 1.499 . S
C3728 C3729 1.373 . S
C3728 C3730 1.389 . S
C3729 H3708 0.950 . S
C3729 C3728 1.373 . S
C3729 C3745 1.377 . S
C3730 C3728 1.389 . S
C3730 C3731 1.524 . S
C3730 C3744 1.377 . S
C3731 C3730 1.524 . S
C3731 C3732 1.397 . S
C3731 C3736 1.363 . S
C3732 H3709 0.950 . S
C3732 C3731 1.397 . S
C3732 C3733 1.334 . S
C3733 H3710 0.950 . S
C3733 C3732 1.334 . S
C3733 C3734 1.287 . S
C3734 C3733 1.287 . S
C3734 C3735 1.524 . S
C3734 H3753 0.913 . S
C3735 H3711 0.950 . S
C3735 C3734 1.524 . S
C3735 C3736 1.415 . S
C3736 H3712 0.950 . S
C3736 C3731 1.363 . S
C3736 C3735 1.415 . S
C3737 H3713 0.951 . S
C3737 C3738 1.366 . S
C3737 C3739 1.388 . S
C3738 C3737 1.366 . S
C3738 C3742 1.385 . S
C3739 H3714 0.951 . S
C3739 C3737 1.388 . S
C3739 C3740 1.366 . S
C3740 C3739 1.366 . S
C3740 C3741 1.414 . S
C3740 C3743 1.499 . S
C3741 H3715 0.950 . S
C3741 C3740 1.414 . S
C3741 C3742 1.374 . S
C3742 H3716 0.950 . S
C3742 C3738 1.385 . S
C3742 C3741 1.374 . S
C3743 C3740 1.499 . S
C3743 C3744 1.373 . S
C3743 C3745 1.389 . S
C3744 H3717 0.950 . S
C3744 C3730 1.377 . S
C3744 C3743 1.373 . S
C3745 C3729 1.377 . S
C3745 C3743 1.389 . S
C3745 C3746 1.524 . S
C3746 C3745 1.524 . S
C3746 C3747 1.397 . S
C3746 C3751 1.363 . S
C3747 H3718 0.950 . S
C3747 C3746 1.397 . S
C3747 C3748 1.334 . S
C3748 H3719 0.950 . S
C3748 C3747 1.334 . S
C3748 C3749 1.287 . S
C3749 C3748 1.287 . S
C3749 C3750 1.524 . S
C3749 H3752 0.999 . S
C3750 H3720 0.950 . S
C3750 C3749 1.524 . S
C3750 C3751 1.415 . S
C3751 H3721 0.950 . S
C3751 C3746 1.363 . S
C3751 C3750 1.415 . S
H3752 C3749 0.999 . S
H3753 C3734 0.913 . S
H3754 C3772 0.951 . S
H3755 C3774 0.951 . S
H3756 C3776 0.950 . S
H3757 C3777 0.950 . S
H3758 C3779 0.950 . S
H3759 C3782 0.950 . S
H3760 C3783 0.950 . S
H3761 C3785 0.950 . S
H3762 C3786 0.950 . S
H3763 C3787 0.951 . S
H3764 C3789 0.951 . S
H3765 C3791 0.950 . S
H3766 C3792 0.950 . S
H3767 C3794 0.950 . S
H3768 C3797 0.950 . S
H3769 C3798 0.950 . S
H3770 C3800 0.950 . S
H3771 C3801 0.950 . S
C3772 H3754 0.951 . S
C3772 C3773 1.366 . S
C3772 C3774 1.388 . S
C3773 C3772 1.366 . S
C3773 C3777 1.385 . S
C3774 H3755 0.951 . S
C3774 C3772 1.388 . S
C3774 C3775 1.366 . S
C3775 C3774 1.366 . S
C3775 C3776 1.414 . S
C3775 C3778 1.499 . S
C3776 H3756 0.950 . S
C3776 C3775 1.414 . S
C3776 C3777 1.374 . S
C3777 H3757 0.950 . S
C3777 C3773 1.385 . S
C3777 C3776 1.374 . S
C3778 C3775 1.499 . S
C3778 C3779 1.373 . S
C3778 C3780 1.389 . S
C3779 H3758 0.950 . S
C3779 C3778 1.373 . S
C3779 C3795 1.377 . S
C3780 C3778 1.389 . S
C3780 C3781 1.524 . S
C3780 C3794 1.377 . S
C3781 C3780 1.524 . S
C3781 C3782 1.397 . S
C3781 C3786 1.363 . S
C3782 H3759 0.950 . S
C3782 C3781 1.397 . S
C3782 C3783 1.334 . S
C3783 H3760 0.950 . S
C3783 C3782 1.334 . S
C3783 C3784 1.287 . S
C3784 C3783 1.287 . S
C3784 C3785 1.524 . S
C3784 H3803 0.913 . S
C3785 H3761 0.950 . S
C3785 C3784 1.524 . S
C3785 C3786 1.415 . S
C3786 H3762 0.950 . S
C3786 C3781 1.363 . S
C3786 C3785 1.415 . S
C3787 H3763 0.951 . S
C3787 C3788 1.366 . S
C3787 C3789 1.388 . S
C3788 C3787 1.366 . S
C3788 C3792 1.385 . S
C3789 H3764 0.951 . S
C3789 C3787 1.388 . S
C3789 C3790 1.366 . S
C3790 C3789 1.366 . S
C3790 C3791 1.414 . S
C3790 C3793 1.499 . S
C3791 H3765 0.950 . S
C3791 C3790 1.414 . S
C3791 C3792 1.374 . S
C3792 H3766 0.950 . S
C3792 C3788 1.385 . S
C3792 C3791 1.374 . S
C3793 C3790 1.499 . S
C3793 C3794 1.373 . S
C3793 C3795 1.389 . S
C3794 H3767 0.950 . S
C3794 C3780 1.377 . S
C3794 C3793 1.373 . S
C3795 C3779 1.377 . S
C3795 C3793 1.389 . S
C3795 C3796 1.524 . S
C3796 C3795 1.524 . S
C3796 C3797 1.397 . S
C3796 C3801 1.363 . S
C3797 H3768 0.950 . S
C3797 C3796 1.397 . S
C3797 C3798 1.334 . S
C3798 H3769 0.950 . S
C3798 C3797 1.334 . S
C3798 C3799 1.287 . S
C3799 C3798 1.287 . S
C3799 C3800 1.524 . S
C3799 H3802 0.999 . S
C3800 H3770 0.950 . S
C3800 C3799 1.524 . S
C3800 C3801 1.415 . S
C3801 H3771 0.950 . S
C3801 C3796 1.363 . S
C3801 C3800 1.415 . S
H3802 C3799 0.999 . S
H3803 C3784 0.913 . S
H3804 C3822 0.951 . S
H3805 C3824 0.951 . S
H3806 C3826 0.950 . S
H3807 C3827 0.950 . S
H3808 C3829 0.950 . S
H3809 C3832 0.950 . S
H3810 C3833 0.950 . S
H3811 C3835 0.950 . S
H3812 C3836 0.950 . S
H3813 C3837 0.951 . S
H3814 C3839 0.951 . S
H3815 C3841 0.950 . S
H3816 C3842 0.950 . S
H3817 C3844 0.950 . S
H3818 C3847 0.950 . S
H3819 C3848 0.950 . S
H3820 C3850 0.950 . S
H3821 C3851 0.950 . S
C3822 H3804 0.951 . S
C3822 C3823 1.366 . S
C3822 C3824 1.388 . S
C3823 C3822 1.366 . S
C3823 C3827 1.385 . S
C3824 H3805 0.951 . S
C3824 C3822 1.388 . S
C3824 C3825 1.366 . S
C3825 C3824 1.366 . S
C3825 C3826 1.414 . S
C3825 C3828 1.499 . S
C3826 H3806 0.950 . S
C3826 C3825 1.414 . S
C3826 C3827 1.374 . S
C3827 H3807 0.950 . S
C3827 C3823 1.385 . S
C3827 C3826 1.374 . S
C3828 C3825 1.499 . S
C3828 C3829 1.373 1_455 S
C3828 C3830 1.389 . S
C3829 H3808 0.950 . S
C3829 C3828 1.373 1_655 S
C3829 C3845 1.377 1_556 S
C3830 C3828 1.389 . S
C3830 C3831 1.524 1_556 S
C3830 C3844 1.377 1_556 S
C3831 C3830 1.524 1_554 S
C3831 C3832 1.397 1_554 S
C3831 C3836 1.363 . S
C3832 H3809 0.950 . S
C3832 C3831 1.397 1_556 S
C3832 C3833 1.334 . S
C3833 H3810 0.950 . S
C3833 C3832 1.334 . S
C3833 C3834 1.287 1_556 S
C3834 C3833 1.287 1_554 S
C3834 C3835 1.524 . S
C3834 H3853 0.913 . S
C3835 H3811 0.950 . S
C3835 C3834 1.524 . S
C3835 C3836 1.415 . S
C3836 H3812 0.950 . S
C3836 C3831 1.363 . S
C3836 C3835 1.415 . S
C3837 H3813 0.951 . S
C3837 C3838 1.366 . S
C3837 C3839 1.388 . S
C3838 C3837 1.366 . S
C3838 C3842 1.385 . S
C3839 H3814 0.951 . S
C3839 C3837 1.388 . S
C3839 C3840 1.366 . S
C3840 C3839 1.366 . S
C3840 C3841 1.414 . S
C3840 C3843 1.499 . S
C3841 H3815 0.950 . S
C3841 C3840 1.414 . S
C3841 C3842 1.374 . S
C3842 H3816 0.950 . S
C3842 C3838 1.385 . S
C3842 C3841 1.374 . S
C3843 C3840 1.499 . S
C3843 C3844 1.373 1_655 S
C3843 C3845 1.389 . S
C3844 H3817 0.950 . S
C3844 C3830 1.377 1_554 S
C3844 C3843 1.373 1_455 S
C3845 C3829 1.377 1_554 S
C3845 C3843 1.389 . S
C3845 C3846 1.524 1_554 S
C3846 C3845 1.524 1_556 S
C3846 C3847 1.397 1_556 S
C3846 C3851 1.363 . S
C3847 H3818 0.950 . S
C3847 C3846 1.397 1_554 S
C3847 C3848 1.334 . S
C3848 H3819 0.950 . S
C3848 C3847 1.334 . S
C3848 C3849 1.287 1_554 S
C3849 C3848 1.287 1_556 S
C3849 C3850 1.524 . S
C3849 H3852 0.999 . S
C3850 H3820 0.950 . S
C3850 C3849 1.524 . S
C3850 C3851 1.415 . S
C3851 H3821 0.950 . S
C3851 C3846 1.363 . S
C3851 C3850 1.415 . S
H3852 C3849 0.999 . S
H3853 C3834 0.913 . S
H3854 C3872 0.951 . S
H3855 C3874 0.951 . S
H3856 C3876 0.950 . S
H3857 C3877 0.950 . S
H3858 C3879 0.950 . S
H3859 C3882 0.950 . S
H3860 C3883 0.950 . S
H3861 C3885 0.950 . S
H3862 C3886 0.950 . S
H3863 C3887 0.951 . S
H3864 C3889 0.951 . S
H3865 C3891 0.950 . S
H3866 C3892 0.950 . S
H3867 C3894 0.950 . S
H3868 C3897 0.950 . S
H3869 C3898 0.950 . S
H3870 C3900 0.950 . S
H3871 C3901 0.950 . S
C3872 H3854 0.951 . S
C3872 C3873 1.366 . S
C3872 C3874 1.388 . S
C3873 C3872 1.366 . S
C3873 C3877 1.385 . S
C3874 H3855 0.951 . S
C3874 C3872 1.388 . S
C3874 C3875 1.366 . S
C3875 C3874 1.366 . S
C3875 C3876 1.414 . S
C3875 C3878 1.499 . S
C3876 H3856 0.950 . S
C3876 C3875 1.414 . S
C3876 C3877 1.374 . S
C3877 H3857 0.950 . S
C3877 C3873 1.385 . S
C3877 C3876 1.374 . S
C3878 C3875 1.499 . S
C3878 C3879 1.373 . S
C3878 C3880 1.389 . S
C3879 H3858 0.950 . S
C3879 C3878 1.373 . S
C3879 C3895 1.377 1_554 S
C3880 C3878 1.389 . S
C3880 C3881 1.524 . S
C3880 C3894 1.377 1_554 S
C3881 C3880 1.524 . S
C3881 C3882 1.397 . S
C3881 C3886 1.363 . S
C3882 H3859 0.950 . S
C3882 C3881 1.397 . S
C3882 C3883 1.334 . S
C3883 H3860 0.950 . S
C3883 C3882 1.334 . S
C3883 C3884 1.287 . S
C3884 C3883 1.287 . S
C3884 C3885 1.524 . S
C3884 H3903 0.913 . S
C3885 H3861 0.950 . S
C3885 C3884 1.524 . S
C3885 C3886 1.415 . S
C3886 H3862 0.950 . S
C3886 C3881 1.363 . S
C3886 C3885 1.415 . S
C3887 H3863 0.951 . S
C3887 C3888 1.366 . S
C3887 C3889 1.388 . S
C3888 C3887 1.366 . S
C3888 C3892 1.385 . S
C3889 H3864 0.951 . S
C3889 C3887 1.388 . S
C3889 C3890 1.366 . S
C3890 C3889 1.366 . S
C3890 C3891 1.414 . S
C3890 C3893 1.499 . S
C3891 H3865 0.950 . S
C3891 C3890 1.414 . S
C3891 C3892 1.374 . S
C3892 H3866 0.950 . S
C3892 C3888 1.385 . S
C3892 C3891 1.374 . S
C3893 C3890 1.499 . S
C3893 C3894 1.373 . S
C3893 C3895 1.389 . S
C3894 H3867 0.950 . S
C3894 C3880 1.377 1_556 S
C3894 C3893 1.373 . S
C3895 C3879 1.377 1_556 S
C3895 C3893 1.389 . S
C3895 C3896 1.524 . S
C3896 C3895 1.524 . S
C3896 C3897 1.397 . S
C3896 C3901 1.363 . S
C3897 H3868 0.950 . S
C3897 C3896 1.397 . S
C3897 C3898 1.334 . S
C3898 H3869 0.950 . S
C3898 C3897 1.334 . S
C3898 C3899 1.287 . S
C3899 C3898 1.287 . S
C3899 C3900 1.524 . S
C3899 H3902 0.999 . S
C3900 H3870 0.950 . S
C3900 C3899 1.524 . S
C3900 C3901 1.415 . S
C3901 H3871 0.950 . S
C3901 C3896 1.363 . S
C3901 C3900 1.415 . S
H3902 C3899 0.999 . S
H3903 C3884 0.913 . S
H3904 C3922 0.951 . S
H3905 C3924 0.951 . S
H3906 C3926 0.950 . S
H3907 C3927 0.950 . S
H3908 C3929 0.950 . S
H3909 C3932 0.950 . S
H3910 C3933 0.950 . S
H3911 C3935 0.950 . S
H3912 C3936 0.950 . S
H3913 C3937 0.951 . S
H3914 C3939 0.951 . S
H3915 C3941 0.950 . S
H3916 C3942 0.950 . S
H3917 C3944 0.950 . S
H3918 C3947 0.950 . S
H3919 C3948 0.950 . S
H3920 C3950 0.950 . S
H3921 C3951 0.950 . S
C3922 H3904 0.951 . S
C3922 C3923 1.366 . S
C3922 C3924 1.388 . S
C3923 C3922 1.366 . S
C3923 C3927 1.385 . S
C3924 H3905 0.951 . S
C3924 C3922 1.388 . S
C3924 C3925 1.366 . S
C3925 C3924 1.366 . S
C3925 C3926 1.414 . S
C3925 C3928 1.499 . S
C3926 H3906 0.950 . S
C3926 C3925 1.414 . S
C3926 C3927 1.374 . S
C3927 H3907 0.950 . S
C3927 C3923 1.385 . S
C3927 C3926 1.374 . S
C3928 C3925 1.499 . S
C3928 C3929 1.373 . S
C3928 C3930 1.389 1_545 S
C3929 H3908 0.950 . S
C3929 C3928 1.373 . S
C3929 C3945 1.377 1_554 S
C3930 C3928 1.389 1_565 S
C3930 C3931 1.524 . S
C3930 C3944 1.377 1_554 S
C3931 C3930 1.524 . S
C3931 C3932 1.397 . S
C3931 C3936 1.363 . S
C3932 H3909 0.950 . S
C3932 C3931 1.397 . S
C3932 C3933 1.334 . S
C3933 H3910 0.950 . S
C3933 C3932 1.334 . S
C3933 C3934 1.287 . S
C3934 C3933 1.287 . S
C3934 C3935 1.524 . S
C3934 H3953 0.913 . S
C3935 H3911 0.950 . S
C3935 C3934 1.524 . S
C3935 C3936 1.415 . S
C3936 H3912 0.950 . S
C3936 C3931 1.363 . S
C3936 C3935 1.415 . S
C3937 H3913 0.951 . S
C3937 C3938 1.366 . S
C3937 C3939 1.388 . S
C3938 C3937 1.366 . S
C3938 C3942 1.385 . S
C3939 H3914 0.951 . S
C3939 C3937 1.388 . S
C3939 C3940 1.366 . S
C3940 C3939 1.366 . S
C3940 C3941 1.414 . S
C3940 C3943 1.499 . S
C3941 H3915 0.950 . S
C3941 C3940 1.414 . S
C3941 C3942 1.374 . S
C3942 H3916 0.950 . S
C3942 C3938 1.385 . S
C3942 C3941 1.374 . S
C3943 C3940 1.499 . S
C3943 C3944 1.373 . S
C3943 C3945 1.389 1_565 S
C3944 H3917 0.950 . S
C3944 C3930 1.377 1_556 S
C3944 C3943 1.373 . S
C3945 C3929 1.377 1_556 S
C3945 C3943 1.389 1_545 S
C3945 C3946 1.524 . S
C3946 C3945 1.524 . S
C3946 C3947 1.397 . S
C3946 C3951 1.363 . S
C3947 H3918 0.950 . S
C3947 C3946 1.397 . S
C3947 C3948 1.334 . S
C3948 H3919 0.950 . S
C3948 C3947 1.334 . S
C3948 C3949 1.287 . S
C3949 C3948 1.287 . S
C3949 C3950 1.524 . S
C3949 H3952 0.999 . S
C3950 H3920 0.950 . S
C3950 C3949 1.524 . S
C3950 C3951 1.415 . S
C3951 H3921 0.950 . S
C3951 C3946 1.363 . S
C3951 C3950 1.415 . S
H3952 C3949 0.999 . S
H3953 C3934 0.913 . S
H3954 C3972 0.951 . S
H3955 C3974 0.951 1_545 S
H3956 C3976 0.950 . S
H3957 C3977 0.950 . S
H3958 C3979 0.950 . S
H3959 C3982 0.950 1_565 S
H3960 C3983 0.968 . S
H3961 C3985 0.950 . S
H3962 C3986 0.950 . S
H3963 C3987 0.951 . S
H3964 C3989 0.951 1_565 S
H3965 C3991 0.950 . S
H3966 C3992 0.950 . S
H3967 C3994 0.950 . S
H3968 C3997 0.950 1_545 S
H3969 C3998 0.967 . S
H3970 C4000 0.950 . S
H3971 C4001 0.950 . S
C3972 H3954 0.951 . S
C3972 C3973 1.366 . S
C3972 C3974 1.388 . S
C3973 C3972 1.366 . S
C3973 C3977 1.385 . S
C3974 H3955 0.951 1_565 S
C3974 C3972 1.388 . S
C3974 C3975 1.366 . S
C3975 C3974 1.366 . S
C3975 C3976 1.414 . S
C3975 C3978 1.499 . S
C3976 H3956 0.950 . S
C3976 C3975 1.414 . S
C3976 C3977 1.374 . S
C3977 H3957 0.950 . S
C3977 C3973 1.385 . S
C3977 C3976 1.374 . S
C3978 C3975 1.499 . S
C3978 C3979 1.373 . S
C3978 C3980 1.389 1_565 S
C3979 H3958 0.950 . S
C3979 C3978 1.373 . S
C3979 C3995 1.377 1_556 S
C3980 C3978 1.389 1_545 S
C3980 C3981 1.524 . S
C3980 C3994 1.377 1_556 S
C3981 C3980 1.524 . S
C3981 C3982 1.397 . S
C3981 C3986 1.363 . S
C3982 H3959 0.950 1_545 S
C3982 C3981 1.397 . S
C3982 C3983 1.334 . S
C3983 H3960 0.968 . S
C3983 C3982 1.334 . S
C3983 C3984 1.287 . S
C3984 C3983 1.287 . S
C3984 C3985 1.524 . S
C3984 H4003 0.913 . S
C3985 H3961 0.950 . S
C3985 C3984 1.524 . S
C3985 C3986 1.415 . S
C3986 H3962 0.950 . S
C3986 C3981 1.363 . S
C3986 C3985 1.415 . S
C3987 H3963 0.951 . S
C3987 C3988 1.366 . S
C3987 C3989 1.388 . S
C3988 C3987 1.366 . S
C3988 C3992 1.385 . S
C3989 H3964 0.951 1_545 S
C3989 C3987 1.388 . S
C3989 C3990 1.366 . S
C3990 C3989 1.366 . S
C3990 C3991 1.414 . S
C3990 C3993 1.499 . S
C3991 H3965 0.950 . S
C3991 C3990 1.414 . S
C3991 C3992 1.374 . S
C3992 H3966 0.950 . S
C3992 C3988 1.385 . S
C3992 C3991 1.374 . S
C3993 C3990 1.499 . S
C3993 C3994 1.373 . S
C3993 C3995 1.389 1_545 S
C3994 H3967 0.950 . S
C3994 C3980 1.377 1_554 S
C3994 C3993 1.373 . S
C3995 C3979 1.377 1_554 S
C3995 C3993 1.389 1_565 S
C3995 C3996 1.524 . S
C3996 C3995 1.524 . S
C3996 C3997 1.397 . S
C3996 C4001 1.363 . S
C3997 H3968 0.950 1_565 S
C3997 C3996 1.397 . S
C3997 C3998 1.334 . S
C3998 H3969 0.967 . S
C3998 C3997 1.334 . S
C3998 C3999 1.287 . S
C3999 C3998 1.287 . S
C3999 C4000 1.524 . S
C3999 H4002 0.999 . S
C4000 H3970 0.950 . S
C4000 C3999 1.524 . S
C4000 C4001 1.415 . S
C4001 H3971 0.950 . S
C4001 C3996 1.363 . S
C4001 C4000 1.415 . S
H4002 C3999 0.999 . S
H4003 C3984 0.913 . S
H4004 C4022 0.951 . S
H4005 C4024 0.951 1_655 S
H4006 C4026 0.950 . S
H4007 C4027 0.950 . S
H4008 C4029 0.950 . S
H4009 C4032 0.950 . S
H4010 C4033 0.985 . S
H4011 C4035 0.950 . S
H4012 C4036 0.950 . S
H4013 C4037 0.951 . S
H4014 C4039 0.951 1_455 S
H4015 C4041 0.950 . S
H4016 C4042 0.950 . S
H4017 C4044 0.950 . S
H4018 C4047 0.950 . S
H4019 C4048 0.987 . S
H4020 C4050 0.950 . S
H4021 C4051 0.950 . S
C4022 H4004 0.951 . S
C4022 C4023 1.366 . S
C4022 C4024 1.388 . S
C4023 C4022 1.366 . S
C4023 C4027 1.385 . S
C4024 H4005 0.951 1_455 S
C4024 C4022 1.388 . S
C4024 C4025 1.366 . S
C4025 C4024 1.366 . S
C4025 C4026 1.414 . S
C4025 C4028 1.499 . S
C4026 H4006 0.950 . S
C4026 C4025 1.414 . S
C4026 C4027 1.374 . S
C4027 H4007 0.950 . S
C4027 C4023 1.385 . S
C4027 C4026 1.374 . S
C4028 C4025 1.499 . S
C4028 C4029 1.373 . S
C4028 C4030 1.389 1_455 S
C4029 H4008 0.950 . S
C4029 C4028 1.373 . S
C4029 C4045 1.377 1_556 S
C4030 C4028 1.389 1_655 S
C4030 C4031 1.524 . S
C4030 C4044 1.377 1_556 S
C4031 C4030 1.524 . S
C4031 C4032 1.397 1_655 S
C4031 C4036 1.363 . S
C4032 H4009 0.950 . S
C4032 C4031 1.397 1_455 S
C4032 C4033 1.384 . S
C4033 H4010 0.985 . S
C4033 C4032 1.384 . S
C4033 C4034 1.206 1_455 S
C4034 C4033 1.206 1_655 S
C4034 C4035 1.524 . S
C4034 H4053 0.913 . S
C4035 H4011 0.950 . S
C4035 C4034 1.524 . S
C4035 C4036 1.415 . S
C4036 H4012 0.950 . S
C4036 C4031 1.363 . S
C4036 C4035 1.415 . S
C4037 H4013 0.951 . S
C4037 C4038 1.366 . S
C4037 C4039 1.388 . S
C4038 C4037 1.366 . S
C4038 C4042 1.385 . S
C4039 H4014 0.951 1_655 S
C4039 C4037 1.388 . S
C4039 C4040 1.366 . S
C4040 C4039 1.366 . S
C4040 C4041 1.414 . S
C4040 C4043 1.499 . S
C4041 H4015 0.950 . S
C4041 C4040 1.414 . S
C4041 C4042 1.374 . S
C4042 H4016 0.950 . S
C4042 C4038 1.385 . S
C4042 C4041 1.374 . S
C4043 C4040 1.499 . S
C4043 C4044 1.373 . S
C4043 C4045 1.389 1_655 S
C4044 H4017 0.950 . S
C4044 C4030 1.377 1_554 S
C4044 C4043 1.373 . S
C4045 C4029 1.377 1_554 S
C4045 C4043 1.389 1_455 S
C4045 C4046 1.524 . S
C4046 C4045 1.524 . S
C4046 C4047 1.397 1_455 S
C4046 C4051 1.363 . S
C4047 H4018 0.950 . S
C4047 C4046 1.397 1_655 S
C4047 C4048 1.386 . S
C4048 H4019 0.987 . S
C4048 C4047 1.386 . S
C4048 C4049 1.203 1_655 S
C4049 C4048 1.203 1_455 S
C4049 C4050 1.524 . S
C4049 H4052 0.999 . S
C4050 H4020 0.950 . S
C4050 C4049 1.524 . S
C4050 C4051 1.415 . S
C4051 H4021 0.950 . S
C4051 C4046 1.363 . S
C4051 C4050 1.415 . S
H4052 C4049 0.999 . S
H4053 C4034 0.913 . S
H4054 C4072 0.951 . S
H4055 C4074 0.951 . S
H4056 C4076 0.950 . S
H4057 C4077 0.950 . S
H4058 C4079 0.950 . S
H4059 C4082 0.950 . S
H4060 C4083 0.950 . S
H4061 C4085 0.950 . S
H4062 C4086 0.950 . S
H4063 C4087 0.951 . S
H4064 C4089 0.951 . S
H4065 C4091 0.950 . S
H4066 C4092 0.950 . S
H4067 C4094 0.950 . S
H4068 C4097 0.950 . S
H4069 C4098 0.950 . S
H4070 C4100 0.950 . S
H4071 C4101 0.950 . S
C4072 H4054 0.951 . S
C4072 C4073 1.366 . S
C4072 C4074 1.388 . S
C4073 C4072 1.366 . S
C4073 C4077 1.385 . S
C4074 H4055 0.951 . S
C4074 C4072 1.388 . S
C4074 C4075 1.366 . S
C4075 C4074 1.366 . S
C4075 C4076 1.414 . S
C4075 C4078 1.499 . S
C4076 H4056 0.950 . S
C4076 C4075 1.414 . S
C4076 C4077 1.374 . S
C4077 H4057 0.950 . S
C4077 C4073 1.385 . S
C4077 C4076 1.374 . S
C4078 C4075 1.499 . S
C4078 C4079 1.373 . S
C4078 C4080 1.389 . S
C4079 H4058 0.950 . S
C4079 C4078 1.373 . S
C4079 C4095 1.349 1_554 S
C4080 C4078 1.389 . S
C4080 C4081 1.524 1_554 S
C4080 C4094 1.377 1_554 S
C4081 C4080 1.524 1_556 S
C4081 C4082 1.386 1_556 S
C4081 C4086 1.376 . S
C4082 H4059 0.950 . S
C4082 C4081 1.386 1_554 S
C4082 C4083 1.334 . S
C4083 H4060 0.950 . S
C4083 C4082 1.334 . S
C4083 C4084 1.287 1_554 S
C4084 C4083 1.287 1_556 S
C4084 C4085 1.524 . S
C4084 H4103 0.913 . S
C4085 H4061 0.950 . S
C4085 C4084 1.524 . S
C4085 C4086 1.415 . S
C4086 H4062 0.950 . S
C4086 C4081 1.376 . S
C4086 C4085 1.415 . S
C4087 H4063 0.951 . S
C4087 C4088 1.366 . S
C4087 C4089 1.388 . S
C4088 C4087 1.366 . S
C4088 C4092 1.385 . S
C4089 H4064 0.951 . S
C4089 C4087 1.388 . S
C4089 C4090 1.366 . S
C4090 C4089 1.366 . S
C4090 C4091 1.414 . S
C4090 C4093 1.499 . S
C4091 H4065 0.950 . S
C4091 C4090 1.414 . S
C4091 C4092 1.374 . S
C4092 H4066 0.950 . S
C4092 C4088 1.385 . S
C4092 C4091 1.374 . S
C4093 C4090 1.499 . S
C4093 C4094 1.373 . S
C4093 C4095 1.416 . S
C4094 H4067 0.950 . S
C4094 C4080 1.377 1_556 S
C4094 C4093 1.373 . S
C4095 C4079 1.349 1_556 S
C4095 C4093 1.416 . S
C4095 C4096 1.523 1_556 S
C4096 C4095 1.523 1_554 S
C4096 C4097 1.386 1_554 S
C4096 C4101 1.376 . S
C4097 H4068 0.950 . S
C4097 C4096 1.386 1_556 S
C4097 C4098 1.334 . S
C4098 H4069 0.950 . S
C4098 C4097 1.334 . S
C4098 C4099 1.287 1_556 S
C4099 C4098 1.287 1_554 S
C4099 C4100 1.524 . S
C4099 H4102 0.999 . S
C4100 H4070 0.950 . S
C4100 C4099 1.524 . S
C4100 C4101 1.415 . S
C4101 H4071 0.950 . S
C4101 C4096 1.376 . S
C4101 C4100 1.415 . S
H4102 C4099 0.999 . S
H4103 C4084 0.913 . S
C523 C5 1.275 . S
C538 C159 1.275 . S
C573 C19 1.275 . S
C588 C131 1.275 . S
C623 C145 1.275 . S
C638 C33 1.274 . S
C673 C47 1.275 . S
C688 C103 1.275 . S
C723 C117 1.275 . S
C738 C61 1.275 . S
C773 C75 1.275 . S
C788 C89 1.275 . S
C823 C327 1.275 . S
C838 C173 1.275 . S
C873 C187 1.275 . S
C888 C299 1.275 . S
C923 C201 1.275 . S
C938 C313 1.274 . S
C973 C271 1.275 . S
C988 C215 1.275 . S
C1023 C229 1.275 . S
C1038 C285 1.275 . S
C1073 C257 1.275 . S
C1088 C243 1.275 . S
C1123 C341 1.275 . S
C1138 C495 1.275 . S
C1173 C467 1.275 . S
C1188 C355 1.275 . S
C1223 C481 1.275 . S
C1238 C369 1.275 . S
C1273 C439 1.275 . S
C1288 C383 1.275 . S
C1323 C453 1.275 . S
C1338 C397 1.274 . S
C1373 C425 1.275 . S
C1388 C411 1.276 . S
C1423 C11 1.289 . S
C1438 C67 1.289 . S
C1473 C81 1.289 . S
C1488 C25 1.289 . S
C1523 C39 1.288 . S
C1538 C53 1.288 . S
C1573 C95 1.289 . S
C1588 C151 1.289 . S
C1623 C109 1.289 . S
C1638 C165 1.289 . S
C1673 C123 1.289 . S
C1688 C137 1.289 . S
C1723 C235 1.289 . S
C1738 C179 1.288 . S
C1773 C249 1.288 . S
C1788 C193 1.288 . S
C1823 C207 1.289 . S
C1838 C221 1.288 . S
C1873 C319 1.288 . S
C1888 C263 1.288 . S
C1923 C333 1.289 . S
C1938 C277 1.289 . S
C1973 C291 1.288 . S
C1988 C305 1.288 . S
C2023 C403 1.288 . S
C2038 C347 1.289 . S
C2073 C361 1.289 . S
C2088 C417 1.289 . S
C2123 C375 1.288 . S
C2138 C389 1.288 . S
C2173 C487 1.288 . S
C2188 C431 1.288 . S
C2223 C445 1.289 . S
C2238 C501 1.289 . S
C2273 C473 1.289 . S
C2288 C459 1.289 . S
C2323 C415 0.915 . S
C2338 C9 0.915 1_556 S
C2373 C23 0.915 1_556 S
C2388 C387 0.915 . S
C2423 C37 0.915 1_556 S
C2438 C401 0.915 . S
C2473 C51 0.915 1_554 S
C2488 C191 0.915 . S
C2523 C205 0.915 . S
C2538 C65 0.915 1_554 S
C2573 C177 0.916 . S
C2588 C79 0.916 1_554 S
C2623 C93 0.915 1_554 S
C2638 C331 0.915 . S
C2673 C107 0.915 1_554 S
C2688 C303 0.915 . S
C2723 C121 0.915 1_554 S
C2738 C317 0.915 . S
C2773 C443 0.916 . S
C2788 C135 0.916 1_556 S
C2823 C457 0.916 . S
C2838 C149 0.916 1_556 S
C2873 C163 0.915 1_556 S
C2888 C429 0.915 . S
C2923 C359 0.915 . S
C2938 C219 0.915 . S
C2973 C233 0.915 . S
C2988 C373 0.915 . S
C3023 C345 0.915 . S
C3038 C247 0.915 . S
C3073 C499 0.915 . S
C3088 C261 0.915 . S
C3123 C275 0.915 . S
C3138 C471 0.915 . S
C3173 C289 0.915 . S
C3188 C485 0.915 . S
C3223 C0 1.745 . S
C3238 C406 1.746 . S
C3273 C378 1.745 . S
C3288 C14 1.746 . S
C3323 C28 1.746 . S
C3338 C392 1.746 . S
C3373 C182 1.745 . S
C3388 C42 1.746 . S
C3423 C56 1.745 . S
C3438 C196 1.745 . S
C3473 C70 1.746 . S
C3488 C168 1.745 . S
C3523 C322 1.746 . S
C3538 C84 1.745 . S
C3573 C98 1.745 . S
C3588 C294 1.746 . S
C3623 C112 1.746 . S
C3638 C308 1.746 . S
C3673 C126 1.746 . S
C3688 C434 1.745 . S
C3723 C448 1.746 . S
C3738 C140 1.745 . S
C3773 C154 1.745 . S
C3788 C420 1.746 . S
C3823 C350 1.746 . S
C3838 C210 1.746 . S
C3873 C224 1.746 . S
C3888 C364 1.745 . S
C3923 C238 1.746 . S
C3938 C336 1.746 . S
C3973 C490 1.746 . S
C3988 C252 1.746 . S
C4023 C462 1.746 . S
C4038 C266 1.746 . S
C4073 C280 1.745 . S
C4088 C476 1.745 . S
