# Generated by pormake.
# Topology noz, (5)-cn, num edge types: 1
# Building blocks:
#     Node 0, Type 0, BuildingBlock: XOMCOT_clean_sbu_0, # of connection points: 5
#     Node 1, Type 0, BuildingBlock: XOMCOT_clean_sbu_0, # of connection points: 5
#     Node 2, Type 0, BuildingBlock: XOMCOT_clean_sbu_0, # of connection points: 5
#     Node 3, Type 0, BuildingBlock: XOMCOT_clean_sbu_0, # of connection points: 5
#     Node 4, Type 0, BuildingBlock: XOMCOT_clean_sbu_0, # of connection points: 5
#     Node 5, Type 0, BuildingBlock: XOMCOT_clean_sbu_0, # of connection points: 5
#     Node 6, Type 0, BuildingBlock: XOMCOT_clean_sbu_0, # of connection points: 5
#     Node 7, Type 0, BuildingBlock: XOMCOT_clean_sbu_0, # of connection points: 5
#     Edge 8, Type (0, 0), None
#     Edge 9, Type (0, 0), None
#     Edge 10, Type (0, 0), None
#     Edge 11, Type (0, 0), None
#     Edge 12, Type (0, 0), None
#     Edge 13, Type (0, 0), None
#     Edge 14, Type (0, 0), None
#     Edge 15, Type (0, 0), None
#     Edge 16, Type (0, 0), None
#     Edge 17, Type (0, 0), None
#     Edge 18, Type (0, 0), None
#     Edge 19, Type (0, 0), None
#     Edge 20, Type (0, 0), None
#     Edge 21, Type (0, 0), None
#     Edge 22, Type (0, 0), None
#     Edge 23, Type (0, 0), None
#     Edge 24, Type (0, 0), None
#     Edge 25, Type (0, 0), None
#     Edge 26, Type (0, 0), None
#     Edge 27, Type (0, 0), None
# Relax obj value: 0.101
# Max RMSD: 0.183
# Mean RMSD: 0.182
data_MOF--net-noz--node1-XOMCOT_clean_sbu_0--edge1-none
_symmetry_space_group_name_H-M    P1
_symmetry_Int_Tables_number       1
_symmetry_cell_setting            triclinic
loop_
_symmetry_equiv_pos_as_xyz
'x, y, z'
_cell_length_a     11.674741
_cell_length_b     26.995211
_cell_length_c     18.439432
_cell_angle_alpha  89.537533
_cell_angle_beta   90.875808
_cell_angle_gamma 85.816824
loop_
_atom_site_label
_atom_site_type_symbol
_atom_site_fract_x
_atom_site_fract_y
_atom_site_fract_z
_atom_type_partial_charge
Co0 Co 0.27618 0.33997 0.37956 0.0
C1 C 0.49347 0.28827 0.44308 0.0
C2 C 0.38478 0.32632 0.52086 0.0
C3 C 0.47508 0.30204 0.55757 0.0
N4 N 0.3957 0.31802 0.44914 0.0
N5 N 0.54346 0.27829 0.50886 0.0
H6 H 0.52466 0.27249 0.39279 0.0
H7 H 0.3135 0.34754 0.54528 0.0
C8 C 0.13664 0.27041 0.46584 0.0
O9 O 0.1968 0.23094 0.44227 0.0
N10 N 0.15008 0.36113 0.31326 0.0
C11 C 0.15259 0.38118 0.2458 0.0
C12 C 1.04322 0.38273 0.21517 0.0
C13 C 1.03921 0.35183 0.32286 0.0
N14 N 0.97338 0.36441 0.26448 0.0
C15 C 0.36329 0.42896 0.42439 0.0
C16 C 0.16802 0.47498 0.4832 0.0
C17 C 0.2689 0.50086 0.48099 0.0
C18 C 0.36621 0.47699 0.44965 0.0
C19 C 0.16757 0.42682 0.45434 0.0
N20 N 0.2652 0.40448 0.42585 0.0
H21 H 0.44152 0.41134 0.40312 0.0
H22 H 0.08943 0.40775 0.45486 0.0
H23 H 0.22866 0.39232 0.21928 0.0
H24 H 1.00646 0.33409 0.36988 0.0
O25 O 0.38413 0.3577 0.31049 0.0
O26 O 0.31834 0.28321 0.31407 0.0
O27 O 0.16225 0.31392 0.44757 0.0
C28 C 0.38235 0.31453 0.28204 0.0
H29 H 0.48875 0.30142 0.61583 0.0
H30 H 1.01775 0.39529 0.16102 0.0
H31 H 0.09049 0.49131 0.5074 0.0
H32 H 0.4453 0.49505 0.44379 0.0
Co33 Co 0.64832 0.6827 0.91151 0.0
C34 C 0.88038 0.66877 0.8435 0.0
C35 C 0.74456 0.64914 0.77178 0.0
C36 C 0.8463 0.64236 0.73556 0.0
N37 N 0.765 0.66656 0.83913 0.0
N38 N 0.9303 0.6541 0.78122 0.0
H39 H 0.9272 0.68109 0.89024 0.0
H40 H 0.66172 0.64118 0.74983 0.0
C41 C 0.49061 0.72351 0.79706 0.0
O42 O 0.50951 0.76806 0.82013 0.0
N43 N 0.52649 0.6992 0.98172 0.0
C44 C 0.54064 0.70761 0.05326 0.0
C45 C 0.43731 0.72582 0.08145 0.0
C46 C 0.41279 0.71136 0.96822 0.0
N47 N 0.35694 0.72837 0.02791 0.0
C48 C 0.73708 0.5853 0.94467 0.0
C49 C 0.53211 0.5404 0.94502 0.0
C50 C 0.63463 0.51261 0.96429 0.0
C51 C 0.73799 0.53519 0.96237 0.0
C52 C 0.53531 0.59061 0.92567 0.0
N53 N 0.63698 0.61247 0.92742 0.0
H54 H 0.81719 0.60281 0.94732 0.0
H55 H 0.45623 0.61228 0.91218 0.0
H56 H 0.62127 0.70284 0.08294 0.0
H57 H 0.37168 0.70978 0.91557 0.0
O58 O 0.76646 0.69213 0.98421 0.0
O59 O 0.68733 0.75106 0.91101 0.0
O60 O 0.53147 0.68476 0.83117 0.0
C61 C 0.76204 0.73798 0.96219 0.0
H62 H 0.85826 0.62945 0.68058 0.0
H63 H 0.42335 0.73768 0.13681 0.0
H64 H 0.45033 0.52399 0.94782 0.0
H65 H 0.81794 0.51507 0.979 0.0
Co66 Co 0.30379 0.70223 0.63769 0.0
C67 C 0.49795 0.72527 0.53575 0.0
C68 C 0.38607 0.78754 0.5683 0.0
C69 C 0.47169 0.80505 0.5281 0.0
N70 N 0.40089 0.73765 0.57338 0.0
N71 N 0.54231 0.76623 0.50737 0.0
H72 H 0.5372 0.68801 0.53075 0.0
H73 H 0.31842 0.81006 0.59432 0.0
C74 C 0.14083 0.74952 0.52523 0.0
O75 O 0.20687 0.73107 0.47347 0.0
N76 N 0.20422 0.67005 0.70416 0.0
C77 C 0.23432 0.64248 0.7642 0.0
C78 C 0.1366 0.63343 0.80185 0.0
C79 C 0.08861 0.6765 0.70558 0.0
N80 N 1.04673 0.65482 0.76421 0.0
C81 C 0.38831 0.61384 0.56812 0.0
C82 C 0.17969 0.5857 0.51583 0.0
C83 C 0.27616 0.55171 0.51193 0.0
C84 C 0.38142 0.56671 0.539 0.0
C85 C 0.18968 0.63213 0.54777 0.0
N86 N 0.29354 0.64613 0.57268 0.0
H87 H 0.46924 0.62291 0.59151 0.0
H88 H 0.11207 0.65549 0.55543 0.0
H89 H 0.32112 0.63054 0.78099 0.0
H90 H 1.03539 0.69762 0.66616 0.0
O91 O 0.43585 0.67731 0.69395 0.0
O92 O 0.33634 0.74921 0.71303 0.0
O93 O 0.16663 0.74032 0.59191 0.0
C94 C 0.42053 0.71732 0.73219 0.0
H95 H 0.4816 0.84374 0.51553 0.0
H96 H 0.13158 0.61278 0.85212 0.0
H97 H 0.09633 0.5764 0.49596 0.0
H98 H 0.45817 0.54173 0.5409 0.0
Co99 Co 0.58484 0.31667 0.12939 0.0
C100 C 0.42264 0.26142 0.03788 0.0
C101 C 0.41668 0.33917 0.0126 0.0
C102 C 0.33236 0.31892 0.97264 0.0
N103 N 0.47584 0.30319 0.05234 0.0
N104 N 0.33518 0.27031 0.98907 0.0
H105 H 0.4447 0.22592 0.0642 0.0
H106 H 0.42831 0.37843 0.0155 0.0
C107 C 0.74649 0.24902 0.03266 0.0
O108 O 0.67548 0.24873 0.97671 0.0
N109 N 0.6937 0.33248 0.20523 0.0
C110 C 0.683 0.33284 0.27811 0.0
C111 C 0.78375 0.34631 0.3093 0.0
C112 C 0.80136 0.34587 0.19327 0.0
N113 N 0.85705 0.35469 0.25571 0.0
C114 C 0.60386 0.41871 0.11076 0.0
C115 C 0.66635 0.41943 0.96692 0.0
C116 C 0.63265 0.46425 1.00107 0.0
C117 C 0.60437 0.4637 0.07411 0.0
C118 C 0.66306 0.37459 1.00567 0.0
N119 N 0.62813 0.37474 0.07613 0.0
H120 H 0.57912 0.41912 0.16696 0.0
H121 H 0.68153 0.34025 0.97767 0.0
H122 H 0.60899 0.32348 0.30765 0.0
H123 H 0.83898 0.34789 0.14014 0.0
O124 O 0.45967 0.34942 0.17899 0.0
O125 O 0.51363 0.2702 0.19632 0.0
O126 O 0.71663 0.27193 0.09055 0.0
C127 C 0.44493 0.30855 0.21351 0.0
H128 H 0.27018 0.33885 0.9369 0.0
H129 H 0.80207 0.34907 0.36679 0.0
H130 H 0.69159 0.41906 0.91064 0.0
H131 H 0.58192 0.49793 0.1026 0.0
Co132 Co 0.77629 0.83997 0.37952 0.0
C133 C 0.99358 0.78828 0.44305 0.0
C134 C 0.88495 0.82637 0.52082 0.0
C135 C 0.97524 0.80208 0.55753 0.0
N136 N 0.89584 0.81805 0.4491 0.0
N137 N 1.04357 0.7783 0.50882 0.0
H138 H 1.02474 0.77247 0.39276 0.0
H139 H 0.81369 0.84761 0.54523 0.0
C140 C 0.6368 0.77041 0.46583 0.0
O141 O 0.69695 0.73094 0.44227 0.0
N142 N 0.65018 0.86111 0.31323 0.0
C143 C 0.65265 0.88123 0.24581 0.0
C144 C 0.54328 0.88277 0.21518 0.0
C145 C 0.53934 0.85174 0.32279 0.0
N146 N 0.4735 0.86437 0.26445 0.0
C147 C 0.86334 0.92899 0.42432 0.0
C148 C 0.66805 0.97497 0.48316 0.0
C149 C 0.76891 1.00087 0.48095 0.0
C150 C 0.86622 0.97701 0.44959 0.0
C151 C 0.66764 0.92682 0.45429 0.0
N152 N 0.76527 0.90449 0.42579 0.0
H153 H 0.94158 0.91138 0.40304 0.0
H154 H 0.58951 0.90773 0.45481 0.0
H155 H 0.7287 0.89244 0.21933 0.0
H156 H 0.50663 0.83394 0.36978 0.0
O157 O 0.88423 0.8577 0.31044 0.0
O158 O 0.81847 0.78321 0.31405 0.0
O159 O 0.6624 0.81392 0.44756 0.0
C160 C 0.88245 0.81453 0.282 0.0
H161 H 0.98892 0.80148 0.61579 0.0
H162 H 0.51778 0.89539 0.16107 0.0
H163 H 0.59051 0.99128 0.50737 0.0
H164 H 0.94529 0.99509 0.44374 0.0
Co165 Co 0.14822 0.18271 0.91155 0.0
C166 C 0.38027 0.16878 0.84353 0.0
C167 C 0.24445 0.14915 0.77182 0.0
C168 C 0.34619 0.14236 0.73559 0.0
N169 N 0.26489 0.16658 0.83916 0.0
N170 N 0.43019 0.1541 0.78125 0.0
H171 H 0.4271 0.1811 0.89027 0.0
H172 H 0.16161 0.14119 0.74987 0.0
C173 C 0.9905 0.22351 0.79709 0.0
O174 O 1.0094 0.26807 0.82016 0.0
N175 N 1.02641 0.1992 0.98177 0.0
C176 C 1.04056 0.20763 0.0533 0.0
C177 C 0.93725 0.22585 0.08149 0.0
C178 C 0.91271 0.21138 0.96826 0.0
N179 N 0.85688 0.22842 0.02794 0.0
C180 C 0.23702 0.08531 0.9447 0.0
C181 C 1.03209 0.04039 0.94502 0.0
C182 C 0.13463 0.0126 0.96427 0.0
C183 C 0.23796 0.0352 0.96238 0.0
C184 C 1.03525 0.09061 0.9257 0.0
N185 N 0.13691 0.11248 0.92746 0.0
H186 H 0.31711 0.10284 0.94736 0.0
H187 H 0.95616 0.11227 0.91221 0.0
H188 H 0.12119 0.20284 0.08298 0.0
H189 H 0.87159 0.20979 0.91561 0.0
O190 O 0.26638 0.19214 0.98425 0.0
O191 O 0.18723 0.25107 0.91105 0.0
O192 O 1.03137 0.18476 0.83121 0.0
C193 C 0.26195 0.23799 0.96222 0.0
H194 H 0.35814 0.12945 0.68061 0.0
H195 H 0.92329 0.23771 0.13685 0.0
H196 H 0.95032 0.02397 0.94782 0.0
H197 H 0.31792 0.01509 0.979 0.0
Co198 Co 0.80368 0.20222 0.63772 0.0
C199 C 0.99781 0.22526 0.53577 0.0
C200 C 0.88596 0.28754 0.56835 0.0
C201 C 0.97156 0.30505 0.52813 0.0
N202 N 0.90078 0.23765 0.57342 0.0
N203 N 1.04217 0.26623 0.50738 0.0
H204 H 1.03706 0.18801 0.53076 0.0
H205 H 0.81832 0.31006 0.59438 0.0
C206 C 0.64073 0.24951 0.52527 0.0
O207 O 0.70678 0.23107 0.4735 0.0
N208 N 0.70412 0.17004 0.70419 0.0
C209 C 0.73422 0.14249 0.76425 0.0
C210 C 0.63649 0.13344 0.8019 0.0
C211 C 0.58851 0.17648 0.7056 0.0
N212 N 0.54662 0.15481 0.76424 0.0
C213 C 0.88824 0.11384 0.56815 0.0
C214 C 0.67965 0.0857 0.51583 0.0
C215 C 0.77614 0.05171 0.51191 0.0
C216 C 0.88138 0.06672 0.53901 0.0
C217 C 0.68961 0.13212 0.54779 0.0
N218 N 0.79346 0.14612 0.57271 0.0
H219 H 0.96916 0.12291 0.59156 0.0
H220 H 0.61199 0.15547 0.55544 0.0
H221 H 0.82101 0.13056 0.78106 0.0
H222 H 0.53529 0.19758 0.66617 0.0
O223 O 0.93574 0.17731 0.69399 0.0
O224 O 0.83622 0.2492 0.71307 0.0
O225 O 0.66651 0.24031 0.59194 0.0
C226 C 0.92042 0.21732 0.73223 0.0
H227 H 0.98147 0.34374 0.51557 0.0
H228 H 0.63147 0.11281 0.85218 0.0
H229 H 0.5963 0.07639 0.49594 0.0
H230 H 0.95814 0.04174 0.5409 0.0
Co231 Co 0.08494 0.81666 0.12935 0.0
C232 C 0.92273 0.76141 0.03785 0.0
C233 C 0.91676 0.83916 0.01257 0.0
C234 C 0.83245 0.81891 0.97261 0.0
N235 N 0.97593 0.80318 0.0523 0.0
N236 N 0.83526 0.7703 0.98905 0.0
H237 H 0.9448 0.72591 0.06416 0.0
H238 H 0.9284 0.87842 0.01547 0.0
C239 C 0.24657 0.74901 0.03261 0.0
O240 O 0.17558 0.74873 0.97665 0.0
N241 N 0.1938 0.83246 0.20519 0.0
C242 C 0.18313 0.83278 0.27807 0.0
C243 C 0.28388 0.84625 0.30927 0.0
C244 C 0.30146 0.84586 0.19323 0.0
N245 N 0.35717 0.85466 0.25567 0.0
C246 C 0.10399 0.91869 0.11074 0.0
C247 C 0.16637 0.91943 0.96687 0.0
C248 C 0.13268 0.96424 1.00105 0.0
C249 C 0.10446 0.96369 0.0741 0.0
C250 C 0.16312 0.87458 1.00562 0.0
N251 N 0.12823 0.87473 0.07609 0.0
H252 H 0.07928 0.91909 0.16694 0.0
H253 H 0.18157 0.84025 0.97762 0.0
H254 H 0.10914 0.82339 0.30761 0.0
H255 H 0.33906 0.8479 0.1401 0.0
O256 O 0.95979 0.84941 0.17895 0.0
O257 O 1.01371 0.77019 0.19628 0.0
O258 O 0.21671 0.77191 0.09051 0.0
C259 C 0.94503 0.80855 0.21347 0.0
H260 H 0.77026 0.83884 0.93687 0.0
H261 H 0.30222 0.84897 0.36675 0.0
H262 H 0.19157 0.91907 0.91059 0.0
H263 H 0.08203 0.99791 0.1026 0.0
loop_
_geom_bond_atom_site_label_1
_geom_bond_atom_site_label_2
_geom_bond_distance
_geom_bond_site_symmetry_2
_ccdc_geom_bond_type
Co0 N4 2.148 . S
Co0 N10 2.128 . S
Co0 N20 2.194 . S
Co0 O25 2.351 . S
Co0 O26 2.155 . S
Co0 O27 2.096 . S
C1 N4 1.301 . S
C1 N5 1.328 . S
C1 H6 0.930 . S
C2 C3 1.333 . S
C2 N4 1.317 . S
C2 H7 0.930 . S
C3 C2 1.333 . S
C3 N5 1.350 . S
C3 H29 0.931 . S
N4 Co0 2.148 . S
N4 C1 1.301 . S
N4 C2 1.317 . S
N5 C1 1.328 . S
N5 C3 1.350 . S
H6 C1 0.930 . S
H7 C2 0.930 . S
C8 O9 1.224 . S
C8 O27 1.247 . S
O9 C8 1.224 . S
N10 Co0 2.128 . S
N10 C11 1.355 . S
N10 C13 1.311 . S
C11 N10 1.355 . S
C11 C12 1.363 . S
C11 H23 0.929 . S
C12 C11 1.363 . S
C12 N14 1.375 1_455 S
C12 H30 0.931 . S
C13 N10 1.311 . S
C13 N14 1.347 1_455 S
C13 H24 0.929 1_455 S
N14 C12 1.375 1_655 S
N14 C13 1.347 1_655 S
C15 C18 1.365 . S
C15 N20 1.328 . S
C15 H21 0.929 . S
C16 C17 1.362 . S
C16 C19 1.378 . S
C16 H31 0.929 . S
C17 C16 1.362 . S
C17 C18 1.366 . S
C18 C15 1.365 . S
C18 C17 1.366 . S
C18 H32 0.930 . S
C19 C16 1.378 . S
C19 N20 1.315 . S
C19 H22 0.930 . S
N20 Co0 2.194 . S
N20 C15 1.328 . S
N20 C19 1.315 . S
H21 C15 0.929 . S
H22 C19 0.930 . S
H23 C11 0.929 . S
H24 C13 0.929 1_655 S
O25 Co0 2.351 . S
O25 C28 1.244 . S
O26 Co0 2.155 . S
O26 C28 1.240 . S
O27 Co0 2.096 . S
O27 C8 1.247 . S
C28 O25 1.244 . S
C28 O26 1.240 . S
H29 C3 0.931 . S
H30 C12 0.931 . S
H31 C16 0.929 . S
H32 C18 0.930 . S
Co33 N37 2.148 . S
Co33 N43 2.128 . S
Co33 N53 2.194 . S
Co33 O58 2.351 . S
Co33 O59 2.155 . S
Co33 O60 2.096 . S
C34 N37 1.301 . S
C34 N38 1.328 . S
C34 H39 0.930 . S
C35 C36 1.333 . S
C35 N37 1.317 . S
C35 H40 0.930 . S
C36 C35 1.333 . S
C36 N38 1.350 . S
C36 H62 0.931 . S
N37 Co33 2.148 . S
N37 C34 1.301 . S
N37 C35 1.317 . S
N38 C34 1.328 . S
N38 C36 1.350 . S
H39 C34 0.930 . S
H40 C35 0.930 . S
C41 O42 1.224 . S
C41 O60 1.247 . S
O42 C41 1.224 . S
N43 Co33 2.128 . S
N43 C44 1.355 1_556 S
N43 C46 1.311 . S
C44 N43 1.355 1_554 S
C44 C45 1.363 . S
C44 H56 0.929 . S
C45 C44 1.363 . S
C45 N47 1.375 . S
C45 H63 0.931 . S
C46 N43 1.311 . S
C46 N47 1.347 1_556 S
C46 H57 0.929 . S
N47 C45 1.375 . S
N47 C46 1.347 1_554 S
C48 C51 1.365 1_556 S
C48 N53 1.328 . S
C48 H54 0.929 . S
C49 C50 1.362 . S
C49 C52 1.378 . S
C49 H64 0.929 . S
C50 C49 1.362 . S
C50 C51 1.366 1_556 S
C51 C48 1.365 1_554 S
C51 C50 1.366 1_554 S
C51 H65 0.930 . S
C52 C49 1.378 . S
C52 N53 1.315 . S
C52 H55 0.930 . S
N53 Co33 2.194 . S
N53 C48 1.328 . S
N53 C52 1.315 . S
H54 C48 0.929 . S
H55 C52 0.930 . S
H56 C44 0.929 . S
H57 C46 0.929 . S
O58 Co33 2.351 . S
O58 C61 1.244 . S
O59 Co33 2.155 . S
O59 C61 1.240 . S
O60 Co33 2.096 . S
O60 C41 1.247 . S
C61 O58 1.244 . S
C61 O59 1.240 . S
H62 C36 0.931 . S
H63 C45 0.931 . S
H64 C49 0.929 . S
H65 C51 0.930 . S
Co66 N70 2.148 . S
Co66 N76 2.128 . S
Co66 N86 2.194 . S
Co66 O91 2.351 . S
Co66 O92 2.155 . S
Co66 O93 2.096 . S
C67 N70 1.301 . S
C67 N71 1.328 . S
C67 H72 0.930 . S
C68 C69 1.333 . S
C68 N70 1.317 . S
C68 H73 0.930 . S
C69 C68 1.333 . S
C69 N71 1.350 . S
C69 H95 0.931 . S
N70 Co66 2.148 . S
N70 C67 1.301 . S
N70 C68 1.317 . S
N71 C67 1.328 . S
N71 C69 1.350 . S
H72 C67 0.930 . S
H73 C68 0.930 . S
C74 O75 1.224 . S
C74 O93 1.247 . S
O75 C74 1.224 . S
N76 Co66 2.128 . S
N76 C77 1.355 . S
N76 C79 1.311 . S
C77 N76 1.355 . S
C77 C78 1.363 . S
C77 H89 0.929 . S
C78 C77 1.363 . S
C78 N80 1.375 1_455 S
C78 H96 0.931 . S
C79 N76 1.311 . S
C79 N80 1.347 1_455 S
C79 H90 0.929 1_455 S
N80 C78 1.375 1_655 S
N80 C79 1.347 1_655 S
C81 C84 1.365 . S
C81 N86 1.328 . S
C81 H87 0.929 . S
C82 C83 1.362 . S
C82 C85 1.378 . S
C82 H97 0.929 . S
C83 C82 1.362 . S
C83 C84 1.366 . S
C84 C81 1.365 . S
C84 C83 1.366 . S
C84 H98 0.930 . S
C85 C82 1.378 . S
C85 N86 1.315 . S
C85 H88 0.930 . S
N86 Co66 2.194 . S
N86 C81 1.328 . S
N86 C85 1.315 . S
H87 C81 0.929 . S
H88 C85 0.930 . S
H89 C77 0.929 . S
H90 C79 0.929 1_655 S
O91 Co66 2.351 . S
O91 C94 1.244 . S
O92 Co66 2.155 . S
O92 C94 1.240 . S
O93 Co66 2.096 . S
O93 C74 1.247 . S
C94 O91 1.244 . S
C94 O92 1.240 . S
H95 C69 0.931 . S
H96 C78 0.931 . S
H97 C82 0.929 . S
H98 C84 0.930 . S
Co99 N103 2.148 . S
Co99 N109 2.128 . S
Co99 N119 2.194 . S
Co99 O124 2.351 . S
Co99 O125 2.155 . S
Co99 O126 2.096 . S
C100 N103 1.301 . S
C100 N104 1.328 1_554 S
C100 H105 0.930 . S
C101 C102 1.333 . S
C101 N103 1.317 1_556 S
C101 H106 0.930 . S
C102 C101 1.333 . S
C102 N104 1.350 . S
C102 H128 0.931 . S
N103 Co99 2.148 . S
N103 C100 1.301 . S
N103 C101 1.317 1_554 S
N104 C100 1.328 1_556 S
N104 C102 1.350 . S
H105 C100 0.930 . S
H106 C101 0.930 . S
C107 O108 1.224 . S
C107 O126 1.247 . S
O108 C107 1.224 . S
N109 Co99 2.128 . S
N109 C110 1.355 . S
N109 C112 1.311 . S
C110 N109 1.355 . S
C110 C111 1.363 . S
C110 H122 0.929 . S
C111 C110 1.363 . S
C111 N113 1.375 . S
C111 H129 0.931 . S
C112 N109 1.311 . S
C112 N113 1.347 . S
C112 H123 0.929 . S
N113 C111 1.375 . S
N113 C112 1.347 . S
C114 C117 1.365 . S
C114 N119 1.328 . S
C114 H120 0.929 . S
C115 C116 1.360 1_556 S
C115 C118 1.378 1_556 S
C115 H130 0.929 . S
C116 C115 1.360 1_554 S
C116 C117 1.372 . S
C117 C114 1.365 . S
C117 C116 1.372 . S
C117 H131 0.930 . S
C118 C115 1.378 1_554 S
C118 N119 1.315 . S
C118 H121 0.930 1_554 S
N119 Co99 2.194 . S
N119 C114 1.328 . S
N119 C118 1.315 . S
H120 C114 0.929 . S
H121 C118 0.930 1_556 S
H122 C110 0.929 . S
H123 C112 0.929 . S
O124 Co99 2.351 . S
O124 C127 1.244 . S
O125 Co99 2.155 . S
O125 C127 1.240 . S
O126 Co99 2.096 . S
O126 C107 1.247 . S
C127 O124 1.244 . S
C127 O125 1.240 . S
H128 C102 0.931 . S
H129 C111 0.931 . S
H130 C115 0.929 . S
H131 C117 0.930 . S
Co132 N136 2.148 . S
Co132 N142 2.128 . S
Co132 N152 2.194 . S
Co132 O157 2.351 . S
Co132 O158 2.155 . S
Co132 O159 2.096 . S
C133 N136 1.301 . S
C133 N137 1.328 . S
C133 H138 0.930 . S
C134 C135 1.333 . S
C134 N136 1.317 . S
C134 H139 0.930 . S
C135 C134 1.333 . S
C135 N137 1.350 . S
C135 H161 0.931 . S
N136 Co132 2.148 . S
N136 C133 1.301 . S
N136 C134 1.317 . S
N137 C133 1.328 . S
N137 C135 1.350 . S
H138 C133 0.930 . S
H139 C134 0.930 . S
C140 O141 1.224 . S
C140 O159 1.247 . S
O141 C140 1.224 . S
N142 Co132 2.128 . S
N142 C143 1.355 . S
N142 C145 1.311 . S
C143 N142 1.355 . S
C143 C144 1.363 . S
C143 H155 0.929 . S
C144 C143 1.363 . S
C144 N146 1.375 . S
C144 H162 0.931 . S
C145 N142 1.311 . S
C145 N146 1.347 . S
C145 H156 0.929 . S
N146 C144 1.375 . S
N146 C145 1.347 . S
C147 C150 1.365 . S
C147 N152 1.328 . S
C147 H153 0.929 . S
C148 C149 1.362 . S
C148 C151 1.378 . S
C148 H163 0.929 . S
C149 C148 1.362 . S
C149 C150 1.366 . S
C150 C147 1.365 . S
C150 C149 1.366 . S
C150 H164 0.930 . S
C151 C148 1.378 . S
C151 N152 1.315 . S
C151 H154 0.930 . S
N152 Co132 2.194 . S
N152 C147 1.328 . S
N152 C151 1.315 . S
H153 C147 0.929 . S
H154 C151 0.930 . S
H155 C143 0.929 . S
H156 C145 0.929 . S
O157 Co132 2.351 . S
O157 C160 1.244 . S
O158 Co132 2.155 . S
O158 C160 1.240 . S
O159 Co132 2.096 . S
O159 C140 1.247 . S
C160 O157 1.244 . S
C160 O158 1.240 . S
H161 C135 0.931 . S
H162 C144 0.931 . S
H163 C148 0.929 . S
H164 C150 0.930 . S
Co165 N169 2.148 . S
Co165 N175 2.128 1_455 S
Co165 N185 2.194 . S
Co165 O190 2.351 . S
Co165 O191 2.155 . S
Co165 O192 2.096 1_455 S
C166 N169 1.301 . S
C166 N170 1.328 . S
C166 H171 0.930 . S
C167 C168 1.333 . S
C167 N169 1.317 . S
C167 H172 0.930 . S
C168 C167 1.333 . S
C168 N170 1.350 . S
C168 H194 0.931 . S
N169 Co165 2.148 . S
N169 C166 1.301 . S
N169 C167 1.317 . S
N170 C166 1.328 . S
N170 C168 1.350 . S
H171 C166 0.930 . S
H172 C167 0.930 . S
C173 O174 1.224 . S
C173 O192 1.247 . S
O174 C173 1.224 . S
N175 Co165 2.128 1_655 S
N175 C176 1.355 1_556 S
N175 C178 1.311 . S
C176 N175 1.355 1_554 S
C176 C177 1.363 . S
C176 H188 0.929 1_655 S
C177 C176 1.363 . S
C177 N179 1.375 . S
C177 H195 0.931 . S
C178 N175 1.311 . S
C178 N179 1.347 1_556 S
C178 H189 0.929 . S
N179 C177 1.375 . S
N179 C178 1.347 1_554 S
C180 C183 1.365 1_556 S
C180 N185 1.328 . S
C180 H186 0.929 . S
C181 C182 1.362 . S
C181 C184 1.378 . S
C181 H196 0.929 1_455 S
C182 C181 1.362 . S
C182 C183 1.366 1_556 S
C183 C180 1.365 1_554 S
C183 C182 1.366 1_554 S
C183 H197 0.930 . S
C184 C181 1.378 . S
C184 N185 1.315 . S
C184 H187 0.930 1_455 S
N185 Co165 2.194 . S
N185 C180 1.328 . S
N185 C184 1.315 . S
H186 C180 0.929 . S
H187 C184 0.930 1_655 S
H188 C176 0.929 1_455 S
H189 C178 0.929 . S
O190 Co165 2.351 . S
O190 C193 1.244 . S
O191 Co165 2.155 . S
O191 C193 1.240 . S
O192 Co165 2.096 1_655 S
O192 C173 1.247 . S
C193 O190 1.244 . S
C193 O191 1.240 . S
H194 C168 0.931 . S
H195 C177 0.931 . S
H196 C181 0.929 1_655 S
H197 C183 0.930 . S
Co198 N202 2.148 . S
Co198 N208 2.128 . S
Co198 N218 2.194 . S
Co198 O223 2.351 . S
Co198 O224 2.155 . S
Co198 O225 2.096 . S
C199 N202 1.301 . S
C199 N203 1.328 . S
C199 H204 0.930 . S
C200 C201 1.333 . S
C200 N202 1.317 . S
C200 H205 0.930 . S
C201 C200 1.333 . S
C201 N203 1.350 . S
C201 H227 0.931 . S
N202 Co198 2.148 . S
N202 C199 1.301 . S
N202 C200 1.317 . S
N203 C199 1.328 . S
N203 C201 1.350 . S
H204 C199 0.930 . S
H205 C200 0.930 . S
C206 O207 1.224 . S
C206 O225 1.247 . S
O207 C206 1.224 . S
N208 Co198 2.128 . S
N208 C209 1.355 . S
N208 C211 1.311 . S
C209 N208 1.355 . S
C209 C210 1.363 . S
C209 H221 0.929 . S
C210 C209 1.363 . S
C210 N212 1.375 . S
C210 H228 0.931 . S
C211 N208 1.311 . S
C211 N212 1.347 . S
C211 H222 0.929 . S
N212 C210 1.375 . S
N212 C211 1.347 . S
C213 C216 1.365 . S
C213 N218 1.328 . S
C213 H219 0.929 . S
C214 C215 1.362 . S
C214 C217 1.378 . S
C214 H229 0.929 . S
C215 C214 1.362 . S
C215 C216 1.366 . S
C216 C213 1.365 . S
C216 C215 1.366 . S
C216 H230 0.930 . S
C217 C214 1.378 . S
C217 N218 1.315 . S
C217 H220 0.930 . S
N218 Co198 2.194 . S
N218 C213 1.328 . S
N218 C217 1.315 . S
H219 C213 0.929 . S
H220 C217 0.930 . S
H221 C209 0.929 . S
H222 C211 0.929 . S
O223 Co198 2.351 . S
O223 C226 1.244 . S
O224 Co198 2.155 . S
O224 C226 1.240 . S
O225 Co198 2.096 . S
O225 C206 1.247 . S
C226 O223 1.244 . S
C226 O224 1.240 . S
H227 C201 0.931 . S
H228 C210 0.931 . S
H229 C214 0.929 . S
H230 C216 0.930 . S
Co231 N235 2.148 1_455 S
Co231 N241 2.128 . S
Co231 N251 2.194 . S
Co231 O256 2.351 1_455 S
Co231 O257 2.155 . S
Co231 O258 2.096 . S
C232 N235 1.301 . S
C232 N236 1.328 1_554 S
C232 H237 0.930 . S
C233 C234 1.333 . S
C233 N235 1.317 1_556 S
C233 H238 0.930 1_655 S
C234 C233 1.333 . S
C234 N236 1.350 . S
C234 H260 0.931 . S
N235 Co231 2.148 1_655 S
N235 C232 1.301 . S
N235 C233 1.317 1_554 S
N236 C232 1.328 1_556 S
N236 C234 1.350 . S
H237 C232 0.930 . S
H238 C233 0.930 1_455 S
C239 O240 1.224 . S
C239 O258 1.247 . S
O240 C239 1.224 . S
N241 Co231 2.128 . S
N241 C242 1.355 . S
N241 C244 1.311 . S
C242 N241 1.355 . S
C242 C243 1.363 . S
C242 H254 0.929 . S
C243 C242 1.363 . S
C243 N245 1.375 . S
C243 H261 0.931 . S
C244 N241 1.311 . S
C244 N245 1.347 . S
C244 H255 0.929 . S
N245 C243 1.375 . S
N245 C244 1.347 . S
C246 C249 1.365 . S
C246 N251 1.328 1_655 S
C246 H252 0.929 . S
C247 C248 1.360 1_556 S
C247 C250 1.378 1_556 S
C247 H262 0.929 . S
C248 C247 1.360 1_554 S
C248 C249 1.372 1_455 S
C249 C246 1.365 . S
C249 C248 1.372 1_655 S
C249 H263 0.930 . S
C250 C247 1.378 1_554 S
C250 N251 1.315 . S
C250 H253 0.930 1_554 S
N251 Co231 2.194 . S
N251 C246 1.328 1_455 S
N251 C250 1.315 . S
H252 C246 0.929 . S
H253 C250 0.930 1_556 S
H254 C242 0.929 . S
H255 C244 0.929 . S
O256 Co231 2.351 1_655 S
O256 C259 1.244 . S
O257 Co231 2.155 . S
O257 C259 1.240 1_455 S
O258 Co231 2.096 . S
O258 C239 1.247 . S
C259 O256 1.244 . S
C259 O257 1.240 1_655 S
H260 C234 0.931 . S
H261 C243 0.931 . S
H262 C247 0.929 . S
H263 C249 0.930 . S
C28 C127 1.434 . S
C41 C94 1.416 . S
N80 N38 1.624 . S
N113 N14 1.691 . S
C160 C259 1.434 . S
C226 C173 1.417 . S
N170 N212 1.624 . S
N245 N146 1.691 . S
C83 C17 1.616 . S
C50 C116 1.514 1_556 S
C215 C149 1.616 1_545 S
C248 C182 1.514 1_564 S
N5 C206 1.450 . S
N47 C239 1.527 . S
N71 C140 1.447 . S
C193 N104 1.476 . S
C74 N137 1.450 1_455 S
C107 N179 1.527 . S
C8 N203 1.447 1_455 S
C61 N236 1.476 . S
