# Generated by pormake.
# Topology crs, (6)-cn, num edge types: 1
# Building blocks:
#     Node 0, Type 0, BuildingBlock: CUWYAW_clean_sbu_0, # of connection points: 6
#     Node 1, Type 0, BuildingBlock: CUWYAW_clean_sbu_0, # of connection points: 6
#     Node 2, Type 0, BuildingBlock: CUWYAW_clean_sbu_0, # of connection points: 6
#     Node 3, Type 0, BuildingBlock: CUWYAW_clean_sbu_0, # of connection points: 6
#     Node 4, Type 0, BuildingBlock: CUWYAW_clean_sbu_0, # of connection points: 6
#     Node 5, Type 0, BuildingBlock: CUWYAW_clean_sbu_0, # of connection points: 6
#     Node 6, Type 0, BuildingBlock: CUWYAW_clean_sbu_0, # of connection points: 6
#     Node 7, Type 0, BuildingBlock: CUWYAW_clean_sbu_0, # of connection points: 6
#     Node 8, Type 0, BuildingBlock: CUWYAW_clean_sbu_0, # of connection points: 6
#     Node 9, Type 0, BuildingBlock: CUWYAW_clean_sbu_0, # of connection points: 6
#     Node 10, Type 0, BuildingBlock: CUWYAW_clean_sbu_0, # of connection points: 6
#     Node 11, Type 0, BuildingBlock: CUWYAW_clean_sbu_0, # of connection points: 6
#     Node 12, Type 0, BuildingBlock: CUWYAW_clean_sbu_0, # of connection points: 6
#     Node 13, Type 0, BuildingBlock: CUWYAW_clean_sbu_0, # of connection points: 6
#     Node 14, Type 0, BuildingBlock: CUWYAW_clean_sbu_0, # of connection points: 6
#     Node 15, Type 0, BuildingBlock: CUWYAW_clean_sbu_0, # of connection points: 6
#     Edge 16, Type (0, 0), BuildingBlock: XIVTED_clean_linker_0, # of connection points: 2
#     Edge 17, Type (0, 0), BuildingBlock: XIVTED_clean_linker_0, # of connection points: 2
#     Edge 18, Type (0, 0), BuildingBlock: XIVTED_clean_linker_0, # of connection points: 2
#     Edge 19, Type (0, 0), BuildingBlock: XIVTED_clean_linker_0, # of connection points: 2
#     Edge 20, Type (0, 0), BuildingBlock: XIVTED_clean_linker_0, # of connection points: 2
#     Edge 21, Type (0, 0), BuildingBlock: XIVTED_clean_linker_0, # of connection points: 2
#     Edge 22, Type (0, 0), BuildingBlock: XIVTED_clean_linker_0, # of connection points: 2
#     Edge 23, Type (0, 0), BuildingBlock: XIVTED_clean_linker_0, # of connection points: 2
#     Edge 24, Type (0, 0), BuildingBlock: XIVTED_clean_linker_0, # of connection points: 2
#     Edge 25, Type (0, 0), BuildingBlock: XIVTED_clean_linker_0, # of connection points: 2
#     Edge 26, Type (0, 0), BuildingBlock: XIVTED_clean_linker_0, # of connection points: 2
#     Edge 27, Type (0, 0), BuildingBlock: XIVTED_clean_linker_0, # of connection points: 2
#     Edge 28, Type (0, 0), BuildingBlock: XIVTED_clean_linker_0, # of connection points: 2
#     Edge 29, Type (0, 0), BuildingBlock: XIVTED_clean_linker_0, # of connection points: 2
#     Edge 30, Type (0, 0), BuildingBlock: XIVTED_clean_linker_0, # of connection points: 2
#     Edge 31, Type (0, 0), BuildingBlock: XIVTED_clean_linker_0, # of connection points: 2
#     Edge 32, Type (0, 0), BuildingBlock: XIVTED_clean_linker_0, # of connection points: 2
#     Edge 33, Type (0, 0), BuildingBlock: XIVTED_clean_linker_0, # of connection points: 2
#     Edge 34, Type (0, 0), BuildingBlock: XIVTED_clean_linker_0, # of connection points: 2
#     Edge 35, Type (0, 0), BuildingBlock: XIVTED_clean_linker_0, # of connection points: 2
#     Edge 36, Type (0, 0), BuildingBlock: XIVTED_clean_linker_0, # of connection points: 2
#     Edge 37, Type (0, 0), BuildingBlock: XIVTED_clean_linker_0, # of connection points: 2
#     Edge 38, Type (0, 0), BuildingBlock: XIVTED_clean_linker_0, # of connection points: 2
#     Edge 39, Type (0, 0), BuildingBlock: XIVTED_clean_linker_0, # of connection points: 2
#     Edge 40, Type (0, 0), BuildingBlock: XIVTED_clean_linker_0, # of connection points: 2
#     Edge 41, Type (0, 0), BuildingBlock: XIVTED_clean_linker_0, # of connection points: 2
#     Edge 42, Type (0, 0), BuildingBlock: XIVTED_clean_linker_0, # of connection points: 2
#     Edge 43, Type (0, 0), BuildingBlock: XIVTED_clean_linker_0, # of connection points: 2
#     Edge 44, Type (0, 0), BuildingBlock: XIVTED_clean_linker_0, # of connection points: 2
#     Edge 45, Type (0, 0), BuildingBlock: XIVTED_clean_linker_0, # of connection points: 2
#     Edge 46, Type (0, 0), BuildingBlock: XIVTED_clean_linker_0, # of connection points: 2
#     Edge 47, Type (0, 0), BuildingBlock: XIVTED_clean_linker_0, # of connection points: 2
#     Edge 48, Type (0, 0), BuildingBlock: XIVTED_clean_linker_0, # of connection points: 2
#     Edge 49, Type (0, 0), BuildingBlock: XIVTED_clean_linker_0, # of connection points: 2
#     Edge 50, Type (0, 0), BuildingBlock: XIVTED_clean_linker_0, # of connection points: 2
#     Edge 51, Type (0, 0), BuildingBlock: XIVTED_clean_linker_0, # of connection points: 2
#     Edge 52, Type (0, 0), BuildingBlock: XIVTED_clean_linker_0, # of connection points: 2
#     Edge 53, Type (0, 0), BuildingBlock: XIVTED_clean_linker_0, # of connection points: 2
#     Edge 54, Type (0, 0), BuildingBlock: XIVTED_clean_linker_0, # of connection points: 2
#     Edge 55, Type (0, 0), BuildingBlock: XIVTED_clean_linker_0, # of connection points: 2
#     Edge 56, Type (0, 0), BuildingBlock: XIVTED_clean_linker_0, # of connection points: 2
#     Edge 57, Type (0, 0), BuildingBlock: XIVTED_clean_linker_0, # of connection points: 2
#     Edge 58, Type (0, 0), BuildingBlock: XIVTED_clean_linker_0, # of connection points: 2
#     Edge 59, Type (0, 0), BuildingBlock: XIVTED_clean_linker_0, # of connection points: 2
#     Edge 60, Type (0, 0), BuildingBlock: XIVTED_clean_linker_0, # of connection points: 2
#     Edge 61, Type (0, 0), BuildingBlock: XIVTED_clean_linker_0, # of connection points: 2
#     Edge 62, Type (0, 0), BuildingBlock: XIVTED_clean_linker_0, # of connection points: 2
#     Edge 63, Type (0, 0), BuildingBlock: XIVTED_clean_linker_0, # of connection points: 2
# Relax obj value: 0.458
# Max RMSD: 0.367
# Mean RMSD: 0.307
data_MOF--net-crs--node1-CUWYAW_clean_sbu_0--edge1-XIVTED_clean_linker_0
_symmetry_space_group_name_H-M    P1
_symmetry_Int_Tables_number       1
_symmetry_cell_setting            triclinic
loop_
_symmetry_equiv_pos_as_xyz
'x, y, z'
_cell_length_a     54.564125
_cell_length_b     58.061329
_cell_length_c     41.165167
_cell_angle_alpha  73.215253
_cell_angle_beta   74.907922
_cell_angle_gamma 64.394077
loop_
_atom_site_label
_atom_site_type_symbol
_atom_site_fract_x
_atom_site_fract_y
_atom_site_fract_z
_atom_type_partial_charge
C0 C 0.05754 1.00898 0.98692 0.0
Eu1 Eu 0.0053 1.02051 0.99145 0.0
C2 C 0.07171 1.02115 0.99822 0.0
C3 C 0.09782 1.02035 0.98141 0.0
C4 C 0.10959 0.03478 0.98952 0.0
C5 C 0.09544 0.05011 0.01476 0.0
C6 C 0.06977 0.0498 0.03248 0.0
C7 C 0.05791 0.03583 0.02389 0.0
C8 C 0.9758 0.03565 0.94009 0.0
C9 C 0.97192 0.08091 0.00339 0.0
C10 C 0.88913 0.0552 0.01804 0.0
Eu11 Eu 0.94147 0.04343 0.01298 0.0
C12 C 0.87485 0.04282 0.00743 0.0
C13 C 0.84901 0.04322 0.025 0.0
C14 C 0.83763 0.02796 0.01812 0.0
C15 C 0.85198 1.01218 0.99343 0.0
C16 C 0.87711 1.01314 0.97463 0.0
C17 C 0.88859 0.0279 0.98202 0.0
C18 C 0.97119 0.02775 0.06427 0.0
C19 C 0.97514 0.98287 0.00114 0.0
O20 O 0.04388 0.99692 0.01145 0.0
O21 O 0.04355 1.02369 0.96187 0.0
O22 O -0.00044 1.01628 0.94131 0.0
O23 O 0.96996 0.0471 0.96453 0.0
O24 O -0.00511 0.05976 0.00331 0.0
O25 O 0.94791 0.08065 0.00293 0.0
O26 O 0.90284 0.06696 0.99308 0.0
O27 O 0.90319 0.04069 0.04309 0.0
O28 O 0.94765 0.04742 0.06318 0.0
O29 O -0.02331 1.01662 0.03966 0.0
O30 O 0.95204 1.00398 0.00109 0.0
O31 O -0.00102 0.98327 0.00202 0.0
H32 H 0.10863 1.00942 0.96114 0.0
H33 H 0.12915 0.03483 0.97481 0.0
H34 H 0.05835 0.06091 0.05244 0.0
H35 H 0.03748 0.03724 0.03657 0.0
H36 H 0.83826 0.05435 0.04509 0.0
H37 H 0.8184 0.02746 0.03344 0.0
H38 H 0.88858 1.00157 0.95515 0.0
H39 H 0.90888 0.02667 0.96894 0.0
C40 C 0.961 0.25004 0.1847 0.0
Eu41 Eu 0.96883 0.27094 0.22725 0.0
C42 C 0.97113 0.23888 0.1535 0.0
C43 C 0.95843 0.2529 0.12426 0.0
C44 C 0.9627 0.24068 0.09749 0.0
C45 C -0.02037 0.21411 0.09954 0.0
C46 C -0.006 0.20063 0.12758 0.0
C47 C -0.01027 0.21287 0.15438 0.0
C48 C 0.93267 0.31894 0.23827 0.0
C49 C 0.01611 0.29452 0.19595 0.0
C50 C -0.00863 0.31303 0.31465 0.0
Eu51 Eu -0.01477 0.2908 0.27234 0.0
C52 C -0.02016 0.32397 0.34607 0.0
C53 C -0.00848 0.31 0.37606 0.0
C54 C -0.0143 0.32216 0.40343 0.0
C55 C 0.96824 0.3486 0.40121 0.0
C56 C 0.95484 0.36197 0.37235 0.0
C57 C 0.96066 0.34979 0.34496 0.0
C58 C 0.02156 0.24248 0.26247 0.0
C59 C 0.9392 0.26584 0.30436 0.0
O60 O 0.97221 0.23652 0.2123 0.0
O61 O 0.95359 0.27515 0.18105 0.0
O62 O 0.92562 0.30034 0.23846 0.0
O63 O 0.95851 0.31174 0.23214 0.0
O64 O 0.00648 0.27774 0.19387 0.0
O65 O 0.00745 0.30575 0.22262 0.0
O66 O -0.01998 0.32599 0.28703 0.0
O67 O 0.00027 0.28777 0.31808 0.0
O68 O 0.0283 0.26101 0.26357 0.0
O69 O -0.00435 0.24987 0.26741 0.0
O70 O 0.94837 0.28296 0.30631 0.0
O71 O 0.94763 0.25499 0.27733 0.0
H72 H 0.94385 0.27293 0.12297 0.0
H73 H 0.95165 0.25167 0.07598 0.0
H74 H 0.00703 0.18009 0.13009 0.0
H75 H -0.00029 0.20148 0.17666 0.0
H76 H 0.00648 0.29011 0.3776 0.0
H77 H -0.00397 0.31127 0.42555 0.0
H78 H 0.94146 0.38243 0.36972 0.0
H79 H 0.95142 0.36115 0.32213 0.0
C80 C 0.67707 0.26149 0.46498 0.0
Eu81 Eu 0.71069 0.27388 0.48453 0.0
C82 C 0.66976 0.23855 0.47298 0.0
C83 C 0.67416 0.2258 0.44653 0.0
C84 C 0.66847 0.20347 0.45342 0.0
C85 C 0.65796 0.19359 0.48689 0.0
C86 C 0.65322 0.2065 0.51338 0.0
C87 C 0.65923 0.22872 0.50655 0.0
C88 C 0.76229 0.26796 0.45253 0.0
C89 C 0.74046 0.2263 0.54635 0.0
C90 C 0.77352 0.29653 0.54795 0.0
Eu91 Eu 0.74284 0.28254 0.52525 0.0
C92 C 0.78161 0.31903 0.53751 0.0
C93 C 0.77924 0.33222 0.56252 0.0
C94 C 0.78488 0.35474 0.55306 0.0
C95 C 0.79321 0.36434 0.51841 0.0
C96 C 0.79591 0.35095 0.49336 0.0
C97 C 0.78994 0.32857 0.5028 0.0
C98 C 0.69079 0.2882 0.55524 0.0
C99 C 0.71482 0.32955 0.46244 0.0
O100 O 0.6695 0.27502 0.48895 0.0
O101 O 0.70196 0.25826 0.4487 0.0
O102 O 0.74105 0.27791 0.43699 0.0
O103 O 0.75595 0.25995 0.48437 0.0
O104 O 0.72131 0.23649 0.52625 0.0
O105 O 0.7548 0.23945 0.54736 0.0
O106 O 0.78342 0.28012 0.5272 0.0
O107 O 0.74747 0.30183 0.56012 0.0
O108 O 0.71165 0.27634 0.57161 0.0
O109 O 0.69816 0.29689 0.52419 0.0
O110 O 0.73422 0.31892 0.48216 0.0
O111 O 0.69971 0.31695 0.462 0.0
H112 H 0.68219 0.23305 0.42046 0.0
H113 H 0.67195 0.19412 0.43244 0.0
H114 H 0.64524 0.1992 0.53944 0.0
H115 H 0.65581 0.23803 0.52756 0.0
H116 H 0.77268 0.32527 0.58937 0.0
H117 H 0.78298 0.36453 0.5729 0.0
H118 H 0.80215 0.35807 0.46647 0.0
H119 H 0.79152 0.31895 0.48293 0.0
C120 C 0.70175 0.03126 0.66461 0.0
Eu121 Eu 0.71858 1.02435 0.72177 0.0
C122 C 0.67807 0.03056 0.65505 0.0
C123 C 0.65406 0.03232 0.67896 0.0
C124 C 0.63214 0.03032 0.67009 0.0
C125 C 0.63402 1.02631 0.63727 0.0
C126 C 0.65806 1.02481 0.61332 0.0
C127 C 0.67992 0.02694 0.62218 0.0
C128 C 0.71432 0.98805 0.78004 0.0
C129 C 0.67494 0.06674 0.76873 0.0
C130 C 0.75152 1.02268 0.84282 0.0
Eu131 Eu 0.73719 0.0295 0.78422 0.0
C132 C 0.77579 1.02306 0.85147 0.0
C133 C 0.79982 1.01968 0.82714 0.0
C134 C 0.82248 1.02141 0.8344 0.0
C135 C 0.82144 0.02679 0.86601 0.0
C136 C 0.79736 0.03003 0.89045 0.0
C137 C 0.77469 0.02814 0.88321 0.0
C138 C 0.75121 0.06176 0.72492 0.0
C139 C 0.78034 0.98933 0.73542 0.0
O140 O 0.6967 0.0503 0.67943 0.0
O141 O 0.71854 1.00889 0.67947 0.0
O142 O 0.7177 0.98498 0.74905 0.0
O143 O 0.70963 1.0116 0.77936 0.0
O144 O 0.6805 0.05715 0.7409 0.0
O145 O 0.69246 0.05749 0.79086 0.0
O146 O 0.75617 1.00339 0.82858 0.0
O147 O 0.73507 0.04516 0.82749 0.0
O148 O 0.75666 0.05946 0.75478 0.0
O149 O 0.74014 0.04598 0.72873 0.0
O150 O 0.77241 0.99421 0.76676 0.0
O151 O 0.76482 1.00287 0.71104 0.0
H152 H 0.65244 0.03489 0.70459 0.0
H153 H 0.61397 0.0313 0.68915 0.0
H154 H 0.65992 1.02207 0.58772 0.0
H155 H 0.69838 1.02549 0.60349 0.0
H156 H 0.80091 1.01606 0.8023 0.0
H157 H 0.84061 1.01914 0.81493 0.0
H158 H 0.79612 0.03394 0.91515 0.0
H159 H 0.75622 0.03092 0.90219 0.0
C160 C 0.46498 0.74049 0.17535 0.0
Eu161 Eu 0.46572 0.76507 0.21844 0.0
C162 C 0.47853 0.7274 0.14584 0.0
C163 C 0.47157 0.74099 0.11311 0.0
C164 C 0.47827 0.72763 0.08676 0.0
C165 C 0.492 0.7004 0.09264 0.0
C166 C 0.50095 0.68705 0.1245 0.0
C167 C 0.49415 0.70042 0.15095 0.0
C168 C 0.42788 0.81337 0.22556 0.0
C169 C 0.51235 0.78994 0.19387 0.0
C170 C 0.4694 0.82625 0.30145 0.0
Eu171 Eu 0.47542 0.79157 0.26878 0.0
C172 C 0.46933 0.83094 0.33473 0.0
C173 C 0.49122 0.81582 0.35345 0.0
C174 C 0.49261 0.82347 0.38197 0.0
C175 C 0.47215 0.84633 0.39217 0.0
C176 C 0.44948 0.86046 0.3745 0.0
C177 C 0.44814 0.85283 0.34606 0.0
C178 C 0.50986 0.73991 0.27617 0.0
C179 C 0.43401 0.7606 0.29624 0.0
O180 O 0.4727 0.72859 0.20555 0.0
O181 O 0.45725 0.76587 0.16947 0.0
O182 O 0.42216 0.79496 0.22178 0.0
O183 O 0.45353 0.80592 0.22397 0.0
O184 O 0.50389 0.77284 0.1899 0.0
O185 O 0.50126 0.8025 0.21955 0.0
O186 O 0.44872 0.82155 0.29847 0.0
O187 O 0.49307 0.81269 0.28496 0.0
O188 O 0.50902 0.75528 0.29436 0.0
O189 O 0.49208 0.75281 0.25675 0.0
O190 O 0.44126 0.77857 0.30006 0.0
O191 O 0.44357 0.74992 0.26875 0.0
H192 H 0.45936 0.76176 0.10841 0.0
H193 H 0.47141 0.73844 0.06233 0.0
H194 H 0.51139 0.66601 0.12987 0.0
H195 H 0.49962 0.68935 0.17595 0.0
H196 H 0.50776 0.79872 0.3453 0.0
H197 H 0.51014 0.81199 0.39532 0.0
H198 H 0.43355 0.87835 0.38126 0.0
H199 H 0.43114 0.86481 0.33187 0.0
C200 C 0.17119 0.76232 0.46573 0.0
Eu201 Eu 0.20768 0.77234 0.4827 0.0
C202 C 0.16406 0.7393 0.4745 0.0
C203 C 0.16392 0.72875 0.44795 0.0
C204 C 0.15948 0.70572 0.45545 0.0
C205 C 0.15484 0.69295 0.48969 0.0
C206 C 0.15453 0.70372 0.51634 0.0
C207 C 0.1593 0.72663 0.50883 0.0
C208 C 0.25927 0.76339 0.44851 0.0
C209 C 0.23782 0.72321 0.54287 0.0
C210 C 0.27748 0.7891 0.54176 0.0
Eu211 Eu 0.24354 0.77795 0.52095 0.0
C212 C 0.28706 0.8107 0.53144 0.0
C213 C 0.2836 0.82473 0.556 0.0
C214 C 0.29073 0.84639 0.54655 0.0
C215 C 0.30173 0.85425 0.51239 0.0
C216 C 0.30566 0.83996 0.48785 0.0
C217 C 0.29818 0.81844 0.49723 0.0
C218 C 0.19131 0.78631 0.5533 0.0
C219 C 0.21548 0.82624 0.45955 0.0
O220 O 0.16564 0.77481 0.49029 0.0
O221 O 0.19534 0.75942 0.44718 0.0
O222 O 0.2374 0.77488 0.43399 0.0
O223 O 0.25339 0.75569 0.48054 0.0
O224 O 0.21775 0.73463 0.52399 0.0
O225 O 0.25378 0.73507 0.54272 0.0
O226 O 0.28542 0.77341 0.52041 0.0
O227 O 0.25158 0.79523 0.5554 0.0
O228 O 0.21273 0.77306 0.56854 0.0
O229 O 0.19831 0.79481 0.52205 0.0
O230 O 0.23597 0.81416 0.47767 0.0
O231 O 0.19842 0.81522 0.4608 0.0
H232 H 0.16768 0.73815 0.42134 0.0
H233 H 0.15943 0.69799 0.43446 0.0
H234 H 0.15111 0.69415 0.54294 0.0
H235 H 0.15965 0.73416 0.52984 0.0
H236 H 0.27502 0.81913 0.58248 0.0
H237 H 0.28782 0.85691 0.56602 0.0
H238 H 0.31399 0.84574 0.46132 0.0
H239 H 0.30079 0.80814 0.47764 0.0
C240 C 0.20513 0.52823 0.66057 0.0
Eu241 Eu 0.21655 0.52393 0.72 0.0
C242 C 0.18187 0.52622 0.65172 0.0
C243 C 0.1587 0.52683 0.67678 0.0
C244 C 0.13628 0.52516 0.66887 0.0
C245 C 0.13665 0.52267 0.63578 0.0
C246 C 0.16007 0.52168 0.61078 0.0
C247 C 0.18255 0.52351 0.61871 0.0
C248 C 0.20169 0.49313 0.78034 0.0
C249 C 0.17301 0.56827 0.7639 0.0
C250 C 0.24389 0.52562 0.8468 0.0
Eu251 Eu 0.23271 0.53096 0.78679 0.0
C252 C 0.26576 0.52826 0.85831 0.0
C253 C 0.27612 0.54749 0.84001 0.0
C254 C 0.29876 0.54814 0.84898 0.0
C255 C 0.31165 0.5294 0.87616 0.0
C256 C 0.3009 0.51047 0.89487 0.0
C257 C 0.2781 0.50995 0.88602 0.0
C258 C 0.24771 0.56163 0.72636 0.0
C259 C 0.27606 0.48657 0.74308 0.0
O260 O 0.19869 0.54827 0.67425 0.0
O261 O 0.22204 0.50654 0.67688 0.0
O262 O 0.19707 0.49427 0.75046 0.0
O263 O 0.21194 0.50967 0.77599 0.0
O264 O 0.18169 0.56063 0.73406 0.0
O265 O 0.18698 0.55647 0.79014 0.0
O266 O 0.25219 0.50612 0.83135 0.0
O267 O 0.22592 0.54709 0.83152 0.0
O268 O 0.25225 0.56065 0.75626 0.0
O269 O 0.2373 0.54521 0.73085 0.0
O270 O 0.26711 0.49409 0.77297 0.0
O271 O 0.26234 0.4985 0.71663 0.0
H272 H 0.15794 0.5287 0.70251 0.0
H273 H 0.1187 0.5256 0.68877 0.0
H274 H 0.16079 0.51995 0.58501 0.0
H275 H 0.20034 0.52293 0.59912 0.0
H276 H 0.26719 0.56162 0.8182 0.0
H277 H 0.30678 0.56275 0.83384 0.0
H278 H 0.31025 0.49595 0.91617 0.0
H279 H 0.27052 0.49485 0.90028 0.0
C280 C 0.05629 0.51061 0.47526 0.0
Eu281 Eu 0.00397 0.52032 0.48739 0.0
C282 C 0.07164 0.52218 0.48541 0.0
C283 C 0.0958 0.52406 0.46478 0.0
C284 C 0.10823 0.53814 0.47234 0.0
C285 C 0.09678 0.55032 0.50093 0.0
C286 C 0.07328 0.54717 0.52235 0.0
C287 C 0.06057 0.53379 0.5142 0.0
C288 C 0.96946 0.53721 0.44122 0.0
C289 C 0.9706 0.57849 0.50712 0.0
C290 C 0.88913 0.54974 0.52846 0.0
Eu291 Eu 0.94147 0.53986 0.51747 0.0
C292 C 0.87436 0.53758 0.51834 0.0
C293 C 0.84928 0.53691 0.53744 0.0
C294 C 0.83738 0.52225 0.53011 0.0
C295 C 0.85047 0.50806 0.50353 0.0
C296 C 0.87505 0.50978 0.48374 0.0
C297 C 0.88692 0.52414 0.49131 0.0
C298 C 0.97598 0.52259 0.56376 0.0
C299 C 0.97512 0.48118 0.49946 0.0
O300 O 0.04507 0.49662 0.50038 0.0
O301 O 0.03953 0.52656 0.45347 0.0
O302 O -0.00641 0.5184 0.43871 0.0
O303 O 0.96572 0.54714 0.46648 0.0
O304 O -0.00592 0.55819 0.50312 0.0
O305 O 0.94652 0.57754 0.50892 0.0
O306 O 0.90074 0.56329 0.50316 0.0
O307 O 0.90542 0.53435 0.551 0.0
O308 O 0.95177 0.5413 0.56655 0.0
O309 O -0.02033 0.51294 0.53828 0.0
O310 O 0.95162 0.50148 0.50307 0.0
O311 O -0.00083 0.48238 0.49712 0.0
H312 H 0.10439 0.51558 0.44207 0.0
H313 H 0.12599 0.54046 0.45481 0.0
H314 H 0.06402 0.55578 0.54488 0.0
H315 H 0.04143 0.53338 0.52971 0.0
H316 H 0.83946 0.54687 0.55877 0.0
H317 H 0.81867 0.52108 0.54632 0.0
H318 H 0.88571 0.49934 0.46301 0.0
H319 H 0.90655 0.52391 0.47677 0.0
C320 C 0.17536 0.26089 0.96174 0.0
Eu321 Eu 0.2099 0.27292 0.97982 0.0
C322 C 0.16687 0.23853 0.97329 0.0
C323 C 0.16974 0.22427 0.94929 0.0
C324 C 0.16376 0.2019 0.95987 0.0
C325 C 0.15454 0.19351 0.99464 0.0
C326 C 0.15127 0.20799 0.01866 0.0
C327 C 0.15757 0.23022 0.00813 0.0
C328 C 0.26198 0.26324 0.94675 0.0
C329 C 0.23905 0.22484 0.04086 0.0
C330 C 0.28552 0.28802 0.03027 0.0
Eu331 Eu 0.24736 0.27835 0.01662 0.0
C332 C 0.29033 0.31194 0.02497 0.0
C333 C 0.26833 0.33636 0.02237 0.0
C334 C 0.273 0.35905 0.01745 0.0
C335 C 0.29978 0.3577 0.01469 0.0
C336 C 0.32183 0.33324 0.01657 0.0
C337 C 0.31711 0.31052 0.02174 0.0
C338 C 0.19557 0.28871 0.05107 0.0
C339 C 0.21558 0.32783 0.95754 0.0
O340 O 0.16794 0.27648 0.98307 0.0
O341 O 0.20076 0.25568 0.9463 0.0
O342 O 0.24047 0.27657 0.93168 0.0
O343 O 0.25516 0.25544 0.97833 0.0
O344 O 0.21782 0.23735 0.02397 0.0
O345 O 0.25691 0.23535 0.03809 0.0
O346 O 0.28793 0.2803 0.00233 0.0
O347 O 0.26403 0.2865 0.05265 0.0
O348 O 0.21734 0.27777 0.06578 0.0
O349 O 0.20175 0.2956 0.01898 0.0
O350 O 0.23562 0.3166 0.97647 0.0
O351 O 0.19988 0.31575 0.95739 0.0
H352 H 0.17696 0.23027 0.92235 0.0
H353 H 0.16609 0.1913 0.94077 0.0
H354 H 0.14431 0.20184 0.04563 0.0
H355 H 0.1555 0.24065 0.02731 0.0
H356 H 0.24752 0.33787 0.02428 0.0
H357 H 0.25567 0.37765 0.01566 0.0
H358 H 0.34266 0.33161 0.01483 0.0
H359 H 0.33434 0.29183 0.02342 0.0
C360 C 0.20098 0.02854 0.16313 0.0
Eu361 Eu 0.2146 1.02427 0.2213 0.0
C362 C 0.17698 0.02745 0.15496 0.0
C363 C 0.15407 0.02819 0.18053 0.0
C364 C 0.13119 0.02693 0.17318 0.0
C365 C 0.13091 1.02474 0.14019 0.0
C366 C 0.15395 1.02395 0.1146 0.0
C367 C 0.17684 1.02534 0.12197 0.0
C368 C 0.20615 0.98988 0.2805 0.0
C369 C 0.17086 0.06479 0.26835 0.0
C370 C 0.24736 0.0355 0.33458 0.0
Eu371 Eu 0.23567 0.03197 0.27925 0.0
C372 C 0.27264 0.03282 0.34425 0.0
C373 C 0.298 1.02357 0.32298 0.0
C374 C 0.32183 1.02247 0.33114 0.0
C375 C 0.32066 0.03074 0.36063 0.0
C376 C 0.29523 0.03956 0.38219 0.0
C377 C 0.27141 0.0406 0.37402 0.0
C378 C 0.24792 0.05871 0.2146 0.0
C379 C 0.27712 0.98902 0.23592 0.0
O380 O 0.19586 0.04855 0.17606 0.0
O381 O 0.21739 1.00666 0.1796 0.0
O382 O 0.1982 0.99289 0.25197 0.0
O383 O 0.21649 1.00639 0.27652 0.0
O384 O 0.17531 0.05462 0.24148 0.0
O385 O 0.19001 0.05762 0.28766 0.0
O386 O 0.24704 1.01414 0.33033 0.0
O387 O 0.23756 0.05562 0.31034 0.0
O388 O 0.26425 0.04824 0.23749 0.0
O389 O 0.22604 0.05489 0.22757 0.0
O390 O 0.27032 0.99547 0.26617 0.0
O391 O 0.26086 1.00131 0.21213 0.0
H392 H 0.15394 0.02965 0.20624 0.0
H393 H 0.11387 0.02728 0.19347 0.0
H394 H 0.15413 1.02254 0.08886 0.0
H395 H 0.1944 1.02476 0.10197 0.0
H396 H 0.29925 1.01763 0.29974 0.0
H397 H 0.34102 1.01586 0.31383 0.0
H398 H 0.29374 0.04572 0.40533 0.0
H399 H 0.25196 0.04779 0.39069 0.0
C400 C 0.45903 0.23631 0.69293 0.0
Eu401 Eu 0.46572 0.26206 0.72983 0.0
C402 C 0.47086 0.2235 0.66307 0.0
C403 C 0.46274 0.23744 0.63094 0.0
C404 C 0.46904 0.22454 0.60424 0.0
C405 C 0.48349 0.19742 0.60913 0.0
C406 C 0.49323 0.18369 0.64045 0.0
C407 C 0.48684 0.19661 0.66728 0.0
C408 C 0.43 0.31153 0.73464 0.0
C409 C 0.51315 0.28468 0.69141 0.0
C410 C 0.48117 0.32828 0.79338 0.0
Eu411 Eu 0.4824 0.29208 0.76709 0.0
C412 C 0.48251 0.33301 0.82619 0.0
C413 C 0.50634 0.33473 0.83043 0.0
C414 C 0.50682 0.34223 0.8595 0.0
C415 C 0.48338 0.34843 0.88482 0.0
C416 C 0.45985 0.34581 0.88119 0.0
C417 C 0.4594 0.33818 0.85217 0.0
C418 C 0.5164 0.24001 0.778 0.0
C419 C 0.44045 0.26277 0.80828 0.0
O420 O 0.46998 0.22499 0.72122 0.0
O421 O 0.45049 0.26177 0.6865 0.0
O422 O 0.42264 0.29227 0.73925 0.0
O423 O 0.45588 0.30405 0.72753 0.0
O424 O 0.50392 0.26628 0.69512 0.0
O425 O 0.5039 0.30054 0.71317 0.0
O426 O 0.45903 0.32553 0.79129 0.0
O427 O 0.50381 0.31263 0.77769 0.0
O428 O 0.51799 0.25706 0.79111 0.0
O429 O 0.49656 0.25159 0.76154 0.0
O430 O 0.44835 0.28202 0.80519 0.0
O431 O 0.44878 0.24864 0.78448 0.0
H432 H 0.45024 0.25815 0.62688 0.0
H433 H 0.46153 0.23561 0.58024 0.0
H434 H 0.50422 0.16272 0.64502 0.0
H435 H 0.49318 0.18529 0.69181 0.0
H436 H 0.52433 0.33116 0.81067 0.0
H437 H 0.52512 0.34445 0.86126 0.0
H438 H 0.44155 0.35026 0.90041 0.0
H439 H 0.44065 0.33712 0.8497 0.0
C440 C 0.96877 0.72769 0.7141 0.0
Eu441 Eu 0.97004 0.76264 0.74092 0.0
C442 C 0.97299 0.72009 0.68123 0.0
C443 C 0.9568 0.73623 0.65553 0.0
C444 C 0.95864 0.7269 0.62685 0.0
C445 C -0.02328 0.70135 0.62337 0.0
C446 C -0.00617 0.6858 0.64833 0.0
C447 C -0.00809 0.69507 0.67698 0.0
C448 C 0.93362 0.81337 0.73347 0.0
C449 C 0.01205 0.78946 0.69244 0.0
C450 C -0.01081 0.82866 0.79576 0.0
Eu451 Eu -0.0149 0.79551 0.76823 0.0
C452 C -0.01342 0.83515 0.82884 0.0
C453 C 0.96251 0.83884 0.85326 0.0
C454 C 0.95968 0.84798 0.88254 0.0
C455 C -0.01911 0.85351 0.88784 0.0
C456 C 0.00535 0.84866 0.86397 0.0
C457 C 0.00812 0.83961 0.83482 0.0
C458 C 0.02147 0.74485 0.77392 0.0
C459 C 0.94263 0.76929 0.81663 0.0
O460 O -0.00946 0.72524 0.72464 0.0
O461 O 0.94727 0.74849 0.72067 0.0
O462 O 0.9268 0.7935 0.74057 0.0
O463 O 0.95952 0.80593 0.72851 0.0
O464 O 0.00479 0.76934 0.69998 0.0
O465 O 0.00187 0.80646 0.71265 0.0
O466 O 0.96674 0.83227 0.7857 0.0
O467 O 0.00985 0.80754 0.78858 0.0
O468 O 0.02843 0.76473 0.76455 0.0
O469 O -0.0044 0.75237 0.78063 0.0
O470 O 0.95014 0.78924 0.80917 0.0
O471 O 0.95238 0.75245 0.79627 0.0
H472 H 0.94208 0.75569 0.65808 0.0
H473 H 0.94541 0.73943 0.60786 0.0
H474 H 0.00768 0.6659 0.64675 0.0
H475 H 0.00447 0.68223 0.69657 0.0
H476 H 0.94562 0.83537 0.8493 0.0
H477 H 0.94069 0.85128 0.9006 0.0
H478 H 0.02192 0.85312 0.86682 0.0
H479 H 0.0268 0.83699 0.81622 0.0
C480 C 0.70759 0.53339 0.16408 0.0
Eu481 Eu 0.71861 0.52702 0.22481 0.0
C482 C 0.68466 0.53497 0.15005 0.0
C483 C 0.65754 0.54448 0.16721 0.0
C484 C 0.63609 0.54474 0.15439 0.0
C485 C 0.64146 0.53524 0.12442 0.0
C486 C 0.66863 0.52596 0.10714 0.0
C487 C 0.69005 0.52589 0.11985 0.0
C488 C 0.71132 0.49079 0.2817 0.0
C489 C 0.66935 0.5682 0.26993 0.0
C490 C 0.73918 0.52776 0.35341 0.0
Eu491 Eu 0.72953 0.53358 0.2924 0.0
C492 C 0.75983 0.53188 0.36552 0.0
C493 C 0.7664 0.55391 0.35018 0.0
C494 C 0.7884 0.55604 0.35862 0.0
C495 C 0.80442 0.53608 0.38229 0.0
C496 C 0.79727 0.51445 0.3985 0.0
C497 C 0.7751 0.51241 0.39019 0.0
C498 C 0.74658 0.56576 0.23517 0.0
C499 C 0.77669 0.492 0.24858 0.0
O500 O 0.703 0.55268 0.17815 0.0
O501 O 0.72102 0.51067 0.18202 0.0
O502 O 0.71768 0.48741 0.25038 0.0
O503 O 0.70535 0.51454 0.28162 0.0
O504 O 0.67825 0.55919 0.24107 0.0
O505 O 0.68431 0.55911 0.29492 0.0
O506 O 0.74908 0.50861 0.33692 0.0
O507 O 0.72026 0.54865 0.33875 0.0
O508 O 0.74833 0.56468 0.26639 0.0
O509 O 0.73719 0.54908 0.23714 0.0
O510 O 0.76449 0.49696 0.2794 0.0
O511 O 0.76503 0.506 0.22094 0.0
H512 H 0.65298 0.55134 0.19078 0.0
H513 H 0.61542 0.55166 0.1685 0.0
H514 H 0.67331 0.51872 0.08385 0.0
H515 H 0.7109 0.51844 0.10634 0.0
H516 H 0.75515 0.56911 0.33078 0.0
H517 H 0.7936 0.57278 0.34548 0.0
H518 H 0.8091 0.49891 0.41714 0.0
H519 H 0.77045 0.49521 0.40221 0.0
C520 C 0.6841 0.75872 0.9641 0.0
Eu521 Eu 0.71468 0.7724 0.98772 0.0
C522 C 0.67715 0.73593 0.96875 0.0
C523 C 0.68501 0.7232 0.94127 0.0
C524 C 0.67801 0.70219 0.94423 0.0
C525 C 0.66257 0.69357 0.97462 0.0
C526 C 0.65503 0.70606 0.00242 0.0
C527 C 0.66226 0.72705 0.99953 0.0
C528 C 0.76701 0.76644 0.95894 0.0
C529 C 0.74202 0.72684 0.0524 0.0
C530 C 0.77809 0.79618 0.04862 0.0
Eu531 Eu 0.74536 0.78288 0.02879 0.0
C532 C 0.78464 0.8195 0.03896 0.0
C533 C 0.76535 0.84391 0.02593 0.0
C534 C 0.77196 0.86591 0.01583 0.0
C535 C 0.79795 0.86389 0.01873 0.0
C536 C 0.81717 0.83934 0.03195 0.0
C537 C 0.81056 0.81732 0.04188 0.0
C538 C 0.69301 0.7896 0.05828 0.0
C539 C 0.71674 0.82899 0.96526 0.0
O540 O 0.67486 0.77153 0.98907 0.0
O541 O 0.70928 0.75613 0.94986 0.0
O542 O 0.74659 0.77737 0.94189 0.0
O543 O 0.75918 0.7586 0.99022 0.0
O544 O 0.72369 0.73625 0.03131 0.0
O545 O 0.75624 0.7402 0.05313 0.0
O546 O 0.78624 0.78234 0.02494 0.0
O547 O 0.75311 0.79928 0.06449 0.0
O548 O 0.71342 0.78009 0.07521 0.0
O549 O 0.70062 0.79671 0.02659 0.0
O550 O 0.73552 0.81941 0.98576 0.0
O551 O 0.70259 0.8155 0.96471 0.0
H552 H 0.6965 0.72964 0.91729 0.0
H553 H 0.68471 0.69272 0.92254 0.0
H554 H 0.64297 0.70007 0.0261 0.0
H555 H 0.65589 0.73648 0.02121 0.0
H556 H 0.74519 0.84595 0.02351 0.0
H557 H 0.75681 0.88442 0.00541 0.0
H558 H 0.83721 0.83718 0.03507 0.0
H559 H 0.82568 0.79861 0.05187 0.0
C560 C 0.56707 1.00288 0.47385 0.0
Eu561 Eu 0.51525 1.01157 0.48136 0.0
C562 C 0.58055 1.01656 0.48349 0.0
C563 C 0.6047 1.01891 0.46342 0.0
C564 C 0.61529 0.03494 0.46997 0.0
C565 C 0.60192 0.04877 0.49688 0.0
C566 C 0.57841 0.04531 0.51781 0.0
C567 C 0.56765 0.02975 0.51079 0.0
C568 C 0.48417 1.02597 0.43184 0.0
C569 C 0.48017 0.0714 0.49525 0.0
C570 C 0.39975 0.04201 0.51148 0.0
Eu571 Eu 0.45169 0.03229 0.50533 0.0
C572 C 0.38618 0.02856 0.50168 0.0
C573 C 0.36072 0.02832 0.51983 0.0
C574 C 0.34977 1.01255 0.51342 0.0
C575 C 0.36411 0.99688 0.4886 0.0
C576 C 0.38905 0.99819 0.46949 0.0
C577 C 0.4001 1.01356 0.47635 0.0
C578 C 0.48212 1.01836 0.55522 0.0
C579 C 0.48725 0.97184 0.49342 0.0
O580 O 0.55486 0.98998 0.49934 0.0
O581 O 0.55204 1.01662 0.4495 0.0
O582 O 0.50814 1.00684 0.43216 0.0
O583 O 0.47887 0.03732 0.45619 0.0
O584 O 0.50367 0.05085 0.49388 0.0
O585 O 0.45643 0.07031 0.49546 0.0
O586 O 0.41266 0.05426 0.48604 0.0
O587 O 0.41422 0.02827 0.53636 0.0
O588 O 0.45777 0.03693 0.55496 0.0
O589 O 0.48802 1.00689 0.53078 0.0
O590 O 0.46359 0.99229 0.49447 0.0
O591 O 0.51094 0.97331 0.49244 0.0
H592 H 0.61474 1.00921 0.44186 0.0
H593 H 0.63319 0.03739 0.45294 0.0
H594 H 0.56773 0.05527 0.53903 0.0
H595 H 0.54854 0.02895 0.52586 0.0
H596 H 0.34987 0.03948 0.53987 0.0
H597 H 0.33073 1.01176 0.52907 0.0
H598 H 0.40051 0.98677 0.44985 0.0
H599 H 0.42007 1.013 0.46267 0.0
C600 C 0.56673 0.50066 0.97069 0.0
Eu601 Eu 0.51469 0.50959 0.98379 0.0
C602 C 0.58068 0.51772 0.97011 0.0
C603 C 0.57521 0.54186 0.947 0.0
C604 C 0.58612 0.55914 0.94859 0.0
C605 C 0.60288 0.55278 0.97322 0.0
C606 C 0.60851 0.52858 0.99631 0.0
C607 C 0.59756 0.51118 0.99469 0.0
C608 C 0.48028 0.52225 0.93893 0.0
C609 C 0.48234 0.57098 0.99192 0.0
C610 C 0.39939 0.54291 0.02489 0.0
Eu611 Eu 0.452 0.53198 0.01234 0.0
C612 C 0.38226 0.52963 0.02242 0.0
C613 C 0.37697 0.51066 0.05016 0.0
C614 C 0.36326 0.49621 0.04677 0.0
C615 C 0.35453 0.50041 0.01559 0.0
C616 C 0.35863 0.52016 0.98837 0.0
C617 C 0.37217 0.53479 0.99183 0.0
C618 C 0.48608 0.52044 0.05717 0.0
C619 C 0.48516 0.47043 0.00435 0.0
O620 O 0.5547 0.49232 0.00088 0.0
O621 O 0.55164 0.50809 0.94661 0.0
O622 O 0.50391 0.50263 0.93889 0.0
O623 O 0.47695 0.53492 0.96105 0.0
O624 O 0.50552 0.55024 0.98946 0.0
O625 O 0.45793 0.56989 0.99632 0.0
O626 O 0.41174 0.55264 0.99588 0.0
O627 O 0.41529 0.53122 0.04863 0.0
O628 O 0.46188 0.53922 0.05757 0.0
O629 O 0.48975 0.50742 0.03525 0.0
O630 O 0.46177 0.49127 0.0051 0.0
O631 O 0.50919 0.47173 0.00183 0.0
H632 H 0.56189 0.54784 0.92813 0.0
H633 H 0.58079 0.57784 0.93095 0.0
H634 H 0.62145 0.52305 0.01549 0.0
H635 H 0.60187 0.4928 0.01302 0.0
H636 H 0.38409 0.50642 0.07427 0.0
H637 H 0.36043 0.48104 0.06816 0.0
H638 H 0.35151 0.52411 0.96437 0.0
H639 H 0.37522 0.54975 0.97032 0.0
H640 H 0.01799 0.09016 0.99774 0.0
H641 H 0.93529 0.21891 0.07513 0.0
H642 H 0.92928 0.12586 0.01875 0.0
H643 H 0.02302 0.1758 0.06973 0.0
H644 H 0.93359 0.19044 0.04308 0.0
H645 H 0.02056 0.12659 0.01269 0.0
C646 C -0.001 0.10575 0.00525 0.0
C647 C 0.97334 0.10471 0.00757 0.0
C648 C 0.95327 0.18742 0.04848 0.0
C649 C 0.97629 0.14645 0.02493 0.0
C650 C 0.95433 0.20383 0.06652 0.0
C651 C -0.02065 0.19963 0.07535 0.0
C652 C -0.02264 0.1666 0.03923 0.0
C653 C 0.00325 0.17949 0.06394 0.0
C654 C 0.00054 0.12655 0.0138 0.0
C655 C 0.9495 0.12575 0.01685 0.0
N656 N 0.00162 0.16356 0.04673 0.0
N657 N 0.95155 0.14563 0.0256 0.0
H658 H 0.77889 0.26875 0.38455 0.0
H659 H 0.92024 0.27851 0.36835 0.0
H660 H 0.80964 0.25684 0.47704 0.0
H661 H 0.90617 0.2429 0.29996 0.0
H662 H 0.87896 0.27507 0.4079 0.0
H663 H 0.82427 0.26415 0.35159 0.0
C664 C 0.79525 0.26512 0.39799 0.0
C665 C 0.79045 0.26339 0.43359 0.0
C666 C 0.88528 0.26768 0.38445 0.0
C667 C 0.84241 0.25855 0.39579 0.0
C668 C 0.90872 0.26969 0.36184 0.0
C669 C 0.9166 0.26112 0.33067 0.0
C670 C 0.86939 0.2576 0.37535 0.0
C671 C 0.90093 0.24981 0.3236 0.0
C672 C 0.82117 0.26239 0.37914 0.0
C673 C 0.81246 0.25855 0.44962 0.0
N674 N 0.87787 0.24878 0.34546 0.0
N675 N 0.83751 0.25669 0.43049 0.0
H676 H 0.7276 0.0787 0.66586 0.0
H677 H 0.77473 0.20044 0.5952 0.0
H678 H 0.77666 0.09487 0.71631 0.0
H679 H 0.71524 0.19261 0.55215 0.0
H680 H 0.77906 0.15936 0.63601 0.0
H681 H 0.72625 0.11756 0.6205 0.0
C682 C 0.73834 0.0902 0.6672 0.0
C683 C 0.75225 0.08345 0.69501 0.0
C684 C 0.76513 0.16651 0.61756 0.0
C685 C 0.75078 0.12808 0.6432 0.0
C686 C 0.76269 0.19005 0.59406 0.0
C687 C 0.74457 0.20025 0.56997 0.0
C688 C 0.74944 0.15272 0.6172 0.0
C689 C 0.72951 0.18566 0.57013 0.0
C690 C 0.73747 0.11249 0.64139 0.0
C691 C 0.76567 0.09926 0.69543 0.0
N692 N 0.73224 0.16276 0.5933 0.0
N693 N 0.76458 0.1207 0.67012 0.0
H694 H 0.92791 0.07717 0.92673 0.0
H695 H 0.87581 0.99525 0.85377 0.0
H696 H -0.02269 0.99904 0.90991 0.0
H697 H 0.82141 0.06436 0.89387 0.0
H698 H 0.9151 1.0003 0.86433 0.0
H699 H 0.89086 0.07726 0.90317 0.0
C700 C 0.93103 0.0602 0.91766 0.0
C701 C 0.95536 0.0379 0.92081 0.0
C702 C 0.89458 1.01446 0.87063 0.0
C703 C 0.91337 0.03777 0.89412 0.0
C704 C 0.87217 1.01159 0.86461 0.0
C705 C 0.84533 0.02939 0.87302 0.0
C706 C 0.89018 0.03539 0.88496 0.0
C707 C 0.84176 0.05004 0.88737 0.0
C708 C 0.90996 0.06026 0.90422 0.0
C709 C 0.95873 1.01656 0.90816 0.0
N710 N 0.86394 0.05249 0.89288 0.0
N711 N 0.9378 1.01689 0.8958 0.0
H712 H 0.9707 0.06268 0.09682 0.0
H713 H 0.12996 0.9914 0.10561 0.0
H714 H 0.01844 0.98533 0.07636 0.0
H715 H 0.07665 0.05457 0.15787 0.0
H716 H 0.08938 0.98917 0.09388 0.0
H717 H 0.00875 0.05982 0.12066 0.0
C718 C -0.01097 0.04488 0.098 0.0
C719 C -0.0082 1.02439 0.08404 0.0
C720 C 0.08657 1.00329 0.1083 0.0
C721 C 0.0354 1.02107 0.11087 0.0
C722 C 0.1097 1.00478 0.1146 0.0
C723 C 0.10661 1.0232 0.13272 0.0
C724 C 0.0602 1.02059 0.11977 0.0
C725 C 0.07991 0.03993 0.14408 0.0
C726 C 0.01076 0.04327 0.11153 0.0
C727 C 0.01588 1.00176 0.08622 0.0
N728 N 0.05772 0.03837 0.13717 0.0
N729 N 0.037 1.00082 0.09889 0.0
H730 H 0.01833 0.43634 0.48501 0.0
H731 H 0.92349 0.38646 0.43021 0.0
H732 H 0.92954 0.47169 0.50276 0.0
H733 H 0.01117 0.34462 0.42761 0.0
H734 H 0.92455 0.41542 0.46235 0.0
H735 H 0.01572 0.39998 0.46958 0.0
C736 C -0.00172 0.43635 0.48604 0.0
C737 C 0.97413 0.45738 0.49456 0.0
C738 C 0.94348 0.39961 0.45526 0.0
C739 C 0.97097 0.41594 0.47663 0.0
C740 C 0.94287 0.38312 0.43687 0.0
C741 C 0.96729 0.36322 0.42599 0.0
C742 C 0.96875 0.39634 0.46239 0.0
C743 C -0.00821 0.35958 0.43564 0.0
C744 C -0.00321 0.41557 0.47722 0.0
C745 C 0.94872 0.4562 0.49568 0.0
N746 N -0.00804 0.37621 0.45284 0.0
N747 N 0.94781 0.43604 0.48635 0.0
H748 H 0.64092 0.32508 0.53963 0.0
H749 H 0.55404 0.24447 0.66387 0.0
H750 H 0.67863 0.25018 0.60383 0.0
H751 H 0.52623 0.32709 0.65836 0.0
H752 H 0.5966 0.24519 0.62561 0.0
H753 H 0.59522 0.32473 0.56795 0.0
C754 C 0.63951 0.3085 0.5594 0.0
C755 C 0.66334 0.2878 0.5699 0.0
C756 C 0.58092 0.26318 0.6324 0.0
C757 C 0.61178 0.28693 0.60124 0.0
C758 C 0.55661 0.26286 0.65398 0.0
C759 C 0.53671 0.28575 0.66438 0.0
C760 C 0.585 0.28665 0.62054 0.0
C761 C 0.54121 0.309 0.6511 0.0
C762 C 0.6136 0.30834 0.57548 0.0
C763 C 0.66063 0.26668 0.59547 0.0
N764 N 0.56494 0.30888 0.6298 0.0
N765 N 0.63528 0.26671 0.6102 0.0
H766 H 0.71785 0.98239 0.84867 0.0
H767 H 0.68908 0.85037 0.90982 0.0
H768 H 0.70382 0.9463 0.78108 0.0
H769 H 0.73604 0.86625 0.96401 0.0
H770 H 0.68601 0.89059 0.86742 0.0
H771 H 0.7167 0.94497 0.896 0.0
C772 C 0.71428 0.96683 0.84382 0.0
C773 C 0.71112 0.96751 0.81069 0.0
C774 C 0.69683 0.88539 0.88874 0.0
C775 C 0.7093 0.92492 0.86473 0.0
C776 C 0.6985 0.86241 0.91314 0.0
C777 C 0.71289 0.85466 0.94076 0.0
C778 C 0.7093 0.90122 0.89192 0.0
C779 C 0.72476 0.87126 0.94327 0.0
C780 C 0.71372 0.94543 0.87079 0.0
C781 C 0.70651 0.9467 0.80604 0.0
N782 N 0.72269 0.89369 0.91929 0.0
N783 N 0.70564 0.92649 0.83256 0.0
H784 H 0.18044 0.28152 0.12012 0.0
H785 H 0.03457 0.28356 0.13094 0.0
H786 H 0.14688 0.30628 0.02611 0.0
H787 H 0.05169 0.3133 0.20363 0.0
H788 H 0.07698 0.28556 0.09271 0.0
H789 H 0.1348 0.28641 0.15282 0.0
C790 C 0.16345 0.28796 0.10631 0.0
C791 C 0.16751 0.29316 0.07031 0.0
C792 C 0.07108 0.29197 0.11685 0.0
C793 C 0.11536 0.2983 0.10767 0.0
C794 C 0.04702 0.29077 0.13868 0.0
C795 C 0.0396 0.29822 0.17056 0.0
C796 C 0.08805 0.29998 0.12754 0.0
C797 C 0.0565 0.30741 0.17931 0.0
C798 C 0.13744 0.2908 0.12501 0.0
C799 C 0.1447 0.30155 0.05381 0.0
N800 N 0.08013 0.3076 0.15821 0.0
N801 N 0.11955 0.30351 0.07265 0.0
H802 H 0.69855 0.45107 0.28009 0.0
H803 H 0.73516 0.36543 0.46333 0.0
H804 H 0.71565 0.48246 0.35064 0.0
H805 H 0.68653 0.35312 0.40746 0.0
H806 H 0.73124 0.40668 0.42226 0.0
H807 H 0.69685 0.41388 0.3257 0.0
C808 C 0.70172 0.45028 0.30537 0.0
C809 C 0.70719 0.47009 0.31143 0.0
C810 C 0.72122 0.39506 0.41922 0.0
C811 C 0.70592 0.42672 0.36413 0.0
C812 C 0.7235 0.37141 0.44261 0.0
C813 C 0.71116 0.35557 0.439 0.0
C814 C 0.70693 0.40284 0.39149 0.0
C815 C 0.69635 0.36454 0.41151 0.0
C816 C 0.70074 0.42893 0.33148 0.0
C817 C 0.71121 0.46778 0.3448 0.0
N818 N 0.69493 0.38728 0.38876 0.0
N819 N 0.71089 0.44631 0.36978 0.0
H820 H 0.47879 0.05531 0.5861 0.0
H821 H 0.63714 0.99052 0.60366 0.0
H822 H 0.53149 0.97844 0.56662 0.0
H823 H 0.57885 0.05537 0.6503 0.0
H824 H 0.59902 0.98625 0.58853 0.0
H825 H 0.51509 0.05565 0.60997 0.0
C826 C 0.49789 0.03828 0.58744 0.0
C827 C 0.50242 1.01693 0.57399 0.0
C828 C 0.59457 1.00123 0.60239 0.0
C829 C 0.54407 1.01726 0.60105 0.0
C830 C 0.61631 1.00386 0.61069 0.0
C831 C 0.61112 1.02335 0.62822 0.0
C832 C 0.56747 1.01837 0.61141 0.0
C833 C 0.58373 0.03992 0.63707 0.0
C834 C 0.51862 0.03852 0.601 0.0
C835 C 0.52748 0.99542 0.57627 0.0
N836 N 0.56293 0.03716 0.62836 0.0
N837 N 0.54756 0.99621 0.58923 0.0
H838 H 0.01826 0.93612 0.99458 0.0
H839 H 0.93436 0.89256 0.91116 0.0
H840 H 0.9305 0.97513 0.99555 0.0
H841 H 0.0182 0.84522 0.92798 0.0
H842 H 0.93088 0.91981 0.94876 0.0
H843 H 0.01748 0.89986 0.97673 0.0
C844 C -0.00124 0.93695 0.99151 0.0
C845 C 0.9745 0.959 0.99587 0.0
C846 C 0.94991 0.9032 0.94471 0.0
C847 C 0.9735 0.91766 0.97509 0.0
C848 C 0.95185 0.88747 0.92339 0.0
C849 C -0.0232 0.86681 0.91585 0.0
C850 C 0.97317 0.89843 0.95828 0.0
C851 C -0.00119 0.86138 0.93231 0.0
C852 C -0.00168 0.9162 0.98131 0.0
C853 C 0.94981 0.95882 0.9918 0.0
N854 N -0.00336 0.87736 0.95226 0.0
N855 N 0.95001 0.93869 0.98112 0.0
H856 H 0.14935 0.04353 0.01112 0.0
H857 H 0.10833 0.18813 0.03567 0.0
H858 H 0.06562 0.09856 0.03073 0.0
H859 H 0.18535 0.14566 0.97798 0.0
H860 H 0.09548 0.15054 0.04828 0.0
H861 H 0.16559 0.07641 0.01267 0.0
C862 C 0.13435 0.06237 0.01591 0.0
C863 C 0.10599 0.06827 0.02022 0.0
C864 C 0.11531 0.14938 0.03318 0.0
C865 C 0.12454 0.10567 0.02281 0.0
C866 C 0.12269 0.17073 0.02612 0.0
C867 C 0.14778 0.17004 0.00543 0.0
C868 C 0.13329 0.12712 0.01973 0.0
C869 C 0.16561 0.14708 0.99356 0.0
C870 C 0.14368 0.08104 0.01699 0.0
C871 C 0.08763 0.09283 0.02745 0.0
N872 N 0.15798 0.12653 1.00075 0.0
N873 N 0.09722 0.11062 0.02828 0.0
H874 H 0.64425 0.59253 0.32475 0.0
H875 H 0.52208 0.7086 0.23033 0.0
H876 H 0.63302 0.59561 0.22333 0.0
H877 H 0.54398 0.70955 0.32312 0.0
H878 H 0.55844 0.66471 0.23032 0.0
H879 H 0.60326 0.63246 0.32777 0.0
C880 C 0.63304 0.60139 0.30319 0.0
C881 C 0.64239 0.59061 0.27362 0.0
C882 C 0.55512 0.67446 0.25082 0.0
C883 C 0.59516 0.63686 0.27688 0.0
C884 C 0.5343 0.69943 0.25091 0.0
C885 C 0.53003 0.7127 0.27678 0.0
C886 C 0.57163 0.66265 0.27693 0.0
C887 C 0.54661 0.70005 0.30264 0.0
C888 C 0.6096 0.62435 0.30491 0.0
C889 C 0.62674 0.60316 0.24663 0.0
N890 N 0.56663 0.67584 0.30203 0.0
N891 N 0.60404 0.62567 0.24881 0.0
H892 H 0.27066 0.90249 0.52731 0.0
H893 H 0.39534 0.94759 0.47601 0.0
H894 H 0.34991 0.85802 0.4758 0.0
H895 H 0.31086 1.00171 0.4931 0.0
H896 H 0.37925 0.91473 0.47526 0.0
H897 H 0.28488 0.93911 0.51543 0.0
C898 C 0.29101 0.90055 0.51332 0.0
C899 C 0.30925 0.87721 0.50273 0.0
C900 C 0.36423 0.9339 0.47877 0.0
C901 C 0.32569 0.91883 0.48923 0.0
C902 C 0.37339 0.95283 0.47898 0.0
C903 C 0.35443 0.97758 0.48482 0.0
C904 C 0.33591 0.9395 0.48504 0.0
C905 C 0.32625 0.98279 0.48927 0.0
C906 C 0.29905 0.92146 0.50637 0.0
C907 C 0.33525 0.87573 0.48433 0.0
N908 N 0.31784 0.96381 0.4897 0.0
N909 N 0.34286 0.89616 0.47854 0.0
H910 H 0.06838 0.73034 0.7284 0.0
H911 H 0.13779 0.58465 0.8221 0.0
H912 H 0.02024 0.69816 0.81476 0.0
H913 H 0.15099 0.60766 0.71158 0.0
H914 H 0.09835 0.62671 0.82461 0.0
H915 H 0.10305 0.6863 0.72599 0.0
C916 C 0.06511 0.71394 0.74686 0.0
C917 C 0.04142 0.71787 0.7718 0.0
C918 C 0.10979 0.6223 0.79988 0.0
C919 C 0.08144 0.6674 0.76974 0.0
C920 C 0.13232 0.59839 0.79841 0.0
C921 C 0.14776 0.59251 0.76657 0.0
C922 C 0.1032 0.64073 0.7694 0.0
C923 C 0.13968 0.61115 0.7367 0.0
C924 C 0.08486 0.68882 0.7454 0.0
C925 C 0.03819 0.69589 0.79504 0.0
N926 N 0.11832 0.63447 0.73889 0.0
N927 N 0.05822 0.67156 0.79382 0.0
H928 H 0.8385 0.37127 0.47675 0.0
H929 H 0.79666 0.5136 0.51004 0.0
H930 H 0.7624 0.41101 0.53833 0.0
H931 H 0.88055 0.46041 0.48539 0.0
H932 H 0.78074 0.48079 0.50732 0.0
H933 H 0.85079 0.40902 0.46596 0.0
C934 C 0.82422 0.38812 0.48754 0.0
C935 C 0.79958 0.38798 0.50877 0.0
C936 C 0.8026 0.47656 0.50215 0.0
C937 C 0.81342 0.43106 0.49658 0.0
C938 C 0.81173 0.49518 0.50389 0.0
C939 C 0.84003 0.48978 0.49832 0.0
C940 C 0.82188 0.45249 0.49449 0.0
C941 C 0.85853 0.46575 0.48953 0.0
C942 C 0.83128 0.40956 0.48153 0.0
C943 C 0.78181 0.41024 0.52227 0.0
N944 N 0.84913 0.44799 0.48808 0.0
N945 N 0.78913 0.43088 0.51608 0.0
H946 H 0.32254 0.96701 0.2682 0.0
H947 H 0.37633 0.83329 0.2103 0.0
H948 H 0.28938 0.95782 0.19051 0.0
H949 H 0.43281 0.85512 0.23883 0.0
H950 H 0.34203 0.87766 0.20895 0.0
H951 H 0.3615 0.92533 0.26308 0.0
C952 C 0.32362 0.95641 0.24976 0.0
C953 C 0.30261 0.96591 0.22978 0.0
C954 C 0.36195 0.87281 0.21539 0.0
C955 C 0.34673 0.91806 0.22445 0.0
C956 C 0.38151 0.84743 0.21638 0.0
C957 C 0.40744 0.84045 0.22489 0.0
C958 C 0.368 0.89136 0.2237 0.0
C959 C 0.413 0.85966 0.23239 0.0
C960 C 0.34586 0.93268 0.24685 0.0
C961 C 0.30511 0.95135 0.20632 0.0
N962 N 0.39329 0.88425 0.23203 0.0
N963 N 0.32649 0.92798 0.20471 0.0
H964 H 0.31263 0.47049 0.68543 0.0
H965 H 0.38261 0.32508 0.77948 0.0
H966 H 0.29687 0.44709 0.79575 0.0
H967 H 0.43157 0.35854 0.69602 0.0
H968 H 0.34703 0.3688 0.78153 0.0
H969 H 0.3528 0.42878 0.6838 0.0
C970 C 0.31766 0.45672 0.70925 0.0
C971 C 0.30135 0.46238 0.74078 0.0
C972 C 0.36564 0.36663 0.76292 0.0
C973 C 0.34672 0.41467 0.73896 0.0
C974 C 0.38592 0.34172 0.76174 0.0
C975 C 0.41008 0.33828 0.73771 0.0
C976 C 0.36904 0.38829 0.73912 0.0
C977 C 0.4133 0.36048 0.71516 0.0
C978 C 0.34061 0.43305 0.70829 0.0
C979 C 0.30887 0.44376 0.77085 0.0
N980 N 0.39278 0.38459 0.71601 0.0
N981 N 0.33067 0.42069 0.76914 0.0
H982 H 0.17873 0.74815 0.60105 0.0
H983 H 0.02489 0.83196 0.65811 0.0
H984 H 0.14137 0.82495 0.54077 0.0
H985 H 0.05199 0.74942 0.66363 0.0
H986 H 0.06746 0.83146 0.6186 0.0
H987 H 0.13285 0.7492 0.62896 0.0
C988 C 0.16079 0.76525 0.59376 0.0
C989 C 0.16366 0.78661 0.56889 0.0
C990 C 0.06375 0.81361 0.62803 0.0
C991 C 0.11133 0.78809 0.60096 0.0
C992 C 0.03955 0.81386 0.65055 0.0
C993 C 0.03493 0.79069 0.6642 0.0
C994 C 0.08372 0.78991 0.62001 0.0
C995 C 0.05463 0.76776 0.65363 0.0
C996 C 0.13468 0.76575 0.60945 0.0
C997 C 0.13985 0.80816 0.55996 0.0
N998 N 0.07842 0.76784 0.63272 0.0
N999 N 0.11457 0.8086 0.57648 0.0
H1000 H 0.17501 0.96151 0.29331 0.0
H1001 H 0.24572 0.8559 0.45127 0.0
H1002 H 0.23483 0.96897 0.33594 0.0
H1003 H 0.17878 0.85586 0.41401 0.0
H1004 H 0.242 0.89721 0.41075 0.0
H1005 H 0.17582 0.9234 0.33852 0.0
C1006 C 0.18815 0.95528 0.31249 0.0
C1007 C 0.2048 0.96861 0.31081 0.0
C1008 C 0.22803 0.88825 0.41158 0.0
C1009 C 0.20622 0.92424 0.36287 0.0
C1010 C 0.23012 0.86458 0.43475 0.0
C1011 C 0.21255 0.85215 0.4362 0.0
C1012 C 0.20831 0.89969 0.38938 0.0
C1013 C 0.19281 0.86453 0.414 0.0
C1014 C 0.18865 0.93338 0.33836 0.0
C1015 C 0.22147 0.95946 0.33639 0.0
N1016 N 0.19135 0.88739 0.39155 0.0
N1017 N 0.22194 0.93773 0.36118 0.0
H1018 H 0.93134 0.70675 0.60048 0.0
H1019 H 0.01612 0.58825 0.5035 0.0
H1020 H 0.01997 0.66911 0.58476 0.0
H1021 H 0.92739 0.62168 0.52644 0.0
H1022 H 0.0178 0.6232 0.52317 0.0
H1023 H 0.92967 0.68171 0.56321 0.0
C1024 C 0.95051 0.69366 0.58858 0.0
C1025 C 0.97584 0.68978 0.59612 0.0
C1026 C -0.00205 0.62306 0.52356 0.0
C1027 C 0.974 0.66063 0.55398 0.0
C1028 C -0.00306 0.60308 0.51231 0.0
C1029 C 0.97156 0.60174 0.51385 0.0
C1030 C 0.97343 0.64181 0.53662 0.0
C1031 C 0.94742 0.62177 0.52508 0.0
C1032 C 0.94951 0.67919 0.56751 0.0
C1033 C -4e-05 0.67232 0.58021 0.0
N1034 N 0.94897 0.6408 0.53645 0.0
N1035 N -0.00157 0.65816 0.56023 0.0
H1036 H 0.27366 0.76512 0.38007 0.0
H1037 H 0.41899 0.76655 0.36319 0.0
H1038 H 0.30844 0.74797 0.47124 0.0
H1039 H 0.39905 0.74076 0.28868 0.0
H1040 H 0.37854 0.76198 0.4032 0.0
H1041 H 0.31892 0.75875 0.34556 0.0
C1042 C 0.2909 0.75991 0.39288 0.0
C1043 C 0.28725 0.75738 0.42856 0.0
C1044 C 0.38336 0.7569 0.37832 0.0
C1045 C 0.3391 0.75044 0.38903 0.0
C1046 C 0.40634 0.75958 0.35542 0.0
C1047 C 0.41229 0.75419 0.32244 0.0
C1048 C 0.36589 0.74939 0.36781 0.0
C1049 C 0.39527 0.74512 0.31381 0.0
C1050 C 0.31675 0.75615 0.37315 0.0
C1051 C 0.31034 0.75042 0.44378 0.0
N1052 N 0.37256 0.74347 0.33612 0.0
N1053 N 0.3353 0.74763 0.42384 0.0
H1054 H 0.28831 0.07865 0.19256 0.0
H1055 H 0.20517 0.1983 0.054 0.0
H1056 H 0.21019 0.08992 0.17123 0.0
H1057 H 0.27931 0.19207 0.08128 0.0
H1058 H 0.20877 0.15697 0.09359 0.0
H1059 H 0.28758 0.11796 0.14885 0.0
C1060 C 0.27115 0.08919 0.17842 0.0
C1061 C 0.24929 0.08086 0.18565 0.0
C1062 C 0.22434 0.16454 0.09092 0.0
C1063 C 0.24821 0.12615 0.13555 0.0
C1064 C 0.22232 0.18825 0.06818 0.0
C1065 C 0.24194 0.19895 0.06415 0.0
C1066 C 0.24617 0.15109 0.11002 0.0
C1067 C 0.26366 0.18474 0.08343 0.0
C1068 C 0.27069 0.11174 0.15353 0.0
C1069 C 0.22755 0.09547 0.16653 0.0
N1070 N 0.26515 0.16166 0.10549 0.0
N1071 N 0.22753 0.11733 0.14256 0.0
H1072 H 0.77786 0.80572 0.91205 0.0
H1073 H 0.93154 0.72608 0.85196 0.0
H1074 H 0.8177 0.72972 0.97253 0.0
H1075 H 0.90265 0.80879 0.84651 0.0
H1076 H 0.89015 0.7254 0.8933 0.0
H1077 H 0.82304 0.80645 0.88396 0.0
C1078 C 0.79621 0.78924 0.91948 0.0
C1079 C 0.79424 0.76755 0.94438 0.0
C1080 C 0.89321 0.74355 0.8835 0.0
C1081 C 0.84581 0.76803 0.91197 0.0
C1082 C 0.91673 0.74399 0.85989 0.0
C1083 C 0.92046 0.76755 0.8457 0.0
C1084 C 0.87299 0.76697 0.8921 0.0
C1085 C 0.90063 0.79019 0.85686 0.0
C1086 C 0.82192 0.78973 0.90364 0.0
C1087 C 0.81853 0.74676 0.95338 0.0
N1088 N 0.87746 0.78945 0.87884 0.0
N1089 N 0.84346 0.74724 0.93662 0.0
H1090 H 0.2769 0.59182 0.71435 0.0
H1091 H 0.2092 0.69198 0.55114 0.0
H1092 H 0.22169 0.57986 0.669 0.0
H1093 H 0.27393 0.69523 0.58928 0.0
H1094 H 0.21333 0.65105 0.59288 0.0
H1095 H 0.27621 0.62935 0.66791 0.0
C1096 C 0.26484 0.59691 0.69432 0.0
C1097 C 0.24946 0.58246 0.69555 0.0
C1098 C 0.22676 0.66063 0.59193 0.0
C1099 C 0.2481 0.62613 0.64214 0.0
C1100 C 0.22443 0.68407 0.56804 0.0
C1101 C 0.24124 0.6973 0.56648 0.0
C1102 C 0.24592 0.65027 0.61478 0.0
C1103 C 0.26051 0.68592 0.5893 0.0
C1104 C 0.2644 0.61846 0.66776 0.0
C1105 C 0.23409 0.59018 0.66892 0.0
N1106 N 0.26217 0.6633 0.61245 0.0
N1107 N 0.23359 0.61158 0.64351 0.0
H1108 H 0.32503 0.06876 0.38276 0.0
H1109 H 0.48336 0.98945 0.4031 0.0
H1110 H 0.3733 0.99354 0.35545 0.0
H1111 H 0.43687 0.06802 0.4195 0.0
H1112 H 0.4445 0.99158 0.3815 0.0
H1113 H 0.36636 0.06927 0.39447 0.0
C1114 C 0.34432 0.05228 0.37937 0.0
C1115 C 0.34568 0.03104 0.3682 0.0
C1116 C 0.44293 1.00851 0.3893 0.0
C1117 C 0.39328 0.0317 0.38096 0.0
C1118 C 0.46515 1.00734 0.40147 0.0
C1119 C 0.46303 0.02849 0.4135 0.0
C1120 C 0.4185 0.031 0.38925 0.0
C1121 C 0.43903 0.05116 0.41097 0.0
C1122 C 0.36799 0.05271 0.3857 0.0
C1123 C 0.37135 1.01043 0.3637 0.0
N1124 N 0.41755 0.05174 0.39947 0.0
N1125 N 0.39412 1.01122 0.37025 0.0
H1126 H 0.84692 0.86773 0.98527 0.0
H1127 H 0.79891 1.01666 0.99689 0.0
H1128 H 0.76477 0.91351 0.02891 0.0
H1129 H 0.88368 0.96266 0.98274 0.0
H1130 H 0.78448 0.98195 0.99751 0.0
H1131 H 0.85904 0.90556 0.97286 0.0
C1132 C 0.83142 0.88573 0.99225 0.0
C1133 C 0.80491 0.88731 0.00863 0.0
C1134 C 0.80622 0.97792 0.9939 0.0
C1135 C 0.81854 0.93081 0.99403 0.0
C1136 C 0.81448 0.99765 0.99369 0.0
C1137 C 0.84255 0.99263 0.98997 0.0
C1138 C 0.8262 0.95308 0.99022 0.0
C1139 C 0.86182 0.96772 0.98521 0.0
C1140 C 0.8383 0.90736 0.98497 0.0
C1141 C 0.78544 0.9114 0.01617 0.0
N1142 N 0.85327 0.94891 0.98566 0.0
N1143 N 0.7927 0.93217 0.00903 0.0
H1144 H 0.69017 0.14751 0.46592 0.0
H1145 H 0.56974 0.09596 0.51564 0.0
H1146 H 0.61116 0.18646 0.5231 0.0
H1147 H 0.65474 0.04661 0.48783 0.0
H1148 H 0.58447 0.12912 0.51887 0.0
H1149 H 0.67769 0.11039 0.47322 0.0
C1150 C 0.67024 0.14815 0.48016 0.0
C1151 C 0.65157 0.17013 0.49372 0.0
C1152 C 0.59993 0.11093 0.5124 0.0
C1153 C 0.63711 0.12784 0.50205 0.0
C1154 C 0.59157 0.09181 0.51077 0.0
C1155 C 0.61101 0.06829 0.50137 0.0
C1156 C 0.62793 0.10682 0.50403 0.0
C1157 C 0.63894 0.06455 0.49454 0.0
C1158 C 0.66319 0.12693 0.48448 0.0
C1159 C 0.62616 0.16985 0.51233 0.0
N1160 N 0.64653 0.08371 0.49567 0.0
N1161 N 0.61954 0.14916 0.5156 0.0
H1162 H 0.79463 0.45108 0.30082 0.0
H1163 H 0.93727 0.36587 0.20505 0.0
H1164 H 0.81685 0.47794 0.1923 0.0
H1165 H 0.8819 0.33252 0.27586 0.0
H1166 H 0.90056 0.40984 0.20608 0.0
H1167 H 0.8344 0.41027 0.2983 0.0
C1168 C 0.80805 0.44861 0.27644 0.0
C1169 C 0.80224 0.46809 0.24664 0.0
C1170 C 0.89667 0.39281 0.22142 0.0
C1171 C 0.84821 0.42112 0.2439 0.0
C1172 C 0.91756 0.36786 0.22111 0.0
C1173 C 0.91247 0.34567 0.24044 0.0
C1174 C 0.87103 0.39537 0.24204 0.0
C1175 C 0.88658 0.34917 0.26055 0.0
C1176 C 0.83071 0.42518 0.2751 0.0
C1177 C 0.82046 0.46344 0.21583 0.0
N1178 N 0.86694 0.37351 0.26107 0.0
N1179 N 0.84278 0.44038 0.21523 0.0
H1180 H 0.06758 0.59506 0.52673 0.0
H1181 H 0.18434 0.64991 0.461 0.0
H1182 H 0.15041 0.54717 0.48748 0.0
H1183 H 0.11362 0.68125 0.53552 0.0
H1184 H 0.17274 0.61199 0.46987 0.0
H1185 H 0.08431 0.62641 0.53069 0.0
C1186 C 0.08941 0.59073 0.51954 0.0
C1187 C 0.10753 0.56826 0.50654 0.0
C1188 C 0.16 0.62699 0.48463 0.0
C1189 C 0.12666 0.60497 0.50996 0.0
C1190 C 0.16649 0.64866 0.47942 0.0
C1191 C 0.14973 0.66878 0.49733 0.0
C1192 C 0.13631 0.62571 0.50746 0.0
C1193 C 0.12706 0.66613 0.52123 0.0
C1194 C 0.09891 0.60888 0.52163 0.0
C1195 C 0.13549 0.56442 0.49688 0.0
N1196 N 0.12077 0.64516 0.52524 0.0
N1197 N 0.14414 0.58279 0.49832 0.0
H1198 H 0.65757 0.09564 0.81887 0.0
H1199 H 0.52317 0.20485 0.74016 0.0
H1200 H 0.63268 0.09132 0.73021 0.0
H1201 H 0.55645 0.21314 0.81831 0.0
H1202 H 0.55974 0.16105 0.74016 0.0
H1203 H 0.61726 0.13616 0.8233 0.0
C1204 C 0.64352 0.10299 0.80052 0.0
C1205 C 0.64879 0.08989 0.77403 0.0
C1206 C 0.55891 0.17238 0.7575 0.0
C1207 C 0.60233 0.13677 0.77887 0.0
C1208 C 0.53795 0.19733 0.7576 0.0
C1209 C 0.53674 0.21266 0.7793 0.0
C1210 C 0.57871 0.16262 0.7794 0.0
C1211 C 0.5566 0.20202 0.80114 0.0
C1212 C 0.62049 0.12629 0.80299 0.0
C1213 C 0.62965 0.10064 0.75103 0.0
N1214 N 0.57669 0.17779 0.8006 0.0
N1215 N 0.60743 0.12342 0.75389 0.0
H1216 H 0.73309 0.5776 0.17027 0.0
H1217 H 0.77122 0.70454 0.10654 0.0
H1218 H 0.76527 0.60302 0.2323 0.0
H1219 H 0.72049 0.6909 0.0554 0.0
H1220 H 0.77433 0.66432 0.14893 0.0
H1221 H 0.73331 0.61567 0.12435 0.0
C1222 C 0.7403 0.59107 0.1742 0.0
C1223 C 0.7489 0.58715 0.20539 0.0
C1224 C 0.76261 0.67003 0.12836 0.0
C1225 C 0.74956 0.63076 0.15272 0.0
C1226 C 0.7609 0.69303 0.10396 0.0
C1227 C 0.74553 0.70135 0.07715 0.0
C1228 C 0.74906 0.65485 0.12606 0.0
C1229 C 0.73255 0.68543 0.07553 0.0
C1230 C 0.74041 0.61286 0.14797 0.0
C1231 C 0.75834 0.60523 0.20879 0.0
N1232 N 0.73461 0.66305 0.09954 0.0
N1233 N 0.7584 0.62613 0.18295 0.0
H1234 H 0.92075 0.57895 0.43404 0.0
H1235 H 0.85536 0.49696 0.38467 0.0
H1236 H 0.96725 0.50206 0.41157 0.0
H1237 H 0.8107 0.57767 0.39275 0.0
H1238 H 0.89706 0.49931 0.39223 0.0
H1239 H 0.881 0.58044 0.41494 0.0
C1240 C 0.92264 0.56257 0.4246 0.0
C1241 C 0.94704 0.54023 0.42476 0.0
C1242 C 0.8782 0.51659 0.39215 0.0
C1243 C 0.90186 0.54159 0.40331 0.0
C1244 C 0.85431 0.51514 0.38828 0.0
C1245 C 0.82952 0.53712 0.38827 0.0
C1246 C 0.87725 0.54008 0.39658 0.0
C1247 C 0.82944 0.56031 0.39246 0.0
C1248 C 0.90002 0.56342 0.41366 0.0
C1249 C 0.9487 0.51961 0.41197 0.0
N1250 N 0.85291 0.56113 0.39671 0.0
N1251 N 0.92626 0.52062 0.40226 0.0
H1252 H 0.08261 0.55335 0.65202 0.0
H1253 H 0.02551 0.48144 0.56848 0.0
H1254 H 0.13548 0.48935 0.60107 0.0
H1255 H -0.02294 0.556 0.59744 0.0
H1256 H 0.06472 0.4794 0.58961 0.0
H1257 H 0.04257 0.55057 0.64005 0.0
C1258 C 0.08576 0.5386 0.63847 0.0
C1259 C 0.11238 0.52149 0.6276 0.0
C1260 C 0.04541 0.49604 0.59166 0.0
C1261 C 0.06662 0.51815 0.61387 0.0
C1262 C 0.0231 0.4972 0.57964 0.0
C1263 C -0.00171 0.51908 0.5808 0.0
C1264 C 0.04272 0.51699 0.60476 0.0
C1265 C -0.00407 0.53884 0.59593 0.0
C1266 C 0.06291 0.53705 0.63159 0.0
C1267 C 0.11529 0.50302 0.60967 0.0
N1268 N 0.01798 0.53746 0.60697 0.0
N1269 N 0.09266 0.50178 0.60341 0.0
H1270 H 0.54512 0.81026 0.20541 0.0
H1271 H 0.64711 0.80413 0.02866 0.0
H1272 H 0.53502 0.77836 0.1294 0.0
H1273 H 0.67421 0.783 0.12654 0.0
H1274 H 0.60107 0.80611 0.05918 0.0
H1275 H 0.58754 0.81292 0.16984 0.0
C1276 C 0.55156 0.80416 0.181 0.0
C1277 C 0.53653 0.7939 0.17048 0.0
C1278 C 0.61723 0.80107 0.07373 0.0
C1279 C 0.58507 0.79716 0.12957 0.0
C1280 C 0.64342 0.79984 0.05643 0.0
C1281 C 0.6646 0.79289 0.07512 0.0
C1282 C 0.61217 0.79621 0.10979 0.0
C1283 C 0.65856 0.78822 0.1111 0.0
C1284 C 0.57586 0.80559 0.16083 0.0
C1285 C 0.54609 0.7862 0.13858 0.0
N1286 N 0.6329 0.79013 0.12723 0.0
N1287 N 0.56984 0.788 0.11913 0.0
H1288 H 0.58981 0.57277 0.11863 0.0
H1289 H 0.53607 0.4814 0.06776 0.0
H1290 H 0.64177 0.4948 0.10265 0.0
H1291 H 0.48709 0.56187 0.07419 0.0
H1292 H 0.57492 0.48537 0.08186 0.0
H1293 H 0.55182 0.56903 0.10254 0.0
C1294 C 0.59319 0.55486 0.11172 0.0
C1295 C 0.61889 0.534 0.11221 0.0
C1296 C 0.55565 0.50214 0.08024 0.0
C1297 C 0.57552 0.52947 0.09397 0.0
C1298 C 0.53354 0.49985 0.07226 0.0
C1299 C 0.50859 0.52138 0.06945 0.0
C1300 C 0.55255 0.52612 0.08574 0.0
C1301 C 0.50604 0.54475 0.07612 0.0
C1302 C 0.57154 0.55274 0.10247 0.0
C1303 C 0.62231 0.5114 0.10245 0.0
N1304 N 0.5278 0.54653 0.08379 0.0
N1305 N 0.60081 0.50966 0.09397 0.0
H1306 H 0.36844 0.47562 0.96241 0.0
H1307 H 0.27045 0.39696 0.05034 0.0
H1308 H 0.31418 0.48552 0.0589 0.0
H1309 H 0.34012 0.37275 0.9712 0.0
H1310 H 0.28038 0.43492 0.04686 0.0
H1311 H 0.35208 0.44353 0.95825 0.0
C1312 C 0.35271 0.47137 0.98238 0.0
C1313 C 0.34266 0.48315 0.01107 0.0
C1314 C 0.29338 0.42139 0.0301 0.0
C1315 C 0.32422 0.44626 0.00681 0.0
C1316 C 0.28764 0.39982 0.03194 0.0
C1317 C 0.3046 0.38161 0.01117 0.0
C1318 C 0.31613 0.4249 0.00717 0.0
C1319 C 0.32677 0.38613 0.988 0.0
C1320 C 0.34359 0.45289 0.98018 0.0
C1321 C 0.32264 0.47665 0.03655 0.0
N1322 N 0.33194 0.40731 0.98667 0.0
N1323 N 0.31414 0.45856 0.03389 0.0
H1324 H 0.0723 0.22282 0.28018 0.0
H1325 H 0.12387 0.08301 0.23962 0.0
H1326 H 0.01617 0.1996 0.25336 0.0
H1327 H 0.15865 0.09942 0.30905 0.0
H1328 H 0.085 0.12516 0.24128 0.0
H1329 H 0.10557 0.17792 0.2865 0.0
C1330 C 0.06695 0.20822 0.27559 0.0
C1331 C 0.04138 0.21497 0.26623 0.0
C1332 C 0.10094 0.11927 0.25656 0.0
C1333 C 0.07973 0.16327 0.2732 0.0
C1334 C 0.12315 0.0952 0.25569 0.0
C1335 C 0.14477 0.08762 0.27408 0.0
C1336 C 0.10062 0.13608 0.2754 0.0
C1337 C 0.1426 0.10431 0.29441 0.0
C1338 C 0.08594 0.18251 0.27944 0.0
C1339 C 0.03563 0.19516 0.26071 0.0
N1340 N 0.12123 0.12786 0.29407 0.0
N1341 N 0.05482 0.17017 0.2639 0.0
H1342 H 0.243 0.3597 0.95126 0.0
H1343 H 0.17227 0.46332 0.792 0.0
H1344 H 0.17922 0.35622 0.91139 0.0
H1345 H 0.22884 0.47365 0.83699 0.0
H1346 H 0.17388 0.42483 0.83699 0.0
H1347 H 0.23777 0.40155 0.91138 0.0
C1348 C 0.22776 0.36773 0.93434 0.0
C1349 C 0.21154 0.35417 0.93486 0.0
C1350 C 0.18578 0.43556 0.83741 0.0
C1351 C 0.20559 0.40233 0.88873 0.0
C1352 C 0.1848 0.45768 0.81169 0.0
C1353 C 0.20031 0.47193 0.81075 0.0
C1354 C 0.20274 0.42714 0.86248 0.0
C1355 C 0.21631 0.46349 0.8369 0.0
C1356 C 0.2248 0.39172 0.91152 0.0
C1357 C 0.19221 0.36577 0.91213 0.0
N1358 N 0.21731 0.44154 0.8615 0.0
N1359 N 0.18991 0.38895 0.89004 0.0
H1360 H 0.27459 0.30132 0.89906 0.0
H1361 H 0.42686 0.21992 0.83624 0.0
H1362 H 0.31179 0.22395 0.95812 0.0
H1363 H 0.4019 0.3001 0.84261 0.0
H1364 H 0.3845 0.21905 0.87542 0.0
H1365 H 0.32052 0.3001 0.87102 0.0
C1366 C 0.2925 0.28405 0.906 0.0
C1367 C 0.28961 0.26263 0.93066 0.0
C1368 C 0.3887 0.2366 0.86863 0.0
C1369 C 0.34187 0.26097 0.89846 0.0
C1370 C 0.41275 0.23714 0.84633 0.0
C1371 C 0.41787 0.26011 0.83616 0.0
C1372 C 0.36941 0.25941 0.87981 0.0
C1373 C 0.39887 0.28193 0.84989 0.0
C1374 C 0.3186 0.28346 0.89025 0.0
C1375 C 0.31336 0.24081 0.93913 0.0
N1376 N 0.37519 0.28122 0.87042 0.0
N1377 N 0.33865 0.2403 0.92255 0.0
H1378 H 0.47465 0.48304 0.92172 0.0
H1379 H 0.32176 0.57078 0.87999 0.0
H1380 H 0.43391 0.56491 0.9244 0.0
H1381 H 0.35909 0.4872 0.88963 0.0
H1382 H 0.36413 0.56976 0.89121 0.0
H1383 H 0.4341 0.48496 0.90435 0.0
C1384 C 0.45729 0.50153 0.91806 0.0
C1385 C 0.45744 0.52387 0.92457 0.0
C1386 C 0.36308 0.55165 0.89077 0.0
C1387 C 0.41108 0.52625 0.90474 0.0
C1388 C 0.33892 0.55223 0.88434 0.0
C1389 C 0.33688 0.52903 0.88397 0.0
C1390 C 0.38545 0.52771 0.89667 0.0
C1391 C 0.35965 0.50551 0.89009 0.0
C1392 C 0.4341 0.50259 0.90837 0.0
C1393 C 0.43443 0.54726 0.91979 0.0
N1394 N 0.38299 0.50546 0.89613 0.0
N1395 N 0.41213 0.54786 0.91015 0.0
H1396 H 0.65917 0.65368 0.02958 0.0
H1397 H 0.62334 0.58309 0.9191 0.0
H1398 H 0.64554 0.68478 0.92411 0.0
H1399 H 0.60823 0.56545 0.03002 0.0
H1400 H 0.63788 0.61679 0.92071 0.0
H1401 H 0.6456 0.61823 0.03071 0.0
C1402 C 0.65323 0.65318 0.00674 0.0
C1403 C 0.65382 0.67216 0.97656 0.0
C1404 C 0.63139 0.60558 0.94475 0.0
C1405 C 0.63879 0.63149 0.97761 0.0
C1406 C 0.62299 0.58635 0.94386 0.0
C1407 C 0.6141 0.57166 0.97446 0.0
C1408 C 0.6312 0.61016 0.97647 0.0
C1409 C 0.61496 0.57627 0.00579 0.0
C1410 C 0.64563 0.63288 0.0074 0.0
C1411 C 0.64613 0.67031 0.94769 0.0
N1412 N 0.62326 0.59523 0.00602 0.0
N1413 N 0.6391 0.65033 0.94892 0.0
H1414 H 0.94078 0.85787 0.73261 0.0
H1415 H 0.79121 0.9571 0.69186 0.0
H1416 H 0.88024 0.83162 0.72444 0.0
H1417 H 0.82697 0.96791 0.76539 0.0
H1418 H 0.83019 0.91521 0.68811 0.0
H1419 H 0.90516 0.90245 0.73018 0.0
C1420 C 0.92011 0.86147 0.73015 0.0
C1421 C 0.9134 0.84089 0.72923 0.0
C1422 C 0.82965 0.92699 0.70466 0.0
C1423 C 0.87298 0.89185 0.72511 0.0
C1424 C 0.80756 0.95098 0.70661 0.0
C1425 C 0.80581 0.96608 0.72897 0.0
C1426 C 0.85057 0.91826 0.72451 0.0
C1427 C 0.82747 0.95689 0.74787 0.0
C1428 C 0.89985 0.88687 0.72873 0.0
C1429 C 0.88631 0.84681 0.72551 0.0
N1430 N 0.84899 0.93363 0.74515 0.0
N1431 N 0.86719 0.87169 0.72336 0.0
H1432 H 0.52801 0.15728 0.58454 0.0
H1433 H 0.43634 0.11524 0.51186 0.0
H1434 H 0.44252 0.20462 0.57647 0.0
H1435 H 0.52517 0.08128 0.49326 0.0
H1436 H 0.4383 0.14992 0.53221 0.0
H1437 H 0.52797 0.13034 0.54847 0.0
C1438 C 0.50937 0.16217 0.57479 0.0
C1439 C 0.48523 0.18311 0.58357 0.0
C1440 C 0.45736 0.13505 0.52322 0.0
C1441 C 0.48488 0.15236 0.54271 0.0
C1442 C 0.45624 0.11527 0.51152 0.0
C1443 C 0.48062 0.095 0.50152 0.0
C1444 C 0.48302 0.13433 0.52525 0.0
C1445 C 0.50583 0.09614 0.50151 0.0
C1446 C 0.50935 0.1469 0.55411 0.0
C1447 C 0.46165 0.18877 0.5701 0.0
N1448 N 0.50639 0.1152 0.51375 0.0
N1449 N 0.46195 0.17326 0.55074 0.0
H1450 H 0.52335 0.33336 0.92436 0.0
H1451 H 0.52882 0.42438 0.99657 0.0
H1452 H 0.4419 0.39017 0.90906 0.0
H1453 H 0.44063 0.46157 1.00066 0.0
H1454 H 0.52899 0.38909 0.97622 0.0
H1455 H 0.52424 0.35676 0.96431 0.0
C1456 C 0.50563 0.35077 0.9295 0.0
C1457 C 0.48273 0.36006 0.9129 0.0
C1458 C 0.50941 0.40441 0.9825 0.0
C1459 C 0.48382 0.3876 0.95784 0.0
C1460 C 0.50935 0.42478 0.99409 0.0
C1461 C 0.48475 0.44621 0.9999 0.0
C1462 C 0.48462 0.40548 0.97666 0.0
C1463 C 0.46018 0.44559 0.99623 0.0
C1464 C 0.50619 0.36431 0.95219 0.0
C1465 C 0.46003 0.38229 0.92121 0.0
N1466 N 0.46083 0.42581 0.98429 0.0
N1467 N 0.46131 0.39545 0.94272 0.0
H1468 H 0.43301 0.87087 0.44198 0.0
H1469 H 0.53108 0.92891 0.47439 0.0
H1470 H 0.51959 0.84758 0.40088 0.0
H1471 H 0.44267 0.95939 0.50278 0.0
H1472 H 0.52887 0.8923 0.45891 0.0
H1473 H 0.43799 0.89655 0.47571 0.0
C1474 C 0.45316 0.87084 0.44042 0.0
C1475 C 0.47582 0.85738 0.41809 0.0
C1476 C 0.51001 0.90683 0.46898 0.0
C1477 C 0.48167 0.8867 0.45668 0.0
C1478 C 0.51127 0.92769 0.47794 0.0
C1479 C 0.48699 0.94748 0.48935 0.0
C1480 C 0.4843 0.90579 0.47149 0.0
C1481 C 0.46189 0.94483 0.49352 0.0
C1482 C 0.45599 0.88546 0.45974 0.0
C1483 C 0.50154 0.85759 0.41773 0.0
N1484 N 0.46117 0.92456 0.48423 0.0
N1485 N 0.50368 0.87234 0.43632 0.0
H1486 H 0.4404 0.61785 0.00189 0.0
H1487 H 0.5355 0.65835 0.07078 0.0
H1488 H 0.52889 0.57821 0.99035 0.0
H1489 H 0.45122 0.70839 0.059 0.0
H1490 H 0.53434 0.63041 0.03711 0.0
H1491 H 0.44438 0.6533 0.01808 0.0
C1492 C 0.46067 0.6168 0.00207 0.0
C1493 C 0.48428 0.59485 0.99511 0.0
C1494 C 0.51625 0.64777 0.04136 0.0
C1495 C 0.48896 0.63508 0.01414 0.0
C1496 C 0.51691 0.66365 0.06065 0.0
C1497 C 0.49341 0.68563 0.0678 0.0
C1498 C 0.49175 0.6537 0.02967 0.0
C1499 C 0.46989 0.69173 0.05388 0.0
C1500 C 0.46294 0.63703 0.01138 0.0
C1501 C 0.51005 0.59462 0.99571 0.0
N1502 N 0.46952 0.67564 0.03593 0.0
N1503 N 0.51165 0.61419 0.00562 0.0
loop_
_geom_bond_atom_site_label_1
_geom_bond_atom_site_label_2
_geom_bond_distance
_geom_bond_site_symmetry_2
_ccdc_geom_bond_type
C0 Eu1 2.835 . S
C0 C2 1.500 . S
C0 O20 1.257 . S
C0 O21 1.260 . S
Eu1 C0 2.835 . S
Eu1 O20 2.473 . S
Eu1 O21 2.480 . S
Eu1 O22 2.430 1_455 S
Eu1 O23 2.670 1_455 S
Eu1 O24 2.414 1_455 S
Eu1 O29 2.355 1_546 S
Eu1 O31 2.374 1_545 S
C2 C0 1.500 . S
C2 C3 1.377 . S
C2 C7 1.377 . S
C3 C2 1.377 . S
C3 C4 1.395 . S
C3 H32 0.931 . S
C4 C3 1.395 . S
C4 C5 1.383 . S
C4 H33 0.931 . S
C5 C4 1.383 . S
C5 C6 1.394 . S
C6 C5 1.394 . S
C6 C7 1.378 . S
C6 H34 0.931 . S
C7 C2 1.377 . S
C7 C6 1.378 . S
C7 H35 0.931 . S
C8 O22 1.259 . S
C8 O23 1.270 . S
C9 O24 1.222 1_554 S
C9 O25 1.251 . S
C10 Eu11 2.835 . S
C10 C12 1.500 . S
C10 O26 1.257 . S
C10 O27 1.260 . S
Eu11 C10 2.835 . S
Eu11 O23 2.355 1_564 S
Eu11 O25 2.374 1_565 S
Eu11 O26 2.473 . S
Eu11 O27 2.480 . S
Eu11 O28 2.430 1_655 S
Eu11 O29 2.670 1_655 S
Eu11 O30 2.394 1_655 S
C12 C10 1.500 . S
C12 C13 1.377 . S
C12 C17 1.377 . S
C13 C12 1.377 . S
C13 C14 1.395 . S
C13 H36 0.931 . S
C14 C13 1.395 . S
C14 C15 1.383 . S
C14 H37 0.931 . S
C15 C14 1.383 . S
C15 C16 1.394 . S
C16 C15 1.394 . S
C16 C17 1.378 . S
C16 H38 0.931 . S
C17 C12 1.377 . S
C17 C16 1.378 . S
C17 H39 0.931 . S
C18 O28 1.259 . S
C18 O29 1.270 . S
C19 O30 1.251 1_556 S
C19 O31 1.251 . S
O20 C0 1.257 . S
O20 Eu1 2.473 . S
O21 C0 1.260 . S
O21 Eu1 2.480 . S
O22 Eu1 2.430 1_655 S
O22 C8 1.259 . S
O23 Eu1 2.670 1_655 S
O23 C8 1.270 . S
O23 Eu11 2.355 1_546 S
O24 Eu1 2.414 1_655 S
O24 C9 1.222 1_556 S
O25 C9 1.251 . S
O25 Eu11 2.374 1_545 S
O26 C10 1.257 . S
O26 Eu11 2.473 . S
O27 C10 1.260 . S
O27 Eu11 2.480 . S
O28 Eu11 2.430 1_455 S
O28 C18 1.259 . S
O29 Eu1 2.355 1_564 S
O29 Eu11 2.670 1_455 S
O29 C18 1.270 . S
O30 Eu11 2.394 1_455 S
O30 C19 1.251 1_554 S
O31 Eu1 2.374 1_565 S
O31 C19 1.251 . S
H32 C3 0.931 . S
H33 C4 0.931 . S
H34 C6 0.931 . S
H35 C7 0.931 . S
H36 C13 0.931 . S
H37 C14 0.931 . S
H38 C16 0.931 . S
H39 C17 0.931 . S
C40 Eu41 2.835 . S
C40 C42 1.500 1_655 S
C40 O60 1.257 1_655 S
C40 O61 1.260 . S
Eu41 C40 2.835 . S
Eu41 O60 2.473 1_655 S
Eu41 O61 2.480 . S
Eu41 O62 2.430 . S
Eu41 O63 2.670 . S
Eu41 O64 2.394 1_655 S
Eu41 O69 2.355 1_655 S
Eu41 O71 2.374 . S
C42 C40 1.500 1_455 S
C42 C43 1.377 1_455 S
C42 C47 1.377 . S
C43 C42 1.377 1_655 S
C43 C44 1.395 . S
C43 H72 0.931 . S
C44 C43 1.395 . S
C44 C45 1.383 1_655 S
C44 H73 0.931 . S
C45 C44 1.383 1_455 S
C45 C46 1.394 . S
C46 C45 1.394 . S
C46 C47 1.378 . S
C46 H74 0.931 . S
C47 C42 1.377 . S
C47 C46 1.378 . S
C47 H75 0.931 . S
C48 O62 1.259 . S
C48 O63 1.270 . S
C49 O64 1.251 . S
C49 O65 1.251 . S
C50 Eu51 2.835 . S
C50 C52 1.500 1_455 S
C50 O66 1.257 1_455 S
C50 O67 1.260 . S
Eu51 C50 2.835 . S
Eu51 O63 2.355 1_455 S
Eu51 O65 2.374 . S
Eu51 O66 2.473 1_455 S
Eu51 O67 2.480 . S
Eu51 O68 2.430 . S
Eu51 O69 2.670 . S
Eu51 O70 2.394 1_455 S
C52 C50 1.500 1_655 S
C52 C53 1.377 1_655 S
C52 C57 1.377 . S
C53 C52 1.377 1_455 S
C53 C54 1.395 . S
C53 H76 0.931 . S
C54 C53 1.395 . S
C54 C55 1.383 1_455 S
C54 H77 0.931 . S
C55 C54 1.383 1_655 S
C55 C56 1.394 . S
C56 C55 1.394 . S
C56 C57 1.378 . S
C56 H78 0.931 . S
C57 C52 1.377 . S
C57 C56 1.378 . S
C57 H79 0.931 . S
C58 O68 1.259 . S
C58 O69 1.270 . S
C59 O70 1.251 . S
C59 O71 1.251 . S
O60 C40 1.257 1_455 S
O60 Eu41 2.473 1_455 S
O61 C40 1.260 . S
O61 Eu41 2.480 . S
O62 Eu41 2.430 . S
O62 C48 1.259 . S
O63 Eu41 2.670 . S
O63 C48 1.270 . S
O63 Eu51 2.355 1_655 S
O64 Eu41 2.394 1_455 S
O64 C49 1.251 . S
O65 C49 1.251 . S
O65 Eu51 2.374 . S
O66 C50 1.257 1_655 S
O66 Eu51 2.473 1_655 S
O67 C50 1.260 . S
O67 Eu51 2.480 . S
O68 Eu51 2.430 . S
O68 C58 1.259 . S
O69 Eu41 2.355 1_455 S
O69 Eu51 2.670 . S
O69 C58 1.270 . S
O70 Eu51 2.394 1_655 S
O70 C59 1.251 . S
O71 Eu41 2.374 . S
O71 C59 1.251 . S
H72 C43 0.931 . S
H73 C44 0.931 . S
H74 C46 0.931 . S
H75 C47 0.931 . S
H76 C53 0.931 . S
H77 C54 0.931 . S
H78 C56 0.931 . S
H79 C57 0.931 . S
C80 Eu81 2.835 . S
C80 C82 1.500 . S
C80 O100 1.257 . S
C80 O101 1.260 . S
Eu81 C80 2.835 . S
Eu81 O100 2.473 . S
Eu81 O101 2.480 . S
Eu81 O102 2.430 . S
Eu81 O103 2.670 . S
Eu81 O104 2.394 . S
Eu81 O109 2.355 . S
Eu81 O111 2.374 . S
C82 C80 1.500 . S
C82 C83 1.377 . S
C82 C87 1.377 . S
C83 C82 1.377 . S
C83 C84 1.395 . S
C83 H112 0.931 . S
C84 C83 1.395 . S
C84 C85 1.383 . S
C84 H113 0.931 . S
C85 C84 1.383 . S
C85 C86 1.394 . S
C86 C85 1.394 . S
C86 C87 1.378 . S
C86 H114 0.931 . S
C87 C82 1.377 . S
C87 C86 1.378 . S
C87 H115 0.931 . S
C88 O102 1.259 . S
C88 O103 1.270 . S
C89 O104 1.251 . S
C89 O105 1.251 . S
C90 Eu91 2.835 . S
C90 C92 1.500 . S
C90 O106 1.257 . S
C90 O107 1.260 . S
Eu91 C90 2.835 . S
Eu91 O103 2.355 . S
Eu91 O105 2.374 . S
Eu91 O106 2.473 . S
Eu91 O107 2.480 . S
Eu91 O108 2.430 . S
Eu91 O109 2.670 . S
Eu91 O110 2.394 . S
C92 C90 1.500 . S
C92 C93 1.377 . S
C92 C97 1.377 . S
C93 C92 1.377 . S
C93 C94 1.395 . S
C93 H116 0.931 . S
C94 C93 1.395 . S
C94 C95 1.383 . S
C94 H117 0.931 . S
C95 C94 1.383 . S
C95 C96 1.394 . S
C96 C95 1.394 . S
C96 C97 1.378 . S
C96 H118 0.931 . S
C97 C92 1.377 . S
C97 C96 1.378 . S
C97 H119 0.931 . S
C98 O108 1.259 . S
C98 O109 1.270 . S
C99 O110 1.251 . S
C99 O111 1.251 . S
O100 C80 1.257 . S
O100 Eu81 2.473 . S
O101 C80 1.260 . S
O101 Eu81 2.480 . S
O102 Eu81 2.430 . S
O102 C88 1.259 . S
O103 Eu81 2.670 . S
O103 C88 1.270 . S
O103 Eu91 2.355 . S
O104 Eu81 2.394 . S
O104 C89 1.251 . S
O105 C89 1.251 . S
O105 Eu91 2.374 . S
O106 C90 1.257 . S
O106 Eu91 2.473 . S
O107 C90 1.260 . S
O107 Eu91 2.480 . S
O108 Eu91 2.430 . S
O108 C98 1.259 . S
O109 Eu81 2.355 . S
O109 Eu91 2.670 . S
O109 C98 1.270 . S
O110 Eu91 2.394 . S
O110 C99 1.251 . S
O111 Eu81 2.374 . S
O111 C99 1.251 . S
H112 C83 0.931 . S
H113 C84 0.931 . S
H114 C86 0.931 . S
H115 C87 0.931 . S
H116 C93 0.931 . S
H117 C94 0.931 . S
H118 C96 0.931 . S
H119 C97 0.931 . S
C120 Eu121 2.835 1_545 S
C120 C122 1.500 . S
C120 O140 1.257 . S
C120 O141 1.260 1_545 S
Eu121 C120 2.835 1_565 S
Eu121 O140 2.473 1_565 S
Eu121 O141 2.480 . S
Eu121 O142 2.430 . S
Eu121 O143 2.670 . S
Eu121 O144 2.394 1_565 S
Eu121 O149 2.355 1_565 S
Eu121 O151 2.374 . S
C122 C120 1.500 . S
C122 C123 1.377 1_545 S
C122 C127 1.377 . S
C123 C122 1.377 1_565 S
C123 C124 1.395 1_565 S
C123 H152 0.931 . S
C124 C123 1.395 1_545 S
C124 C125 1.383 . S
C124 H153 0.931 1_545 S
C125 C124 1.383 . S
C125 C126 1.394 . S
C126 C125 1.394 . S
C126 C127 1.378 . S
C126 H154 0.931 . S
C127 C122 1.377 . S
C127 C126 1.378 . S
C127 H155 0.931 . S
C128 O142 1.259 . S
C128 O143 1.270 . S
C129 O144 1.251 . S
C129 O145 1.251 . S
C130 Eu131 2.835 1_565 S
C130 C132 1.500 . S
C130 O146 1.257 . S
C130 O147 1.260 1_565 S
Eu131 C130 2.835 1_545 S
Eu131 O143 2.355 1_545 S
Eu131 O145 2.374 . S
Eu131 O146 2.473 1_545 S
Eu131 O147 2.480 . S
Eu131 O148 2.430 . S
Eu131 O149 2.670 . S
Eu131 O150 2.394 1_545 S
C132 C130 1.500 . S
C132 C133 1.377 1_565 S
C132 C137 1.377 . S
C133 C132 1.377 1_545 S
C133 C134 1.395 1_545 S
C133 H156 0.931 . S
C134 C133 1.395 1_565 S
C134 C135 1.383 . S
C134 H157 0.931 1_565 S
C135 C134 1.383 . S
C135 C136 1.394 . S
C136 C135 1.394 . S
C136 C137 1.378 . S
C136 H158 0.931 . S
C137 C132 1.377 . S
C137 C136 1.378 . S
C137 H159 0.931 . S
C138 O148 1.259 . S
C138 O149 1.270 . S
C139 O150 1.251 . S
C139 O151 1.251 . S
O140 C120 1.257 . S
O140 Eu121 2.473 1_545 S
O141 C120 1.260 1_565 S
O141 Eu121 2.480 . S
O142 Eu121 2.430 . S
O142 C128 1.259 . S
O143 Eu121 2.670 . S
O143 C128 1.270 . S
O143 Eu131 2.355 1_565 S
O144 Eu121 2.394 1_545 S
O144 C129 1.251 . S
O145 C129 1.251 . S
O145 Eu131 2.374 . S
O146 C130 1.257 . S
O146 Eu131 2.473 1_565 S
O147 C130 1.260 1_545 S
O147 Eu131 2.480 . S
O148 Eu131 2.430 . S
O148 C138 1.259 . S
O149 Eu121 2.355 1_545 S
O149 Eu131 2.670 . S
O149 C138 1.270 . S
O150 Eu131 2.394 1_565 S
O150 C139 1.251 . S
O151 Eu121 2.374 . S
O151 C139 1.251 . S
H152 C123 0.931 . S
H153 C124 0.931 1_565 S
H154 C126 0.931 . S
H155 C127 0.931 . S
H156 C133 0.931 . S
H157 C134 0.931 1_545 S
H158 C136 0.931 . S
H159 C137 0.931 . S
C160 Eu161 2.835 . S
C160 C162 1.500 . S
C160 O180 1.257 . S
C160 O181 1.260 . S
Eu161 C160 2.835 . S
Eu161 O180 2.473 . S
Eu161 O181 2.480 . S
Eu161 O182 2.430 . S
Eu161 O183 2.670 . S
Eu161 O184 2.394 . S
Eu161 O189 2.355 . S
Eu161 O191 2.374 . S
C162 C160 1.500 . S
C162 C163 1.377 . S
C162 C167 1.377 . S
C163 C162 1.377 . S
C163 C164 1.395 . S
C163 H192 0.931 . S
C164 C163 1.395 . S
C164 C165 1.383 . S
C164 H193 0.931 . S
C165 C164 1.383 . S
C165 C166 1.394 . S
C166 C165 1.394 . S
C166 C167 1.378 . S
C166 H194 0.931 . S
C167 C162 1.377 . S
C167 C166 1.378 . S
C167 H195 0.931 . S
C168 O182 1.259 . S
C168 O183 1.270 . S
C169 O184 1.251 . S
C169 O185 1.251 . S
C170 Eu171 2.835 . S
C170 C172 1.500 . S
C170 O186 1.257 . S
C170 O187 1.260 . S
Eu171 C170 2.835 . S
Eu171 O183 2.355 . S
Eu171 O185 2.374 . S
Eu171 O186 2.473 . S
Eu171 O187 2.480 . S
Eu171 O188 2.430 . S
Eu171 O189 2.670 . S
Eu171 O190 2.394 . S
C172 C170 1.500 . S
C172 C173 1.377 . S
C172 C177 1.377 . S
C173 C172 1.377 . S
C173 C174 1.395 . S
C173 H196 0.931 . S
C174 C173 1.395 . S
C174 C175 1.383 . S
C174 H197 0.931 . S
C175 C174 1.383 . S
C175 C176 1.394 . S
C176 C175 1.394 . S
C176 C177 1.378 . S
C176 H198 0.931 . S
C177 C172 1.377 . S
C177 C176 1.378 . S
C177 H199 0.931 . S
C178 O188 1.259 . S
C178 O189 1.270 . S
C179 O190 1.251 . S
C179 O191 1.251 . S
O180 C160 1.257 . S
O180 Eu161 2.473 . S
O181 C160 1.260 . S
O181 Eu161 2.480 . S
O182 Eu161 2.430 . S
O182 C168 1.259 . S
O183 Eu161 2.670 . S
O183 C168 1.270 . S
O183 Eu171 2.355 . S
O184 Eu161 2.394 . S
O184 C169 1.251 . S
O185 C169 1.251 . S
O185 Eu171 2.374 . S
O186 C170 1.257 . S
O186 Eu171 2.473 . S
O187 C170 1.260 . S
O187 Eu171 2.480 . S
O188 Eu171 2.430 . S
O188 C178 1.259 . S
O189 Eu161 2.355 . S
O189 Eu171 2.670 . S
O189 C178 1.270 . S
O190 Eu171 2.394 . S
O190 C179 1.251 . S
O191 Eu161 2.374 . S
O191 C179 1.251 . S
H192 C163 0.931 . S
H193 C164 0.931 . S
H194 C166 0.931 . S
H195 C167 0.931 . S
H196 C173 0.931 . S
H197 C174 0.931 . S
H198 C176 0.931 . S
H199 C177 0.931 . S
C200 Eu201 2.835 . S
C200 C202 1.500 . S
C200 O220 1.257 . S
C200 O221 1.260 . S
Eu201 C200 2.835 . S
Eu201 O220 2.473 . S
Eu201 O221 2.480 . S
Eu201 O222 2.430 . S
Eu201 O223 2.670 . S
Eu201 O224 2.394 . S
Eu201 O229 2.355 . S
Eu201 O231 2.374 . S
C202 C200 1.500 . S
C202 C203 1.377 . S
C202 C207 1.377 . S
C203 C202 1.377 . S
C203 C204 1.395 . S
C203 H232 0.931 . S
C204 C203 1.395 . S
C204 C205 1.383 . S
C204 H233 0.931 . S
C205 C204 1.383 . S
C205 C206 1.394 . S
C206 C205 1.394 . S
C206 C207 1.378 . S
C206 H234 0.931 . S
C207 C202 1.377 . S
C207 C206 1.378 . S
C207 H235 0.931 . S
C208 O222 1.259 . S
C208 O223 1.270 . S
C209 O224 1.251 . S
C209 O225 1.251 . S
C210 Eu211 2.835 . S
C210 C212 1.500 . S
C210 O226 1.257 . S
C210 O227 1.260 . S
Eu211 C210 2.835 . S
Eu211 O223 2.355 . S
Eu211 O225 2.374 . S
Eu211 O226 2.473 . S
Eu211 O227 2.480 . S
Eu211 O228 2.430 . S
Eu211 O229 2.670 . S
Eu211 O230 2.394 . S
C212 C210 1.500 . S
C212 C213 1.377 . S
C212 C217 1.377 . S
C213 C212 1.377 . S
C213 C214 1.395 . S
C213 H236 0.931 . S
C214 C213 1.395 . S
C214 C215 1.383 . S
C214 H237 0.931 . S
C215 C214 1.383 . S
C215 C216 1.394 . S
C216 C215 1.394 . S
C216 C217 1.378 . S
C216 H238 0.931 . S
C217 C212 1.377 . S
C217 C216 1.378 . S
C217 H239 0.931 . S
C218 O228 1.259 . S
C218 O229 1.270 . S
C219 O230 1.251 . S
C219 O231 1.251 . S
O220 C200 1.257 . S
O220 Eu201 2.473 . S
O221 C200 1.260 . S
O221 Eu201 2.480 . S
O222 Eu201 2.430 . S
O222 C208 1.259 . S
O223 Eu201 2.670 . S
O223 C208 1.270 . S
O223 Eu211 2.355 . S
O224 Eu201 2.394 . S
O224 C209 1.251 . S
O225 C209 1.251 . S
O225 Eu211 2.374 . S
O226 C210 1.257 . S
O226 Eu211 2.473 . S
O227 C210 1.260 . S
O227 Eu211 2.480 . S
O228 Eu211 2.430 . S
O228 C218 1.259 . S
O229 Eu201 2.355 . S
O229 Eu211 2.670 . S
O229 C218 1.270 . S
O230 Eu211 2.394 . S
O230 C219 1.251 . S
O231 Eu201 2.374 . S
O231 C219 1.251 . S
H232 C203 0.931 . S
H233 C204 0.931 . S
H234 C206 0.931 . S
H235 C207 0.931 . S
H236 C213 0.931 . S
H237 C214 0.931 . S
H238 C216 0.931 . S
H239 C217 0.931 . S
C240 Eu241 2.835 . S
C240 C242 1.500 . S
C240 O260 1.257 . S
C240 O261 1.260 . S
Eu241 C240 2.835 . S
Eu241 O260 2.473 . S
Eu241 O261 2.480 . S
Eu241 O262 2.430 . S
Eu241 O263 2.670 . S
Eu241 O264 2.394 . S
Eu241 O269 2.355 . S
Eu241 O271 2.374 . S
C242 C240 1.500 . S
C242 C243 1.377 . S
C242 C247 1.377 . S
C243 C242 1.377 . S
C243 C244 1.395 . S
C243 H272 0.931 . S
C244 C243 1.395 . S
C244 C245 1.383 . S
C244 H273 0.931 . S
C245 C244 1.383 . S
C245 C246 1.394 . S
C246 C245 1.394 . S
C246 C247 1.378 . S
C246 H274 0.931 . S
C247 C242 1.377 . S
C247 C246 1.378 . S
C247 H275 0.931 . S
C248 O262 1.259 . S
C248 O263 1.270 . S
C249 O264 1.251 . S
C249 O265 1.251 . S
C250 Eu251 2.835 . S
C250 C252 1.500 . S
C250 O266 1.257 . S
C250 O267 1.260 . S
Eu251 C250 2.835 . S
Eu251 O263 2.355 . S
Eu251 O265 2.374 . S
Eu251 O266 2.473 . S
Eu251 O267 2.480 . S
Eu251 O268 2.430 . S
Eu251 O269 2.670 . S
Eu251 O270 2.394 . S
C252 C250 1.500 . S
C252 C253 1.377 . S
C252 C257 1.377 . S
C253 C252 1.377 . S
C253 C254 1.395 . S
C253 H276 0.931 . S
C254 C253 1.395 . S
C254 C255 1.383 . S
C254 H277 0.931 . S
C255 C254 1.383 . S
C255 C256 1.394 . S
C256 C255 1.394 . S
C256 C257 1.378 . S
C256 H278 0.931 . S
C257 C252 1.377 . S
C257 C256 1.378 . S
C257 H279 0.931 . S
C258 O268 1.259 . S
C258 O269 1.270 . S
C259 O270 1.251 . S
C259 O271 1.251 . S
O260 C240 1.257 . S
O260 Eu241 2.473 . S
O261 C240 1.260 . S
O261 Eu241 2.480 . S
O262 Eu241 2.430 . S
O262 C248 1.259 . S
O263 Eu241 2.670 . S
O263 C248 1.270 . S
O263 Eu251 2.355 . S
O264 Eu241 2.394 . S
O264 C249 1.251 . S
O265 C249 1.251 . S
O265 Eu251 2.374 . S
O266 C250 1.257 . S
O266 Eu251 2.473 . S
O267 C250 1.260 . S
O267 Eu251 2.480 . S
O268 Eu251 2.430 . S
O268 C258 1.259 . S
O269 Eu241 2.355 . S
O269 Eu251 2.670 . S
O269 C258 1.270 . S
O270 Eu251 2.394 . S
O270 C259 1.251 . S
O271 Eu241 2.374 . S
O271 C259 1.251 . S
H272 C243 0.931 . S
H273 C244 0.931 . S
H274 C246 0.931 . S
H275 C247 0.931 . S
H276 C253 0.931 . S
H277 C254 0.931 . S
H278 C256 0.931 . S
H279 C257 0.931 . S
C280 Eu281 2.835 . S
C280 C282 1.500 . S
C280 O300 1.257 . S
C280 O301 1.260 . S
Eu281 C280 2.835 . S
Eu281 O300 2.473 . S
Eu281 O301 2.480 . S
Eu281 O302 2.430 1_455 S
Eu281 O303 2.670 1_455 S
Eu281 O304 2.394 1_455 S
Eu281 O309 2.355 . S
Eu281 O311 2.374 . S
C282 C280 1.500 . S
C282 C283 1.377 . S
C282 C287 1.377 . S
C283 C282 1.377 . S
C283 C284 1.395 . S
C283 H312 0.931 . S
C284 C283 1.395 . S
C284 C285 1.383 . S
C284 H313 0.931 . S
C285 C284 1.383 . S
C285 C286 1.394 . S
C286 C285 1.394 . S
C286 C287 1.378 . S
C286 H314 0.931 . S
C287 C282 1.377 . S
C287 C286 1.378 . S
C287 H315 0.931 . S
C288 O302 1.259 . S
C288 O303 1.270 . S
C289 O304 1.251 . S
C289 O305 1.251 . S
C290 Eu291 2.835 . S
C290 C292 1.500 . S
C290 O306 1.257 . S
C290 O307 1.260 . S
Eu291 C290 2.835 . S
Eu291 O303 2.355 . S
Eu291 O305 2.374 . S
Eu291 O306 2.473 . S
Eu291 O307 2.480 . S
Eu291 O308 2.430 1_655 S
Eu291 O309 2.670 1_655 S
Eu291 O310 2.394 1_655 S
C292 C290 1.500 . S
C292 C293 1.377 . S
C292 C297 1.377 . S
C293 C292 1.377 . S
C293 C294 1.395 . S
C293 H316 0.931 . S
C294 C293 1.395 . S
C294 C295 1.383 . S
C294 H317 0.931 . S
C295 C294 1.383 . S
C295 C296 1.394 . S
C296 C295 1.394 . S
C296 C297 1.378 . S
C296 H318 0.931 . S
C297 C292 1.377 . S
C297 C296 1.378 . S
C297 H319 0.931 . S
C298 O308 1.259 . S
C298 O309 1.270 . S
C299 O310 1.251 . S
C299 O311 1.251 . S
O300 C280 1.257 . S
O300 Eu281 2.473 . S
O301 C280 1.260 . S
O301 Eu281 2.480 . S
O302 Eu281 2.430 1_655 S
O302 C288 1.259 . S
O303 Eu281 2.670 1_655 S
O303 C288 1.270 . S
O303 Eu291 2.355 . S
O304 Eu281 2.394 1_655 S
O304 C289 1.251 . S
O305 C289 1.251 . S
O305 Eu291 2.374 . S
O306 C290 1.257 . S
O306 Eu291 2.473 . S
O307 C290 1.260 . S
O307 Eu291 2.480 . S
O308 Eu291 2.430 1_455 S
O308 C298 1.259 . S
O309 Eu281 2.355 . S
O309 Eu291 2.670 1_455 S
O309 C298 1.270 . S
O310 Eu291 2.394 1_455 S
O310 C299 1.251 . S
O311 Eu281 2.374 . S
O311 C299 1.251 . S
H312 C283 0.931 . S
H313 C284 0.931 . S
H314 C286 0.931 . S
H315 C287 0.931 . S
H316 C293 0.931 . S
H317 C294 0.931 . S
H318 C296 0.931 . S
H319 C297 0.931 . S
C320 Eu321 2.835 . S
C320 C322 1.500 . S
C320 O340 1.257 . S
C320 O341 1.260 . S
Eu321 C320 2.835 . S
Eu321 O340 2.473 . S
Eu321 O341 2.480 . S
Eu321 O342 2.430 . S
Eu321 O343 2.670 . S
Eu321 O344 2.394 1_556 S
Eu321 O349 2.355 1_556 S
Eu321 O351 2.374 . S
C322 C320 1.500 . S
C322 C323 1.377 . S
C322 C327 1.375 . S
C323 C322 1.377 . S
C323 C324 1.395 . S
C323 H352 0.931 . S
C324 C323 1.395 . S
C324 C325 1.383 . S
C324 H353 0.931 . S
C325 C324 1.383 . S
C325 C326 1.397 . S
C326 C325 1.397 . S
C326 C327 1.376 . S
C326 H354 0.929 1_556 S
C327 C322 1.375 . S
C327 C326 1.376 . S
C327 H355 0.934 1_556 S
C328 O342 1.259 . S
C328 O343 1.270 . S
C329 O344 1.251 . S
C329 O345 1.251 . S
C330 Eu331 2.835 . S
C330 C332 1.500 . S
C330 O346 1.257 . S
C330 O347 1.260 . S
Eu331 C330 2.835 . S
Eu331 O343 2.355 1_554 S
Eu331 O345 2.374 . S
Eu331 O346 2.473 . S
Eu331 O347 2.480 . S
Eu331 O348 2.430 . S
Eu331 O349 2.670 . S
Eu331 O350 2.394 1_554 S
C332 C330 1.500 . S
C332 C333 1.377 . S
C332 C337 1.391 . S
C333 C332 1.377 . S
C333 C334 1.395 . S
C333 H356 0.931 . S
C334 C333 1.395 . S
C334 C335 1.383 . S
C334 H357 0.931 . S
C335 C334 1.383 . S
C335 C336 1.421 . S
C336 C335 1.421 . S
C336 C337 1.376 . S
C336 H358 0.913 1_554 S
C337 C332 1.391 . S
C337 C336 1.376 . S
C337 H359 0.910 1_554 S
C338 O348 1.259 . S
C338 O349 1.270 . S
C339 O350 1.251 . S
C339 O351 1.251 . S
O340 C320 1.257 . S
O340 Eu321 2.473 . S
O341 C320 1.260 . S
O341 Eu321 2.480 . S
O342 Eu321 2.430 . S
O342 C328 1.259 . S
O343 Eu321 2.670 . S
O343 C328 1.270 . S
O343 Eu331 2.355 1_556 S
O344 Eu321 2.394 1_554 S
O344 C329 1.251 . S
O345 C329 1.251 . S
O345 Eu331 2.374 . S
O346 C330 1.257 . S
O346 Eu331 2.473 . S
O347 C330 1.260 . S
O347 Eu331 2.480 . S
O348 Eu331 2.430 . S
O348 C338 1.259 . S
O349 Eu321 2.355 1_554 S
O349 Eu331 2.670 . S
O349 C338 1.270 . S
O350 Eu331 2.394 1_556 S
O350 C339 1.251 . S
O351 Eu321 2.374 . S
O351 C339 1.251 . S
H352 C323 0.931 . S
H353 C324 0.931 . S
H354 C326 0.929 1_554 S
H355 C327 0.934 1_554 S
H356 C333 0.931 . S
H357 C334 0.931 . S
H358 C336 0.913 1_556 S
H359 C337 0.910 1_556 S
C360 Eu361 2.835 1_545 S
C360 C362 1.500 . S
C360 O380 1.257 . S
C360 O381 1.260 1_545 S
Eu361 C360 2.835 1_565 S
Eu361 O380 2.473 1_565 S
Eu361 O381 2.480 . S
Eu361 O382 2.430 . S
Eu361 O383 2.670 . S
Eu361 O384 2.394 1_565 S
Eu361 O389 2.355 1_565 S
Eu361 O391 2.374 . S
C362 C360 1.500 . S
C362 C363 1.377 1_545 S
C362 C367 1.377 . S
C363 C362 1.377 1_565 S
C363 C364 1.395 1_565 S
C363 H392 0.931 . S
C364 C363 1.395 1_545 S
C364 C365 1.383 . S
C364 H393 0.931 1_545 S
C365 C364 1.383 . S
C365 C366 1.394 . S
C366 C365 1.394 . S
C366 C367 1.378 . S
C366 H394 0.931 . S
C367 C362 1.377 . S
C367 C366 1.378 . S
C367 H395 0.931 . S
C368 O382 1.259 . S
C368 O383 1.270 . S
C369 O384 1.251 . S
C369 O385 1.251 . S
C370 Eu371 2.835 1_565 S
C370 C372 1.500 . S
C370 O386 1.257 . S
C370 O387 1.260 1_565 S
Eu371 C370 2.835 1_545 S
Eu371 O383 2.355 1_545 S
Eu371 O385 2.374 . S
Eu371 O386 2.473 1_545 S
Eu371 O387 2.480 . S
Eu371 O388 2.430 . S
Eu371 O389 2.670 . S
Eu371 O390 2.394 1_545 S
C372 C370 1.500 . S
C372 C373 1.377 1_565 S
C372 C377 1.377 . S
C373 C372 1.377 1_545 S
C373 C374 1.395 1_545 S
C373 H396 0.931 . S
C374 C373 1.395 1_565 S
C374 C375 1.383 . S
C374 H397 0.931 1_565 S
C375 C374 1.383 . S
C375 C376 1.394 . S
C376 C375 1.394 . S
C376 C377 1.378 . S
C376 H398 0.931 . S
C377 C372 1.377 . S
C377 C376 1.378 . S
C377 H399 0.931 . S
C378 O388 1.259 . S
C378 O389 1.270 . S
C379 O390 1.251 . S
C379 O391 1.251 . S
O380 C360 1.257 . S
O380 Eu361 2.473 1_545 S
O381 C360 1.260 1_565 S
O381 Eu361 2.480 . S
O382 Eu361 2.430 . S
O382 C368 1.259 . S
O383 Eu361 2.670 . S
O383 C368 1.270 . S
O383 Eu371 2.355 1_565 S
O384 Eu361 2.394 1_545 S
O384 C369 1.251 . S
O385 C369 1.251 . S
O385 Eu371 2.374 . S
O386 C370 1.257 . S
O386 Eu371 2.473 1_565 S
O387 C370 1.260 1_545 S
O387 Eu371 2.480 . S
O388 Eu371 2.430 . S
O388 C378 1.259 . S
O389 Eu361 2.355 1_545 S
O389 Eu371 2.670 . S
O389 C378 1.270 . S
O390 Eu371 2.394 1_565 S
O390 C379 1.251 . S
O391 Eu361 2.374 . S
O391 C379 1.251 . S
H392 C363 0.931 . S
H393 C364 0.931 1_565 S
H394 C366 0.931 . S
H395 C367 0.931 . S
H396 C373 0.931 . S
H397 C374 0.931 1_545 S
H398 C376 0.931 . S
H399 C377 0.931 . S
C400 Eu401 2.835 . S
C400 C402 1.500 . S
C400 O420 1.257 . S
C400 O421 1.260 . S
Eu401 C400 2.835 . S
Eu401 O420 2.473 . S
Eu401 O421 2.480 . S
Eu401 O422 2.430 . S
Eu401 O423 2.670 . S
Eu401 O424 2.394 . S
Eu401 O429 2.355 . S
Eu401 O431 2.374 . S
C402 C400 1.500 . S
C402 C403 1.377 . S
C402 C407 1.377 . S
C403 C402 1.377 . S
C403 C404 1.395 . S
C403 H432 0.931 . S
C404 C403 1.395 . S
C404 C405 1.383 . S
C404 H433 0.931 . S
C405 C404 1.383 . S
C405 C406 1.394 . S
C406 C405 1.394 . S
C406 C407 1.378 . S
C406 H434 0.931 . S
C407 C402 1.377 . S
C407 C406 1.378 . S
C407 H435 0.931 . S
C408 O422 1.259 . S
C408 O423 1.270 . S
C409 O424 1.251 . S
C409 O425 1.251 . S
C410 Eu411 2.835 . S
C410 C412 1.500 . S
C410 O426 1.257 . S
C410 O427 1.260 . S
Eu411 C410 2.835 . S
Eu411 O423 2.355 . S
Eu411 O425 2.374 . S
Eu411 O426 2.473 . S
Eu411 O427 2.480 . S
Eu411 O428 2.430 . S
Eu411 O429 2.670 . S
Eu411 O430 2.394 . S
C412 C410 1.500 . S
C412 C413 1.377 . S
C412 C417 1.377 . S
C413 C412 1.377 . S
C413 C414 1.395 . S
C413 H436 0.931 . S
C414 C413 1.395 . S
C414 C415 1.383 . S
C414 H437 0.931 . S
C415 C414 1.383 . S
C415 C416 1.394 . S
C416 C415 1.394 . S
C416 C417 1.378 . S
C416 H438 0.931 . S
C417 C412 1.377 . S
C417 C416 1.378 . S
C417 H439 0.931 . S
C418 O428 1.259 . S
C418 O429 1.270 . S
C419 O430 1.251 . S
C419 O431 1.251 . S
O420 C400 1.257 . S
O420 Eu401 2.473 . S
O421 C400 1.260 . S
O421 Eu401 2.480 . S
O422 Eu401 2.430 . S
O422 C408 1.259 . S
O423 Eu401 2.670 . S
O423 C408 1.270 . S
O423 Eu411 2.355 . S
O424 Eu401 2.394 . S
O424 C409 1.251 . S
O425 C409 1.251 . S
O425 Eu411 2.374 . S
O426 C410 1.257 . S
O426 Eu411 2.473 . S
O427 C410 1.260 . S
O427 Eu411 2.480 . S
O428 Eu411 2.430 . S
O428 C418 1.259 . S
O429 Eu401 2.355 . S
O429 Eu411 2.670 . S
O429 C418 1.270 . S
O430 Eu411 2.394 . S
O430 C419 1.251 . S
O431 Eu401 2.374 . S
O431 C419 1.251 . S
H432 C403 0.931 . S
H433 C404 0.931 . S
H434 C406 0.931 . S
H435 C407 0.931 . S
H436 C413 0.931 . S
H437 C414 0.931 . S
H438 C416 0.931 . S
H439 C417 0.931 . S
C440 Eu441 2.835 . S
C440 C442 1.500 1_655 S
C440 O460 1.257 1_655 S
C440 O461 1.260 . S
Eu441 C440 2.835 . S
Eu441 O460 2.473 1_655 S
Eu441 O461 2.480 . S
Eu441 O462 2.430 . S
Eu441 O463 2.670 . S
Eu441 O464 2.394 1_655 S
Eu441 O469 2.355 1_655 S
Eu441 O471 2.374 . S
C442 C440 1.500 1_455 S
C442 C443 1.377 1_455 S
C442 C447 1.377 . S
C443 C442 1.377 1_655 S
C443 C444 1.395 . S
C443 H472 0.931 . S
C444 C443 1.395 . S
C444 C445 1.383 1_655 S
C444 H473 0.931 . S
C445 C444 1.383 1_455 S
C445 C446 1.394 . S
C446 C445 1.394 . S
C446 C447 1.378 . S
C446 H474 0.931 . S
C447 C442 1.377 . S
C447 C446 1.378 . S
C447 H475 0.931 . S
C448 O462 1.259 . S
C448 O463 1.270 . S
C449 O464 1.251 . S
C449 O465 1.251 . S
C450 Eu451 2.835 . S
C450 C452 1.500 1_455 S
C450 O466 1.257 1_455 S
C450 O467 1.260 . S
Eu451 C450 2.835 . S
Eu451 O463 2.355 1_455 S
Eu451 O465 2.374 . S
Eu451 O466 2.473 1_455 S
Eu451 O467 2.480 . S
Eu451 O468 2.430 . S
Eu451 O469 2.670 . S
Eu451 O470 2.394 1_455 S
C452 C450 1.500 1_655 S
C452 C453 1.377 1_655 S
C452 C457 1.377 . S
C453 C452 1.377 1_455 S
C453 C454 1.395 . S
C453 H476 0.931 . S
C454 C453 1.395 . S
C454 C455 1.383 1_455 S
C454 H477 0.931 . S
C455 C454 1.383 1_655 S
C455 C456 1.394 . S
C456 C455 1.394 . S
C456 C457 1.378 . S
C456 H478 0.931 . S
C457 C452 1.377 . S
C457 C456 1.378 . S
C457 H479 0.931 . S
C458 O468 1.259 . S
C458 O469 1.270 . S
C459 O470 1.251 . S
C459 O471 1.251 . S
O460 C440 1.257 1_455 S
O460 Eu441 2.473 1_455 S
O461 C440 1.260 . S
O461 Eu441 2.480 . S
O462 Eu441 2.430 . S
O462 C448 1.259 . S
O463 Eu441 2.670 . S
O463 C448 1.270 . S
O463 Eu451 2.355 1_655 S
O464 Eu441 2.394 1_455 S
O464 C449 1.251 . S
O465 C449 1.251 . S
O465 Eu451 2.374 . S
O466 C450 1.257 1_655 S
O466 Eu451 2.473 1_655 S
O467 C450 1.260 . S
O467 Eu451 2.480 . S
O468 Eu451 2.430 . S
O468 C458 1.259 . S
O469 Eu441 2.355 1_455 S
O469 Eu451 2.670 . S
O469 C458 1.270 . S
O470 Eu451 2.394 1_655 S
O470 C459 1.251 . S
O471 Eu441 2.374 . S
O471 C459 1.251 . S
H472 C443 0.931 . S
H473 C444 0.931 . S
H474 C446 0.931 . S
H475 C447 0.931 . S
H476 C453 0.931 . S
H477 C454 0.931 . S
H478 C456 0.931 . S
H479 C457 0.931 . S
C480 Eu481 2.835 . S
C480 C482 1.500 . S
C480 O500 1.257 . S
C480 O501 1.260 . S
Eu481 C480 2.835 . S
Eu481 O500 2.473 . S
Eu481 O501 2.480 . S
Eu481 O502 2.430 . S
Eu481 O503 2.670 . S
Eu481 O504 2.394 . S
Eu481 O509 2.355 . S
Eu481 O511 2.374 . S
C482 C480 1.500 . S
C482 C483 1.377 . S
C482 C487 1.377 . S
C483 C482 1.377 . S
C483 C484 1.395 . S
C483 H512 0.931 . S
C484 C483 1.395 . S
C484 C485 1.383 . S
C484 H513 0.931 . S
C485 C484 1.383 . S
C485 C486 1.394 . S
C486 C485 1.394 . S
C486 C487 1.378 . S
C486 H514 0.931 . S
C487 C482 1.377 . S
C487 C486 1.378 . S
C487 H515 0.931 . S
C488 O502 1.259 . S
C488 O503 1.270 . S
C489 O504 1.251 . S
C489 O505 1.251 . S
C490 Eu491 2.835 . S
C490 C492 1.500 . S
C490 O506 1.257 . S
C490 O507 1.260 . S
Eu491 C490 2.835 . S
Eu491 O503 2.355 . S
Eu491 O505 2.374 . S
Eu491 O506 2.473 . S
Eu491 O507 2.480 . S
Eu491 O508 2.430 . S
Eu491 O509 2.670 . S
Eu491 O510 2.394 . S
C492 C490 1.500 . S
C492 C493 1.377 . S
C492 C497 1.377 . S
C493 C492 1.377 . S
C493 C494 1.395 . S
C493 H516 0.931 . S
C494 C493 1.395 . S
C494 C495 1.383 . S
C494 H517 0.931 . S
C495 C494 1.383 . S
C495 C496 1.394 . S
C496 C495 1.394 . S
C496 C497 1.378 . S
C496 H518 0.931 . S
C497 C492 1.377 . S
C497 C496 1.378 . S
C497 H519 0.931 . S
C498 O508 1.259 . S
C498 O509 1.270 . S
C499 O510 1.251 . S
C499 O511 1.251 . S
O500 C480 1.257 . S
O500 Eu481 2.473 . S
O501 C480 1.260 . S
O501 Eu481 2.480 . S
O502 Eu481 2.430 . S
O502 C488 1.259 . S
O503 Eu481 2.670 . S
O503 C488 1.270 . S
O503 Eu491 2.355 . S
O504 Eu481 2.394 . S
O504 C489 1.251 . S
O505 C489 1.251 . S
O505 Eu491 2.374 . S
O506 C490 1.257 . S
O506 Eu491 2.473 . S
O507 C490 1.260 . S
O507 Eu491 2.480 . S
O508 Eu491 2.430 . S
O508 C498 1.259 . S
O509 Eu481 2.355 . S
O509 Eu491 2.670 . S
O509 C498 1.270 . S
O510 Eu491 2.394 . S
O510 C499 1.251 . S
O511 Eu481 2.374 . S
O511 C499 1.251 . S
H512 C483 0.931 . S
H513 C484 0.931 . S
H514 C486 0.931 . S
H515 C487 0.931 . S
H516 C493 0.931 . S
H517 C494 0.931 . S
H518 C496 0.931 . S
H519 C497 0.931 . S
C520 Eu521 2.835 . S
C520 C522 1.500 . S
C520 O540 1.257 . S
C520 O541 1.260 . S
Eu521 C520 2.835 . S
Eu521 O540 2.473 . S
Eu521 O541 2.480 . S
Eu521 O542 2.430 . S
Eu521 O543 2.670 . S
Eu521 O544 2.394 1_556 S
Eu521 O549 2.355 1_556 S
Eu521 O551 2.374 . S
C522 C520 1.500 . S
C522 C523 1.377 . S
C522 C527 1.375 . S
C523 C522 1.377 . S
C523 C524 1.395 . S
C523 H552 0.931 . S
C524 C523 1.395 . S
C524 C525 1.383 . S
C524 H553 0.931 . S
C525 C524 1.383 . S
C525 C526 1.397 . S
C526 C525 1.397 . S
C526 C527 1.376 . S
C526 H554 0.929 1_556 S
C527 C522 1.375 . S
C527 C526 1.376 . S
C527 H555 0.934 1_556 S
C528 O542 1.259 . S
C528 O543 1.270 . S
C529 O544 1.251 . S
C529 O545 1.251 . S
C530 Eu531 2.835 . S
C530 C532 1.500 . S
C530 O546 1.257 . S
C530 O547 1.260 . S
Eu531 C530 2.835 . S
Eu531 O543 2.355 1_554 S
Eu531 O545 2.374 . S
Eu531 O546 2.473 . S
Eu531 O547 2.480 . S
Eu531 O548 2.430 . S
Eu531 O549 2.670 . S
Eu531 O550 2.394 1_554 S
C532 C530 1.500 . S
C532 C533 1.377 . S
C532 C537 1.391 . S
C533 C532 1.377 . S
C533 C534 1.395 . S
C533 H556 0.931 . S
C534 C533 1.395 . S
C534 C535 1.383 . S
C534 H557 0.931 . S
C535 C534 1.383 . S
C535 C536 1.421 . S
C536 C535 1.421 . S
C536 C537 1.376 . S
C536 H558 0.913 1_554 S
C537 C532 1.391 . S
C537 C536 1.376 . S
C537 H559 0.910 1_554 S
C538 O548 1.259 . S
C538 O549 1.270 . S
C539 O550 1.251 . S
C539 O551 1.251 . S
O540 C520 1.257 . S
O540 Eu521 2.473 . S
O541 C520 1.260 . S
O541 Eu521 2.480 . S
O542 Eu521 2.430 . S
O542 C528 1.259 . S
O543 Eu521 2.670 . S
O543 C528 1.270 . S
O543 Eu531 2.355 1_556 S
O544 Eu521 2.394 1_554 S
O544 C529 1.251 . S
O545 C529 1.251 . S
O545 Eu531 2.374 . S
O546 C530 1.257 . S
O546 Eu531 2.473 . S
O547 C530 1.260 . S
O547 Eu531 2.480 . S
O548 Eu531 2.430 . S
O548 C538 1.259 . S
O549 Eu521 2.355 1_554 S
O549 Eu531 2.670 . S
O549 C538 1.270 . S
O550 Eu531 2.394 1_556 S
O550 C539 1.251 . S
O551 Eu521 2.374 . S
O551 C539 1.251 . S
H552 C523 0.931 . S
H553 C524 0.931 . S
H554 C526 0.929 1_554 S
H555 C527 0.934 1_554 S
H556 C533 0.931 . S
H557 C534 0.931 . S
H558 C536 0.913 1_556 S
H559 C537 0.910 1_556 S
C560 Eu561 2.835 . S
C560 C562 1.500 . S
C560 O580 1.257 . S
C560 O581 1.260 . S
Eu561 C560 2.835 . S
Eu561 O580 2.473 . S
Eu561 O581 2.480 . S
Eu561 O582 2.430 . S
Eu561 O583 2.670 . S
Eu561 O584 2.394 . S
Eu561 O589 2.355 1_545 S
Eu561 O591 2.374 1_545 S
C562 C560 1.500 . S
C562 C563 1.377 . S
C562 C567 1.377 . S
C563 C562 1.377 . S
C563 C564 1.395 . S
C563 H592 0.931 . S
C564 C563 1.395 . S
C564 C565 1.383 . S
C564 H593 0.931 . S
C565 C564 1.383 . S
C565 C566 1.394 . S
C566 C565 1.394 . S
C566 C567 1.378 . S
C566 H594 0.931 . S
C567 C562 1.377 . S
C567 C566 1.378 . S
C567 H595 0.931 . S
C568 O582 1.259 . S
C568 O583 1.270 . S
C569 O584 1.251 . S
C569 O585 1.251 . S
C570 Eu571 2.835 . S
C570 C572 1.500 . S
C570 O586 1.257 . S
C570 O587 1.260 . S
Eu571 C570 2.835 . S
Eu571 O583 2.355 1_565 S
Eu571 O585 2.374 1_565 S
Eu571 O586 2.473 . S
Eu571 O587 2.480 . S
Eu571 O588 2.430 . S
Eu571 O589 2.670 . S
Eu571 O590 2.394 . S
C572 C570 1.500 . S
C572 C573 1.377 . S
C572 C577 1.377 . S
C573 C572 1.377 . S
C573 C574 1.395 . S
C573 H596 0.931 . S
C574 C573 1.395 . S
C574 C575 1.383 . S
C574 H597 0.931 . S
C575 C574 1.383 . S
C575 C576 1.394 . S
C576 C575 1.394 . S
C576 C577 1.378 . S
C576 H598 0.931 . S
C577 C572 1.377 . S
C577 C576 1.378 . S
C577 H599 0.931 . S
C578 O588 1.259 . S
C578 O589 1.270 . S
C579 O590 1.251 . S
C579 O591 1.251 . S
O580 C560 1.257 . S
O580 Eu561 2.473 . S
O581 C560 1.260 . S
O581 Eu561 2.480 . S
O582 Eu561 2.430 . S
O582 C568 1.259 . S
O583 Eu561 2.670 . S
O583 C568 1.270 . S
O583 Eu571 2.355 1_545 S
O584 Eu561 2.394 . S
O584 C569 1.251 . S
O585 C569 1.251 . S
O585 Eu571 2.374 1_545 S
O586 C570 1.257 . S
O586 Eu571 2.473 . S
O587 C570 1.260 . S
O587 Eu571 2.480 . S
O588 Eu571 2.430 . S
O588 C578 1.259 . S
O589 Eu561 2.355 1_565 S
O589 Eu571 2.670 . S
O589 C578 1.270 . S
O590 Eu571 2.394 . S
O590 C579 1.251 . S
O591 Eu561 2.374 1_565 S
O591 C579 1.251 . S
H592 C563 0.931 . S
H593 C564 0.931 . S
H594 C566 0.931 . S
H595 C567 0.931 . S
H596 C573 0.931 . S
H597 C574 0.931 . S
H598 C576 0.931 . S
H599 C577 0.931 . S
C600 Eu601 2.835 . S
C600 C602 1.500 . S
C600 O620 1.257 . S
C600 O621 1.260 . S
Eu601 C600 2.835 . S
Eu601 O620 2.473 . S
Eu601 O621 2.480 . S
Eu601 O622 2.430 . S
Eu601 O623 2.670 . S
Eu601 O624 2.414 . S
Eu601 O629 2.355 1_556 S
Eu601 O631 2.374 . S
C602 C600 1.500 . S
C602 C603 1.377 . S
C602 C607 1.377 . S
C603 C602 1.377 . S
C603 C604 1.395 . S
C603 H632 0.931 . S
C604 C603 1.395 . S
C604 C605 1.383 . S
C604 H633 0.931 . S
C605 C604 1.383 . S
C605 C606 1.394 . S
C606 C605 1.394 . S
C606 C607 1.378 . S
C606 H634 0.931 . S
C607 C602 1.377 . S
C607 C606 1.378 . S
C607 H635 0.931 . S
C608 O622 1.259 . S
C608 O623 1.270 . S
C609 O624 1.222 1_554 S
C609 O625 1.251 . S
C610 Eu611 2.835 . S
C610 C612 1.500 . S
C610 O626 1.257 . S
C610 O627 1.260 . S
Eu611 C610 2.835 . S
Eu611 O623 2.355 1_554 S
Eu611 O625 2.374 . S
Eu611 O626 2.473 . S
Eu611 O627 2.480 . S
Eu611 O628 2.430 . S
Eu611 O629 2.670 . S
Eu611 O630 2.394 . S
C612 C610 1.500 . S
C612 C613 1.377 . S
C612 C617 1.377 . S
C613 C612 1.377 . S
C613 C614 1.395 . S
C613 H636 0.931 . S
C614 C613 1.395 . S
C614 C615 1.383 . S
C614 H637 0.931 . S
C615 C614 1.383 . S
C615 C616 1.394 . S
C616 C615 1.394 . S
C616 C617 1.378 . S
C616 H638 0.931 . S
C617 C612 1.377 . S
C617 C616 1.378 . S
C617 H639 0.931 . S
C618 O628 1.259 . S
C618 O629 1.270 . S
C619 O630 1.251 1_556 S
C619 O631 1.251 . S
O620 C600 1.257 . S
O620 Eu601 2.473 . S
O621 C600 1.260 . S
O621 Eu601 2.480 . S
O622 Eu601 2.430 . S
O622 C608 1.259 . S
O623 Eu601 2.670 . S
O623 C608 1.270 . S
O623 Eu611 2.355 1_556 S
O624 Eu601 2.414 . S
O624 C609 1.222 1_556 S
O625 C609 1.251 . S
O625 Eu611 2.374 . S
O626 C610 1.257 . S
O626 Eu611 2.473 . S
O627 C610 1.260 . S
O627 Eu611 2.480 . S
O628 Eu611 2.430 . S
O628 C618 1.259 . S
O629 Eu601 2.355 1_554 S
O629 Eu611 2.670 . S
O629 C618 1.270 . S
O630 Eu611 2.394 . S
O630 C619 1.251 1_554 S
O631 Eu601 2.374 . S
O631 C619 1.251 . S
H632 C603 0.931 . S
H633 C604 0.931 . S
H634 C606 0.931 . S
H635 C607 0.931 . S
H636 C613 0.931 . S
H637 C614 0.931 . S
H638 C616 0.931 . S
H639 C617 0.931 . S
H640 C646 0.930 . S
H641 C650 0.930 . S
H642 C655 0.929 . S
H643 C653 0.929 . S
H644 C648 0.929 . S
H645 C654 0.929 . S
C646 H640 0.930 . S
C646 C647 1.367 1_455 S
C646 C654 1.378 . S
C647 C646 1.367 1_655 S
C647 C655 1.433 . S
C648 H644 0.929 . S
C648 C650 1.378 . S
C648 C652 1.350 1_655 S
C649 C652 1.463 1_655 S
C649 C654 1.350 1_655 S
C649 N657 1.427 . S
C650 H641 0.930 . S
C650 C648 1.378 . S
C650 C651 1.367 1_655 S
C651 C650 1.367 1_455 S
C651 C653 1.433 . S
C652 C648 1.350 1_455 S
C652 C649 1.463 1_455 S
C652 N656 1.427 . S
C653 H643 0.929 . S
C653 C651 1.433 . S
C653 N656 1.384 . S
C654 H645 0.929 . S
C654 C646 1.378 . S
C654 C649 1.350 1_455 S
C655 H642 0.929 . S
C655 C647 1.433 . S
C655 N657 1.384 . S
N656 C652 1.427 . S
N656 C653 1.384 . S
N657 C649 1.427 . S
N657 C655 1.384 . S
H658 C664 0.930 . S
H659 C668 0.930 . S
H660 C673 0.929 . S
H661 C671 0.929 . S
H662 C666 0.929 . S
H663 C672 0.929 . S
C664 H658 0.930 . S
C664 C665 1.367 . S
C664 C672 1.378 . S
C665 C664 1.367 . S
C665 C673 1.433 . S
C666 H662 0.929 . S
C666 C668 1.378 . S
C666 C670 1.350 . S
C667 C670 1.463 . S
C667 C672 1.350 . S
C667 N675 1.427 . S
C668 H659 0.930 . S
C668 C666 1.378 . S
C668 C669 1.367 . S
C669 C668 1.367 . S
C669 C671 1.433 . S
C670 C666 1.350 . S
C670 C667 1.463 . S
C670 N674 1.427 . S
C671 H661 0.929 . S
C671 C669 1.433 . S
C671 N674 1.384 . S
C672 H663 0.929 . S
C672 C664 1.378 . S
C672 C667 1.350 . S
C673 H660 0.929 . S
C673 C665 1.433 . S
C673 N675 1.384 . S
N674 C670 1.427 . S
N674 C671 1.384 . S
N675 C667 1.427 . S
N675 C673 1.384 . S
H676 C682 0.930 . S
H677 C686 0.930 . S
H678 C691 0.929 . S
H679 C689 0.929 . S
H680 C684 0.929 . S
H681 C690 0.929 . S
C682 H676 0.930 . S
C682 C683 1.367 . S
C682 C690 1.378 . S
C683 C682 1.367 . S
C683 C691 1.433 . S
C684 H680 0.929 . S
C684 C686 1.378 . S
C684 C688 1.350 . S
C685 C688 1.463 . S
C685 C690 1.350 . S
C685 N693 1.427 . S
C686 H677 0.930 . S
C686 C684 1.378 . S
C686 C687 1.367 . S
C687 C686 1.367 . S
C687 C689 1.433 . S
C688 C684 1.350 . S
C688 C685 1.463 . S
C688 N692 1.427 . S
C689 H679 0.929 . S
C689 C687 1.433 . S
C689 N692 1.384 . S
C690 H681 0.929 . S
C690 C682 1.378 . S
C690 C685 1.350 . S
C691 H678 0.929 . S
C691 C683 1.433 . S
C691 N693 1.384 . S
N692 C688 1.427 . S
N692 C689 1.384 . S
N693 C685 1.427 . S
N693 C691 1.384 . S
H694 C700 0.930 . S
H695 C704 0.930 . S
H696 C709 0.929 1_565 S
H697 C707 0.929 1_545 S
H698 C702 0.929 . S
H699 C708 0.929 . S
C700 H694 0.930 . S
C700 C701 1.367 . S
C700 C708 1.378 . S
C701 C700 1.367 . S
C701 C709 1.433 . S
C702 H698 0.929 . S
C702 C704 1.378 . S
C702 C706 1.350 . S
C703 C706 1.463 1_545 S
C703 C708 1.350 . S
C703 N711 1.427 1_545 S
C704 H695 0.930 . S
C704 C702 1.378 . S
C704 C705 1.367 . S
C705 C704 1.367 . S
C705 C707 1.433 . S
C706 C702 1.350 . S
C706 C703 1.463 1_565 S
C706 N710 1.427 1_565 S
C707 H697 0.929 1_565 S
C707 C705 1.433 . S
C707 N710 1.384 1_565 S
C708 H699 0.929 . S
C708 C700 1.378 . S
C708 C703 1.350 . S
C709 H696 0.929 1_545 S
C709 C701 1.433 . S
C709 N711 1.384 1_545 S
N710 C706 1.427 1_545 S
N710 C707 1.384 1_545 S
N711 C703 1.427 1_565 S
N711 C709 1.384 1_565 S
H712 C718 0.930 1_545 S
H713 C722 0.930 1_565 S
H714 C727 0.929 . S
H715 C725 0.929 . S
H716 C720 0.929 . S
H717 C726 0.929 . S
C718 H712 0.930 1_565 S
C718 C719 1.367 . S
C718 C726 1.378 1_565 S
C719 C718 1.367 . S
C719 C727 1.433 . S
C720 H716 0.929 . S
C720 C722 1.378 1_565 S
C720 C724 1.350 1_565 S
C721 C724 1.463 1_565 S
C721 C726 1.350 1_565 S
C721 N729 1.427 . S
C722 H713 0.930 1_545 S
C722 C720 1.378 1_545 S
C722 C723 1.367 . S
C723 C722 1.367 . S
C723 C725 1.433 . S
C724 C720 1.350 1_545 S
C724 C721 1.463 1_545 S
C724 N728 1.427 . S
C725 H715 0.929 . S
C725 C723 1.433 . S
C725 N728 1.384 . S
C726 H717 0.929 . S
C726 C718 1.378 1_545 S
C726 C721 1.350 1_545 S
C727 H714 0.929 . S
C727 C719 1.433 . S
C727 N729 1.384 . S
N728 C724 1.427 . S
N728 C725 1.384 . S
N729 C721 1.427 . S
N729 C727 1.384 . S
H730 C736 0.930 . S
H731 C740 0.930 . S
H732 C745 0.929 . S
H733 C743 0.929 . S
H734 C738 0.929 . S
H735 C744 0.929 . S
C736 H730 0.930 . S
C736 C737 1.367 . S
C736 C744 1.378 . S
C737 C736 1.367 . S
C737 C745 1.433 1_455 S
C738 H734 0.929 . S
C738 C740 1.378 . S
C738 C742 1.350 . S
C739 C742 1.463 1_455 S
C739 C744 1.350 . S
C739 N747 1.427 1_455 S
C740 H731 0.930 . S
C740 C738 1.378 . S
C740 C741 1.367 . S
C741 C740 1.367 . S
C741 C743 1.433 1_655 S
C742 C738 1.350 . S
C742 C739 1.463 1_655 S
C742 N746 1.427 1_655 S
C743 H733 0.929 . S
C743 C741 1.433 1_455 S
C743 N746 1.384 . S
C744 H735 0.929 . S
C744 C736 1.378 . S
C744 C739 1.350 . S
C745 H732 0.929 . S
C745 C737 1.433 1_655 S
C745 N747 1.384 . S
N746 C742 1.427 1_455 S
N746 C743 1.384 . S
N747 C739 1.427 1_655 S
N747 C745 1.384 . S
H748 C754 0.930 . S
H749 C758 0.930 . S
H750 C763 0.929 . S
H751 C761 0.929 . S
H752 C756 0.929 . S
H753 C762 0.929 . S
C754 H748 0.930 . S
C754 C755 1.367 . S
C754 C762 1.378 . S
C755 C754 1.367 . S
C755 C763 1.433 . S
C756 H752 0.929 . S
C756 C758 1.378 . S
C756 C760 1.350 . S
C757 C760 1.463 . S
C757 C762 1.350 . S
C757 N765 1.427 . S
C758 H749 0.930 . S
C758 C756 1.378 . S
C758 C759 1.367 . S
C759 C758 1.367 . S
C759 C761 1.433 . S
C760 C756 1.350 . S
C760 C757 1.463 . S
C760 N764 1.427 . S
C761 H751 0.929 . S
C761 C759 1.433 . S
C761 N764 1.384 . S
C762 H753 0.929 . S
C762 C754 1.378 . S
C762 C757 1.350 . S
C763 H750 0.929 . S
C763 C755 1.433 . S
C763 N765 1.384 . S
N764 C760 1.427 . S
N764 C761 1.384 . S
N765 C757 1.427 . S
N765 C763 1.384 . S
H766 C772 0.930 . S
H767 C776 0.930 . S
H768 C781 0.929 . S
H769 C779 0.929 . S
H770 C774 0.929 . S
H771 C780 0.929 . S
C772 H766 0.930 . S
C772 C773 1.367 . S
C772 C780 1.378 . S
C773 C772 1.367 . S
C773 C781 1.433 . S
C774 H770 0.929 . S
C774 C776 1.378 . S
C774 C778 1.350 . S
C775 C778 1.463 . S
C775 C780 1.350 . S
C775 N783 1.427 . S
C776 H767 0.930 . S
C776 C774 1.378 . S
C776 C777 1.367 . S
C777 C776 1.367 . S
C777 C779 1.433 . S
C778 C774 1.350 . S
C778 C775 1.463 . S
C778 N782 1.427 . S
C779 H769 0.929 . S
C779 C777 1.433 . S
C779 N782 1.384 . S
C780 H771 0.929 . S
C780 C772 1.378 . S
C780 C775 1.350 . S
C781 H768 0.929 . S
C781 C773 1.433 . S
C781 N783 1.384 . S
N782 C778 1.427 . S
N782 C779 1.384 . S
N783 C775 1.427 . S
N783 C781 1.384 . S
H784 C790 0.930 . S
H785 C794 0.930 . S
H786 C799 0.929 . S
H787 C797 0.929 . S
H788 C792 0.929 . S
H789 C798 0.929 . S
C790 H784 0.930 . S
C790 C791 1.367 . S
C790 C798 1.378 . S
C791 C790 1.367 . S
C791 C799 1.433 . S
C792 H788 0.929 . S
C792 C794 1.378 . S
C792 C796 1.350 . S
C793 C796 1.463 . S
C793 C798 1.350 . S
C793 N801 1.427 . S
C794 H785 0.930 . S
C794 C792 1.378 . S
C794 C795 1.367 . S
C795 C794 1.367 . S
C795 C797 1.433 . S
C796 C792 1.350 . S
C796 C793 1.463 . S
C796 N800 1.427 . S
C797 H787 0.929 . S
C797 C795 1.433 . S
C797 N800 1.384 . S
C798 H789 0.929 . S
C798 C790 1.378 . S
C798 C793 1.350 . S
C799 H786 0.929 . S
C799 C791 1.433 . S
C799 N801 1.384 . S
N800 C796 1.427 . S
N800 C797 1.384 . S
N801 C793 1.427 . S
N801 C799 1.384 . S
H802 C808 0.930 . S
H803 C812 0.930 . S
H804 C817 0.929 . S
H805 C815 0.929 . S
H806 C810 0.929 . S
H807 C816 0.929 . S
C808 H802 0.930 . S
C808 C809 1.367 . S
C808 C816 1.378 . S
C809 C808 1.367 . S
C809 C817 1.433 . S
C810 H806 0.929 . S
C810 C812 1.378 . S
C810 C814 1.350 . S
C811 C814 1.463 . S
C811 C816 1.350 . S
C811 N819 1.427 . S
C812 H803 0.930 . S
C812 C810 1.378 . S
C812 C813 1.367 . S
C813 C812 1.367 . S
C813 C815 1.433 . S
C814 C810 1.350 . S
C814 C811 1.463 . S
C814 N818 1.427 . S
C815 H805 0.929 . S
C815 C813 1.433 . S
C815 N818 1.384 . S
C816 H807 0.929 . S
C816 C808 1.378 . S
C816 C811 1.350 . S
C817 H804 0.929 . S
C817 C809 1.433 . S
C817 N819 1.384 . S
N818 C814 1.427 . S
N818 C815 1.384 . S
N819 C811 1.427 . S
N819 C817 1.384 . S
H820 C826 0.930 . S
H821 C830 0.930 . S
H822 C835 0.929 . S
H823 C833 0.929 . S
H824 C828 0.929 . S
H825 C834 0.929 . S
C826 H820 0.930 . S
C826 C827 1.367 . S
C826 C834 1.378 . S
C827 C826 1.367 . S
C827 C835 1.433 . S
C828 H824 0.929 . S
C828 C830 1.378 . S
C828 C832 1.350 . S
C829 C832 1.463 1_565 S
C829 C834 1.350 . S
C829 N837 1.428 . S
C830 H821 0.930 . S
C830 C828 1.378 . S
C830 C831 1.367 . S
C831 C830 1.367 . S
C831 C833 1.433 . S
C832 C828 1.350 . S
C832 C829 1.463 1_545 S
C832 N836 1.428 . S
C833 H823 0.929 . S
C833 C831 1.433 . S
C833 N836 1.390 . S
C834 H825 0.929 . S
C834 C826 1.378 . S
C834 C829 1.350 . S
C835 H822 0.929 . S
C835 C827 1.433 . S
C835 N837 1.405 . S
N836 C832 1.428 . S
N836 C833 1.390 . S
N837 C829 1.428 . S
N837 C835 1.405 . S
H838 C844 0.930 . S
H839 C848 0.930 . S
H840 C853 0.929 1_654 S
H841 C851 0.929 . S
H842 C846 0.929 . S
H843 C852 0.929 . S
C844 H838 0.930 . S
C844 C845 1.367 . S
C844 C852 1.378 . S
C845 C844 1.367 . S
C845 C853 1.433 . S
C846 H842 0.929 . S
C846 C848 1.378 . S
C846 C850 1.350 . S
C847 C850 1.463 1_455 S
C847 C852 1.350 . S
C847 N855 1.427 1_455 S
C848 H839 0.930 . S
C848 C846 1.378 . S
C848 C849 1.367 . S
C849 C848 1.367 . S
C849 C851 1.417 1_655 S
C850 C846 1.350 . S
C850 C847 1.463 1_655 S
C850 N854 1.427 1_655 S
C851 H841 0.929 . S
C851 C849 1.417 1_455 S
C851 N854 1.401 . S
C852 H843 0.929 . S
C852 C844 1.378 . S
C852 C847 1.350 . S
C853 H840 0.929 1_456 S
C853 C845 1.433 . S
C853 N855 1.384 1_455 S
N854 C850 1.427 1_455 S
N854 C851 1.401 . S
N855 C847 1.427 1_655 S
N855 C853 1.384 1_655 S
H856 C862 0.930 . S
H857 C866 0.930 . S
H858 C871 0.929 . S
H859 C869 0.929 . S
H860 C864 0.929 . S
H861 C870 0.929 . S
C862 H856 0.930 . S
C862 C863 1.367 . S
C862 C870 1.378 . S
C863 C862 1.367 . S
C863 C871 1.433 . S
C864 H860 0.929 . S
C864 C866 1.378 . S
C864 C868 1.350 . S
C865 C868 1.463 . S
C865 C870 1.350 . S
C865 N873 1.427 . S
C866 H857 0.930 . S
C866 C864 1.378 . S
C866 C867 1.367 . S
C867 C866 1.367 . S
C867 C869 1.433 . S
C868 C864 1.350 . S
C868 C865 1.463 . S
C868 N872 1.427 . S
C869 H859 0.929 . S
C869 C867 1.433 . S
C869 N872 1.384 . S
C870 H861 0.929 . S
C870 C862 1.378 . S
C870 C865 1.350 . S
C871 H858 0.929 . S
C871 C863 1.433 . S
C871 N873 1.384 . S
N872 C868 1.427 . S
N872 C869 1.384 . S
N873 C865 1.427 . S
N873 C871 1.384 . S
H874 C880 0.930 . S
H875 C884 0.930 . S
H876 C889 0.929 . S
H877 C887 0.929 . S
H878 C882 0.929 . S
H879 C888 0.929 . S
C880 H874 0.930 . S
C880 C881 1.367 . S
C880 C888 1.378 . S
C881 C880 1.367 . S
C881 C889 1.433 . S
C882 H878 0.929 . S
C882 C884 1.378 . S
C882 C886 1.350 . S
C883 C886 1.463 . S
C883 C888 1.350 . S
C883 N891 1.427 . S
C884 H875 0.930 . S
C884 C882 1.378 . S
C884 C885 1.367 . S
C885 C884 1.367 . S
C885 C887 1.433 . S
C886 C882 1.350 . S
C886 C883 1.463 . S
C886 N890 1.427 . S
C887 H877 0.929 . S
C887 C885 1.433 . S
C887 N890 1.384 . S
C888 H879 0.929 . S
C888 C880 1.378 . S
C888 C883 1.350 . S
C889 H876 0.929 . S
C889 C881 1.433 . S
C889 N891 1.384 . S
N890 C886 1.427 . S
N890 C887 1.384 . S
N891 C883 1.427 . S
N891 C889 1.384 . S
H892 C898 0.930 . S
H893 C902 0.930 . S
H894 C907 0.929 . S
H895 C905 0.929 . S
H896 C900 0.929 . S
H897 C906 0.929 . S
C898 H892 0.930 . S
C898 C899 1.367 . S
C898 C906 1.378 . S
C899 C898 1.367 . S
C899 C907 1.433 . S
C900 H896 0.929 . S
C900 C902 1.378 . S
C900 C904 1.350 . S
C901 C904 1.463 . S
C901 C906 1.350 . S
C901 N909 1.427 . S
C902 H893 0.930 . S
C902 C900 1.378 . S
C902 C903 1.367 . S
C903 C902 1.367 . S
C903 C905 1.433 . S
C904 C900 1.350 . S
C904 C901 1.463 . S
C904 N908 1.427 . S
C905 H895 0.929 . S
C905 C903 1.433 . S
C905 N908 1.384 . S
C906 H897 0.929 . S
C906 C898 1.378 . S
C906 C901 1.350 . S
C907 H894 0.929 . S
C907 C899 1.433 . S
C907 N909 1.384 . S
N908 C904 1.427 . S
N908 C905 1.384 . S
N909 C901 1.427 . S
N909 C907 1.384 . S
H910 C916 0.930 . S
H911 C920 0.930 . S
H912 C925 0.929 . S
H913 C923 0.929 . S
H914 C918 0.929 . S
H915 C924 0.929 . S
C916 H910 0.930 . S
C916 C917 1.367 . S
C916 C924 1.378 . S
C917 C916 1.367 . S
C917 C925 1.433 . S
C918 H914 0.929 . S
C918 C920 1.378 . S
C918 C922 1.350 . S
C919 C922 1.463 . S
C919 C924 1.350 . S
C919 N927 1.427 . S
C920 H911 0.930 . S
C920 C918 1.378 . S
C920 C921 1.367 . S
C921 C920 1.367 . S
C921 C923 1.433 . S
C922 C918 1.350 . S
C922 C919 1.463 . S
C922 N926 1.427 . S
C923 H913 0.929 . S
C923 C921 1.433 . S
C923 N926 1.384 . S
C924 H915 0.929 . S
C924 C916 1.378 . S
C924 C919 1.350 . S
C925 H912 0.929 . S
C925 C917 1.433 . S
C925 N927 1.384 . S
N926 C922 1.427 . S
N926 C923 1.384 . S
N927 C919 1.427 . S
N927 C925 1.384 . S
H928 C934 0.930 . S
H929 C938 0.930 . S
H930 C943 0.929 . S
H931 C941 0.929 . S
H932 C936 0.929 . S
H933 C942 0.929 . S
C934 H928 0.930 . S
C934 C935 1.367 . S
C934 C942 1.378 . S
C935 C934 1.367 . S
C935 C943 1.433 . S
C936 H932 0.929 . S
C936 C938 1.378 . S
C936 C940 1.350 . S
C937 C940 1.463 . S
C937 C942 1.350 . S
C937 N945 1.427 . S
C938 H929 0.930 . S
C938 C936 1.378 . S
C938 C939 1.367 . S
C939 C938 1.367 . S
C939 C941 1.433 . S
C940 C936 1.350 . S
C940 C937 1.463 . S
C940 N944 1.427 . S
C941 H931 0.929 . S
C941 C939 1.433 . S
C941 N944 1.384 . S
C942 H933 0.929 . S
C942 C934 1.378 . S
C942 C937 1.350 . S
C943 H930 0.929 . S
C943 C935 1.433 . S
C943 N945 1.384 . S
N944 C940 1.427 . S
N944 C941 1.384 . S
N945 C937 1.427 . S
N945 C943 1.384 . S
H946 C952 0.930 . S
H947 C956 0.930 . S
H948 C961 0.929 . S
H949 C959 0.929 . S
H950 C954 0.929 . S
H951 C960 0.929 . S
C952 H946 0.930 . S
C952 C953 1.367 . S
C952 C960 1.378 . S
C953 C952 1.367 . S
C953 C961 1.433 . S
C954 H950 0.929 . S
C954 C956 1.378 . S
C954 C958 1.350 . S
C955 C958 1.463 . S
C955 C960 1.350 . S
C955 N963 1.427 . S
C956 H947 0.930 . S
C956 C954 1.378 . S
C956 C957 1.367 . S
C957 C956 1.367 . S
C957 C959 1.433 . S
C958 C954 1.350 . S
C958 C955 1.463 . S
C958 N962 1.427 . S
C959 H949 0.929 . S
C959 C957 1.433 . S
C959 N962 1.384 . S
C960 H951 0.929 . S
C960 C952 1.378 . S
C960 C955 1.350 . S
C961 H948 0.929 . S
C961 C953 1.433 . S
C961 N963 1.384 . S
N962 C958 1.427 . S
N962 C959 1.384 . S
N963 C955 1.427 . S
N963 C961 1.384 . S
H964 C970 0.930 . S
H965 C974 0.930 . S
H966 C979 0.929 . S
H967 C977 0.929 . S
H968 C972 0.929 . S
H969 C978 0.929 . S
C970 H964 0.930 . S
C970 C971 1.367 . S
C970 C978 1.378 . S
C971 C970 1.367 . S
C971 C979 1.433 . S
C972 H968 0.929 . S
C972 C974 1.378 . S
C972 C976 1.350 . S
C973 C976 1.463 . S
C973 C978 1.350 . S
C973 N981 1.427 . S
C974 H965 0.930 . S
C974 C972 1.378 . S
C974 C975 1.367 . S
C975 C974 1.367 . S
C975 C977 1.433 . S
C976 C972 1.350 . S
C976 C973 1.463 . S
C976 N980 1.427 . S
C977 H967 0.929 . S
C977 C975 1.433 . S
C977 N980 1.384 . S
C978 H969 0.929 . S
C978 C970 1.378 . S
C978 C973 1.350 . S
C979 H966 0.929 . S
C979 C971 1.433 . S
C979 N981 1.384 . S
N980 C976 1.427 . S
N980 C977 1.384 . S
N981 C973 1.427 . S
N981 C979 1.384 . S
H982 C988 0.930 . S
H983 C992 0.930 . S
H984 C997 0.929 . S
H985 C995 0.929 . S
H986 C990 0.929 . S
H987 C996 0.929 . S
C988 H982 0.930 . S
C988 C989 1.367 . S
C988 C996 1.378 . S
C989 C988 1.367 . S
C989 C997 1.433 . S
C990 H986 0.929 . S
C990 C992 1.378 . S
C990 C994 1.350 . S
C991 C994 1.463 . S
C991 C996 1.350 . S
C991 N999 1.427 . S
C992 H983 0.930 . S
C992 C990 1.378 . S
C992 C993 1.367 . S
C993 C992 1.367 . S
C993 C995 1.433 . S
C994 C990 1.350 . S
C994 C991 1.463 . S
C994 N998 1.427 . S
C995 H985 0.929 . S
C995 C993 1.433 . S
C995 N998 1.384 . S
C996 H987 0.929 . S
C996 C988 1.378 . S
C996 C991 1.350 . S
C997 H984 0.929 . S
C997 C989 1.433 . S
C997 N999 1.384 . S
N998 C994 1.427 . S
N998 C995 1.384 . S
N999 C991 1.427 . S
N999 C997 1.384 . S
H1000 C1006 0.930 . S
H1001 C1010 0.930 . S
H1002 C1015 0.929 . S
H1003 C1013 0.929 . S
H1004 C1008 0.929 . S
H1005 C1014 0.929 . S
C1006 H1000 0.930 . S
C1006 C1007 1.367 . S
C1006 C1014 1.378 . S
C1007 C1006 1.367 . S
C1007 C1015 1.433 . S
C1008 H1004 0.929 . S
C1008 C1010 1.378 . S
C1008 C1012 1.350 . S
C1009 C1012 1.463 . S
C1009 C1014 1.350 . S
C1009 N1017 1.427 . S
C1010 H1001 0.930 . S
C1010 C1008 1.378 . S
C1010 C1011 1.367 . S
C1011 C1010 1.367 . S
C1011 C1013 1.433 . S
C1012 C1008 1.350 . S
C1012 C1009 1.463 . S
C1012 N1016 1.427 . S
C1013 H1003 0.929 . S
C1013 C1011 1.433 . S
C1013 N1016 1.384 . S
C1014 H1005 0.929 . S
C1014 C1006 1.378 . S
C1014 C1009 1.350 . S
C1015 H1002 0.929 . S
C1015 C1007 1.433 . S
C1015 N1017 1.384 . S
N1016 C1012 1.427 . S
N1016 C1013 1.384 . S
N1017 C1009 1.427 . S
N1017 C1015 1.384 . S
H1018 C1024 0.930 . S
H1019 C1028 0.930 . S
H1020 C1033 0.929 . S
H1021 C1031 0.929 . S
H1022 C1026 0.929 . S
H1023 C1032 0.929 . S
C1024 H1018 0.930 . S
C1024 C1025 1.367 1_655 S
C1024 C1032 1.378 . S
C1025 C1024 1.367 1_455 S
C1025 C1033 1.433 . S
C1026 H1022 0.929 . S
C1026 C1028 1.378 . S
C1026 C1030 1.350 1_455 S
C1027 C1030 1.463 1_455 S
C1027 C1032 1.350 1_455 S
C1027 N1035 1.427 . S
C1028 H1019 0.930 . S
C1028 C1026 1.378 . S
C1028 C1029 1.367 1_455 S
C1029 C1028 1.367 1_655 S
C1029 C1031 1.433 . S
C1030 C1026 1.350 1_655 S
C1030 C1027 1.463 1_655 S
C1030 N1034 1.427 . S
C1031 H1021 0.929 . S
C1031 C1029 1.433 . S
C1031 N1034 1.384 . S
C1032 H1023 0.929 . S
C1032 C1024 1.378 . S
C1032 C1027 1.350 1_655 S
C1033 H1020 0.929 . S
C1033 C1025 1.433 . S
C1033 N1035 1.384 . S
N1034 C1030 1.427 . S
N1034 C1031 1.384 . S
N1035 C1027 1.427 . S
N1035 C1033 1.384 . S
H1036 C1042 0.930 . S
H1037 C1046 0.930 . S
H1038 C1051 0.929 . S
H1039 C1049 0.929 . S
H1040 C1044 0.929 . S
H1041 C1050 0.929 . S
C1042 H1036 0.930 . S
C1042 C1043 1.367 . S
C1042 C1050 1.378 . S
C1043 C1042 1.367 . S
C1043 C1051 1.433 . S
C1044 H1040 0.929 . S
C1044 C1046 1.378 . S
C1044 C1048 1.350 . S
C1045 C1048 1.463 . S
C1045 C1050 1.350 . S
C1045 N1053 1.427 . S
C1046 H1037 0.930 . S
C1046 C1044 1.378 . S
C1046 C1047 1.367 . S
C1047 C1046 1.367 . S
C1047 C1049 1.433 . S
C1048 C1044 1.350 . S
C1048 C1045 1.463 . S
C1048 N1052 1.427 . S
C1049 H1039 0.929 . S
C1049 C1047 1.433 . S
C1049 N1052 1.384 . S
C1050 H1041 0.929 . S
C1050 C1042 1.378 . S
C1050 C1045 1.350 . S
C1051 H1038 0.929 . S
C1051 C1043 1.433 . S
C1051 N1053 1.384 . S
N1052 C1048 1.427 . S
N1052 C1049 1.384 . S
N1053 C1045 1.427 . S
N1053 C1051 1.384 . S
H1054 C1060 0.930 . S
H1055 C1064 0.930 . S
H1056 C1069 0.929 . S
H1057 C1067 0.929 . S
H1058 C1062 0.929 . S
H1059 C1068 0.929 . S
C1060 H1054 0.930 . S
C1060 C1061 1.367 . S
C1060 C1068 1.378 . S
C1061 C1060 1.367 . S
C1061 C1069 1.433 . S
C1062 H1058 0.929 . S
C1062 C1064 1.378 . S
C1062 C1066 1.350 . S
C1063 C1066 1.463 . S
C1063 C1068 1.350 . S
C1063 N1071 1.427 . S
C1064 H1055 0.930 . S
C1064 C1062 1.378 . S
C1064 C1065 1.367 . S
C1065 C1064 1.367 . S
C1065 C1067 1.433 . S
C1066 C1062 1.350 . S
C1066 C1063 1.463 . S
C1066 N1070 1.427 . S
C1067 H1057 0.929 . S
C1067 C1065 1.433 . S
C1067 N1070 1.384 . S
C1068 H1059 0.929 . S
C1068 C1060 1.378 . S
C1068 C1063 1.350 . S
C1069 H1056 0.929 . S
C1069 C1061 1.433 . S
C1069 N1071 1.384 . S
N1070 C1066 1.427 . S
N1070 C1067 1.384 . S
N1071 C1063 1.427 . S
N1071 C1069 1.384 . S
H1072 C1078 0.930 . S
H1073 C1082 0.930 . S
H1074 C1087 0.929 . S
H1075 C1085 0.929 . S
H1076 C1080 0.929 . S
H1077 C1086 0.929 . S
C1078 H1072 0.930 . S
C1078 C1079 1.367 . S
C1078 C1086 1.378 . S
C1079 C1078 1.367 . S
C1079 C1087 1.433 . S
C1080 H1076 0.929 . S
C1080 C1082 1.378 . S
C1080 C1084 1.350 . S
C1081 C1084 1.463 . S
C1081 C1086 1.350 . S
C1081 N1089 1.427 . S
C1082 H1073 0.930 . S
C1082 C1080 1.378 . S
C1082 C1083 1.367 . S
C1083 C1082 1.367 . S
C1083 C1085 1.433 . S
C1084 C1080 1.350 . S
C1084 C1081 1.463 . S
C1084 N1088 1.427 . S
C1085 H1075 0.929 . S
C1085 C1083 1.433 . S
C1085 N1088 1.384 . S
C1086 H1077 0.929 . S
C1086 C1078 1.378 . S
C1086 C1081 1.350 . S
C1087 H1074 0.929 . S
C1087 C1079 1.433 . S
C1087 N1089 1.384 . S
N1088 C1084 1.427 . S
N1088 C1085 1.384 . S
N1089 C1081 1.427 . S
N1089 C1087 1.384 . S
H1090 C1096 0.930 . S
H1091 C1100 0.930 . S
H1092 C1105 0.929 . S
H1093 C1103 0.929 . S
H1094 C1098 0.929 . S
H1095 C1104 0.929 . S
C1096 H1090 0.930 . S
C1096 C1097 1.367 . S
C1096 C1104 1.378 . S
C1097 C1096 1.367 . S
C1097 C1105 1.433 . S
C1098 H1094 0.929 . S
C1098 C1100 1.378 . S
C1098 C1102 1.350 . S
C1099 C1102 1.463 . S
C1099 C1104 1.350 . S
C1099 N1107 1.427 . S
C1100 H1091 0.930 . S
C1100 C1098 1.378 . S
C1100 C1101 1.367 . S
C1101 C1100 1.367 . S
C1101 C1103 1.433 . S
C1102 C1098 1.350 . S
C1102 C1099 1.463 . S
C1102 N1106 1.427 . S
C1103 H1093 0.929 . S
C1103 C1101 1.433 . S
C1103 N1106 1.384 . S
C1104 H1095 0.929 . S
C1104 C1096 1.378 . S
C1104 C1099 1.350 . S
C1105 H1092 0.929 . S
C1105 C1097 1.433 . S
C1105 N1107 1.384 . S
N1106 C1102 1.427 . S
N1106 C1103 1.384 . S
N1107 C1099 1.427 . S
N1107 C1105 1.384 . S
H1108 C1114 0.937 . S
H1109 C1118 0.930 1_565 S
H1110 C1123 0.929 . S
H1111 C1121 0.929 . S
H1112 C1116 0.929 . S
H1113 C1122 0.929 . S
C1114 H1108 0.937 . S
C1114 C1115 1.340 1_545 S
C1114 C1122 1.399 . S
C1115 C1114 1.340 1_565 S
C1115 C1123 1.433 . S
C1116 H1112 0.929 . S
C1116 C1118 1.378 1_565 S
C1116 C1120 1.350 1_565 S
C1117 C1120 1.463 1_565 S
C1117 C1122 1.350 1_565 S
C1117 N1125 1.427 . S
C1118 H1109 0.930 1_545 S
C1118 C1116 1.378 1_545 S
C1118 C1119 1.367 . S
C1119 C1118 1.367 . S
C1119 C1121 1.433 . S
C1120 C1116 1.350 1_545 S
C1120 C1117 1.463 1_545 S
C1120 N1124 1.427 . S
C1121 H1111 0.929 . S
C1121 C1119 1.433 . S
C1121 N1124 1.384 . S
C1122 H1113 0.929 . S
C1122 C1114 1.399 . S
C1122 C1117 1.350 1_545 S
C1123 H1110 0.929 . S
C1123 C1115 1.433 . S
C1123 N1125 1.384 . S
N1124 C1120 1.427 . S
N1124 C1121 1.384 . S
N1125 C1117 1.427 . S
N1125 C1123 1.384 . S
H1126 C1132 0.930 1_556 S
H1127 C1136 0.930 . S
H1128 C1141 0.929 . S
H1129 C1139 0.929 . S
H1130 C1134 0.929 . S
H1131 C1140 0.929 1_556 S
C1132 H1126 0.930 1_554 S
C1132 C1133 1.367 . S
C1132 C1140 1.378 . S
C1133 C1132 1.367 . S
C1133 C1141 1.433 . S
C1134 H1130 0.929 . S
C1134 C1136 1.378 . S
C1134 C1138 1.350 . S
C1135 C1138 1.463 . S
C1135 C1140 1.350 . S
C1135 N1143 1.427 . S
C1136 H1127 0.930 . S
C1136 C1134 1.378 . S
C1136 C1137 1.367 . S
C1137 C1136 1.367 . S
C1137 C1139 1.433 . S
C1138 C1134 1.350 . S
C1138 C1135 1.463 . S
C1138 N1142 1.427 . S
C1139 H1129 0.929 . S
C1139 C1137 1.433 . S
C1139 N1142 1.384 . S
C1140 H1131 0.929 1_554 S
C1140 C1132 1.378 . S
C1140 C1135 1.350 . S
C1141 H1128 0.929 . S
C1141 C1133 1.433 . S
C1141 N1143 1.384 . S
N1142 C1138 1.427 . S
N1142 C1139 1.384 . S
N1143 C1135 1.427 . S
N1143 C1141 1.384 . S
H1144 C1150 0.930 . S
H1145 C1154 0.930 . S
H1146 C1159 0.929 . S
H1147 C1157 0.929 . S
H1148 C1152 0.929 . S
H1149 C1158 0.929 . S
C1150 H1144 0.930 . S
C1150 C1151 1.367 . S
C1150 C1158 1.378 . S
C1151 C1150 1.367 . S
C1151 C1159 1.433 . S
C1152 H1148 0.929 . S
C1152 C1154 1.378 . S
C1152 C1156 1.350 . S
C1153 C1156 1.463 . S
C1153 C1158 1.350 . S
C1153 N1161 1.427 . S
C1154 H1145 0.930 . S
C1154 C1152 1.378 . S
C1154 C1155 1.367 . S
C1155 C1154 1.367 . S
C1155 C1157 1.433 . S
C1156 C1152 1.350 . S
C1156 C1153 1.463 . S
C1156 N1160 1.427 . S
C1157 H1147 0.929 . S
C1157 C1155 1.433 . S
C1157 N1160 1.384 . S
C1158 H1149 0.929 . S
C1158 C1150 1.378 . S
C1158 C1153 1.350 . S
C1159 H1146 0.929 . S
C1159 C1151 1.433 . S
C1159 N1161 1.384 . S
N1160 C1156 1.427 . S
N1160 C1157 1.384 . S
N1161 C1153 1.427 . S
N1161 C1159 1.384 . S
H1162 C1168 0.930 . S
H1163 C1172 0.930 . S
H1164 C1177 0.929 . S
H1165 C1175 0.929 . S
H1166 C1170 0.929 . S
H1167 C1176 0.929 . S
C1168 H1162 0.930 . S
C1168 C1169 1.367 . S
C1168 C1176 1.378 . S
C1169 C1168 1.367 . S
C1169 C1177 1.433 . S
C1170 H1166 0.929 . S
C1170 C1172 1.378 . S
C1170 C1174 1.350 . S
C1171 C1174 1.463 . S
C1171 C1176 1.350 . S
C1171 N1179 1.427 . S
C1172 H1163 0.930 . S
C1172 C1170 1.378 . S
C1172 C1173 1.367 . S
C1173 C1172 1.367 . S
C1173 C1175 1.433 . S
C1174 C1170 1.350 . S
C1174 C1171 1.463 . S
C1174 N1178 1.427 . S
C1175 H1165 0.929 . S
C1175 C1173 1.433 . S
C1175 N1178 1.384 . S
C1176 H1167 0.929 . S
C1176 C1168 1.378 . S
C1176 C1171 1.350 . S
C1177 H1164 0.929 . S
C1177 C1169 1.433 . S
C1177 N1179 1.384 . S
N1178 C1174 1.427 . S
N1178 C1175 1.384 . S
N1179 C1171 1.427 . S
N1179 C1177 1.384 . S
H1180 C1186 0.930 . S
H1181 C1190 0.930 . S
H1182 C1195 0.929 . S
H1183 C1193 0.929 . S
H1184 C1188 0.929 . S
H1185 C1194 0.929 . S
C1186 H1180 0.930 . S
C1186 C1187 1.367 . S
C1186 C1194 1.378 . S
C1187 C1186 1.367 . S
C1187 C1195 1.433 . S
C1188 H1184 0.929 . S
C1188 C1190 1.378 . S
C1188 C1192 1.350 . S
C1189 C1192 1.463 . S
C1189 C1194 1.350 . S
C1189 N1197 1.427 . S
C1190 H1181 0.930 . S
C1190 C1188 1.378 . S
C1190 C1191 1.367 . S
C1191 C1190 1.367 . S
C1191 C1193 1.433 . S
C1192 C1188 1.350 . S
C1192 C1189 1.463 . S
C1192 N1196 1.427 . S
C1193 H1183 0.929 . S
C1193 C1191 1.433 . S
C1193 N1196 1.384 . S
C1194 H1185 0.929 . S
C1194 C1186 1.378 . S
C1194 C1189 1.350 . S
C1195 H1182 0.929 . S
C1195 C1187 1.433 . S
C1195 N1197 1.384 . S
N1196 C1192 1.427 . S
N1196 C1193 1.384 . S
N1197 C1189 1.427 . S
N1197 C1195 1.384 . S
H1198 C1204 0.930 . S
H1199 C1208 0.930 . S
H1200 C1213 0.929 . S
H1201 C1211 0.929 . S
H1202 C1206 0.929 . S
H1203 C1212 0.929 . S
C1204 H1198 0.930 . S
C1204 C1205 1.367 . S
C1204 C1212 1.378 . S
C1205 C1204 1.367 . S
C1205 C1213 1.433 . S
C1206 H1202 0.929 . S
C1206 C1208 1.378 . S
C1206 C1210 1.350 . S
C1207 C1210 1.463 . S
C1207 C1212 1.350 . S
C1207 N1215 1.427 . S
C1208 H1199 0.930 . S
C1208 C1206 1.378 . S
C1208 C1209 1.367 . S
C1209 C1208 1.367 . S
C1209 C1211 1.433 . S
C1210 C1206 1.350 . S
C1210 C1207 1.463 . S
C1210 N1214 1.427 . S
C1211 H1201 0.929 . S
C1211 C1209 1.433 . S
C1211 N1214 1.384 . S
C1212 H1203 0.929 . S
C1212 C1204 1.378 . S
C1212 C1207 1.350 . S
C1213 H1200 0.929 . S
C1213 C1205 1.433 . S
C1213 N1215 1.384 . S
N1214 C1210 1.427 . S
N1214 C1211 1.384 . S
N1215 C1207 1.427 . S
N1215 C1213 1.384 . S
H1216 C1222 0.930 . S
H1217 C1226 0.930 . S
H1218 C1231 0.929 . S
H1219 C1229 0.929 . S
H1220 C1224 0.929 . S
H1221 C1230 0.929 . S
C1222 H1216 0.930 . S
C1222 C1223 1.367 . S
C1222 C1230 1.378 . S
C1223 C1222 1.367 . S
C1223 C1231 1.433 . S
C1224 H1220 0.929 . S
C1224 C1226 1.378 . S
C1224 C1228 1.350 . S
C1225 C1228 1.463 . S
C1225 C1230 1.350 . S
C1225 N1233 1.427 . S
C1226 H1217 0.930 . S
C1226 C1224 1.378 . S
C1226 C1227 1.367 . S
C1227 C1226 1.367 . S
C1227 C1229 1.433 . S
C1228 C1224 1.350 . S
C1228 C1225 1.463 . S
C1228 N1232 1.427 . S
C1229 H1219 0.929 . S
C1229 C1227 1.433 . S
C1229 N1232 1.384 . S
C1230 H1221 0.929 . S
C1230 C1222 1.378 . S
C1230 C1225 1.350 . S
C1231 H1218 0.929 . S
C1231 C1223 1.433 . S
C1231 N1233 1.384 . S
N1232 C1228 1.427 . S
N1232 C1229 1.384 . S
N1233 C1225 1.427 . S
N1233 C1231 1.384 . S
H1234 C1240 0.930 . S
H1235 C1244 0.930 . S
H1236 C1249 0.929 . S
H1237 C1247 0.929 . S
H1238 C1242 0.929 . S
H1239 C1248 0.929 . S
C1240 H1234 0.930 . S
C1240 C1241 1.367 . S
C1240 C1248 1.378 . S
C1241 C1240 1.367 . S
C1241 C1249 1.433 . S
C1242 H1238 0.929 . S
C1242 C1244 1.378 . S
C1242 C1246 1.350 . S
C1243 C1246 1.463 . S
C1243 C1248 1.350 . S
C1243 N1251 1.427 . S
C1244 H1235 0.930 . S
C1244 C1242 1.378 . S
C1244 C1245 1.367 . S
C1245 C1244 1.367 . S
C1245 C1247 1.433 . S
C1246 C1242 1.350 . S
C1246 C1243 1.463 . S
C1246 N1250 1.427 . S
C1247 H1237 0.929 . S
C1247 C1245 1.433 . S
C1247 N1250 1.384 . S
C1248 H1239 0.929 . S
C1248 C1240 1.378 . S
C1248 C1243 1.350 . S
C1249 H1236 0.929 . S
C1249 C1241 1.433 . S
C1249 N1251 1.384 . S
N1250 C1246 1.427 . S
N1250 C1247 1.384 . S
N1251 C1243 1.427 . S
N1251 C1249 1.384 . S
H1252 C1258 0.930 . S
H1253 C1262 0.930 . S
H1254 C1267 0.929 . S
H1255 C1265 0.929 . S
H1256 C1260 0.929 . S
H1257 C1266 0.929 . S
C1258 H1252 0.930 . S
C1258 C1259 1.367 . S
C1258 C1266 1.378 . S
C1259 C1258 1.367 . S
C1259 C1267 1.433 . S
C1260 H1256 0.929 . S
C1260 C1262 1.378 . S
C1260 C1264 1.350 . S
C1261 C1264 1.463 . S
C1261 C1266 1.350 . S
C1261 N1269 1.427 . S
C1262 H1253 0.930 . S
C1262 C1260 1.378 . S
C1262 C1263 1.367 . S
C1263 C1262 1.367 . S
C1263 C1265 1.433 . S
C1264 C1260 1.350 . S
C1264 C1261 1.463 . S
C1264 N1268 1.427 . S
C1265 H1255 0.929 . S
C1265 C1263 1.433 . S
C1265 N1268 1.384 . S
C1266 H1257 0.929 . S
C1266 C1258 1.378 . S
C1266 C1261 1.350 . S
C1267 H1254 0.929 . S
C1267 C1259 1.433 . S
C1267 N1269 1.384 . S
N1268 C1264 1.427 . S
N1268 C1265 1.384 . S
N1269 C1261 1.427 . S
N1269 C1267 1.384 . S
H1270 C1276 0.930 . S
H1271 C1280 0.930 . S
H1272 C1285 0.929 . S
H1273 C1283 0.929 . S
H1274 C1278 0.929 . S
H1275 C1284 0.929 . S
C1276 H1270 0.930 . S
C1276 C1277 1.367 . S
C1276 C1284 1.378 . S
C1277 C1276 1.367 . S
C1277 C1285 1.433 . S
C1278 H1274 0.929 . S
C1278 C1280 1.378 . S
C1278 C1282 1.350 . S
C1279 C1282 1.463 . S
C1279 C1284 1.350 . S
C1279 N1287 1.427 . S
C1280 H1271 0.930 . S
C1280 C1278 1.378 . S
C1280 C1281 1.367 . S
C1281 C1280 1.367 . S
C1281 C1283 1.433 . S
C1282 C1278 1.350 . S
C1282 C1279 1.463 . S
C1282 N1286 1.427 . S
C1283 H1273 0.929 . S
C1283 C1281 1.433 . S
C1283 N1286 1.384 . S
C1284 H1275 0.929 . S
C1284 C1276 1.378 . S
C1284 C1279 1.350 . S
C1285 H1272 0.929 . S
C1285 C1277 1.433 . S
C1285 N1287 1.384 . S
N1286 C1282 1.427 . S
N1286 C1283 1.384 . S
N1287 C1279 1.427 . S
N1287 C1285 1.384 . S
H1288 C1294 0.930 . S
H1289 C1298 0.930 . S
H1290 C1303 0.929 . S
H1291 C1301 0.929 . S
H1292 C1296 0.929 . S
H1293 C1302 0.929 . S
C1294 H1288 0.930 . S
C1294 C1295 1.367 . S
C1294 C1302 1.378 . S
C1295 C1294 1.367 . S
C1295 C1303 1.433 . S
C1296 H1292 0.929 . S
C1296 C1298 1.378 . S
C1296 C1300 1.350 . S
C1297 C1300 1.463 . S
C1297 C1302 1.350 . S
C1297 N1305 1.427 . S
C1298 H1289 0.930 . S
C1298 C1296 1.378 . S
C1298 C1299 1.367 . S
C1299 C1298 1.367 . S
C1299 C1301 1.433 . S
C1300 C1296 1.350 . S
C1300 C1297 1.463 . S
C1300 N1304 1.427 . S
C1301 H1291 0.929 . S
C1301 C1299 1.433 . S
C1301 N1304 1.384 . S
C1302 H1293 0.929 . S
C1302 C1294 1.378 . S
C1302 C1297 1.350 . S
C1303 H1290 0.929 . S
C1303 C1295 1.433 . S
C1303 N1305 1.384 . S
N1304 C1300 1.427 . S
N1304 C1301 1.384 . S
N1305 C1297 1.427 . S
N1305 C1303 1.384 . S
H1306 C1312 0.930 . S
H1307 C1316 0.930 . S
H1308 C1321 0.929 . S
H1309 C1319 0.929 . S
H1310 C1314 0.929 . S
H1311 C1320 0.924 1_556 S
C1312 H1306 0.930 . S
C1312 C1313 1.367 . S
C1312 C1320 1.378 . S
C1313 C1312 1.367 . S
C1313 C1321 1.433 . S
C1314 H1310 0.929 . S
C1314 C1316 1.378 . S
C1314 C1318 1.350 . S
C1315 C1318 1.463 . S
C1315 C1320 1.350 . S
C1315 N1323 1.427 . S
C1316 H1307 0.930 . S
C1316 C1314 1.378 . S
C1316 C1317 1.367 . S
C1317 C1316 1.367 . S
C1317 C1319 1.433 1_554 S
C1318 C1314 1.350 . S
C1318 C1315 1.463 . S
C1318 N1322 1.427 . S
C1319 H1309 0.929 . S
C1319 C1317 1.433 1_556 S
C1319 N1322 1.384 1_556 S
C1320 H1311 0.924 1_554 S
C1320 C1312 1.378 . S
C1320 C1315 1.350 . S
C1321 H1308 0.929 . S
C1321 C1313 1.433 . S
C1321 N1323 1.384 . S
N1322 C1318 1.427 . S
N1322 C1319 1.384 1_554 S
N1323 C1315 1.427 . S
N1323 C1321 1.384 . S
H1324 C1330 0.930 . S
H1325 C1334 0.930 . S
H1326 C1339 0.929 . S
H1327 C1337 0.929 . S
H1328 C1332 0.929 . S
H1329 C1338 0.929 . S
C1330 H1324 0.930 . S
C1330 C1331 1.367 . S
C1330 C1338 1.378 . S
C1331 C1330 1.367 . S
C1331 C1339 1.433 . S
C1332 H1328 0.929 . S
C1332 C1334 1.378 . S
C1332 C1336 1.350 . S
C1333 C1336 1.463 . S
C1333 C1338 1.350 . S
C1333 N1341 1.427 . S
C1334 H1325 0.930 . S
C1334 C1332 1.378 . S
C1334 C1335 1.367 . S
C1335 C1334 1.367 . S
C1335 C1337 1.433 . S
C1336 C1332 1.350 . S
C1336 C1333 1.463 . S
C1336 N1340 1.427 . S
C1337 H1327 0.929 . S
C1337 C1335 1.433 . S
C1337 N1340 1.384 . S
C1338 H1329 0.929 . S
C1338 C1330 1.378 . S
C1338 C1333 1.350 . S
C1339 H1326 0.929 . S
C1339 C1331 1.433 . S
C1339 N1341 1.384 . S
N1340 C1336 1.427 . S
N1340 C1337 1.384 . S
N1341 C1333 1.427 . S
N1341 C1339 1.384 . S
H1342 C1348 0.930 . S
H1343 C1352 0.930 . S
H1344 C1357 0.929 . S
H1345 C1355 0.929 . S
H1346 C1350 0.929 . S
H1347 C1356 0.929 . S
C1348 H1342 0.930 . S
C1348 C1349 1.367 . S
C1348 C1356 1.378 . S
C1349 C1348 1.367 . S
C1349 C1357 1.433 . S
C1350 H1346 0.929 . S
C1350 C1352 1.378 . S
C1350 C1354 1.350 . S
C1351 C1354 1.463 . S
C1351 C1356 1.350 . S
C1351 N1359 1.427 . S
C1352 H1343 0.930 . S
C1352 C1350 1.378 . S
C1352 C1353 1.367 . S
C1353 C1352 1.367 . S
C1353 C1355 1.433 . S
C1354 C1350 1.350 . S
C1354 C1351 1.463 . S
C1354 N1358 1.427 . S
C1355 H1345 0.929 . S
C1355 C1353 1.433 . S
C1355 N1358 1.384 . S
C1356 H1347 0.929 . S
C1356 C1348 1.378 . S
C1356 C1351 1.350 . S
C1357 H1344 0.929 . S
C1357 C1349 1.433 . S
C1357 N1359 1.384 . S
N1358 C1354 1.427 . S
N1358 C1355 1.384 . S
N1359 C1351 1.427 . S
N1359 C1357 1.384 . S
H1360 C1366 0.930 . S
H1361 C1370 0.930 . S
H1362 C1375 0.929 . S
H1363 C1373 0.929 . S
H1364 C1368 0.929 . S
H1365 C1374 0.929 . S
C1366 H1360 0.930 . S
C1366 C1367 1.367 . S
C1366 C1374 1.378 . S
C1367 C1366 1.367 . S
C1367 C1375 1.433 . S
C1368 H1364 0.929 . S
C1368 C1370 1.378 . S
C1368 C1372 1.350 . S
C1369 C1372 1.463 . S
C1369 C1374 1.350 . S
C1369 N1377 1.427 . S
C1370 H1361 0.930 . S
C1370 C1368 1.378 . S
C1370 C1371 1.367 . S
C1371 C1370 1.367 . S
C1371 C1373 1.433 . S
C1372 C1368 1.350 . S
C1372 C1369 1.463 . S
C1372 N1376 1.427 . S
C1373 H1363 0.929 . S
C1373 C1371 1.433 . S
C1373 N1376 1.384 . S
C1374 H1365 0.929 . S
C1374 C1366 1.378 . S
C1374 C1369 1.350 . S
C1375 H1362 0.929 . S
C1375 C1367 1.433 . S
C1375 N1377 1.384 . S
N1376 C1372 1.427 . S
N1376 C1373 1.384 . S
N1377 C1369 1.427 . S
N1377 C1375 1.384 . S
H1378 C1384 0.930 . S
H1379 C1388 0.930 . S
H1380 C1393 0.929 . S
H1381 C1391 0.929 . S
H1382 C1386 0.929 . S
H1383 C1392 0.929 . S
C1384 H1378 0.930 . S
C1384 C1385 1.367 . S
C1384 C1392 1.378 . S
C1385 C1384 1.367 . S
C1385 C1393 1.433 . S
C1386 H1382 0.929 . S
C1386 C1388 1.378 . S
C1386 C1390 1.350 . S
C1387 C1390 1.463 . S
C1387 C1392 1.350 . S
C1387 N1395 1.427 . S
C1388 H1379 0.930 . S
C1388 C1386 1.378 . S
C1388 C1389 1.367 . S
C1389 C1388 1.367 . S
C1389 C1391 1.433 . S
C1390 C1386 1.350 . S
C1390 C1387 1.463 . S
C1390 N1394 1.427 . S
C1391 H1381 0.929 . S
C1391 C1389 1.433 . S
C1391 N1394 1.384 . S
C1392 H1383 0.929 . S
C1392 C1384 1.378 . S
C1392 C1387 1.350 . S
C1393 H1380 0.929 . S
C1393 C1385 1.433 . S
C1393 N1395 1.384 . S
N1394 C1390 1.427 . S
N1394 C1391 1.384 . S
N1395 C1387 1.427 . S
N1395 C1393 1.384 . S
H1396 C1402 0.943 . S
H1397 C1406 0.930 . S
H1398 C1411 0.929 . S
H1399 C1409 0.929 . S
H1400 C1404 0.929 . S
H1401 C1410 0.929 1_554 S
C1402 H1396 0.943 . S
C1402 C1403 1.360 1_554 S
C1402 C1410 1.372 1_554 S
C1403 C1402 1.360 1_556 S
C1403 C1411 1.433 . S
C1404 H1400 0.929 . S
C1404 C1406 1.378 . S
C1404 C1408 1.350 . S
C1405 C1408 1.463 . S
C1405 C1410 1.350 . S
C1405 N1413 1.427 . S
C1406 H1397 0.930 . S
C1406 C1404 1.378 . S
C1406 C1407 1.367 . S
C1407 C1406 1.367 . S
C1407 C1409 1.433 . S
C1408 C1404 1.350 . S
C1408 C1405 1.463 . S
C1408 N1412 1.427 . S
C1409 H1399 0.929 . S
C1409 C1407 1.433 . S
C1409 N1412 1.384 . S
C1410 H1401 0.929 1_556 S
C1410 C1402 1.372 1_556 S
C1410 C1405 1.350 . S
C1411 H1398 0.929 . S
C1411 C1403 1.433 . S
C1411 N1413 1.384 . S
N1412 C1408 1.427 . S
N1412 C1409 1.384 . S
N1413 C1405 1.427 . S
N1413 C1411 1.384 . S
H1414 C1420 0.930 . S
H1415 C1424 0.930 . S
H1416 C1429 0.929 . S
H1417 C1427 0.929 . S
H1418 C1422 0.929 . S
H1419 C1428 0.929 . S
C1420 H1414 0.930 . S
C1420 C1421 1.367 . S
C1420 C1428 1.378 . S
C1421 C1420 1.367 . S
C1421 C1429 1.433 . S
C1422 H1418 0.929 . S
C1422 C1424 1.378 . S
C1422 C1426 1.350 . S
C1423 C1426 1.463 . S
C1423 C1428 1.350 . S
C1423 N1431 1.427 . S
C1424 H1415 0.930 . S
C1424 C1422 1.378 . S
C1424 C1425 1.367 . S
C1425 C1424 1.367 . S
C1425 C1427 1.433 . S
C1426 C1422 1.350 . S
C1426 C1423 1.463 . S
C1426 N1430 1.427 . S
C1427 H1417 0.929 . S
C1427 C1425 1.433 . S
C1427 N1430 1.384 . S
C1428 H1419 0.929 . S
C1428 C1420 1.378 . S
C1428 C1423 1.350 . S
C1429 H1416 0.929 . S
C1429 C1421 1.433 . S
C1429 N1431 1.384 . S
N1430 C1426 1.427 . S
N1430 C1427 1.384 . S
N1431 C1423 1.427 . S
N1431 C1429 1.384 . S
H1432 C1438 0.930 . S
H1433 C1442 0.930 . S
H1434 C1447 0.929 . S
H1435 C1445 0.929 . S
H1436 C1440 0.929 . S
H1437 C1446 0.929 . S
C1438 H1432 0.930 . S
C1438 C1439 1.367 . S
C1438 C1446 1.378 . S
C1439 C1438 1.367 . S
C1439 C1447 1.433 . S
C1440 H1436 0.929 . S
C1440 C1442 1.378 . S
C1440 C1444 1.350 . S
C1441 C1444 1.463 . S
C1441 C1446 1.350 . S
C1441 N1449 1.427 . S
C1442 H1433 0.930 . S
C1442 C1440 1.378 . S
C1442 C1443 1.367 . S
C1443 C1442 1.367 . S
C1443 C1445 1.433 . S
C1444 C1440 1.350 . S
C1444 C1441 1.463 . S
C1444 N1448 1.427 . S
C1445 H1435 0.929 . S
C1445 C1443 1.433 . S
C1445 N1448 1.384 . S
C1446 H1437 0.929 . S
C1446 C1438 1.378 . S
C1446 C1441 1.350 . S
C1447 H1434 0.929 . S
C1447 C1439 1.433 . S
C1447 N1449 1.384 . S
N1448 C1444 1.427 . S
N1448 C1445 1.384 . S
N1449 C1441 1.427 . S
N1449 C1447 1.384 . S
H1450 C1456 0.930 . S
H1451 C1460 0.930 . S
H1452 C1465 0.929 . S
H1453 C1463 0.929 1_554 S
H1454 C1458 0.929 . S
H1455 C1464 0.929 . S
C1456 H1450 0.930 . S
C1456 C1457 1.367 . S
C1456 C1464 1.378 . S
C1457 C1456 1.367 . S
C1457 C1465 1.433 . S
C1458 H1454 0.929 . S
C1458 C1460 1.378 . S
C1458 C1462 1.350 . S
C1459 C1462 1.463 . S
C1459 C1464 1.350 . S
C1459 N1467 1.427 . S
C1460 H1451 0.930 . S
C1460 C1458 1.378 . S
C1460 C1461 1.367 . S
C1461 C1460 1.367 . S
C1461 C1463 1.433 . S
C1462 C1458 1.350 . S
C1462 C1459 1.463 . S
C1462 N1466 1.427 . S
C1463 H1453 0.929 1_556 S
C1463 C1461 1.433 . S
C1463 N1466 1.384 . S
C1464 H1455 0.929 . S
C1464 C1456 1.378 . S
C1464 C1459 1.350 . S
C1465 H1452 0.929 . S
C1465 C1457 1.433 . S
C1465 N1467 1.384 . S
N1466 C1462 1.427 . S
N1466 C1463 1.384 . S
N1467 C1459 1.427 . S
N1467 C1465 1.384 . S
H1468 C1474 0.930 . S
H1469 C1478 0.930 . S
H1470 C1483 0.929 . S
H1471 C1481 0.929 . S
H1472 C1476 0.929 . S
H1473 C1482 0.929 . S
C1474 H1468 0.930 . S
C1474 C1475 1.367 . S
C1474 C1482 1.378 . S
C1475 C1474 1.367 . S
C1475 C1483 1.433 . S
C1476 H1472 0.929 . S
C1476 C1478 1.378 . S
C1476 C1480 1.350 . S
C1477 C1480 1.463 . S
C1477 C1482 1.350 . S
C1477 N1485 1.427 . S
C1478 H1469 0.930 . S
C1478 C1476 1.378 . S
C1478 C1479 1.367 . S
C1479 C1478 1.367 . S
C1479 C1481 1.433 . S
C1480 C1476 1.350 . S
C1480 C1477 1.463 . S
C1480 N1484 1.427 . S
C1481 H1471 0.929 . S
C1481 C1479 1.433 . S
C1481 N1484 1.384 . S
C1482 H1473 0.929 . S
C1482 C1474 1.378 . S
C1482 C1477 1.350 . S
C1483 H1470 0.929 . S
C1483 C1475 1.433 . S
C1483 N1485 1.384 . S
N1484 C1480 1.427 . S
N1484 C1481 1.384 . S
N1485 C1477 1.427 . S
N1485 C1483 1.384 . S
H1486 C1492 0.930 . S
H1487 C1496 0.930 . S
H1488 C1501 0.929 . S
H1489 C1499 0.929 . S
H1490 C1494 0.929 . S
H1491 C1500 0.929 . S
C1492 H1486 0.930 . S
C1492 C1493 1.367 . S
C1492 C1500 1.378 . S
C1493 C1492 1.367 . S
C1493 C1501 1.433 . S
C1494 H1490 0.929 . S
C1494 C1496 1.378 . S
C1494 C1498 1.350 . S
C1495 C1498 1.463 . S
C1495 C1500 1.350 . S
C1495 N1503 1.427 . S
C1496 H1487 0.930 . S
C1496 C1494 1.378 . S
C1496 C1497 1.367 . S
C1497 C1496 1.367 . S
C1497 C1499 1.433 . S
C1498 C1494 1.350 . S
C1498 C1495 1.463 . S
C1498 N1502 1.427 . S
C1499 H1489 0.929 . S
C1499 C1497 1.433 . S
C1499 N1502 1.384 . S
C1500 H1491 0.929 . S
C1500 C1492 1.378 . S
C1500 C1495 1.350 . S
C1501 H1488 0.929 . S
C1501 C1493 1.433 . S
C1501 N1503 1.384 . S
N1502 C1498 1.427 . S
N1502 C1499 1.384 . S
N1503 C1495 1.427 . S
N1503 C1501 1.384 . S
C647 C9 1.337 . S
C651 C45 1.289 . S
C665 C88 1.571 . S
C669 C59 1.569 . S
C683 C138 1.999 . S
C687 C89 2.117 . S
C701 C8 0.814 . S
C705 C135 0.816 . S
C719 C18 0.774 . S
C723 C365 0.791 . S
C737 C299 1.348 . S
C741 C55 1.303 . S
C755 C98 1.579 . S
C759 C409 1.566 . S
C773 C128 2.001 . S
C777 C539 2.118 . S
C791 C338 1.569 . S
C795 C49 1.567 . S
C809 C488 1.989 . S
C813 C99 2.118 . S
C827 C578 0.792 . S
C831 C125 0.812 . S
C845 C19 1.348 . S
C849 C455 1.304 . S
C863 C5 0.418 . S
C867 C325 0.320 . S
C881 C489 2.107 . S
C885 C178 2.072 . S
C899 C215 0.376 . S
C903 C575 0.468 . S
C917 C458 2.072 . S
C921 C249 2.107 . S
C935 C95 0.321 . S
C939 C295 0.424 . S
C953 C379 2.111 . S
C957 C168 2.071 . S
C971 C259 2.109 . S
C975 C408 2.070 . S
C989 C218 1.569 . S
C993 C449 1.560 . S
C1007 C368 1.988 . S
C1011 C219 2.117 . S
C1025 C445 1.285 . S
C1029 C289 1.335 . S
C1043 C208 1.578 . S
C1047 C179 1.567 . S
C1061 C378 1.992 . S
C1065 C329 2.118 . S
C1079 C528 1.568 . S
C1083 C459 1.561 . S
C1097 C258 1.990 . S
C1101 C209 2.118 . S
C1115 C375 0.789 . S
C1119 C568 0.776 . S
C1133 C535 0.344 . S
C1137 C15 0.453 . S
C1151 C85 0.358 . S
C1155 C565 0.442 . S
C1169 C499 2.106 . S
C1173 C48 2.079 . S
C1187 C285 0.447 . S
C1191 C205 0.362 . S
C1205 C129 2.106 . S
C1209 C418 2.075 . S
C1223 C498 2.000 . S
C1227 C529 2.117 . S
C1241 C288 0.808 . S
C1245 C495 0.819 . S
C1259 C245 0.791 . S
C1263 C298 0.788 . S
C1277 C169 1.556 . S
C1281 C538 1.577 . S
C1295 C485 0.796 . S
C1299 C618 0.797 . S
C1313 C615 0.430 . S
C1317 C335 0.347 . S
C1331 C58 2.070 . S
C1335 C369 2.110 . S
C1349 C339 2.118 . S
C1353 C248 1.991 . S
C1367 C328 1.571 . S
C1371 C419 1.557 . S
C1385 C608 0.779 . S
C1389 C255 0.789 . S
C1403 C525 0.364 . S
C1407 C605 0.469 . S
C1421 C448 2.078 . S
C1425 C139 2.104 . S
C1439 C405 1.303 . S
C1443 C569 1.348 . S
C1457 C415 1.301 . S
C1461 C619 1.345 . S
C1475 C175 1.296 . S
C1479 C579 1.342 . S
C1493 C609 1.345 . S
C1497 C165 1.296 . S
