# Generated by pormake.
# Topology sxc, (6)-cn, num edge types: 1
# Building blocks:
#     Node 0, Type 0, BuildingBlock: KUMBUR_clean_sbu_0, # of connection points: 6
#     Node 1, Type 0, BuildingBlock: KUMBUR_clean_sbu_0, # of connection points: 6
#     Node 2, Type 0, BuildingBlock: KUMBUR_clean_sbu_0, # of connection points: 6
#     Edge 3, Type (0, 0), BuildingBlock: UVAHIK_clean_linker_0, # of connection points: 2
#     Edge 4, Type (0, 0), BuildingBlock: UVAHIK_clean_linker_0, # of connection points: 2
#     Edge 5, Type (0, 0), BuildingBlock: UVAHIK_clean_linker_0, # of connection points: 2
#     Edge 6, Type (0, 0), BuildingBlock: UVAHIK_clean_linker_0, # of connection points: 2
#     Edge 7, Type (0, 0), BuildingBlock: UVAHIK_clean_linker_0, # of connection points: 2
#     Edge 8, Type (0, 0), BuildingBlock: UVAHIK_clean_linker_0, # of connection points: 2
#     Edge 9, Type (0, 0), BuildingBlock: UVAHIK_clean_linker_0, # of connection points: 2
#     Edge 10, Type (0, 0), BuildingBlock: UVAHIK_clean_linker_0, # of connection points: 2
#     Edge 11, Type (0, 0), BuildingBlock: UVAHIK_clean_linker_0, # of connection points: 2
# Relax obj value: 0.148
# Max RMSD: 0.136
# Mean RMSD: 0.120
data_MOF--net-sxc--node1-KUMBUR_clean_sbu_0--edge1-UVAHIK_clean_linker_0
_symmetry_space_group_name_H-M    P1
_symmetry_Int_Tables_number       1
_symmetry_cell_setting            triclinic
loop_
_symmetry_equiv_pos_as_xyz
'x, y, z'
_cell_length_a     19.788763
_cell_length_b     21.972149
_cell_length_c     58.095341
_cell_angle_alpha  112.80885
_cell_angle_beta   95.510132
_cell_angle_gamma 101.10139
loop_
_atom_site_label
_atom_site_type_symbol
_atom_site_fract_x
_atom_site_fract_y
_atom_site_fract_z
_atom_type_partial_charge
Tb0 Tb 0.14519 0.15878 0.00321 0.0
C1 C 0.91699 0.19009 0.95709 0.0
C2 C 0.89517 0.2866 0.99158 0.0
C3 C 0.86492 0.27265 0.94811 0.0
C4 C 0.9197 0.22652 0.98304 0.0
C5 C 0.88819 0.21267 0.93947 0.0
C6 C 0.86853 0.30953 0.97406 0.0
C7 C 0.89902 0.11121 0.90539 0.0
N8 N 0.93825 0.13093 0.94898 0.0
C9 C 0.92471 0.08956 0.92331 0.0
C10 C 0.88151 0.17346 0.91348 0.0
Tb11 Tb 0.9724 0.0993 0.98115 0.0
N12 N 0.94426 0.20258 -0.00018 0.0
C13 C 0.94028 0.23458 0.02498 0.0
C14 C 0.89691 0.32172 0.01752 0.0
C15 C 0.91891 0.29519 0.03423 0.0
H16 H 0.93155 1.03829 0.91624 0.0
H17 H 0.91699 0.32012 0.05421 0.0
H18 H 0.84974 0.35545 0.98039 0.0
H19 H 0.89056 0.07867 0.88529 0.0
H20 H 0.94887 0.21276 0.03817 0.0
H21 H 0.18994 0.92038 0.93849 0.0
H22 H 0.879 0.36807 0.02473 0.0
H23 H 0.20042 0.24599 0.06725 0.0
H24 H 0.15383 1.02617 0.94958 0.0
H25 H 0.24761 0.22238 0.10264 0.0
H26 H 0.8431 0.29053 0.93481 0.0
H27 H 0.23771 0.88989 0.9722 0.0
H28 H 0.27322 0.92011 0.01832 0.0
H29 H 0.86004 0.1894 0.8995 0.0
H30 H 0.28514 1.00005 0.06276 0.0
N31 N 0.17269 0.05496 0.98965 0.0
C32 C 0.17064 1.01331 0.96474 0.0
C33 C 0.22002 0.93633 0.97732 0.0
C34 C 0.22559 0.98027 0.00276 0.0
C35 C 0.19276 0.95316 0.95826 0.0
C36 C 0.20112 1.04 0.00853 0.0
H37 H 0.27416 0.11136 0.09427 0.0
N38 N 0.18908 0.14515 0.03885 0.0
C39 C 0.23588 0.18303 0.08343 0.0
C40 C 0.20814 0.08556 0.03375 0.0
C41 C 0.20763 0.19556 0.06324 0.0
C42 C 0.25081 0.12041 0.07862 0.0
C43 C 0.23943 0.07176 0.05355 0.0
O44 O 0.23849 0.23244 0.02485 0.0
O45 O 0.05635 0.19793 0.9921 0.0
O46 O 1.02519 0.06295 0.94866 0.0
O47 O 0.12848 0.14547 0.96354 0.0
O48 O 0.14662 0.26672 0.00813 0.0
O49 O 0.23428 0.15759 0.98603 0.0
O50 O 0.88355 1.02855 0.95468 0.0
O51 O 0.06104 0.05953 0.9922 0.0
O52 O 0.09315 0.19151 0.03565 0.0
O53 O 0.98915 0.10941 0.02076 0.0
O54 O 0.96854 0.99246 0.97806 0.0
O55 O 0.87585 0.09205 -0.00662 0.0
C56 C 0.08479 0.26432 -0.00258 0.0
C57 C 0.34653 0.23414 0.00905 0.0
C58 C 0.43803 0.32089 0.0068 0.0
C59 C 0.36689 0.29069 0.00369 0.0
C60 C 0.48879 0.29315 0.01503 0.0
C61 C 0.39693 0.2067 0.01744 0.0
C62 C 0.46813 0.23622 0.02034 0.0
C63 C 0.07979 0.09956 0.94453 0.0
C64 C 0.27248 0.20638 0.00691 0.0
C65 C 0.26135 1.01133 0.04777 0.0
C66 C 0.2549 0.96598 0.02247 0.0
C67 C 1.03122 0.99393 0.98773 0.0
C68 C 0.77236 1.00873 0.96692 0.0
C69 C 0.7594 0.96279 0.9781 0.0
C70 C 0.69057 0.92559 0.97494 0.0
C71 C 0.63522 0.93475 0.96055 0.0
C72 C 0.71707 1.0172 0.95241 0.0
C73 C 0.64862 0.98029 0.94927 0.0
C74 C 1.03995 0.15339 0.0397 0.0
C75 C 0.84242 0.05024 0.97052 0.0
H76 H 0.32717 0.31134 -0.00278 0.0
H77 H 0.54418 0.31633 0.01787 0.0
H78 H 0.38124 0.16315 0.02192 0.0
H79 H 0.50732 0.21551 0.02697 0.0
H80 H 0.80244 0.95618 0.9892 0.0
H81 H 0.5819 0.90543 0.95754 0.0
H82 H 0.72689 0.05273 0.94364 0.0
H83 H 0.606 0.98674 0.93801 0.0
Tb84 Tb 0.22136 0.21904 0.34908 0.0
C85 C 1.00495 1.00074 0.2749 0.0
C86 C 0.92636 0.97759 0.3016 0.0
C87 C 0.87858 0.96546 0.25959 0.0
C88 C 0.99495 0.99813 0.29768 0.0
C89 C 0.94688 0.98104 0.25511 0.0
C90 C 0.86832 0.96394 0.28286 0.0
C91 C 1.02762 0.98313 0.22676 0.0
N92 N 0.0717 1.01649 0.27132 0.0
C93 C 0.08339 1.00335 0.24699 0.0
C94 C 0.95906 0.9739 0.23101 0.0
Tb95 Tb 0.15976 0.04972 0.3065 0.0
N96 N 0.05237 1.01159 0.31539 0.0
C97 C 1.04403 0.99793 0.33618 0.0
C98 C 0.91812 0.96938 0.32391 0.0
C99 C 0.97732 0.97825 0.34102 0.0
H100 H 0.1363 1.01226 0.24344 0.0
H101 H 0.97169 0.96887 0.35779 0.0
H102 H 0.81539 0.9496 0.2858 0.0
H103 H 1.03771 0.97578 0.208 0.0
H104 H 0.08773 0.99924 0.34887 0.0
H105 H 0.38465 0.27968 0.28523 0.0
H106 H 0.86646 0.95379 0.32764 0.0
H107 H 0.27411 0.21289 0.40524 0.0
H108 H 0.27997 0.22771 0.29476 0.0
H109 H 0.38232 0.23521 0.43358 0.0
H110 H 0.83341 0.95177 0.24482 0.0
H111 H 0.49493 0.32643 0.31654 0.0
H112 H 0.55976 0.34106 0.35774 0.0
H113 H 0.9159 0.95863 0.21534 0.0
H114 H 0.56018 0.32366 0.39694 0.0
N115 N 0.32115 0.25419 0.33396 0.0
C116 C 0.32321 0.25318 0.31019 0.0
C117 C 0.44693 0.30656 0.32163 0.0
C118 C 0.44725 0.30212 0.34489 0.0
C119 C 0.38483 0.28066 0.30402 0.0
C120 C 0.3831 0.27539 0.35063 0.0
H121 H 0.49534 0.28171 0.42459 0.0
N122 N 0.32217 0.23494 0.37683 0.0
C123 C 0.38387 0.24249 0.41622 0.0
C124 C 0.38367 0.26443 0.3725 0.0
C125 C 0.32185 0.22724 0.39921 0.0
C126 C 0.4473 0.26938 0.41125 0.0
C127 C 0.44784 0.28168 0.38945 0.0
O128 O 0.20425 0.27046 0.386 0.0
O129 O 0.12572 0.13414 0.33351 0.0
O130 O 0.14174 0.11395 0.28647 0.0
O131 O 0.185 0.22893 0.31392 0.0
O132 O 0.11407 0.22807 0.3381 0.0
O133 O 0.24255 0.32619 0.36474 0.0
O134 O 0.18103 0.97415 0.27505 0.0
O135 O 0.25717 0.12611 0.33041 0.0
O136 O 0.18512 0.15726 0.36926 0.0
O137 O 0.19947 0.05178 0.34403 0.0
O138 O 0.25923 0.07249 0.29327 0.0
O139 O 0.1597 0.95403 0.30717 0.0
C140 C 0.07867 0.16574 0.33092 0.0
C141 C 0.16578 0.36853 0.39266 0.0
C142 C 0.07704 0.42208 0.38199 0.0
C143 C 0.12986 0.38694 0.37543 0.0
C144 C 0.0593 0.43573 0.40615 0.0
C145 C 0.14942 0.38559 0.41694 0.0
C146 C 0.09602 0.41852 0.42354 0.0
C147 C 0.1538 0.17949 0.29133 0.0
C148 C 0.21877 0.32958 0.38526 0.0
C149 C 0.51078 0.31024 0.38414 0.0
C150 C 0.51048 0.32051 0.36192 0.0
C151 C 0.29913 0.11473 0.31455 0.0
C152 C 0.2403 0.90129 0.2829 0.0
C153 C 0.2782 0.89821 0.3038 0.0
C154 C 0.3358 0.86833 0.30132 0.0
C155 C 0.35797 0.84712 0.2777 0.0
C156 C 0.26056 0.87541 0.25918 0.0
C157 C 0.31983 0.84969 0.25675 0.0
C158 C 0.1956 0.09764 0.36655 0.0
C159 C 0.17961 0.93139 0.28527 0.0
H160 H 0.14601 0.37608 0.35732 0.0
H161 H 1.0184 0.46125 0.41211 0.0
H162 H 0.17734 0.3726 0.43066 0.0
H163 H 0.08332 0.43123 0.44229 0.0
H164 H 0.25919 0.91525 0.32149 0.0
H165 H 0.40279 0.82549 0.27492 0.0
H166 H 0.23094 0.87587 0.24258 0.0
H167 H 0.33546 0.83037 0.23843 0.0
Tb168 Tb 0.19266 0.96198 0.63225 0.0
C169 C 0.11851 0.1926 0.70368 0.0
C170 C 1.04116 0.21872 0.67589 0.0
C171 C 1.02187 0.24156 0.71868 0.0
C172 C 0.09965 0.19375 0.68042 0.0
C173 C 0.08002 0.21719 0.72319 0.0
C174 C 1.00257 0.24245 0.69509 0.0
C175 C 0.16201 0.19729 0.75112 0.0
N176 N 0.1751 0.16873 0.70742 0.0
C177 C 0.19913 0.17472 0.73149 0.0
C178 C 0.10164 0.21783 0.74688 0.0
Tb179 Tb 0.23326 0.1327 0.67333 0.0
N180 N 0.137 0.16865 0.66199 0.0
C181 C 0.117 0.16734 0.63848 0.0
C182 C 1.02217 0.21812 0.65204 0.0
C183 C 0.06017 0.19203 0.63324 0.0
H184 H 0.24841 0.16388 0.73609 0.0
H185 H 1.04487 0.18953 0.61443 0.0
H186 H 0.95755 0.26142 0.69184 0.0
H187 H 0.18095 0.20008 0.76971 0.0
H188 H 0.14068 0.1435 0.62283 0.0
H189 H 0.34348 0.88881 0.69656 0.0
H190 H 0.97758 0.2365 0.64783 0.0
H191 H 0.19143 0.91458 0.56898 0.0
H192 H 0.24077 0.91435 0.67989 0.0
H193 H 0.2673 0.87224 0.53886 0.0
H194 H 0.99182 0.26039 0.7334 0.0
H195 H 0.43768 0.86781 0.67179 0.0
H196 H 0.47979 0.85125 0.63113 0.0
H197 H 0.07337 0.23609 0.76223 0.0
H198 H 0.45817 0.84505 0.58784 0.0
N199 N 0.27952 0.92229 0.64773 0.0
C200 C 0.28297 0.91223 0.66964 0.0
C201 C 0.39345 0.88233 0.66477 0.0
C202 C 0.38613 0.88456 0.64101 0.0
C203 C 0.3407 0.89462 0.67885 0.0
C204 C 0.32769 0.90443 0.63283 0.0
H205 H 0.37846 0.85096 0.55317 0.0
N206 N 0.25897 0.92002 0.60134 0.0
C207 C 0.28243 0.88125 0.55854 0.0
C208 C 0.31668 0.90266 0.60878 0.0
C209 C 0.23948 0.90546 0.57596 0.0
C210 C 0.34507 0.86951 0.56669 0.0
C211 C 0.36223 0.87872 0.59189 0.0
O212 O 0.12902 0.88598 0.59901 0.0
O213 O 0.1437 1.04224 0.65475 0.0
O214 O 0.24022 0.07589 0.69663 0.0
O215 O 0.16405 0.9736 0.66981 0.0
O216 O 0.09712 0.98437 0.61778 0.0
O217 O 0.14029 0.86986 0.63315 0.0
O218 O 0.28353 0.2231 0.70517 0.0
O219 O 0.28128 0.05229 0.65023 0.0
O220 O 0.21607 1.01711 0.60849 0.0
O221 O 0.24873 0.13214 0.63589 0.0
O222 O 0.33161 0.11146 0.68642 0.0
O223 O 0.29294 0.21411 0.66761 0.0
C224 C 0.08805 1.02967 0.63855 0.0
C225 C 1.02776 0.82954 0.60672 0.0
C226 C 0.92316 0.78184 0.61864 0.0
C227 C 0.9962 0.79932 0.6214 0.0
C228 C 0.8815 0.79707 0.60162 0.0
C229 C 0.98538 0.84315 0.58925 0.0
C230 C 0.91273 0.82775 0.58703 0.0
C231 C 0.19588 1.01904 0.69304 0.0
C232 C 0.10462 0.8482 0.61017 0.0
C233 C 0.42207 0.86226 0.60038 0.0
C234 C 0.43427 0.86564 0.62499 0.0
C235 C 0.33844 0.06437 0.66565 0.0
C236 C 0.39458 0.26751 0.69923 0.0
C237 C 0.43404 0.29866 0.6864 0.0
C238 C 0.50729 0.31463 0.69189 0.0
C239 C 0.54127 0.29685 0.70983 0.0
C240 C 0.42899 0.25131 0.71767 0.0
C241 C 0.50204 0.26524 0.72265 0.0
C242 C 0.23854 0.08183 0.61293 0.0
C243 C 0.31794 0.24853 0.69183 0.0
H244 H 1.02858 0.78877 0.63485 0.0
H245 H 0.82483 0.78305 0.59891 0.0
H246 H 1.00814 0.86619 0.57742 0.0
H247 H 0.88054 0.83864 0.57369 0.0
H248 H 0.40745 0.31059 0.67206 0.0
H249 H 0.59797 0.3094 0.71455 0.0
H250 H 0.39971 0.22696 0.72794 0.0
H251 H 0.52828 0.2522 0.73666 0.0
C252 C 0.09509 0.40347 0.01652 0.0
C253 C 0.06775 0.33583 -0.00409 0.0
C254 C 0.09203 0.47003 0.01581 0.0
C255 C 1.0236 0.56757 0.97289 0.0
H256 H 0.12071 0.73643 0.02964 0.0
C257 C 1.01703 0.8545 0.9695 0.0
C258 C 1.04778 0.9225 0.98949 0.0
C259 C 1.02019 0.78819 0.97038 0.0
C260 C 0.09207 0.69136 0.01304 0.0
H261 H 1.02186 0.30083 0.95614 0.0
H262 H 1.01214 0.41036 0.95521 0.0
H263 H 0.12354 0.62569 0.03047 0.0
H264 H 0.10137 0.95906 0.02854 0.0
H265 H 0.11 0.84943 0.02975 0.0
H266 H 0.99194 0.63315 0.95549 0.0
C267 C 1.0355 0.41245 0.9732 0.0
C268 C 0.09375 0.62407 0.01354 0.0
C269 C 1.03958 0.34567 0.97388 0.0
C270 C 0.07971 0.9135 0.01123 0.0
C271 C 0.08358 0.84682 0.01209 0.0
C272 C 1.0218 0.63483 0.97241 0.0
C273 C 0.06191 0.48004 -0.00587 0.0
C274 C 0.05972 0.55676 -0.00651 0.0
C275 C 0.05372 0.77878 0.9917 0.0
C276 C 0.05593 0.70215 0.99243 0.0
H277 H 0.12121 0.40576 0.03419 0.0
H278 H 0.11512 0.51526 0.03312 0.0
H279 H 0.99494 0.52249 0.9563 0.0
H280 H 0.98815 0.85174 0.95219 0.0
H281 H 0.99427 0.74265 0.95353 0.0
C282 C 0.41737 0.12334 0.29927 0.0
C283 C 0.38009 0.12275 0.31885 0.0
C284 C 0.49062 0.1266 0.3013 0.0
C285 C 0.66109 0.15273 0.34771 0.0
H286 H 0.73479 0.09266 0.28555 0.0
C287 C 0.96378 0.13938 0.34792 0.0
C288 C 0.99767 0.14779 0.32851 0.0
C289 C 0.89006 0.13455 0.34733 0.0
C290 C 0.71659 0.11076 0.3034 0.0
H291 H 0.39551 0.12158 0.35603 0.0
H292 H 0.52185 0.1274 0.35979 0.0
H293 H 0.61089 0.08827 0.28375 0.0
H294 H 0.97673 0.16225 0.29407 0.0
H295 H 0.85103 0.15203 0.29247 0.0
H296 H 0.76763 0.17409 0.36723 0.0
C297 C 0.49471 0.12718 0.34268 0.0
C298 C 0.64349 0.10835 0.30237 0.0
C299 C 0.42087 0.12405 0.3406 0.0
C300 C 0.95376 0.15276 0.3089 0.0
C301 C 0.88025 0.1471 0.3081 0.0
C302 C 0.73447 0.15481 0.34872 0.0
C303 C 0.53232 0.12811 0.32296 0.0
C304 C 0.61278 0.12976 0.32446 0.0
C305 C 0.84556 0.13831 0.32735 0.0
C306 C 0.76502 0.13439 0.32657 0.0
H307 H 0.38947 0.12163 0.28196 0.0
H308 H 0.51439 0.12843 0.28552 0.0
H309 H 0.64273 0.17057 0.36553 0.0
H310 H 0.99474 0.13802 0.36404 0.0
H311 H 0.86804 0.12781 0.36277 0.0
C312 C 0.83055 0.75427 0.64181 0.0
C313 C 0.89056 0.74184 0.63168 0.0
C314 C 0.79399 0.70946 0.65055 0.0
C315 C 0.75962 0.53001 0.63654 0.0
H316 H 0.66875 0.57886 0.69502 0.0
C317 C 0.60932 0.34131 0.67217 0.0
C318 C 0.54748 0.35526 0.68049 0.0
C319 C 0.65103 0.38546 0.66429 0.0
C320 C 0.69345 0.56479 0.6785 0.0
H321 H 0.96241 0.67597 0.62429 0.0
H322 H 0.89952 0.59907 0.64023 0.0
H323 H 0.74928 0.66789 0.68886 0.0
H324 H 0.47838 0.42353 0.68575 0.0
H325 H 0.55043 0.49936 0.67149 0.0
H326 H 0.70335 0.42685 0.62614 0.0
C327 C 0.88012 0.64253 0.64094 0.0
C328 C 0.73953 0.61548 0.67509 0.0
C329 C 0.91637 0.68695 0.6321 0.0
C330 C 0.52572 0.41138 0.67935 0.0
C331 C 0.5671 0.45512 0.67143 0.0
C332 C 0.7136 0.47924 0.63998 0.0
C333 C 0.8173 0.65199 0.64926 0.0
C334 C 0.77258 0.59844 0.65402 0.0
C335 C 0.63117 0.44385 0.6648 0.0
C336 C 0.67984 0.49653 0.66086 0.0
H337 H 0.81054 0.79706 0.64209 0.0
H338 H 0.74552 0.71767 0.65694 0.0
H339 H 0.78366 0.51598 0.61986 0.0
H340 H 0.6263 0.29754 0.67245 0.0
H341 H 0.70034 0.37591 0.65909 0.0
C342 C 0.96008 1.02377 0.62174 0.0
C343 C 1.01269 1.03726 0.64271 0.0
C344 C 0.88923 1.02629 0.62397 0.0
C345 C 0.76648 0.08178 0.67273 0.0
H346 H 0.61888 0.98215 0.61328 0.0
C347 C 0.46506 0.06517 0.68136 0.0
C348 C 0.41296 0.05554 0.66083 0.0
C349 C 0.53575 0.06263 0.67892 0.0
C350 C 0.65866 1.01131 0.63027 0.0
H351 H 1.02587 0.06142 0.68288 0.0
H352 H 0.90463 0.06715 0.68709 0.0
H353 H 0.7401 0.97816 0.61007 0.0
H354 H 0.40052 1.0388 0.62128 0.0
H355 H 0.52186 1.03246 0.61668 0.0
H356 H 0.68487 0.11464 0.69295 0.0
C357 C 0.91815 0.0555 0.66852 0.0
C358 C 0.73005 1.00909 0.62841 0.0
C359 C 0.98926 0.05239 0.66617 0.0
C360 C 0.4367 0.04431 0.63758 0.0
C361 C 0.50775 1.04106 0.63501 0.0
C362 C 0.69509 0.08384 0.6746 0.0
C363 C 0.86527 1.0422 0.64742 0.0
C364 C 0.78682 0.04431 0.64957 0.0
C365 C 0.56004 0.05057 0.6557 0.0
C366 C 0.6384 0.04865 0.65345 0.0
H367 H 0.9738 1.01093 0.60312 0.0
H368 H 0.8533 1.01619 0.60693 0.0
H369 H 0.80611 0.1111 0.68975 0.0
H370 H 0.45105 0.07506 0.69981 0.0
H371 H 0.57139 0.0697 0.69558 0.0
C372 C 0.71265 0.82222 0.97873 0.0
C373 C 0.67637 0.87361 0.98499 0.0
C374 C 0.69 0.76542 0.98375 0.0
C375 C 0.57872 0.6926 0.01808 0.0
H376 H 0.54095 0.52662 0.95608 0.0
C377 C 0.42583 0.43616 0.01217 0.0
C378 C 0.45873 0.38272 0.00232 0.0
C379 C 0.44815 0.49638 0.00928 0.0
C380 C 0.55164 0.57251 0.97354 0.0
H381 H 0.59324 0.91029 0.00351 0.0
H382 H 0.55369 0.81068 0.01249 0.0
H383 H 0.59805 0.6353 0.95603 0.0
H384 H 0.53729 0.34813 0.98047 0.0
H385 H 0.57744 0.45412 0.97579 0.0
H386 H 0.53286 0.62969 0.03566 0.0
C387 C 0.59898 0.81402 0.00353 0.0
C388 C 0.58456 0.63441 0.97356 0.0
C389 C 0.62119 0.87053 -0.00173 0.0
C390 C 0.51216 0.38923 0.98862 0.0
C391 C 0.53439 0.4494 0.98569 0.0
C392 C 0.54608 0.63053 0.0181 0.0
C393 C 0.63132 0.75985 -0.00473 0.0
C394 C 0.59886 0.69471 -0.00413 0.0
C395 C 0.50362 0.50395 -0.00351 0.0
C396 C 0.53285 0.56998 -0.00413 0.0
H397 H 0.75545 0.8238 0.96848 0.0
H398 H 0.71615 0.72437 0.97756 0.0
H399 H 0.58915 0.73872 0.03544 0.0
H400 H 0.38433 0.43225 0.02279 0.0
H401 H 0.42297 0.53745 0.01743 0.0
C402 C 1.03455 0.51793 0.37707 0.0
C403 C 0.05185 0.45495 0.36571 0.0
C404 C 1.04889 0.56593 0.36693 0.0
C405 C 0.15273 0.60374 0.32123 0.0
H406 H 0.2619 0.75043 0.38424 0.0
C407 C 0.37461 0.7802 0.31255 0.0
C408 C 0.35923 0.84447 0.32086 0.0
C409 C 0.34898 0.7356 0.32317 0.0
C410 C 0.23193 0.70984 0.36654 0.0
H411 H 0.07009 0.38427 0.32975 0.0
H412 H 0.10523 0.47039 0.31422 0.0
H413 H 0.1641 0.66735 0.38562 0.0
H414 H 0.33486 0.9222 0.35353 0.0
H415 H 0.28349 0.84275 0.37041 0.0
H416 H 0.22203 0.64596 0.30229 0.0
C417 C 0.08281 0.48425 0.33125 0.0
C418 C 0.17478 0.66273 0.36717 0.0
C419 C 0.06441 0.43502 0.34064 0.0
C420 C 0.33989 0.87027 0.34489 0.0
C421 C 0.3113 0.82492 0.35489 0.0
C422 C 0.21021 0.65064 0.32064 0.0
C423 C 0.08322 0.55231 0.34612 0.0
C424 C 0.13484 0.60857 0.34455 0.0
C425 C 0.3084 0.75536 0.34199 0.0
C426 C 0.25106 0.7035 0.34332 0.0
H427 H 1.01942 0.53476 0.39545 0.0
H428 H 1.0431 0.61681 0.37762 0.0
H429 H 0.12304 0.56324 0.30347 0.0
H430 H 0.39513 0.75928 0.29537 0.0
H431 H 0.35182 0.68302 0.31412 0.0
C432 C 0.06795 0.15463 0.25246 0.0
C433 C 0.12989 0.19611 0.26979 0.0
C434 C 0.05175 0.15742 0.22897 0.0
C435 C 0.13914 0.21823 0.18449 0.0
H436 H 0.95004 0.15158 0.14501 0.0
C437 C 0.07088 0.22675 0.08669 0.0
C438 C 1.03606 0.16394 0.06646 0.0
C439 C 0.07752 0.23435 0.11193 0.0
C440 C 1.00316 0.17003 0.15578 0.0
H441 H 0.21748 0.28213 0.27775 0.0
H442 H 0.18838 0.28933 0.23724 0.0
H443 H 0.96931 0.16509 0.189 0.0
H444 H 0.97668 0.06108 0.05718 0.0
H445 H 0.98585 0.07525 0.10159 0.0
H446 H 0.17214 0.22514 0.15124 0.0
C447 C 0.15438 0.25063 0.24094 0.0
C448 C 1.01454 0.17756 0.18109 0.0
C449 C 0.17096 0.24698 0.26442 0.0
C450 C 1.00374 0.11016 0.07228 0.0
C451 C 1.00931 0.11818 0.09769 0.0
C452 C 0.12751 0.21203 0.15938 0.0
C453 C 0.09599 0.20388 0.22233 0.0
C454 C 0.0829 0.20103 0.19586 0.0
C455 C 1.04788 0.1799 0.11776 0.0
C456 C 0.05948 0.18726 0.14463 0.0
H457 H 1.0327 0.11822 0.25679 0.0
H458 H 1.00593 0.12069 0.21569 0.0
H459 H 0.19272 0.23492 0.1947 0.0
H460 H 0.09486 0.26979 0.08296 0.0
H461 H 0.10646 0.28286 0.12695 0.0
C462 C 0.23765 1.04159 0.39427 0.0
C463 C 0.19666 0.08257 0.3895 0.0
C464 C 0.24561 1.03792 0.41808 0.0
C465 C 0.16745 0.07955 0.47728 0.0
H466 H 0.35015 0.08495 0.50987 0.0
C467 C 0.22352 0.14212 0.58416 0.0
C468 C 0.2532 0.09636 0.59061 0.0
C469 C 0.22303 0.14199 0.55994 0.0
C470 C 0.29871 0.08322 0.50099 0.0
H471 H 0.12942 0.14904 0.40554 0.0
H472 H 0.14379 0.14367 0.44635 0.0
H473 H 0.33239 0.07399 0.46597 0.0
H474 H 0.31674 1.02413 0.57852 0.0
H475 H 0.31491 1.02257 0.53617 0.0
H476 H 0.13398 0.08998 0.51228 0.0
C477 C 0.16949 0.11355 0.43205 0.0
C478 C 0.28833 0.07641 0.4757 0.0
C479 C 0.16158 0.11705 0.40852 0.0
C480 C 0.28962 0.05669 0.57347 0.0
C481 C 0.28965 0.05679 0.54934 0.0
C482 C 0.178 0.08709 0.50251 0.0
C483 C 0.21224 0.07473 0.43746 0.0
C484 C 0.22266 0.07539 0.46356 0.0
C485 C 0.25361 0.09727 0.54183 0.0
C486 C 0.24387 0.08981 0.51487 0.0
H487 H 0.26568 1.01472 0.38007 0.0
H488 H 0.27837 1.00681 0.42138 0.0
H489 H 0.11557 0.07712 0.46855 0.0
H490 H 0.19759 0.17573 0.59713 0.0
H491 H 0.1969 0.17567 0.55513 0.0
C492 C 0.11013 1.00927 0.72142 0.0
C493 C 0.17802 1.01023 0.71607 0.0
C494 C 0.09653 1.01546 0.74546 0.0
C495 C 0.15168 0.98568 0.80112 0.0
H496 H 0.08221 0.14001 0.84082 0.0
C497 C 0.06211 1.02181 0.89777 0.0
C498 C 0.08943 0.08656 0.91795 0.0
C499 C 0.07111 1.01039 0.87282 0.0
C500 C 0.10149 0.09658 0.82998 0.0
H501 H 0.28439 1.0167 0.73147 0.0
H502 H 0.25956 1.02238 0.77281 0.0
H503 H 0.09947 0.12107 0.79749 0.0
H504 H 0.14679 0.1903 0.92753 0.0
H505 H 0.16098 0.17079 0.88398 0.0
H506 H 0.15269 0.96047 0.83339 0.0
C507 C 0.21718 1.01831 0.75861 0.0
C508 C 0.11096 0.08553 0.8051 0.0
C509 C 0.23131 1.01462 0.73491 0.0
C510 C 0.12542 0.13969 0.91248 0.0
C511 C 0.13313 0.12864 0.88747 0.0
C512 C 0.14058 0.99577 0.82576 0.0
C513 C 0.15002 1.02044 0.76442 0.0
C514 C 0.13677 1.03026 0.79044 0.0
C515 C 0.10642 0.06374 0.86728 0.0
C516 C 0.11597 0.05174 0.84065 0.0
H517 H 0.06839 1.00731 0.70749 0.0
H518 H 1.04429 1.01704 0.74935 0.0
H519 H 0.1716 0.94268 0.79032 0.0
H520 H 1.03427 0.97974 0.9013 0.0
H521 H 1.04954 0.95988 0.85774 0.0
loop_
_geom_bond_atom_site_label_1
_geom_bond_atom_site_label_2
_geom_bond_distance
_geom_bond_site_symmetry_2
_ccdc_geom_bond_type
Tb0 N31 2.660 1_554 S
Tb0 N38 2.600 . S
Tb0 O44 2.546 . S
Tb0 O45 2.608 1_454 S
Tb0 O47 2.320 1_554 S
Tb0 O48 2.552 . S
Tb0 O49 2.413 1_554 S
Tb0 O51 2.362 . S
Tb0 O52 2.421 . S
Tb0 C64 2.833 . S
C1 C4 1.432 . S
C1 C5 1.414 . S
C1 N8 1.359 . S
C2 C4 1.417 1_554 S
C2 C6 1.432 1_554 S
C2 C14 1.410 . S
C3 C5 1.444 . S
C3 C6 1.317 . S
C3 H26 0.929 . S
C4 C1 1.432 . S
C4 C2 1.417 1_556 S
C4 N12 1.360 1_556 S
C5 C1 1.414 . S
C5 C3 1.444 . S
C5 C10 1.385 . S
C6 C2 1.432 1_556 S
C6 C3 1.317 . S
C6 H18 0.930 . S
C7 C9 1.392 . S
C7 C10 1.370 . S
C7 H19 0.931 1_545 S
N8 C1 1.359 . S
N8 C9 1.327 . S
N8 Tb11 2.600 . S
C9 C7 1.392 . S
C9 N8 1.327 . S
C9 H16 0.930 1_545 S
C10 C5 1.385 . S
C10 C7 1.370 . S
C10 H29 0.930 . S
Tb11 N8 2.600 . S
Tb11 N12 2.660 1_556 S
Tb11 O45 2.361 . S
Tb11 O46 2.421 . S
Tb11 O50 2.546 1_545 S
Tb11 O51 2.610 1_656 S
Tb11 O53 2.320 1_556 S
Tb11 O54 2.552 1_545 S
Tb11 O55 2.413 1_546 S
Tb11 C75 2.833 1_545 S
N12 C4 1.360 1_554 S
N12 Tb11 2.660 1_554 S
N12 C13 1.305 . S
C13 N12 1.305 . S
C13 C15 1.407 . S
C13 H20 0.930 . S
C14 C2 1.410 . S
C14 C15 1.345 . S
C14 H22 0.930 . S
C15 C13 1.407 . S
C15 C14 1.345 . S
C15 H17 0.930 . S
H16 C9 0.930 1_565 S
H17 C15 0.930 . S
H18 C6 0.930 . S
H19 C7 0.931 1_565 S
H20 C13 0.930 . S
H21 C35 0.930 . S
H22 C14 0.930 . S
H23 C41 0.930 . S
H24 C32 0.930 . S
H25 C39 0.931 . S
H26 C3 0.929 . S
H27 C33 0.930 . S
H28 C66 0.930 . S
H29 C10 0.930 . S
H30 C65 0.929 . S
N31 Tb0 2.660 1_556 S
N31 C32 1.305 . S
N31 C36 1.360 1_556 S
C32 H24 0.930 . S
C32 N31 1.305 . S
C32 C35 1.407 1_545 S
C33 H27 0.930 . S
C33 C34 1.410 . S
C33 C35 1.345 . S
C34 C33 1.410 . S
C34 C36 1.417 1_566 S
C34 C66 1.432 1_556 S
C35 H21 0.930 . S
C35 C32 1.407 1_565 S
C35 C33 1.345 . S
C36 N31 1.360 1_554 S
C36 C34 1.417 1_544 S
C36 C40 1.432 . S
H37 C42 0.930 . S
N38 Tb0 2.600 . S
N38 C40 1.359 . S
N38 C41 1.327 . S
C39 H25 0.931 . S
C39 C41 1.392 . S
C39 C42 1.370 . S
C40 C36 1.432 . S
C40 N38 1.359 . S
C40 C43 1.414 . S
C41 H23 0.930 . S
C41 N38 1.327 . S
C41 C39 1.392 . S
C42 H37 0.930 . S
C42 C39 1.370 . S
C42 C43 1.385 . S
C43 C40 1.414 . S
C43 C42 1.385 . S
C43 C65 1.444 . S
O44 Tb0 2.546 . S
O44 C64 1.251 . S
O45 Tb0 2.608 1_656 S
O45 Tb11 2.361 . S
O45 C56 1.284 1_656 S
O46 Tb11 2.421 . S
O46 C63 1.262 1_655 S
O47 Tb0 2.320 1_556 S
O47 C63 1.260 . S
O48 Tb0 2.552 . S
O48 C56 1.243 . S
O49 Tb0 2.413 1_556 S
O49 C64 1.256 1_556 S
O50 Tb11 2.546 1_565 S
O50 C75 1.251 . S
O51 Tb0 2.362 . S
O51 Tb11 2.610 1_454 S
O51 C67 1.283 1_444 S
O52 Tb0 2.421 . S
O52 C74 1.262 1_455 S
O53 Tb11 2.320 1_554 S
O53 C74 1.260 . S
O54 Tb11 2.552 1_565 S
O54 C67 1.243 . S
O55 Tb11 2.413 1_564 S
O55 C75 1.256 1_554 S
C56 O45 1.284 1_454 S
C56 O48 1.243 . S
C57 C59 1.382 . S
C57 C61 1.393 . S
C57 C64 1.500 . S
C58 C59 1.400 . S
C58 C60 1.384 . S
C59 C57 1.382 . S
C59 C58 1.400 . S
C59 H76 0.930 1_554 S
C60 C58 1.384 . S
C60 C62 1.392 . S
C60 H77 0.931 . S
C61 C57 1.393 . S
C61 C62 1.401 . S
C61 H78 0.930 . S
C62 C60 1.392 . S
C62 C61 1.401 . S
C62 H79 0.930 . S
C63 O46 1.262 1_455 S
C63 O47 1.260 . S
C64 Tb0 2.833 . S
C64 O44 1.251 . S
C64 O49 1.256 1_554 S
C64 C57 1.500 . S
C65 H30 0.929 . S
C65 C43 1.444 . S
C65 C66 1.317 1_545 S
C66 H28 0.930 . S
C66 C34 1.432 1_554 S
C66 C65 1.317 1_565 S
C67 O51 1.283 1_666 S
C67 O54 1.243 . S
C68 C69 1.382 . S
C68 C72 1.393 . S
C68 C75 1.500 . S
C69 C68 1.382 . S
C69 C70 1.400 . S
C69 H80 0.930 1_556 S
C70 C69 1.400 . S
C70 C71 1.384 . S
C71 C70 1.384 . S
C71 C73 1.392 . S
C71 H81 0.931 . S
C72 C68 1.393 . S
C72 C73 1.401 . S
C72 H82 0.930 . S
C73 C71 1.392 . S
C73 C72 1.401 . S
C73 H83 0.930 . S
C74 O52 1.262 1_655 S
C74 O53 1.260 . S
C75 Tb11 2.833 1_565 S
C75 O50 1.251 . S
C75 O55 1.256 1_556 S
C75 C68 1.500 . S
H76 C59 0.930 1_556 S
H77 C60 0.931 . S
H78 C61 0.930 . S
H79 C62 0.930 . S
H80 C69 0.930 1_554 S
H81 C71 0.931 . S
H82 C72 0.930 . S
H83 C73 0.930 . S
Tb84 N115 2.660 . S
Tb84 N122 2.600 . S
Tb84 O128 2.546 . S
Tb84 O129 2.610 . S
Tb84 O131 2.320 . S
Tb84 O132 2.552 . S
Tb84 O133 2.413 . S
Tb84 O135 2.362 . S
Tb84 O136 2.421 . S
Tb84 C148 2.833 . S
C85 C88 1.432 . S
C85 C89 1.414 . S
C85 N92 1.359 1_655 S
C86 C88 1.417 . S
C86 C90 1.432 . S
C86 C98 1.410 . S
C87 C89 1.444 . S
C87 C90 1.317 . S
C87 H110 0.929 . S
C88 C85 1.432 . S
C88 C86 1.417 . S
C88 N96 1.360 . S
C89 C85 1.414 . S
C89 C87 1.444 . S
C89 C94 1.385 . S
C90 C86 1.432 . S
C90 C87 1.317 . S
C90 H102 0.930 . S
C91 C93 1.392 1_655 S
C91 C94 1.370 . S
C91 H103 0.931 . S
N92 C85 1.359 1_455 S
N92 C93 1.327 . S
N92 Tb95 2.600 1_565 S
C93 C91 1.392 1_455 S
C93 N92 1.327 . S
C93 H100 0.930 . S
C94 C89 1.385 . S
C94 C91 1.370 . S
C94 H113 0.930 . S
Tb95 N92 2.600 1_545 S
Tb95 N96 2.660 1_445 S
Tb95 O129 2.362 . S
Tb95 O130 2.421 . S
Tb95 O134 2.546 1_545 S
Tb95 O135 2.610 . S
Tb95 O137 2.320 . S
Tb95 O138 2.552 . S
Tb95 O139 2.413 1_545 S
Tb95 C159 2.833 1_545 S
N96 C88 1.360 . S
N96 Tb95 2.660 1_665 S
N96 C97 1.305 . S
C97 N96 1.305 . S
C97 C99 1.407 . S
C97 H104 0.930 1_665 S
C98 C86 1.410 . S
C98 C99 1.345 . S
C98 H106 0.930 . S
C99 C97 1.407 . S
C99 C98 1.345 . S
C99 H101 0.930 . S
H100 C93 0.930 . S
H101 C99 0.930 . S
H102 C90 0.930 . S
H103 C91 0.931 . S
H104 C97 0.930 1_445 S
H105 C119 0.930 . S
H106 C98 0.930 . S
H107 C125 0.930 . S
H108 C116 0.930 . S
H109 C123 0.931 . S
H110 C87 0.929 . S
H111 C117 0.930 . S
H112 C150 0.930 . S
H113 C94 0.930 . S
H114 C149 0.929 . S
N115 Tb84 2.660 . S
N115 C116 1.305 . S
N115 C120 1.360 . S
C116 H108 0.930 . S
C116 N115 1.305 . S
C116 C119 1.407 . S
C117 H111 0.930 . S
C117 C118 1.410 . S
C117 C119 1.345 . S
C118 C117 1.410 . S
C118 C120 1.417 . S
C118 C150 1.432 . S
C119 H105 0.930 . S
C119 C116 1.407 . S
C119 C117 1.345 . S
C120 N115 1.360 . S
C120 C118 1.417 . S
C120 C124 1.432 . S
H121 C126 0.930 . S
N122 Tb84 2.600 . S
N122 C124 1.359 . S
N122 C125 1.327 . S
C123 H109 0.931 . S
C123 C125 1.392 . S
C123 C126 1.370 . S
C124 C120 1.432 . S
C124 N122 1.359 . S
C124 C127 1.414 . S
C125 H107 0.930 . S
C125 N122 1.327 . S
C125 C123 1.392 . S
C126 H121 0.930 . S
C126 C123 1.370 . S
C126 C127 1.385 . S
C127 C124 1.414 . S
C127 C126 1.385 . S
C127 C149 1.444 . S
O128 Tb84 2.546 . S
O128 C148 1.251 . S
O129 Tb84 2.610 . S
O129 Tb95 2.362 . S
O129 C140 1.283 . S
O130 Tb95 2.421 . S
O130 C147 1.262 . S
O131 Tb84 2.320 . S
O131 C147 1.260 . S
O132 Tb84 2.552 . S
O132 C140 1.243 . S
O133 Tb84 2.413 . S
O133 C148 1.256 . S
O134 Tb95 2.546 1_565 S
O134 C159 1.251 . S
O135 Tb84 2.362 . S
O135 Tb95 2.610 . S
O135 C151 1.283 . S
O136 Tb84 2.421 . S
O136 C158 1.262 . S
O137 Tb95 2.320 . S
O137 C158 1.260 . S
O138 Tb95 2.552 . S
O138 C151 1.243 . S
O139 Tb95 2.413 1_565 S
O139 C159 1.256 . S
C140 O129 1.283 . S
C140 O132 1.243 . S
C141 C143 1.382 . S
C141 C145 1.393 . S
C141 C148 1.500 . S
C142 C143 1.400 . S
C142 C144 1.384 . S
C143 C141 1.382 . S
C143 C142 1.400 . S
C143 H160 0.930 . S
C144 C142 1.384 . S
C144 C146 1.392 . S
C144 H161 0.931 . S
C145 C141 1.393 . S
C145 C146 1.401 . S
C145 H162 0.930 . S
C146 C144 1.392 . S
C146 C145 1.401 . S
C146 H163 0.930 . S
C147 O130 1.262 . S
C147 O131 1.260 . S
C148 Tb84 2.833 . S
C148 O128 1.251 . S
C148 O133 1.256 . S
C148 C141 1.500 . S
C149 H114 0.929 . S
C149 C127 1.444 . S
C149 C150 1.317 . S
C150 H112 0.930 . S
C150 C118 1.432 . S
C150 C149 1.317 . S
C151 O135 1.283 . S
C151 O138 1.243 . S
C152 C153 1.382 . S
C152 C156 1.393 . S
C152 C159 1.500 . S
C153 C152 1.382 . S
C153 C154 1.400 . S
C153 H164 0.930 . S
C154 C153 1.400 . S
C154 C155 1.384 . S
C155 C154 1.384 . S
C155 C157 1.392 . S
C155 H165 0.931 . S
C156 C152 1.393 . S
C156 C157 1.401 . S
C156 H166 0.930 . S
C157 C155 1.392 . S
C157 C156 1.401 . S
C157 H167 0.930 . S
C158 O136 1.262 . S
C158 O137 1.260 . S
C159 Tb95 2.833 1_565 S
C159 O134 1.251 . S
C159 O139 1.256 . S
C159 C152 1.500 . S
H160 C143 0.930 . S
H161 C144 0.931 . S
H162 C145 0.930 . S
H163 C146 0.930 . S
H164 C153 0.930 . S
H165 C155 0.931 . S
H166 C156 0.930 . S
H167 C157 0.930 . S
Tb168 N199 2.660 . S
Tb168 N206 2.600 . S
Tb168 O212 2.546 . S
Tb168 O213 2.610 1_565 S
Tb168 O215 2.320 . S
Tb168 O216 2.552 . S
Tb168 O217 2.413 . S
Tb168 O219 2.362 . S
Tb168 O220 2.421 . S
Tb168 C232 2.833 . S
C169 C172 1.432 . S
C169 C173 1.414 . S
C169 N176 1.359 . S
C170 C172 1.417 . S
C170 C174 1.432 . S
C170 C182 1.410 . S
C171 C173 1.444 . S
C171 C174 1.317 . S
C171 H194 0.929 . S
C172 C169 1.432 . S
C172 C170 1.417 . S
C172 N180 1.360 . S
C173 C169 1.414 . S
C173 C171 1.444 . S
C173 C178 1.385 . S
C174 C170 1.432 . S
C174 C171 1.317 . S
C174 H186 0.930 . S
C175 C177 1.392 . S
C175 C178 1.370 . S
C175 H187 0.931 . S
N176 C169 1.359 . S
N176 C177 1.327 . S
N176 Tb179 2.600 . S
C177 C175 1.392 . S
C177 N176 1.327 . S
C177 H184 0.930 . S
C178 C173 1.385 . S
C178 C175 1.370 . S
C178 H197 0.930 . S
Tb179 N176 2.600 . S
Tb179 N180 2.660 . S
Tb179 O213 2.362 . S
Tb179 O214 2.421 . S
Tb179 O218 2.546 . S
Tb179 O219 2.610 1_545 S
Tb179 O221 2.320 . S
Tb179 O222 2.552 . S
Tb179 O223 2.413 . S
Tb179 C243 2.833 . S
N180 C172 1.360 . S
N180 Tb179 2.660 . S
N180 C181 1.305 . S
C181 N180 1.305 . S
C181 C183 1.407 . S
C181 H188 0.930 . S
C182 C170 1.410 . S
C182 C183 1.345 . S
C182 H190 0.930 1_455 S
C183 C181 1.407 . S
C183 C182 1.345 . S
C183 H185 0.930 . S
H184 C177 0.930 . S
H185 C183 0.930 . S
H186 C174 0.930 . S
H187 C175 0.931 . S
H188 C181 0.930 . S
H189 C203 0.930 . S
H190 C182 0.930 1_655 S
H191 C209 0.930 . S
H192 C200 0.930 . S
H193 C207 0.931 . S
H194 C171 0.929 . S
H195 C201 0.930 . S
H196 C234 0.930 . S
H197 C178 0.930 . S
H198 C233 0.929 . S
N199 Tb168 2.660 . S
N199 C200 1.305 . S
N199 C204 1.360 . S
C200 H192 0.930 . S
C200 N199 1.305 . S
C200 C203 1.407 . S
C201 H195 0.930 . S
C201 C202 1.410 . S
C201 C203 1.345 . S
C202 C201 1.410 . S
C202 C204 1.417 . S
C202 C234 1.432 . S
C203 H189 0.930 . S
C203 C200 1.407 . S
C203 C201 1.345 . S
C204 N199 1.360 . S
C204 C202 1.417 . S
C204 C208 1.432 . S
H205 C210 0.930 . S
N206 Tb168 2.600 . S
N206 C208 1.359 . S
N206 C209 1.327 . S
C207 H193 0.931 . S
C207 C209 1.392 . S
C207 C210 1.370 . S
C208 C204 1.432 . S
C208 N206 1.359 . S
C208 C211 1.414 . S
C209 H191 0.930 . S
C209 N206 1.327 . S
C209 C207 1.392 . S
C210 H205 0.930 . S
C210 C207 1.370 . S
C210 C211 1.385 . S
C211 C208 1.414 . S
C211 C210 1.385 . S
C211 C233 1.444 . S
O212 Tb168 2.546 . S
O212 C232 1.251 . S
O213 Tb168 2.610 1_545 S
O213 Tb179 2.362 . S
O213 C224 1.283 1_545 S
O214 Tb179 2.421 . S
O214 C231 1.262 . S
O215 Tb168 2.320 . S
O215 C231 1.260 1_565 S
O216 Tb168 2.552 . S
O216 C224 1.243 . S
O217 Tb168 2.413 . S
O217 C232 1.256 . S
O218 Tb179 2.546 . S
O218 C243 1.251 . S
O219 Tb168 2.362 . S
O219 Tb179 2.610 1_565 S
O219 C235 1.283 1_565 S
O220 Tb168 2.421 . S
O220 C242 1.262 . S
O221 Tb179 2.320 . S
O221 C242 1.260 1_545 S
O222 Tb179 2.552 . S
O222 C235 1.243 . S
O223 Tb179 2.413 . S
O223 C243 1.256 . S
C224 O213 1.283 1_565 S
C224 O216 1.243 . S
C225 C227 1.382 . S
C225 C229 1.393 . S
C225 C232 1.500 1_655 S
C226 C227 1.400 . S
C226 C228 1.384 . S
C227 C225 1.382 . S
C227 C226 1.400 . S
C227 H244 0.930 . S
C228 C226 1.384 . S
C228 C230 1.392 . S
C228 H245 0.931 . S
C229 C225 1.393 . S
C229 C230 1.401 . S
C229 H246 0.930 . S
C230 C228 1.392 . S
C230 C229 1.401 . S
C230 H247 0.930 . S
C231 O214 1.262 . S
C231 O215 1.260 1_545 S
C232 Tb168 2.833 . S
C232 O212 1.251 . S
C232 O217 1.256 . S
C232 C225 1.500 1_455 S
C233 H198 0.929 . S
C233 C211 1.444 . S
C233 C234 1.317 . S
C234 H196 0.930 . S
C234 C202 1.432 . S
C234 C233 1.317 . S
C235 O219 1.283 1_545 S
C235 O222 1.243 . S
C236 C237 1.382 . S
C236 C240 1.393 . S
C236 C243 1.500 . S
C237 C236 1.382 . S
C237 C238 1.400 . S
C237 H248 0.930 . S
C238 C237 1.400 . S
C238 C239 1.384 . S
C239 C238 1.384 . S
C239 C241 1.392 . S
C239 H249 0.931 . S
C240 C236 1.393 . S
C240 C241 1.401 . S
C240 H250 0.930 . S
C241 C239 1.392 . S
C241 C240 1.401 . S
C241 H251 0.930 . S
C242 O220 1.262 . S
C242 O221 1.260 1_565 S
C243 Tb179 2.833 . S
C243 O218 1.251 . S
C243 O223 1.256 . S
C243 C236 1.500 . S
H244 C227 0.930 . S
H245 C228 0.931 . S
H246 C229 0.930 . S
H247 C230 0.930 . S
H248 C237 0.930 . S
H249 C239 0.931 . S
H250 C240 0.930 . S
H251 C241 0.930 . S
C252 C253 1.349 1_455 S
C252 C254 1.327 . S
C252 H277 0.950 . S
C253 C252 1.349 1_655 S
C253 C269 1.349 1_554 S
C254 C252 1.327 . S
C254 C273 1.462 1_455 S
C254 H278 0.950 . S
C255 C272 1.574 . S
C255 C274 1.348 1_556 S
C255 H279 0.949 . S
H256 C260 0.949 . S
C257 C258 1.357 1_655 S
C257 C259 1.327 . S
C257 H280 0.950 . S
C258 C257 1.357 1_455 S
C258 C270 1.327 1_556 S
C259 C257 1.327 . S
C259 C275 1.431 1_655 S
C259 H281 0.950 . S
C260 H256 0.949 . S
C260 C268 1.574 . S
C260 C276 1.370 . S
H261 C269 0.950 . S
H262 C267 0.950 . S
H263 C268 0.949 . S
H264 C270 0.950 . S
H265 C271 0.950 . S
H266 C272 0.949 . S
C267 H262 0.950 . S
C267 C269 1.327 . S
C267 C273 1.420 1_556 S
C268 C260 1.574 . S
C268 H263 0.949 . S
C268 C274 1.378 1_455 S
C269 C253 1.349 1_556 S
C269 H261 0.950 . S
C269 C267 1.327 . S
C270 C258 1.327 1_554 S
C270 H264 0.950 . S
C270 C271 1.327 . S
C271 H265 0.950 . S
C271 C270 1.327 . S
C271 C275 1.428 1_554 S
C272 C255 1.574 . S
C272 H266 0.949 . S
C272 C276 1.367 1_656 S
C273 C254 1.462 1_655 S
C273 C267 1.420 1_554 S
C273 C274 1.516 . S
C274 C255 1.348 1_554 S
C274 C268 1.378 1_655 S
C274 C273 1.516 . S
C275 C259 1.431 1_455 S
C275 C271 1.428 1_556 S
C275 C276 1.520 1_556 S
C276 C260 1.370 . S
C276 C272 1.367 1_454 S
C276 C275 1.520 1_554 S
H277 C252 0.950 . S
H278 C254 0.950 . S
H279 C255 0.949 . S
H280 C257 0.950 . S
H281 C259 0.950 . S
C282 C283 1.349 . S
C282 C284 1.327 . S
C282 H307 0.950 . S
C283 C282 1.349 . S
C283 C299 1.349 . S
C284 C282 1.327 . S
C284 C303 1.429 . S
C284 H308 0.950 . S
C285 C302 1.574 . S
C285 C304 1.368 . S
C285 H309 0.949 . S
H286 C290 0.949 . S
C287 C288 1.349 . S
C287 C289 1.327 . S
C287 H310 0.950 . S
C288 C287 1.349 . S
C288 C300 1.349 . S
C289 C287 1.327 . S
C289 C305 1.429 . S
C289 H311 0.950 . S
C290 H286 0.949 . S
C290 C298 1.574 . S
C290 C306 1.368 . S
H291 C299 0.950 . S
H292 C297 0.950 . S
H293 C298 0.949 . S
H294 C300 0.950 . S
H295 C301 0.950 . S
H296 C302 0.949 . S
C297 H292 0.950 . S
C297 C299 1.327 . S
C297 C303 1.429 . S
C298 C290 1.574 . S
C298 H293 0.949 . S
C298 C304 1.368 . S
C299 C283 1.349 . S
C299 H291 0.950 . S
C299 C297 1.327 . S
C300 C288 1.349 . S
C300 H294 0.950 . S
C300 C301 1.327 . S
C301 H295 0.950 . S
C301 C300 1.327 . S
C301 C305 1.429 . S
C302 C285 1.574 . S
C302 H296 0.949 . S
C302 C306 1.368 . S
C303 C284 1.429 . S
C303 C297 1.429 . S
C303 C304 1.523 . S
C304 C285 1.368 . S
C304 C298 1.368 . S
C304 C303 1.523 . S
C305 C289 1.429 . S
C305 C301 1.429 . S
C305 C306 1.523 . S
C306 C290 1.368 . S
C306 C302 1.368 . S
C306 C305 1.523 . S
H307 C282 0.950 . S
H308 C284 0.950 . S
H309 C285 0.949 . S
H310 C287 0.950 . S
H311 C289 0.950 . S
C312 C313 1.349 . S
C312 C314 1.327 . S
C312 H337 0.950 . S
C313 C312 1.349 . S
C313 C329 1.349 . S
C314 C312 1.327 . S
C314 C333 1.429 . S
C314 H338 0.950 . S
C315 C332 1.574 . S
C315 C334 1.368 . S
C315 H339 0.949 . S
H316 C320 0.949 . S
C317 C318 1.349 . S
C317 C319 1.327 . S
C317 H340 0.950 . S
C318 C317 1.349 . S
C318 C330 1.349 . S
C319 C317 1.327 . S
C319 C335 1.429 . S
C319 H341 0.950 . S
C320 H316 0.949 . S
C320 C328 1.574 . S
C320 C336 1.368 . S
H321 C329 0.950 . S
H322 C327 0.950 . S
H323 C328 0.949 . S
H324 C330 0.950 . S
H325 C331 0.950 . S
H326 C332 0.949 . S
C327 H322 0.950 . S
C327 C329 1.327 . S
C327 C333 1.429 . S
C328 C320 1.574 . S
C328 H323 0.949 . S
C328 C334 1.368 . S
C329 C313 1.349 . S
C329 H321 0.950 . S
C329 C327 1.327 . S
C330 C318 1.349 . S
C330 H324 0.950 . S
C330 C331 1.327 . S
C331 H325 0.950 . S
C331 C330 1.327 . S
C331 C335 1.429 . S
C332 C315 1.574 . S
C332 H326 0.949 . S
C332 C336 1.368 . S
C333 C314 1.429 . S
C333 C327 1.429 . S
C333 C334 1.523 . S
C334 C315 1.368 . S
C334 C328 1.368 . S
C334 C333 1.523 . S
C335 C319 1.429 . S
C335 C331 1.429 . S
C335 C336 1.523 . S
C336 C320 1.368 . S
C336 C332 1.368 . S
C336 C335 1.523 . S
H337 C312 0.950 . S
H338 C314 0.950 . S
H339 C315 0.949 . S
H340 C317 0.950 . S
H341 C319 0.950 . S
C342 C343 1.349 1_565 S
C342 C344 1.327 . S
C342 H367 0.950 . S
C343 C342 1.349 1_545 S
C343 C359 1.349 . S
C344 C342 1.327 . S
C344 C363 1.429 1_565 S
C344 H368 0.950 . S
C345 C362 1.574 . S
C345 C364 1.368 . S
C345 H369 0.949 . S
H346 C350 0.949 . S
C347 C348 1.349 1_545 S
C347 C349 1.327 . S
C347 H370 0.950 . S
C348 C347 1.349 1_565 S
C348 C360 1.348 . S
C349 C347 1.327 . S
C349 C365 1.429 . S
C349 H371 0.950 . S
C350 H346 0.949 . S
C350 C358 1.574 . S
C350 C366 1.368 1_565 S
H351 C359 0.950 . S
H352 C357 0.950 . S
H353 C358 0.949 . S
H354 C360 0.950 . S
H355 C361 0.950 . S
H356 C362 0.949 . S
C357 H352 0.950 . S
C357 C359 1.327 . S
C357 C363 1.429 . S
C358 C350 1.574 . S
C358 H353 0.949 . S
C358 C364 1.368 1_565 S
C359 C343 1.349 . S
C359 H351 0.950 . S
C359 C357 1.327 . S
C360 C348 1.348 . S
C360 H354 0.950 . S
C360 C361 1.327 . S
C361 H355 0.950 . S
C361 C360 1.327 . S
C361 C365 1.429 1_565 S
C362 C345 1.574 . S
C362 H356 0.949 . S
C362 C366 1.368 . S
C363 C344 1.429 1_545 S
C363 C357 1.429 . S
C363 C364 1.523 . S
C364 C345 1.368 . S
C364 C358 1.368 1_545 S
C364 C363 1.523 . S
C365 C349 1.429 . S
C365 C361 1.429 1_545 S
C365 C366 1.523 . S
C366 C350 1.368 1_545 S
C366 C362 1.368 . S
C366 C365 1.523 . S
H367 C342 0.950 . S
H368 C344 0.950 . S
H369 C345 0.949 . S
H370 C347 0.950 . S
H371 C349 0.950 . S
C372 C373 1.349 1_556 S
C372 C374 1.327 . S
C372 H397 0.950 . S
C373 C372 1.349 1_554 S
C373 C389 1.349 . S
C374 C372 1.327 . S
C374 C393 1.429 1_556 S
C374 H398 0.950 . S
C375 C392 1.574 . S
C375 C394 1.368 . S
C375 H399 0.949 . S
H376 C380 0.949 . S
C377 C378 1.349 1_554 S
C377 C379 1.327 . S
C377 H400 0.950 . S
C378 C377 1.349 1_556 S
C378 C390 1.349 . S
C379 C377 1.327 . S
C379 C395 1.429 1_554 S
C379 H401 0.950 . S
C380 H376 0.949 . S
C380 C388 1.574 . S
C380 C396 1.368 . S
H381 C389 0.950 . S
H382 C387 0.950 . S
H383 C388 0.949 . S
H384 C390 0.950 . S
H385 C391 0.950 . S
H386 C392 0.949 . S
C387 H382 0.950 . S
C387 C389 1.327 . S
C387 C393 1.429 . S
C388 C380 1.574 . S
C388 H383 0.949 . S
C388 C394 1.368 1_556 S
C389 C373 1.349 . S
C389 H381 0.950 . S
C389 C387 1.327 . S
C390 C378 1.349 . S
C390 H384 0.950 . S
C390 C391 1.327 . S
C391 H385 0.950 . S
C391 C390 1.327 . S
C391 C395 1.429 . S
C392 C375 1.574 . S
C392 H386 0.949 . S
C392 C396 1.368 1_554 S
C393 C374 1.429 1_554 S
C393 C387 1.429 . S
C393 C394 1.523 . S
C394 C375 1.368 . S
C394 C388 1.368 1_554 S
C394 C393 1.523 . S
C395 C379 1.429 1_556 S
C395 C391 1.429 . S
C395 C396 1.523 . S
C396 C380 1.368 . S
C396 C392 1.368 1_556 S
C396 C395 1.523 . S
H397 C372 0.950 . S
H398 C374 0.950 . S
H399 C375 0.949 . S
H400 C377 0.950 . S
H401 C379 0.950 . S
C402 C403 1.349 . S
C402 C404 1.327 . S
C402 H427 0.950 . S
C403 C402 1.349 . S
C403 C419 1.349 . S
C404 C402 1.327 . S
C404 C423 1.429 . S
C404 H428 0.950 . S
C405 C422 1.574 . S
C405 C424 1.368 . S
C405 H429 0.949 . S
H406 C410 0.949 . S
C407 C408 1.349 . S
C407 C409 1.327 . S
C407 H430 0.950 . S
C408 C407 1.349 . S
C408 C420 1.349 . S
C409 C407 1.327 . S
C409 C425 1.429 . S
C409 H431 0.950 . S
C410 H406 0.949 . S
C410 C418 1.574 . S
C410 C426 1.368 . S
H411 C419 0.950 . S
H412 C417 0.950 . S
H413 C418 0.949 . S
H414 C420 0.950 . S
H415 C421 0.950 . S
H416 C422 0.949 . S
C417 H412 0.950 . S
C417 C419 1.327 . S
C417 C423 1.429 . S
C418 C410 1.574 . S
C418 H413 0.949 . S
C418 C424 1.368 . S
C419 C403 1.349 . S
C419 H411 0.950 . S
C419 C417 1.327 . S
C420 C408 1.349 . S
C420 H414 0.950 . S
C420 C421 1.327 . S
C421 H415 0.950 . S
C421 C420 1.327 . S
C421 C425 1.429 . S
C422 C405 1.574 . S
C422 H416 0.949 . S
C422 C426 1.368 . S
C423 C404 1.429 . S
C423 C417 1.429 . S
C423 C424 1.523 . S
C424 C405 1.368 . S
C424 C418 1.368 . S
C424 C423 1.523 . S
C425 C409 1.429 . S
C425 C421 1.429 . S
C425 C426 1.523 . S
C426 C410 1.368 . S
C426 C422 1.368 . S
C426 C425 1.523 . S
H427 C402 0.950 . S
H428 C404 0.950 . S
H429 C405 0.949 . S
H430 C407 0.950 . S
H431 C409 0.950 . S
C432 C433 1.349 . S
C432 C434 1.327 . S
C432 H457 0.950 . S
C433 C432 1.349 . S
C433 C449 1.349 . S
C434 C432 1.327 . S
C434 C453 1.429 . S
C434 H458 0.950 1_455 S
C435 C452 1.574 . S
C435 C454 1.368 . S
C435 H459 0.949 . S
H436 C440 0.949 . S
C437 C438 1.349 . S
C437 C439 1.327 . S
C437 H460 0.950 . S
C438 C437 1.349 . S
C438 C450 1.349 1_455 S
C439 C437 1.327 . S
C439 C455 1.429 . S
C439 H461 0.950 . S
C440 H436 0.949 . S
C440 C448 1.574 1_655 S
C440 C456 1.368 1_655 S
H441 C449 0.950 . S
H442 C447 0.950 . S
H443 C448 0.949 1_655 S
H444 C450 0.950 . S
H445 C451 0.950 . S
H446 C452 0.949 . S
C447 H442 0.950 . S
C447 C449 1.327 . S
C447 C453 1.429 . S
C448 C440 1.574 1_455 S
C448 H443 0.949 1_455 S
C448 C454 1.368 . S
C449 C433 1.349 . S
C449 H441 0.950 . S
C449 C447 1.327 . S
C450 C438 1.349 1_655 S
C450 H444 0.950 . S
C450 C451 1.327 . S
C451 H445 0.950 . S
C451 C450 1.327 . S
C451 C455 1.429 1_655 S
C452 C435 1.574 . S
C452 H446 0.949 . S
C452 C456 1.368 . S
C453 C434 1.429 . S
C453 C447 1.429 . S
C453 C454 1.523 . S
C454 C435 1.368 . S
C454 C448 1.368 . S
C454 C453 1.523 . S
C455 C439 1.429 . S
C455 C451 1.429 1_455 S
C455 C456 1.523 . S
C456 C440 1.368 1_455 S
C456 C452 1.368 . S
C456 C455 1.523 . S
H457 C432 0.950 . S
H458 C434 0.950 1_655 S
H459 C435 0.949 . S
H460 C437 0.950 . S
H461 C439 0.950 . S
C462 C463 1.349 . S
C462 C464 1.327 . S
C462 H487 0.950 . S
C463 C462 1.349 . S
C463 C479 1.349 . S
C464 C462 1.327 . S
C464 C483 1.429 . S
C464 H488 0.950 1_545 S
C465 C482 1.574 . S
C465 C484 1.368 . S
C465 H489 0.949 . S
H466 C470 0.949 . S
C467 C468 1.349 . S
C467 C469 1.327 . S
C467 H490 0.950 . S
C468 C467 1.349 . S
C468 C480 1.349 1_545 S
C469 C467 1.327 . S
C469 C485 1.429 . S
C469 H491 0.950 . S
C470 H466 0.949 . S
C470 C478 1.574 1_565 S
C470 C486 1.368 1_565 S
H471 C479 0.950 . S
H472 C477 0.950 . S
H473 C478 0.949 1_565 S
H474 C480 0.950 . S
H475 C481 0.950 . S
H476 C482 0.949 . S
C477 H472 0.950 . S
C477 C479 1.327 . S
C477 C483 1.429 . S
C478 C470 1.574 1_545 S
C478 H473 0.949 1_545 S
C478 C484 1.368 . S
C479 C463 1.349 . S
C479 H471 0.950 . S
C479 C477 1.327 . S
C480 C468 1.349 1_565 S
C480 H474 0.950 . S
C480 C481 1.327 . S
C481 H475 0.950 . S
C481 C480 1.327 . S
C481 C485 1.429 1_565 S
C482 C465 1.574 . S
C482 H476 0.949 . S
C482 C486 1.368 . S
C483 C464 1.429 . S
C483 C477 1.429 . S
C483 C484 1.523 . S
C484 C465 1.368 . S
C484 C478 1.368 . S
C484 C483 1.523 . S
C485 C469 1.429 . S
C485 C481 1.429 1_545 S
C485 C486 1.523 . S
C486 C470 1.368 1_545 S
C486 C482 1.368 . S
C486 C485 1.523 . S
H487 C462 0.950 . S
H488 C464 0.950 1_565 S
H489 C465 0.949 . S
H490 C467 0.950 . S
H491 C469 0.950 . S
C492 C493 1.349 . S
C492 C494 1.327 . S
C492 H517 0.950 . S
C493 C492 1.349 . S
C493 C509 1.349 1_545 S
C494 C492 1.327 . S
C494 C513 1.429 . S
C494 H518 0.950 . S
C495 C512 1.574 . S
C495 C514 1.368 1_565 S
C495 H519 0.949 . S
H496 C500 0.949 . S
C497 C498 1.349 . S
C497 C499 1.327 . S
C497 H520 0.950 1_545 S
C498 C497 1.349 . S
C498 C510 1.349 . S
C499 C497 1.327 . S
C499 C515 1.429 . S
C499 H521 0.950 1_545 S
C500 H496 0.949 . S
C500 C508 1.574 . S
C500 C516 1.368 . S
H501 C509 0.950 . S
H502 C507 0.950 . S
H503 C508 0.949 . S
H504 C510 0.950 . S
H505 C511 0.950 . S
H506 C512 0.949 . S
C507 H502 0.950 . S
C507 C509 1.327 . S
C507 C513 1.429 1_565 S
C508 C500 1.574 . S
C508 H503 0.949 . S
C508 C514 1.368 . S
C509 C493 1.349 1_565 S
C509 H501 0.950 . S
C509 C507 1.327 . S
C510 C498 1.349 . S
C510 H504 0.950 . S
C510 C511 1.327 . S
C511 H505 0.950 . S
C511 C510 1.327 . S
C511 C515 1.429 . S
C512 C495 1.574 . S
C512 H506 0.949 . S
C512 C516 1.368 1_565 S
C513 C494 1.429 . S
C513 C507 1.429 1_545 S
C513 C514 1.523 . S
C514 C495 1.368 1_545 S
C514 C508 1.368 . S
C514 C513 1.523 . S
C515 C499 1.429 . S
C515 C511 1.429 . S
C515 C516 1.523 . S
C516 C500 1.368 . S
C516 C512 1.368 1_545 S
C516 C515 1.523 . S
H517 C492 0.950 . S
H518 C494 0.950 . S
H519 C495 0.949 . S
H520 C497 0.950 1_565 S
H521 C499 0.950 1_565 S
C253 C56 4.245 1_655 S
C258 C67 4.260 1_455 S
C283 C151 2.670 . S
C288 C140 2.670 1_655 S
C313 C226 0.638 . S
C318 C238 0.638 . S
C343 C224 2.585 1_645 S
C348 C235 2.585 1_565 S
C373 C70 0.696 1_554 S
C378 C58 0.696 1_556 S
C403 C142 1.337 . S
C408 C154 1.337 . S
C433 C147 1.576 . S
C438 C74 1.585 1_455 S
C463 C158 1.590 . S
C468 C242 1.562 1_545 S
C493 C231 1.634 . S
C498 C63 1.591 . S
