# Generated by pormake.
# Topology mok, (4)-cn, num edge types: 1
# Building blocks:
#     Node 0, Type 0, BuildingBlock: QUQFOY_clean_sbu_1, # of connection points: 4
#     Node 1, Type 0, BuildingBlock: QUQFOY_clean_sbu_1, # of connection points: 4
#     Node 2, Type 0, BuildingBlock: QUQFOY_clean_sbu_1, # of connection points: 4
#     Node 3, Type 0, BuildingBlock: QUQFOY_clean_sbu_1, # of connection points: 4
#     Node 4, Type 0, BuildingBlock: QUQFOY_clean_sbu_1, # of connection points: 4
#     Node 5, Type 0, BuildingBlock: QUQFOY_clean_sbu_1, # of connection points: 4
#     Node 6, Type 0, BuildingBlock: QUQFOY_clean_sbu_1, # of connection points: 4
#     Node 7, Type 0, BuildingBlock: QUQFOY_clean_sbu_1, # of connection points: 4
#     Edge 8, Type (0, 0), BuildingBlock: FUNLAD_clean_linker_0, # of connection points: 2
#     Edge 9, Type (0, 0), BuildingBlock: FUNLAD_clean_linker_0, # of connection points: 2
#     Edge 10, Type (0, 0), BuildingBlock: FUNLAD_clean_linker_0, # of connection points: 2
#     Edge 11, Type (0, 0), BuildingBlock: FUNLAD_clean_linker_0, # of connection points: 2
#     Edge 12, Type (0, 0), BuildingBlock: FUNLAD_clean_linker_0, # of connection points: 2
#     Edge 13, Type (0, 0), BuildingBlock: FUNLAD_clean_linker_0, # of connection points: 2
#     Edge 14, Type (0, 0), BuildingBlock: FUNLAD_clean_linker_0, # of connection points: 2
#     Edge 15, Type (0, 0), BuildingBlock: FUNLAD_clean_linker_0, # of connection points: 2
#     Edge 16, Type (0, 0), BuildingBlock: FUNLAD_clean_linker_0, # of connection points: 2
#     Edge 17, Type (0, 0), BuildingBlock: FUNLAD_clean_linker_0, # of connection points: 2
#     Edge 18, Type (0, 0), BuildingBlock: FUNLAD_clean_linker_0, # of connection points: 2
#     Edge 19, Type (0, 0), BuildingBlock: FUNLAD_clean_linker_0, # of connection points: 2
#     Edge 20, Type (0, 0), BuildingBlock: FUNLAD_clean_linker_0, # of connection points: 2
#     Edge 21, Type (0, 0), BuildingBlock: FUNLAD_clean_linker_0, # of connection points: 2
#     Edge 22, Type (0, 0), BuildingBlock: FUNLAD_clean_linker_0, # of connection points: 2
#     Edge 23, Type (0, 0), BuildingBlock: FUNLAD_clean_linker_0, # of connection points: 2
# Relax obj value: 0.034
# Max RMSD: 0.078
# Mean RMSD: 0.077
data_MOF--net-mok--node1-QUQFOY_clean_sbu_1--edge1-FUNLAD_clean_linker_0
_symmetry_space_group_name_H-M    P1
_symmetry_Int_Tables_number       1
_symmetry_cell_setting            triclinic
loop_
_symmetry_equiv_pos_as_xyz
'x, y, z'
_cell_length_a     63.795746
_cell_length_b     18.1598
_cell_length_c     33.171634
_cell_angle_alpha  90.102706
_cell_angle_beta   90.000257
_cell_angle_gamma 89.76649
loop_
_atom_site_label
_atom_site_type_symbol
_atom_site_fract_x
_atom_site_fract_y
_atom_site_fract_z
_atom_type_partial_charge
O0 O 0.6148 0.3039 1.00374 0.0
Cd1 Cd 0.62033 0.24851 0.05686 0.0
Cd2 Cd 0.62647 0.38748 0.08387 0.0
O3 O 0.61432 0.41722 0.02795 0.0
O4 O 0.60602 0.15062 0.05196 0.0
O5 O 0.59591 0.23789 0.09432 0.0
C6 C 0.5928 0.17384 0.07861 0.0
C7 C 0.61257 0.4232 0.14623 0.0
C8 C 0.61201 0.37262 0.99858 0.0
C9 C 0.66399 0.28628 0.08202 0.0
O10 O 0.65723 0.35202 0.08526 0.0
O11 O 0.65141 0.23411 0.0737 0.0
O12 O 0.62354 0.46842 0.12495 0.0
O13 O 0.60861 0.35936 0.13096 0.0
O14 O 0.40584 0.68413 0.99588 0.0
Cd15 Cd 0.40146 0.7433 0.04834 0.0
Cd16 Cd 0.39461 0.60897 0.07976 0.0
O17 O 0.40481 0.57386 0.02362 0.0
O18 O 0.4175 0.8374 0.04359 0.0
O19 O 0.42587 0.74825 0.08614 0.0
C20 C 0.43012 0.81159 0.0706 0.0
C21 C 0.40871 0.5611 0.13927 0.0
C22 C 0.40748 0.61452 0.99284 0.0
C23 C 0.35812 0.71526 0.07841 0.0
O24 O 0.36443 0.64962 0.08421 0.0
O25 O 0.37083 0.76413 0.06604 0.0
O26 O 0.39595 0.52319 0.11743 0.0
O27 O 0.41407 0.62539 0.12646 0.0
O28 O 0.61878 0.70061 0.64864 0.0
Cd29 Cd 0.6244 0.75449 0.59508 0.0
Cd30 Cd 0.6263 0.61516 0.56888 0.0
O31 O 0.61409 0.58828 0.62505 0.0
O32 O 0.61268 0.85597 0.6036 0.0
O33 O 0.59944 0.77676 0.55996 0.0
C34 C 0.5982 0.83971 0.57795 0.0
C35 C 0.61158 0.58489 0.50656 0.0
C36 C 0.61398 0.63357 0.65442 0.0
C37 C 0.66652 0.70175 0.56879 0.0
O38 O 0.65785 0.63888 0.5669 0.0
O39 O 0.65555 0.75894 0.57642 0.0
O40 O 0.62127 0.53595 0.52785 0.0
O41 O 0.60914 0.6497 0.52197 0.0
O42 O 0.40837 0.31071 0.64151 0.0
Cd43 Cd 0.40202 0.24985 0.5904 0.0
Cd44 Cd 0.39823 0.38427 0.55784 0.0
O45 O 0.40981 0.4199 0.61273 0.0
O46 O 0.41635 0.15272 0.59846 0.0
O47 O 0.42563 0.23242 0.5514 0.0
C48 C 0.42906 0.17102 0.56991 0.0
C49 C 0.41213 0.42565 0.49683 0.0
C50 C 0.4117 0.37955 0.64384 0.0
C51 C 0.35911 0.29087 0.56284 0.0
O52 O 0.36715 0.35354 0.55589 0.0
O53 O 0.3706 0.23776 0.57491 0.0
O54 O 0.40066 0.46789 0.51912 0.0
O55 O 0.4164 0.36045 0.51001 0.0
O56 O 0.11595 0.79851 1.00216 0.0
Cd57 Cd 0.12118 0.74739 0.05678 0.0
Cd58 Cd 0.12724 0.88672 0.08069 0.0
O59 O 0.11592 0.91346 0.02375 0.0
O60 O 0.1083 0.64748 0.05211 0.0
O61 O 0.09644 0.7335 0.09358 0.0
C62 C 0.09457 0.66837 0.07834 0.0
C63 C 0.11326 0.9317 0.14112 0.0
C64 C 0.1136 0.86694 0.99532 0.0
C65 C 0.16474 0.78612 0.08225 0.0
O66 O 0.15805 0.85207 0.0842 0.0
O67 O 0.15215 0.73385 0.07433 0.0
O68 O 0.12457 0.97282 0.1181 0.0
O69 O 0.10895 0.86605 0.12864 0.0
O70 O 0.90786 0.19992 0.9969 0.0
Cd71 Cd 0.90158 0.26004 0.04846 0.0
Cd72 Cd 0.89537 0.12584 0.07978 0.0
O73 O 0.90706 0.08991 0.02494 0.0
O74 O 0.91559 0.35739 0.04213 0.0
O75 O 0.92524 0.27494 0.08764 0.0
C76 C 0.92821 0.33806 0.07067 0.0
C77 C 0.90682 0.07654 0.14096 0.0
C78 C 0.9101 0.13045 0.99425 0.0
C79 C 0.85792 0.22781 0.0747 0.0
O80 O 0.86478 0.16314 0.08125 0.0
O81 O 0.87039 0.27803 0.06316 0.0
O82 O 0.89488 0.03982 0.11693 0.0
O83 O 0.9133 0.14028 0.12919 0.0
O84 O 0.11642 0.19031 0.64421 0.0
Cd85 Cd 0.12297 0.24354 0.59079 0.0
Cd86 Cd 0.12593 0.10426 0.56438 0.0
O87 O 0.11361 0.07732 0.62045 0.0
O88 O 0.11014 0.3438 0.5967 0.0
O89 O 0.09912 0.2616 0.55232 0.0
C90 C 0.09682 0.32522 0.56925 0.0
C91 C 0.11219 0.06263 0.50303 0.0
C92 C 0.11234 0.12259 0.64972 0.0
C93 C 0.16569 0.19435 0.56613 0.0
O94 O 0.15732 0.13119 0.56268 0.0
O95 O 0.15441 0.25036 0.57461 0.0
O96 O 0.12261 0.01918 0.52646 0.0
O97 O 0.10862 0.12891 0.51551 0.0
O98 O 0.90747 0.81539 0.64571 0.0
Cd99 Cd 0.90248 0.75101 0.59528 0.0
Cd100 Cd 0.89924 0.88289 0.56021 0.0
O101 O 0.90954 0.92282 0.61518 0.0
O102 O 0.91596 0.65425 0.60763 0.0
O103 O 0.92729 0.72863 0.55967 0.0
C104 C 0.92973 0.66887 0.58028 0.0
C105 C 0.91314 0.92456 0.49927 0.0
C106 C 0.91068 0.8844 0.64715 0.0
C107 C 0.86015 0.78849 0.56424 0.0
O108 O 0.86829 0.85077 0.55679 0.0
O109 O 0.87146 0.73629 0.57793 0.0
O110 O 0.90076 0.9651 0.52064 0.0
O111 O 0.91855 0.86112 0.51352 0.0
C112 C 0.8218 0.1895 0.09557 0.0
C113 C 0.83519 0.24333 0.07946 0.0
C114 C 0.80023 0.20224 0.09857 0.0
C115 C 0.79143 0.26901 0.08506 0.0
C116 C 0.8049 0.3235 0.06995 0.0
C117 C 0.82652 0.31087 0.06711 0.0
C118 C 0.76846 0.28444 0.08667 0.0
C119 C 0.75366 0.23161 0.08923 0.0
C120 C 0.73066 0.24679 0.08909 0.0
C121 C 0.71687 0.18953 0.07889 0.0
C122 C 0.69521 0.20168 0.07735 0.0
C123 C 0.6868 0.27152 0.08616 0.0
H124 H 0.73205 0.3611 0.10876 0.0
C125 C 0.70053 0.32829 0.09758 0.0
C126 C 0.72217 0.31607 0.09924 0.0
H127 H 0.69459 0.38257 0.10507 0.0
H128 H 0.82797 0.13717 0.1059 0.0
H129 H 0.79067 0.15967 0.11183 0.0
H130 H 0.79865 0.37579 0.05972 0.0
H131 H 0.83636 0.35365 0.05468 0.0
H132 H 0.76368 0.34151 0.08332 0.0
H133 H 0.75838 0.17416 0.0891 0.0
H134 H 0.7229 0.13534 0.07138 0.0
H135 H 0.68511 0.15662 0.06857 0.0
C136 C 0.20125 0.82778 0.09856 0.0
C137 C 0.18746 0.77094 0.08753 0.0
C138 C 0.22283 0.81477 0.10139 0.0
C139 C 0.23119 0.74458 0.09281 0.0
C140 C 0.21732 0.68737 0.08294 0.0
C141 C 0.19573 0.70031 0.08026 0.0
C142 C 0.25413 0.72829 0.09404 0.0
C143 C 0.2692 0.78019 0.09182 0.0
C144 C 0.29209 0.76314 0.09056 0.0
C145 C 0.30589 0.81627 0.07513 0.0
C146 C 0.32739 0.80163 0.07198 0.0
C147 C 0.33562 0.73341 0.08434 0.0
H148 H 0.29065 0.6544 0.11793 0.0
C149 C 0.32193 0.68115 0.10105 0.0
C150 C 0.30047 0.6959 0.10437 0.0
H151 H 0.32776 0.62837 0.11142 0.0
H152 H 0.1954 0.88269 0.10485 0.0
H153 H 0.23275 0.85993 0.11053 0.0
H154 H 0.22323 0.63253 0.0766 0.0
H155 H 0.18559 0.65516 0.07182 0.0
H156 H 0.25859 0.67059 0.09427 0.0
H157 H 0.26476 0.83751 0.08819 0.0
H158 H 0.29997 0.8689 0.0647 0.0
H159 H 0.33747 0.84327 0.0591 0.0
C160 C 0.82669 0.71712 0.57387 0.0
C161 C 0.83717 0.77941 0.55901 0.0
C162 C 0.80477 0.71257 0.57198 0.0
C163 C 0.79283 0.77011 0.5548 0.0
C164 C 0.80342 0.83143 0.53927 0.0
C165 C 0.82524 0.83602 0.54124 0.0
C166 C 0.76942 0.77081 0.55431 0.0
C167 C 0.75742 0.71051 0.55916 0.0
C168 C 0.73402 0.71193 0.55955 0.0
C169 C 0.72327 0.64585 0.55262 0.0
C170 C 0.70141 0.64325 0.55463 0.0
C171 C 0.68964 0.70673 0.56394 0.0
H172 H 0.72984 0.82762 0.57512 0.0
C173 C 0.70031 0.77327 0.57047 0.0
C174 C 0.72226 0.77588 0.56847 0.0
H175 H 0.69177 0.82305 0.57807 0.0
H176 H 0.83537 0.67282 0.58807 0.0
H177 H 0.79734 0.665 0.58522 0.0
H178 H 0.79474 0.87668 0.52596 0.0
H179 H 0.83272 0.88487 0.52941 0.0
H180 H 0.76189 0.82341 0.54849 0.0
H181 H 0.76489 0.65693 0.56164 0.0
H182 H 0.73183 0.59565 0.5459 0.0
H183 H 0.69378 0.59091 0.54945 0.0
C184 C 0.19912 0.26764 0.57025 0.0
C185 C 0.18881 0.20102 0.56197 0.0
C186 C 0.22105 0.27179 0.56869 0.0
C187 C 0.23318 0.20935 0.55845 0.0
C188 C 0.2228 0.14318 0.54984 0.0
C189 C 0.20095 0.13904 0.55144 0.0
C190 C 0.25659 0.20948 0.55818 0.0
C191 C 0.2683 0.27089 0.55521 0.0
C192 C 0.29172 0.2714 0.55544 0.0
C193 C 0.30199 0.33464 0.54154 0.0
C194 C 0.32382 0.33987 0.543 0.0
C195 C 0.33605 0.28196 0.55863 0.0
H196 H 0.29677 0.16371 0.58269 0.0
C197 C 0.32587 0.218 0.57206 0.0
C198 C 0.30395 0.21282 0.57068 0.0
H199 H 0.33479 0.17265 0.58463 0.0
H200 H 0.19029 0.31627 0.57883 0.0
H201 H 0.22833 0.32346 0.57664 0.0
H202 H 0.23164 0.09409 0.54207 0.0
H203 H 0.19361 0.08669 0.5449 0.0
H204 H 0.26432 0.15618 0.55904 0.0
H205 H 0.26053 0.32358 0.55104 0.0
H206 H 0.29308 0.38077 0.52978 0.0
H207 H 0.33106 0.39004 0.53235 0.0
C208 C 0.6123 0.50816 0.20606 0.0
C209 C 0.60631 0.44122 0.1882 0.0
C210 C 0.60876 0.52113 0.24714 0.0
C211 C 0.59902 0.46742 0.27131 0.0
C212 C 0.59244 0.40161 0.25305 0.0
C213 C 0.59594 0.38873 0.212 0.0
C214 C 0.59725 0.47486 0.31599 0.0
C215 C 0.59803 0.53971 0.33582 0.0
C216 C 0.59901 0.5464 0.38063 0.0
C217 C 0.59407 0.61443 0.39857 0.0
C218 C 0.59709 0.62578 0.4399 0.0
C219 C 0.60535 0.56944 0.46428 0.0
H220 H 0.61105 0.43634 0.39285 0.0
C221 C 0.6096 0.50049 0.4467 0.0
C222 C 0.60653 0.48907 0.40537 0.0
H223 H 0.61611 0.45604 0.46454 0.0
H224 H 0.62045 0.54957 0.18867 0.0
H225 H 0.61457 0.57186 0.26 0.0
H226 H 0.58501 0.35907 0.27083 0.0
H227 H 0.59115 0.33647 0.19927 0.0
H228 H 0.59528 0.42437 0.33301 0.0
H229 H 0.59805 0.59063 0.31873 0.0
H230 H 0.58835 0.65972 0.38035 0.0
H231 H 0.5937 0.67968 0.4524 0.0
C232 C 0.42745 0.57902 0.20503 0.0
C233 C 0.41572 0.53379 0.17911 0.0
C234 C 0.43191 0.55649 0.24444 0.0
C235 C 0.42465 0.48823 0.25876 0.0
C236 C 0.41399 0.44143 0.23206 0.0
C237 C 0.40947 0.46403 0.19275 0.0
C238 C 0.42704 0.46498 0.30153 0.0
C239 C 0.42835 0.51315 0.33241 0.0
C240 C 0.42657 0.49096 0.37544 0.0
C241 C 0.4184 0.54204 0.40315 0.0
C242 C 0.41442 0.52156 0.44299 0.0
C243 C 0.41878 0.44962 0.45617 0.0
H244 H 0.439 0.37987 0.36907 0.0
C245 C 0.42811 0.39962 0.42912 0.0
C246 C 0.43199 0.42004 0.38914 0.0
H247 H 0.43185 0.34397 0.43847 0.0
H248 H 0.4327 0.63278 0.19528 0.0
H249 H 0.44083 0.59305 0.26361 0.0
H250 H 0.40842 0.38823 0.24208 0.0
H251 H 0.40056 0.42757 0.17346 0.0
H252 H 0.42519 0.40675 0.30791 0.0
H253 H 0.42826 0.57181 0.32615 0.0
H254 H 0.4143 0.59729 0.3936 0.0
H255 H 0.40739 0.56164 0.46313 0.0
C256 C 0.41362 0.62495 0.91835 0.0
C257 C 0.41155 0.58067 0.95286 0.0
C258 C 0.41602 0.59312 0.8802 0.0
C259 C 0.41654 0.516 0.87567 0.0
C260 C 0.41485 0.47192 0.91028 0.0
C261 C 0.41245 0.50375 0.94841 0.0
C262 C 0.4173 0.47918 0.83551 0.0
C263 C 0.42347 0.51229 0.80112 0.0
C264 C 0.42211 0.4765 0.76077 0.0
C265 C 0.42039 0.52116 0.72638 0.0
C266 C 0.4176 0.48987 0.68819 0.0
C267 C 0.4166 0.41301 0.68354 0.0
H268 H 0.42428 0.36289 0.78118 0.0
C269 C 0.41931 0.36822 0.7177 0.0
C270 C 0.42213 0.39949 0.75583 0.0
H271 H 0.41896 0.30876 0.71516 0.0
H272 H 0.4129 0.68442 0.92061 0.0
H273 H 0.4167 0.62948 0.85448 0.0
H274 H 0.41508 0.41242 0.90777 0.0
H275 H 0.4109 0.46791 0.9743 0.0
H276 H 0.41191 0.42263 0.83449 0.0
H277 H 0.42876 0.56895 0.80183 0.0
H278 H 0.42059 0.58061 0.72918 0.0
H279 H 0.41571 0.52603 0.66251 0.0
C280 C 0.60609 0.47605 0.94925 0.0
C281 C 0.60708 0.40021 0.95749 0.0
C282 C 0.60302 0.50123 0.90976 0.0
C283 C 0.60098 0.45094 0.87754 0.0
C284 C 0.60111 0.37532 0.88618 0.0
C285 C 0.6042 0.35023 0.92552 0.0
C286 C 0.59898 0.47427 0.83458 0.0
C287 C 0.60544 0.54012 0.82067 0.0
C288 C 0.60543 0.56171 0.7773 0.0
C289 C 0.60714 0.63673 0.76788 0.0
C290 C 0.60913 0.65986 0.72796 0.0
C291 C 0.60962 0.60844 0.69619 0.0
H292 H 0.60454 0.4516 0.75122 0.0
C293 C 0.60734 0.53333 0.70534 0.0
C294 C 0.60533 0.51009 0.74546 0.0
H295 H 0.60778 0.49223 0.68165 0.0
H296 H 0.60802 0.51608 0.9732 0.0
H297 H 0.60226 0.56001 0.90486 0.0
H298 H 0.59935 0.33523 0.86219 0.0
H299 H 0.60468 0.29137 0.93069 0.0
H300 H 0.59286 0.43392 0.81354 0.0
H301 H 0.61157 0.58042 0.84172 0.0
H302 H 0.60733 0.67779 0.79162 0.0
H303 H 0.61078 0.71822 0.72216 0.0
C304 C 0.09716 0.90883 0.2091 0.0
C305 C 0.10701 0.95703 0.18197 0.0
C306 C 0.09362 0.92997 0.24919 0.0
C307 C 0.09996 0.99981 0.26307 0.0
C308 C 0.10877 0.04916 0.23532 0.0
C309 C 0.11235 0.028 0.19535 0.0
C310 C 0.09823 0.02291 0.30616 0.0
C311 C 0.09774 0.97506 0.33726 0.0
C312 C 0.09935 0.99776 0.38042 0.0
C313 C 0.1071 0.94658 0.40847 0.0
C314 C 0.11054 0.96687 0.44861 0.0
C315 C 0.1061 0.03882 0.46185 0.0
H316 H 0.0872 0.10923 0.37391 0.0
C317 C 0.0973 0.0891 0.43437 0.0
C318 C 0.09391 0.06883 0.39411 0.0
H319 H 0.09353 0.14481 0.44366 0.0
H320 H 0.09268 0.85396 0.1997 0.0
H321 H 0.0861 0.89113 0.26913 0.0
H322 H 0.11359 0.1036 0.24491 0.0
H323 H 0.11986 0.06671 0.17523 0.0
H324 H 0.09953 0.08141 0.31237 0.0
H325 H 0.09825 0.91638 0.33107 0.0
H326 H 0.1112 0.89122 0.39902 0.0
H327 H 0.11722 0.92658 0.46899 0.0
C328 C 0.90779 0.00344 0.43867 0.0
C329 C 0.91927 0.94774 0.45819 0.0
C330 C 0.91158 0.01996 0.39827 0.0
C331 C 0.92718 0.98202 0.37667 0.0
C332 C 0.93951 0.92931 0.39663 0.0
C333 C 0.93539 0.91148 0.43698 0.0
C334 C 0.92992 0.99528 0.33292 0.0
C335 C 0.91321 0.99544 0.30819 0.0
C336 C 0.91429 0.00976 0.26429 0.0
C337 C 0.89986 0.97448 0.23901 0.0
C338 C 0.8984 0.99332 0.19836 0.0
C339 C 0.91098 0.04942 0.18227 0.0
H340 H 0.93876 0.09218 0.26691 0.0
C341 C 0.92593 0.08335 0.20725 0.0
C342 C 0.92771 0.06322 0.24792 0.0
H343 H 0.93579 0.1269 0.19572 0.0
H344 H 0.89527 0.03247 0.45411 0.0
H345 H 0.90209 0.06174 0.38369 0.0
H346 H 0.9517 0.89976 0.38054 0.0
H347 H 0.94455 0.86852 0.45131 0.0
H348 H 0.94565 0.0008 0.32079 0.0
H349 H 0.89788 0.98223 0.32056 0.0
H350 H 0.88929 0.93339 0.251 0.0
H351 H 0.88665 0.96628 0.18005 0.0
C352 C 0.9153 0.87784 0.7221 0.0
C353 C 0.91455 0.92022 0.68668 0.0
C354 C 0.91721 0.91154 0.75982 0.0
C355 C 0.91856 0.98871 0.76308 0.0
C356 C 0.91822 0.03089 0.7276 0.0
C357 C 0.91632 0.99713 0.68983 0.0
C358 C 0.91872 0.02751 0.80273 0.0
C359 C 0.92394 0.99516 0.83797 0.0
C360 C 0.92179 0.03191 0.87796 0.0
C361 C 0.91967 0.98781 0.91247 0.0
C362 C 0.91635 0.01965 0.95036 0.0
C363 C 0.91522 0.09658 0.95469 0.0
H364 H 0.92386 0.14522 0.85711 0.0
C365 C 0.91819 0.14086 0.92043 0.0
C366 C 0.92151 0.10901 0.88253 0.0
H367 H 0.91769 0.20035 0.92271 0.0
H368 H 0.91387 0.81846 0.72086 0.0
H369 H 0.91679 0.87669 0.78618 0.0
H370 H 0.9191 0.09041 0.72912 0.0
H371 H 0.91575 0.03153 0.6632 0.0
H372 H 0.91366 0.08461 0.80258 0.0
H373 H 0.92903 0.93811 0.83816 0.0
H374 H 0.92005 0.92831 0.90999 0.0
H375 H 0.91426 0.98382 0.97611 0.0
C376 C 0.10887 0.96727 0.94365 0.0
C377 C 0.10948 0.89196 0.95341 0.0
C378 C 0.10686 0.99004 0.90346 0.0
C379 C 0.1053 0.93781 0.87209 0.0
C380 C 0.10544 0.86274 0.88208 0.0
C381 C 0.10741 0.84006 0.92213 0.0
C382 C 0.1051 0.9585 0.82857 0.0
C383 C 0.09966 0.02566 0.81463 0.0
C384 C 0.10145 0.04805 0.77148 0.0
C385 C 0.10261 0.12344 0.76254 0.0
C386 C 0.10559 0.14744 0.72296 0.0
C387 C 0.10733 0.09661 0.69107 0.0
H388 H 0.10078 0.93861 0.74452 0.0
C389 C 0.10529 0.02118 0.69964 0.0
C390 C 0.10234 0.99709 0.73937 0.0
H391 H 0.10634 0.98055 0.67578 0.0
H392 H 0.11055 0.00874 0.96692 0.0
H393 H 0.10735 0.04841 0.89723 0.0
H394 H 0.10436 0.8212 0.85868 0.0
H395 H 0.1078 0.78156 0.92839 0.0
H396 H 0.11014 0.91631 0.80747 0.0
H397 H 0.09457 0.06771 0.83579 0.0
H398 H 0.10176 0.1641 0.78644 0.0
H399 H 0.10692 0.20604 0.71755 0.0
C400 C 0.45309 0.9231 0.0675 0.0
C401 C 0.44965 0.85098 0.08122 0.0
C402 C 0.47236 0.9576 0.07398 0.0
C403 C 0.48868 0.92049 0.09419 0.0
C404 C 0.48509 0.84896 0.10852 0.0
C405 C 0.46572 0.8148 0.10248 0.0
C406 C 0.51004 0.95239 0.09757 0.0
C407 C 0.51362 0.02538 0.09928 0.0
C408 C 0.53494 0.05812 0.098 0.0
C409 C 0.53804 0.12841 0.11457 0.0
C410 C 0.55723 0.16441 0.11007 0.0
C411 C 0.57366 0.13139 0.08821 0.0
H412 H 0.54974 0.9704 0.06341 0.0
C413 C 0.57079 0.06017 0.07255 0.0
C414 C 0.55165 0.0238 0.07744 0.0
H415 H 0.58309 0.03337 0.05539 0.0
H416 H 0.44106 0.95233 0.05084 0.0
H417 H 0.47469 0.01204 0.06158 0.0
H418 H 0.49742 0.81894 0.12389 0.0
H419 H 0.46362 0.75902 0.11324 0.0
H420 H 0.52318 0.91424 0.09897 0.0
H421 H 0.50042 0.06309 0.10188 0.0
H422 H 0.52541 0.15629 0.13032 0.0
H423 H 0.55888 0.21938 0.12237 0.0
C424 C 0.5642 0.87195 0.54365 0.0
C425 C 0.57961 0.88815 0.57268 0.0
C426 C 0.54532 0.9117 0.5426 0.0
C427 C 0.54141 0.96807 0.57083 0.0
C428 C 0.55708 0.9856 0.59893 0.0
C429 C 0.57602 0.94667 0.59963 0.0
C430 C 0.52064 0.0051 0.57439 0.0
C431 C 0.50723 0.01501 0.54345 0.0
C432 C 0.48651 0.0514 0.54921 0.0
C433 C 0.47885 0.10043 0.51997 0.0
C434 C 0.45992 0.13828 0.52611 0.0
C435 C 0.448 0.12616 0.56114 0.0
H436 H 0.4795 0.99875 0.60625 0.0
C437 C 0.4552 0.07432 0.58941 0.0
C438 C 0.47429 0.0377 0.58365 0.0
H439 H 0.44641 0.06363 0.61671 0.0
H440 H 0.56644 0.82695 0.52259 0.0
H441 H 0.53346 0.89576 0.52097 0.0
H442 H 0.55447 0.02858 0.62109 0.0
H443 H 0.58747 0.96044 0.62252 0.0
H444 H 0.51647 0.02713 0.60384 0.0
H445 H 0.51194 1.00015 0.51303 0.0
H446 H 0.48787 0.1113 0.49296 0.0
H447 H 0.45475 0.17771 0.50371 0.0
C448 C 0.05898 0.64956 0.10883 0.0
C449 C 0.0765 0.62077 0.08839 0.0
C450 C 0.04099 0.60672 0.11427 0.0
C451 C 0.04023 0.53404 0.09951 0.0
C452 C 0.05815 0.50421 0.08101 0.0
C453 C 0.07602 0.54722 0.07517 0.0
C454 C 0.02095 0.48834 0.10188 0.0
C455 C 1.00148 0.5173 0.10017 0.0
C456 C 0.98229 0.47163 0.09587 0.0
C457 C 0.96514 0.50068 0.0746 0.0
C458 C 0.94738 0.45786 0.06728 0.0
C459 C 0.9462 0.38532 0.08176 0.0
H460 H 0.99351 0.37643 0.1292 0.0
C461 C 0.96293 0.35729 0.10476 0.0
C462 C 0.98084 0.3999 0.11167 0.0
H463 H 0.96244 0.3017 0.11651 0.0
H464 H 0.0589 0.7059 0.1196 0.0
H465 H 0.0277 0.63085 0.12976 0.0
H466 H 0.05808 0.44817 0.06973 0.0
H467 H 0.0893 0.52318 0.05956 0.0
H468 H 0.02295 0.42895 0.10052 0.0
H469 H 0.99959 0.57656 0.09745 0.0
H470 H 0.96574 0.55597 0.06243 0.0
H471 H 0.93471 0.48132 0.0497 0.0
C472 C 0.0727 0.4295 0.58682 0.0
C473 C 0.07841 0.37256 0.56018 0.0
C474 C 0.054 0.46865 0.58131 0.0
C475 C 0.04068 0.45231 0.54875 0.0
C476 C 0.0469 0.39818 0.52088 0.0
C477 C 0.06546 0.35797 0.5268 0.0
C478 C 0.02016 0.4905 0.54383 0.0
C479 C 1.00782 0.50588 0.57576 0.0
C480 C 0.98701 0.54286 0.57306 0.0
C481 C 0.97216 0.5289 0.60327 0.0
C482 C 0.95315 0.5673 0.6043 0.0
C483 C 0.94866 0.62184 0.57552 0.0
H484 H 0.99349 0.60852 0.51991 0.0
C485 C 0.96329 0.63479 0.5446 0.0
C486 C 0.98226 0.59542 0.54324 0.0
H487 H 0.96034 0.6767 0.52209 0.0
H488 H 0.08232 0.4423 0.61279 0.0
H489 H 0.04991 0.51141 0.60274 0.0
H490 H 0.03702 0.38513 0.49531 0.0
H491 H 0.06947 0.31464 0.50565 0.0
H492 H 0.01456 0.50136 0.51349 0.0
H493 H 0.01279 0.48769 0.60549 0.0
H494 H 0.97544 0.48892 0.62668 0.0
H495 H 0.94233 0.55604 0.62865 0.0
loop_
_geom_bond_atom_site_label_1
_geom_bond_atom_site_label_2
_geom_bond_distance
_geom_bond_site_symmetry_2
_ccdc_geom_bond_type
O0 Cd1 2.223 1_556 S
O0 C8 1.315 . S
Cd1 O0 2.223 1_554 S
Cd1 O4 2.297 . S
Cd1 O5 2.439 . S
Cd1 O11 2.240 . S
Cd2 O3 2.240 . S
Cd2 O10 2.223 . S
Cd2 O12 2.297 . S
Cd2 O13 2.439 . S
O3 Cd2 2.240 . S
O3 C8 1.279 1_554 S
O4 Cd1 2.297 . S
O4 C6 1.245 . S
O5 Cd1 2.439 . S
O5 C6 1.208 . S
C6 O4 1.245 . S
C6 O5 1.208 . S
C7 O12 1.247 . S
C7 O13 1.208 . S
C8 O0 1.315 . S
C8 O3 1.279 1_556 S
C9 O10 1.315 . S
C9 O11 1.279 . S
O10 Cd2 2.223 . S
O10 C9 1.315 . S
O11 Cd1 2.240 . S
O11 C9 1.279 . S
O12 Cd2 2.297 . S
O12 C7 1.247 . S
O13 Cd2 2.439 . S
O13 C7 1.208 . S
O14 Cd15 2.223 1_556 S
O14 C22 1.315 . S
Cd15 O14 2.223 1_554 S
Cd15 O18 2.297 . S
Cd15 O19 2.439 . S
Cd15 O25 2.240 . S
Cd16 O17 2.240 . S
Cd16 O24 2.223 . S
Cd16 O26 2.297 . S
Cd16 O27 2.439 . S
O17 Cd16 2.240 . S
O17 C22 1.279 1_554 S
O18 Cd15 2.297 . S
O18 C20 1.245 . S
O19 Cd15 2.439 . S
O19 C20 1.208 . S
C20 O18 1.245 . S
C20 O19 1.208 . S
C21 O26 1.247 . S
C21 O27 1.208 . S
C22 O14 1.315 . S
C22 O17 1.279 1_556 S
C23 O24 1.315 . S
C23 O25 1.279 . S
O24 Cd16 2.223 . S
O24 C23 1.315 . S
O25 Cd15 2.240 . S
O25 C23 1.279 . S
O26 Cd16 2.297 . S
O26 C21 1.247 . S
O27 Cd16 2.439 . S
O27 C21 1.208 . S
O28 Cd29 2.223 . S
O28 C36 1.315 . S
Cd29 O28 2.223 . S
Cd29 O32 2.297 . S
Cd29 O33 2.439 . S
Cd29 O39 2.240 . S
Cd30 O31 2.240 . S
Cd30 O38 2.223 . S
Cd30 O40 2.297 . S
Cd30 O41 2.439 . S
O31 Cd30 2.240 . S
O31 C36 1.279 . S
O32 Cd29 2.297 . S
O32 C34 1.247 . S
O33 Cd29 2.439 . S
O33 C34 1.208 . S
C34 O32 1.247 . S
C34 O33 1.208 . S
C35 O40 1.247 . S
C35 O41 1.208 . S
C36 O28 1.315 . S
C36 O31 1.279 . S
C37 O38 1.315 . S
C37 O39 1.279 . S
O38 Cd30 2.223 . S
O38 C37 1.315 . S
O39 Cd29 2.240 . S
O39 C37 1.279 . S
O40 Cd30 2.297 . S
O40 C35 1.247 . S
O41 Cd30 2.439 . S
O41 C35 1.208 . S
O42 Cd43 2.223 . S
O42 C50 1.315 . S
Cd43 O42 2.223 . S
Cd43 O46 2.297 . S
Cd43 O47 2.439 . S
Cd43 O53 2.240 . S
Cd44 O45 2.240 . S
Cd44 O52 2.223 . S
Cd44 O54 2.297 . S
Cd44 O55 2.439 . S
O45 Cd44 2.240 . S
O45 C50 1.279 . S
O46 Cd43 2.297 . S
O46 C48 1.247 . S
O47 Cd43 2.439 . S
O47 C48 1.208 . S
C48 O46 1.247 . S
C48 O47 1.208 . S
C49 O54 1.247 . S
C49 O55 1.208 . S
C50 O42 1.315 . S
C50 O45 1.279 . S
C51 O52 1.315 . S
C51 O53 1.279 . S
O52 Cd44 2.223 . S
O52 C51 1.315 . S
O53 Cd43 2.240 . S
O53 C51 1.279 . S
O54 Cd44 2.297 . S
O54 C49 1.247 . S
O55 Cd44 2.439 . S
O55 C49 1.208 . S
O56 Cd57 2.223 1_556 S
O56 C64 1.315 . S
Cd57 O56 2.223 1_554 S
Cd57 O60 2.297 . S
Cd57 O61 2.439 . S
Cd57 O67 2.240 . S
Cd58 O59 2.240 . S
Cd58 O66 2.223 . S
Cd58 O68 2.297 . S
Cd58 O69 2.439 . S
O59 Cd58 2.240 . S
O59 C64 1.279 1_554 S
O60 Cd57 2.297 . S
O60 C62 1.245 . S
O61 Cd57 2.439 . S
O61 C62 1.208 . S
C62 O60 1.245 . S
C62 O61 1.208 . S
C63 O68 1.247 . S
C63 O69 1.208 . S
C64 O56 1.315 . S
C64 O59 1.279 1_556 S
C65 O66 1.315 . S
C65 O67 1.279 . S
O66 Cd58 2.223 . S
O66 C65 1.315 . S
O67 Cd57 2.240 . S
O67 C65 1.279 . S
O68 Cd58 2.297 . S
O68 C63 1.247 . S
O69 Cd58 2.439 . S
O69 C63 1.208 . S
O70 Cd71 2.223 1_556 S
O70 C78 1.315 . S
Cd71 O70 2.223 1_554 S
Cd71 O74 2.297 . S
Cd71 O75 2.439 . S
Cd71 O81 2.240 . S
Cd72 O73 2.240 . S
Cd72 O80 2.223 . S
Cd72 O82 2.297 . S
Cd72 O83 2.439 . S
O73 Cd72 2.240 . S
O73 C78 1.279 1_554 S
O74 Cd71 2.297 . S
O74 C76 1.245 . S
O75 Cd71 2.439 . S
O75 C76 1.208 . S
C76 O74 1.245 . S
C76 O75 1.208 . S
C77 O82 1.247 . S
C77 O83 1.208 . S
C78 O70 1.315 . S
C78 O73 1.279 1_556 S
C79 O80 1.315 . S
C79 O81 1.279 . S
O80 Cd72 2.223 . S
O80 C79 1.315 . S
O81 Cd71 2.240 . S
O81 C79 1.279 . S
O82 Cd72 2.297 . S
O82 C77 1.247 . S
O83 Cd72 2.439 . S
O83 C77 1.208 . S
O84 Cd85 2.223 . S
O84 C92 1.315 . S
Cd85 O84 2.223 . S
Cd85 O88 2.297 . S
Cd85 O89 2.439 . S
Cd85 O95 2.240 . S
Cd86 O87 2.240 . S
Cd86 O94 2.223 . S
Cd86 O96 2.297 . S
Cd86 O97 2.439 . S
O87 Cd86 2.240 . S
O87 C92 1.279 . S
O88 Cd85 2.297 . S
O88 C90 1.247 . S
O89 Cd85 2.439 . S
O89 C90 1.208 . S
C90 O88 1.247 . S
C90 O89 1.208 . S
C91 O96 1.247 . S
C91 O97 1.208 . S
C92 O84 1.315 . S
C92 O87 1.279 . S
C93 O94 1.315 . S
C93 O95 1.279 . S
O94 Cd86 2.223 . S
O94 C93 1.315 . S
O95 Cd85 2.240 . S
O95 C93 1.279 . S
O96 Cd86 2.297 . S
O96 C91 1.247 . S
O97 Cd86 2.439 . S
O97 C91 1.208 . S
O98 Cd99 2.223 . S
O98 C106 1.315 . S
Cd99 O98 2.223 . S
Cd99 O102 2.297 . S
Cd99 O103 2.439 . S
Cd99 O109 2.240 . S
Cd100 O101 2.240 . S
Cd100 O108 2.223 . S
Cd100 O110 2.297 . S
Cd100 O111 2.439 . S
O101 Cd100 2.240 . S
O101 C106 1.279 . S
O102 Cd99 2.297 . S
O102 C104 1.247 . S
O103 Cd99 2.439 . S
O103 C104 1.208 . S
C104 O102 1.247 . S
C104 O103 1.208 . S
C105 O110 1.247 . S
C105 O111 1.208 . S
C106 O98 1.315 . S
C106 O101 1.279 . S
C107 O108 1.315 . S
C107 O109 1.279 . S
O108 Cd100 2.223 . S
O108 C107 1.315 . S
O109 Cd99 2.240 . S
O109 C107 1.279 . S
O110 Cd100 2.297 . S
O110 C105 1.247 . S
O111 Cd100 2.439 . S
O111 C105 1.208 . S
C112 C113 1.386 . S
C112 C114 1.383 . S
C112 H128 0.951 1_554 S
C113 C112 1.386 . S
C113 C117 1.383 . S
C114 C112 1.383 . S
C114 C115 1.402 . S
C114 H129 0.951 1_554 S
C115 C114 1.402 . S
C115 C116 1.375 . S
C115 C118 1.481 . S
C116 C115 1.375 . S
C116 C117 1.367 . S
C116 H130 0.951 . S
C117 C113 1.383 . S
C117 C116 1.367 . S
C117 H131 0.950 . S
C118 C115 1.481 . S
C118 C119 1.297 . S
C118 H132 0.950 . S
C119 C118 1.297 . S
C119 C120 1.479 . S
C119 H133 0.950 . S
C120 C119 1.479 . S
C120 C121 1.375 . S
C120 C126 1.404 . S
C121 C120 1.375 . S
C121 C122 1.369 . S
C121 H134 0.950 1_554 S
C122 C121 1.369 . S
C122 C123 1.392 . S
C122 H135 0.951 1_554 S
C123 C122 1.392 . S
C123 C125 1.384 . S
H124 C126 0.949 . S
C125 C123 1.384 . S
C125 C126 1.385 . S
C125 H127 0.950 . S
C126 C120 1.404 . S
C126 H124 0.949 . S
C126 C125 1.385 . S
H127 C125 0.950 . S
H128 C112 0.951 1_556 S
H129 C114 0.951 1_556 S
H130 C116 0.951 . S
H131 C117 0.950 . S
H132 C118 0.950 . S
H133 C119 0.950 . S
H134 C121 0.950 1_556 S
H135 C122 0.951 1_556 S
C136 C137 1.386 . S
C136 C138 1.383 . S
C136 H152 0.951 . S
C137 C136 1.386 . S
C137 C141 1.383 . S
C138 C136 1.383 . S
C138 C139 1.402 . S
C138 H153 0.951 . S
C139 C138 1.402 . S
C139 C140 1.367 1_554 S
C139 C142 1.481 . S
C140 C139 1.367 1_556 S
C140 C141 1.366 1_556 S
C140 H154 0.961 . S
C141 C137 1.383 . S
C141 C140 1.366 1_554 S
C141 H155 0.950 1_554 S
C142 C139 1.481 . S
C142 C143 1.297 . S
C142 H156 0.951 . S
C143 C142 1.297 . S
C143 C144 1.479 . S
C143 H157 0.950 . S
C144 C143 1.479 . S
C144 C145 1.375 . S
C144 C150 1.404 . S
C145 C144 1.375 . S
C145 C146 1.369 . S
C145 H158 0.950 . S
C146 C145 1.369 . S
C146 C147 1.392 . S
C146 H159 0.951 . S
C147 C146 1.392 . S
C147 C149 1.384 . S
H148 C150 0.949 1_556 S
C149 C147 1.384 . S
C149 C150 1.385 . S
C149 H151 0.950 1_554 S
C150 C144 1.404 . S
C150 H148 0.949 1_554 S
C150 C149 1.385 . S
H151 C149 0.950 1_556 S
H152 C136 0.951 . S
H153 C138 0.951 . S
H154 C140 0.961 . S
H155 C141 0.950 1_556 S
H156 C142 0.951 . S
H157 C143 0.950 . S
H158 C145 0.950 . S
H159 C146 0.951 . S
C160 C161 1.386 . S
C160 C162 1.383 . S
C160 H176 0.951 . S
C161 C160 1.386 . S
C161 C165 1.383 . S
C162 C160 1.383 . S
C162 C163 1.402 . S
C162 H177 0.951 . S
C163 C162 1.402 . S
C163 C164 1.375 . S
C163 C166 1.481 . S
C164 C163 1.375 . S
C164 C165 1.367 . S
C164 H178 0.951 . S
C165 C161 1.383 . S
C165 C164 1.367 . S
C165 H179 0.950 . S
C166 C163 1.481 . S
C166 C167 1.297 . S
C166 H180 0.950 . S
C167 C166 1.297 . S
C167 C168 1.479 . S
C167 H181 0.950 . S
C168 C167 1.479 . S
C168 C169 1.375 . S
C168 C174 1.404 . S
C169 C168 1.375 . S
C169 C170 1.369 . S
C169 H182 0.950 . S
C170 C169 1.369 . S
C170 C171 1.392 . S
C170 H183 0.951 . S
C171 C170 1.392 . S
C171 C173 1.384 . S
H172 C174 0.949 . S
C173 C171 1.384 . S
C173 C174 1.385 . S
C173 H175 0.950 . S
C174 C168 1.404 . S
C174 H172 0.949 . S
C174 C173 1.385 . S
H175 C173 0.950 . S
H176 C160 0.951 . S
H177 C162 0.951 . S
H178 C164 0.951 . S
H179 C165 0.950 . S
H180 C166 0.950 . S
H181 C167 0.950 . S
H182 C169 0.950 . S
H183 C170 0.951 . S
C184 C185 1.386 . S
C184 C186 1.383 . S
C184 H200 0.951 . S
C185 C184 1.386 . S
C185 C189 1.383 . S
C186 C184 1.383 . S
C186 C187 1.402 . S
C186 H201 0.951 . S
C187 C186 1.402 . S
C187 C188 1.375 . S
C187 C190 1.481 . S
C188 C187 1.375 . S
C188 C189 1.367 . S
C188 H202 0.951 . S
C189 C185 1.383 . S
C189 C188 1.367 . S
C189 H203 0.950 . S
C190 C187 1.481 . S
C190 C191 1.297 . S
C190 H204 0.950 . S
C191 C190 1.297 . S
C191 C192 1.479 . S
C191 H205 0.950 . S
C192 C191 1.479 . S
C192 C193 1.375 . S
C192 C198 1.404 . S
C193 C192 1.375 . S
C193 C194 1.369 . S
C193 H206 0.950 . S
C194 C193 1.369 . S
C194 C195 1.392 . S
C194 H207 0.951 . S
C195 C194 1.392 . S
C195 C197 1.384 . S
H196 C198 0.949 . S
C197 C195 1.384 . S
C197 C198 1.385 . S
C197 H199 0.950 . S
C198 C192 1.404 . S
C198 H196 0.949 . S
C198 C197 1.385 . S
H199 C197 0.950 . S
H200 C184 0.951 . S
H201 C186 0.951 . S
H202 C188 0.951 . S
H203 C189 0.950 . S
H204 C190 0.950 . S
H205 C191 0.950 . S
H206 C193 0.950 . S
H207 C194 0.951 . S
C208 C209 1.386 . S
C208 C210 1.383 . S
C208 H224 0.951 . S
C209 C208 1.386 . S
C209 C213 1.383 . S
C210 C208 1.383 . S
C210 C211 1.402 . S
C210 H225 0.951 . S
C211 C210 1.402 . S
C211 C212 1.375 . S
C211 C214 1.481 . S
C212 C211 1.375 . S
C212 C213 1.367 . S
C212 H226 0.951 . S
C213 C209 1.383 . S
C213 C212 1.367 . S
C213 H227 0.950 . S
C214 C211 1.481 . S
C214 C215 1.297 . S
C214 H228 0.950 . S
C215 C214 1.297 . S
C215 C216 1.479 . S
C215 H229 0.950 . S
C216 C215 1.479 . S
C216 C217 1.375 . S
C216 C222 1.404 . S
C217 C216 1.375 . S
C217 C218 1.369 . S
C217 H230 0.950 . S
C218 C217 1.369 . S
C218 C219 1.392 . S
C218 H231 0.951 . S
C219 C218 1.392 . S
C219 C221 1.384 . S
H220 C222 0.949 . S
C221 C219 1.384 . S
C221 C222 1.385 . S
C221 H223 0.950 . S
C222 C216 1.404 . S
C222 H220 0.949 . S
C222 C221 1.385 . S
H223 C221 0.950 . S
H224 C208 0.951 . S
H225 C210 0.951 . S
H226 C212 0.951 . S
H227 C213 0.950 . S
H228 C214 0.950 . S
H229 C215 0.950 . S
H230 C217 0.950 . S
H231 C218 0.951 . S
C232 C233 1.386 . S
C232 C234 1.383 . S
C232 H248 0.951 . S
C233 C232 1.386 . S
C233 C237 1.383 . S
C234 C232 1.383 . S
C234 C235 1.402 . S
C234 H249 0.951 . S
C235 C234 1.402 . S
C235 C236 1.375 . S
C235 C238 1.481 . S
C236 C235 1.375 . S
C236 C237 1.367 . S
C236 H250 0.951 . S
C237 C233 1.383 . S
C237 C236 1.367 . S
C237 H251 0.950 . S
C238 C235 1.481 . S
C238 C239 1.297 . S
C238 H252 0.950 . S
C239 C238 1.297 . S
C239 C240 1.479 . S
C239 H253 0.950 . S
C240 C239 1.479 . S
C240 C241 1.375 . S
C240 C246 1.404 . S
C241 C240 1.375 . S
C241 C242 1.369 . S
C241 H254 0.950 . S
C242 C241 1.369 . S
C242 C243 1.392 . S
C242 H255 0.951 . S
C243 C242 1.392 . S
C243 C245 1.384 . S
H244 C246 0.949 . S
C245 C243 1.384 . S
C245 C246 1.385 . S
C245 H247 0.950 . S
C246 C240 1.404 . S
C246 H244 0.949 . S
C246 C245 1.385 . S
H247 C245 0.950 . S
H248 C232 0.951 . S
H249 C234 0.951 . S
H250 C236 0.951 . S
H251 C237 0.950 . S
H252 C238 0.950 . S
H253 C239 0.950 . S
H254 C241 0.950 . S
H255 C242 0.951 . S
C256 C257 1.386 . S
C256 C258 1.383 . S
C256 H272 0.951 . S
C257 C256 1.386 . S
C257 C261 1.383 . S
C258 C256 1.383 . S
C258 C259 1.402 . S
C258 H273 0.951 . S
C259 C258 1.402 . S
C259 C260 1.375 . S
C259 C262 1.481 . S
C260 C259 1.375 . S
C260 C261 1.367 . S
C260 H274 0.951 . S
C261 C257 1.383 . S
C261 C260 1.367 . S
C261 H275 0.950 . S
C262 C259 1.481 . S
C262 C263 1.297 . S
C262 H276 0.950 . S
C263 C262 1.297 . S
C263 C264 1.479 . S
C263 H277 0.950 . S
C264 C263 1.479 . S
C264 C265 1.375 . S
C264 C270 1.404 . S
C265 C264 1.375 . S
C265 C266 1.369 . S
C265 H278 0.950 . S
C266 C265 1.369 . S
C266 C267 1.392 . S
C266 H279 0.951 . S
C267 C266 1.392 . S
C267 C269 1.384 . S
H268 C270 0.949 . S
C269 C267 1.384 . S
C269 C270 1.385 . S
C269 H271 0.950 . S
C270 C264 1.404 . S
C270 H268 0.949 . S
C270 C269 1.385 . S
H271 C269 0.950 . S
H272 C256 0.951 . S
H273 C258 0.951 . S
H274 C260 0.951 . S
H275 C261 0.950 . S
H276 C262 0.950 . S
H277 C263 0.950 . S
H278 C265 0.950 . S
H279 C266 0.951 . S
C280 C281 1.386 . S
C280 C282 1.383 . S
C280 H296 0.951 . S
C281 C280 1.386 . S
C281 C285 1.383 . S
C282 C280 1.383 . S
C282 C283 1.402 . S
C282 H297 0.951 . S
C283 C282 1.402 . S
C283 C284 1.375 . S
C283 C286 1.481 . S
C284 C283 1.375 . S
C284 C285 1.367 . S
C284 H298 0.951 . S
C285 C281 1.383 . S
C285 C284 1.367 . S
C285 H299 0.950 . S
C286 C283 1.481 . S
C286 C287 1.297 . S
C286 H300 0.950 . S
C287 C286 1.297 . S
C287 C288 1.479 . S
C287 H301 0.950 . S
C288 C287 1.479 . S
C288 C289 1.375 . S
C288 C294 1.404 . S
C289 C288 1.375 . S
C289 C290 1.369 . S
C289 H302 0.950 . S
C290 C289 1.369 . S
C290 C291 1.392 . S
C290 H303 0.951 . S
C291 C290 1.392 . S
C291 C293 1.384 . S
H292 C294 0.949 . S
C293 C291 1.384 . S
C293 C294 1.385 . S
C293 H295 0.950 . S
C294 C288 1.404 . S
C294 H292 0.949 . S
C294 C293 1.385 . S
H295 C293 0.950 . S
H296 C280 0.951 . S
H297 C282 0.951 . S
H298 C284 0.951 . S
H299 C285 0.950 . S
H300 C286 0.950 . S
H301 C287 0.950 . S
H302 C289 0.950 . S
H303 C290 0.951 . S
C304 C305 1.386 . S
C304 C306 1.383 . S
C304 H320 0.951 . S
C305 C304 1.386 . S
C305 C309 1.383 . S
C306 C304 1.383 . S
C306 C307 1.402 . S
C306 H321 0.951 . S
C307 C306 1.402 . S
C307 C308 1.375 1_565 S
C307 C310 1.481 1_565 S
C308 C307 1.375 1_545 S
C308 C309 1.367 1_545 S
C308 H322 0.951 . S
C309 C305 1.383 . S
C309 C308 1.367 1_565 S
C309 H323 0.950 1_565 S
C310 C307 1.481 1_545 S
C310 C311 1.297 . S
C310 H324 0.950 . S
C311 C310 1.297 . S
C311 C312 1.479 . S
C311 H325 0.950 1_545 S
C312 C311 1.479 . S
C312 C313 1.375 . S
C312 C318 1.404 . S
C313 C312 1.375 . S
C313 C314 1.369 . S
C313 H326 0.950 1_545 S
C314 C313 1.369 . S
C314 C315 1.392 . S
C314 H327 0.951 1_545 S
C315 C314 1.392 . S
C315 C317 1.384 . S
H316 C318 0.949 . S
C317 C315 1.384 . S
C317 C318 1.385 . S
C317 H319 0.950 . S
C318 C312 1.404 . S
C318 H316 0.949 . S
C318 C317 1.385 . S
H319 C317 0.950 . S
H320 C304 0.951 . S
H321 C306 0.951 . S
H322 C308 0.951 . S
H323 C309 0.950 1_545 S
H324 C310 0.950 . S
H325 C311 0.950 1_565 S
H326 C313 0.950 1_565 S
H327 C314 0.951 1_565 S
C328 C329 1.386 . S
C328 C330 1.383 . S
C328 H344 0.951 . S
C329 C328 1.386 . S
C329 C333 1.383 . S
C330 C328 1.383 . S
C330 C331 1.402 . S
C330 H345 0.951 . S
C331 C330 1.402 . S
C331 C332 1.376 . S
C331 C334 1.481 1_565 S
C332 C331 1.376 . S
C332 C333 1.371 . S
C332 H346 0.945 1_565 S
C333 C329 1.383 . S
C333 C332 1.371 . S
C333 H347 0.950 . S
C334 C331 1.481 1_545 S
C334 C335 1.297 . S
C334 H348 0.950 . S
C335 C334 1.297 . S
C335 C336 1.479 . S
C335 H349 0.950 . S
C336 C335 1.479 . S
C336 C337 1.375 . S
C336 C342 1.404 . S
C337 C336 1.375 . S
C337 C338 1.369 . S
C337 H350 0.950 . S
C338 C337 1.369 . S
C338 C339 1.392 . S
C338 H351 0.951 . S
C339 C338 1.392 . S
C339 C341 1.384 . S
H340 C342 0.949 . S
C341 C339 1.384 . S
C341 C342 1.385 . S
C341 H343 0.950 . S
C342 C336 1.404 . S
C342 H340 0.949 . S
C342 C341 1.385 . S
H343 C341 0.950 . S
H344 C328 0.951 . S
H345 C330 0.951 . S
H346 C332 0.945 1_545 S
H347 C333 0.950 . S
H348 C334 0.950 . S
H349 C335 0.950 . S
H350 C337 0.950 . S
H351 C338 0.951 . S
C352 C353 1.386 . S
C352 C354 1.383 . S
C352 H368 0.951 . S
C353 C352 1.386 . S
C353 C357 1.383 . S
C354 C352 1.383 . S
C354 C355 1.402 . S
C354 H369 0.951 . S
C355 C354 1.402 . S
C355 C356 1.375 . S
C355 C358 1.481 1_565 S
C356 C355 1.375 . S
C356 C357 1.367 . S
C356 H370 0.951 1_565 S
C357 C353 1.383 . S
C357 C356 1.367 . S
C357 H371 0.950 . S
C358 C355 1.481 1_545 S
C358 C359 1.297 1_545 S
C358 H372 0.950 . S
C359 C358 1.297 1_565 S
C359 C360 1.479 1_565 S
C359 H373 0.950 . S
C360 C359 1.479 1_545 S
C360 C361 1.375 1_545 S
C360 C366 1.404 . S
C361 C360 1.375 1_565 S
C361 C362 1.369 1_565 S
C361 H374 0.950 . S
C362 C361 1.369 1_545 S
C362 C363 1.392 . S
C362 H375 0.951 . S
C363 C362 1.392 . S
C363 C365 1.384 . S
H364 C366 0.949 . S
C365 C363 1.384 . S
C365 C366 1.385 . S
C365 H367 0.950 . S
C366 C360 1.404 . S
C366 H364 0.949 . S
C366 C365 1.385 . S
H367 C365 0.950 . S
H368 C352 0.951 . S
H369 C354 0.951 . S
H370 C356 0.951 1_545 S
H371 C357 0.950 . S
H372 C358 0.950 . S
H373 C359 0.950 . S
H374 C361 0.950 . S
H375 C362 0.951 . S
C376 C377 1.386 . S
C376 C378 1.383 . S
C376 H392 0.951 . S
C377 C376 1.386 . S
C377 C381 1.383 . S
C378 C376 1.383 . S
C378 C379 1.402 . S
C378 H393 0.951 1_565 S
C379 C378 1.402 . S
C379 C380 1.375 . S
C379 C382 1.481 . S
C380 C379 1.375 . S
C380 C381 1.367 . S
C380 H394 0.951 . S
C381 C377 1.383 . S
C381 C380 1.367 . S
C381 H395 0.950 . S
C382 C379 1.481 . S
C382 C383 1.297 1_565 S
C382 H396 0.950 . S
C383 C382 1.297 1_545 S
C383 C384 1.479 . S
C383 H397 0.950 . S
C384 C383 1.479 . S
C384 C385 1.375 . S
C384 C390 1.404 . S
C385 C384 1.375 . S
C385 C386 1.369 . S
C385 H398 0.950 . S
C386 C385 1.369 . S
C386 C387 1.392 . S
C386 H399 0.951 . S
C387 C386 1.392 . S
C387 C389 1.384 . S
H388 C390 0.949 1_565 S
C389 C387 1.384 . S
C389 C390 1.385 . S
C389 H391 0.950 . S
C390 C384 1.404 . S
C390 H388 0.949 1_545 S
C390 C389 1.385 . S
H391 C389 0.950 . S
H392 C376 0.951 . S
H393 C378 0.951 1_545 S
H394 C380 0.951 . S
H395 C381 0.950 . S
H396 C382 0.950 . S
H397 C383 0.950 . S
H398 C385 0.950 . S
H399 C386 0.951 . S
C400 C401 1.386 . S
C400 C402 1.383 . S
C400 H416 0.951 . S
C401 C400 1.386 . S
C401 C405 1.383 . S
C402 C400 1.383 . S
C402 C403 1.402 . S
C402 H417 0.951 1_565 S
C403 C402 1.402 . S
C403 C404 1.375 . S
C403 C406 1.481 . S
C404 C403 1.375 . S
C404 C405 1.367 . S
C404 H418 0.951 . S
C405 C401 1.383 . S
C405 C404 1.367 . S
C405 H419 0.950 . S
C406 C403 1.481 . S
C406 C407 1.297 1_565 S
C406 H420 0.950 . S
C407 C406 1.297 1_545 S
C407 C408 1.479 . S
C407 H421 0.950 . S
C408 C407 1.479 . S
C408 C409 1.375 . S
C408 C414 1.404 . S
C409 C408 1.375 . S
C409 C410 1.369 . S
C409 H422 0.950 . S
C410 C409 1.369 . S
C410 C411 1.392 . S
C410 H423 0.951 . S
C411 C410 1.392 . S
C411 C413 1.384 . S
H412 C414 0.949 1_565 S
C413 C411 1.384 . S
C413 C414 1.385 . S
C413 H415 0.950 . S
C414 C408 1.404 . S
C414 H412 0.949 1_545 S
C414 C413 1.385 . S
H415 C413 0.950 . S
H416 C400 0.951 . S
H417 C402 0.951 1_545 S
H418 C404 0.951 . S
H419 C405 0.950 . S
H420 C406 0.950 . S
H421 C407 0.950 . S
H422 C409 0.950 . S
H423 C410 0.951 . S
C424 C425 1.386 . S
C424 C426 1.383 . S
C424 H440 0.951 . S
C425 C424 1.386 . S
C425 C429 1.383 . S
C426 C424 1.383 . S
C426 C427 1.402 . S
C426 H441 0.951 . S
C427 C426 1.402 . S
C427 C428 1.375 . S
C427 C430 1.481 . S
C428 C427 1.375 . S
C428 C429 1.367 . S
C428 H442 0.951 . S
C429 C425 1.383 . S
C429 C428 1.367 . S
C429 H443 0.950 . S
C430 C427 1.481 . S
C430 C431 1.297 . S
C430 H444 0.950 1_565 S
C431 C430 1.297 . S
C431 C432 1.479 1_565 S
C431 H445 0.950 . S
C432 C431 1.479 1_545 S
C432 C433 1.375 . S
C432 C438 1.404 . S
C433 C432 1.375 . S
C433 C434 1.369 . S
C433 H446 0.950 1_545 S
C434 C433 1.369 . S
C434 C435 1.392 . S
C434 H447 0.951 . S
C435 C434 1.392 . S
C435 C437 1.384 . S
H436 C438 0.949 . S
C437 C435 1.384 . S
C437 C438 1.385 . S
C437 H439 0.950 . S
C438 C432 1.404 . S
C438 H436 0.949 . S
C438 C437 1.385 . S
H439 C437 0.950 . S
H440 C424 0.951 . S
H441 C426 0.951 . S
H442 C428 0.951 . S
H443 C429 0.950 . S
H444 C430 0.950 1_545 S
H445 C431 0.950 . S
H446 C433 0.950 1_565 S
H447 C434 0.951 . S
C448 C449 1.386 . S
C448 C450 1.383 . S
C448 H464 0.951 1_554 S
C449 C448 1.386 . S
C449 C453 1.383 . S
C450 C448 1.383 . S
C450 C451 1.402 . S
C450 H465 0.951 1_554 S
C451 C450 1.402 . S
C451 C452 1.375 . S
C451 C454 1.481 . S
C452 C451 1.375 . S
C452 C453 1.367 . S
C452 H466 0.951 . S
C453 C449 1.383 . S
C453 C452 1.367 . S
C453 H467 0.950 . S
C454 C451 1.481 . S
C454 C455 1.297 1_455 S
C454 H468 0.950 . S
C455 C454 1.297 1_655 S
C455 C456 1.479 . S
C455 H469 0.950 1_554 S
C456 C455 1.479 . S
C456 C457 1.375 1_554 S
C456 C462 1.404 . S
C457 C456 1.375 1_556 S
C457 C458 1.369 1_556 S
C457 H470 0.950 . S
C458 C457 1.369 1_554 S
C458 C459 1.392 . S
C458 H471 0.951 1_554 S
C459 C458 1.392 . S
C459 C461 1.384 . S
H460 C462 0.949 . S
C461 C459 1.384 . S
C461 C462 1.385 . S
C461 H463 0.950 . S
C462 C456 1.404 . S
C462 H460 0.949 . S
C462 C461 1.385 . S
H463 C461 0.950 . S
H464 C448 0.951 1_556 S
H465 C450 0.951 1_556 S
H466 C452 0.951 . S
H467 C453 0.950 . S
H468 C454 0.950 . S
H469 C455 0.950 1_556 S
H470 C457 0.950 . S
H471 C458 0.951 1_556 S
C472 C473 1.386 . S
C472 C474 1.383 . S
C472 H488 0.951 . S
C473 C472 1.386 . S
C473 C477 1.383 . S
C474 C472 1.383 . S
C474 C475 1.402 . S
C474 H489 0.951 . S
C475 C474 1.402 . S
C475 C476 1.375 . S
C475 C478 1.481 . S
C476 C475 1.375 . S
C476 C477 1.367 . S
C476 H490 0.951 . S
C477 C473 1.383 . S
C477 C476 1.367 . S
C477 H491 0.950 . S
C478 C475 1.481 . S
C478 C479 1.297 1_455 S
C478 H492 0.950 . S
C479 C478 1.297 1_655 S
C479 C480 1.479 . S
C479 H493 0.950 1_655 S
C480 C479 1.479 . S
C480 C481 1.375 . S
C480 C486 1.404 . S
C481 C480 1.375 . S
C481 C482 1.369 . S
C481 H494 0.950 . S
C482 C481 1.369 . S
C482 C483 1.392 . S
C482 H495 0.951 . S
C483 C482 1.392 . S
C483 C485 1.384 . S
H484 C486 0.949 . S
C485 C483 1.384 . S
C485 C486 1.385 . S
C485 H487 0.950 . S
C486 C480 1.404 . S
C486 H484 0.949 . S
C486 C485 1.385 . S
H487 C485 0.950 . S
H488 C472 0.951 . S
H489 C474 0.951 . S
H490 C476 0.951 . S
H491 C477 0.950 . S
H492 C478 0.950 . S
H493 C479 0.950 1_455 S
H494 C481 0.950 . S
H495 C482 0.951 . S
C113 C79 1.465 . S
C123 C9 1.502 . S
C137 C65 1.504 . S
C147 C23 1.442 . S
C161 C107 1.463 . S
C171 C37 1.509 . S
C185 C93 1.499 . S
C195 C51 1.457 . S
C209 C7 1.528 . S
C219 C35 1.491 . S
C233 C21 1.498 . S
C243 C49 1.497 . S
C257 C22 1.530 . S
C267 C50 1.547 . S
C281 C8 1.521 . S
C291 C36 1.549 . S
C305 C63 1.497 . S
C315 C91 1.509 . S
C329 C105 1.501 . S
C339 C77 1.523 . S
C353 C106 1.539 . S
C363 C78 1.534 . S
C377 C64 1.526 . S
C387 C92 1.534 . S
C401 C20 1.529 . S
C411 C6 1.508 . S
C425 C34 1.504 . S
C435 C48 1.477 . S
C449 C62 1.494 . S
C459 C76 1.511 . S
C473 C90 1.500 . S
C483 C104 1.528 . S
