# Generated by pormake.
# Topology umz, (4)-cn, num edge types: 1
# Building blocks:
#     Node 0, Type 0, BuildingBlock: GALJAG_clean_sbu_0, # of connection points: 4
#     Node 1, Type 0, BuildingBlock: GALJAG_clean_sbu_0, # of connection points: 4
#     Node 2, Type 0, BuildingBlock: GALJAG_clean_sbu_0, # of connection points: 4
#     Node 3, Type 0, BuildingBlock: GALJAG_clean_sbu_0, # of connection points: 4
#     Node 4, Type 0, BuildingBlock: GALJAG_clean_sbu_0, # of connection points: 4
#     Node 5, Type 0, BuildingBlock: GALJAG_clean_sbu_0, # of connection points: 4
#     Node 6, Type 0, BuildingBlock: GALJAG_clean_sbu_0, # of connection points: 4
#     Node 7, Type 0, BuildingBlock: GALJAG_clean_sbu_0, # of connection points: 4
#     Node 8, Type 0, BuildingBlock: GALJAG_clean_sbu_0, # of connection points: 4
#     Node 9, Type 0, BuildingBlock: GALJAG_clean_sbu_0, # of connection points: 4
#     Node 10, Type 0, BuildingBlock: GALJAG_clean_sbu_0, # of connection points: 4
#     Node 11, Type 0, BuildingBlock: GALJAG_clean_sbu_0, # of connection points: 4
#     Node 12, Type 0, BuildingBlock: GALJAG_clean_sbu_0, # of connection points: 4
#     Node 13, Type 0, BuildingBlock: GALJAG_clean_sbu_0, # of connection points: 4
#     Node 14, Type 0, BuildingBlock: GALJAG_clean_sbu_0, # of connection points: 4
#     Node 15, Type 0, BuildingBlock: GALJAG_clean_sbu_0, # of connection points: 4
#     Edge 16, Type (0, 0), BuildingBlock: CIFDUS_clean_linker_0, # of connection points: 2
#     Edge 17, Type (0, 0), BuildingBlock: CIFDUS_clean_linker_0, # of connection points: 2
#     Edge 18, Type (0, 0), BuildingBlock: CIFDUS_clean_linker_0, # of connection points: 2
#     Edge 19, Type (0, 0), BuildingBlock: CIFDUS_clean_linker_0, # of connection points: 2
#     Edge 20, Type (0, 0), BuildingBlock: CIFDUS_clean_linker_0, # of connection points: 2
#     Edge 21, Type (0, 0), BuildingBlock: CIFDUS_clean_linker_0, # of connection points: 2
#     Edge 22, Type (0, 0), BuildingBlock: CIFDUS_clean_linker_0, # of connection points: 2
#     Edge 23, Type (0, 0), BuildingBlock: CIFDUS_clean_linker_0, # of connection points: 2
#     Edge 24, Type (0, 0), BuildingBlock: CIFDUS_clean_linker_0, # of connection points: 2
#     Edge 25, Type (0, 0), BuildingBlock: CIFDUS_clean_linker_0, # of connection points: 2
#     Edge 26, Type (0, 0), BuildingBlock: CIFDUS_clean_linker_0, # of connection points: 2
#     Edge 27, Type (0, 0), BuildingBlock: CIFDUS_clean_linker_0, # of connection points: 2
#     Edge 28, Type (0, 0), BuildingBlock: CIFDUS_clean_linker_0, # of connection points: 2
#     Edge 29, Type (0, 0), BuildingBlock: CIFDUS_clean_linker_0, # of connection points: 2
#     Edge 30, Type (0, 0), BuildingBlock: CIFDUS_clean_linker_0, # of connection points: 2
#     Edge 31, Type (0, 0), BuildingBlock: CIFDUS_clean_linker_0, # of connection points: 2
#     Edge 32, Type (0, 0), BuildingBlock: CIFDUS_clean_linker_0, # of connection points: 2
#     Edge 33, Type (0, 0), BuildingBlock: CIFDUS_clean_linker_0, # of connection points: 2
#     Edge 34, Type (0, 0), BuildingBlock: CIFDUS_clean_linker_0, # of connection points: 2
#     Edge 35, Type (0, 0), BuildingBlock: CIFDUS_clean_linker_0, # of connection points: 2
#     Edge 36, Type (0, 0), BuildingBlock: CIFDUS_clean_linker_0, # of connection points: 2
#     Edge 37, Type (0, 0), BuildingBlock: CIFDUS_clean_linker_0, # of connection points: 2
#     Edge 38, Type (0, 0), BuildingBlock: CIFDUS_clean_linker_0, # of connection points: 2
#     Edge 39, Type (0, 0), BuildingBlock: CIFDUS_clean_linker_0, # of connection points: 2
#     Edge 40, Type (0, 0), BuildingBlock: CIFDUS_clean_linker_0, # of connection points: 2
#     Edge 41, Type (0, 0), BuildingBlock: CIFDUS_clean_linker_0, # of connection points: 2
#     Edge 42, Type (0, 0), BuildingBlock: CIFDUS_clean_linker_0, # of connection points: 2
#     Edge 43, Type (0, 0), BuildingBlock: CIFDUS_clean_linker_0, # of connection points: 2
#     Edge 44, Type (0, 0), BuildingBlock: CIFDUS_clean_linker_0, # of connection points: 2
#     Edge 45, Type (0, 0), BuildingBlock: CIFDUS_clean_linker_0, # of connection points: 2
#     Edge 46, Type (0, 0), BuildingBlock: CIFDUS_clean_linker_0, # of connection points: 2
#     Edge 47, Type (0, 0), BuildingBlock: CIFDUS_clean_linker_0, # of connection points: 2
# Relax obj value: 0.183
# Max RMSD: 0.169
# Mean RMSD: 0.169
data_MOF--net-umz--node1-GALJAG_clean_sbu_0--edge1-CIFDUS_clean_linker_0
_symmetry_space_group_name_H-M    P1
_symmetry_Int_Tables_number       1
_symmetry_cell_setting            triclinic
loop_
_symmetry_equiv_pos_as_xyz
'x, y, z'
_cell_length_a     49.575016
_cell_length_b     49.543299
_cell_length_c     21.971575
_cell_angle_alpha  89.92484
_cell_angle_beta   89.991591
_cell_angle_gamma 90.070445
loop_
_atom_site_label
_atom_site_type_symbol
_atom_site_fract_x
_atom_site_fract_y
_atom_site_fract_z
_atom_type_partial_charge
In0 In 0.03122 0.63177 0.20294 0.0
O1 O 0.05062 0.59669 0.15252 0.0
O2 O 0.06914 0.63522 0.14414 0.0
C3 C 0.98965 0.59686 0.21544 0.0
C4 C 0.01622 0.67672 0.14237 0.0
C5 C 0.04956 0.63863 0.31799 0.0
O6 O 0.01379 0.59063 0.22646 0.0
O7 O 0.98634 0.62071 0.19665 0.0
O8 O 0.025 0.64032 0.30393 0.0
O9 O 0.06515 0.63493 0.27345 0.0
C10 C 0.06919 0.61066 0.12902 0.0
O11 O 0.02163 0.67693 0.19855 0.0
O12 O 0.01764 0.65385 0.11752 0.0
In13 In 0.87881 0.03261 0.61488 0.0
O14 O 0.83375 0.04096 0.62521 0.0
O15 O 0.84684 0.01662 0.55098 0.0
C16 C 0.9024 0.06139 0.70337 0.0
C17 C 0.89784 0.05974 0.51785 0.0
C18 C 0.88987 0.98424 0.66521 0.0
O19 O 0.87707 0.06142 0.69581 0.0
O20 O 0.9155 0.04751 0.66535 0.0
O21 O 0.90079 0.99183 0.616 0.0
O22 O 0.87279 0.00044 0.68673 0.0
C23 C 0.8274 0.02764 0.57829 0.0
O24 O 0.90186 0.03469 0.52495 0.0
O25 O 0.88464 0.07093 0.55997 0.0
In26 In 0.47399 0.86586 0.11633 0.0
O27 O 0.46577 0.82151 0.13928 0.0
O28 O 0.48111 0.83104 0.05152 0.0
C29 C 0.44912 0.89153 0.20832 0.0
C30 C 0.44618 0.88583 0.02167 0.0
C31 C 0.52553 0.87695 0.14685 0.0
O32 O 0.44751 0.86626 0.20121 0.0
O33 O 0.46269 0.90375 0.16826 0.0
O34 O 0.51494 0.88544 0.09828 0.0
O35 O 0.51051 0.8619 0.1784 0.0
C36 C 0.47291 0.81306 0.08758 0.0
O37 O 0.4715 0.88794 0.02611 0.0
O38 O 0.43477 0.874 0.06567 0.0
In39 In 0.62605 0.48184 0.61123 0.0
O40 O 0.67166 0.47478 0.61694 0.0
O41 O 0.6566 0.49836 0.54376 0.0
C42 C 0.60852 0.45026 0.7035 0.0
C43 C 0.60233 0.45969 0.51261 0.0
C44 C 0.61364 0.53029 0.65944 0.0
O45 O 0.63276 0.45024 0.68575 0.0
O46 O 0.59302 0.46521 0.67289 0.0
O47 O 0.60496 0.52263 0.60836 0.0
O48 O 0.62969 0.51408 0.68479 0.0
C49 C 0.67679 0.48768 0.56875 0.0
O50 O 0.59617 0.48269 0.53288 0.0
O51 O 0.61976 0.44722 0.54367 0.0
In52 In 0.02219 0.85237 0.87343 0.0
O53 O 0.02295 0.87742 0.9602 0.0
O54 O 0.05969 0.85922 0.93159 0.0
C55 C 0.97654 0.8698 0.81946 0.0
C56 C 0.01362 0.80216 0.91717 0.0
C57 C 0.05337 0.86973 0.78132 0.0
O58 O 0.98479 0.87918 0.86954 0.0
O59 O 0.99024 0.8504 0.79905 0.0
O60 O 0.04967 0.84484 0.79155 0.0
O61 O 0.0425 0.88541 0.81931 0.0
C62 C 0.04768 0.87346 0.97074 0.0
O63 O 0.02955 0.8067 0.87346 0.0
O64 O 0.00135 0.82265 0.9367 0.0
In65 In 0.63598 0.02003 0.36433 0.0
O66 O 0.61096 0.02226 0.45059 0.0
O67 O 0.62699 0.05905 0.41565 0.0
C68 C 0.62184 0.96935 0.33245 0.0
C69 C 0.68765 0.01688 0.40244 0.0
C70 C 0.61728 0.04795 0.26781 0.0
O71 O 0.61299 0.98071 0.37968 0.0
O72 O 0.63863 0.98314 0.30259 0.0
O73 O 0.64153 0.04948 0.28521 0.0
O74 O 0.60243 0.03304 0.30022 0.0
C75 C 0.61366 0.04744 0.45715 0.0
O76 O 0.6817 0.0219 0.34779 0.0
O77 O 0.66776 0.0129 0.43678 0.0
In78 In 0.46215 0.61544 0.90477 0.0
O79 O 0.453 0.65992 0.88532 0.0
O80 O 0.47238 0.64967 0.96861 0.0
C81 C 0.4376 0.58923 0.81294 0.0
C82 C 0.43504 0.59598 0.00115 0.0
C83 C 0.51346 0.60585 0.87065 0.0
O84 O 0.43539 0.61447 0.82 0.0
O85 O 0.45149 0.5774 0.85299 0.0
O86 O 0.50315 0.59521 0.91744 0.0
O87 O 0.49819 0.62195 0.84265 0.0
C88 C 0.46285 0.66797 0.93514 0.0
O89 O 0.46027 0.59347 0.9952 0.0
O90 O 0.42334 0.60794 0.95776 0.0
In91 In 0.84654 0.4411 0.30398 0.0
O92 O 0.80212 0.45326 0.3025 0.0
O93 O 0.82559 0.46401 0.3799 0.0
C94 C 0.84242 0.41874 0.19182 0.0
C95 C 0.85821 0.40333 0.38823 0.0
C96 C 0.88627 0.47835 0.2944 0.0
O97 O 0.84309 0.40476 0.23969 0.0
O98 O 0.84264 0.4438 0.20082 0.0
O99 O 0.89061 0.45411 0.30875 0.0
O100 O 0.86177 0.48405 0.28604 0.0
C101 C 0.8028 0.46419 0.3544 0.0
O102 O 0.87615 0.41549 0.35791 0.0
O103 O 0.83429 0.40963 0.3747 0.0
In104 In 0.94473 0.36466 0.80107 0.0
O105 O 0.92273 0.39808 0.85077 0.0
O106 O 0.90775 0.35811 0.86177 0.0
C107 C 0.98052 0.40494 0.78156 0.0
C108 C 0.96618 0.32299 0.86374 0.0
C109 C 0.92572 0.35292 0.68877 0.0
O110 O 0.95553 0.40744 0.77324 0.0
O111 O 0.98771 0.38203 0.80087 0.0
O112 O 0.95047 0.35355 0.70143 0.0
O113 O 0.91036 0.35687 0.73361 0.0
C114 C 0.90561 0.38276 0.87556 0.0
O115 O 0.96126 0.32174 0.80746 0.0
O116 O 0.96087 0.34538 0.8881 0.0
In117 In 0.12003 0.96649 0.37574 0.0
O118 O 0.16055 0.94698 0.39939 0.0
O119 O 0.1595 0.98943 0.38808 0.0
C120 C 0.09769 0.93826 0.28341 0.0
C121 C 0.10136 0.9476 0.48296 0.0
C122 C 0.1043 0.01577 0.33943 0.0
O123 O 0.12289 0.9416 0.28783 0.0
O124 O 0.08418 0.94836 0.32627 0.0
O125 O 0.09738 0.0059 0.39024 0.0
O126 O 0.11939 0.00086 0.30761 0.0
C127 C 0.17325 0.96898 0.40159 0.0
O128 O 0.10135 0.97241 0.46971 0.0
O129 O 0.11021 0.93235 0.44163 0.0
In130 In 0.52785 0.12485 0.8629 0.0
O131 O 0.54996 0.16506 0.87169 0.0
O132 O 0.50992 0.16255 0.90569 0.0
C133 C 0.55606 0.10079 0.77345 0.0
C134 C 0.54463 0.10138 0.96701 0.0
C135 C 0.47982 0.11652 0.80878 0.0
O136 O 0.55386 0.12614 0.77708 0.0
O137 O 0.54505 0.08785 0.81628 0.0
O138 O 0.4854 0.10698 0.86066 0.0
O139 O 0.4979 0.13136 0.78599 0.0
C140 C 0.53085 0.17672 0.89892 0.0
O141 O 0.56027 0.11404 0.93179 0.0
O142 O 0.52044 0.10006 0.94919 0.0
In143 In 0.35818 0.50656 0.40357 0.0
O144 O 0.38141 0.5077 0.49306 0.0
O145 O 0.36426 0.54435 0.45993 0.0
C146 C 0.37185 0.45888 0.35363 0.0
C147 C 0.30702 0.50324 0.44296 0.0
C148 C 0.38114 0.53585 0.31467 0.0
O149 O 0.38251 0.46742 0.4022 0.0
O150 O 0.35299 0.47339 0.33341 0.0
O151 O 0.35578 0.53354 0.31911 0.0
O152 O 0.39442 0.52428 0.3561 0.0
C153 C 0.37749 0.53267 0.50141 0.0
O154 O 0.31338 0.51665 0.39611 0.0
O155 O 0.32617 0.49059 0.4677 0.0
In156 In 0.97972 0.14419 0.11326 0.0
O157 O 0.97844 0.12215 0.02301 0.0
O158 O 0.94179 0.13931 0.05538 0.0
C159 C 0.02809 0.12664 0.15197 0.0
C160 C 0.98402 0.19658 0.081 0.0
C161 C 0.95245 0.11957 0.20368 0.0
O162 O 0.01866 0.1207 0.10036 0.0
O163 O 0.0139 0.14287 0.1824 0.0
O164 O 0.95647 0.14482 0.2035 0.0
O165 O 0.96111 0.10735 0.15732 0.0
C166 C 0.95366 0.12634 0.0138 0.0
O167 O 0.96785 0.18883 0.12192 0.0
O168 O -0.00129 0.17824 0.05932 0.0
In169 In 0.36426 0.96923 0.61703 0.0
O170 O 0.38703 0.97012 0.52659 0.0
O171 O 0.37352 0.93219 0.5607 0.0
C172 C 0.37481 0.01856 0.66246 0.0
C173 C 0.31245 0.96726 0.58123 0.0
C174 C 0.38902 0.94345 0.70879 0.0
O175 O 0.38499 0.01035 0.61307 0.0
O176 O 0.35812 0.00253 0.68653 0.0
O177 O 0.3636 0.94534 0.70596 0.0
O178 O 0.40157 0.95382 0.66459 0.0
C179 C 0.38539 0.94488 0.51871 0.0
O180 O 0.32214 0.95074 0.61917 0.0
O181 O 0.32854 0.98545 0.56392 0.0
In182 In 0.52718 0.36852 0.11337 0.0
O183 O 0.54445 0.32697 0.09058 0.0
O184 O 0.5028 0.33395 0.07374 0.0
C185 C 0.55868 0.38751 0.20359 0.0
C186 C 0.54246 0.39424 0.01028 0.0
C187 C 0.48198 0.37615 0.17855 0.0
O188 O 0.55822 0.36276 0.18958 0.0
O189 O 0.54463 0.40255 0.16978 0.0
O190 O 0.48556 0.38722 0.12718 0.0
O191 O 0.50065 0.36054 0.19542 0.0
C192 C 0.52238 0.31784 0.07059 0.0
O193 O 0.51917 0.39689 0.03286 0.0
O194 O 0.55805 0.37927 0.04051 0.0
In195 In 0.13456 0.55061 0.70358 0.0
O196 O 0.17981 0.54157 0.70621 0.0
O197 O 0.15773 0.53094 0.62666 0.0
C198 C 0.13631 0.57306 0.81611 0.0
C199 C 0.1186 0.58647 0.61848 0.0
C200 C 0.10007 0.50869 0.71492 0.0
O201 O 0.13589 0.58706 0.76823 0.0
O202 O 0.13716 0.54803 0.80701 0.0
O203 O 0.09219 0.53267 0.70739 0.0
O204 O 0.12533 0.50578 0.71524 0.0
C205 C 0.18023 0.5316 0.65329 0.0
O206 O 0.10225 0.57114 0.64597 0.0
O207 O 0.14284 0.5843 0.6353 0.0
H208 H 0.02291 0.68401 0.02132 0.0
H209 H -0.00176 0.72509 0.18504 0.0
H210 H 0.99256 0.76709 0.12768 0.0
H211 H -0.00244 0.79268 0.03262 0.0
H212 H 0.02645 0.75266 0.8711 0.0
H213 H 0.02735 0.70953 0.92573 0.0
C214 C 0.01596 0.7021 0.04421 0.0
C215 C 0.01087 0.70152 0.10719 0.0
C216 C 0.01362 0.72631 0.01136 0.0
C217 C 0.00228 0.72513 0.13659 0.0
C218 C -0.00095 0.7491 0.10383 0.0
C219 C 0.00368 0.77442 0.00916 0.0
C220 C 0.01178 0.77573 0.94789 0.0
C221 C 0.00507 0.75001 0.04143 0.0
C222 C 0.02009 0.75207 0.91826 0.0
C223 C 0.02066 0.72748 0.9495 0.0
H224 H 0.70324 0.0249 0.51846 0.0
H225 H 0.73422 0.00975 0.33828 0.0
H226 H 0.78043 0.01065 0.37778 0.0
H227 H 0.81181 0.01646 0.46337 0.0
H228 H 0.78083 0.03507 0.64191 0.0
H229 H 0.7346 0.03212 0.60327 0.0
C230 C 0.72013 0.02164 0.48795 0.0
C231 C 0.71547 0.01704 0.42573 0.0
C232 C 0.7465 0.02288 0.51068 0.0
C233 C 0.73743 0.01329 0.38638 0.0
C234 C 0.76378 0.01378 0.40894 0.0
C235 C 0.7949 0.01973 0.49382 0.0
C236 C 0.79957 0.02577 0.55541 0.0
C237 C 0.76852 0.01865 0.47096 0.0
C238 C 0.77761 0.03039 0.59431 0.0
C239 C 0.75125 0.02867 0.57227 0.0
H240 H 0.46827 0.79379 0.97337 0.0
H241 H 0.47261 0.76877 0.16121 0.0
H242 H 0.46998 0.72138 0.13014 0.0
H243 H 0.46705 0.68728 0.04939 0.0
H244 H 0.45964 0.71238 0.86209 0.0
H245 H 0.46271 0.75976 0.89306 0.0
C246 C 0.46872 0.77791 0.00742 0.0
C247 C 0.47095 0.78457 0.06936 0.0
C248 C 0.46657 0.75089 0.9893 0.0
C249 C 0.471 0.76399 0.11324 0.0
C250 C 0.46952 0.73697 0.0955 0.0
C251 C 0.4661 0.70316 0.01541 0.0
C252 C 0.46338 0.6965 0.95357 0.0
C253 C 0.4674 0.73022 0.03367 0.0
C254 C 0.46175 0.71714 0.90996 0.0
C255 C 0.46358 0.74416 0.92763 0.0
H256 H 0.68742 0.49516 0.44965 0.0
H257 H 0.72568 0.47843 0.62186 0.0
H258 H 0.76915 0.47271 0.57044 0.0
H259 H 0.79517 0.46857 0.47567 0.0
H260 H 0.7556 0.48054 0.30294 0.0
H261 H 0.71364 0.49222 0.35531 0.0
C262 C 0.70538 0.49071 0.476 0.0
C263 C 0.70349 0.48732 0.53937 0.0
C264 C 0.72993 0.4864 0.44591 0.0
C265 C 0.72675 0.48113 0.57298 0.0
C266 C 0.75153 0.47781 0.5436 0.0
C267 C 0.77744 0.47415 0.4496 0.0
C268 C 0.77837 0.47381 0.38566 0.0
C269 C 0.75322 0.47982 0.47996 0.0
C270 C 0.75525 0.48066 0.35224 0.0
C271 C 0.73131 0.4873 0.38214 0.0
H272 H 0.95824 0.31342 0.98384 0.0
H273 H 0.99411 0.27962 0.82218 0.0
H274 H 0.00588 0.23864 0.87833 0.0
H275 H 0.00251 0.2111 0.97043 0.0
H276 H 0.96245 0.24267 0.12935 0.0
H277 H 0.956 0.28605 0.0776 0.0
C278 C 0.96898 0.2972 0.96128 0.0
C279 C 0.97539 0.29944 0.8991 0.0
C280 C 0.97479 0.27334 0.99331 0.0
C281 C 0.98894 0.27823 0.87 0.0
C282 C 0.99565 0.25484 0.90206 0.0
C283 C 0.99278 0.22763 0.99416 0.0
C284 C 0.98307 0.2238 0.05368 0.0
C285 C 0.9882 0.25198 0.96333 0.0
C286 C 0.97013 0.24522 0.08354 0.0
C287 C 0.96637 0.26994 0.05389 0.0
H288 H 0.28799 0.00053 0.50061 0.0
H289 H 0.2765 0.92642 0.6008 0.0
H290 H 0.23319 0.91931 0.55011 0.0
H291 H 0.19851 0.93431 0.47758 0.0
H292 H 0.20915 0.00944 0.38111 0.0
H293 H 0.25319 0.01578 0.42922 0.0
C294 C 0.27593 0.9829 0.51161 0.0
C295 C 0.28536 0.96407 0.55446 0.0
C296 C 0.25112 0.97895 0.48234 0.0
C297 C 0.26957 0.9413 0.56821 0.0
C298 C 0.2449 0.93713 0.53899 0.0
C299 C 0.2107 0.95185 0.46652 0.0
C300 C 0.20087 0.97125 0.4255 0.0
C301 C 0.23555 0.95576 0.49576 0.0
C302 C 0.21648 0.99419 0.41236 0.0
C303 C 0.24154 -0.00212 0.44005 0.0
H304 H 0.4914 0.20689 0.94991 0.0
H305 H 0.57651 0.20713 0.90887 0.0
H306 H 0.5817 0.25038 0.96105 0.0
H307 H 0.56207 0.28784 0.0197 0.0
H308 H 0.47661 0.2884 0.05651 0.0
H309 H 0.47154 0.24494 0.00522 0.0
C310 C 0.51104 0.2165 0.95207 0.0
C311 C 0.53353 0.20387 0.92569 0.0
C312 C 0.51385 0.24134 0.98194 0.0
C313 C 0.55886 0.21655 0.92864 0.0
C314 C 0.56188 0.24119 0.95875 0.0
C315 C 0.54241 0.27828 0.01684 0.0
C316 C 0.51979 0.29105 0.04224 0.0
C317 C 0.53955 0.25365 0.98599 0.0
C318 C 0.49432 0.27881 0.03741 0.0
C319 C 0.4914 0.25404 0.008 0.0
H320 H 0.29584 0.49819 0.56229 0.0
H321 H 0.25882 0.51408 0.38835 0.0
H322 H 0.21542 0.52214 0.43854 0.0
H323 H 0.18901 0.52759 0.5324 0.0
H324 H 0.22741 0.5163 0.70672 0.0
H325 H 0.26946 0.50348 0.65597 0.0
C326 C 0.27814 0.50298 0.53536 0.0
C327 C 0.28031 0.5053 0.47179 0.0
C328 C 0.25369 0.50867 0.56469 0.0
C329 C 0.25747 0.5121 0.43736 0.0
C330 C 0.23275 0.51677 0.46604 0.0
C331 C 0.20654 0.52206 0.5592 0.0
C332 C 0.20522 0.52275 0.62309 0.0
C333 C 0.23077 0.51557 0.52974 0.0
C334 C 0.22807 0.51594 0.65744 0.0
C335 C 0.25204 0.50859 0.62847 0.0
H336 H 0.09687 0.63873 0.04324 0.0
H337 H 0.08121 0.55799 0.10807 0.0
H338 H 0.10482 0.53923 0.0202 0.0
H339 H 0.12446 0.54569 0.91913 0.0
H340 H 0.13649 0.62624 0.84932 0.0
H341 H 0.12019 0.64522 0.9453 0.0
C342 C 0.09917 0.61705 0.0387 0.0
C343 C 0.08725 0.59972 0.08177 0.0
C344 C 0.11191 0.60641 0.98691 0.0
C345 C 0.09011 0.57169 0.07523 0.0
C346 C 0.10355 0.56097 0.02497 0.0
C347 C 0.12405 0.56741 0.92535 0.0
C348 C 0.1315 0.58456 0.87714 0.0
C349 C 0.11372 0.57811 0.97959 0.0
C350 C 0.13076 0.61264 0.88576 0.0
C351 C 0.12133 0.62348 0.94049 0.0
H352 H 0.93316 0.14049 0.30982 0.0
H353 H 0.94645 0.0653 0.21554 0.0
H354 H 0.9313 0.04013 0.30461 0.0
H355 H 0.91529 0.03927 0.41033 0.0
H356 H 0.90075 0.11428 0.50413 0.0
H357 H 0.91547 0.13964 0.41459 0.0
C358 C 0.93251 0.11861 0.30867 0.0
C359 C 0.94093 0.10482 0.25615 0.0
C360 C 0.92377 0.10418 0.36019 0.0
C361 C 0.94001 0.07645 0.25534 0.0
C362 C 0.93146 0.06199 0.30637 0.0
C363 C 0.91544 0.06116 0.41117 0.0
C364 C 0.90715 0.07488 0.46382 0.0
C365 C 0.92354 0.07562 0.35924 0.0
C366 C 0.90712 0.10325 0.46409 0.0
C367 C 0.91549 0.11778 0.41291 0.0
H368 H 0.46726 0.90455 0.91639 0.0
H369 H 0.39158 0.88857 0.00652 0.0
H370 H 0.36697 0.9042 0.91663 0.0
H371 H 0.36712 0.92297 0.81269 0.0
H372 H 0.44315 0.9383 0.72318 0.0
H373 H 0.46745 0.92212 0.81242 0.0
C374 C 0.44537 0.90455 0.91643 0.0
C375 C 0.43124 0.89559 0.96799 0.0
C376 C 0.43143 0.9133 0.86459 0.0
C377 C 0.4029 0.89547 0.96729 0.0
C378 C 0.38883 0.90436 0.91593 0.0
C379 C 0.38899 0.92257 0.81265 0.0
C380 C 0.40331 0.93181 0.76147 0.0
C381 C 0.4029 0.91333 0.86431 0.0
C382 C 0.43165 0.93126 0.76201 0.0
C383 C 0.44559 0.92209 0.81308 0.0
H384 H 0.54948 0.43541 0.25785 0.0
H385 H 0.59536 0.36198 0.27696 0.0
H386 H 0.61283 0.37766 0.37515 0.0
H387 H 0.61412 0.41201 0.45659 0.0
H388 H 0.56652 0.48445 0.43756 0.0
H389 H 0.55039 0.46919 0.33862 0.0
C390 C 0.56357 0.42294 0.28311 0.0
C391 C 0.57135 0.39769 0.25996 0.0
C392 C 0.57291 0.43176 0.33994 0.0
C393 C 0.58923 0.38159 0.29371 0.0
C394 C 0.5991 0.39049 0.34994 0.0
C395 C 0.6001 0.42436 0.43087 0.0
C396 C 0.59148 0.4493 0.45449 0.0
C397 C 0.59086 0.41545 0.37378 0.0
C398 C 0.5734 0.46513 0.42057 0.0
C399 C 0.56424 0.45649 0.36383 0.0
H400 H 0.12187 0.91466 0.18542 0.0
H401 H 0.04395 0.93344 0.26209 0.0
H402 H 0.02171 0.91536 0.172 0.0
H403 H 0.02424 0.89521 0.07047 0.0
H404 H 0.10177 0.8752 0.99388 0.0
H405 H 0.1243 0.89281 0.08467 0.0
C406 C 0.10003 0.91461 0.1825 0.0
C407 C 0.08461 0.92542 0.23034 0.0
C408 C 0.08729 0.90414 0.13041 0.0
C409 C 0.05632 0.92521 0.22596 0.0
C410 C 0.04355 0.91496 0.17435 0.0
C411 C 0.04607 0.89476 0.0736 0.0
C412 C 0.06133 0.88413 0.02544 0.0
C413 C 0.05882 0.90459 0.12611 0.0
C414 C 0.08958 0.88338 0.03038 0.0
C415 C 0.10247 0.89342 0.08226 0.0
H416 H 0.5769 0.12391 0.67127 0.0
H417 H 0.56154 0.04677 0.75614 0.0
H418 H 0.5774 0.02357 0.66512 0.0
H419 H 0.59457 0.02508 0.56078 0.0
H420 H 0.6108 0.10189 0.47557 0.0
H421 H 0.59545 0.12537 0.5672 0.0
C422 C 0.57728 0.10203 0.66999 0.0
C423 C 0.56809 0.08708 0.72037 0.0
C424 C 0.58629 0.08877 0.61727 0.0
C425 C 0.56858 0.05875 0.71801 0.0
C426 C 0.57753 0.04545 0.66589 0.0
C427 C 0.59462 0.04697 0.56214 0.0
C428 C 0.60358 0.06175 0.51142 0.0
C429 C 0.58616 0.06025 0.61509 0.0
C430 C 0.60387 0.09008 0.51405 0.0
C431 C 0.59516 0.1035 0.56644 0.0
H432 H 0.35796 0.55709 0.21277 0.0
H433 H 0.4349 0.54338 0.29945 0.0
H434 H 0.45824 0.56075 0.21006 0.0
H435 H 0.45705 0.57822 0.10615 0.0
H436 H 0.38055 0.59259 0.01847 0.0
H437 H 0.35678 0.57648 0.10924 0.0
C438 C 0.37981 0.55819 0.21223 0.0
C439 C 0.39467 0.54893 0.26258 0.0
C440 C 0.3932 0.56806 0.16036 0.0
C441 C 0.42298 0.55038 0.26125 0.0
C442 C 0.43638 0.56022 0.21008 0.0
C443 C 0.43517 0.5778 0.10686 0.0
C444 C 0.42056 0.58635 0.05566 0.0
C445 C 0.42172 0.56878 0.15915 0.0
C446 C 0.39223 0.58599 0.05739 0.0
C447 C 0.37864 0.57682 0.10925 0.0
H448 H 0.87381 0.35601 0.64948 0.0
H449 H 0.95595 0.35066 0.58554 0.0
H450 H 0.94141 0.36233 0.48284 0.0
H451 H 0.90667 0.38137 0.41588 0.0
H452 H 0.82463 0.38746 0.47973 0.0
H453 H 0.83772 0.36785 0.57743 0.0
C454 C 0.88841 0.35673 0.61274 0.0
C455 C 0.91596 0.353 0.62529 0.0
C456 C 0.87998 0.36397 0.55393 0.0
C457 C 0.93464 0.35373 0.57717 0.0
C458 C 0.92637 0.36056 0.51845 0.0
C459 C 0.89158 0.37786 0.45077 0.0
C460 C 0.86487 0.38626 0.44116 0.0
C461 C 0.8993 0.36689 0.50699 0.0
C462 C 0.84539 0.38129 0.48627 0.0
C463 C 0.85288 0.37021 0.54227 0.0
H464 H 0.88066 0.35354 0.96376 0.0
H465 H 0.88971 0.43448 0.89398 0.0
H466 H 0.86633 0.4525 0.98281 0.0
H467 H 0.8496 0.44583 0.08631 0.0
H468 H 0.84385 0.36537 0.1605 0.0
H469 H 0.85915 0.3465 0.06364 0.0
C470 C 0.8769 0.37504 0.96742 0.0
C471 C 0.88704 0.39271 0.92282 0.0
C472 C 0.86429 0.38535 0.01971 0.0
C473 C 0.88224 0.42053 0.9281 0.0
C474 C 0.86895 0.43085 0.97892 0.0
C475 C 0.85112 0.42413 0.08089 0.0
C476 C 0.84591 0.40703 0.13059 0.0
C477 C 0.86083 0.41354 0.02599 0.0
C478 C 0.84791 0.37895 0.12291 0.0
C479 C 0.85679 0.36817 0.06766 0.0
H480 H 0.05739 0.92179 0.74564 0.0
H481 H 0.078 0.84076 0.69111 0.0
H482 H 0.09509 0.85785 0.59385 0.0
H483 H 0.10221 0.89566 0.52274 0.0
H484 H 0.08056 0.97644 0.57733 0.0
H485 H 0.06563 0.95954 0.67621 0.0
C486 C 0.0659 0.90787 0.7128 0.0
C487 C 0.06647 0.88005 0.72556 0.0
C488 C 0.0752 0.91776 0.65678 0.0
C489 C 0.07742 0.86228 0.6824 0.0
C490 C 0.08706 0.87202 0.62671 0.0
C491 C 0.09423 0.90955 0.55631 0.0
C492 C 0.09234 0.93724 0.54265 0.0
C493 C 0.08568 0.89968 0.61309 0.0
C494 C 0.0821 0.95503 0.58666 0.0
C495 C 0.07362 0.94539 0.64324 0.0
H496 H 0.56709 0.04458 0.21919 0.0
H497 H 0.64538 0.08056 0.19023 0.0
H498 H 0.62976 0.10016 0.09439 0.0
H499 H 0.59417 0.10631 0.01798 0.0
H500 H 0.51585 0.07041 0.04683 0.0
H501 H 0.53122 0.05141 0.14357 0.0
C502 C 0.58068 0.05686 0.19209 0.0
C503 C 0.60735 0.06114 0.21179 0.0
C504 C 0.57162 0.06791 0.1369 0.0
C505 C 0.62475 0.07701 0.17611 0.0
C506 C 0.61585 0.08816 0.12124 0.0
C507 C 0.58047 0.09429 0.04539 0.0
C508 C 0.55395 0.08967 0.0252 0.0
C509 C 0.5894 0.08357 0.10101 0.0
C510 C 0.53639 0.0742 0.06135 0.0
C511 C 0.54515 0.06337 0.11667 0.0
H512 H 0.40232 0.51136 0.60054 0.0
H513 H 0.37372 0.58649 0.52497 0.0
H514 H 0.3889 0.61059 0.61561 0.0
H515 H 0.4109 0.61043 0.71592 0.0
H516 H 0.43949 0.53523 0.79121 0.0
H517 H 0.42354 0.51107 0.70144 0.0
C518 C 0.39946 0.53301 0.6039 0.0
C519 C 0.38703 0.54712 0.55607 0.0
C520 C 0.40812 0.54673 0.65624 0.0
C521 C 0.38331 0.57515 0.56117 0.0
C522 C 0.39194 0.58896 0.61301 0.0
C523 C 0.41346 0.58874 0.7128 0.0
C524 C 0.42633 0.57466 0.76012 0.0
C525 C 0.40441 0.57497 0.66081 0.0
C526 C 0.42961 0.54655 0.7554 0.0
C527 C 0.42056 0.53271 0.70401 0.0
H528 H 0.87887 0.08804 0.79789 0.0
H529 H 0.95619 0.06434 0.72518 0.0
H530 H 0.97879 0.08276 0.8144 0.0
H531 H 0.9766 0.10384 0.91469 0.0
H532 H 0.89968 0.12781 0.98864 0.0
H533 H 0.87689 0.11104 0.89734 0.0
C534 C 0.90067 0.08716 0.8014 0.0
C535 C 0.91582 0.07479 0.75512 0.0
C536 C 0.91358 0.09764 0.85319 0.0
C537 C 0.94405 0.07373 0.76025 0.0
C538 C 0.95701 0.08419 0.81132 0.0
C539 C 0.95485 0.10542 0.91082 0.0
C540 C 0.93981 0.11684 0.9584 0.0
C541 C 0.94196 0.09585 0.85836 0.0
C542 C 0.91167 0.11899 0.95259 0.0
C543 C 0.89864 0.10942 0.90044 0.0
H544 H 0.4096 0.96766 0.42015 0.0
H545 H 0.38459 0.89104 0.49509 0.0
H546 H 0.40131 0.86783 0.40483 0.0
H547 H 0.42342 0.86917 0.30503 0.0
H548 H 0.4488 0.94564 0.23011 0.0
H549 H 0.4314 0.96902 0.31967 0.0
C550 C 0.40786 0.94589 0.41669 0.0
C551 C 0.39595 0.93109 0.46422 0.0
C552 C 0.41747 0.93264 0.36457 0.0
C553 C 0.39374 0.9029 0.45911 0.0
C554 C 0.40325 0.88959 0.40749 0.0
C555 C 0.42499 0.89096 0.30817 0.0
C556 C 0.43732 0.90565 0.26106 0.0
C557 C 0.41515 0.90425 0.35996 0.0
C558 C 0.43934 0.93387 0.26582 0.0
C559 C 0.42946 0.94726 0.31705 0.0
H560 H 0.59004 0.38805 0.95087 0.0
H561 H 0.51308 0.42825 0.93828 0.0
H562 H 0.52629 0.4481 0.84073 0.0
H563 H 0.55994 0.45448 0.75973 0.0
H564 H 0.6371 0.4147 0.77305 0.0
H565 H 0.62346 0.39397 0.86932 0.0
C566 C 0.57617 0.4012 0.92684 0.0
C567 C 0.55065 0.40675 0.9519 0.0
C568 C 0.58387 0.41245 0.87073 0.0
C569 C 0.53287 0.42372 0.92007 0.0
C570 C 0.54038 0.43502 0.86422 0.0
C571 C 0.57368 0.44106 0.78341 0.0
C572 C 0.59946 0.43604 0.75915 0.0
C573 C 0.56583 0.42952 0.83913 0.0
C574 C 0.61712 0.41882 0.79066 0.0
C575 C 0.60936 0.40704 0.84581 0.0
H576 H 0.06812 0.60258 0.58779 0.0
H577 H 0.15116 0.60688 0.52994 0.0
H578 H 0.1373 0.62683 0.43314 0.0
H579 H 0.10112 0.63738 0.36016 0.0
H580 H 0.01813 0.63372 0.41891 0.0
H581 H 0.03244 0.61973 0.52037 0.0
C582 C 0.08318 0.60834 0.55436 0.0
C583 C 0.11054 0.60292 0.56548 0.0
C584 C 0.07507 0.61978 0.49882 0.0
C585 C 0.12993 0.61077 0.52226 0.0
C586 C 0.12202 0.62206 0.46678 0.0
C587 C 0.08622 0.63407 0.39558 0.0
C588 C 0.05862 0.63617 0.38181 0.0
C589 C 0.09458 0.62583 0.4538 0.0
C590 C 0.03953 0.6321 0.42826 0.0
C591 C 0.04767 0.62393 0.48624 0.0
H592 H 0.88242 0.52955 0.25033 0.0
H593 H 0.93966 0.47107 0.31745 0.0
H594 H 0.97662 0.50255 0.29842 0.0
H595 H 0.99278 0.54632 0.26158 0.0
H596 H 0.93595 0.60499 0.19381 0.0
H597 H 0.89871 0.57373 0.2139 0.0
C598 C 0.90298 0.52378 0.26107 0.0
C599 C 0.90831 0.49804 0.28531 0.0
C600 C 0.92419 0.54192 0.24953 0.0
C601 C 0.93504 0.49077 0.29875 0.0
C602 C 0.95619 0.50874 0.28779 0.0
C603 C 0.97225 0.55226 0.25104 0.0
C604 C 0.96711 0.57788 0.22607 0.0
C605 C 0.95102 0.53428 0.26289 0.0
C606 C 0.94041 0.58533 0.21292 0.0
C607 C 0.91912 0.5675 0.2245 0.0
H608 H 0.91807 0.94071 0.62381 0.0
H609 H 0.88255 0.97484 0.78559 0.0
H610 H 0.90395 0.94027 0.84799 0.0
H611 H 0.93731 0.90387 0.85796 0.0
H612 H 0.97141 0.86829 0.69637 0.0
H613 H 0.94569 0.89943 0.63264 0.0
C614 C 0.91468 0.94023 0.67257 0.0
C615 C 0.89911 0.9605 0.70012 0.0
C616 C 0.92688 0.92009 0.70834 0.0
C617 C 0.89455 0.9595 0.76326 0.0
C618 C 0.90687 0.9398 0.79911 0.0
C619 C 0.93858 0.90256 0.80875 0.0
C620 C 0.95639 0.88407 0.78193 0.0
C621 C 0.92373 0.9205 0.77236 0.0
C622 C 0.95776 0.88236 0.71812 0.0
C623 C 0.94324 0.90032 0.68161 0.0
H624 H 0.54238 0.87681 0.26366 0.0
H625 H 0.56512 0.90295 0.08347 0.0
H626 H 0.60148 0.9304 0.12628 0.0
H627 H 0.62112 0.95287 0.21533 0.0
H628 H 0.59437 0.93076 0.39542 0.0
H629 H 0.56557 0.89549 0.35253 0.0
C630 C 0.55578 0.88793 0.23367 0.0
C631 C 0.55102 0.88808 0.1706 0.0
C632 C 0.57569 0.90466 0.2588 0.0
C633 C 0.56836 0.90269 0.13223 0.0
C634 C 0.58904 0.91848 0.15671 0.0
C635 C 0.60956 0.9398 0.24523 0.0
C636 C 0.60965 0.94443 0.30833 0.0
C637 C 0.59208 0.92053 0.22004 0.0
C638 C 0.59444 0.9276 0.34664 0.0
C639 C 0.5779 0.90754 0.32211 0.0
H640 H 0.61119 0.53736 0.78114 0.0
H641 H 0.58751 0.5735 0.61068 0.0
H642 H 0.55747 0.60445 0.66451 0.0
H643 H 0.53225 0.61521 0.75711 0.0
H644 H 0.55218 0.57527 0.92578 0.0
H645 H 0.58967 0.55209 0.87595 0.0
C646 C 0.60006 0.55257 0.75601 0.0
C647 C 0.60136 0.55312 0.69211 0.0
C648 C 0.58184 0.56929 0.78696 0.0
C649 C 0.58669 0.5727 0.65992 0.0
C650 C 0.56941 0.59026 0.69065 0.0
C651 C 0.54522 0.60195 0.78333 0.0
C652 C 0.53932 0.59667 0.84479 0.0
C653 C 0.56591 0.58784 0.75378 0.0
C654 C 0.55623 0.57944 0.87823 0.0
C655 C 0.57759 0.56612 0.84971 0.0
H656 H 0.04545 0.51039 0.71537 0.0
H657 H 0.11269 0.45627 0.74012 0.0
H658 H 0.08169 0.41934 0.76398 0.0
H659 H 0.03536 0.40259 0.77923 0.0
H660 H 0.96832 0.45684 0.75296 0.0
H661 H -0.00066 0.49354 0.72859 0.0
C662 C 0.05331 0.49048 0.72571 0.0
C663 C 0.08128 0.48606 0.72601 0.0
C664 C 0.0354 0.46939 0.73948 0.0
C665 C 0.09119 0.46017 0.73948 0.0
C666 C 0.0735 0.43906 0.75331 0.0
C667 C 0.0276 0.42247 0.76836 0.0
C668 C -0.00037 0.42703 0.76817 0.0
C669 C 0.04556 0.44348 0.75381 0.0
C670 C 0.98979 0.45283 0.75352 0.0
C671 C 0.0075 0.47384 0.7395 0.0
H672 H 0.03743 0.11886 0.27173 0.0
H673 H 0.06749 0.09855 0.09337 0.0
H674 H 0.09701 0.06431 0.13794 0.0
H675 H 0.10896 0.03589 0.2253 0.0
H676 H 0.07553 0.05349 0.40217 0.0
H677 H 0.0527 0.09315 0.36066 0.0
C678 C 0.05103 0.10747 0.24285 0.0
C679 C 0.05032 0.11112 0.17942 0.0
C680 C 0.06692 0.08699 0.26846 0.0
C681 C 0.06773 0.09602 0.14236 0.0
C682 C 0.08444 0.07633 0.16777 0.0
C683 C 0.09705 0.04868 0.25497 0.0
C684 C 0.09367 0.04166 0.31652 0.0
C685 C 0.08337 0.07093 0.23042 0.0
C686 C 0.07821 0.05838 0.35448 0.0
C687 C 0.06516 0.08104 0.33078 0.0
H688 H 0.4067 0.0587 0.6181 0.0
H689 H 0.36792 0.03057 0.78217 0.0
H690 H 0.39491 0.06174 0.84274 0.0
H691 H 0.43477 0.0912 0.85032 0.0
H692 H 0.4731 0.11987 0.68622 0.0
H693 H 0.44082 0.09472 0.62454 0.0
C694 C 0.40369 0.05992 0.66692 0.0
C695 C 0.38574 0.04204 0.69571 0.0
C696 C 0.41945 0.07776 0.70163 0.0
C697 C 0.38175 0.04402 0.75891 0.0
C698 C 0.39732 0.06172 0.79371 0.0
C699 C 0.43561 0.09244 0.80106 0.0
C700 C 0.45654 0.10693 0.77288 0.0
C701 C 0.41705 0.0778 0.7658 0.0
C702 C 0.45724 0.10871 0.70903 0.0
C703 C 0.43889 0.09418 0.67366 0.0
H704 H 0.43357 0.39799 0.14803 0.0
H705 H 0.48102 0.37184 0.30163 0.0
H706 H 0.44858 0.39211 0.37148 0.0
H707 H 0.41033 0.42285 0.38785 0.0
H708 H 0.36217 0.44793 0.23438 0.0
H709 H 0.3908 0.42198 0.16586 0.0
C710 C 0.43647 0.39631 0.19683 0.0
C711 C 0.45979 0.38386 0.21968 0.0
C712 C 0.41766 0.40791 0.23681 0.0
C713 C 0.46322 0.38144 0.28296 0.0
C714 C 0.44475 0.39313 0.32296 0.0
C715 C 0.40571 0.42204 0.33964 0.0
C716 C 0.38446 0.43763 0.31615 0.0
C717 C 0.42239 0.40722 0.30031 0.0
C718 C 0.3785 0.4362 0.25364 0.0
C719 C 0.39501 0.42154 0.21426 0.0
loop_
_geom_bond_atom_site_label_1
_geom_bond_atom_site_label_2
_geom_bond_distance
_geom_bond_site_symmetry_2
_ccdc_geom_bond_type
In0 O1 2.294 . S
In0 O2 2.326 . S
In0 O6 2.266 1_455 S
In0 O7 2.326 1_455 S
In0 O8 2.266 . S
In0 O9 2.326 . S
In0 O11 2.294 . S
In0 O12 2.326 . S
O1 In0 2.294 . S
O1 C10 1.240 . S
O2 In0 2.326 . S
O2 C10 1.252 . S
C3 O6 1.252 . S
C3 O7 1.260 . S
C4 O11 1.240 . S
C4 O12 1.252 . S
C5 O8 1.252 . S
C5 O9 1.260 . S
O6 In0 2.266 1_655 S
O6 C3 1.252 . S
O7 In0 2.326 1_655 S
O7 C3 1.260 . S
O8 In0 2.266 . S
O8 C5 1.252 . S
O9 In0 2.326 . S
O9 C5 1.260 . S
C10 O1 1.240 . S
C10 O2 1.252 . S
O11 In0 2.294 . S
O11 C4 1.240 . S
O12 In0 2.326 . S
O12 C4 1.252 . S
In13 O14 2.294 . S
In13 O15 2.326 . S
In13 O19 2.266 . S
In13 O20 2.326 . S
In13 O21 2.266 1_545 S
In13 O22 2.326 1_545 S
In13 O24 2.294 . S
In13 O25 2.326 . S
O14 In13 2.294 . S
O14 C23 1.240 . S
O15 In13 2.326 . S
O15 C23 1.252 . S
C16 O19 1.252 . S
C16 O20 1.260 . S
C17 O24 1.240 . S
C17 O25 1.252 . S
C18 O21 1.252 . S
C18 O22 1.260 . S
O19 In13 2.266 . S
O19 C16 1.252 . S
O20 In13 2.326 . S
O20 C16 1.260 . S
O21 In13 2.266 1_565 S
O21 C18 1.252 . S
O22 In13 2.326 1_565 S
O22 C18 1.260 . S
C23 O14 1.240 . S
C23 O15 1.252 . S
O24 In13 2.294 . S
O24 C17 1.240 . S
O25 In13 2.326 . S
O25 C17 1.252 . S
In26 O27 2.294 . S
In26 O28 2.326 . S
In26 O32 2.266 . S
In26 O33 2.326 . S
In26 O34 2.266 . S
In26 O35 2.326 . S
In26 O37 2.294 . S
In26 O38 2.326 . S
O27 In26 2.294 . S
O27 C36 1.240 . S
O28 In26 2.326 . S
O28 C36 1.252 . S
C29 O32 1.252 . S
C29 O33 1.260 . S
C30 O37 1.240 . S
C30 O38 1.252 . S
C31 O34 1.252 . S
C31 O35 1.260 . S
O32 In26 2.266 . S
O32 C29 1.252 . S
O33 In26 2.326 . S
O33 C29 1.260 . S
O34 In26 2.266 . S
O34 C31 1.252 . S
O35 In26 2.326 . S
O35 C31 1.260 . S
C36 O27 1.240 . S
C36 O28 1.252 . S
O37 In26 2.294 . S
O37 C30 1.240 . S
O38 In26 2.326 . S
O38 C30 1.252 . S
In39 O40 2.294 . S
In39 O41 2.326 . S
In39 O45 2.266 . S
In39 O46 2.326 . S
In39 O47 2.266 . S
In39 O48 2.326 . S
In39 O50 2.294 . S
In39 O51 2.326 . S
O40 In39 2.294 . S
O40 C49 1.240 . S
O41 In39 2.326 . S
O41 C49 1.252 . S
C42 O45 1.252 . S
C42 O46 1.260 . S
C43 O50 1.240 . S
C43 O51 1.252 . S
C44 O47 1.252 . S
C44 O48 1.260 . S
O45 In39 2.266 . S
O45 C42 1.252 . S
O46 In39 2.326 . S
O46 C42 1.260 . S
O47 In39 2.266 . S
O47 C44 1.252 . S
O48 In39 2.326 . S
O48 C44 1.260 . S
C49 O40 1.240 . S
C49 O41 1.252 . S
O50 In39 2.294 . S
O50 C43 1.240 . S
O51 In39 2.326 . S
O51 C43 1.252 . S
In52 O53 2.294 . S
In52 O54 2.326 . S
In52 O58 2.266 1_455 S
In52 O59 2.326 1_455 S
In52 O60 2.266 . S
In52 O61 2.326 . S
In52 O63 2.294 . S
In52 O64 2.326 . S
O53 In52 2.294 . S
O53 C62 1.240 . S
O54 In52 2.326 . S
O54 C62 1.252 . S
C55 O58 1.252 . S
C55 O59 1.260 . S
C56 O63 1.240 . S
C56 O64 1.252 . S
C57 O60 1.252 . S
C57 O61 1.260 . S
O58 In52 2.266 1_655 S
O58 C55 1.252 . S
O59 In52 2.326 1_655 S
O59 C55 1.260 . S
O60 In52 2.266 . S
O60 C57 1.252 . S
O61 In52 2.326 . S
O61 C57 1.260 . S
C62 O53 1.240 . S
C62 O54 1.252 . S
O63 In52 2.294 . S
O63 C56 1.240 . S
O64 In52 2.326 . S
O64 C56 1.252 . S
In65 O66 2.294 . S
In65 O67 2.326 . S
In65 O71 2.266 1_545 S
In65 O72 2.326 1_545 S
In65 O73 2.266 . S
In65 O74 2.326 . S
In65 O76 2.294 . S
In65 O77 2.326 . S
O66 In65 2.294 . S
O66 C75 1.240 . S
O67 In65 2.326 . S
O67 C75 1.252 . S
C68 O71 1.252 . S
C68 O72 1.260 . S
C69 O76 1.240 . S
C69 O77 1.252 . S
C70 O73 1.252 . S
C70 O74 1.260 . S
O71 In65 2.266 1_565 S
O71 C68 1.252 . S
O72 In65 2.326 1_565 S
O72 C68 1.260 . S
O73 In65 2.266 . S
O73 C70 1.252 . S
O74 In65 2.326 . S
O74 C70 1.260 . S
C75 O66 1.240 . S
C75 O67 1.252 . S
O76 In65 2.294 . S
O76 C69 1.240 . S
O77 In65 2.326 . S
O77 C69 1.252 . S
In78 O79 2.294 . S
In78 O80 2.326 . S
In78 O84 2.266 . S
In78 O85 2.326 . S
In78 O86 2.266 . S
In78 O87 2.326 . S
In78 O89 2.294 . S
In78 O90 2.326 . S
O79 In78 2.294 . S
O79 C88 1.240 . S
O80 In78 2.326 . S
O80 C88 1.252 . S
C81 O84 1.252 . S
C81 O85 1.260 . S
C82 O89 1.240 . S
C82 O90 1.252 . S
C83 O86 1.252 . S
C83 O87 1.260 . S
O84 In78 2.266 . S
O84 C81 1.252 . S
O85 In78 2.326 . S
O85 C81 1.260 . S
O86 In78 2.266 . S
O86 C83 1.252 . S
O87 In78 2.326 . S
O87 C83 1.260 . S
C88 O79 1.240 . S
C88 O80 1.252 . S
O89 In78 2.294 . S
O89 C82 1.240 . S
O90 In78 2.326 . S
O90 C82 1.252 . S
In91 O92 2.294 . S
In91 O93 2.326 . S
In91 O97 2.266 . S
In91 O98 2.326 . S
In91 O99 2.266 . S
In91 O100 2.326 . S
In91 O102 2.294 . S
In91 O103 2.326 . S
O92 In91 2.294 . S
O92 C101 1.240 . S
O93 In91 2.326 . S
O93 C101 1.252 . S
C94 O97 1.252 . S
C94 O98 1.260 . S
C95 O102 1.240 . S
C95 O103 1.252 . S
C96 O99 1.252 . S
C96 O100 1.260 . S
O97 In91 2.266 . S
O97 C94 1.252 . S
O98 In91 2.326 . S
O98 C94 1.260 . S
O99 In91 2.266 . S
O99 C96 1.252 . S
O100 In91 2.326 . S
O100 C96 1.260 . S
C101 O92 1.240 . S
C101 O93 1.252 . S
O102 In91 2.294 . S
O102 C95 1.240 . S
O103 In91 2.326 . S
O103 C95 1.252 . S
In104 O105 2.294 . S
In104 O106 2.326 . S
In104 O110 2.266 1_655 S
In104 O111 2.326 1_655 S
In104 O112 2.266 . S
In104 O113 2.326 . S
In104 O115 2.294 . S
In104 O116 2.326 . S
O105 In104 2.294 . S
O105 C114 1.240 . S
O106 In104 2.326 . S
O106 C114 1.252 . S
C107 O110 1.252 . S
C107 O111 1.260 . S
C108 O115 1.240 . S
C108 O116 1.252 . S
C109 O112 1.252 . S
C109 O113 1.260 . S
O110 In104 2.266 1_455 S
O110 C107 1.252 . S
O111 In104 2.326 1_455 S
O111 C107 1.260 . S
O112 In104 2.266 . S
O112 C109 1.252 . S
O113 In104 2.326 . S
O113 C109 1.260 . S
C114 O105 1.240 . S
C114 O106 1.252 . S
O115 In104 2.294 . S
O115 C108 1.240 . S
O116 In104 2.326 . S
O116 C108 1.252 . S
In117 O118 2.294 . S
In117 O119 2.326 . S
In117 O123 2.266 . S
In117 O124 2.326 . S
In117 O125 2.266 1_565 S
In117 O126 2.326 1_565 S
In117 O128 2.294 . S
In117 O129 2.326 . S
O118 In117 2.294 . S
O118 C127 1.240 . S
O119 In117 2.326 . S
O119 C127 1.252 . S
C120 O123 1.252 . S
C120 O124 1.260 . S
C121 O128 1.240 . S
C121 O129 1.252 . S
C122 O125 1.252 . S
C122 O126 1.260 . S
O123 In117 2.266 . S
O123 C120 1.252 . S
O124 In117 2.326 . S
O124 C120 1.260 . S
O125 In117 2.266 1_545 S
O125 C122 1.252 . S
O126 In117 2.326 1_545 S
O126 C122 1.260 . S
C127 O118 1.240 . S
C127 O119 1.252 . S
O128 In117 2.294 . S
O128 C121 1.240 . S
O129 In117 2.326 . S
O129 C121 1.252 . S
In130 O131 2.294 . S
In130 O132 2.326 . S
In130 O136 2.266 . S
In130 O137 2.326 . S
In130 O138 2.266 . S
In130 O139 2.326 . S
In130 O141 2.294 . S
In130 O142 2.326 . S
O131 In130 2.294 . S
O131 C140 1.240 . S
O132 In130 2.326 . S
O132 C140 1.252 . S
C133 O136 1.252 . S
C133 O137 1.260 . S
C134 O141 1.240 . S
C134 O142 1.252 . S
C135 O138 1.252 . S
C135 O139 1.260 . S
O136 In130 2.266 . S
O136 C133 1.252 . S
O137 In130 2.326 . S
O137 C133 1.260 . S
O138 In130 2.266 . S
O138 C135 1.252 . S
O139 In130 2.326 . S
O139 C135 1.260 . S
C140 O131 1.240 . S
C140 O132 1.252 . S
O141 In130 2.294 . S
O141 C134 1.240 . S
O142 In130 2.326 . S
O142 C134 1.252 . S
In143 O144 2.294 . S
In143 O145 2.326 . S
In143 O149 2.266 . S
In143 O150 2.326 . S
In143 O151 2.266 . S
In143 O152 2.326 . S
In143 O154 2.294 . S
In143 O155 2.326 . S
O144 In143 2.294 . S
O144 C153 1.240 . S
O145 In143 2.326 . S
O145 C153 1.252 . S
C146 O149 1.252 . S
C146 O150 1.260 . S
C147 O154 1.240 . S
C147 O155 1.252 . S
C148 O151 1.252 . S
C148 O152 1.260 . S
O149 In143 2.266 . S
O149 C146 1.252 . S
O150 In143 2.326 . S
O150 C146 1.260 . S
O151 In143 2.266 . S
O151 C148 1.252 . S
O152 In143 2.326 . S
O152 C148 1.260 . S
C153 O144 1.240 . S
C153 O145 1.252 . S
O154 In143 2.294 . S
O154 C147 1.240 . S
O155 In143 2.326 . S
O155 C147 1.252 . S
In156 O157 2.294 . S
In156 O158 2.326 . S
In156 O162 2.266 1_655 S
In156 O163 2.326 1_655 S
In156 O164 2.266 . S
In156 O165 2.326 . S
In156 O167 2.294 . S
In156 O168 2.326 . S
O157 In156 2.294 . S
O157 C166 1.240 . S
O158 In156 2.326 . S
O158 C166 1.252 . S
C159 O162 1.252 . S
C159 O163 1.260 . S
C160 O167 1.240 . S
C160 O168 1.252 . S
C161 O164 1.252 . S
C161 O165 1.260 . S
O162 In156 2.266 1_455 S
O162 C159 1.252 . S
O163 In156 2.326 1_455 S
O163 C159 1.260 . S
O164 In156 2.266 . S
O164 C161 1.252 . S
O165 In156 2.326 . S
O165 C161 1.260 . S
C166 O157 1.240 . S
C166 O158 1.252 . S
O167 In156 2.294 . S
O167 C160 1.240 . S
O168 In156 2.326 . S
O168 C160 1.252 . S
In169 O170 2.294 . S
In169 O171 2.326 . S
In169 O175 2.266 1_565 S
In169 O176 2.326 1_565 S
In169 O177 2.266 . S
In169 O178 2.326 . S
In169 O180 2.294 . S
In169 O181 2.326 . S
O170 In169 2.294 . S
O170 C179 1.240 . S
O171 In169 2.326 . S
O171 C179 1.252 . S
C172 O175 1.252 . S
C172 O176 1.260 . S
C173 O180 1.240 . S
C173 O181 1.252 . S
C174 O177 1.252 . S
C174 O178 1.260 . S
O175 In169 2.266 1_545 S
O175 C172 1.252 . S
O176 In169 2.326 1_545 S
O176 C172 1.260 . S
O177 In169 2.266 . S
O177 C174 1.252 . S
O178 In169 2.326 . S
O178 C174 1.260 . S
C179 O170 1.240 . S
C179 O171 1.252 . S
O180 In169 2.294 . S
O180 C173 1.240 . S
O181 In169 2.326 . S
O181 C173 1.252 . S
In182 O183 2.294 . S
In182 O184 2.326 . S
In182 O188 2.266 . S
In182 O189 2.326 . S
In182 O190 2.266 . S
In182 O191 2.326 . S
In182 O193 2.294 . S
In182 O194 2.326 . S
O183 In182 2.294 . S
O183 C192 1.240 . S
O184 In182 2.326 . S
O184 C192 1.252 . S
C185 O188 1.252 . S
C185 O189 1.260 . S
C186 O193 1.240 . S
C186 O194 1.252 . S
C187 O190 1.252 . S
C187 O191 1.260 . S
O188 In182 2.266 . S
O188 C185 1.252 . S
O189 In182 2.326 . S
O189 C185 1.260 . S
O190 In182 2.266 . S
O190 C187 1.252 . S
O191 In182 2.326 . S
O191 C187 1.260 . S
C192 O183 1.240 . S
C192 O184 1.252 . S
O193 In182 2.294 . S
O193 C186 1.240 . S
O194 In182 2.326 . S
O194 C186 1.252 . S
In195 O196 2.294 . S
In195 O197 2.326 . S
In195 O201 2.266 . S
In195 O202 2.326 . S
In195 O203 2.266 . S
In195 O204 2.326 . S
In195 O206 2.294 . S
In195 O207 2.326 . S
O196 In195 2.294 . S
O196 C205 1.240 . S
O197 In195 2.326 . S
O197 C205 1.252 . S
C198 O201 1.252 . S
C198 O202 1.260 . S
C199 O206 1.240 . S
C199 O207 1.252 . S
C200 O203 1.252 . S
C200 O204 1.260 . S
O201 In195 2.266 . S
O201 C198 1.252 . S
O202 In195 2.326 . S
O202 C198 1.260 . S
O203 In195 2.266 . S
O203 C200 1.252 . S
O204 In195 2.326 . S
O204 C200 1.260 . S
C205 O196 1.240 . S
C205 O197 1.252 . S
O206 In195 2.294 . S
O206 C199 1.240 . S
O207 In195 2.326 . S
O207 C199 1.252 . S
H208 C214 0.940 1_556 S
H209 C217 0.930 . S
H210 C218 0.930 . S
H211 C219 0.930 1_554 S
H212 C222 0.930 . S
H213 C223 0.930 . S
C214 H208 0.940 1_554 S
C214 C215 1.346 1_655 S
C214 C216 1.413 1_654 S
C215 C214 1.346 1_455 S
C215 C217 1.419 . S
C216 C214 1.413 1_456 S
C216 C221 1.425 1_556 S
C216 C223 1.409 1_455 S
C217 H209 0.930 . S
C217 C215 1.419 . S
C217 C218 1.362 . S
C218 H210 0.930 . S
C218 C217 1.362 . S
C218 C221 1.409 . S
C219 H211 0.930 1_556 S
C219 C220 1.355 . S
C219 C221 1.415 1_556 S
C220 C219 1.355 . S
C220 C222 1.419 1_455 S
C221 C216 1.425 1_554 S
C221 C218 1.409 . S
C221 C219 1.415 1_554 S
C222 H212 0.930 . S
C222 C220 1.419 1_655 S
C222 C223 1.362 . S
C223 H213 0.930 . S
C223 C216 1.409 1_655 S
C223 C222 1.362 . S
H224 C230 0.930 . S
H225 C233 0.928 . S
H226 C234 0.930 . S
H227 C235 0.930 1_565 S
H228 C238 0.930 . S
H229 C239 0.930 . S
C230 H224 0.930 . S
C230 C231 1.355 . S
C230 C232 1.415 . S
C231 C230 1.355 . S
C231 C233 1.421 1_545 S
C232 C230 1.415 . S
C232 C237 1.425 . S
C232 C239 1.409 . S
C233 H225 0.928 . S
C233 C231 1.421 1_565 S
C233 C234 1.362 . S
C234 H226 0.930 . S
C234 C233 1.362 . S
C234 C237 1.409 1_565 S
C235 H227 0.930 1_545 S
C235 C236 1.355 . S
C235 C237 1.415 . S
C236 C235 1.355 . S
C236 C238 1.419 . S
C237 C232 1.425 . S
C237 C234 1.409 1_545 S
C237 C235 1.415 . S
C238 H228 0.930 . S
C238 C236 1.419 . S
C238 C239 1.362 . S
C239 H229 0.930 . S
C239 C232 1.409 . S
C239 C238 1.362 . S
H240 C246 0.930 . S
H241 C249 0.930 . S
H242 C250 0.930 . S
H243 C251 0.930 . S
H244 C254 0.930 . S
H245 C255 0.930 . S
C246 H240 0.930 . S
C246 C247 1.355 1_556 S
C246 C248 1.415 . S
C247 C246 1.355 1_554 S
C247 C249 1.419 . S
C248 C246 1.415 . S
C248 C253 1.425 1_556 S
C248 C255 1.409 . S
C249 H241 0.930 . S
C249 C247 1.419 . S
C249 C250 1.362 . S
C250 H242 0.930 . S
C250 C249 1.362 . S
C250 C253 1.409 . S
C251 H243 0.930 . S
C251 C252 1.355 1_554 S
C251 C253 1.415 . S
C252 C251 1.355 1_556 S
C252 C254 1.419 . S
C253 C248 1.425 1_554 S
C253 C250 1.409 . S
C253 C251 1.415 . S
C254 H244 0.930 . S
C254 C252 1.419 . S
C254 C255 1.362 . S
C255 H245 0.930 . S
C255 C248 1.409 . S
C255 C254 1.362 . S
H256 C262 0.930 . S
H257 C265 0.930 . S
H258 C266 0.930 . S
H259 C267 0.930 . S
H260 C270 0.930 . S
H261 C271 0.930 . S
C262 H256 0.930 . S
C262 C263 1.355 . S
C262 C264 1.415 . S
C263 C262 1.355 . S
C263 C265 1.419 . S
C264 C262 1.415 . S
C264 C269 1.425 . S
C264 C271 1.409 . S
C265 H257 0.930 . S
C265 C263 1.419 . S
C265 C266 1.362 . S
C266 H258 0.930 . S
C266 C265 1.362 . S
C266 C269 1.409 . S
C267 H259 0.930 . S
C267 C268 1.355 . S
C267 C269 1.415 . S
C268 C267 1.355 . S
C268 C270 1.419 . S
C269 C264 1.425 . S
C269 C266 1.409 . S
C269 C267 1.415 . S
C270 H260 0.930 . S
C270 C268 1.419 . S
C270 C271 1.362 . S
C271 H261 0.930 . S
C271 C264 1.409 . S
C271 C270 1.362 . S
H272 C278 0.925 1_454 S
H273 C281 0.930 . S
H274 C282 0.930 . S
H275 C283 0.926 1_556 S
H276 C286 0.930 1_455 S
H277 C287 0.926 1_455 S
C278 H272 0.925 1_656 S
C278 C279 1.361 . S
C278 C280 1.412 1_556 S
C279 C278 1.361 . S
C279 C281 1.419 . S
C280 C278 1.412 1_554 S
C280 C285 1.425 1_554 S
C280 C287 1.413 . S
C281 H273 0.930 . S
C281 C279 1.419 . S
C281 C282 1.362 . S
C282 H274 0.930 . S
C282 C281 1.362 . S
C282 C285 1.409 . S
C283 H275 0.926 1_554 S
C283 C284 1.361 . S
C283 C285 1.413 1_554 S
C284 C283 1.361 . S
C284 C286 1.419 . S
C285 C280 1.425 1_556 S
C285 C282 1.409 . S
C285 C283 1.413 1_556 S
C286 H276 0.930 1_655 S
C286 C284 1.419 . S
C286 C287 1.363 . S
C287 H277 0.926 1_655 S
C287 C280 1.413 . S
C287 C286 1.363 . S
H288 C294 0.930 . S
H289 C297 0.930 . S
H290 C298 0.930 . S
H291 C299 0.930 . S
H292 C302 0.930 . S
H293 C303 0.930 . S
C294 H288 0.930 . S
C294 C295 1.355 1_545 S
C294 C296 1.412 1_545 S
C295 C294 1.355 1_565 S
C295 C297 1.419 . S
C296 C294 1.412 1_565 S
C296 C301 1.437 . S
C296 C303 1.400 1_565 S
C297 H289 0.930 . S
C297 C295 1.419 . S
C297 C298 1.362 . S
C298 H290 0.930 . S
C298 C297 1.362 . S
C298 C301 1.409 . S
C299 H291 0.930 . S
C299 C300 1.355 . S
C299 C301 1.415 . S
C300 C299 1.355 . S
C300 C302 1.419 1_565 S
C301 C296 1.437 . S
C301 C298 1.409 . S
C301 C299 1.415 . S
C302 H292 0.930 . S
C302 C300 1.419 1_545 S
C302 C303 1.362 . S
C303 H293 0.930 . S
C303 C296 1.400 1_545 S
C303 C302 1.362 . S
H304 C310 0.930 . S
H305 C313 0.930 . S
H306 C314 0.930 . S
H307 C315 0.930 . S
H308 C318 0.930 . S
H309 C319 0.930 . S
C310 H304 0.930 . S
C310 C311 1.355 . S
C310 C312 1.415 1_556 S
C311 C310 1.355 . S
C311 C313 1.419 . S
C312 C310 1.415 1_554 S
C312 C317 1.425 1_554 S
C312 C319 1.409 . S
C313 H305 0.930 . S
C313 C311 1.419 . S
C313 C314 1.362 . S
C314 H306 0.930 . S
C314 C313 1.362 . S
C314 C317 1.409 . S
C315 H307 0.930 . S
C315 C316 1.355 . S
C315 C317 1.415 1_554 S
C316 C315 1.355 . S
C316 C318 1.419 . S
C317 C312 1.425 1_556 S
C317 C314 1.409 . S
C317 C315 1.415 1_556 S
C318 H308 0.930 . S
C318 C316 1.419 . S
C318 C319 1.362 . S
C319 H309 0.930 . S
C319 C312 1.409 . S
C319 C318 1.362 . S
H320 C326 0.930 . S
H321 C329 0.930 . S
H322 C330 0.930 . S
H323 C331 0.930 . S
H324 C334 0.930 . S
H325 C335 0.930 . S
C326 H320 0.930 . S
C326 C327 1.355 . S
C326 C328 1.415 . S
C327 C326 1.355 . S
C327 C329 1.419 . S
C328 C326 1.415 . S
C328 C333 1.425 . S
C328 C335 1.409 . S
C329 H321 0.930 . S
C329 C327 1.419 . S
C329 C330 1.362 . S
C330 H322 0.930 . S
C330 C329 1.362 . S
C330 C333 1.409 . S
C331 H323 0.930 . S
C331 C332 1.355 . S
C331 C333 1.415 . S
C332 C331 1.355 . S
C332 C334 1.419 . S
C333 C328 1.425 . S
C333 C330 1.409 . S
C333 C331 1.415 . S
C334 H324 0.930 . S
C334 C332 1.419 . S
C334 C335 1.362 . S
C335 H325 0.930 . S
C335 C328 1.409 . S
C335 C334 1.362 . S
H336 C342 0.930 . S
H337 C345 0.930 . S
H338 C346 0.930 . S
H339 C347 0.930 . S
H340 C350 0.930 . S
H341 C351 0.930 . S
C342 H336 0.930 . S
C342 C343 1.355 . S
C342 C344 1.415 . S
C343 C342 1.355 . S
C343 C345 1.419 . S
C344 C342 1.415 . S
C344 C349 1.425 . S
C344 C351 1.409 . S
C345 H337 0.930 . S
C345 C343 1.419 . S
C345 C346 1.362 . S
C346 H338 0.930 . S
C346 C345 1.362 . S
C346 C349 1.409 . S
C347 H339 0.930 . S
C347 C348 1.355 . S
C347 C349 1.415 . S
C348 C347 1.355 . S
C348 C350 1.419 . S
C349 C344 1.425 . S
C349 C346 1.409 . S
C349 C347 1.415 . S
C350 H340 0.930 . S
C350 C348 1.419 . S
C350 C351 1.362 . S
C351 H341 0.930 . S
C351 C344 1.409 . S
C351 C350 1.362 . S
H352 C358 0.930 . S
H353 C361 0.930 . S
H354 C362 0.930 . S
H355 C363 0.930 . S
H356 C366 0.930 . S
H357 C367 0.930 . S
C358 H352 0.930 . S
C358 C359 1.355 . S
C358 C360 1.415 . S
C359 C358 1.355 . S
C359 C361 1.419 . S
C360 C358 1.415 . S
C360 C365 1.425 . S
C360 C367 1.409 . S
C361 H353 0.930 . S
C361 C359 1.419 . S
C361 C362 1.362 . S
C362 H354 0.930 . S
C362 C361 1.362 . S
C362 C365 1.409 . S
C363 H355 0.930 . S
C363 C364 1.355 . S
C363 C365 1.415 . S
C364 C363 1.355 . S
C364 C366 1.419 . S
C365 C360 1.425 . S
C365 C362 1.409 . S
C365 C363 1.415 . S
C366 H356 0.930 . S
C366 C364 1.419 . S
C366 C367 1.362 . S
C367 H357 0.930 . S
C367 C360 1.409 . S
C367 C366 1.362 . S
H368 C374 0.930 . S
H369 C377 0.930 . S
H370 C378 0.930 . S
H371 C379 0.930 . S
H372 C382 0.930 . S
H373 C383 0.930 . S
C374 H368 0.930 . S
C374 C375 1.355 . S
C374 C376 1.415 . S
C375 C374 1.355 . S
C375 C377 1.419 . S
C376 C374 1.415 . S
C376 C381 1.425 . S
C376 C383 1.409 . S
C377 H369 0.930 . S
C377 C375 1.419 . S
C377 C378 1.362 . S
C378 H370 0.930 . S
C378 C377 1.362 . S
C378 C381 1.409 . S
C379 H371 0.930 . S
C379 C380 1.355 . S
C379 C381 1.415 . S
C380 C379 1.355 . S
C380 C382 1.419 . S
C381 C376 1.425 . S
C381 C378 1.409 . S
C381 C379 1.415 . S
C382 H372 0.930 . S
C382 C380 1.419 . S
C382 C383 1.362 . S
C383 H373 0.930 . S
C383 C376 1.409 . S
C383 C382 1.362 . S
H384 C390 0.930 . S
H385 C393 0.930 . S
H386 C394 0.930 . S
H387 C395 0.930 . S
H388 C398 0.930 . S
H389 C399 0.930 . S
C390 H384 0.930 . S
C390 C391 1.355 . S
C390 C392 1.415 . S
C391 C390 1.355 . S
C391 C393 1.419 . S
C392 C390 1.415 . S
C392 C397 1.425 . S
C392 C399 1.409 . S
C393 H385 0.930 . S
C393 C391 1.419 . S
C393 C394 1.362 . S
C394 H386 0.930 . S
C394 C393 1.362 . S
C394 C397 1.409 . S
C395 H387 0.930 . S
C395 C396 1.355 . S
C395 C397 1.415 . S
C396 C395 1.355 . S
C396 C398 1.419 . S
C397 C392 1.425 . S
C397 C394 1.409 . S
C397 C395 1.415 . S
C398 H388 0.930 . S
C398 C396 1.419 . S
C398 C399 1.362 . S
C399 H389 0.930 . S
C399 C392 1.409 . S
C399 C398 1.362 . S
H400 C406 0.930 . S
H401 C409 0.930 . S
H402 C410 0.930 . S
H403 C411 0.930 . S
H404 C414 0.930 . S
H405 C415 0.930 . S
C406 H400 0.930 . S
C406 C407 1.355 . S
C406 C408 1.415 . S
C407 C406 1.355 . S
C407 C409 1.419 . S
C408 C406 1.415 . S
C408 C413 1.425 . S
C408 C415 1.409 . S
C409 H401 0.930 . S
C409 C407 1.419 . S
C409 C410 1.362 . S
C410 H402 0.930 . S
C410 C409 1.362 . S
C410 C413 1.409 . S
C411 H403 0.930 . S
C411 C412 1.355 . S
C411 C413 1.415 . S
C412 C411 1.355 . S
C412 C414 1.419 . S
C413 C408 1.425 . S
C413 C410 1.409 . S
C413 C411 1.415 . S
C414 H404 0.930 . S
C414 C412 1.419 . S
C414 C415 1.362 . S
C415 H405 0.930 . S
C415 C408 1.409 . S
C415 C414 1.362 . S
H416 C422 0.930 . S
H417 C425 0.930 . S
H418 C426 0.930 . S
H419 C427 0.930 . S
H420 C430 0.930 . S
H421 C431 0.930 . S
C422 H416 0.930 . S
C422 C423 1.355 . S
C422 C424 1.415 . S
C423 C422 1.355 . S
C423 C425 1.419 . S
C424 C422 1.415 . S
C424 C429 1.425 . S
C424 C431 1.409 . S
C425 H417 0.930 . S
C425 C423 1.419 . S
C425 C426 1.362 . S
C426 H418 0.930 . S
C426 C425 1.362 . S
C426 C429 1.409 . S
C427 H419 0.930 . S
C427 C428 1.355 . S
C427 C429 1.415 . S
C428 C427 1.355 . S
C428 C430 1.419 . S
C429 C424 1.425 . S
C429 C426 1.409 . S
C429 C427 1.415 . S
C430 H420 0.930 . S
C430 C428 1.419 . S
C430 C431 1.362 . S
C431 H421 0.930 . S
C431 C424 1.409 . S
C431 C430 1.362 . S
H432 C438 0.930 . S
H433 C441 0.930 . S
H434 C442 0.930 . S
H435 C443 0.930 . S
H436 C446 0.930 1_556 S
H437 C447 0.930 . S
C438 H432 0.930 . S
C438 C439 1.355 . S
C438 C440 1.415 . S
C439 C438 1.355 . S
C439 C441 1.419 . S
C440 C438 1.415 . S
C440 C445 1.425 . S
C440 C447 1.409 . S
C441 H433 0.930 . S
C441 C439 1.419 . S
C441 C442 1.362 . S
C442 H434 0.930 . S
C442 C441 1.362 . S
C442 C445 1.409 . S
C443 H435 0.930 . S
C443 C444 1.355 . S
C443 C445 1.415 . S
C444 C443 1.355 . S
C444 C446 1.419 . S
C445 C440 1.425 . S
C445 C442 1.409 . S
C445 C443 1.415 . S
C446 H436 0.930 1_554 S
C446 C444 1.419 . S
C446 C447 1.362 . S
C447 H437 0.930 . S
C447 C440 1.409 . S
C447 C446 1.362 . S
H448 C454 0.930 . S
H449 C457 0.930 . S
H450 C458 0.930 . S
H451 C459 0.930 . S
H452 C462 0.930 . S
H453 C463 0.930 . S
C454 H448 0.930 . S
C454 C455 1.355 . S
C454 C456 1.415 . S
C455 C454 1.355 . S
C455 C457 1.419 . S
C456 C454 1.415 . S
C456 C461 1.425 . S
C456 C463 1.409 . S
C457 H449 0.930 . S
C457 C455 1.419 . S
C457 C458 1.362 . S
C458 H450 0.930 . S
C458 C457 1.362 . S
C458 C461 1.409 . S
C459 H451 0.930 . S
C459 C460 1.355 . S
C459 C461 1.415 . S
C460 C459 1.355 . S
C460 C462 1.419 . S
C461 C456 1.425 . S
C461 C458 1.409 . S
C461 C459 1.415 . S
C462 H452 0.930 . S
C462 C460 1.419 . S
C462 C463 1.362 . S
C463 H453 0.930 . S
C463 C456 1.409 . S
C463 C462 1.362 . S
H464 C470 0.930 . S
H465 C473 0.930 . S
H466 C474 0.930 . S
H467 C475 0.930 . S
H468 C478 0.930 . S
H469 C479 0.930 . S
C470 H464 0.930 . S
C470 C471 1.355 . S
C470 C472 1.415 . S
C471 C470 1.355 . S
C471 C473 1.419 . S
C472 C470 1.415 . S
C472 C477 1.425 . S
C472 C479 1.409 . S
C473 H465 0.930 . S
C473 C471 1.419 . S
C473 C474 1.362 . S
C474 H466 0.930 . S
C474 C473 1.362 . S
C474 C477 1.409 . S
C475 H467 0.930 . S
C475 C476 1.355 . S
C475 C477 1.415 . S
C476 C475 1.355 . S
C476 C478 1.419 . S
C477 C472 1.425 . S
C477 C474 1.409 . S
C477 C475 1.415 . S
C478 H468 0.930 . S
C478 C476 1.419 . S
C478 C479 1.362 . S
C479 H469 0.930 . S
C479 C472 1.409 . S
C479 C478 1.362 . S
H480 C486 0.930 . S
H481 C489 0.930 . S
H482 C490 0.930 . S
H483 C491 0.930 . S
H484 C494 0.930 . S
H485 C495 0.930 . S
C486 H480 0.930 . S
C486 C487 1.355 . S
C486 C488 1.415 . S
C487 C486 1.355 . S
C487 C489 1.419 . S
C488 C486 1.415 . S
C488 C493 1.425 . S
C488 C495 1.409 . S
C489 H481 0.930 . S
C489 C487 1.419 . S
C489 C490 1.362 . S
C490 H482 0.930 . S
C490 C489 1.362 . S
C490 C493 1.409 . S
C491 H483 0.930 . S
C491 C492 1.355 . S
C491 C493 1.415 . S
C492 C491 1.355 . S
C492 C494 1.419 . S
C493 C488 1.425 . S
C493 C490 1.409 . S
C493 C491 1.415 . S
C494 H484 0.930 . S
C494 C492 1.419 . S
C494 C495 1.362 . S
C495 H485 0.930 . S
C495 C488 1.409 . S
C495 C494 1.362 . S
H496 C502 0.930 . S
H497 C505 0.930 . S
H498 C506 0.930 . S
H499 C507 0.930 . S
H500 C510 0.930 . S
H501 C511 0.930 . S
C502 H496 0.930 . S
C502 C503 1.355 . S
C502 C504 1.415 . S
C503 C502 1.355 . S
C503 C505 1.419 . S
C504 C502 1.415 . S
C504 C509 1.425 . S
C504 C511 1.409 . S
C505 H497 0.930 . S
C505 C503 1.419 . S
C505 C506 1.362 . S
C506 H498 0.930 . S
C506 C505 1.362 . S
C506 C509 1.409 . S
C507 H499 0.930 . S
C507 C508 1.355 . S
C507 C509 1.415 . S
C508 C507 1.355 . S
C508 C510 1.419 . S
C509 C504 1.425 . S
C509 C506 1.409 . S
C509 C507 1.415 . S
C510 H500 0.930 . S
C510 C508 1.419 . S
C510 C511 1.362 . S
C511 H501 0.930 . S
C511 C504 1.409 . S
C511 C510 1.362 . S
H512 C518 0.930 . S
H513 C521 0.930 . S
H514 C522 0.930 . S
H515 C523 0.930 . S
H516 C526 0.930 . S
H517 C527 0.930 . S
C518 H512 0.930 . S
C518 C519 1.355 . S
C518 C520 1.415 . S
C519 C518 1.355 . S
C519 C521 1.419 . S
C520 C518 1.415 . S
C520 C525 1.425 . S
C520 C527 1.409 . S
C521 H513 0.930 . S
C521 C519 1.419 . S
C521 C522 1.362 . S
C522 H514 0.930 . S
C522 C521 1.362 . S
C522 C525 1.409 . S
C523 H515 0.930 . S
C523 C524 1.355 . S
C523 C525 1.415 . S
C524 C523 1.355 . S
C524 C526 1.419 . S
C525 C520 1.425 . S
C525 C522 1.409 . S
C525 C523 1.415 . S
C526 H516 0.930 . S
C526 C524 1.419 . S
C526 C527 1.362 . S
C527 H517 0.930 . S
C527 C520 1.409 . S
C527 C526 1.362 . S
H528 C534 0.930 . S
H529 C537 0.930 . S
H530 C538 0.930 . S
H531 C539 0.930 . S
H532 C542 0.930 1_554 S
H533 C543 0.930 . S
C534 H528 0.930 . S
C534 C535 1.355 . S
C534 C536 1.415 . S
C535 C534 1.355 . S
C535 C537 1.419 . S
C536 C534 1.415 . S
C536 C541 1.425 . S
C536 C543 1.409 . S
C537 H529 0.930 . S
C537 C535 1.419 . S
C537 C538 1.362 . S
C538 H530 0.930 . S
C538 C537 1.362 . S
C538 C541 1.409 . S
C539 H531 0.930 . S
C539 C540 1.355 . S
C539 C541 1.415 . S
C540 C539 1.355 . S
C540 C542 1.419 . S
C541 C536 1.425 . S
C541 C538 1.409 . S
C541 C539 1.415 . S
C542 H532 0.930 1_556 S
C542 C540 1.419 . S
C542 C543 1.362 . S
C543 H533 0.930 . S
C543 C536 1.409 . S
C543 C542 1.362 . S
H544 C550 0.930 . S
H545 C553 0.930 . S
H546 C554 0.930 . S
H547 C555 0.930 . S
H548 C558 0.930 . S
H549 C559 0.930 . S
C550 H544 0.930 . S
C550 C551 1.355 . S
C550 C552 1.415 . S
C551 C550 1.355 . S
C551 C553 1.419 . S
C552 C550 1.415 . S
C552 C557 1.425 . S
C552 C559 1.409 . S
C553 H545 0.930 . S
C553 C551 1.419 . S
C553 C554 1.362 . S
C554 H546 0.930 . S
C554 C553 1.362 . S
C554 C557 1.409 . S
C555 H547 0.930 . S
C555 C556 1.355 . S
C555 C557 1.415 . S
C556 C555 1.355 . S
C556 C558 1.419 . S
C557 C552 1.425 . S
C557 C554 1.409 . S
C557 C555 1.415 . S
C558 H548 0.930 . S
C558 C556 1.419 . S
C558 C559 1.362 . S
C559 H549 0.930 . S
C559 C552 1.409 . S
C559 C558 1.362 . S
H560 C566 0.930 . S
H561 C569 0.930 1_554 S
H562 C570 0.930 . S
H563 C571 0.930 . S
H564 C574 0.930 . S
H565 C575 0.930 . S
C566 H560 0.930 . S
C566 C567 1.355 . S
C566 C568 1.415 . S
C567 C566 1.355 . S
C567 C569 1.419 . S
C568 C566 1.415 . S
C568 C573 1.425 . S
C568 C575 1.409 . S
C569 H561 0.930 1_556 S
C569 C567 1.419 . S
C569 C570 1.362 . S
C570 H562 0.930 . S
C570 C569 1.362 . S
C570 C573 1.409 . S
C571 H563 0.930 . S
C571 C572 1.355 . S
C571 C573 1.415 . S
C572 C571 1.355 . S
C572 C574 1.419 . S
C573 C568 1.425 . S
C573 C570 1.409 . S
C573 C571 1.415 . S
C574 H564 0.930 . S
C574 C572 1.419 . S
C574 C575 1.362 . S
C575 H565 0.930 . S
C575 C568 1.409 . S
C575 C574 1.362 . S
H576 C582 0.930 . S
H577 C585 0.930 . S
H578 C586 0.930 . S
H579 C587 0.930 . S
H580 C590 0.930 . S
H581 C591 0.930 . S
C582 H576 0.930 . S
C582 C583 1.355 . S
C582 C584 1.415 . S
C583 C582 1.355 . S
C583 C585 1.419 . S
C584 C582 1.415 . S
C584 C589 1.425 . S
C584 C591 1.409 . S
C585 H577 0.930 . S
C585 C583 1.419 . S
C585 C586 1.362 . S
C586 H578 0.930 . S
C586 C585 1.362 . S
C586 C589 1.409 . S
C587 H579 0.930 . S
C587 C588 1.355 . S
C587 C589 1.415 . S
C588 C587 1.355 . S
C588 C590 1.419 . S
C589 C584 1.425 . S
C589 C586 1.409 . S
C589 C587 1.415 . S
C590 H580 0.930 . S
C590 C588 1.419 . S
C590 C591 1.362 . S
C591 H581 0.930 . S
C591 C584 1.409 . S
C591 C590 1.362 . S
H592 C598 0.930 . S
H593 C601 0.930 . S
H594 C602 0.930 . S
H595 C603 0.930 . S
H596 C606 0.930 . S
H597 C607 0.930 . S
C598 H592 0.930 . S
C598 C599 1.355 . S
C598 C600 1.415 . S
C599 C598 1.355 . S
C599 C601 1.419 . S
C600 C598 1.415 . S
C600 C605 1.425 . S
C600 C607 1.409 . S
C601 H593 0.930 . S
C601 C599 1.419 . S
C601 C602 1.362 . S
C602 H594 0.930 . S
C602 C601 1.362 . S
C602 C605 1.409 . S
C603 H595 0.930 . S
C603 C604 1.355 . S
C603 C605 1.415 . S
C604 C603 1.355 . S
C604 C606 1.419 . S
C605 C600 1.425 . S
C605 C602 1.409 . S
C605 C603 1.415 . S
C606 H596 0.930 . S
C606 C604 1.419 . S
C606 C607 1.362 . S
C607 H597 0.930 . S
C607 C600 1.409 . S
C607 C606 1.362 . S
H608 C614 0.930 . S
H609 C617 0.930 . S
H610 C618 0.930 . S
H611 C619 0.930 . S
H612 C622 0.930 . S
H613 C623 0.930 . S
C614 H608 0.930 . S
C614 C615 1.355 . S
C614 C616 1.415 . S
C615 C614 1.355 . S
C615 C617 1.419 . S
C616 C614 1.415 . S
C616 C621 1.425 . S
C616 C623 1.409 . S
C617 H609 0.930 . S
C617 C615 1.419 . S
C617 C618 1.362 . S
C618 H610 0.930 . S
C618 C617 1.362 . S
C618 C621 1.409 . S
C619 H611 0.930 . S
C619 C620 1.355 . S
C619 C621 1.415 . S
C620 C619 1.355 . S
C620 C622 1.419 . S
C621 C616 1.425 . S
C621 C618 1.409 . S
C621 C619 1.415 . S
C622 H612 0.930 . S
C622 C620 1.419 . S
C622 C623 1.362 . S
C623 H613 0.930 . S
C623 C616 1.409 . S
C623 C622 1.362 . S
H624 C630 0.930 . S
H625 C633 0.930 . S
H626 C634 0.930 . S
H627 C635 0.930 . S
H628 C638 0.930 . S
H629 C639 0.930 . S
C630 H624 0.930 . S
C630 C631 1.355 . S
C630 C632 1.415 . S
C631 C630 1.355 . S
C631 C633 1.419 . S
C632 C630 1.415 . S
C632 C637 1.425 . S
C632 C639 1.409 . S
C633 H625 0.930 . S
C633 C631 1.419 . S
C633 C634 1.362 . S
C634 H626 0.930 . S
C634 C633 1.362 . S
C634 C637 1.409 . S
C635 H627 0.930 . S
C635 C636 1.355 . S
C635 C637 1.415 . S
C636 C635 1.355 . S
C636 C638 1.419 . S
C637 C632 1.425 . S
C637 C634 1.409 . S
C637 C635 1.415 . S
C638 H628 0.930 . S
C638 C636 1.419 . S
C638 C639 1.362 . S
C639 H629 0.930 . S
C639 C632 1.409 . S
C639 C638 1.362 . S
H640 C646 0.930 . S
H641 C649 0.930 . S
H642 C650 0.930 . S
H643 C651 0.930 . S
H644 C654 0.930 . S
H645 C655 0.930 . S
C646 H640 0.930 . S
C646 C647 1.355 . S
C646 C648 1.415 . S
C647 C646 1.355 . S
C647 C649 1.419 . S
C648 C646 1.415 . S
C648 C653 1.425 . S
C648 C655 1.409 . S
C649 H641 0.930 . S
C649 C647 1.419 . S
C649 C650 1.362 . S
C650 H642 0.930 . S
C650 C649 1.362 . S
C650 C653 1.409 . S
C651 H643 0.930 . S
C651 C652 1.355 . S
C651 C653 1.415 . S
C652 C651 1.355 . S
C652 C654 1.419 . S
C653 C648 1.425 . S
C653 C650 1.409 . S
C653 C651 1.415 . S
C654 H644 0.930 . S
C654 C652 1.419 . S
C654 C655 1.362 . S
C655 H645 0.930 . S
C655 C648 1.409 . S
C655 C654 1.362 . S
H656 C662 0.930 . S
H657 C665 0.930 . S
H658 C666 0.930 . S
H659 C667 0.930 . S
H660 C670 0.930 . S
H661 C671 0.930 . S
C662 H656 0.930 . S
C662 C663 1.355 . S
C662 C664 1.415 . S
C663 C662 1.355 . S
C663 C665 1.419 . S
C664 C662 1.415 . S
C664 C669 1.425 . S
C664 C671 1.409 . S
C665 H657 0.930 . S
C665 C663 1.419 . S
C665 C666 1.362 . S
C666 H658 0.930 . S
C666 C665 1.362 . S
C666 C669 1.409 . S
C667 H659 0.930 . S
C667 C668 1.355 . S
C667 C669 1.415 . S
C668 C667 1.355 . S
C668 C670 1.419 . S
C669 C664 1.425 . S
C669 C666 1.409 . S
C669 C667 1.415 . S
C670 H660 0.930 . S
C670 C668 1.419 . S
C670 C671 1.362 . S
C671 H661 0.930 . S
C671 C664 1.409 . S
C671 C670 1.362 . S
H672 C678 0.930 . S
H673 C681 0.930 . S
H674 C682 0.930 . S
H675 C683 0.930 . S
H676 C686 0.930 . S
H677 C687 0.930 . S
C678 H672 0.930 . S
C678 C679 1.355 . S
C678 C680 1.415 . S
C679 C678 1.355 . S
C679 C681 1.419 . S
C680 C678 1.415 . S
C680 C685 1.425 . S
C680 C687 1.409 . S
C681 H673 0.930 . S
C681 C679 1.419 . S
C681 C682 1.362 . S
C682 H674 0.930 . S
C682 C681 1.362 . S
C682 C685 1.409 . S
C683 H675 0.930 . S
C683 C684 1.355 . S
C683 C685 1.415 . S
C684 C683 1.355 . S
C684 C686 1.419 . S
C685 C680 1.425 . S
C685 C682 1.409 . S
C685 C683 1.415 . S
C686 H676 0.930 . S
C686 C684 1.419 . S
C686 C687 1.362 . S
C687 H677 0.930 . S
C687 C680 1.409 . S
C687 C686 1.362 . S
H688 C694 0.930 . S
H689 C697 0.930 . S
H690 C698 0.930 . S
H691 C699 0.930 . S
H692 C702 0.930 . S
H693 C703 0.930 . S
C694 H688 0.930 . S
C694 C695 1.355 . S
C694 C696 1.415 . S
C695 C694 1.355 . S
C695 C697 1.419 . S
C696 C694 1.415 . S
C696 C701 1.425 . S
C696 C703 1.409 . S
C697 H689 0.930 . S
C697 C695 1.419 . S
C697 C698 1.362 . S
C698 H690 0.930 . S
C698 C697 1.362 . S
C698 C701 1.409 . S
C699 H691 0.930 . S
C699 C700 1.355 . S
C699 C701 1.415 . S
C700 C699 1.355 . S
C700 C702 1.419 . S
C701 C696 1.425 . S
C701 C698 1.409 . S
C701 C699 1.415 . S
C702 H692 0.930 . S
C702 C700 1.419 . S
C702 C703 1.362 . S
C703 H693 0.930 . S
C703 C696 1.409 . S
C703 C702 1.362 . S
H704 C710 0.930 . S
H705 C713 0.930 . S
H706 C714 0.930 . S
H707 C715 0.930 . S
H708 C718 0.930 . S
H709 C719 0.930 . S
C710 H704 0.930 . S
C710 C711 1.355 . S
C710 C712 1.415 . S
C711 C710 1.355 . S
C711 C713 1.419 . S
C712 C710 1.415 . S
C712 C717 1.425 . S
C712 C719 1.409 . S
C713 H705 0.930 . S
C713 C711 1.419 . S
C713 C714 1.362 . S
C714 H706 0.930 . S
C714 C713 1.362 . S
C714 C717 1.409 . S
C715 H707 0.930 . S
C715 C716 1.355 . S
C715 C717 1.415 . S
C716 C715 1.355 . S
C716 C718 1.419 . S
C717 C712 1.425 . S
C717 C714 1.409 . S
C717 C715 1.415 . S
C718 H708 0.930 . S
C718 C716 1.419 . S
C718 C719 1.362 . S
C719 H709 0.930 . S
C719 C712 1.409 . S
C719 C718 1.362 . S
C215 C4 1.110 . S
C220 C56 1.145 . S
C231 C69 1.135 . S
C236 C23 1.131 . S
C247 C36 1.124 . S
C252 C88 1.140 . S
C263 C49 1.135 . S
C268 C101 1.131 . S
C279 C108 1.133 . S
C284 C160 1.133 . S
C295 C173 1.120 . S
C300 C127 1.143 . S
C311 C140 1.120 . S
C316 C192 1.143 . S
C327 C147 1.128 . S
C332 C205 1.138 . S
C343 C10 1.568 1_556 S
C348 C198 1.587 . S
C359 C161 1.575 . S
C364 C17 1.590 . S
C375 C30 1.589 1_556 S
C380 C174 1.577 . S
C391 C185 1.587 . S
C396 C43 1.572 . S
C407 C120 1.575 . S
C412 C62 1.587 1_554 S
C423 C133 1.576 . S
C428 C75 1.586 . S
C439 C148 1.580 . S
C444 C82 1.585 1_554 S
C455 C109 1.582 . S
C460 C95 1.575 . S
C471 C114 1.564 1_554 S
C476 C94 1.590 . S
C487 C57 1.590 . S
C492 C121 1.564 . S
C503 C70 1.575 . S
C508 C134 1.587 1_554 S
C519 C153 1.579 . S
C524 C81 1.583 . S
C535 C16 1.580 . S
C540 C166 1.584 1_556 S
C551 C179 1.587 . S
C556 C29 1.578 . S
C567 C186 1.571 1_556 S
C572 C42 1.588 . S
C583 C199 1.579 . S
C588 C5 1.579 . S
C599 C96 1.248 . S
C604 C3 1.305 . S
C615 C18 1.305 . S
C620 C55 1.249 . S
C631 C31 1.259 . S
C636 C68 1.289 . S
C647 C44 1.254 . S
C652 C83 1.296 . S
C663 C200 1.305 . S
C668 C107 1.248 . S
C679 C159 1.254 . S
C684 C122 1.295 . S
C695 C172 1.294 . S
C700 C135 1.263 . S
C711 C187 1.263 . S
C716 C146 1.294 . S
