# Generated by pormake.
# Topology ukc, (4)-cn, num edge types: 1
# Building blocks:
#     Node 0, Type 0, BuildingBlock: QUQFOY_clean_sbu_3, # of connection points: 4
#     Node 1, Type 0, BuildingBlock: QUQFOY_clean_sbu_3, # of connection points: 4
#     Node 2, Type 0, BuildingBlock: QUQFOY_clean_sbu_3, # of connection points: 4
#     Node 3, Type 0, BuildingBlock: QUQFOY_clean_sbu_3, # of connection points: 4
#     Node 4, Type 0, BuildingBlock: QUQFOY_clean_sbu_3, # of connection points: 4
#     Node 5, Type 0, BuildingBlock: QUQFOY_clean_sbu_3, # of connection points: 4
#     Node 6, Type 0, BuildingBlock: QUQFOY_clean_sbu_3, # of connection points: 4
#     Node 7, Type 0, BuildingBlock: QUQFOY_clean_sbu_3, # of connection points: 4
#     Node 8, Type 0, BuildingBlock: QUQFOY_clean_sbu_3, # of connection points: 4
#     Node 9, Type 0, BuildingBlock: QUQFOY_clean_sbu_3, # of connection points: 4
#     Node 10, Type 0, BuildingBlock: QUQFOY_clean_sbu_3, # of connection points: 4
#     Node 11, Type 0, BuildingBlock: QUQFOY_clean_sbu_3, # of connection points: 4
#     Node 12, Type 0, BuildingBlock: QUQFOY_clean_sbu_3, # of connection points: 4
#     Node 13, Type 0, BuildingBlock: QUQFOY_clean_sbu_3, # of connection points: 4
#     Node 14, Type 0, BuildingBlock: QUQFOY_clean_sbu_3, # of connection points: 4
#     Node 15, Type 0, BuildingBlock: QUQFOY_clean_sbu_3, # of connection points: 4
#     Node 16, Type 0, BuildingBlock: QUQFOY_clean_sbu_3, # of connection points: 4
#     Node 17, Type 0, BuildingBlock: QUQFOY_clean_sbu_3, # of connection points: 4
#     Node 18, Type 0, BuildingBlock: QUQFOY_clean_sbu_3, # of connection points: 4
#     Node 19, Type 0, BuildingBlock: QUQFOY_clean_sbu_3, # of connection points: 4
#     Node 20, Type 0, BuildingBlock: QUQFOY_clean_sbu_3, # of connection points: 4
#     Node 21, Type 0, BuildingBlock: QUQFOY_clean_sbu_3, # of connection points: 4
#     Node 22, Type 0, BuildingBlock: QUQFOY_clean_sbu_3, # of connection points: 4
#     Node 23, Type 0, BuildingBlock: QUQFOY_clean_sbu_3, # of connection points: 4
#     Node 24, Type 0, BuildingBlock: QUQFOY_clean_sbu_3, # of connection points: 4
#     Node 25, Type 0, BuildingBlock: QUQFOY_clean_sbu_3, # of connection points: 4
#     Node 26, Type 0, BuildingBlock: QUQFOY_clean_sbu_3, # of connection points: 4
#     Node 27, Type 0, BuildingBlock: QUQFOY_clean_sbu_3, # of connection points: 4
#     Node 28, Type 0, BuildingBlock: QUQFOY_clean_sbu_3, # of connection points: 4
#     Node 29, Type 0, BuildingBlock: QUQFOY_clean_sbu_3, # of connection points: 4
#     Node 30, Type 0, BuildingBlock: QUQFOY_clean_sbu_3, # of connection points: 4
#     Node 31, Type 0, BuildingBlock: QUQFOY_clean_sbu_3, # of connection points: 4
#     Edge 32, Type (0, 0), BuildingBlock: MIFKUJ_clean_linker_0, # of connection points: 2
#     Edge 33, Type (0, 0), BuildingBlock: MIFKUJ_clean_linker_0, # of connection points: 2
#     Edge 34, Type (0, 0), BuildingBlock: MIFKUJ_clean_linker_0, # of connection points: 2
#     Edge 35, Type (0, 0), BuildingBlock: MIFKUJ_clean_linker_0, # of connection points: 2
#     Edge 36, Type (0, 0), BuildingBlock: MIFKUJ_clean_linker_0, # of connection points: 2
#     Edge 37, Type (0, 0), BuildingBlock: MIFKUJ_clean_linker_0, # of connection points: 2
#     Edge 38, Type (0, 0), BuildingBlock: MIFKUJ_clean_linker_0, # of connection points: 2
#     Edge 39, Type (0, 0), BuildingBlock: MIFKUJ_clean_linker_0, # of connection points: 2
#     Edge 40, Type (0, 0), BuildingBlock: MIFKUJ_clean_linker_0, # of connection points: 2
#     Edge 41, Type (0, 0), BuildingBlock: MIFKUJ_clean_linker_0, # of connection points: 2
#     Edge 42, Type (0, 0), BuildingBlock: MIFKUJ_clean_linker_0, # of connection points: 2
#     Edge 43, Type (0, 0), BuildingBlock: MIFKUJ_clean_linker_0, # of connection points: 2
#     Edge 44, Type (0, 0), BuildingBlock: MIFKUJ_clean_linker_0, # of connection points: 2
#     Edge 45, Type (0, 0), BuildingBlock: MIFKUJ_clean_linker_0, # of connection points: 2
#     Edge 46, Type (0, 0), BuildingBlock: MIFKUJ_clean_linker_0, # of connection points: 2
#     Edge 47, Type (0, 0), BuildingBlock: MIFKUJ_clean_linker_0, # of connection points: 2
#     Edge 48, Type (0, 0), BuildingBlock: MIFKUJ_clean_linker_0, # of connection points: 2
#     Edge 49, Type (0, 0), BuildingBlock: MIFKUJ_clean_linker_0, # of connection points: 2
#     Edge 50, Type (0, 0), BuildingBlock: MIFKUJ_clean_linker_0, # of connection points: 2
#     Edge 51, Type (0, 0), BuildingBlock: MIFKUJ_clean_linker_0, # of connection points: 2
#     Edge 52, Type (0, 0), BuildingBlock: MIFKUJ_clean_linker_0, # of connection points: 2
#     Edge 53, Type (0, 0), BuildingBlock: MIFKUJ_clean_linker_0, # of connection points: 2
#     Edge 54, Type (0, 0), BuildingBlock: MIFKUJ_clean_linker_0, # of connection points: 2
#     Edge 55, Type (0, 0), BuildingBlock: MIFKUJ_clean_linker_0, # of connection points: 2
#     Edge 56, Type (0, 0), BuildingBlock: MIFKUJ_clean_linker_0, # of connection points: 2
#     Edge 57, Type (0, 0), BuildingBlock: MIFKUJ_clean_linker_0, # of connection points: 2
#     Edge 58, Type (0, 0), BuildingBlock: MIFKUJ_clean_linker_0, # of connection points: 2
#     Edge 59, Type (0, 0), BuildingBlock: MIFKUJ_clean_linker_0, # of connection points: 2
#     Edge 60, Type (0, 0), BuildingBlock: MIFKUJ_clean_linker_0, # of connection points: 2
#     Edge 61, Type (0, 0), BuildingBlock: MIFKUJ_clean_linker_0, # of connection points: 2
#     Edge 62, Type (0, 0), BuildingBlock: MIFKUJ_clean_linker_0, # of connection points: 2
#     Edge 63, Type (0, 0), BuildingBlock: MIFKUJ_clean_linker_0, # of connection points: 2
#     Edge 64, Type (0, 0), BuildingBlock: MIFKUJ_clean_linker_0, # of connection points: 2
#     Edge 65, Type (0, 0), BuildingBlock: MIFKUJ_clean_linker_0, # of connection points: 2
#     Edge 66, Type (0, 0), BuildingBlock: MIFKUJ_clean_linker_0, # of connection points: 2
#     Edge 67, Type (0, 0), BuildingBlock: MIFKUJ_clean_linker_0, # of connection points: 2
#     Edge 68, Type (0, 0), BuildingBlock: MIFKUJ_clean_linker_0, # of connection points: 2
#     Edge 69, Type (0, 0), BuildingBlock: MIFKUJ_clean_linker_0, # of connection points: 2
#     Edge 70, Type (0, 0), BuildingBlock: MIFKUJ_clean_linker_0, # of connection points: 2
#     Edge 71, Type (0, 0), BuildingBlock: MIFKUJ_clean_linker_0, # of connection points: 2
#     Edge 72, Type (0, 0), BuildingBlock: MIFKUJ_clean_linker_0, # of connection points: 2
#     Edge 73, Type (0, 0), BuildingBlock: MIFKUJ_clean_linker_0, # of connection points: 2
#     Edge 74, Type (0, 0), BuildingBlock: MIFKUJ_clean_linker_0, # of connection points: 2
#     Edge 75, Type (0, 0), BuildingBlock: MIFKUJ_clean_linker_0, # of connection points: 2
#     Edge 76, Type (0, 0), BuildingBlock: MIFKUJ_clean_linker_0, # of connection points: 2
#     Edge 77, Type (0, 0), BuildingBlock: MIFKUJ_clean_linker_0, # of connection points: 2
#     Edge 78, Type (0, 0), BuildingBlock: MIFKUJ_clean_linker_0, # of connection points: 2
#     Edge 79, Type (0, 0), BuildingBlock: MIFKUJ_clean_linker_0, # of connection points: 2
#     Edge 80, Type (0, 0), BuildingBlock: MIFKUJ_clean_linker_0, # of connection points: 2
#     Edge 81, Type (0, 0), BuildingBlock: MIFKUJ_clean_linker_0, # of connection points: 2
#     Edge 82, Type (0, 0), BuildingBlock: MIFKUJ_clean_linker_0, # of connection points: 2
#     Edge 83, Type (0, 0), BuildingBlock: MIFKUJ_clean_linker_0, # of connection points: 2
#     Edge 84, Type (0, 0), BuildingBlock: MIFKUJ_clean_linker_0, # of connection points: 2
#     Edge 85, Type (0, 0), BuildingBlock: MIFKUJ_clean_linker_0, # of connection points: 2
#     Edge 86, Type (0, 0), BuildingBlock: MIFKUJ_clean_linker_0, # of connection points: 2
#     Edge 87, Type (0, 0), BuildingBlock: MIFKUJ_clean_linker_0, # of connection points: 2
#     Edge 88, Type (0, 0), BuildingBlock: MIFKUJ_clean_linker_0, # of connection points: 2
#     Edge 89, Type (0, 0), BuildingBlock: MIFKUJ_clean_linker_0, # of connection points: 2
#     Edge 90, Type (0, 0), BuildingBlock: MIFKUJ_clean_linker_0, # of connection points: 2
#     Edge 91, Type (0, 0), BuildingBlock: MIFKUJ_clean_linker_0, # of connection points: 2
#     Edge 92, Type (0, 0), BuildingBlock: MIFKUJ_clean_linker_0, # of connection points: 2
#     Edge 93, Type (0, 0), BuildingBlock: MIFKUJ_clean_linker_0, # of connection points: 2
#     Edge 94, Type (0, 0), BuildingBlock: MIFKUJ_clean_linker_0, # of connection points: 2
#     Edge 95, Type (0, 0), BuildingBlock: MIFKUJ_clean_linker_0, # of connection points: 2
# Relax obj value: 0.042
# Max RMSD: 0.062
# Mean RMSD: 0.062
data_MOF--net-ukc--node1-QUQFOY_clean_sbu_3--edge1-MIFKUJ_clean_linker_0
_symmetry_space_group_name_H-M    P1
_symmetry_Int_Tables_number       1
_symmetry_cell_setting            triclinic
loop_
_symmetry_equiv_pos_as_xyz
'x, y, z'
_cell_length_a     59.417241
_cell_length_b     59.341827
_cell_length_c     115.82863
_cell_angle_alpha  89.987678
_cell_angle_beta   89.986546
_cell_angle_gamma 90.049333
loop_
_atom_site_label
_atom_site_type_symbol
_atom_site_fract_x
_atom_site_fract_y
_atom_site_fract_z
_atom_type_partial_charge
C0 C 0.08915 0.39685 0.05849 0.0
O1 O 0.06957 0.40486 0.05693 0.0
Cd2 Cd 0.05036 0.4054 0.03889 0.0
O3 O 0.10013 0.38823 0.05013 0.0
Cd4 Cd 0.09441 0.38165 0.0292 0.0
C5 C 0.04892 0.34865 0.03403 0.0
O6 O 0.07838 0.41828 0.02563 0.0
O7 O 0.07592 0.39517 0.01141 0.0
O8 O 0.13493 0.38669 0.02699 0.0
C9 C 0.07296 0.41495 0.01522 0.0
O10 O 0.03767 0.36659 0.03577 0.0
C11 C 0.13725 0.37062 0.01985 0.0
O12 O 0.07002 0.34947 0.03224 0.0
O13 O 0.11974 0.35941 0.01732 0.0
C14 C 0.84186 0.83461 0.31223 0.0
O15 O 0.83453 0.81486 0.31027 0.0
Cd16 Cd 0.83107 0.79802 0.29166 0.0
O17 O 0.84838 0.84726 0.30398 0.0
Cd18 Cd 0.85185 0.84511 0.28271 0.0
C19 C 0.8866 0.79963 0.28397 0.0
O20 O 0.81584 0.82753 0.28005 0.0
O21 O 0.83617 0.82905 0.26473 0.0
O22 O 0.8435 0.88523 0.28104 0.0
C23 C 0.81753 0.82387 0.26934 0.0
O24 O 0.86949 0.7875 0.28629 0.0
C25 C 0.8607 0.88972 0.27493 0.0
O26 O 0.88478 0.8209 0.28297 0.0
O27 O 0.87389 0.8735 0.27266 0.0
C28 C 0.40054 0.58556 0.5607 0.0
O29 O 0.41967 0.57708 0.55847 0.0
Cd30 Cd 0.43677 0.57691 0.53985 0.0
O31 O 0.38874 0.59456 0.55275 0.0
Cd32 Cd 0.39132 0.60113 0.53168 0.0
C33 C 0.43762 0.63386 0.53495 0.0
O34 O 0.40718 0.56489 0.52735 0.0
O35 O 0.40785 0.58835 0.51323 0.0
O36 O 0.35109 0.59421 0.52981 0.0
C37 C 0.41153 0.56853 0.51684 0.0
O38 O 0.44893 0.61587 0.53649 0.0
C39 C 0.34719 0.61193 0.52399 0.0
O40 O 0.41637 0.63313 0.53372 0.0
O41 O 0.36378 0.62486 0.52202 0.0
C42 C 0.64548 0.15061 0.81116 0.0
O43 O 0.65252 0.17077 0.81043 0.0
Cd44 Cd 0.65206 0.19239 0.79306 0.0
O45 O 0.63759 0.14051 0.80234 0.0
Cd46 Cd 0.63125 0.14811 0.78161 0.0
C47 C 0.59561 0.19137 0.787 0.0
O48 O 0.66647 0.16718 0.77881 0.0
O49 O 0.64359 0.16962 0.76447 0.0
O50 O 0.64258 0.10998 0.77679 0.0
C51 C 0.66298 0.17356 0.76856 0.0
O52 O 0.6128 0.20304 0.78974 0.0
C53 C 0.62461 0.10495 0.77146 0.0
O54 O 0.59756 0.17064 0.78438 0.0
O55 O 0.60941 0.11995 0.77101 0.0
C56 C 0.0887 0.59373 0.42427 0.0
O57 O 0.06866 0.58688 0.42577 0.0
Cd58 Cd 0.04993 0.58551 0.44397 0.0
O59 O 0.10038 0.6009 0.43274 0.0
Cd60 Cd 0.09549 0.60645 0.45373 0.0
C61 C 0.0512 0.64172 0.45008 0.0
O62 O 0.07763 0.57062 0.45683 0.0
O63 O 0.07672 0.59285 0.47147 0.0
O64 O 0.1352 0.59791 0.45651 0.0
C65 C 0.07262 0.57352 0.46732 0.0
O66 O 0.03905 0.62445 0.44813 0.0
C67 C 0.13915 0.61504 0.46277 0.0
O68 O 0.07232 0.63984 0.45157 0.0
O69 O 0.12284 0.62838 0.4646 0.0
C70 C 0.65413 0.84509 0.67414 0.0
O71 O 0.66206 0.82538 0.67544 0.0
Cd72 Cd 0.66192 0.8052 0.69332 0.0
O73 O 0.64561 0.85568 0.68266 0.0
Cd74 Cd 0.63901 0.85015 0.7035 0.0
C75 C 0.60511 0.80515 0.69874 0.0
O76 O 0.67428 0.83198 0.70729 0.0
O77 O 0.65043 0.83013 0.72124 0.0
O78 O 0.64926 0.88888 0.70767 0.0
C79 C 0.67009 0.82599 0.71754 0.0
O80 O 0.62278 0.79372 0.69663 0.0
C81 C 0.63076 0.89395 0.71249 0.0
O82 O 0.60626 0.82622 0.70073 0.0
O83 O 0.61583 0.87866 0.713 0.0
C84 C 0.40168 0.39366 0.92478 0.0
O85 O 0.42136 0.40143 0.9264 0.0
Cd86 Cd 0.43959 0.40419 0.94464 0.0
O87 O 0.38989 0.38644 0.93322 0.0
Cd88 Cd 0.3935 0.38212 0.95446 0.0
C89 C 0.43897 0.34795 0.9514 0.0
O90 O 0.41043 0.41867 0.95675 0.0
O91 O 0.40934 0.39877 0.97221 0.0
O92 O 0.35256 0.38622 0.95474 0.0
C93 C 0.41434 0.4173 0.96744 0.0
O94 O 0.45058 0.36528 0.94882 0.0
C95 C 0.3497 0.37212 0.96287 0.0
O96 O 0.41794 0.34952 0.95329 0.0
O97 O 0.36709 0.36253 0.96687 0.0
C98 C 0.85275 0.14662 0.17544 0.0
O99 O 0.8438 0.16603 0.17588 0.0
Cd100 Cd 0.84033 0.18769 0.19315 0.0
O101 O 0.85993 0.13702 0.18457 0.0
Cd102 Cd 0.86136 0.14422 0.20559 0.0
C103 C 0.89582 0.18899 0.2015 0.0
O104 O 0.82482 0.16164 0.20668 0.0
O105 O 0.84469 0.16425 0.22215 0.0
O106 O 0.85223 0.10475 0.20852 0.0
C107 C 0.82611 0.16783 0.2171 0.0
O108 O 0.87864 0.19981 0.19796 0.0
C109 C 0.86798 0.10103 0.21568 0.0
O110 O 0.89433 0.16827 0.20422 0.0
O111 O 0.88099 0.1174 0.218 0.0
C112 C 0.90123 0.59869 0.92397 0.0
O113 O 0.92128 0.59137 0.92451 0.0
Cd114 Cd 0.94237 0.58984 0.94204 0.0
O115 O 0.89119 0.60572 0.933 0.0
Cd116 Cd 0.89832 0.60989 0.95389 0.0
C117 C 0.94149 0.64581 0.94929 0.0
O118 O 0.91627 0.57362 0.95542 0.0
O119 O 0.91824 0.59404 0.97071 0.0
O120 O 0.85806 0.60316 0.9554 0.0
C121 C 0.92214 0.57531 0.96586 0.0
O122 O 0.95328 0.62879 0.94643 0.0
C123 C 0.85493 0.61721 0.9635 0.0
O124 O 0.9207 0.64368 0.95165 0.0
O125 O 0.87202 0.62795 0.96711 0.0
C126 C 0.14853 0.14244 0.67437 0.0
O127 O 0.15644 0.16228 0.67512 0.0
Cd128 Cd 0.15637 0.18455 0.69229 0.0
O129 O 0.14016 0.13265 0.68317 0.0
Cd130 Cd 0.13418 0.14053 0.70392 0.0
C131 C 0.09961 0.18437 0.69793 0.0
O132 O 0.16933 0.15972 0.70699 0.0
O133 O 0.14567 0.16262 0.72097 0.0
O134 O 0.14489 0.1024 0.70912 0.0
C135 C 0.16519 0.16674 0.71707 0.0
O136 O 0.11713 0.19568 0.69532 0.0
C137 C 0.12676 0.09786 0.71444 0.0
O138 O 0.10102 0.16363 0.70063 0.0
O139 O 0.11178 0.1131 0.71467 0.0
C140 C 0.59312 0.40463 0.42239 0.0
O141 O 0.57344 0.41264 0.42356 0.0
Cd142 Cd 0.55218 0.41193 0.44104 0.0
O143 O 0.60343 0.3958 0.43092 0.0
Cd144 Cd 0.59674 0.38943 0.45174 0.0
C145 C 0.55224 0.35512 0.44665 0.0
O146 O 0.5782 0.42467 0.45524 0.0
O147 O 0.57572 0.40089 0.46919 0.0
O148 O 0.63485 0.3999 0.45707 0.0
C149 C 0.57176 0.42055 0.46542 0.0
O150 O 0.54082 0.37264 0.4442 0.0
C151 C 0.63968 0.38109 0.46167 0.0
O152 O 0.57311 0.35655 0.44898 0.0
O153 O 0.62462 0.3659 0.46144 0.0
C154 C 0.3393 0.84393 0.17442 0.0
O155 O 0.33118 0.82416 0.17511 0.0
Cd156 Cd 0.33071 0.8017 0.19223 0.0
O157 O 0.34768 0.85358 0.18326 0.0
Cd158 Cd 0.35348 0.84587 0.204 0.0
C159 C 0.38742 0.80135 0.19817 0.0
O160 O 0.31826 0.827 0.2068 0.0
O161 O 0.34117 0.82441 0.22112 0.0
O162 O 0.34273 0.88392 0.20921 0.0
C163 C 0.32188 0.82016 0.21696 0.0
O164 O 0.36983 0.79028 0.19542 0.0
C165 C 0.36095 0.88859 0.21441 0.0
O166 O 0.38622 0.82208 0.20094 0.0
O167 O 0.37608 0.87348 0.21454 0.0
C168 C 0.89514 0.39818 0.56032 0.0
O169 O 0.91483 0.40642 0.55968 0.0
Cd170 Cd 0.93649 0.40753 0.54231 0.0
O171 O 0.88548 0.39014 0.55141 0.0
Cd172 Cd 0.89265 0.38527 0.53058 0.0
C173 C 0.93719 0.35109 0.5357 0.0
O174 O 0.91065 0.42118 0.52818 0.0
O175 O 0.91303 0.39922 0.51345 0.0
O176 O 0.85381 0.39513 0.52673 0.0
C177 C 0.91695 0.41838 0.51786 0.0
O178 O 0.94821 0.36859 0.53866 0.0
C179 C 0.8493 0.37746 0.52099 0.0
O180 O 0.91647 0.35241 0.53301 0.0
O181 O 0.86503 0.36318 0.51978 0.0
C182 C 0.33467 0.15025 0.31133 0.0
O183 O 0.32708 0.17001 0.30974 0.0
Cd184 Cd 0.32549 0.18864 0.29143 0.0
O185 O 0.34242 0.13873 0.30295 0.0
Cd186 Cd 0.34855 0.14266 0.28199 0.0
C187 C 0.38198 0.18874 0.28549 0.0
O188 O 0.31313 0.16045 0.27819 0.0
O189 O 0.3361 0.16033 0.26383 0.0
O190 O 0.33887 0.10343 0.27882 0.0
C191 C 0.31676 0.16524 0.26772 0.0
O192 O 0.36428 0.20016 0.28753 0.0
C193 C 0.35733 0.09825 0.27398 0.0
O194 O 0.38096 0.16752 0.28393 0.0
O195 O 0.37197 0.11374 0.27302 0.0
C196 C 0.59377 0.59376 0.05878 0.0
O197 O 0.57457 0.5844 0.05811 0.0
Cd198 Cd 0.55315 0.58161 0.04072 0.0
O199 O 0.60342 0.60161 0.04981 0.0
Cd200 Cd 0.59748 0.60422 0.02874 0.0
C201 C 0.55196 0.63768 0.03304 0.0
O202 O 0.57987 0.56799 0.02702 0.0
O203 O 0.57914 0.58807 0.01157 0.0
O204 O 0.63724 0.59637 0.02614 0.0
C205 C 0.57432 0.56964 0.01652 0.0
O206 O 0.54131 0.62044 0.03668 0.0
C207 C 0.6409 0.61311 0.01956 0.0
O208 O 0.57253 0.63631 0.03007 0.0
O209 O 0.62429 0.62586 0.01735 0.0
C210 C 0.14698 0.83417 0.80993 0.0
O211 O 0.15409 0.8143 0.80813 0.0
Cd212 Cd 0.1503 0.79532 0.79008 0.0
O213 O 0.13773 0.84544 0.80185 0.0
Cd214 Cd 0.12882 0.84129 0.78109 0.0
C215 C 0.093 0.79822 0.78639 0.0
O216 O 0.16305 0.82218 0.77621 0.0
O217 O 0.13804 0.82187 0.76276 0.0
O218 O 0.14122 0.87956 0.77746 0.0
C219 C 0.15795 0.81725 0.76593 0.0
O220 O 0.11031 0.78602 0.78809 0.0
C221 C 0.12289 0.88618 0.773 0.0
O222 O 0.09497 0.81918 0.7843 0.0
O223 O 0.10693 0.87196 0.77247 0.0
C224 C 0.59265 0.8952 0.55922 0.0
O225 O 0.57336 0.9041 0.55799 0.0
Cd226 Cd 0.55269 0.90496 0.54036 0.0
O227 O 0.60275 0.88613 0.55068 0.0
Cd228 Cd 0.59659 0.88044 0.52971 0.0
C229 C 0.55059 0.84813 0.53473 0.0
O230 O 0.58053 0.91721 0.52693 0.0
O231 O 0.57844 0.89557 0.51213 0.0
O232 O 0.6372 0.88491 0.52787 0.0
C233 C 0.5749 0.9148 0.51649 0.0
O234 O 0.53987 0.86611 0.53714 0.0
C235 C 0.63943 0.86947 0.52036 0.0
O236 O 0.57151 0.84871 0.53241 0.0
O237 O 0.62179 0.85889 0.51739 0.0
C238 C 0.33584 0.34214 0.8098 0.0
O239 O 0.32685 0.32298 0.80817 0.0
Cd240 Cd 0.32417 0.30463 0.78992 0.0
O241 O 0.34424 0.35321 0.8014 0.0
Cd242 Cd 0.34913 0.34879 0.78028 0.0
C243 C 0.38058 0.30169 0.78414 0.0
O244 O 0.3119 0.33389 0.77722 0.0
O245 O 0.3337 0.33191 0.76248 0.0
O246 O 0.34572 0.38972 0.779 0.0
C247 C 0.31427 0.32887 0.7667 0.0
O248 O 0.3624 0.29096 0.7861 0.0
C249 C 0.36135 0.39194 0.7716 0.0
O250 O 0.38037 0.32289 0.7825 0.0
O251 O 0.37148 0.37417 0.76845 0.0
C252 C 0.90098 0.08503 0.05992 0.0
O253 O 0.91988 0.07621 0.05751 0.0
Cd254 Cd 0.93688 0.07647 0.0388 0.0
O255 O 0.88917 0.09447 0.05211 0.0
Cd256 Cd 0.89069 0.10176 0.03112 0.0
C257 C 0.93772 0.13368 0.03441 0.0
O258 O 0.9069 0.06607 0.02617 0.0
O259 O 0.90547 0.08979 0.01217 0.0
O260 O 0.85038 0.09528 0.02962 0.0
C261 C 0.9105 0.07016 0.01562 0.0
O262 O 0.94894 0.11562 0.03593 0.0
C263 C 0.84632 0.1137 0.02443 0.0
O264 O 0.91648 0.13308 0.03309 0.0
O265 O 0.86291 0.12671 0.02258 0.0
C266 C 0.14584 0.65119 0.30912 0.0
O267 O 0.15456 0.6704 0.30724 0.0
Cd268 Cd 0.15796 0.68796 0.28879 0.0
O269 O 0.13773 0.6395 0.30087 0.0
Cd270 Cd 0.13315 0.6429 0.2797 0.0
C271 C 0.10203 0.69079 0.28205 0.0
O272 O 0.17023 0.6577 0.27677 0.0
O273 O 0.14934 0.65823 0.26164 0.0
O274 O 0.13808 0.60233 0.27776 0.0
C275 C 0.16849 0.66178 0.26611 0.0
O276 O 0.12009 0.7016 0.28417 0.0
C277 C 0.12068 0.59947 0.27156 0.0
O278 O 0.10228 0.6695 0.28081 0.0
O279 O 0.10888 0.61678 0.2694 0.0
C280 C 0.59416 0.0872 0.92509 0.0
O281 O 0.57538 0.07718 0.92615 0.0
Cd282 Cd 0.55339 0.07655 0.94336 0.0
O283 O 0.60328 0.09716 0.93365 0.0
Cd284 Cd 0.59635 0.10273 0.95455 0.0
C285 C 0.54959 0.13348 0.94894 0.0
O286 O 0.58021 0.06618 0.95768 0.0
O287 O 0.5775 0.08875 0.97211 0.0
O288 O 0.63613 0.09664 0.95806 0.0
C289 C 0.57389 0.06932 0.96797 0.0
O290 O 0.53976 0.1153 0.94594 0.0
C291 C 0.63883 0.1143 0.9641 0.0
O292 O 0.57019 0.1335 0.95192 0.0
O293 O 0.62174 0.12683 0.96552 0.0
C294 C 0.15377 0.34413 0.17302 0.0
O295 O 0.16202 0.32463 0.17463 0.0
Cd296 Cd 0.16526 0.30607 0.1929 0.0
O297 O 0.14577 0.35548 0.18141 0.0
Cd298 Cd 0.14014 0.35064 0.20238 0.0
C299 C 0.10928 0.30262 0.19914 0.0
O300 O 0.17695 0.33525 0.20578 0.0
O301 O 0.15483 0.33432 0.22043 0.0
O302 O 0.14463 0.39109 0.20527 0.0
C303 C 0.17421 0.3305 0.21632 0.0
O304 O 0.12747 0.2919 0.19725 0.0
C305 C 0.1266 0.39332 0.21105 0.0
O306 O 0.10938 0.32392 0.20042 0.0
O307 O 0.11478 0.37575 0.21258 0.0
C308 C 0.90212 0.89902 0.42645 0.0
O309 O 0.92124 0.90841 0.42751 0.0
Cd310 Cd 0.94032 0.91379 0.44543 0.0
O311 O 0.89154 0.89163 0.43525 0.0
Cd312 Cd 0.89619 0.88918 0.45644 0.0
C313 C 0.94382 0.85807 0.45323 0.0
O314 O 0.91092 0.9268 0.45781 0.0
O315 O 0.91191 0.90797 0.47361 0.0
O316 O 0.85516 0.89068 0.45674 0.0
C317 C 0.9157 0.92637 0.46843 0.0
O318 O 0.95413 0.87602 0.45029 0.0
C319 C 0.85316 0.87721 0.4652 0.0
O320 O 0.92278 0.8583 0.45529 0.0
O321 O 0.87111 0.8692 0.46947 0.0
C322 C 0.34837 0.65009 0.67513 0.0
O323 O 0.33885 0.66923 0.67541 0.0
Cd324 Cd 0.33456 0.69073 0.69261 0.0
O325 O 0.35579 0.64096 0.68434 0.0
Cd326 Cd 0.3571 0.64838 0.70537 0.0
C327 C 0.39011 0.69398 0.70089 0.0
O328 O 0.31945 0.6635 0.7057 0.0
O329 O 0.33786 0.66743 0.72153 0.0
O330 O 0.35406 0.6075 0.70656 0.0
C331 C 0.3195 0.66985 0.71611 0.0
O332 O 0.37261 0.70417 0.69727 0.0
C333 C 0.3663 0.60569 0.71549 0.0
O334 O 0.38921 0.67334 0.70382 0.0
O335 O 0.37444 0.6237 0.71966 0.0
C336 C 0.40366 0.09325 0.42476 0.0
O337 O 0.42311 0.08473 0.42606 0.0
Cd338 Cd 0.4425 0.0823 0.44406 0.0
O339 O 0.3929 0.10125 0.43336 0.0
Cd340 Cd 0.39787 0.10598 0.45442 0.0
C341 C 0.44412 0.1387 0.45043 0.0
O342 O 0.41397 0.06921 0.45695 0.0
O343 O 0.41493 0.09007 0.47209 0.0
O344 O 0.35732 0.10078 0.45576 0.0
C345 C 0.41888 0.0711 0.46751 0.0
O346 O 0.4551 0.12088 0.448 0.0
C347 C 0.35432 0.11659 0.463 0.0
O348 O 0.42308 0.13788 0.45242 0.0
O349 O 0.3716 0.12761 0.46612 0.0
C350 C 0.65004 0.65112 0.17396 0.0
O351 O 0.65852 0.67045 0.17576 0.0
Cd352 Cd 0.65878 0.68943 0.19391 0.0
O353 O 0.64116 0.63989 0.18217 0.0
Cd354 Cd 0.63488 0.64362 0.20322 0.0
C355 C 0.60183 0.68959 0.19924 0.0
O356 O 0.67044 0.66098 0.20707 0.0
O357 O 0.64747 0.6615 0.2214 0.0
O358 O 0.64434 0.60435 0.20645 0.0
C359 C 0.66692 0.66595 0.21751 0.0
O360 O 0.61966 0.70081 0.19713 0.0
C361 C 0.62598 0.59934 0.21144 0.0
O362 O 0.60268 0.66847 0.2011 0.0
O363 O 0.61142 0.61488 0.21237 0.0
C364 C 0.09886 0.90161 0.9237 0.0
O365 O 0.07984 0.91138 0.92387 0.0
Cd366 Cd 0.05696 0.91637 0.94072 0.0
O367 O 0.10758 0.89388 0.93293 0.0
Cd368 Cd 0.09895 0.89191 0.95375 0.0
C369 C 0.05187 0.8609 0.94862 0.0
O370 O 0.08318 0.92928 0.95484 0.0
O371 O 0.0802 0.90961 0.97033 0.0
O372 O 0.1393 0.89505 0.95704 0.0
C373 C 0.0766 0.92811 0.9652 0.0
O374 O 0.04204 0.87876 0.94518 0.0
C375 C 0.13991 0.87956 0.96461 0.0
O376 O 0.07254 0.86118 0.95148 0.0
O377 O 0.12149 0.86975 0.967 0.0
C378 C 0.83837 0.33962 0.67442 0.0
O379 O 0.82913 0.32059 0.67607 0.0
Cd380 Cd 0.82917 0.30117 0.69409 0.0
O381 O 0.8482 0.34997 0.68264 0.0
Cd382 Cd 0.8552 0.345 0.70355 0.0
C383 C 0.88616 0.29798 0.69876 0.0
O384 O 0.8185 0.32998 0.70736 0.0
O385 O 0.84143 0.32756 0.72165 0.0
O386 O 0.84945 0.38527 0.70581 0.0
C387 C 0.82166 0.32471 0.7178 0.0
O388 O 0.86781 0.28754 0.69681 0.0
C389 C 0.86699 0.38855 0.71185 0.0
O390 O 0.8862 0.31906 0.70077 0.0
O391 O 0.87933 0.37154 0.71385 0.0
C392 C 0.40021 0.89806 0.06 0.0
O393 O 0.41917 0.90743 0.05838 0.0
Cd394 Cd 0.43796 0.90878 0.04024 0.0
O395 O 0.38961 0.88883 0.05168 0.0
Cd396 Cd 0.39362 0.88322 0.03056 0.0
C397 C 0.44071 0.85201 0.03426 0.0
O398 O 0.40843 0.92044 0.02761 0.0
O399 O 0.40919 0.89931 0.01258 0.0
O400 O 0.35274 0.88608 0.03044 0.0
C401 C 0.41291 0.91847 0.01701 0.0
O402 O 0.4511 0.87016 0.03677 0.0
C403 C 0.34999 0.87133 0.02263 0.0
O404 O 0.41968 0.85213 0.03222 0.0
O405 O 0.36752 0.86189 0.01866 0.0
C406 C 0.83192 0.64375 0.80986 0.0
O407 O 0.82161 0.66224 0.8083 0.0
Cd408 Cd 0.82121 0.68245 0.79047 0.0
O409 O 0.84227 0.63412 0.80157 0.0
Cd410 Cd 0.84878 0.63951 0.78067 0.0
C411 C 0.87832 0.68721 0.7862 0.0
O412 O 0.81204 0.65419 0.77661 0.0
O413 O 0.8357 0.65764 0.76269 0.0
O414 O 0.84366 0.59933 0.77776 0.0
C415 C 0.81574 0.66023 0.76633 0.0
O416 O 0.85968 0.6971 0.78819 0.0
C417 C 0.86169 0.5966 0.77204 0.0
O418 O 0.87891 0.66625 0.7839 0.0
O419 O 0.87397 0.61387 0.7705 0.0
C420 C 0.09352 0.09052 0.55903 0.0
O421 O 0.07462 0.08126 0.55706 0.0
Cd422 Cd 0.0559 0.08143 0.53882 0.0
O423 O 0.10428 0.10053 0.551 0.0
Cd424 Cd 0.10029 0.10799 0.53006 0.0
C425 C 0.05296 0.13862 0.53441 0.0
O426 O 0.08504 0.07151 0.52565 0.0
O427 O 0.08363 0.09517 0.51165 0.0
O428 O 0.14073 0.10273 0.52842 0.0
C429 C 0.08008 0.07531 0.51523 0.0
O430 O 0.04248 0.12013 0.53599 0.0
C431 C 0.14392 0.11982 0.52202 0.0
O432 O 0.07416 0.13888 0.53284 0.0
O433 O 0.12684 0.13178 0.51964 0.0
C434 C 0.64573 0.34117 0.30859 0.0
O435 O 0.65341 0.32124 0.30794 0.0
Cd436 Cd 0.65379 0.29927 0.29065 0.0
O437 O 0.6377 0.35095 0.2997 0.0
Cd438 Cd 0.63191 0.34353 0.27892 0.0
C439 C 0.59731 0.2992 0.28431 0.0
O440 O 0.66731 0.32488 0.27638 0.0
O441 O 0.64528 0.32303 0.26167 0.0
O442 O 0.64273 0.38197 0.2745 0.0
C443 C 0.66434 0.3187 0.26606 0.0
O444 O 0.6147 0.28804 0.28724 0.0
C445 C 0.62476 0.38695 0.26917 0.0
O446 O 0.59881 0.31991 0.28154 0.0
O447 O 0.60978 0.37172 0.26848 0.0
H448 H 0.93138 0.53347 0.95757 0.0
H449 H 0.95726 0.50571 0.96565 0.0
H450 H 0.97079 0.54995 -0.00562 0.0
H451 H 0.94489 0.57795 0.98633 0.0
H452 H 0.0094 0.53368 0.98394 0.0
H453 H 0.93962 0.50451 -0.00138 0.0
H454 H 0.90042 0.49105 -0.0026 0.0
H455 H 0.92092 0.43778 0.97463 0.0
H456 H 0.96022 0.45113 0.97558 0.0
H457 H 0.06457 0.45818 0.02161 0.0
H458 H 0.03992 0.4852 0.01207 0.0
H459 H 0.02719 0.43727 0.98483 0.0
H460 H 0.05178 0.40993 -0.00559 0.0
H461 H 0.9886 0.4549 -0.0064 0.0
H462 H 0.05853 0.48302 0.97938 0.0
H463 H 0.09779 0.49632 0.98051 0.0
H464 H 0.07725 0.55137 0.00213 0.0
H465 H 0.0379 0.53821 0.00127 0.0
C466 C 0.93969 0.53721 0.96566 0.0
C467 C 0.9362 0.55788 0.97131 0.0
C468 C 0.95441 0.52131 0.97027 0.0
C469 C 0.96583 0.52582 0.9806 0.0
C470 C 0.96209 0.54625 0.98638 0.0
C471 C 0.94725 0.56213 0.9818 0.0
C472 C 0.9824 0.50955 0.9851 0.0
C473 C 0.00485 0.51653 0.98621 0.0
C474 C 0.97646 0.48702 0.98766 0.0
C475 C 0.95283 0.47897 0.98707 0.0
C476 C 0.93574 0.49005 -0.00674 0.0
C477 C 0.91351 0.48242 -0.00736 0.0
C478 C 0.90817 0.46362 0.98592 0.0
C479 C 0.92507 0.45237 0.97982 0.0
C480 C 0.94733 0.45995 0.98041 0.0
C481 C 0.05675 0.45346 0.01352 0.0
C482 C 0.06 0.43192 0.00877 0.0
C483 C 0.04275 0.46896 0.00805 0.0
C484 C 0.03186 0.46324 -0.00227 0.0
C485 C 0.03549 0.44195 -0.0072 0.0
C486 C 0.04958 0.42642 -0.00175 0.0
C487 C 0.01561 0.47906 -0.00748 0.0
C488 C 0.99321 0.47201 0.99127 0.0
C489 C 0.02161 0.50151 0.9898 0.0
C490 C 0.04528 0.5095 0.99034 0.0
C491 C 0.06241 0.49785 0.98446 0.0
C492 C 0.08467 0.50539 0.98503 0.0
C493 C 0.09002 0.52465 0.99141 0.0
C494 C 0.07309 0.53644 -0.0028 0.0
C495 C 0.0508 0.52896 -0.00334 0.0
H496 H 0.10727 0.53046 0.99184 0.0
H497 H 0.89095 0.45773 0.98545 0.0
H498 H 0.70837 0.67935 0.21039 0.0
H499 H 0.73361 0.70583 0.21988 0.0
H500 H 0.6874 0.71126 0.24849 0.0
H501 H 0.6617 0.68489 0.23891 0.0
H502 H 0.70058 0.75208 0.24077 0.0
H503 H 0.73683 0.68347 0.25165 0.0
H504 H 0.75367 0.64596 0.24867 0.0
H505 H 0.80373 0.67482 0.22638 0.0
H506 H 0.78699 0.71248 0.22909 0.0
H507 H 0.7766 0.81087 0.27744 0.0
H508 H 0.75035 0.78447 0.26853 0.0
H509 H 0.79388 0.77901 0.23884 0.0
H510 H 0.82044 0.80537 0.24776 0.0
H511 H 0.78177 0.73795 0.24765 0.0
H512 H 0.74488 0.80656 0.23664 0.0
H513 H 0.72796 0.84398 0.23979 0.0
H514 H 0.67904 0.81487 0.26267 0.0
H515 H 0.69587 0.7773 0.25978 0.0
C516 C 0.70365 0.68596 0.21876 0.0
C517 C 0.68302 0.68012 0.2239 0.0
C518 C 0.71816 0.70102 0.2242 0.0
C519 C 0.71243 0.71035 0.23492 0.0
C520 C 0.69208 0.70419 0.24021 0.0
C521 C 0.67749 0.68909 0.23476 0.0
C522 C 0.72722 0.72748 0.24022 0.0
C523 C 0.71825 0.74889 0.24248 0.0
C524 C 0.75037 0.72342 0.24213 0.0
C525 C 0.76053 0.70078 0.2405 0.0
C526 C 0.75132 0.6818 0.24603 0.0
C527 C 0.76087 0.66051 0.24441 0.0
C528 C 0.77972 0.658 0.23732 0.0
C529 C 0.78911 0.67679 0.23186 0.0
C530 C 0.77961 0.69812 0.23345 0.0
C531 C 0.78047 0.80428 0.26895 0.0
C532 C 0.80061 0.81007 0.26331 0.0
C533 C 0.76541 0.78927 0.26386 0.0
C534 C 0.77019 0.77989 0.25303 0.0
C535 C 0.78997 0.78611 0.24722 0.0
C536 C 0.80504 0.80121 0.2523 0.0
C537 C 0.75515 0.76255 0.24812 0.0
C538 C 0.76408 0.7411 0.24597 0.0
C539 C 0.73196 0.76656 0.24635 0.0
C540 C 0.72178 0.78914 0.24808 0.0
C541 C 0.73064 0.80816 0.24242 0.0
C542 C 0.72104 0.82939 0.24414 0.0
C543 C 0.70247 0.83181 0.25145 0.0
C544 C 0.69344 0.81298 0.25702 0.0
C545 C 0.70299 0.79171 0.25534 0.0
H546 H 0.69506 0.84826 0.25277 0.0
H547 H 0.78709 0.64151 0.23607 0.0
H548 H 0.56107 0.46323 0.45901 0.0
H549 H 0.5333 0.48809 0.46779 0.0
H550 H 0.52025 0.4384 0.49416 0.0
H551 H 0.54799 0.41318 0.48532 0.0
H552 H 0.48162 0.45439 0.48427 0.0
H553 H 0.54863 0.48525 0.50088 0.0
H554 H 0.58715 0.50073 0.50089 0.0
H555 H 0.56559 0.55572 0.4795 0.0
H556 H 0.52699 0.54039 0.47922 0.0
H557 H 0.4204 0.52503 0.5225 0.0
H558 H 0.44636 0.49937 0.51287 0.0
H559 H 0.45874 0.54926 0.48651 0.0
H560 H 0.4328 0.57521 0.49617 0.0
H561 H 0.49746 0.53313 0.49618 0.0
H562 H 0.43013 0.50246 0.47989 0.0
H563 H 0.39162 0.48696 0.48006 0.0
H564 H 0.41373 0.43162 0.50107 0.0
H565 H 0.45233 0.44697 0.50117 0.0
C566 C 0.55247 0.45766 0.46675 0.0
C567 C 0.55663 0.43625 0.47147 0.0
C568 C 0.53667 0.47192 0.47177 0.0
C569 C 0.52484 0.46509 0.48164 0.0
C570 C 0.52925 0.44391 0.48653 0.0
C571 C 0.54514 0.42961 0.48151 0.0
C572 C 0.5072 0.47977 0.48651 0.0
C573 C 0.4851 0.4715 0.48705 0.0
C574 C 0.51175 0.50226 0.48979 0.0
C575 C 0.53496 0.51155 0.48994 0.0
C576 C 0.55214 0.50054 0.4961 0.0
C577 C 0.57399 0.50931 0.49617 0.0
C578 C 0.57883 0.52917 0.49018 0.0
C579 C 0.56182 0.54033 0.48412 0.0
C580 C 0.53995 0.53162 0.48402 0.0
C581 C 0.42838 0.53043 0.51455 0.0
C582 C 0.42472 0.55216 0.51011 0.0
C583 C 0.44312 0.51571 0.50904 0.0
C584 C 0.45439 0.52244 0.49898 0.0
C585 C 0.45016 0.54382 0.49428 0.0
C586 C 0.43531 0.55855 0.49977 0.0
C587 C 0.47186 0.50778 0.49393 0.0
C588 C 0.49395 0.51604 0.49337 0.0
C589 C 0.4673 0.48528 0.49067 0.0
C590 C 0.44409 0.47598 0.49062 0.0
C591 C 0.42675 0.48709 0.48463 0.0
C592 C 0.40491 0.47831 0.48466 0.0
C593 C 0.40022 0.45835 0.4906 0.0
C594 C 0.41738 0.4471 0.49649 0.0
C595 C 0.43925 0.45582 0.49649 0.0
H596 H 0.3833 0.45157 0.49061 0.0
H597 H 0.59575 0.53593 0.49024 0.0
H598 H 0.77815 0.31789 0.71156 0.0
H599 H 0.75076 0.29315 0.72079 0.0
H600 H 0.79877 0.27756 0.74756 0.0
H601 H 0.82649 0.30228 0.7383 0.0
H602 H 0.7803 0.23987 0.73777 0.0
H603 H 0.75391 0.30945 0.75372 0.0
H604 H 0.74111 0.34895 0.75331 0.0
H605 H 0.68515 0.33029 0.73189 0.0
H606 H 0.6978 0.29071 0.73204 0.0
H607 H 0.70588 0.18238 0.77522 0.0
H608 H 0.73254 0.20828 0.76627 0.0
H609 H 0.68433 0.22311 0.73947 0.0
H610 H 0.65734 0.19718 0.74846 0.0
H611 H 0.7027 0.26124 0.74919 0.0
H612 H 0.72893 0.19189 0.73313 0.0
H613 H 0.74163 0.15235 0.73336 0.0
H614 H 0.7978 0.17055 0.75475 0.0
H615 H 0.78524 0.21017 0.75479 0.0
C616 C 0.78281 0.30943 0.7195 0.0
C617 C 0.80449 0.31189 0.72419 0.0
C618 C 0.7671 0.29538 0.72478 0.0
C619 C 0.77276 0.28363 0.73486 0.0
C620 C 0.79416 0.28654 0.73977 0.0
C621 C 0.8099 0.3007 0.73451 0.0
C622 C 0.75677 0.2672 0.73979 0.0
C623 C 0.76345 0.24458 0.74047 0.0
C624 C 0.73459 0.27333 0.7429 0.0
C625 C 0.72693 0.29713 0.7428 0.0
C626 C 0.73899 0.31379 0.74884 0.0
C627 C 0.73174 0.3362 0.74867 0.0
C628 C 0.71236 0.34214 0.74255 0.0
C629 C 0.70017 0.32567 0.73661 0.0
C630 C 0.70736 0.30324 0.73675 0.0
C631 C 0.70099 0.19099 0.76736 0.0
C632 C 0.67952 0.18783 0.76254 0.0
C633 C 0.71627 0.20571 0.76225 0.0
C634 C 0.7104 0.21746 0.7522 0.0
C635 C 0.68911 0.21412 0.74724 0.0
C636 C 0.67379 0.19928 0.75234 0.0
C637 C 0.72626 0.23394 0.74721 0.0
C638 C 0.71955 0.25655 0.74651 0.0
C639 C 0.74841 0.2278 0.74405 0.0
C640 C 0.75601 0.20397 0.74405 0.0
C641 C 0.74388 0.18743 0.73797 0.0
C642 C 0.75107 0.16501 0.73803 0.0
C643 C 0.77048 0.15893 0.74409 0.0
C644 C 0.78275 0.17528 0.75007 0.0
C645 C 0.77562 0.19773 0.75004 0.0
H646 H 0.77603 0.14157 0.74412 0.0
H647 H 0.70678 0.35949 0.74243 0.0
H648 H 0.92707 0.46049 0.52549 0.0
H649 H 0.95324 0.4874 0.5169 0.0
H650 H 0.96622 0.44098 0.48901 0.0
H651 H 0.9397 0.41407 0.49746 0.0
H652 H -0.00267 0.48254 0.51339 0.0
H653 H 0.97876 0.47062 0.46469 0.0
H654 H 0.94678 0.46132 0.45197 0.0
H655 H 0.90062 0.48726 0.4772 0.0
H656 H 0.93233 0.49699 0.49 0.0
H657 H 0.06296 0.53086 0.46045 0.0
H658 H 0.03722 0.50423 0.46958 0.0
H659 H 0.0249 0.5518 0.49704 0.0
H660 H 0.05102 0.57847 0.48803 0.0
H661 H 0.99319 0.51017 0.47303 0.0
H662 H 0.01147 0.52256 0.52161 0.0
H663 H 0.04328 0.53221 0.53438 0.0
H664 H 0.08978 0.50578 0.50945 0.0
H665 H 0.05825 0.49571 0.49661 0.0
C666 C 0.93532 0.45609 0.51746 0.0
C667 C 0.93139 0.43517 0.51214 0.0
C668 C 0.95031 0.47145 0.51259 0.0
C669 C 0.96159 0.46619 0.50232 0.0
C670 C 0.95744 0.44546 0.49687 0.0
C671 C 0.94234 0.4301 0.50171 0.0
C672 C 0.97831 0.48209 0.49755 0.0
C673 C -0.00372 0.48885 0.50462 0.0
C674 C 0.97713 0.48987 0.48603 0.0
C675 C 0.95793 0.4843 0.47835 0.0
C676 C 0.96179 0.4744 0.4675 0.0
C677 C 0.94371 0.46905 0.46028 0.0
C678 C 0.92168 0.47362 0.46379 0.0
C679 C 0.91769 0.48364 0.47451 0.0
C680 C 0.93571 0.48904 0.48176 0.0
C681 C 0.05499 0.53556 0.46851 0.0
C682 C 0.05889 0.55677 0.47351 0.0
C683 C 0.04026 0.52035 0.47368 0.0
C684 C 0.02919 0.52606 0.48396 0.0
C685 C 0.0335 0.54699 0.48916 0.0
C686 C 0.04836 0.56221 0.48401 0.0
C687 C 0.01228 0.51051 0.48885 0.0
C688 C 0.99424 0.50386 0.48181 0.0
C689 C 0.01338 0.50287 0.5004 0.0
C690 C 0.03249 0.50862 0.5081 0.0
C691 C 0.02848 0.51875 0.51888 0.0
C692 C 0.04646 0.5243 0.52613 0.0
C693 C 0.06854 0.51968 0.52271 0.0
C694 C 0.07268 0.50944 0.51206 0.0
C695 C 0.05476 0.50384 0.50479 0.0
H696 H 0.08244 0.524 0.52833 0.0
H697 H 0.90771 0.46945 0.45819 0.0
H698 H 0.71344 0.81648 0.71197 0.0
H699 H 0.73761 0.78781 0.72055 0.0
H700 H 0.68575 0.77193 0.74534 0.0
H701 H 0.66152 0.80098 0.73691 0.0
H702 H 0.72751 0.77161 0.75501 0.0
H703 H 0.69172 0.74002 0.72158 0.0
H704 H 0.68038 0.7389 0.70111 0.0
H705 H 0.7498 0.73792 0.69081 0.0
H706 H 0.76156 0.7394 0.71122 0.0
H707 H 0.77193 0.66723 0.77202 0.0
H708 H 0.74608 0.69442 0.76343 0.0
H709 H 0.79651 0.71246 0.73825 0.0
H710 H 0.82241 0.68494 0.74668 0.0
H711 H 0.75445 0.71101 0.72889 0.0
H712 H 0.7902 0.74359 0.76226 0.0
H713 H 0.80162 0.7448 0.78271 0.0
H714 H 0.73226 0.74397 0.79312 0.0
H715 H 0.72043 0.74238 0.77271 0.0
C716 C 0.70726 0.80708 0.71934 0.0
C717 C 0.68551 0.81075 0.7237 0.0
C718 C 0.72105 0.79066 0.72419 0.0
C719 C 0.71323 0.77745 0.73339 0.0
C720 C 0.69199 0.78188 0.73818 0.0
C721 C 0.67819 0.79845 0.73336 0.0
C722 C 0.72691 0.75847 0.73769 0.0
C723 C 0.73315 0.75818 0.74935 0.0
C724 C 0.73454 0.74121 0.73021 0.0
C725 C 0.72751 0.74002 0.71793 0.0
C726 C 0.70457 0.73972 0.71495 0.0
C727 C 0.69807 0.739 0.70335 0.0
C728 C 0.71436 0.73839 0.69466 0.0
C729 C 0.7372 0.73842 0.69755 0.0
C730 C 0.74379 0.73918 0.70913 0.0
C731 C 0.77742 0.67676 0.76455 0.0
C732 C 0.79927 0.67421 0.7601 0.0
C733 C 0.76266 0.69231 0.75968 0.0
C734 C 0.76961 0.70574 0.75038 0.0
C735 C 0.79093 0.70231 0.74548 0.0
C736 C 0.80569 0.68662 0.75031 0.0
C737 C 0.75512 0.72421 0.7462 0.0
C738 C 0.74874 0.7244 0.73455 0.0
C739 C 0.74736 0.74138 0.75369 0.0
C740 C 0.75444 0.74265 0.76596 0.0
C741 C 0.77739 0.74351 0.76891 0.0
C742 C 0.78394 0.74428 0.78049 0.0
C743 C 0.76768 0.74441 0.78921 0.0
C744 C 0.74483 0.74383 0.78636 0.0
C745 C 0.7382 0.74301 0.77478 0.0
H746 H 0.77278 0.745 0.79818 0.0
H747 H 0.7093 0.73784 0.68569 0.0
H748 H 0.42964 0.45693 0.95859 0.0
H749 H 0.4562 0.4831 0.96747 0.0
H750 H 0.45668 0.44275 -0.00154 0.0
H751 H 0.43028 0.41625 0.98957 0.0
H752 H 0.45581 0.50899 0.98683 0.0
H753 H 0.51099 0.44107 0.00843 0.0
H754 H 0.52046 0.40086 0.00602 0.0
H755 H 0.50682 0.40553 0.96969 0.0
H756 H 0.4976 0.44582 0.97186 0.0
H757 H 0.55867 0.53072 0.02604 0.0
H758 H 0.5309 0.50488 0.01792 0.0
H759 H 0.5286 0.54454 0.98671 0.0
H760 H 0.5562 0.57072 -0.00515 0.0
H761 H 0.52998 0.47856 -0.00113 0.0
H762 H 0.47411 0.54635 0.97738 0.0
H763 H 0.4647 0.58657 0.97979 0.0
H764 H 0.4798 0.58223 0.01598 0.0
H765 H 0.48897 0.54193 0.01381 0.0
C766 C 0.43521 0.45374 0.96734 0.0
C767 C 0.42812 0.43441 0.97335 0.0
C768 C 0.45032 0.46874 0.9724 0.0
C769 C 0.45862 0.46462 0.98353 0.0
C770 C 0.4507 0.44597 0.98978 0.0
C771 C 0.43558 0.43092 0.98472 0.0
C772 C 0.47639 0.47927 0.98831 0.0
C773 C 0.47211 0.50241 0.98936 0.0
C774 C 0.49748 0.47052 0.99179 0.0
C775 C 0.50336 0.44639 0.99034 0.0
C776 C 0.51009 0.43353 -8e-05 0.0
C777 C 0.51541 0.41072 -0.0014 0.0
C778 C 0.51416 0.40063 0.98772 0.0
C779 C 0.50769 0.41335 0.97813 0.0
C780 C 0.5024 0.43616 0.9794 0.0
C781 C 0.5524 0.53385 0.01741 0.0
C782 C 0.55941 0.55285 0.01111 0.0
C783 C 0.53658 0.51905 0.01278 0.0
C784 C 0.52748 0.52304 0.00181 0.0
C785 C 0.53517 0.54144 -0.00471 0.0
C786 C 0.55099 0.55629 -8e-05 0.0
C787 C 0.50943 0.50831 -0.00264 0.0
C788 C 0.51367 0.48515 -0.00363 0.0
C789 C 0.4883 0.51704 -0.00605 0.0
C790 C 0.48245 0.54119 -0.0046 0.0
C791 C 0.47533 0.55397 0.98586 0.0
C792 C 0.47005 0.57678 0.98718 0.0
C793 C 0.47173 0.58697 -0.00198 0.0
C794 C 0.47859 0.57434 0.00757 0.0
C795 C 0.48386 0.55152 0.0063 0.0
H796 H 0.46766 0.60463 -0.00097 0.0
H797 H 0.51825 0.38297 0.98672 0.0
H798 H 0.78605 0.17977 0.2075 0.0
H799 H 0.75791 0.20545 0.21541 0.0
H800 H 0.79752 0.21276 0.24641 0.0
H801 H 0.82595 0.18727 0.23849 0.0
H802 H 0.73188 0.20461 0.23469 0.0
H803 H 0.79467 0.26761 0.25502 0.0
H804 H 0.83369 0.28075 0.25215 0.0
H805 H 0.82971 0.26382 0.21617 0.0
H806 H 0.79059 0.2509 0.21879 0.0
H807 H 0.70499 0.30546 0.27435 0.0
H808 H 0.73174 0.27975 0.26538 0.0
H809 H 0.68865 0.2741 0.23553 0.0
H810 H 0.66146 0.29965 0.24457 0.0
H811 H 0.75559 0.28184 0.2458 0.0
H812 H 0.69233 0.2197 0.22546 0.0
H813 H 0.65342 0.20634 0.22845 0.0
H814 H 0.65846 0.22134 0.26463 0.0
H815 H 0.69748 0.23448 0.26188 0.0
C816 C 0.78871 0.18672 0.21604 0.0
C817 C 0.80829 0.18171 0.22234 0.0
C818 C 0.77259 0.20132 0.22055 0.0
C819 C 0.77584 0.21121 0.2314 0.0
C820 C 0.79493 0.20555 0.23792 0.0
C821 C 0.81109 0.19094 0.23341 0.0
C822 C 0.75957 0.22798 0.23574 0.0
C823 C 0.73697 0.22159 0.23699 0.0
C824 C 0.76637 0.25 0.23886 0.0
C825 C 0.78978 0.25808 0.23714 0.0
C826 C 0.8021 0.26679 0.24649 0.0
C827 C 0.82423 0.27418 0.24491 0.0
C828 C 0.8342 0.27305 0.23399 0.0
C829 C 0.82201 0.26461 0.22463 0.0
C830 C 0.79986 0.25723 0.22616 0.0
C831 C 0.70121 0.29884 0.26585 0.0
C832 C 0.68106 0.30441 0.26018 0.0
C833 C 0.71655 0.28421 0.26073 0.0
C834 C 0.71203 0.27486 0.24987 0.0
C835 C 0.69225 0.28091 0.24401 0.0
C836 C 0.67681 0.29555 0.24915 0.0
C837 C 0.72792 0.25842 0.24487 0.0
C838 C 0.75046 0.26488 0.24347 0.0
C839 C 0.72107 0.23647 0.24163 0.0
C840 C 0.69772 0.22832 0.24343 0.0
C841 C 0.68515 0.22008 0.23406 0.0
C842 C 0.66307 0.21255 0.23571 0.0
C843 C 0.65344 0.21307 0.24672 0.0
C844 C 0.6659 0.22103 0.2561 0.0
C845 C 0.68799 0.22855 0.25449 0.0
H846 H 0.63635 0.20726 0.24798 0.0
H847 H 0.85134 0.27876 0.23279 0.0
H848 H 0.3181 0.30727 0.74595 0.0
H849 H 0.291 0.28128 0.7373 0.0
H850 H 0.24439 0.29452 0.76506 0.0
H851 H 0.27156 0.32017 0.77388 0.0
H852 H 0.24999 0.25049 0.76201 0.0
H853 H 0.23452 0.31398 0.7377 0.0
H854 H 0.2437 0.34529 0.72452 0.0
H855 H 0.27094 0.29845 0.69997 0.0
H856 H 0.26219 0.26687 0.71308 0.0
H857 H 0.15797 0.19038 0.737 0.0
H858 H 0.18249 0.21908 0.74549 0.0
H859 H 0.23164 0.20738 0.71872 0.0
H860 H 0.20715 0.17897 0.71011 0.0
H861 H 0.2234 0.25156 0.72143 0.0
H862 H 0.24033 0.18841 0.74595 0.0
H863 H 0.23157 0.15695 0.75913 0.0
H864 H 0.20193 0.20318 0.78324 0.0
H865 H 0.21025 0.2349 0.77013 0.0
C866 C 0.30194 0.30491 0.75011 0.0
C867 C 0.29698 0.31561 0.76062 0.0
C868 C 0.28645 0.29011 0.74515 0.0
C869 C 0.26568 0.28604 0.75054 0.0
C870 C 0.26037 0.29738 0.7608 0.0
C871 C 0.27588 0.31207 0.7658 0.0
C872 C 0.25013 0.2688 0.74593 0.0
C873 C 0.24385 0.25093 0.75319 0.0
C874 C 0.24266 0.2691 0.73434 0.0
C875 C 0.24787 0.28807 0.72642 0.0
C876 C 0.24263 0.31037 0.72953 0.0
C877 C 0.24772 0.32817 0.72206 0.0
C878 C 0.25794 0.32387 0.71142 0.0
C879 C 0.26304 0.30176 0.70822 0.0
C880 C 0.25799 0.2839 0.71566 0.0
C881 C 0.1741 0.19377 0.733 0.0
C882 C 0.18063 0.1825 0.72288 0.0
C883 C 0.18809 0.21014 0.73786 0.0
C884 C 0.20887 0.21529 0.73273 0.0
C885 C 0.21561 0.2037 0.72277 0.0
C886 C 0.20164 0.18742 0.7179 0.0
C887 C 0.22336 0.23325 0.7375 0.0
C888 C 0.22945 0.25123 0.73026 0.0
C889 C 0.23069 0.23304 0.7491 0.0
C890 C 0.22569 0.21399 0.757 0.0
C891 C 0.23177 0.19184 0.75402 0.0
C892 C 0.22692 0.17397 0.76148 0.0
C893 C 0.21614 0.17806 0.772 0.0
C894 C 0.21025 0.20004 0.77508 0.0
C895 C 0.21504 0.21797 0.76764 0.0
H896 H 0.21241 0.1642 0.77777 0.0
H897 H 0.26187 0.33767 0.70566 0.0
H898 H 0.2104 0.67157 0.274 0.0
H899 H 0.23793 0.69688 0.26527 0.0
H900 H 0.19416 0.70643 0.23597 0.0
H901 H 0.16649 0.68085 0.24461 0.0
H902 H 0.23919 0.7032 0.22985 0.0
H903 H 0.19329 0.74395 0.25691 0.0
H904 H 0.17552 0.75095 0.27581 0.0
H905 H 0.24066 0.7558 0.29166 0.0
H906 H 0.25883 0.74845 0.27287 0.0
H907 H 0.28128 0.80609 0.20891 0.0
H908 H 0.25651 0.77778 0.21736 0.0
H909 H 0.30199 0.77025 0.24613 0.0
H910 H 0.32695 0.79881 0.23775 0.0
H911 H 0.25723 0.77169 0.2527 0.0
H912 H 0.30315 0.73225 0.22535 0.0
H913 H 0.32064 0.7255 0.20636 0.0
H914 H 0.25529 0.71852 0.19095 0.0
H915 H 0.23738 0.72559 0.20983 0.0
C916 C 0.20674 0.67881 0.26563 0.0
C917 C 0.18618 0.67451 0.26005 0.0
C918 C 0.22246 0.69328 0.26067 0.0
C919 C 0.21782 0.70379 0.25011 0.0
C920 C 0.19792 0.69851 0.24417 0.0
C921 C 0.18215 0.68396 0.24912 0.0
C922 C 0.23309 0.72134 0.24564 0.0
C923 C 0.24298 0.71829 0.23477 0.0
C924 C 0.23829 0.74077 0.25222 0.0
C925 C 0.22741 0.74542 0.2635 0.0
C926 C 0.20382 0.74633 0.26444 0.0
C927 C 0.19368 0.75039 0.27513 0.0
C928 C 0.20695 0.75376 0.28493 0.0
C929 C 0.2304 0.75315 0.28406 0.0
C930 C 0.24063 0.74905 0.27339 0.0
C931 C 0.28597 0.79855 0.21708 0.0
C932 C 0.30614 0.80451 0.22263 0.0
C933 C 0.27184 0.78232 0.22186 0.0
C934 C 0.27767 0.77171 0.23224 0.0
C935 C 0.29734 0.77821 0.23806 0.0
C936 C 0.31155 0.79448 0.23327 0.0
C937 C 0.26331 0.75358 0.23689 0.0
C938 C 0.25355 0.75654 0.2478 0.0
C939 C 0.2582 0.73411 0.23034 0.0
C940 C 0.26892 0.72965 0.21899 0.0
C941 C 0.2925 0.72945 0.2179 0.0
C942 C 0.30249 0.72554 0.20716 0.0
C943 C 0.28908 0.72163 0.19745 0.0
C944 C 0.26565 0.72157 0.19848 0.0
C945 C 0.25557 0.72551 0.2092 0.0
H946 H 0.29685 0.71861 0.18914 0.0
H947 H 0.19907 0.7569 0.2932 0.0
H948 H 0.32361 0.18553 0.24681 0.0
H949 H 0.29945 0.21364 0.23755 0.0
H950 H 0.25104 0.20661 0.26509 0.0
H951 H 0.2749 0.17843 0.27432 0.0
H952 H 0.2309 0.21009 0.24398 0.0
H953 H 0.28826 0.24852 0.2659 0.0
H954 H 0.32734 0.25717 0.27154 0.0
H955 H 0.34189 0.27907 0.237 0.0
H956 H 0.30296 0.27021 0.2311 0.0
H957 H 0.16944 0.31036 0.23739 0.0
H958 H 0.19477 0.28273 0.24615 0.0
H959 H 0.24127 0.29106 0.21785 0.0
H960 H 0.21617 0.31879 0.20908 0.0
H961 H 0.26278 0.28681 0.23883 0.0
H962 H 0.20533 0.24901 0.21696 0.0
H963 H 0.16627 0.24041 0.21128 0.0
H964 H 0.15195 0.21722 0.24563 0.0
H965 H 0.19085 0.22605 0.25157 0.0
C966 C 0.30767 0.18975 0.25079 0.0
C967 C 0.30122 0.18 0.26134 0.0
C968 C 0.29396 0.20584 0.24553 0.0
C969 C 0.27369 0.21239 0.25076 0.0
C970 C 0.26668 0.20181 0.26096 0.0
C971 C 0.28036 0.18578 0.26623 0.0
C972 C 0.26024 0.23107 0.24596 0.0
C973 C 0.23778 0.22691 0.24295 0.0
C974 C 0.26944 0.25288 0.24446 0.0
C975 C 0.29277 0.25848 0.24803 0.0
C976 C 0.29984 0.25503 0.25948 0.0
C977 C 0.32195 0.25999 0.26273 0.0
C978 C 0.33711 0.26861 0.25463 0.0
C979 C 0.33015 0.27236 0.24326 0.0
C980 C 0.30806 0.26738 0.23996 0.0
C981 C 0.18523 0.30658 0.23314 0.0
C982 C 0.19072 0.31649 0.22249 0.0
C983 C 0.19962 0.29077 0.23812 0.0
C984 C 0.21964 0.28465 0.23251 0.0
C985 C 0.22582 0.29553 0.22226 0.0
C986 C 0.21144 0.3113 0.21726 0.0
C987 C 0.2334 0.26585 0.23692 0.0
C988 C 0.25592 0.26998 0.23984 0.0
C989 C 0.22427 0.244 0.23833 0.0
C990 C 0.20094 0.2384 0.23474 0.0
C991 C 0.19381 0.24223 0.22333 0.0
C992 C 0.1717 0.2373 0.22006 0.0
C993 C 0.15662 0.22833 0.22809 0.0
C994 C 0.16364 0.2242 0.23941 0.0
C995 C 0.18572 0.22916 0.24274 0.0
H996 H 0.13951 0.22453 0.22555 0.0
H997 H 0.35423 0.27243 0.25716 0.0
H998 H 0.20155 0.80761 0.77061 0.0
H999 H 0.22691 0.78359 0.75967 0.0
H1000 H 0.17531 0.77281 0.73405 0.0
H1001 H 0.1495 0.79688 0.7451 0.0
H1002 H 0.19489 0.73348 0.74104 0.0
H1003 H 0.21988 0.80433 0.72712 0.0
H1004 H 0.23206 0.844 0.72814 0.0
H1005 H 0.28967 0.82475 0.74821 0.0
H1006 H 0.27767 0.78499 0.74746 0.0
H1007 H 0.27825 0.67655 0.70645 0.0
H1008 H 0.24858 0.70182 0.71325 0.0
H1009 H 0.28888 0.71899 0.74295 0.0
H1010 H 0.31865 0.69373 0.73624 0.0
H1011 H 0.27275 0.7563 0.73081 0.0
H1012 H 0.24475 0.68592 0.74629 0.0
H1013 H 0.23223 0.64636 0.7451 0.0
H1014 H 0.17991 0.66525 0.72144 0.0
H1015 H 0.19234 0.7049 0.72236 0.0
C1016 C 0.1956 0.80032 0.7626 0.0
C1017 C 0.17353 0.80407 0.75871 0.0
C1018 C 0.21018 0.78669 0.75632 0.0
C1019 C 0.20305 0.77664 0.746 0.0
C1020 C 0.18111 0.78053 0.74198 0.0
C1021 C 0.16645 0.7943 0.74827 0.0
C1022 C 0.21837 0.76111 0.73989 0.0
C1023 C 0.21176 0.73856 0.73855 0.0
C1024 C 0.24043 0.76774 0.73681 0.0
C1025 C 0.24778 0.79166 0.73728 0.0
C1026 C 0.23506 0.80856 0.73182 0.0
C1027 C 0.24195 0.83107 0.73234 0.0
C1028 C 0.26161 0.8369 0.73825 0.0
C1029 C 0.27444 0.82021 0.74364 0.0
C1030 C 0.26762 0.79768 0.74315 0.0
C1031 C 0.28068 0.68552 0.7145 0.0
C1032 C 0.30079 0.68327 0.7208 0.0
C1033 C 0.26372 0.6999 0.71836 0.0
C1034 C 0.26663 0.71223 0.72857 0.0
C1035 C 0.28643 0.70962 0.73502 0.0
C1036 C 0.30334 0.69513 0.73121 0.0
C1037 C 0.24947 0.72863 0.73231 0.0
C1038 C 0.25577 0.75134 0.73315 0.0
C1039 C 0.22711 0.72216 0.73484 0.0
C1040 C 0.21965 0.69833 0.73429 0.0
C1041 C 0.23072 0.68161 0.74074 0.0
C1042 C 0.22361 0.65917 0.74014 0.0
C1043 C 0.20533 0.65328 0.73317 0.0
C1044 C 0.19409 0.66983 0.72682 0.0
C1045 C 0.20115 0.69228 0.72738 0.0
H1046 H 0.19985 0.63591 0.73272 0.0
H1047 H 0.26691 0.85433 0.73864 0.0
H1048 H 0.56299 0.95605 0.52467 0.0
H1049 H 0.53637 0.98253 0.51613 0.0
H1050 H 0.52798 0.93843 0.48684 0.0
H1051 H 0.55485 0.91183 0.49529 0.0
H1052 H 0.5306 0.98325 0.48066 0.0
H1053 H 0.48992 0.93742 0.50774 0.0
H1054 H 0.48272 0.91978 0.52665 0.0
H1055 H 0.4772 0.98513 0.54231 0.0
H1056 H 0.48472 0.00317 0.5235 0.0
H1057 H 0.43038 0.02982 0.45923 0.0
H1058 H 0.4565 0.00288 0.46779 0.0
H1059 H 0.46482 0.04637 0.49733 0.0
H1060 H 0.4384 0.0734 0.48887 0.0
H1061 H 0.46212 0.00166 0.50336 0.0
H1062 H 0.50303 0.0475 0.47636 0.0
H1063 H 0.51031 0.06523 0.45747 0.0
H1064 H 0.51551 -4e-05 0.44171 0.0
H1065 H 0.5079 0.98183 0.46048 0.0
C1066 C 0.55567 0.95207 0.51635 0.0
C1067 C 0.5608 0.93177 0.51069 0.0
C1068 C 0.54042 0.96717 0.51152 0.0
C1069 C 0.52996 0.96218 0.50098 0.0
C1070 C 0.53583 0.94246 0.49502 0.0
C1071 C 0.55113 0.92731 0.49986 0.0
C1072 C 0.5123 0.9772 0.49641 0.0
C1073 C 0.51548 0.98706 0.48554 0.0
C1074 C 0.49285 0.98245 0.50293 0.0
C1075 C 0.4881 0.97164 0.51423 0.0
C1076 C 0.48734 0.94803 0.51523 0.0
C1077 C 0.48318 0.93796 0.52593 0.0
C1078 C 0.47956 0.95132 0.53568 0.0
C1079 C 0.48003 0.9748 0.53475 0.0
C1080 C 0.48423 0.98496 0.52407 0.0
C1081 C 0.43757 0.03356 0.46761 0.0
C1082 C 0.43257 0.05382 0.47334 0.0
C1083 C 0.45253 0.01818 0.47246 0.0
C1084 C 0.46286 0.02289 0.48307 0.0
C1085 C 0.45706 0.04255 0.48909 0.0
C1086 C 0.44202 0.05796 0.48425 0.0
C1087 C 0.48042 0.00771 0.48761 0.0
C1088 C 0.47723 -0.00217 0.49847 0.0
C1089 C 0.49988 0.00245 0.48109 0.0
C1090 C 0.50468 0.01331 0.46981 0.0
C1091 C 0.50556 0.03693 0.46885 0.0
C1092 C 0.50976 0.04705 0.45817 0.0
C1093 C 0.51331 0.03373 0.44839 0.0
C1094 C 0.51273 0.01026 0.44929 0.0
C1095 C 0.50848 5e-05 0.45995 0.0
H1096 H 0.51657 0.0416 0.44013 0.0
H1097 H 0.47634 0.94349 0.54396 0.0
H1098 H 0.05657 0.92774 0.98638 0.0
H1099 H 0.02733 0.95324 -0.00664 0.0
H1100 H 0.03211 0.99192 0.96192 0.0
H1101 H 0.06156 0.9666 0.95489 0.0
H1102 H 0.02739 0.01867 0.98127 0.0
H1103 H 0.99133 0.95451 0.96428 0.0
H1104 H 0.98452 0.91395 0.96123 0.0
H1105 H 0.96505 0.90665 -0.00326 0.0
H1106 H 0.9721 0.94711 5e-05 0.0
H1107 H 0.92563 0.07653 -0.00647 0.0
H1108 H 0.95229 0.05277 0.98295 0.0
H1109 H 0.95341 0.00578 0.01139 0.0
H1110 H 0.92657 0.02908 0.02187 0.0
H1111 H 0.95376 0.98409 0.99116 0.0
H1112 H 0.99342 0.04675 0.00865 0.0
H1113 H 0.00109 0.08703 0.01215 0.0
H1114 H 0.01421 0.09688 0.97604 0.0
H1115 H 0.0063 0.0567 0.97231 0.0
C1116 C 0.05161 0.94183 0.98101 0.0
C1117 C 0.06115 0.94505 0.97004 0.0
C1118 C 0.03486 0.95631 0.98499 0.0
C1119 C 0.02732 0.97414 0.97804 0.0
C1120 C 0.03765 0.97814 0.96735 0.0
C1121 C 0.05443 0.96366 0.96336 0.0
C1122 C 0.00803 0.98799 0.98176 0.0
C1123 C 0.01116 0.01122 0.98325 0.0
C1124 C 0.98699 0.97811 0.98443 0.0
C1125 C 0.98241 0.95382 0.98243 0.0
C1126 C 0.98573 0.94423 0.97146 0.0
C1127 C 0.98182 0.92126 0.96968 0.0
C1128 C 0.97439 0.90772 0.97879 0.0
C1129 C 0.97081 0.91715 0.98969 0.0
C1130 C 0.97475 0.94011 0.99152 0.0
C1131 C 0.93132 0.06096 -0.00256 0.0
C1132 C 0.92424 0.05477 0.00857 0.0
C1133 C 0.94659 0.04748 0.99141 0.0
C1134 C 0.95507 0.02775 -0.00351 0.0
C1135 C 0.9471 0.02098 0.00734 0.0
C1136 C 0.93182 0.03436 0.01333 0.0
C1137 C 0.97324 0.01471 0.9909 0.0
C1138 C 0.96989 0.99161 0.98904 0.0
C1139 C 0.9941 0.02469 0.98793 0.0
C1140 C -0.00098 0.0488 0.99018 0.0
C1141 C -0.00222 0.05755 0.00145 0.0
C1142 C 0.00219 0.08035 0.00348 0.0
C1143 C 0.00807 0.09452 -0.00568 0.0
C1144 C 0.00961 0.0859 0.98312 0.0
C1145 C 0.00518 0.06311 0.98104 0.0
H1146 H 0.01148 0.11217 -0.00409 0.0
H1147 H 0.97138 0.88994 0.9774 0.0
H1148 H 0.55185 0.07433 0.98852 0.0
H1149 H 0.52398 0.04875 -0.0031 0.0
H1150 H 0.53448 0.00204 0.96886 0.0
H1151 H 0.56208 0.02761 0.96035 0.0
H1152 H 0.49044 0.0103 0.97229 0.0
H1153 H 0.55437 0.99055 -0.00446 0.0
H1154 H 0.58655 -0.00223 0.00846 0.0
H1155 H 0.54201 0.02571 0.03389 0.0
H1156 H 0.50957 0.01893 0.02106 0.0
H1157 H 0.43332 0.9152 -0.00408 0.0
H1158 H 0.45968 0.94207 0.98735 0.0
H1159 H 0.4491 0.98747 0.01594 0.0
H1160 H 0.42308 0.96055 0.02466 0.0
H1161 H 0.49282 0.98046 0.01227 0.0
H1162 H 0.42872 -0.00044 0.98912 0.0
H1163 H 0.39659 0.99225 0.97618 0.0
H1164 H 0.44139 0.96546 0.95054 0.0
H1165 H 0.47378 0.97233 0.9634 0.0
C1166 C 0.54842 0.05849 0.98422 0.0
C1167 C 0.55904 0.05299 0.97376 0.0
C1168 C 0.53254 0.04389 0.98902 0.0
C1169 C 0.52724 0.02353 0.98349 0.0
C1170 C 0.5383 0.01774 0.97322 0.0
C1171 C 0.55411 0.03232 0.96841 0.0
C1172 C 0.50945 0.00868 0.98811 0.0
C1173 C 0.49107 0.0035 0.98098 0.0
C1174 C 0.51009 0.00039 -0.00046 0.0
C1175 C 0.52957 0.00444 0.00729 0.0
C1176 C 0.55145 -0.0016 0.00385 0.0
C1177 C 0.56974 0.00239 0.01117 0.0
C1178 C 0.56633 0.01225 0.02198 0.0
C1179 C 0.54462 0.0181 0.02551 0.0
C1180 C 0.52628 0.01417 0.01822 0.0
C1181 C 0.43635 0.93107 0.00028 0.0
C1182 C 0.4263 0.93574 0.01099 0.0
C1183 C 0.45136 0.94641 -0.00464 0.0
C1184 C 0.45629 0.96675 0.00102 0.0
C1185 C 0.44557 0.97182 0.01148 0.0
C1186 C 0.43067 0.95646 0.01642 0.0
C1187 C 0.47378 0.98204 -0.00355 0.0
C1188 C 0.49214 0.98729 0.00359 0.0
C1189 C 0.47311 0.99039 0.98503 0.0
C1190 C 0.45366 0.98627 0.97727 0.0
C1191 C 0.43171 0.99194 0.98076 0.0
C1192 C 0.41345 0.98791 0.97343 0.0
C1193 C 0.41694 0.97834 0.96256 0.0
C1194 C 0.43871 0.97284 0.95898 0.0
C1195 C 0.45703 0.97682 0.96627 0.0
H1196 H 0.40278 0.97524 0.9569 0.0
H1197 H 0.58051 0.01532 0.02763 0.0
H1198 H 0.05986 0.08174 0.49426 0.0
H1199 H 0.03252 0.05679 0.48492 0.0
H1200 H 0.04117 0.00811 0.51223 0.0
H1201 H 0.06864 0.0327 0.52151 0.0
H1202 H 0.03723 0.98784 0.49148 0.0
H1203 H -0.00134 0.04533 0.51326 0.0
H1204 H 0.98951 0.08444 0.51871 0.0
H1205 H 0.96656 0.09773 0.48422 0.0
H1206 H 0.97592 0.05876 0.47852 0.0
H1207 H 0.93708 0.92537 0.48928 0.0
H1208 H 0.96514 0.95217 0.49636 0.0
H1209 H 0.95478 0.99377 0.46629 0.0
H1210 H 0.92668 0.96707 0.45912 0.0
H1211 H 0.95994 0.01838 0.48697 0.0
H1212 H -0.00331 0.95942 0.46569 0.0
H1213 H 0.00515 0.91988 0.46081 0.0
H1214 H 0.03108 0.90901 0.49495 0.0
H1215 H 0.0224 0.9484 0.50011 0.0
C1216 C 0.0562 0.06555 0.49816 0.0
C1217 C 0.06614 0.05926 0.50868 0.0
C1218 C 0.04054 0.05139 0.49284 0.0
C1219 C 0.03459 0.03083 0.49801 0.0
C1220 C 0.0455 0.02396 0.50814 0.0
C1221 C 0.06113 0.03806 0.51345 0.0
C1222 C 0.01602 0.01704 0.49335 0.0
C1223 C 0.02031 0.99447 0.49055 0.0
C1224 C 0.99404 0.02586 0.492 0.0
C1225 C 0.98823 0.04922 0.49543 0.0
C1226 C 0.99182 0.05665 0.50682 0.0
C1227 C 0.98658 0.07877 0.50995 0.0
C1228 C 0.97752 0.09358 0.50181 0.0
C1229 C 0.97362 0.08625 0.49052 0.0
C1230 C 0.97889 0.06415 0.48733 0.0
C1231 C 0.9405 0.9404 0.48427 0.0
C1232 C 0.92992 0.94402 0.47359 0.0
C1233 C 0.95656 0.95563 0.48831 0.0
C1234 C 0.9622 0.97467 0.48173 0.0
C1235 C 0.95067 0.97907 0.47143 0.0
C1236 C 0.93469 0.96379 0.46735 0.0
C1237 C 0.98114 0.98917 0.48524 0.0
C1238 C 0.97691 0.01185 0.4878 0.0
C1239 C 0.00315 0.98042 0.48644 0.0
C1240 C 0.00871 0.95681 0.48331 0.0
C1241 C 0.00404 0.94856 0.47218 0.0
C1242 C 0.00889 0.92618 0.46936 0.0
C1243 C 0.0186 0.91193 0.47757 0.0
C1244 C 0.02354 0.92006 0.48861 0.0
C1245 C 0.01867 0.94242 0.49148 0.0
H1246 H 0.02234 0.89461 0.47537 0.0
H1247 H 0.97347 0.1107 0.50425 0.0
H1248 H 0.98298 0.14189 0.03626 0.0
H1249 H 0.00188 0.17849 0.03628 0.0
H1250 H 0.9378 0.21183 0.03249 0.0
H1251 H 0.9188 0.1754 0.03228 0.0
H1252 H 0.96836 0.22976 0.01836 0.0
H1253 H 0.96422 0.21038 0.0584 0.0
H1254 H 0.96946 0.18632 0.07555 0.0
H1255 H 0.04101 0.18731 0.07037 0.0
H1256 H 0.03618 0.21111 0.05307 0.0
H1257 H 0.0036 0.34029 0.03406 0.0
H1258 H 0.98488 0.30355 0.03416 0.0
H1259 H 0.04942 0.27037 0.03452 0.0
H1260 H 0.06833 0.30695 0.03439 0.0
H1261 H 0.01871 0.25255 0.05049 0.0
H1262 H 0.02191 0.27234 0.01018 0.0
H1263 H 0.01576 0.2969 -0.0067 0.0
H1264 H 0.94452 0.29586 -0.00047 0.0
H1265 H 0.95029 0.27154 0.01656 0.0
C1266 C 0.9729 0.157 0.03543 0.0
C1267 C 0.94937 0.15571 0.03431 0.0
C1268 C 0.98372 0.1779 0.03548 0.0
C1269 C 0.97119 0.19786 0.03451 0.0
C1270 C 0.94776 0.19662 0.03325 0.0
C1271 C 0.93694 0.17576 0.03317 0.0
C1272 C 0.98249 0.2201 0.03476 0.0
C1273 C 0.97914 0.23486 0.02545 0.0
C1274 C -0.00317 0.22655 0.04394 0.0
C1275 C -0.00018 0.21233 0.05437 0.0
C1276 C 0.98106 0.20532 0.06086 0.0
C1277 C 0.98396 0.19175 0.07062 0.0
C1278 C 0.00555 0.18524 0.07403 0.0
C1279 C 0.02429 0.19234 0.06771 0.0
C1280 C 0.02149 0.20588 0.05793 0.0
C1281 C 0.01382 0.32518 0.03417 0.0
C1282 C 0.03745 0.32654 0.03417 0.0
C1283 C 0.0031 0.30423 0.0342 0.0
C1284 C 0.01581 0.28432 0.03428 0.0
C1285 C 0.03936 0.28559 0.03446 0.0
C1286 C 0.0501 0.30651 0.03433 0.0
C1287 C 0.00456 0.26212 0.03409 0.0
C1288 C 0.00792 0.2474 0.04341 0.0
C1289 C 0.99007 0.25576 0.02497 0.0
C1290 C 0.98656 0.27031 0.01471 0.0
C1291 C 0.00495 0.27751 0.00801 0.0
C1292 C 0.00153 0.29136 -0.00159 0.0
C1293 C 0.97977 0.29799 -0.00463 0.0
C1294 C 0.96137 0.29074 0.00191 0.0
C1295 C 0.96471 0.27691 0.01153 0.0
H1296 H 0.97715 0.30871 0.98793 0.0
H1297 H 0.00775 0.17474 0.08159 0.0
H1298 H 0.05989 0.67265 0.28066 0.0
H1299 H 0.02409 0.69253 0.27981 0.0
H1300 H 0.05909 0.75626 0.28047 0.0
H1301 H 0.09511 0.73645 0.28162 0.0
H1302 H 0.02476 0.75697 0.29486 0.0
H1303 H 0.03477 0.73579 0.25543 0.0
H1304 H 0.04242 0.71012 0.23917 0.0
H1305 H 0.98419 0.67081 0.24798 0.0
H1306 H 0.97636 0.69607 0.26441 0.0
H1307 H 0.9272 0.8206 0.28104 0.0
H1308 H 0.96428 0.8031 0.27961 0.0
H1309 H 0.93392 0.7373 0.28257 0.0
H1310 H 0.89668 0.75462 0.28396 0.0
H1311 H 0.96657 0.73949 0.26546 0.0
H1312 H 0.95815 0.7601 0.30553 0.0
H1313 H 0.95068 0.78625 0.32162 0.0
H1314 H 0.00646 0.82749 0.3111 0.0
H1315 H 0.01407 0.80173 0.29484 0.0
C1316 C 0.06004 0.6909 0.28056 0.0
C1317 C 0.08039 0.70297 0.28119 0.0
C1318 C 0.03953 0.70225 0.28001 0.0
C1319 C 0.03892 0.72588 0.27989 0.0
C1320 C 0.05918 0.73801 0.28051 0.0
C1321 C 0.07975 0.72666 0.28116 0.0
C1322 C 0.01705 0.73786 0.27954 0.0
C1323 C 0.01221 0.75344 0.28831 0.0
C1324 C 0.00049 0.73292 0.27112 0.0
C1325 C 0.00509 0.71774 0.26121 0.0
C1326 C 0.02369 0.72158 0.25396 0.0
C1327 C 0.02804 0.70712 0.2447 0.0
C1328 C 0.01383 0.68882 0.24256 0.0
C1329 C -0.0048 0.68498 0.24966 0.0
C1330 C 0.99078 0.69939 0.25893 0.0
C1331 C 0.92835 0.8024 0.28134 0.0
C1332 C 0.90897 0.789 0.28268 0.0
C1333 C 0.94957 0.79245 0.28055 0.0
C1334 C 0.95181 0.76895 0.2811 0.0
C1335 C 0.9325 0.75549 0.28214 0.0
C1336 C 0.91126 0.76542 0.28298 0.0
C1337 C 0.97434 0.7584 0.28081 0.0
C1338 C 0.97926 0.7431 0.27194 0.0
C1339 C 0.99102 0.76368 0.28909 0.0
C1340 C 0.98653 0.77912 0.2989 0.0
C1341 C 0.96871 0.77484 0.30659 0.0
C1342 C 0.96447 0.78958 0.31575 0.0
C1343 C 0.97805 0.80855 0.31736 0.0
C1344 C -0.00407 0.8128 0.30983 0.0
C1345 C 0.00023 0.79813 0.30065 0.0
H1346 H 0.97474 0.81994 0.32446 0.0
H1347 H 0.01723 0.67764 0.23538 0.0
H1348 H 0.48297 0.642 0.53431 0.0
H1349 H 0.5019 0.67856 0.53415 0.0
H1350 H 0.43753 0.71212 0.53525 0.0
H1351 H 0.41847 0.67569 0.5351 0.0
H1352 H 0.46406 0.73228 0.52032 0.0
H1353 H 0.47113 0.7073 0.55949 0.0
H1354 H 0.48105 0.68105 0.57518 0.0
H1355 H 0.55033 0.6828 0.56466 0.0
H1356 H 0.54077 0.70884 0.5488 0.0
H1357 H 0.50532 0.84039 0.53699 0.0
H1358 H 0.48596 0.80399 0.53689 0.0
H1359 H 0.54946 0.77 0.53228 0.0
H1360 H 0.56899 0.80621 0.53239 0.0
H1361 H 0.52314 0.75044 0.54913 0.0
H1362 H 0.5152 0.77592 0.50985 0.0
H1363 H 0.50461 0.8028 0.49455 0.0
H1364 H 0.43587 0.80085 0.50595 0.0
H1365 H 0.44611 0.77419 0.52142 0.0
C1366 C 0.47284 0.65716 0.53452 0.0
C1367 C 0.44921 0.65592 0.53476 0.0
C1368 C 0.48368 0.67805 0.53447 0.0
C1369 C 0.47113 0.69807 0.53486 0.0
C1370 C 0.44755 0.69689 0.53496 0.0
C1371 C 0.43669 0.67603 0.5349 0.0
C1372 C 0.48254 0.72029 0.5351 0.0
C1373 C 0.47676 0.73635 0.52672 0.0
C1374 C 0.49938 0.72546 0.54333 0.0
C1375 C 0.50519 0.70985 0.55288 0.0
C1376 C 0.48845 0.70195 0.56046 0.0
C1377 C 0.49402 0.68713 0.5694 0.0
C1378 C 0.5163 0.68021 0.5709 0.0
C1379 C 0.53307 0.68815 0.56348 0.0
C1380 C 0.5276 0.70295 0.55452 0.0
C1381 C 0.51518 0.82518 0.53595 0.0
C1382 C 0.5387 0.82621 0.53467 0.0
C1383 C 0.50408 0.80442 0.53586 0.0
C1384 C 0.5163 0.78437 0.53449 0.0
C1385 C 0.53976 0.78531 0.53333 0.0
C1386 C 0.55086 0.80604 0.53336 0.0
C1387 C 0.50467 0.76233 0.53434 0.0
C1388 C 0.51041 0.74632 0.54275 0.0
C1389 C 0.48768 0.75729 0.5262 0.0
C1390 C 0.48147 0.77324 0.51686 0.0
C1391 C 0.49786 0.78137 0.50915 0.0
C1392 C 0.49192 0.79654 0.50044 0.0
C1393 C 0.46959 0.80358 0.4993 0.0
C1394 C 0.45316 0.79541 0.50685 0.0
C1395 C 0.45902 0.78025 0.51559 0.0
H1396 H 0.46502 0.81532 0.49254 0.0
H1397 H 0.52057 0.66874 0.57782 0.0
H1398 H 0.58552 0.2361 0.7893 0.0
H1399 H 0.54839 0.25362 0.7889 0.0
H1400 H 0.51761 0.18838 0.78417 0.0
H1401 H 0.55475 0.17075 0.78426 0.0
H1402 H 0.49896 0.21804 0.77021 0.0
H1403 H 0.51622 0.21546 0.81045 0.0
H1404 H 0.53892 0.22147 0.828 0.0
H1405 H 0.53727 0.29297 0.82238 0.0
H1406 H 0.51481 0.28738 0.8047 0.0
H1407 H 0.38763 0.25606 0.78404 0.0
H1408 H 0.42379 0.23632 0.78446 0.0
H1409 H 0.45871 0.30006 0.78474 0.0
H1410 H 0.42276 0.31994 0.78427 0.0
H1411 H 0.47422 0.26971 0.8014 0.0
H1412 H 0.45732 0.27117 0.76066 0.0
H1413 H 0.43391 0.26424 0.74344 0.0
H1414 H 0.43387 0.19327 0.7507 0.0
H1415 H 0.45703 0.19983 0.76807 0.0
C1416 C 0.57086 0.22545 0.7882 0.0
C1417 C 0.5731 0.20201 0.78685 0.0
C1418 C 0.54963 0.23549 0.78802 0.0
C1419 C 0.5302 0.22227 0.78667 0.0
C1420 C 0.53238 0.19889 0.78524 0.0
C1421 C 0.55363 0.18885 0.78532 0.0
C1422 C 0.50763 0.2329 0.78661 0.0
C1423 C 0.49342 0.22906 0.77713 0.0
C1424 C 0.50053 0.24753 0.79554 0.0
C1425 C 0.514 0.25098 0.80619 0.0
C1426 C 0.52084 0.23245 0.8129 0.0
C1427 C 0.53364 0.23579 0.82288 0.0
C1428 C 0.53958 0.25758 0.82629 0.0
C1429 C 0.53268 0.2761 0.81973 0.0
C1430 C 0.5199 0.27286 0.80973 0.0
C1431 C 0.403 0.26588 0.78415 0.0
C1432 C 0.40232 0.28957 0.7841 0.0
C1433 C 0.42362 0.25457 0.78437 0.0
C1434 C 0.44385 0.26677 0.78459 0.0
C1435 C 0.44324 0.29038 0.78457 0.0
C1436 C 0.42268 0.30169 0.78426 0.0
C1437 C 0.46574 0.25498 0.78498 0.0
C1438 C 0.47978 0.25859 0.79453 0.0
C1439 C 0.47258 0.23998 0.77618 0.0
C1440 C 0.4587 0.23602 0.76573 0.0
C1441 C 0.45215 0.25411 0.75864 0.0
C1442 C 0.43896 0.25024 0.74885 0.0
C1443 C 0.43235 0.22834 0.746 0.0
C1444 C 0.43897 0.21024 0.75293 0.0
C1445 C 0.45214 0.21402 0.76274 0.0
H1446 H 0.42214 0.22538 0.73841 0.0
H1447 H 0.54949 0.26013 0.83402 0.0
H1448 H 0.92661 0.81631 0.45776 0.0
H1449 H 0.9465 0.78044 0.45785 0.0
H1450 H 0.00882 0.81474 0.45026 0.0
H1451 H 0.98895 0.85083 0.44994 0.0
H1452 H 0.00391 0.77866 0.43684 0.0
H1453 H -0.00132 0.79362 0.47713 0.0
H1454 H 0.98026 0.80365 0.4955 0.0
H1455 H 0.93802 0.74511 0.49299 0.0
H1456 H 0.95597 0.73489 0.47451 0.0
H1457 H 0.0723 0.68259 0.44924 0.0
H1458 H 0.05501 0.71992 0.45008 0.0
H1459 H 0.98938 0.68937 0.45298 0.0
H1460 H 0.00648 0.65189 0.45207 0.0
H1461 H -0.0021 0.7242 0.46921 0.0
H1462 H 0.00354 0.71042 0.42827 0.0
H1463 H 0.02325 0.70092 0.41018 0.0
H1464 H 0.06673 0.75812 0.41451 0.0
H1465 H 0.04749 0.76777 0.43273 0.0
C1466 C 0.94458 0.81631 0.45618 0.0
C1467 C 0.95619 0.83647 0.45385 0.0
C1468 C 0.95594 0.79577 0.45628 0.0
C1469 C 0.97918 0.79495 0.45419 0.0
C1470 C 0.99088 0.81502 0.45191 0.0
C1471 C 0.9795 0.83562 0.45177 0.0
C1472 C 0.99103 0.773 0.454 0.0
C1473 C 0.00292 0.76691 0.444 0.0
C1474 C 0.98941 0.75753 0.46327 0.0
C1475 C 0.97855 0.7636 0.47438 0.0
C1476 C 0.98534 0.78298 0.48045 0.0
C1477 C 0.975 0.78869 0.49089 0.0
C1478 C 0.95794 0.77506 0.49539 0.0
C1479 C 0.95122 0.75567 0.48948 0.0
C1480 C 0.96149 0.7499 0.47903 0.0
C1481 C 0.05418 0.68378 0.45006 0.0
C1482 C 0.04074 0.66428 0.45058 0.0
C1483 C 0.04436 0.70512 0.4505 0.0
C1484 C 0.02095 0.70732 0.45153 0.0
C1485 C 0.00749 0.68794 0.45217 0.0
C1486 C 0.01727 0.66658 0.45161 0.0
C1487 C 0.01052 0.72988 0.45204 0.0
C1488 C -0.00106 0.73605 0.4621 0.0
C1489 C 0.01264 0.74549 0.44288 0.0
C1490 C 0.02423 0.73967 0.43193 0.0
C1491 C 0.01745 0.72084 0.42542 0.0
C1492 C 0.0285 0.71546 0.41513 0.0
C1493 C 0.04627 0.72887 0.41121 0.0
C1494 C 0.05299 0.74772 0.41757 0.0
C1495 C 0.04201 0.75317 0.42787 0.0
H1496 H 0.05479 0.72472 0.40323 0.0
H1497 H 0.94997 0.7795 0.50348 0.0
H1498 H 0.56361 0.82465 0.69726 0.0
H1499 H 0.52701 0.80597 0.69774 0.0
H1500 H 0.55983 0.74154 0.70162 0.0
H1501 H 0.59654 0.76006 0.7007 0.0
H1502 H 0.52718 0.73745 0.68712 0.0
H1503 H 0.53392 0.76987 0.72475 0.0
H1504 H 0.54034 0.79995 0.73906 0.0
H1505 H 0.48359 0.83653 0.72586 0.0
H1506 H 0.477 0.8068 0.71135 0.0
H1507 H 0.43142 0.67639 0.70602 0.0
H1508 H 0.46768 0.69573 0.70584 0.0
H1509 H 0.43479 0.75784 0.69645 0.0
H1510 H 0.39831 0.73867 0.69664 0.0
H1511 H 0.46705 0.76305 0.71379 0.0
H1512 H 0.46081 0.72807 0.67621 0.0
H1513 H 0.45496 0.69612 0.66292 0.0
H1514 H 0.51195 0.66204 0.67754 0.0
H1515 H 0.51793 0.69363 0.69104 0.0
C1516 C 0.56303 0.8065 0.69823 0.0
C1517 C 0.58296 0.79383 0.69899 0.0
C1518 C 0.54209 0.79585 0.69856 0.0
C1519 C 0.54063 0.77238 0.69993 0.0
C1520 C 0.56052 0.75967 0.70058 0.0
C1521 C 0.58149 0.77028 0.70007 0.0
C1522 C 0.51839 0.76103 0.70053 0.0
C1523 C 0.51417 0.74288 0.69307 0.0
C1524 C 0.50123 0.76832 0.70816 0.0
C1525 C 0.50511 0.78621 0.71689 0.0
C1526 C 0.52291 0.78441 0.72484 0.0
C1527 C 0.52656 0.80138 0.733 0.0
C1528 C 0.51241 0.82017 0.73335 0.0
C1529 C 0.49455 0.82199 0.72556 0.0
C1530 C 0.49084 0.80507 0.71738 0.0
C1531 C 0.43182 0.69419 0.70397 0.0
C1532 C 0.41195 0.70596 0.70129 0.0
C1533 C 0.45259 0.70518 0.70383 0.0
C1534 C 0.45389 0.72812 0.701 0.0
C1535 C 0.43409 0.74009 0.69862 0.0
C1536 C 0.41329 0.72909 0.6987 0.0
C1537 C 0.47599 0.73955 0.70041 0.0
C1538 C 0.48014 0.7577 0.70786 0.0
C1539 C 0.4932 0.73203 0.69291 0.0
C1540 C 0.4897 0.71313 0.68471 0.0
C1541 C 0.47199 0.71369 0.67665 0.0
C1542 C 0.46867 0.69565 0.66907 0.0
C1543 C 0.48305 0.67704 0.66941 0.0
C1544 C 0.50081 0.67645 0.6773 0.0
C1545 C 0.50419 0.69442 0.68491 0.0
H1546 H 0.48049 0.66308 0.66355 0.0
H1547 H 0.51527 0.83329 0.73967 0.0
H1548 H 0.56164 0.17278 0.95946 0.0
H1549 H 0.54057 0.20807 0.96005 0.0
H1550 H 0.48796 0.17816 0.93949 0.0
H1551 H 0.50885 0.14258 0.93892 0.0
H1552 H 0.50186 0.22153 0.93192 0.0
H1553 H 0.47756 0.18402 0.96638 0.0
H1554 H 0.48257 0.16371 0.98477 0.0
H1555 H 0.51803 0.22043 -0.00112 0.0
H1556 H 0.51353 0.24097 0.98051 0.0
H1557 H 0.42093 0.30848 0.95931 0.0
H1558 H 0.43808 0.27107 0.95897 0.0
H1559 H 0.49842 0.29915 0.94406 0.0
H1560 H 0.48145 0.33667 0.94435 0.0
H1561 H 0.47702 0.25477 0.96914 0.0
H1562 H 0.51714 0.26098 0.92379 0.0
H1563 H 0.51066 0.28057 0.90529 0.0
H1564 H 0.44 0.2847 0.91277 0.0
H1565 H 0.44601 0.26486 0.93122 0.0
C1566 C 0.54561 0.17367 0.95504 0.0
C1567 C 0.53689 0.15487 0.94915 0.0
C1568 C 0.53357 0.19382 0.95543 0.0
C1569 C 0.51271 0.19559 0.94987 0.0
C1570 C 0.50405 0.17702 0.94384 0.0
C1571 C 0.51596 0.15673 0.94356 0.0
C1572 C 0.50004 0.21697 0.95034 0.0
C1573 C 0.49637 0.2288 0.94004 0.0
C1574 C 0.49271 0.22622 0.96095 0.0
C1575 C 0.49538 0.21395 0.97203 0.0
C1576 C 0.4866 0.19209 0.97337 0.0
C1577 C 0.48931 0.18055 0.9838 0.0
C1578 C 0.50066 0.19075 -0.00702 0.0
C1579 C 0.50927 0.21254 0.99176 0.0
C1580 C 0.50662 0.22415 0.98134 0.0
C1581 C 0.43789 0.30674 0.956 0.0
C1582 C 0.4498 0.32554 0.9518 0.0
C1583 C 0.44766 0.28537 0.95585 0.0
C1584 C 0.46938 0.28238 0.95139 0.0
C1585 C 0.48152 0.30113 0.94742 0.0
C1586 C 0.47183 0.32255 0.94764 0.0
C1587 C 0.47925 0.25957 0.95074 0.0
C1588 C 0.48245 0.24748 0.96101 0.0
C1589 C 0.48595 0.24999 0.9401 0.0
C1590 C 0.48208 0.26163 0.92893 0.0
C1591 C 0.50021 0.26599 0.92146 0.0
C1592 C 0.49662 0.27715 0.91099 0.0
C1593 C 0.47494 0.28394 0.90787 0.0
C1594 C 0.45679 0.27951 0.91521 0.0
C1595 C 0.46029 0.26834 0.92568 0.0
H1596 H 0.4722 0.2926 0.89977 0.0
H1597 H 0.50274 0.18179 0.00105 0.0
H1598 H 0.06694 0.32021 0.19817 0.0
H1599 H 0.03125 0.30006 0.19933 0.0
H1600 H 0.06689 0.23717 0.2032 0.0
H1601 H 0.10278 0.2572 0.20168 0.0
H1602 H 0.03345 0.23204 0.18874 0.0
H1603 H 0.0409 0.26394 0.22645 0.0
H1604 H 0.04719 0.29399 0.24079 0.0
H1605 H 0.98894 0.32927 0.22839 0.0
H1606 H 0.98247 0.29957 0.21386 0.0
H1607 H 0.93679 0.17021 0.20631 0.0
H1608 H 0.9734 0.18898 0.20668 0.0
H1609 H 0.94159 0.25233 0.19857 0.0
H1610 H 0.90485 0.23377 0.19822 0.0
H1611 H 0.97352 0.25593 0.21595 0.0
H1612 H 0.96737 0.22401 0.17777 0.0
H1613 H 0.96123 0.19335 0.16375 0.0
H1614 H 0.01755 0.15719 0.17774 0.0
H1615 H 0.02383 0.18752 0.19196 0.0
C1616 C 0.06721 0.30209 0.1993 0.0
C1617 C 0.0877 0.2903 0.19988 0.0
C1618 C 0.04678 0.2906 0.20002 0.0
C1619 C 0.04638 0.26714 0.20157 0.0
C1620 C 0.0668 0.25528 0.20205 0.0
C1621 C 0.08729 0.26675 0.20119 0.0
C1622 C 0.02462 0.255 0.20243 0.0
C1623 C 0.02051 0.23703 0.19483 0.0
C1624 C 0.00754 0.26177 0.21023 0.0
C1625 C 0.01132 0.27961 0.219 0.0
C1626 C 0.02952 0.27818 0.22673 0.0
C1627 C 0.03311 0.29514 0.2349 0.0
C1628 C 0.0185 0.31355 0.23548 0.0
C1629 C 0.00025 0.31501 0.22792 0.0
C1630 C -0.0034 0.2981 0.21972 0.0
C1631 C 0.93753 0.18816 0.20465 0.0
C1632 C 0.91789 0.20048 0.20217 0.0
C1633 C 0.95848 0.19882 0.20483 0.0
C1634 C 0.96018 0.22197 0.20254 0.0
C1635 C 0.9406 0.23443 0.20034 0.0
C1636 C 0.91964 0.22377 0.2001 0.0
C1637 C 0.98242 0.23315 0.20224 0.0
C1638 C 0.98658 0.25091 0.20993 0.0
C1639 C -0.00041 0.22609 0.19459 0.0
C1640 C -0.00408 0.20792 0.186 0.0
C1641 C 0.97833 0.20943 0.17792 0.0
C1642 C 0.97484 0.19213 0.16992 0.0
C1643 C 0.98895 0.17331 0.16987 0.0
C1644 C 0.00661 0.17177 0.1778 0.0
C1645 C 0.01015 0.18902 0.18582 0.0
H1646 H 0.98622 0.15993 0.16368 0.0
H1647 H 0.02131 0.32667 0.24182 0.0
H1648 H 0.98633 0.65615 0.94978 0.0
H1649 H 0.0034 0.69368 0.95047 0.0
H1650 H 0.93745 0.72395 0.95036 0.0
H1651 H 0.92019 0.68653 0.94979 0.0
H1652 H 0.96833 0.74301 0.93425 0.0
H1653 H 0.96364 0.72385 0.97445 0.0
H1654 H 0.96937 0.69981 0.99156 0.0
H1655 H 0.04091 0.70253 0.98647 0.0
H1656 H 0.03559 0.72632 0.96922 0.0
H1657 H 0.00646 0.85421 0.94618 0.0
H1658 H 0.98611 0.81839 0.94699 0.0
H1659 H 0.0486 0.78323 0.95291 0.0
H1660 H 0.06894 0.81889 0.95241 0.0
H1661 H 0.01728 0.76729 0.96665 0.0
H1662 H 0.02285 0.78403 0.92615 0.0
H1663 H 0.01821 0.80699 0.90856 0.0
H1664 H 0.9466 0.80769 0.91358 0.0
H1665 H 0.95085 0.78497 0.93129 0.0
C1666 C 0.97546 0.67078 0.94992 0.0
C1667 C 0.95192 0.66839 0.94975 0.0
C1668 C 0.98523 0.69218 0.95035 0.0
C1669 C 0.97163 0.71149 0.95052 0.0
C1670 C 0.94817 0.70919 0.95024 0.0
C1671 C 0.93837 0.68782 0.94997 0.0
C1672 C 0.98197 0.73411 0.95085 0.0
C1673 C 0.97876 0.74852 0.9414 0.0
C1674 C -0.00406 0.74094 0.96008 0.0
C1675 C -0.0008 0.72669 0.97048 0.0
C1676 C 0.98059 0.71916 0.97692 0.0
C1677 C 0.98376 0.70561 0.98666 0.0
C1678 C 0.00548 0.6996 0.99009 0.0
C1679 C 0.02408 0.70717 0.9838 0.0
C1680 C 0.021 0.72071 0.97405 0.0
C1681 C 0.01585 0.83885 0.94766 0.0
C1682 C 0.03933 0.8394 0.94918 0.0
C1683 C 0.00422 0.81839 0.94809 0.0
C1684 C 0.01589 0.79811 0.94988 0.0
C1685 C 0.03926 0.79867 0.95153 0.0
C1686 C 0.05086 0.81909 0.95121 0.0
C1687 C 0.00389 0.77622 0.94997 0.0
C1688 C 0.00676 0.7619 0.95951 0.0
C1689 C 0.98979 0.76938 0.94076 0.0
C1690 C 0.98719 0.78302 0.93011 0.0
C1691 C 0.00613 0.78924 0.92355 0.0
C1692 C 0.00357 0.80218 0.91355 0.0
C1693 C 0.98213 0.80886 0.90997 0.0
C1694 C 0.9632 0.80255 0.91637 0.0
C1695 C 0.96567 0.78963 0.92639 0.0
H1696 H 0.98018 0.81887 0.90223 0.0
H1697 H 0.00791 0.68911 -0.00237 0.0
H1698 H 0.89268 0.25237 0.69718 0.0
H1699 H 0.92857 0.23219 0.69685 0.0
H1700 H 0.96427 0.29527 0.69961 0.0
H1701 H 0.92858 0.3156 0.69992 0.0
H1702 H 0.98167 0.26728 0.68274 0.0
H1703 H 0.9593 0.26269 0.72273 0.0
H1704 H 0.93353 0.25352 0.73875 0.0
H1705 H 0.9336 0.18393 0.72861 0.0
H1706 H 0.95914 0.19275 0.71243 0.0
H1707 H 0.09066 0.22948 0.69692 0.0
H1708 H 0.05388 0.24774 0.69685 0.0
H1709 H 0.02141 0.18272 0.69827 0.0
H1710 H 0.05818 0.16433 0.69872 0.0
H1711 H 0.00145 0.21049 0.71249 0.0
H1712 H 0.02413 0.21399 0.67292 0.0
H1713 H 0.04938 0.22242 0.65658 0.0
H1714 H 0.04794 0.29276 0.66523 0.0
H1715 H 0.02292 0.28472 0.68173 0.0
C1716 C 0.90816 0.26196 0.69772 0.0
C1717 C 0.90776 0.2856 0.6986 0.0
C1718 C 0.92863 0.25039 0.69757 0.0
C1719 C 0.94902 0.26226 0.69828 0.0
C1720 C 0.94869 0.28583 0.69905 0.0
C1721 C 0.92826 0.2974 0.69927 0.0
C1722 C 0.97077 0.25018 0.69816 0.0
C1723 C 0.98614 0.25503 0.68931 0.0
C1724 C 0.97623 0.23375 0.70654 0.0
C1725 C 0.96094 0.22842 0.7163 0.0
C1726 C 0.95367 0.24547 0.72386 0.0
C1727 C 0.93914 0.24033 0.73298 0.0
C1728 C 0.93188 0.21817 0.73468 0.0
C1729 C 0.9392 0.20109 0.72728 0.0
C1730 C 0.95372 0.20615 0.71813 0.0
C1731 C 0.0757 0.21905 0.6972 0.0
C1732 C 0.07734 0.19545 0.69779 0.0
C1733 C 0.05467 0.22951 0.6971 0.0
C1734 C 0.03487 0.21658 0.69736 0.0
C1735 C 0.03646 0.19303 0.69804 0.0
C1736 C 0.05749 0.18255 0.69827 0.0
C1737 C 0.01252 0.22767 0.6971 0.0
C1738 C -0.003 0.22264 0.70588 0.0
C1739 C 0.00684 0.2438 0.68858 0.0
C1740 C 0.0218 0.24872 0.67862 0.0
C1741 C 0.02932 0.23124 0.67139 0.0
C1742 C 0.04358 0.23595 0.66209 0.0
C1743 C 0.0503 0.25811 0.65989 0.0
C1744 C 0.04274 0.2756 0.66696 0.0
C1745 C 0.0285 0.27098 0.67628 0.0
H1746 H 0.06134 0.26172 0.65268 0.0
H1747 H 0.92063 0.21422 0.74175 0.0
H1748 H 0.57233 0.3138 0.44774 0.0
H1749 H 0.55404 0.27694 0.44849 0.0
H1750 H 0.48896 0.30892 0.44705 0.0
H1751 H 0.50709 0.34595 0.44625 0.0
H1752 H 0.4927 0.2756 0.4643 0.0
H1753 H 0.50767 0.28476 0.42372 0.0
H1754 H 0.5314 0.2924 0.4067 0.0
H1755 H 0.57324 0.23579 0.41515 0.0
H1756 H 0.54994 0.22801 0.43233 0.0
H1757 H 0.42518 0.18043 0.4524 0.0
H1758 H 0.44416 0.21684 0.45211 0.0
H1759 H 0.50835 0.18348 0.44883 0.0
H1760 H 0.4894 0.14688 0.44883 0.0
H1761 H 0.50578 0.2175 0.43423 0.0
H1762 H 0.49149 0.20759 0.47451 0.0
H1763 H 0.46882 0.19971 0.49188 0.0
H1764 H 0.42722 0.25713 0.48466 0.0
H1765 H 0.44946 0.26519 0.46714 0.0
C1766 C 0.55412 0.31303 0.44757 0.0
C1767 C 0.54115 0.33281 0.44692 0.0
C1768 C 0.54373 0.29196 0.44796 0.0
C1769 C 0.52019 0.29028 0.44776 0.0
C1770 C 0.50716 0.30994 0.4472 0.0
C1771 C 0.51755 0.33104 0.4467 0.0
C1772 C 0.5092 0.26795 0.44823 0.0
C1773 C 0.49528 0.26296 0.45766 0.0
C1774 C 0.5132 0.25133 0.43973 0.0
C1775 C 0.52719 0.25594 0.42938 0.0
C1776 C 0.52204 0.27406 0.42201 0.0
C1777 C 0.53539 0.27839 0.41232 0.0
C1778 C 0.55385 0.26463 0.40986 0.0
C1779 C 0.55896 0.24646 0.41707 0.0
C1780 C 0.54567 0.24207 0.42678 0.0
C1781 C 0.44335 0.18078 0.45168 0.0
C1782 C 0.45578 0.16073 0.45066 0.0
C1783 C 0.45419 0.20164 0.45156 0.0
C1784 C 0.4777 0.20287 0.4506 0.0
C1785 C 0.49018 0.1829 0.4496 0.0
C1786 C 0.47933 0.162 0.44963 0.0
C1787 C 0.48915 0.22506 0.45032 0.0
C1788 C 0.50319 0.23006 0.44091 0.0
C1789 C 0.48541 0.24162 0.45891 0.0
C1790 C 0.47202 0.23686 0.46945 0.0
C1791 C 0.4774 0.21843 0.47657 0.0
C1792 C 0.46465 0.21396 0.48645 0.0
C1793 C 0.44656 0.22788 0.48935 0.0
C1794 C 0.44122 0.24635 0.48239 0.0
C1795 C 0.45391 0.25089 0.47249 0.0
H1796 H 0.43671 0.22438 0.49701 0.0
H1797 H 0.56416 0.26801 0.40235 0.0
H1798 H 0.39583 0.75611 0.197 0.0
H1799 H 0.43246 0.73736 0.1973 0.0
H1800 H 0.4656 0.80188 0.19963 0.0
H1801 H 0.42906 0.82083 0.19938 0.0
H1802 H 0.48462 0.77252 0.18312 0.0
H1803 H 0.46171 0.77198 0.22302 0.0
H1804 H 0.43582 0.76432 0.23919 0.0
H1805 H 0.43706 0.69367 0.23121 0.0
H1806 H 0.46272 0.70096 0.21487 0.0
H1807 H 0.59372 0.73492 0.198 0.0
H1808 H 0.55726 0.75387 0.19789 0.0
H1809 H 0.52365 0.68956 0.20035 0.0
H1810 H 0.56003 0.67048 0.20074 0.0
H1811 H 0.5046 0.71893 0.21437 0.0
H1812 H 0.52678 0.71837 0.17467 0.0
H1813 H 0.55194 0.725 0.15808 0.0
H1814 H 0.55113 0.7961 0.16494 0.0
H1815 H 0.52622 0.78986 0.18168 0.0
C1816 C 0.4109 0.76633 0.19756 0.0
C1817 C 0.40954 0.78996 0.1982 0.0
C1818 C 0.43179 0.75558 0.19777 0.0
C1819 C 0.45165 0.76827 0.19856 0.0
C1820 C 0.45041 0.79184 0.19902 0.0
C1821 C 0.42952 0.8026 0.19893 0.0
C1822 C 0.47376 0.75691 0.19895 0.0
C1823 C 0.48916 0.76103 0.19002 0.0
C1824 C 0.47931 0.74148 0.2078 0.0
C1825 C 0.46395 0.73705 0.21765 0.0
C1826 C 0.45631 0.75484 0.22465 0.0
C1827 C 0.4417 0.75056 0.23386 0.0
C1828 C 0.43475 0.72853 0.23621 0.0
C1829 C 0.44243 0.71073 0.22937 0.0
C1830 C 0.45702 0.71493 0.22014 0.0
C1831 C 0.57858 0.72479 0.19852 0.0
C1832 C 0.57979 0.70117 0.19933 0.0
C1833 C 0.55775 0.73565 0.19841 0.0
C1834 C 0.53774 0.7231 0.19894 0.0
C1835 C 0.53889 0.69956 0.19991 0.0
C1836 C 0.55971 0.68869 0.20011 0.0
C1837 C 0.51558 0.73451 0.19853 0.0
C1838 C 0.50013 0.73042 0.20745 0.0
C1839 C 0.5099 0.74979 0.1896 0.0
C1840 C 0.52481 0.75362 0.1795 0.0
C1841 C 0.53211 0.7354 0.1727 0.0
C1842 C 0.5463 0.73909 0.16325 0.0
C1843 C 0.55318 0.76095 0.16047 0.0
C1844 C 0.54582 0.77917 0.16711 0.0
C1845 C 0.53165 0.77557 0.17658 0.0
H1846 H 0.56416 0.76377 0.15316 0.0
H1847 H 0.42344 0.72525 0.24334 0.0
H1848 H 0.9821 0.34234 0.53838 0.0
H1849 H 0.00079 0.30569 0.53776 0.0
H1850 H 0.93695 0.27312 0.53174 0.0
H1851 H 0.91804 0.30967 0.53236 0.0
H1852 H 0.96247 0.25173 0.54845 0.0
H1853 H 0.97194 0.27963 0.50983 0.0
H1854 H 0.98288 0.30737 0.495 0.0
H1855 H 0.0513 0.30511 0.50687 0.0
H1856 H 0.0407 0.27758 0.52189 0.0
H1857 H 0.00733 0.14472 0.53343 0.0
H1858 H 0.98685 0.18042 0.5333 0.0
H1859 H 0.04965 0.21675 0.53552 0.0
H1860 H 0.07026 0.18121 0.53532 0.0
H1861 H 0.02339 0.23593 0.52029 0.0
H1862 H 0.01437 0.20943 0.55924 0.0
H1863 H 0.00393 0.18228 0.57445 0.0
H1864 H 0.93552 0.18252 0.56251 0.0
H1865 H 0.94562 0.20945 0.54712 0.0
C1866 C 0.972 0.3274 0.53692 0.0
C1867 C 0.94858 0.32894 0.53538 0.0
C1868 C 0.98273 0.30649 0.53653 0.0
C1869 C 0.97025 0.28677 0.53461 0.0
C1870 C 0.94686 0.28819 0.53322 0.0
C1871 C 0.93612 0.30909 0.53354 0.0
C1872 C 0.98162 0.26464 0.53411 0.0
C1873 C 0.97558 0.24811 0.54219 0.0
C1874 C -0.00097 0.26021 0.52611 0.0
C1875 C 0.00547 0.2767 0.51705 0.0
C1876 C 0.98928 0.28518 0.50934 0.0
C1877 C -0.00457 0.30084 0.50089 0.0
C1878 C 0.01776 0.30804 0.50001 0.0
C1879 C 0.034 0.29954 0.50757 0.0
C1880 C 0.02794 0.28389 0.51604 0.0
C1881 C 0.01678 0.16031 0.53391 0.0
C1882 C 0.04042 0.16013 0.53442 0.0
C1883 C 0.00504 0.1807 0.53388 0.0
C1884 C 0.01671 0.20125 0.53456 0.0
C1885 C 0.0403 0.2011 0.53499 0.0
C1886 C 0.05205 0.18075 0.5349 0.0
C1887 C 0.00442 0.22298 0.53471 0.0
C1888 C 0.01026 0.23947 0.52654 0.0
C1889 C 0.98693 0.22742 0.54269 0.0
C1890 C 0.9808 0.21127 0.55196 0.0
C1891 C -0.00286 0.20355 0.5598 0.0
C1892 C 0.99127 0.18823 0.56847 0.0
C1893 C 0.96909 0.18063 0.56943 0.0
C1894 C 0.9527 0.18839 0.56175 0.0
C1895 C 0.95848 0.2037 0.55306 0.0
H1896 H 0.96458 0.16877 0.57615 0.0
H1897 H 0.02249 0.32016 0.49346 0.0
H1898 H 0.39023 0.23407 0.28464 0.0
H1899 H 0.42682 0.25294 0.28415 0.0
H1900 H 0.4602 0.18845 0.28496 0.0
H1901 H 0.42371 0.16939 0.28543 0.0
H1902 H 0.47775 0.2197 0.30069 0.0
H1903 H 0.458 0.21575 0.26038 0.0
H1904 H 0.43328 0.22167 0.24355 0.0
H1905 H 0.43432 0.29308 0.24951 0.0
H1906 H 0.4588 0.28755 0.26648 0.0
H1907 H 0.58821 0.25431 0.28694 0.0
H1908 H 0.55145 0.23595 0.28693 0.0
H1909 H 0.51924 0.30029 0.28168 0.0
H1910 H 0.556 0.31874 0.2814 0.0
H1911 H 0.50058 0.26952 0.26832 0.0
H1912 H 0.51965 0.27465 0.3083 0.0
H1913 H 0.54327 0.26991 0.32563 0.0
H1914 H 0.54229 0.19811 0.32106 0.0
H1915 H 0.51891 0.20244 0.3036 0.0
C1916 C 0.40534 0.22389 0.2847 0.0
C1917 C 0.40406 0.20023 0.28505 0.0
C1918 C 0.42622 0.2347 0.28438 0.0
C1919 C 0.44615 0.22205 0.28445 0.0
C1920 C 0.44496 0.19847 0.28489 0.0
C1921 C 0.42411 0.18763 0.28511 0.0
C1922 C 0.46829 0.23343 0.28419 0.0
C1923 C 0.48292 0.23036 0.29355 0.0
C1924 C 0.47461 0.24785 0.27503 0.0
C1925 C 0.46005 0.25122 0.26477 0.0
C1926 C 0.45281 0.2327 0.25815 0.0
C1927 C 0.43887 0.23599 0.24858 0.0
C1928 C 0.43218 0.25773 0.24548 0.0
C1929 C 0.43949 0.27624 0.25193 0.0
C1930 C 0.45341 0.27305 0.26152 0.0
C1931 C 0.57332 0.26458 0.28579 0.0
C1932 C 0.57505 0.28801 0.28422 0.0
C1933 C 0.5523 0.25406 0.28583 0.0
C1934 C 0.53257 0.26679 0.28448 0.0
C1935 C 0.53424 0.29014 0.28276 0.0
C1936 C 0.55528 0.30066 0.28263 0.0
C1937 C 0.51021 0.25573 0.28481 0.0
C1938 C 0.49548 0.25887 0.27547 0.0
C1939 C 0.50368 0.24157 0.29407 0.0
C1940 C 0.51771 0.23889 0.30458 0.0
C1941 C 0.52462 0.25786 0.31094 0.0
C1942 C 0.53794 0.25524 0.3208 0.0
C1943 C 0.54433 0.23373 0.32443 0.0
C1944 C 0.53735 0.21477 0.31823 0.0
C1945 C 0.52405 0.21729 0.30835 0.0
H1946 H 0.55463 0.23174 0.33206 0.0
H1947 H 0.42138 0.26024 0.23807 0.0
H1948 H 0.48418 0.8438 0.04089 0.0
H1949 H 0.50439 0.8079 0.04011 0.0
H1950 H 0.44563 0.77569 0.02577 0.0
H1951 H 0.42529 0.81138 0.02649 0.0
H1952 H 0.49418 0.76736 0.05075 0.0
H1953 H 0.46403 0.7367 0.00596 0.0
H1954 H 0.45205 0.7527 0.98729 0.0
H1955 H 0.49155 0.81201 -0.00626 0.0
H1956 H 0.50401 0.79623 0.01236 0.0
H1957 H 0.51216 0.64983 0.04315 0.0
H1958 H 0.49434 0.68701 0.04289 0.0
H1959 H 0.54795 0.71247 0.02142 0.0
H1960 H 0.56599 0.67546 0.02168 0.0
H1961 H 0.50469 0.72547 0.01405 0.0
H1962 H 0.55009 0.72475 0.0484 0.0
H1963 H 0.5636 0.70942 0.06693 0.0
H1964 H 0.49702 0.71472 0.08109 0.0
H1965 H 0.48304 0.72978 0.06258 0.0
C1966 C 0.47557 0.8291 0.03754 0.0
C1967 C 0.45314 0.83046 0.03374 0.0
C1968 C 0.48712 0.80861 0.03714 0.0
C1969 C 0.47652 0.78926 0.03281 0.0
C1970 C 0.45415 0.79053 0.02903 0.0
C1971 C 0.44255 0.81093 0.02949 0.0
C1972 C 0.48873 0.76759 0.03236 0.0
C1973 C 0.49651 0.75821 0.04273 0.0
C1974 C 0.49191 0.75582 0.02187 0.0
C1975 C 0.48477 0.76535 0.01061 0.0
C1976 C 0.47023 0.75311 0.00337 0.0
C1977 C 0.46334 0.76215 -0.0072 0.0
C1978 C 0.47098 0.78339 0.98935 0.0
C1979 C 0.48558 0.7956 -0.00356 0.0
C1980 C 0.49253 0.78663 0.00702 0.0
C1981 C 0.52009 0.6633 0.03831 0.0
C1982 C 0.54054 0.65975 0.03248 0.0
C1983 C 0.50993 0.68451 0.03821 0.0
C1984 C 0.51996 0.70242 0.0322 0.0
C1985 C 0.54001 0.6988 0.02611 0.0
C1986 C 0.55031 0.67769 0.02631 0.0
C1987 C 0.50977 0.7251 0.03246 0.0
C1988 C 0.50235 0.73464 0.02206 0.0
C1989 C 0.5071 0.73712 0.04291 0.0
C1990 C 0.51548 0.72819 0.05407 0.0
C1991 C 0.53829 0.72247 0.05544 0.0
C1992 C 0.54604 0.71386 0.06594 0.0
C1993 C 0.53117 0.71105 0.07518 0.0
C1994 C 0.50852 0.71689 0.07393 0.0
C1995 C 0.50068 0.72548 0.06343 0.0
H1996 H 0.5372 0.70438 0.08331 0.0
H1997 H 0.46561 0.79036 0.98117 0.0
H1998 H 0.92107 0.67053 0.78527 0.0
H1999 H 0.95633 0.6915 0.78616 0.0
H2000 H 0.91947 0.75381 0.78909 0.0
H2001 H 0.88391 0.73294 0.78819 0.0
H2002 H 0.95451 0.75562 0.77303 0.0
H2003 H 0.94344 0.73353 0.81238 0.0
H2004 H 0.93559 0.70701 0.82827 0.0
H2005 H -0.00534 0.66901 0.81954 0.0
H2006 H 0.00268 0.69511 0.80348 0.0
H2007 H 0.05227 0.8197 0.78633 0.0
H2008 H 0.0149 0.80259 0.78706 0.0
H2009 H 0.045 0.73646 0.78796 0.0
H2010 H 0.08243 0.75343 0.78753 0.0
H2011 H 0.01178 0.7389 0.803 0.0
H2012 H 0.0216 0.75867 0.763 0.0
H2013 H 0.0295 0.78414 0.74667 0.0
H2014 H 0.9731 0.82539 0.75614 0.0
H2015 H 0.96504 0.80031 0.77263 0.0
C2016 C 0.92038 0.68869 0.7861 0.0
C2017 C 0.89965 0.70006 0.78669 0.0
C2018 C 0.94058 0.70063 0.78666 0.0
C2019 C 0.94046 0.72415 0.78781 0.0
C2020 C 0.91985 0.73563 0.78824 0.0
C2021 C 0.89959 0.72368 0.78776 0.0
C2022 C 0.96198 0.73664 0.7884 0.0
C2023 C 0.96691 0.75229 0.77969 0.0
C2024 C 0.97826 0.73185 0.79696 0.0
C2025 C 0.97356 0.71619 0.80666 0.0
C2026 C 0.95466 0.71942 0.81379 0.0
C2027 C 0.9502 0.70448 0.82284 0.0
C2028 C 0.96459 0.68631 0.8249 0.0
C2029 C 0.98351 0.68308 0.81793 0.0
C2030 C 0.98804 0.69796 0.80886 0.0
C2031 C 0.05095 0.80151 0.78667 0.0
C2032 C 0.07034 0.78792 0.78683 0.0
C2033 C 0.02956 0.79175 0.78705 0.0
C2034 C 0.02715 0.76823 0.78741 0.0
C2035 C 0.04647 0.75465 0.78768 0.0
C2036 C 0.06786 0.76438 0.78741 0.0
C2037 C 0.00453 0.75769 0.78752 0.0
C2038 C -0.00065 0.74239 0.79638 0.0
C2039 C 0.98809 0.76269 0.77905 0.0
C2040 C 0.99287 0.77775 0.76912 0.0
C2041 C 0.01099 0.77327 0.76166 0.0
C2042 C 0.01548 0.78762 0.75236 0.0
C2043 C 0.00185 0.80641 0.75039 0.0
C2044 C 0.98366 0.81085 0.75769 0.0
C2045 C 0.97912 0.79657 0.76701 0.0
H2046 H 0.00535 0.8175 0.74319 0.0
H2047 H 0.96111 0.67476 0.83191 0.0
H2048 H 0.3089 0.37493 0.95217 0.0
H2049 H 0.27178 0.36964 0.96095 0.0
H2050 H 0.30331 0.3563 -0.00615 0.0
H2051 H 0.3403 0.35997 0.9849 0.0
H2052 H 0.26981 0.33092 -0.00746 0.0
H2053 H 0.27991 0.41013 0.98538 0.0
H2054 H 0.28742 0.44412 0.97372 0.0
H2055 H 0.22989 0.42962 0.95255 0.0
H2056 H 0.22219 0.39539 0.964 0.0
H2057 H 0.17894 0.38439 0.02677 0.0
H2058 H 0.21457 0.37951 0.01637 0.0
H2059 H 0.18006 0.34288 0.98956 0.0
H2060 H 0.14448 0.34704 3e-05 0.0
H2061 H 0.213 0.39121 0.98706 0.0
H2062 H 0.20506 0.30986 -0.00394 0.0
H2063 H 0.19869 0.27906 0.00999 0.0
H2064 H 0.25427 0.30245 0.03046 0.0
H2065 H 0.2607 0.3336 0.01671 0.0
C2066 C 0.30781 0.37065 0.96125 0.0
C2067 C 0.32735 0.36797 0.9679 0.0
C2068 C 0.28663 0.36777 0.96628 0.0
C2069 C 0.28467 0.3631 0.97814 0.0
C2070 C 0.3043 0.35989 0.98469 0.0
C2071 C 0.32544 0.36207 0.97959 0.0
C2072 C 0.26232 0.36227 0.98387 0.0
C2073 C 0.25748 0.34417 0.99131 0.0
C2074 C 0.24606 0.3795 0.98233 0.0
C2075 C 0.25063 0.40009 0.97546 0.0
C2076 C 0.26895 0.41412 0.97819 0.0
C2077 C 0.27323 0.43344 0.97163 0.0
C2078 C 0.25918 0.43899 0.96238 0.0
C2079 C 0.24078 0.42528 0.9597 0.0
C2080 C 0.23644 0.40593 0.96622 0.0
C2081 C 0.17902 0.37499 0.01875 0.0
C2082 C 0.15899 0.36608 0.0142 0.0
C2083 C 0.19933 0.3722 0.01286 0.0
C2084 C 0.1998 0.36071 0.00229 0.0
C2085 C 0.17994 0.35154 -0.00221 0.0
C2086 C 0.1597 0.35395 0.00378 0.0
C2087 C 0.22077 0.35996 -0.00445 0.0
C2088 C 0.22533 0.37786 0.98805 0.0
C2089 C 0.23695 0.34294 -0.00275 0.0
C2090 C 0.23315 0.32419 0.00545 0.0
C2091 C 0.21573 0.30858 0.0036 0.0
C2092 C 0.21216 0.29102 0.01144 0.0
C2093 C 0.22602 0.28885 0.02113 0.0
C2094 C 0.24352 0.30418 0.02297 0.0
C2095 C 0.24714 0.32178 0.01515 0.0
H2096 H 0.22323 0.27524 0.02719 0.0
H2097 H 0.26252 0.45395 0.95731 0.0
H2098 H 0.84195 0.06369 0.21257 0.0
H2099 H 0.84398 0.02809 0.22307 0.0
H2100 H 0.90138 0.05261 0.24213 0.0
H2101 H 0.89926 0.08849 0.23177 0.0
H2102 H 0.87527 -0.0039 0.22501 0.0
H2103 H 0.89743 0.03217 0.26984 0.0
H2104 H 0.89307 0.06744 0.2809 0.0
H2105 H 0.83405 0.08397 0.26127 0.0
H2106 H 0.83788 0.04868 0.25021 0.0
H2107 H 0.89656 0.90413 0.26217 0.0
H2108 H 0.90122 0.94072 0.25277 0.0
H2109 H 0.83811 0.963 0.26722 0.0
H2110 H 0.83351 0.9266 0.27682 0.0
H2111 H 0.86874 -0.00378 0.26773 0.0
H2112 H 0.84057 0.94294 0.23986 0.0
H2113 H 0.84088 0.90762 0.22864 0.0
H2114 H 0.90482 0.92555 0.21397 0.0
H2115 H 0.90503 0.96086 0.22524 0.0
C2116 C 0.8551 0.06148 0.21895 0.0
C2117 C 0.87035 0.07894 0.22141 0.0
C2118 C 0.85628 0.0411 0.22491 0.0
C2119 C 0.87268 0.03782 0.23346 0.0
C2120 C 0.88841 0.05494 0.23567 0.0
C2121 C 0.88722 0.07538 0.22972 0.0
C2122 C 0.87272 0.01671 0.24026 0.0
C2123 C 0.87401 -0.00388 0.23435 0.0
C2124 C 0.87075 0.01677 0.25244 0.0
C2125 C 0.86812 0.03792 0.25912 0.0
C2126 C 0.88349 0.04331 0.26791 0.0
C2127 C 0.88112 0.06331 0.27418 0.0
C2128 C 0.86334 0.07798 0.27176 0.0
C2129 C 0.84786 0.07264 0.26311 0.0
C2130 C 0.85014 0.05266 0.25683 0.0
C2131 C 0.88379 0.91691 0.26345 0.0
C2132 C 0.86456 0.91244 0.27014 0.0
C2133 C 0.88647 0.93777 0.25805 0.0
C2134 C 0.86985 0.95442 0.25917 0.0
C2135 C 0.85112 0.95035 0.26624 0.0
C2136 C 0.84847 0.92953 0.27169 0.0
C2137 C 0.87133 0.97562 0.25248 0.0
C2138 C 0.87033 -0.00379 0.2584 0.0
C2139 C 0.87306 0.97557 0.24029 0.0
C2140 C 0.87293 0.95441 0.23348 0.0
C2141 C 0.85478 0.93926 0.23431 0.0
C2142 C 0.85485 0.91927 0.22793 0.0
C2143 C 0.87289 0.91431 0.22062 0.0
C2144 C 0.89088 0.92939 0.21965 0.0
C2145 C 0.8909 0.9494 0.22603 0.0
H2146 H 0.87291 0.89882 0.21569 0.0
H2147 H 0.86154 0.09346 0.27662 0.0
H2148 H 0.17648 0.58857 0.46089 0.0
H2149 H 0.21189 0.59245 0.47142 0.0
H2150 H 0.18747 0.65338 0.48739 0.0
H2151 H 0.15184 0.64948 0.47701 0.0
H2152 H 0.2444 0.62406 0.47246 0.0
H2153 H 0.20582 0.6534 0.51553 0.0
H2154 H 0.16978 0.6513 0.52609 0.0
H2155 H 0.15361 0.58942 0.50874 0.0
H2156 H 0.18966 0.59101 0.49821 0.0
H2157 H 0.33456 0.64756 0.51054 0.0
H2158 H 0.29865 0.65264 0.50056 0.0
H2159 H 0.27353 0.59144 0.51603 0.0
H2160 H 0.30923 0.58638 0.52615 0.0
H2161 H 0.24135 0.62352 0.51529 0.0
H2162 H 0.2956 0.5905 0.48926 0.0
H2163 H 0.33161 0.58877 0.4787 0.0
H2164 H 0.31632 0.65138 0.46186 0.0
H2165 H 0.28033 0.65362 0.47244 0.0
C2166 C 0.17871 0.60292 0.46656 0.0
C2167 C 0.16132 0.61861 0.46821 0.0
C2168 C 0.19898 0.60515 0.47254 0.0
C2169 C 0.20216 0.62305 0.48028 0.0
C2170 C 0.18519 0.63928 0.48157 0.0
C2171 C 0.1649 0.63705 0.47561 0.0
C2172 C 0.22279 0.62396 0.4874 0.0
C2173 C 0.24374 0.62415 0.48182 0.0
C2174 C 0.22189 0.62378 0.49961 0.0
C2175 C 0.2003 0.62249 0.50599 0.0
C2176 C 0.19458 0.63932 0.514 0.0
C2177 C 0.17416 0.63822 0.51998 0.0
C2178 C 0.15937 0.62028 0.51805 0.0
C2179 C 0.16503 0.60335 0.51019 0.0
C2180 C 0.18544 0.60436 0.50421 0.0
C2181 C 0.32128 0.63535 0.51194 0.0
C2182 C 0.32477 0.61645 0.51904 0.0
C2183 C 0.30081 0.63826 0.50621 0.0
C2184 C 0.28359 0.62224 0.50744 0.0
C2185 C 0.28664 0.60397 0.51496 0.0
C2186 C 0.30707 0.60107 0.52071 0.0
C2187 C 0.26295 0.62362 0.50035 0.0
C2188 C 0.242 0.62385 0.50593 0.0
C2189 C 0.26384 0.62372 0.48814 0.0
C2190 C 0.28541 0.62235 0.48174 0.0
C2191 C 0.3 0.60398 0.48337 0.0
C2192 C 0.32039 0.6029 0.47737 0.0
C2193 C 0.32628 0.61999 0.46964 0.0
C2194 C 0.31175 0.63818 0.46787 0.0
C2195 C 0.29136 0.63936 0.47386 0.0
H2196 H 0.34207 0.61912 0.465 0.0
H2197 H 0.14356 0.61947 0.52268 0.0
H2198 H 0.65744 0.07441 0.76677 0.0
H2199 H 0.65384 0.03923 0.75597 0.0
H2200 H 0.58255 0.05055 0.75218 0.0
H2201 H 0.58603 0.08615 0.76285 0.0
H2202 H 0.59786 0.0041 0.75935 0.0
H2203 H 0.60839 0.06099 0.73018 0.0
H2204 H 0.62711 0.09397 0.72147 0.0
H2205 H 0.68914 0.05712 0.71942 0.0
H2206 H 0.67088 0.02402 0.72829 0.0
H2207 H 0.59102 0.91281 0.71946 0.0
H2208 H 0.58564 0.94961 0.72861 0.0
H2209 H 0.6572 0.96184 0.72676 0.0
H2210 H 0.6625 0.92564 0.71721 0.0
H2211 H 0.63643 -0.00171 0.72145 0.0
H2212 H 0.62912 0.94368 0.75214 0.0
H2213 H 0.61297 0.91056 0.76199 0.0
H2214 H 0.54802 0.94223 0.76239 0.0
H2215 H 0.56375 0.97545 0.7524 0.0
C2216 C 0.64095 0.06937 0.76372 0.0
C2217 C 0.62202 0.08304 0.76561 0.0
C2218 C 0.63895 0.04932 0.75754 0.0
C2219 C 0.61797 0.04249 0.75326 0.0
C2220 C 0.59887 0.05567 0.75543 0.0
C2221 C 0.60091 0.07596 0.76148 0.0
C2222 C 0.61639 0.02185 0.74623 0.0
C2223 C 0.60587 0.00283 0.75095 0.0
C2224 C 0.62732 0.02029 0.73543 0.0
C2225 C 0.6383 0.04009 0.72999 0.0
C2226 C 0.62607 0.05998 0.72796 0.0
C2227 C 0.63659 0.07868 0.72298 0.0
C2228 C 0.65931 0.07766 0.71991 0.0
C2229 C 0.67155 0.0579 0.7218 0.0
C2230 C 0.66111 0.03915 0.7268 0.0
C2231 C 0.60555 0.92344 0.72096 0.0
C2232 C 0.62718 0.91637 0.71766 0.0
C2233 C 0.60248 0.9444 0.72624 0.0
C2234 C 0.62106 0.95836 0.72853 0.0
C2235 C 0.6426 0.9514 0.72506 0.0
C2236 C 0.64562 0.93067 0.71963 0.0
C2237 C 0.61835 0.98013 0.73466 0.0
C2238 C 0.62808 -0.00053 0.72976 0.0
C2239 C 0.60701 0.98186 0.74539 0.0
C2240 C 0.59755 0.96192 0.7514 0.0
C2241 C 0.61136 0.9435 0.75425 0.0
C2242 C 0.60229 0.92473 0.75987 0.0
C2243 C 0.57947 0.92426 0.76278 0.0
C2244 C 0.56569 0.9426 0.7601 0.0
C2245 C 0.57467 0.96141 0.75447 0.0
H2246 H 0.57248 0.90971 0.76714 0.0
H2247 H 0.66743 0.09216 0.71606 0.0
H2248 H 0.65305 0.64629 0.00442 0.0
H2249 H 0.68921 0.65051 -0.00548 0.0
H2250 H 0.71524 0.59317 0.01311 0.0
H2251 H 0.67915 0.58865 0.02292 0.0
H2252 H 0.73267 0.65724 0.00134 0.0
H2253 H 0.74508 0.56115 -0.00541 0.0
H2254 H 0.72183 0.52695 -0.00766 0.0
H2255 H 0.66725 0.56694 0.97931 0.0
H2256 H 0.69027 0.60131 0.98133 0.0
H2257 H 0.84513 0.63352 0.9849 0.0
H2258 H 0.80808 0.6363 -0.00607 0.0
H2259 H 0.77718 0.612 0.96256 0.0
H2260 H 0.81432 0.60804 0.95374 0.0
H2261 H 0.75998 0.59105 0.97924 0.0
H2262 H 0.77391 0.66919 0.97224 0.0
H2263 H 0.79519 0.70488 0.9728 0.0
H2264 H 0.79374 0.70393 0.00986 0.0
H2265 H 0.7727 0.66809 0.00952 0.0
C2266 C 0.66655 0.6347 0.00647 0.0
C2267 C 0.66321 0.61698 0.01434 0.0
C2268 C 0.68719 0.6372 0.00084 0.0
C2269 C 0.70473 0.62197 0.00298 0.0
C2270 C 0.70176 0.60489 0.01122 0.0
C2271 C 0.68115 0.60236 0.01683 0.0
C2272 C 0.72575 0.62309 -0.00382 0.0
C2273 C 0.73871 0.64283 -0.00352 0.0
C2274 C 0.7332 0.60446 0.98961 0.0
C2275 C 0.71934 0.58382 0.98822 0.0
C2276 C 0.72815 0.56262 0.9912 0.0
C2277 C 0.71501 0.54321 0.98997 0.0
C2278 C 0.69305 0.54478 0.98572 0.0
C2279 C 0.68423 0.56576 0.98265 0.0
C2280 C 0.6973 0.58521 0.98384 0.0
C2281 C 0.83039 0.62895 0.97991 0.0
C2282 C 0.83253 0.62049 0.96865 0.0
C2283 C 0.8092 0.6307 0.98505 0.0
C2284 C 0.78976 0.62464 0.97888 0.0
C2285 C 0.79192 0.61672 0.96751 0.0
C2286 C 0.81312 0.61449 0.96247 0.0
C2287 C 0.76734 0.62515 0.9845 0.0
C2288 C 0.75404 0.60561 0.98402 0.0
C2289 C 0.75934 0.64422 0.99062 0.0
C2290 C 0.77187 0.66586 0.99085 0.0
C2291 C 0.77825 0.67652 0.98051 0.0
C2292 C 0.79026 0.69679 0.98079 0.0
C2293 C 0.79586 0.70664 0.99136 0.0
C2294 C 0.78941 0.69627 0.00168 0.0
C2295 C 0.77742 0.676 0.00145 0.0
H2296 H 0.80515 0.72233 0.99156 0.0
H2297 H 0.6829 0.52974 0.98479 0.0
H2298 H 0.15664 0.9152 0.76762 0.0
H2299 H 0.1535 0.95223 0.75874 0.0
H2300 H 0.08105 0.94643 0.75896 0.0
H2301 H 0.08421 0.90867 0.76739 0.0
H2302 H 0.09336 0.96241 0.73939 0.0
H2303 H 0.11059 0.98241 0.77804 0.0
H2304 H 0.13077 0.98154 0.79663 0.0
H2305 H 0.1913 0.00371 0.77985 0.0
H2306 H 0.17159 0.00442 0.76112 0.0
H2307 H 0.08799 0.08064 0.72368 0.0
H2308 H 0.08369 0.04537 0.73451 0.0
H2309 H 0.15434 0.03138 0.72994 0.0
H2310 H 0.15876 0.06632 0.71901 0.0
H2311 H 0.13799 0.02772 0.75325 0.0
H2312 H 0.11938 0.00373 0.7142 0.0
H2313 H 0.09749 0.00549 0.69614 0.0
H2314 H 0.03662 0.99249 0.715 0.0
H2315 H 0.05813 0.99096 0.7332 0.0
C2316 C 0.14003 0.92187 0.76587 0.0
C2317 C 0.12066 0.90911 0.76823 0.0
C2318 C 0.13823 0.94314 0.76085 0.0
C2319 C 0.11701 0.95238 0.7584 0.0
C2320 C 0.0976 0.9397 0.76083 0.0
C2321 C 0.09941 0.91818 0.76566 0.0
C2322 C 0.11534 0.97481 0.7528 0.0
C2323 C 0.10275 0.97681 0.74258 0.0
C2324 C 0.12768 0.99363 0.75689 0.0
C2325 C 0.13962 0.99333 0.76815 0.0
C2326 C 0.12825 0.98697 0.77829 0.0
C2327 C 0.1396 0.98652 0.78886 0.0
C2328 C 0.16231 0.99253 0.78942 0.0
C2329 C 0.17371 -0.00094 0.77941 0.0
C2330 C 0.16244 -0.00048 0.76881 0.0
C2331 C 0.10256 0.06996 0.72493 0.0
C2332 C 0.12371 0.0762 0.7205 0.0
C2333 C 0.10007 0.04986 0.7311 0.0
C2334 C 0.11872 0.03589 0.73301 0.0
C2335 C 0.13979 0.04203 0.72856 0.0
C2336 C 0.14224 0.06193 0.72228 0.0
C2337 C 0.11655 0.01495 0.7398 0.0
C2338 C 0.12837 0.01334 0.75023 0.0
C2339 C 0.1032 -0.00333 0.73602 0.0
C2340 C 0.09032 -0.00249 0.72507 0.0
C2341 C 0.1013 0.00146 0.71451 0.0
C2342 C 0.08897 0.00237 0.70424 0.0
C2343 C 0.06567 -0.00082 0.70442 0.0
C2344 C 0.05466 0.995 0.71487 0.0
C2345 C 0.06691 0.9941 0.72516 0.0
H2346 H 0.05615 -0.00012 0.69646 0.0
H2347 H 0.17107 0.99217 0.79761 0.0
H2348 H 0.81544 0.40807 0.51933 0.0
H2349 H 0.77908 0.40333 0.50997 0.0
H2350 H 0.79586 0.33447 0.50161 0.0
H2351 H 0.8328 0.33939 0.51068 0.0
H2352 H 0.77784 0.35366 0.48368 0.0
H2353 H 0.75665 0.34712 0.52285 0.0
H2354 H 0.75492 0.35657 0.54355 0.0
H2355 H 0.72299 0.41953 0.5355 0.0
H2356 H 0.72483 0.41062 0.51473 0.0
H2357 H 0.65933 0.34099 0.46741 0.0
H2358 H 0.6948 0.33547 0.47794 0.0
H2359 H 0.70378 0.40746 0.47998 0.0
H2360 H 0.6688 0.41314 0.46925 0.0
H2361 H 0.70699 0.37965 0.50204 0.0
H2362 H 0.73396 0.38584 0.46222 0.0
H2363 H 0.735 0.37395 0.44183 0.0
H2364 H 0.75469 0.30729 0.45211 0.0
H2365 H 0.75344 0.31873 0.47259 0.0
C2366 C 0.81136 0.39185 0.51558 0.0
C2367 C 0.82694 0.37408 0.51576 0.0
C2368 C 0.79049 0.38911 0.51029 0.0
C2369 C 0.78456 0.36841 0.50527 0.0
C2370 C 0.80005 0.35056 0.50547 0.0
C2371 C 0.8211 0.35338 0.51067 0.0
C2372 C 0.76257 0.36598 0.49936 0.0
C2373 C 0.76229 0.35888 0.4878 0.0
C2374 C 0.74223 0.37278 0.50471 0.0
C2375 C 0.74101 0.37825 0.51721 0.0
C2376 C 0.7494 0.36306 0.52548 0.0
C2377 C 0.74838 0.36831 0.53723 0.0
C2378 C 0.73888 0.38865 0.54084 0.0
C2379 C 0.73035 0.40377 0.5327 0.0
C2380 C 0.73134 0.39862 0.52093 0.0
C2381 C 0.66898 0.3556 0.47004 0.0
C2382 C 0.66139 0.37749 0.46751 0.0
C2383 C 0.68915 0.35242 0.47603 0.0
C2384 C 0.70171 0.37108 0.47972 0.0
C2385 C 0.69419 0.3929 0.4772 0.0
C2386 C 0.67431 0.39609 0.47103 0.0
C2387 C 0.72261 0.36808 0.48637 0.0
C2388 C 0.72256 0.37408 0.49807 0.0
C2389 C 0.74251 0.35986 0.48123 0.0
C2390 C 0.7433 0.35305 0.46893 0.0
C2391 C 0.73827 0.36858 0.46014 0.0
C2392 C 0.73895 0.36194 0.44856 0.0
C2393 C 0.74483 0.33985 0.44567 0.0
C2394 C 0.75009 0.32438 0.45436 0.0
C2395 C 0.74941 0.33093 0.46595 0.0
H2396 H 0.74536 0.33475 0.43671 0.0
H2397 H 0.73811 0.39269 0.54994 0.0
H2398 H 0.32607 0.06554 0.27041 0.0
H2399 H 0.33161 0.02885 0.26147 0.0
H2400 H 0.40272 0.04245 0.25817 0.0
H2401 H 0.39705 0.07978 0.26672 0.0
H2402 H 0.38842 0.02536 0.23914 0.0
H2403 H 0.38152 0.00339 0.27824 0.0
H2404 H 0.36556 0.00193 0.29788 0.0
H2405 H 0.30445 0.97347 0.28449 0.0
H2406 H 0.3199 0.97506 0.26475 0.0
H2407 H 0.40006 0.90725 0.22247 0.0
H2408 H 0.40412 0.94237 0.23351 0.0
H2409 H 0.33246 0.95308 0.23151 0.0
H2410 H 0.32828 0.91844 0.22032 0.0
H2411 H 0.35349 0.9557 0.25469 0.0
H2412 H 0.36119 0.98295 0.21508 0.0
H2413 H 0.37921 0.9837 0.1959 0.0
H2414 H 0.44251 0.00075 0.21151 0.0
H2415 H 0.4249 -0.00022 0.23081 0.0
C2416 C 0.34293 0.06065 0.26788 0.0
C2417 C 0.36114 0.07549 0.26928 0.0
C2418 C 0.34611 0.03959 0.26283 0.0
C2419 C 0.36766 0.03268 0.25933 0.0
C2420 C 0.38596 0.04738 0.26084 0.0
C2421 C 0.38271 0.06866 0.26574 0.0
C2422 C 0.37066 0.01059 0.25354 0.0
C2423 C 0.38121 0.01005 0.24269 0.0
C2424 C 0.36123 0.99055 0.25812 0.0
C2425 C 0.35184 0.98947 0.26999 0.0
C2426 C 0.36462 -0.00304 0.27947 0.0
C2427 C 0.35567 -0.00391 0.29063 0.0
C2428 C 0.33399 0.98764 0.29243 0.0
C2429 C 0.32124 0.98001 0.28308 0.0
C2430 C 0.3301 0.98086 0.27191 0.0
C2431 C 0.38522 0.91721 0.22432 0.0
C2432 C 0.36385 0.91016 0.22054 0.0
C2433 C 0.38758 0.93719 0.23061 0.0
C2434 C 0.36857 0.95014 0.23331 0.0
C2435 C 0.34728 0.94319 0.22951 0.0
C2436 C 0.34496 0.92349 0.22307 0.0
C2437 C 0.37057 0.97084 0.24026 0.0
C2438 C 0.36102 0.97102 0.25132 0.0
C2439 C 0.38128 0.99038 0.23598 0.0
C2440 C 0.3918 0.99099 0.22439 0.0
C2441 C 0.379 0.98662 0.21443 0.0
C2442 C 0.38912 0.98714 0.20354 0.0
C2443 C 0.41201 0.99219 0.20249 0.0
C2444 C 0.4248 -0.00321 0.21234 0.0
C2445 C 0.41476 -0.00373 0.22325 0.0
H2446 H 0.41982 0.99259 0.19405 0.0
H2447 H 0.3271 0.98699 0.30107 0.0
H2448 H 0.81286 0.87498 0.45407 0.0
H2449 H 0.77588 0.86794 0.46265 0.0
H2450 H 0.80674 0.86217 0.4963 0.0
H2451 H 0.84378 0.86752 0.48757 0.0
H2452 H 0.77522 0.8342 0.49571 0.0
H2453 H 0.77964 0.91252 0.48548 0.0
H2454 H 0.78528 0.9452 0.47263 0.0
H2455 H 0.73033 0.92323 0.45134 0.0
H2456 H 0.72454 0.89026 0.46399 0.0
H2457 H 0.68117 0.87987 0.52857 0.0
H2458 H 0.71723 0.87527 0.51854 0.0
H2459 H 0.68296 0.8454 0.48953 0.0
H2460 H 0.6469 0.84928 0.49962 0.0
H2461 H 0.71426 0.88866 0.48694 0.0
H2462 H 0.70942 0.81101 0.49998 0.0
H2463 H 0.70442 0.78168 0.51484 0.0
H2464 H 0.76155 0.80726 0.53339 0.0
H2465 H 0.76667 0.83698 0.51872 0.0
C2466 C 0.81167 0.87198 0.46327 0.0
C2467 C 0.83103 0.87193 0.4702 0.0
C2468 C 0.79056 0.8681 0.46819 0.0
C2469 C 0.78839 0.8651 0.48019 0.0
C2470 C 0.8079 0.86446 0.48703 0.0
C2471 C 0.82905 0.8676 0.48206 0.0
C2472 C 0.76587 0.86343 0.48569 0.0
C2473 C 0.76199 0.84623 0.49381 0.0
C2474 C 0.74841 0.87898 0.48321 0.0
C2475 C 0.75183 0.8988 0.4756 0.0
C2476 C 0.76886 0.91459 0.47801 0.0
C2477 C 0.77207 0.93317 0.47077 0.0
C2478 C 0.75821 0.93625 0.46116 0.0
C2479 C 0.74108 0.9208 0.45878 0.0
C2480 C 0.73782 0.90217 0.46598 0.0
C2481 C 0.68138 0.87202 0.52013 0.0
C2482 C 0.6613 0.86496 0.51485 0.0
C2483 C 0.70193 0.86936 0.51445 0.0
C2484 C 0.70259 0.85996 0.50335 0.0
C2485 C 0.68266 0.85256 0.49813 0.0
C2486 C 0.66216 0.85476 0.5039 0.0
C2487 C 0.72391 0.85963 0.49688 0.0
C2488 C 0.72751 0.87654 0.48866 0.0
C2489 C 0.74127 0.84429 0.49952 0.0
C2490 C 0.73827 0.82637 0.50831 0.0
C2491 C 0.72076 0.81053 0.50729 0.0
C2492 C 0.71795 0.7938 0.51566 0.0
C2493 C 0.73262 0.79264 0.52507 0.0
C2494 C 0.75018 0.80819 0.5261 0.0
C2495 C 0.75306 0.82497 0.51776 0.0
H2496 H 0.73041 0.77967 0.53154 0.0
H2497 H 0.76072 0.95065 0.45556 0.0
H2498 H 0.36783 0.56457 0.70515 0.0
H2499 H 0.37201 0.52789 0.71452 0.0
H2500 H 0.37586 0.5607 0.74776 0.0
H2501 H 0.37331 0.59743 0.73829 0.0
H2502 H 0.4022 0.52753 0.74838 0.0
H2503 H 0.32551 0.53542 0.73628 0.0
H2504 H 0.29429 0.54222 0.72269 0.0
H2505 H 0.31483 0.4852 0.70246 0.0
H2506 H 0.34635 0.47823 0.71586 0.0
H2507 H 0.35132 0.43367 0.78007 0.0
H2508 H 0.3574 0.47007 0.7705 0.0
H2509 H 0.38827 0.4362 0.74164 0.0
H2510 H 0.38289 0.39983 0.75127 0.0
H2511 H 0.34601 0.46861 0.73868 0.0
H2512 H 0.42256 0.46114 0.75306 0.0
H2513 H 0.45062 0.45515 0.76843 0.0
H2514 H 0.42556 0.51291 0.78666 0.0
H2515 H 0.3971 0.51904 0.77147 0.0
C2516 C 0.36979 0.56388 0.71445 0.0
C2517 C 0.37008 0.58372 0.72103 0.0
C2518 C 0.37203 0.54294 0.71981 0.0
C2519 C 0.37362 0.54144 0.7319 0.0
C2520 C 0.37459 0.56136 0.73843 0.0
C2521 C 0.37306 0.58234 0.73303 0.0
C2522 C 0.37352 0.51917 0.73776 0.0
C2523 C 0.38977 0.51477 0.74629 0.0
C2524 C 0.35739 0.50234 0.73505 0.0
C2525 C 0.33842 0.50645 0.727 0.0
C2526 C 0.32345 0.52443 0.72889 0.0
C2527 C 0.30569 0.5283 0.72122 0.0
C2528 C 0.30262 0.51419 0.7117 0.0
C2529 C 0.31726 0.49613 0.70983 0.0
C2530 C 0.33506 0.4922 0.71746 0.0
C2531 C 0.35969 0.43404 0.77177 0.0
C2532 C 0.3666 0.41398 0.76639 0.0
C2533 C 0.3632 0.45478 0.76635 0.0
C2534 C 0.37332 0.45566 0.75542 0.0
C2535 C 0.38055 0.43574 0.75012 0.0
C2536 C 0.37749 0.41505 0.75563 0.0
C2537 C 0.37462 0.4772 0.74915 0.0
C2538 C 0.35849 0.48142 0.74063 0.0
C2539 C 0.3904 0.49402 0.75209 0.0
C2540 C 0.40754 0.49038 0.76119 0.0
C2541 C 0.42287 0.47241 0.76041 0.0
C2542 C 0.43889 0.46903 0.76907 0.0
C2543 C 0.43983 0.4836 0.77854 0.0
C2544 C 0.42479 0.50162 0.77934 0.0
C2545 C 0.40872 0.50506 0.7707 0.0
H2546 H 0.45225 0.48095 0.78523 0.0
H2547 H 0.28886 0.51721 0.70578 0.0
H2548 H 0.80843 0.08795 0.02611 0.0
H2549 H 0.77236 0.09438 0.01658 0.0
H2550 H 0.79676 0.1578 0.0033 0.0
H2551 H 0.83307 0.15134 0.01268 0.0
H2552 H 0.73977 0.12607 0.01701 0.0
H2553 H 0.77793 0.16236 0.97539 0.0
H2554 H 0.81396 0.16254 0.96477 0.0
H2555 H 0.83086 0.09812 0.97925 0.0
H2556 H 0.79482 0.09744 0.98983 0.0
H2557 H 0.64865 0.14903 0.97878 0.0
H2558 H 0.6838 0.15514 0.98937 0.0
H2559 H 0.71286 0.09689 0.97281 0.0
H2560 H 0.67799 0.09081 0.96214 0.0
H2561 H 0.74284 0.13093 0.97425 0.0
H2562 H 0.69004 0.09261 -0.00064 0.0
H2563 H 0.65413 0.0883 0.00982 0.0
H2564 H 0.66668 0.14994 0.02815 0.0
H2565 H 0.70256 0.15475 0.01767 0.0
C2566 C 0.80603 0.10342 0.0213 0.0
C2567 C 0.82366 0.119 0.02001 0.0
C2568 C 0.78538 0.10711 0.0159 0.0
C2569 C 0.78203 0.12642 0.00913 0.0
C2570 C 0.79914 0.14266 0.00838 0.0
C2571 C 0.81985 0.13894 0.01375 0.0
C2572 C 0.76135 0.12845 0.00211 0.0
C2573 C 0.74041 0.12741 0.00767 0.0
C2574 C 0.76225 0.12993 0.98992 0.0
C2575 C 0.78383 0.13001 0.9835 0.0
C2576 C 0.78933 0.14822 0.97628 0.0
C2577 C 0.80974 0.14841 0.97027 0.0
C2578 C 0.82473 0.1304 0.97137 0.0
C2579 C 0.81928 0.11211 0.97845 0.0
C2580 C 0.79888 0.11182 0.98446 0.0
C2581 C 0.66264 0.13769 0.9773 0.0
C2582 C 0.66054 0.11933 0.9697 0.0
C2583 C 0.68265 0.14118 0.98337 0.0
C2584 C 0.7008 0.12633 0.98195 0.0
C2585 C 0.69903 0.10855 0.97402 0.0
C2586 C 0.67907 0.10505 0.96796 0.0
C2587 C 0.72125 0.12835 0.98913 0.0
C2588 C 0.74216 0.13015 0.9836 0.0
C2589 C 0.72033 0.12708 0.00133 0.0
C2590 C 0.69882 0.12417 0.00764 0.0
C2591 C 0.68505 0.10533 0.00556 0.0
C2592 C 0.66472 0.10278 0.0115 0.0
C2593 C 0.65809 0.11888 0.01962 0.0
C2594 C 0.67181 0.13752 0.02184 0.0
C2595 C 0.69215 0.14016 0.01591 0.0
H2596 H 0.64235 0.11687 0.02421 0.0
H2597 H 0.84053 0.13059 0.96672 0.0
H2598 H 0.08509 0.58887 0.25767 0.0
H2599 H 0.07812 0.55311 0.24778 0.0
H2600 H 0.13721 0.5247 0.2638 0.0
H2601 H 0.14408 0.56019 0.27383 0.0
H2602 H 0.10403 0.53355 0.23218 0.0
H2603 H 0.1312 0.46905 0.26747 0.0
H2604 H 0.12879 0.46474 0.28861 0.0
H2605 H 0.07091 0.50798 0.2894 0.0
H2606 H 0.07276 0.51229 0.26825 0.0
H2607 H 0.1492 0.43329 0.20972 0.0
H2608 H 0.14038 0.46831 0.2198 0.0
H2609 H 0.0809 0.43761 0.23431 0.0
H2610 H 0.08977 0.40236 0.22437 0.0
H2611 H 0.1049 0.45806 0.25058 0.0
H2612 H 0.07569 0.47803 0.21388 0.0
H2613 H 0.07536 0.48231 0.19271 0.0
H2614 H 0.13131 0.52799 0.1947 0.0
H2615 H 0.13219 0.52374 0.21587 0.0
C2616 C 0.0964 0.57488 0.25922 0.0
C2617 C 0.11518 0.57733 0.2665 0.0
C2618 C 0.09242 0.55451 0.25354 0.0
C2619 C 0.10705 0.53623 0.25511 0.0
C2620 C 0.12547 0.53847 0.26261 0.0
C2621 C 0.12945 0.55881 0.2683 0.0
C2622 C 0.10417 0.51535 0.24828 0.0
C2623 C 0.10401 0.51704 0.2362 0.0
C2624 C 0.10364 0.49385 0.25355 0.0
C2625 C 0.10222 0.49111 0.26627 0.0
C2626 C 0.11788 0.47754 0.27214 0.0
C2627 C 0.11663 0.47512 0.28414 0.0
C2628 C 0.09974 0.48612 0.29035 0.0
C2629 C 0.08403 0.49952 0.28458 0.0
C2630 C 0.08519 0.50199 0.27259 0.0
C2631 C 0.1341 0.43406 0.21495 0.0
C2632 C 0.12022 0.41507 0.21628 0.0
C2633 C 0.12902 0.45411 0.22066 0.0
C2634 C 0.10989 0.45558 0.22773 0.0
C2635 C 0.09573 0.4368 0.22888 0.0
C2636 C 0.1008 0.41672 0.22317 0.0
C2637 C 0.10561 0.47629 0.2345 0.0
C2638 C 0.10451 0.47457 0.24657 0.0
C2639 C 0.10457 0.49775 0.22922 0.0
C2640 C 0.10408 0.50045 0.21647 0.0
C2641 C 0.08803 0.48887 0.2098 0.0
C2642 C 0.08773 0.49131 0.1978 0.0
C2643 C 0.10333 0.50539 0.19236 0.0
C2644 C 0.11924 0.51709 0.19892 0.0
C2645 C 0.11962 0.51469 0.21093 0.0
H2646 H 0.10307 0.50726 0.18307 0.0
H2647 H 0.09882 0.48424 0.29963 0.0
H2648 H 0.15374 0.14912 0.50456 0.0
H2649 H 0.18932 0.15243 0.49408 0.0
H2650 H 0.21984 0.10463 0.51738 0.0
H2651 H 0.18416 0.10073 0.52768 0.0
H2652 H 0.23164 0.16416 0.49832 0.0
H2653 H 0.25251 0.06902 0.50256 0.0
H2654 H 0.23251 0.03287 0.50503 0.0
H2655 H 0.17346 0.06108 0.48932 0.0
H2656 H 0.1932 0.09727 0.48661 0.0
H2657 H 0.34454 0.1416 0.48209 0.0
H2658 H 0.30791 0.14617 0.49134 0.0
H2659 H 0.2769 0.1071 0.46421 0.0
H2660 H 0.31367 0.10173 0.45518 0.0
H2661 H 0.2632 0.0923 0.4836 0.0
H2662 H 0.26883 0.16555 0.46715 0.0
H2663 H 0.28626 0.20221 0.4626 0.0
H2664 H 0.28803 0.21885 0.49866 0.0
H2665 H 0.27088 0.18215 0.50345 0.0
C2666 C 0.16812 0.13955 0.50755 0.0
C2667 C 0.16612 0.12441 0.51683 0.0
C2668 C 0.18845 0.14151 0.50157 0.0
C2669 C 0.20706 0.12844 0.50481 0.0
C2670 C 0.20551 0.1145 0.51458 0.0
C2671 C 0.18515 0.11234 0.52047 0.0
C2672 C 0.22756 0.12813 0.49755 0.0
C2673 C 0.2386 0.14848 0.4951 0.0
C2674 C 0.23619 0.10772 0.49305 0.0
C2675 C 0.22428 0.08591 0.49449 0.0
C2676 C 0.23529 0.06747 0.49959 0.0
C2677 C 0.22399 0.04698 0.50104 0.0
C2678 C 0.2017 0.0447 0.49737 0.0
C2679 C 0.19069 0.06289 0.49219 0.0
C2680 C 0.20192 0.08339 0.49071 0.0
C2681 C 0.32987 0.13421 0.47803 0.0
C2682 C 0.33194 0.12121 0.46795 0.0
C2683 C 0.30891 0.13695 0.48329 0.0
C2684 C 0.28959 0.12714 0.47843 0.0
C2685 C 0.29158 0.11477 0.46814 0.0
C2686 C 0.31257 0.11173 0.46298 0.0
C2687 C 0.26767 0.12832 0.48451 0.0
C2688 C 0.2563 0.10806 0.48677 0.0
C2689 C 0.25843 0.14889 0.4885 0.0
C2690 C 0.26873 0.171 0.48566 0.0
C2691 C 0.27309 0.17695 0.47412 0.0
C2692 C 0.28289 0.19775 0.4715 0.0
C2693 C 0.28829 0.21283 0.48034 0.0
C2694 C 0.28385 0.20715 0.49182 0.0
C2695 C 0.27406 0.18636 0.4945 0.0
H2696 H 0.29588 0.22893 0.47829 0.0
H2697 H 0.19298 0.02884 0.49851 0.0
H2698 H 0.58586 0.40582 0.26102 0.0
H2699 H 0.58157 0.44256 0.25164 0.0
H2700 H 0.65293 0.45442 0.25525 0.0
H2701 H 0.6571 0.41831 0.26502 0.0
H2702 H 0.63191 0.4909 0.26013 0.0
H2703 H 0.62715 0.43665 0.22919 0.0
H2704 H 0.61176 0.40371 0.21887 0.0
H2705 H 0.54712 0.43581 0.21694 0.0
H2706 H 0.56208 0.46883 0.22738 0.0
H2707 H 0.65753 0.56713 0.21547 0.0
H2708 H 0.65245 0.53135 0.22558 0.0
H2709 H 0.58148 0.54476 0.22908 0.0
H2710 H 0.58645 0.58099 0.21914 0.0
H2711 H 0.59694 0.49736 0.22136 0.0
H2712 H 0.60496 0.55368 0.25119 0.0
H2713 H 0.62311 0.58644 0.26041 0.0
H2714 H 0.68496 0.54948 0.26329 0.0
H2715 H 0.66725 0.51661 0.25392 0.0
C2716 C 0.60058 0.41635 0.25984 0.0
C2717 C 0.62182 0.40922 0.26372 0.0
C2718 C 0.59814 0.43727 0.25443 0.0
C2719 C 0.61699 0.45114 0.25259 0.0
C2720 C 0.63813 0.44407 0.25659 0.0
C2721 C 0.64051 0.42338 0.26216 0.0
C2722 C 0.61498 0.47298 0.24645 0.0
C2723 C 0.62434 0.49221 0.25164 0.0
C2724 C 0.60466 0.4749 0.23546 0.0
C2725 C 0.59566 0.45508 0.22918 0.0
C2726 C 0.60961 0.4366 0.22664 0.0
C2727 C 0.60097 0.41793 0.22076 0.0
C2728 C 0.57845 0.41764 0.21728 0.0
C2729 C 0.56454 0.43604 0.21966 0.0
C2730 C 0.57309 0.45474 0.22555 0.0
C2731 C 0.64079 0.56239 0.21827 0.0
C2732 C 0.62239 0.57687 0.21657 0.0
C2733 C 0.63794 0.54199 0.22405 0.0
C2734 C 0.61664 0.5356 0.22809 0.0
C2735 C 0.59803 0.54952 0.226 0.0
C2736 C 0.60092 0.57016 0.22037 0.0
C2737 C 0.61429 0.51485 0.23498 0.0
C2738 C 0.60415 0.49595 0.22994 0.0
C2739 C 0.6242 0.5131 0.24602 0.0
C2740 C 0.63483 0.53276 0.25176 0.0
C2741 C 0.62248 0.55261 0.2537 0.0
C2742 C 0.63268 0.57118 0.25897 0.0
C2743 C 0.65519 0.57006 0.26241 0.0
C2744 C 0.66753 0.55034 0.26061 0.0
C2745 C 0.65741 0.53172 0.25533 0.0
H2746 H 0.66306 0.58446 0.26649 0.0
H2747 H 0.5718 0.40317 0.21273 0.0
H2748 H 0.18289 0.88907 0.95797 0.0
H2749 H 0.21754 0.88163 0.96881 0.0
H2750 H 0.17881 0.85071 -0.00399 0.0
H2751 H 0.14413 0.85743 0.9851 0.0
H2752 H 0.21616 0.89586 -0.00228 0.0
H2753 H 0.20077 0.815 0.99058 0.0
H2754 H 0.19182 0.78362 0.97739 0.0
H2755 H 0.24993 0.7995 0.95687 0.0
H2756 H 0.25899 0.83121 0.96987 0.0
H2757 H 0.30941 0.87562 0.03334 0.0
H2758 H 0.27214 0.87101 0.02467 0.0
H2759 H 0.3031 0.8532 0.99219 0.0
H2760 H 0.34025 0.85636 0.00105 0.0
H2761 H 0.26737 0.83024 -0.00598 0.0
H2762 H 0.28433 0.9088 -0.00085 0.0
H2763 H 0.29486 0.94307 0.00993 0.0
H2764 H 0.23628 0.93584 0.03134 0.0
H2765 H 0.22555 0.90136 0.02076 0.0
C2766 C 0.1818 0.88041 0.96618 0.0
C2767 C 0.16087 0.87383 0.97071 0.0
C2768 C 0.20155 0.87612 0.97232 0.0
C2769 C 0.20058 0.86545 0.9831 0.0
C2770 C 0.17979 0.85867 0.98761 0.0
C2771 C 0.16006 0.86256 0.98138 0.0
C2772 C 0.22117 0.86326 0.99004 0.0
C2773 C 0.22722 0.88135 -0.00286 0.0
C2774 C 0.23575 0.84469 0.98886 0.0
C2775 C 0.23036 0.82562 0.98109 0.0
C2776 C 0.21146 0.81196 0.98318 0.0
C2777 C 0.20642 0.79408 0.97576 0.0
C2778 C 0.22025 0.78962 0.96627 0.0
C2779 C 0.2392 0.803 0.96421 0.0
C2780 C 0.2443 0.82091 0.9716 0.0
C2781 C 0.30817 0.8704 0.0244 0.0
C2782 C 0.3276 0.86654 0.01781 0.0
C2783 C 0.28691 0.86789 0.01944 0.0
C2784 C 0.2848 0.86235 0.00769 0.0
C2785 C 0.30426 0.85754 0.00126 0.0
C2786 C 0.32548 0.85942 0.00631 0.0
C2787 C 0.26255 0.86287 0.00189 0.0
C2788 C 0.25623 0.84461 -0.00513 0.0
C2789 C 0.24791 0.88163 0.00291 0.0
C2790 C 0.25429 0.90238 0.00926 0.0
C2791 C 0.27378 0.91445 0.0062 0.0
C2792 C 0.27977 0.93391 0.01227 0.0
C2793 C 0.26629 0.94159 0.02133 0.0
C2794 C 0.24674 0.92985 0.02433 0.0
C2795 C 0.24069 0.91036 0.0183 0.0
H2796 H 0.27095 0.95667 0.02602 0.0
H2797 H 0.21633 0.77576 0.96054 0.0
H2798 H 0.90212 0.40011 0.72592 0.0
H2799 H 0.90784 0.43607 0.73586 0.0
H2800 H 0.8486 0.46295 0.71932 0.0
H2801 H 0.84297 0.4273 0.70924 0.0
H2802 H 0.88118 0.49422 0.72049 0.0
H2803 H 0.84562 0.44055 0.7462 0.0
H2804 H 0.84288 0.40468 0.75688 0.0
H2805 H 0.90464 0.41965 0.77455 0.0
H2806 H 0.90788 0.45549 0.76386 0.0
H2807 H 0.83762 0.5576 0.77336 0.0
H2808 H 0.84493 0.52234 0.76323 0.0
H2809 H 0.906 0.55034 0.74902 0.0
H2810 H 0.89858 0.58594 0.759 0.0
H2811 H 0.87775 0.49169 0.76329 0.0
H2812 H 0.91091 0.5307 0.72115 0.0
H2813 H 0.90911 0.56652 0.71035 0.0
H2814 H 0.84467 0.58092 0.72542 0.0
H2815 H 0.84598 0.54507 0.73619 0.0
C2816 C 0.89051 0.4138 0.72428 0.0
C2817 C 0.87196 0.41083 0.71689 0.0
C2818 C 0.89378 0.43429 0.72998 0.0
C2819 C 0.87848 0.45204 0.72843 0.0
C2820 C 0.8606 0.44945 0.72063 0.0
C2821 C 0.85735 0.42903 0.71492 0.0
C2822 C 0.87996 0.47277 0.73548 0.0
C2823 C 0.88071 0.49368 0.72985 0.0
C2824 C 0.87909 0.47203 0.74769 0.0
C2825 C 0.87713 0.45054 0.75414 0.0
C2826 C 0.8587 0.4361 0.7523 0.0
C2827 C 0.85704 0.41579 0.75837 0.0
C2828 C 0.87361 0.40986 0.76637 0.0
C2829 C 0.89184 0.42424 0.76834 0.0
C2830 C 0.8936 0.44455 0.76228 0.0
C2831 C 0.85273 0.55621 0.76817 0.0
C2832 C 0.86741 0.5746 0.76688 0.0
C2833 C 0.85693 0.53601 0.76243 0.0
C2834 C 0.87587 0.53382 0.75528 0.0
C2835 C 0.89113 0.5518 0.75438 0.0
C2836 C 0.88689 0.57209 0.7601 0.0
C2837 C 0.8787 0.51315 0.74829 0.0
C2838 C 0.87878 0.49224 0.75394 0.0
C2839 C 0.8798 0.51389 0.73609 0.0
C2840 C 0.8787 0.53537 0.72958 0.0
C2841 C 0.89635 0.54151 0.72214 0.0
C2842 C 0.89541 0.5618 0.71602 0.0
C2843 C 0.87683 0.57603 0.71723 0.0
C2844 C 0.8591 0.56993 0.72453 0.0
C2845 C 0.85994 0.54964 0.73064 0.0
H2846 H 0.87614 0.59174 0.7125 0.0
H2847 H 0.8723 0.39413 0.77106 0.0
H2848 H 0.06899 0.41074 0.07842 0.0
H2849 H 0.08333 0.40718 0.09805 0.0
H2850 H 0.14509 0.37882 0.08497 0.0
H2851 H 0.13091 0.38233 0.06522 0.0
H2852 H 0.0939 0.36671 0.10794 0.0
H2853 H 0.18735 0.39348 0.10465 0.0
H2854 H 0.21096 0.42012 0.09365 0.0
H2855 H 0.15395 0.46344 0.08863 0.0
H2856 H 0.13008 0.43723 0.09973 0.0
H2857 H 0.15848 0.32099 0.15284 0.0
H2858 H 0.15109 0.33479 0.13334 0.0
H2859 H 0.13804 0.40123 0.14681 0.0
H2860 H 0.14508 0.38754 0.16644 0.0
H2861 H 0.16463 0.3977 0.12436 0.0
H2862 H 0.09514 0.3756 0.14336 0.0
H2863 H 0.07144 0.34939 0.15458 0.0
H2864 H 0.07905 0.29902 0.12825 0.0
H2865 H 0.10311 0.32484 0.11697 0.0
C2866 C 0.08574 0.40399 0.07967 0.0
C2867 C 0.09874 0.39661 0.07025 0.0
C2868 C 0.09389 0.40199 0.0909 0.0
C2869 C 0.11523 0.39278 0.09292 0.0
C2870 C 0.12864 0.38617 0.08355 0.0
C2871 C 0.12046 0.38807 0.07229 0.0
C2872 C 0.12254 0.38823 0.10487 0.0
C2873 C 0.10931 0.3736 0.11153 0.0
C2874 C 0.14264 0.39724 0.10952 0.0
C2875 C 0.15689 0.41326 0.10293 0.0
C2876 C 0.17987 0.40873 0.10124 0.0
C2877 C 0.1933 0.42375 0.09498 0.0
C2878 C 0.18395 0.44342 0.09041 0.0
C2879 C 0.16116 0.44815 0.09213 0.0
C2880 C 0.14766 0.4332 0.09838 0.0
C2881 C 0.15442 0.33863 0.15166 0.0
C2882 C 0.1521 0.35313 0.16118 0.0
C2883 C 0.15027 0.34647 0.14052 0.0
C2884 C 0.144 0.36895 0.13873 0.0
C2885 C 0.14297 0.38383 0.1481 0.0
C2886 C 0.14682 0.37594 0.15928 0.0
C2887 C 0.13606 0.37611 0.12727 0.0
C2888 C 0.14918 0.39101 0.12072 0.0
C2889 C 0.11577 0.3675 0.12269 0.0
C2890 C 0.1011 0.35206 0.12939 0.0
C2891 C 0.09192 0.35886 0.14002 0.0
C2892 C 0.07839 0.3441 0.14638 0.0
C2893 C 0.07379 0.32253 0.14215 0.0
C2894 C 0.08265 0.31572 0.13153 0.0
C2895 C 0.09622 0.33041 0.12515 0.0
H2896 H 0.06332 0.31112 0.14708 0.0
H2897 H 0.19437 0.45503 0.08556 0.0
H2898 H 0.85996 0.88401 0.42083 0.0
H2899 H 0.8457 0.87503 0.40154 0.0
H2900 H 0.90839 0.89716 0.38656 0.0
H2901 H 0.92279 0.90627 0.40573 0.0
H2902 H 0.84131 0.90086 0.38041 0.0
H2903 H 0.92298 0.85541 0.3674 0.0
H2904 H 0.9549 0.83581 0.3766 0.0
H2905 H 0.91272 0.81727 0.40518 0.0
H2906 H 0.88049 0.83646 0.39607 0.0
H2907 H 0.85125 0.87731 0.31978 0.0
H2908 H 0.85678 0.88961 0.33975 0.0
H2909 H 0.84237 0.82233 0.35177 0.0
H2910 H 0.83671 0.80987 0.3319 0.0
H2911 H 0.88248 0.83979 0.36013 0.0
H2912 H 0.80501 0.86114 0.35661 0.0
H2913 H 0.77241 0.87998 0.34767 0.0
H2914 H 0.80396 0.94439 0.35258 0.0
H2915 H 0.83691 0.92591 0.36141 0.0
C2916 C 0.87062 0.88721 0.41342 0.0
C2917 C 0.8926 0.89562 0.41481 0.0
C2918 C 0.86239 0.8822 0.40242 0.0
C2919 C 0.8761 0.8853 0.39271 0.0
C2920 C 0.89765 0.89457 0.39401 0.0
C2921 C 0.90583 0.89974 0.40497 0.0
C2922 C 0.86869 0.87717 0.38131 0.0
C2923 C 0.85025 0.88752 0.37595 0.0
C2924 C 0.88025 0.85955 0.37564 0.0
C2925 C 0.8994 0.84757 0.3811 0.0
C2926 C 0.92051 0.84707 0.37562 0.0
C2927 C 0.93865 0.83604 0.38082 0.0
C2928 C 0.93586 0.82537 0.39149 0.0
C2929 C 0.91489 0.82562 0.39694 0.0
C2930 C 0.89668 0.83659 0.39177 0.0
C2931 C 0.84905 0.86518 0.32668 0.0
C2932 C 0.84367 0.84258 0.32426 0.0
C2933 C 0.8521 0.87227 0.33807 0.0
C2934 C 0.84991 0.85685 0.34717 0.0
C2935 C 0.8441 0.83444 0.34482 0.0
C2936 C 0.84085 0.82738 0.33347 0.0
C2937 C 0.85526 0.86368 0.3591 0.0
C2938 C 0.87344 0.8531 0.36457 0.0
C2939 C 0.84333 0.88094 0.36486 0.0
C2940 C 0.82352 0.89211 0.35958 0.0
C2941 C 0.80509 0.87931 0.35569 0.0
C2942 C 0.78653 0.88992 0.35067 0.0
C2943 C 0.78614 0.91336 0.34953 0.0
C2944 C 0.80429 0.92624 0.35346 0.0
C2945 C 0.82291 0.9157 0.35848 0.0
H2946 H 0.77175 0.92155 0.34564 0.0
H2947 H 0.94993 0.81687 0.39551 0.0
H2948 H 0.37617 0.61471 0.6702 0.0
H2949 H 0.38286 0.59752 0.65131 0.0
H2950 H 0.33378 0.64193 0.63601 0.0
H2951 H 0.32708 0.65936 0.65482 0.0
H2952 H 0.33156 0.59637 0.62795 0.0
H2953 H 0.38486 0.65685 0.63377 0.0
H2954 H 0.41454 0.67752 0.64423 0.0
H2955 H 0.45764 0.61958 0.64248 0.0
H2956 H 0.42804 0.59843 0.63214 0.0
H2957 H 0.36269 0.60597 0.56913 0.0
H2958 H 0.35173 0.61006 0.58932 0.0
H2959 H 0.40892 0.57019 0.59974 0.0
H2960 H 0.42026 0.56631 0.57959 0.0
H2961 H 0.40743 0.60878 0.61118 0.0
H2962 H 0.35534 0.54994 0.60278 0.0
H2963 H 0.32559 0.53017 0.59193 0.0
H2964 H 0.28008 0.585 0.59816 0.0
H2965 H 0.30966 0.60526 0.60891 0.0
C2966 C 0.36662 0.62065 0.66284 0.0
C2967 C 0.35127 0.63853 0.66396 0.0
C2968 C 0.37046 0.61081 0.65208 0.0
C2969 C 0.35885 0.61858 0.64232 0.0
C2970 C 0.34282 0.63572 0.64349 0.0
C2971 C 0.33916 0.64575 0.65421 0.0
C2972 C 0.36465 0.61011 0.63074 0.0
C2973 C 0.34809 0.5991 0.62422 0.0
C2974 C 0.38638 0.61335 0.62606 0.0
C2975 C 0.40414 0.62597 0.63232 0.0
C2976 C 0.40058 0.64844 0.63572 0.0
C2977 C 0.41739 0.66025 0.64161 0.0
C2978 C 0.43793 0.64984 0.64404 0.0
C2979 C 0.4417 0.6276 0.6406 0.0
C2980 C 0.42491 0.61569 0.63473 0.0
C2981 C 0.37278 0.59779 0.57569 0.0
C2982 C 0.39247 0.58599 0.57276 0.0
C2983 C 0.36639 0.60002 0.58723 0.0
C2984 C 0.37944 0.5903 0.59601 0.0
C2985 C 0.39863 0.57781 0.59308 0.0
C2986 C 0.40508 0.57564 0.58156 0.0
C2987 C 0.3743 0.59505 0.60825 0.0
C2988 C 0.391 0.60555 0.61492 0.0
C2989 C 0.35268 0.59135 0.61302 0.0
C2990 C 0.3348 0.5792 0.60658 0.0
C2991 C 0.33905 0.55787 0.60176 0.0
C2992 C 0.3222 0.54655 0.59565 0.0
C2993 C 0.30098 0.55634 0.59434 0.0
C2994 C 0.29654 0.57744 0.59918 0.0
C2995 C 0.31333 0.58884 0.6053 0.0
H2996 H 0.28795 0.54755 0.5896 0.0
H2997 H 0.45094 0.65906 0.64855 0.0
H2998 H 0.66132 0.16684 0.83169 0.0
H2999 H 0.65827 0.14925 0.85065 0.0
H3000 H 0.62721 0.09079 0.83526 0.0
H3001 H 0.62994 0.10834 0.81623 0.0
H3002 H 0.60254 0.10797 0.85262 0.0
H3003 H 0.67939 0.08694 0.84704 0.0
H3004 H 0.71936 0.09296 0.84222 0.0
H3005 H 0.72567 0.13967 0.87034 0.0
H3006 H 0.68564 0.13419 0.87523 0.0
H3007 H 0.58753 0.05882 0.90692 0.0
H3008 H 0.60209 0.06292 0.88732 0.0
H3009 H 0.63894 0.12226 0.8977 0.0
H3010 H 0.62513 0.11773 0.91745 0.0
H3011 H 0.66238 0.09932 0.88216 0.0
H3012 H 0.5859 0.12589 0.88568 0.0
H3013 H 0.54556 0.1227 0.89046 0.0
H3014 H 0.53843 0.06868 0.86606 0.0
H3015 H 0.57882 0.07138 0.86125 0.0
C3016 C 0.6541 0.15011 0.8323 0.0
C3017 C 0.64566 0.13908 0.82246 0.0
C3018 C 0.65256 0.14001 0.84313 0.0
C3019 C 0.64269 0.11865 0.84432 0.0
C3020 C 0.63496 0.10726 0.83449 0.0
C3021 C 0.6365 0.11734 0.82363 0.0
C3022 C 0.63818 0.10945 0.85595 0.0
C3023 C 0.61569 0.10553 0.859 0.0
C3024 C 0.65531 0.107 0.86433 0.0
C3025 C 0.67944 0.11025 0.86146 0.0
C3026 C 0.68925 0.09862 0.85215 0.0
C3027 C 0.71193 0.10192 0.84941 0.0
C3028 C 0.72503 0.11672 0.85596 0.0
C3029 C 0.71549 0.12822 0.86527 0.0
C3030 C 0.69281 0.12499 0.86804 0.0
C3031 C 0.59898 0.07255 0.90506 0.0
C3032 C 0.60493 0.08817 0.91365 0.0
C3033 C 0.60728 0.07487 0.89386 0.0
C3034 C 0.62117 0.09318 0.89101 0.0
C3035 C 0.62818 0.10804 0.89972 0.0
C3036 C 0.6202 0.1055 0.91098 0.0
C3037 C 0.62674 0.09805 0.87881 0.0
C3038 C 0.64933 0.1013 0.87569 0.0
C3039 C 0.60969 0.10024 0.87035 0.0
C3040 C 0.58541 0.09866 0.8732 0.0
C3041 C 0.57575 0.11323 0.8814 0.0
C3042 C 0.55288 0.11152 0.8841 0.0
C3043 C 0.53946 0.09545 0.8786 0.0
C3044 C 0.54886 0.08109 0.87034 0.0
C3045 C 0.57173 0.0827 0.86762 0.0
H3046 H 0.52176 0.09415 0.8807 0.0
H3047 H 0.74259 0.11925 0.85382 0.0
H3048 H 0.1588 0.67283 0.32882 0.0
H3049 H 0.15416 0.65997 0.34868 0.0
H3050 H 0.12502 0.59779 0.33648 0.0
H3051 H 0.12967 0.61043 0.31652 0.0
H3052 H 0.11383 0.65063 0.35877 0.0
H3053 H 0.13806 0.55637 0.35657 0.0
H3054 H 0.16395 0.53158 0.34582 0.0
H3055 H 0.20885 0.58725 0.34018 0.0
H3056 H 0.18339 0.61229 0.35103 0.0
H3057 H 0.06592 0.58889 0.404 0.0
H3058 H 0.08033 0.59519 0.38453 0.0
H3059 H 0.14673 0.60701 0.39826 0.0
H3060 H 0.13246 0.60099 0.41787 0.0
H3061 H 0.14292 0.5798 0.37602 0.0
H3062 H 0.12216 0.65059 0.39428 0.0
H3063 H 0.09608 0.67476 0.40528 0.0
H3064 H 0.04602 0.667 0.37884 0.0
H3065 H 0.07171 0.64248 0.36777 0.0
C3066 C 0.15161 0.65631 0.33033 0.0
C3067 C 0.14445 0.64271 0.32109 0.0
C3068 C 0.14898 0.64902 0.34168 0.0
C3069 C 0.13934 0.62794 0.34401 0.0
C3070 C 0.13274 0.61402 0.33483 0.0
C3071 C 0.13529 0.62133 0.32345 0.0
C3072 C 0.13461 0.62133 0.35605 0.0
C3073 C 0.12033 0.63522 0.36254 0.0
C3074 C 0.1431 0.60121 0.36094 0.0
C3075 C 0.1587 0.58624 0.35453 0.0
C3076 C 0.15351 0.5633 0.35308 0.0
C3077 C 0.1681 0.5492 0.34696 0.0
C3078 C 0.188 0.55785 0.34229 0.0
C3079 C 0.19338 0.58059 0.34376 0.0
C3080 C 0.17886 0.59475 0.34988 0.0
C3081 C 0.08368 0.59245 0.4029 0.0
C3082 C 0.09801 0.59473 0.41248 0.0
C3083 C 0.09186 0.59597 0.39177 0.0
C3084 C 0.11451 0.60161 0.39005 0.0
C3085 C 0.1292 0.60257 0.39949 0.0
C3086 C 0.12098 0.59931 0.41066 0.0
C3087 C 0.12207 0.60902 0.37857 0.0
C3088 C 0.13667 0.59528 0.37221 0.0
C3089 C 0.11401 0.62934 0.37376 0.0
C3090 C 0.09877 0.64454 0.38026 0.0
C3091 C 0.10554 0.65392 0.39085 0.0
C3092 C 0.09084 0.6677 0.39709 0.0
C3093 C 0.06938 0.67235 0.39278 0.0
C3094 C 0.06263 0.66335 0.38218 0.0
C3095 C 0.07726 0.64953 0.37591 0.0
H3096 H 0.05799 0.68293 0.39764 0.0
H3097 H 0.19926 0.54691 0.33754 0.0
H3098 H 0.6351 0.88516 0.66781 0.0
H3099 H 0.62959 0.89935 0.64823 0.0
H3100 H 0.66573 0.84229 0.63456 0.0
H3101 H 0.67147 0.82795 0.65411 0.0
H3102 H 0.67446 0.88304 0.6226 0.0
H3103 H 0.61139 0.83844 0.63617 0.0
H3104 H 0.58123 0.82862 0.64992 0.0
H3105 H 0.55177 0.8941 0.64544 0.0
H3106 H 0.58198 0.90441 0.63179 0.0
H3107 H 0.62781 0.86922 0.56659 0.0
H3108 H 0.64272 0.86646 0.58618 0.0
H3109 H 0.59658 0.91816 0.59741 0.0
H3110 H 0.58111 0.92049 0.57794 0.0
H3111 H 0.59403 0.88384 0.61107 0.0
H3112 H 0.65466 0.9272 0.59564 0.0
H3113 H 0.68482 0.93709 0.58192 0.0
H3114 H 0.71894 0.87515 0.58965 0.0
H3115 H 0.68881 0.86472 0.6033 0.0
C3116 C 0.64222 0.87579 0.66067 0.0
C3117 C 0.65341 0.85522 0.6625 0.0
C3118 C 0.63908 0.88396 0.6495 0.0
C3119 C 0.64704 0.87169 0.63999 0.0
C3120 C 0.65948 0.85196 0.64181 0.0
C3121 C 0.66259 0.84373 0.65298 0.0
C3122 C 0.64027 0.87801 0.62817 0.0
C3123 C 0.65692 0.88316 0.62001 0.0
C3124 C 0.61734 0.87854 0.62495 0.0
C3125 C 0.59907 0.87228 0.63307 0.0
C3126 C 0.59858 0.8508 0.63819 0.0
C3127 C 0.58146 0.84514 0.64596 0.0
C3128 C 0.56463 0.86075 0.64858 0.0
C3129 C 0.56485 0.88204 0.64342 0.0
C3130 C 0.58195 0.8878 0.63567 0.0
C3131 C 0.62103 0.88019 0.5732 0.0
C3132 C 0.60315 0.89492 0.57076 0.0
C3133 C 0.62968 0.87872 0.58438 0.0
C3134 C 0.62089 0.89225 0.59324 0.0
C3135 C 0.60359 0.90754 0.59071 0.0
C3136 C 0.59474 0.90882 0.57958 0.0
C3137 C 0.6282 0.88898 0.60534 0.0
C3138 C 0.61161 0.88418 0.61361 0.0
C3139 C 0.65117 0.88887 0.60862 0.0
C3140 C 0.66936 0.8951 0.60043 0.0
C3141 C 0.6685 0.9156 0.59435 0.0
C3142 C 0.68561 0.92132 0.5866 0.0
C3143 C 0.70376 0.90674 0.5849 0.0
C3144 C 0.70486 0.88642 0.59097 0.0
C3145 C 0.68779 0.88061 0.59873 0.0
H3146 H 0.71699 0.9112 0.57889 0.0
H3147 H 0.5514 0.85633 0.6546 0.0
H3148 H 0.35129 0.38356 0.81661 0.0
H3149 H 0.35901 0.396 0.83636 0.0
H3150 H 0.33306 0.33317 0.84952 0.0
H3151 H 0.32518 0.32056 0.82988 0.0
H3152 H 0.33238 0.39959 0.85748 0.0
H3153 H 0.37354 0.31482 0.86856 0.0
H3154 H 0.39163 0.28273 0.85869 0.0
H3155 H 0.4131 0.32653 0.83129 0.0
H3156 H 0.39545 0.3589 0.84109 0.0
H3157 H 0.35837 0.38494 0.91799 0.0
H3158 H 0.34454 0.3804 0.89819 0.0
H3159 H 0.41105 0.39426 0.88506 0.0
H3160 H 0.425 0.39902 0.90471 0.0
H3161 H 0.39169 0.35423 0.87674 0.0
H3162 H 0.37374 0.43264 0.88152 0.0
H3163 H 0.35647 0.46539 0.89115 0.0
H3164 H 0.29087 0.43639 0.88647 0.0
H3165 H 0.3078 0.40329 0.87695 0.0
C3166 C 0.3469 0.37252 0.82371 0.0
C3167 C 0.33791 0.35095 0.82167 0.0
C3168 C 0.35118 0.37973 0.83498 0.0
C3169 C 0.34675 0.36539 0.84432 0.0
C3170 C 0.33667 0.34438 0.84237 0.0
C3171 C 0.33223 0.33722 0.83114 0.0
C3172 C 0.35484 0.37128 0.85595 0.0
C3173 C 0.34529 0.3897 0.86174 0.0
C3174 C 0.37188 0.35846 0.86136 0.0
C3175 C 0.38296 0.33921 0.8555 0.0
C3176 C 0.3822 0.3176 0.86045 0.0
C3177 C 0.39237 0.29937 0.85487 0.0
C3178 C 0.40343 0.30258 0.84435 0.0
C3179 C 0.40445 0.32405 0.83942 0.0
C3180 C 0.39434 0.34233 0.84498 0.0
C3181 C 0.37 0.3872 0.91088 0.0
C3182 C 0.3928 0.39223 0.91291 0.0
C3183 C 0.36205 0.38471 0.8996 0.0
C3184 C 0.37682 0.38705 0.89023 0.0
C3185 C 0.39944 0.39243 0.89222 0.0
C3186 C 0.40735 0.39516 0.90345 0.0
C3187 C 0.36911 0.38244 0.87837 0.0
C3188 C 0.37872 0.36414 0.87253 0.0
C3189 C 0.35228 0.39549 0.87293 0.0
C3190 C 0.34206 0.41538 0.87863 0.0
C3191 C 0.35565 0.43314 0.88264 0.0
C3192 C 0.34592 0.45179 0.88806 0.0
C3193 C 0.32259 0.45294 0.88945 0.0
C3194 C 0.30894 0.43546 0.8854 0.0
C3195 C 0.3186 0.41676 0.87998 0.0
H3196 H 0.31508 0.4674 0.89364 0.0
H3197 H 0.41127 0.28844 0.84003 0.0
H3198 H 0.8318 0.15713 0.15519 0.0
H3199 H 0.83789 0.13999 0.13628 0.0
H3200 H 0.88574 0.09378 0.15119 0.0
H3201 H 0.87965 0.11071 0.17021 0.0
H3202 H 0.90167 0.11783 0.13184 0.0
H3203 H 0.83805 0.07302 0.14268 0.0
H3204 H 0.79961 0.06621 0.14991 0.0
H3205 H 0.77233 0.10414 0.12162 0.0
H3206 H 0.81064 0.11147 0.11431 0.0
H3207 H 0.9201 0.06423 0.07855 0.0
H3208 H 0.90969 0.06855 0.09882 0.0
H3209 H 0.85452 0.11173 0.08904 0.0
H3210 H 0.86449 0.10717 0.06873 0.0
H3211 H 0.84272 0.08474 0.10665 0.0
H3212 H 0.90418 0.13417 0.09728 0.0
H3213 H 0.94187 0.14407 0.08992 0.0
H3214 H 0.9723 0.10101 0.11529 0.0
H3215 H 0.93473 0.09062 0.1227 0.0
C3216 C 0.84347 0.14319 0.15448 0.0
C3217 C 0.85533 0.13533 0.16417 0.0
C3218 C 0.84681 0.13334 0.14369 0.0
C3219 C 0.86214 0.11557 0.1424 0.0
C3220 C 0.87376 0.10743 0.15207 0.0
C3221 C 0.87024 0.1171 0.1629 0.0
C3222 C 0.86721 0.10675 0.13079 0.0
C3223 C 0.88894 0.1101 0.12641 0.0
C3224 C 0.85034 0.09737 0.12365 0.0
C3225 C 0.82725 0.09293 0.128 0.0
C3226 C 0.82387 0.08007 0.13805 0.0
C3227 C 0.8021 0.07608 0.14215 0.0
C3228 C 0.78354 0.08477 0.13624 0.0
C3229 C 0.78672 0.09742 0.1262 0.0
C3230 C 0.80846 0.10147 0.12206 0.0
C3231 C 0.90558 0.07443 0.08069 0.0
C3232 C 0.8933 0.0856 0.07204 0.0
C3233 C 0.89969 0.07689 0.09228 0.0
C3234 C 0.88159 0.09077 0.09542 0.0
C3235 C 0.86858 0.10099 0.08678 0.0
C3236 C 0.87437 0.09842 0.07518 0.0
C3237 C 0.87716 0.09595 0.10769 0.0
C3238 C 0.85555 0.09206 0.11216 0.0
C3239 C 0.89404 0.10521 0.11489 0.0
C3240 C 0.91665 0.1114 0.11044 0.0
C3241 C 0.9189 0.12666 0.10122 0.0
C3242 C 0.94024 0.13239 0.09706 0.0
C3243 C 0.95947 0.12311 0.10211 0.0
C3244 C 0.95739 0.10814 0.11137 0.0
C3245 C 0.93608 0.10233 0.11555 0.0
H3246 H 0.97597 0.12758 0.09888 0.0
H3247 H 0.7667 0.08166 0.13943 0.0
H3248 H 0.80496 0.65326 0.82831 0.0
H3249 H 0.81003 0.64079 0.84824 0.0
H3250 H 0.86724 0.60084 0.83789 0.0
H3251 H 0.86179 0.61258 0.81789 0.0
H3252 H 0.84468 0.57982 0.85439 0.0
H3253 H 0.87344 0.6551 0.84828 0.0
H3254 H 0.87109 0.69503 0.8425 0.0
H3255 H 0.81937 0.70622 0.86776 0.0
H3256 H 0.82124 0.66625 0.87359 0.0
H3257 H 0.91627 0.58272 0.90323 0.0
H3258 H 0.8978 0.58583 0.88449 0.0
H3259 H 0.84129 0.61914 0.90046 0.0
H3260 H 0.85968 0.61625 0.91927 0.0
H3261 H 0.85796 0.64225 0.88207 0.0
H3262 H 0.83492 0.56668 0.89012 0.0
H3263 H 0.84006 0.527 0.89585 0.0
H3264 H 0.88407 0.51645 0.86695 0.0
H3265 H 0.87946 0.55616 0.86113 0.0
C3266 C 0.81841 0.64155 0.83026 0.0
C3267 C 0.83319 0.63415 0.82158 0.0
C3268 C 0.82129 0.63447 0.84164 0.0
C3269 C 0.83931 0.62029 0.84457 0.0
C3270 C 0.85327 0.61184 0.83581 0.0
C3271 C 0.85018 0.61863 0.82439 0.0
C3272 C 0.84488 0.61582 0.8568 0.0
C3273 C 0.84766 0.59344 0.86045 0.0
C3274 C 0.84838 0.63362 0.86474 0.0
C3275 C 0.84729 0.65765 0.86128 0.0
C3276 C 0.86146 0.66605 0.85254 0.0
C3277 C 0.86023 0.68869 0.84927 0.0
C3278 C 0.84503 0.70314 0.85474 0.0
C3279 C 0.83109 0.69499 0.86352 0.0
C3280 C 0.83224 0.67235 0.86681 0.0
C3281 C 0.89983 0.59054 0.90279 0.0
C3282 C 0.88951 0.59937 0.91273 0.0
C3283 C 0.88922 0.59213 0.89209 0.0
C3284 C 0.86811 0.60251 0.89114 0.0
C3285 C 0.85756 0.61098 0.90105 0.0
C3286 C 0.86811 0.60933 0.91178 0.0
C3287 C 0.85805 0.60626 0.87964 0.0
C3288 C 0.85453 0.62857 0.8761 0.0
C3289 C 0.85423 0.58841 0.87179 0.0
C3290 C 0.85695 0.56446 0.87523 0.0
C3291 C 0.84583 0.55595 0.88503 0.0
C3292 C 0.84862 0.53344 0.88828 0.0
C3293 C 0.86241 0.51922 0.88178 0.0
C3294 C 0.8734 0.52748 0.87198 0.0
C3295 C 0.87067 0.54998 0.86869 0.0
H3296 H 0.86456 0.5018 0.88431 0.0
H3297 H 0.8441 0.72066 0.85219 0.0
H3298 H 0.12838 0.11552 0.56758 0.0
H3299 H 0.14138 0.11731 0.58753 0.0
H3300 H 0.09296 0.06638 0.59714 0.0
H3301 H 0.0794 0.06497 0.57726 0.0
H3302 H 0.09024 0.10041 0.61113 0.0
H3303 H 0.15069 0.05568 0.59685 0.0
H3304 H 0.18153 0.04501 0.5837 0.0
H3305 H 0.21687 0.10595 0.59217 0.0
H3306 H 0.1861 0.11716 0.60525 0.0
H3307 H 0.12798 0.1026 0.66881 0.0
H3308 H 0.1227 0.08679 0.64951 0.0
H3309 H 0.16171 0.14111 0.63492 0.0
H3310 H 0.16722 0.157 0.65414 0.0
H3311 H 0.1698 0.09971 0.62416 0.0
H3312 H 0.10676 0.14637 0.6359 0.0
H3313 H 0.07583 0.15754 0.6489 0.0
H3314 H 0.04544 0.09232 0.64492 0.0
H3315 H 0.07638 0.08067 0.63201 0.0
C3316 C 0.12067 0.1045 0.5739 0.0
C3317 C 0.10275 0.09022 0.57086 0.0
C3318 C 0.12824 0.10542 0.5853 0.0
C3319 C 0.11831 0.09179 0.5938 0.0
C3320 C 0.10087 0.07703 0.59071 0.0
C3321 C 0.09313 0.07627 0.57935 0.0
C3322 C 0.12468 0.09449 0.60608 0.0
C3323 C 0.10761 0.09969 0.61402 0.0
C3324 C 0.14737 0.09405 0.6098 0.0
C3325 C 0.16599 0.08733 0.60198 0.0
C3326 C 0.16496 0.06689 0.59585 0.0
C3327 C 0.18245 0.06073 0.58842 0.0
C3328 C 0.20113 0.07481 0.58708 0.0
C3329 C 0.20239 0.09506 0.5932 0.0
C3330 C 0.18494 0.10131 0.60064 0.0
C3331 C 0.13576 0.111 0.66153 0.0
C3332 C 0.14774 0.13125 0.66299 0.0
C3333 C 0.13272 0.10192 0.65052 0.0
C3334 C 0.14161 0.11296 0.64082 0.0
C3335 C 0.15473 0.13237 0.64232 0.0
C3336 C 0.15772 0.1415 0.6533 0.0
C3337 C 0.13538 0.10573 0.62906 0.0
C3338 C 0.15244 0.09986 0.62126 0.0
C3339 C 0.11267 0.10552 0.62542 0.0
C3340 C 0.09401 0.11256 0.63311 0.0
C3341 C 0.09357 0.13435 0.63788 0.0
C3342 C 0.07603 0.14078 0.64521 0.0
C3343 C 0.05872 0.12562 0.64777 0.0
C3344 C 0.05888 0.10402 0.64295 0.0
C3345 C 0.07641 0.0975 0.63563 0.0
H3346 H 0.04515 0.13063 0.65345 0.0
H3347 H 0.21464 0.07002 0.58132 0.0
H3348 H 0.62773 0.37821 0.41488 0.0
H3349 H 0.64143 0.37441 0.39512 0.0
H3350 H 0.59625 0.42715 0.38412 0.0
H3351 H 0.58187 0.43043 0.4038 0.0
H3352 H 0.59111 0.39244 0.37114 0.0
H3353 H 0.65519 0.4336 0.38408 0.0
H3354 H 0.68701 0.44312 0.39684 0.0
H3355 H 0.71723 0.37884 0.38992 0.0
H3356 H 0.68545 0.36878 0.37723 0.0
H3357 H 0.62779 0.38249 0.31355 0.0
H3358 H 0.62387 0.39992 0.33254 0.0
H3359 H 0.65853 0.34376 0.34809 0.0
H3360 H 0.6627 0.32622 0.32914 0.0
H3361 H 0.67023 0.3854 0.35793 0.0
H3362 H 0.60343 0.3429 0.34755 0.0
H3363 H 0.57146 0.333 0.33495 0.0
H3364 H 0.54647 0.40071 0.3374 0.0
H3365 H 0.5785 0.41108 0.34989 0.0
C3366 C 0.621 0.38927 0.40829 0.0
C3367 C 0.60357 0.40445 0.41084 0.0
C3368 C 0.62896 0.38719 0.397 0.0
C3369 C 0.61999 0.40062 0.38814 0.0
C3370 C 0.60338 0.41659 0.39082 0.0
C3371 C 0.59517 0.41843 0.40205 0.0
C3372 C 0.626 0.39618 0.37595 0.0
C3373 C 0.60843 0.39149 0.36821 0.0
C3374 C 0.6486 0.39437 0.37217 0.0
C3375 C 0.66783 0.40039 0.37975 0.0
C3376 C 0.66854 0.42143 0.38533 0.0
C3377 C 0.68659 0.42693 0.39255 0.0
C3378 C 0.70411 0.41158 0.3942 0.0
C3379 C 0.70365 0.39071 0.38863 0.0
C3380 C 0.68563 0.38512 0.38141 0.0
C3381 C 0.63485 0.37396 0.32098 0.0
C3382 C 0.64528 0.3528 0.31986 0.0
C3383 C 0.63262 0.38398 0.33181 0.0
C3384 C 0.64073 0.37299 0.34169 0.0
C3385 C 0.6522 0.35248 0.34054 0.0
C3386 C 0.65441 0.34242 0.32972 0.0
C3387 C 0.63535 0.38166 0.3533 0.0
C3388 C 0.65297 0.38693 0.36089 0.0
C3389 C 0.61281 0.38408 0.35698 0.0
C3390 C 0.59349 0.37783 0.34953 0.0
C3391 C 0.59121 0.35571 0.34532 0.0
C3392 C 0.57307 0.35001 0.33821 0.0
C3393 C 0.55698 0.36624 0.33534 0.0
C3394 C 0.55897 0.38818 0.33961 0.0
C3395 C 0.57711 0.39397 0.3467 0.0
H3396 H 0.54294 0.36179 0.32984 0.0
H3397 H 0.71806 0.41587 0.3998 0.0
H3398 H 0.36424 0.87348 0.06766 0.0
H3399 H 0.35013 0.8708 0.08741 0.0
H3400 H 0.3998 0.91925 0.09854 0.0
H3401 H 0.41439 0.92159 0.07889 0.0
H3402 H 0.40053 0.88393 0.11189 0.0
H3403 H 0.34296 0.93233 0.09756 0.0
H3404 H 0.31329 0.94514 0.08422 0.0
H3405 H 0.27474 0.88554 0.09142 0.0
H3406 H 0.30432 0.8722 0.1047 0.0
H3407 H 0.36079 0.8833 0.16901 0.0
H3408 H 0.36691 0.89898 0.14976 0.0
H3409 H 0.32674 0.84581 0.13493 0.0
H3410 H 0.32043 0.82999 0.15412 0.0
H3411 H 0.32056 0.88815 0.12408 0.0
H3412 H 0.38057 0.83809 0.13617 0.0
H3413 H 0.4103 0.825 0.14942 0.0
H3414 H 0.4443 0.88857 0.14613 0.0
H3415 H 0.41456 0.90215 0.13298 0.0
C3416 C 0.37201 0.88374 0.07429 0.0
C3417 C 0.39054 0.89761 0.07174 0.0
C3418 C 0.36381 0.88232 0.08556 0.0
C3419 C 0.37378 0.89501 0.09442 0.0
C3420 C 0.39187 0.90934 0.09182 0.0
C3421 C 0.4002 0.91061 0.08059 0.0
C3422 C 0.36667 0.89181 0.10655 0.0
C3423 C 0.3831 0.88539 0.11459 0.0
C3424 C 0.34385 0.8932 0.11001 0.0
C3425 C 0.32596 0.90119 0.10207 0.0
C3426 C 0.32823 0.92187 0.09624 0.0
C3427 C 0.31141 0.92924 0.0887 0.0
C3428 C 0.29216 0.91614 0.08696 0.0
C3429 C 0.28966 0.89567 0.09278 0.0
C3430 C 0.30644 0.88821 0.10032 0.0
C3431 C 0.35291 0.87515 0.16169 0.0
C3432 C 0.34042 0.85519 0.16307 0.0
C3433 C 0.35641 0.88416 0.15071 0.0
C3434 C 0.34747 0.87336 0.14097 0.0
C3435 C 0.33376 0.85434 0.14237 0.0
C3436 C 0.33032 0.84525 0.15334 0.0
C3437 C 0.35443 0.8803 0.12927 0.0
C3438 C 0.338 0.88721 0.12135 0.0
C3439 C 0.37726 0.87942 0.12587 0.0
C3440 C 0.39522 0.87122 0.13371 0.0
C3441 C 0.39429 0.84934 0.13835 0.0
C3442 C 0.41116 0.84182 0.14583 0.0
C3443 C 0.42914 0.85597 0.14865 0.0
C3444 C 0.43033 0.87765 0.14396 0.0
C3445 C 0.41348 0.88526 0.13649 0.0
H3446 H 0.44219 0.85012 0.15444 0.0
H3447 H 0.27916 0.92188 0.08111 0.0
H3448 H 0.86346 0.37498 0.6665 0.0
H3449 H 0.86582 0.38891 0.64673 0.0
H3450 H 0.81513 0.341 0.6362 0.0
H3451 H 0.81315 0.32651 0.6559 0.0
H3452 H 0.84972 0.33842 0.62264 0.0
H3453 H 0.80471 0.39874 0.63665 0.0
H3454 H 0.79333 0.42935 0.64979 0.0
H3455 H 0.85469 0.46483 0.64244 0.0
H3456 H 0.86661 0.43428 0.62938 0.0
H3457 H 0.85496 0.37792 0.56534 0.0
H3458 H 0.83831 0.37232 0.58441 0.0
H3459 H 0.89272 0.40975 0.59991 0.0
H3460 H 0.9095 0.41557 0.58089 0.0
H3461 H 0.8505 0.41841 0.61014 0.0
H3462 H 0.89717 0.35507 0.59867 0.0
H3463 H 0.90869 0.32434 0.58562 0.0
H3464 H 0.84301 0.29459 0.58843 0.0
H3465 H 0.83101 0.32535 0.60139 0.0
C3466 C 0.8526 0.36761 0.66001 0.0
C3467 C 0.83827 0.34952 0.66273 0.0
C3468 C 0.85383 0.37571 0.64873 0.0
C3469 C 0.84048 0.36614 0.64001 0.0
C3470 C 0.82557 0.34862 0.6428 0.0
C3471 C 0.8245 0.34035 0.65405 0.0
C3472 C 0.84379 0.37282 0.62782 0.0
C3473 C 0.84932 0.35588 0.61987 0.0
C3474 C 0.84375 0.39564 0.62425 0.0
C3475 C 0.83662 0.41412 0.63209 0.0
C3476 C 0.81586 0.41298 0.6379 0.0
C3477 C 0.8093 0.43034 0.64533 0.0
C3478 C 0.82329 0.449 0.64697 0.0
C3479 C 0.84387 0.45036 0.64117 0.0
C3480 C 0.85052 0.43304 0.63373 0.0
C3481 C 0.86324 0.38526 0.57278 0.0
C3482 C 0.88375 0.3969 0.57163 0.0
C3483 C 0.85366 0.38206 0.58365 0.0
C3484 C 0.86444 0.39045 0.59352 0.0
C3485 C 0.88418 0.40319 0.59236 0.0
C3486 C 0.89382 0.40634 0.5815 0.0
C3487 C 0.85654 0.38402 0.60513 0.0
C3488 C 0.85033 0.40096 0.61294 0.0
C3489 C 0.85587 0.36119 0.6086 0.0
C3490 C 0.86312 0.34263 0.60088 0.0
C3491 C 0.88514 0.34207 0.59643 0.0
C3492 C 0.89176 0.32464 0.58906 0.0
C3493 C 0.87657 0.30756 0.58617 0.0
C3494 C 0.85474 0.30785 0.59066 0.0
C3495 C 0.84802 0.32527 0.59802 0.0
H3496 H 0.88172 0.29408 0.58046 0.0
H3497 H 0.81818 0.46242 0.65272 0.0
H3498 H 0.33177 0.17359 0.33155 0.0
H3499 H 0.33976 0.1595 0.35094 0.0
H3500 H 0.349 0.09252 0.33734 0.0
H3501 H 0.34136 0.10648 0.31783 0.0
H3502 H 0.32442 0.09708 0.36024 0.0
H3503 H 0.39314 0.1164 0.33986 0.0
H3504 H 0.41704 0.14159 0.32815 0.0
H3505 H 0.41365 0.19221 0.35459 0.0
H3506 H 0.3894 0.16742 0.36636 0.0
H3507 H 0.42283 0.08022 0.4044 0.0
H3508 H 0.40766 0.08499 0.38498 0.0
H3509 H 0.34723 0.11421 0.39916 0.0
H3510 H 0.36217 0.10941 0.41866 0.0
H3511 H 0.39754 0.12518 0.37522 0.0
H3512 H 0.30343 0.10193 0.38039 0.0
H3513 H 0.27972 0.07608 0.39182 0.0
H3514 H 0.33541 0.03061 0.39559 0.0
H3515 H 0.35936 0.05602 0.38405 0.0
C3516 C 0.33506 0.15578 0.33269 0.0
C3517 C 0.3362 0.14117 0.32316 0.0
C3518 C 0.33958 0.14779 0.34377 0.0
C3519 C 0.34502 0.12506 0.34548 0.0
C3520 C 0.34474 0.11011 0.33613 0.0
C3521 C 0.34054 0.11815 0.32501 0.0
C3522 C 0.35354 0.11759 0.35678 0.0
C3523 C 0.34038 0.10314 0.36357 0.0
C3524 C 0.37451 0.12534 0.36093 0.0
C3525 C 0.38928 0.14016 0.35393 0.0
C3526 C 0.39733 0.13298 0.34312 0.0
C3527 C 0.41096 0.14717 0.33649 0.0
C3528 C 0.41681 0.16851 0.34061 0.0
C3529 C 0.40908 0.17568 0.3514 0.0
C3530 C 0.3954 0.16157 0.35806 0.0
C3531 C 0.40621 0.08745 0.40342 0.0
C3532 C 0.39377 0.09459 0.41308 0.0
C3533 C 0.39759 0.09015 0.39232 0.0
C3534 C 0.37633 0.09987 0.39067 0.0
C3535 C 0.36357 0.10643 0.40028 0.0
C3536 C 0.3722 0.10379 0.41141 0.0
C3537 C 0.36834 0.10476 0.37887 0.0
C3538 C 0.3816 0.11891 0.37195 0.0
C3539 C 0.34757 0.09656 0.37461 0.0
C3540 C 0.33324 0.081 0.38144 0.0
C3541 C 0.31059 0.08637 0.38362 0.0
C3542 C 0.29711 0.0718 0.39012 0.0
C3543 C 0.30607 0.05175 0.39446 0.0
C3544 C 0.32851 0.04619 0.39226 0.0
C3545 C 0.34206 0.06069 0.38576 0.0
H3546 H 0.29561 0.0405 0.39949 0.0
H3547 H 0.42736 0.17947 0.33546 0.0
H3548 H 0.67117 0.66808 0.15491 0.0
H3549 H 0.66717 0.65547 0.13497 0.0
H3550 H 0.62338 0.60165 0.1461 0.0
H3551 H 0.62762 0.61385 0.16613 0.0
H3552 H 0.65099 0.58789 0.12892 0.0
H3553 H 0.60136 0.6501 0.13626 0.0
H3554 H 0.59121 0.68846 0.14258 0.0
H3555 H 0.63505 0.71664 0.11687 0.0
H3556 H 0.6457 0.67841 0.1105 0.0
H3557 H 0.58241 0.57295 0.07899 0.0
H3558 H 0.59821 0.57992 0.09813 0.0
H3559 H 0.64497 0.62771 0.08354 0.0
H3560 H 0.62938 0.62079 0.06432 0.0
H3561 H 0.61934 0.6445 0.10189 0.0
H3562 H 0.66527 0.58044 0.09331 0.0
H3563 H 0.67291 0.54149 0.08705 0.0
H3564 H 0.63309 0.51603 0.11512 0.0
H3565 H 0.62493 0.55485 0.12145 0.0
C3566 C 0.66087 0.6534 0.15314 0.0
C3567 C 0.64946 0.64214 0.16208 0.0
C3568 C 0.65861 0.64624 0.14174 0.0
C3569 C 0.64467 0.62789 0.13907 0.0
C3570 C 0.63417 0.6159 0.14801 0.0
C3571 C 0.63655 0.62295 0.15944 0.0
C3572 C 0.6398 0.62219 0.12691 0.0
C3573 C 0.64395 0.60019 0.12301 0.0
C3574 C 0.6309 0.63839 0.11919 0.0
C3575 C 0.62453 0.6614 0.123 0.0
C3576 C 0.60898 0.66448 0.13202 0.0
C3577 C 0.60311 0.68619 0.1356 0.0
C3578 C 0.61253 0.70497 0.13015 0.0
C3579 C 0.6278 0.70207 0.12109 0.0
C3580 C 0.63375 0.68039 0.11749 0.0
C3581 C 0.59623 0.58475 0.07983 0.0
C3582 C 0.60456 0.59643 0.07017 0.0
C3583 C 0.60532 0.58859 0.09075 0.0
C3584 C 0.62279 0.60423 0.09219 0.0
C3585 C 0.63153 0.61552 0.08255 0.0
C3586 C 0.62261 0.61151 0.0716 0.0
C3587 C 0.63051 0.61021 0.1039 0.0
C3588 C 0.62673 0.63227 0.10773 0.0
C3589 C 0.63942 0.59397 0.11156 0.0
C3590 C 0.64434 0.57058 0.1078 0.0
C3591 C 0.65798 0.56655 0.09809 0.0
C3592 C 0.66244 0.54448 0.09454 0.0
C3593 C 0.65346 0.52629 0.10067 0.0
C3594 C 0.64003 0.53013 0.11037 0.0
C3595 C 0.6355 0.55217 0.11396 0.0
H3596 H 0.65693 0.50922 0.09791 0.0
H3597 H 0.60796 0.72177 0.13293 0.0
H3598 H 0.17116 0.81819 0.82825 0.0
H3599 H 0.17102 0.83241 0.84803 0.0
H3600 H 0.12605 0.88595 0.83791 0.0
H3601 H 0.12657 0.87223 0.81805 0.0
H3602 H 0.15589 0.90082 0.85344 0.0
H3603 H 0.10601 0.83692 0.84957 0.0
H3604 H 0.09614 0.79768 0.84467 0.0
H3605 H 0.14445 0.77344 0.86927 0.0
H3606 H 0.15481 0.81256 0.87421 0.0
H3607 H 0.08866 0.92065 0.90288 0.0
H3608 H 0.10534 0.91195 0.88415 0.0
H3609 H 0.15168 0.866 0.90048 0.0
H3610 H 0.13512 0.87461 0.9193 0.0
H3611 H 0.12751 0.84683 0.88276 0.0
H3612 H 0.17209 0.91253 0.88878 0.0
H3613 H 0.17951 0.95225 0.89373 0.0
H3614 H 0.13866 0.97384 0.86523 0.0
H3615 H 0.1307 0.93424 0.86021 0.0
C3616 C 0.16143 0.83314 0.8302 0.0
C3617 C 0.14861 0.84391 0.82162 0.0
C3618 C 0.16139 0.84124 0.84151 0.0
C3619 C 0.14822 0.85998 0.84446 0.0
C3620 C 0.13631 0.87143 0.83581 0.0
C3621 C 0.13653 0.86349 0.82447 0.0
C3622 C 0.14536 0.86665 0.85668 0.0
C3623 C 0.14962 0.88907 0.85986 0.0
C3624 C 0.13763 0.85115 0.86508 0.0
C3625 C 0.13138 0.82764 0.86215 0.0
C3626 C 0.11465 0.82321 0.85386 0.0
C3627 C 0.10894 0.801 0.85109 0.0
C3628 C 0.11971 0.78308 0.85663 0.0
C3629 C 0.13616 0.78734 0.86497 0.0
C3630 C 0.14195 0.80952 0.86776 0.0
C3631 C 0.1026 0.90892 0.90253 0.0
C3632 C 0.11045 0.89817 0.91256 0.0
C3633 C 0.11222 0.9041 0.89183 0.0
C3634 C 0.12981 0.88845 0.89098 0.0
C3635 C 0.13817 0.87821 0.901 0.0
C3636 C 0.12868 0.88316 0.91173 0.0
C3637 C 0.1377 0.88109 0.87949 0.0
C3638 C 0.13426 0.8585 0.87642 0.0
C3639 C 0.14589 0.89652 0.87119 0.0
C3640 C 0.15068 0.92039 0.87416 0.0
C3641 C 0.16454 0.92574 0.88362 0.0
C3642 C 0.16887 0.94824 0.88643 0.0
C3643 C 0.15953 0.96555 0.87981 0.0
C3644 C 0.14588 0.9604 0.87035 0.0
C3645 C 0.14148 0.93793 0.86751 0.0
H3646 H 0.16291 0.98296 0.882 0.0
H3647 H 0.11527 0.76589 0.85448 0.0
loop_
_geom_bond_atom_site_label_1
_geom_bond_atom_site_label_2
_geom_bond_distance
_geom_bond_site_symmetry_2
_ccdc_geom_bond_type
C0 O1 1.306 . S
C0 O3 1.160 . S
O1 C0 1.306 . S
O1 Cd2 2.228 . S
Cd2 O1 2.228 . S
Cd2 O6 2.273 . S
Cd2 O10 2.277 . S
O3 C0 1.160 . S
O3 Cd4 2.203 . S
Cd4 O3 2.203 . S
Cd4 O6 2.411 . S
Cd4 O7 2.333 . S
Cd4 O8 2.352 . S
Cd4 O12 2.277 . S
Cd4 O13 2.356 . S
C5 O10 1.209 . S
C5 O12 1.226 . S
O6 Cd2 2.273 . S
O6 Cd4 2.411 . S
O6 C9 1.320 . S
O7 Cd4 2.333 . S
O7 C9 1.214 . S
O8 Cd4 2.352 . S
O8 C11 1.258 . S
C9 O6 1.320 . S
C9 O7 1.214 . S
O10 Cd2 2.277 . S
O10 C5 1.209 . S
C11 O8 1.258 . S
C11 O13 1.282 . S
O12 Cd4 2.277 . S
O12 C5 1.226 . S
O13 Cd4 2.356 . S
O13 C11 1.282 . S
C14 O15 1.306 . S
C14 O17 1.160 . S
O15 C14 1.306 . S
O15 Cd16 2.228 . S
Cd16 O15 2.228 . S
Cd16 O20 2.273 . S
Cd16 O24 2.277 . S
O17 C14 1.160 . S
O17 Cd18 2.203 . S
Cd18 O17 2.203 . S
Cd18 O20 2.411 . S
Cd18 O21 2.333 . S
Cd18 O22 2.352 . S
Cd18 O26 2.277 . S
Cd18 O27 2.356 . S
C19 O24 1.209 . S
C19 O26 1.226 . S
O20 Cd16 2.273 . S
O20 Cd18 2.411 . S
O20 C23 1.320 . S
O21 Cd18 2.333 . S
O21 C23 1.214 . S
O22 Cd18 2.352 . S
O22 C25 1.258 . S
C23 O20 1.320 . S
C23 O21 1.214 . S
O24 Cd16 2.277 . S
O24 C19 1.209 . S
C25 O22 1.258 . S
C25 O27 1.282 . S
O26 Cd18 2.277 . S
O26 C19 1.226 . S
O27 Cd18 2.356 . S
O27 C25 1.282 . S
C28 O29 1.306 . S
C28 O31 1.160 . S
O29 C28 1.306 . S
O29 Cd30 2.228 . S
Cd30 O29 2.228 . S
Cd30 O34 2.273 . S
Cd30 O38 2.277 . S
O31 C28 1.160 . S
O31 Cd32 2.203 . S
Cd32 O31 2.203 . S
Cd32 O34 2.411 . S
Cd32 O35 2.333 . S
Cd32 O36 2.352 . S
Cd32 O40 2.277 . S
Cd32 O41 2.356 . S
C33 O38 1.209 . S
C33 O40 1.226 . S
O34 Cd30 2.273 . S
O34 Cd32 2.411 . S
O34 C37 1.320 . S
O35 Cd32 2.333 . S
O35 C37 1.214 . S
O36 Cd32 2.352 . S
O36 C39 1.258 . S
C37 O34 1.320 . S
C37 O35 1.214 . S
O38 Cd30 2.277 . S
O38 C33 1.209 . S
C39 O36 1.258 . S
C39 O41 1.282 . S
O40 Cd32 2.277 . S
O40 C33 1.226 . S
O41 Cd32 2.356 . S
O41 C39 1.282 . S
C42 O43 1.306 . S
C42 O45 1.160 . S
O43 C42 1.306 . S
O43 Cd44 2.228 . S
Cd44 O43 2.228 . S
Cd44 O48 2.273 . S
Cd44 O52 2.277 . S
O45 C42 1.160 . S
O45 Cd46 2.203 . S
Cd46 O45 2.203 . S
Cd46 O48 2.411 . S
Cd46 O49 2.333 . S
Cd46 O50 2.352 . S
Cd46 O54 2.277 . S
Cd46 O55 2.356 . S
C47 O52 1.209 . S
C47 O54 1.226 . S
O48 Cd44 2.273 . S
O48 Cd46 2.411 . S
O48 C51 1.320 . S
O49 Cd46 2.333 . S
O49 C51 1.214 . S
O50 Cd46 2.352 . S
O50 C53 1.258 . S
C51 O48 1.320 . S
C51 O49 1.214 . S
O52 Cd44 2.277 . S
O52 C47 1.209 . S
C53 O50 1.258 . S
C53 O55 1.282 . S
O54 Cd46 2.277 . S
O54 C47 1.226 . S
O55 Cd46 2.356 . S
O55 C53 1.282 . S
C56 O57 1.306 . S
C56 O59 1.160 . S
O57 C56 1.306 . S
O57 Cd58 2.228 . S
Cd58 O57 2.228 . S
Cd58 O62 2.273 . S
Cd58 O66 2.277 . S
O59 C56 1.160 . S
O59 Cd60 2.203 . S
Cd60 O59 2.203 . S
Cd60 O62 2.411 . S
Cd60 O63 2.333 . S
Cd60 O64 2.352 . S
Cd60 O68 2.277 . S
Cd60 O69 2.356 . S
C61 O66 1.209 . S
C61 O68 1.226 . S
O62 Cd58 2.273 . S
O62 Cd60 2.411 . S
O62 C65 1.320 . S
O63 Cd60 2.333 . S
O63 C65 1.214 . S
O64 Cd60 2.352 . S
O64 C67 1.258 . S
C65 O62 1.320 . S
C65 O63 1.214 . S
O66 Cd58 2.277 . S
O66 C61 1.209 . S
C67 O64 1.258 . S
C67 O69 1.282 . S
O68 Cd60 2.277 . S
O68 C61 1.226 . S
O69 Cd60 2.356 . S
O69 C67 1.282 . S
C70 O71 1.306 . S
C70 O73 1.160 . S
O71 C70 1.306 . S
O71 Cd72 2.228 . S
Cd72 O71 2.228 . S
Cd72 O76 2.273 . S
Cd72 O80 2.277 . S
O73 C70 1.160 . S
O73 Cd74 2.203 . S
Cd74 O73 2.203 . S
Cd74 O76 2.411 . S
Cd74 O77 2.333 . S
Cd74 O78 2.352 . S
Cd74 O82 2.277 . S
Cd74 O83 2.356 . S
C75 O80 1.209 . S
C75 O82 1.226 . S
O76 Cd72 2.273 . S
O76 Cd74 2.411 . S
O76 C79 1.320 . S
O77 Cd74 2.333 . S
O77 C79 1.214 . S
O78 Cd74 2.352 . S
O78 C81 1.258 . S
C79 O76 1.320 . S
C79 O77 1.214 . S
O80 Cd72 2.277 . S
O80 C75 1.209 . S
C81 O78 1.258 . S
C81 O83 1.282 . S
O82 Cd74 2.277 . S
O82 C75 1.226 . S
O83 Cd74 2.356 . S
O83 C81 1.282 . S
C84 O85 1.306 . S
C84 O87 1.160 . S
O85 C84 1.306 . S
O85 Cd86 2.228 . S
Cd86 O85 2.228 . S
Cd86 O90 2.273 . S
Cd86 O94 2.277 . S
O87 C84 1.160 . S
O87 Cd88 2.203 . S
Cd88 O87 2.203 . S
Cd88 O90 2.411 . S
Cd88 O91 2.333 . S
Cd88 O92 2.352 . S
Cd88 O96 2.277 . S
Cd88 O97 2.356 . S
C89 O94 1.209 . S
C89 O96 1.226 . S
O90 Cd86 2.273 . S
O90 Cd88 2.411 . S
O90 C93 1.320 . S
O91 Cd88 2.333 . S
O91 C93 1.214 . S
O92 Cd88 2.352 . S
O92 C95 1.258 . S
C93 O90 1.320 . S
C93 O91 1.214 . S
O94 Cd86 2.277 . S
O94 C89 1.209 . S
C95 O92 1.258 . S
C95 O97 1.282 . S
O96 Cd88 2.277 . S
O96 C89 1.226 . S
O97 Cd88 2.356 . S
O97 C95 1.282 . S
C98 O99 1.306 . S
C98 O101 1.160 . S
O99 C98 1.306 . S
O99 Cd100 2.228 . S
Cd100 O99 2.228 . S
Cd100 O104 2.273 . S
Cd100 O108 2.277 . S
O101 C98 1.160 . S
O101 Cd102 2.203 . S
Cd102 O101 2.203 . S
Cd102 O104 2.411 . S
Cd102 O105 2.333 . S
Cd102 O106 2.352 . S
Cd102 O110 2.277 . S
Cd102 O111 2.356 . S
C103 O108 1.209 . S
C103 O110 1.226 . S
O104 Cd100 2.273 . S
O104 Cd102 2.411 . S
O104 C107 1.320 . S
O105 Cd102 2.333 . S
O105 C107 1.214 . S
O106 Cd102 2.352 . S
O106 C109 1.258 . S
C107 O104 1.320 . S
C107 O105 1.214 . S
O108 Cd100 2.277 . S
O108 C103 1.209 . S
C109 O106 1.258 . S
C109 O111 1.282 . S
O110 Cd102 2.277 . S
O110 C103 1.226 . S
O111 Cd102 2.356 . S
O111 C109 1.282 . S
C112 O113 1.306 . S
C112 O115 1.160 . S
O113 C112 1.306 . S
O113 Cd114 2.228 . S
Cd114 O113 2.228 . S
Cd114 O118 2.273 . S
Cd114 O122 2.277 . S
O115 C112 1.160 . S
O115 Cd116 2.203 . S
Cd116 O115 2.203 . S
Cd116 O118 2.411 . S
Cd116 O119 2.333 . S
Cd116 O120 2.352 . S
Cd116 O124 2.277 . S
Cd116 O125 2.356 . S
C117 O122 1.209 . S
C117 O124 1.226 . S
O118 Cd114 2.273 . S
O118 Cd116 2.411 . S
O118 C121 1.320 . S
O119 Cd116 2.333 . S
O119 C121 1.214 . S
O120 Cd116 2.352 . S
O120 C123 1.258 . S
C121 O118 1.320 . S
C121 O119 1.214 . S
O122 Cd114 2.277 . S
O122 C117 1.209 . S
C123 O120 1.258 . S
C123 O125 1.282 . S
O124 Cd116 2.277 . S
O124 C117 1.226 . S
O125 Cd116 2.356 . S
O125 C123 1.282 . S
C126 O127 1.306 . S
C126 O129 1.160 . S
O127 C126 1.306 . S
O127 Cd128 2.228 . S
Cd128 O127 2.228 . S
Cd128 O132 2.273 . S
Cd128 O136 2.277 . S
O129 C126 1.160 . S
O129 Cd130 2.203 . S
Cd130 O129 2.203 . S
Cd130 O132 2.411 . S
Cd130 O133 2.333 . S
Cd130 O134 2.352 . S
Cd130 O138 2.277 . S
Cd130 O139 2.356 . S
C131 O136 1.209 . S
C131 O138 1.226 . S
O132 Cd128 2.273 . S
O132 Cd130 2.411 . S
O132 C135 1.320 . S
O133 Cd130 2.333 . S
O133 C135 1.214 . S
O134 Cd130 2.352 . S
O134 C137 1.258 . S
C135 O132 1.320 . S
C135 O133 1.214 . S
O136 Cd128 2.277 . S
O136 C131 1.209 . S
C137 O134 1.258 . S
C137 O139 1.282 . S
O138 Cd130 2.277 . S
O138 C131 1.226 . S
O139 Cd130 2.356 . S
O139 C137 1.282 . S
C140 O141 1.306 . S
C140 O143 1.160 . S
O141 C140 1.306 . S
O141 Cd142 2.228 . S
Cd142 O141 2.228 . S
Cd142 O146 2.273 . S
Cd142 O150 2.277 . S
O143 C140 1.160 . S
O143 Cd144 2.203 . S
Cd144 O143 2.203 . S
Cd144 O146 2.411 . S
Cd144 O147 2.333 . S
Cd144 O148 2.352 . S
Cd144 O152 2.277 . S
Cd144 O153 2.356 . S
C145 O150 1.209 . S
C145 O152 1.226 . S
O146 Cd142 2.273 . S
O146 Cd144 2.411 . S
O146 C149 1.320 . S
O147 Cd144 2.333 . S
O147 C149 1.214 . S
O148 Cd144 2.352 . S
O148 C151 1.258 . S
C149 O146 1.320 . S
C149 O147 1.214 . S
O150 Cd142 2.277 . S
O150 C145 1.209 . S
C151 O148 1.258 . S
C151 O153 1.282 . S
O152 Cd144 2.277 . S
O152 C145 1.226 . S
O153 Cd144 2.356 . S
O153 C151 1.282 . S
C154 O155 1.306 . S
C154 O157 1.160 . S
O155 C154 1.306 . S
O155 Cd156 2.228 . S
Cd156 O155 2.228 . S
Cd156 O160 2.273 . S
Cd156 O164 2.277 . S
O157 C154 1.160 . S
O157 Cd158 2.203 . S
Cd158 O157 2.203 . S
Cd158 O160 2.411 . S
Cd158 O161 2.333 . S
Cd158 O162 2.352 . S
Cd158 O166 2.277 . S
Cd158 O167 2.356 . S
C159 O164 1.209 . S
C159 O166 1.226 . S
O160 Cd156 2.273 . S
O160 Cd158 2.411 . S
O160 C163 1.320 . S
O161 Cd158 2.333 . S
O161 C163 1.214 . S
O162 Cd158 2.352 . S
O162 C165 1.258 . S
C163 O160 1.320 . S
C163 O161 1.214 . S
O164 Cd156 2.277 . S
O164 C159 1.209 . S
C165 O162 1.258 . S
C165 O167 1.282 . S
O166 Cd158 2.277 . S
O166 C159 1.226 . S
O167 Cd158 2.356 . S
O167 C165 1.282 . S
C168 O169 1.306 . S
C168 O171 1.160 . S
O169 C168 1.306 . S
O169 Cd170 2.228 . S
Cd170 O169 2.228 . S
Cd170 O174 2.273 . S
Cd170 O178 2.277 . S
O171 C168 1.160 . S
O171 Cd172 2.203 . S
Cd172 O171 2.203 . S
Cd172 O174 2.411 . S
Cd172 O175 2.333 . S
Cd172 O176 2.352 . S
Cd172 O180 2.277 . S
Cd172 O181 2.356 . S
C173 O178 1.209 . S
C173 O180 1.226 . S
O174 Cd170 2.273 . S
O174 Cd172 2.411 . S
O174 C177 1.320 . S
O175 Cd172 2.333 . S
O175 C177 1.214 . S
O176 Cd172 2.352 . S
O176 C179 1.258 . S
C177 O174 1.320 . S
C177 O175 1.214 . S
O178 Cd170 2.277 . S
O178 C173 1.209 . S
C179 O176 1.258 . S
C179 O181 1.282 . S
O180 Cd172 2.277 . S
O180 C173 1.226 . S
O181 Cd172 2.356 . S
O181 C179 1.282 . S
C182 O183 1.306 . S
C182 O185 1.160 . S
O183 C182 1.306 . S
O183 Cd184 2.228 . S
Cd184 O183 2.228 . S
Cd184 O188 2.273 . S
Cd184 O192 2.277 . S
O185 C182 1.160 . S
O185 Cd186 2.203 . S
Cd186 O185 2.203 . S
Cd186 O188 2.411 . S
Cd186 O189 2.333 . S
Cd186 O190 2.352 . S
Cd186 O194 2.277 . S
Cd186 O195 2.356 . S
C187 O192 1.209 . S
C187 O194 1.226 . S
O188 Cd184 2.273 . S
O188 Cd186 2.411 . S
O188 C191 1.320 . S
O189 Cd186 2.333 . S
O189 C191 1.214 . S
O190 Cd186 2.352 . S
O190 C193 1.258 . S
C191 O188 1.320 . S
C191 O189 1.214 . S
O192 Cd184 2.277 . S
O192 C187 1.209 . S
C193 O190 1.258 . S
C193 O195 1.282 . S
O194 Cd186 2.277 . S
O194 C187 1.226 . S
O195 Cd186 2.356 . S
O195 C193 1.282 . S
C196 O197 1.306 . S
C196 O199 1.160 . S
O197 C196 1.306 . S
O197 Cd198 2.228 . S
Cd198 O197 2.228 . S
Cd198 O202 2.273 . S
Cd198 O206 2.277 . S
O199 C196 1.160 . S
O199 Cd200 2.203 . S
Cd200 O199 2.203 . S
Cd200 O202 2.411 . S
Cd200 O203 2.333 . S
Cd200 O204 2.352 . S
Cd200 O208 2.277 . S
Cd200 O209 2.356 . S
C201 O206 1.209 . S
C201 O208 1.226 . S
O202 Cd198 2.273 . S
O202 Cd200 2.411 . S
O202 C205 1.320 . S
O203 Cd200 2.333 . S
O203 C205 1.214 . S
O204 Cd200 2.352 . S
O204 C207 1.258 . S
C205 O202 1.320 . S
C205 O203 1.214 . S
O206 Cd198 2.277 . S
O206 C201 1.209 . S
C207 O204 1.258 . S
C207 O209 1.282 . S
O208 Cd200 2.277 . S
O208 C201 1.226 . S
O209 Cd200 2.356 . S
O209 C207 1.282 . S
C210 O211 1.306 . S
C210 O213 1.160 . S
O211 C210 1.306 . S
O211 Cd212 2.228 . S
Cd212 O211 2.228 . S
Cd212 O216 2.273 . S
Cd212 O220 2.277 . S
O213 C210 1.160 . S
O213 Cd214 2.203 . S
Cd214 O213 2.203 . S
Cd214 O216 2.411 . S
Cd214 O217 2.333 . S
Cd214 O218 2.352 . S
Cd214 O222 2.277 . S
Cd214 O223 2.356 . S
C215 O220 1.209 . S
C215 O222 1.226 . S
O216 Cd212 2.273 . S
O216 Cd214 2.411 . S
O216 C219 1.320 . S
O217 Cd214 2.333 . S
O217 C219 1.214 . S
O218 Cd214 2.352 . S
O218 C221 1.258 . S
C219 O216 1.320 . S
C219 O217 1.214 . S
O220 Cd212 2.277 . S
O220 C215 1.209 . S
C221 O218 1.258 . S
C221 O223 1.282 . S
O222 Cd214 2.277 . S
O222 C215 1.226 . S
O223 Cd214 2.356 . S
O223 C221 1.282 . S
C224 O225 1.306 . S
C224 O227 1.160 . S
O225 C224 1.306 . S
O225 Cd226 2.228 . S
Cd226 O225 2.228 . S
Cd226 O230 2.273 . S
Cd226 O234 2.277 . S
O227 C224 1.160 . S
O227 Cd228 2.203 . S
Cd228 O227 2.203 . S
Cd228 O230 2.411 . S
Cd228 O231 2.333 . S
Cd228 O232 2.352 . S
Cd228 O236 2.277 . S
Cd228 O237 2.356 . S
C229 O234 1.209 . S
C229 O236 1.226 . S
O230 Cd226 2.273 . S
O230 Cd228 2.411 . S
O230 C233 1.320 . S
O231 Cd228 2.333 . S
O231 C233 1.214 . S
O232 Cd228 2.352 . S
O232 C235 1.258 . S
C233 O230 1.320 . S
C233 O231 1.214 . S
O234 Cd226 2.277 . S
O234 C229 1.209 . S
C235 O232 1.258 . S
C235 O237 1.282 . S
O236 Cd228 2.277 . S
O236 C229 1.226 . S
O237 Cd228 2.356 . S
O237 C235 1.282 . S
C238 O239 1.306 . S
C238 O241 1.160 . S
O239 C238 1.306 . S
O239 Cd240 2.228 . S
Cd240 O239 2.228 . S
Cd240 O244 2.273 . S
Cd240 O248 2.277 . S
O241 C238 1.160 . S
O241 Cd242 2.203 . S
Cd242 O241 2.203 . S
Cd242 O244 2.411 . S
Cd242 O245 2.333 . S
Cd242 O246 2.352 . S
Cd242 O250 2.277 . S
Cd242 O251 2.356 . S
C243 O248 1.209 . S
C243 O250 1.226 . S
O244 Cd240 2.273 . S
O244 Cd242 2.411 . S
O244 C247 1.320 . S
O245 Cd242 2.333 . S
O245 C247 1.214 . S
O246 Cd242 2.352 . S
O246 C249 1.258 . S
C247 O244 1.320 . S
C247 O245 1.214 . S
O248 Cd240 2.277 . S
O248 C243 1.209 . S
C249 O246 1.258 . S
C249 O251 1.282 . S
O250 Cd242 2.277 . S
O250 C243 1.226 . S
O251 Cd242 2.356 . S
O251 C249 1.282 . S
C252 O253 1.306 . S
C252 O255 1.160 . S
O253 C252 1.306 . S
O253 Cd254 2.228 . S
Cd254 O253 2.228 . S
Cd254 O258 2.273 . S
Cd254 O262 2.277 . S
O255 C252 1.160 . S
O255 Cd256 2.203 . S
Cd256 O255 2.203 . S
Cd256 O258 2.411 . S
Cd256 O259 2.333 . S
Cd256 O260 2.352 . S
Cd256 O264 2.277 . S
Cd256 O265 2.356 . S
C257 O262 1.209 . S
C257 O264 1.226 . S
O258 Cd254 2.273 . S
O258 Cd256 2.411 . S
O258 C261 1.320 . S
O259 Cd256 2.333 . S
O259 C261 1.214 . S
O260 Cd256 2.352 . S
O260 C263 1.258 . S
C261 O258 1.320 . S
C261 O259 1.214 . S
O262 Cd254 2.277 . S
O262 C257 1.209 . S
C263 O260 1.258 . S
C263 O265 1.282 . S
O264 Cd256 2.277 . S
O264 C257 1.226 . S
O265 Cd256 2.356 . S
O265 C263 1.282 . S
C266 O267 1.306 . S
C266 O269 1.160 . S
O267 C266 1.306 . S
O267 Cd268 2.228 . S
Cd268 O267 2.228 . S
Cd268 O272 2.273 . S
Cd268 O276 2.277 . S
O269 C266 1.160 . S
O269 Cd270 2.203 . S
Cd270 O269 2.203 . S
Cd270 O272 2.411 . S
Cd270 O273 2.333 . S
Cd270 O274 2.352 . S
Cd270 O278 2.277 . S
Cd270 O279 2.356 . S
C271 O276 1.209 . S
C271 O278 1.226 . S
O272 Cd268 2.273 . S
O272 Cd270 2.411 . S
O272 C275 1.320 . S
O273 Cd270 2.333 . S
O273 C275 1.214 . S
O274 Cd270 2.352 . S
O274 C277 1.258 . S
C275 O272 1.320 . S
C275 O273 1.214 . S
O276 Cd268 2.277 . S
O276 C271 1.209 . S
C277 O274 1.258 . S
C277 O279 1.282 . S
O278 Cd270 2.277 . S
O278 C271 1.226 . S
O279 Cd270 2.356 . S
O279 C277 1.282 . S
C280 O281 1.306 . S
C280 O283 1.160 . S
O281 C280 1.306 . S
O281 Cd282 2.228 . S
Cd282 O281 2.228 . S
Cd282 O286 2.273 . S
Cd282 O290 2.277 . S
O283 C280 1.160 . S
O283 Cd284 2.203 . S
Cd284 O283 2.203 . S
Cd284 O286 2.411 . S
Cd284 O287 2.333 . S
Cd284 O288 2.352 . S
Cd284 O292 2.277 . S
Cd284 O293 2.356 . S
C285 O290 1.209 . S
C285 O292 1.226 . S
O286 Cd282 2.273 . S
O286 Cd284 2.411 . S
O286 C289 1.320 . S
O287 Cd284 2.333 . S
O287 C289 1.214 . S
O288 Cd284 2.352 . S
O288 C291 1.258 . S
C289 O286 1.320 . S
C289 O287 1.214 . S
O290 Cd282 2.277 . S
O290 C285 1.209 . S
C291 O288 1.258 . S
C291 O293 1.282 . S
O292 Cd284 2.277 . S
O292 C285 1.226 . S
O293 Cd284 2.356 . S
O293 C291 1.282 . S
C294 O295 1.306 . S
C294 O297 1.160 . S
O295 C294 1.306 . S
O295 Cd296 2.228 . S
Cd296 O295 2.228 . S
Cd296 O300 2.273 . S
Cd296 O304 2.277 . S
O297 C294 1.160 . S
O297 Cd298 2.203 . S
Cd298 O297 2.203 . S
Cd298 O300 2.411 . S
Cd298 O301 2.333 . S
Cd298 O302 2.352 . S
Cd298 O306 2.277 . S
Cd298 O307 2.356 . S
C299 O304 1.209 . S
C299 O306 1.226 . S
O300 Cd296 2.273 . S
O300 Cd298 2.411 . S
O300 C303 1.320 . S
O301 Cd298 2.333 . S
O301 C303 1.214 . S
O302 Cd298 2.352 . S
O302 C305 1.258 . S
C303 O300 1.320 . S
C303 O301 1.214 . S
O304 Cd296 2.277 . S
O304 C299 1.209 . S
C305 O302 1.258 . S
C305 O307 1.282 . S
O306 Cd298 2.277 . S
O306 C299 1.226 . S
O307 Cd298 2.356 . S
O307 C305 1.282 . S
C308 O309 1.306 . S
C308 O311 1.160 . S
O309 C308 1.306 . S
O309 Cd310 2.228 . S
Cd310 O309 2.228 . S
Cd310 O314 2.273 . S
Cd310 O318 2.277 . S
O311 C308 1.160 . S
O311 Cd312 2.203 . S
Cd312 O311 2.203 . S
Cd312 O314 2.411 . S
Cd312 O315 2.333 . S
Cd312 O316 2.352 . S
Cd312 O320 2.277 . S
Cd312 O321 2.356 . S
C313 O318 1.209 . S
C313 O320 1.226 . S
O314 Cd310 2.273 . S
O314 Cd312 2.411 . S
O314 C317 1.320 . S
O315 Cd312 2.333 . S
O315 C317 1.214 . S
O316 Cd312 2.352 . S
O316 C319 1.258 . S
C317 O314 1.320 . S
C317 O315 1.214 . S
O318 Cd310 2.277 . S
O318 C313 1.209 . S
C319 O316 1.258 . S
C319 O321 1.282 . S
O320 Cd312 2.277 . S
O320 C313 1.226 . S
O321 Cd312 2.356 . S
O321 C319 1.282 . S
C322 O323 1.306 . S
C322 O325 1.160 . S
O323 C322 1.306 . S
O323 Cd324 2.228 . S
Cd324 O323 2.228 . S
Cd324 O328 2.273 . S
Cd324 O332 2.277 . S
O325 C322 1.160 . S
O325 Cd326 2.203 . S
Cd326 O325 2.203 . S
Cd326 O328 2.411 . S
Cd326 O329 2.333 . S
Cd326 O330 2.352 . S
Cd326 O334 2.277 . S
Cd326 O335 2.356 . S
C327 O332 1.209 . S
C327 O334 1.226 . S
O328 Cd324 2.273 . S
O328 Cd326 2.411 . S
O328 C331 1.320 . S
O329 Cd326 2.333 . S
O329 C331 1.214 . S
O330 Cd326 2.352 . S
O330 C333 1.258 . S
C331 O328 1.320 . S
C331 O329 1.214 . S
O332 Cd324 2.277 . S
O332 C327 1.209 . S
C333 O330 1.258 . S
C333 O335 1.282 . S
O334 Cd326 2.277 . S
O334 C327 1.226 . S
O335 Cd326 2.356 . S
O335 C333 1.282 . S
C336 O337 1.306 . S
C336 O339 1.160 . S
O337 C336 1.306 . S
O337 Cd338 2.228 . S
Cd338 O337 2.228 . S
Cd338 O342 2.273 . S
Cd338 O346 2.277 . S
O339 C336 1.160 . S
O339 Cd340 2.203 . S
Cd340 O339 2.203 . S
Cd340 O342 2.411 . S
Cd340 O343 2.333 . S
Cd340 O344 2.352 . S
Cd340 O348 2.277 . S
Cd340 O349 2.356 . S
C341 O346 1.209 . S
C341 O348 1.226 . S
O342 Cd338 2.273 . S
O342 Cd340 2.411 . S
O342 C345 1.320 . S
O343 Cd340 2.333 . S
O343 C345 1.214 . S
O344 Cd340 2.352 . S
O344 C347 1.258 . S
C345 O342 1.320 . S
C345 O343 1.214 . S
O346 Cd338 2.277 . S
O346 C341 1.209 . S
C347 O344 1.258 . S
C347 O349 1.282 . S
O348 Cd340 2.277 . S
O348 C341 1.226 . S
O349 Cd340 2.356 . S
O349 C347 1.282 . S
C350 O351 1.306 . S
C350 O353 1.160 . S
O351 C350 1.306 . S
O351 Cd352 2.228 . S
Cd352 O351 2.228 . S
Cd352 O356 2.273 . S
Cd352 O360 2.277 . S
O353 C350 1.160 . S
O353 Cd354 2.203 . S
Cd354 O353 2.203 . S
Cd354 O356 2.411 . S
Cd354 O357 2.333 . S
Cd354 O358 2.352 . S
Cd354 O362 2.277 . S
Cd354 O363 2.356 . S
C355 O360 1.209 . S
C355 O362 1.226 . S
O356 Cd352 2.273 . S
O356 Cd354 2.411 . S
O356 C359 1.320 . S
O357 Cd354 2.333 . S
O357 C359 1.214 . S
O358 Cd354 2.352 . S
O358 C361 1.258 . S
C359 O356 1.320 . S
C359 O357 1.214 . S
O360 Cd352 2.277 . S
O360 C355 1.209 . S
C361 O358 1.258 . S
C361 O363 1.282 . S
O362 Cd354 2.277 . S
O362 C355 1.226 . S
O363 Cd354 2.356 . S
O363 C361 1.282 . S
C364 O365 1.306 . S
C364 O367 1.160 . S
O365 C364 1.306 . S
O365 Cd366 2.228 . S
Cd366 O365 2.228 . S
Cd366 O370 2.273 . S
Cd366 O374 2.277 . S
O367 C364 1.160 . S
O367 Cd368 2.203 . S
Cd368 O367 2.203 . S
Cd368 O370 2.411 . S
Cd368 O371 2.333 . S
Cd368 O372 2.352 . S
Cd368 O376 2.277 . S
Cd368 O377 2.356 . S
C369 O374 1.209 . S
C369 O376 1.226 . S
O370 Cd366 2.273 . S
O370 Cd368 2.411 . S
O370 C373 1.320 . S
O371 Cd368 2.333 . S
O371 C373 1.214 . S
O372 Cd368 2.352 . S
O372 C375 1.258 . S
C373 O370 1.320 . S
C373 O371 1.214 . S
O374 Cd366 2.277 . S
O374 C369 1.209 . S
C375 O372 1.258 . S
C375 O377 1.282 . S
O376 Cd368 2.277 . S
O376 C369 1.226 . S
O377 Cd368 2.356 . S
O377 C375 1.282 . S
C378 O379 1.306 . S
C378 O381 1.160 . S
O379 C378 1.306 . S
O379 Cd380 2.228 . S
Cd380 O379 2.228 . S
Cd380 O384 2.273 . S
Cd380 O388 2.277 . S
O381 C378 1.160 . S
O381 Cd382 2.203 . S
Cd382 O381 2.203 . S
Cd382 O384 2.411 . S
Cd382 O385 2.333 . S
Cd382 O386 2.352 . S
Cd382 O390 2.277 . S
Cd382 O391 2.356 . S
C383 O388 1.209 . S
C383 O390 1.226 . S
O384 Cd380 2.273 . S
O384 Cd382 2.411 . S
O384 C387 1.320 . S
O385 Cd382 2.333 . S
O385 C387 1.214 . S
O386 Cd382 2.352 . S
O386 C389 1.258 . S
C387 O384 1.320 . S
C387 O385 1.214 . S
O388 Cd380 2.277 . S
O388 C383 1.209 . S
C389 O386 1.258 . S
C389 O391 1.282 . S
O390 Cd382 2.277 . S
O390 C383 1.226 . S
O391 Cd382 2.356 . S
O391 C389 1.282 . S
C392 O393 1.306 . S
C392 O395 1.160 . S
O393 C392 1.306 . S
O393 Cd394 2.228 . S
Cd394 O393 2.228 . S
Cd394 O398 2.273 . S
Cd394 O402 2.277 . S
O395 C392 1.160 . S
O395 Cd396 2.203 . S
Cd396 O395 2.203 . S
Cd396 O398 2.411 . S
Cd396 O399 2.333 . S
Cd396 O400 2.352 . S
Cd396 O404 2.277 . S
Cd396 O405 2.356 . S
C397 O402 1.209 . S
C397 O404 1.226 . S
O398 Cd394 2.273 . S
O398 Cd396 2.411 . S
O398 C401 1.320 . S
O399 Cd396 2.333 . S
O399 C401 1.214 . S
O400 Cd396 2.352 . S
O400 C403 1.258 . S
C401 O398 1.320 . S
C401 O399 1.214 . S
O402 Cd394 2.277 . S
O402 C397 1.209 . S
C403 O400 1.258 . S
C403 O405 1.282 . S
O404 Cd396 2.277 . S
O404 C397 1.226 . S
O405 Cd396 2.356 . S
O405 C403 1.282 . S
C406 O407 1.306 . S
C406 O409 1.160 . S
O407 C406 1.306 . S
O407 Cd408 2.228 . S
Cd408 O407 2.228 . S
Cd408 O412 2.273 . S
Cd408 O416 2.277 . S
O409 C406 1.160 . S
O409 Cd410 2.203 . S
Cd410 O409 2.203 . S
Cd410 O412 2.411 . S
Cd410 O413 2.333 . S
Cd410 O414 2.352 . S
Cd410 O418 2.277 . S
Cd410 O419 2.356 . S
C411 O416 1.209 . S
C411 O418 1.226 . S
O412 Cd408 2.273 . S
O412 Cd410 2.411 . S
O412 C415 1.320 . S
O413 Cd410 2.333 . S
O413 C415 1.214 . S
O414 Cd410 2.352 . S
O414 C417 1.258 . S
C415 O412 1.320 . S
C415 O413 1.214 . S
O416 Cd408 2.277 . S
O416 C411 1.209 . S
C417 O414 1.258 . S
C417 O419 1.282 . S
O418 Cd410 2.277 . S
O418 C411 1.226 . S
O419 Cd410 2.356 . S
O419 C417 1.282 . S
C420 O421 1.306 . S
C420 O423 1.160 . S
O421 C420 1.306 . S
O421 Cd422 2.228 . S
Cd422 O421 2.228 . S
Cd422 O426 2.273 . S
Cd422 O430 2.277 . S
O423 C420 1.160 . S
O423 Cd424 2.203 . S
Cd424 O423 2.203 . S
Cd424 O426 2.411 . S
Cd424 O427 2.333 . S
Cd424 O428 2.352 . S
Cd424 O432 2.277 . S
Cd424 O433 2.356 . S
C425 O430 1.209 . S
C425 O432 1.226 . S
O426 Cd422 2.273 . S
O426 Cd424 2.411 . S
O426 C429 1.320 . S
O427 Cd424 2.333 . S
O427 C429 1.214 . S
O428 Cd424 2.352 . S
O428 C431 1.258 . S
C429 O426 1.320 . S
C429 O427 1.214 . S
O430 Cd422 2.277 . S
O430 C425 1.209 . S
C431 O428 1.258 . S
C431 O433 1.282 . S
O432 Cd424 2.277 . S
O432 C425 1.226 . S
O433 Cd424 2.356 . S
O433 C431 1.282 . S
C434 O435 1.306 . S
C434 O437 1.160 . S
O435 C434 1.306 . S
O435 Cd436 2.228 . S
Cd436 O435 2.228 . S
Cd436 O440 2.273 . S
Cd436 O444 2.277 . S
O437 C434 1.160 . S
O437 Cd438 2.203 . S
Cd438 O437 2.203 . S
Cd438 O440 2.411 . S
Cd438 O441 2.333 . S
Cd438 O442 2.352 . S
Cd438 O446 2.277 . S
Cd438 O447 2.356 . S
C439 O444 1.209 . S
C439 O446 1.226 . S
O440 Cd436 2.273 . S
O440 Cd438 2.411 . S
O440 C443 1.320 . S
O441 Cd438 2.333 . S
O441 C443 1.214 . S
O442 Cd438 2.352 . S
O442 C445 1.258 . S
C443 O440 1.320 . S
C443 O441 1.214 . S
O444 Cd436 2.277 . S
O444 C439 1.209 . S
C445 O442 1.258 . S
C445 O447 1.282 . S
O446 Cd438 2.277 . S
O446 C439 1.226 . S
O447 Cd438 2.356 . S
O447 C445 1.282 . S
H448 C466 0.951 . S
H449 C468 0.951 . S
H450 C470 0.950 . S
H451 C471 0.950 . S
H452 C473 0.950 . S
H453 C476 0.950 . S
H454 C477 0.950 . S
H455 C479 0.950 . S
H456 C480 0.950 . S
H457 C481 0.951 . S
H458 C483 0.951 . S
H459 C485 0.950 . S
H460 C486 0.950 . S
H461 C488 0.950 . S
H462 C491 0.950 . S
H463 C492 0.950 . S
H464 C494 0.950 . S
H465 C495 0.950 . S
C466 H448 0.951 . S
C466 C467 1.366 . S
C466 C468 1.388 . S
C467 C466 1.366 . S
C467 C471 1.385 . S
C468 H449 0.951 . S
C468 C466 1.388 . S
C468 C469 1.366 . S
C469 C468 1.366 . S
C469 C470 1.414 . S
C469 C472 1.499 . S
C470 H450 0.950 . S
C470 C469 1.414 . S
C470 C471 1.374 . S
C471 H451 0.950 . S
C471 C467 1.385 . S
C471 C470 1.374 . S
C472 C469 1.499 . S
C472 C473 1.373 1_655 S
C472 C474 1.389 1_556 S
C473 H452 0.950 . S
C473 C472 1.373 1_455 S
C473 C489 1.377 . S
C474 C472 1.389 1_554 S
C474 C475 1.524 . S
C474 C488 1.377 . S
C475 C474 1.524 . S
C475 C476 1.397 . S
C475 C480 1.363 . S
C476 H453 0.950 . S
C476 C475 1.397 . S
C476 C477 1.334 . S
C477 H454 0.950 . S
C477 C476 1.334 . S
C477 C478 1.287 . S
C478 C477 1.287 . S
C478 C479 1.524 . S
C478 H497 0.913 . S
C479 H455 0.950 . S
C479 C478 1.524 . S
C479 C480 1.415 . S
C480 H456 0.950 . S
C480 C475 1.363 . S
C480 C479 1.415 . S
C481 H457 0.951 . S
C481 C482 1.366 . S
C481 C483 1.388 . S
C482 C481 1.366 . S
C482 C486 1.385 . S
C483 H458 0.951 . S
C483 C481 1.388 . S
C483 C484 1.366 . S
C484 C483 1.366 . S
C484 C485 1.414 . S
C484 C487 1.499 . S
C485 H459 0.950 . S
C485 C484 1.414 . S
C485 C486 1.374 . S
C486 H460 0.950 . S
C486 C482 1.385 . S
C486 C485 1.374 . S
C487 C484 1.499 . S
C487 C488 1.373 1_455 S
C487 C489 1.389 1_554 S
C488 H461 0.950 . S
C488 C474 1.377 . S
C488 C487 1.373 1_655 S
C489 C473 1.377 . S
C489 C487 1.389 1_556 S
C489 C490 1.524 . S
C490 C489 1.524 . S
C490 C491 1.397 . S
C490 C495 1.363 . S
C491 H462 0.950 . S
C491 C490 1.397 . S
C491 C492 1.334 . S
C492 H463 0.950 . S
C492 C491 1.334 . S
C492 C493 1.287 . S
C493 C492 1.287 . S
C493 C494 1.524 . S
C493 H496 0.999 . S
C494 H464 0.950 . S
C494 C493 1.524 . S
C494 C495 1.415 . S
C495 H465 0.950 . S
C495 C490 1.363 . S
C495 C494 1.415 . S
H496 C493 0.999 . S
H497 C478 0.913 . S
H498 C516 0.951 . S
H499 C518 0.951 . S
H500 C520 0.950 . S
H501 C521 0.950 . S
H502 C523 0.950 . S
H503 C526 0.950 . S
H504 C527 0.950 . S
H505 C529 0.950 . S
H506 C530 0.950 . S
H507 C531 0.951 . S
H508 C533 0.951 . S
H509 C535 0.950 . S
H510 C536 0.950 . S
H511 C538 0.950 . S
H512 C541 0.950 . S
H513 C542 0.950 . S
H514 C544 0.950 . S
H515 C545 0.950 . S
C516 H498 0.951 . S
C516 C517 1.366 . S
C516 C518 1.388 . S
C517 C516 1.366 . S
C517 C521 1.385 . S
C518 H499 0.951 . S
C518 C516 1.388 . S
C518 C519 1.366 . S
C519 C518 1.366 . S
C519 C520 1.414 . S
C519 C522 1.499 . S
C520 H500 0.950 . S
C520 C519 1.414 . S
C520 C521 1.374 . S
C521 H501 0.950 . S
C521 C517 1.385 . S
C521 C520 1.374 . S
C522 C519 1.499 . S
C522 C523 1.373 . S
C522 C524 1.389 . S
C523 H502 0.950 . S
C523 C522 1.373 . S
C523 C539 1.377 . S
C524 C522 1.389 . S
C524 C525 1.524 . S
C524 C538 1.377 . S
C525 C524 1.524 . S
C525 C526 1.397 . S
C525 C530 1.363 . S
C526 H503 0.950 . S
C526 C525 1.397 . S
C526 C527 1.334 . S
C527 H504 0.950 . S
C527 C526 1.334 . S
C527 C528 1.287 . S
C528 C527 1.287 . S
C528 C529 1.524 . S
C528 H547 0.913 . S
C529 H505 0.950 . S
C529 C528 1.524 . S
C529 C530 1.415 . S
C530 H506 0.950 . S
C530 C525 1.363 . S
C530 C529 1.415 . S
C531 H507 0.951 . S
C531 C532 1.366 . S
C531 C533 1.388 . S
C532 C531 1.366 . S
C532 C536 1.385 . S
C533 H508 0.951 . S
C533 C531 1.388 . S
C533 C534 1.366 . S
C534 C533 1.366 . S
C534 C535 1.414 . S
C534 C537 1.499 . S
C535 H509 0.950 . S
C535 C534 1.414 . S
C535 C536 1.374 . S
C536 H510 0.950 . S
C536 C532 1.385 . S
C536 C535 1.374 . S
C537 C534 1.499 . S
C537 C538 1.373 . S
C537 C539 1.389 . S
C538 H511 0.950 . S
C538 C524 1.377 . S
C538 C537 1.373 . S
C539 C523 1.377 . S
C539 C537 1.389 . S
C539 C540 1.524 . S
C540 C539 1.524 . S
C540 C541 1.397 . S
C540 C545 1.363 . S
C541 H512 0.950 . S
C541 C540 1.397 . S
C541 C542 1.334 . S
C542 H513 0.950 . S
C542 C541 1.334 . S
C542 C543 1.287 . S
C543 C542 1.287 . S
C543 C544 1.524 . S
C543 H546 0.999 . S
C544 H514 0.950 . S
C544 C543 1.524 . S
C544 C545 1.415 . S
C545 H515 0.950 . S
C545 C540 1.363 . S
C545 C544 1.415 . S
H546 C543 0.999 . S
H547 C528 0.913 . S
H548 C566 0.951 . S
H549 C568 0.951 . S
H550 C570 0.950 . S
H551 C571 0.950 . S
H552 C573 0.950 . S
H553 C576 0.950 . S
H554 C577 0.950 . S
H555 C579 0.950 . S
H556 C580 0.950 . S
H557 C581 0.951 . S
H558 C583 0.951 . S
H559 C585 0.950 . S
H560 C586 0.950 . S
H561 C588 0.950 . S
H562 C591 0.950 . S
H563 C592 0.950 . S
H564 C594 0.950 . S
H565 C595 0.950 . S
C566 H548 0.951 . S
C566 C567 1.366 . S
C566 C568 1.388 . S
C567 C566 1.366 . S
C567 C571 1.385 . S
C568 H549 0.951 . S
C568 C566 1.388 . S
C568 C569 1.366 . S
C569 C568 1.366 . S
C569 C570 1.414 . S
C569 C572 1.499 . S
C570 H550 0.950 . S
C570 C569 1.414 . S
C570 C571 1.374 . S
C571 H551 0.950 . S
C571 C567 1.385 . S
C571 C570 1.374 . S
C572 C569 1.499 . S
C572 C573 1.373 . S
C572 C574 1.389 . S
C573 H552 0.950 . S
C573 C572 1.373 . S
C573 C589 1.377 . S
C574 C572 1.389 . S
C574 C575 1.524 . S
C574 C588 1.377 . S
C575 C574 1.524 . S
C575 C576 1.397 . S
C575 C580 1.363 . S
C576 H553 0.950 . S
C576 C575 1.397 . S
C576 C577 1.334 . S
C577 H554 0.950 . S
C577 C576 1.334 . S
C577 C578 1.287 . S
C578 C577 1.287 . S
C578 C579 1.524 . S
C578 H597 0.913 . S
C579 H555 0.950 . S
C579 C578 1.524 . S
C579 C580 1.415 . S
C580 H556 0.950 . S
C580 C575 1.363 . S
C580 C579 1.415 . S
C581 H557 0.951 . S
C581 C582 1.366 . S
C581 C583 1.388 . S
C582 C581 1.366 . S
C582 C586 1.385 . S
C583 H558 0.951 . S
C583 C581 1.388 . S
C583 C584 1.366 . S
C584 C583 1.366 . S
C584 C585 1.414 . S
C584 C587 1.499 . S
C585 H559 0.950 . S
C585 C584 1.414 . S
C585 C586 1.374 . S
C586 H560 0.950 . S
C586 C582 1.385 . S
C586 C585 1.374 . S
C587 C584 1.499 . S
C587 C588 1.373 . S
C587 C589 1.389 . S
C588 H561 0.950 . S
C588 C574 1.377 . S
C588 C587 1.373 . S
C589 C573 1.377 . S
C589 C587 1.389 . S
C589 C590 1.524 . S
C590 C589 1.524 . S
C590 C591 1.397 . S
C590 C595 1.363 . S
C591 H562 0.950 . S
C591 C590 1.397 . S
C591 C592 1.334 . S
C592 H563 0.950 . S
C592 C591 1.334 . S
C592 C593 1.287 . S
C593 C592 1.287 . S
C593 C594 1.524 . S
C593 H596 0.999 . S
C594 H564 0.950 . S
C594 C593 1.524 . S
C594 C595 1.415 . S
C595 H565 0.950 . S
C595 C590 1.363 . S
C595 C594 1.415 . S
H596 C593 0.999 . S
H597 C578 0.913 . S
H598 C616 0.951 . S
H599 C618 0.951 . S
H600 C620 0.950 . S
H601 C621 0.950 . S
H602 C623 0.950 . S
H603 C626 0.950 . S
H604 C627 0.950 . S
H605 C629 0.950 . S
H606 C630 0.950 . S
H607 C631 0.951 . S
H608 C633 0.951 . S
H609 C635 0.950 . S
H610 C636 0.950 . S
H611 C638 0.950 . S
H612 C641 0.950 . S
H613 C642 0.950 . S
H614 C644 0.950 . S
H615 C645 0.950 . S
C616 H598 0.951 . S
C616 C617 1.366 . S
C616 C618 1.388 . S
C617 C616 1.366 . S
C617 C621 1.385 . S
C618 H599 0.951 . S
C618 C616 1.388 . S
C618 C619 1.366 . S
C619 C618 1.366 . S
C619 C620 1.414 . S
C619 C622 1.499 . S
C620 H600 0.950 . S
C620 C619 1.414 . S
C620 C621 1.374 . S
C621 H601 0.950 . S
C621 C617 1.385 . S
C621 C620 1.374 . S
C622 C619 1.499 . S
C622 C623 1.373 . S
C622 C624 1.389 . S
C623 H602 0.950 . S
C623 C622 1.373 . S
C623 C639 1.377 . S
C624 C622 1.389 . S
C624 C625 1.524 . S
C624 C638 1.377 . S
C625 C624 1.524 . S
C625 C626 1.397 . S
C625 C630 1.363 . S
C626 H603 0.950 . S
C626 C625 1.397 . S
C626 C627 1.334 . S
C627 H604 0.950 . S
C627 C626 1.334 . S
C627 C628 1.287 . S
C628 C627 1.287 . S
C628 C629 1.524 . S
C628 H647 0.913 . S
C629 H605 0.950 . S
C629 C628 1.524 . S
C629 C630 1.415 . S
C630 H606 0.950 . S
C630 C625 1.363 . S
C630 C629 1.415 . S
C631 H607 0.951 . S
C631 C632 1.366 . S
C631 C633 1.388 . S
C632 C631 1.366 . S
C632 C636 1.385 . S
C633 H608 0.951 . S
C633 C631 1.388 . S
C633 C634 1.366 . S
C634 C633 1.366 . S
C634 C635 1.414 . S
C634 C637 1.499 . S
C635 H609 0.950 . S
C635 C634 1.414 . S
C635 C636 1.374 . S
C636 H610 0.950 . S
C636 C632 1.385 . S
C636 C635 1.374 . S
C637 C634 1.499 . S
C637 C638 1.373 . S
C637 C639 1.389 . S
C638 H611 0.950 . S
C638 C624 1.377 . S
C638 C637 1.373 . S
C639 C623 1.377 . S
C639 C637 1.389 . S
C639 C640 1.524 . S
C640 C639 1.524 . S
C640 C641 1.397 . S
C640 C645 1.363 . S
C641 H612 0.950 . S
C641 C640 1.397 . S
C641 C642 1.334 . S
C642 H613 0.950 . S
C642 C641 1.334 . S
C642 C643 1.287 . S
C643 C642 1.287 . S
C643 C644 1.524 . S
C643 H646 0.999 . S
C644 H614 0.950 . S
C644 C643 1.524 . S
C644 C645 1.415 . S
C645 H615 0.950 . S
C645 C640 1.363 . S
C645 C644 1.415 . S
H646 C643 0.999 . S
H647 C628 0.913 . S
H648 C666 0.951 . S
H649 C668 0.951 . S
H650 C670 0.950 . S
H651 C671 0.950 . S
H652 C673 0.950 . S
H653 C676 0.950 . S
H654 C677 0.950 . S
H655 C679 0.950 . S
H656 C680 0.950 . S
H657 C681 0.951 . S
H658 C683 0.951 . S
H659 C685 0.950 . S
H660 C686 0.950 . S
H661 C688 0.950 . S
H662 C691 0.950 . S
H663 C692 0.950 . S
H664 C694 0.950 . S
H665 C695 0.950 . S
C666 H648 0.951 . S
C666 C667 1.366 . S
C666 C668 1.388 . S
C667 C666 1.366 . S
C667 C671 1.385 . S
C668 H649 0.951 . S
C668 C666 1.388 . S
C668 C669 1.366 . S
C669 C668 1.366 . S
C669 C670 1.414 . S
C669 C672 1.499 . S
C670 H650 0.950 . S
C670 C669 1.414 . S
C670 C671 1.374 . S
C671 H651 0.950 . S
C671 C667 1.385 . S
C671 C670 1.374 . S
C672 C669 1.499 . S
C672 C673 1.373 1_655 S
C672 C674 1.389 . S
C673 H652 0.950 . S
C673 C672 1.373 1_455 S
C673 C689 1.377 . S
C674 C672 1.389 . S
C674 C675 1.524 . S
C674 C688 1.377 . S
C675 C674 1.524 . S
C675 C676 1.397 . S
C675 C680 1.363 . S
C676 H653 0.950 . S
C676 C675 1.397 . S
C676 C677 1.334 . S
C677 H654 0.950 . S
C677 C676 1.334 . S
C677 C678 1.287 . S
C678 C677 1.287 . S
C678 C679 1.524 . S
C678 H697 0.913 . S
C679 H655 0.950 . S
C679 C678 1.524 . S
C679 C680 1.415 . S
C680 H656 0.950 . S
C680 C675 1.363 . S
C680 C679 1.415 . S
C681 H657 0.951 . S
C681 C682 1.366 . S
C681 C683 1.388 . S
C682 C681 1.366 . S
C682 C686 1.385 . S
C683 H658 0.951 . S
C683 C681 1.388 . S
C683 C684 1.366 . S
C684 C683 1.366 . S
C684 C685 1.414 . S
C684 C687 1.499 . S
C685 H659 0.950 . S
C685 C684 1.414 . S
C685 C686 1.374 . S
C686 H660 0.950 . S
C686 C682 1.385 . S
C686 C685 1.374 . S
C687 C684 1.499 . S
C687 C688 1.373 1_455 S
C687 C689 1.389 . S
C688 H661 0.950 . S
C688 C674 1.377 . S
C688 C687 1.373 1_655 S
C689 C673 1.377 . S
C689 C687 1.389 . S
C689 C690 1.524 . S
C690 C689 1.524 . S
C690 C691 1.397 . S
C690 C695 1.363 . S
C691 H662 0.950 . S
C691 C690 1.397 . S
C691 C692 1.334 . S
C692 H663 0.950 . S
C692 C691 1.334 . S
C692 C693 1.287 . S
C693 C692 1.287 . S
C693 C694 1.524 . S
C693 H696 0.999 . S
C694 H664 0.950 . S
C694 C693 1.524 . S
C694 C695 1.415 . S
C695 H665 0.950 . S
C695 C690 1.363 . S
C695 C694 1.415 . S
H696 C693 0.999 . S
H697 C678 0.913 . S
H698 C716 0.951 . S
H699 C718 0.951 . S
H700 C720 0.950 . S
H701 C721 0.950 . S
H702 C723 0.950 . S
H703 C726 0.950 . S
H704 C727 0.950 . S
H705 C729 0.950 . S
H706 C730 0.950 . S
H707 C731 0.951 . S
H708 C733 0.951 . S
H709 C735 0.950 . S
H710 C736 0.950 . S
H711 C738 0.950 . S
H712 C741 0.950 . S
H713 C742 0.950 . S
H714 C744 0.950 . S
H715 C745 0.950 . S
C716 H698 0.951 . S
C716 C717 1.366 . S
C716 C718 1.388 . S
C717 C716 1.366 . S
C717 C721 1.385 . S
C718 H699 0.951 . S
C718 C716 1.388 . S
C718 C719 1.366 . S
C719 C718 1.366 . S
C719 C720 1.414 . S
C719 C722 1.499 . S
C720 H700 0.950 . S
C720 C719 1.414 . S
C720 C721 1.374 . S
C721 H701 0.950 . S
C721 C717 1.385 . S
C721 C720 1.374 . S
C722 C719 1.499 . S
C722 C723 1.373 . S
C722 C724 1.389 . S
C723 H702 0.950 . S
C723 C722 1.373 . S
C723 C739 1.377 . S
C724 C722 1.389 . S
C724 C725 1.524 . S
C724 C738 1.377 . S
C725 C724 1.524 . S
C725 C726 1.397 . S
C725 C730 1.363 . S
C726 H703 0.950 . S
C726 C725 1.397 . S
C726 C727 1.334 . S
C727 H704 0.950 . S
C727 C726 1.334 . S
C727 C728 1.287 . S
C728 C727 1.287 . S
C728 C729 1.524 . S
C728 H747 0.913 . S
C729 H705 0.950 . S
C729 C728 1.524 . S
C729 C730 1.415 . S
C730 H706 0.950 . S
C730 C725 1.363 . S
C730 C729 1.415 . S
C731 H707 0.951 . S
C731 C732 1.366 . S
C731 C733 1.388 . S
C732 C731 1.366 . S
C732 C736 1.385 . S
C733 H708 0.951 . S
C733 C731 1.388 . S
C733 C734 1.366 . S
C734 C733 1.366 . S
C734 C735 1.414 . S
C734 C737 1.499 . S
C735 H709 0.950 . S
C735 C734 1.414 . S
C735 C736 1.374 . S
C736 H710 0.950 . S
C736 C732 1.385 . S
C736 C735 1.374 . S
C737 C734 1.499 . S
C737 C738 1.373 . S
C737 C739 1.389 . S
C738 H711 0.950 . S
C738 C724 1.377 . S
C738 C737 1.373 . S
C739 C723 1.377 . S
C739 C737 1.389 . S
C739 C740 1.524 . S
C740 C739 1.524 . S
C740 C741 1.397 . S
C740 C745 1.363 . S
C741 H712 0.950 . S
C741 C740 1.397 . S
C741 C742 1.334 . S
C742 H713 0.950 . S
C742 C741 1.334 . S
C742 C743 1.287 . S
C743 C742 1.287 . S
C743 C744 1.524 . S
C743 H746 0.999 . S
C744 H714 0.950 . S
C744 C743 1.524 . S
C744 C745 1.415 . S
C745 H715 0.950 . S
C745 C740 1.363 . S
C745 C744 1.415 . S
H746 C743 0.999 . S
H747 C728 0.913 . S
H748 C766 0.951 . S
H749 C768 0.951 . S
H750 C770 0.950 . S
H751 C771 0.950 . S
H752 C773 0.950 . S
H753 C776 0.950 . S
H754 C777 0.950 . S
H755 C779 0.950 . S
H756 C780 0.924 1_556 S
H757 C781 0.951 . S
H758 C783 0.951 . S
H759 C785 0.950 . S
H760 C786 0.950 . S
H761 C788 0.950 . S
H762 C791 0.950 . S
H763 C792 0.950 . S
H764 C794 0.950 . S
H765 C795 0.924 1_554 S
C766 H748 0.951 . S
C766 C767 1.366 . S
C766 C768 1.388 . S
C767 C766 1.366 . S
C767 C771 1.385 . S
C768 H749 0.951 . S
C768 C766 1.388 . S
C768 C769 1.366 . S
C769 C768 1.366 . S
C769 C770 1.414 . S
C769 C772 1.499 . S
C770 H750 0.950 . S
C770 C769 1.414 . S
C770 C771 1.374 . S
C771 H751 0.950 . S
C771 C767 1.385 . S
C771 C770 1.374 . S
C772 C769 1.499 . S
C772 C773 1.373 . S
C772 C774 1.389 1_556 S
C773 H752 0.950 . S
C773 C772 1.373 . S
C773 C789 1.377 . S
C774 C772 1.389 1_554 S
C774 C775 1.524 . S
C774 C788 1.377 . S
C775 C774 1.524 . S
C775 C776 1.397 . S
C775 C780 1.363 . S
C776 H753 0.950 . S
C776 C775 1.397 . S
C776 C777 1.334 . S
C777 H754 0.950 . S
C777 C776 1.334 . S
C777 C778 1.287 . S
C778 C777 1.287 . S
C778 C779 1.524 . S
C778 H797 0.913 . S
C779 H755 0.950 . S
C779 C778 1.524 . S
C779 C780 1.415 . S
C780 H756 0.924 1_554 S
C780 C775 1.363 . S
C780 C779 1.415 . S
C781 H757 0.951 . S
C781 C782 1.366 . S
C781 C783 1.388 . S
C782 C781 1.366 . S
C782 C786 1.385 . S
C783 H758 0.951 . S
C783 C781 1.388 . S
C783 C784 1.366 . S
C784 C783 1.366 . S
C784 C785 1.414 . S
C784 C787 1.499 . S
C785 H759 0.950 . S
C785 C784 1.414 . S
C785 C786 1.374 . S
C786 H760 0.950 . S
C786 C782 1.385 . S
C786 C785 1.374 . S
C787 C784 1.499 . S
C787 C788 1.373 . S
C787 C789 1.389 1_554 S
C788 H761 0.950 . S
C788 C774 1.377 . S
C788 C787 1.373 . S
C789 C773 1.377 . S
C789 C787 1.389 1_556 S
C789 C790 1.524 . S
C790 C789 1.524 . S
C790 C791 1.397 . S
C790 C795 1.363 . S
C791 H762 0.950 . S
C791 C790 1.397 . S
C791 C792 1.334 . S
C792 H763 0.950 . S
C792 C791 1.334 . S
C792 C793 1.287 . S
C793 C792 1.287 . S
C793 C794 1.524 . S
C793 H796 0.999 . S
C794 H764 0.950 . S
C794 C793 1.524 . S
C794 C795 1.415 . S
C795 H765 0.924 1_556 S
C795 C790 1.363 . S
C795 C794 1.415 . S
H796 C793 0.999 . S
H797 C778 0.913 . S
H798 C816 0.951 . S
H799 C818 0.951 . S
H800 C820 0.950 . S
H801 C821 0.950 . S
H802 C823 0.950 . S
H803 C826 0.950 . S
H804 C827 0.950 . S
H805 C829 0.950 . S
H806 C830 0.950 . S
H807 C831 0.951 . S
H808 C833 0.951 . S
H809 C835 0.950 . S
H810 C836 0.950 . S
H811 C838 0.950 . S
H812 C841 0.950 . S
H813 C842 0.950 . S
H814 C844 0.950 . S
H815 C845 0.950 . S
C816 H798 0.951 . S
C816 C817 1.366 . S
C816 C818 1.388 . S
C817 C816 1.366 . S
C817 C821 1.385 . S
C818 H799 0.951 . S
C818 C816 1.388 . S
C818 C819 1.366 . S
C819 C818 1.366 . S
C819 C820 1.414 . S
C819 C822 1.499 . S
C820 H800 0.950 . S
C820 C819 1.414 . S
C820 C821 1.374 . S
C821 H801 0.950 . S
C821 C817 1.385 . S
C821 C820 1.374 . S
C822 C819 1.499 . S
C822 C823 1.373 . S
C822 C824 1.389 . S
C823 H802 0.950 . S
C823 C822 1.373 . S
C823 C839 1.377 . S
C824 C822 1.389 . S
C824 C825 1.524 . S
C824 C838 1.377 . S
C825 C824 1.524 . S
C825 C826 1.397 . S
C825 C830 1.363 . S
C826 H803 0.950 . S
C826 C825 1.397 . S
C826 C827 1.334 . S
C827 H804 0.950 . S
C827 C826 1.334 . S
C827 C828 1.287 . S
C828 C827 1.287 . S
C828 C829 1.524 . S
C828 H847 0.913 . S
C829 H805 0.950 . S
C829 C828 1.524 . S
C829 C830 1.415 . S
C830 H806 0.950 . S
C830 C825 1.363 . S
C830 C829 1.415 . S
C831 H807 0.951 . S
C831 C832 1.366 . S
C831 C833 1.388 . S
C832 C831 1.366 . S
C832 C836 1.385 . S
C833 H808 0.951 . S
C833 C831 1.388 . S
C833 C834 1.366 . S
C834 C833 1.366 . S
C834 C835 1.414 . S
C834 C837 1.499 . S
C835 H809 0.950 . S
C835 C834 1.414 . S
C835 C836 1.374 . S
C836 H810 0.950 . S
C836 C832 1.385 . S
C836 C835 1.374 . S
C837 C834 1.499 . S
C837 C838 1.373 . S
C837 C839 1.389 . S
C838 H811 0.950 . S
C838 C824 1.377 . S
C838 C837 1.373 . S
C839 C823 1.377 . S
C839 C837 1.389 . S
C839 C840 1.524 . S
C840 C839 1.524 . S
C840 C841 1.397 . S
C840 C845 1.363 . S
C841 H812 0.950 . S
C841 C840 1.397 . S
C841 C842 1.334 . S
C842 H813 0.950 . S
C842 C841 1.334 . S
C842 C843 1.287 . S
C843 C842 1.287 . S
C843 C844 1.524 . S
C843 H846 0.999 . S
C844 H814 0.950 . S
C844 C843 1.524 . S
C844 C845 1.415 . S
C845 H815 0.950 . S
C845 C840 1.363 . S
C845 C844 1.415 . S
H846 C843 0.999 . S
H847 C828 0.913 . S
H848 C866 0.951 . S
H849 C868 0.951 . S
H850 C870 0.950 . S
H851 C871 0.950 . S
H852 C873 0.950 . S
H853 C876 0.950 . S
H854 C877 0.950 . S
H855 C879 0.950 . S
H856 C880 0.950 . S
H857 C881 0.951 . S
H858 C883 0.951 . S
H859 C885 0.950 . S
H860 C886 0.950 . S
H861 C888 0.950 . S
H862 C891 0.950 . S
H863 C892 0.950 . S
H864 C894 0.950 . S
H865 C895 0.950 . S
C866 H848 0.951 . S
C866 C867 1.366 . S
C866 C868 1.388 . S
C867 C866 1.366 . S
C867 C871 1.385 . S
C868 H849 0.951 . S
C868 C866 1.388 . S
C868 C869 1.366 . S
C869 C868 1.366 . S
C869 C870 1.414 . S
C869 C872 1.499 . S
C870 H850 0.950 . S
C870 C869 1.414 . S
C870 C871 1.374 . S
C871 H851 0.950 . S
C871 C867 1.385 . S
C871 C870 1.374 . S
C872 C869 1.499 . S
C872 C873 1.373 . S
C872 C874 1.389 . S
C873 H852 0.950 . S
C873 C872 1.373 . S
C873 C889 1.377 . S
C874 C872 1.389 . S
C874 C875 1.524 . S
C874 C888 1.377 . S
C875 C874 1.524 . S
C875 C876 1.397 . S
C875 C880 1.363 . S
C876 H853 0.950 . S
C876 C875 1.397 . S
C876 C877 1.334 . S
C877 H854 0.950 . S
C877 C876 1.334 . S
C877 C878 1.287 . S
C878 C877 1.287 . S
C878 C879 1.524 . S
C878 H897 0.913 . S
C879 H855 0.950 . S
C879 C878 1.524 . S
C879 C880 1.415 . S
C880 H856 0.950 . S
C880 C875 1.363 . S
C880 C879 1.415 . S
C881 H857 0.951 . S
C881 C882 1.366 . S
C881 C883 1.388 . S
C882 C881 1.366 . S
C882 C886 1.385 . S
C883 H858 0.951 . S
C883 C881 1.388 . S
C883 C884 1.366 . S
C884 C883 1.366 . S
C884 C885 1.414 . S
C884 C887 1.499 . S
C885 H859 0.950 . S
C885 C884 1.414 . S
C885 C886 1.374 . S
C886 H860 0.950 . S
C886 C882 1.385 . S
C886 C885 1.374 . S
C887 C884 1.499 . S
C887 C888 1.373 . S
C887 C889 1.389 . S
C888 H861 0.950 . S
C888 C874 1.377 . S
C888 C887 1.373 . S
C889 C873 1.377 . S
C889 C887 1.389 . S
C889 C890 1.524 . S
C890 C889 1.524 . S
C890 C891 1.397 . S
C890 C895 1.363 . S
C891 H862 0.950 . S
C891 C890 1.397 . S
C891 C892 1.334 . S
C892 H863 0.950 . S
C892 C891 1.334 . S
C892 C893 1.287 . S
C893 C892 1.287 . S
C893 C894 1.524 . S
C893 H896 0.999 . S
C894 H864 0.950 . S
C894 C893 1.524 . S
C894 C895 1.415 . S
C895 H865 0.950 . S
C895 C890 1.363 . S
C895 C894 1.415 . S
H896 C893 0.999 . S
H897 C878 0.913 . S
H898 C916 0.951 . S
H899 C918 0.951 . S
H900 C920 0.950 . S
H901 C921 0.950 . S
H902 C923 0.950 . S
H903 C926 0.950 . S
H904 C927 0.950 . S
H905 C929 0.950 . S
H906 C930 0.950 . S
H907 C931 0.951 . S
H908 C933 0.951 . S
H909 C935 0.950 . S
H910 C936 0.950 . S
H911 C938 0.950 . S
H912 C941 0.950 . S
H913 C942 0.950 . S
H914 C944 0.950 . S
H915 C945 0.950 . S
C916 H898 0.951 . S
C916 C917 1.366 . S
C916 C918 1.388 . S
C917 C916 1.366 . S
C917 C921 1.385 . S
C918 H899 0.951 . S
C918 C916 1.388 . S
C918 C919 1.366 . S
C919 C918 1.366 . S
C919 C920 1.414 . S
C919 C922 1.499 . S
C920 H900 0.950 . S
C920 C919 1.414 . S
C920 C921 1.374 . S
C921 H901 0.950 . S
C921 C917 1.385 . S
C921 C920 1.374 . S
C922 C919 1.499 . S
C922 C923 1.373 . S
C922 C924 1.389 . S
C923 H902 0.950 . S
C923 C922 1.373 . S
C923 C939 1.377 . S
C924 C922 1.389 . S
C924 C925 1.524 . S
C924 C938 1.377 . S
C925 C924 1.524 . S
C925 C926 1.397 . S
C925 C930 1.363 . S
C926 H903 0.950 . S
C926 C925 1.397 . S
C926 C927 1.334 . S
C927 H904 0.950 . S
C927 C926 1.334 . S
C927 C928 1.287 . S
C928 C927 1.287 . S
C928 C929 1.524 . S
C928 H947 0.913 . S
C929 H905 0.950 . S
C929 C928 1.524 . S
C929 C930 1.415 . S
C930 H906 0.950 . S
C930 C925 1.363 . S
C930 C929 1.415 . S
C931 H907 0.951 . S
C931 C932 1.366 . S
C931 C933 1.388 . S
C932 C931 1.366 . S
C932 C936 1.385 . S
C933 H908 0.951 . S
C933 C931 1.388 . S
C933 C934 1.366 . S
C934 C933 1.366 . S
C934 C935 1.414 . S
C934 C937 1.499 . S
C935 H909 0.950 . S
C935 C934 1.414 . S
C935 C936 1.374 . S
C936 H910 0.950 . S
C936 C932 1.385 . S
C936 C935 1.374 . S
C937 C934 1.499 . S
C937 C938 1.373 . S
C937 C939 1.389 . S
C938 H911 0.950 . S
C938 C924 1.377 . S
C938 C937 1.373 . S
C939 C923 1.377 . S
C939 C937 1.389 . S
C939 C940 1.524 . S
C940 C939 1.524 . S
C940 C941 1.397 . S
C940 C945 1.363 . S
C941 H912 0.950 . S
C941 C940 1.397 . S
C941 C942 1.334 . S
C942 H913 0.950 . S
C942 C941 1.334 . S
C942 C943 1.287 . S
C943 C942 1.287 . S
C943 C944 1.524 . S
C943 H946 0.999 . S
C944 H914 0.950 . S
C944 C943 1.524 . S
C944 C945 1.415 . S
C945 H915 0.950 . S
C945 C940 1.363 . S
C945 C944 1.415 . S
H946 C943 0.999 . S
H947 C928 0.913 . S
H948 C966 0.951 . S
H949 C968 0.951 . S
H950 C970 0.950 . S
H951 C971 0.950 . S
H952 C973 0.950 . S
H953 C976 0.950 . S
H954 C977 0.950 . S
H955 C979 0.950 . S
H956 C980 0.950 . S
H957 C981 0.951 . S
H958 C983 0.951 . S
H959 C985 0.950 . S
H960 C986 0.950 . S
H961 C988 0.950 . S
H962 C991 0.950 . S
H963 C992 0.950 . S
H964 C994 0.950 . S
H965 C995 0.950 . S
C966 H948 0.951 . S
C966 C967 1.366 . S
C966 C968 1.388 . S
C967 C966 1.366 . S
C967 C971 1.385 . S
C968 H949 0.951 . S
C968 C966 1.388 . S
C968 C969 1.366 . S
C969 C968 1.366 . S
C969 C970 1.414 . S
C969 C972 1.499 . S
C970 H950 0.950 . S
C970 C969 1.414 . S
C970 C971 1.374 . S
C971 H951 0.950 . S
C971 C967 1.385 . S
C971 C970 1.374 . S
C972 C969 1.499 . S
C972 C973 1.373 . S
C972 C974 1.389 . S
C973 H952 0.950 . S
C973 C972 1.373 . S
C973 C989 1.377 . S
C974 C972 1.389 . S
C974 C975 1.524 . S
C974 C988 1.377 . S
C975 C974 1.524 . S
C975 C976 1.397 . S
C975 C980 1.363 . S
C976 H953 0.950 . S
C976 C975 1.397 . S
C976 C977 1.334 . S
C977 H954 0.950 . S
C977 C976 1.334 . S
C977 C978 1.287 . S
C978 C977 1.287 . S
C978 C979 1.524 . S
C978 H997 0.913 . S
C979 H955 0.950 . S
C979 C978 1.524 . S
C979 C980 1.415 . S
C980 H956 0.950 . S
C980 C975 1.363 . S
C980 C979 1.415 . S
C981 H957 0.951 . S
C981 C982 1.366 . S
C981 C983 1.388 . S
C982 C981 1.366 . S
C982 C986 1.385 . S
C983 H958 0.951 . S
C983 C981 1.388 . S
C983 C984 1.366 . S
C984 C983 1.366 . S
C984 C985 1.414 . S
C984 C987 1.499 . S
C985 H959 0.950 . S
C985 C984 1.414 . S
C985 C986 1.374 . S
C986 H960 0.950 . S
C986 C982 1.385 . S
C986 C985 1.374 . S
C987 C984 1.499 . S
C987 C988 1.373 . S
C987 C989 1.389 . S
C988 H961 0.950 . S
C988 C974 1.377 . S
C988 C987 1.373 . S
C989 C973 1.377 . S
C989 C987 1.389 . S
C989 C990 1.524 . S
C990 C989 1.524 . S
C990 C991 1.397 . S
C990 C995 1.363 . S
C991 H962 0.950 . S
C991 C990 1.397 . S
C991 C992 1.334 . S
C992 H963 0.950 . S
C992 C991 1.334 . S
C992 C993 1.287 . S
C993 C992 1.287 . S
C993 C994 1.524 . S
C993 H996 0.999 . S
C994 H964 0.950 . S
C994 C993 1.524 . S
C994 C995 1.415 . S
C995 H965 0.950 . S
C995 C990 1.363 . S
C995 C994 1.415 . S
H996 C993 0.999 . S
H997 C978 0.913 . S
H998 C1016 0.951 . S
H999 C1018 0.951 . S
H1000 C1020 0.950 . S
H1001 C1021 0.950 . S
H1002 C1023 0.950 . S
H1003 C1026 0.950 . S
H1004 C1027 0.950 . S
H1005 C1029 0.950 . S
H1006 C1030 0.950 . S
H1007 C1031 0.951 . S
H1008 C1033 0.951 . S
H1009 C1035 0.950 . S
H1010 C1036 0.950 . S
H1011 C1038 0.950 . S
H1012 C1041 0.950 . S
H1013 C1042 0.950 . S
H1014 C1044 0.950 . S
H1015 C1045 0.950 . S
C1016 H998 0.951 . S
C1016 C1017 1.366 . S
C1016 C1018 1.388 . S
C1017 C1016 1.366 . S
C1017 C1021 1.385 . S
C1018 H999 0.951 . S
C1018 C1016 1.388 . S
C1018 C1019 1.366 . S
C1019 C1018 1.366 . S
C1019 C1020 1.414 . S
C1019 C1022 1.499 . S
C1020 H1000 0.950 . S
C1020 C1019 1.414 . S
C1020 C1021 1.374 . S
C1021 H1001 0.950 . S
C1021 C1017 1.385 . S
C1021 C1020 1.374 . S
C1022 C1019 1.499 . S
C1022 C1023 1.373 . S
C1022 C1024 1.389 . S
C1023 H1002 0.950 . S
C1023 C1022 1.373 . S
C1023 C1039 1.377 . S
C1024 C1022 1.389 . S
C1024 C1025 1.524 . S
C1024 C1038 1.377 . S
C1025 C1024 1.524 . S
C1025 C1026 1.397 . S
C1025 C1030 1.363 . S
C1026 H1003 0.950 . S
C1026 C1025 1.397 . S
C1026 C1027 1.334 . S
C1027 H1004 0.950 . S
C1027 C1026 1.334 . S
C1027 C1028 1.287 . S
C1028 C1027 1.287 . S
C1028 C1029 1.524 . S
C1028 H1047 0.913 . S
C1029 H1005 0.950 . S
C1029 C1028 1.524 . S
C1029 C1030 1.415 . S
C1030 H1006 0.950 . S
C1030 C1025 1.363 . S
C1030 C1029 1.415 . S
C1031 H1007 0.951 . S
C1031 C1032 1.366 . S
C1031 C1033 1.388 . S
C1032 C1031 1.366 . S
C1032 C1036 1.385 . S
C1033 H1008 0.951 . S
C1033 C1031 1.388 . S
C1033 C1034 1.366 . S
C1034 C1033 1.366 . S
C1034 C1035 1.414 . S
C1034 C1037 1.499 . S
C1035 H1009 0.950 . S
C1035 C1034 1.414 . S
C1035 C1036 1.374 . S
C1036 H1010 0.950 . S
C1036 C1032 1.385 . S
C1036 C1035 1.374 . S
C1037 C1034 1.499 . S
C1037 C1038 1.373 . S
C1037 C1039 1.389 . S
C1038 H1011 0.950 . S
C1038 C1024 1.377 . S
C1038 C1037 1.373 . S
C1039 C1023 1.377 . S
C1039 C1037 1.389 . S
C1039 C1040 1.524 . S
C1040 C1039 1.524 . S
C1040 C1041 1.397 . S
C1040 C1045 1.363 . S
C1041 H1012 0.950 . S
C1041 C1040 1.397 . S
C1041 C1042 1.334 . S
C1042 H1013 0.950 . S
C1042 C1041 1.334 . S
C1042 C1043 1.287 . S
C1043 C1042 1.287 . S
C1043 C1044 1.524 . S
C1043 H1046 0.999 . S
C1044 H1014 0.950 . S
C1044 C1043 1.524 . S
C1044 C1045 1.415 . S
C1045 H1015 0.950 . S
C1045 C1040 1.363 . S
C1045 C1044 1.415 . S
H1046 C1043 0.999 . S
H1047 C1028 0.913 . S
H1048 C1066 0.951 . S
H1049 C1068 0.951 . S
H1050 C1070 0.950 . S
H1051 C1071 0.950 . S
H1052 C1073 0.950 . S
H1053 C1076 0.950 . S
H1054 C1077 0.950 . S
H1055 C1079 0.950 . S
H1056 C1080 0.950 . S
H1057 C1081 0.951 . S
H1058 C1083 0.951 . S
H1059 C1085 0.950 . S
H1060 C1086 0.950 . S
H1061 C1088 0.950 . S
H1062 C1091 0.950 . S
H1063 C1092 0.950 . S
H1064 C1094 0.950 . S
H1065 C1095 0.950 . S
C1066 H1048 0.951 . S
C1066 C1067 1.366 . S
C1066 C1068 1.388 . S
C1067 C1066 1.366 . S
C1067 C1071 1.385 . S
C1068 H1049 0.951 . S
C1068 C1066 1.388 . S
C1068 C1069 1.366 . S
C1069 C1068 1.366 . S
C1069 C1070 1.414 . S
C1069 C1072 1.499 . S
C1070 H1050 0.950 . S
C1070 C1069 1.414 . S
C1070 C1071 1.374 . S
C1071 H1051 0.950 . S
C1071 C1067 1.385 . S
C1071 C1070 1.374 . S
C1072 C1069 1.499 . S
C1072 C1073 1.373 . S
C1072 C1074 1.389 . S
C1073 H1052 0.950 . S
C1073 C1072 1.373 . S
C1073 C1089 1.377 1_565 S
C1074 C1072 1.389 . S
C1074 C1075 1.524 . S
C1074 C1088 1.377 1_565 S
C1075 C1074 1.524 . S
C1075 C1076 1.397 . S
C1075 C1080 1.363 1_565 S
C1076 H1053 0.950 . S
C1076 C1075 1.397 . S
C1076 C1077 1.334 . S
C1077 H1054 0.950 . S
C1077 C1076 1.334 . S
C1077 C1078 1.287 . S
C1078 C1077 1.287 . S
C1078 C1079 1.524 1_565 S
C1078 H1097 0.913 . S
C1079 H1055 0.950 . S
C1079 C1078 1.524 1_545 S
C1079 C1080 1.415 . S
C1080 H1056 0.950 . S
C1080 C1075 1.363 1_545 S
C1080 C1079 1.415 . S
C1081 H1057 0.951 . S
C1081 C1082 1.366 . S
C1081 C1083 1.388 . S
C1082 C1081 1.366 . S
C1082 C1086 1.385 . S
C1083 H1058 0.951 . S
C1083 C1081 1.388 . S
C1083 C1084 1.366 . S
C1084 C1083 1.366 . S
C1084 C1085 1.414 . S
C1084 C1087 1.499 . S
C1085 H1059 0.950 . S
C1085 C1084 1.414 . S
C1085 C1086 1.374 . S
C1086 H1060 0.950 . S
C1086 C1082 1.385 . S
C1086 C1085 1.374 . S
C1087 C1084 1.499 . S
C1087 C1088 1.373 . S
C1087 C1089 1.389 . S
C1088 H1061 0.950 . S
C1088 C1074 1.377 1_545 S
C1088 C1087 1.373 . S
C1089 C1073 1.377 1_545 S
C1089 C1087 1.389 . S
C1089 C1090 1.524 . S
C1090 C1089 1.524 . S
C1090 C1091 1.397 . S
C1090 C1095 1.363 1_545 S
C1091 H1062 0.950 . S
C1091 C1090 1.397 . S
C1091 C1092 1.334 . S
C1092 H1063 0.950 . S
C1092 C1091 1.334 . S
C1092 C1093 1.287 . S
C1093 C1092 1.287 . S
C1093 C1094 1.524 1_545 S
C1093 H1096 0.999 . S
C1094 H1064 0.950 . S
C1094 C1093 1.524 1_565 S
C1094 C1095 1.415 . S
C1095 H1065 0.950 . S
C1095 C1090 1.363 1_565 S
C1095 C1094 1.415 . S
H1096 C1093 0.999 . S
H1097 C1078 0.913 . S
H1098 C1116 0.951 . S
H1099 C1118 0.942 1_554 S
H1100 C1120 0.950 . S
H1101 C1121 0.950 . S
H1102 C1123 0.950 . S
H1103 C1126 0.950 . S
H1104 C1127 0.950 . S
H1105 C1129 0.950 . S
H1106 C1130 0.950 . S
H1107 C1131 0.951 . S
H1108 C1133 0.942 1_556 S
H1109 C1135 0.950 . S
H1110 C1136 0.950 . S
H1111 C1138 0.950 . S
H1112 C1141 0.950 . S
H1113 C1142 0.950 . S
H1114 C1144 0.950 . S
H1115 C1145 0.950 . S
C1116 H1098 0.951 . S
C1116 C1117 1.366 . S
C1116 C1118 1.388 . S
C1117 C1116 1.366 . S
C1117 C1121 1.385 . S
C1118 H1099 0.942 1_556 S
C1118 C1116 1.388 . S
C1118 C1119 1.366 . S
C1119 C1118 1.366 . S
C1119 C1120 1.414 . S
C1119 C1122 1.499 . S
C1120 H1100 0.950 . S
C1120 C1119 1.414 . S
C1120 C1121 1.374 . S
C1121 H1101 0.950 . S
C1121 C1117 1.385 . S
C1121 C1120 1.374 . S
C1122 C1119 1.499 . S
C1122 C1123 1.373 1_565 S
C1122 C1124 1.389 1_556 S
C1123 H1102 0.950 . S
C1123 C1122 1.373 1_545 S
C1123 C1139 1.377 1_455 S
C1124 C1122 1.389 1_554 S
C1124 C1125 1.524 . S
C1124 C1138 1.377 1_455 S
C1125 C1124 1.524 . S
C1125 C1126 1.397 . S
C1125 C1130 1.363 . S
C1126 H1103 0.950 . S
C1126 C1125 1.397 . S
C1126 C1127 1.334 . S
C1127 H1104 0.950 . S
C1127 C1126 1.334 . S
C1127 C1128 1.287 . S
C1128 C1127 1.287 . S
C1128 C1129 1.524 . S
C1128 H1147 0.913 . S
C1129 H1105 0.950 . S
C1129 C1128 1.524 . S
C1129 C1130 1.415 . S
C1130 H1106 0.950 . S
C1130 C1125 1.363 . S
C1130 C1129 1.415 . S
C1131 H1107 0.951 . S
C1131 C1132 1.366 . S
C1131 C1133 1.388 . S
C1132 C1131 1.366 . S
C1132 C1136 1.385 . S
C1133 H1108 0.942 1_554 S
C1133 C1131 1.388 . S
C1133 C1134 1.366 . S
C1134 C1133 1.366 . S
C1134 C1135 1.414 . S
C1134 C1137 1.499 . S
C1135 H1109 0.950 . S
C1135 C1134 1.414 . S
C1135 C1136 1.374 . S
C1136 H1110 0.950 . S
C1136 C1132 1.385 . S
C1136 C1135 1.374 . S
C1137 C1134 1.499 . S
C1137 C1138 1.373 1_545 S
C1137 C1139 1.389 1_554 S
C1138 H1111 0.950 . S
C1138 C1124 1.377 1_655 S
C1138 C1137 1.373 1_565 S
C1139 C1123 1.377 1_655 S
C1139 C1137 1.389 1_556 S
C1139 C1140 1.524 . S
C1140 C1139 1.524 . S
C1140 C1141 1.397 . S
C1140 C1145 1.363 . S
C1141 H1112 0.950 . S
C1141 C1140 1.397 . S
C1141 C1142 1.334 . S
C1142 H1113 0.950 . S
C1142 C1141 1.334 . S
C1142 C1143 1.287 . S
C1143 C1142 1.287 . S
C1143 C1144 1.524 . S
C1143 H1146 0.999 . S
C1144 H1114 0.950 . S
C1144 C1143 1.524 . S
C1144 C1145 1.415 . S
C1145 H1115 0.950 . S
C1145 C1140 1.363 . S
C1145 C1144 1.415 . S
H1146 C1143 0.999 . S
H1147 C1128 0.913 . S
H1148 C1166 0.951 . S
H1149 C1168 0.951 . S
H1150 C1170 0.950 . S
H1151 C1171 0.950 . S
H1152 C1173 0.950 . S
H1153 C1176 0.950 . S
H1154 C1177 0.950 . S
H1155 C1179 0.950 . S
H1156 C1180 0.950 . S
H1157 C1181 0.951 . S
H1158 C1183 0.951 . S
H1159 C1185 0.950 . S
H1160 C1186 0.950 . S
H1161 C1188 0.950 . S
H1162 C1191 0.950 . S
H1163 C1192 0.950 . S
H1164 C1194 0.950 . S
H1165 C1195 0.950 . S
C1166 H1148 0.951 . S
C1166 C1167 1.366 . S
C1166 C1168 1.388 . S
C1167 C1166 1.366 . S
C1167 C1171 1.385 . S
C1168 H1149 0.951 . S
C1168 C1166 1.388 . S
C1168 C1169 1.366 . S
C1169 C1168 1.366 . S
C1169 C1170 1.414 . S
C1169 C1172 1.499 . S
C1170 H1150 0.950 . S
C1170 C1169 1.414 . S
C1170 C1171 1.374 . S
C1171 H1151 0.950 . S
C1171 C1167 1.385 . S
C1171 C1170 1.374 . S
C1172 C1169 1.499 . S
C1172 C1173 1.373 . S
C1172 C1174 1.389 1_556 S
C1173 H1152 0.950 . S
C1173 C1172 1.373 . S
C1173 C1189 1.377 1_545 S
C1174 C1172 1.389 1_554 S
C1174 C1175 1.524 . S
C1174 C1188 1.377 1_545 S
C1175 C1174 1.524 . S
C1175 C1176 1.397 . S
C1175 C1180 1.363 . S
C1176 H1153 0.950 . S
C1176 C1175 1.397 . S
C1176 C1177 1.334 . S
C1177 H1154 0.950 . S
C1177 C1176 1.334 . S
C1177 C1178 1.287 . S
C1178 C1177 1.287 . S
C1178 C1179 1.524 . S
C1178 H1197 0.913 . S
C1179 H1155 0.950 . S
C1179 C1178 1.524 . S
C1179 C1180 1.415 . S
C1180 H1156 0.950 . S
C1180 C1175 1.363 . S
C1180 C1179 1.415 . S
C1181 H1157 0.951 . S
C1181 C1182 1.366 . S
C1181 C1183 1.388 . S
C1182 C1181 1.366 . S
C1182 C1186 1.385 . S
C1183 H1158 0.951 . S
C1183 C1181 1.388 . S
C1183 C1184 1.366 . S
C1184 C1183 1.366 . S
C1184 C1185 1.414 . S
C1184 C1187 1.499 . S
C1185 H1159 0.950 . S
C1185 C1184 1.414 . S
C1185 C1186 1.374 . S
C1186 H1160 0.950 . S
C1186 C1182 1.385 . S
C1186 C1185 1.374 . S
C1187 C1184 1.499 . S
C1187 C1188 1.373 . S
C1187 C1189 1.389 1_554 S
C1188 H1161 0.950 . S
C1188 C1174 1.377 1_565 S
C1188 C1187 1.373 . S
C1189 C1173 1.377 1_565 S
C1189 C1187 1.389 1_556 S
C1189 C1190 1.524 . S
C1190 C1189 1.524 . S
C1190 C1191 1.397 . S
C1190 C1195 1.363 . S
C1191 H1162 0.950 . S
C1191 C1190 1.397 . S
C1191 C1192 1.334 . S
C1192 H1163 0.950 . S
C1192 C1191 1.334 . S
C1192 C1193 1.287 . S
C1193 C1192 1.287 . S
C1193 C1194 1.524 . S
C1193 H1196 0.999 . S
C1194 H1164 0.950 . S
C1194 C1193 1.524 . S
C1194 C1195 1.415 . S
C1195 H1165 0.950 . S
C1195 C1190 1.363 . S
C1195 C1194 1.415 . S
H1196 C1193 0.999 . S
H1197 C1178 0.913 . S
H1198 C1216 0.951 . S
H1199 C1218 0.951 . S
H1200 C1220 0.950 . S
H1201 C1221 0.950 . S
H1202 C1223 0.950 . S
H1203 C1226 0.950 . S
H1204 C1227 0.950 . S
H1205 C1229 0.950 . S
H1206 C1230 0.950 . S
H1207 C1231 0.951 . S
H1208 C1233 0.951 . S
H1209 C1235 0.950 . S
H1210 C1236 0.950 . S
H1211 C1238 0.950 . S
H1212 C1241 0.950 . S
H1213 C1242 0.950 . S
H1214 C1244 0.950 . S
H1215 C1245 0.950 . S
C1216 H1198 0.951 . S
C1216 C1217 1.366 . S
C1216 C1218 1.388 . S
C1217 C1216 1.366 . S
C1217 C1221 1.385 . S
C1218 H1199 0.951 . S
C1218 C1216 1.388 . S
C1218 C1219 1.366 . S
C1219 C1218 1.366 . S
C1219 C1220 1.414 . S
C1219 C1222 1.499 . S
C1220 H1200 0.950 . S
C1220 C1219 1.414 . S
C1220 C1221 1.374 . S
C1221 H1201 0.950 . S
C1221 C1217 1.385 . S
C1221 C1220 1.374 . S
C1222 C1219 1.499 . S
C1222 C1223 1.373 1_545 S
C1222 C1224 1.389 1_455 S
C1223 H1202 0.950 . S
C1223 C1222 1.373 1_565 S
C1223 C1239 1.377 . S
C1224 C1222 1.389 1_655 S
C1224 C1225 1.524 . S
C1224 C1238 1.377 . S
C1225 C1224 1.524 . S
C1225 C1226 1.397 . S
C1225 C1230 1.363 . S
C1226 H1203 0.950 . S
C1226 C1225 1.397 . S
C1226 C1227 1.334 . S
C1227 H1204 0.950 . S
C1227 C1226 1.334 . S
C1227 C1228 1.287 . S
C1228 C1227 1.287 . S
C1228 C1229 1.524 . S
C1228 H1247 0.913 . S
C1229 H1205 0.950 . S
C1229 C1228 1.524 . S
C1229 C1230 1.415 . S
C1230 H1206 0.950 . S
C1230 C1225 1.363 . S
C1230 C1229 1.415 . S
C1231 H1207 0.951 . S
C1231 C1232 1.366 . S
C1231 C1233 1.388 . S
C1232 C1231 1.366 . S
C1232 C1236 1.385 . S
C1233 H1208 0.951 . S
C1233 C1231 1.388 . S
C1233 C1234 1.366 . S
C1234 C1233 1.366 . S
C1234 C1235 1.414 . S
C1234 C1237 1.499 . S
C1235 H1209 0.950 . S
C1235 C1234 1.414 . S
C1235 C1236 1.374 . S
C1236 H1210 0.950 . S
C1236 C1232 1.385 . S
C1236 C1235 1.374 . S
C1237 C1234 1.499 . S
C1237 C1238 1.373 1_565 S
C1237 C1239 1.389 1_655 S
C1238 H1211 0.950 . S
C1238 C1224 1.377 . S
C1238 C1237 1.373 1_545 S
C1239 C1223 1.377 . S
C1239 C1237 1.389 1_455 S
C1239 C1240 1.524 . S
C1240 C1239 1.524 . S
C1240 C1241 1.397 . S
C1240 C1245 1.363 . S
C1241 H1212 0.950 . S
C1241 C1240 1.397 . S
C1241 C1242 1.334 . S
C1242 H1213 0.950 . S
C1242 C1241 1.334 . S
C1242 C1243 1.287 . S
C1243 C1242 1.287 . S
C1243 C1244 1.524 . S
C1243 H1246 0.999 . S
C1244 H1214 0.950 . S
C1244 C1243 1.524 . S
C1244 C1245 1.415 . S
C1245 H1215 0.950 . S
C1245 C1240 1.363 . S
C1245 C1244 1.415 . S
H1246 C1243 0.999 . S
H1247 C1228 0.913 . S
H1248 C1266 0.951 . S
H1249 C1268 0.954 . S
H1250 C1270 0.950 . S
H1251 C1271 0.950 . S
H1252 C1273 0.950 . S
H1253 C1276 0.950 . S
H1254 C1277 0.950 . S
H1255 C1279 0.950 . S
H1256 C1280 0.950 . S
H1257 C1281 0.951 . S
H1258 C1283 0.953 . S
H1259 C1285 0.950 . S
H1260 C1286 0.950 . S
H1261 C1288 0.950 . S
H1262 C1291 0.950 . S
H1263 C1292 0.924 1_556 S
H1264 C1294 0.984 . S
H1265 C1295 0.950 . S
C1266 H1248 0.951 . S
C1266 C1267 1.366 . S
C1266 C1268 1.388 . S
C1267 C1266 1.366 . S
C1267 C1271 1.385 . S
C1268 H1249 0.954 . S
C1268 C1266 1.388 . S
C1268 C1269 1.366 . S
C1269 C1268 1.366 . S
C1269 C1270 1.414 . S
C1269 C1272 1.499 . S
C1270 H1250 0.950 . S
C1270 C1269 1.414 . S
C1270 C1271 1.374 . S
C1271 H1251 0.950 . S
C1271 C1267 1.385 . S
C1271 C1270 1.374 . S
C1272 C1269 1.499 . S
C1272 C1273 1.373 . S
C1272 C1274 1.389 1_655 S
C1273 H1252 0.950 . S
C1273 C1272 1.373 . S
C1273 C1289 1.377 . S
C1274 C1272 1.389 1_455 S
C1274 C1275 1.524 . S
C1274 C1288 1.377 . S
C1275 C1274 1.524 . S
C1275 C1276 1.397 1_455 S
C1275 C1280 1.363 . S
C1276 H1253 0.950 . S
C1276 C1275 1.397 1_655 S
C1276 C1277 1.334 . S
C1277 H1254 0.950 . S
C1277 C1276 1.334 . S
C1277 C1278 1.287 1_655 S
C1278 C1277 1.287 1_455 S
C1278 C1279 1.524 . S
C1278 H1297 0.913 . S
C1279 H1255 0.950 . S
C1279 C1278 1.524 . S
C1279 C1280 1.415 . S
C1280 H1256 0.950 . S
C1280 C1275 1.363 . S
C1280 C1279 1.415 . S
C1281 H1257 0.951 . S
C1281 C1282 1.366 . S
C1281 C1283 1.388 . S
C1282 C1281 1.366 . S
C1282 C1286 1.385 . S
C1283 H1258 0.953 . S
C1283 C1281 1.388 . S
C1283 C1284 1.366 . S
C1284 C1283 1.366 . S
C1284 C1285 1.414 . S
C1284 C1287 1.499 . S
C1285 H1259 0.950 . S
C1285 C1284 1.414 . S
C1285 C1286 1.374 . S
C1286 H1260 0.950 . S
C1286 C1282 1.385 . S
C1286 C1285 1.374 . S
C1287 C1284 1.499 . S
C1287 C1288 1.373 . S
C1287 C1289 1.389 1_455 S
C1288 H1261 0.950 . S
C1288 C1274 1.377 . S
C1288 C1287 1.373 . S
C1289 C1273 1.377 . S
C1289 C1287 1.389 1_655 S
C1289 C1290 1.524 . S
C1290 C1289 1.524 . S
C1290 C1291 1.397 1_655 S
C1290 C1295 1.363 . S
C1291 H1262 0.950 . S
C1291 C1290 1.397 1_455 S
C1291 C1292 1.334 . S
C1292 H1263 0.924 1_554 S
C1292 C1291 1.334 . S
C1292 C1293 1.287 1_454 S
C1293 C1292 1.287 1_656 S
C1293 C1294 1.524 1_556 S
C1293 H1296 0.999 . S
C1294 H1264 0.984 . S
C1294 C1293 1.524 1_554 S
C1294 C1295 1.415 . S
C1295 H1265 0.950 . S
C1295 C1290 1.363 . S
C1295 C1294 1.415 . S
H1296 C1293 0.999 . S
H1297 C1278 0.913 . S
H1298 C1316 0.951 . S
H1299 C1318 0.951 . S
H1300 C1320 0.950 . S
H1301 C1321 0.950 . S
H1302 C1323 0.950 . S
H1303 C1326 0.950 . S
H1304 C1327 0.950 . S
H1305 C1329 0.950 . S
H1306 C1330 0.950 . S
H1307 C1331 0.951 . S
H1308 C1333 0.951 . S
H1309 C1335 0.950 . S
H1310 C1336 0.950 . S
H1311 C1338 0.950 . S
H1312 C1341 0.950 . S
H1313 C1342 0.950 . S
H1314 C1344 0.950 . S
H1315 C1345 0.950 . S
C1316 H1298 0.951 . S
C1316 C1317 1.366 . S
C1316 C1318 1.388 . S
C1317 C1316 1.366 . S
C1317 C1321 1.385 . S
C1318 H1299 0.951 . S
C1318 C1316 1.388 . S
C1318 C1319 1.366 . S
C1319 C1318 1.366 . S
C1319 C1320 1.414 . S
C1319 C1322 1.499 . S
C1320 H1300 0.950 . S
C1320 C1319 1.414 . S
C1320 C1321 1.374 . S
C1321 H1301 0.950 . S
C1321 C1317 1.385 . S
C1321 C1320 1.374 . S
C1322 C1319 1.499 . S
C1322 C1323 1.373 . S
C1322 C1324 1.389 . S
C1323 H1302 0.950 . S
C1323 C1322 1.373 . S
C1323 C1339 1.376 1_455 S
C1324 C1322 1.389 . S
C1324 C1325 1.524 1_455 S
C1324 C1338 1.377 1_455 S
C1325 C1324 1.524 1_655 S
C1325 C1326 1.397 1_655 S
C1325 C1330 1.363 . S
C1326 H1303 0.950 . S
C1326 C1325 1.397 1_455 S
C1326 C1327 1.334 . S
C1327 H1304 0.950 . S
C1327 C1326 1.334 . S
C1327 C1328 1.287 1_455 S
C1328 C1327 1.287 1_655 S
C1328 C1329 1.524 . S
C1328 H1347 0.913 . S
C1329 H1305 0.950 . S
C1329 C1328 1.524 . S
C1329 C1330 1.415 . S
C1330 H1306 0.950 . S
C1330 C1325 1.363 . S
C1330 C1329 1.415 . S
C1331 H1307 0.951 . S
C1331 C1332 1.366 . S
C1331 C1333 1.388 . S
C1332 C1331 1.366 . S
C1332 C1336 1.385 . S
C1333 H1308 0.951 . S
C1333 C1331 1.388 . S
C1333 C1334 1.366 . S
C1334 C1333 1.366 . S
C1334 C1335 1.414 . S
C1334 C1337 1.499 . S
C1335 H1309 0.950 . S
C1335 C1334 1.414 . S
C1335 C1336 1.374 . S
C1336 H1310 0.950 . S
C1336 C1332 1.385 . S
C1336 C1335 1.374 . S
C1337 C1334 1.499 . S
C1337 C1338 1.373 . S
C1337 C1339 1.390 . S
C1338 H1311 0.950 . S
C1338 C1324 1.377 1_655 S
C1338 C1337 1.373 . S
C1339 C1323 1.376 1_655 S
C1339 C1337 1.390 . S
C1339 C1340 1.524 1_655 S
C1340 C1339 1.524 1_455 S
C1340 C1341 1.397 1_455 S
C1340 C1345 1.363 . S
C1341 H1312 0.950 . S
C1341 C1340 1.397 1_655 S
C1341 C1342 1.334 . S
C1342 H1313 0.950 . S
C1342 C1341 1.334 . S
C1342 C1343 1.287 1_655 S
C1343 C1342 1.287 1_455 S
C1343 C1344 1.524 . S
C1343 H1346 0.999 . S
C1344 H1314 0.950 . S
C1344 C1343 1.524 . S
C1344 C1345 1.415 . S
C1345 H1315 0.950 . S
C1345 C1340 1.363 . S
C1345 C1344 1.415 . S
H1346 C1343 0.999 . S
H1347 C1328 0.913 . S
H1348 C1366 0.951 . S
H1349 C1368 0.951 . S
H1350 C1370 0.950 . S
H1351 C1371 0.950 . S
H1352 C1373 0.950 . S
H1353 C1376 0.950 . S
H1354 C1377 0.950 . S
H1355 C1379 0.950 . S
H1356 C1380 0.950 . S
H1357 C1381 0.951 . S
H1358 C1383 0.951 . S
H1359 C1385 0.950 . S
H1360 C1386 0.950 . S
H1361 C1388 0.950 . S
H1362 C1391 0.950 . S
H1363 C1392 0.950 . S
H1364 C1394 0.950 . S
H1365 C1395 0.950 . S
C1366 H1348 0.951 . S
C1366 C1367 1.366 . S
C1366 C1368 1.388 . S
C1367 C1366 1.366 . S
C1367 C1371 1.385 . S
C1368 H1349 0.951 . S
C1368 C1366 1.388 . S
C1368 C1369 1.366 . S
C1369 C1368 1.366 . S
C1369 C1370 1.414 . S
C1369 C1372 1.499 . S
C1370 H1350 0.950 . S
C1370 C1369 1.414 . S
C1370 C1371 1.374 . S
C1371 H1351 0.950 . S
C1371 C1367 1.385 . S
C1371 C1370 1.374 . S
C1372 C1369 1.499 . S
C1372 C1373 1.373 . S
C1372 C1374 1.389 . S
C1373 H1352 0.950 . S
C1373 C1372 1.373 . S
C1373 C1389 1.377 . S
C1374 C1372 1.389 . S
C1374 C1375 1.524 . S
C1374 C1388 1.377 . S
C1375 C1374 1.524 . S
C1375 C1376 1.397 . S
C1375 C1380 1.363 . S
C1376 H1353 0.950 . S
C1376 C1375 1.397 . S
C1376 C1377 1.334 . S
C1377 H1354 0.950 . S
C1377 C1376 1.334 . S
C1377 C1378 1.287 . S
C1378 C1377 1.287 . S
C1378 C1379 1.524 . S
C1378 H1397 0.913 . S
C1379 H1355 0.950 . S
C1379 C1378 1.524 . S
C1379 C1380 1.415 . S
C1380 H1356 0.950 . S
C1380 C1375 1.363 . S
C1380 C1379 1.415 . S
C1381 H1357 0.951 . S
C1381 C1382 1.366 . S
C1381 C1383 1.388 . S
C1382 C1381 1.366 . S
C1382 C1386 1.385 . S
C1383 H1358 0.951 . S
C1383 C1381 1.388 . S
C1383 C1384 1.366 . S
C1384 C1383 1.366 . S
C1384 C1385 1.414 . S
C1384 C1387 1.499 . S
C1385 H1359 0.950 . S
C1385 C1384 1.414 . S
C1385 C1386 1.374 . S
C1386 H1360 0.950 . S
C1386 C1382 1.385 . S
C1386 C1385 1.374 . S
C1387 C1384 1.499 . S
C1387 C1388 1.373 . S
C1387 C1389 1.389 . S
C1388 H1361 0.950 . S
C1388 C1374 1.377 . S
C1388 C1387 1.373 . S
C1389 C1373 1.377 . S
C1389 C1387 1.389 . S
C1389 C1390 1.524 . S
C1390 C1389 1.524 . S
C1390 C1391 1.397 . S
C1390 C1395 1.363 . S
C1391 H1362 0.950 . S
C1391 C1390 1.397 . S
C1391 C1392 1.334 . S
C1392 H1363 0.950 . S
C1392 C1391 1.334 . S
C1392 C1393 1.287 . S
C1393 C1392 1.287 . S
C1393 C1394 1.524 . S
C1393 H1396 0.999 . S
C1394 H1364 0.950 . S
C1394 C1393 1.524 . S
C1394 C1395 1.415 . S
C1395 H1365 0.950 . S
C1395 C1390 1.363 . S
C1395 C1394 1.415 . S
H1396 C1393 0.999 . S
H1397 C1378 0.913 . S
H1398 C1416 0.951 . S
H1399 C1418 0.951 . S
H1400 C1420 0.950 . S
H1401 C1421 0.950 . S
H1402 C1423 0.950 . S
H1403 C1426 0.950 . S
H1404 C1427 0.950 . S
H1405 C1429 0.950 . S
H1406 C1430 0.950 . S
H1407 C1431 0.951 . S
H1408 C1433 0.951 . S
H1409 C1435 0.950 . S
H1410 C1436 0.950 . S
H1411 C1438 0.950 . S
H1412 C1441 0.950 . S
H1413 C1442 0.950 . S
H1414 C1444 0.950 . S
H1415 C1445 0.950 . S
C1416 H1398 0.951 . S
C1416 C1417 1.366 . S
C1416 C1418 1.388 . S
C1417 C1416 1.366 . S
C1417 C1421 1.385 . S
C1418 H1399 0.951 . S
C1418 C1416 1.388 . S
C1418 C1419 1.366 . S
C1419 C1418 1.366 . S
C1419 C1420 1.414 . S
C1419 C1422 1.499 . S
C1420 H1400 0.950 . S
C1420 C1419 1.414 . S
C1420 C1421 1.374 . S
C1421 H1401 0.950 . S
C1421 C1417 1.385 . S
C1421 C1420 1.374 . S
C1422 C1419 1.499 . S
C1422 C1423 1.373 . S
C1422 C1424 1.389 . S
C1423 H1402 0.950 . S
C1423 C1422 1.373 . S
C1423 C1439 1.377 . S
C1424 C1422 1.389 . S
C1424 C1425 1.524 . S
C1424 C1438 1.377 . S
C1425 C1424 1.524 . S
C1425 C1426 1.397 . S
C1425 C1430 1.363 . S
C1426 H1403 0.950 . S
C1426 C1425 1.397 . S
C1426 C1427 1.334 . S
C1427 H1404 0.950 . S
C1427 C1426 1.334 . S
C1427 C1428 1.287 . S
C1428 C1427 1.287 . S
C1428 C1429 1.524 . S
C1428 H1447 0.913 . S
C1429 H1405 0.950 . S
C1429 C1428 1.524 . S
C1429 C1430 1.415 . S
C1430 H1406 0.950 . S
C1430 C1425 1.363 . S
C1430 C1429 1.415 . S
C1431 H1407 0.951 . S
C1431 C1432 1.366 . S
C1431 C1433 1.388 . S
C1432 C1431 1.366 . S
C1432 C1436 1.385 . S
C1433 H1408 0.951 . S
C1433 C1431 1.388 . S
C1433 C1434 1.366 . S
C1434 C1433 1.366 . S
C1434 C1435 1.414 . S
C1434 C1437 1.499 . S
C1435 H1409 0.950 . S
C1435 C1434 1.414 . S
C1435 C1436 1.374 . S
C1436 H1410 0.950 . S
C1436 C1432 1.385 . S
C1436 C1435 1.374 . S
C1437 C1434 1.499 . S
C1437 C1438 1.373 . S
C1437 C1439 1.389 . S
C1438 H1411 0.950 . S
C1438 C1424 1.377 . S
C1438 C1437 1.373 . S
C1439 C1423 1.377 . S
C1439 C1437 1.389 . S
C1439 C1440 1.524 . S
C1440 C1439 1.524 . S
C1440 C1441 1.397 . S
C1440 C1445 1.363 . S
C1441 H1412 0.950 . S
C1441 C1440 1.397 . S
C1441 C1442 1.334 . S
C1442 H1413 0.950 . S
C1442 C1441 1.334 . S
C1442 C1443 1.287 . S
C1443 C1442 1.287 . S
C1443 C1444 1.524 . S
C1443 H1446 0.999 . S
C1444 H1414 0.950 . S
C1444 C1443 1.524 . S
C1444 C1445 1.415 . S
C1445 H1415 0.950 . S
C1445 C1440 1.363 . S
C1445 C1444 1.415 . S
H1446 C1443 0.999 . S
H1447 C1428 0.913 . S
H1448 C1466 0.951 . S
H1449 C1468 0.951 . S
H1450 C1470 0.950 . S
H1451 C1471 0.950 . S
H1452 C1473 0.950 . S
H1453 C1476 0.950 . S
H1454 C1477 0.950 . S
H1455 C1479 0.950 . S
H1456 C1480 0.950 1_655 S
H1457 C1481 0.951 . S
H1458 C1483 0.951 . S
H1459 C1485 0.950 . S
H1460 C1486 0.950 . S
H1461 C1488 0.950 . S
H1462 C1491 0.950 . S
H1463 C1492 0.950 . S
H1464 C1494 0.950 . S
H1465 C1495 0.950 1_455 S
C1466 H1448 0.951 . S
C1466 C1467 1.366 . S
C1466 C1468 1.388 . S
C1467 C1466 1.366 . S
C1467 C1471 1.385 . S
C1468 H1449 0.951 . S
C1468 C1466 1.388 . S
C1468 C1469 1.366 . S
C1469 C1468 1.366 . S
C1469 C1470 1.414 . S
C1469 C1472 1.499 . S
C1470 H1450 0.950 . S
C1470 C1469 1.414 . S
C1470 C1471 1.374 . S
C1471 H1451 0.950 . S
C1471 C1467 1.385 . S
C1471 C1470 1.374 . S
C1472 C1469 1.499 . S
C1472 C1473 1.373 . S
C1472 C1474 1.364 1_655 S
C1473 H1452 0.950 . S
C1473 C1472 1.373 . S
C1473 C1489 1.401 . S
C1474 C1472 1.364 1_455 S
C1474 C1475 1.532 . S
C1474 C1488 1.401 . S
C1475 C1474 1.532 . S
C1475 C1476 1.397 . S
C1475 C1480 1.363 . S
C1476 H1453 0.950 . S
C1476 C1475 1.397 . S
C1476 C1477 1.334 . S
C1477 H1454 0.950 . S
C1477 C1476 1.334 . S
C1477 C1478 1.287 . S
C1478 C1477 1.287 . S
C1478 C1479 1.524 . S
C1478 H1497 0.913 . S
C1479 H1455 0.950 . S
C1479 C1478 1.524 . S
C1479 C1480 1.415 . S
C1480 H1456 0.950 1_455 S
C1480 C1475 1.363 . S
C1480 C1479 1.415 . S
C1481 H1457 0.951 . S
C1481 C1482 1.366 . S
C1481 C1483 1.388 . S
C1482 C1481 1.366 . S
C1482 C1486 1.385 . S
C1483 H1458 0.951 . S
C1483 C1481 1.388 . S
C1483 C1484 1.366 . S
C1484 C1483 1.366 . S
C1484 C1485 1.414 . S
C1484 C1487 1.499 . S
C1485 H1459 0.950 . S
C1485 C1484 1.414 . S
C1485 C1486 1.374 . S
C1486 H1460 0.950 . S
C1486 C1482 1.385 . S
C1486 C1485 1.374 . S
C1487 C1484 1.499 . S
C1487 C1488 1.373 . S
C1487 C1489 1.363 1_455 S
C1488 H1461 0.950 . S
C1488 C1474 1.401 . S
C1488 C1487 1.373 . S
C1489 C1473 1.401 . S
C1489 C1487 1.363 1_655 S
C1489 C1490 1.532 . S
C1490 C1489 1.532 . S
C1490 C1491 1.397 . S
C1490 C1495 1.363 . S
C1491 H1462 0.950 . S
C1491 C1490 1.397 . S
C1491 C1492 1.334 . S
C1492 H1463 0.950 . S
C1492 C1491 1.334 . S
C1492 C1493 1.287 . S
C1493 C1492 1.287 . S
C1493 C1494 1.524 . S
C1493 H1496 0.999 . S
C1494 H1464 0.950 . S
C1494 C1493 1.524 . S
C1494 C1495 1.415 . S
C1495 H1465 0.950 1_655 S
C1495 C1490 1.363 . S
C1495 C1494 1.415 . S
H1496 C1493 0.999 . S
H1497 C1478 0.913 . S
H1498 C1516 0.951 . S
H1499 C1518 0.951 . S
H1500 C1520 0.950 . S
H1501 C1521 0.950 . S
H1502 C1523 0.950 . S
H1503 C1526 0.950 . S
H1504 C1527 0.950 . S
H1505 C1529 0.950 . S
H1506 C1530 0.950 . S
H1507 C1531 0.951 . S
H1508 C1533 0.951 . S
H1509 C1535 0.950 . S
H1510 C1536 0.950 . S
H1511 C1538 0.950 . S
H1512 C1541 0.950 . S
H1513 C1542 0.950 . S
H1514 C1544 0.950 . S
H1515 C1545 0.950 . S
C1516 H1498 0.951 . S
C1516 C1517 1.366 . S
C1516 C1518 1.388 . S
C1517 C1516 1.366 . S
C1517 C1521 1.385 . S
C1518 H1499 0.951 . S
C1518 C1516 1.388 . S
C1518 C1519 1.366 . S
C1519 C1518 1.366 . S
C1519 C1520 1.414 . S
C1519 C1522 1.499 . S
C1520 H1500 0.950 . S
C1520 C1519 1.414 . S
C1520 C1521 1.374 . S
C1521 H1501 0.950 . S
C1521 C1517 1.385 . S
C1521 C1520 1.374 . S
C1522 C1519 1.499 . S
C1522 C1523 1.373 . S
C1522 C1524 1.389 . S
C1523 H1502 0.950 . S
C1523 C1522 1.373 . S
C1523 C1539 1.377 . S
C1524 C1522 1.389 . S
C1524 C1525 1.524 . S
C1524 C1538 1.377 . S
C1525 C1524 1.524 . S
C1525 C1526 1.397 . S
C1525 C1530 1.363 . S
C1526 H1503 0.950 . S
C1526 C1525 1.397 . S
C1526 C1527 1.334 . S
C1527 H1504 0.950 . S
C1527 C1526 1.334 . S
C1527 C1528 1.287 . S
C1528 C1527 1.287 . S
C1528 C1529 1.524 . S
C1528 H1547 0.913 . S
C1529 H1505 0.950 . S
C1529 C1528 1.524 . S
C1529 C1530 1.415 . S
C1530 H1506 0.950 . S
C1530 C1525 1.363 . S
C1530 C1529 1.415 . S
C1531 H1507 0.951 . S
C1531 C1532 1.366 . S
C1531 C1533 1.388 . S
C1532 C1531 1.366 . S
C1532 C1536 1.385 . S
C1533 H1508 0.951 . S
C1533 C1531 1.388 . S
C1533 C1534 1.366 . S
C1534 C1533 1.366 . S
C1534 C1535 1.414 . S
C1534 C1537 1.499 . S
C1535 H1509 0.950 . S
C1535 C1534 1.414 . S
C1535 C1536 1.374 . S
C1536 H1510 0.950 . S
C1536 C1532 1.385 . S
C1536 C1535 1.374 . S
C1537 C1534 1.499 . S
C1537 C1538 1.373 . S
C1537 C1539 1.389 . S
C1538 H1511 0.950 . S
C1538 C1524 1.377 . S
C1538 C1537 1.373 . S
C1539 C1523 1.377 . S
C1539 C1537 1.389 . S
C1539 C1540 1.524 . S
C1540 C1539 1.524 . S
C1540 C1541 1.397 . S
C1540 C1545 1.363 . S
C1541 H1512 0.950 . S
C1541 C1540 1.397 . S
C1541 C1542 1.334 . S
C1542 H1513 0.950 . S
C1542 C1541 1.334 . S
C1542 C1543 1.287 . S
C1543 C1542 1.287 . S
C1543 C1544 1.524 . S
C1543 H1546 0.999 . S
C1544 H1514 0.950 . S
C1544 C1543 1.524 . S
C1544 C1545 1.415 . S
C1545 H1515 0.950 . S
C1545 C1540 1.363 . S
C1545 C1544 1.415 . S
H1546 C1543 0.999 . S
H1547 C1528 0.913 . S
H1548 C1566 0.951 . S
H1549 C1568 0.951 . S
H1550 C1570 0.950 . S
H1551 C1571 0.950 . S
H1552 C1573 0.950 . S
H1553 C1576 0.950 . S
H1554 C1577 0.950 . S
H1555 C1579 0.950 1_554 S
H1556 C1580 0.950 . S
H1557 C1581 0.951 . S
H1558 C1583 0.951 . S
H1559 C1585 0.950 . S
H1560 C1586 0.950 . S
H1561 C1588 0.950 . S
H1562 C1591 0.950 . S
H1563 C1592 0.950 . S
H1564 C1594 0.950 . S
H1565 C1595 0.950 . S
C1566 H1548 0.951 . S
C1566 C1567 1.366 . S
C1566 C1568 1.388 . S
C1567 C1566 1.366 . S
C1567 C1571 1.385 . S
C1568 H1549 0.951 . S
C1568 C1566 1.388 . S
C1568 C1569 1.366 . S
C1569 C1568 1.366 . S
C1569 C1570 1.414 . S
C1569 C1572 1.499 . S
C1570 H1550 0.950 . S
C1570 C1569 1.414 . S
C1570 C1571 1.374 . S
C1571 H1551 0.950 . S
C1571 C1567 1.385 . S
C1571 C1570 1.374 . S
C1572 C1569 1.499 . S
C1572 C1573 1.373 . S
C1572 C1574 1.389 . S
C1573 H1552 0.950 . S
C1573 C1572 1.373 . S
C1573 C1589 1.377 . S
C1574 C1572 1.389 . S
C1574 C1575 1.524 . S
C1574 C1588 1.377 . S
C1575 C1574 1.524 . S
C1575 C1576 1.397 . S
C1575 C1580 1.363 . S
C1576 H1553 0.950 . S
C1576 C1575 1.397 . S
C1576 C1577 1.334 . S
C1577 H1554 0.950 . S
C1577 C1576 1.334 . S
C1577 C1578 1.287 . S
C1578 C1577 1.287 . S
C1578 C1579 1.524 . S
C1578 H1597 0.913 . S
C1579 H1555 0.950 1_556 S
C1579 C1578 1.524 . S
C1579 C1580 1.415 . S
C1580 H1556 0.950 . S
C1580 C1575 1.363 . S
C1580 C1579 1.415 . S
C1581 H1557 0.951 . S
C1581 C1582 1.366 . S
C1581 C1583 1.388 . S
C1582 C1581 1.366 . S
C1582 C1586 1.385 . S
C1583 H1558 0.951 . S
C1583 C1581 1.388 . S
C1583 C1584 1.366 . S
C1584 C1583 1.366 . S
C1584 C1585 1.414 . S
C1584 C1587 1.499 . S
C1585 H1559 0.950 . S
C1585 C1584 1.414 . S
C1585 C1586 1.374 . S
C1586 H1560 0.950 . S
C1586 C1582 1.385 . S
C1586 C1585 1.374 . S
C1587 C1584 1.499 . S
C1587 C1588 1.373 . S
C1587 C1589 1.389 . S
C1588 H1561 0.950 . S
C1588 C1574 1.377 . S
C1588 C1587 1.373 . S
C1589 C1573 1.377 . S
C1589 C1587 1.389 . S
C1589 C1590 1.524 . S
C1590 C1589 1.524 . S
C1590 C1591 1.397 . S
C1590 C1595 1.363 . S
C1591 H1562 0.950 . S
C1591 C1590 1.397 . S
C1591 C1592 1.334 . S
C1592 H1563 0.950 . S
C1592 C1591 1.334 . S
C1592 C1593 1.287 . S
C1593 C1592 1.287 . S
C1593 C1594 1.524 . S
C1593 H1596 0.999 . S
C1594 H1564 0.950 . S
C1594 C1593 1.524 . S
C1594 C1595 1.415 . S
C1595 H1565 0.950 . S
C1595 C1590 1.363 . S
C1595 C1594 1.415 . S
H1596 C1593 0.999 . S
H1597 C1578 0.913 . S
H1598 C1616 0.951 . S
H1599 C1618 0.951 . S
H1600 C1620 0.950 . S
H1601 C1621 0.950 . S
H1602 C1623 0.950 . S
H1603 C1626 0.950 . S
H1604 C1627 0.950 . S
H1605 C1629 0.950 . S
H1606 C1630 0.950 . S
H1607 C1631 0.951 . S
H1608 C1633 0.951 . S
H1609 C1635 0.950 . S
H1610 C1636 0.950 . S
H1611 C1638 0.950 . S
H1612 C1641 0.950 . S
H1613 C1642 0.950 . S
H1614 C1644 0.950 . S
H1615 C1645 0.950 . S
C1616 H1598 0.951 . S
C1616 C1617 1.366 . S
C1616 C1618 1.388 . S
C1617 C1616 1.366 . S
C1617 C1621 1.385 . S
C1618 H1599 0.951 . S
C1618 C1616 1.388 . S
C1618 C1619 1.366 . S
C1619 C1618 1.366 . S
C1619 C1620 1.414 . S
C1619 C1622 1.499 . S
C1620 H1600 0.950 . S
C1620 C1619 1.414 . S
C1620 C1621 1.374 . S
C1621 H1601 0.950 . S
C1621 C1617 1.385 . S
C1621 C1620 1.374 . S
C1622 C1619 1.499 . S
C1622 C1623 1.373 . S
C1622 C1624 1.389 1_455 S
C1623 H1602 0.950 . S
C1623 C1622 1.373 . S
C1623 C1639 1.377 . S
C1624 C1622 1.389 1_655 S
C1624 C1625 1.524 . S
C1624 C1638 1.377 . S
C1625 C1624 1.524 . S
C1625 C1626 1.397 1_655 S
C1625 C1630 1.363 . S
C1626 H1603 0.950 . S
C1626 C1625 1.397 1_455 S
C1626 C1627 1.334 . S
C1627 H1604 0.950 . S
C1627 C1626 1.334 . S
C1627 C1628 1.287 1_455 S
C1628 C1627 1.287 1_655 S
C1628 C1629 1.524 . S
C1628 H1647 0.913 . S
C1629 H1605 0.950 . S
C1629 C1628 1.524 . S
C1629 C1630 1.415 . S
C1630 H1606 0.950 . S
C1630 C1625 1.363 . S
C1630 C1629 1.415 . S
C1631 H1607 0.951 . S
C1631 C1632 1.366 . S
C1631 C1633 1.388 . S
C1632 C1631 1.366 . S
C1632 C1636 1.385 . S
C1633 H1608 0.951 . S
C1633 C1631 1.388 . S
C1633 C1634 1.366 . S
C1634 C1633 1.366 . S
C1634 C1635 1.414 . S
C1634 C1637 1.499 . S
C1635 H1609 0.950 . S
C1635 C1634 1.414 . S
C1635 C1636 1.374 . S
C1636 H1610 0.950 . S
C1636 C1632 1.385 . S
C1636 C1635 1.374 . S
C1637 C1634 1.499 . S
C1637 C1638 1.373 . S
C1637 C1639 1.389 1_655 S
C1638 H1611 0.950 . S
C1638 C1624 1.377 . S
C1638 C1637 1.373 . S
C1639 C1623 1.377 . S
C1639 C1637 1.389 1_455 S
C1639 C1640 1.524 . S
C1640 C1639 1.524 . S
C1640 C1641 1.397 1_455 S
C1640 C1645 1.363 . S
C1641 H1612 0.950 . S
C1641 C1640 1.397 1_655 S
C1641 C1642 1.334 . S
C1642 H1613 0.950 . S
C1642 C1641 1.334 . S
C1642 C1643 1.287 1_655 S
C1643 C1642 1.287 1_455 S
C1643 C1644 1.524 . S
C1643 H1646 0.999 . S
C1644 H1614 0.950 . S
C1644 C1643 1.524 . S
C1644 C1645 1.415 . S
C1645 H1615 0.950 . S
C1645 C1640 1.363 . S
C1645 C1644 1.415 . S
H1646 C1643 0.999 . S
H1647 C1628 0.913 . S
H1648 C1666 0.951 . S
H1649 C1668 0.951 . S
H1650 C1670 0.950 . S
H1651 C1671 0.950 . S
H1652 C1673 0.950 . S
H1653 C1676 0.950 . S
H1654 C1677 0.981 . S
H1655 C1679 0.969 . S
H1656 C1680 0.950 . S
H1657 C1681 0.951 . S
H1658 C1683 0.951 . S
H1659 C1685 0.950 . S
H1660 C1686 0.950 . S
H1661 C1688 0.950 . S
H1662 C1691 0.950 . S
H1663 C1692 0.950 . S
H1664 C1694 0.950 . S
H1665 C1695 0.950 . S
C1666 H1648 0.951 . S
C1666 C1667 1.366 . S
C1666 C1668 1.388 . S
C1667 C1666 1.366 . S
C1667 C1671 1.385 . S
C1668 H1649 0.951 . S
C1668 C1666 1.388 . S
C1668 C1669 1.366 . S
C1669 C1668 1.366 . S
C1669 C1670 1.414 . S
C1669 C1672 1.499 . S
C1670 H1650 0.950 . S
C1670 C1669 1.414 . S
C1670 C1671 1.374 . S
C1671 H1651 0.950 . S
C1671 C1667 1.385 . S
C1671 C1670 1.374 . S
C1672 C1669 1.499 . S
C1672 C1673 1.373 . S
C1672 C1674 1.389 . S
C1673 H1652 0.950 . S
C1673 C1672 1.373 . S
C1673 C1689 1.377 1_655 S
C1674 C1672 1.389 . S
C1674 C1675 1.524 . S
C1674 C1688 1.377 1_655 S
C1675 C1674 1.524 . S
C1675 C1676 1.397 . S
C1675 C1680 1.363 1_655 S
C1676 H1653 0.950 . S
C1676 C1675 1.397 . S
C1676 C1677 1.334 . S
C1677 H1654 0.981 . S
C1677 C1676 1.334 . S
C1677 C1678 1.287 1_556 S
C1678 C1677 1.287 1_554 S
C1678 C1679 1.531 1_655 S
C1678 H1697 0.913 . S
C1679 H1655 0.969 . S
C1679 C1678 1.531 1_455 S
C1679 C1680 1.387 1_554 S
C1680 H1656 0.950 . S
C1680 C1675 1.363 1_455 S
C1680 C1679 1.387 1_556 S
C1681 H1657 0.951 . S
C1681 C1682 1.366 . S
C1681 C1683 1.388 . S
C1682 C1681 1.366 . S
C1682 C1686 1.385 . S
C1683 H1658 0.951 . S
C1683 C1681 1.388 . S
C1683 C1684 1.366 . S
C1684 C1683 1.366 . S
C1684 C1685 1.414 . S
C1684 C1687 1.499 . S
C1685 H1659 0.950 . S
C1685 C1684 1.414 . S
C1685 C1686 1.374 . S
C1686 H1660 0.950 . S
C1686 C1682 1.385 . S
C1686 C1685 1.374 . S
C1687 C1684 1.499 . S
C1687 C1688 1.373 . S
C1687 C1689 1.389 . S
C1688 H1661 0.950 . S
C1688 C1674 1.377 1_455 S
C1688 C1687 1.373 . S
C1689 C1673 1.377 1_455 S
C1689 C1687 1.389 . S
C1689 C1690 1.524 . S
C1690 C1689 1.524 . S
C1690 C1691 1.397 . S
C1690 C1695 1.363 1_455 S
C1691 H1662 0.950 . S
C1691 C1690 1.397 . S
C1691 C1692 1.334 . S
C1692 H1663 0.950 . S
C1692 C1691 1.334 . S
C1692 C1693 1.287 . S
C1693 C1692 1.287 . S
C1693 C1694 1.524 1_455 S
C1693 H1696 0.999 . S
C1694 H1664 0.950 . S
C1694 C1693 1.524 1_655 S
C1694 C1695 1.415 . S
C1695 H1665 0.950 . S
C1695 C1690 1.363 1_655 S
C1695 C1694 1.415 . S
H1696 C1693 0.999 . S
H1697 C1678 0.913 . S
H1698 C1716 0.951 . S
H1699 C1718 0.951 . S
H1700 C1720 0.950 . S
H1701 C1721 0.950 . S
H1702 C1723 0.950 . S
H1703 C1726 0.950 . S
H1704 C1727 0.950 . S
H1705 C1729 0.950 . S
H1706 C1730 0.950 . S
H1707 C1731 0.951 . S
H1708 C1733 0.951 . S
H1709 C1735 0.950 . S
H1710 C1736 0.950 . S
H1711 C1738 0.950 . S
H1712 C1741 0.950 . S
H1713 C1742 0.950 . S
H1714 C1744 0.950 . S
H1715 C1745 0.950 . S
C1716 H1698 0.951 . S
C1716 C1717 1.366 . S
C1716 C1718 1.388 . S
C1717 C1716 1.366 . S
C1717 C1721 1.385 . S
C1718 H1699 0.951 . S
C1718 C1716 1.388 . S
C1718 C1719 1.366 . S
C1719 C1718 1.366 . S
C1719 C1720 1.414 . S
C1719 C1722 1.499 . S
C1720 H1700 0.950 . S
C1720 C1719 1.414 . S
C1720 C1721 1.374 . S
C1721 H1701 0.950 . S
C1721 C1717 1.385 . S
C1721 C1720 1.374 . S
C1722 C1719 1.499 . S
C1722 C1723 1.400 . S
C1722 C1724 1.389 . S
C1723 H1702 0.950 . S
C1723 C1722 1.400 . S
C1723 C1739 1.349 1_655 S
C1724 C1722 1.389 . S
C1724 C1725 1.524 . S
C1724 C1738 1.348 1_655 S
C1725 C1724 1.524 . S
C1725 C1726 1.397 . S
C1725 C1730 1.363 . S
C1726 H1703 0.950 . S
C1726 C1725 1.397 . S
C1726 C1727 1.334 . S
C1727 H1704 0.950 . S
C1727 C1726 1.334 . S
C1727 C1728 1.287 . S
C1728 C1727 1.287 . S
C1728 C1729 1.524 . S
C1728 H1747 0.913 . S
C1729 H1705 0.950 . S
C1729 C1728 1.524 . S
C1729 C1730 1.415 . S
C1730 H1706 0.950 . S
C1730 C1725 1.363 . S
C1730 C1729 1.415 . S
C1731 H1707 0.951 . S
C1731 C1732 1.366 . S
C1731 C1733 1.388 . S
C1732 C1731 1.366 . S
C1732 C1736 1.385 . S
C1733 H1708 0.951 . S
C1733 C1731 1.388 . S
C1733 C1734 1.366 . S
C1734 C1733 1.366 . S
C1734 C1735 1.414 . S
C1734 C1737 1.499 . S
C1735 H1709 0.950 . S
C1735 C1734 1.414 . S
C1735 C1736 1.374 . S
C1736 H1710 0.950 . S
C1736 C1732 1.385 . S
C1736 C1735 1.374 . S
C1737 C1734 1.499 . S
C1737 C1738 1.401 . S
C1737 C1739 1.389 . S
C1738 H1711 0.950 . S
C1738 C1724 1.348 1_455 S
C1738 C1737 1.401 . S
C1739 C1723 1.349 1_455 S
C1739 C1737 1.389 . S
C1739 C1740 1.524 . S
C1740 C1739 1.524 . S
C1740 C1741 1.397 . S
C1740 C1745 1.363 . S
C1741 H1712 0.950 . S
C1741 C1740 1.397 . S
C1741 C1742 1.334 . S
C1742 H1713 0.950 . S
C1742 C1741 1.334 . S
C1742 C1743 1.287 . S
C1743 C1742 1.287 . S
C1743 C1744 1.524 . S
C1743 H1746 0.999 . S
C1744 H1714 0.950 . S
C1744 C1743 1.524 . S
C1744 C1745 1.415 . S
C1745 H1715 0.950 . S
C1745 C1740 1.363 . S
C1745 C1744 1.415 . S
H1746 C1743 0.999 . S
H1747 C1728 0.913 . S
H1748 C1766 0.951 . S
H1749 C1768 0.951 . S
H1750 C1770 0.950 . S
H1751 C1771 0.950 . S
H1752 C1773 0.950 . S
H1753 C1776 0.950 . S
H1754 C1777 0.950 . S
H1755 C1779 0.950 . S
H1756 C1780 0.950 . S
H1757 C1781 0.951 . S
H1758 C1783 0.951 . S
H1759 C1785 0.950 . S
H1760 C1786 0.950 . S
H1761 C1788 0.950 . S
H1762 C1791 0.950 . S
H1763 C1792 0.950 . S
H1764 C1794 0.950 . S
H1765 C1795 0.950 . S
C1766 H1748 0.951 . S
C1766 C1767 1.366 . S
C1766 C1768 1.388 . S
C1767 C1766 1.366 . S
C1767 C1771 1.385 . S
C1768 H1749 0.951 . S
C1768 C1766 1.388 . S
C1768 C1769 1.366 . S
C1769 C1768 1.366 . S
C1769 C1770 1.414 . S
C1769 C1772 1.499 . S
C1770 H1750 0.950 . S
C1770 C1769 1.414 . S
C1770 C1771 1.374 . S
C1771 H1751 0.950 . S
C1771 C1767 1.385 . S
C1771 C1770 1.374 . S
C1772 C1769 1.499 . S
C1772 C1773 1.373 . S
C1772 C1774 1.389 . S
C1773 H1752 0.950 . S
C1773 C1772 1.373 . S
C1773 C1789 1.377 . S
C1774 C1772 1.389 . S
C1774 C1775 1.524 . S
C1774 C1788 1.377 . S
C1775 C1774 1.524 . S
C1775 C1776 1.397 . S
C1775 C1780 1.363 . S
C1776 H1753 0.950 . S
C1776 C1775 1.397 . S
C1776 C1777 1.334 . S
C1777 H1754 0.950 . S
C1777 C1776 1.334 . S
C1777 C1778 1.287 . S
C1778 C1777 1.287 . S
C1778 C1779 1.524 . S
C1778 H1797 0.913 . S
C1779 H1755 0.950 . S
C1779 C1778 1.524 . S
C1779 C1780 1.415 . S
C1780 H1756 0.950 . S
C1780 C1775 1.363 . S
C1780 C1779 1.415 . S
C1781 H1757 0.951 . S
C1781 C1782 1.366 . S
C1781 C1783 1.388 . S
C1782 C1781 1.366 . S
C1782 C1786 1.385 . S
C1783 H1758 0.951 . S
C1783 C1781 1.388 . S
C1783 C1784 1.366 . S
C1784 C1783 1.366 . S
C1784 C1785 1.414 . S
C1784 C1787 1.499 . S
C1785 H1759 0.950 . S
C1785 C1784 1.414 . S
C1785 C1786 1.374 . S
C1786 H1760 0.950 . S
C1786 C1782 1.385 . S
C1786 C1785 1.374 . S
C1787 C1784 1.499 . S
C1787 C1788 1.373 . S
C1787 C1789 1.389 . S
C1788 H1761 0.950 . S
C1788 C1774 1.377 . S
C1788 C1787 1.373 . S
C1789 C1773 1.377 . S
C1789 C1787 1.389 . S
C1789 C1790 1.524 . S
C1790 C1789 1.524 . S
C1790 C1791 1.397 . S
C1790 C1795 1.363 . S
C1791 H1762 0.950 . S
C1791 C1790 1.397 . S
C1791 C1792 1.334 . S
C1792 H1763 0.950 . S
C1792 C1791 1.334 . S
C1792 C1793 1.287 . S
C1793 C1792 1.287 . S
C1793 C1794 1.524 . S
C1793 H1796 0.999 . S
C1794 H1764 0.950 . S
C1794 C1793 1.524 . S
C1794 C1795 1.415 . S
C1795 H1765 0.950 . S
C1795 C1790 1.363 . S
C1795 C1794 1.415 . S
H1796 C1793 0.999 . S
H1797 C1778 0.913 . S
H1798 C1816 0.951 . S
H1799 C1818 0.951 . S
H1800 C1820 0.950 . S
H1801 C1821 0.950 . S
H1802 C1823 0.950 . S
H1803 C1826 0.950 . S
H1804 C1827 0.950 . S
H1805 C1829 0.950 . S
H1806 C1830 0.950 . S
H1807 C1831 0.951 . S
H1808 C1833 0.951 . S
H1809 C1835 0.950 . S
H1810 C1836 0.950 . S
H1811 C1838 0.950 . S
H1812 C1841 0.950 . S
H1813 C1842 0.950 . S
H1814 C1844 0.950 . S
H1815 C1845 0.950 . S
C1816 H1798 0.951 . S
C1816 C1817 1.366 . S
C1816 C1818 1.388 . S
C1817 C1816 1.366 . S
C1817 C1821 1.385 . S
C1818 H1799 0.951 . S
C1818 C1816 1.388 . S
C1818 C1819 1.366 . S
C1819 C1818 1.366 . S
C1819 C1820 1.414 . S
C1819 C1822 1.499 . S
C1820 H1800 0.950 . S
C1820 C1819 1.414 . S
C1820 C1821 1.374 . S
C1821 H1801 0.950 . S
C1821 C1817 1.385 . S
C1821 C1820 1.374 . S
C1822 C1819 1.499 . S
C1822 C1823 1.373 . S
C1822 C1824 1.389 . S
C1823 H1802 0.950 . S
C1823 C1822 1.373 . S
C1823 C1839 1.377 . S
C1824 C1822 1.389 . S
C1824 C1825 1.524 . S
C1824 C1838 1.377 . S
C1825 C1824 1.524 . S
C1825 C1826 1.397 . S
C1825 C1830 1.363 . S
C1826 H1803 0.950 . S
C1826 C1825 1.397 . S
C1826 C1827 1.334 . S
C1827 H1804 0.950 . S
C1827 C1826 1.334 . S
C1827 C1828 1.287 . S
C1828 C1827 1.287 . S
C1828 C1829 1.524 . S
C1828 H1847 0.913 . S
C1829 H1805 0.950 . S
C1829 C1828 1.524 . S
C1829 C1830 1.415 . S
C1830 H1806 0.950 . S
C1830 C1825 1.363 . S
C1830 C1829 1.415 . S
C1831 H1807 0.951 . S
C1831 C1832 1.366 . S
C1831 C1833 1.388 . S
C1832 C1831 1.366 . S
C1832 C1836 1.385 . S
C1833 H1808 0.951 . S
C1833 C1831 1.388 . S
C1833 C1834 1.366 . S
C1834 C1833 1.366 . S
C1834 C1835 1.414 . S
C1834 C1837 1.499 . S
C1835 H1809 0.950 . S
C1835 C1834 1.414 . S
C1835 C1836 1.374 . S
C1836 H1810 0.950 . S
C1836 C1832 1.385 . S
C1836 C1835 1.374 . S
C1837 C1834 1.499 . S
C1837 C1838 1.373 . S
C1837 C1839 1.389 . S
C1838 H1811 0.950 . S
C1838 C1824 1.377 . S
C1838 C1837 1.373 . S
C1839 C1823 1.377 . S
C1839 C1837 1.389 . S
C1839 C1840 1.524 . S
C1840 C1839 1.524 . S
C1840 C1841 1.397 . S
C1840 C1845 1.363 . S
C1841 H1812 0.950 . S
C1841 C1840 1.397 . S
C1841 C1842 1.334 . S
C1842 H1813 0.950 . S
C1842 C1841 1.334 . S
C1842 C1843 1.287 . S
C1843 C1842 1.287 . S
C1843 C1844 1.524 . S
C1843 H1846 0.999 . S
C1844 H1814 0.950 . S
C1844 C1843 1.524 . S
C1844 C1845 1.415 . S
C1845 H1815 0.950 . S
C1845 C1840 1.363 . S
C1845 C1844 1.415 . S
H1846 C1843 0.999 . S
H1847 C1828 0.913 . S
H1848 C1866 0.951 . S
H1849 C1868 0.951 . S
H1850 C1870 0.950 . S
H1851 C1871 0.950 . S
H1852 C1873 0.950 . S
H1853 C1876 0.912 1_655 S
H1854 C1877 0.950 . S
H1855 C1879 0.950 . S
H1856 C1880 0.950 . S
H1857 C1881 0.951 . S
H1858 C1883 0.951 . S
H1859 C1885 0.950 . S
H1860 C1886 0.950 . S
H1861 C1888 0.950 . S
H1862 C1891 0.912 1_455 S
H1863 C1892 0.950 . S
H1864 C1894 0.950 . S
H1865 C1895 0.950 . S
C1866 H1848 0.951 . S
C1866 C1867 1.366 . S
C1866 C1868 1.388 . S
C1867 C1866 1.366 . S
C1867 C1871 1.385 . S
C1868 H1849 0.951 . S
C1868 C1866 1.388 . S
C1868 C1869 1.366 . S
C1869 C1868 1.366 . S
C1869 C1870 1.414 . S
C1869 C1872 1.499 . S
C1870 H1850 0.950 . S
C1870 C1869 1.414 . S
C1870 C1871 1.374 . S
C1871 H1851 0.950 . S
C1871 C1867 1.385 . S
C1871 C1870 1.374 . S
C1872 C1869 1.499 . S
C1872 C1873 1.373 . S
C1872 C1874 1.389 1_655 S
C1873 H1852 0.950 . S
C1873 C1872 1.373 . S
C1873 C1889 1.377 . S
C1874 C1872 1.389 1_455 S
C1874 C1875 1.524 . S
C1874 C1888 1.377 . S
C1875 C1874 1.524 . S
C1875 C1876 1.397 . S
C1875 C1880 1.363 . S
C1876 H1853 0.912 1_455 S
C1876 C1875 1.397 . S
C1876 C1877 1.334 . S
C1877 H1854 0.950 . S
C1877 C1876 1.334 . S
C1877 C1878 1.287 . S
C1878 C1877 1.287 . S
C1878 C1879 1.524 . S
C1878 H1897 0.913 . S
C1879 H1855 0.950 . S
C1879 C1878 1.524 . S
C1879 C1880 1.415 . S
C1880 H1856 0.950 . S
C1880 C1875 1.363 . S
C1880 C1879 1.415 . S
C1881 H1857 0.951 . S
C1881 C1882 1.366 . S
C1881 C1883 1.388 . S
C1882 C1881 1.366 . S
C1882 C1886 1.385 . S
C1883 H1858 0.951 . S
C1883 C1881 1.388 . S
C1883 C1884 1.366 . S
C1884 C1883 1.366 . S
C1884 C1885 1.414 . S
C1884 C1887 1.499 . S
C1885 H1859 0.950 . S
C1885 C1884 1.414 . S
C1885 C1886 1.374 . S
C1886 H1860 0.950 . S
C1886 C1882 1.385 . S
C1886 C1885 1.374 . S
C1887 C1884 1.499 . S
C1887 C1888 1.373 . S
C1887 C1889 1.389 1_455 S
C1888 H1861 0.950 . S
C1888 C1874 1.377 . S
C1888 C1887 1.373 . S
C1889 C1873 1.377 . S
C1889 C1887 1.389 1_655 S
C1889 C1890 1.524 . S
C1890 C1889 1.524 . S
C1890 C1891 1.397 . S
C1890 C1895 1.363 . S
C1891 H1862 0.912 1_655 S
C1891 C1890 1.397 . S
C1891 C1892 1.334 . S
C1892 H1863 0.950 . S
C1892 C1891 1.334 . S
C1892 C1893 1.287 . S
C1893 C1892 1.287 . S
C1893 C1894 1.524 . S
C1893 H1896 0.999 . S
C1894 H1864 0.950 . S
C1894 C1893 1.524 . S
C1894 C1895 1.415 . S
C1895 H1865 0.950 . S
C1895 C1890 1.363 . S
C1895 C1894 1.415 . S
H1896 C1893 0.999 . S
H1897 C1878 0.913 . S
H1898 C1916 0.951 . S
H1899 C1918 0.951 . S
H1900 C1920 0.950 . S
H1901 C1921 0.950 . S
H1902 C1923 0.950 . S
H1903 C1926 0.950 . S
H1904 C1927 0.950 . S
H1905 C1929 0.950 . S
H1906 C1930 0.950 . S
H1907 C1931 0.951 . S
H1908 C1933 0.951 . S
H1909 C1935 0.950 . S
H1910 C1936 0.950 . S
H1911 C1938 0.950 . S
H1912 C1941 0.950 . S
H1913 C1942 0.950 . S
H1914 C1944 0.950 . S
H1915 C1945 0.950 . S
C1916 H1898 0.951 . S
C1916 C1917 1.366 . S
C1916 C1918 1.388 . S
C1917 C1916 1.366 . S
C1917 C1921 1.385 . S
C1918 H1899 0.951 . S
C1918 C1916 1.388 . S
C1918 C1919 1.366 . S
C1919 C1918 1.366 . S
C1919 C1920 1.414 . S
C1919 C1922 1.499 . S
C1920 H1900 0.950 . S
C1920 C1919 1.414 . S
C1920 C1921 1.374 . S
C1921 H1901 0.950 . S
C1921 C1917 1.385 . S
C1921 C1920 1.374 . S
C1922 C1919 1.499 . S
C1922 C1923 1.373 . S
C1922 C1924 1.389 . S
C1923 H1902 0.950 . S
C1923 C1922 1.373 . S
C1923 C1939 1.377 . S
C1924 C1922 1.389 . S
C1924 C1925 1.524 . S
C1924 C1938 1.377 . S
C1925 C1924 1.524 . S
C1925 C1926 1.397 . S
C1925 C1930 1.363 . S
C1926 H1903 0.950 . S
C1926 C1925 1.397 . S
C1926 C1927 1.334 . S
C1927 H1904 0.950 . S
C1927 C1926 1.334 . S
C1927 C1928 1.287 . S
C1928 C1927 1.287 . S
C1928 C1929 1.524 . S
C1928 H1947 0.913 . S
C1929 H1905 0.950 . S
C1929 C1928 1.524 . S
C1929 C1930 1.415 . S
C1930 H1906 0.950 . S
C1930 C1925 1.363 . S
C1930 C1929 1.415 . S
C1931 H1907 0.951 . S
C1931 C1932 1.366 . S
C1931 C1933 1.388 . S
C1932 C1931 1.366 . S
C1932 C1936 1.385 . S
C1933 H1908 0.951 . S
C1933 C1931 1.388 . S
C1933 C1934 1.366 . S
C1934 C1933 1.366 . S
C1934 C1935 1.414 . S
C1934 C1937 1.499 . S
C1935 H1909 0.950 . S
C1935 C1934 1.414 . S
C1935 C1936 1.374 . S
C1936 H1910 0.950 . S
C1936 C1932 1.385 . S
C1936 C1935 1.374 . S
C1937 C1934 1.499 . S
C1937 C1938 1.373 . S
C1937 C1939 1.389 . S
C1938 H1911 0.950 . S
C1938 C1924 1.377 . S
C1938 C1937 1.373 . S
C1939 C1923 1.377 . S
C1939 C1937 1.389 . S
C1939 C1940 1.524 . S
C1940 C1939 1.524 . S
C1940 C1941 1.397 . S
C1940 C1945 1.363 . S
C1941 H1912 0.950 . S
C1941 C1940 1.397 . S
C1941 C1942 1.334 . S
C1942 H1913 0.950 . S
C1942 C1941 1.334 . S
C1942 C1943 1.287 . S
C1943 C1942 1.287 . S
C1943 C1944 1.524 . S
C1943 H1946 0.999 . S
C1944 H1914 0.950 . S
C1944 C1943 1.524 . S
C1944 C1945 1.415 . S
C1945 H1915 0.950 . S
C1945 C1940 1.363 . S
C1945 C1944 1.415 . S
H1946 C1943 0.999 . S
H1947 C1928 0.913 . S
H1948 C1966 0.951 . S
H1949 C1968 0.951 . S
H1950 C1970 0.950 . S
H1951 C1971 0.950 . S
H1952 C1973 0.950 . S
H1953 C1976 0.950 . S
H1954 C1977 0.950 . S
H1955 C1979 0.981 . S
H1956 C1980 0.950 . S
H1957 C1981 0.951 . S
H1958 C1983 0.951 . S
H1959 C1985 0.950 . S
H1960 C1986 0.950 . S
H1961 C1988 0.950 . S
H1962 C1991 0.950 . S
H1963 C1992 0.950 . S
H1964 C1994 0.950 . S
H1965 C1995 0.950 . S
C1966 H1948 0.951 . S
C1966 C1967 1.366 . S
C1966 C1968 1.388 . S
C1967 C1966 1.366 . S
C1967 C1971 1.385 . S
C1968 H1949 0.951 . S
C1968 C1966 1.388 . S
C1968 C1969 1.366 . S
C1969 C1968 1.366 . S
C1969 C1970 1.414 . S
C1969 C1972 1.499 . S
C1970 H1950 0.950 . S
C1970 C1969 1.414 . S
C1970 C1971 1.374 . S
C1971 H1951 0.950 . S
C1971 C1967 1.385 . S
C1971 C1970 1.374 . S
C1972 C1969 1.499 . S
C1972 C1973 1.373 . S
C1972 C1974 1.389 . S
C1973 H1952 0.950 . S
C1973 C1972 1.373 . S
C1973 C1989 1.377 . S
C1974 C1972 1.389 . S
C1974 C1975 1.524 . S
C1974 C1988 1.377 . S
C1975 C1974 1.524 . S
C1975 C1976 1.397 . S
C1975 C1980 1.363 . S
C1976 H1953 0.950 . S
C1976 C1975 1.397 . S
C1976 C1977 1.334 . S
C1977 H1954 0.950 . S
C1977 C1976 1.334 . S
C1977 C1978 1.287 . S
C1978 C1977 1.287 . S
C1978 C1979 1.514 1_554 S
C1978 H1997 0.913 1_554 S
C1979 H1955 0.981 . S
C1979 C1978 1.514 1_556 S
C1979 C1980 1.389 1_556 S
C1980 H1956 0.950 . S
C1980 C1975 1.363 . S
C1980 C1979 1.389 1_554 S
C1981 H1957 0.951 . S
C1981 C1982 1.366 . S
C1981 C1983 1.388 . S
C1982 C1981 1.366 . S
C1982 C1986 1.385 . S
C1983 H1958 0.951 . S
C1983 C1981 1.388 . S
C1983 C1984 1.366 . S
C1984 C1983 1.366 . S
C1984 C1985 1.414 . S
C1984 C1987 1.499 . S
C1985 H1959 0.950 . S
C1985 C1984 1.414 . S
C1985 C1986 1.374 . S
C1986 H1960 0.950 . S
C1986 C1982 1.385 . S
C1986 C1985 1.374 . S
C1987 C1984 1.499 . S
C1987 C1988 1.373 . S
C1987 C1989 1.389 . S
C1988 H1961 0.950 . S
C1988 C1974 1.377 . S
C1988 C1987 1.373 . S
C1989 C1973 1.377 . S
C1989 C1987 1.389 . S
C1989 C1990 1.524 . S
C1990 C1989 1.524 . S
C1990 C1991 1.397 . S
C1990 C1995 1.363 . S
C1991 H1962 0.950 . S
C1991 C1990 1.397 . S
C1991 C1992 1.334 . S
C1992 H1963 0.950 . S
C1992 C1991 1.334 . S
C1992 C1993 1.287 . S
C1993 C1992 1.287 . S
C1993 C1994 1.524 . S
C1993 H1996 0.999 . S
C1994 H1964 0.950 . S
C1994 C1993 1.524 . S
C1994 C1995 1.415 . S
C1995 H1965 0.950 . S
C1995 C1990 1.363 . S
C1995 C1994 1.415 . S
H1996 C1993 0.999 . S
H1997 C1978 0.913 1_556 S
H1998 C2016 0.951 . S
H1999 C2018 0.951 . S
H2000 C2020 0.950 . S
H2001 C2021 0.950 . S
H2002 C2023 0.950 . S
H2003 C2026 0.950 . S
H2004 C2027 0.950 . S
H2005 C2029 0.950 . S
H2006 C2030 0.950 . S
H2007 C2031 0.951 . S
H2008 C2033 0.951 . S
H2009 C2035 0.950 . S
H2010 C2036 0.950 . S
H2011 C2038 0.950 . S
H2012 C2041 0.950 . S
H2013 C2042 0.950 . S
H2014 C2044 0.950 . S
H2015 C2045 0.950 . S
C2016 H1998 0.951 . S
C2016 C2017 1.366 . S
C2016 C2018 1.388 . S
C2017 C2016 1.366 . S
C2017 C2021 1.385 . S
C2018 H1999 0.951 . S
C2018 C2016 1.388 . S
C2018 C2019 1.366 . S
C2019 C2018 1.366 . S
C2019 C2020 1.414 . S
C2019 C2022 1.499 . S
C2020 H2000 0.950 . S
C2020 C2019 1.414 . S
C2020 C2021 1.374 . S
C2021 H2001 0.950 . S
C2021 C2017 1.385 . S
C2021 C2020 1.374 . S
C2022 C2019 1.499 . S
C2022 C2023 1.373 . S
C2022 C2024 1.389 . S
C2023 H2002 0.950 . S
C2023 C2022 1.373 . S
C2023 C2039 1.377 1_655 S
C2024 C2022 1.389 . S
C2024 C2025 1.524 . S
C2024 C2038 1.377 1_655 S
C2025 C2024 1.524 . S
C2025 C2026 1.397 . S
C2025 C2030 1.363 1_655 S
C2026 H2003 0.950 . S
C2026 C2025 1.397 . S
C2026 C2027 1.334 . S
C2027 H2004 0.950 . S
C2027 C2026 1.334 . S
C2027 C2028 1.287 . S
C2028 C2027 1.287 . S
C2028 C2029 1.524 1_655 S
C2028 H2047 0.913 . S
C2029 H2005 0.950 . S
C2029 C2028 1.524 1_455 S
C2029 C2030 1.415 . S
C2030 H2006 0.950 . S
C2030 C2025 1.363 1_455 S
C2030 C2029 1.415 . S
C2031 H2007 0.951 . S
C2031 C2032 1.366 . S
C2031 C2033 1.388 . S
C2032 C2031 1.366 . S
C2032 C2036 1.385 . S
C2033 H2008 0.951 . S
C2033 C2031 1.388 . S
C2033 C2034 1.366 . S
C2034 C2033 1.366 . S
C2034 C2035 1.414 . S
C2034 C2037 1.499 . S
C2035 H2009 0.950 . S
C2035 C2034 1.414 . S
C2035 C2036 1.374 . S
C2036 H2010 0.950 . S
C2036 C2032 1.385 . S
C2036 C2035 1.374 . S
C2037 C2034 1.499 . S
C2037 C2038 1.373 . S
C2037 C2039 1.389 . S
C2038 H2011 0.950 . S
C2038 C2024 1.377 1_455 S
C2038 C2037 1.373 . S
C2039 C2023 1.377 1_455 S
C2039 C2037 1.389 . S
C2039 C2040 1.524 . S
C2040 C2039 1.524 . S
C2040 C2041 1.397 . S
C2040 C2045 1.363 1_455 S
C2041 H2012 0.950 . S
C2041 C2040 1.397 . S
C2041 C2042 1.334 . S
C2042 H2013 0.950 . S
C2042 C2041 1.334 . S
C2042 C2043 1.287 . S
C2043 C2042 1.287 . S
C2043 C2044 1.524 1_455 S
C2043 H2046 0.999 . S
C2044 H2014 0.950 . S
C2044 C2043 1.524 1_655 S
C2044 C2045 1.415 . S
C2045 H2015 0.950 . S
C2045 C2040 1.363 1_655 S
C2045 C2044 1.415 . S
H2046 C2043 0.999 . S
H2047 C2028 0.913 . S
H2048 C2066 0.951 . S
H2049 C2068 0.951 . S
H2050 C2070 0.950 1_554 S
H2051 C2071 0.950 . S
H2052 C2073 0.950 . S
H2053 C2076 0.950 . S
H2054 C2077 0.950 . S
H2055 C2079 0.950 . S
H2056 C2080 0.950 . S
H2057 C2081 0.951 . S
H2058 C2083 0.951 . S
H2059 C2085 0.950 1_556 S
H2060 C2086 0.950 . S
H2061 C2088 0.950 . S
H2062 C2091 0.950 . S
H2063 C2092 0.950 . S
H2064 C2094 0.950 . S
H2065 C2095 0.950 . S
C2066 H2048 0.951 . S
C2066 C2067 1.366 . S
C2066 C2068 1.388 . S
C2067 C2066 1.366 . S
C2067 C2071 1.385 . S
C2068 H2049 0.951 . S
C2068 C2066 1.388 . S
C2068 C2069 1.366 . S
C2069 C2068 1.366 . S
C2069 C2070 1.414 . S
C2069 C2072 1.499 . S
C2070 H2050 0.950 1_556 S
C2070 C2069 1.414 . S
C2070 C2071 1.374 . S
C2071 H2051 0.950 . S
C2071 C2067 1.385 . S
C2071 C2070 1.374 . S
C2072 C2069 1.499 . S
C2072 C2073 1.373 1_556 S
C2072 C2074 1.389 . S
C2073 H2052 0.950 . S
C2073 C2072 1.373 1_554 S
C2073 C2089 1.377 . S
C2074 C2072 1.389 . S
C2074 C2075 1.524 . S
C2074 C2088 1.377 . S
C2075 C2074 1.524 . S
C2075 C2076 1.397 . S
C2075 C2080 1.363 . S
C2076 H2053 0.950 . S
C2076 C2075 1.397 . S
C2076 C2077 1.334 . S
C2077 H2054 0.950 . S
C2077 C2076 1.334 . S
C2077 C2078 1.287 . S
C2078 C2077 1.287 . S
C2078 C2079 1.524 . S
C2078 H2097 0.913 . S
C2079 H2055 0.950 . S
C2079 C2078 1.524 . S
C2079 C2080 1.415 . S
C2080 H2056 0.950 . S
C2080 C2075 1.363 . S
C2080 C2079 1.415 . S
C2081 H2057 0.951 . S
C2081 C2082 1.366 . S
C2081 C2083 1.388 . S
C2082 C2081 1.366 . S
C2082 C2086 1.385 . S
C2083 H2058 0.951 . S
C2083 C2081 1.388 . S
C2083 C2084 1.366 . S
C2084 C2083 1.366 . S
C2084 C2085 1.414 . S
C2084 C2087 1.499 . S
C2085 H2059 0.950 1_554 S
C2085 C2084 1.414 . S
C2085 C2086 1.374 . S
C2086 H2060 0.950 . S
C2086 C2082 1.385 . S
C2086 C2085 1.374 . S
C2087 C2084 1.499 . S
C2087 C2088 1.373 1_554 S
C2087 C2089 1.389 . S
C2088 H2061 0.950 . S
C2088 C2074 1.377 . S
C2088 C2087 1.373 1_556 S
C2089 C2073 1.377 . S
C2089 C2087 1.389 . S
C2089 C2090 1.524 . S
C2090 C2089 1.524 . S
C2090 C2091 1.397 . S
C2090 C2095 1.363 . S
C2091 H2062 0.950 . S
C2091 C2090 1.397 . S
C2091 C2092 1.334 . S
C2092 H2063 0.950 . S
C2092 C2091 1.334 . S
C2092 C2093 1.287 . S
C2093 C2092 1.287 . S
C2093 C2094 1.524 . S
C2093 H2096 0.999 . S
C2094 H2064 0.950 . S
C2094 C2093 1.524 . S
C2094 C2095 1.415 . S
C2095 H2065 0.950 . S
C2095 C2090 1.363 . S
C2095 C2094 1.415 . S
H2096 C2093 0.999 . S
H2097 C2078 0.913 . S
H2098 C2116 0.951 . S
H2099 C2118 0.951 . S
H2100 C2120 0.950 . S
H2101 C2121 0.950 . S
H2102 C2123 0.950 . S
H2103 C2126 0.950 . S
H2104 C2127 0.950 . S
H2105 C2129 0.950 . S
H2106 C2130 0.950 . S
H2107 C2131 0.951 . S
H2108 C2133 0.951 . S
H2109 C2135 0.950 . S
H2110 C2136 0.950 . S
H2111 C2138 0.950 . S
H2112 C2141 0.950 . S
H2113 C2142 0.950 . S
H2114 C2144 0.950 . S
H2115 C2145 0.950 . S
C2116 H2098 0.951 . S
C2116 C2117 1.366 . S
C2116 C2118 1.388 . S
C2117 C2116 1.366 . S
C2117 C2121 1.385 . S
C2118 H2099 0.951 . S
C2118 C2116 1.388 . S
C2118 C2119 1.366 . S
C2119 C2118 1.366 . S
C2119 C2120 1.414 . S
C2119 C2122 1.499 . S
C2120 H2100 0.950 . S
C2120 C2119 1.414 . S
C2120 C2121 1.374 . S
C2121 H2101 0.950 . S
C2121 C2117 1.385 . S
C2121 C2120 1.374 . S
C2122 C2119 1.499 . S
C2122 C2123 1.373 . S
C2122 C2124 1.389 . S
C2123 H2102 0.950 . S
C2123 C2122 1.373 . S
C2123 C2139 1.377 1_545 S
C2124 C2122 1.389 . S
C2124 C2125 1.524 . S
C2124 C2138 1.377 1_545 S
C2125 C2124 1.524 . S
C2125 C2126 1.397 . S
C2125 C2130 1.363 . S
C2126 H2103 0.950 . S
C2126 C2125 1.397 . S
C2126 C2127 1.334 . S
C2127 H2104 0.950 . S
C2127 C2126 1.334 . S
C2127 C2128 1.287 . S
C2128 C2127 1.287 . S
C2128 C2129 1.524 . S
C2128 H2147 0.913 . S
C2129 H2105 0.950 . S
C2129 C2128 1.524 . S
C2129 C2130 1.415 . S
C2130 H2106 0.950 . S
C2130 C2125 1.363 . S
C2130 C2129 1.415 . S
C2131 H2107 0.951 . S
C2131 C2132 1.366 . S
C2131 C2133 1.388 . S
C2132 C2131 1.366 . S
C2132 C2136 1.385 . S
C2133 H2108 0.951 . S
C2133 C2131 1.388 . S
C2133 C2134 1.366 . S
C2134 C2133 1.366 . S
C2134 C2135 1.414 . S
C2134 C2137 1.499 . S
C2135 H2109 0.950 . S
C2135 C2134 1.414 . S
C2135 C2136 1.374 . S
C2136 H2110 0.950 . S
C2136 C2132 1.385 . S
C2136 C2135 1.374 . S
C2137 C2134 1.499 . S
C2137 C2138 1.373 . S
C2137 C2139 1.389 . S
C2138 H2111 0.950 . S
C2138 C2124 1.377 1_565 S
C2138 C2137 1.373 . S
C2139 C2123 1.377 1_565 S
C2139 C2137 1.389 . S
C2139 C2140 1.524 . S
C2140 C2139 1.524 . S
C2140 C2141 1.397 . S
C2140 C2145 1.363 . S
C2141 H2112 0.950 . S
C2141 C2140 1.397 . S
C2141 C2142 1.334 . S
C2142 H2113 0.950 . S
C2142 C2141 1.334 . S
C2142 C2143 1.287 . S
C2143 C2142 1.287 . S
C2143 C2144 1.524 . S
C2143 H2146 0.999 . S
C2144 H2114 0.950 . S
C2144 C2143 1.524 . S
C2144 C2145 1.415 . S
C2145 H2115 0.950 . S
C2145 C2140 1.363 . S
C2145 C2144 1.415 . S
H2146 C2143 0.999 . S
H2147 C2128 0.913 . S
H2148 C2166 0.951 . S
H2149 C2168 0.951 . S
H2150 C2170 0.950 . S
H2151 C2171 0.950 . S
H2152 C2173 0.950 . S
H2153 C2176 0.950 . S
H2154 C2177 0.950 . S
H2155 C2179 0.950 . S
H2156 C2180 0.950 . S
H2157 C2181 0.951 . S
H2158 C2183 0.951 . S
H2159 C2185 0.950 . S
H2160 C2186 0.950 . S
H2161 C2188 0.950 . S
H2162 C2191 0.950 . S
H2163 C2192 0.950 . S
H2164 C2194 0.950 . S
H2165 C2195 0.950 . S
C2166 H2148 0.951 . S
C2166 C2167 1.366 . S
C2166 C2168 1.388 . S
C2167 C2166 1.366 . S
C2167 C2171 1.385 . S
C2168 H2149 0.951 . S
C2168 C2166 1.388 . S
C2168 C2169 1.366 . S
C2169 C2168 1.366 . S
C2169 C2170 1.414 . S
C2169 C2172 1.499 . S
C2170 H2150 0.950 . S
C2170 C2169 1.414 . S
C2170 C2171 1.374 . S
C2171 H2151 0.950 . S
C2171 C2167 1.385 . S
C2171 C2170 1.374 . S
C2172 C2169 1.499 . S
C2172 C2173 1.373 . S
C2172 C2174 1.389 . S
C2173 H2152 0.950 . S
C2173 C2172 1.373 . S
C2173 C2189 1.377 . S
C2174 C2172 1.389 . S
C2174 C2175 1.524 . S
C2174 C2188 1.377 . S
C2175 C2174 1.524 . S
C2175 C2176 1.397 . S
C2175 C2180 1.363 . S
C2176 H2153 0.950 . S
C2176 C2175 1.397 . S
C2176 C2177 1.334 . S
C2177 H2154 0.950 . S
C2177 C2176 1.334 . S
C2177 C2178 1.287 . S
C2178 C2177 1.287 . S
C2178 C2179 1.524 . S
C2178 H2197 0.913 . S
C2179 H2155 0.950 . S
C2179 C2178 1.524 . S
C2179 C2180 1.415 . S
C2180 H2156 0.950 . S
C2180 C2175 1.363 . S
C2180 C2179 1.415 . S
C2181 H2157 0.951 . S
C2181 C2182 1.366 . S
C2181 C2183 1.388 . S
C2182 C2181 1.366 . S
C2182 C2186 1.385 . S
C2183 H2158 0.951 . S
C2183 C2181 1.388 . S
C2183 C2184 1.366 . S
C2184 C2183 1.366 . S
C2184 C2185 1.414 . S
C2184 C2187 1.499 . S
C2185 H2159 0.950 . S
C2185 C2184 1.414 . S
C2185 C2186 1.374 . S
C2186 H2160 0.950 . S
C2186 C2182 1.385 . S
C2186 C2185 1.374 . S
C2187 C2184 1.499 . S
C2187 C2188 1.373 . S
C2187 C2189 1.389 . S
C2188 H2161 0.950 . S
C2188 C2174 1.377 . S
C2188 C2187 1.373 . S
C2189 C2173 1.377 . S
C2189 C2187 1.389 . S
C2189 C2190 1.524 . S
C2190 C2189 1.524 . S
C2190 C2191 1.397 . S
C2190 C2195 1.363 . S
C2191 H2162 0.950 . S
C2191 C2190 1.397 . S
C2191 C2192 1.334 . S
C2192 H2163 0.950 . S
C2192 C2191 1.334 . S
C2192 C2193 1.287 . S
C2193 C2192 1.287 . S
C2193 C2194 1.524 . S
C2193 H2196 0.999 . S
C2194 H2164 0.950 . S
C2194 C2193 1.524 . S
C2194 C2195 1.415 . S
C2195 H2165 0.950 . S
C2195 C2190 1.363 . S
C2195 C2194 1.415 . S
H2196 C2193 0.999 . S
H2197 C2178 0.913 . S
H2198 C2216 0.951 . S
H2199 C2218 0.951 . S
H2200 C2220 0.950 . S
H2201 C2221 0.950 . S
H2202 C2223 0.950 . S
H2203 C2226 0.950 . S
H2204 C2227 0.950 . S
H2205 C2229 0.950 . S
H2206 C2230 0.950 . S
H2207 C2231 0.951 . S
H2208 C2233 0.951 . S
H2209 C2235 0.950 . S
H2210 C2236 0.950 . S
H2211 C2238 0.950 . S
H2212 C2241 0.950 . S
H2213 C2242 0.950 . S
H2214 C2244 0.950 . S
H2215 C2245 0.950 . S
C2216 H2198 0.951 . S
C2216 C2217 1.366 . S
C2216 C2218 1.388 . S
C2217 C2216 1.366 . S
C2217 C2221 1.385 . S
C2218 H2199 0.951 . S
C2218 C2216 1.388 . S
C2218 C2219 1.366 . S
C2219 C2218 1.366 . S
C2219 C2220 1.414 . S
C2219 C2222 1.499 . S
C2220 H2200 0.950 . S
C2220 C2219 1.414 . S
C2220 C2221 1.374 . S
C2221 H2201 0.950 . S
C2221 C2217 1.385 . S
C2221 C2220 1.374 . S
C2222 C2219 1.499 . S
C2222 C2223 1.373 . S
C2222 C2224 1.389 . S
C2223 H2202 0.950 . S
C2223 C2222 1.373 . S
C2223 C2239 1.377 1_545 S
C2224 C2222 1.389 . S
C2224 C2225 1.524 . S
C2224 C2238 1.377 1_545 S
C2225 C2224 1.524 . S
C2225 C2226 1.397 . S
C2225 C2230 1.363 . S
C2226 H2203 0.950 . S
C2226 C2225 1.397 . S
C2226 C2227 1.334 . S
C2227 H2204 0.950 . S
C2227 C2226 1.334 . S
C2227 C2228 1.287 . S
C2228 C2227 1.287 . S
C2228 C2229 1.524 . S
C2228 H2247 0.913 . S
C2229 H2205 0.950 . S
C2229 C2228 1.524 . S
C2229 C2230 1.415 . S
C2230 H2206 0.950 . S
C2230 C2225 1.363 . S
C2230 C2229 1.415 . S
C2231 H2207 0.951 . S
C2231 C2232 1.366 . S
C2231 C2233 1.388 . S
C2232 C2231 1.366 . S
C2232 C2236 1.385 . S
C2233 H2208 0.951 . S
C2233 C2231 1.388 . S
C2233 C2234 1.366 . S
C2234 C2233 1.366 . S
C2234 C2235 1.414 . S
C2234 C2237 1.499 . S
C2235 H2209 0.950 . S
C2235 C2234 1.414 . S
C2235 C2236 1.374 . S
C2236 H2210 0.950 . S
C2236 C2232 1.385 . S
C2236 C2235 1.374 . S
C2237 C2234 1.499 . S
C2237 C2238 1.373 . S
C2237 C2239 1.389 . S
C2238 H2211 0.950 . S
C2238 C2224 1.377 1_565 S
C2238 C2237 1.373 . S
C2239 C2223 1.377 1_565 S
C2239 C2237 1.389 . S
C2239 C2240 1.524 . S
C2240 C2239 1.524 . S
C2240 C2241 1.397 . S
C2240 C2245 1.363 . S
C2241 H2212 0.950 . S
C2241 C2240 1.397 . S
C2241 C2242 1.334 . S
C2242 H2213 0.950 . S
C2242 C2241 1.334 . S
C2242 C2243 1.287 . S
C2243 C2242 1.287 . S
C2243 C2244 1.524 . S
C2243 H2246 0.999 . S
C2244 H2214 0.950 . S
C2244 C2243 1.524 . S
C2244 C2245 1.415 . S
C2245 H2215 0.950 . S
C2245 C2240 1.363 . S
C2245 C2244 1.415 . S
H2246 C2243 0.999 . S
H2247 C2228 0.913 . S
H2248 C2266 0.951 . S
H2249 C2268 0.951 1_556 S
H2250 C2270 0.950 . S
H2251 C2271 0.950 . S
H2252 C2273 0.950 . S
H2253 C2276 0.950 1_554 S
H2254 C2277 0.899 1_554 S
H2255 C2279 0.950 . S
H2256 C2280 0.950 . S
H2257 C2281 0.951 . S
H2258 C2283 0.951 1_554 S
H2259 C2285 0.950 . S
H2260 C2286 0.950 . S
H2261 C2288 0.950 . S
H2262 C2291 0.950 1_556 S
H2263 C2292 0.899 1_556 S
H2264 C2294 0.950 . S
H2265 C2295 0.950 . S
C2266 H2248 0.951 . S
C2266 C2267 1.366 . S
C2266 C2268 1.388 . S
C2267 C2266 1.366 . S
C2267 C2271 1.385 . S
C2268 H2249 0.951 1_554 S
C2268 C2266 1.388 . S
C2268 C2269 1.366 . S
C2269 C2268 1.366 . S
C2269 C2270 1.414 . S
C2269 C2272 1.499 . S
C2270 H2250 0.950 . S
C2270 C2269 1.414 . S
C2270 C2271 1.374 . S
C2271 H2251 0.950 . S
C2271 C2267 1.385 . S
C2271 C2270 1.374 . S
C2272 C2269 1.499 . S
C2272 C2273 1.373 . S
C2272 C2274 1.389 1_554 S
C2273 H2252 0.950 . S
C2273 C2272 1.373 . S
C2273 C2289 1.377 . S
C2274 C2272 1.389 1_556 S
C2274 C2275 1.524 . S
C2274 C2288 1.377 . S
C2275 C2274 1.524 . S
C2275 C2276 1.397 . S
C2275 C2280 1.363 . S
C2276 H2253 0.950 1_556 S
C2276 C2275 1.397 . S
C2276 C2277 1.334 . S
C2277 H2254 0.899 1_556 S
C2277 C2276 1.334 . S
C2277 C2278 1.287 . S
C2278 C2277 1.287 . S
C2278 C2279 1.524 . S
C2278 H2297 0.913 . S
C2279 H2255 0.950 . S
C2279 C2278 1.524 . S
C2279 C2280 1.415 . S
C2280 H2256 0.950 . S
C2280 C2275 1.363 . S
C2280 C2279 1.415 . S
C2281 H2257 0.951 . S
C2281 C2282 1.366 . S
C2281 C2283 1.388 . S
C2282 C2281 1.366 . S
C2282 C2286 1.385 . S
C2283 H2258 0.951 1_556 S
C2283 C2281 1.388 . S
C2283 C2284 1.366 . S
C2284 C2283 1.366 . S
C2284 C2285 1.414 . S
C2284 C2287 1.499 . S
C2285 H2259 0.950 . S
C2285 C2284 1.414 . S
C2285 C2286 1.374 . S
C2286 H2260 0.950 . S
C2286 C2282 1.385 . S
C2286 C2285 1.374 . S
C2287 C2284 1.499 . S
C2287 C2288 1.373 . S
C2287 C2289 1.389 1_556 S
C2288 H2261 0.950 . S
C2288 C2274 1.377 . S
C2288 C2287 1.373 . S
C2289 C2273 1.377 . S
C2289 C2287 1.389 1_554 S
C2289 C2290 1.524 . S
C2290 C2289 1.524 . S
C2290 C2291 1.397 . S
C2290 C2295 1.363 . S
C2291 H2262 0.950 1_554 S
C2291 C2290 1.397 . S
C2291 C2292 1.334 . S
C2292 H2263 0.899 1_554 S
C2292 C2291 1.334 . S
C2292 C2293 1.287 . S
C2293 C2292 1.287 . S
C2293 C2294 1.524 . S
C2293 H2296 0.999 . S
C2294 H2264 0.950 . S
C2294 C2293 1.524 . S
C2294 C2295 1.415 . S
C2295 H2265 0.950 . S
C2295 C2290 1.363 . S
C2295 C2294 1.415 . S
H2296 C2293 0.999 . S
H2297 C2278 0.913 . S
H2298 C2316 0.951 . S
H2299 C2318 0.951 . S
H2300 C2320 0.950 . S
H2301 C2321 0.950 . S
H2302 C2323 0.950 . S
H2303 C2326 0.950 . S
H2304 C2327 0.950 . S
H2305 C2329 0.950 . S
H2306 C2330 0.950 . S
H2307 C2331 0.951 . S
H2308 C2333 0.951 . S
H2309 C2335 0.950 . S
H2310 C2336 0.950 . S
H2311 C2338 0.950 . S
H2312 C2341 0.950 . S
H2313 C2342 0.950 . S
H2314 C2344 0.950 . S
H2315 C2345 0.950 . S
C2316 H2298 0.951 . S
C2316 C2317 1.366 . S
C2316 C2318 1.388 . S
C2317 C2316 1.366 . S
C2317 C2321 1.385 . S
C2318 H2299 0.951 . S
C2318 C2316 1.388 . S
C2318 C2319 1.366 . S
C2319 C2318 1.366 . S
C2319 C2320 1.414 . S
C2319 C2322 1.499 . S
C2320 H2300 0.950 . S
C2320 C2319 1.414 . S
C2320 C2321 1.374 . S
C2321 H2301 0.950 . S
C2321 C2317 1.385 . S
C2321 C2320 1.374 . S
C2322 C2319 1.499 . S
C2322 C2323 1.373 . S
C2322 C2324 1.389 . S
C2323 H2302 0.950 . S
C2323 C2322 1.373 . S
C2323 C2339 1.377 1_565 S
C2324 C2322 1.389 . S
C2324 C2325 1.524 . S
C2324 C2338 1.377 1_565 S
C2325 C2324 1.524 . S
C2325 C2326 1.397 . S
C2325 C2330 1.363 . S
C2326 H2303 0.950 . S
C2326 C2325 1.397 . S
C2326 C2327 1.334 . S
C2327 H2304 0.950 . S
C2327 C2326 1.334 . S
C2327 C2328 1.287 . S
C2328 C2327 1.287 . S
C2328 C2329 1.524 . S
C2328 H2347 0.913 . S
C2329 H2305 0.950 . S
C2329 C2328 1.524 . S
C2329 C2330 1.415 . S
C2330 H2306 0.950 . S
C2330 C2325 1.363 . S
C2330 C2329 1.415 . S
C2331 H2307 0.951 . S
C2331 C2332 1.366 . S
C2331 C2333 1.388 . S
C2332 C2331 1.366 . S
C2332 C2336 1.385 . S
C2333 H2308 0.951 . S
C2333 C2331 1.388 . S
C2333 C2334 1.366 . S
C2334 C2333 1.366 . S
C2334 C2335 1.414 . S
C2334 C2337 1.499 . S
C2335 H2309 0.950 . S
C2335 C2334 1.414 . S
C2335 C2336 1.374 . S
C2336 H2310 0.950 . S
C2336 C2332 1.385 . S
C2336 C2335 1.374 . S
C2337 C2334 1.499 . S
C2337 C2338 1.373 . S
C2337 C2339 1.389 . S
C2338 H2311 0.950 . S
C2338 C2324 1.377 1_545 S
C2338 C2337 1.373 . S
C2339 C2323 1.377 1_545 S
C2339 C2337 1.389 . S
C2339 C2340 1.524 . S
C2340 C2339 1.524 . S
C2340 C2341 1.397 . S
C2340 C2345 1.363 . S
C2341 H2312 0.950 . S
C2341 C2340 1.397 . S
C2341 C2342 1.334 . S
C2342 H2313 0.950 . S
C2342 C2341 1.334 . S
C2342 C2343 1.287 . S
C2343 C2342 1.287 . S
C2343 C2344 1.524 . S
C2343 H2346 0.999 . S
C2344 H2314 0.950 . S
C2344 C2343 1.524 . S
C2344 C2345 1.415 . S
C2345 H2315 0.950 . S
C2345 C2340 1.363 . S
C2345 C2344 1.415 . S
H2346 C2343 0.999 . S
H2347 C2328 0.913 . S
H2348 C2366 0.951 . S
H2349 C2368 0.951 . S
H2350 C2370 0.950 . S
H2351 C2371 0.950 . S
H2352 C2373 0.950 . S
H2353 C2376 0.950 . S
H2354 C2377 0.950 . S
H2355 C2379 0.950 . S
H2356 C2380 0.950 . S
H2357 C2381 0.951 . S
H2358 C2383 0.951 . S
H2359 C2385 0.950 . S
H2360 C2386 0.950 . S
H2361 C2388 0.950 . S
H2362 C2391 0.950 . S
H2363 C2392 0.950 . S
H2364 C2394 0.950 . S
H2365 C2395 0.950 . S
C2366 H2348 0.951 . S
C2366 C2367 1.366 . S
C2366 C2368 1.388 . S
C2367 C2366 1.366 . S
C2367 C2371 1.385 . S
C2368 H2349 0.951 . S
C2368 C2366 1.388 . S
C2368 C2369 1.366 . S
C2369 C2368 1.366 . S
C2369 C2370 1.414 . S
C2369 C2372 1.499 . S
C2370 H2350 0.950 . S
C2370 C2369 1.414 . S
C2370 C2371 1.374 . S
C2371 H2351 0.950 . S
C2371 C2367 1.385 . S
C2371 C2370 1.374 . S
C2372 C2369 1.499 . S
C2372 C2373 1.373 . S
C2372 C2374 1.389 . S
C2373 H2352 0.950 . S
C2373 C2372 1.373 . S
C2373 C2389 1.377 . S
C2374 C2372 1.389 . S
C2374 C2375 1.524 . S
C2374 C2388 1.377 . S
C2375 C2374 1.524 . S
C2375 C2376 1.397 . S
C2375 C2380 1.363 . S
C2376 H2353 0.950 . S
C2376 C2375 1.397 . S
C2376 C2377 1.334 . S
C2377 H2354 0.950 . S
C2377 C2376 1.334 . S
C2377 C2378 1.287 . S
C2378 C2377 1.287 . S
C2378 C2379 1.524 . S
C2378 H2397 0.913 . S
C2379 H2355 0.950 . S
C2379 C2378 1.524 . S
C2379 C2380 1.415 . S
C2380 H2356 0.950 . S
C2380 C2375 1.363 . S
C2380 C2379 1.415 . S
C2381 H2357 0.951 . S
C2381 C2382 1.366 . S
C2381 C2383 1.388 . S
C2382 C2381 1.366 . S
C2382 C2386 1.385 . S
C2383 H2358 0.951 . S
C2383 C2381 1.388 . S
C2383 C2384 1.366 . S
C2384 C2383 1.366 . S
C2384 C2385 1.414 . S
C2384 C2387 1.499 . S
C2385 H2359 0.950 . S
C2385 C2384 1.414 . S
C2385 C2386 1.374 . S
C2386 H2360 0.950 . S
C2386 C2382 1.385 . S
C2386 C2385 1.374 . S
C2387 C2384 1.499 . S
C2387 C2388 1.373 . S
C2387 C2389 1.389 . S
C2388 H2361 0.950 . S
C2388 C2374 1.377 . S
C2388 C2387 1.373 . S
C2389 C2373 1.377 . S
C2389 C2387 1.389 . S
C2389 C2390 1.524 . S
C2390 C2389 1.524 . S
C2390 C2391 1.397 . S
C2390 C2395 1.363 . S
C2391 H2362 0.950 . S
C2391 C2390 1.397 . S
C2391 C2392 1.334 . S
C2392 H2363 0.950 . S
C2392 C2391 1.334 . S
C2392 C2393 1.287 . S
C2393 C2392 1.287 . S
C2393 C2394 1.524 . S
C2393 H2396 0.999 . S
C2394 H2364 0.950 . S
C2394 C2393 1.524 . S
C2394 C2395 1.415 . S
C2395 H2365 0.950 . S
C2395 C2390 1.363 . S
C2395 C2394 1.415 . S
H2396 C2393 0.999 . S
H2397 C2378 0.913 . S
H2398 C2416 0.951 . S
H2399 C2418 0.951 . S
H2400 C2420 0.950 . S
H2401 C2421 0.950 . S
H2402 C2423 0.950 . S
H2403 C2426 0.950 . S
H2404 C2427 0.950 . S
H2405 C2429 0.950 . S
H2406 C2430 0.950 . S
H2407 C2431 0.951 . S
H2408 C2433 0.951 . S
H2409 C2435 0.950 . S
H2410 C2436 0.950 . S
H2411 C2438 0.950 . S
H2412 C2441 0.950 . S
H2413 C2442 0.950 . S
H2414 C2444 0.950 . S
H2415 C2445 0.950 . S
C2416 H2398 0.951 . S
C2416 C2417 1.366 . S
C2416 C2418 1.388 . S
C2417 C2416 1.366 . S
C2417 C2421 1.385 . S
C2418 H2399 0.951 . S
C2418 C2416 1.388 . S
C2418 C2419 1.366 . S
C2419 C2418 1.366 . S
C2419 C2420 1.414 . S
C2419 C2422 1.499 . S
C2420 H2400 0.950 . S
C2420 C2419 1.414 . S
C2420 C2421 1.374 . S
C2421 H2401 0.950 . S
C2421 C2417 1.385 . S
C2421 C2420 1.374 . S
C2422 C2419 1.499 . S
C2422 C2423 1.373 . S
C2422 C2424 1.389 . S
C2423 H2402 0.950 . S
C2423 C2422 1.373 . S
C2423 C2439 1.377 1_545 S
C2424 C2422 1.389 . S
C2424 C2425 1.524 . S
C2424 C2438 1.377 1_545 S
C2425 C2424 1.524 . S
C2425 C2426 1.397 . S
C2425 C2430 1.363 1_545 S
C2426 H2403 0.950 . S
C2426 C2425 1.397 . S
C2426 C2427 1.334 . S
C2427 H2404 0.950 . S
C2427 C2426 1.334 . S
C2427 C2428 1.287 . S
C2428 C2427 1.287 . S
C2428 C2429 1.524 1_545 S
C2428 H2447 0.913 . S
C2429 H2405 0.950 . S
C2429 C2428 1.524 1_565 S
C2429 C2430 1.415 . S
C2430 H2406 0.950 . S
C2430 C2425 1.363 1_565 S
C2430 C2429 1.415 . S
C2431 H2407 0.951 . S
C2431 C2432 1.366 . S
C2431 C2433 1.388 . S
C2432 C2431 1.366 . S
C2432 C2436 1.385 . S
C2433 H2408 0.951 . S
C2433 C2431 1.388 . S
C2433 C2434 1.366 . S
C2434 C2433 1.366 . S
C2434 C2435 1.414 . S
C2434 C2437 1.499 . S
C2435 H2409 0.950 . S
C2435 C2434 1.414 . S
C2435 C2436 1.374 . S
C2436 H2410 0.950 . S
C2436 C2432 1.385 . S
C2436 C2435 1.374 . S
C2437 C2434 1.499 . S
C2437 C2438 1.373 . S
C2437 C2439 1.389 . S
C2438 H2411 0.950 . S
C2438 C2424 1.377 1_565 S
C2438 C2437 1.373 . S
C2439 C2423 1.377 1_565 S
C2439 C2437 1.389 . S
C2439 C2440 1.524 . S
C2440 C2439 1.524 . S
C2440 C2441 1.397 . S
C2440 C2445 1.363 1_565 S
C2441 H2412 0.950 . S
C2441 C2440 1.397 . S
C2441 C2442 1.334 . S
C2442 H2413 0.950 . S
C2442 C2441 1.334 . S
C2442 C2443 1.287 . S
C2443 C2442 1.287 . S
C2443 C2444 1.524 1_565 S
C2443 H2446 0.999 . S
C2444 H2414 0.950 . S
C2444 C2443 1.524 1_545 S
C2444 C2445 1.415 . S
C2445 H2415 0.950 . S
C2445 C2440 1.363 1_545 S
C2445 C2444 1.415 . S
H2446 C2443 0.999 . S
H2447 C2428 0.913 . S
H2448 C2466 0.951 . S
H2449 C2468 0.951 . S
H2450 C2470 0.950 . S
H2451 C2471 0.950 . S
H2452 C2473 0.950 . S
H2453 C2476 0.950 . S
H2454 C2477 0.950 . S
H2455 C2479 0.950 . S
H2456 C2480 0.950 . S
H2457 C2481 0.951 . S
H2458 C2483 0.951 . S
H2459 C2485 0.950 . S
H2460 C2486 0.950 . S
H2461 C2488 0.950 . S
H2462 C2491 0.950 . S
H2463 C2492 0.950 . S
H2464 C2494 0.950 . S
H2465 C2495 0.950 . S
C2466 H2448 0.951 . S
C2466 C2467 1.366 . S
C2466 C2468 1.388 . S
C2467 C2466 1.366 . S
C2467 C2471 1.385 . S
C2468 H2449 0.951 . S
C2468 C2466 1.388 . S
C2468 C2469 1.366 . S
C2469 C2468 1.366 . S
C2469 C2470 1.414 . S
C2469 C2472 1.499 . S
C2470 H2450 0.950 . S
C2470 C2469 1.414 . S
C2470 C2471 1.374 . S
C2471 H2451 0.950 . S
C2471 C2467 1.385 . S
C2471 C2470 1.374 . S
C2472 C2469 1.499 . S
C2472 C2473 1.373 . S
C2472 C2474 1.389 . S
C2473 H2452 0.950 . S
C2473 C2472 1.373 . S
C2473 C2489 1.377 . S
C2474 C2472 1.389 . S
C2474 C2475 1.524 . S
C2474 C2488 1.377 . S
C2475 C2474 1.524 . S
C2475 C2476 1.397 . S
C2475 C2480 1.363 . S
C2476 H2453 0.950 . S
C2476 C2475 1.397 . S
C2476 C2477 1.334 . S
C2477 H2454 0.950 . S
C2477 C2476 1.334 . S
C2477 C2478 1.287 . S
C2478 C2477 1.287 . S
C2478 C2479 1.524 . S
C2478 H2497 0.913 . S
C2479 H2455 0.950 . S
C2479 C2478 1.524 . S
C2479 C2480 1.415 . S
C2480 H2456 0.950 . S
C2480 C2475 1.363 . S
C2480 C2479 1.415 . S
C2481 H2457 0.951 . S
C2481 C2482 1.366 . S
C2481 C2483 1.388 . S
C2482 C2481 1.366 . S
C2482 C2486 1.385 . S
C2483 H2458 0.951 . S
C2483 C2481 1.388 . S
C2483 C2484 1.366 . S
C2484 C2483 1.366 . S
C2484 C2485 1.414 . S
C2484 C2487 1.499 . S
C2485 H2459 0.950 . S
C2485 C2484 1.414 . S
C2485 C2486 1.374 . S
C2486 H2460 0.950 . S
C2486 C2482 1.385 . S
C2486 C2485 1.374 . S
C2487 C2484 1.499 . S
C2487 C2488 1.373 . S
C2487 C2489 1.389 . S
C2488 H2461 0.950 . S
C2488 C2474 1.377 . S
C2488 C2487 1.373 . S
C2489 C2473 1.377 . S
C2489 C2487 1.389 . S
C2489 C2490 1.524 . S
C2490 C2489 1.524 . S
C2490 C2491 1.397 . S
C2490 C2495 1.363 . S
C2491 H2462 0.950 . S
C2491 C2490 1.397 . S
C2491 C2492 1.334 . S
C2492 H2463 0.950 . S
C2492 C2491 1.334 . S
C2492 C2493 1.287 . S
C2493 C2492 1.287 . S
C2493 C2494 1.524 . S
C2493 H2496 0.999 . S
C2494 H2464 0.950 . S
C2494 C2493 1.524 . S
C2494 C2495 1.415 . S
C2495 H2465 0.950 . S
C2495 C2490 1.363 . S
C2495 C2494 1.415 . S
H2496 C2493 0.999 . S
H2497 C2478 0.913 . S
H2498 C2516 0.951 . S
H2499 C2518 0.951 . S
H2500 C2520 0.950 . S
H2501 C2521 0.950 . S
H2502 C2523 0.950 . S
H2503 C2526 0.950 . S
H2504 C2527 0.950 . S
H2505 C2529 0.950 . S
H2506 C2530 0.950 . S
H2507 C2531 0.951 . S
H2508 C2533 0.951 . S
H2509 C2535 0.950 . S
H2510 C2536 0.950 . S
H2511 C2538 0.950 . S
H2512 C2541 0.950 . S
H2513 C2542 0.950 . S
H2514 C2544 0.950 . S
H2515 C2545 0.950 . S
C2516 H2498 0.951 . S
C2516 C2517 1.366 . S
C2516 C2518 1.388 . S
C2517 C2516 1.366 . S
C2517 C2521 1.385 . S
C2518 H2499 0.951 . S
C2518 C2516 1.388 . S
C2518 C2519 1.366 . S
C2519 C2518 1.366 . S
C2519 C2520 1.414 . S
C2519 C2522 1.499 . S
C2520 H2500 0.950 . S
C2520 C2519 1.414 . S
C2520 C2521 1.374 . S
C2521 H2501 0.950 . S
C2521 C2517 1.385 . S
C2521 C2520 1.374 . S
C2522 C2519 1.499 . S
C2522 C2523 1.373 . S
C2522 C2524 1.389 . S
C2523 H2502 0.950 . S
C2523 C2522 1.373 . S
C2523 C2539 1.377 . S
C2524 C2522 1.389 . S
C2524 C2525 1.524 . S
C2524 C2538 1.377 . S
C2525 C2524 1.524 . S
C2525 C2526 1.397 . S
C2525 C2530 1.363 . S
C2526 H2503 0.950 . S
C2526 C2525 1.397 . S
C2526 C2527 1.334 . S
C2527 H2504 0.950 . S
C2527 C2526 1.334 . S
C2527 C2528 1.287 . S
C2528 C2527 1.287 . S
C2528 C2529 1.524 . S
C2528 H2547 0.913 . S
C2529 H2505 0.950 . S
C2529 C2528 1.524 . S
C2529 C2530 1.415 . S
C2530 H2506 0.950 . S
C2530 C2525 1.363 . S
C2530 C2529 1.415 . S
C2531 H2507 0.951 . S
C2531 C2532 1.366 . S
C2531 C2533 1.388 . S
C2532 C2531 1.366 . S
C2532 C2536 1.385 . S
C2533 H2508 0.951 . S
C2533 C2531 1.388 . S
C2533 C2534 1.366 . S
C2534 C2533 1.366 . S
C2534 C2535 1.414 . S
C2534 C2537 1.499 . S
C2535 H2509 0.950 . S
C2535 C2534 1.414 . S
C2535 C2536 1.374 . S
C2536 H2510 0.950 . S
C2536 C2532 1.385 . S
C2536 C2535 1.374 . S
C2537 C2534 1.499 . S
C2537 C2538 1.373 . S
C2537 C2539 1.389 . S
C2538 H2511 0.950 . S
C2538 C2524 1.377 . S
C2538 C2537 1.373 . S
C2539 C2523 1.377 . S
C2539 C2537 1.389 . S
C2539 C2540 1.524 . S
C2540 C2539 1.524 . S
C2540 C2541 1.397 . S
C2540 C2545 1.363 . S
C2541 H2512 0.950 . S
C2541 C2540 1.397 . S
C2541 C2542 1.334 . S
C2542 H2513 0.950 . S
C2542 C2541 1.334 . S
C2542 C2543 1.287 . S
C2543 C2542 1.287 . S
C2543 C2544 1.524 . S
C2543 H2546 0.999 . S
C2544 H2514 0.950 . S
C2544 C2543 1.524 . S
C2544 C2545 1.415 . S
C2545 H2515 0.950 . S
C2545 C2540 1.363 . S
C2545 C2544 1.415 . S
H2546 C2543 0.999 . S
H2547 C2528 0.913 . S
H2548 C2566 0.951 . S
H2549 C2568 0.951 . S
H2550 C2570 0.950 . S
H2551 C2571 0.950 . S
H2552 C2573 0.950 . S
H2553 C2576 0.950 . S
H2554 C2577 0.950 . S
H2555 C2579 0.950 . S
H2556 C2580 0.950 . S
H2557 C2581 0.951 . S
H2558 C2583 0.951 . S
H2559 C2585 0.950 . S
H2560 C2586 0.950 . S
H2561 C2588 0.950 . S
H2562 C2591 0.950 . S
H2563 C2592 0.950 . S
H2564 C2594 0.950 . S
H2565 C2595 0.950 . S
C2566 H2548 0.951 . S
C2566 C2567 1.366 . S
C2566 C2568 1.388 . S
C2567 C2566 1.366 . S
C2567 C2571 1.385 . S
C2568 H2549 0.951 . S
C2568 C2566 1.388 . S
C2568 C2569 1.366 . S
C2569 C2568 1.366 . S
C2569 C2570 1.414 . S
C2569 C2572 1.499 . S
C2570 H2550 0.950 . S
C2570 C2569 1.414 . S
C2570 C2571 1.374 . S
C2571 H2551 0.950 . S
C2571 C2567 1.385 . S
C2571 C2570 1.374 . S
C2572 C2569 1.499 . S
C2572 C2573 1.373 . S
C2572 C2574 1.389 1_554 S
C2573 H2552 0.950 . S
C2573 C2572 1.373 . S
C2573 C2589 1.377 . S
C2574 C2572 1.389 1_556 S
C2574 C2575 1.524 . S
C2574 C2588 1.377 . S
C2575 C2574 1.524 . S
C2575 C2576 1.397 . S
C2575 C2580 1.363 . S
C2576 H2553 0.950 . S
C2576 C2575 1.397 . S
C2576 C2577 1.334 . S
C2577 H2554 0.950 . S
C2577 C2576 1.334 . S
C2577 C2578 1.287 . S
C2578 C2577 1.287 . S
C2578 C2579 1.524 . S
C2578 H2597 0.913 . S
C2579 H2555 0.950 . S
C2579 C2578 1.524 . S
C2579 C2580 1.415 . S
C2580 H2556 0.950 . S
C2580 C2575 1.363 . S
C2580 C2579 1.415 . S
C2581 H2557 0.951 . S
C2581 C2582 1.366 . S
C2581 C2583 1.388 . S
C2582 C2581 1.366 . S
C2582 C2586 1.385 . S
C2583 H2558 0.951 . S
C2583 C2581 1.388 . S
C2583 C2584 1.366 . S
C2584 C2583 1.366 . S
C2584 C2585 1.414 . S
C2584 C2587 1.499 . S
C2585 H2559 0.950 . S
C2585 C2584 1.414 . S
C2585 C2586 1.374 . S
C2586 H2560 0.950 . S
C2586 C2582 1.385 . S
C2586 C2585 1.374 . S
C2587 C2584 1.499 . S
C2587 C2588 1.373 . S
C2587 C2589 1.389 1_556 S
C2588 H2561 0.950 . S
C2588 C2574 1.377 . S
C2588 C2587 1.373 . S
C2589 C2573 1.377 . S
C2589 C2587 1.389 1_554 S
C2589 C2590 1.524 . S
C2590 C2589 1.524 . S
C2590 C2591 1.397 . S
C2590 C2595 1.363 . S
C2591 H2562 0.950 . S
C2591 C2590 1.397 . S
C2591 C2592 1.334 . S
C2592 H2563 0.950 . S
C2592 C2591 1.334 . S
C2592 C2593 1.287 . S
C2593 C2592 1.287 . S
C2593 C2594 1.524 . S
C2593 H2596 0.999 . S
C2594 H2564 0.950 . S
C2594 C2593 1.524 . S
C2594 C2595 1.415 . S
C2595 H2565 0.950 . S
C2595 C2590 1.363 . S
C2595 C2594 1.415 . S
H2596 C2593 0.999 . S
H2597 C2578 0.913 . S
H2598 C2616 0.951 . S
H2599 C2618 0.951 . S
H2600 C2620 0.950 . S
H2601 C2621 0.950 . S
H2602 C2623 0.950 . S
H2603 C2626 0.950 . S
H2604 C2627 0.950 . S
H2605 C2629 0.950 . S
H2606 C2630 0.950 . S
H2607 C2631 0.951 . S
H2608 C2633 0.951 . S
H2609 C2635 0.950 . S
H2610 C2636 0.950 . S
H2611 C2638 0.950 . S
H2612 C2641 0.950 . S
H2613 C2642 0.950 . S
H2614 C2644 0.950 . S
H2615 C2645 0.950 . S
C2616 H2598 0.951 . S
C2616 C2617 1.366 . S
C2616 C2618 1.388 . S
C2617 C2616 1.366 . S
C2617 C2621 1.385 . S
C2618 H2599 0.951 . S
C2618 C2616 1.388 . S
C2618 C2619 1.366 . S
C2619 C2618 1.366 . S
C2619 C2620 1.414 . S
C2619 C2622 1.499 . S
C2620 H2600 0.950 . S
C2620 C2619 1.414 . S
C2620 C2621 1.374 . S
C2621 H2601 0.950 . S
C2621 C2617 1.385 . S
C2621 C2620 1.374 . S
C2622 C2619 1.499 . S
C2622 C2623 1.373 . S
C2622 C2624 1.389 . S
C2623 H2602 0.950 . S
C2623 C2622 1.373 . S
C2623 C2639 1.377 . S
C2624 C2622 1.389 . S
C2624 C2625 1.524 . S
C2624 C2638 1.377 . S
C2625 C2624 1.524 . S
C2625 C2626 1.397 . S
C2625 C2630 1.363 . S
C2626 H2603 0.950 . S
C2626 C2625 1.397 . S
C2626 C2627 1.334 . S
C2627 H2604 0.950 . S
C2627 C2626 1.334 . S
C2627 C2628 1.287 . S
C2628 C2627 1.287 . S
C2628 C2629 1.524 . S
C2628 H2647 0.913 . S
C2629 H2605 0.950 . S
C2629 C2628 1.524 . S
C2629 C2630 1.415 . S
C2630 H2606 0.950 . S
C2630 C2625 1.363 . S
C2630 C2629 1.415 . S
C2631 H2607 0.951 . S
C2631 C2632 1.366 . S
C2631 C2633 1.388 . S
C2632 C2631 1.366 . S
C2632 C2636 1.385 . S
C2633 H2608 0.951 . S
C2633 C2631 1.388 . S
C2633 C2634 1.366 . S
C2634 C2633 1.366 . S
C2634 C2635 1.414 . S
C2634 C2637 1.499 . S
C2635 H2609 0.950 . S
C2635 C2634 1.414 . S
C2635 C2636 1.374 . S
C2636 H2610 0.950 . S
C2636 C2632 1.385 . S
C2636 C2635 1.374 . S
C2637 C2634 1.499 . S
C2637 C2638 1.373 . S
C2637 C2639 1.389 . S
C2638 H2611 0.950 . S
C2638 C2624 1.377 . S
C2638 C2637 1.373 . S
C2639 C2623 1.377 . S
C2639 C2637 1.389 . S
C2639 C2640 1.524 . S
C2640 C2639 1.524 . S
C2640 C2641 1.397 . S
C2640 C2645 1.363 . S
C2641 H2612 0.950 . S
C2641 C2640 1.397 . S
C2641 C2642 1.334 . S
C2642 H2613 0.950 . S
C2642 C2641 1.334 . S
C2642 C2643 1.287 . S
C2643 C2642 1.287 . S
C2643 C2644 1.524 . S
C2643 H2646 0.999 . S
C2644 H2614 0.950 . S
C2644 C2643 1.524 . S
C2644 C2645 1.415 . S
C2645 H2615 0.950 . S
C2645 C2640 1.363 . S
C2645 C2644 1.415 . S
H2646 C2643 0.999 . S
H2647 C2628 0.913 . S
H2648 C2666 0.951 . S
H2649 C2668 0.951 . S
H2650 C2670 0.950 . S
H2651 C2671 0.950 . S
H2652 C2673 0.950 . S
H2653 C2676 0.950 . S
H2654 C2677 0.950 . S
H2655 C2679 0.950 . S
H2656 C2680 0.950 . S
H2657 C2681 0.951 . S
H2658 C2683 0.951 . S
H2659 C2685 0.950 . S
H2660 C2686 0.950 . S
H2661 C2688 0.950 . S
H2662 C2691 0.950 . S
H2663 C2692 0.950 . S
H2664 C2694 0.950 . S
H2665 C2695 0.950 . S
C2666 H2648 0.951 . S
C2666 C2667 1.366 . S
C2666 C2668 1.388 . S
C2667 C2666 1.366 . S
C2667 C2671 1.385 . S
C2668 H2649 0.951 . S
C2668 C2666 1.388 . S
C2668 C2669 1.366 . S
C2669 C2668 1.366 . S
C2669 C2670 1.414 . S
C2669 C2672 1.499 . S
C2670 H2650 0.950 . S
C2670 C2669 1.414 . S
C2670 C2671 1.374 . S
C2671 H2651 0.950 . S
C2671 C2667 1.385 . S
C2671 C2670 1.374 . S
C2672 C2669 1.499 . S
C2672 C2673 1.373 . S
C2672 C2674 1.389 . S
C2673 H2652 0.950 . S
C2673 C2672 1.373 . S
C2673 C2689 1.377 . S
C2674 C2672 1.389 . S
C2674 C2675 1.524 . S
C2674 C2688 1.377 . S
C2675 C2674 1.524 . S
C2675 C2676 1.397 . S
C2675 C2680 1.363 . S
C2676 H2653 0.950 . S
C2676 C2675 1.397 . S
C2676 C2677 1.334 . S
C2677 H2654 0.950 . S
C2677 C2676 1.334 . S
C2677 C2678 1.287 . S
C2678 C2677 1.287 . S
C2678 C2679 1.524 . S
C2678 H2697 0.913 . S
C2679 H2655 0.950 . S
C2679 C2678 1.524 . S
C2679 C2680 1.415 . S
C2680 H2656 0.950 . S
C2680 C2675 1.363 . S
C2680 C2679 1.415 . S
C2681 H2657 0.951 . S
C2681 C2682 1.366 . S
C2681 C2683 1.388 . S
C2682 C2681 1.366 . S
C2682 C2686 1.385 . S
C2683 H2658 0.951 . S
C2683 C2681 1.388 . S
C2683 C2684 1.366 . S
C2684 C2683 1.366 . S
C2684 C2685 1.414 . S
C2684 C2687 1.499 . S
C2685 H2659 0.950 . S
C2685 C2684 1.414 . S
C2685 C2686 1.374 . S
C2686 H2660 0.950 . S
C2686 C2682 1.385 . S
C2686 C2685 1.374 . S
C2687 C2684 1.499 . S
C2687 C2688 1.373 . S
C2687 C2689 1.389 . S
C2688 H2661 0.950 . S
C2688 C2674 1.377 . S
C2688 C2687 1.373 . S
C2689 C2673 1.377 . S
C2689 C2687 1.389 . S
C2689 C2690 1.524 . S
C2690 C2689 1.524 . S
C2690 C2691 1.397 . S
C2690 C2695 1.363 . S
C2691 H2662 0.950 . S
C2691 C2690 1.397 . S
C2691 C2692 1.334 . S
C2692 H2663 0.950 . S
C2692 C2691 1.334 . S
C2692 C2693 1.287 . S
C2693 C2692 1.287 . S
C2693 C2694 1.524 . S
C2693 H2696 0.999 . S
C2694 H2664 0.950 . S
C2694 C2693 1.524 . S
C2694 C2695 1.415 . S
C2695 H2665 0.950 . S
C2695 C2690 1.363 . S
C2695 C2694 1.415 . S
H2696 C2693 0.999 . S
H2697 C2678 0.913 . S
H2698 C2716 0.951 . S
H2699 C2718 0.951 . S
H2700 C2720 0.950 . S
H2701 C2721 0.950 . S
H2702 C2723 0.950 . S
H2703 C2726 0.950 . S
H2704 C2727 0.950 . S
H2705 C2729 0.950 . S
H2706 C2730 0.950 . S
H2707 C2731 0.951 . S
H2708 C2733 0.951 . S
H2709 C2735 0.950 . S
H2710 C2736 0.950 . S
H2711 C2738 0.950 . S
H2712 C2741 0.950 . S
H2713 C2742 0.950 . S
H2714 C2744 0.950 . S
H2715 C2745 0.950 . S
C2716 H2698 0.951 . S
C2716 C2717 1.366 . S
C2716 C2718 1.388 . S
C2717 C2716 1.366 . S
C2717 C2721 1.385 . S
C2718 H2699 0.951 . S
C2718 C2716 1.388 . S
C2718 C2719 1.366 . S
C2719 C2718 1.366 . S
C2719 C2720 1.414 . S
C2719 C2722 1.499 . S
C2720 H2700 0.950 . S
C2720 C2719 1.414 . S
C2720 C2721 1.374 . S
C2721 H2701 0.950 . S
C2721 C2717 1.385 . S
C2721 C2720 1.374 . S
C2722 C2719 1.499 . S
C2722 C2723 1.373 . S
C2722 C2724 1.389 . S
C2723 H2702 0.950 . S
C2723 C2722 1.373 . S
C2723 C2739 1.377 . S
C2724 C2722 1.389 . S
C2724 C2725 1.524 . S
C2724 C2738 1.377 . S
C2725 C2724 1.524 . S
C2725 C2726 1.397 . S
C2725 C2730 1.363 . S
C2726 H2703 0.950 . S
C2726 C2725 1.397 . S
C2726 C2727 1.334 . S
C2727 H2704 0.950 . S
C2727 C2726 1.334 . S
C2727 C2728 1.287 . S
C2728 C2727 1.287 . S
C2728 C2729 1.524 . S
C2728 H2747 0.913 . S
C2729 H2705 0.950 . S
C2729 C2728 1.524 . S
C2729 C2730 1.415 . S
C2730 H2706 0.950 . S
C2730 C2725 1.363 . S
C2730 C2729 1.415 . S
C2731 H2707 0.951 . S
C2731 C2732 1.366 . S
C2731 C2733 1.388 . S
C2732 C2731 1.366 . S
C2732 C2736 1.385 . S
C2733 H2708 0.951 . S
C2733 C2731 1.388 . S
C2733 C2734 1.366 . S
C2734 C2733 1.366 . S
C2734 C2735 1.414 . S
C2734 C2737 1.499 . S
C2735 H2709 0.950 . S
C2735 C2734 1.414 . S
C2735 C2736 1.374 . S
C2736 H2710 0.950 . S
C2736 C2732 1.385 . S
C2736 C2735 1.374 . S
C2737 C2734 1.499 . S
C2737 C2738 1.373 . S
C2737 C2739 1.389 . S
C2738 H2711 0.950 . S
C2738 C2724 1.377 . S
C2738 C2737 1.373 . S
C2739 C2723 1.377 . S
C2739 C2737 1.389 . S
C2739 C2740 1.524 . S
C2740 C2739 1.524 . S
C2740 C2741 1.397 . S
C2740 C2745 1.363 . S
C2741 H2712 0.950 . S
C2741 C2740 1.397 . S
C2741 C2742 1.334 . S
C2742 H2713 0.950 . S
C2742 C2741 1.334 . S
C2742 C2743 1.287 . S
C2743 C2742 1.287 . S
C2743 C2744 1.524 . S
C2743 H2746 0.999 . S
C2744 H2714 0.950 . S
C2744 C2743 1.524 . S
C2744 C2745 1.415 . S
C2745 H2715 0.950 . S
C2745 C2740 1.363 . S
C2745 C2744 1.415 . S
H2746 C2743 0.999 . S
H2747 C2728 0.913 . S
H2748 C2766 0.951 . S
H2749 C2768 0.951 . S
H2750 C2770 0.950 1_554 S
H2751 C2771 0.950 . S
H2752 C2773 0.950 . S
H2753 C2776 0.950 . S
H2754 C2777 0.950 . S
H2755 C2779 0.950 . S
H2756 C2780 0.950 . S
H2757 C2781 0.951 . S
H2758 C2783 0.951 . S
H2759 C2785 0.950 1_556 S
H2760 C2786 0.950 . S
H2761 C2788 0.950 . S
H2762 C2791 0.950 . S
H2763 C2792 0.950 . S
H2764 C2794 0.950 . S
H2765 C2795 0.950 . S
C2766 H2748 0.951 . S
C2766 C2767 1.366 . S
C2766 C2768 1.388 . S
C2767 C2766 1.366 . S
C2767 C2771 1.385 . S
C2768 H2749 0.951 . S
C2768 C2766 1.388 . S
C2768 C2769 1.366 . S
C2769 C2768 1.366 . S
C2769 C2770 1.414 . S
C2769 C2772 1.499 . S
C2770 H2750 0.950 1_556 S
C2770 C2769 1.414 . S
C2770 C2771 1.374 . S
C2771 H2751 0.950 . S
C2771 C2767 1.385 . S
C2771 C2770 1.374 . S
C2772 C2769 1.499 . S
C2772 C2773 1.373 1_556 S
C2772 C2774 1.389 . S
C2773 H2752 0.950 . S
C2773 C2772 1.373 1_554 S
C2773 C2789 1.377 . S
C2774 C2772 1.389 . S
C2774 C2775 1.524 . S
C2774 C2788 1.377 . S
C2775 C2774 1.524 . S
C2775 C2776 1.397 . S
C2775 C2780 1.363 . S
C2776 H2753 0.950 . S
C2776 C2775 1.397 . S
C2776 C2777 1.334 . S
C2777 H2754 0.950 . S
C2777 C2776 1.334 . S
C2777 C2778 1.287 . S
C2778 C2777 1.287 . S
C2778 C2779 1.524 . S
C2778 H2797 0.913 . S
C2779 H2755 0.950 . S
C2779 C2778 1.524 . S
C2779 C2780 1.415 . S
C2780 H2756 0.950 . S
C2780 C2775 1.363 . S
C2780 C2779 1.415 . S
C2781 H2757 0.951 . S
C2781 C2782 1.366 . S
C2781 C2783 1.388 . S
C2782 C2781 1.366 . S
C2782 C2786 1.385 . S
C2783 H2758 0.951 . S
C2783 C2781 1.388 . S
C2783 C2784 1.366 . S
C2784 C2783 1.366 . S
C2784 C2785 1.414 . S
C2784 C2787 1.499 . S
C2785 H2759 0.950 1_554 S
C2785 C2784 1.414 . S
C2785 C2786 1.374 . S
C2786 H2760 0.950 . S
C2786 C2782 1.385 . S
C2786 C2785 1.374 . S
C2787 C2784 1.499 . S
C2787 C2788 1.373 1_554 S
C2787 C2789 1.389 . S
C2788 H2761 0.950 . S
C2788 C2774 1.377 . S
C2788 C2787 1.373 1_556 S
C2789 C2773 1.377 . S
C2789 C2787 1.389 . S
C2789 C2790 1.524 . S
C2790 C2789 1.524 . S
C2790 C2791 1.397 . S
C2790 C2795 1.363 . S
C2791 H2762 0.950 . S
C2791 C2790 1.397 . S
C2791 C2792 1.334 . S
C2792 H2763 0.950 . S
C2792 C2791 1.334 . S
C2792 C2793 1.287 . S
C2793 C2792 1.287 . S
C2793 C2794 1.524 . S
C2793 H2796 0.999 . S
C2794 H2764 0.950 . S
C2794 C2793 1.524 . S
C2794 C2795 1.415 . S
C2795 H2765 0.950 . S
C2795 C2790 1.363 . S
C2795 C2794 1.415 . S
H2796 C2793 0.999 . S
H2797 C2778 0.913 . S
H2798 C2816 0.951 . S
H2799 C2818 0.951 . S
H2800 C2820 0.950 . S
H2801 C2821 0.950 . S
H2802 C2823 0.950 . S
H2803 C2826 0.950 . S
H2804 C2827 0.950 . S
H2805 C2829 0.950 . S
H2806 C2830 0.950 . S
H2807 C2831 0.951 . S
H2808 C2833 0.951 . S
H2809 C2835 0.950 . S
H2810 C2836 0.950 . S
H2811 C2838 0.950 . S
H2812 C2841 0.950 . S
H2813 C2842 0.950 . S
H2814 C2844 0.950 . S
H2815 C2845 0.950 . S
C2816 H2798 0.951 . S
C2816 C2817 1.366 . S
C2816 C2818 1.388 . S
C2817 C2816 1.366 . S
C2817 C2821 1.385 . S
C2818 H2799 0.951 . S
C2818 C2816 1.388 . S
C2818 C2819 1.366 . S
C2819 C2818 1.366 . S
C2819 C2820 1.414 . S
C2819 C2822 1.499 . S
C2820 H2800 0.950 . S
C2820 C2819 1.414 . S
C2820 C2821 1.374 . S
C2821 H2801 0.950 . S
C2821 C2817 1.385 . S
C2821 C2820 1.374 . S
C2822 C2819 1.499 . S
C2822 C2823 1.373 . S
C2822 C2824 1.389 . S
C2823 H2802 0.950 . S
C2823 C2822 1.373 . S
C2823 C2839 1.377 . S
C2824 C2822 1.389 . S
C2824 C2825 1.524 . S
C2824 C2838 1.377 . S
C2825 C2824 1.524 . S
C2825 C2826 1.397 . S
C2825 C2830 1.363 . S
C2826 H2803 0.950 . S
C2826 C2825 1.397 . S
C2826 C2827 1.334 . S
C2827 H2804 0.950 . S
C2827 C2826 1.334 . S
C2827 C2828 1.287 . S
C2828 C2827 1.287 . S
C2828 C2829 1.524 . S
C2828 H2847 0.913 . S
C2829 H2805 0.950 . S
C2829 C2828 1.524 . S
C2829 C2830 1.415 . S
C2830 H2806 0.950 . S
C2830 C2825 1.363 . S
C2830 C2829 1.415 . S
C2831 H2807 0.951 . S
C2831 C2832 1.366 . S
C2831 C2833 1.388 . S
C2832 C2831 1.366 . S
C2832 C2836 1.385 . S
C2833 H2808 0.951 . S
C2833 C2831 1.388 . S
C2833 C2834 1.366 . S
C2834 C2833 1.366 . S
C2834 C2835 1.414 . S
C2834 C2837 1.499 . S
C2835 H2809 0.950 . S
C2835 C2834 1.414 . S
C2835 C2836 1.374 . S
C2836 H2810 0.950 . S
C2836 C2832 1.385 . S
C2836 C2835 1.374 . S
C2837 C2834 1.499 . S
C2837 C2838 1.373 . S
C2837 C2839 1.389 . S
C2838 H2811 0.950 . S
C2838 C2824 1.377 . S
C2838 C2837 1.373 . S
C2839 C2823 1.377 . S
C2839 C2837 1.389 . S
C2839 C2840 1.524 . S
C2840 C2839 1.524 . S
C2840 C2841 1.397 . S
C2840 C2845 1.363 . S
C2841 H2812 0.950 . S
C2841 C2840 1.397 . S
C2841 C2842 1.334 . S
C2842 H2813 0.950 . S
C2842 C2841 1.334 . S
C2842 C2843 1.287 . S
C2843 C2842 1.287 . S
C2843 C2844 1.524 . S
C2843 H2846 0.999 . S
C2844 H2814 0.950 . S
C2844 C2843 1.524 . S
C2844 C2845 1.415 . S
C2845 H2815 0.950 . S
C2845 C2840 1.363 . S
C2845 C2844 1.415 . S
H2846 C2843 0.999 . S
H2847 C2828 0.913 . S
H2848 C2866 0.951 . S
H2849 C2868 0.951 . S
H2850 C2870 0.950 . S
H2851 C2871 0.950 . S
H2852 C2873 0.950 . S
H2853 C2876 0.950 . S
H2854 C2877 0.950 . S
H2855 C2879 0.950 . S
H2856 C2880 0.950 . S
H2857 C2881 0.951 . S
H2858 C2883 0.951 . S
H2859 C2885 0.950 . S
H2860 C2886 0.950 . S
H2861 C2888 0.950 . S
H2862 C2891 0.950 . S
H2863 C2892 0.950 . S
H2864 C2894 0.950 . S
H2865 C2895 0.950 . S
C2866 H2848 0.951 . S
C2866 C2867 1.366 . S
C2866 C2868 1.388 . S
C2867 C2866 1.366 . S
C2867 C2871 1.385 . S
C2868 H2849 0.951 . S
C2868 C2866 1.388 . S
C2868 C2869 1.366 . S
C2869 C2868 1.366 . S
C2869 C2870 1.414 . S
C2869 C2872 1.499 . S
C2870 H2850 0.950 . S
C2870 C2869 1.414 . S
C2870 C2871 1.374 . S
C2871 H2851 0.950 . S
C2871 C2867 1.385 . S
C2871 C2870 1.374 . S
C2872 C2869 1.499 . S
C2872 C2873 1.373 . S
C2872 C2874 1.389 . S
C2873 H2852 0.950 . S
C2873 C2872 1.373 . S
C2873 C2889 1.377 . S
C2874 C2872 1.389 . S
C2874 C2875 1.524 . S
C2874 C2888 1.377 . S
C2875 C2874 1.524 . S
C2875 C2876 1.397 . S
C2875 C2880 1.363 . S
C2876 H2853 0.950 . S
C2876 C2875 1.397 . S
C2876 C2877 1.334 . S
C2877 H2854 0.950 . S
C2877 C2876 1.334 . S
C2877 C2878 1.287 . S
C2878 C2877 1.287 . S
C2878 C2879 1.524 . S
C2878 H2897 0.913 . S
C2879 H2855 0.950 . S
C2879 C2878 1.524 . S
C2879 C2880 1.415 . S
C2880 H2856 0.950 . S
C2880 C2875 1.363 . S
C2880 C2879 1.415 . S
C2881 H2857 0.951 . S
C2881 C2882 1.366 . S
C2881 C2883 1.388 . S
C2882 C2881 1.366 . S
C2882 C2886 1.385 . S
C2883 H2858 0.951 . S
C2883 C2881 1.388 . S
C2883 C2884 1.366 . S
C2884 C2883 1.366 . S
C2884 C2885 1.414 . S
C2884 C2887 1.499 . S
C2885 H2859 0.950 . S
C2885 C2884 1.414 . S
C2885 C2886 1.374 . S
C2886 H2860 0.950 . S
C2886 C2882 1.385 . S
C2886 C2885 1.374 . S
C2887 C2884 1.499 . S
C2887 C2888 1.373 . S
C2887 C2889 1.389 . S
C2888 H2861 0.950 . S
C2888 C2874 1.377 . S
C2888 C2887 1.373 . S
C2889 C2873 1.377 . S
C2889 C2887 1.389 . S
C2889 C2890 1.524 . S
C2890 C2889 1.524 . S
C2890 C2891 1.397 . S
C2890 C2895 1.363 . S
C2891 H2862 0.950 . S
C2891 C2890 1.397 . S
C2891 C2892 1.334 . S
C2892 H2863 0.950 . S
C2892 C2891 1.334 . S
C2892 C2893 1.287 . S
C2893 C2892 1.287 . S
C2893 C2894 1.524 . S
C2893 H2896 0.999 . S
C2894 H2864 0.950 . S
C2894 C2893 1.524 . S
C2894 C2895 1.415 . S
C2895 H2865 0.950 . S
C2895 C2890 1.363 . S
C2895 C2894 1.415 . S
H2896 C2893 0.999 . S
H2897 C2878 0.913 . S
H2898 C2916 0.951 . S
H2899 C2918 0.951 . S
H2900 C2920 0.950 . S
H2901 C2921 0.950 . S
H2902 C2923 0.950 . S
H2903 C2926 0.950 . S
H2904 C2927 0.950 . S
H2905 C2929 0.950 . S
H2906 C2930 0.950 . S
H2907 C2931 0.951 . S
H2908 C2933 0.951 . S
H2909 C2935 0.950 . S
H2910 C2936 0.950 . S
H2911 C2938 0.950 . S
H2912 C2941 0.950 . S
H2913 C2942 0.950 . S
H2914 C2944 0.950 . S
H2915 C2945 0.950 . S
C2916 H2898 0.951 . S
C2916 C2917 1.366 . S
C2916 C2918 1.388 . S
C2917 C2916 1.366 . S
C2917 C2921 1.385 . S
C2918 H2899 0.951 . S
C2918 C2916 1.388 . S
C2918 C2919 1.366 . S
C2919 C2918 1.366 . S
C2919 C2920 1.414 . S
C2919 C2922 1.499 . S
C2920 H2900 0.950 . S
C2920 C2919 1.414 . S
C2920 C2921 1.374 . S
C2921 H2901 0.950 . S
C2921 C2917 1.385 . S
C2921 C2920 1.374 . S
C2922 C2919 1.499 . S
C2922 C2923 1.373 . S
C2922 C2924 1.389 . S
C2923 H2902 0.950 . S
C2923 C2922 1.373 . S
C2923 C2939 1.377 . S
C2924 C2922 1.389 . S
C2924 C2925 1.524 . S
C2924 C2938 1.377 . S
C2925 C2924 1.524 . S
C2925 C2926 1.397 . S
C2925 C2930 1.363 . S
C2926 H2903 0.950 . S
C2926 C2925 1.397 . S
C2926 C2927 1.334 . S
C2927 H2904 0.950 . S
C2927 C2926 1.334 . S
C2927 C2928 1.287 . S
C2928 C2927 1.287 . S
C2928 C2929 1.524 . S
C2928 H2947 0.913 . S
C2929 H2905 0.950 . S
C2929 C2928 1.524 . S
C2929 C2930 1.415 . S
C2930 H2906 0.950 . S
C2930 C2925 1.363 . S
C2930 C2929 1.415 . S
C2931 H2907 0.951 . S
C2931 C2932 1.366 . S
C2931 C2933 1.388 . S
C2932 C2931 1.366 . S
C2932 C2936 1.385 . S
C2933 H2908 0.951 . S
C2933 C2931 1.388 . S
C2933 C2934 1.366 . S
C2934 C2933 1.366 . S
C2934 C2935 1.414 . S
C2934 C2937 1.499 . S
C2935 H2909 0.950 . S
C2935 C2934 1.414 . S
C2935 C2936 1.374 . S
C2936 H2910 0.950 . S
C2936 C2932 1.385 . S
C2936 C2935 1.374 . S
C2937 C2934 1.499 . S
C2937 C2938 1.373 . S
C2937 C2939 1.389 . S
C2938 H2911 0.950 . S
C2938 C2924 1.377 . S
C2938 C2937 1.373 . S
C2939 C2923 1.377 . S
C2939 C2937 1.389 . S
C2939 C2940 1.524 . S
C2940 C2939 1.524 . S
C2940 C2941 1.397 . S
C2940 C2945 1.363 . S
C2941 H2912 0.950 . S
C2941 C2940 1.397 . S
C2941 C2942 1.334 . S
C2942 H2913 0.950 . S
C2942 C2941 1.334 . S
C2942 C2943 1.287 . S
C2943 C2942 1.287 . S
C2943 C2944 1.524 . S
C2943 H2946 0.999 . S
C2944 H2914 0.950 . S
C2944 C2943 1.524 . S
C2944 C2945 1.415 . S
C2945 H2915 0.950 . S
C2945 C2940 1.363 . S
C2945 C2944 1.415 . S
H2946 C2943 0.999 . S
H2947 C2928 0.913 . S
H2948 C2966 0.951 . S
H2949 C2968 0.951 . S
H2950 C2970 0.950 . S
H2951 C2971 0.950 . S
H2952 C2973 0.950 . S
H2953 C2976 0.950 . S
H2954 C2977 0.950 . S
H2955 C2979 0.950 . S
H2956 C2980 0.950 . S
H2957 C2981 0.951 . S
H2958 C2983 0.951 . S
H2959 C2985 0.950 . S
H2960 C2986 0.950 . S
H2961 C2988 0.950 . S
H2962 C2991 0.950 . S
H2963 C2992 0.950 . S
H2964 C2994 0.950 . S
H2965 C2995 0.950 . S
C2966 H2948 0.951 . S
C2966 C2967 1.366 . S
C2966 C2968 1.388 . S
C2967 C2966 1.366 . S
C2967 C2971 1.385 . S
C2968 H2949 0.951 . S
C2968 C2966 1.388 . S
C2968 C2969 1.366 . S
C2969 C2968 1.366 . S
C2969 C2970 1.414 . S
C2969 C2972 1.499 . S
C2970 H2950 0.950 . S
C2970 C2969 1.414 . S
C2970 C2971 1.374 . S
C2971 H2951 0.950 . S
C2971 C2967 1.385 . S
C2971 C2970 1.374 . S
C2972 C2969 1.499 . S
C2972 C2973 1.373 . S
C2972 C2974 1.389 . S
C2973 H2952 0.950 . S
C2973 C2972 1.373 . S
C2973 C2989 1.377 . S
C2974 C2972 1.389 . S
C2974 C2975 1.524 . S
C2974 C2988 1.377 . S
C2975 C2974 1.524 . S
C2975 C2976 1.397 . S
C2975 C2980 1.363 . S
C2976 H2953 0.950 . S
C2976 C2975 1.397 . S
C2976 C2977 1.334 . S
C2977 H2954 0.950 . S
C2977 C2976 1.334 . S
C2977 C2978 1.287 . S
C2978 C2977 1.287 . S
C2978 C2979 1.524 . S
C2978 H2997 0.913 . S
C2979 H2955 0.950 . S
C2979 C2978 1.524 . S
C2979 C2980 1.415 . S
C2980 H2956 0.950 . S
C2980 C2975 1.363 . S
C2980 C2979 1.415 . S
C2981 H2957 0.951 . S
C2981 C2982 1.366 . S
C2981 C2983 1.388 . S
C2982 C2981 1.366 . S
C2982 C2986 1.385 . S
C2983 H2958 0.951 . S
C2983 C2981 1.388 . S
C2983 C2984 1.366 . S
C2984 C2983 1.366 . S
C2984 C2985 1.414 . S
C2984 C2987 1.499 . S
C2985 H2959 0.950 . S
C2985 C2984 1.414 . S
C2985 C2986 1.374 . S
C2986 H2960 0.950 . S
C2986 C2982 1.385 . S
C2986 C2985 1.374 . S
C2987 C2984 1.499 . S
C2987 C2988 1.373 . S
C2987 C2989 1.389 . S
C2988 H2961 0.950 . S
C2988 C2974 1.377 . S
C2988 C2987 1.373 . S
C2989 C2973 1.377 . S
C2989 C2987 1.389 . S
C2989 C2990 1.524 . S
C2990 C2989 1.524 . S
C2990 C2991 1.397 . S
C2990 C2995 1.363 . S
C2991 H2962 0.950 . S
C2991 C2990 1.397 . S
C2991 C2992 1.334 . S
C2992 H2963 0.950 . S
C2992 C2991 1.334 . S
C2992 C2993 1.287 . S
C2993 C2992 1.287 . S
C2993 C2994 1.524 . S
C2993 H2996 0.999 . S
C2994 H2964 0.950 . S
C2994 C2993 1.524 . S
C2994 C2995 1.415 . S
C2995 H2965 0.950 . S
C2995 C2990 1.363 . S
C2995 C2994 1.415 . S
H2996 C2993 0.999 . S
H2997 C2978 0.913 . S
H2998 C3016 0.951 . S
H2999 C3018 0.951 . S
H3000 C3020 0.950 . S
H3001 C3021 0.950 . S
H3002 C3023 0.950 . S
H3003 C3026 0.950 . S
H3004 C3027 0.950 . S
H3005 C3029 0.950 . S
H3006 C3030 0.950 . S
H3007 C3031 0.951 . S
H3008 C3033 0.951 . S
H3009 C3035 0.950 . S
H3010 C3036 0.950 . S
H3011 C3038 0.950 . S
H3012 C3041 0.950 . S
H3013 C3042 0.950 . S
H3014 C3044 0.950 . S
H3015 C3045 0.950 . S
C3016 H2998 0.951 . S
C3016 C3017 1.366 . S
C3016 C3018 1.388 . S
C3017 C3016 1.366 . S
C3017 C3021 1.385 . S
C3018 H2999 0.951 . S
C3018 C3016 1.388 . S
C3018 C3019 1.366 . S
C3019 C3018 1.366 . S
C3019 C3020 1.414 . S
C3019 C3022 1.499 . S
C3020 H3000 0.950 . S
C3020 C3019 1.414 . S
C3020 C3021 1.374 . S
C3021 H3001 0.950 . S
C3021 C3017 1.385 . S
C3021 C3020 1.374 . S
C3022 C3019 1.499 . S
C3022 C3023 1.373 . S
C3022 C3024 1.389 . S
C3023 H3002 0.950 . S
C3023 C3022 1.373 . S
C3023 C3039 1.377 . S
C3024 C3022 1.389 . S
C3024 C3025 1.524 . S
C3024 C3038 1.377 . S
C3025 C3024 1.524 . S
C3025 C3026 1.397 . S
C3025 C3030 1.363 . S
C3026 H3003 0.950 . S
C3026 C3025 1.397 . S
C3026 C3027 1.334 . S
C3027 H3004 0.950 . S
C3027 C3026 1.334 . S
C3027 C3028 1.287 . S
C3028 C3027 1.287 . S
C3028 C3029 1.524 . S
C3028 H3047 0.913 . S
C3029 H3005 0.950 . S
C3029 C3028 1.524 . S
C3029 C3030 1.415 . S
C3030 H3006 0.950 . S
C3030 C3025 1.363 . S
C3030 C3029 1.415 . S
C3031 H3007 0.951 . S
C3031 C3032 1.366 . S
C3031 C3033 1.388 . S
C3032 C3031 1.366 . S
C3032 C3036 1.385 . S
C3033 H3008 0.951 . S
C3033 C3031 1.388 . S
C3033 C3034 1.366 . S
C3034 C3033 1.366 . S
C3034 C3035 1.414 . S
C3034 C3037 1.499 . S
C3035 H3009 0.950 . S
C3035 C3034 1.414 . S
C3035 C3036 1.374 . S
C3036 H3010 0.950 . S
C3036 C3032 1.385 . S
C3036 C3035 1.374 . S
C3037 C3034 1.499 . S
C3037 C3038 1.373 . S
C3037 C3039 1.389 . S
C3038 H3011 0.950 . S
C3038 C3024 1.377 . S
C3038 C3037 1.373 . S
C3039 C3023 1.377 . S
C3039 C3037 1.389 . S
C3039 C3040 1.524 . S
C3040 C3039 1.524 . S
C3040 C3041 1.397 . S
C3040 C3045 1.363 . S
C3041 H3012 0.950 . S
C3041 C3040 1.397 . S
C3041 C3042 1.334 . S
C3042 H3013 0.950 . S
C3042 C3041 1.334 . S
C3042 C3043 1.287 . S
C3043 C3042 1.287 . S
C3043 C3044 1.524 . S
C3043 H3046 0.999 . S
C3044 H3014 0.950 . S
C3044 C3043 1.524 . S
C3044 C3045 1.415 . S
C3045 H3015 0.950 . S
C3045 C3040 1.363 . S
C3045 C3044 1.415 . S
H3046 C3043 0.999 . S
H3047 C3028 0.913 . S
H3048 C3066 0.951 . S
H3049 C3068 0.951 . S
H3050 C3070 0.950 . S
H3051 C3071 0.950 . S
H3052 C3073 0.950 . S
H3053 C3076 0.950 . S
H3054 C3077 0.950 . S
H3055 C3079 0.950 . S
H3056 C3080 0.950 . S
H3057 C3081 0.951 . S
H3058 C3083 0.951 . S
H3059 C3085 0.950 . S
H3060 C3086 0.950 . S
H3061 C3088 0.950 . S
H3062 C3091 0.950 . S
H3063 C3092 0.950 . S
H3064 C3094 0.950 . S
H3065 C3095 0.950 . S
C3066 H3048 0.951 . S
C3066 C3067 1.366 . S
C3066 C3068 1.388 . S
C3067 C3066 1.366 . S
C3067 C3071 1.385 . S
C3068 H3049 0.951 . S
C3068 C3066 1.388 . S
C3068 C3069 1.366 . S
C3069 C3068 1.366 . S
C3069 C3070 1.414 . S
C3069 C3072 1.499 . S
C3070 H3050 0.950 . S
C3070 C3069 1.414 . S
C3070 C3071 1.374 . S
C3071 H3051 0.950 . S
C3071 C3067 1.385 . S
C3071 C3070 1.374 . S
C3072 C3069 1.499 . S
C3072 C3073 1.373 . S
C3072 C3074 1.389 . S
C3073 H3052 0.950 . S
C3073 C3072 1.373 . S
C3073 C3089 1.377 . S
C3074 C3072 1.389 . S
C3074 C3075 1.524 . S
C3074 C3088 1.377 . S
C3075 C3074 1.524 . S
C3075 C3076 1.397 . S
C3075 C3080 1.363 . S
C3076 H3053 0.950 . S
C3076 C3075 1.397 . S
C3076 C3077 1.334 . S
C3077 H3054 0.950 . S
C3077 C3076 1.334 . S
C3077 C3078 1.287 . S
C3078 C3077 1.287 . S
C3078 C3079 1.524 . S
C3078 H3097 0.913 . S
C3079 H3055 0.950 . S
C3079 C3078 1.524 . S
C3079 C3080 1.415 . S
C3080 H3056 0.950 . S
C3080 C3075 1.363 . S
C3080 C3079 1.415 . S
C3081 H3057 0.951 . S
C3081 C3082 1.366 . S
C3081 C3083 1.388 . S
C3082 C3081 1.366 . S
C3082 C3086 1.385 . S
C3083 H3058 0.951 . S
C3083 C3081 1.388 . S
C3083 C3084 1.366 . S
C3084 C3083 1.366 . S
C3084 C3085 1.414 . S
C3084 C3087 1.499 . S
C3085 H3059 0.950 . S
C3085 C3084 1.414 . S
C3085 C3086 1.374 . S
C3086 H3060 0.950 . S
C3086 C3082 1.385 . S
C3086 C3085 1.374 . S
C3087 C3084 1.499 . S
C3087 C3088 1.373 . S
C3087 C3089 1.389 . S
C3088 H3061 0.950 . S
C3088 C3074 1.377 . S
C3088 C3087 1.373 . S
C3089 C3073 1.377 . S
C3089 C3087 1.389 . S
C3089 C3090 1.524 . S
C3090 C3089 1.524 . S
C3090 C3091 1.397 . S
C3090 C3095 1.363 . S
C3091 H3062 0.950 . S
C3091 C3090 1.397 . S
C3091 C3092 1.334 . S
C3092 H3063 0.950 . S
C3092 C3091 1.334 . S
C3092 C3093 1.287 . S
C3093 C3092 1.287 . S
C3093 C3094 1.524 . S
C3093 H3096 0.999 . S
C3094 H3064 0.950 . S
C3094 C3093 1.524 . S
C3094 C3095 1.415 . S
C3095 H3065 0.950 . S
C3095 C3090 1.363 . S
C3095 C3094 1.415 . S
H3096 C3093 0.999 . S
H3097 C3078 0.913 . S
H3098 C3116 0.951 . S
H3099 C3118 0.951 . S
H3100 C3120 0.950 . S
H3101 C3121 0.950 . S
H3102 C3123 0.950 . S
H3103 C3126 0.950 . S
H3104 C3127 0.950 . S
H3105 C3129 0.950 . S
H3106 C3130 0.950 . S
H3107 C3131 0.951 . S
H3108 C3133 0.951 . S
H3109 C3135 0.950 . S
H3110 C3136 0.950 . S
H3111 C3138 0.950 . S
H3112 C3141 0.950 . S
H3113 C3142 0.950 . S
H3114 C3144 0.950 . S
H3115 C3145 0.950 . S
C3116 H3098 0.951 . S
C3116 C3117 1.366 . S
C3116 C3118 1.388 . S
C3117 C3116 1.366 . S
C3117 C3121 1.385 . S
C3118 H3099 0.951 . S
C3118 C3116 1.388 . S
C3118 C3119 1.366 . S
C3119 C3118 1.366 . S
C3119 C3120 1.414 . S
C3119 C3122 1.499 . S
C3120 H3100 0.950 . S
C3120 C3119 1.414 . S
C3120 C3121 1.374 . S
C3121 H3101 0.950 . S
C3121 C3117 1.385 . S
C3121 C3120 1.374 . S
C3122 C3119 1.499 . S
C3122 C3123 1.373 . S
C3122 C3124 1.389 . S
C3123 H3102 0.950 . S
C3123 C3122 1.373 . S
C3123 C3139 1.377 . S
C3124 C3122 1.389 . S
C3124 C3125 1.524 . S
C3124 C3138 1.377 . S
C3125 C3124 1.524 . S
C3125 C3126 1.397 . S
C3125 C3130 1.363 . S
C3126 H3103 0.950 . S
C3126 C3125 1.397 . S
C3126 C3127 1.334 . S
C3127 H3104 0.950 . S
C3127 C3126 1.334 . S
C3127 C3128 1.287 . S
C3128 C3127 1.287 . S
C3128 C3129 1.524 . S
C3128 H3147 0.913 . S
C3129 H3105 0.950 . S
C3129 C3128 1.524 . S
C3129 C3130 1.415 . S
C3130 H3106 0.950 . S
C3130 C3125 1.363 . S
C3130 C3129 1.415 . S
C3131 H3107 0.951 . S
C3131 C3132 1.366 . S
C3131 C3133 1.388 . S
C3132 C3131 1.366 . S
C3132 C3136 1.385 . S
C3133 H3108 0.951 . S
C3133 C3131 1.388 . S
C3133 C3134 1.366 . S
C3134 C3133 1.366 . S
C3134 C3135 1.414 . S
C3134 C3137 1.499 . S
C3135 H3109 0.950 . S
C3135 C3134 1.414 . S
C3135 C3136 1.374 . S
C3136 H3110 0.950 . S
C3136 C3132 1.385 . S
C3136 C3135 1.374 . S
C3137 C3134 1.499 . S
C3137 C3138 1.373 . S
C3137 C3139 1.389 . S
C3138 H3111 0.950 . S
C3138 C3124 1.377 . S
C3138 C3137 1.373 . S
C3139 C3123 1.377 . S
C3139 C3137 1.389 . S
C3139 C3140 1.524 . S
C3140 C3139 1.524 . S
C3140 C3141 1.397 . S
C3140 C3145 1.363 . S
C3141 H3112 0.950 . S
C3141 C3140 1.397 . S
C3141 C3142 1.334 . S
C3142 H3113 0.950 . S
C3142 C3141 1.334 . S
C3142 C3143 1.287 . S
C3143 C3142 1.287 . S
C3143 C3144 1.524 . S
C3143 H3146 0.999 . S
C3144 H3114 0.950 . S
C3144 C3143 1.524 . S
C3144 C3145 1.415 . S
C3145 H3115 0.950 . S
C3145 C3140 1.363 . S
C3145 C3144 1.415 . S
H3146 C3143 0.999 . S
H3147 C3128 0.913 . S
H3148 C3166 0.951 . S
H3149 C3168 0.951 . S
H3150 C3170 0.950 . S
H3151 C3171 0.950 . S
H3152 C3173 0.950 . S
H3153 C3176 0.950 . S
H3154 C3177 0.950 . S
H3155 C3179 0.950 . S
H3156 C3180 0.950 . S
H3157 C3181 0.951 . S
H3158 C3183 0.951 . S
H3159 C3185 0.950 . S
H3160 C3186 0.950 . S
H3161 C3188 0.950 . S
H3162 C3191 0.950 . S
H3163 C3192 0.950 . S
H3164 C3194 0.950 . S
H3165 C3195 0.950 . S
C3166 H3148 0.951 . S
C3166 C3167 1.366 . S
C3166 C3168 1.388 . S
C3167 C3166 1.366 . S
C3167 C3171 1.385 . S
C3168 H3149 0.951 . S
C3168 C3166 1.388 . S
C3168 C3169 1.366 . S
C3169 C3168 1.366 . S
C3169 C3170 1.414 . S
C3169 C3172 1.499 . S
C3170 H3150 0.950 . S
C3170 C3169 1.414 . S
C3170 C3171 1.374 . S
C3171 H3151 0.950 . S
C3171 C3167 1.385 . S
C3171 C3170 1.374 . S
C3172 C3169 1.499 . S
C3172 C3173 1.373 . S
C3172 C3174 1.389 . S
C3173 H3152 0.950 . S
C3173 C3172 1.373 . S
C3173 C3189 1.377 . S
C3174 C3172 1.389 . S
C3174 C3175 1.524 . S
C3174 C3188 1.377 . S
C3175 C3174 1.524 . S
C3175 C3176 1.397 . S
C3175 C3180 1.363 . S
C3176 H3153 0.950 . S
C3176 C3175 1.397 . S
C3176 C3177 1.334 . S
C3177 H3154 0.950 . S
C3177 C3176 1.334 . S
C3177 C3178 1.287 . S
C3178 C3177 1.287 . S
C3178 C3179 1.524 . S
C3178 H3197 0.913 . S
C3179 H3155 0.950 . S
C3179 C3178 1.524 . S
C3179 C3180 1.415 . S
C3180 H3156 0.950 . S
C3180 C3175 1.363 . S
C3180 C3179 1.415 . S
C3181 H3157 0.951 . S
C3181 C3182 1.366 . S
C3181 C3183 1.388 . S
C3182 C3181 1.366 . S
C3182 C3186 1.385 . S
C3183 H3158 0.951 . S
C3183 C3181 1.388 . S
C3183 C3184 1.366 . S
C3184 C3183 1.366 . S
C3184 C3185 1.414 . S
C3184 C3187 1.499 . S
C3185 H3159 0.950 . S
C3185 C3184 1.414 . S
C3185 C3186 1.374 . S
C3186 H3160 0.950 . S
C3186 C3182 1.385 . S
C3186 C3185 1.374 . S
C3187 C3184 1.499 . S
C3187 C3188 1.373 . S
C3187 C3189 1.389 . S
C3188 H3161 0.950 . S
C3188 C3174 1.377 . S
C3188 C3187 1.373 . S
C3189 C3173 1.377 . S
C3189 C3187 1.389 . S
C3189 C3190 1.524 . S
C3190 C3189 1.524 . S
C3190 C3191 1.397 . S
C3190 C3195 1.363 . S
C3191 H3162 0.950 . S
C3191 C3190 1.397 . S
C3191 C3192 1.334 . S
C3192 H3163 0.950 . S
C3192 C3191 1.334 . S
C3192 C3193 1.287 . S
C3193 C3192 1.287 . S
C3193 C3194 1.524 . S
C3193 H3196 0.999 . S
C3194 H3164 0.950 . S
C3194 C3193 1.524 . S
C3194 C3195 1.415 . S
C3195 H3165 0.950 . S
C3195 C3190 1.363 . S
C3195 C3194 1.415 . S
H3196 C3193 0.999 . S
H3197 C3178 0.913 . S
H3198 C3216 0.951 . S
H3199 C3218 0.951 . S
H3200 C3220 0.950 . S
H3201 C3221 0.950 . S
H3202 C3223 0.950 . S
H3203 C3226 0.950 . S
H3204 C3227 0.950 . S
H3205 C3229 0.950 . S
H3206 C3230 0.950 . S
H3207 C3231 0.951 . S
H3208 C3233 0.951 . S
H3209 C3235 0.950 . S
H3210 C3236 0.950 . S
H3211 C3238 0.950 . S
H3212 C3241 0.950 . S
H3213 C3242 0.950 . S
H3214 C3244 0.950 . S
H3215 C3245 0.950 . S
C3216 H3198 0.951 . S
C3216 C3217 1.366 . S
C3216 C3218 1.388 . S
C3217 C3216 1.366 . S
C3217 C3221 1.385 . S
C3218 H3199 0.951 . S
C3218 C3216 1.388 . S
C3218 C3219 1.366 . S
C3219 C3218 1.366 . S
C3219 C3220 1.414 . S
C3219 C3222 1.499 . S
C3220 H3200 0.950 . S
C3220 C3219 1.414 . S
C3220 C3221 1.374 . S
C3221 H3201 0.950 . S
C3221 C3217 1.385 . S
C3221 C3220 1.374 . S
C3222 C3219 1.499 . S
C3222 C3223 1.373 . S
C3222 C3224 1.389 . S
C3223 H3202 0.950 . S
C3223 C3222 1.373 . S
C3223 C3239 1.377 . S
C3224 C3222 1.389 . S
C3224 C3225 1.524 . S
C3224 C3238 1.377 . S
C3225 C3224 1.524 . S
C3225 C3226 1.397 . S
C3225 C3230 1.363 . S
C3226 H3203 0.950 . S
C3226 C3225 1.397 . S
C3226 C3227 1.334 . S
C3227 H3204 0.950 . S
C3227 C3226 1.334 . S
C3227 C3228 1.287 . S
C3228 C3227 1.287 . S
C3228 C3229 1.524 . S
C3228 H3247 0.913 . S
C3229 H3205 0.950 . S
C3229 C3228 1.524 . S
C3229 C3230 1.415 . S
C3230 H3206 0.950 . S
C3230 C3225 1.363 . S
C3230 C3229 1.415 . S
C3231 H3207 0.951 . S
C3231 C3232 1.366 . S
C3231 C3233 1.388 . S
C3232 C3231 1.366 . S
C3232 C3236 1.385 . S
C3233 H3208 0.951 . S
C3233 C3231 1.388 . S
C3233 C3234 1.366 . S
C3234 C3233 1.366 . S
C3234 C3235 1.414 . S
C3234 C3237 1.499 . S
C3235 H3209 0.950 . S
C3235 C3234 1.414 . S
C3235 C3236 1.374 . S
C3236 H3210 0.950 . S
C3236 C3232 1.385 . S
C3236 C3235 1.374 . S
C3237 C3234 1.499 . S
C3237 C3238 1.373 . S
C3237 C3239 1.389 . S
C3238 H3211 0.950 . S
C3238 C3224 1.377 . S
C3238 C3237 1.373 . S
C3239 C3223 1.377 . S
C3239 C3237 1.389 . S
C3239 C3240 1.524 . S
C3240 C3239 1.524 . S
C3240 C3241 1.397 . S
C3240 C3245 1.363 . S
C3241 H3212 0.950 . S
C3241 C3240 1.397 . S
C3241 C3242 1.334 . S
C3242 H3213 0.950 . S
C3242 C3241 1.334 . S
C3242 C3243 1.287 . S
C3243 C3242 1.287 . S
C3243 C3244 1.524 . S
C3243 H3246 0.999 . S
C3244 H3214 0.950 . S
C3244 C3243 1.524 . S
C3244 C3245 1.415 . S
C3245 H3215 0.950 . S
C3245 C3240 1.363 . S
C3245 C3244 1.415 . S
H3246 C3243 0.999 . S
H3247 C3228 0.913 . S
H3248 C3266 0.951 . S
H3249 C3268 0.951 . S
H3250 C3270 0.950 . S
H3251 C3271 0.950 . S
H3252 C3273 0.950 . S
H3253 C3276 0.950 . S
H3254 C3277 0.950 . S
H3255 C3279 0.950 . S
H3256 C3280 0.950 . S
H3257 C3281 0.951 . S
H3258 C3283 0.951 . S
H3259 C3285 0.950 . S
H3260 C3286 0.950 . S
H3261 C3288 0.950 . S
H3262 C3291 0.950 . S
H3263 C3292 0.950 . S
H3264 C3294 0.950 . S
H3265 C3295 0.950 . S
C3266 H3248 0.951 . S
C3266 C3267 1.366 . S
C3266 C3268 1.388 . S
C3267 C3266 1.366 . S
C3267 C3271 1.385 . S
C3268 H3249 0.951 . S
C3268 C3266 1.388 . S
C3268 C3269 1.366 . S
C3269 C3268 1.366 . S
C3269 C3270 1.414 . S
C3269 C3272 1.499 . S
C3270 H3250 0.950 . S
C3270 C3269 1.414 . S
C3270 C3271 1.374 . S
C3271 H3251 0.950 . S
C3271 C3267 1.385 . S
C3271 C3270 1.374 . S
C3272 C3269 1.499 . S
C3272 C3273 1.373 . S
C3272 C3274 1.389 . S
C3273 H3252 0.950 . S
C3273 C3272 1.373 . S
C3273 C3289 1.377 . S
C3274 C3272 1.389 . S
C3274 C3275 1.524 . S
C3274 C3288 1.377 . S
C3275 C3274 1.524 . S
C3275 C3276 1.397 . S
C3275 C3280 1.363 . S
C3276 H3253 0.950 . S
C3276 C3275 1.397 . S
C3276 C3277 1.334 . S
C3277 H3254 0.950 . S
C3277 C3276 1.334 . S
C3277 C3278 1.287 . S
C3278 C3277 1.287 . S
C3278 C3279 1.524 . S
C3278 H3297 0.913 . S
C3279 H3255 0.950 . S
C3279 C3278 1.524 . S
C3279 C3280 1.415 . S
C3280 H3256 0.950 . S
C3280 C3275 1.363 . S
C3280 C3279 1.415 . S
C3281 H3257 0.951 . S
C3281 C3282 1.366 . S
C3281 C3283 1.388 . S
C3282 C3281 1.366 . S
C3282 C3286 1.385 . S
C3283 H3258 0.951 . S
C3283 C3281 1.388 . S
C3283 C3284 1.366 . S
C3284 C3283 1.366 . S
C3284 C3285 1.414 . S
C3284 C3287 1.499 . S
C3285 H3259 0.950 . S
C3285 C3284 1.414 . S
C3285 C3286 1.374 . S
C3286 H3260 0.950 . S
C3286 C3282 1.385 . S
C3286 C3285 1.374 . S
C3287 C3284 1.499 . S
C3287 C3288 1.373 . S
C3287 C3289 1.389 . S
C3288 H3261 0.950 . S
C3288 C3274 1.377 . S
C3288 C3287 1.373 . S
C3289 C3273 1.377 . S
C3289 C3287 1.389 . S
C3289 C3290 1.524 . S
C3290 C3289 1.524 . S
C3290 C3291 1.397 . S
C3290 C3295 1.363 . S
C3291 H3262 0.950 . S
C3291 C3290 1.397 . S
C3291 C3292 1.334 . S
C3292 H3263 0.950 . S
C3292 C3291 1.334 . S
C3292 C3293 1.287 . S
C3293 C3292 1.287 . S
C3293 C3294 1.524 . S
C3293 H3296 0.999 . S
C3294 H3264 0.950 . S
C3294 C3293 1.524 . S
C3294 C3295 1.415 . S
C3295 H3265 0.950 . S
C3295 C3290 1.363 . S
C3295 C3294 1.415 . S
H3296 C3293 0.999 . S
H3297 C3278 0.913 . S
H3298 C3316 0.951 . S
H3299 C3318 0.951 . S
H3300 C3320 0.950 . S
H3301 C3321 0.950 . S
H3302 C3323 0.950 . S
H3303 C3326 0.950 . S
H3304 C3327 0.950 . S
H3305 C3329 0.950 . S
H3306 C3330 0.950 . S
H3307 C3331 0.951 . S
H3308 C3333 0.951 . S
H3309 C3335 0.950 . S
H3310 C3336 0.950 . S
H3311 C3338 0.950 . S
H3312 C3341 0.950 . S
H3313 C3342 0.950 . S
H3314 C3344 0.950 . S
H3315 C3345 0.950 . S
C3316 H3298 0.951 . S
C3316 C3317 1.366 . S
C3316 C3318 1.388 . S
C3317 C3316 1.366 . S
C3317 C3321 1.385 . S
C3318 H3299 0.951 . S
C3318 C3316 1.388 . S
C3318 C3319 1.366 . S
C3319 C3318 1.366 . S
C3319 C3320 1.414 . S
C3319 C3322 1.499 . S
C3320 H3300 0.950 . S
C3320 C3319 1.414 . S
C3320 C3321 1.374 . S
C3321 H3301 0.950 . S
C3321 C3317 1.385 . S
C3321 C3320 1.374 . S
C3322 C3319 1.499 . S
C3322 C3323 1.373 . S
C3322 C3324 1.389 . S
C3323 H3302 0.950 . S
C3323 C3322 1.373 . S
C3323 C3339 1.377 . S
C3324 C3322 1.389 . S
C3324 C3325 1.524 . S
C3324 C3338 1.377 . S
C3325 C3324 1.524 . S
C3325 C3326 1.397 . S
C3325 C3330 1.363 . S
C3326 H3303 0.950 . S
C3326 C3325 1.397 . S
C3326 C3327 1.334 . S
C3327 H3304 0.950 . S
C3327 C3326 1.334 . S
C3327 C3328 1.287 . S
C3328 C3327 1.287 . S
C3328 C3329 1.524 . S
C3328 H3347 0.913 . S
C3329 H3305 0.950 . S
C3329 C3328 1.524 . S
C3329 C3330 1.415 . S
C3330 H3306 0.950 . S
C3330 C3325 1.363 . S
C3330 C3329 1.415 . S
C3331 H3307 0.951 . S
C3331 C3332 1.366 . S
C3331 C3333 1.388 . S
C3332 C3331 1.366 . S
C3332 C3336 1.385 . S
C3333 H3308 0.951 . S
C3333 C3331 1.388 . S
C3333 C3334 1.366 . S
C3334 C3333 1.366 . S
C3334 C3335 1.414 . S
C3334 C3337 1.499 . S
C3335 H3309 0.950 . S
C3335 C3334 1.414 . S
C3335 C3336 1.374 . S
C3336 H3310 0.950 . S
C3336 C3332 1.385 . S
C3336 C3335 1.374 . S
C3337 C3334 1.499 . S
C3337 C3338 1.373 . S
C3337 C3339 1.389 . S
C3338 H3311 0.950 . S
C3338 C3324 1.377 . S
C3338 C3337 1.373 . S
C3339 C3323 1.377 . S
C3339 C3337 1.389 . S
C3339 C3340 1.524 . S
C3340 C3339 1.524 . S
C3340 C3341 1.397 . S
C3340 C3345 1.363 . S
C3341 H3312 0.950 . S
C3341 C3340 1.397 . S
C3341 C3342 1.334 . S
C3342 H3313 0.950 . S
C3342 C3341 1.334 . S
C3342 C3343 1.287 . S
C3343 C3342 1.287 . S
C3343 C3344 1.524 . S
C3343 H3346 0.999 . S
C3344 H3314 0.950 . S
C3344 C3343 1.524 . S
C3344 C3345 1.415 . S
C3345 H3315 0.950 . S
C3345 C3340 1.363 . S
C3345 C3344 1.415 . S
H3346 C3343 0.999 . S
H3347 C3328 0.913 . S
H3348 C3366 0.951 . S
H3349 C3368 0.951 . S
H3350 C3370 0.950 . S
H3351 C3371 0.950 . S
H3352 C3373 0.950 . S
H3353 C3376 0.950 . S
H3354 C3377 0.950 . S
H3355 C3379 0.950 . S
H3356 C3380 0.950 . S
H3357 C3381 0.951 . S
H3358 C3383 0.951 . S
H3359 C3385 0.950 . S
H3360 C3386 0.950 . S
H3361 C3388 0.950 . S
H3362 C3391 0.950 . S
H3363 C3392 0.950 . S
H3364 C3394 0.950 . S
H3365 C3395 0.950 . S
C3366 H3348 0.951 . S
C3366 C3367 1.366 . S
C3366 C3368 1.388 . S
C3367 C3366 1.366 . S
C3367 C3371 1.385 . S
C3368 H3349 0.951 . S
C3368 C3366 1.388 . S
C3368 C3369 1.366 . S
C3369 C3368 1.366 . S
C3369 C3370 1.414 . S
C3369 C3372 1.499 . S
C3370 H3350 0.950 . S
C3370 C3369 1.414 . S
C3370 C3371 1.374 . S
C3371 H3351 0.950 . S
C3371 C3367 1.385 . S
C3371 C3370 1.374 . S
C3372 C3369 1.499 . S
C3372 C3373 1.373 . S
C3372 C3374 1.389 . S
C3373 H3352 0.950 . S
C3373 C3372 1.373 . S
C3373 C3389 1.377 . S
C3374 C3372 1.389 . S
C3374 C3375 1.524 . S
C3374 C3388 1.377 . S
C3375 C3374 1.524 . S
C3375 C3376 1.397 . S
C3375 C3380 1.363 . S
C3376 H3353 0.950 . S
C3376 C3375 1.397 . S
C3376 C3377 1.334 . S
C3377 H3354 0.950 . S
C3377 C3376 1.334 . S
C3377 C3378 1.287 . S
C3378 C3377 1.287 . S
C3378 C3379 1.524 . S
C3378 H3397 0.913 . S
C3379 H3355 0.950 . S
C3379 C3378 1.524 . S
C3379 C3380 1.415 . S
C3380 H3356 0.950 . S
C3380 C3375 1.363 . S
C3380 C3379 1.415 . S
C3381 H3357 0.951 . S
C3381 C3382 1.366 . S
C3381 C3383 1.388 . S
C3382 C3381 1.366 . S
C3382 C3386 1.385 . S
C3383 H3358 0.951 . S
C3383 C3381 1.388 . S
C3383 C3384 1.366 . S
C3384 C3383 1.366 . S
C3384 C3385 1.414 . S
C3384 C3387 1.499 . S
C3385 H3359 0.950 . S
C3385 C3384 1.414 . S
C3385 C3386 1.374 . S
C3386 H3360 0.950 . S
C3386 C3382 1.385 . S
C3386 C3385 1.374 . S
C3387 C3384 1.499 . S
C3387 C3388 1.373 . S
C3387 C3389 1.389 . S
C3388 H3361 0.950 . S
C3388 C3374 1.377 . S
C3388 C3387 1.373 . S
C3389 C3373 1.377 . S
C3389 C3387 1.389 . S
C3389 C3390 1.524 . S
C3390 C3389 1.524 . S
C3390 C3391 1.397 . S
C3390 C3395 1.363 . S
C3391 H3362 0.950 . S
C3391 C3390 1.397 . S
C3391 C3392 1.334 . S
C3392 H3363 0.950 . S
C3392 C3391 1.334 . S
C3392 C3393 1.287 . S
C3393 C3392 1.287 . S
C3393 C3394 1.524 . S
C3393 H3396 0.999 . S
C3394 H3364 0.950 . S
C3394 C3393 1.524 . S
C3394 C3395 1.415 . S
C3395 H3365 0.950 . S
C3395 C3390 1.363 . S
C3395 C3394 1.415 . S
H3396 C3393 0.999 . S
H3397 C3378 0.913 . S
H3398 C3416 0.951 . S
H3399 C3418 0.951 . S
H3400 C3420 0.950 . S
H3401 C3421 0.950 . S
H3402 C3423 0.950 . S
H3403 C3426 0.950 . S
H3404 C3427 0.950 . S
H3405 C3429 0.950 . S
H3406 C3430 0.950 . S
H3407 C3431 0.951 . S
H3408 C3433 0.951 . S
H3409 C3435 0.950 . S
H3410 C3436 0.950 . S
H3411 C3438 0.950 . S
H3412 C3441 0.950 . S
H3413 C3442 0.950 . S
H3414 C3444 0.950 . S
H3415 C3445 0.950 . S
C3416 H3398 0.951 . S
C3416 C3417 1.366 . S
C3416 C3418 1.388 . S
C3417 C3416 1.366 . S
C3417 C3421 1.385 . S
C3418 H3399 0.951 . S
C3418 C3416 1.388 . S
C3418 C3419 1.366 . S
C3419 C3418 1.366 . S
C3419 C3420 1.414 . S
C3419 C3422 1.499 . S
C3420 H3400 0.950 . S
C3420 C3419 1.414 . S
C3420 C3421 1.374 . S
C3421 H3401 0.950 . S
C3421 C3417 1.385 . S
C3421 C3420 1.374 . S
C3422 C3419 1.499 . S
C3422 C3423 1.373 . S
C3422 C3424 1.389 . S
C3423 H3402 0.950 . S
C3423 C3422 1.373 . S
C3423 C3439 1.377 . S
C3424 C3422 1.389 . S
C3424 C3425 1.524 . S
C3424 C3438 1.377 . S
C3425 C3424 1.524 . S
C3425 C3426 1.397 . S
C3425 C3430 1.363 . S
C3426 H3403 0.950 . S
C3426 C3425 1.397 . S
C3426 C3427 1.334 . S
C3427 H3404 0.950 . S
C3427 C3426 1.334 . S
C3427 C3428 1.287 . S
C3428 C3427 1.287 . S
C3428 C3429 1.524 . S
C3428 H3447 0.913 . S
C3429 H3405 0.950 . S
C3429 C3428 1.524 . S
C3429 C3430 1.415 . S
C3430 H3406 0.950 . S
C3430 C3425 1.363 . S
C3430 C3429 1.415 . S
C3431 H3407 0.951 . S
C3431 C3432 1.366 . S
C3431 C3433 1.388 . S
C3432 C3431 1.366 . S
C3432 C3436 1.385 . S
C3433 H3408 0.951 . S
C3433 C3431 1.388 . S
C3433 C3434 1.366 . S
C3434 C3433 1.366 . S
C3434 C3435 1.414 . S
C3434 C3437 1.499 . S
C3435 H3409 0.950 . S
C3435 C3434 1.414 . S
C3435 C3436 1.374 . S
C3436 H3410 0.950 . S
C3436 C3432 1.385 . S
C3436 C3435 1.374 . S
C3437 C3434 1.499 . S
C3437 C3438 1.373 . S
C3437 C3439 1.389 . S
C3438 H3411 0.950 . S
C3438 C3424 1.377 . S
C3438 C3437 1.373 . S
C3439 C3423 1.377 . S
C3439 C3437 1.389 . S
C3439 C3440 1.524 . S
C3440 C3439 1.524 . S
C3440 C3441 1.397 . S
C3440 C3445 1.363 . S
C3441 H3412 0.950 . S
C3441 C3440 1.397 . S
C3441 C3442 1.334 . S
C3442 H3413 0.950 . S
C3442 C3441 1.334 . S
C3442 C3443 1.287 . S
C3443 C3442 1.287 . S
C3443 C3444 1.524 . S
C3443 H3446 0.999 . S
C3444 H3414 0.950 . S
C3444 C3443 1.524 . S
C3444 C3445 1.415 . S
C3445 H3415 0.950 . S
C3445 C3440 1.363 . S
C3445 C3444 1.415 . S
H3446 C3443 0.999 . S
H3447 C3428 0.913 . S
H3448 C3466 0.951 . S
H3449 C3468 0.951 . S
H3450 C3470 0.950 . S
H3451 C3471 0.950 . S
H3452 C3473 0.950 . S
H3453 C3476 0.950 . S
H3454 C3477 0.950 . S
H3455 C3479 0.950 . S
H3456 C3480 0.950 . S
H3457 C3481 0.951 . S
H3458 C3483 0.951 . S
H3459 C3485 0.950 . S
H3460 C3486 0.950 . S
H3461 C3488 0.950 . S
H3462 C3491 0.950 . S
H3463 C3492 0.950 . S
H3464 C3494 0.950 . S
H3465 C3495 0.950 . S
C3466 H3448 0.951 . S
C3466 C3467 1.366 . S
C3466 C3468 1.388 . S
C3467 C3466 1.366 . S
C3467 C3471 1.385 . S
C3468 H3449 0.951 . S
C3468 C3466 1.388 . S
C3468 C3469 1.366 . S
C3469 C3468 1.366 . S
C3469 C3470 1.414 . S
C3469 C3472 1.499 . S
C3470 H3450 0.950 . S
C3470 C3469 1.414 . S
C3470 C3471 1.374 . S
C3471 H3451 0.950 . S
C3471 C3467 1.385 . S
C3471 C3470 1.374 . S
C3472 C3469 1.499 . S
C3472 C3473 1.373 . S
C3472 C3474 1.389 . S
C3473 H3452 0.950 . S
C3473 C3472 1.373 . S
C3473 C3489 1.377 . S
C3474 C3472 1.389 . S
C3474 C3475 1.524 . S
C3474 C3488 1.377 . S
C3475 C3474 1.524 . S
C3475 C3476 1.397 . S
C3475 C3480 1.363 . S
C3476 H3453 0.950 . S
C3476 C3475 1.397 . S
C3476 C3477 1.334 . S
C3477 H3454 0.950 . S
C3477 C3476 1.334 . S
C3477 C3478 1.287 . S
C3478 C3477 1.287 . S
C3478 C3479 1.524 . S
C3478 H3497 0.913 . S
C3479 H3455 0.950 . S
C3479 C3478 1.524 . S
C3479 C3480 1.415 . S
C3480 H3456 0.950 . S
C3480 C3475 1.363 . S
C3480 C3479 1.415 . S
C3481 H3457 0.951 . S
C3481 C3482 1.366 . S
C3481 C3483 1.388 . S
C3482 C3481 1.366 . S
C3482 C3486 1.385 . S
C3483 H3458 0.951 . S
C3483 C3481 1.388 . S
C3483 C3484 1.366 . S
C3484 C3483 1.366 . S
C3484 C3485 1.414 . S
C3484 C3487 1.499 . S
C3485 H3459 0.950 . S
C3485 C3484 1.414 . S
C3485 C3486 1.374 . S
C3486 H3460 0.950 . S
C3486 C3482 1.385 . S
C3486 C3485 1.374 . S
C3487 C3484 1.499 . S
C3487 C3488 1.373 . S
C3487 C3489 1.389 . S
C3488 H3461 0.950 . S
C3488 C3474 1.377 . S
C3488 C3487 1.373 . S
C3489 C3473 1.377 . S
C3489 C3487 1.389 . S
C3489 C3490 1.524 . S
C3490 C3489 1.524 . S
C3490 C3491 1.397 . S
C3490 C3495 1.363 . S
C3491 H3462 0.950 . S
C3491 C3490 1.397 . S
C3491 C3492 1.334 . S
C3492 H3463 0.950 . S
C3492 C3491 1.334 . S
C3492 C3493 1.287 . S
C3493 C3492 1.287 . S
C3493 C3494 1.524 . S
C3493 H3496 0.999 . S
C3494 H3464 0.950 . S
C3494 C3493 1.524 . S
C3494 C3495 1.415 . S
C3495 H3465 0.950 . S
C3495 C3490 1.363 . S
C3495 C3494 1.415 . S
H3496 C3493 0.999 . S
H3497 C3478 0.913 . S
H3498 C3516 0.951 . S
H3499 C3518 0.951 . S
H3500 C3520 0.950 . S
H3501 C3521 0.950 . S
H3502 C3523 0.950 . S
H3503 C3526 0.950 . S
H3504 C3527 0.950 . S
H3505 C3529 0.950 . S
H3506 C3530 0.950 . S
H3507 C3531 0.951 . S
H3508 C3533 0.951 . S
H3509 C3535 0.950 . S
H3510 C3536 0.950 . S
H3511 C3538 0.950 . S
H3512 C3541 0.950 . S
H3513 C3542 0.950 . S
H3514 C3544 0.950 . S
H3515 C3545 0.950 . S
C3516 H3498 0.951 . S
C3516 C3517 1.366 . S
C3516 C3518 1.388 . S
C3517 C3516 1.366 . S
C3517 C3521 1.385 . S
C3518 H3499 0.951 . S
C3518 C3516 1.388 . S
C3518 C3519 1.366 . S
C3519 C3518 1.366 . S
C3519 C3520 1.414 . S
C3519 C3522 1.499 . S
C3520 H3500 0.950 . S
C3520 C3519 1.414 . S
C3520 C3521 1.374 . S
C3521 H3501 0.950 . S
C3521 C3517 1.385 . S
C3521 C3520 1.374 . S
C3522 C3519 1.499 . S
C3522 C3523 1.373 . S
C3522 C3524 1.389 . S
C3523 H3502 0.950 . S
C3523 C3522 1.373 . S
C3523 C3539 1.377 . S
C3524 C3522 1.389 . S
C3524 C3525 1.524 . S
C3524 C3538 1.377 . S
C3525 C3524 1.524 . S
C3525 C3526 1.397 . S
C3525 C3530 1.363 . S
C3526 H3503 0.950 . S
C3526 C3525 1.397 . S
C3526 C3527 1.334 . S
C3527 H3504 0.950 . S
C3527 C3526 1.334 . S
C3527 C3528 1.287 . S
C3528 C3527 1.287 . S
C3528 C3529 1.524 . S
C3528 H3547 0.913 . S
C3529 H3505 0.950 . S
C3529 C3528 1.524 . S
C3529 C3530 1.415 . S
C3530 H3506 0.950 . S
C3530 C3525 1.363 . S
C3530 C3529 1.415 . S
C3531 H3507 0.951 . S
C3531 C3532 1.366 . S
C3531 C3533 1.388 . S
C3532 C3531 1.366 . S
C3532 C3536 1.385 . S
C3533 H3508 0.951 . S
C3533 C3531 1.388 . S
C3533 C3534 1.366 . S
C3534 C3533 1.366 . S
C3534 C3535 1.414 . S
C3534 C3537 1.499 . S
C3535 H3509 0.950 . S
C3535 C3534 1.414 . S
C3535 C3536 1.374 . S
C3536 H3510 0.950 . S
C3536 C3532 1.385 . S
C3536 C3535 1.374 . S
C3537 C3534 1.499 . S
C3537 C3538 1.373 . S
C3537 C3539 1.389 . S
C3538 H3511 0.950 . S
C3538 C3524 1.377 . S
C3538 C3537 1.373 . S
C3539 C3523 1.377 . S
C3539 C3537 1.389 . S
C3539 C3540 1.524 . S
C3540 C3539 1.524 . S
C3540 C3541 1.397 . S
C3540 C3545 1.363 . S
C3541 H3512 0.950 . S
C3541 C3540 1.397 . S
C3541 C3542 1.334 . S
C3542 H3513 0.950 . S
C3542 C3541 1.334 . S
C3542 C3543 1.287 . S
C3543 C3542 1.287 . S
C3543 C3544 1.524 . S
C3543 H3546 0.999 . S
C3544 H3514 0.950 . S
C3544 C3543 1.524 . S
C3544 C3545 1.415 . S
C3545 H3515 0.950 . S
C3545 C3540 1.363 . S
C3545 C3544 1.415 . S
H3546 C3543 0.999 . S
H3547 C3528 0.913 . S
H3548 C3566 0.951 . S
H3549 C3568 0.951 . S
H3550 C3570 0.950 . S
H3551 C3571 0.950 . S
H3552 C3573 0.950 . S
H3553 C3576 0.950 . S
H3554 C3577 0.950 . S
H3555 C3579 0.950 . S
H3556 C3580 0.950 . S
H3557 C3581 0.951 . S
H3558 C3583 0.951 . S
H3559 C3585 0.950 . S
H3560 C3586 0.950 . S
H3561 C3588 0.950 . S
H3562 C3591 0.950 . S
H3563 C3592 0.950 . S
H3564 C3594 0.950 . S
H3565 C3595 0.950 . S
C3566 H3548 0.951 . S
C3566 C3567 1.366 . S
C3566 C3568 1.388 . S
C3567 C3566 1.366 . S
C3567 C3571 1.385 . S
C3568 H3549 0.951 . S
C3568 C3566 1.388 . S
C3568 C3569 1.366 . S
C3569 C3568 1.366 . S
C3569 C3570 1.414 . S
C3569 C3572 1.499 . S
C3570 H3550 0.950 . S
C3570 C3569 1.414 . S
C3570 C3571 1.374 . S
C3571 H3551 0.950 . S
C3571 C3567 1.385 . S
C3571 C3570 1.374 . S
C3572 C3569 1.499 . S
C3572 C3573 1.373 . S
C3572 C3574 1.389 . S
C3573 H3552 0.950 . S
C3573 C3572 1.373 . S
C3573 C3589 1.377 . S
C3574 C3572 1.389 . S
C3574 C3575 1.524 . S
C3574 C3588 1.377 . S
C3575 C3574 1.524 . S
C3575 C3576 1.397 . S
C3575 C3580 1.363 . S
C3576 H3553 0.950 . S
C3576 C3575 1.397 . S
C3576 C3577 1.334 . S
C3577 H3554 0.950 . S
C3577 C3576 1.334 . S
C3577 C3578 1.287 . S
C3578 C3577 1.287 . S
C3578 C3579 1.524 . S
C3578 H3597 0.913 . S
C3579 H3555 0.950 . S
C3579 C3578 1.524 . S
C3579 C3580 1.415 . S
C3580 H3556 0.950 . S
C3580 C3575 1.363 . S
C3580 C3579 1.415 . S
C3581 H3557 0.951 . S
C3581 C3582 1.366 . S
C3581 C3583 1.388 . S
C3582 C3581 1.366 . S
C3582 C3586 1.385 . S
C3583 H3558 0.951 . S
C3583 C3581 1.388 . S
C3583 C3584 1.366 . S
C3584 C3583 1.366 . S
C3584 C3585 1.414 . S
C3584 C3587 1.499 . S
C3585 H3559 0.950 . S
C3585 C3584 1.414 . S
C3585 C3586 1.374 . S
C3586 H3560 0.950 . S
C3586 C3582 1.385 . S
C3586 C3585 1.374 . S
C3587 C3584 1.499 . S
C3587 C3588 1.373 . S
C3587 C3589 1.389 . S
C3588 H3561 0.950 . S
C3588 C3574 1.377 . S
C3588 C3587 1.373 . S
C3589 C3573 1.377 . S
C3589 C3587 1.389 . S
C3589 C3590 1.524 . S
C3590 C3589 1.524 . S
C3590 C3591 1.397 . S
C3590 C3595 1.363 . S
C3591 H3562 0.950 . S
C3591 C3590 1.397 . S
C3591 C3592 1.334 . S
C3592 H3563 0.950 . S
C3592 C3591 1.334 . S
C3592 C3593 1.287 . S
C3593 C3592 1.287 . S
C3593 C3594 1.524 . S
C3593 H3596 0.999 . S
C3594 H3564 0.950 . S
C3594 C3593 1.524 . S
C3594 C3595 1.415 . S
C3595 H3565 0.950 . S
C3595 C3590 1.363 . S
C3595 C3594 1.415 . S
H3596 C3593 0.999 . S
H3597 C3578 0.913 . S
H3598 C3616 0.951 . S
H3599 C3618 0.951 . S
H3600 C3620 0.950 . S
H3601 C3621 0.950 . S
H3602 C3623 0.950 . S
H3603 C3626 0.950 . S
H3604 C3627 0.950 . S
H3605 C3629 0.950 . S
H3606 C3630 0.950 . S
H3607 C3631 0.951 . S
H3608 C3633 0.951 . S
H3609 C3635 0.950 . S
H3610 C3636 0.950 . S
H3611 C3638 0.950 . S
H3612 C3641 0.950 . S
H3613 C3642 0.950 . S
H3614 C3644 0.950 . S
H3615 C3645 0.950 . S
C3616 H3598 0.951 . S
C3616 C3617 1.366 . S
C3616 C3618 1.388 . S
C3617 C3616 1.366 . S
C3617 C3621 1.385 . S
C3618 H3599 0.951 . S
C3618 C3616 1.388 . S
C3618 C3619 1.366 . S
C3619 C3618 1.366 . S
C3619 C3620 1.414 . S
C3619 C3622 1.499 . S
C3620 H3600 0.950 . S
C3620 C3619 1.414 . S
C3620 C3621 1.374 . S
C3621 H3601 0.950 . S
C3621 C3617 1.385 . S
C3621 C3620 1.374 . S
C3622 C3619 1.499 . S
C3622 C3623 1.373 . S
C3622 C3624 1.389 . S
C3623 H3602 0.950 . S
C3623 C3622 1.373 . S
C3623 C3639 1.377 . S
C3624 C3622 1.389 . S
C3624 C3625 1.524 . S
C3624 C3638 1.377 . S
C3625 C3624 1.524 . S
C3625 C3626 1.397 . S
C3625 C3630 1.363 . S
C3626 H3603 0.950 . S
C3626 C3625 1.397 . S
C3626 C3627 1.334 . S
C3627 H3604 0.950 . S
C3627 C3626 1.334 . S
C3627 C3628 1.287 . S
C3628 C3627 1.287 . S
C3628 C3629 1.524 . S
C3628 H3647 0.913 . S
C3629 H3605 0.950 . S
C3629 C3628 1.524 . S
C3629 C3630 1.415 . S
C3630 H3606 0.950 . S
C3630 C3625 1.363 . S
C3630 C3629 1.415 . S
C3631 H3607 0.951 . S
C3631 C3632 1.366 . S
C3631 C3633 1.388 . S
C3632 C3631 1.366 . S
C3632 C3636 1.385 . S
C3633 H3608 0.951 . S
C3633 C3631 1.388 . S
C3633 C3634 1.366 . S
C3634 C3633 1.366 . S
C3634 C3635 1.414 . S
C3634 C3637 1.499 . S
C3635 H3609 0.950 . S
C3635 C3634 1.414 . S
C3635 C3636 1.374 . S
C3636 H3610 0.950 . S
C3636 C3632 1.385 . S
C3636 C3635 1.374 . S
C3637 C3634 1.499 . S
C3637 C3638 1.373 . S
C3637 C3639 1.389 . S
C3638 H3611 0.950 . S
C3638 C3624 1.377 . S
C3638 C3637 1.373 . S
C3639 C3623 1.377 . S
C3639 C3637 1.389 . S
C3639 C3640 1.524 . S
C3640 C3639 1.524 . S
C3640 C3641 1.397 . S
C3640 C3645 1.363 . S
C3641 H3612 0.950 . S
C3641 C3640 1.397 . S
C3641 C3642 1.334 . S
C3642 H3613 0.950 . S
C3642 C3641 1.334 . S
C3642 C3643 1.287 . S
C3643 C3642 1.287 . S
C3643 C3644 1.524 . S
C3643 H3646 0.999 . S
C3644 H3614 0.950 . S
C3644 C3643 1.524 . S
C3644 C3645 1.415 . S
C3645 H3615 0.950 . S
C3645 C3640 1.363 . S
C3645 C3644 1.415 . S
H3646 C3643 0.999 . S
H3647 C3628 0.913 . S
C467 C121 1.565 . S
C482 C9 1.565 . S
C517 C359 1.565 . S
C532 C23 1.565 . S
C567 C149 1.565 . S
C582 C37 1.565 . S
C617 C387 1.565 . S
C632 C51 1.565 . S
C667 C177 1.565 . S
C682 C65 1.565 . S
C717 C79 1.565 . S
C732 C415 1.565 . S
C767 C93 1.565 . S
C782 C205 1.565 . S
C817 C107 1.565 . S
C832 C443 1.565 . S
C867 C247 1.565 . S
C882 C135 1.565 . S
C917 C275 1.565 . S
C932 C163 1.565 . S
C967 C191 1.565 . S
C982 C303 1.565 . S
C1017 C219 1.565 . S
C1032 C331 1.565 . S
C1067 C233 1.565 . S
C1082 C345 1.565 . S
C1117 C373 1.565 . S
C1132 C261 1.565 . S
C1167 C289 1.565 . S
C1182 C401 1.565 . S
C1217 C429 1.565 . S
C1232 C317 1.565 . S
C1267 C257 1.630 . S
C1282 C5 1.630 . S
C1317 C271 1.630 . S
C1332 C19 1.630 . S
C1367 C33 1.630 . S
C1382 C229 1.630 . S
C1417 C47 1.630 . S
C1432 C243 1.630 . S
C1467 C313 1.630 . S
C1482 C61 1.630 . S
C1517 C75 1.630 . S
C1532 C327 1.630 . S
C1567 C285 1.630 . S
C1582 C89 1.630 . S
C1617 C299 1.630 . S
C1632 C103 1.630 . S
C1667 C117 1.630 . S
C1682 C369 1.630 . S
C1717 C383 1.630 . S
C1732 C131 1.630 . S
C1767 C145 1.630 . S
C1782 C341 1.630 . S
C1817 C159 1.630 . S
C1832 C355 1.630 . S
C1867 C173 1.630 . S
C1882 C425 1.630 . S
C1917 C187 1.630 . S
C1932 C439 1.630 . S
C1967 C397 1.630 . S
C1982 C201 1.630 . S
C2017 C411 1.630 . S
C2032 C215 1.630 . S
C2067 C95 1.475 . S
C2082 C11 1.476 . S
C2117 C109 1.475 . S
C2132 C25 1.475 . S
C2167 C67 1.476 . S
C2182 C39 1.476 . S
C2217 C53 1.475 . S
C2232 C81 1.475 . S
C2267 C207 1.476 . S
C2282 C123 1.476 . S
C2317 C221 1.475 . S
C2332 C137 1.475 . S
C2367 C179 1.476 . S
C2382 C151 1.475 . S
C2417 C193 1.475 . S
C2432 C165 1.475 . S
C2467 C319 1.475 . S
C2482 C235 1.475 . S
C2517 C333 1.475 . S
C2532 C249 1.476 . S
C2567 C263 1.476 . S
C2582 C291 1.475 . S
C2617 C277 1.475 . S
C2632 C305 1.476 . S
C2667 C431 1.475 . S
C2682 C347 1.475 . S
C2717 C445 1.476 . S
C2732 C361 1.476 . S
C2767 C375 1.475 . S
C2782 C403 1.475 . S
C2817 C389 1.476 . S
C2832 C417 1.476 . S
C2867 C0 1.377 . S
C2882 C294 1.377 . S
C2917 C308 1.378 . S
C2932 C14 1.378 . S
C2967 C322 1.378 . S
C2982 C28 1.377 . S
C3017 C42 1.378 . S
C3032 C280 1.378 . S
C3067 C266 1.377 . S
C3082 C56 1.378 . S
C3117 C70 1.378 . S
C3132 C224 1.377 . S
C3167 C238 1.378 . S
C3182 C84 1.378 . S
C3217 C98 1.378 . S
C3232 C252 1.378 . S
C3267 C406 1.377 . S
C3282 C112 1.377 . S
C3317 C420 1.378 . S
C3332 C126 1.378 . S
C3367 C140 1.377 . S
C3382 C434 1.378 . S
C3417 C392 1.377 . S
C3432 C154 1.378 . S
C3467 C378 1.377 . S
C3482 C168 1.378 . S
C3517 C182 1.378 . S
C3532 C336 1.377 . S
C3567 C350 1.378 . S
C3582 C196 1.377 . S
C3617 C210 1.378 . S
C3632 C364 1.378 . S
