# Generated by pormake.
# Topology wme, (6)-cn, num edge types: 1
# Building blocks:
#     Node 0, Type 0, BuildingBlock: MIFKUJ_clean_sbu_0, # of connection points: 6
#     Node 1, Type 0, BuildingBlock: MIFKUJ_clean_sbu_0, # of connection points: 6
#     Node 2, Type 0, BuildingBlock: MIFKUJ_clean_sbu_0, # of connection points: 6
#     Node 3, Type 0, BuildingBlock: MIFKUJ_clean_sbu_0, # of connection points: 6
#     Node 4, Type 0, BuildingBlock: MIFKUJ_clean_sbu_0, # of connection points: 6
#     Node 5, Type 0, BuildingBlock: MIFKUJ_clean_sbu_0, # of connection points: 6
#     Node 6, Type 0, BuildingBlock: MIFKUJ_clean_sbu_0, # of connection points: 6
#     Node 7, Type 0, BuildingBlock: MIFKUJ_clean_sbu_0, # of connection points: 6
#     Node 8, Type 0, BuildingBlock: MIFKUJ_clean_sbu_0, # of connection points: 6
#     Node 9, Type 0, BuildingBlock: MIFKUJ_clean_sbu_0, # of connection points: 6
#     Node 10, Type 0, BuildingBlock: MIFKUJ_clean_sbu_0, # of connection points: 6
#     Node 11, Type 0, BuildingBlock: MIFKUJ_clean_sbu_0, # of connection points: 6
#     Edge 12, Type (0, 0), BuildingBlock: OJICUG_clean_linker_0, # of connection points: 2
#     Edge 13, Type (0, 0), BuildingBlock: OJICUG_clean_linker_0, # of connection points: 2
#     Edge 14, Type (0, 0), BuildingBlock: OJICUG_clean_linker_0, # of connection points: 2
#     Edge 15, Type (0, 0), BuildingBlock: OJICUG_clean_linker_0, # of connection points: 2
#     Edge 16, Type (0, 0), BuildingBlock: OJICUG_clean_linker_0, # of connection points: 2
#     Edge 17, Type (0, 0), BuildingBlock: OJICUG_clean_linker_0, # of connection points: 2
#     Edge 18, Type (0, 0), BuildingBlock: OJICUG_clean_linker_0, # of connection points: 2
#     Edge 19, Type (0, 0), BuildingBlock: OJICUG_clean_linker_0, # of connection points: 2
#     Edge 20, Type (0, 0), BuildingBlock: OJICUG_clean_linker_0, # of connection points: 2
#     Edge 21, Type (0, 0), BuildingBlock: OJICUG_clean_linker_0, # of connection points: 2
#     Edge 22, Type (0, 0), BuildingBlock: OJICUG_clean_linker_0, # of connection points: 2
#     Edge 23, Type (0, 0), BuildingBlock: OJICUG_clean_linker_0, # of connection points: 2
#     Edge 24, Type (0, 0), BuildingBlock: OJICUG_clean_linker_0, # of connection points: 2
#     Edge 25, Type (0, 0), BuildingBlock: OJICUG_clean_linker_0, # of connection points: 2
#     Edge 26, Type (0, 0), BuildingBlock: OJICUG_clean_linker_0, # of connection points: 2
#     Edge 27, Type (0, 0), BuildingBlock: OJICUG_clean_linker_0, # of connection points: 2
#     Edge 28, Type (0, 0), BuildingBlock: OJICUG_clean_linker_0, # of connection points: 2
#     Edge 29, Type (0, 0), BuildingBlock: OJICUG_clean_linker_0, # of connection points: 2
#     Edge 30, Type (0, 0), BuildingBlock: OJICUG_clean_linker_0, # of connection points: 2
#     Edge 31, Type (0, 0), BuildingBlock: OJICUG_clean_linker_0, # of connection points: 2
#     Edge 32, Type (0, 0), BuildingBlock: OJICUG_clean_linker_0, # of connection points: 2
#     Edge 33, Type (0, 0), BuildingBlock: OJICUG_clean_linker_0, # of connection points: 2
#     Edge 34, Type (0, 0), BuildingBlock: OJICUG_clean_linker_0, # of connection points: 2
#     Edge 35, Type (0, 0), BuildingBlock: OJICUG_clean_linker_0, # of connection points: 2
#     Edge 36, Type (0, 0), BuildingBlock: OJICUG_clean_linker_0, # of connection points: 2
#     Edge 37, Type (0, 0), BuildingBlock: OJICUG_clean_linker_0, # of connection points: 2
#     Edge 38, Type (0, 0), BuildingBlock: OJICUG_clean_linker_0, # of connection points: 2
#     Edge 39, Type (0, 0), BuildingBlock: OJICUG_clean_linker_0, # of connection points: 2
#     Edge 40, Type (0, 0), BuildingBlock: OJICUG_clean_linker_0, # of connection points: 2
#     Edge 41, Type (0, 0), BuildingBlock: OJICUG_clean_linker_0, # of connection points: 2
#     Edge 42, Type (0, 0), BuildingBlock: OJICUG_clean_linker_0, # of connection points: 2
#     Edge 43, Type (0, 0), BuildingBlock: OJICUG_clean_linker_0, # of connection points: 2
#     Edge 44, Type (0, 0), BuildingBlock: OJICUG_clean_linker_0, # of connection points: 2
#     Edge 45, Type (0, 0), BuildingBlock: OJICUG_clean_linker_0, # of connection points: 2
#     Edge 46, Type (0, 0), BuildingBlock: OJICUG_clean_linker_0, # of connection points: 2
#     Edge 47, Type (0, 0), BuildingBlock: OJICUG_clean_linker_0, # of connection points: 2
# Relax obj value: 0.085
# Max RMSD: 0.184
# Mean RMSD: 0.184
data_MOF--net-wme--node1-MIFKUJ_clean_sbu_0--edge1-OJICUG_clean_linker_0
_symmetry_space_group_name_H-M    P1
_symmetry_Int_Tables_number       1
_symmetry_cell_setting            triclinic
loop_
_symmetry_equiv_pos_as_xyz
'x, y, z'
_cell_length_a     26.590829
_cell_length_b     26.982981
_cell_length_c     38.230347
_cell_angle_alpha  90.143102
_cell_angle_beta   89.849354
_cell_angle_gamma 120.30348
loop_
_atom_site_label
_atom_site_type_symbol
_atom_site_fract_x
_atom_site_fract_y
_atom_site_fract_z
_atom_type_partial_charge
Zn0 Zn 0.23602 0.26617 0.09168 0.0
Zn1 Zn 0.255 0.40159 0.07661 0.0
C2 C 0.11733 0.21427 0.09485 0.0
O3 O 0.13307 0.20308 0.12496 0.0
C4 C 0.36455 0.49865 0.05793 0.0
O5 O 0.33919 0.48748 0.02716 0.0
O6 O 0.23208 0.18957 0.09579 0.0
O7 O 0.30154 0.31591 0.06005 0.0
O8 O 0.25411 0.35352 0.03523 0.0
C9 C 0.22019 0.15702 0.06918 0.0
O10 O 0.21558 0.17604 0.03844 0.0
O11 O 0.15667 0.24488 0.07272 0.0
C12 C 0.20565 0.4729 0.08643 0.0
O13 O 0.22055 0.46975 0.11873 0.0
O14 O 0.21377 0.44449 0.06268 0.0
O15 O 0.22508 0.368 0.12493 0.0
O16 O 0.24134 0.29761 0.13935 0.0
O17 O 0.33777 0.46525 0.08334 0.0
C18 C 0.28662 0.33163 0.03276 0.0
C19 C 0.22604 0.33378 0.14741 0.0
Zn20 Zn 0.96587 0.21306 0.59113 0.0
Zn21 Zn 0.84746 0.24161 0.57664 0.0
C22 C 0.90412 0.09614 0.59399 0.0
O23 O 0.93176 0.11324 0.62394 0.0
C24 C 0.8625 0.35134 0.55724 0.0
O25 O 0.84934 0.32748 0.52608 0.0
O26 O 0.04146 0.2135 0.59772 0.0
O27 O 0.98053 0.27812 0.55994 0.0
O28 O 0.89433 0.23905 0.5349 0.0
C29 C 0.06584 0.2034 0.57221 0.0
O30 O 0.04406 0.19777 0.54067 0.0
O31 O 0.91078 0.1339 0.57162 0.0
C32 C 0.72598 0.19572 0.58879 0.0
O33 O 0.74656 0.21416 0.62033 0.0
O34 O 0.76123 0.20032 0.56465 0.0
O35 O 0.85479 0.21579 0.62522 0.0
O36 O 0.93617 0.21563 0.63817 0.0
O37 O 0.86716 0.32356 0.58261 0.0
C38 C 0.94969 0.26649 0.53265 0.0
C39 C 0.88754 0.20997 0.64697 0.0
Zn40 Zn 0.7687 0.96124 0.08535 0.0
Zn41 Zn 0.61567 0.84861 0.07565 0.0
C42 C 0.77717 0.86156 0.0651 0.0
O43 O 0.73374 0.83398 0.08701 0.0
C44 C 0.51945 0.86437 0.05914 0.0
O45 O 0.53358 0.85894 0.02698 0.0
O46 O 0.8429 0.03611 0.09186 0.0
O47 O 0.71263 0.97845 0.06156 0.0
O48 O 0.66125 0.89661 0.03389 0.0
C49 C 0.87549 0.06304 0.06603 0.0
O50 O 0.85824 0.04314 0.03424 0.0
O51 O 0.79339 0.9133 0.0573 0.0
C52 C 0.55266 0.72727 0.08647 0.0
O53 O 0.56105 0.74448 0.1192 0.0
O54 O 0.5747 0.76465 0.06231 0.0
O55 O 0.65377 0.85705 0.12268 0.0
O56 O 0.74441 0.92675 0.13248 0.0
O57 O 0.55023 0.86377 0.08432 0.0
C58 C 0.691 0.95111 0.03349 0.0
C59 C 0.69722 0.88382 0.14288 0.0
Zn60 Zn 0.79789 0.74769 0.59012 0.0
Zn61 Zn 0.77426 0.60886 0.57438 0.0
C62 C 0.91707 0.80138 0.59871 0.0
O63 O 0.89745 0.80973 0.62838 0.0
C64 C 0.66561 0.51059 0.55297 0.0
O65 O 0.69273 0.52123 0.52273 0.0
O66 O 0.79974 0.82276 0.59527 0.0
O67 O 0.73546 0.70104 0.55608 0.0
O68 O 0.77838 0.65745 0.53259 0.0
C69 C 0.80961 0.85535 0.56902 0.0
O70 O 0.81437 0.8375 0.53785 0.0
O71 O 0.88042 0.7717 0.57501 0.0
C72 C 0.82622 0.54035 0.58633 0.0
O73 O 0.81119 0.54446 0.61849 0.0
O74 O 0.81738 0.56726 0.56209 0.0
O75 O 0.79845 0.64049 0.62376 0.0
O76 O 0.78534 0.71335 0.63698 0.0
O77 O 0.691 0.54427 0.57856 0.0
C78 C 0.74793 0.68141 0.52947 0.0
C79 C 0.79681 0.67492 0.64591 0.0
Zn80 Zn 0.05084 0.79643 0.0862 0.0
Zn81 Zn 0.16693 0.76345 0.07361 0.0
C82 C 0.11448 0.91364 0.08996 0.0
O83 O 0.08316 0.8964 0.1187 0.0
C84 C 0.16259 0.65731 0.05511 0.0
O85 O 0.17626 0.68115 0.02399 0.0
O86 O 0.9739 0.79377 0.08542 0.0
O87 O 0.03853 0.72874 0.05825 0.0
O88 O 0.12192 0.76359 0.03087 0.0
C89 C 0.96085 0.80953 0.05718 0.0
O90 O 0.99714 0.82546 0.0306 0.0
O91 O 0.10949 0.87597 0.06783 0.0
C92 C 0.28775 0.81905 0.08774 0.0
O93 O 0.26684 0.8011 0.1193 0.0
O94 O 0.25252 0.81051 0.06295 0.0
O95 O 0.15307 0.78763 0.12147 0.0
O96 O 0.07555 0.79468 0.13484 0.0
O97 O 0.15366 0.68346 0.07992 0.0
C98 C 0.06678 0.73924 0.03 0.0
C99 C 0.1227 0.79686 0.14348 0.0
Zn100 Zn 0.27289 0.04958 0.59197 0.0
Zn101 Zn 0.39609 0.16523 0.57094 0.0
C102 C 0.21801 0.11417 0.60016 0.0
O103 O 0.21158 0.09042 0.63105 0.0
C104 C 0.4943 0.1518 0.55841 0.0
O105 O 0.48309 0.16066 0.52631 0.0
O106 O 0.19655 0.97683 0.60169 0.0
O107 O 0.31167 0.03083 0.55431 0.0
O108 O 0.35154 0.11551 0.52882 0.0
C109 C 0.16288 0.95172 0.57588 0.0
O110 O 0.18106 0.97157 0.5442 0.0
O111 O 0.24658 0.10503 0.57675 0.0
C112 C 0.46991 0.28484 0.57962 0.0
O113 O 0.46287 0.2669 0.61214 0.0
O114 O 0.44281 0.24838 0.55548 0.0
O115 O 0.35573 0.16646 0.61626 0.0
O116 O 0.31945 0.07808 0.63575 0.0
O117 O 0.46008 0.14823 0.58291 0.0
C118 C 0.33002 0.06135 0.52701 0.0
C119 C 0.34129 0.13132 0.6416 0.0
Zn120 Zn 0.75798 0.78042 0.33413 0.0
Zn121 Zn 0.62025 0.7615 0.3494 0.0
C122 C 0.8107 0.89807 0.33004 0.0
O123 O 0.8214 0.88238 0.29969 0.0
C124 C 0.52252 0.65259 0.36884 0.0
O125 O 0.53488 0.67684 0.39989 0.0
O126 O 0.83491 0.78328 0.32946 0.0
O127 O 0.70816 0.71678 0.36651 0.0
O128 O 0.66879 0.76313 0.39082 0.0
C129 C 0.86812 0.79402 0.35577 0.0
O130 O 0.8496 0.79866 0.38683 0.0
O131 O 0.78034 0.85943 0.3524 0.0
C132 C 0.54848 0.80996 0.33842 0.0
O133 O 0.55096 0.79291 0.30659 0.0
O134 O 0.57737 0.80318 0.36255 0.0
O135 O 0.65478 0.79003 0.30119 0.0
O136 O 0.72596 0.77369 0.28655 0.0
O137 O 0.55526 0.67979 0.34311 0.0
C138 C 0.69077 0.73095 0.39353 0.0
C139 C 0.68942 0.78892 0.27862 0.0
Zn140 Zn 0.9591 0.75394 0.84006 0.0
Zn141 Zn 0.84076 0.60753 0.85584 0.0
C142 C 0.89867 0.81066 0.83796 0.0
O143 O 0.92573 0.82053 0.80778 0.0
C144 C 0.8573 0.51403 0.87544 0.0
O145 O 0.84356 0.52474 0.90647 0.0
O146 O 0.03536 0.82761 0.83257 0.0
O147 O 0.97305 0.70244 0.87056 0.0
O148 O 0.88807 0.65729 0.89724 0.0
C149 C 0.06098 0.86252 0.85762 0.0
O150 O 0.03986 0.84784 0.88944 0.0
O151 O 0.90543 0.77959 0.86031 0.0
C152 C 0.72049 0.53129 0.84317 0.0
O153 O 0.74253 0.53485 0.81186 0.0
O154 O 0.75445 0.56153 0.8678 0.0
O155 O 0.84712 0.64058 0.80731 0.0
O156 O 0.92782 0.72175 0.79345 0.0
O157 O 0.86177 0.54611 0.8499 0.0
C158 C 0.94351 0.68465 0.89845 0.0
C159 C 0.879 0.67891 0.78524 0.0
Zn160 Zn 0.23255 0.95906 0.33498 0.0
Zn161 Zn 0.25205 0.84326 0.35024 0.0
C162 C 0.11361 0.89432 0.33144 0.0
O163 O 0.13031 0.92274 0.30185 0.0
C164 C 0.36239 0.8549 0.36747 0.0
O165 O 0.33909 0.84357 0.39889 0.0
O166 O 0.23013 0.03222 0.33085 0.0
O167 O 0.29882 0.97521 0.36605 0.0
O168 O 0.25305 0.89128 0.3919 0.0
C169 C 0.21924 0.05348 0.35758 0.0
O170 O 0.21397 0.02945 0.38826 0.0
O171 O 0.15234 0.90154 0.35369 0.0
C172 C 0.20215 0.72301 0.34106 0.0
O173 O 0.21698 0.74077 0.3087 0.0
O174 O 0.21048 0.75965 0.36471 0.0
O175 O 0.22018 0.84635 0.30223 0.0
O176 O 0.23787 0.9332 0.28735 0.0
O177 O 0.33429 0.8603 0.34232 0.0
C178 C 0.28509 0.94561 0.3937 0.0
C179 C 0.2211 0.88138 0.27962 0.0
Zn180 Zn 0.27213 0.22047 0.83358 0.0
Zn181 Zn 0.39503 0.22694 0.85383 0.0
C182 C 0.21703 0.10111 0.82624 0.0
O183 O 0.2105 0.11776 0.79515 0.0
C184 C 0.49037 0.33863 0.86899 0.0
O185 O 0.47807 0.3168 0.90066 0.0
O186 O 0.1955 0.21754 0.82526 0.0
O187 O 0.31296 0.27814 0.87081 0.0
O188 O 0.34814 0.22852 0.89561 0.0
C189 C 0.16272 0.20956 0.85157 0.0
O190 O 0.18193 0.20813 0.88297 0.0
O191 O 0.24596 0.13917 0.84924 0.0
C192 C 0.47068 0.18211 0.84568 0.0
O193 O 0.4644 0.19263 0.81294 0.0
O194 O 0.44244 0.19116 0.86932 0.0
O195 O 0.35688 0.18741 0.80782 0.0
O196 O 0.31675 0.23673 0.78896 0.0
O197 O 0.458 0.30888 0.84371 0.0
C198 C 0.32903 0.26319 0.89796 0.0
C199 C 0.34008 0.20657 0.78279 0.0
Zn200 Zn 0.0545 0.24836 0.33973 0.0
Zn201 Zn 0.16912 0.39708 0.35466 0.0
C202 C 0.11972 0.19651 0.33606 0.0
O203 O 0.09163 0.18547 0.30625 0.0
C204 C 0.16125 0.49683 0.37286 0.0
O205 O 0.17513 0.48696 0.40399 0.0
O206 O 0.98081 0.17246 0.33327 0.0
O207 O 0.03533 0.29553 0.37131 0.0
O208 O 0.12077 0.34974 0.39633 0.0
C209 C 0.95635 0.13868 0.35892 0.0
O210 O 0.97725 0.15574 0.39056 0.0
O211 O 0.11191 0.22658 0.35881 0.0
C212 C 0.29092 0.46455 0.34262 0.0
O213 O 0.27122 0.45978 0.31058 0.0
O214 O 0.25477 0.43835 0.36722 0.0
O215 O 0.16134 0.36289 0.30628 0.0
O216 O 0.08254 0.28036 0.29242 0.0
O217 O 0.15337 0.46215 0.34806 0.0
C218 C 0.06556 0.31885 0.39837 0.0
C219 C 0.13057 0.32421 0.28412 0.0
Zn220 Zn 0.79721 0.05609 0.84077 0.0
Zn221 Zn 0.78016 0.17138 0.85832 0.0
C222 C 0.91617 0.11585 0.83245 0.0
O223 O 0.89535 0.08583 0.80362 0.0
C224 C 0.66846 0.1567 0.87696 0.0
O225 O 0.69359 0.17327 0.90769 0.0
O226 O 0.79612 0.98139 0.8359 0.0
O227 O 0.73452 0.04256 0.87422 0.0
O228 O 0.78401 0.12623 0.90003 0.0
C229 C 0.80632 0.95924 0.86233 0.0
O230 O 0.81292 0.98343 0.89314 0.0
O231 O 0.88037 0.11223 0.85597 0.0
C232 C 0.82572 0.29041 0.84749 0.0
O233 O 0.8104 0.27091 0.81546 0.0
O234 O 0.81922 0.25533 0.87168 0.0
O235 O 0.80955 0.16835 0.80937 0.0
O236 O 0.78684 0.08005 0.79403 0.0
O237 O 0.69622 0.14982 0.85207 0.0
C238 C 0.75029 0.07218 0.90191 0.0
C239 C 0.80432 0.13193 0.78631 0.0
C240 C 0.16114 0.99891 0.04965 0.0
C241 C 0.1508 0.97601 0.08357 0.0
H242 H 0.19133 0.07468 0.01837 0.0
C243 C 0.16991 0.01368 0.11232 0.0
H244 H 0.14671 0.97082 0.02704 0.0
C245 C 0.19567 0.07279 0.10747 0.0
C246 C 0.20236 0.0957 0.07372 0.0
H247 H 0.16306 0.99725 0.1388 0.0
H248 H 0.20772 0.10017 0.13036 0.0
C249 C 0.18645 0.05833 0.04476 0.0
C250 C 0.17451 0.15324 0.55779 0.0
C251 C 0.18683 0.14536 0.59237 0.0
H252 H 0.12649 0.17796 0.5242 0.0
C253 C 0.16423 0.16279 0.61998 0.0
H254 H 0.19132 0.14026 0.53597 0.0
C255 C 0.12748 0.18461 0.61331 0.0
C256 C 0.11203 0.18912 0.57883 0.0
H257 H 0.17342 0.15784 0.64693 0.0
H258 H 0.10922 0.1956 0.63531 0.0
C259 C 0.13723 0.17471 0.55108 0.0
C260 C 0.95503 0.12755 0.10679 0.0
C261 C 0.9357 0.11033 0.07236 0.0
H262 H 0.02777 0.17465 0.14066 0.0
C263 C 0.97597 0.13456 0.0447 0.0
H264 H 0.92516 0.11035 0.12868 0.0
C265 C 0.03516 0.172 0.05163 0.0
C266 C 0.05478 0.18532 0.08631 0.0
H267 H 0.96233 0.12245 0.01785 0.0
H268 H 0.06581 0.18757 0.03007 0.0
C269 C 0.01392 0.16444 0.11367 0.0
C270 C 0.84082 0.95413 0.54614 0.0
C271 C 0.82458 0.91565 0.57443 0.0
H272 H 0.87828 0.04207 0.53004 0.0
C273 C 0.82804 0.9366 0.60853 0.0
H274 H 0.83833 0.93926 0.51952 0.0
C275 C 0.85106 0.9951 0.61444 0.0
C276 C 0.87067 0.03404 0.58642 0.0
H277 H 0.81547 0.90822 0.63091 0.0
H278 H 0.85542 0.01011 0.64119 0.0
C279 C 0.86347 0.01293 0.55209 0.0
C280 C 0.90615 0.85329 0.03107 0.0
C281 C 0.90884 0.81576 0.05545 0.0
H282 H 0.86183 0.89722 0.01488 0.0
C283 C 0.86328 0.78737 0.0796 0.0
H284 H 0.94055 0.87559 0.012 0.0
C285 C 0.81756 0.79876 0.08071 0.0
C286 C 0.81722 0.8397 0.05815 0.0
H287 H 0.86389 0.75771 0.09841 0.0
H288 H 0.78453 0.77813 0.10075 0.0
C289 C 0.86103 0.86559 0.03263 0.0
C290 C 0.01896 0.85605 0.62103 0.0
C291 C 0.98073 0.83206 0.59252 0.0
H292 H 0.10635 0.91191 0.63824 0.0
C293 C 1.00388 0.84278 0.55851 0.0
H294 H 1.00255 0.84818 0.64762 0.0
C295 C 0.06369 0.87975 0.55312 0.0
C296 C 0.10143 0.90628 0.58164 0.0
H297 H 0.97554 0.82494 0.53603 0.0
H298 H 0.07995 0.88914 0.52652 0.0
C299 C 0.0786 0.89256 0.61568 0.0
C300 C 0.02879 0.85132 0.37311 0.0
C301 C 0.05062 0.85929 0.33885 0.0
H302 H 0.95335 0.82424 0.40548 0.0
C303 C 1.01131 0.83904 0.31072 0.0
H304 H 0.05818 0.86663 0.39524 0.0
C305 C 0.95165 0.81461 0.31647 0.0
C306 C 0.92985 0.81037 0.3505 0.0
H307 H 0.02689 0.84403 0.28401 0.0
H308 H 0.92298 0.80162 0.29401 0.0
C309 C 0.96881 0.82727 0.3789 0.0
C310 C 0.12334 0.9405 0.81538 0.0
C311 C 0.1081 0.92203 0.85013 0.0
H312 H 0.17007 0.01145 0.78071 0.0
C313 C 0.13452 0.96232 0.87731 0.0
H314 H 0.10416 0.91067 0.79379 0.0
C315 C 0.17279 0.02037 0.86975 0.0
C316 C 0.18492 0.0392 0.83489 0.0
H317 H 0.12397 0.94946 0.90439 0.0
H318 H 0.19052 0.0508 0.89115 0.0
C319 C 0.1611 0.9984 0.80786 0.0
C320 C 0.16189 0.15414 0.37695 0.0
C321 C 0.15491 0.16932 0.34297 0.0
H322 H 0.18792 0.10519 0.40836 0.0
C323 C 0.1761 0.15217 0.3145 0.0
H324 H 0.14585 0.16676 0.39934 0.0
C325 C 0.20029 0.11739 0.31955 0.0
C326 C 0.20338 0.09844 0.35321 0.0
H327 H 0.17193 0.16383 0.28801 0.0
H328 H 0.21395 0.10315 0.2968 0.0
C329 C 0.18574 0.11871 0.38203 0.0
C330 C 0.07688 0.18365 0.81305 0.0
C331 C 0.10109 0.1939 0.84672 0.0
H332 H 0.9996 0.15147 0.78232 0.0
C333 C 0.06452 0.18416 0.87579 0.0
H334 H 0.10368 0.19088 0.7901 0.0
C335 C 1.00453 0.16175 0.87131 0.0
C336 C 0.98004 0.14821 0.8377 0.0
H337 H 0.08186 0.19193 0.90211 0.0
H338 H 0.97709 0.15243 0.89419 0.0
C339 C 0.01709 0.16088 0.80862 0.0
C340 C 0.88731 0.03843 0.38 0.0
C341 C 0.91115 0.07815 0.35236 0.0
H342 H 0.83581 0.94972 0.39469 0.0
C343 C 0.89547 0.05839 0.31786 0.0
H344 H 0.89829 0.05234 0.4069 0.0
C345 C 0.86016 0.99995 0.31097 0.0
C346 C 0.83923 0.95987 0.33839 0.0
H347 H 0.91257 0.08774 0.29595 0.0
H348 H 0.85095 0.98596 0.28397 0.0
C349 C 0.85138 0.97971 0.37306 0.0
C350 C 0.8598 0.85517 0.87988 0.0
C351 C 0.86545 0.83968 0.84564 0.0
H352 H 0.83643 0.90559 0.91217 0.0
C353 C 0.84458 0.85783 0.81765 0.0
H354 H 0.87559 0.84174 0.90191 0.0
C355 C 0.82198 0.89383 0.82342 0.0
C356 C 0.82026 0.91304 0.85732 0.0
H357 H 0.84771 0.84591 0.79099 0.0
H358 H 0.80851 0.90878 0.80102 0.0
C359 C 0.83758 0.89186 0.88567 0.0
C360 C 0.16232 0.58587 0.09696 0.0
C361 C 0.16565 0.60493 0.0624 0.0
H362 H 0.17203 0.52911 0.13156 0.0
C363 C 0.17667 0.57624 0.03532 0.0
H364 H 0.15373 0.6068 0.11846 0.0
C365 C 0.18689 0.53129 0.04285 0.0
C366 C 0.18671 0.51445 0.07764 0.0
H367 H 0.17926 0.58966 0.00838 0.0
H368 H 0.19731 0.51143 0.02156 0.0
C369 C 0.17295 0.54132 0.10449 0.0
C370 C 0.64429 0.1697 0.54632 0.0
C371 C 0.66415 0.17659 0.581 0.0
H372 H 0.57493 0.15611 0.51199 0.0
C373 C 0.62544 0.16948 0.60829 0.0
H374 H 0.67288 0.17478 0.52468 0.0
C375 C 0.56917 0.15853 0.60105 0.0
C376 C 0.55039 0.15476 0.56632 0.0
H377 H 0.63916 0.17412 0.63534 0.0
H378 H 0.5413 0.15532 0.62268 0.0
C379 C 0.58809 0.15907 0.53906 0.0
C380 C 0.48664 0.62562 0.10514 0.0
C381 C 0.51111 0.66631 0.07812 0.0
H382 H 0.42167 0.54054 0.11993 0.0
C383 C 0.49142 0.64916 0.0437 0.0
H384 H 0.50114 0.63725 0.13191 0.0
C385 C 0.44565 0.59357 0.03683 0.0
C386 C 0.4188 0.55399 0.06421 0.0
H387 H 0.50952 0.67937 0.02227 0.0
H388 H 0.42982 0.58246 0.01025 0.0
C389 C 0.44106 0.57006 0.09826 0.0
C390 C 0.84494 0.48083 0.54347 0.0
C391 C 0.84483 0.49836 0.57811 0.0
H392 H 0.85089 0.42062 0.50962 0.0
C393 C 0.85725 0.47129 0.60534 0.0
H394 H 0.83564 0.50091 0.5219 0.0
C395 C 0.86621 0.4255 0.59832 0.0
C396 C 0.86258 0.40549 0.56391 0.0
H397 H 0.85799 0.48408 0.6323 0.0
H398 H 0.87343 0.40424 0.62009 0.0
C399 C 0.85357 0.43472 0.53645 0.0
C400 C 0.44459 0.85938 0.10102 0.0
C401 C 0.46369 0.8622 0.06638 0.0
H402 H 0.37412 0.84405 0.13492 0.0
C403 C 0.42664 0.85759 0.03884 0.0
H404 H 0.47218 0.86319 0.12287 0.0
C405 C 0.37032 0.84675 0.04578 0.0
C406 C 0.34995 0.84013 0.08039 0.0
H407 H 0.44021 0.85999 0.01186 0.0
H408 H 0.34194 0.84094 0.02396 0.0
C409 C 0.38829 0.84836 0.10795 0.0
C410 C 0.58629 0.44024 0.59231 0.0
C411 C 0.61027 0.45586 0.55858 0.0
H412 H 0.52298 0.37421 0.62526 0.0
C413 C 0.58359 0.41654 0.53097 0.0
H414 H 0.60548 0.46949 0.61415 0.0
C415 C 0.53589 0.36172 0.53735 0.0
C416 C 0.51421 0.34508 0.57148 0.0
H417 H 0.60079 0.42731 0.50463 0.0
H418 H 0.51772 0.33163 0.51581 0.0
C419 C 0.53897 0.38547 0.59869 0.0
C420 C 0.43415 0.85243 0.32596 0.0
C421 C 0.41581 0.85216 0.3605 0.0
H422 H 0.49062 0.83963 0.29198 0.0
C423 C 0.44582 0.84387 0.38803 0.0
H424 H 0.41222 0.8589 0.30412 0.0
C425 C 0.4911 0.83302 0.38105 0.0
C426 C 0.50699 0.82987 0.34639 0.0
H427 H 0.43299 0.84371 0.41496 0.0
H428 H 0.51184 0.82461 0.40275 0.0
C429 C 0.47908 0.84123 0.31899 0.0
C430 C 0.62148 0.45725 0.82198 0.0
C431 C 0.65875 0.48745 0.85002 0.0
H432 H 0.53894 0.38718 0.80589 0.0
C433 C 0.63772 0.47185 0.88435 0.0
H434 H 0.63611 0.46839 0.79518 0.0
C435 C 0.58189 0.42502 0.89048 0.0
C436 C 0.54577 0.39299 0.86243 0.0
H437 H 0.66522 0.49425 0.90652 0.0
H438 H 0.56786 0.41277 0.91728 0.0
C439 C 0.56561 0.41069 0.8281 0.0
C440 C 0.16958 0.62202 0.32329 0.0
C441 C 0.18336 0.66273 0.35003 0.0
H442 H 0.15095 0.53757 0.30952 0.0
C443 C 0.18389 0.64637 0.38484 0.0
H444 H 0.16837 0.63309 0.29621 0.0
C445 C 0.17416 0.59148 0.3925 0.0
C446 C 0.16331 0.55176 0.36552 0.0
H447 H 0.19432 0.67672 0.40604 0.0
H448 H 0.17714 0.58092 0.41944 0.0
C449 C 0.15946 0.56713 0.33094 0.0
C450 C 0.58326 0.16558 0.89691 0.0
C451 C 0.61263 0.15471 0.87 0.0
H452 H 0.51485 0.1822 0.91048 0.0
C453 C 0.59089 0.14697 0.83573 0.0
H454 H 0.59869 0.17148 0.92364 0.0
C455 C 0.54307 0.15335 0.82821 0.0
C456 C 0.51561 0.16725 0.85478 0.0
H457 H 0.6122 0.13828 0.81438 0.0
H458 H 0.52883 0.14918 0.80129 0.0
C459 C 0.53511 0.17162 0.8894 0.0
C460 C 0.3925 0.53233 0.32244 0.0
C461 C 0.35286 0.50631 0.35014 0.0
H462 H 0.47735 0.59833 0.3066 0.0
C463 C 0.37182 0.52464 0.38452 0.0
H464 H 0.37945 0.51889 0.29565 0.0
C465 C 0.4281 0.5705 0.39081 0.0
C466 C 0.46658 0.5987 0.36287 0.0
H467 H 0.3424 0.5054 0.40645 0.0
H468 H 0.44059 0.58522 0.41747 0.0
C469 C 0.44875 0.57789 0.32873 0.0
C470 C 0.86262 0.44396 0.83483 0.0
C471 C 0.85833 0.46037 0.86911 0.0
H472 H 0.85606 0.37754 0.80121 0.0
C473 C 0.84964 0.42255 0.89677 0.0
H474 H 0.8696 0.47212 0.81292 0.0
C475 C 0.84211 0.36819 0.89004 0.0
C476 C 0.84277 0.35055 0.8555 0.0
H477 H 0.84644 0.43401 0.92352 0.0
H478 H 0.83311 0.3391 0.91173 0.0
C479 C 0.85473 0.38961 0.8281 0.0
C480 C 0.14693 0.27742 0.23288 0.0
C481 C 0.15403 0.32747 0.24878 0.0
H482 H 0.16667 0.24078 0.18919 0.0
C483 C 0.18651 0.38032 0.23158 0.0
H484 H 0.12269 0.23624 0.24574 0.0
C485 C 0.21023 0.38268 0.19847 0.0
C486 C 0.2037 0.33256 0.18286 0.0
H487 H 0.19288 0.41954 0.24351 0.0
H488 H 0.23416 0.42367 0.18528 0.0
C489 C 0.17247 0.28009 0.20058 0.0
C490 C 0.87343 0.14792 0.69798 0.0
C491 C 0.86635 0.19118 0.68271 0.0
H492 H 0.8569 0.09354 0.74209 0.0
C493 C 0.83724 0.2142 0.7013 0.0
H494 H 0.89508 0.12903 0.684 0.0
C495 C 0.81704 0.19519 0.73526 0.0
C496 C 0.82372 0.15141 0.75033 0.0
H497 H 0.83103 0.24739 0.68982 0.0
H498 H 0.79562 0.21411 0.74953 0.0
C499 C 0.85132 0.12744 0.73119 0.0
C500 C 0.74513 0.86335 0.19196 0.0
C501 C 0.69494 0.86021 0.17781 0.0
H502 H 0.78205 0.84113 0.23442 0.0
C503 C 0.64221 0.83136 0.19633 0.0
H504 H 0.78607 0.88443 0.17783 0.0
C505 C 0.64012 0.80744 0.22903 0.0
C506 C 0.69035 0.81055 0.24318 0.0
H507 H 0.60283 0.82793 0.18571 0.0
H508 H 0.59921 0.78626 0.24315 0.0
C509 C 0.74266 0.83803 0.22414 0.0
C510 C 0.84282 0.72565 0.70122 0.0
C511 C 0.81438 0.67411 0.68225 0.0
H512 H 0.88723 0.76751 0.74815 0.0
C513 C 0.80628 0.62331 0.69763 0.0
H514 H 0.84962 0.76543 0.6901 0.0
C515 C 0.82643 0.62428 0.73156 0.0
C516 C 0.85674 0.67641 0.74983 0.0
H517 H 0.78428 0.583 0.68352 0.0
H518 H 0.81955 0.58475 0.74317 0.0
C519 C 0.86469 0.72694 0.7344 0.0
C520 C 0.14174 0.86107 0.19444 0.0
C521 C 0.14596 0.81618 0.17888 0.0
H522 H 0.16465 0.91861 0.2377 0.0
C523 C 0.17625 0.7934 0.19625 0.0
H524 H 0.11948 0.88001 0.1813 0.0
C525 C 0.20077 0.81444 0.22917 0.0
C526 C 0.19726 0.86001 0.24447 0.0
H527 H 0.1805 0.7591 0.18451 0.0
H528 H 0.22316 0.79569 0.24241 0.0
C529 C 0.16804 0.88347 0.22661 0.0
C530 C 0.34414 0.13806 0.7404 0.0
C531 C 0.34177 0.1882 0.74664 0.0
H532 H 0.34509 0.08038 0.70218 0.0
C533 C 0.34017 0.21999 0.71807 0.0
H534 H 0.34511 0.11252 0.76193 0.0
C535 C 0.34115 0.20207 0.68389 0.0
C536 C 0.34249 0.15139 0.67768 0.0
H537 H 0.33849 0.25887 0.72214 0.0
H538 H 0.33972 0.22733 0.66234 0.0
C539 C 0.34389 0.11951 0.70624 0.0
C540 C 0.29382 0.31614 0.9349 0.0
C541 C 0.32118 0.28319 0.93243 0.0
H542 H 0.26157 0.35739 -0.03152 0.0
C543 C 0.33934 0.26848 0.96314 0.0
H544 H 0.27937 0.32835 0.91171 0.0
C545 C 0.32927 0.28537 -0.00429 0.0
C546 C 0.30056 0.31706 -0.00179 0.0
H547 H 0.36075 0.24337 0.96209 0.0
H548 H 0.34307 0.2726 0.01895 0.0
C549 C 0.28354 0.33281 -0.03255 0.0
C550 C 0.97469 0.2757 0.43473 0.0
C551 C 0.0359 0.30786 0.43266 0.0
H552 H 0.89939 0.23771 0.46783 0.0
C553 C 0.06823 0.32782 0.46367 0.0
H554 H 0.94839 0.25969 0.41132 0.0
C555 C 0.04007 0.31494 0.49606 0.0
C556 C 0.97892 0.28205 0.49816 0.0
H557 H 0.11537 0.3527 0.46302 0.0
H558 H 0.06642 0.33039 0.51948 0.0
C559 C 0.9465 0.26309 0.46712 0.0
C560 C 0.74021 0.0428 -0.00073 0.0
C561 C 0.70437 0.98265 7e-05 0.0
H562 H 0.78284 0.11852 -0.0324 0.0
C563 C 0.6823 0.9528 -0.03144 0.0
H564 H 0.75783 0.06711 0.02316 0.0
C565 C 0.69658 0.98223 0.93687 0.0
C566 C 0.73329 0.04224 0.93592 0.0
H567 H 0.65441 0.90655 -0.03174 0.0
H568 H 0.67926 0.95765 0.91303 0.0
C569 C 0.75454 0.07233 -0.03253 0.0
C570 C 0.7463 0.67284 0.46421 0.0
C571 C 0.7307 0.69111 0.49464 0.0
H572 H 0.74575 0.67096 0.40834 0.0
C573 C 0.69967 0.72042 0.49156 0.0
H574 H 0.77002 0.65002 0.46572 0.0
C575 C 0.68573 0.73242 0.45873 0.0
C576 C 0.70248 0.71535 0.42828 0.0
H577 H 0.68679 0.73496 0.51451 0.0
H578 H 0.66252 0.75576 0.45727 0.0
C579 C 0.7323 0.68483 0.43134 0.0
C580 C 0.94391 0.68255 -0.03598 0.0
C581 C 0.97456 0.69746 0.93224 0.0
H582 H 0.94901 0.68421 0.01984 0.0
C583 C 0.03583 0.72571 0.93287 0.0
H584 H 0.89678 0.66089 -0.03556 0.0
C585 C 0.06579 0.73888 -0.03544 0.0
C586 C 0.03521 0.72433 -0.00365 0.0
H587 H 0.06089 0.7379 0.90884 0.0
H588 H 0.11294 0.76081 -0.03589 0.0
C589 C 0.97393 0.69595 -0.00424 0.0
C590 C 0.283 0.94386 0.45912 0.0
C591 C 0.30003 0.97534 0.42788 0.0
H592 H 0.2793 0.94627 0.51481 0.0
C593 C 0.32957 0.03573 0.42953 0.0
H594 H 0.26042 0.89738 0.45877 0.0
C595 C 0.34034 0.06393 0.46171 0.0
C596 C 0.32199 0.03234 0.4929 0.0
H597 H 0.34343 0.06134 0.40592 0.0
H598 H 0.36225 0.11038 0.46208 0.0
C599 C 0.29391 0.97203 0.49126 0.0
loop_
_geom_bond_atom_site_label_1
_geom_bond_atom_site_label_2
_geom_bond_distance
_geom_bond_site_symmetry_2
_ccdc_geom_bond_type
Zn0 O6 1.969 . S
Zn0 O7 1.965 . S
Zn0 O11 2.024 . S
Zn0 O16 1.969 . S
Zn1 O8 1.969 . S
Zn1 O14 1.969 . S
Zn1 O15 1.965 . S
Zn1 O17 2.024 . S
C2 O3 1.229 . S
C2 O11 1.058 . S
O3 C2 1.229 . S
C4 O5 1.229 . S
C4 O17 1.058 . S
O5 C4 1.229 . S
O6 Zn0 1.969 . S
O6 C9 1.267 . S
O7 Zn0 1.965 . S
O7 C18 1.260 . S
O8 Zn1 1.969 . S
O8 C18 1.258 . S
C9 O6 1.267 . S
C9 O10 1.228 . S
O10 C9 1.228 . S
O11 Zn0 2.024 . S
O11 C2 1.058 . S
C12 O13 1.228 . S
C12 O14 1.267 . S
O13 C12 1.228 . S
O14 Zn1 1.969 . S
O14 C12 1.267 . S
O15 Zn1 1.965 . S
O15 C19 1.260 . S
O16 Zn0 1.969 . S
O16 C19 1.258 . S
O17 Zn1 2.024 . S
O17 C4 1.058 . S
C18 O7 1.260 . S
C18 O8 1.258 . S
C19 O15 1.260 . S
C19 O16 1.258 . S
Zn20 O26 1.969 . S
Zn20 O27 1.965 . S
Zn20 O31 2.024 . S
Zn20 O36 1.969 . S
Zn21 O28 1.969 . S
Zn21 O34 1.969 . S
Zn21 O35 1.965 . S
Zn21 O37 2.024 . S
C22 O23 1.229 . S
C22 O31 1.058 . S
O23 C22 1.229 . S
C24 O25 1.229 . S
C24 O37 1.058 . S
O25 C24 1.229 . S
O26 Zn20 1.969 . S
O26 C29 1.267 1_655 S
O27 Zn20 1.965 . S
O27 C38 1.260 . S
O28 Zn21 1.969 . S
O28 C38 1.258 . S
C29 O26 1.267 1_455 S
C29 O30 1.228 . S
O30 C29 1.228 . S
O31 Zn20 2.024 . S
O31 C22 1.058 . S
C32 O33 1.228 . S
C32 O34 1.267 . S
O33 C32 1.228 . S
O34 Zn21 1.969 . S
O34 C32 1.267 . S
O35 Zn21 1.965 . S
O35 C39 1.260 . S
O36 Zn20 1.969 . S
O36 C39 1.258 . S
O37 Zn21 2.024 . S
O37 C24 1.058 . S
C38 O27 1.260 . S
C38 O28 1.258 . S
C39 O35 1.260 . S
C39 O36 1.258 . S
Zn40 O46 1.969 . S
Zn40 O47 1.965 . S
Zn40 O51 2.024 . S
Zn40 O56 1.969 . S
Zn41 O48 1.969 . S
Zn41 O54 1.969 . S
Zn41 O55 1.965 . S
Zn41 O57 2.024 . S
C42 O43 1.229 . S
C42 O51 1.058 . S
O43 C42 1.229 . S
C44 O45 1.229 . S
C44 O57 1.058 . S
O45 C44 1.229 . S
O46 Zn40 1.969 . S
O46 C49 1.267 1_565 S
O47 Zn40 1.965 . S
O47 C58 1.260 . S
O48 Zn41 1.969 . S
O48 C58 1.258 . S
C49 O46 1.267 1_545 S
C49 O50 1.228 . S
O50 C49 1.228 . S
O51 Zn40 2.024 . S
O51 C42 1.058 . S
C52 O53 1.228 . S
C52 O54 1.267 . S
O53 C52 1.228 . S
O54 Zn41 1.969 . S
O54 C52 1.267 . S
O55 Zn41 1.965 . S
O55 C59 1.260 . S
O56 Zn40 1.969 . S
O56 C59 1.258 . S
O57 Zn41 2.024 . S
O57 C44 1.058 . S
C58 O47 1.260 . S
C58 O48 1.258 . S
C59 O55 1.260 . S
C59 O56 1.258 . S
Zn60 O66 1.969 . S
Zn60 O67 1.965 . S
Zn60 O71 2.024 . S
Zn60 O76 1.969 . S
Zn61 O68 1.969 . S
Zn61 O74 1.969 . S
Zn61 O75 1.965 . S
Zn61 O77 2.024 . S
C62 O63 1.229 . S
C62 O71 1.058 . S
O63 C62 1.229 . S
C64 O65 1.229 . S
C64 O77 1.058 . S
O65 C64 1.229 . S
O66 Zn60 1.969 . S
O66 C69 1.267 . S
O67 Zn60 1.965 . S
O67 C78 1.260 . S
O68 Zn61 1.969 . S
O68 C78 1.258 . S
C69 O66 1.267 . S
C69 O70 1.228 . S
O70 C69 1.228 . S
O71 Zn60 2.024 . S
O71 C62 1.058 . S
C72 O73 1.228 . S
C72 O74 1.267 . S
O73 C72 1.228 . S
O74 Zn61 1.969 . S
O74 C72 1.267 . S
O75 Zn61 1.965 . S
O75 C79 1.260 . S
O76 Zn60 1.969 . S
O76 C79 1.258 . S
O77 Zn61 2.024 . S
O77 C64 1.058 . S
C78 O67 1.260 . S
C78 O68 1.258 . S
C79 O75 1.260 . S
C79 O76 1.258 . S
Zn80 O86 1.969 . S
Zn80 O87 1.965 . S
Zn80 O91 2.024 . S
Zn80 O96 1.969 . S
Zn81 O88 1.969 . S
Zn81 O94 1.969 . S
Zn81 O95 1.965 . S
Zn81 O97 2.024 . S
C82 O83 1.229 . S
C82 O91 1.058 . S
O83 C82 1.229 . S
C84 O85 1.229 . S
C84 O97 1.058 . S
O85 C84 1.229 . S
O86 Zn80 1.969 . S
O86 C89 1.267 1_455 S
O87 Zn80 1.965 . S
O87 C98 1.260 . S
O88 Zn81 1.969 . S
O88 C98 1.258 . S
C89 O86 1.267 1_655 S
C89 O90 1.228 . S
O90 C89 1.228 . S
O91 Zn80 2.024 . S
O91 C82 1.058 . S
C92 O93 1.228 . S
C92 O94 1.267 . S
O93 C92 1.228 . S
O94 Zn81 1.969 . S
O94 C92 1.267 . S
O95 Zn81 1.965 . S
O95 C99 1.260 . S
O96 Zn80 1.969 . S
O96 C99 1.258 . S
O97 Zn81 2.024 . S
O97 C84 1.058 . S
C98 O87 1.260 . S
C98 O88 1.258 . S
C99 O95 1.260 . S
C99 O96 1.258 . S
Zn100 O106 1.969 . S
Zn100 O107 1.965 . S
Zn100 O111 2.024 . S
Zn100 O116 1.969 . S
Zn101 O108 1.969 . S
Zn101 O114 1.969 . S
Zn101 O115 1.965 . S
Zn101 O117 2.024 . S
C102 O103 1.229 . S
C102 O111 1.058 . S
O103 C102 1.229 . S
C104 O105 1.229 . S
C104 O117 1.058 . S
O105 C104 1.229 . S
O106 Zn100 1.969 . S
O106 C109 1.267 1_545 S
O107 Zn100 1.965 . S
O107 C118 1.260 . S
O108 Zn101 1.969 . S
O108 C118 1.258 . S
C109 O106 1.267 1_565 S
C109 O110 1.228 . S
O110 C109 1.228 . S
O111 Zn100 2.024 . S
O111 C102 1.058 . S
C112 O113 1.228 . S
C112 O114 1.267 . S
O113 C112 1.228 . S
O114 Zn101 1.969 . S
O114 C112 1.267 . S
O115 Zn101 1.965 . S
O115 C119 1.260 . S
O116 Zn100 1.969 . S
O116 C119 1.258 . S
O117 Zn101 2.024 . S
O117 C104 1.058 . S
C118 O107 1.260 . S
C118 O108 1.258 . S
C119 O115 1.260 . S
C119 O116 1.258 . S
Zn120 O126 1.969 . S
Zn120 O127 1.965 . S
Zn120 O131 2.024 . S
Zn120 O136 1.969 . S
Zn121 O128 1.969 . S
Zn121 O134 1.969 . S
Zn121 O135 1.965 . S
Zn121 O137 2.024 . S
C122 O123 1.229 . S
C122 O131 1.058 . S
O123 C122 1.229 . S
C124 O125 1.229 . S
C124 O137 1.058 . S
O125 C124 1.229 . S
O126 Zn120 1.969 . S
O126 C129 1.267 . S
O127 Zn120 1.965 . S
O127 C138 1.260 . S
O128 Zn121 1.969 . S
O128 C138 1.258 . S
C129 O126 1.267 . S
C129 O130 1.228 . S
O130 C129 1.228 . S
O131 Zn120 2.024 . S
O131 C122 1.058 . S
C132 O133 1.228 . S
C132 O134 1.267 . S
O133 C132 1.228 . S
O134 Zn121 1.969 . S
O134 C132 1.267 . S
O135 Zn121 1.965 . S
O135 C139 1.260 . S
O136 Zn120 1.969 . S
O136 C139 1.258 . S
O137 Zn121 2.024 . S
O137 C124 1.058 . S
C138 O127 1.260 . S
C138 O128 1.258 . S
C139 O135 1.260 . S
C139 O136 1.258 . S
Zn140 O146 1.969 . S
Zn140 O147 1.965 . S
Zn140 O151 2.024 . S
Zn140 O156 1.969 . S
Zn141 O148 1.969 . S
Zn141 O154 1.969 . S
Zn141 O155 1.965 . S
Zn141 O157 2.024 . S
C142 O143 1.229 . S
C142 O151 1.058 . S
O143 C142 1.229 . S
C144 O145 1.229 . S
C144 O157 1.058 . S
O145 C144 1.229 . S
O146 Zn140 1.969 . S
O146 C149 1.267 1_655 S
O147 Zn140 1.965 . S
O147 C158 1.260 . S
O148 Zn141 1.969 . S
O148 C158 1.258 . S
C149 O146 1.267 1_455 S
C149 O150 1.228 . S
O150 C149 1.228 . S
O151 Zn140 2.024 . S
O151 C142 1.058 . S
C152 O153 1.228 . S
C152 O154 1.267 . S
O153 C152 1.228 . S
O154 Zn141 1.969 . S
O154 C152 1.267 . S
O155 Zn141 1.965 . S
O155 C159 1.260 . S
O156 Zn140 1.969 . S
O156 C159 1.258 . S
O157 Zn141 2.024 . S
O157 C144 1.058 . S
C158 O147 1.260 . S
C158 O148 1.258 . S
C159 O155 1.260 . S
C159 O156 1.258 . S
Zn160 O166 1.969 . S
Zn160 O167 1.965 . S
Zn160 O171 2.024 . S
Zn160 O176 1.969 . S
Zn161 O168 1.969 . S
Zn161 O174 1.969 . S
Zn161 O175 1.965 . S
Zn161 O177 2.024 . S
C162 O163 1.229 . S
C162 O171 1.058 . S
O163 C162 1.229 . S
C164 O165 1.229 . S
C164 O177 1.058 . S
O165 C164 1.229 . S
O166 Zn160 1.969 . S
O166 C169 1.267 1_565 S
O167 Zn160 1.965 . S
O167 C178 1.260 . S
O168 Zn161 1.969 . S
O168 C178 1.258 . S
C169 O166 1.267 1_545 S
C169 O170 1.228 . S
O170 C169 1.228 . S
O171 Zn160 2.024 . S
O171 C162 1.058 . S
C172 O173 1.228 . S
C172 O174 1.267 . S
O173 C172 1.228 . S
O174 Zn161 1.969 . S
O174 C172 1.267 . S
O175 Zn161 1.965 . S
O175 C179 1.260 . S
O176 Zn160 1.969 . S
O176 C179 1.258 . S
O177 Zn161 2.024 . S
O177 C164 1.058 . S
C178 O167 1.260 . S
C178 O168 1.258 . S
C179 O175 1.260 . S
C179 O176 1.258 . S
Zn180 O186 1.969 . S
Zn180 O187 1.965 . S
Zn180 O191 2.024 . S
Zn180 O196 1.969 . S
Zn181 O188 1.969 . S
Zn181 O194 1.969 . S
Zn181 O195 1.965 . S
Zn181 O197 2.024 . S
C182 O183 1.229 . S
C182 O191 1.058 . S
O183 C182 1.229 . S
C184 O185 1.229 . S
C184 O197 1.058 . S
O185 C184 1.229 . S
O186 Zn180 1.969 . S
O186 C189 1.267 . S
O187 Zn180 1.965 . S
O187 C198 1.260 . S
O188 Zn181 1.969 . S
O188 C198 1.258 . S
C189 O186 1.267 . S
C189 O190 1.228 . S
O190 C189 1.228 . S
O191 Zn180 2.024 . S
O191 C182 1.058 . S
C192 O193 1.228 . S
C192 O194 1.267 . S
O193 C192 1.228 . S
O194 Zn181 1.969 . S
O194 C192 1.267 . S
O195 Zn181 1.965 . S
O195 C199 1.260 . S
O196 Zn180 1.969 . S
O196 C199 1.258 . S
O197 Zn181 2.024 . S
O197 C184 1.058 . S
C198 O187 1.260 . S
C198 O188 1.258 . S
C199 O195 1.260 . S
C199 O196 1.258 . S
Zn200 O206 1.969 . S
Zn200 O207 1.965 . S
Zn200 O211 2.024 . S
Zn200 O216 1.969 . S
Zn201 O208 1.969 . S
Zn201 O214 1.969 . S
Zn201 O215 1.965 . S
Zn201 O217 2.024 . S
C202 O203 1.229 . S
C202 O211 1.058 . S
O203 C202 1.229 . S
C204 O205 1.229 . S
C204 O217 1.058 . S
O205 C204 1.229 . S
O206 Zn200 1.969 . S
O206 C209 1.267 1_455 S
O207 Zn200 1.965 . S
O207 C218 1.260 . S
O208 Zn201 1.969 . S
O208 C218 1.258 . S
C209 O206 1.267 1_655 S
C209 O210 1.228 . S
O210 C209 1.228 . S
O211 Zn200 2.024 . S
O211 C202 1.058 . S
C212 O213 1.228 . S
C212 O214 1.267 . S
O213 C212 1.228 . S
O214 Zn201 1.969 . S
O214 C212 1.267 . S
O215 Zn201 1.965 . S
O215 C219 1.260 . S
O216 Zn200 1.969 . S
O216 C219 1.258 . S
O217 Zn201 2.024 . S
O217 C204 1.058 . S
C218 O207 1.260 . S
C218 O208 1.258 . S
C219 O215 1.260 . S
C219 O216 1.258 . S
Zn220 O226 1.969 . S
Zn220 O227 1.965 . S
Zn220 O231 2.024 . S
Zn220 O236 1.969 . S
Zn221 O228 1.969 . S
Zn221 O234 1.969 . S
Zn221 O235 1.965 . S
Zn221 O237 2.024 . S
C222 O223 1.229 . S
C222 O231 1.058 . S
O223 C222 1.229 . S
C224 O225 1.229 . S
C224 O237 1.058 . S
O225 C224 1.229 . S
O226 Zn220 1.969 . S
O226 C229 1.267 1_545 S
O227 Zn220 1.965 . S
O227 C238 1.260 . S
O228 Zn221 1.969 . S
O228 C238 1.258 . S
C229 O226 1.267 1_565 S
C229 O230 1.228 . S
O230 C229 1.228 . S
O231 Zn220 2.024 . S
O231 C222 1.058 . S
C232 O233 1.228 . S
C232 O234 1.267 . S
O233 C232 1.228 . S
O234 Zn221 1.969 . S
O234 C232 1.267 . S
O235 Zn221 1.965 . S
O235 C239 1.260 . S
O236 Zn220 1.969 . S
O236 C239 1.258 . S
O237 Zn221 2.024 . S
O237 C224 1.058 . S
C238 O227 1.260 . S
C238 O228 1.258 . S
C239 O235 1.260 . S
C239 O236 1.258 . S
C240 C241 1.387 . S
C240 H244 0.950 . S
C240 C249 1.390 . S
C241 C240 1.387 . S
C241 C243 1.387 . S
H242 C249 0.950 . S
C243 C241 1.387 . S
C243 C245 1.390 . S
C243 H247 0.950 . S
H244 C240 0.950 . S
C245 C243 1.390 . S
C245 C246 1.387 . S
C245 H248 0.950 . S
C246 C245 1.387 . S
C246 C249 1.387 . S
H247 C243 0.950 . S
H248 C245 0.950 . S
C249 C240 1.390 . S
C249 H242 0.950 . S
C249 C246 1.387 . S
C250 C251 1.387 . S
C250 H254 0.950 . S
C250 C259 1.390 . S
C251 C250 1.387 . S
C251 C253 1.387 . S
H252 C259 0.950 . S
C253 C251 1.387 . S
C253 C255 1.390 . S
C253 H257 0.950 . S
H254 C250 0.950 . S
C255 C253 1.390 . S
C255 C256 1.387 . S
C255 H258 0.950 . S
C256 C255 1.387 . S
C256 C259 1.387 . S
H257 C253 0.950 . S
H258 C255 0.950 . S
C259 C250 1.390 . S
C259 H252 0.950 . S
C259 C256 1.387 . S
C260 C261 1.387 . S
C260 H264 0.950 . S
C260 C269 1.390 . S
C261 C260 1.387 . S
C261 C263 1.387 . S
H262 C269 0.950 . S
C263 C261 1.387 . S
C263 C265 1.390 . S
C263 H267 0.950 . S
H264 C260 0.950 . S
C265 C263 1.390 . S
C265 C266 1.387 . S
C265 H268 0.950 . S
C266 C265 1.387 . S
C266 C269 1.387 . S
H267 C263 0.950 . S
H268 C265 0.950 . S
C269 C260 1.390 . S
C269 H262 0.950 . S
C269 C266 1.387 . S
C270 C271 1.387 . S
C270 H274 0.950 . S
C270 C279 1.390 . S
C271 C270 1.387 . S
C271 C273 1.387 . S
H272 C279 0.950 . S
C273 C271 1.387 . S
C273 C275 1.390 . S
C273 H277 0.950 . S
H274 C270 0.950 . S
C275 C273 1.390 . S
C275 C276 1.387 . S
C275 H278 0.950 1_565 S
C276 C275 1.387 . S
C276 C279 1.387 . S
H277 C273 0.950 . S
H278 C275 0.950 1_545 S
C279 C270 1.390 . S
C279 H272 0.950 . S
C279 C276 1.387 . S
C280 C281 1.387 . S
C280 H284 0.950 . S
C280 C289 1.390 . S
C281 C280 1.387 . S
C281 C283 1.387 . S
H282 C289 0.950 . S
C283 C281 1.387 . S
C283 C285 1.390 . S
C283 H287 0.950 . S
H284 C280 0.950 . S
C285 C283 1.390 . S
C285 C286 1.387 . S
C285 H288 0.950 . S
C286 C285 1.387 . S
C286 C289 1.387 . S
H287 C283 0.950 . S
H288 C285 0.950 . S
C289 C280 1.390 . S
C289 H282 0.950 . S
C289 C286 1.387 . S
C290 C291 1.387 . S
C290 H294 0.950 . S
C290 C299 1.390 . S
C291 C290 1.387 . S
C291 C293 1.387 . S
H292 C299 0.950 . S
C293 C291 1.387 . S
C293 C295 1.390 . S
C293 H297 0.950 . S
H294 C290 0.950 . S
C295 C293 1.390 . S
C295 C296 1.387 . S
C295 H298 0.950 . S
C296 C295 1.387 . S
C296 C299 1.387 . S
H297 C293 0.950 . S
H298 C295 0.950 . S
C299 C290 1.390 . S
C299 H292 0.950 . S
C299 C296 1.387 . S
C300 C301 1.387 . S
C300 H304 0.950 . S
C300 C309 1.390 . S
C301 C300 1.387 . S
C301 C303 1.387 . S
H302 C309 0.950 . S
C303 C301 1.387 . S
C303 C305 1.390 . S
C303 H307 0.950 1_655 S
H304 C300 0.950 . S
C305 C303 1.390 . S
C305 C306 1.387 . S
C305 H308 0.950 . S
C306 C305 1.387 . S
C306 C309 1.387 . S
H307 C303 0.950 1_455 S
H308 C305 0.950 . S
C309 C300 1.390 . S
C309 H302 0.950 . S
C309 C306 1.387 . S
C310 C311 1.387 . S
C310 H314 0.950 . S
C310 C319 1.390 . S
C311 C310 1.387 . S
C311 C313 1.387 . S
H312 C319 0.950 1_545 S
C313 C311 1.387 . S
C313 C315 1.390 . S
C313 H317 0.950 . S
H314 C310 0.950 . S
C315 C313 1.390 . S
C315 C316 1.387 . S
C315 H318 0.950 . S
C316 C315 1.387 . S
C316 C319 1.387 . S
H317 C313 0.950 . S
H318 C315 0.950 . S
C319 C310 1.390 . S
C319 H312 0.950 1_565 S
C319 C316 1.387 . S
C320 C321 1.387 . S
C320 H324 0.950 . S
C320 C329 1.390 . S
C321 C320 1.387 . S
C321 C323 1.387 . S
H322 C329 0.950 . S
C323 C321 1.387 . S
C323 C325 1.390 . S
C323 H327 0.950 . S
H324 C320 0.950 . S
C325 C323 1.390 . S
C325 C326 1.387 . S
C325 H328 0.950 . S
C326 C325 1.387 . S
C326 C329 1.387 . S
H327 C323 0.950 . S
H328 C325 0.950 . S
C329 C320 1.390 . S
C329 H322 0.950 . S
C329 C326 1.387 . S
C330 C331 1.387 . S
C330 H334 0.950 . S
C330 C339 1.390 . S
C331 C330 1.387 . S
C331 C333 1.387 . S
H332 C339 0.950 1_655 S
C333 C331 1.387 . S
C333 C335 1.390 . S
C333 H337 0.950 . S
H334 C330 0.950 . S
C335 C333 1.390 . S
C335 C336 1.387 . S
C335 H338 0.950 . S
C336 C335 1.387 . S
C336 C339 1.387 . S
H337 C333 0.950 . S
H338 C335 0.950 . S
C339 C330 1.390 . S
C339 H332 0.950 1_455 S
C339 C336 1.387 . S
C340 C341 1.387 . S
C340 H344 0.950 . S
C340 C349 1.390 . S
C341 C340 1.387 . S
C341 C343 1.387 . S
H342 C349 0.950 . S
C343 C341 1.387 . S
C343 C345 1.390 . S
C343 H347 0.950 . S
H344 C340 0.950 . S
C345 C343 1.390 . S
C345 C346 1.387 . S
C345 H348 0.953 . S
C346 C345 1.387 . S
C346 C349 1.387 . S
H347 C343 0.950 . S
H348 C345 0.953 . S
C349 C340 1.390 . S
C349 H342 0.950 . S
C349 C346 1.387 . S
C350 C351 1.387 . S
C350 H354 0.950 . S
C350 C359 1.390 . S
C351 C350 1.387 . S
C351 C353 1.387 . S
H352 C359 0.950 . S
C353 C351 1.387 . S
C353 C355 1.390 . S
C353 H357 0.950 . S
H354 C350 0.950 . S
C355 C353 1.390 . S
C355 C356 1.387 . S
C355 H358 0.950 . S
C356 C355 1.387 . S
C356 C359 1.387 . S
H357 C353 0.950 . S
H358 C355 0.950 . S
C359 C350 1.390 . S
C359 H352 0.950 . S
C359 C356 1.387 . S
C360 C361 1.387 . S
C360 H364 0.950 . S
C360 C369 1.390 . S
C361 C360 1.387 . S
C361 C363 1.387 . S
H362 C369 0.950 . S
C363 C361 1.387 . S
C363 C365 1.390 . S
C363 H367 0.950 . S
H364 C360 0.950 . S
C365 C363 1.390 . S
C365 C366 1.387 . S
C365 H368 0.950 . S
C366 C365 1.387 . S
C366 C369 1.387 . S
H367 C363 0.950 . S
H368 C365 0.950 . S
C369 C360 1.390 . S
C369 H362 0.950 . S
C369 C366 1.387 . S
C370 C371 1.387 . S
C370 H374 0.950 . S
C370 C379 1.390 . S
C371 C370 1.387 . S
C371 C373 1.387 . S
H372 C379 0.950 . S
C373 C371 1.387 . S
C373 C375 1.390 . S
C373 H377 0.950 . S
H374 C370 0.950 . S
C375 C373 1.390 . S
C375 C376 1.387 . S
C375 H378 0.950 . S
C376 C375 1.387 . S
C376 C379 1.387 . S
H377 C373 0.950 . S
H378 C375 0.950 . S
C379 C370 1.390 . S
C379 H372 0.950 . S
C379 C376 1.387 . S
C380 C381 1.387 . S
C380 H384 0.950 . S
C380 C389 1.390 . S
C381 C380 1.387 . S
C381 C383 1.387 . S
H382 C389 0.950 . S
C383 C381 1.387 . S
C383 C385 1.390 . S
C383 H387 0.950 . S
H384 C380 0.950 . S
C385 C383 1.390 . S
C385 C386 1.387 . S
C385 H388 0.950 . S
C386 C385 1.387 . S
C386 C389 1.387 . S
H387 C383 0.950 . S
H388 C385 0.950 . S
C389 C380 1.390 . S
C389 H382 0.950 . S
C389 C386 1.387 . S
C390 C391 1.387 . S
C390 H394 0.950 . S
C390 C399 1.390 . S
C391 C390 1.387 . S
C391 C393 1.387 . S
H392 C399 0.950 . S
C393 C391 1.387 . S
C393 C395 1.390 . S
C393 H397 0.950 . S
H394 C390 0.950 . S
C395 C393 1.390 . S
C395 C396 1.387 . S
C395 H398 0.950 . S
C396 C395 1.387 . S
C396 C399 1.387 . S
H397 C393 0.950 . S
H398 C395 0.950 . S
C399 C390 1.390 . S
C399 H392 0.950 . S
C399 C396 1.387 . S
C400 C401 1.387 . S
C400 H404 0.950 . S
C400 C409 1.390 . S
C401 C400 1.387 . S
C401 C403 1.387 . S
H402 C409 0.950 . S
C403 C401 1.387 . S
C403 C405 1.390 . S
C403 H407 0.950 . S
H404 C400 0.950 . S
C405 C403 1.390 . S
C405 C406 1.387 . S
C405 H408 0.950 . S
C406 C405 1.387 . S
C406 C409 1.387 . S
H407 C403 0.950 . S
H408 C405 0.950 . S
C409 C400 1.390 . S
C409 H402 0.950 . S
C409 C406 1.387 . S
C410 C411 1.387 . S
C410 H414 0.950 . S
C410 C419 1.390 . S
C411 C410 1.387 . S
C411 C413 1.387 . S
H412 C419 0.950 . S
C413 C411 1.387 . S
C413 C415 1.390 . S
C413 H417 0.950 . S
H414 C410 0.950 . S
C415 C413 1.390 . S
C415 C416 1.387 . S
C415 H418 0.950 . S
C416 C415 1.387 . S
C416 C419 1.387 . S
H417 C413 0.950 . S
H418 C415 0.950 . S
C419 C410 1.390 . S
C419 H412 0.950 . S
C419 C416 1.387 . S
C420 C421 1.387 . S
C420 H424 0.950 . S
C420 C429 1.390 . S
C421 C420 1.387 . S
C421 C423 1.387 . S
H422 C429 0.950 . S
C423 C421 1.387 . S
C423 C425 1.390 . S
C423 H427 0.950 . S
H424 C420 0.950 . S
C425 C423 1.390 . S
C425 C426 1.387 . S
C425 H428 0.950 . S
C426 C425 1.387 . S
C426 C429 1.387 . S
H427 C423 0.950 . S
H428 C425 0.950 . S
C429 C420 1.390 . S
C429 H422 0.950 . S
C429 C426 1.387 . S
C430 C431 1.387 . S
C430 H434 0.950 . S
C430 C439 1.390 . S
C431 C430 1.387 . S
C431 C433 1.387 . S
H432 C439 0.950 . S
C433 C431 1.387 . S
C433 C435 1.390 . S
C433 H437 0.950 . S
H434 C430 0.950 . S
C435 C433 1.390 . S
C435 C436 1.387 . S
C435 H438 0.950 . S
C436 C435 1.387 . S
C436 C439 1.387 . S
H437 C433 0.950 . S
H438 C435 0.950 . S
C439 C430 1.390 . S
C439 H432 0.950 . S
C439 C436 1.387 . S
C440 C441 1.387 . S
C440 H444 0.950 . S
C440 C449 1.390 . S
C441 C440 1.387 . S
C441 C443 1.387 . S
H442 C449 0.950 . S
C443 C441 1.387 . S
C443 C445 1.390 . S
C443 H447 0.950 . S
H444 C440 0.950 . S
C445 C443 1.390 . S
C445 C446 1.387 . S
C445 H448 0.950 . S
C446 C445 1.387 . S
C446 C449 1.387 . S
H447 C443 0.950 . S
H448 C445 0.950 . S
C449 C440 1.390 . S
C449 H442 0.950 . S
C449 C446 1.387 . S
C450 C451 1.387 . S
C450 H454 0.950 . S
C450 C459 1.390 . S
C451 C450 1.387 . S
C451 C453 1.387 . S
H452 C459 0.950 . S
C453 C451 1.387 . S
C453 C455 1.390 . S
C453 H457 0.950 . S
H454 C450 0.950 . S
C455 C453 1.390 . S
C455 C456 1.387 . S
C455 H458 0.950 . S
C456 C455 1.387 . S
C456 C459 1.387 . S
H457 C453 0.950 . S
H458 C455 0.950 . S
C459 C450 1.390 . S
C459 H452 0.950 . S
C459 C456 1.387 . S
C460 C461 1.387 . S
C460 H464 0.950 . S
C460 C469 1.390 . S
C461 C460 1.387 . S
C461 C463 1.387 . S
H462 C469 0.950 . S
C463 C461 1.387 . S
C463 C465 1.390 . S
C463 H467 0.950 . S
H464 C460 0.950 . S
C465 C463 1.390 . S
C465 C466 1.387 . S
C465 H468 0.950 . S
C466 C465 1.387 . S
C466 C469 1.387 . S
H467 C463 0.950 . S
H468 C465 0.950 . S
C469 C460 1.390 . S
C469 H462 0.950 . S
C469 C466 1.387 . S
C470 C471 1.387 . S
C470 H474 0.950 . S
C470 C479 1.390 . S
C471 C470 1.387 . S
C471 C473 1.387 . S
H472 C479 0.950 . S
C473 C471 1.387 . S
C473 C475 1.390 . S
C473 H477 0.950 . S
H474 C470 0.950 . S
C475 C473 1.390 . S
C475 C476 1.387 . S
C475 H478 0.950 . S
C476 C475 1.387 . S
C476 C479 1.387 . S
H477 C473 0.950 . S
H478 C475 0.950 . S
C479 C470 1.390 . S
C479 H472 0.950 . S
C479 C476 1.387 . S
C480 C481 1.387 . S
C480 H484 0.950 . S
C480 C489 1.390 . S
C481 C480 1.387 . S
C481 C483 1.387 . S
H482 C489 0.950 . S
C483 C481 1.387 . S
C483 C485 1.390 . S
C483 H487 0.950 . S
H484 C480 0.950 . S
C485 C483 1.390 . S
C485 C486 1.387 . S
C485 H488 0.950 . S
C486 C485 1.387 . S
C486 C489 1.387 . S
H487 C483 0.950 . S
H488 C485 0.950 . S
C489 C480 1.390 . S
C489 H482 0.950 . S
C489 C486 1.387 . S
C490 C491 1.387 . S
C490 H494 0.950 . S
C490 C499 1.390 . S
C491 C490 1.387 . S
C491 C493 1.387 . S
H492 C499 0.950 . S
C493 C491 1.387 . S
C493 C495 1.390 . S
C493 H497 0.950 . S
H494 C490 0.950 . S
C495 C493 1.390 . S
C495 C496 1.387 . S
C495 H498 0.950 . S
C496 C495 1.387 . S
C496 C499 1.387 . S
H497 C493 0.950 . S
H498 C495 0.950 . S
C499 C490 1.390 . S
C499 H492 0.950 . S
C499 C496 1.387 . S
C500 C501 1.387 . S
C500 H504 0.950 . S
C500 C509 1.390 . S
C501 C500 1.387 . S
C501 C503 1.387 . S
H502 C509 0.950 . S
C503 C501 1.387 . S
C503 C505 1.390 . S
C503 H507 0.950 . S
H504 C500 0.950 . S
C505 C503 1.390 . S
C505 C506 1.387 . S
C505 H508 0.950 . S
C506 C505 1.387 . S
C506 C509 1.387 . S
H507 C503 0.950 . S
H508 C505 0.950 . S
C509 C500 1.390 . S
C509 H502 0.950 . S
C509 C506 1.387 . S
C510 C511 1.387 . S
C510 H514 0.950 . S
C510 C519 1.390 . S
C511 C510 1.387 . S
C511 C513 1.387 . S
H512 C519 0.950 . S
C513 C511 1.387 . S
C513 C515 1.390 . S
C513 H517 0.950 . S
H514 C510 0.950 . S
C515 C513 1.390 . S
C515 C516 1.387 . S
C515 H518 0.950 . S
C516 C515 1.387 . S
C516 C519 1.387 . S
H517 C513 0.950 . S
H518 C515 0.950 . S
C519 C510 1.390 . S
C519 H512 0.950 . S
C519 C516 1.387 . S
C520 C521 1.387 . S
C520 H524 0.950 . S
C520 C529 1.390 . S
C521 C520 1.387 . S
C521 C523 1.387 . S
H522 C529 0.950 . S
C523 C521 1.387 . S
C523 C525 1.390 . S
C523 H527 0.950 . S
H524 C520 0.950 . S
C525 C523 1.390 . S
C525 C526 1.387 . S
C525 H528 0.950 . S
C526 C525 1.387 . S
C526 C529 1.387 . S
H527 C523 0.950 . S
H528 C525 0.950 . S
C529 C520 1.390 . S
C529 H522 0.950 . S
C529 C526 1.387 . S
C530 C531 1.387 . S
C530 H534 0.950 . S
C530 C539 1.390 . S
C531 C530 1.387 . S
C531 C533 1.387 . S
H532 C539 0.950 . S
C533 C531 1.387 . S
C533 C535 1.390 . S
C533 H537 0.950 . S
H534 C530 0.950 . S
C535 C533 1.390 . S
C535 C536 1.387 . S
C535 H538 0.950 . S
C536 C535 1.387 . S
C536 C539 1.387 . S
H537 C533 0.950 . S
H538 C535 0.950 . S
C539 C530 1.390 . S
C539 H532 0.950 . S
C539 C536 1.387 . S
C540 C541 1.387 . S
C540 H544 0.950 . S
C540 C549 1.390 . S
C541 C540 1.387 . S
C541 C543 1.387 1_556 S
H542 C549 0.950 . S
C543 C541 1.387 1_554 S
C543 C545 1.390 . S
C543 H547 0.950 . S
H544 C540 0.950 . S
C545 C543 1.390 . S
C545 C546 1.387 . S
C545 H548 0.950 . S
C546 C545 1.387 . S
C546 C549 1.387 1_554 S
H547 C543 0.950 . S
H548 C545 0.950 . S
C549 C540 1.390 . S
C549 H542 0.950 . S
C549 C546 1.387 1_556 S
C550 C551 1.387 . S
C550 H554 0.950 . S
C550 C559 1.390 1_455 S
C551 C550 1.387 . S
C551 C553 1.387 . S
H552 C559 0.950 . S
C553 C551 1.387 . S
C553 C555 1.390 1_455 S
C553 H557 0.950 . S
H554 C550 0.950 . S
C555 C553 1.390 1_655 S
C555 C556 1.387 . S
C555 H558 0.950 . S
C556 C555 1.387 . S
C556 C559 1.387 . S
H557 C553 0.950 . S
H558 C555 0.950 . S
C559 C550 1.390 1_655 S
C559 H552 0.950 . S
C559 C556 1.387 . S
C560 C561 1.387 . S
C560 H564 0.950 . S
C560 C569 1.390 1_564 S
C561 C560 1.387 . S
C561 C563 1.387 . S
H562 C569 0.950 . S
C563 C561 1.387 . S
C563 C565 1.390 1_564 S
C563 H567 0.950 . S
H564 C560 0.950 . S
C565 C563 1.390 1_546 S
C565 C566 1.387 . S
C565 H568 0.950 . S
C566 C565 1.387 . S
C566 C569 1.387 . S
H567 C563 0.950 . S
H568 C565 0.950 . S
C569 C560 1.390 1_546 S
C569 H562 0.950 . S
C569 C566 1.387 . S
C570 C571 1.387 . S
C570 H574 0.950 . S
C570 C579 1.390 . S
C571 C570 1.387 . S
C571 C573 1.387 . S
H572 C579 0.950 . S
C573 C571 1.387 . S
C573 C575 1.390 . S
C573 H577 0.950 . S
H574 C570 0.950 . S
C575 C573 1.390 . S
C575 C576 1.387 . S
C575 H578 0.950 . S
C576 C575 1.387 . S
C576 C579 1.387 . S
H577 C573 0.950 . S
H578 C575 0.950 . S
C579 C570 1.390 . S
C579 H572 0.950 . S
C579 C576 1.387 . S
C580 C581 1.387 1_554 S
C580 H584 0.950 . S
C580 C589 1.390 1_655 S
C581 C580 1.387 1_556 S
C581 C583 1.387 . S
H582 C589 0.950 . S
C583 C581 1.387 . S
C583 C585 1.390 1_655 S
C583 H587 0.950 . S
H584 C580 0.950 . S
C585 C583 1.390 1_455 S
C585 C586 1.387 1_556 S
C585 H588 0.950 . S
C586 C585 1.387 1_554 S
C586 C589 1.387 . S
H587 C583 0.950 . S
H588 C585 0.950 . S
C589 C580 1.390 1_455 S
C589 H582 0.950 . S
C589 C586 1.387 . S
C590 C591 1.387 . S
C590 H594 0.950 . S
C590 C599 1.390 1_565 S
C591 C590 1.387 . S
C591 C593 1.387 . S
H592 C599 0.950 . S
C593 C591 1.387 . S
C593 C595 1.390 1_565 S
C593 H597 0.950 . S
H594 C590 0.950 . S
C595 C593 1.390 1_545 S
C595 C596 1.387 . S
C595 H598 0.950 . S
C596 C595 1.387 . S
C596 C599 1.387 . S
H597 C593 0.950 . S
H598 C595 0.950 . S
C599 C590 1.390 1_545 S
C599 H592 0.950 . S
C599 C596 1.387 . S
C241 C82 1.253 1_545 S
C246 C9 1.175 . S
C251 C102 1.250 . S
C256 C29 1.175 . S
C261 C49 1.179 . S
C266 C2 1.249 1_655 S
C271 C69 1.175 . S
C276 C22 1.252 1_565 S
C281 C89 1.175 . S
C286 C42 1.252 . S
C291 C62 1.250 1_455 S
C296 C109 1.180 . S
C301 C162 1.252 1_655 S
C306 C129 1.175 . S
C311 C149 1.180 . S
C316 C182 1.250 1_565 S
C321 C202 1.252 . S
C326 C169 1.175 . S
C331 C189 1.181 . S
C336 C222 1.251 1_455 S
C341 C209 1.175 . S
C346 C122 1.252 1_545 S
C351 C142 1.252 . S
C356 C229 1.175 . S
C361 C84 1.301 . S
C366 C12 1.472 . S
C371 C32 1.472 . S
C376 C104 1.306 . S
C381 C52 1.472 . S
C386 C4 1.301 . S
C391 C72 1.470 . S
C396 C24 1.306 . S
C401 C44 1.300 . S
C406 C92 1.470 . S
C411 C64 1.300 . S
C416 C112 1.471 . S
C421 C164 1.300 . S
C426 C132 1.471 . S
C431 C152 1.472 . S
C436 C184 1.301 . S
C441 C172 1.471 . S
C446 C204 1.301 . S
C451 C224 1.306 . S
C456 C192 1.471 . S
C461 C212 1.472 . S
C466 C124 1.302 . S
C471 C144 1.302 . S
C476 C232 1.472 . S
C481 C219 1.665 . S
C486 C19 1.665 . S
C491 C39 1.666 . S
C496 C239 1.665 . S
C501 C59 1.665 . S
C506 C139 1.666 . S
C511 C79 1.665 . S
C516 C159 1.665 . S
C521 C99 1.665 . S
C526 C179 1.665 . S
C531 C199 1.665 . S
C536 C119 1.664 . S
C541 C198 1.893 . S
C546 C18 1.895 . S
C551 C218 1.892 . S
C556 C38 1.893 . S
C561 C58 1.892 . S
C566 C238 1.892 . S
C571 C78 1.895 . S
C576 C138 1.894 . S
C581 C158 1.896 . S
C586 C98 1.895 . S
C591 C178 1.892 . S
C596 C118 1.892 . S
