# Generated by pormake.
# Topology umy, (4)-cn, num edge types: 1
# Building blocks:
#     Node 0, Type 0, BuildingBlock: NAHDIM_clean_sbu_0, # of connection points: 4
#     Node 1, Type 0, BuildingBlock: NAHDIM_clean_sbu_0, # of connection points: 4
#     Node 2, Type 0, BuildingBlock: NAHDIM_clean_sbu_0, # of connection points: 4
#     Node 3, Type 0, BuildingBlock: NAHDIM_clean_sbu_0, # of connection points: 4
#     Node 4, Type 0, BuildingBlock: NAHDIM_clean_sbu_0, # of connection points: 4
#     Node 5, Type 0, BuildingBlock: NAHDIM_clean_sbu_0, # of connection points: 4
#     Node 6, Type 0, BuildingBlock: NAHDIM_clean_sbu_0, # of connection points: 4
#     Node 7, Type 0, BuildingBlock: NAHDIM_clean_sbu_0, # of connection points: 4
#     Node 8, Type 0, BuildingBlock: NAHDIM_clean_sbu_0, # of connection points: 4
#     Node 9, Type 0, BuildingBlock: NAHDIM_clean_sbu_0, # of connection points: 4
#     Node 10, Type 0, BuildingBlock: NAHDIM_clean_sbu_0, # of connection points: 4
#     Node 11, Type 0, BuildingBlock: NAHDIM_clean_sbu_0, # of connection points: 4
#     Edge 12, Type (0, 0), BuildingBlock: AJUNOK_clean_linker_0, # of connection points: 2
#     Edge 13, Type (0, 0), BuildingBlock: AJUNOK_clean_linker_0, # of connection points: 2
#     Edge 14, Type (0, 0), BuildingBlock: AJUNOK_clean_linker_0, # of connection points: 2
#     Edge 15, Type (0, 0), BuildingBlock: AJUNOK_clean_linker_0, # of connection points: 2
#     Edge 16, Type (0, 0), BuildingBlock: AJUNOK_clean_linker_0, # of connection points: 2
#     Edge 17, Type (0, 0), BuildingBlock: AJUNOK_clean_linker_0, # of connection points: 2
#     Edge 18, Type (0, 0), BuildingBlock: AJUNOK_clean_linker_0, # of connection points: 2
#     Edge 19, Type (0, 0), BuildingBlock: AJUNOK_clean_linker_0, # of connection points: 2
#     Edge 20, Type (0, 0), BuildingBlock: AJUNOK_clean_linker_0, # of connection points: 2
#     Edge 21, Type (0, 0), BuildingBlock: AJUNOK_clean_linker_0, # of connection points: 2
#     Edge 22, Type (0, 0), BuildingBlock: AJUNOK_clean_linker_0, # of connection points: 2
#     Edge 23, Type (0, 0), BuildingBlock: AJUNOK_clean_linker_0, # of connection points: 2
#     Edge 24, Type (0, 0), BuildingBlock: AJUNOK_clean_linker_0, # of connection points: 2
#     Edge 25, Type (0, 0), BuildingBlock: AJUNOK_clean_linker_0, # of connection points: 2
#     Edge 26, Type (0, 0), BuildingBlock: AJUNOK_clean_linker_0, # of connection points: 2
#     Edge 27, Type (0, 0), BuildingBlock: AJUNOK_clean_linker_0, # of connection points: 2
#     Edge 28, Type (0, 0), BuildingBlock: AJUNOK_clean_linker_0, # of connection points: 2
#     Edge 29, Type (0, 0), BuildingBlock: AJUNOK_clean_linker_0, # of connection points: 2
#     Edge 30, Type (0, 0), BuildingBlock: AJUNOK_clean_linker_0, # of connection points: 2
#     Edge 31, Type (0, 0), BuildingBlock: AJUNOK_clean_linker_0, # of connection points: 2
#     Edge 32, Type (0, 0), BuildingBlock: AJUNOK_clean_linker_0, # of connection points: 2
#     Edge 33, Type (0, 0), BuildingBlock: AJUNOK_clean_linker_0, # of connection points: 2
#     Edge 34, Type (0, 0), BuildingBlock: AJUNOK_clean_linker_0, # of connection points: 2
#     Edge 35, Type (0, 0), BuildingBlock: AJUNOK_clean_linker_0, # of connection points: 2
# Relax obj value: 0.157
# Max RMSD: 0.142
# Mean RMSD: 0.142
data_MOF--net-umy--node1-NAHDIM_clean_sbu_0--edge1-AJUNOK_clean_linker_0
_symmetry_space_group_name_H-M    P1
_symmetry_Int_Tables_number       1
_symmetry_cell_setting            triclinic
loop_
_symmetry_equiv_pos_as_xyz
'x, y, z'
_cell_length_a     28.791677
_cell_length_b     28.836302
_cell_length_c     35.651588
_cell_angle_alpha  90.070344
_cell_angle_beta   89.885029
_cell_angle_gamma 120.01226
loop_
_atom_site_label
_atom_site_type_symbol
_atom_site_fract_x
_atom_site_fract_y
_atom_site_fract_z
_atom_type_partial_charge
C0 C 0.03266 0.41421 0.07996 0.0
O1 O 0.02272 0.37992 0.0526 0.0
O2 O -0.00351 0.28126 0.14329 0.0
Zn3 Zn 0.06085 0.34505 0.12142 0.0
O4 O 0.09054 0.32686 0.07617 0.0
C5 C 0.12125 0.32729 0.17363 0.0
O6 O 0.09804 0.2824 0.15438 0.0
O7 O 0.04803 0.40629 0.11146 0.0
C8 C 0.13107 0.36548 0.06047 0.0
O9 O 0.14835 0.41422 0.07315 0.0
C10 C 0.94999 0.24606 0.13267 0.0
O11 O 0.93365 0.24822 0.09867 0.0
O12 O 0.11445 0.36555 0.16308 0.0
C13 C 0.63295 0.06027 0.25283 0.0
O14 O 0.67807 0.10256 0.24248 0.0
O15 O 0.69737 0.95845 0.29492 0.0
Zn16 Zn 0.70639 0.03058 0.2823 0.0
O17 O 0.75731 0.0665 0.23892 0.0
C18 C 0.71899 0.05468 0.36086 0.0
O19 O 0.6811 0.00417 0.36273 0.0
O20 O 0.63488 0.02304 0.27051 0.0
C21 C 0.80637 0.09918 0.24589 0.0
O22 O 0.82261 0.10691 0.28091 0.0
C23 C 0.73779 0.95473 0.3048 0.0
O24 O 0.78572 -0.00273 0.30228 0.0
O25 O 0.73559 0.07594 0.32882 0.0
C26 C 0.58086 0.62784 0.43776 0.0
O27 O 0.61223 0.65289 0.40913 0.0
O28 O 0.71955 0.72622 0.49393 0.0
Zn29 Zn 0.6531 0.72588 0.47646 0.0
O30 O 0.66562 0.76906 0.42928 0.0
C31 C 0.65039 0.80997 0.5187 0.0
O32 O 0.67826 0.8393 0.49001 0.0
O33 O 0.5916 0.65098 0.46949 0.0
C34 C 0.70804 0.78845 0.40951 0.0
O35 O 0.74642 0.77882 0.41912 0.0
C36 C 0.73532 0.69367 0.48503 0.0
O37 O 0.70777 0.65593 0.46034 0.0
O38 O 0.63408 0.76007 0.51846 0.0
C39 C 0.94477 0.55342 0.58156 0.0
O40 O 0.96451 0.59396 0.55807 0.0
O41 O 0.00771 0.68018 0.64288 0.0
Zn42 Zn 0.93173 0.62796 0.62708 0.0
O43 O 0.90428 0.65097 0.58264 0.0
C44 C 0.89065 0.65364 0.69275 0.0
O45 O 0.93262 0.70117 0.68713 0.0
O46 O 0.92802 0.55873 0.61339 0.0
C47 C 0.88922 0.6854 0.58548 0.0
O48 O 0.89642 0.71081 0.61739 0.0
C49 C 0.03343 0.73076 0.63895 0.0
O50 O 0.01101 0.75428 0.62106 0.0
O51 O 0.88229 0.61503 0.67125 0.0
C52 C 0.37617 0.96335 0.76905 0.0
O53 O 0.36973 0.00209 0.75544 0.0
O54 O 0.28614 0.00293 0.80549 0.0
Zn55 Zn 0.26962 0.927 0.79736 0.0
O56 O 0.21816 0.89248 0.75448 0.0
C57 C 0.20035 0.89413 0.86081 0.0
O58 O 0.18454 0.924 0.84358 0.0
O59 O 0.33824 0.92633 0.78784 0.0
C60 C 0.21316 0.85014 0.73962 0.0
O61 O 0.24284 0.83077 0.75227 0.0
C62 C 0.25598 0.02113 0.79539 0.0
O63 O 0.21224 0.99024 0.77622 0.0
O64 O 0.23605 0.88679 0.84545 0.0
C65 C 0.40226 0.37057 0.90683 0.0
O66 O 0.36112 0.35304 0.88399 0.0
O67 O 0.2681 0.28737 0.95526 0.0
Zn68 Zn 0.33007 0.27466 0.94615 0.0
O69 O 0.31829 0.22396 0.90391 0.0
C70 C 0.29666 0.19757 0.00314 0.0
O71 O 0.25353 0.17827 0.98209 0.0
O72 O 0.39819 0.34337 0.93592 0.0
C73 C 0.27868 0.20143 0.8817 0.0
O74 O 0.23868 0.21081 0.88527 0.0
C75 C 0.27835 0.33194 0.96947 0.0
O76 O 0.32867 0.36941 0.9738 0.0
O77 O 0.33783 0.24108 0.99326 0.0
C78 C 0.5778 0.96757 0.7398 0.0
O79 O 0.61378 0.00625 0.71872 0.0
O80 O 0.71359 0.00576 0.72349 0.0
Zn81 Zn 0.65452 0.93093 0.73609 0.0
O82 O 0.6763 0.89581 0.77605 0.0
C83 C 0.64137 0.91207 0.65715 0.0
O84 O 0.64944 0.96108 0.65802 0.0
O85 O 0.58711 0.93129 0.75132 0.0
C86 C 0.70343 0.87388 0.76656 0.0
O87 O 0.71745 0.87567 0.73127 0.0
C88 C 0.76318 0.02057 0.72154 0.0
O89 O 0.77951 0.98808 0.73349 0.0
O90 O 0.63981 0.88913 0.68796 0.0
C91 C 0.60548 0.56571 0.87898 0.0
O92 O 0.61065 0.60263 0.85509 0.0
O93 O 0.71308 0.70158 0.87821 0.0
Zn94 Zn 0.71947 0.63629 0.88922 0.0
O95 O 0.76449 0.6448 0.93461 0.0
C96 C 0.74419 0.63298 0.81152 0.0
O97 O 0.7073 0.64657 0.80707 0.0
O98 O 0.64651 0.57213 0.89674 0.0
C99 C 0.79035 0.68664 0.95451 0.0
O100 O 0.78773 0.72969 0.94643 0.0
C101 C 0.75215 0.74181 0.86255 0.0
O102 O 0.7976 0.74207 0.85811 0.0
O103 O 0.75491 0.62395 0.84435 0.0
C104 C 0.04229 0.61705 0.04843 0.0
O105 O 0.03875 0.62953 0.01352 0.0
O106 O -0.00546 0.72459 0.05488 0.0
Zn107 Zn 0.06384 0.72494 0.06335 0.0
O108 O 0.10699 0.77504 0.10483 0.0
C109 C 0.11049 0.79971 0.00636 0.0
O110 O 0.09148 0.82192 0.0293 0.0
O111 O 0.05227 0.65147 0.07401 0.0
C112 C 0.08835 0.78687 0.13329 0.0
O113 O 0.03616 0.76453 0.13738 0.0
C114 C 0.94893 0.6826 0.05202 0.0
O115 O 0.94455 0.63596 0.05944 0.0
O116 O 0.10531 0.75472 0.01541 0.0
C117 C 0.42595 0.04662 0.23132 0.0
O118 O 0.38531 0.01292 0.25218 0.0
O119 O 0.29032 0.99523 0.20219 0.0
Zn120 Zn 0.34784 0.07276 0.20674 0.0
O121 O 0.34176 0.11007 0.25266 0.0
C122 C 0.30119 0.09316 0.14199 0.0
O123 O 0.25799 0.05125 0.15513 0.0
O124 O 0.41928 0.07681 0.20876 0.0
C125 C 0.3065 0.12391 0.25621 0.0
O126 O 0.26986 0.1104 0.23006 0.0
C127 C 0.24427 0.97129 0.21753 0.0
O128 O 0.23161 -0.0031 0.24228 0.0
O129 O 0.34497 0.11102 0.15999 0.0
C130 C 0.37672 0.43006 0.42096 0.0
O131 O 0.34989 0.40337 0.45082 0.0
O132 O 0.28144 0.28561 0.37148 0.0
Zn133 Zn 0.28027 0.35381 0.38147 0.0
O134 O 0.23224 0.34688 0.42492 0.0
C135 C 0.21135 0.32577 0.31921 0.0
O136 O 0.1919 0.27935 0.33625 0.0
O137 O 0.35471 0.41589 0.38898 0.0
C138 C 0.19577 0.30188 0.4372 0.0
O139 O 0.18999 0.25785 0.42185 0.0
C140 C 0.32337 0.28585 0.36007 0.0
O141 O 0.36917 0.33121 0.35977 0.0
O142 O 0.25012 0.36682 0.33428 0.0
C143 C 0.92988 0.35261 0.53467 0.0
O144 O 0.93526 0.3448 0.49898 0.0
O145 O 0.98072 0.24843 0.53007 0.0
Zn146 Zn 0.9109 0.24397 0.54475 0.0
O147 O 0.87585 0.19615 0.58912 0.0
C148 C 0.83569 0.16263 0.49625 0.0
O149 O 0.83989 0.13262 0.5222 0.0
O150 O 0.92059 0.31582 0.55807 0.0
C151 C 0.89889 0.18513 0.61508 0.0
O152 O 0.95094 0.20426 0.61345 0.0
C153 C 0.02625 0.2908 0.53231 0.0
O154 O 0.02947 0.33355 0.54798 0.0
O155 O 0.86186 0.21322 0.50016 0.0
C156 C 0.0292 0.52787 0.02872 0.0
C157 C 0.03648 0.56416 0.05765 0.0
C158 C 0.02648 0.47888 0.03632 0.0
C159 C 0.03106 0.46418 0.07316 0.0
H160 H 0.02649 0.53762 0.99977 0.0
H161 H 0.02202 0.45298 0.01292 0.0
S162 S 0.04618 0.54285 0.15948 0.0
N163 N 0.04503 0.58041 0.12502 0.0
N164 N 0.03999 0.48856 0.13923 0.0
C165 C 0.03664 0.4993 0.10253 0.0
C166 C 0.03932 0.54918 0.0948 0.0
C167 C 0.53415 0.01732 0.26375 0.0
C168 C 0.58061 0.05682 0.24558 0.0
C169 C 0.48445 0.01417 0.25867 0.0
C170 C 0.47897 0.05018 0.23502 0.0
H171 H 0.53615 0.98891 0.28257 0.0
H172 H 0.45014 0.98332 0.27366 0.0
S173 S 0.58786 0.15967 0.17945 0.0
N174 N 0.61768 0.13178 0.20197 0.0
N175 N 0.52428 0.12581 0.19229 0.0
C176 C 0.52493 0.08933 0.21608 0.0
C177 C 0.57569 0.09268 0.22141 0.0
C178 C 0.49776 0.54989 0.464 0.0
C179 C 0.53119 0.57522 0.43288 0.0
C180 C 0.44864 0.5023 0.46001 0.0
C181 C 0.4307 0.47815 0.4247 0.0
H182 H 0.50903 0.56738 0.49173 0.0
H183 H 0.424 0.48514 0.48474 0.0
S184 S 0.50494 0.5255 0.33466 0.0
N185 N 0.54416 0.57046 0.36577 0.0
N186 N 0.45184 0.48117 0.35829 0.0
C187 C 0.46445 0.50197 0.39349 0.0
C188 C 0.51465 0.55039 0.39757 0.0
C189 C 0.95445 0.49496 0.53387 0.0
C190 C 0.94131 0.50206 0.57069 0.0
C191 C 0.95074 0.44666 0.52254 0.0
C192 C 0.93402 0.40352 0.54759 0.0
H193 H 0.9674 0.52682 0.51341 0.0
H194 H 0.96115 0.44327 0.49385 0.0
S195 S 0.89546 0.40153 0.64742 0.0
N196 N 0.91122 0.46174 0.63236 0.0
N197 N 0.90434 0.37119 0.61116 0.0
C198 C 0.92109 0.41016 0.58462 0.0
C199 C 0.92467 0.4593 0.59613 0.0
C200 C 0.5173 0.00634 0.73535 0.0
C201 C 0.52636 0.9656 0.74865 0.0
C202 C 0.46881 0.0052 0.74218 0.0
C203 C 0.42715 0.96325 0.76262 0.0
H204 H 0.5478 0.03952 0.71928 0.0
H205 H 0.46408 0.03758 0.73117 0.0
S206 S 0.43046 0.84676 0.80412 0.0
N207 N 0.48948 0.88208 0.78364 0.0
N208 N 0.39839 0.87989 0.79646 0.0
C209 C 0.43568 0.9223 0.77635 0.0
C210 C 0.4852 0.92349 0.76939 0.0
C211 C 0.49828 0.43503 0.92147 0.0
C212 C 0.45301 0.42097 0.899 0.0
C213 C 0.54709 0.48182 0.91475 0.0
C214 C 0.55277 0.51686 0.88538 0.0
H215 H 0.49633 0.40952 0.94442 0.0
H216 H 0.58062 0.4905 0.93289 0.0
S217 S 0.44629 0.4991 0.81852 0.0
N218 N 0.41683 0.44627 0.84624 0.0
N219 N 0.50864 0.53443 0.83366 0.0
C220 C 0.50775 0.50363 0.86279 0.0
C221 C 0.45793 0.45567 0.86956 0.0
C222 C 0.21135 0.39907 0.01888 0.0
C223 C 0.16305 0.35566 0.03212 0.0
C224 C 0.24688 0.39099 0.99677 0.0
C225 C 0.23551 0.3392 0.98669 0.0
H226 H 0.22314 0.43973 0.02689 0.0
H227 H 0.28455 0.42567 0.98868 0.0
S228 S 0.11141 0.21212 0.01007 0.0
N229 N 0.10333 0.25903 0.03049 0.0
N230 N 0.17016 0.24391 0.98875 0.0
C231 C 0.1857 0.29554 0.99749 0.0
C232 C 0.1495 0.30376 0.02027 0.0
C233 C 0.82381 0.13927 0.18136 0.0
C234 C 0.84369 0.13203 0.21561 0.0
C235 C 0.85844 0.1749 0.15401 0.0
C236 C 0.91419 0.2045 0.15992 0.0
H237 H 0.78103 0.11875 0.17612 0.0
H238 H 0.84119 0.18052 0.12865 0.0
S239 S 0.98699 0.19432 0.24276 0.0
N240 N 0.92305 0.15344 0.25231 0.0
N241 N 0.98799 0.2199 0.2012 0.0
C242 C 0.93469 0.1954 0.19328 0.0
C243 C 0.8995 0.15933 0.22104 0.0
C244 C 0.67218 0.83207 0.3671 0.0
C245 C 0.7156 0.82593 0.37849 0.0
C246 C 0.67913 0.87172 0.34141 0.0
C247 C 0.72991 0.90725 0.32623 0.0
H248 H 0.63263 0.80717 0.379 0.0
H249 H 0.64477 0.87606 0.3349 0.0
S250 S 0.85543 0.90391 0.34297 0.0
N251 N 0.81027 0.85548 0.36962 0.0
N252 N 0.82334 0.93028 0.32149 0.0
C253 C 0.77306 0.89957 0.33558 0.0
C254 C 0.76592 0.85885 0.36163 0.0
C255 C 0.80486 0.73271 0.53524 0.0
C256 C 0.78032 0.69493 0.50625 0.0
C257 C 0.84208 0.73084 0.55939 0.0
C258 C 0.85671 0.69129 0.55559 0.0
H259 H 0.79386 0.76301 0.54039 0.0
H260 H 0.85805 0.75969 0.58206 0.0
S261 S 0.8098 0.58722 0.4812 0.0
N262 N 0.77741 0.61988 0.47282 0.0
N263 N 0.84769 0.61648 0.51821 0.0
C264 C 0.83528 0.65536 0.52523 0.0
C265 C 0.79701 0.65714 0.5006 0.0
C266 C 0.09894 0.81539 0.67148 0.0
C267 C 0.08377 0.76293 0.66027 0.0
C268 C 0.14179 0.84381 0.69627 0.0
C269 C 0.17153 0.82111 0.71057 0.0
H270 H 0.07614 0.83392 0.66238 0.0
H271 H 0.15072 0.88343 0.70498 0.0
S272 S 0.15188 0.68712 0.68617 0.0
N273 N 0.10456 0.691 0.66273 0.0
N274 N 0.18532 0.74438 0.70899 0.0
C275 C 0.15856 0.76971 0.69792 0.0
C276 C 0.11464 0.74064 0.67289 0.0
C277 C 0.22079 0.08022 0.81735 0.0
C278 C 0.26459 0.07205 0.81175 0.0
C279 C 0.22615 0.12364 0.83858 0.0
C280 C 0.27554 0.16052 0.85491 0.0
H281 H 0.18138 0.05143 0.80693 0.0
H282 H 0.19074 0.12684 0.84357 0.0
S283 S 0.40454 0.16197 0.84303 0.0
N284 N 0.36029 0.10791 0.82032 0.0
N285 N 0.37065 0.1896 0.85991 0.0
C286 C 0.32047 0.15482 0.84723 0.0
C287 C 0.31493 0.11058 0.82575 0.0
C288 C 0.77569 0.80875 0.8113 0.0
C289 C 0.74287 0.78119 0.84215 0.0
C290 C 0.76318 0.8396 0.7876 0.0
C291 C 0.71808 0.8452 0.79426 0.0
H292 H 0.81006 0.80462 0.80428 0.0
H293 H 0.78865 0.85851 0.76346 0.0
S294 S 0.62204 0.78555 0.87329 0.0
N295 N 0.66507 0.76419 0.87945 0.0
N296 N 0.64236 0.82347 0.83535 0.0
C297 C 0.68653 0.82033 0.82615 0.0
C298 C 0.69871 0.788 0.84996 0.0
C299 C 0.82131 0.63874 0.99694 0.0
C300 C 0.82688 0.68742 0.98411 0.0
C301 C 0.85917 0.63767 0.02096 0.0
C302 C 0.90452 0.68527 0.03293 0.0
H303 H 0.78825 0.60088 0.98742 0.0
H304 H 0.85397 0.59904 0.02868 0.0
S305 S 0.93483 0.82361 0.01086 0.0
N306 N 0.87881 0.78464 0.98788 0.0
N307 N 0.95016 0.78278 0.03295 0.0
C308 C 0.90888 0.73437 0.02222 0.0
C309 C 0.87005 0.73541 0.99784 0.0
C310 C 0.21899 0.89215 0.17654 0.0
C311 C 0.203 0.91914 0.20174 0.0
C312 C 0.18141 0.84812 0.15587 0.0
C313 C 0.12605 0.82893 0.15947 0.0
H314 H 0.26113 0.90628 0.17159 0.0
H315 H 0.19622 0.83008 0.13601 0.0
S316 S 0.06256 0.88137 0.22479 0.0
N317 N 0.12759 0.92054 0.2316 0.0
N318 N 0.05675 0.83745 0.1927 0.0
C319 C 0.10916 0.85332 0.18628 0.0
C320 C 0.14765 0.89844 0.20744 0.0
C321 C 0.26524 0.16516 0.29592 0.0
C322 C 0.31 0.15987 0.28717 0.0
C323 C 0.26906 0.20368 0.32163 0.0
C324 C 0.31809 0.2391 0.3391 0.0
H325 H 0.22722 0.14038 0.28201 0.0
H326 H 0.23392 0.20751 0.32621 0.0
S327 S 0.44592 0.23837 0.3289 0.0
N328 N 0.40387 0.1903 0.30063 0.0
N329 N 0.41114 0.26343 0.34836 0.0
C330 C 0.36246 0.23246 0.33212 0.0
C331 C 0.35839 0.19264 0.30634 0.0
C332 C 0.10828 0.25052 0.47105 0.0
C333 C 0.15636 0.29909 0.46536 0.0
C334 C 0.06751 0.24785 0.49406 0.0
C335 C 0.0731 0.29358 0.51252 0.0
H336 H 0.10104 0.21447 0.45657 0.0
H337 H 0.03061 0.20979 0.49636 0.0
S338 S 0.19413 0.4292 0.51082 0.0
N339 N 0.20937 0.39303 0.48291 0.0
N340 N 0.13287 0.38805 0.52622 0.0
C341 C 0.12225 0.34181 0.5088 0.0
C342 C 0.16377 0.34456 0.4852 0.0
C343 C 0.88539 0.1194 0.66572 0.0
C344 C 0.86631 0.14841 0.64566 0.0
C345 C 0.85272 0.08006 0.6918 0.0
C346 C 0.79984 0.0685 0.69903 0.0
H347 H 0.92504 0.12544 0.66014 0.0
H348 H 0.86848 0.05718 0.70528 0.0
S349 S 0.73384 0.13924 0.65792 0.0
N350 N 0.79335 0.16709 0.63766 0.0
N351 N 0.73221 0.09377 0.68679 0.0
C352 C 0.78163 0.09984 0.68092 0.0
C353 C 0.81474 0.13954 0.65418 0.0
C354 C 0.16 0.28111 0.26139 0.0
C355 C 0.19042 0.32863 0.28188 0.0
C356 C 0.13941 0.28163 0.22604 0.0
C357 C 0.1477 0.32961 0.20976 0.0
H358 H 0.152 0.24292 0.27264 0.0
H359 H 0.11577 0.24369 0.21179 0.0
S360 S 0.22561 0.46542 0.25136 0.0
N361 N 0.22902 0.4254 0.28295 0.0
N362 N 0.18949 0.42629 0.2165 0.0
C363 C 0.17852 0.37765 0.22969 0.0
C364 C 0.2001 0.37718 0.26571 0.0
C365 C 0.76826 0.08169 0.46137 0.0
C366 C 0.80341 0.13741 0.46209 0.0
C367 C 0.73983 0.05573 0.4289 0.0
C368 C 0.74588 0.08428 0.39556 0.0
H369 H 0.76315 0.0576 0.48597 0.0
H370 H 0.71413 0.01261 0.42976 0.0
S371 S 0.83095 0.23128 0.38287 0.0
N372 N 0.84094 0.22079 0.42687 0.0
N373 N 0.78798 0.17183 0.36564 0.0
C374 C 0.77991 0.14023 0.39603 0.0
C375 C 0.80848 0.16683 0.42932 0.0
C376 C 0.6277 0.83221 0.62042 0.0
C377 C 0.63899 0.88566 0.62087 0.0
C378 C 0.62956 0.80753 0.58704 0.0
C379 C 0.64328 0.83542 0.55273 0.0
H380 H 0.6183 0.80937 0.64619 0.0
H381 H 0.62181 0.76674 0.58846 0.0
S382 S 0.67211 0.97478 0.5379 0.0
N383 N 0.66107 0.9647 0.5834 0.0
N384 N 0.66491 0.91835 0.52078 0.0
C385 C 0.65283 0.88827 0.55247 0.0
C386 C 0.65056 0.91335 0.58647 0.0
C387 C 0.8332 0.60502 0.7479 0.0
C388 C 0.85114 0.64678 0.72161 0.0
C389 C 0.79809 0.60038 0.77694 0.0
C390 C 0.77846 0.63622 0.77967 0.0
H391 H 0.84768 0.57685 0.74667 0.0
H392 H 0.78623 0.56862 0.79737 0.0
S393 S 0.81153 0.75069 0.71634 0.0
N394 N 0.84624 0.72385 0.69953 0.0
N395 N 0.77851 0.71382 0.75297 0.0
C396 C 0.79486 0.67702 0.75273 0.0
C397 C 0.83173 0.68266 0.72396 0.0
C398 C 0.17973 0.82599 0.9113 0.0
C399 C 0.17822 0.8712 0.89818 0.0
C400 C 0.15807 0.80329 0.94637 0.0
C401 C 0.13472 0.82537 0.96988 0.0
H402 H 0.19703 0.80745 0.89412 0.0
H403 H 0.15954 0.76804 0.95501 0.0
S404 S 0.12406 0.94615 0.94947 0.0
N405 N 0.15348 0.93866 0.91205 0.0
N406 N 0.11334 0.89659 0.97785 0.0
C407 C 0.13406 0.87138 0.95735 0.0
C408 C 0.15561 0.89409 0.92154 0.0
C409 C 0.34245 0.16869 0.09579 0.0
C410 C 0.29901 0.11873 0.10642 0.0
C411 C 0.34141 0.1937 0.06235 0.0
C412 C 0.29693 0.16974 0.0381 0.0
H413 H 0.37755 0.18897 0.11352 0.0
H414 H 0.37575 0.23231 0.05564 0.0
S415 S 0.17373 0.03767 0.05203 0.0
N416 N 0.21077 0.04532 0.08932 0.0
N417 N 0.20884 0.09215 0.02661 0.0
C418 C 0.25339 0.11945 0.04819 0.0
C419 C 0.25441 0.09403 0.08228 0.0
loop_
_geom_bond_atom_site_label_1
_geom_bond_atom_site_label_2
_geom_bond_distance
_geom_bond_site_symmetry_2
_ccdc_geom_bond_type
C0 O1 1.157 1_455 S
C0 O7 1.185 . S
O1 C0 1.157 1_655 S
O2 Zn3 1.899 1_655 S
O2 C10 1.284 . S
Zn3 O2 1.899 1_455 S
Zn3 O4 2.032 . S
Zn3 O7 2.086 . S
Zn3 O12 1.977 . S
O4 Zn3 2.032 . S
O4 C8 1.278 . S
C5 O6 1.203 . S
C5 O12 1.267 . S
O6 C5 1.203 . S
O7 C0 1.185 . S
O7 Zn3 2.086 . S
C8 O4 1.278 . S
C8 O9 1.211 . S
O9 C8 1.211 . S
C10 O2 1.284 . S
C10 O11 1.273 . S
O11 C10 1.273 . S
O12 Zn3 1.977 . S
O12 C5 1.267 . S
C13 O14 1.155 1_545 S
C13 O20 1.185 . S
O14 C13 1.155 1_565 S
O15 Zn16 1.899 1_565 S
O15 C23 1.284 . S
Zn16 O15 1.899 1_545 S
Zn16 O17 2.032 . S
Zn16 O20 2.086 . S
Zn16 O25 1.977 . S
O17 Zn16 2.032 . S
O17 C21 1.278 . S
C18 O19 1.203 . S
C18 O25 1.267 . S
O19 C18 1.203 . S
O20 C13 1.185 . S
O20 Zn16 2.086 . S
C21 O17 1.278 . S
C21 O22 1.211 . S
O22 C21 1.211 . S
C23 O15 1.284 . S
C23 O24 1.273 . S
O24 C23 1.273 . S
O25 Zn16 1.977 . S
O25 C18 1.267 . S
C26 O27 1.160 . S
C26 O33 1.185 . S
O27 C26 1.160 . S
O28 Zn29 1.899 . S
O28 C36 1.284 . S
Zn29 O28 1.899 . S
Zn29 O30 2.032 . S
Zn29 O33 2.086 . S
Zn29 O38 1.977 . S
O30 Zn29 2.032 . S
O30 C34 1.278 . S
C31 O32 1.203 . S
C31 O38 1.267 . S
O32 C31 1.203 . S
O33 C26 1.185 . S
O33 Zn29 2.086 . S
C34 O30 1.278 . S
C34 O35 1.211 . S
O35 C34 1.211 . S
C36 O28 1.284 . S
C36 O37 1.273 . S
O37 C36 1.273 . S
O38 Zn29 1.977 . S
O38 C31 1.267 . S
C39 O40 1.157 1_655 S
C39 O46 1.185 . S
O40 C39 1.157 1_455 S
O41 Zn42 1.899 1_455 S
O41 C49 1.284 . S
Zn42 O41 1.899 1_655 S
Zn42 O43 2.032 . S
Zn42 O46 2.086 . S
Zn42 O51 1.977 . S
O43 Zn42 2.032 . S
O43 C47 1.278 . S
C44 O45 1.203 . S
C44 O51 1.267 . S
O45 C44 1.203 . S
O46 C39 1.185 . S
O46 Zn42 2.086 . S
C47 O43 1.278 . S
C47 O48 1.211 . S
O48 C47 1.211 . S
C49 O41 1.284 . S
C49 O50 1.273 . S
O50 C49 1.273 . S
O51 Zn42 1.977 . S
O51 C44 1.267 . S
C52 O53 1.155 1_565 S
C52 O59 1.185 . S
O53 C52 1.155 1_545 S
O54 Zn55 1.899 1_545 S
O54 C62 1.284 . S
Zn55 O54 1.899 1_565 S
Zn55 O56 2.032 . S
Zn55 O59 2.086 . S
Zn55 O64 1.977 . S
O56 Zn55 2.032 . S
O56 C60 1.278 . S
C57 O58 1.203 . S
C57 O64 1.267 . S
O58 C57 1.203 . S
O59 C52 1.185 . S
O59 Zn55 2.086 . S
C60 O56 1.278 . S
C60 O61 1.211 . S
O61 C60 1.211 . S
C62 O54 1.284 . S
C62 O63 1.273 . S
O63 C62 1.273 . S
O64 Zn55 1.977 . S
O64 C57 1.267 . S
C65 O66 1.160 . S
C65 O72 1.185 . S
O66 C65 1.160 . S
O67 Zn68 1.899 . S
O67 C75 1.284 . S
Zn68 O67 1.899 . S
Zn68 O69 2.032 . S
Zn68 O72 2.086 . S
Zn68 O77 1.977 . S
O69 Zn68 2.032 . S
O69 C73 1.278 . S
C70 O71 1.203 . S
C70 O77 1.267 1_554 S
O71 C70 1.203 . S
O72 C65 1.185 . S
O72 Zn68 2.086 . S
C73 O69 1.278 . S
C73 O74 1.211 . S
O74 C73 1.211 . S
C75 O67 1.284 . S
C75 O76 1.273 . S
O76 C75 1.273 . S
O77 Zn68 1.977 . S
O77 C70 1.267 1_556 S
C78 O79 1.157 1_565 S
C78 O85 1.185 . S
O79 C78 1.157 1_545 S
O80 Zn81 1.899 1_545 S
O80 C88 1.284 . S
Zn81 O80 1.899 1_565 S
Zn81 O82 2.032 . S
Zn81 O85 2.086 . S
Zn81 O90 1.977 . S
O82 Zn81 2.032 . S
O82 C86 1.278 . S
C83 O84 1.203 . S
C83 O90 1.267 . S
O84 C83 1.203 . S
O85 C78 1.185 . S
O85 Zn81 2.086 . S
C86 O82 1.278 . S
C86 O87 1.211 . S
O87 C86 1.211 . S
C88 O80 1.284 . S
C88 O89 1.273 . S
O89 C88 1.273 . S
O90 Zn81 1.977 . S
O90 C83 1.267 . S
C91 O92 1.160 . S
C91 O98 1.185 . S
O92 C91 1.160 . S
O93 Zn94 1.899 . S
O93 C101 1.284 . S
Zn94 O93 1.899 . S
Zn94 O95 2.032 . S
Zn94 O98 2.086 . S
Zn94 O103 1.977 . S
O95 Zn94 2.032 . S
O95 C99 1.278 . S
C96 O97 1.203 . S
C96 O103 1.267 . S
O97 C96 1.203 . S
O98 C91 1.185 . S
O98 Zn94 2.086 . S
C99 O95 1.278 . S
C99 O100 1.211 . S
O100 C99 1.211 . S
C101 O93 1.284 . S
C101 O102 1.273 . S
O102 C101 1.273 . S
O103 Zn94 1.977 . S
O103 C96 1.267 . S
C104 O105 1.155 1_455 S
C104 O111 1.185 . S
O105 C104 1.155 1_655 S
O106 Zn107 1.899 1_655 S
O106 C114 1.284 . S
Zn107 O106 1.899 1_455 S
Zn107 O108 2.032 . S
Zn107 O111 2.086 . S
Zn107 O116 1.977 . S
O108 Zn107 2.032 . S
O108 C112 1.278 . S
C109 O110 1.203 . S
C109 O116 1.267 1_556 S
O110 C109 1.203 . S
O111 C104 1.185 . S
O111 Zn107 2.086 . S
C112 O108 1.278 . S
C112 O113 1.211 . S
O113 C112 1.211 . S
C114 O106 1.284 . S
C114 O115 1.273 . S
O115 C114 1.273 . S
O116 Zn107 1.977 . S
O116 C109 1.267 1_554 S
C117 O118 1.157 1_545 S
C117 O124 1.185 . S
O118 C117 1.157 1_565 S
O119 Zn120 1.899 1_565 S
O119 C127 1.284 . S
Zn120 O119 1.899 1_545 S
Zn120 O121 2.032 . S
Zn120 O124 2.086 . S
Zn120 O129 1.977 . S
O121 Zn120 2.032 . S
O121 C125 1.278 . S
C122 O123 1.203 . S
C122 O129 1.267 . S
O123 C122 1.203 . S
O124 C117 1.185 . S
O124 Zn120 2.086 . S
C125 O121 1.278 . S
C125 O126 1.211 . S
O126 C125 1.211 . S
C127 O119 1.284 . S
C127 O128 1.273 . S
O128 C127 1.273 . S
O129 Zn120 1.977 . S
O129 C122 1.267 . S
C130 O131 1.160 . S
C130 O137 1.185 . S
O131 C130 1.160 . S
O132 Zn133 1.899 . S
O132 C140 1.284 . S
Zn133 O132 1.899 . S
Zn133 O134 2.032 . S
Zn133 O137 2.086 . S
Zn133 O142 1.977 . S
O134 Zn133 2.032 . S
O134 C138 1.278 . S
C135 O136 1.203 . S
C135 O142 1.267 . S
O136 C135 1.203 . S
O137 C130 1.185 . S
O137 Zn133 2.086 . S
C138 O134 1.278 . S
C138 O139 1.211 . S
O139 C138 1.211 . S
C140 O132 1.284 . S
C140 O141 1.273 . S
O141 C140 1.273 . S
O142 Zn133 1.977 . S
O142 C135 1.267 . S
C143 O144 1.156 1_655 S
C143 O150 1.185 . S
O144 C143 1.156 1_455 S
O145 Zn146 1.899 1_455 S
O145 C153 1.284 . S
Zn146 O145 1.899 1_655 S
Zn146 O147 2.032 . S
Zn146 O150 2.086 . S
Zn146 O155 1.977 . S
O147 Zn146 2.032 . S
O147 C151 1.278 . S
C148 O149 1.203 . S
C148 O155 1.267 . S
O149 C148 1.203 . S
O150 C143 1.185 . S
O150 Zn146 2.086 . S
C151 O147 1.278 . S
C151 O152 1.211 . S
O152 C151 1.211 . S
C153 O145 1.284 . S
C153 O154 1.273 . S
O154 C153 1.273 . S
O155 Zn146 1.977 . S
O155 C148 1.267 . S
C156 C157 1.369 . S
C156 C158 1.419 . S
C156 H160 0.930 1_455 S
C157 C156 1.369 . S
C157 C166 1.429 . S
C158 C156 1.419 . S
C158 C159 1.363 . S
C158 H161 0.929 1_455 S
C159 C158 1.363 . S
C159 C165 1.428 . S
H160 C156 0.930 1_655 S
H161 C158 0.929 1_655 S
S162 N163 1.613 . S
S162 N164 1.610 . S
N163 S162 1.613 . S
N163 C166 1.350 . S
N164 S162 1.610 . S
N164 C165 1.351 . S
C165 C159 1.428 . S
C165 N164 1.351 . S
C165 C166 1.434 . S
C166 C157 1.429 . S
C166 N163 1.350 . S
C166 C165 1.434 . S
C167 C168 1.369 . S
C167 C169 1.419 . S
C167 H171 0.930 . S
C168 C167 1.369 . S
C168 C177 1.429 . S
C169 C167 1.419 . S
C169 C170 1.363 . S
C169 H172 0.929 . S
C170 C169 1.363 . S
C170 C176 1.428 . S
H171 C167 0.930 . S
H172 C169 0.929 . S
S173 N174 1.613 1_565 S
S173 N175 1.603 1_565 S
N174 S173 1.613 1_545 S
N174 C177 1.350 . S
N175 S173 1.603 1_545 S
N175 C176 1.353 . S
C176 C170 1.428 . S
C176 N175 1.353 . S
C176 C177 1.434 . S
C177 C168 1.429 . S
C177 N174 1.350 . S
C177 C176 1.434 . S
C178 C179 1.369 . S
C178 C180 1.419 . S
C178 H182 0.930 . S
C179 C178 1.369 . S
C179 C188 1.429 . S
C180 C178 1.419 . S
C180 C181 1.363 . S
C180 H183 0.929 . S
C181 C180 1.363 . S
C181 C187 1.428 . S
H182 C178 0.930 . S
H183 C180 0.929 . S
S184 N185 1.613 . S
S184 N186 1.610 . S
N185 S184 1.613 . S
N185 C188 1.350 . S
N186 S184 1.610 . S
N186 C187 1.351 . S
C187 C181 1.428 . S
C187 N186 1.351 . S
C187 C188 1.434 . S
C188 C179 1.429 . S
C188 N185 1.350 . S
C188 C187 1.434 . S
C189 C190 1.369 . S
C189 C191 1.419 . S
C189 H193 0.930 1_655 S
C190 C189 1.369 . S
C190 C199 1.429 . S
C191 C189 1.419 . S
C191 C192 1.363 . S
C191 H194 0.929 1_655 S
C192 C191 1.363 . S
C192 C198 1.428 . S
H193 C189 0.930 1_455 S
H194 C191 0.929 1_455 S
S195 N196 1.613 . S
S195 N197 1.610 . S
N196 S195 1.613 . S
N196 C199 1.350 . S
N197 S195 1.610 . S
N197 C198 1.351 . S
C198 C192 1.428 . S
C198 N197 1.351 . S
C198 C199 1.434 . S
C199 C190 1.429 . S
C199 N196 1.350 . S
C199 C198 1.434 . S
C200 C201 1.369 . S
C200 C202 1.419 . S
C200 H204 0.930 1_565 S
C201 C200 1.369 . S
C201 C210 1.429 . S
C202 C200 1.419 . S
C202 C203 1.363 . S
C202 H205 0.929 1_565 S
C203 C202 1.363 . S
C203 C209 1.428 . S
H204 C200 0.930 1_545 S
H205 C202 0.929 1_545 S
S206 N207 1.613 . S
S206 N208 1.610 . S
N207 S206 1.613 . S
N207 C210 1.350 . S
N208 S206 1.610 . S
N208 C209 1.351 . S
C209 C203 1.428 . S
C209 N208 1.351 . S
C209 C210 1.434 . S
C210 C201 1.429 . S
C210 N207 1.350 . S
C210 C209 1.434 . S
C211 C212 1.369 . S
C211 C213 1.419 . S
C211 H215 0.930 . S
C212 C211 1.369 . S
C212 C221 1.429 . S
C213 C211 1.419 . S
C213 C214 1.363 . S
C213 H216 0.929 . S
C214 C213 1.363 . S
C214 C220 1.428 . S
H215 C211 0.930 . S
H216 C213 0.929 . S
S217 N218 1.613 . S
S217 N219 1.610 . S
N218 S217 1.613 . S
N218 C221 1.350 . S
N219 S217 1.610 . S
N219 C220 1.351 . S
C220 C214 1.428 . S
C220 N219 1.351 . S
C220 C221 1.434 . S
C221 C212 1.429 . S
C221 N218 1.350 . S
C221 C220 1.434 . S
C222 C223 1.369 . S
C222 C224 1.419 1_554 S
C222 H226 0.930 1_554 S
C223 C222 1.369 . S
C223 C232 1.429 . S
C224 C222 1.419 1_556 S
C224 C225 1.363 . S
C224 H227 0.929 . S
C225 C224 1.363 . S
C225 C231 1.428 1_556 S
H226 C222 0.930 1_556 S
H227 C224 0.929 . S
S228 N229 1.613 . S
S228 N230 1.610 . S
N229 S228 1.613 . S
N229 C232 1.350 . S
N230 S228 1.610 . S
N230 C231 1.351 . S
C231 C225 1.428 1_554 S
C231 N230 1.351 . S
C231 C232 1.434 . S
C232 C223 1.429 . S
C232 N229 1.350 . S
C232 C231 1.434 . S
C233 C234 1.369 . S
C233 C235 1.419 . S
C233 H237 0.930 . S
C234 C233 1.369 . S
C234 C243 1.429 . S
C235 C233 1.419 . S
C235 C236 1.363 . S
C235 H238 0.929 . S
C236 C235 1.363 . S
C236 C242 1.428 . S
H237 C233 0.930 . S
H238 C235 0.929 . S
S239 N240 1.613 . S
S239 N241 1.610 . S
N240 S239 1.613 . S
N240 C243 1.350 . S
N241 S239 1.610 . S
N241 C242 1.351 . S
C242 C236 1.428 . S
C242 N241 1.351 . S
C242 C243 1.434 . S
C243 C234 1.429 . S
C243 N240 1.350 . S
C243 C242 1.434 . S
C244 C245 1.369 . S
C244 C246 1.419 . S
C244 H248 0.930 . S
C245 C244 1.369 . S
C245 C254 1.429 . S
C246 C244 1.419 . S
C246 C247 1.363 . S
C246 H249 0.929 . S
C247 C246 1.363 . S
C247 C253 1.428 . S
H248 C244 0.930 . S
H249 C246 0.929 . S
S250 N251 1.613 . S
S250 N252 1.610 . S
N251 S250 1.613 . S
N251 C254 1.350 . S
N252 S250 1.610 . S
N252 C253 1.351 . S
C253 C247 1.428 . S
C253 N252 1.351 . S
C253 C254 1.434 . S
C254 C245 1.429 . S
C254 N251 1.350 . S
C254 C253 1.434 . S
C255 C256 1.369 . S
C255 C257 1.419 . S
C255 H259 0.930 . S
C256 C255 1.369 . S
C256 C265 1.429 . S
C257 C255 1.419 . S
C257 C258 1.363 . S
C257 H260 0.929 . S
C258 C257 1.363 . S
C258 C264 1.428 . S
H259 C255 0.930 . S
H260 C257 0.929 . S
S261 N262 1.613 . S
S261 N263 1.610 . S
N262 S261 1.613 . S
N262 C265 1.350 . S
N263 S261 1.610 . S
N263 C264 1.351 . S
C264 C258 1.428 . S
C264 N263 1.351 . S
C264 C265 1.434 . S
C265 C256 1.429 . S
C265 N262 1.350 . S
C265 C264 1.434 . S
C266 C267 1.369 . S
C266 C268 1.419 . S
C266 H270 0.930 . S
C267 C266 1.369 . S
C267 C276 1.429 . S
C268 C266 1.419 . S
C268 C269 1.363 . S
C268 H271 0.929 . S
C269 C268 1.363 . S
C269 C275 1.428 . S
H270 C266 0.930 . S
H271 C268 0.929 . S
S272 N273 1.613 . S
S272 N274 1.610 . S
N273 S272 1.613 . S
N273 C276 1.350 . S
N274 S272 1.610 . S
N274 C275 1.351 . S
C275 C269 1.428 . S
C275 N274 1.351 . S
C275 C276 1.434 . S
C276 C267 1.429 . S
C276 N273 1.350 . S
C276 C275 1.434 . S
C277 C278 1.369 . S
C277 C279 1.419 . S
C277 H281 0.930 . S
C278 C277 1.369 . S
C278 C287 1.429 . S
C279 C277 1.419 . S
C279 C280 1.363 . S
C279 H282 0.929 . S
C280 C279 1.363 . S
C280 C286 1.428 . S
H281 C277 0.930 . S
H282 C279 0.929 . S
S283 N284 1.613 . S
S283 N285 1.610 . S
N284 S283 1.613 . S
N284 C287 1.350 . S
N285 S283 1.610 . S
N285 C286 1.351 . S
C286 C280 1.428 . S
C286 N285 1.351 . S
C286 C287 1.434 . S
C287 C278 1.429 . S
C287 N284 1.350 . S
C287 C286 1.434 . S
C288 C289 1.369 . S
C288 C290 1.419 . S
C288 H292 0.930 . S
C289 C288 1.369 . S
C289 C298 1.429 . S
C290 C288 1.419 . S
C290 C291 1.363 . S
C290 H293 0.929 . S
C291 C290 1.363 . S
C291 C297 1.428 . S
H292 C288 0.930 . S
H293 C290 0.929 . S
S294 N295 1.613 . S
S294 N296 1.610 . S
N295 S294 1.613 . S
N295 C298 1.350 . S
N296 S294 1.610 . S
N296 C297 1.351 . S
C297 C291 1.428 . S
C297 N296 1.351 . S
C297 C298 1.434 . S
C298 C289 1.429 . S
C298 N295 1.350 . S
C298 C297 1.434 . S
C299 C300 1.369 . S
C299 C301 1.419 1_556 S
C299 H303 0.930 . S
C300 C299 1.369 . S
C300 C309 1.429 . S
C301 C299 1.419 1_554 S
C301 C302 1.363 . S
C301 H304 0.929 . S
C302 C301 1.363 . S
C302 C308 1.428 1_554 S
H303 C299 0.930 . S
H304 C301 0.929 . S
S305 N306 1.613 . S
S305 N307 1.610 . S
N306 S305 1.613 . S
N306 C309 1.350 . S
N307 S305 1.610 . S
N307 C308 1.351 . S
C308 C302 1.428 1_556 S
C308 N307 1.351 . S
C308 C309 1.434 . S
C309 C300 1.429 . S
C309 N306 1.350 . S
C309 C308 1.434 . S
C310 C311 1.369 . S
C310 C312 1.419 . S
C310 H314 0.930 . S
C311 C310 1.369 . S
C311 C320 1.429 . S
C312 C310 1.419 . S
C312 C313 1.363 . S
C312 H315 0.929 . S
C313 C312 1.363 . S
C313 C319 1.428 . S
H314 C310 0.930 . S
H315 C312 0.929 . S
S316 N317 1.613 . S
S316 N318 1.610 . S
N317 S316 1.613 . S
N317 C320 1.350 . S
N318 S316 1.610 . S
N318 C319 1.351 . S
C319 C313 1.428 . S
C319 N318 1.351 . S
C319 C320 1.434 . S
C320 C311 1.429 . S
C320 N317 1.350 . S
C320 C319 1.434 . S
C321 C322 1.369 . S
C321 C323 1.419 . S
C321 H325 0.930 . S
C322 C321 1.369 . S
C322 C331 1.429 . S
C323 C321 1.419 . S
C323 C324 1.363 . S
C323 H326 0.929 . S
C324 C323 1.363 . S
C324 C330 1.428 . S
H325 C321 0.930 . S
H326 C323 0.929 . S
S327 N328 1.613 . S
S327 N329 1.610 . S
N328 S327 1.613 . S
N328 C331 1.350 . S
N329 S327 1.610 . S
N329 C330 1.351 . S
C330 C324 1.428 . S
C330 N329 1.351 . S
C330 C331 1.434 . S
C331 C322 1.429 . S
C331 N328 1.350 . S
C331 C330 1.434 . S
C332 C333 1.369 . S
C332 C334 1.419 . S
C332 H336 0.930 . S
C333 C332 1.369 . S
C333 C342 1.429 . S
C334 C332 1.419 . S
C334 C335 1.363 . S
C334 H337 0.929 . S
C335 C334 1.363 . S
C335 C341 1.428 . S
H336 C332 0.930 . S
H337 C334 0.929 . S
S338 N339 1.613 . S
S338 N340 1.610 . S
N339 S338 1.613 . S
N339 C342 1.350 . S
N340 S338 1.610 . S
N340 C341 1.351 . S
C341 C335 1.428 . S
C341 N340 1.351 . S
C341 C342 1.434 . S
C342 C333 1.429 . S
C342 N339 1.350 . S
C342 C341 1.434 . S
C343 C344 1.369 . S
C343 C345 1.419 . S
C343 H347 0.930 . S
C344 C343 1.369 . S
C344 C353 1.429 . S
C345 C343 1.419 . S
C345 C346 1.363 . S
C345 H348 0.929 . S
C346 C345 1.363 . S
C346 C352 1.428 . S
H347 C343 0.930 . S
H348 C345 0.929 . S
S349 N350 1.613 . S
S349 N351 1.610 . S
N350 S349 1.613 . S
N350 C353 1.350 . S
N351 S349 1.610 . S
N351 C352 1.351 . S
C352 C346 1.428 . S
C352 N351 1.351 . S
C352 C353 1.434 . S
C353 C344 1.429 . S
C353 N350 1.350 . S
C353 C352 1.434 . S
C354 C355 1.369 . S
C354 C356 1.419 . S
C354 H358 0.930 . S
C355 C354 1.369 . S
C355 C364 1.429 . S
C356 C354 1.419 . S
C356 C357 1.363 . S
C356 H359 0.929 . S
C357 C356 1.363 . S
C357 C363 1.428 . S
H358 C354 0.930 . S
H359 C356 0.929 . S
S360 N361 1.613 . S
S360 N362 1.610 . S
N361 S360 1.613 . S
N361 C364 1.350 . S
N362 S360 1.610 . S
N362 C363 1.351 . S
C363 C357 1.428 . S
C363 N362 1.351 . S
C363 C364 1.434 . S
C364 C355 1.429 . S
C364 N361 1.350 . S
C364 C363 1.434 . S
C365 C366 1.369 . S
C365 C367 1.419 . S
C365 H369 0.930 . S
C366 C365 1.369 . S
C366 C375 1.429 . S
C367 C365 1.419 . S
C367 C368 1.363 . S
C367 H370 0.929 . S
C368 C367 1.363 . S
C368 C374 1.428 . S
H369 C365 0.930 . S
H370 C367 0.929 . S
S371 N372 1.613 . S
S371 N373 1.610 . S
N372 S371 1.613 . S
N372 C375 1.350 . S
N373 S371 1.610 . S
N373 C374 1.351 . S
C374 C368 1.428 . S
C374 N373 1.351 . S
C374 C375 1.434 . S
C375 C366 1.429 . S
C375 N372 1.350 . S
C375 C374 1.434 . S
C376 C377 1.369 . S
C376 C378 1.419 . S
C376 H380 0.930 . S
C377 C376 1.369 . S
C377 C386 1.429 . S
C378 C376 1.419 . S
C378 C379 1.363 . S
C378 H381 0.929 . S
C379 C378 1.363 . S
C379 C385 1.428 . S
H380 C376 0.930 . S
H381 C378 0.929 . S
S382 N383 1.613 . S
S382 N384 1.610 . S
N383 S382 1.613 . S
N383 C386 1.350 . S
N384 S382 1.610 . S
N384 C385 1.351 . S
C385 C379 1.428 . S
C385 N384 1.351 . S
C385 C386 1.434 . S
C386 C377 1.429 . S
C386 N383 1.350 . S
C386 C385 1.434 . S
C387 C388 1.369 . S
C387 C389 1.419 . S
C387 H391 0.930 . S
C388 C387 1.369 . S
C388 C397 1.429 . S
C389 C387 1.419 . S
C389 C390 1.363 . S
C389 H392 0.929 . S
C390 C389 1.363 . S
C390 C396 1.428 . S
H391 C387 0.930 . S
H392 C389 0.929 . S
S393 N394 1.613 . S
S393 N395 1.610 . S
N394 S393 1.613 . S
N394 C397 1.350 . S
N395 S393 1.610 . S
N395 C396 1.351 . S
C396 C390 1.428 . S
C396 N395 1.351 . S
C396 C397 1.434 . S
C397 C388 1.429 . S
C397 N394 1.350 . S
C397 C396 1.434 . S
C398 C399 1.369 . S
C398 C400 1.419 . S
C398 H402 0.930 . S
C399 C398 1.369 . S
C399 C408 1.429 . S
C400 C398 1.419 . S
C400 C401 1.363 . S
C400 H403 0.929 . S
C401 C400 1.363 . S
C401 C407 1.428 . S
H402 C398 0.930 . S
H403 C400 0.929 . S
S404 N405 1.613 . S
S404 N406 1.610 . S
N405 S404 1.613 . S
N405 C408 1.350 . S
N406 S404 1.610 . S
N406 C407 1.351 . S
C407 C401 1.428 . S
C407 N406 1.351 . S
C407 C408 1.434 . S
C408 C399 1.429 . S
C408 N405 1.350 . S
C408 C407 1.434 . S
C409 C410 1.369 . S
C409 C411 1.419 . S
C409 H413 0.930 . S
C410 C409 1.369 . S
C410 C419 1.429 . S
C411 C409 1.419 . S
C411 C412 1.363 . S
C411 H414 0.929 . S
C412 C411 1.363 . S
C412 C418 1.428 . S
H413 C409 0.930 . S
H414 C411 0.929 . S
S415 N416 1.613 . S
S415 N417 1.610 . S
N416 S415 1.613 . S
N416 C419 1.350 . S
N417 S415 1.610 . S
N417 C418 1.351 . S
C418 C412 1.428 . S
C418 N417 1.351 . S
C418 C419 1.434 . S
C419 C410 1.429 . S
C419 N416 1.350 . S
C419 C418 1.434 . S
C157 C104 1.459 . S
C159 C0 1.458 . S
C168 C13 1.458 . S
C170 C117 1.453 . S
C179 C26 1.460 . S
C181 C130 1.456 . S
C190 C39 1.459 . S
C192 C143 1.458 . S
C201 C78 1.457 . S
C203 C52 1.459 . S
C212 C65 1.456 . S
C214 C91 1.453 . S
C223 C8 1.409 . S
C225 C75 1.460 . S
C234 C21 1.410 . S
C236 C10 1.458 . S
C245 C34 1.410 . S
C247 C23 1.458 . S
C256 C36 1.462 . S
C258 C47 1.418 . S
C267 C49 1.459 . S
C269 C60 1.410 . S
C278 C62 1.462 . S
C280 C73 1.412 . S
C289 C101 1.461 . S
C291 C86 1.410 . S
C300 C99 1.410 . S
C302 C114 1.458 . S
C311 C127 1.463 . S
C313 C112 1.418 . S
C322 C125 1.419 . S
C324 C140 1.463 . S
C333 C138 1.419 . S
C335 C153 1.460 . S
C344 C151 1.418 . S
C346 C88 1.463 . S
C355 C135 1.268 . S
C357 C5 1.266 . S
C366 C148 1.269 . S
C368 C18 1.267 . S
C377 C83 1.262 . S
C379 C31 1.264 . S
C388 C44 1.262 . S
C390 C96 1.263 . S
C399 C57 1.262 . S
C401 C109 1.264 . S
C410 C122 1.262 . S
C412 C70 1.263 . S
