# Generated by pormake.
# Topology zfi, (5)-cn, num edge types: 1
# Building blocks:
#     Node 0, Type 0, BuildingBlock: XOMCOT_clean_sbu_0, # of connection points: 5
#     Node 1, Type 0, BuildingBlock: XOMCOT_clean_sbu_0, # of connection points: 5
#     Node 2, Type 0, BuildingBlock: XOMCOT_clean_sbu_0, # of connection points: 5
#     Node 3, Type 0, BuildingBlock: XOMCOT_clean_sbu_0, # of connection points: 5
#     Node 4, Type 0, BuildingBlock: XOMCOT_clean_sbu_0, # of connection points: 5
#     Node 5, Type 0, BuildingBlock: XOMCOT_clean_sbu_0, # of connection points: 5
#     Node 6, Type 0, BuildingBlock: XOMCOT_clean_sbu_0, # of connection points: 5
#     Node 7, Type 0, BuildingBlock: XOMCOT_clean_sbu_0, # of connection points: 5
#     Node 8, Type 0, BuildingBlock: XOMCOT_clean_sbu_0, # of connection points: 5
#     Node 9, Type 0, BuildingBlock: XOMCOT_clean_sbu_0, # of connection points: 5
#     Node 10, Type 0, BuildingBlock: XOMCOT_clean_sbu_0, # of connection points: 5
#     Node 11, Type 0, BuildingBlock: XOMCOT_clean_sbu_0, # of connection points: 5
#     Node 12, Type 0, BuildingBlock: XOMCOT_clean_sbu_0, # of connection points: 5
#     Node 13, Type 0, BuildingBlock: XOMCOT_clean_sbu_0, # of connection points: 5
#     Node 14, Type 0, BuildingBlock: XOMCOT_clean_sbu_0, # of connection points: 5
#     Node 15, Type 0, BuildingBlock: XOMCOT_clean_sbu_0, # of connection points: 5
#     Edge 16, Type (0, 0), BuildingBlock: CIFDUS_clean_linker_0, # of connection points: 2
#     Edge 17, Type (0, 0), BuildingBlock: CIFDUS_clean_linker_0, # of connection points: 2
#     Edge 18, Type (0, 0), BuildingBlock: CIFDUS_clean_linker_0, # of connection points: 2
#     Edge 19, Type (0, 0), BuildingBlock: CIFDUS_clean_linker_0, # of connection points: 2
#     Edge 20, Type (0, 0), BuildingBlock: CIFDUS_clean_linker_0, # of connection points: 2
#     Edge 21, Type (0, 0), BuildingBlock: CIFDUS_clean_linker_0, # of connection points: 2
#     Edge 22, Type (0, 0), BuildingBlock: CIFDUS_clean_linker_0, # of connection points: 2
#     Edge 23, Type (0, 0), BuildingBlock: CIFDUS_clean_linker_0, # of connection points: 2
#     Edge 24, Type (0, 0), BuildingBlock: CIFDUS_clean_linker_0, # of connection points: 2
#     Edge 25, Type (0, 0), BuildingBlock: CIFDUS_clean_linker_0, # of connection points: 2
#     Edge 26, Type (0, 0), BuildingBlock: CIFDUS_clean_linker_0, # of connection points: 2
#     Edge 27, Type (0, 0), BuildingBlock: CIFDUS_clean_linker_0, # of connection points: 2
#     Edge 28, Type (0, 0), BuildingBlock: CIFDUS_clean_linker_0, # of connection points: 2
#     Edge 29, Type (0, 0), BuildingBlock: CIFDUS_clean_linker_0, # of connection points: 2
#     Edge 30, Type (0, 0), BuildingBlock: CIFDUS_clean_linker_0, # of connection points: 2
#     Edge 31, Type (0, 0), BuildingBlock: CIFDUS_clean_linker_0, # of connection points: 2
#     Edge 32, Type (0, 0), BuildingBlock: CIFDUS_clean_linker_0, # of connection points: 2
#     Edge 33, Type (0, 0), BuildingBlock: CIFDUS_clean_linker_0, # of connection points: 2
#     Edge 34, Type (0, 0), BuildingBlock: CIFDUS_clean_linker_0, # of connection points: 2
#     Edge 35, Type (0, 0), BuildingBlock: CIFDUS_clean_linker_0, # of connection points: 2
#     Edge 36, Type (0, 0), BuildingBlock: CIFDUS_clean_linker_0, # of connection points: 2
#     Edge 37, Type (0, 0), BuildingBlock: CIFDUS_clean_linker_0, # of connection points: 2
#     Edge 38, Type (0, 0), BuildingBlock: CIFDUS_clean_linker_0, # of connection points: 2
#     Edge 39, Type (0, 0), BuildingBlock: CIFDUS_clean_linker_0, # of connection points: 2
#     Edge 40, Type (0, 0), BuildingBlock: CIFDUS_clean_linker_0, # of connection points: 2
#     Edge 41, Type (0, 0), BuildingBlock: CIFDUS_clean_linker_0, # of connection points: 2
#     Edge 42, Type (0, 0), BuildingBlock: CIFDUS_clean_linker_0, # of connection points: 2
#     Edge 43, Type (0, 0), BuildingBlock: CIFDUS_clean_linker_0, # of connection points: 2
#     Edge 44, Type (0, 0), BuildingBlock: CIFDUS_clean_linker_0, # of connection points: 2
#     Edge 45, Type (0, 0), BuildingBlock: CIFDUS_clean_linker_0, # of connection points: 2
#     Edge 46, Type (0, 0), BuildingBlock: CIFDUS_clean_linker_0, # of connection points: 2
#     Edge 47, Type (0, 0), BuildingBlock: CIFDUS_clean_linker_0, # of connection points: 2
#     Edge 48, Type (0, 0), BuildingBlock: CIFDUS_clean_linker_0, # of connection points: 2
#     Edge 49, Type (0, 0), BuildingBlock: CIFDUS_clean_linker_0, # of connection points: 2
#     Edge 50, Type (0, 0), BuildingBlock: CIFDUS_clean_linker_0, # of connection points: 2
#     Edge 51, Type (0, 0), BuildingBlock: CIFDUS_clean_linker_0, # of connection points: 2
#     Edge 52, Type (0, 0), BuildingBlock: CIFDUS_clean_linker_0, # of connection points: 2
#     Edge 53, Type (0, 0), BuildingBlock: CIFDUS_clean_linker_0, # of connection points: 2
#     Edge 54, Type (0, 0), BuildingBlock: CIFDUS_clean_linker_0, # of connection points: 2
#     Edge 55, Type (0, 0), BuildingBlock: CIFDUS_clean_linker_0, # of connection points: 2
# Relax obj value: 0.093
# Max RMSD: 0.120
# Mean RMSD: 0.120
data_MOF--net-zfi--node1-XOMCOT_clean_sbu_0--edge1-CIFDUS_clean_linker_0
_symmetry_space_group_name_H-M    P1
_symmetry_Int_Tables_number       1
_symmetry_cell_setting            triclinic
loop_
_symmetry_equiv_pos_as_xyz
'x, y, z'
_cell_length_a     34.519275
_cell_length_b     34.62975
_cell_length_c     41.824337
_cell_angle_alpha  90.122389
_cell_angle_beta   90.217564
_cell_angle_gamma 90.194936
loop_
_atom_site_label
_atom_site_type_symbol
_atom_site_fract_x
_atom_site_fract_y
_atom_site_fract_z
_atom_type_partial_charge
Co0 Co 0.66535 0.08168 0.11801 0.0
C1 C 0.69701 0.16252 0.11692 0.0
C2 C 0.67482 0.14459 0.07128 0.0
C3 C 0.69329 0.17953 0.06765 0.0
N4 N 0.67746 0.13343 0.10209 0.0
N5 N 0.70775 0.19057 0.09623 0.0
H6 H 0.70666 0.16146 0.14153 0.0
H7 H 0.6628 0.12751 0.05206 0.0
C8 C 0.62225 0.06033 0.05524 0.0
O9 O 0.65325 0.04952 0.03959 0.0
N10 N 0.65231 0.03045 0.13362 0.0
C11 C 0.67603 1.00591 0.14922 0.0
C12 C 0.65923 0.96969 0.14924 0.0
C13 C 0.62081 1.00925 0.12563 0.0
N14 N 0.62468 0.97198 0.13424 0.0
C15 C 0.7436 0.07967 0.09694 0.0
C16 C 0.74472 1.00354 0.07756 0.0
C17 C 0.77998 0.02299 0.08246 0.0
C18 C 0.7789 0.06205 0.09064 0.0
C19 C 0.70962 0.02278 0.08312 0.0
N20 N 0.70926 0.0601 0.09414 0.0
H21 H 0.74485 0.10795 0.10741 0.0
H22 H 0.68307 1.00634 0.08126 0.0
H23 H 0.70485 1.01309 0.15763 0.0
H24 H 0.5966 1.02 0.11186 0.0
O25 O 0.69294 0.09133 0.15753 0.0
O26 O 0.63062 0.10359 0.1492 0.0
O27 O 0.62491 0.07502 0.08321 0.0
C28 C 0.65992 0.10305 0.16888 0.0
H29 H 0.69743 0.19468 0.0453 0.0
H30 H 0.67208 0.94343 0.15834 0.0
H31 H 0.7443 0.97318 0.07128 0.0
H32 H 0.80535 0.07803 0.09543 0.0
Co33 Co 0.46721 0.65415 0.12717 0.0
C34 C 0.39226 0.69358 0.11442 0.0
C35 C 0.39585 0.63896 0.09023 0.0
C36 C 0.36184 0.6568 0.08131 0.0
N37 N 0.41518 0.6622 0.11069 0.0
N38 N 0.35964 0.69114 0.09648 0.0
H39 H 0.39984 0.71835 0.12893 0.0
H40 H 0.40613 0.61136 0.08168 0.0
C41 C 0.51107 0.61549 0.0711 0.0
O42 O 0.54246 0.63644 0.07549 0.0
N43 N 0.51923 0.64704 0.14424 0.0
C44 C 0.53881 0.67335 0.16187 0.0
C45 C 0.57593 0.66053 0.16679 0.0
C46 C 0.54439 0.61759 0.14008 0.0
N47 N 0.57965 0.62582 0.15258 0.0
C48 C 0.47832 0.73548 0.13019 0.0
C49 C 0.51747 0.74589 0.07358 0.0
C50 C 0.5166 0.77616 0.09596 0.0
C51 C 0.49503 0.77107 0.12375 0.0
C52 C 0.49897 0.71065 0.08064 0.0
N53 N 0.4826 0.7047 0.10997 0.0
H54 H 0.46365 0.73267 0.15268 0.0
H55 H 0.49835 0.68858 0.06259 0.0
H56 H 0.52741 0.70064 0.16995 0.0
H57 H 0.53766 0.59125 0.12724 0.0
O58 O 0.45103 0.67094 0.16926 0.0
O59 O 0.44894 0.61053 0.15255 0.0
O60 O 0.48015 0.62268 0.08704 0.0
C61 C 0.44332 0.63518 0.17557 0.0
H62 H 0.34057 0.64558 0.0646 0.0
H63 H 0.59906 0.67654 0.17837 0.0
H64 H 0.5327 0.74925 0.05116 0.0
H65 H 0.49317 0.79367 0.14164 0.0
Co66 Co 0.89029 0.46928 0.12969 0.0
C67 C 0.85955 0.38984 0.11541 0.0
C68 C 0.91195 0.40158 0.09006 0.0
C69 C 0.89881 0.36541 0.08142 0.0
N70 N 0.88659 0.41772 0.11054 0.0
N71 N 0.86561 0.35814 0.09721 0.0
H72 H 0.83613 0.39199 0.13219 0.0
H73 H 0.93862 0.4147 0.08208 0.0
C74 C 0.92779 0.48827 0.06433 0.0
O75 O 0.89864 0.47507 0.04718 0.0
N76 N 0.89414 0.52032 0.14869 0.0
C77 C 0.8664 0.5378 0.16598 0.0
C78 C 0.87482 0.57664 0.16797 0.0
C79 C 0.91933 0.54867 0.14088 0.0
N80 N 0.90795 0.58362 0.15184 0.0
C81 C 0.80922 0.46965 0.11801 0.0
C82 C 0.80624 0.53846 0.08501 0.0
C83 C 0.77183 0.52194 0.09638 0.0
C84 C 0.77352 0.48642 0.1118 0.0
C85 C 0.84175 0.5199 0.09094 0.0
N86 N 0.84303 0.48624 0.10807 0.0
H87 H 0.80932 0.44588 0.13427 0.0
H88 H 0.86821 0.53472 0.08468 0.0
H89 H 0.84022 0.52388 0.1743 0.0
H90 H 0.94454 0.54414 0.12622 0.0
O91 O 0.86722 0.45033 0.16886 0.0
O92 O 0.9301 0.45046 0.1582 0.0
O93 O 0.92656 0.48722 0.09482 0.0
C94 C 0.90234 0.44267 0.17812 0.0
H95 H 0.91291 0.34588 0.06496 0.0
H96 H 0.85636 0.5983 0.1786 0.0
H97 H 0.806 0.56665 0.07385 0.0
H98 H 0.74765 0.4736 0.12194 0.0
Co99 Co 0.08307 0.88797 0.12295 0.0
C100 C 0.16262 0.85412 0.11858 0.0
C101 C 0.15004 0.88805 0.07719 0.0
C102 C 0.18563 0.87075 0.07312 0.0
N103 N 0.13474 0.87675 0.10537 0.0
N104 N 0.1934 0.84924 0.09912 0.0
H105 H 0.15986 0.8398 0.14141 0.0
H106 H 0.13688 0.90751 0.06037 0.0
C107 C 0.0629 0.91869 0.05585 0.0
O108 O 0.06747 0.88459 0.0426 0.0
N109 N 0.03214 0.89898 0.14091 0.0
C110 C 1.01527 0.87984 0.16523 0.0
C111 C 0.97687 0.89006 0.16675 0.0
C112 C 1.00356 0.92091 0.12826 0.0
N113 N 0.96919 0.91542 0.14309 0.0
C114 C 0.07901 0.80705 0.11059 0.0
C115 C 1.00447 0.80574 0.0865 0.0
C116 C 1.02201 0.77096 0.09539 0.0
C117 C 0.06024 0.77174 0.10624 0.0
C118 C 0.02491 0.84057 0.09015 0.0
N119 N 0.06132 0.84119 0.10332 0.0
H120 H 0.10642 0.80661 0.12271 0.0
H121 H 1.01025 0.86708 0.08435 0.0
H122 H 0.0291 0.85804 0.17973 0.0
H123 H 1.0069 0.93799 0.10694 0.0
O124 O 0.09828 0.86536 0.16334 0.0
O125 O 0.10603 0.92696 0.15056 0.0
O126 O 0.0699 0.92344 0.08566 0.0
C127 C 0.10974 0.8997 0.17178 0.0
H128 H 0.2043 0.87367 0.05253 0.0
H129 H 0.95604 0.87824 0.18334 0.0
H130 H 0.97473 0.80614 0.07815 0.0
H131 H 0.07441 0.74546 0.11396 0.0
Co132 Co 0.15723 0.95628 0.40632 0.0
C133 C 0.19237 0.87861 0.42007 0.0
C134 C 0.14768 0.89258 0.45343 0.0
C135 C 0.16441 0.85827 0.46249 0.0
N136 N 0.16591 0.90627 0.42731 0.0
N137 N 0.19297 0.84966 0.4418 0.0
H138 H 0.21168 0.88 0.39983 0.0
H139 H 0.12388 0.90622 0.46555 0.0
C140 C 0.11605 0.9818 0.46924 0.0
O141 O 0.14727 0.98146 0.48727 0.0
N142 N 0.14866 1.00573 0.38536 0.0
C143 C 0.17228 0.02223 0.36369 0.0
C144 C 0.16277 0.06063 0.36075 0.0
C145 C 0.12475 0.03437 0.39484 0.0
N146 N 0.13328 0.06854 0.38086 0.0
C147 C 0.23725 0.96246 0.42285 0.0
C148 C 0.235 0.03738 0.44528 0.0
C149 C 0.27093 0.02064 0.43843 0.0
C150 C 0.27183 0.98219 0.42852 0.0
C151 C 0.20087 1.01592 0.44051 0.0
N152 N 0.20209 0.97927 0.42815 0.0
H153 H 0.23929 0.93517 0.41096 0.0
H154 H 0.17353 0.03019 0.44418 0.0
H155 H 0.19676 1.00824 0.35261 0.0
H156 H 0.10389 0.03121 0.41376 0.0
O157 O 0.18326 0.93818 0.36804 0.0
O158 O 0.12042 0.93208 0.37768 0.0
O159 O 0.11772 0.97165 0.43986 0.0
C160 C 0.1492 0.92705 0.35817 0.0
H161 H 0.15628 0.84117 0.48305 0.0
H162 H 0.17803 0.08135 0.34612 0.0
H163 H 0.23323 0.06733 0.45264 0.0
H164 H 0.29899 0.96862 0.42216 0.0
Co165 Co 0.5724 0.15634 0.39737 0.0
C166 C 0.65437 0.18408 0.40068 0.0
C167 C 0.64391 0.14134 0.43647 0.0
C168 C 0.68105 0.15552 0.44034 0.0
N169 N 0.62647 0.16013 0.41215 0.0
N170 N 0.68748 0.18282 0.41801 0.0
H171 H 0.64999 0.20373 0.38097 0.0
H172 H 0.63101 0.11899 0.45083 0.0
C173 C 0.55609 0.11389 0.46054 0.0
O174 O 0.56537 0.14399 0.47819 0.0
N175 N 0.51917 0.15294 0.38209 0.0
C176 C 0.50015 0.18124 0.3666 0.0
C177 C 0.46129 0.17241 0.36584 0.0
C178 C 0.49152 0.12697 0.39015 0.0
N179 N 0.45571 0.13842 0.38095 0.0
C180 C 0.57685 0.2335 0.42102 0.0
C181 C 0.50477 0.23451 0.44927 0.0
C182 C 0.52387 0.26958 0.4434 0.0
C183 C 0.56123 0.26851 0.43077 0.0
C184 C 0.52215 0.19969 0.44008 0.0
N185 N 0.55708 0.19958 0.42466 0.0
H186 H 0.60292 0.23482 0.40732 0.0
H187 H 0.50574 0.1733 0.44269 0.0
H188 H 0.51317 0.20793 0.35853 0.0
H189 H 0.49717 0.10114 0.40373 0.0
O190 O 0.5852 0.18556 0.35949 0.0
O191 O 0.58874 0.12176 0.3637 0.0
O192 O 0.55968 0.11518 0.43016 0.0
C193 C 0.59273 0.15249 0.34613 0.0
H194 H 0.7015 0.14667 0.45855 0.0
H195 H 0.43871 0.191 0.35671 0.0
H196 H 0.47567 0.23417 0.45888 0.0
H197 H 0.57666 0.29491 0.42508 0.0
Co198 Co 0.38951 0.57291 0.40956 0.0
C199 C 0.35634 0.65256 0.4138 0.0
C200 C 0.39082 0.64008 0.45505 0.0
C201 C 0.37319 0.67537 0.45943 0.0
N202 N 0.37933 0.62488 0.42679 0.0
N203 N 0.35115 0.68304 0.43358 0.0
H204 H 0.3419 0.64977 0.39092 0.0
H205 H 0.41039 0.62688 0.47183 0.0
C206 C 0.41964 0.5528 0.47735 0.0
O207 O 0.38565 0.55805 0.49068 0.0
N208 N 0.39919 0.52174 0.39198 0.0
C209 C 0.37929 0.50504 0.36781 0.0
C210 C 0.38869 0.46654 0.3664 0.0
C211 C 0.42065 0.493 0.40476 0.0
N212 N 0.41424 0.45877 0.39002 0.0
C213 C 0.30796 0.571 0.4198 0.0
C214 C 0.3039 0.49845 0.44675 0.0
C215 C 0.26955 0.51669 0.43718 0.0
C216 C 0.27191 0.55394 0.42466 0.0
C217 C 0.33963 0.51728 0.44247 0.0
N218 N 0.34153 0.55287 0.4283 0.0
H219 H 0.30849 0.59735 0.40647 0.0
H220 H 0.36574 0.50202 0.44875 0.0
H221 H 0.35755 0.51912 0.35334 0.0
H222 H 0.43813 0.49619 0.42602 0.0
O223 O 0.36851 0.58822 0.36843 0.0
O224 O 0.43009 0.59411 0.38293 0.0
O225 O 0.42414 0.55924 0.44748 0.0
C226 C 0.40367 0.59814 0.36091 0.0
H227 H 0.37607 0.69377 0.48027 0.0
H228 H 0.37631 0.44574 0.34995 0.0
H229 H 0.30325 0.46943 0.45634 0.0
H230 H 0.2462 0.56862 0.41613 0.0
Co231 Co 0.9651 0.37685 0.40902 0.0
C232 C 0.88609 0.34186 0.4178 0.0
C233 C 0.90461 0.37404 0.45893 0.0
C234 C 0.87093 0.35489 0.4663 0.0
N235 N 0.91472 0.3657 0.42856 0.0
N236 N 0.85955 0.334 0.44069 0.0
H237 H 0.88604 0.3282 0.39452 0.0
H238 H 0.9215 0.39077 0.47573 0.0
C239 C 0.97454 0.44226 0.45349 0.0
O240 O 0.95007 0.45997 0.4345 0.0
N241 N 1.01559 0.38727 0.39007 0.0
C242 C 0.03096 0.36904 0.3646 0.0
C243 C 0.06949 0.37905 0.36214 0.0
C244 C 0.04522 0.40808 0.40268 0.0
N245 N 0.07858 0.40335 0.38632 0.0
C246 C 0.96823 0.29541 0.41414 0.0
C247 C 0.0379 0.29078 0.44657 0.0
C248 C 1.02084 0.25694 0.43434 0.0
C249 C 0.98503 0.25952 0.41893 0.0
C250 C 1.01918 0.32639 0.44225 0.0
N251 N 0.98528 0.32839 0.42533 0.0
H252 H 0.9428 0.29662 0.39931 0.0
H253 H 0.03318 0.35244 0.4507 0.0
H254 H 1.01591 0.34825 0.34973 0.0
H255 H 0.04342 0.4243 0.42464 0.0
O256 O 0.94663 0.35813 0.36792 0.0
O257 O 0.9425 0.41863 0.38427 0.0
O258 O 0.98222 0.40651 0.44862 0.0
C259 C 0.93658 0.39339 0.36176 0.0
H260 H 0.85697 0.35488 0.48943 0.0
H261 H 0.08943 0.36823 0.34438 0.0
H262 H 0.06585 0.28983 0.45838 0.0
H263 H 0.97141 0.23421 0.40845 0.0
Co264 Co 0.38273 0.95572 0.91432 0.0
C265 C 0.35144 0.87451 0.92056 0.0
C266 C 0.37127 0.89813 0.96516 0.0
C267 C 0.35493 0.86263 0.97082 0.0
N268 N 0.36921 0.90595 0.93366 0.0
N269 N 0.34217 0.84764 0.94289 0.0
H270 H 0.34387 0.87205 0.89553 0.0
H271 H 0.38186 0.9176 0.98334 0.0
C272 C 0.42393 0.98278 0.97675 0.0
O273 O 0.39277 0.99563 0.99107 0.0
N274 N 0.39697 1.00515 0.89532 0.0
C275 C 0.37515 0.02629 0.87512 0.0
C276 C 0.3906 0.06301 0.87327 0.0
C277 C 0.42599 0.02904 0.90463 0.0
N278 N 0.42229 0.06487 0.89226 0.0
C279 C 0.3037 0.96094 0.9331 0.0
C280 C 0.3037 0.03869 0.94774 0.0
C281 C 0.26829 1.01936 0.94395 0.0
C282 C 0.26858 0.97971 0.93802 0.0
C283 C 0.33845 1.01843 0.94376 0.0
N284 N 0.3383 0.9802 0.9352 0.0
H285 H 0.30237 0.93166 0.92457 0.0
H286 H 0.36522 0.0345 0.94514 0.0
H287 H 0.3482 1.0167 0.86444 0.0
H288 H 0.44776 0.02145 0.92205 0.0
O289 O 0.35689 0.94182 0.87475 0.0
O290 O 0.41867 0.93023 0.88624 0.0
O291 O 0.42172 0.9657 0.94969 0.0
C292 C 0.39039 0.92866 0.86563 0.0
H293 H 0.35078 0.84996 0.9942 0.0
H294 H 0.37827 0.08689 0.86012 0.0
H295 H 0.3045 0.06952 0.9521 0.0
H296 H 0.24174 0.964 0.93423 0.0
Co297 Co 0.58231 0.3837 0.9067 0.0
C298 C 0.66113 0.3468 0.9094 0.0
C299 C 0.64537 0.37302 0.95391 0.0
C300 C 0.6793 0.35308 0.95828 0.0
N301 N 0.63336 0.36885 0.92336 0.0
N302 N 0.68897 0.336 0.93048 0.0
H303 H 0.65924 0.33588 0.88519 0.0
H304 H 0.62981 0.38763 0.9726 0.0
C305 C 0.56224 0.42348 0.97137 0.0
O306 O 0.55035 0.39179 0.98539 0.0
N307 N 0.53178 0.39878 0.89032 0.0
C308 C 0.50919 0.37761 0.87052 0.0
C309 C 0.47235 0.39269 0.87063 0.0
C310 C 0.50854 0.42704 0.90149 0.0
N311 N 0.47188 0.42343 0.89049 0.0
C312 C 0.57451 0.30439 0.92234 0.0
C313 C 0.49859 0.30662 0.94236 0.0
C314 C 0.5145 0.2708 0.93365 0.0
C315 C 0.55362 0.27007 0.92499 0.0
C316 C 0.52064 0.34055 0.93927 0.0
N317 N 0.55794 0.33948 0.92822 0.0
H318 H 0.60268 0.30243 0.91174 0.0
H319 H 0.50625 0.36774 0.94316 0.0
H320 H 0.51797 0.35119 0.85882 0.0
H321 H 0.51716 0.44791 0.91937 0.0
O322 O 0.59209 0.35771 0.86661 0.0
O323 O 0.60647 0.41894 0.8766 0.0
O324 O 0.57637 0.42267 0.94309 0.0
C325 C 0.60502 0.39059 0.85607 0.0
H326 H 0.69479 0.35009 0.98068 0.0
H327 H 0.44744 0.3807 0.8583 0.0
H328 H 0.46864 0.30885 0.94969 0.0
H329 H 0.56736 0.24363 0.91723 0.0
Co330 Co 0.15418 0.56758 0.89524 0.0
C331 C 0.18614 0.64823 0.89769 0.0
C332 C 0.14629 0.63848 0.93592 0.0
C333 C 0.16312 0.67428 0.94009 0.0
N334 N 0.16152 0.62126 0.90982 0.0
N335 N 0.1881 0.6803 0.91605 0.0
H336 H 0.20407 0.64388 0.87685 0.0
H337 H 0.12488 0.62627 0.95156 0.0
C338 C 0.11192 0.55362 0.95941 0.0
O339 O 0.14285 0.55992 0.97709 0.0
N340 N 0.14737 0.5144 0.88046 0.0
C341 C 0.17062 0.4958 0.85973 0.0
C342 C 0.16202 0.45703 0.86026 0.0
C343 C 0.12475 0.48634 0.89316 0.0
N344 N 0.13356 0.45081 0.88174 0.0
C345 C 0.23296 0.56692 0.91406 0.0
C346 C 0.23154 0.49647 0.94463 0.0
C347 C 0.2673 0.5115 0.93448 0.0
C348 C 0.26765 0.54828 0.92069 0.0
C349 C 0.19723 0.51636 0.93765 0.0
N350 N 0.19809 0.55035 0.92103 0.0
H351 H 0.23456 0.5925 0.89973 0.0
H352 H 0.17006 0.50249 0.94312 0.0
H353 H 0.19403 0.50892 0.8465 0.0
H354 H 0.10444 0.49128 0.91222 0.0
O355 O 0.18239 0.57884 0.85644 0.0
O356 O 0.11892 0.58534 0.86233 0.0
O357 O 0.11337 0.55752 0.92905 0.0
C358 C 0.14908 0.58745 0.84381 0.0
H359 H 0.15817 0.69401 0.95976 0.0
H360 H 0.17693 0.43512 0.84664 0.0
H361 H 0.22978 0.46839 0.95588 0.0
H362 H 0.29415 0.56106 0.91177 0.0
Co363 Co 0.96371 0.14676 0.9087 0.0
C364 C 0.88392 0.1782 0.92014 0.0
C365 C 0.89595 0.13006 0.95046 0.0
C366 C 0.85986 0.14423 0.95792 0.0
N367 N 0.91201 0.15233 0.9276 0.0
N368 N 0.85242 0.1749 0.93908 0.0
H369 H 0.88598 0.19894 0.90103 0.0
H370 H 0.909 0.10479 0.96095 0.0
C371 C 0.98328 0.11449 0.975 0.0
O372 O 0.97166 0.14645 0.98891 0.0
N373 N 1.01453 0.14118 0.8896 0.0
C374 C 0.03173 0.16733 0.87051 0.0
C375 C 0.07042 0.15845 0.86804 0.0
C376 C 0.04292 0.11641 0.89809 0.0
N377 N 0.07763 0.12662 0.88568 0.0
C378 C 0.96484 0.22764 0.92164 0.0
C379 C 0.03715 0.23058 0.9498 0.0
C380 C 1.01925 0.26518 0.94057 0.0
C381 C 0.98201 0.2633 0.92757 0.0
C382 C 1.01811 0.19517 0.94448 0.0
N383 N 0.98262 0.19386 0.92969 0.0
H384 H 0.93921 0.22772 0.90728 0.0
H385 H 0.03351 0.16881 0.94967 0.0
H386 H 1.01783 0.19286 0.86111 0.0
H387 H 0.03866 0.09252 0.91424 0.0
O388 O 0.94539 0.16996 0.86944 0.0
O389 O 0.94324 0.10736 0.88025 0.0
O390 O 0.98096 0.11106 0.94461 0.0
C391 C 0.93659 0.13521 0.86008 0.0
H392 H 0.84054 0.1326 0.97583 0.0
H393 H 0.09191 0.17586 0.85596 0.0
H394 H 0.06627 0.23077 0.95951 0.0
H395 H 0.96767 0.2891 0.91899 0.0
Co396 Co 0.88649 0.08484 0.62479 0.0
C397 C 0.85064 0.16334 0.61631 0.0
C398 C 0.88635 0.1476 0.57661 0.0
C399 C 0.86785 0.18155 0.56946 0.0
N400 N 0.87492 0.13528 0.60569 0.0
N401 N 0.84484 0.19117 0.59414 0.0
H402 H 0.83494 0.16189 0.63862 0.0
H403 H 0.90556 0.13261 0.56068 0.0
C404 C 0.92609 0.05946 0.561 0.0
O405 O 0.89398 0.05399 0.54467 0.0
N406 N 0.89885 0.03521 0.64363 0.0
C407 C 0.87489 1.01192 0.66023 0.0
C408 C 0.89047 0.97524 0.66078 0.0
C409 C 0.92924 1.0129 0.63566 0.0
N410 N 0.92445 0.97595 0.6449 0.0
C411 C 0.80655 0.0794 0.60829 0.0
C412 C 0.80636 1.00363 0.58785 0.0
C413 C 0.77086 0.02195 0.59373 0.0
C414 C 0.77142 0.06074 0.60278 0.0
C415 C 0.84128 0.02409 0.59243 0.0
N416 N 0.84121 0.06133 0.60366 0.0
H417 H 0.80517 0.10716 0.61946 0.0
H418 H 0.86826 1.00877 0.58957 0.0
H419 H 0.84642 1.02005 0.66855 0.0
H420 H 0.95287 0.02249 0.62083 0.0
O421 O 0.86136 0.09934 0.66437 0.0
O422 O 0.9234 0.10929 0.65317 0.0
O423 O 0.92506 0.07288 0.5895 0.0
C424 C 0.89524 0.11171 0.67366 0.0
H425 H 0.86976 0.19705 0.54706 0.0
H426 H 0.87667 0.94967 0.67033 0.0
H427 H 0.80715 0.97344 0.58109 0.0
H428 H 0.74478 0.07571 0.60846 0.0
Co429 Co 0.46153 0.89825 0.63127 0.0
C430 C 0.38641 0.85844 0.61511 0.0
C431 C 0.38706 0.91774 0.6007 0.0
C432 C 0.3506 0.90271 0.59494 0.0
N433 N 0.40982 0.88995 0.61315 0.0
N434 N 0.35027 0.86536 0.60398 0.0
H435 H 0.39427 0.83163 0.62628 0.0
H436 H 0.39584 0.94745 0.5973 0.0
C437 C 0.47141 0.93859 0.56587 0.0
O438 O 0.45451 0.91107 0.54919 0.0
N439 N 0.51328 0.90661 0.64914 0.0
C440 C 0.52821 0.89137 0.67613 0.0
C441 C 0.56738 0.89925 0.67736 0.0
C442 C 0.54389 0.92338 0.63437 0.0
N443 N 0.57736 0.91916 0.65089 0.0
C444 C 0.47215 0.81792 0.62339 0.0
C445 C 0.53309 0.82083 0.58101 0.0
C446 C 0.52403 0.78559 0.59584 0.0
C447 C 0.49223 0.7844 0.61639 0.0
C448 C 0.51148 0.85402 0.58831 0.0
N449 N 0.48179 0.85247 0.60989 0.0
H450 H 0.45112 0.81615 0.64218 0.0
H451 H 0.52086 0.88119 0.57848 0.0
H452 H 0.51233 0.87431 0.6933 0.0
H453 H 0.54236 0.93647 0.61102 0.0
O454 O 0.44486 0.87436 0.67077 0.0
O455 O 0.44016 0.93666 0.66001 0.0
O456 O 0.47535 0.93546 0.59607 0.0
C457 C 0.43459 0.90858 0.68009 0.0
H458 H 0.32599 0.91832 0.58549 0.0
H459 H 0.58698 0.89022 0.69612 0.0
H460 H 0.55772 0.82317 0.56517 0.0
H461 H 0.48483 0.75842 0.62943 0.0
Co462 Co 0.65711 0.47354 0.62478 0.0
C463 C 0.69047 0.39367 0.62537 0.0
C464 C 0.64649 0.39913 0.58954 0.0
C465 C 0.66206 0.36266 0.58758 0.0
N466 N 0.66524 0.41938 0.61249 0.0
N467 N 0.69015 0.35935 0.60988 0.0
H468 H 0.70968 0.40018 0.64513 0.0
H469 H 0.62283 0.4095 0.57508 0.0
C470 C 0.62021 0.48231 0.55821 0.0
O471 O 0.65302 0.4737 0.54412 0.0
N472 N 0.64837 0.5267 0.6374 0.0
C473 C 0.67388 0.55054 0.65198 0.0
C474 C 0.65993 0.58777 0.65029 0.0
C475 C 0.619 0.54952 0.62778 0.0
N476 N 0.62557 0.58704 0.63477 0.0
C477 C 0.73655 0.47354 0.6059 0.0
C478 C 0.73624 0.54378 0.57495 0.0
C479 C 0.7719 0.52685 0.5829 0.0
C480 C 0.77154 0.49049 0.59722 0.0
C481 C 0.70146 0.52495 0.58306 0.0
N482 N 0.70184 0.49079 0.59957 0.0
H483 H 0.73825 0.44852 0.62071 0.0
H484 H 0.67442 0.53955 0.57845 0.0
H485 H 0.70183 0.54188 0.66122 0.0
H486 H 0.59447 0.53939 0.61403 0.0
O487 O 0.68434 0.46532 0.66464 0.0
O488 O 0.62125 0.45638 0.65755 0.0
O489 O 0.61786 0.48118 0.58872 0.0
C490 C 0.65102 0.45603 0.67682 0.0
H491 H 0.65337 0.34035 0.57085 0.0
H492 H 0.67464 0.61345 0.65885 0.0
H493 H 0.73524 0.57208 0.56401 0.0
H494 H 0.79829 0.47677 0.60461 0.0
Co495 Co 0.07851 0.66519 0.61484 0.0
C496 C 0.15924 0.69768 0.61186 0.0
C497 C 0.14785 0.65878 0.57304 0.0
C498 C 0.18439 0.67421 0.56923 0.0
N499 N 0.13172 0.67347 0.59979 0.0
N500 N 0.19136 0.69899 0.59343 0.0
H501 H 0.15593 0.71447 0.6335 0.0
H502 H 0.13392 0.63919 0.5565 0.0
C503 C 0.07124 0.59582 0.57406 0.0
O504 O 0.09008 0.57797 0.59694 0.0
N505 N 0.02532 0.65775 0.62956 0.0
C506 C 1.00779 0.67862 0.65256 0.0
C507 C 0.96883 0.67022 0.65249 0.0
C508 C 0.99633 0.63705 0.6157 0.0
N509 N 0.96143 0.64436 0.62905 0.0
C510 C 0.0765 0.74578 0.60561 0.0
C511 C 1.00835 0.74706 0.5709 0.0
C512 C 1.0211 0.78109 0.58614 0.0
C513 C 0.05687 0.78038 0.60203 0.0
C514 C 0.0294 0.71275 0.57479 0.0
N515 N 0.06176 0.71212 0.59371 0.0
H516 H 0.10119 0.74573 0.62128 0.0
H517 H 1.01754 0.68621 0.56524 0.0
H518 H 1.02178 0.70016 0.66738 0.0
H519 H 1.0 0.61895 0.59494 0.0
O520 O 0.09158 0.68783 0.65579 0.0
O521 O 0.09639 0.6257 0.64464 0.0
O522 O 0.0661 0.6324 0.57591 0.0
C523 C 0.09943 0.65331 0.66565 0.0
H524 H 0.2037 0.66894 0.54936 0.0
H525 H 0.94757 0.68311 0.66812 0.0
H526 H 0.98119 0.74632 0.55788 0.0
H527 H 0.06793 0.80539 0.61472 0.0
H528 H 0.64617 0.90212 0.11246 0.0
H529 H 0.54676 0.97219 0.13403 0.0
H530 H 0.50347 0.91883 0.11922 0.0
H531 H 0.49434 0.85063 0.10446 0.0
H532 H 0.59366 0.78034 0.0827 0.0
H533 H 0.63661 0.83563 0.09218 0.0
C534 C 0.61502 0.9055 0.114 0.0
C535 C 0.59954 0.94062 0.12499 0.0
C536 C 0.59041 0.87487 0.10499 0.0
C537 C 0.55918 0.94523 0.12595 0.0
C538 C 0.53451 0.9148 0.11742 0.0
C539 C 0.52535 0.84771 0.10115 0.0
C540 C 0.54086 0.81145 0.09306 0.0
C541 C 0.54983 0.87932 0.10739 0.0
C542 C 0.58102 0.80804 0.0886 0.0
C543 C 0.60561 0.8395 0.09449 0.0
H544 H 0.74881 0.56127 0.14763 0.0
H545 H 0.71313 0.52932 0.05246 0.0
H546 H 0.64861 0.5571 0.06204 0.0
H547 H 0.60213 0.58914 0.0986 0.0
H548 H 0.63893 0.61975 0.19398 0.0
H549 H 0.70317 0.59329 0.18358 0.0
C550 C 0.72703 0.56118 0.12883 0.0
C551 C 0.73561 0.54421 0.09921 0.0
C552 C 0.69012 0.57622 0.13486 0.0
C553 C 0.70719 0.54316 0.07517 0.0
C554 C 0.67029 0.55858 0.08082 0.0
C555 C 0.62409 0.58948 0.11718 0.0
C556 C 0.61577 0.60619 0.14715 0.0
C557 C 0.66127 0.57474 0.11078 0.0
C558 C 0.64472 0.60706 0.17081 0.0
C559 C 0.68144 0.59211 0.16482 0.0
H560 H 0.96492 0.7557 0.13717 0.0
H561 H 0.03142 0.70457 0.06129 0.0
H562 H 1.00105 0.64162 0.07152 0.0
H563 H 0.95783 0.60107 0.10363 0.0
H564 H 0.89565 0.65153 0.1828 0.0
H565 H 0.92181 0.7148 0.16954 0.0
C566 C 0.97203 0.73084 0.12251 0.0
C567 C 0.99962 0.73465 0.09811 0.0
C568 C 0.95558 0.69461 0.12937 0.0
C569 C 1.00968 0.70222 0.07981 0.0
C570 C 0.99257 0.66628 0.08585 0.0
C571 C 0.95018 0.6256 0.11834 0.0
C572 C 0.92459 0.62101 0.14435 0.0
C573 C 0.96595 0.66201 0.11096 0.0
C574 C 0.91479 0.65384 0.16249 0.0
C575 C 0.92988 0.69019 0.15498 0.0
H576 H 0.9536 0.97416 0.10185 0.0
H577 H 0.89839 0.88744 0.16053 0.0
H578 H 0.83523 0.91042 0.14394 0.0
H579 H 0.79502 0.95732 0.11522 0.0
H580 H 0.84954 0.04362 0.05625 0.0
H581 H 0.91341 1.0176 0.06961 0.0
C582 C 0.92797 0.9598 0.11082 0.0
C583 C 0.93145 0.92918 0.13288 0.0
C584 C 0.8913 0.97282 0.1008 0.0
C585 C 0.89729 0.91153 0.1442 0.0
C586 C 0.86084 0.92442 0.13443 0.0
C587 C 0.82081 0.96972 0.10456 0.0
C588 C 0.81752 1.00223 0.08466 0.0
C589 C 0.85745 0.95523 0.11299 0.0
C590 C 0.85133 1.01852 0.07161 0.0
C591 C 0.88784 1.00384 0.07944 0.0
H592 H 0.091 0.24234 0.40844 0.0
H593 H 0.99512 0.18764 0.45624 0.0
H594 H 1.02172 0.12393 0.44394 0.0
H595 H 0.06859 0.08433 0.41531 0.0
H596 H 0.16499 0.13905 0.36741 0.0
H597 H 0.14107 0.20205 0.3832 0.0
C598 C 0.07663 0.21642 0.41692 0.0
C599 C 0.04142 0.21953 0.43347 0.0
C600 C 0.09147 0.17991 0.40888 0.0
C601 C 0.02247 0.18581 0.4437 0.0
C602 C 0.03745 0.14945 0.43638 0.0
C603 C 0.08491 0.10975 0.40857 0.0
C604 C 0.11865 0.10624 0.38986 0.0
C605 C 0.07138 0.14616 0.41822 0.0
C606 C 0.13863 0.14021 0.3812 0.0
C607 C 0.12518 0.17654 0.39054 0.0
H608 H 0.28449 0.07881 0.39744 0.0
H609 H 0.33821 1.01226 0.47217 0.0
H610 H 0.40071 0.04363 0.46146 0.0
H611 H 0.44036 0.08764 0.42892 0.0
H612 H 0.38689 0.14974 0.35098 0.0
H613 H 0.32413 0.12267 0.36495 0.0
C614 C 0.30976 0.07195 0.41183 0.0
C615 C 0.30678 0.04401 0.43599 0.0
C616 C 0.34573 0.08892 0.40465 0.0
C617 C 0.33985 0.03427 0.45385 0.0
C618 C 0.37556 0.05193 0.44751 0.0
C619 C 0.4152 0.09506 0.4147 0.0
C620 C 0.41877 0.12095 0.38884 0.0
C621 C 0.37901 0.07879 0.42253 0.0
C622 C 0.38529 0.13043 0.37122 0.0
C623 C 0.34923 0.11483 0.37913 0.0
H624 H 0.45436 0.28513 0.41682 0.0
H625 H 0.54843 0.33827 0.46899 0.0
H626 H 0.52191 0.40233 0.45771 0.0
H627 H 0.47606 0.44288 0.42801 0.0
H628 H 0.38206 0.38896 0.37574 0.0
H629 H 0.40506 0.32566 0.39154 0.0
C630 C 0.46835 0.31067 0.4266 0.0
C631 C 0.50315 0.30701 0.44385 0.0
C632 C 0.45364 0.34732 0.41917 0.0
C633 C 0.5215 0.34043 0.45573 0.0
C634 C 0.50654 0.37702 0.44903 0.0
C635 C 0.46017 0.41745 0.42038 0.0
C636 C 0.42759 0.42115 0.40018 0.0
C637 C 0.47329 0.38083 0.42989 0.0
C638 C 0.40777 0.38744 0.3905 0.0
C639 C 0.42065 0.35101 0.39985 0.0
H640 H 0.09522 0.46579 0.42314 0.0
H641 H 0.14845 0.37352 0.36956 0.0
H642 H 0.21241 0.39827 0.38347 0.0
H643 H 0.25364 0.44805 0.40867 0.0
H644 H 0.20054 0.54065 0.4615 0.0
H645 H 0.13631 0.51309 0.45107 0.0
C646 C 0.12069 0.4507 0.4148 0.0
C647 C 0.1166 0.4179 0.39501 0.0
C648 C 0.15762 0.46496 0.42309 0.0
C649 C 0.15032 0.39922 0.38422 0.0
C650 C 0.1871 0.41316 0.39244 0.0
C651 C 0.22802 0.46158 0.41855 0.0
C652 C 0.23177 0.49611 0.43606 0.0
C653 C 0.19113 0.44619 0.41163 0.0
C654 C 0.19831 0.51392 0.44811 0.0
C655 C 0.16161 0.49832 0.44194 0.0
H656 H 0.39775 0.13918 0.89073 0.0
H657 H 0.49533 0.0679 0.91649 0.0
H658 H 0.53051 0.12476 0.93524 0.0
H659 H 0.53455 0.19489 0.94291 0.0
H660 H 0.43892 0.26665 0.91305 0.0
H661 H 0.40183 0.20938 0.89833 0.0
C662 C 0.42688 0.13598 0.9 0.0
C663 C 0.44375 0.09901 0.9019 0.0
C664 C 0.44723 0.16896 0.91053 0.0
C665 C 0.48132 0.09573 0.91482 0.0
C666 C 0.50157 0.12833 0.92556 0.0
C667 C 0.50566 0.1982 0.93308 0.0
C668 C 0.4899 0.23546 0.92912 0.0
C669 C 0.4849 0.16513 0.92338 0.0
C670 C 0.45189 0.23865 0.91703 0.0
C671 C 0.43073 0.2058 0.90809 0.0
H672 H 0.39891 0.39581 0.89523 0.0
H673 H 0.46946 0.49668 0.91313 0.0
H674 H 0.41298 0.53108 0.93345 0.0
H675 H 0.3429 0.53384 0.94283 0.0
H676 H 0.27183 0.43427 0.92084 0.0
H677 H 0.32934 0.39771 0.90664 0.0
C678 C 0.40192 0.42545 0.90321 0.0
C679 C 0.43835 0.44381 0.90213 0.0
C680 C 0.36927 0.44514 0.91466 0.0
C681 C 0.44181 0.48187 0.91361 0.0
C682 C 0.4095 0.50156 0.92524 0.0
C683 C 0.33992 0.50408 0.93506 0.0
C684 C 0.30281 0.48714 0.93272 0.0
C685 C 0.37299 0.48364 0.92548 0.0
C686 C 0.29983 0.44816 0.92337 0.0
C687 C 0.33274 0.4273 0.91469 0.0
H688 H 0.08971 0.27868 0.91439 0.0
H689 H 0.99506 0.33568 0.96176 0.0
H690 H 0.02263 0.39873 0.94826 0.0
H691 H 0.06993 0.43715 0.91842 0.0
H692 H 0.165 0.37965 0.87126 0.0
H693 H 0.14046 0.31761 0.88875 0.0
C694 C 0.07578 0.30492 0.92258 0.0
C695 C 0.0405 0.30252 0.93916 0.0
C696 C 0.09125 0.34107 0.91398 0.0
C697 C 0.02231 0.33681 0.94903 0.0
C698 C 0.0379 0.37284 0.94108 0.0
C699 C 0.08578 0.41132 0.91219 0.0
C700 C 0.11921 0.41378 0.89296 0.0
C701 C 0.07177 0.37531 0.92274 0.0
C702 C 0.13878 0.37931 0.88526 0.0
C703 C 0.12496 0.3435 0.89557 0.0
H704 H 0.25068 0.07224 0.8993 0.0
H705 H 0.20292 1.01171 0.97995 0.0
H706 H 0.13917 0.04031 0.96942 0.0
H707 H 0.09696 0.08051 0.93593 0.0
H708 H 0.14422 0.13615 0.8522 0.0
H709 H 0.20821 0.11171 0.86542 0.0
C710 C 0.22641 0.06605 0.9149 0.0
C711 C 0.23142 0.04066 0.94072 0.0
C712 C 0.18972 0.08136 0.90793 0.0
C713 C 0.19967 0.03174 0.96026 0.0
C714 C 0.16327 0.04783 0.95407 0.0
C715 C 0.12096 0.08707 0.92025 0.0
C716 C 0.11529 0.11046 0.89303 0.0
C717 C 0.15782 0.07223 0.92764 0.0
C718 C 0.1474 0.11882 0.87352 0.0
C719 C 0.18417 0.1047 0.88099 0.0
H720 H 0.04194 0.85718 0.5877 0.0
H721 H 0.94244 0.78194 0.59545 0.0
H722 H 0.90333 0.83596 0.61409 0.0
H723 H 0.89883 0.90337 0.63272 0.0
H724 H 1.00049 0.97619 0.62998 0.0
H725 H 0.03753 0.92397 0.60596 0.0
C726 C 1.01169 0.85247 0.59343 0.0
C727 C 0.99546 0.81527 0.59041 0.0
C728 C 0.98991 0.8831 0.60586 0.0
C729 C 0.95582 0.8102 0.59709 0.0
C730 C 0.93351 0.841 0.60834 0.0
C731 C 0.92922 0.90765 0.62736 0.0
C732 C 0.94684 0.9437 0.6334 0.0
C733 C 0.95057 0.87728 0.61376 0.0
C734 C 0.98609 0.94888 0.6255 0.0
C735 C 1.00732 0.91904 0.6117 0.0
H736 H 0.7538 0.95789 0.62841 0.0
H737 H 0.70341 0.04026 0.56349 0.0
H738 H 0.63869 1.01477 0.5747 0.0
H739 H 0.59619 0.97366 0.60693 0.0
H740 H 0.64646 0.89132 0.67234 0.0
H741 H 0.71114 0.91271 0.65743 0.0
C742 C 0.72872 0.96943 0.61605 0.0
C743 C 0.73339 1.0007 0.59495 0.0
C744 C 0.69142 0.95536 0.62336 0.0
C745 C 0.70053 1.01602 0.57965 0.0
C746 C 0.66351 1.00167 0.58628 0.0
C747 C 0.62112 0.95983 0.61766 0.0
C748 C 0.6159 0.93104 0.64111 0.0
C749 C 0.6585 0.97206 0.60877 0.0
C750 C 0.64908 0.91406 0.65481 0.0
C751 C 0.68631 0.92605 0.64605 0.0
H752 H 0.65055 0.65986 0.62304 0.0
H753 H 0.5487 0.58714 0.62189 0.0
H754 H 0.50961 0.64116 0.6036 0.0
H755 H 0.50312 0.70997 0.59209 0.0
H756 H 0.60339 0.78441 0.59778 0.0
H757 H 0.64448 0.72865 0.60891 0.0
C758 C 0.61977 0.65587 0.61907 0.0
C759 C 0.60264 0.61942 0.62422 0.0
C760 C 0.59721 0.68731 0.6089 0.0
C761 C 0.5628 0.61469 0.61807 0.0
C762 C 0.54034 0.64563 0.60762 0.0
C763 C 0.53405 0.71398 0.59546 0.0
C764 C 0.55001 0.75142 0.59445 0.0
C765 C 0.55712 0.68216 0.60342 0.0
C766 C 0.59028 0.75596 0.59814 0.0
C767 C 0.61373 0.72412 0.60504 0.0
H768 H 0.94572 0.58002 0.59392 0.0
H769 H 0.89121 0.67693 0.64061 0.0
H770 H 0.82769 0.65142 0.62678 0.0
H771 H 0.78704 0.59893 0.60532 0.0
H772 H 0.84098 0.50194 0.55884 0.0
H773 H 0.90496 0.53077 0.56768 0.0
C774 C 0.92009 0.59595 0.60072 0.0
C775 C 0.92374 0.63013 0.61893 0.0
C776 C 0.88326 0.5812 0.59247 0.0
C777 C 0.88976 0.65006 0.62746 0.0
C778 C 0.85318 0.63567 0.61926 0.0
C779 C 0.81273 0.5847 0.59628 0.0
C780 C 0.80924 0.5484 0.58136 0.0
C781 C 0.84951 0.60093 0.60227 0.0
C782 C 0.84291 0.52993 0.57036 0.0
C783 C 0.87952 0.54627 0.57564 0.0
H784 H 0.76124 0.21773 0.05526 0.0
H785 H 0.71621 0.233 0.15036 0.0
H786 H 0.76215 0.28612 0.15973 0.0
H787 H 0.81456 0.32886 0.14028 0.0
H788 H 0.85852 0.31285 0.04468 0.0
H789 H 0.81377 0.25933 0.03621 0.0
C790 C 0.76106 0.233 0.07788 0.0
C791 C 0.73485 0.2218 0.1019 0.0
C792 C 0.7876 0.26326 0.08307 0.0
C793 C 0.73601 0.2411 0.13149 0.0
C794 C 0.76222 0.27151 0.13679 0.0
C795 C 0.81427 0.31382 0.11754 0.0
C796 C 0.84012 0.32513 0.09318 0.0
C797 C 0.78808 0.28298 0.11268 0.0
C798 C 0.83955 0.30467 0.06407 0.0
C799 C 0.81365 0.27415 0.05906 0.0
H800 H 0.32885 0.73818 0.1414 0.0
H801 H 0.32406 0.7096 0.04114 0.0
H802 H 0.27317 0.75751 0.03282 0.0
H803 H 0.2287 0.80636 0.05409 0.0
H804 H 0.23026 0.83297 0.15473 0.0
H805 H 0.2835 0.78728 0.16293 0.0
C806 C 0.31678 0.74272 0.11775 0.0
C807 C 0.3302 0.72027 0.09194 0.0
C808 C 0.28686 0.76993 0.11322 0.0
C809 C 0.31398 0.72615 0.06144 0.0
C810 C 0.285 0.75367 0.05663 0.0
C811 C 0.24101 0.80248 0.07775 0.0
C812 C 0.22568 0.82327 0.10373 0.0
C813 C 0.27102 0.77556 0.08234 0.0
C814 C 0.24143 0.81725 0.13437 0.0
C815 C 0.27193 0.79117 0.13903 0.0
H816 H 0.3112 0.7194 0.48003 0.0
H817 H 0.32907 0.71723 0.37813 0.0
H818 H 0.28141 0.76887 0.37131 0.0
H819 H 0.23391 0.81455 0.3945 0.0
H820 H 0.21646 0.81534 0.49663 0.0
H821 H 0.26428 0.76454 0.50305 0.0
C822 C 0.30507 0.73052 0.45635 0.0
C823 C 0.32401 0.71453 0.42965 0.0
C824 C 0.2773 0.7599 0.4526 0.0
C825 C 0.31489 0.72882 0.39908 0.0
C826 C 0.28765 0.75844 0.39518 0.0
C827 C 0.24067 0.80373 0.41814 0.0
C828 C 0.22113 0.81885 0.44496 0.0
C829 C 0.26852 0.77419 0.42177 0.0
C830 C 0.23024 0.80402 0.47542 0.0
C831 C 0.25795 0.77504 0.4792 0.0
H832 H 0.81586 0.30904 0.39037 0.0
H833 H 0.83731 0.29029 0.49085 0.0
H834 H 0.78746 0.24071 0.49202 0.0
H835 H 0.73563 0.20448 0.4659 0.0
H836 H 0.71306 0.22147 0.36546 0.0
H837 H 0.76489 0.26975 0.36311 0.0
C838 C 0.80962 0.29401 0.41247 0.0
C839 C 0.83005 0.30411 0.44058 0.0
C840 C 0.78039 0.26527 0.41318 0.0
C841 C 0.82154 0.28414 0.46901 0.0
C842 C 0.79308 0.25548 0.46975 0.0
C843 C 0.74233 0.21815 0.44331 0.0
C844 C 0.72019 0.20913 0.41594 0.0
C845 C 0.77203 0.24606 0.44215 0.0
C846 C 0.72916 0.22799 0.38706 0.0
C847 C 0.75896 0.25562 0.38567 0.0
H848 H 0.24487 0.69486 0.95781 0.0
H849 H 0.19387 0.73453 0.87001 0.0
H850 H 0.23868 0.79005 0.86924 0.0
H851 H 0.29018 0.82912 0.89579 0.0
H852 H 0.34322 0.78559 0.98213 0.0
H853 H 0.30043 0.72979 0.98103 0.0
C854 C 0.24392 0.71565 0.93847 0.0
C855 C 0.2161 0.71112 0.91417 0.0
C856 C 0.27009 0.74689 0.93803 0.0
C857 C 0.21513 0.73773 0.88894 0.0
C858 C 0.24067 0.7694 0.8886 0.0
C859 C 0.29281 0.80723 0.91412 0.0
C860 C 0.31962 0.81238 0.93941 0.0
C861 C 0.26805 0.77459 0.91328 0.0
C862 C 0.32234 0.78332 0.96286 0.0
C863 C 0.29788 0.75115 0.96224 0.0
H864 H 0.71537 0.28582 0.97455 0.0
H865 H 0.72963 0.32072 0.87645 0.0
H866 H 0.78122 0.27275 0.86978 0.0
H867 H 0.82327 0.22168 0.89255 0.0
H868 H 0.80801 0.18831 0.99116 0.0
H869 H 0.75567 0.23458 0.99668 0.0
C870 C 0.72998 0.28332 0.95176 0.0
C871 C 0.71896 0.30734 0.92615 0.0
C872 C 0.75936 0.25567 0.94813 0.0
C873 C 0.73753 0.30269 0.89654 0.0
C874 C 0.7671 0.27531 0.89278 0.0
C875 C 0.80864 0.22457 0.91528 0.0
C876 C 0.81988 0.20117 0.94136 0.0
C877 C 0.77846 0.25175 0.9185 0.0
C878 C 0.79992 0.20519 0.97047 0.0
C879 C 0.77008 0.23201 0.9738 0.0
H880 H 0.81931 0.23638 0.64284 0.0
H881 H 0.80068 0.2091 0.54338 0.0
H882 H 0.74996 0.2577 0.53996 0.0
H883 H 0.71281 0.30959 0.5641 0.0
H884 H 0.73014 0.3386 0.66342 0.0
H885 H 0.77946 0.28817 0.66797 0.0
C886 C 0.80401 0.24114 0.62053 0.0
C887 C 0.8143 0.21961 0.59322 0.0
C888 C 0.77479 0.26959 0.61861 0.0
C889 C 0.79411 0.22598 0.56446 0.0
C890 C 0.76491 0.25359 0.56252 0.0
C891 C 0.72679 0.30458 0.58694 0.0
C892 C 0.71749 0.32796 0.61337 0.0
C893 C 0.75526 0.27582 0.5893 0.0
C894 C 0.73681 0.32136 0.64257 0.0
C895 C 0.765 0.29239 0.64521 0.0
H896 H 0.35065 0.7885 0.59276 0.0
H897 H 0.2755 0.88356 0.61578 0.0
H898 H 0.21959 0.83996 0.61644 0.0
H899 H 0.19153 0.77455 0.60951 0.0
H900 H 0.266 0.68036 0.58309 0.0
H901 H 0.32248 0.72337 0.58489 0.0
C902 C 0.32205 0.79955 0.5981 0.0
C903 C 0.31735 0.83929 0.60427 0.0
C904 C 0.28983 0.77431 0.59789 0.0
C905 C 0.27994 0.85325 0.61068 0.0
C906 C 0.24795 0.82825 0.61121 0.0
C907 C 0.22023 0.76346 0.60459 0.0
C908 C 0.22467 0.7242 0.59655 0.0
C909 C 0.25246 0.78871 0.6048 0.0
C910 C 0.26191 0.71039 0.58943 0.0
C911 C 0.29417 0.73501 0.59043 0.0
H912 H 0.6018 1.00881 1.00842 0.0
H913 H 0.55364 0.09193 0.07402 0.0
H914 H 0.48825 0.07429 0.05693 0.0
H915 H 0.44422 0.03481 0.02355 0.0
H916 H 0.49266 0.95122 0.95841 0.0
H917 H 0.55789 0.96916 0.97534 0.0
C918 C 0.57704 0.02343 0.01869 0.0
C919 C 0.58284 0.05192 0.0423 0.0
C920 C 0.53928 1.01266 1.00913 0.0
C921 C 0.55021 0.07002 0.0557 0.0
C922 C 0.51268 0.05982 0.04604 0.0
C923 C 0.469 1.02019 1.01332 0.0
C924 C 0.46326 0.99152 0.98981 0.0
C925 C 0.50678 0.03094 0.02295 0.0
C926 C 0.49596 0.97332 0.9766 0.0
C927 C 0.53344 0.98367 0.98617 0.0
H928 H 0.57007 0.59149 0.03201 0.0
H929 H 0.4577 0.55693 0.06698 0.0
H930 H 0.46421 0.49448 0.04049 0.0
H931 H 0.5026 0.44831 1.00855 0.0
H932 H 0.6129 0.48409 0.97068 0.0
H933 H 0.60665 0.54687 0.9973 0.0
C934 C 0.54677 0.57052 0.03359 0.0
C935 C 0.51339 0.57927 0.05161 0.0
C936 C 0.55058 0.53445 0.01806 0.0
C937 C 0.48363 0.55142 0.05324 0.0
C938 C 0.48743 0.51543 0.03822 0.0
C939 C 0.52534 0.46982 1.00631 0.0
C940 C 0.55847 0.4613 0.98807 0.0
C941 C 0.52095 0.50638 0.02088 0.0
C942 C 0.58725 0.48982 0.98474 0.0
C943 C 0.58363 0.52577 0.99991 0.0
H944 H 0.94402 0.49645 1.00018 0.0
H945 H 0.99427 0.51209 0.09405 0.0
H946 H 0.05453 0.53407 0.0704 0.0
H947 H 0.09434 0.54783 0.02314 0.0
H948 H 0.04465 0.53256 0.92909 0.0
H949 H 0.98369 0.51151 0.95266 0.0
C950 C 0.96809 0.50475 0.01547 0.0
C951 C 0.96414 0.50257 0.04895 0.0
C952 C 1.00324 0.51738 1.00166 0.0
C953 C 0.99594 0.51355 0.06824 0.0
C954 C 0.03073 0.52609 0.05473 0.0
C955 C 0.07019 0.54001 1.00775 0.0
C956 C 0.07444 0.54184 0.97432 0.0
C957 C 0.03487 0.52797 0.02147 0.0
C958 C 0.04253 0.53157 0.9549 0.0
C959 C 1.00747 0.51943 0.96837 0.0
H960 H 1.0075 0.04333 0.95426 0.0
H961 H 0.99236 0.11093 0.04011 0.0
H962 H 1.0161 0.05714 0.07233 0.0
H963 H 0.04106 0.9907 0.07641 0.0
H964 H 0.05481 0.92259 0.99068 0.0
H965 H 0.03216 0.97677 0.95838 0.0
C966 C 1.00942 0.04645 0.98002 0.0
C967 C 0.99805 0.08147 0.99458 0.0
C968 C 0.02304 1.01521 0.99854 0.0
C969 C 1.0008 0.08457 0.02808 0.0
C970 C 1.01444 0.05372 0.04659 0.0
C971 C 0.03919 0.9876 0.05066 0.0
C972 C 0.04977 0.95229 0.03615 0.0
C973 C 0.02565 1.01887 0.03213 0.0
C974 C 0.04692 0.94916 1.00267 0.0
C975 C 0.03392 0.98023 0.9841 0.0
H976 H 0.94212 0.02623 0.5026 0.0
H977 H 0.99753 0.06766 0.58885 0.0
H978 H 0.06024 0.0467 0.569 0.0
H979 H 0.10021 1.01602 0.52725 0.0
H980 H 0.04504 0.97591 0.44051 0.0
H981 H 0.98227 0.99684 0.46037 0.0
C982 C 0.9679 0.03094 0.517 0.0
C983 C 0.96463 0.04856 0.5473 0.0
C984 C 1.00434 1.01883 0.50537 0.0
C985 C 0.9987 0.05419 0.56548 0.0
C986 C 0.03482 0.04212 0.55416 0.0
C987 C 0.07447 1.01168 0.51273 0.0
C988 C 0.07772 0.9941 0.48242 0.0
C989 C 0.03809 0.02421 0.52419 0.0
C990 C 0.04379 0.9892 0.46395 0.0
C991 C 1.00766 1.00125 0.47528 0.0
H992 H 0.5455 0.0985 0.52417 0.0
H993 H 0.53099 0.04795 0.43046 0.0
H994 H 0.50252 0.99026 0.45409 0.0
H995 H 0.48153 0.95338 0.50163 0.0
H996 H 0.49827 1.00367 0.59526 0.0
H997 H 0.52592 0.0614 0.57146 0.0
C998 C 0.53626 0.07486 0.50887 0.0
C999 C 0.54034 0.078 0.4755 0.0
C1000 C 0.52014 0.04133 0.52265 0.0
C1001 C 0.52815 0.04677 0.45621 0.0
C1002 C 0.5118 1.01355 0.46971 0.0
C1003 C 0.49109 0.97701 0.51681 0.0
C1004 C 0.48755 0.97388 0.55026 0.0
C1005 C 0.50752 1.01045 0.50294 0.0
C1006 C 0.50048 1.00491 0.56946 0.0
C1007 C 0.5164 0.03817 0.55587 0.0
H1008 H 0.49191 0.53148 0.45677 0.0
H1009 H 0.42426 0.5451 0.5426 0.0
H1010 H 0.47952 0.52427 0.57489 0.0
H1011 H 0.54738 0.50224 0.57904 0.0
H1012 H 0.61462 0.48814 0.49302 0.0
H1013 H 0.55925 0.50853 0.46082 0.0
C1014 C 0.48911 0.52993 0.48255 0.0
C1015 C 0.45364 0.54007 0.49707 0.0
C1016 C 0.52106 0.51758 0.50108 0.0
C1017 C 0.45094 0.53759 0.53058 0.0
C1018 C 0.48264 0.52562 0.54915 0.0
C1019 C 0.55004 0.50357 0.55325 0.0
C1020 C 0.58554 0.49361 0.53866 0.0
C1021 C 0.5179 0.51553 0.5347 0.0
C1022 C 0.58796 0.49552 0.50511 0.0
C1023 C 0.5562 0.5073 0.48658 0.0
H1024 H 0.07553 0.51788 0.56424 0.0
H1025 H 0.02393 0.62141 0.52588 0.0
H1026 H 0.98913 0.5829 0.48602 0.0
H1027 H 0.97233 0.52 0.46267 0.0
H1028 H 0.02425 0.41626 0.5002 0.0
H1029 H 0.05971 0.45475 0.53994 0.0
C1030 C 0.05689 0.53214 0.54704 0.0
C1031 C 0.05251 0.57268 0.54815 0.0
C1032 C 0.03672 0.50973 0.52421 0.0
C1033 C 0.0281 0.59043 0.52561 0.0
C1034 C 1.008 0.56835 0.50287 0.0
C1035 C 0.99122 0.50562 0.47961 0.0
C1036 C 0.99524 0.46508 0.47855 0.0
C1037 C 1.01185 0.52799 0.50211 0.0
C1038 C 1.02031 0.44727 0.50054 0.0
C1039 C 0.04071 0.46933 0.52322 0.0
H1040 H 0.64613 0.10552 0.31911 0.0
H1041 H 0.56291 0.19418 0.29729 0.0
H1042 H 0.57667 0.18751 0.24014 0.0
H1043 H 0.61045 0.15414 0.19616 0.0
H1044 H 0.69804 0.06983 0.21839 0.0
H1045 H 0.68498 0.07729 0.27551 0.0
C1046 C 0.63124 0.12342 0.30174 0.0
C1047 C 0.60329 0.14995 0.31211 0.0
C1048 C 0.64017 0.12023 0.26907 0.0
C1049 C 0.58455 0.17355 0.28967 0.0
C1050 C 0.59233 0.16968 0.25705 0.0
C1051 C 0.62688 0.13776 0.21361 0.0
C1052 C 0.65496 0.11135 0.20322 0.0
C1053 C 0.6198 0.14282 0.24644 0.0
C1054 C 0.67641 0.09051 0.22593 0.0
C1055 C 0.6688 0.09457 0.25856 0.0
H1056 H 0.37707 0.56824 0.30511 0.0
H1057 H 0.4533 0.65548 0.34384 0.0
H1058 H 0.47088 0.67575 0.28966 0.0
H1059 H 0.46531 0.66787 0.23133 0.0
H1060 H 0.39495 0.57595 0.19243 0.0
H1061 H 0.37436 0.55795 0.24654 0.0
C1062 C 0.39731 0.59186 0.30155 0.0
C1063 C 0.41354 0.6108 0.32826 0.0
C1064 C 0.40842 0.60224 0.27037 0.0
C1065 C 0.44039 0.64071 0.32355 0.0
C1066 C 0.45042 0.65223 0.29263 0.0
C1067 C 0.44534 0.64398 0.23475 0.0
C1068 C 0.43126 0.62347 0.20802 0.0
C1069 C 0.43473 0.63312 0.26588 0.0
C1070 C 0.40607 0.59212 0.2127 0.0
C1071 C 0.39427 0.58194 0.24359 0.0
H1072 H 0.87007 0.46479 0.23405 0.0
H1073 H 0.95362 0.38662 0.19369 0.0
H1074 H 0.96901 0.36193 0.2471 0.0
H1075 H 0.96057 0.36457 0.30539 0.0
H1076 H 0.88334 0.44844 0.34649 0.0
H1077 H 0.86333 0.46903 0.29281 0.0
C1078 C 0.89137 0.44212 0.23708 0.0
C1079 C 0.9105 0.42715 0.21018 0.0
C1080 C 0.90118 0.42929 0.26795 0.0
C1081 C 0.93861 0.39841 0.2142 0.0
C1082 C 0.94735 0.38433 0.24466 0.0
C1083 C 0.93905 0.38706 0.30251 0.0
C1084 C 0.923 0.40471 0.32967 0.0
C1085 C 0.92907 0.39979 0.27172 0.0
C1086 C 0.89587 0.43442 0.32581 0.0
C1087 C 0.8845 0.44616 0.29518 0.0
H1088 H 0.17896 0.95719 0.3039 0.0
H1089 H 0.10263 0.86815 0.33869 0.0
H1090 H 0.08611 0.84975 0.28367 0.0
H1091 H 0.09042 0.86163 0.22582 0.0
H1092 H 0.16058 0.95572 0.19115 0.0
H1093 H 0.18251 0.96972 0.24581 0.0
C1094 C 0.15923 0.93335 0.29929 0.0
C1095 C 0.14244 0.91355 0.32513 0.0
C1096 C 0.14851 0.92422 0.26764 0.0
C1097 C 0.11608 0.88348 0.31906 0.0
C1098 C 0.10657 0.87309 0.28766 0.0
C1099 C 0.11081 0.88496 0.23024 0.0
C1100 C 0.12411 0.90749 0.20454 0.0
C1101 C 0.12215 0.89363 0.26178 0.0
C1102 C 0.14995 0.93805 0.2106 0.0
C1103 C 0.16251 0.94599 0.24181 0.0
H1104 H 0.36428 0.96288 0.81185 0.0
H1105 H 0.43369 0.86805 0.84557 0.0
H1106 H 0.45093 0.85144 0.79045 0.0
H1107 H 0.44952 0.86657 0.73306 0.0
H1108 H 0.38643 0.96606 0.69988 0.0
H1109 H 0.36338 0.9784 0.75429 0.0
C1110 C 0.38261 0.93819 0.80695 0.0
C1111 C 0.39732 0.91627 0.83246 0.0
C1112 C 0.39381 0.93003 0.77537 0.0
C1113 C 0.4219 0.88504 0.82613 0.0
C1114 C 0.43182 0.87568 0.7947 0.0
C1115 C 0.43042 0.89073 0.73774 0.0
C1116 C 0.41948 0.9153 0.71259 0.0
C1117 C 0.41846 0.89836 0.76918 0.0
C1118 C 0.39526 0.94685 0.71896 0.0
C1119 C 0.38205 0.95384 0.75001 0.0
H1120 H 0.60594 0.40139 0.70515 0.0
H1121 H 0.68856 0.49171 0.72559 0.0
H1122 H 0.68213 0.47983 0.78301 0.0
H1123 H 0.65175 0.44441 0.82775 0.0
H1124 H 0.57385 0.35002 0.80679 0.0
H1125 H 0.5799 0.36241 0.7496 0.0
C1126 C 0.62245 0.41839 0.72227 0.0
C1127 C 0.64734 0.44762 0.71131 0.0
C1128 C 0.61959 0.4105 0.75522 0.0
C1129 C 0.66917 0.46905 0.73357 0.0
C1130 C 0.66548 0.46231 0.76639 0.0
C1131 C 0.63641 0.42642 0.8106 0.0
C1132 C 0.61234 0.39642 0.82152 0.0
C1133 C 0.64067 0.43318 0.77755 0.0
C1134 C 0.5928 0.37314 0.79902 0.0
C1135 C 0.59604 0.38034 0.76627 0.0
H1136 H 0.14716 0.5998 0.69303 0.0
H1137 H 0.0666 0.69083 0.71509 0.0
H1138 H 0.07378 0.67806 0.77211 0.0
H1139 H 0.10215 0.64025 0.81603 0.0
H1140 H 0.18827 0.55427 0.79493 0.0
H1141 H 0.18007 0.56574 0.73754 0.0
C1142 C 0.13136 0.61679 0.71043 0.0
C1143 C 0.10619 0.64595 0.69995 0.0
C1144 C 0.13666 0.61019 0.7434 0.0
C1145 C 0.08621 0.66823 0.72263 0.0
C1146 C 0.0902 0.6609 0.75525 0.0
C1147 C 0.11913 0.6242 0.79878 0.0
C1148 C 0.14548 0.59631 0.80948 0.0
C1149 C 0.11519 0.63186 0.76594 0.0
C1150 C 0.16783 0.57598 0.7871 0.0
C1151 C 0.16306 0.58242 0.75431 0.0
H1152 H 0.95332 0.17575 0.80673 0.0
H1153 H 0.88843 0.07731 0.84008 0.0
H1154 H 0.8665 0.06377 0.78535 0.0
H1155 H 0.86847 0.07822 0.72755 0.0
H1156 H 0.9398 0.17186 0.69383 0.0
H1157 H 0.95636 0.18939 0.74905 0.0
C1158 C 0.93405 0.15157 0.80199 0.0
C1159 C 0.92218 0.12771 0.82733 0.0
C1160 C 0.9228 0.1432 0.77038 0.0
C1161 C 0.89789 0.09603 0.82089 0.0
C1162 C 0.88534 0.08834 0.78964 0.0
C1163 C 0.88715 0.1028 0.73245 0.0
C1164 C 0.9025 0.12418 0.70688 0.0
C1165 C 0.8979 0.11152 0.76415 0.0
C1166 C 0.92751 0.15528 0.71327 0.0
C1167 C 0.93702 0.16519 0.74478 0.0
loop_
_geom_bond_atom_site_label_1
_geom_bond_atom_site_label_2
_geom_bond_distance
_geom_bond_site_symmetry_2
_ccdc_geom_bond_type
Co0 N4 2.148 . S
Co0 N10 2.128 1_545 S
Co0 N20 2.194 . S
Co0 O25 2.351 . S
Co0 O26 2.155 . S
Co0 O27 2.096 . S
C1 N4 1.301 . S
C1 N5 1.328 . S
C1 H6 0.930 . S
C2 C3 1.333 . S
C2 N4 1.317 . S
C2 H7 0.930 . S
C3 C2 1.333 . S
C3 N5 1.350 . S
C3 H29 0.931 . S
N4 Co0 2.148 . S
N4 C1 1.301 . S
N4 C2 1.317 . S
N5 C1 1.328 . S
N5 C3 1.350 . S
H6 C1 0.930 . S
H7 C2 0.930 . S
C8 O9 1.224 . S
C8 O27 1.247 . S
O9 C8 1.224 . S
N10 Co0 2.128 1_565 S
N10 C11 1.355 . S
N10 C13 1.311 . S
C11 N10 1.355 . S
C11 C12 1.363 . S
C11 H23 0.929 . S
C12 C11 1.363 . S
C12 N14 1.375 . S
C12 H30 0.931 . S
C13 N10 1.311 . S
C13 N14 1.347 . S
C13 H24 0.929 . S
N14 C12 1.375 . S
N14 C13 1.347 . S
C15 C18 1.365 . S
C15 N20 1.328 . S
C15 H21 0.929 . S
C16 C17 1.362 . S
C16 C19 1.378 1_565 S
C16 H31 0.929 . S
C17 C16 1.362 . S
C17 C18 1.366 1_565 S
C18 C15 1.365 . S
C18 C17 1.366 1_545 S
C18 H32 0.930 . S
C19 C16 1.378 1_545 S
C19 N20 1.315 . S
C19 H22 0.930 . S
N20 Co0 2.194 . S
N20 C15 1.328 . S
N20 C19 1.315 . S
H21 C15 0.929 . S
H22 C19 0.930 . S
H23 C11 0.929 . S
H24 C13 0.929 . S
O25 Co0 2.351 . S
O25 C28 1.244 . S
O26 Co0 2.155 . S
O26 C28 1.240 . S
O27 Co0 2.096 . S
O27 C8 1.247 . S
C28 O25 1.244 . S
C28 O26 1.240 . S
H29 C3 0.931 . S
H30 C12 0.931 . S
H31 C16 0.929 . S
H32 C18 0.930 . S
Co33 N37 2.148 . S
Co33 N43 2.128 . S
Co33 N53 2.194 . S
Co33 O58 2.351 . S
Co33 O59 2.155 . S
Co33 O60 2.096 . S
C34 N37 1.301 . S
C34 N38 1.328 . S
C34 H39 0.930 . S
C35 C36 1.333 . S
C35 N37 1.317 . S
C35 H40 0.930 . S
C36 C35 1.333 . S
C36 N38 1.350 . S
C36 H62 0.931 . S
N37 Co33 2.148 . S
N37 C34 1.301 . S
N37 C35 1.317 . S
N38 C34 1.328 . S
N38 C36 1.350 . S
H39 C34 0.930 . S
H40 C35 0.930 . S
C41 O42 1.224 . S
C41 O60 1.247 . S
O42 C41 1.224 . S
N43 Co33 2.128 . S
N43 C44 1.355 . S
N43 C46 1.311 . S
C44 N43 1.355 . S
C44 C45 1.363 . S
C44 H56 0.929 . S
C45 C44 1.363 . S
C45 N47 1.375 . S
C45 H63 0.931 . S
C46 N43 1.311 . S
C46 N47 1.347 . S
C46 H57 0.929 . S
N47 C45 1.375 . S
N47 C46 1.347 . S
C48 C51 1.365 . S
C48 N53 1.328 . S
C48 H54 0.929 . S
C49 C50 1.362 . S
C49 C52 1.378 . S
C49 H64 0.929 . S
C50 C49 1.362 . S
C50 C51 1.366 . S
C51 C48 1.365 . S
C51 C50 1.366 . S
C51 H65 0.930 . S
C52 C49 1.378 . S
C52 N53 1.315 . S
C52 H55 0.930 . S
N53 Co33 2.194 . S
N53 C48 1.328 . S
N53 C52 1.315 . S
H54 C48 0.929 . S
H55 C52 0.930 . S
H56 C44 0.929 . S
H57 C46 0.929 . S
O58 Co33 2.351 . S
O58 C61 1.244 . S
O59 Co33 2.155 . S
O59 C61 1.240 . S
O60 Co33 2.096 . S
O60 C41 1.247 . S
C61 O58 1.244 . S
C61 O59 1.240 . S
H62 C36 0.931 . S
H63 C45 0.931 . S
H64 C49 0.929 . S
H65 C51 0.930 . S
Co66 N70 2.148 . S
Co66 N76 2.128 . S
Co66 N86 2.194 . S
Co66 O91 2.351 . S
Co66 O92 2.155 . S
Co66 O93 2.096 . S
C67 N70 1.301 . S
C67 N71 1.328 . S
C67 H72 0.930 . S
C68 C69 1.333 . S
C68 N70 1.317 . S
C68 H73 0.930 . S
C69 C68 1.333 . S
C69 N71 1.350 . S
C69 H95 0.931 . S
N70 Co66 2.148 . S
N70 C67 1.301 . S
N70 C68 1.317 . S
N71 C67 1.328 . S
N71 C69 1.350 . S
H72 C67 0.930 . S
H73 C68 0.930 . S
C74 O75 1.224 . S
C74 O93 1.247 . S
O75 C74 1.224 . S
N76 Co66 2.128 . S
N76 C77 1.355 . S
N76 C79 1.311 . S
C77 N76 1.355 . S
C77 C78 1.363 . S
C77 H89 0.929 . S
C78 C77 1.363 . S
C78 N80 1.375 . S
C78 H96 0.931 . S
C79 N76 1.311 . S
C79 N80 1.347 . S
C79 H90 0.929 . S
N80 C78 1.375 . S
N80 C79 1.347 . S
C81 C84 1.365 . S
C81 N86 1.328 . S
C81 H87 0.929 . S
C82 C83 1.362 . S
C82 C85 1.378 . S
C82 H97 0.929 . S
C83 C82 1.362 . S
C83 C84 1.366 . S
C84 C81 1.365 . S
C84 C83 1.366 . S
C84 H98 0.930 . S
C85 C82 1.378 . S
C85 N86 1.315 . S
C85 H88 0.930 . S
N86 Co66 2.194 . S
N86 C81 1.328 . S
N86 C85 1.315 . S
H87 C81 0.929 . S
H88 C85 0.930 . S
H89 C77 0.929 . S
H90 C79 0.929 . S
O91 Co66 2.351 . S
O91 C94 1.244 . S
O92 Co66 2.155 . S
O92 C94 1.240 . S
O93 Co66 2.096 . S
O93 C74 1.247 . S
C94 O91 1.244 . S
C94 O92 1.240 . S
H95 C69 0.931 . S
H96 C78 0.931 . S
H97 C82 0.929 . S
H98 C84 0.930 . S
Co99 N103 2.148 . S
Co99 N109 2.128 1_455 S
Co99 N119 2.194 . S
Co99 O124 2.351 . S
Co99 O125 2.155 . S
Co99 O126 2.096 . S
C100 N103 1.301 . S
C100 N104 1.328 . S
C100 H105 0.930 . S
C101 C102 1.333 . S
C101 N103 1.317 . S
C101 H106 0.930 . S
C102 C101 1.333 . S
C102 N104 1.350 . S
C102 H128 0.931 . S
N103 Co99 2.148 . S
N103 C100 1.301 . S
N103 C101 1.317 . S
N104 C100 1.328 . S
N104 C102 1.350 . S
H105 C100 0.930 . S
H106 C101 0.930 . S
C107 O108 1.224 . S
C107 O126 1.247 . S
O108 C107 1.224 . S
N109 Co99 2.128 1_655 S
N109 C110 1.355 . S
N109 C112 1.311 . S
C110 N109 1.355 . S
C110 C111 1.363 . S
C110 H122 0.929 . S
C111 C110 1.363 . S
C111 N113 1.375 . S
C111 H129 0.931 . S
C112 N109 1.311 . S
C112 N113 1.347 . S
C112 H123 0.929 . S
N113 C111 1.375 . S
N113 C112 1.347 . S
C114 C117 1.365 . S
C114 N119 1.328 . S
C114 H120 0.929 . S
C115 C116 1.362 . S
C115 C118 1.378 1_655 S
C115 H130 0.929 . S
C116 C115 1.362 . S
C116 C117 1.366 1_655 S
C117 C114 1.365 . S
C117 C116 1.366 1_455 S
C117 H131 0.930 . S
C118 C115 1.378 1_455 S
C118 N119 1.315 . S
C118 H121 0.930 . S
N119 Co99 2.194 . S
N119 C114 1.328 . S
N119 C118 1.315 . S
H120 C114 0.929 . S
H121 C118 0.930 . S
H122 C110 0.929 . S
H123 C112 0.929 . S
O124 Co99 2.351 . S
O124 C127 1.244 . S
O125 Co99 2.155 . S
O125 C127 1.240 . S
O126 Co99 2.096 . S
O126 C107 1.247 . S
C127 O124 1.244 . S
C127 O125 1.240 . S
H128 C102 0.931 . S
H129 C111 0.931 . S
H130 C115 0.929 . S
H131 C117 0.930 . S
Co132 N136 2.148 . S
Co132 N142 2.128 1_565 S
Co132 N152 2.194 . S
Co132 O157 2.351 . S
Co132 O158 2.155 . S
Co132 O159 2.096 . S
C133 N136 1.301 . S
C133 N137 1.328 . S
C133 H138 0.930 . S
C134 C135 1.333 . S
C134 N136 1.317 . S
C134 H139 0.930 . S
C135 C134 1.333 . S
C135 N137 1.350 . S
C135 H161 0.931 . S
N136 Co132 2.148 . S
N136 C133 1.301 . S
N136 C134 1.317 . S
N137 C133 1.328 . S
N137 C135 1.350 . S
H138 C133 0.930 . S
H139 C134 0.930 . S
C140 O141 1.224 . S
C140 O159 1.247 . S
O141 C140 1.224 . S
N142 Co132 2.128 1_545 S
N142 C143 1.355 . S
N142 C145 1.311 . S
C143 N142 1.355 . S
C143 C144 1.363 . S
C143 H155 0.929 . S
C144 C143 1.363 . S
C144 N146 1.375 . S
C144 H162 0.931 . S
C145 N142 1.311 . S
C145 N146 1.347 . S
C145 H156 0.929 . S
N146 C144 1.375 . S
N146 C145 1.347 . S
C147 C150 1.365 . S
C147 N152 1.328 . S
C147 H153 0.929 . S
C148 C149 1.362 . S
C148 C151 1.378 1_545 S
C148 H163 0.929 . S
C149 C148 1.362 . S
C149 C150 1.366 1_545 S
C150 C147 1.365 . S
C150 C149 1.366 1_565 S
C150 H164 0.930 . S
C151 C148 1.378 1_565 S
C151 N152 1.315 . S
C151 H154 0.930 . S
N152 Co132 2.194 . S
N152 C147 1.328 . S
N152 C151 1.315 . S
H153 C147 0.929 . S
H154 C151 0.930 . S
H155 C143 0.929 . S
H156 C145 0.929 . S
O157 Co132 2.351 . S
O157 C160 1.244 . S
O158 Co132 2.155 . S
O158 C160 1.240 . S
O159 Co132 2.096 . S
O159 C140 1.247 . S
C160 O157 1.244 . S
C160 O158 1.240 . S
H161 C135 0.931 . S
H162 C144 0.931 . S
H163 C148 0.929 . S
H164 C150 0.930 . S
Co165 N169 2.148 . S
Co165 N175 2.128 . S
Co165 N185 2.194 . S
Co165 O190 2.351 . S
Co165 O191 2.155 . S
Co165 O192 2.096 . S
C166 N169 1.301 . S
C166 N170 1.328 . S
C166 H171 0.930 . S
C167 C168 1.333 . S
C167 N169 1.317 . S
C167 H172 0.930 . S
C168 C167 1.333 . S
C168 N170 1.350 . S
C168 H194 0.931 . S
N169 Co165 2.148 . S
N169 C166 1.301 . S
N169 C167 1.317 . S
N170 C166 1.328 . S
N170 C168 1.350 . S
H171 C166 0.930 . S
H172 C167 0.930 . S
C173 O174 1.224 . S
C173 O192 1.247 . S
O174 C173 1.224 . S
N175 Co165 2.128 . S
N175 C176 1.355 . S
N175 C178 1.311 . S
C176 N175 1.355 . S
C176 C177 1.363 . S
C176 H188 0.929 . S
C177 C176 1.363 . S
C177 N179 1.375 . S
C177 H195 0.931 . S
C178 N175 1.311 . S
C178 N179 1.347 . S
C178 H189 0.929 . S
N179 C177 1.375 . S
N179 C178 1.347 . S
C180 C183 1.365 . S
C180 N185 1.328 . S
C180 H186 0.929 . S
C181 C182 1.362 . S
C181 C184 1.378 . S
C181 H196 0.929 . S
C182 C181 1.362 . S
C182 C183 1.366 . S
C183 C180 1.365 . S
C183 C182 1.366 . S
C183 H197 0.930 . S
C184 C181 1.378 . S
C184 N185 1.315 . S
C184 H187 0.930 . S
N185 Co165 2.194 . S
N185 C180 1.328 . S
N185 C184 1.315 . S
H186 C180 0.929 . S
H187 C184 0.930 . S
H188 C176 0.929 . S
H189 C178 0.929 . S
O190 Co165 2.351 . S
O190 C193 1.244 . S
O191 Co165 2.155 . S
O191 C193 1.240 . S
O192 Co165 2.096 . S
O192 C173 1.247 . S
C193 O190 1.244 . S
C193 O191 1.240 . S
H194 C168 0.931 . S
H195 C177 0.931 . S
H196 C181 0.929 . S
H197 C183 0.930 . S
Co198 N202 2.148 . S
Co198 N208 2.128 . S
Co198 N218 2.194 . S
Co198 O223 2.351 . S
Co198 O224 2.155 . S
Co198 O225 2.096 . S
C199 N202 1.301 . S
C199 N203 1.328 . S
C199 H204 0.930 . S
C200 C201 1.333 . S
C200 N202 1.317 . S
C200 H205 0.930 . S
C201 C200 1.333 . S
C201 N203 1.350 . S
C201 H227 0.931 . S
N202 Co198 2.148 . S
N202 C199 1.301 . S
N202 C200 1.317 . S
N203 C199 1.328 . S
N203 C201 1.350 . S
H204 C199 0.930 . S
H205 C200 0.930 . S
C206 O207 1.224 . S
C206 O225 1.247 . S
O207 C206 1.224 . S
N208 Co198 2.128 . S
N208 C209 1.355 . S
N208 C211 1.311 . S
C209 N208 1.355 . S
C209 C210 1.363 . S
C209 H221 0.929 . S
C210 C209 1.363 . S
C210 N212 1.375 . S
C210 H228 0.931 . S
C211 N208 1.311 . S
C211 N212 1.347 . S
C211 H222 0.929 . S
N212 C210 1.375 . S
N212 C211 1.347 . S
C213 C216 1.365 . S
C213 N218 1.328 . S
C213 H219 0.929 . S
C214 C215 1.362 . S
C214 C217 1.378 . S
C214 H229 0.929 . S
C215 C214 1.362 . S
C215 C216 1.366 . S
C216 C213 1.365 . S
C216 C215 1.366 . S
C216 H230 0.930 . S
C217 C214 1.378 . S
C217 N218 1.315 . S
C217 H220 0.930 . S
N218 Co198 2.194 . S
N218 C213 1.328 . S
N218 C217 1.315 . S
H219 C213 0.929 . S
H220 C217 0.930 . S
H221 C209 0.929 . S
H222 C211 0.929 . S
O223 Co198 2.351 . S
O223 C226 1.244 . S
O224 Co198 2.155 . S
O224 C226 1.240 . S
O225 Co198 2.096 . S
O225 C206 1.247 . S
C226 O223 1.244 . S
C226 O224 1.240 . S
H227 C201 0.931 . S
H228 C210 0.931 . S
H229 C214 0.929 . S
H230 C216 0.930 . S
Co231 N235 2.148 . S
Co231 N241 2.128 1_655 S
Co231 N251 2.194 . S
Co231 O256 2.351 . S
Co231 O257 2.155 . S
Co231 O258 2.096 . S
C232 N235 1.301 . S
C232 N236 1.328 . S
C232 H237 0.930 . S
C233 C234 1.333 . S
C233 N235 1.317 . S
C233 H238 0.930 . S
C234 C233 1.333 . S
C234 N236 1.350 . S
C234 H260 0.931 . S
N235 Co231 2.148 . S
N235 C232 1.301 . S
N235 C233 1.317 . S
N236 C232 1.328 . S
N236 C234 1.350 . S
H237 C232 0.930 . S
H238 C233 0.930 . S
C239 O240 1.224 . S
C239 O258 1.247 . S
O240 C239 1.224 . S
N241 Co231 2.128 1_455 S
N241 C242 1.355 . S
N241 C244 1.311 . S
C242 N241 1.355 . S
C242 C243 1.363 . S
C242 H254 0.929 . S
C243 C242 1.363 . S
C243 N245 1.375 . S
C243 H261 0.931 . S
C244 N241 1.311 . S
C244 N245 1.347 . S
C244 H255 0.929 . S
N245 C243 1.375 . S
N245 C244 1.347 . S
C246 C249 1.365 . S
C246 N251 1.328 . S
C246 H252 0.929 . S
C247 C248 1.362 . S
C247 C250 1.378 1_455 S
C247 H262 0.929 . S
C248 C247 1.362 . S
C248 C249 1.366 1_455 S
C249 C246 1.365 . S
C249 C248 1.366 1_655 S
C249 H263 0.930 . S
C250 C247 1.378 1_655 S
C250 N251 1.315 . S
C250 H253 0.930 . S
N251 Co231 2.194 . S
N251 C246 1.328 . S
N251 C250 1.315 . S
H252 C246 0.929 . S
H253 C250 0.930 . S
H254 C242 0.929 . S
H255 C244 0.929 . S
O256 Co231 2.351 . S
O256 C259 1.244 . S
O257 Co231 2.155 . S
O257 C259 1.240 . S
O258 Co231 2.096 . S
O258 C239 1.247 . S
C259 O256 1.244 . S
C259 O257 1.240 . S
H260 C234 0.931 . S
H261 C243 0.931 . S
H262 C247 0.929 . S
H263 C249 0.930 . S
Co264 N268 2.148 . S
Co264 N274 2.128 1_565 S
Co264 N284 2.194 . S
Co264 O289 2.351 . S
Co264 O290 2.155 . S
Co264 O291 2.096 . S
C265 N268 1.301 . S
C265 N269 1.328 . S
C265 H270 0.930 . S
C266 C267 1.333 . S
C266 N268 1.317 . S
C266 H271 0.930 . S
C267 C266 1.333 . S
C267 N269 1.350 . S
C267 H293 0.931 . S
N268 Co264 2.148 . S
N268 C265 1.301 . S
N268 C266 1.317 . S
N269 C265 1.328 . S
N269 C267 1.350 . S
H270 C265 0.930 . S
H271 C266 0.930 . S
C272 O273 1.224 . S
C272 O291 1.247 . S
O273 C272 1.224 . S
N274 Co264 2.128 1_545 S
N274 C275 1.355 . S
N274 C277 1.311 . S
C275 N274 1.355 . S
C275 C276 1.363 . S
C275 H287 0.929 . S
C276 C275 1.363 . S
C276 N278 1.375 . S
C276 H294 0.931 . S
C277 N274 1.311 . S
C277 N278 1.347 . S
C277 H288 0.929 . S
N278 C276 1.375 . S
N278 C277 1.347 . S
C279 C282 1.365 . S
C279 N284 1.328 . S
C279 H285 0.929 . S
C280 C281 1.362 . S
C280 C283 1.378 1_545 S
C280 H295 0.929 . S
C281 C280 1.362 . S
C281 C282 1.366 1_545 S
C282 C279 1.365 . S
C282 C281 1.366 1_565 S
C282 H296 0.930 . S
C283 C280 1.378 1_565 S
C283 N284 1.315 . S
C283 H286 0.930 . S
N284 Co264 2.194 . S
N284 C279 1.328 . S
N284 C283 1.315 . S
H285 C279 0.929 . S
H286 C283 0.930 . S
H287 C275 0.929 . S
H288 C277 0.929 . S
O289 Co264 2.351 . S
O289 C292 1.244 . S
O290 Co264 2.155 . S
O290 C292 1.240 . S
O291 Co264 2.096 . S
O291 C272 1.247 . S
C292 O289 1.244 . S
C292 O290 1.240 . S
H293 C267 0.931 . S
H294 C276 0.931 . S
H295 C280 0.929 . S
H296 C282 0.930 . S
Co297 N301 2.148 . S
Co297 N307 2.128 . S
Co297 N317 2.194 . S
Co297 O322 2.351 . S
Co297 O323 2.155 . S
Co297 O324 2.096 . S
C298 N301 1.301 . S
C298 N302 1.328 . S
C298 H303 0.930 . S
C299 C300 1.333 . S
C299 N301 1.317 . S
C299 H304 0.930 . S
C300 C299 1.333 . S
C300 N302 1.350 . S
C300 H326 0.931 . S
N301 Co297 2.148 . S
N301 C298 1.301 . S
N301 C299 1.317 . S
N302 C298 1.328 . S
N302 C300 1.350 . S
H303 C298 0.930 . S
H304 C299 0.930 . S
C305 O306 1.224 . S
C305 O324 1.247 . S
O306 C305 1.224 . S
N307 Co297 2.128 . S
N307 C308 1.355 . S
N307 C310 1.311 . S
C308 N307 1.355 . S
C308 C309 1.363 . S
C308 H320 0.929 . S
C309 C308 1.363 . S
C309 N311 1.375 . S
C309 H327 0.931 . S
C310 N307 1.311 . S
C310 N311 1.347 . S
C310 H321 0.929 . S
N311 C309 1.375 . S
N311 C310 1.347 . S
C312 C315 1.365 . S
C312 N317 1.328 . S
C312 H318 0.929 . S
C313 C314 1.362 . S
C313 C316 1.378 . S
C313 H328 0.929 . S
C314 C313 1.362 . S
C314 C315 1.366 . S
C315 C312 1.365 . S
C315 C314 1.366 . S
C315 H329 0.930 . S
C316 C313 1.378 . S
C316 N317 1.315 . S
C316 H319 0.930 . S
N317 Co297 2.194 . S
N317 C312 1.328 . S
N317 C316 1.315 . S
H318 C312 0.929 . S
H319 C316 0.930 . S
H320 C308 0.929 . S
H321 C310 0.929 . S
O322 Co297 2.351 . S
O322 C325 1.244 . S
O323 Co297 2.155 . S
O323 C325 1.240 . S
O324 Co297 2.096 . S
O324 C305 1.247 . S
C325 O322 1.244 . S
C325 O323 1.240 . S
H326 C300 0.931 . S
H327 C309 0.931 . S
H328 C313 0.929 . S
H329 C315 0.930 . S
Co330 N334 2.148 . S
Co330 N340 2.128 . S
Co330 N350 2.194 . S
Co330 O355 2.351 . S
Co330 O356 2.155 . S
Co330 O357 2.096 . S
C331 N334 1.301 . S
C331 N335 1.328 . S
C331 H336 0.930 . S
C332 C333 1.333 . S
C332 N334 1.317 . S
C332 H337 0.930 . S
C333 C332 1.333 . S
C333 N335 1.350 . S
C333 H359 0.931 . S
N334 Co330 2.148 . S
N334 C331 1.301 . S
N334 C332 1.317 . S
N335 C331 1.328 . S
N335 C333 1.350 . S
H336 C331 0.930 . S
H337 C332 0.930 . S
C338 O339 1.224 . S
C338 O357 1.247 . S
O339 C338 1.224 . S
N340 Co330 2.128 . S
N340 C341 1.355 . S
N340 C343 1.311 . S
C341 N340 1.355 . S
C341 C342 1.363 . S
C341 H353 0.929 . S
C342 C341 1.363 . S
C342 N344 1.375 . S
C342 H360 0.931 . S
C343 N340 1.311 . S
C343 N344 1.347 . S
C343 H354 0.929 . S
N344 C342 1.375 . S
N344 C343 1.347 . S
C345 C348 1.365 . S
C345 N350 1.328 . S
C345 H351 0.929 . S
C346 C347 1.362 . S
C346 C349 1.378 . S
C346 H361 0.929 . S
C347 C346 1.362 . S
C347 C348 1.366 . S
C348 C345 1.365 . S
C348 C347 1.366 . S
C348 H362 0.930 . S
C349 C346 1.378 . S
C349 N350 1.315 . S
C349 H352 0.930 . S
N350 Co330 2.194 . S
N350 C345 1.328 . S
N350 C349 1.315 . S
H351 C345 0.929 . S
H352 C349 0.930 . S
H353 C341 0.929 . S
H354 C343 0.929 . S
O355 Co330 2.351 . S
O355 C358 1.244 . S
O356 Co330 2.155 . S
O356 C358 1.240 . S
O357 Co330 2.096 . S
O357 C338 1.247 . S
C358 O355 1.244 . S
C358 O356 1.240 . S
H359 C333 0.931 . S
H360 C342 0.931 . S
H361 C346 0.929 . S
H362 C348 0.930 . S
Co363 N367 2.148 . S
Co363 N373 2.128 1_655 S
Co363 N383 2.194 . S
Co363 O388 2.351 . S
Co363 O389 2.155 . S
Co363 O390 2.096 . S
C364 N367 1.301 . S
C364 N368 1.328 . S
C364 H369 0.930 . S
C365 C366 1.333 . S
C365 N367 1.317 . S
C365 H370 0.930 . S
C366 C365 1.333 . S
C366 N368 1.350 . S
C366 H392 0.931 . S
N367 Co363 2.148 . S
N367 C364 1.301 . S
N367 C365 1.317 . S
N368 C364 1.328 . S
N368 C366 1.350 . S
H369 C364 0.930 . S
H370 C365 0.930 . S
C371 O372 1.224 . S
C371 O390 1.247 . S
O372 C371 1.224 . S
N373 Co363 2.128 1_455 S
N373 C374 1.355 . S
N373 C376 1.311 . S
C374 N373 1.355 . S
C374 C375 1.363 . S
C374 H386 0.929 . S
C375 C374 1.363 . S
C375 N377 1.375 . S
C375 H393 0.931 . S
C376 N373 1.311 . S
C376 N377 1.347 . S
C376 H387 0.929 . S
N377 C375 1.375 . S
N377 C376 1.347 . S
C378 C381 1.365 . S
C378 N383 1.328 . S
C378 H384 0.929 . S
C379 C380 1.362 . S
C379 C382 1.378 1_455 S
C379 H394 0.929 . S
C380 C379 1.362 . S
C380 C381 1.366 1_455 S
C381 C378 1.365 . S
C381 C380 1.366 1_655 S
C381 H395 0.930 . S
C382 C379 1.378 1_655 S
C382 N383 1.315 . S
C382 H385 0.930 . S
N383 Co363 2.194 . S
N383 C378 1.328 . S
N383 C382 1.315 . S
H384 C378 0.929 . S
H385 C382 0.930 . S
H386 C374 0.929 . S
H387 C376 0.929 . S
O388 Co363 2.351 . S
O388 C391 1.244 . S
O389 Co363 2.155 . S
O389 C391 1.240 . S
O390 Co363 2.096 . S
O390 C371 1.247 . S
C391 O388 1.244 . S
C391 O389 1.240 . S
H392 C366 0.931 . S
H393 C375 0.931 . S
H394 C379 0.929 . S
H395 C381 0.930 . S
Co396 N400 2.148 . S
Co396 N406 2.128 1_545 S
Co396 N416 2.194 . S
Co396 O421 2.351 . S
Co396 O422 2.155 . S
Co396 O423 2.096 . S
C397 N400 1.301 . S
C397 N401 1.328 . S
C397 H402 0.930 . S
C398 C399 1.333 . S
C398 N400 1.317 . S
C398 H403 0.930 . S
C399 C398 1.333 . S
C399 N401 1.350 . S
C399 H425 0.931 . S
N400 Co396 2.148 . S
N400 C397 1.301 . S
N400 C398 1.317 . S
N401 C397 1.328 . S
N401 C399 1.350 . S
H402 C397 0.930 . S
H403 C398 0.930 . S
C404 O405 1.224 . S
C404 O423 1.247 . S
O405 C404 1.224 . S
N406 Co396 2.128 1_565 S
N406 C407 1.355 . S
N406 C409 1.311 . S
C407 N406 1.355 . S
C407 C408 1.363 . S
C407 H419 0.929 . S
C408 C407 1.363 . S
C408 N410 1.375 . S
C408 H426 0.931 . S
C409 N406 1.311 . S
C409 N410 1.347 . S
C409 H420 0.929 . S
N410 C408 1.375 . S
N410 C409 1.347 . S
C411 C414 1.365 . S
C411 N416 1.328 . S
C411 H417 0.929 . S
C412 C413 1.362 . S
C412 C415 1.378 1_565 S
C412 H427 0.929 . S
C413 C412 1.362 . S
C413 C414 1.366 1_565 S
C414 C411 1.365 . S
C414 C413 1.366 1_545 S
C414 H428 0.930 . S
C415 C412 1.378 1_545 S
C415 N416 1.315 . S
C415 H418 0.930 . S
N416 Co396 2.194 . S
N416 C411 1.328 . S
N416 C415 1.315 . S
H417 C411 0.929 . S
H418 C415 0.930 . S
H419 C407 0.929 . S
H420 C409 0.929 . S
O421 Co396 2.351 . S
O421 C424 1.244 . S
O422 Co396 2.155 . S
O422 C424 1.240 . S
O423 Co396 2.096 . S
O423 C404 1.247 . S
C424 O421 1.244 . S
C424 O422 1.240 . S
H425 C399 0.931 . S
H426 C408 0.931 . S
H427 C412 0.929 . S
H428 C414 0.930 . S
Co429 N433 2.148 . S
Co429 N439 2.128 . S
Co429 N449 2.194 . S
Co429 O454 2.351 . S
Co429 O455 2.155 . S
Co429 O456 2.096 . S
C430 N433 1.301 . S
C430 N434 1.328 . S
C430 H435 0.930 . S
C431 C432 1.333 . S
C431 N433 1.317 . S
C431 H436 0.930 . S
C432 C431 1.333 . S
C432 N434 1.350 . S
C432 H458 0.931 . S
N433 Co429 2.148 . S
N433 C430 1.301 . S
N433 C431 1.317 . S
N434 C430 1.328 . S
N434 C432 1.350 . S
H435 C430 0.930 . S
H436 C431 0.930 . S
C437 O438 1.224 . S
C437 O456 1.247 . S
O438 C437 1.224 . S
N439 Co429 2.128 . S
N439 C440 1.355 . S
N439 C442 1.311 . S
C440 N439 1.355 . S
C440 C441 1.363 . S
C440 H452 0.929 . S
C441 C440 1.363 . S
C441 N443 1.375 . S
C441 H459 0.931 . S
C442 N439 1.311 . S
C442 N443 1.347 . S
C442 H453 0.929 . S
N443 C441 1.375 . S
N443 C442 1.347 . S
C444 C447 1.365 . S
C444 N449 1.328 . S
C444 H450 0.929 . S
C445 C446 1.362 . S
C445 C448 1.378 . S
C445 H460 0.929 . S
C446 C445 1.362 . S
C446 C447 1.366 . S
C447 C444 1.365 . S
C447 C446 1.366 . S
C447 H461 0.930 . S
C448 C445 1.378 . S
C448 N449 1.315 . S
C448 H451 0.930 . S
N449 Co429 2.194 . S
N449 C444 1.328 . S
N449 C448 1.315 . S
H450 C444 0.929 . S
H451 C448 0.930 . S
H452 C440 0.929 . S
H453 C442 0.929 . S
O454 Co429 2.351 . S
O454 C457 1.244 . S
O455 Co429 2.155 . S
O455 C457 1.240 . S
O456 Co429 2.096 . S
O456 C437 1.247 . S
C457 O454 1.244 . S
C457 O455 1.240 . S
H458 C432 0.931 . S
H459 C441 0.931 . S
H460 C445 0.929 . S
H461 C447 0.930 . S
Co462 N466 2.148 . S
Co462 N472 2.128 . S
Co462 N482 2.194 . S
Co462 O487 2.351 . S
Co462 O488 2.155 . S
Co462 O489 2.096 . S
C463 N466 1.301 . S
C463 N467 1.328 . S
C463 H468 0.930 . S
C464 C465 1.333 . S
C464 N466 1.317 . S
C464 H469 0.930 . S
C465 C464 1.333 . S
C465 N467 1.350 . S
C465 H491 0.931 . S
N466 Co462 2.148 . S
N466 C463 1.301 . S
N466 C464 1.317 . S
N467 C463 1.328 . S
N467 C465 1.350 . S
H468 C463 0.930 . S
H469 C464 0.930 . S
C470 O471 1.224 . S
C470 O489 1.247 . S
O471 C470 1.224 . S
N472 Co462 2.128 . S
N472 C473 1.355 . S
N472 C475 1.311 . S
C473 N472 1.355 . S
C473 C474 1.363 . S
C473 H485 0.929 . S
C474 C473 1.363 . S
C474 N476 1.375 . S
C474 H492 0.931 . S
C475 N472 1.311 . S
C475 N476 1.347 . S
C475 H486 0.929 . S
N476 C474 1.375 . S
N476 C475 1.347 . S
C477 C480 1.365 . S
C477 N482 1.328 . S
C477 H483 0.929 . S
C478 C479 1.362 . S
C478 C481 1.378 . S
C478 H493 0.929 . S
C479 C478 1.362 . S
C479 C480 1.366 . S
C480 C477 1.365 . S
C480 C479 1.366 . S
C480 H494 0.930 . S
C481 C478 1.378 . S
C481 N482 1.315 . S
C481 H484 0.930 . S
N482 Co462 2.194 . S
N482 C477 1.328 . S
N482 C481 1.315 . S
H483 C477 0.929 . S
H484 C481 0.930 . S
H485 C473 0.929 . S
H486 C475 0.929 . S
O487 Co462 2.351 . S
O487 C490 1.244 . S
O488 Co462 2.155 . S
O488 C490 1.240 . S
O489 Co462 2.096 . S
O489 C470 1.247 . S
C490 O487 1.244 . S
C490 O488 1.240 . S
H491 C465 0.931 . S
H492 C474 0.931 . S
H493 C478 0.929 . S
H494 C480 0.930 . S
Co495 N499 2.148 . S
Co495 N505 2.128 1_455 S
Co495 N515 2.194 . S
Co495 O520 2.351 . S
Co495 O521 2.155 . S
Co495 O522 2.096 . S
C496 N499 1.301 . S
C496 N500 1.328 . S
C496 H501 0.930 . S
C497 C498 1.333 . S
C497 N499 1.317 . S
C497 H502 0.930 . S
C498 C497 1.333 . S
C498 N500 1.350 . S
C498 H524 0.931 . S
N499 Co495 2.148 . S
N499 C496 1.301 . S
N499 C497 1.317 . S
N500 C496 1.328 . S
N500 C498 1.350 . S
H501 C496 0.930 . S
H502 C497 0.930 . S
C503 O504 1.224 . S
C503 O522 1.247 . S
O504 C503 1.224 . S
N505 Co495 2.128 1_655 S
N505 C506 1.355 . S
N505 C508 1.311 . S
C506 N505 1.355 . S
C506 C507 1.363 . S
C506 H518 0.929 . S
C507 C506 1.363 . S
C507 N509 1.375 . S
C507 H525 0.931 . S
C508 N505 1.311 . S
C508 N509 1.347 . S
C508 H519 0.929 . S
N509 C507 1.375 . S
N509 C508 1.347 . S
C510 C513 1.365 . S
C510 N515 1.328 . S
C510 H516 0.929 . S
C511 C512 1.362 . S
C511 C514 1.378 1_655 S
C511 H526 0.929 . S
C512 C511 1.362 . S
C512 C513 1.366 1_655 S
C513 C510 1.365 . S
C513 C512 1.366 1_455 S
C513 H527 0.930 . S
C514 C511 1.378 1_455 S
C514 N515 1.315 . S
C514 H517 0.930 . S
N515 Co495 2.194 . S
N515 C510 1.328 . S
N515 C514 1.315 . S
H516 C510 0.929 . S
H517 C514 0.930 . S
H518 C506 0.929 . S
H519 C508 0.929 . S
O520 Co495 2.351 . S
O520 C523 1.244 . S
O521 Co495 2.155 . S
O521 C523 1.240 . S
O522 Co495 2.096 . S
O522 C503 1.247 . S
C523 O520 1.244 . S
C523 O521 1.240 . S
H524 C498 0.931 . S
H525 C507 0.931 . S
H526 C511 0.929 . S
H527 C513 0.930 . S
H528 C534 0.930 . S
H529 C537 0.930 . S
H530 C538 0.930 . S
H531 C539 0.930 . S
H532 C542 0.930 . S
H533 C543 0.930 . S
C534 H528 0.930 . S
C534 C535 1.355 . S
C534 C536 1.415 . S
C535 C534 1.355 . S
C535 C537 1.419 . S
C536 C534 1.415 . S
C536 C541 1.425 . S
C536 C543 1.409 . S
C537 H529 0.930 . S
C537 C535 1.419 . S
C537 C538 1.362 . S
C538 H530 0.930 . S
C538 C537 1.362 . S
C538 C541 1.409 . S
C539 H531 0.930 . S
C539 C540 1.355 . S
C539 C541 1.415 . S
C540 C539 1.355 . S
C540 C542 1.419 . S
C541 C536 1.425 . S
C541 C538 1.409 . S
C541 C539 1.415 . S
C542 H532 0.930 . S
C542 C540 1.419 . S
C542 C543 1.362 . S
C543 H533 0.930 . S
C543 C536 1.409 . S
C543 C542 1.362 . S
H544 C550 0.930 . S
H545 C553 0.930 . S
H546 C554 0.930 . S
H547 C555 0.930 . S
H548 C558 0.930 . S
H549 C559 0.930 . S
C550 H544 0.930 . S
C550 C551 1.355 . S
C550 C552 1.415 . S
C551 C550 1.355 . S
C551 C553 1.419 . S
C552 C550 1.415 . S
C552 C557 1.425 . S
C552 C559 1.409 . S
C553 H545 0.930 . S
C553 C551 1.419 . S
C553 C554 1.362 . S
C554 H546 0.930 . S
C554 C553 1.362 . S
C554 C557 1.409 . S
C555 H547 0.930 . S
C555 C556 1.355 . S
C555 C557 1.415 . S
C556 C555 1.355 . S
C556 C558 1.419 . S
C557 C552 1.425 . S
C557 C554 1.409 . S
C557 C555 1.415 . S
C558 H548 0.930 . S
C558 C556 1.419 . S
C558 C559 1.362 . S
C559 H549 0.930 . S
C559 C552 1.409 . S
C559 C558 1.362 . S
H560 C566 0.930 . S
H561 C569 0.930 1_455 S
H562 C570 0.930 . S
H563 C571 0.930 . S
H564 C574 0.930 . S
H565 C575 0.930 . S
C566 H560 0.930 . S
C566 C567 1.355 . S
C566 C568 1.415 . S
C567 C566 1.355 . S
C567 C569 1.419 . S
C568 C566 1.415 . S
C568 C573 1.425 . S
C568 C575 1.409 . S
C569 H561 0.930 1_655 S
C569 C567 1.419 . S
C569 C570 1.362 . S
C570 H562 0.930 . S
C570 C569 1.362 . S
C570 C573 1.409 . S
C571 H563 0.930 . S
C571 C572 1.355 . S
C571 C573 1.415 . S
C572 C571 1.355 . S
C572 C574 1.419 . S
C573 C568 1.425 . S
C573 C570 1.409 . S
C573 C571 1.415 . S
C574 H564 0.930 . S
C574 C572 1.419 . S
C574 C575 1.362 . S
C575 H565 0.930 . S
C575 C568 1.409 . S
C575 C574 1.362 . S
H576 C582 0.930 . S
H577 C585 0.930 . S
H578 C586 0.930 . S
H579 C587 0.930 . S
H580 C590 0.929 . S
H581 C591 0.930 1_545 S
C582 H576 0.930 . S
C582 C583 1.355 . S
C582 C584 1.415 . S
C583 C582 1.355 . S
C583 C585 1.419 . S
C584 C582 1.415 . S
C584 C589 1.425 . S
C584 C591 1.409 . S
C585 H577 0.930 . S
C585 C583 1.419 . S
C585 C586 1.362 . S
C586 H578 0.930 . S
C586 C585 1.362 . S
C586 C589 1.409 . S
C587 H579 0.930 . S
C587 C588 1.355 . S
C587 C589 1.415 . S
C588 C587 1.355 . S
C588 C590 1.420 1_565 S
C589 C584 1.425 . S
C589 C586 1.409 . S
C589 C587 1.415 . S
C590 H580 0.929 . S
C590 C588 1.420 1_545 S
C590 C591 1.363 1_545 S
C591 H581 0.930 1_565 S
C591 C584 1.409 . S
C591 C590 1.363 1_565 S
H592 C598 0.930 . S
H593 C601 0.930 . S
H594 C602 0.930 1_655 S
H595 C603 0.930 . S
H596 C606 0.930 . S
H597 C607 0.930 . S
C598 H592 0.930 . S
C598 C599 1.355 . S
C598 C600 1.415 . S
C599 C598 1.355 . S
C599 C601 1.419 1_455 S
C600 C598 1.415 . S
C600 C605 1.425 . S
C600 C607 1.409 . S
C601 H593 0.930 . S
C601 C599 1.419 1_655 S
C601 C602 1.362 1_655 S
C602 H594 0.930 1_455 S
C602 C601 1.362 1_455 S
C602 C605 1.409 . S
C603 H595 0.930 . S
C603 C604 1.355 . S
C603 C605 1.415 . S
C604 C603 1.355 . S
C604 C606 1.419 . S
C605 C600 1.425 . S
C605 C602 1.409 . S
C605 C603 1.415 . S
C606 H596 0.930 . S
C606 C604 1.419 . S
C606 C607 1.362 . S
C607 H597 0.930 . S
C607 C600 1.409 . S
C607 C606 1.362 . S
H608 C614 0.930 . S
H609 C617 0.930 . S
H610 C618 0.930 1_565 S
H611 C619 0.930 . S
H612 C622 0.930 . S
H613 C623 0.930 . S
C614 H608 0.930 . S
C614 C615 1.355 . S
C614 C616 1.415 . S
C615 C614 1.355 . S
C615 C617 1.419 1_545 S
C616 C614 1.415 . S
C616 C621 1.425 . S
C616 C623 1.409 . S
C617 H609 0.930 . S
C617 C615 1.419 1_565 S
C617 C618 1.362 1_565 S
C618 H610 0.930 1_545 S
C618 C617 1.362 1_545 S
C618 C621 1.409 . S
C619 H611 0.930 . S
C619 C620 1.355 . S
C619 C621 1.415 . S
C620 C619 1.355 . S
C620 C622 1.419 . S
C621 C616 1.425 . S
C621 C618 1.409 . S
C621 C619 1.415 . S
C622 H612 0.930 . S
C622 C620 1.419 . S
C622 C623 1.362 . S
C623 H613 0.930 . S
C623 C616 1.409 . S
C623 C622 1.362 . S
H624 C630 0.930 . S
H625 C633 0.930 . S
H626 C634 0.930 . S
H627 C635 0.930 . S
H628 C638 0.930 . S
H629 C639 0.930 . S
C630 H624 0.930 . S
C630 C631 1.355 . S
C630 C632 1.415 . S
C631 C630 1.355 . S
C631 C633 1.419 . S
C632 C630 1.415 . S
C632 C637 1.425 . S
C632 C639 1.409 . S
C633 H625 0.930 . S
C633 C631 1.419 . S
C633 C634 1.362 . S
C634 H626 0.930 . S
C634 C633 1.362 . S
C634 C637 1.409 . S
C635 H627 0.930 . S
C635 C636 1.355 . S
C635 C637 1.415 . S
C636 C635 1.355 . S
C636 C638 1.419 . S
C637 C632 1.425 . S
C637 C634 1.409 . S
C637 C635 1.415 . S
C638 H628 0.930 . S
C638 C636 1.419 . S
C638 C639 1.362 . S
C639 H629 0.930 . S
C639 C632 1.409 . S
C639 C638 1.362 . S
H640 C646 0.930 . S
H641 C649 0.930 . S
H642 C650 0.930 . S
H643 C651 0.930 . S
H644 C654 0.930 . S
H645 C655 0.930 . S
C646 H640 0.930 . S
C646 C647 1.355 . S
C646 C648 1.415 . S
C647 C646 1.355 . S
C647 C649 1.419 . S
C648 C646 1.415 . S
C648 C653 1.425 . S
C648 C655 1.409 . S
C649 H641 0.930 . S
C649 C647 1.419 . S
C649 C650 1.362 . S
C650 H642 0.930 . S
C650 C649 1.362 . S
C650 C653 1.409 . S
C651 H643 0.930 . S
C651 C652 1.355 . S
C651 C653 1.415 . S
C652 C651 1.355 . S
C652 C654 1.419 . S
C653 C648 1.425 . S
C653 C650 1.409 . S
C653 C651 1.415 . S
C654 H644 0.930 . S
C654 C652 1.419 . S
C654 C655 1.362 . S
C655 H645 0.930 . S
C655 C648 1.409 . S
C655 C654 1.362 . S
H656 C662 0.930 . S
H657 C665 0.930 . S
H658 C666 0.930 . S
H659 C667 0.930 . S
H660 C670 0.930 . S
H661 C671 0.930 . S
C662 H656 0.930 . S
C662 C663 1.355 . S
C662 C664 1.415 . S
C663 C662 1.355 . S
C663 C665 1.419 . S
C664 C662 1.415 . S
C664 C669 1.425 . S
C664 C671 1.409 . S
C665 H657 0.930 . S
C665 C663 1.419 . S
C665 C666 1.362 . S
C666 H658 0.930 . S
C666 C665 1.362 . S
C666 C669 1.409 . S
C667 H659 0.930 . S
C667 C668 1.355 . S
C667 C669 1.415 . S
C668 C667 1.355 . S
C668 C670 1.419 . S
C669 C664 1.425 . S
C669 C666 1.409 . S
C669 C667 1.415 . S
C670 H660 0.930 . S
C670 C668 1.419 . S
C670 C671 1.362 . S
C671 H661 0.930 . S
C671 C664 1.409 . S
C671 C670 1.362 . S
H672 C678 0.930 . S
H673 C681 0.930 . S
H674 C682 0.930 . S
H675 C683 0.930 . S
H676 C686 0.930 . S
H677 C687 0.930 . S
C678 H672 0.930 . S
C678 C679 1.355 . S
C678 C680 1.415 . S
C679 C678 1.355 . S
C679 C681 1.419 . S
C680 C678 1.415 . S
C680 C685 1.425 . S
C680 C687 1.409 . S
C681 H673 0.930 . S
C681 C679 1.419 . S
C681 C682 1.362 . S
C682 H674 0.930 . S
C682 C681 1.362 . S
C682 C685 1.409 . S
C683 H675 0.930 . S
C683 C684 1.355 . S
C683 C685 1.415 . S
C684 C683 1.355 . S
C684 C686 1.419 . S
C685 C680 1.425 . S
C685 C682 1.409 . S
C685 C683 1.415 . S
C686 H676 0.930 . S
C686 C684 1.419 . S
C686 C687 1.362 . S
C687 H677 0.930 . S
C687 C680 1.409 . S
C687 C686 1.362 . S
H688 C694 0.930 . S
H689 C697 0.921 1_655 S
H690 C698 0.917 1_655 S
H691 C699 0.930 . S
H692 C702 0.930 . S
H693 C703 0.930 . S
C694 H688 0.930 . S
C694 C695 1.355 . S
C694 C696 1.415 . S
C695 C694 1.355 . S
C695 C697 1.425 . S
C696 C694 1.415 . S
C696 C701 1.425 . S
C696 C703 1.409 . S
C697 H689 0.921 1_455 S
C697 C695 1.425 . S
C697 C698 1.366 . S
C698 H690 0.917 1_455 S
C698 C697 1.366 . S
C698 C701 1.409 . S
C699 H691 0.930 . S
C699 C700 1.355 . S
C699 C701 1.415 . S
C700 C699 1.355 . S
C700 C702 1.419 . S
C701 C696 1.425 . S
C701 C698 1.409 . S
C701 C699 1.415 . S
C702 H692 0.930 . S
C702 C700 1.419 . S
C702 C703 1.362 . S
C703 H693 0.930 . S
C703 C696 1.409 . S
C703 C702 1.362 . S
H704 C710 0.930 . S
H705 C713 0.930 . S
H706 C714 0.930 1_565 S
H707 C715 0.930 . S
H708 C718 0.930 . S
H709 C719 0.930 . S
C710 H704 0.930 . S
C710 C711 1.355 . S
C710 C712 1.415 . S
C711 C710 1.355 . S
C711 C713 1.419 1_545 S
C712 C710 1.415 . S
C712 C717 1.425 . S
C712 C719 1.409 . S
C713 H705 0.930 . S
C713 C711 1.419 1_565 S
C713 C714 1.362 1_565 S
C714 H706 0.930 1_545 S
C714 C713 1.362 1_545 S
C714 C717 1.409 . S
C715 H707 0.930 . S
C715 C716 1.355 . S
C715 C717 1.415 . S
C716 C715 1.355 . S
C716 C718 1.419 . S
C717 C712 1.425 . S
C717 C714 1.409 . S
C717 C715 1.415 . S
C718 H708 0.930 . S
C718 C716 1.419 . S
C718 C719 1.362 . S
C719 H709 0.930 . S
C719 C712 1.409 . S
C719 C718 1.362 . S
H720 C726 0.930 1_455 S
H721 C729 0.930 . S
H722 C730 0.930 . S
H723 C731 0.930 . S
H724 C734 0.930 . S
H725 C735 0.930 1_455 S
C726 H720 0.930 1_655 S
C726 C727 1.355 . S
C726 C728 1.415 . S
C727 C726 1.355 . S
C727 C729 1.419 . S
C728 C726 1.415 . S
C728 C733 1.425 . S
C728 C735 1.409 . S
C729 H721 0.930 . S
C729 C727 1.419 . S
C729 C730 1.362 . S
C730 H722 0.930 . S
C730 C729 1.362 . S
C730 C733 1.409 . S
C731 H723 0.930 . S
C731 C732 1.355 . S
C731 C733 1.415 . S
C732 C731 1.355 . S
C732 C734 1.419 . S
C733 C728 1.425 . S
C733 C730 1.409 . S
C733 C731 1.415 . S
C734 H724 0.930 . S
C734 C732 1.419 . S
C734 C735 1.362 . S
C735 H725 0.930 1_655 S
C735 C728 1.409 . S
C735 C734 1.362 . S
H736 C742 0.930 . S
H737 C745 0.930 . S
H738 C746 0.932 1_545 S
H739 C747 0.930 . S
H740 C750 0.930 . S
H741 C751 0.930 . S
C742 H736 0.930 . S
C742 C743 1.355 . S
C742 C744 1.415 . S
C743 C742 1.355 . S
C743 C745 1.419 1_565 S
C744 C742 1.415 . S
C744 C749 1.425 . S
C744 C751 1.409 . S
C745 H737 0.930 . S
C745 C743 1.419 1_545 S
C745 C746 1.363 1_545 S
C746 H738 0.932 1_565 S
C746 C745 1.363 1_565 S
C746 C749 1.407 . S
C747 H739 0.930 . S
C747 C748 1.355 . S
C747 C749 1.415 . S
C748 C747 1.355 . S
C748 C750 1.419 . S
C749 C744 1.425 . S
C749 C746 1.407 . S
C749 C747 1.415 . S
C750 H740 0.930 . S
C750 C748 1.419 . S
C750 C751 1.362 . S
C751 H741 0.930 . S
C751 C744 1.409 . S
C751 C750 1.362 . S
H752 C758 0.930 . S
H753 C761 0.930 . S
H754 C762 0.930 . S
H755 C763 0.930 . S
H756 C766 0.930 . S
H757 C767 0.930 . S
C758 H752 0.930 . S
C758 C759 1.355 . S
C758 C760 1.415 . S
C759 C758 1.355 . S
C759 C761 1.419 . S
C760 C758 1.415 . S
C760 C765 1.425 . S
C760 C767 1.409 . S
C761 H753 0.930 . S
C761 C759 1.419 . S
C761 C762 1.362 . S
C762 H754 0.930 . S
C762 C761 1.362 . S
C762 C765 1.409 . S
C763 H755 0.930 . S
C763 C764 1.355 . S
C763 C765 1.415 . S
C764 C763 1.355 . S
C764 C766 1.419 . S
C765 C760 1.425 . S
C765 C762 1.409 . S
C765 C763 1.415 . S
C766 H756 0.930 . S
C766 C764 1.419 . S
C766 C767 1.362 . S
C767 H757 0.930 . S
C767 C760 1.409 . S
C767 C766 1.362 . S
H768 C774 0.930 . S
H769 C777 0.930 . S
H770 C778 0.930 . S
H771 C779 0.930 . S
H772 C782 0.930 . S
H773 C783 0.930 . S
C774 H768 0.930 . S
C774 C775 1.355 . S
C774 C776 1.415 . S
C775 C774 1.355 . S
C775 C777 1.419 . S
C776 C774 1.415 . S
C776 C781 1.425 . S
C776 C783 1.409 . S
C777 H769 0.930 . S
C777 C775 1.419 . S
C777 C778 1.362 . S
C778 H770 0.930 . S
C778 C777 1.362 . S
C778 C781 1.409 . S
C779 H771 0.930 . S
C779 C780 1.355 . S
C779 C781 1.415 . S
C780 C779 1.355 . S
C780 C782 1.419 . S
C781 C776 1.425 . S
C781 C778 1.409 . S
C781 C779 1.415 . S
C782 H772 0.930 . S
C782 C780 1.419 . S
C782 C783 1.362 . S
C783 H773 0.930 . S
C783 C776 1.409 . S
C783 C782 1.362 . S
H784 C790 0.930 . S
H785 C793 0.930 . S
H786 C794 0.930 . S
H787 C795 0.930 . S
H788 C798 0.930 . S
H789 C799 0.930 . S
C790 H784 0.930 . S
C790 C791 1.355 . S
C790 C792 1.415 . S
C791 C790 1.355 . S
C791 C793 1.419 . S
C792 C790 1.415 . S
C792 C797 1.425 . S
C792 C799 1.409 . S
C793 H785 0.930 . S
C793 C791 1.419 . S
C793 C794 1.362 . S
C794 H786 0.930 . S
C794 C793 1.362 . S
C794 C797 1.409 . S
C795 H787 0.930 . S
C795 C796 1.355 . S
C795 C797 1.415 . S
C796 C795 1.355 . S
C796 C798 1.419 . S
C797 C792 1.425 . S
C797 C794 1.409 . S
C797 C795 1.415 . S
C798 H788 0.930 . S
C798 C796 1.419 . S
C798 C799 1.362 . S
C799 H789 0.930 . S
C799 C792 1.409 . S
C799 C798 1.362 . S
H800 C806 0.930 . S
H801 C809 0.930 . S
H802 C810 0.930 . S
H803 C811 0.930 . S
H804 C814 0.930 . S
H805 C815 0.930 . S
C806 H800 0.930 . S
C806 C807 1.355 . S
C806 C808 1.415 . S
C807 C806 1.355 . S
C807 C809 1.419 . S
C808 C806 1.415 . S
C808 C813 1.425 . S
C808 C815 1.409 . S
C809 H801 0.930 . S
C809 C807 1.419 . S
C809 C810 1.362 . S
C810 H802 0.930 . S
C810 C809 1.362 . S
C810 C813 1.409 . S
C811 H803 0.930 . S
C811 C812 1.355 . S
C811 C813 1.415 . S
C812 C811 1.355 . S
C812 C814 1.419 . S
C813 C808 1.425 . S
C813 C810 1.409 . S
C813 C811 1.415 . S
C814 H804 0.930 . S
C814 C812 1.419 . S
C814 C815 1.362 . S
C815 H805 0.930 . S
C815 C808 1.409 . S
C815 C814 1.362 . S
H816 C822 0.930 . S
H817 C825 0.930 . S
H818 C826 0.930 . S
H819 C827 0.930 . S
H820 C830 0.930 . S
H821 C831 0.930 . S
C822 H816 0.930 . S
C822 C823 1.355 . S
C822 C824 1.415 . S
C823 C822 1.355 . S
C823 C825 1.419 . S
C824 C822 1.415 . S
C824 C829 1.425 . S
C824 C831 1.409 . S
C825 H817 0.930 . S
C825 C823 1.419 . S
C825 C826 1.362 . S
C826 H818 0.930 . S
C826 C825 1.362 . S
C826 C829 1.409 . S
C827 H819 0.930 . S
C827 C828 1.355 . S
C827 C829 1.415 . S
C828 C827 1.355 . S
C828 C830 1.419 . S
C829 C824 1.425 . S
C829 C826 1.409 . S
C829 C827 1.415 . S
C830 H820 0.930 . S
C830 C828 1.419 . S
C830 C831 1.362 . S
C831 H821 0.930 . S
C831 C824 1.409 . S
C831 C830 1.362 . S
H832 C838 0.930 . S
H833 C841 0.930 . S
H834 C842 0.930 . S
H835 C843 0.930 . S
H836 C846 0.930 . S
H837 C847 0.930 . S
C838 H832 0.930 . S
C838 C839 1.355 . S
C838 C840 1.415 . S
C839 C838 1.355 . S
C839 C841 1.419 . S
C840 C838 1.415 . S
C840 C845 1.425 . S
C840 C847 1.409 . S
C841 H833 0.930 . S
C841 C839 1.419 . S
C841 C842 1.362 . S
C842 H834 0.930 . S
C842 C841 1.362 . S
C842 C845 1.409 . S
C843 H835 0.930 . S
C843 C844 1.355 . S
C843 C845 1.415 . S
C844 C843 1.355 . S
C844 C846 1.419 . S
C845 C840 1.425 . S
C845 C842 1.409 . S
C845 C843 1.415 . S
C846 H836 0.930 . S
C846 C844 1.419 . S
C846 C847 1.362 . S
C847 H837 0.930 . S
C847 C840 1.409 . S
C847 C846 1.362 . S
H848 C854 0.930 . S
H849 C857 0.930 . S
H850 C858 0.930 . S
H851 C859 0.930 . S
H852 C862 0.930 . S
H853 C863 0.930 . S
C854 H848 0.930 . S
C854 C855 1.355 . S
C854 C856 1.415 . S
C855 C854 1.355 . S
C855 C857 1.419 . S
C856 C854 1.415 . S
C856 C861 1.425 . S
C856 C863 1.409 . S
C857 H849 0.930 . S
C857 C855 1.419 . S
C857 C858 1.362 . S
C858 H850 0.930 . S
C858 C857 1.362 . S
C858 C861 1.409 . S
C859 H851 0.930 . S
C859 C860 1.355 . S
C859 C861 1.415 . S
C860 C859 1.355 . S
C860 C862 1.419 . S
C861 C856 1.425 . S
C861 C858 1.409 . S
C861 C859 1.415 . S
C862 H852 0.930 . S
C862 C860 1.419 . S
C862 C863 1.362 . S
C863 H853 0.930 . S
C863 C856 1.409 . S
C863 C862 1.362 . S
H864 C870 0.930 . S
H865 C873 0.930 . S
H866 C874 0.930 . S
H867 C875 0.930 . S
H868 C878 0.930 . S
H869 C879 0.930 . S
C870 H864 0.930 . S
C870 C871 1.355 . S
C870 C872 1.415 . S
C871 C870 1.355 . S
C871 C873 1.419 . S
C872 C870 1.415 . S
C872 C877 1.425 . S
C872 C879 1.409 . S
C873 H865 0.930 . S
C873 C871 1.419 . S
C873 C874 1.362 . S
C874 H866 0.930 . S
C874 C873 1.362 . S
C874 C877 1.409 . S
C875 H867 0.930 . S
C875 C876 1.355 . S
C875 C877 1.415 . S
C876 C875 1.355 . S
C876 C878 1.419 . S
C877 C872 1.425 . S
C877 C874 1.409 . S
C877 C875 1.415 . S
C878 H868 0.930 . S
C878 C876 1.419 . S
C878 C879 1.362 . S
C879 H869 0.930 . S
C879 C872 1.409 . S
C879 C878 1.362 . S
H880 C886 0.930 . S
H881 C889 0.930 . S
H882 C890 0.930 . S
H883 C891 0.930 . S
H884 C894 0.930 . S
H885 C895 0.930 . S
C886 H880 0.930 . S
C886 C887 1.355 . S
C886 C888 1.415 . S
C887 C886 1.355 . S
C887 C889 1.419 . S
C888 C886 1.415 . S
C888 C893 1.425 . S
C888 C895 1.409 . S
C889 H881 0.930 . S
C889 C887 1.419 . S
C889 C890 1.362 . S
C890 H882 0.930 . S
C890 C889 1.362 . S
C890 C893 1.409 . S
C891 H883 0.930 . S
C891 C892 1.355 . S
C891 C893 1.415 . S
C892 C891 1.355 . S
C892 C894 1.419 . S
C893 C888 1.425 . S
C893 C890 1.409 . S
C893 C891 1.415 . S
C894 H884 0.930 . S
C894 C892 1.419 . S
C894 C895 1.362 . S
C895 H885 0.930 . S
C895 C888 1.409 . S
C895 C894 1.362 . S
H896 C902 0.930 . S
H897 C905 0.930 . S
H898 C906 0.930 . S
H899 C907 0.930 . S
H900 C910 0.930 . S
H901 C911 0.930 . S
C902 H896 0.930 . S
C902 C903 1.355 . S
C902 C904 1.415 . S
C903 C902 1.355 . S
C903 C905 1.419 . S
C904 C902 1.415 . S
C904 C909 1.425 . S
C904 C911 1.409 . S
C905 H897 0.930 . S
C905 C903 1.419 . S
C905 C906 1.362 . S
C906 H898 0.930 . S
C906 C905 1.362 . S
C906 C909 1.409 . S
C907 H899 0.930 . S
C907 C908 1.355 . S
C907 C909 1.415 . S
C908 C907 1.355 . S
C908 C910 1.419 . S
C909 C904 1.425 . S
C909 C906 1.409 . S
C909 C907 1.415 . S
C910 H900 0.930 . S
C910 C908 1.419 . S
C910 C911 1.362 . S
C911 H901 0.930 . S
C911 C904 1.409 . S
C911 C910 1.362 . S
H912 C918 0.930 . S
H913 C921 0.930 . S
H914 C922 0.930 . S
H915 C923 0.930 . S
H916 C926 0.930 . S
H917 C927 0.930 . S
C918 H912 0.930 . S
C918 C919 1.355 1_565 S
C918 C920 1.415 . S
C919 C918 1.355 1_545 S
C919 C921 1.419 . S
C920 C918 1.415 . S
C920 C925 1.425 1_564 S
C920 C927 1.409 . S
C921 H913 0.930 . S
C921 C919 1.419 . S
C921 C922 1.362 1_554 S
C922 H914 0.930 . S
C922 C921 1.362 1_556 S
C922 C925 1.409 . S
C923 H915 0.930 . S
C923 C924 1.355 1_545 S
C923 C925 1.415 . S
C924 C923 1.355 1_565 S
C924 C926 1.419 . S
C925 C920 1.425 1_546 S
C925 C922 1.409 . S
C925 C923 1.415 . S
C926 H916 0.930 . S
C926 C924 1.419 . S
C926 C927 1.362 1_556 S
C927 H917 0.930 . S
C927 C920 1.409 . S
C927 C926 1.362 1_554 S
H928 C934 0.930 . S
H929 C937 0.930 . S
H930 C938 0.930 . S
H931 C939 0.930 . S
H932 C942 0.930 . S
H933 C943 0.930 . S
C934 H928 0.930 . S
C934 C935 1.355 . S
C934 C936 1.415 . S
C935 C934 1.355 . S
C935 C937 1.419 . S
C936 C934 1.415 . S
C936 C941 1.425 1_554 S
C936 C943 1.409 . S
C937 H929 0.930 . S
C937 C935 1.419 . S
C937 C938 1.362 1_554 S
C938 H930 0.930 . S
C938 C937 1.362 1_556 S
C938 C941 1.409 . S
C939 H931 0.930 . S
C939 C940 1.355 . S
C939 C941 1.415 . S
C940 C939 1.355 . S
C940 C942 1.419 . S
C941 C936 1.425 1_556 S
C941 C938 1.409 . S
C941 C939 1.415 . S
C942 H932 0.930 . S
C942 C940 1.419 . S
C942 C943 1.362 1_556 S
C943 H933 0.930 . S
C943 C936 1.409 . S
C943 C942 1.362 1_554 S
H944 C950 0.930 1_556 S
H945 C953 0.930 . S
H946 C954 0.930 . S
H947 C955 0.930 1_554 S
H948 C958 0.930 . S
H949 C959 0.930 . S
C950 H944 0.930 1_554 S
C950 C951 1.355 . S
C950 C952 1.415 1_554 S
C951 C950 1.355 . S
C951 C953 1.419 . S
C952 C950 1.415 1_556 S
C952 C957 1.425 1_656 S
C952 C959 1.409 . S
C953 H945 0.930 . S
C953 C951 1.419 . S
C953 C954 1.362 1_655 S
C954 H946 0.930 . S
C954 C953 1.362 1_455 S
C954 C957 1.409 . S
C955 H947 0.930 1_556 S
C955 C956 1.355 . S
C955 C957 1.415 1_556 S
C956 C955 1.355 . S
C956 C958 1.419 . S
C957 C952 1.425 1_454 S
C957 C954 1.409 . S
C957 C955 1.415 1_554 S
C958 H948 0.930 . S
C958 C956 1.419 . S
C958 C959 1.362 1_455 S
C959 H949 0.930 . S
C959 C952 1.409 . S
C959 C958 1.362 1_655 S
H960 C966 0.930 . S
H961 C969 0.930 . S
H962 C970 0.930 . S
H963 C971 0.930 . S
H964 C974 0.930 . S
H965 C975 0.930 . S
C966 H960 0.930 . S
C966 C967 1.355 1_455 S
C966 C968 1.415 . S
C967 C966 1.355 1_655 S
C967 C969 1.419 1_556 S
C968 C966 1.415 . S
C968 C973 1.425 1_446 S
C968 C975 1.409 1_545 S
C969 H961 0.930 . S
C969 C967 1.419 1_554 S
C969 C970 1.362 . S
C970 H962 0.930 . S
C970 C969 1.362 . S
C970 C973 1.409 1_545 S
C971 H963 0.930 . S
C971 C972 1.355 1_655 S
C971 C973 1.415 . S
C972 C971 1.355 1_455 S
C972 C974 1.419 1_554 S
C973 C968 1.425 1_664 S
C973 C970 1.409 1_565 S
C973 C971 1.415 . S
C974 H964 0.930 . S
C974 C972 1.419 1_556 S
C974 C975 1.362 . S
C975 H965 0.930 . S
C975 C968 1.409 1_565 S
C975 C974 1.362 . S
H976 C982 0.930 1_565 S
H977 C985 0.930 . S
H978 C986 0.930 . S
H979 C987 0.930 1_545 S
H980 C990 0.930 . S
H981 C991 0.930 . S
C982 H976 0.930 1_545 S
C982 C983 1.355 . S
C982 C984 1.415 1_545 S
C983 C982 1.355 . S
C983 C985 1.419 . S
C984 C982 1.415 1_565 S
C984 C989 1.425 1_665 S
C984 C991 1.409 . S
C985 H977 0.930 . S
C985 C983 1.419 . S
C985 C986 1.362 1_655 S
C986 H978 0.930 . S
C986 C985 1.362 1_455 S
C986 C989 1.409 . S
C987 H979 0.930 1_565 S
C987 C988 1.355 . S
C987 C989 1.415 1_565 S
C988 C987 1.355 . S
C988 C990 1.419 . S
C989 C984 1.425 1_445 S
C989 C986 1.409 . S
C989 C987 1.415 1_545 S
C990 H980 0.930 . S
C990 C988 1.419 . S
C990 C991 1.362 1_455 S
C991 H981 0.930 . S
C991 C984 1.409 . S
C991 C990 1.362 1_655 S
H992 C998 0.930 . S
H993 C1001 0.930 . S
H994 C1002 0.930 . S
H995 C1003 0.930 . S
H996 C1006 0.930 . S
H997 C1007 0.930 . S
C998 H992 0.930 . S
C998 C999 1.355 . S
C998 C1000 1.415 . S
C999 C998 1.355 . S
C999 C1001 1.419 . S
C1000 C998 1.415 . S
C1000 C1005 1.425 1_545 S
C1000 C1007 1.409 . S
C1001 H993 0.930 . S
C1001 C999 1.419 . S
C1001 C1002 1.362 1_545 S
C1002 H994 0.930 . S
C1002 C1001 1.362 1_565 S
C1002 C1005 1.409 . S
C1003 H995 0.930 . S
C1003 C1004 1.355 . S
C1003 C1005 1.415 . S
C1004 C1003 1.355 . S
C1004 C1006 1.419 . S
C1005 C1000 1.425 1_565 S
C1005 C1002 1.409 . S
C1005 C1003 1.415 . S
C1006 H996 0.930 . S
C1006 C1004 1.419 . S
C1006 C1007 1.362 1_565 S
C1007 H997 0.930 . S
C1007 C1000 1.409 . S
C1007 C1006 1.362 1_545 S
H1008 C1014 0.930 . S
H1009 C1017 0.930 . S
H1010 C1018 0.930 . S
H1011 C1019 0.930 . S
H1012 C1022 0.930 . S
H1013 C1023 0.930 . S
C1014 H1008 0.930 . S
C1014 C1015 1.355 . S
C1014 C1016 1.415 . S
C1015 C1014 1.355 . S
C1015 C1017 1.419 . S
C1016 C1014 1.415 . S
C1016 C1021 1.425 . S
C1016 C1023 1.409 . S
C1017 H1009 0.930 . S
C1017 C1015 1.419 . S
C1017 C1018 1.362 . S
C1018 H1010 0.930 . S
C1018 C1017 1.362 . S
C1018 C1021 1.409 . S
C1019 H1011 0.930 . S
C1019 C1020 1.355 . S
C1019 C1021 1.415 . S
C1020 C1019 1.355 . S
C1020 C1022 1.419 . S
C1021 C1016 1.425 . S
C1021 C1018 1.409 . S
C1021 C1019 1.415 . S
C1022 H1012 0.930 . S
C1022 C1020 1.419 . S
C1022 C1023 1.362 . S
C1023 H1013 0.930 . S
C1023 C1016 1.409 . S
C1023 C1022 1.362 . S
H1024 C1030 0.930 . S
H1025 C1033 0.930 . S
H1026 C1034 0.930 . S
H1027 C1035 0.930 . S
H1028 C1038 0.930 . S
H1029 C1039 0.930 . S
C1030 H1024 0.930 . S
C1030 C1031 1.355 . S
C1030 C1032 1.415 . S
C1031 C1030 1.355 . S
C1031 C1033 1.419 1_455 S
C1032 C1030 1.415 . S
C1032 C1037 1.425 1_455 S
C1032 C1039 1.409 . S
C1033 H1025 0.930 . S
C1033 C1031 1.419 1_655 S
C1033 C1034 1.362 . S
C1034 H1026 0.930 . S
C1034 C1033 1.362 . S
C1034 C1037 1.409 . S
C1035 H1027 0.930 . S
C1035 C1036 1.355 . S
C1035 C1037 1.415 . S
C1036 C1035 1.355 . S
C1036 C1038 1.419 1_655 S
C1037 C1032 1.425 1_655 S
C1037 C1034 1.409 . S
C1037 C1035 1.415 . S
C1038 H1028 0.930 . S
C1038 C1036 1.419 1_455 S
C1038 C1039 1.362 . S
C1039 H1029 0.930 . S
C1039 C1032 1.409 . S
C1039 C1038 1.362 . S
H1040 C1046 0.930 . S
H1041 C1049 0.930 . S
H1042 C1050 0.930 . S
H1043 C1051 0.930 . S
H1044 C1054 0.930 . S
H1045 C1055 0.930 . S
C1046 H1040 0.930 . S
C1046 C1047 1.355 . S
C1046 C1048 1.415 . S
C1047 C1046 1.355 . S
C1047 C1049 1.419 . S
C1048 C1046 1.415 . S
C1048 C1053 1.425 . S
C1048 C1055 1.409 . S
C1049 H1041 0.930 . S
C1049 C1047 1.419 . S
C1049 C1050 1.362 . S
C1050 H1042 0.930 . S
C1050 C1049 1.362 . S
C1050 C1053 1.409 . S
C1051 H1043 0.930 . S
C1051 C1052 1.355 . S
C1051 C1053 1.415 . S
C1052 C1051 1.355 . S
C1052 C1054 1.419 . S
C1053 C1048 1.425 . S
C1053 C1050 1.409 . S
C1053 C1051 1.415 . S
C1054 H1044 0.930 . S
C1054 C1052 1.419 . S
C1054 C1055 1.362 . S
C1055 H1045 0.930 . S
C1055 C1048 1.409 . S
C1055 C1054 1.362 . S
H1056 C1062 0.930 . S
H1057 C1065 0.930 . S
H1058 C1066 0.930 . S
H1059 C1067 0.930 . S
H1060 C1070 0.930 . S
H1061 C1071 0.930 . S
C1062 H1056 0.930 . S
C1062 C1063 1.355 . S
C1062 C1064 1.415 . S
C1063 C1062 1.355 . S
C1063 C1065 1.419 . S
C1064 C1062 1.415 . S
C1064 C1069 1.425 . S
C1064 C1071 1.409 . S
C1065 H1057 0.930 . S
C1065 C1063 1.419 . S
C1065 C1066 1.362 . S
C1066 H1058 0.930 . S
C1066 C1065 1.362 . S
C1066 C1069 1.409 . S
C1067 H1059 0.930 . S
C1067 C1068 1.355 . S
C1067 C1069 1.415 . S
C1068 C1067 1.355 . S
C1068 C1070 1.419 . S
C1069 C1064 1.425 . S
C1069 C1066 1.409 . S
C1069 C1067 1.415 . S
C1070 H1060 0.930 . S
C1070 C1068 1.419 . S
C1070 C1071 1.362 . S
C1071 H1061 0.930 . S
C1071 C1064 1.409 . S
C1071 C1070 1.362 . S
H1072 C1078 0.930 . S
H1073 C1081 0.930 . S
H1074 C1082 0.930 . S
H1075 C1083 0.930 . S
H1076 C1086 0.930 . S
H1077 C1087 0.930 . S
C1078 H1072 0.930 . S
C1078 C1079 1.355 . S
C1078 C1080 1.415 . S
C1079 C1078 1.355 . S
C1079 C1081 1.419 . S
C1080 C1078 1.415 . S
C1080 C1085 1.425 . S
C1080 C1087 1.409 . S
C1081 H1073 0.930 . S
C1081 C1079 1.419 . S
C1081 C1082 1.362 . S
C1082 H1074 0.930 . S
C1082 C1081 1.362 . S
C1082 C1085 1.409 . S
C1083 H1075 0.930 . S
C1083 C1084 1.355 . S
C1083 C1085 1.415 . S
C1084 C1083 1.355 . S
C1084 C1086 1.419 . S
C1085 C1080 1.425 . S
C1085 C1082 1.409 . S
C1085 C1083 1.415 . S
C1086 H1076 0.930 . S
C1086 C1084 1.419 . S
C1086 C1087 1.362 . S
C1087 H1077 0.930 . S
C1087 C1080 1.409 . S
C1087 C1086 1.362 . S
H1088 C1094 0.930 . S
H1089 C1097 0.930 . S
H1090 C1098 0.930 . S
H1091 C1099 0.930 . S
H1092 C1102 0.930 . S
H1093 C1103 0.930 . S
C1094 H1088 0.930 . S
C1094 C1095 1.355 . S
C1094 C1096 1.415 . S
C1095 C1094 1.355 . S
C1095 C1097 1.419 . S
C1096 C1094 1.415 . S
C1096 C1101 1.425 . S
C1096 C1103 1.409 . S
C1097 H1089 0.930 . S
C1097 C1095 1.419 . S
C1097 C1098 1.362 . S
C1098 H1090 0.930 . S
C1098 C1097 1.362 . S
C1098 C1101 1.409 . S
C1099 H1091 0.930 . S
C1099 C1100 1.355 . S
C1099 C1101 1.415 . S
C1100 C1099 1.355 . S
C1100 C1102 1.419 . S
C1101 C1096 1.425 . S
C1101 C1098 1.409 . S
C1101 C1099 1.415 . S
C1102 H1092 0.930 . S
C1102 C1100 1.419 . S
C1102 C1103 1.362 . S
C1103 H1093 0.930 . S
C1103 C1096 1.409 . S
C1103 C1102 1.362 . S
H1104 C1110 0.930 . S
H1105 C1113 0.930 . S
H1106 C1114 0.930 . S
H1107 C1115 0.930 . S
H1108 C1118 0.930 . S
H1109 C1119 0.930 . S
C1110 H1104 0.930 . S
C1110 C1111 1.355 . S
C1110 C1112 1.415 . S
C1111 C1110 1.355 . S
C1111 C1113 1.419 . S
C1112 C1110 1.415 . S
C1112 C1117 1.425 . S
C1112 C1119 1.409 . S
C1113 H1105 0.930 . S
C1113 C1111 1.419 . S
C1113 C1114 1.362 . S
C1114 H1106 0.930 . S
C1114 C1113 1.362 . S
C1114 C1117 1.409 . S
C1115 H1107 0.930 . S
C1115 C1116 1.355 . S
C1115 C1117 1.415 . S
C1116 C1115 1.355 . S
C1116 C1118 1.419 . S
C1117 C1112 1.425 . S
C1117 C1114 1.409 . S
C1117 C1115 1.415 . S
C1118 H1108 0.930 . S
C1118 C1116 1.419 . S
C1118 C1119 1.362 . S
C1119 H1109 0.930 . S
C1119 C1112 1.409 . S
C1119 C1118 1.362 . S
H1120 C1126 0.930 . S
H1121 C1129 0.930 . S
H1122 C1130 0.930 . S
H1123 C1131 0.930 . S
H1124 C1134 0.930 . S
H1125 C1135 0.930 . S
C1126 H1120 0.930 . S
C1126 C1127 1.355 . S
C1126 C1128 1.415 . S
C1127 C1126 1.355 . S
C1127 C1129 1.419 . S
C1128 C1126 1.415 . S
C1128 C1133 1.425 . S
C1128 C1135 1.409 . S
C1129 H1121 0.930 . S
C1129 C1127 1.419 . S
C1129 C1130 1.362 . S
C1130 H1122 0.930 . S
C1130 C1129 1.362 . S
C1130 C1133 1.409 . S
C1131 H1123 0.930 . S
C1131 C1132 1.355 . S
C1131 C1133 1.415 . S
C1132 C1131 1.355 . S
C1132 C1134 1.419 . S
C1133 C1128 1.425 . S
C1133 C1130 1.409 . S
C1133 C1131 1.415 . S
C1134 H1124 0.930 . S
C1134 C1132 1.419 . S
C1134 C1135 1.362 . S
C1135 H1125 0.930 . S
C1135 C1128 1.409 . S
C1135 C1134 1.362 . S
H1136 C1142 0.930 . S
H1137 C1145 0.930 . S
H1138 C1146 0.930 . S
H1139 C1147 0.930 . S
H1140 C1150 0.930 . S
H1141 C1151 0.930 . S
C1142 H1136 0.930 . S
C1142 C1143 1.355 . S
C1142 C1144 1.415 . S
C1143 C1142 1.355 . S
C1143 C1145 1.419 . S
C1144 C1142 1.415 . S
C1144 C1149 1.425 . S
C1144 C1151 1.409 . S
C1145 H1137 0.930 . S
C1145 C1143 1.419 . S
C1145 C1146 1.362 . S
C1146 H1138 0.930 . S
C1146 C1145 1.362 . S
C1146 C1149 1.409 . S
C1147 H1139 0.930 . S
C1147 C1148 1.355 . S
C1147 C1149 1.415 . S
C1148 C1147 1.355 . S
C1148 C1150 1.419 . S
C1149 C1144 1.425 . S
C1149 C1146 1.409 . S
C1149 C1147 1.415 . S
C1150 H1140 0.930 . S
C1150 C1148 1.419 . S
C1150 C1151 1.362 . S
C1151 H1141 0.930 . S
C1151 C1144 1.409 . S
C1151 C1150 1.362 . S
H1152 C1158 0.930 . S
H1153 C1161 0.930 . S
H1154 C1162 0.930 . S
H1155 C1163 0.930 . S
H1156 C1166 0.930 . S
H1157 C1167 0.930 . S
C1158 H1152 0.930 . S
C1158 C1159 1.355 . S
C1158 C1160 1.415 . S
C1159 C1158 1.355 . S
C1159 C1161 1.419 . S
C1160 C1158 1.415 . S
C1160 C1165 1.425 . S
C1160 C1167 1.409 . S
C1161 H1153 0.930 . S
C1161 C1159 1.419 . S
C1161 C1162 1.362 . S
C1162 H1154 0.930 . S
C1162 C1161 1.362 . S
C1162 C1165 1.409 . S
C1163 H1155 0.930 . S
C1163 C1164 1.355 . S
C1163 C1165 1.415 . S
C1164 C1163 1.355 . S
C1164 C1166 1.419 . S
C1165 C1160 1.425 . S
C1165 C1162 1.409 . S
C1165 C1163 1.415 . S
C1166 H1156 0.930 . S
C1166 C1164 1.419 . S
C1166 C1167 1.362 . S
C1167 H1157 0.930 . S
C1167 C1160 1.409 . S
C1167 C1166 1.362 . S
C535 N14 0.988 . S
C540 C50 0.968 . S
C551 C83 0.957 . S
C556 N47 0.943 . S
C567 C116 0.929 . S
C572 N80 0.971 . S
C583 N113 0.945 . S
C588 C17 0.986 . S
C599 C248 0.959 . S
C604 N146 0.942 . S
C615 C149 0.931 . S
C620 N179 0.964 . S
C631 C182 0.938 . S
C636 N212 0.953 . S
C647 N245 0.941 . S
C652 C215 0.973 . S
C663 N278 0.990 . S
C668 C314 0.960 . S
C679 N311 0.985 . S
C684 C347 0.976 . S
C695 C380 0.986 . S
C700 N344 0.945 . S
C711 C281 0.953 . S
C716 N377 0.944 . S
C727 C512 0.947 . S
C732 N410 0.989 . S
C743 C413 0.961 . S
C748 N443 0.942 . S
C759 N476 0.981 . S
C764 C446 0.982 . S
C775 N509 0.947 . S
C780 C479 0.948 . S
C791 N5 1.874 . S
C796 N71 1.861 . S
C807 N38 1.854 . S
C812 N104 1.882 . S
C823 N203 1.877 . S
C828 N137 1.857 . S
C839 N236 1.865 . S
C844 N170 1.870 . S
C855 N335 1.871 . S
C860 N269 1.863 . S
C871 N302 1.882 . S
C876 N368 1.854 . S
C887 N401 1.858 . S
C892 N467 1.879 . S
C903 N434 1.862 . S
C908 N500 1.873 . S
C919 C8 1.830 . S
C924 C272 1.830 . S
C935 C41 1.831 . S
C940 C305 1.831 . S
C951 C74 1.808 . S
C956 C338 1.808 . S
C967 C371 1.830 . S
C972 C107 1.830 . S
C983 C404 1.789 . S
C988 C140 1.789 . S
C999 C173 1.820 . S
C1004 C437 1.820 . S
C1015 C206 1.801 . S
C1020 C470 1.801 . S
C1031 C503 1.778 . S
C1036 C239 1.778 . S
C1047 C193 1.586 . S
C1052 C28 1.569 . S
C1063 C226 1.584 . S
C1068 C61 1.584 . S
C1079 C94 1.589 . S
C1084 C259 1.577 . S
C1095 C160 1.574 . S
C1100 C127 1.589 . S
C1111 C292 1.584 . S
C1116 C457 1.569 . S
C1127 C490 1.569 . S
C1132 C325 1.586 . S
C1143 C523 1.569 . S
C1148 C358 1.581 . S
C1159 C391 1.585 . S
C1164 C424 1.582 . S
