# Generated by pormake.
# Topology fnd, (5)-cn, num edge types: 1
# Building blocks:
#     Node 0, Type 0, BuildingBlock: XOMCOT_clean_sbu_0, # of connection points: 5
#     Node 1, Type 0, BuildingBlock: XOMCOT_clean_sbu_0, # of connection points: 5
#     Node 2, Type 0, BuildingBlock: XOMCOT_clean_sbu_0, # of connection points: 5
#     Node 3, Type 0, BuildingBlock: XOMCOT_clean_sbu_0, # of connection points: 5
#     Node 4, Type 0, BuildingBlock: XOMCOT_clean_sbu_0, # of connection points: 5
#     Node 5, Type 0, BuildingBlock: XOMCOT_clean_sbu_0, # of connection points: 5
#     Node 6, Type 0, BuildingBlock: XOMCOT_clean_sbu_0, # of connection points: 5
#     Node 7, Type 0, BuildingBlock: XOMCOT_clean_sbu_0, # of connection points: 5
#     Node 8, Type 0, BuildingBlock: XOMCOT_clean_sbu_0, # of connection points: 5
#     Node 9, Type 0, BuildingBlock: XOMCOT_clean_sbu_0, # of connection points: 5
#     Node 10, Type 0, BuildingBlock: XOMCOT_clean_sbu_0, # of connection points: 5
#     Node 11, Type 0, BuildingBlock: XOMCOT_clean_sbu_0, # of connection points: 5
#     Node 12, Type 0, BuildingBlock: XOMCOT_clean_sbu_0, # of connection points: 5
#     Node 13, Type 0, BuildingBlock: XOMCOT_clean_sbu_0, # of connection points: 5
#     Node 14, Type 0, BuildingBlock: XOMCOT_clean_sbu_0, # of connection points: 5
#     Node 15, Type 0, BuildingBlock: XOMCOT_clean_sbu_0, # of connection points: 5
#     Node 16, Type 0, BuildingBlock: XOMCOT_clean_sbu_0, # of connection points: 5
#     Node 17, Type 0, BuildingBlock: XOMCOT_clean_sbu_0, # of connection points: 5
#     Edge 18, Type (0, 0), BuildingBlock: CIFDUS_clean_linker_0, # of connection points: 2
#     Edge 19, Type (0, 0), BuildingBlock: CIFDUS_clean_linker_0, # of connection points: 2
#     Edge 20, Type (0, 0), BuildingBlock: CIFDUS_clean_linker_0, # of connection points: 2
#     Edge 21, Type (0, 0), BuildingBlock: CIFDUS_clean_linker_0, # of connection points: 2
#     Edge 22, Type (0, 0), BuildingBlock: CIFDUS_clean_linker_0, # of connection points: 2
#     Edge 23, Type (0, 0), BuildingBlock: CIFDUS_clean_linker_0, # of connection points: 2
#     Edge 24, Type (0, 0), BuildingBlock: CIFDUS_clean_linker_0, # of connection points: 2
#     Edge 25, Type (0, 0), BuildingBlock: CIFDUS_clean_linker_0, # of connection points: 2
#     Edge 26, Type (0, 0), BuildingBlock: CIFDUS_clean_linker_0, # of connection points: 2
#     Edge 27, Type (0, 0), BuildingBlock: CIFDUS_clean_linker_0, # of connection points: 2
#     Edge 28, Type (0, 0), BuildingBlock: CIFDUS_clean_linker_0, # of connection points: 2
#     Edge 29, Type (0, 0), BuildingBlock: CIFDUS_clean_linker_0, # of connection points: 2
#     Edge 30, Type (0, 0), BuildingBlock: CIFDUS_clean_linker_0, # of connection points: 2
#     Edge 31, Type (0, 0), BuildingBlock: CIFDUS_clean_linker_0, # of connection points: 2
#     Edge 32, Type (0, 0), BuildingBlock: CIFDUS_clean_linker_0, # of connection points: 2
#     Edge 33, Type (0, 0), BuildingBlock: CIFDUS_clean_linker_0, # of connection points: 2
#     Edge 34, Type (0, 0), BuildingBlock: CIFDUS_clean_linker_0, # of connection points: 2
#     Edge 35, Type (0, 0), BuildingBlock: CIFDUS_clean_linker_0, # of connection points: 2
#     Edge 36, Type (0, 0), BuildingBlock: CIFDUS_clean_linker_0, # of connection points: 2
#     Edge 37, Type (0, 0), BuildingBlock: CIFDUS_clean_linker_0, # of connection points: 2
#     Edge 38, Type (0, 0), BuildingBlock: CIFDUS_clean_linker_0, # of connection points: 2
#     Edge 39, Type (0, 0), BuildingBlock: CIFDUS_clean_linker_0, # of connection points: 2
#     Edge 40, Type (0, 0), BuildingBlock: CIFDUS_clean_linker_0, # of connection points: 2
#     Edge 41, Type (0, 0), BuildingBlock: CIFDUS_clean_linker_0, # of connection points: 2
#     Edge 42, Type (0, 0), BuildingBlock: CIFDUS_clean_linker_0, # of connection points: 2
#     Edge 43, Type (0, 0), BuildingBlock: CIFDUS_clean_linker_0, # of connection points: 2
#     Edge 44, Type (0, 0), BuildingBlock: CIFDUS_clean_linker_0, # of connection points: 2
#     Edge 45, Type (0, 0), BuildingBlock: CIFDUS_clean_linker_0, # of connection points: 2
#     Edge 46, Type (0, 0), BuildingBlock: CIFDUS_clean_linker_0, # of connection points: 2
#     Edge 47, Type (0, 0), BuildingBlock: CIFDUS_clean_linker_0, # of connection points: 2
#     Edge 48, Type (0, 0), BuildingBlock: CIFDUS_clean_linker_0, # of connection points: 2
#     Edge 49, Type (0, 0), BuildingBlock: CIFDUS_clean_linker_0, # of connection points: 2
#     Edge 50, Type (0, 0), BuildingBlock: CIFDUS_clean_linker_0, # of connection points: 2
#     Edge 51, Type (0, 0), BuildingBlock: CIFDUS_clean_linker_0, # of connection points: 2
#     Edge 52, Type (0, 0), BuildingBlock: CIFDUS_clean_linker_0, # of connection points: 2
#     Edge 53, Type (0, 0), BuildingBlock: CIFDUS_clean_linker_0, # of connection points: 2
#     Edge 54, Type (0, 0), BuildingBlock: CIFDUS_clean_linker_0, # of connection points: 2
#     Edge 55, Type (0, 0), BuildingBlock: CIFDUS_clean_linker_0, # of connection points: 2
#     Edge 56, Type (0, 0), BuildingBlock: CIFDUS_clean_linker_0, # of connection points: 2
#     Edge 57, Type (0, 0), BuildingBlock: CIFDUS_clean_linker_0, # of connection points: 2
#     Edge 58, Type (0, 0), BuildingBlock: CIFDUS_clean_linker_0, # of connection points: 2
#     Edge 59, Type (0, 0), BuildingBlock: CIFDUS_clean_linker_0, # of connection points: 2
#     Edge 60, Type (0, 0), BuildingBlock: CIFDUS_clean_linker_0, # of connection points: 2
#     Edge 61, Type (0, 0), BuildingBlock: CIFDUS_clean_linker_0, # of connection points: 2
#     Edge 62, Type (0, 0), BuildingBlock: CIFDUS_clean_linker_0, # of connection points: 2
# Relax obj value: 0.026
# Max RMSD: 0.059
# Mean RMSD: 0.059
data_MOF--net-fnd--node1-XOMCOT_clean_sbu_0--edge1-CIFDUS_clean_linker_0
_symmetry_space_group_name_H-M    P1
_symmetry_Int_Tables_number       1
_symmetry_cell_setting            triclinic
loop_
_symmetry_equiv_pos_as_xyz
'x, y, z'
_cell_length_a     73.684042
_cell_length_b     73.666797
_cell_length_c     15.796586
_cell_angle_alpha  89.913559
_cell_angle_beta   90.066045
_cell_angle_gamma 119.95964
loop_
_atom_site_label
_atom_site_type_symbol
_atom_site_fract_x
_atom_site_fract_y
_atom_site_fract_z
_atom_type_partial_charge
Co0 Co 0.12043 0.24754 0.48212 0.0
C1 C 0.11518 0.25082 0.66641 0.0
C2 C 0.1469 0.27077 0.62607 0.0
C3 C 0.14621 0.27177 0.71274 0.0
N4 N 0.12742 0.25771 0.59699 0.0
N5 N 0.12627 0.25908 0.73787 0.0
H6 H 0.09871 0.23926 0.66553 0.0
H7 H 0.16088 0.27807 0.58749 0.0
C8 C 0.14377 0.29239 0.45215 0.0
O9 O 0.12952 0.29243 0.50189 0.0
N10 N 0.11392 0.23756 0.3681 0.0
C11 C 0.10744 0.21802 0.34001 0.0
C12 C 0.10628 0.21814 0.25301 0.0
C13 C 0.1164 0.24921 0.29905 0.0
N14 N 0.11205 0.23781 0.22768 0.0
C15 C 0.13464 0.22168 0.55356 0.0
C16 C 0.16636 0.23037 0.43905 0.0
C17 C 0.16132 0.21473 0.50043 0.0
C18 C 0.14556 0.21084 0.5592 0.0
C19 C 0.15492 0.24092 0.43543 0.0
N20 N 0.13909 0.23621 0.49164 0.0
H21 H 0.12212 0.218 0.59791 0.0
H22 H 0.1582 0.25224 0.38563 0.0
H23 H 0.10452 0.20487 0.37976 0.0
H24 H 0.12163 0.26578 0.30099 0.0
O25 O 0.09488 0.22314 0.51876 0.0
O26 O 0.09728 0.25315 0.48024 0.0
O27 O 0.14351 0.2752 0.43843 0.0
C28 C 0.08553 0.23388 0.5055 0.0
H29 H 0.15958 0.27999 0.75427 0.0
H30 H 0.10246 0.20503 0.21156 0.0
H31 H 0.17837 0.23375 0.39223 0.0
H32 H 0.14138 0.19914 0.60837 0.0
Co33 Co 0.78491 0.87686 0.47891 0.0
C34 C 0.78517 0.87897 0.66403 0.0
C35 C 0.75598 0.85393 0.61719 0.0
C36 C 0.75527 0.85368 0.70429 0.0
N37 N 0.7747 0.86983 0.59257 0.0
N38 N 0.77364 0.86944 0.73338 0.0
H39 H 0.80109 0.89194 0.66508 0.0
H40 H 0.74383 0.84314 0.57486 0.0
C41 C 0.74859 0.87601 0.38355 0.0
O42 O 0.76127 0.8914 0.33346 0.0
N43 N 0.79525 0.8835 0.36399 0.0
C44 C 0.8142 0.89875 0.3375 0.0
C45 C 0.81535 0.89745 0.25124 0.0
C46 C 0.78557 0.87251 0.29378 0.0
N47 N 0.79726 0.88107 0.22377 0.0
C48 C 0.81408 0.91999 0.51528 0.0
C49 C 0.78594 0.93437 0.5199 0.0
C50 C 0.8074 0.94891 0.52666 0.0
C51 C 0.82145 0.94132 0.5263 0.0
C52 C 0.7792 0.91302 0.5095 0.0
N53 N 0.79333 0.9062 0.50159 0.0
H54 H 0.8253 0.91466 0.51662 0.0
H55 H 0.76261 0.90216 0.5092 0.0
H56 H 0.82671 0.90986 0.37712 0.0
H57 H 0.77 0.85892 0.29378 0.0
O58 O 0.81043 0.87713 0.5113 0.0
O59 O 0.78161 0.84923 0.46571 0.0
O60 O 0.75571 0.86948 0.44275 0.0
C61 C 0.80078 0.8573 0.4927 0.0
H62 H 0.74224 0.84279 0.74306 0.0
H63 H 0.82859 0.90767 0.2119 0.0
H64 H 0.77444 0.9394 0.52364 0.0
H65 H 0.83816 0.95183 0.53251 0.0
Co66 Co 0.15657 0.91589 0.46972 0.0
C67 C 0.15853 0.92132 0.65427 0.0
C68 C 0.17657 0.90733 0.61471 0.0
C69 C 0.17798 0.90951 0.70135 0.0
N70 N 0.16413 0.91451 0.58551 0.0
N71 N 0.1666 0.91832 0.72609 0.0
H72 H 0.14907 0.92872 0.6516 0.0
H73 H 0.18426 0.90105 0.57636 0.0
C74 C 0.16572 0.88573 0.3697 0.0
O75 O 0.15453 0.88568 0.30502 0.0
N76 N 0.14907 0.91792 0.35455 0.0
C77 C 0.12992 0.91244 0.32419 0.0
C78 C 0.13151 0.91623 0.23867 0.0
C79 C 0.16218 0.92592 0.28809 0.0
N80 N 0.15178 0.92451 0.21575 0.0
C81 C 0.11514 0.89876 0.53572 0.0
C82 C 0.09825 0.859 0.46857 0.0
C83 C 0.08495 0.86476 0.50876 0.0
C84 C 0.09376 0.88473 0.54461 0.0
C85 C 0.1197 0.87344 0.46217 0.0
N86 N 0.12788 0.89339 0.49285 0.0
H87 H 0.12112 0.91433 0.56035 0.0
H88 H 0.12921 0.86843 0.43016 0.0
H89 H 0.11563 0.90572 0.36068 0.0
H90 H 0.17882 0.93164 0.29232 0.0
O91 O 0.15313 0.93961 0.49567 0.0
O92 O 0.18301 0.94198 0.45599 0.0
O93 O 0.16666 0.89557 0.43793 0.0
C94 C 0.17287 0.95146 0.4787 0.0
H95 H 0.18648 0.90463 0.74267 0.0
H96 H 0.11848 0.91212 0.19628 0.0
H97 H 0.09207 0.84356 0.4411 0.0
H98 H 0.08405 0.88992 0.57573 0.0
Co99 Co 0.25562 0.11047 0.56348 0.0
C100 C 0.25746 0.11525 0.37624 0.0
C101 C 0.2842 0.11466 0.42583 0.0
C102 C 0.28569 0.1157 0.33884 0.0
N103 N 0.26666 0.11475 0.44934 0.0
N104 N 0.26882 0.11609 0.30793 0.0
H105 H 0.24222 0.11377 0.37186 0.0
H106 H 0.29498 0.11351 0.46907 0.0
C107 C 0.29839 0.14916 0.57543 0.0
O108 O 0.29623 0.15526 0.49977 0.0
N109 N 0.24488 0.10581 0.67697 0.0
C110 C 0.22599 0.10228 0.70284 0.0
C111 C 0.22534 0.10109 0.78996 0.0
C112 C 0.25535 0.10642 0.74771 0.0
N113 N 0.24382 0.10369 0.81774 0.0
C114 C 0.228 0.12442 0.50145 0.0
C115 C 0.24695 0.16309 0.57957 0.0
C116 C 0.22924 0.15736 0.529 0.0
C117 C 0.21973 0.13765 0.49 0.0
C118 C 0.25476 0.14934 0.58915 0.0
N119 N 0.24587 0.13059 0.54726 0.0
H120 H 0.21969 0.10897 0.4741 0.0
H121 H 0.26742 0.15362 0.6332 0.0
H122 H 0.21369 0.10099 0.66148 0.0
H123 H 0.27131 0.10941 0.74801 0.0
O124 O 0.23087 0.08505 0.52711 0.0
O125 O 0.26001 0.08676 0.57408 0.0
O126 O 0.28368 0.13247 0.60862 0.0
C127 C 0.2411 0.07535 0.54477 0.0
H128 H 0.29808 0.1159 0.30146 0.0
H129 H 0.21232 0.09852 0.82976 0.0
H130 H 0.25427 0.17775 0.61402 0.0
H131 H 0.20587 0.13234 0.45121 0.0
Co132 Co 0.92617 0.14564 0.58044 0.0
C133 C 0.92436 0.1434 0.39487 0.0
C134 C 0.92231 0.16971 0.44126 0.0
C135 C 0.92213 0.17012 0.35417 0.0
N136 N 0.92362 0.15291 0.46624 0.0
N137 N 0.92341 0.15356 0.32539 0.0
H138 H 0.92625 0.12977 0.3938 0.0
H139 H 0.92189 0.18105 0.48339 0.0
C140 C 0.89282 0.15078 0.67638 0.0
O141 O 0.88996 0.13657 0.73325 0.0
N142 N 0.92924 0.13865 0.69541 0.0
C143 C 0.9307 0.12198 0.72147 0.0
C144 C 0.93349 0.12312 0.80753 0.0
C145 C 0.9322 0.15022 0.76551 0.0
N146 N 0.93418 0.14075 0.83529 0.0
C147 C 0.91118 0.10283 0.537 0.0
C148 C 0.86909 0.08721 0.56771 0.0
C149 C 0.87651 0.07318 0.55608 0.0
C150 C 0.89764 0.08129 0.53663 0.0
C151 C 0.88335 0.10889 0.56789 0.0
N152 N 0.90442 0.11642 0.55899 0.0
H153 H 0.92747 0.10832 0.52457 0.0
H154 H 0.87722 0.11928 0.57643 0.0
H155 H 0.9302 0.10993 0.6814 0.0
H156 H 0.93207 0.16485 0.76566 0.0
O157 O 0.95046 0.14367 0.54998 0.0
O158 O 0.95166 0.17275 0.59318 0.0
O159 O 0.90539 0.15472 0.61434 0.0
C160 C 0.96173 0.16341 0.56795 0.0
H161 H 0.92112 0.18167 0.31517 0.0
H162 H 0.93496 0.11184 0.84658 0.0
H163 H 0.85266 0.08149 0.58005 0.0
H164 H 0.90386 0.07097 0.5243 0.0
Co165 Co 0.88901 0.78682 0.58266 0.0
C166 C 0.88038 0.78367 0.39207 0.0
C167 C 0.88722 0.76051 0.44021 0.0
C168 C 0.88429 0.75782 0.35437 0.0
N169 N 0.88449 0.77647 0.46521 0.0
N170 N 0.87995 0.77229 0.32335 0.0
H171 H 0.87802 0.79701 0.38866 0.0
H172 H 0.89204 0.7519 0.48102 0.0
C173 C 0.8779 0.74703 0.68884 0.0
O174 O 0.88589 0.7572 0.75956 0.0
N175 N 0.89415 0.79784 0.69909 0.0
C176 C 0.91178 0.81546 0.72183 0.0
C177 C 0.91094 0.8192 0.80644 0.0
C178 C 0.88227 0.79167 0.77081 0.0
N179 N 0.89254 0.80415 0.83819 0.0
C180 C 0.93 0.80611 0.51041 0.0
C181 C 0.9483 0.79344 0.63229 0.0
C182 C 0.96096 0.80728 0.56897 0.0
C183 C 0.95149 0.81324 0.50621 0.0
C184 C 0.92688 0.78652 0.63359 0.0
N185 N 0.918 0.79314 0.57418 0.0
H186 H 0.92306 0.81157 0.46385 0.0
H187 H 0.91789 0.77683 0.68528 0.0
H188 H 0.92467 0.82489 0.67968 0.0
H189 H 0.86673 0.77807 0.77426 0.0
O190 O 0.89273 0.81345 0.54569 0.0
O191 O 0.86233 0.78592 0.58221 0.0
O192 O 0.87876 0.75673 0.62023 0.0
C193 C 0.87265 0.80536 0.55701 0.0
H194 H 0.8861 0.74653 0.31695 0.0
H195 H 0.92339 0.83167 0.8427 0.0
H196 H 0.95499 0.78842 0.68185 0.0
H197 H 0.96076 0.82411 0.45664 0.0
Co198 Co 0.78782 0.58434 0.85752 0.0
C199 C 0.78523 0.58511 0.04886 0.0
C200 C 0.78898 0.61293 0.98899 0.0
C201 C 0.78729 0.6147 0.07496 0.0
N202 N 0.78779 0.59444 0.97202 0.0
N203 N 0.78492 0.59723 0.11301 0.0
H204 H 0.78299 0.56959 0.05793 0.0
H205 H 0.79065 0.6243 0.94173 0.0
C206 C 0.82196 0.62344 0.76523 0.0
O207 O 0.82375 0.61296 0.7019 0.0
N208 N 0.78728 0.57384 0.74277 0.0
C209 C 0.78817 0.55638 0.72597 0.0
C210 C 0.78736 0.55335 0.64012 0.0
C211 C 0.78486 0.58062 0.66551 0.0
N212 N 0.78571 0.56878 0.60113 0.0
C213 C 0.80101 0.55737 0.93424 0.0
C214 C 0.84239 0.5791 0.88386 0.0
C215 C 0.83495 0.55955 0.92306 0.0
C216 C 0.81404 0.54899 0.95061 0.0
C217 C 0.82892 0.58707 0.86978 0.0
N218 N 0.80826 0.57598 0.89239 0.0
H219 H 0.78476 0.54832 0.95242 0.0
H220 H 0.83535 0.60185 0.83822 0.0
H221 H 0.78921 0.54626 0.77281 0.0
H222 H 0.7835 0.59447 0.65654 0.0
O223 O 0.7619 0.55862 0.88152 0.0
O224 O 0.764 0.58757 0.83019 0.0
O225 O 0.81019 0.61403 0.82866 0.0
C226 C 0.75226 0.56843 0.85631 0.0
H227 H 0.78788 0.62796 0.10702 0.0
H228 H 0.78792 0.54057 0.60901 0.0
H229 H 0.85833 0.58793 0.86078 0.0
H230 H 0.80753 0.53409 0.98308 0.0
Co231 Co 0.4552 0.20926 0.79062 0.0
C232 C 0.45188 0.20719 0.9834 0.0
C233 C 0.42392 0.18452 0.92085 0.0
C234 C 0.4211 0.18133 1.0068 0.0
N235 N 0.44302 0.20112 0.90513 0.0
N236 N 0.43869 0.19553 0.04682 0.0
H237 H 0.46799 0.21885 0.99445 0.0
H238 H 0.41289 0.17484 0.87271 0.0
C239 C 0.41319 0.20619 0.77056 0.0
O240 O 0.41577 0.2158 0.84333 0.0
N241 N 0.46714 0.21669 0.67681 0.0
C242 C 0.48712 0.23112 0.65921 0.0
C243 C 0.48953 0.23351 0.57273 0.0
C244 C 0.45765 0.21035 0.60005 0.0
N245 N 0.47102 0.22056 0.53501 0.0
C246 C 0.47826 0.25001 0.86761 0.0
C247 C 0.46367 0.27002 0.76297 0.0
C248 C 0.47831 0.28179 0.82598 0.0
C249 C 0.48544 0.27134 0.87909 0.0
C250 C 0.4566 0.24859 0.75481 0.0
N251 N 0.46337 0.23862 0.80855 0.0
H252 H 0.48548 0.24296 0.90386 0.0
H253 H 0.44633 0.24027 0.70261 0.0
H254 H 0.49904 0.23971 0.70628 0.0
H255 H 0.44121 0.19904 0.59195 0.0
O256 O 0.48023 0.20962 0.83071 0.0
O257 O 0.45219 0.18179 0.77882 0.0
O258 O 0.42727 0.20261 0.74173 0.0
C259 C 0.47084 0.18979 0.81151 0.0
H260 H 0.40714 0.16917 0.03714 0.0
H261 H 0.5039 0.24413 0.54015 0.0
H262 H 0.45832 0.2774 0.71785 0.0
H263 H 0.49686 0.27957 0.92831 0.0
Co264 Co 0.82973 0.24884 0.87276 0.0
C265 C 0.83143 0.25365 0.057 0.0
C266 C 0.84936 0.23958 1.01659 0.0
C267 C 0.85073 0.24157 0.10329 0.0
N268 N 0.83703 0.24695 0.98805 0.0
N269 N 0.83943 0.25044 0.12858 0.0
H270 H 0.82206 0.26115 0.05444 0.0
H271 H 0.857 0.23336 0.97758 0.0
C272 C 0.83525 0.21604 0.77449 0.0
O273 O 0.82461 0.2168 0.70931 0.0
N274 N 0.8225 0.25131 0.75766 0.0
C275 C 0.80364 0.24695 0.72749 0.0
C276 C 0.80532 0.25052 0.64184 0.0
C277 C 0.83556 0.25832 0.69075 0.0
N278 N 0.82536 0.25749 0.61851 0.0
C279 C 0.78843 0.23538 0.93627 0.0
C280 C 0.76949 0.19411 0.88466 0.0
C281 C 0.75695 0.20143 0.9207 0.0
C282 C 0.76692 0.22228 0.94877 0.0
C283 C 0.79106 0.20766 0.87451 0.0
N284 N 0.8003 0.22828 0.89776 0.0
H285 H 0.79532 0.25151 0.95545 0.0
H286 H 0.79984 0.20131 0.84591 0.0
H287 H 0.78945 0.24113 0.76406 0.0
H288 H 0.85197 0.26296 0.6947 0.0
O289 O 0.82966 0.2746 0.89816 0.0
O290 O 0.85747 0.27302 0.85695 0.0
O291 O 0.83702 0.2264 0.84206 0.0
C292 C 0.84954 0.28452 0.88024 0.0
H293 H 0.85918 0.23656 0.14419 0.0
H294 H 0.79243 0.24715 0.59972 0.0
H295 H 0.76267 0.1782 0.86156 0.0
H296 H 0.75817 0.22867 0.97916 0.0
Co297 Co 0.91918 0.4446 0.93888 0.0
C298 C 0.92315 0.44755 0.74568 0.0
C299 C 0.94849 0.44671 0.80832 0.0
C300 C 0.95187 0.4476 0.7223 0.0
N301 N 0.93072 0.44715 0.82406 0.0
N302 N 0.93593 0.4481 0.68258 0.0
H303 H 0.90866 0.44727 0.73359 0.0
H304 H 0.95832 0.44559 0.85655 0.0
C305 C 0.96225 0.48243 0.94786 0.0
O306 O 0.95879 0.48836 0.874 0.0
N307 N 0.90786 0.44153 0.05306 0.0
C308 C 0.88846 0.43787 0.07074 0.0
C309 C 0.88569 0.43656 0.15699 0.0
C310 C 0.91669 0.44235 0.12964 0.0
N311 N 0.90334 0.43925 0.19476 0.0
C312 C 0.89471 0.46059 0.86449 0.0
C313 C 0.90838 0.4954 0.96663 0.0
C314 C 0.89099 0.48968 0.91379 0.0
C315 C 0.88483 0.47247 0.85999 0.0
C316 C 0.91824 0.48325 0.96779 0.0
N317 N 0.91131 0.46594 0.91724 0.0
H318 H 0.8877 0.44605 0.83016 0.0
H319 H 0.9303 0.48686 1.0144 0.0
H320 H 0.87707 0.43635 0.02389 0.0
H321 H 0.93237 0.44485 0.13735 0.0
O322 O 0.8934 0.42032 0.90372 0.0
O323 O 0.92076 0.41914 0.95473 0.0
O324 O 0.94791 0.46581 0.98346 0.0
C325 C 0.90168 0.40905 0.92536 0.0
H326 H 0.96482 0.44732 0.69129 0.0
H327 H 0.87169 0.43407 0.18925 0.0
H328 H 0.9135 0.5083 1.01065 0.0
H329 H 0.87165 0.46743 0.81741 0.0
Co330 Co 0.5917 0.48037 0.88822 0.0
C331 C 0.59219 0.47992 0.70087 0.0
C332 C 0.59053 0.50617 0.74974 0.0
C333 C 0.59067 0.50716 0.66261 0.0
N334 N 0.59128 0.48896 0.7734 0.0
N335 N 0.59157 0.49052 0.63256 0.0
H336 H 0.59371 0.46616 0.69702 0.0
H337 H 0.58989 0.51722 0.7929 0.0
C338 C 0.55798 0.48659 0.9778 0.0
O339 O 0.55681 0.47504 0.04319 0.0
N340 N 0.5927 0.47225 1.00327 0.0
C341 C 0.59098 0.45405 0.02968 0.0
C342 C 0.5939 0.455 0.11566 0.0
C343 C 0.59755 0.48435 0.07284 0.0
N344 N 0.59779 0.47397 0.14287 0.0
C345 C 0.5786 0.43956 0.82361 0.0
C346 C 0.53804 0.41919 0.88364 0.0
C347 C 0.54648 0.40726 0.85108 0.0
C348 C 0.56667 0.41791 0.8171 0.0
C349 C 0.55053 0.44117 0.88755 0.0
N350 N 0.57095 0.45112 0.86078 0.0
H351 H 0.5946 0.44672 0.80263 0.0
H352 H 0.54384 0.44973 0.9156 0.0
H353 H 0.58806 0.44101 0.98966 0.0
H354 H 0.59992 0.50008 0.07238 0.0
O355 O 0.61665 0.47888 0.86623 0.0
O356 O 0.61685 0.50753 0.90849 0.0
O357 O 0.56968 0.48858 0.91442 0.0
C358 C 0.62747 0.49844 0.88714 0.0
H359 H 0.58977 0.5189 0.62443 0.0
H360 H 0.59324 0.44264 0.15498 0.0
H361 H 0.52237 0.4116 0.90984 0.0
H362 H 0.5737 0.40947 0.78902 0.0
Co363 Co 0.55807 0.11866 0.92062 0.0
C364 C 0.55706 0.11503 0.72712 0.0
C365 C 0.53217 0.08854 0.78978 0.0
C366 C 0.52973 0.08516 0.70385 0.0
N367 N 0.54964 0.10701 0.80556 0.0
N368 N 0.54537 0.1018 0.66408 0.0
H369 H 0.57035 0.13024 0.71495 0.0
H370 H 0.52156 0.07825 0.83785 0.0
C371 C 0.55339 0.07613 0.93275 0.0
O372 O 0.56578 0.08134 0.86646 0.0
N373 N 0.56571 0.13004 0.03493 0.0
C374 C 0.58112 0.14958 0.05287 0.0
C375 C 0.5823 0.15239 0.13907 0.0
C376 C 0.55765 0.12113 0.11127 0.0
N377 N 0.56753 0.1346 0.17645 0.0
C378 C 0.59885 0.14187 0.84808 0.0
C379 C 0.6193 0.1291 0.95892 0.0
C380 C 0.63126 0.14572 0.90306 0.0
C381 C 0.62058 0.15143 0.84517 0.0
C382 C 0.59732 0.11957 0.95857 0.0
N383 N 0.58728 0.12598 0.90337 0.0
H384 H 0.59166 0.14875 0.8107 0.0
H385 H 0.58857 0.10815 1.00703 0.0
H386 H 0.59099 0.16102 1.00621 0.0
H387 H 0.54473 0.10531 0.11883 0.0
O388 O 0.56054 0.14471 0.88316 0.0
O389 O 0.53129 0.11772 0.93155 0.0
O390 O 0.54943 0.08964 0.96563 0.0
C391 C 0.54086 0.13677 0.90172 0.0
H392 H 0.517 0.07172 0.67294 0.0
H393 H 0.59352 0.16649 0.17168 0.0
H394 H 0.62684 0.12442 1.00609 0.0
H395 H 0.629 0.16411 0.80064 0.0
Co396 Co 0.45844 0.91358 0.08321 0.0
C397 C 0.44991 0.91377 0.267 0.0
C398 C 0.47923 0.9404 0.23162 0.0
C399 C 0.47697 0.94068 0.31803 0.0
N400 N 0.46226 0.92347 0.19947 0.0
N401 N 0.45861 0.92381 0.34011 0.0
H402 H 0.43533 0.89906 0.26374 0.0
H403 H 0.49291 0.95124 0.19593 0.0
C404 C 0.49129 0.95126 0.97987 0.0
O405 O 0.48952 0.93923 0.91571 0.0
N406 N 0.45392 0.90351 0.96787 0.0
C407 C 0.45431 0.88665 0.93728 0.0
C408 C 0.45037 0.88534 0.8516 0.0
C409 C 0.44838 0.91134 0.90196 0.0
N410 N 0.44698 0.9011 0.8293 0.0
C411 C 0.47541 0.89158 0.16946 0.0
C412 C 0.50674 0.89825 0.05695 0.0
C413 C 0.50228 0.88393 0.12347 0.0
C414 C 0.48696 0.88152 0.18222 0.0
C415 C 0.49524 0.90863 0.04821 0.0
N416 N 0.47922 0.90471 0.10237 0.0
H417 H 0.46263 0.88792 0.21211 0.0
H418 H 0.49846 0.91852 0.99434 0.0
H419 H 0.45773 0.87633 0.97408 0.0
H420 H 0.44671 0.9251 0.90646 0.0
O421 O 0.43408 0.88744 0.11351 0.0
O422 O 0.43322 0.91592 0.07496 0.0
O423 O 0.48048 0.94346 0.04755 0.0
C424 C 0.42295 0.89627 0.09792 0.0
H425 H 0.48859 0.95166 0.36173 0.0
H426 H 0.45116 0.87436 0.80841 0.0
H427 H 0.51824 0.90068 1.00911 0.0
H428 H 0.48325 0.87132 0.23663 0.0
Co429 Co 0.12679 0.55618 0.09955 0.0
C430 C 0.12287 0.55473 0.29248 0.0
C431 C 0.09936 0.52709 0.23045 0.0
C432 C 0.09615 0.52444 0.31652 0.0
N433 N 0.11585 0.54626 0.21437 0.0
N434 N 0.11093 0.54179 0.35587 0.0
H435 H 0.13633 0.56989 0.30399 0.0
H436 H 0.09026 0.51568 0.1824 0.0
C437 C 0.08225 0.54736 0.0947 0.0
O438 O 0.08483 0.55553 0.17066 0.0
N439 N 0.13764 0.56547 0.98541 0.0
C440 C 0.15628 0.5824 0.96774 0.0
C441 C 0.15904 0.58413 0.8815 0.0
C442 C 0.12926 0.557 0.90882 0.0
N443 N 0.14217 0.56814 0.84369 0.0
C444 C 0.15001 0.59653 0.17587 0.0
C445 C 0.1314 0.61589 0.09167 0.0
C446 C 0.14841 0.62795 0.14567 0.0
C447 C 0.15761 0.61785 0.18801 0.0
C448 C 0.1241 0.59435 0.08175 0.0
N449 N 0.13315 0.58478 0.12504 0.0
H450 H 0.15849 0.58975 0.20481 0.0
H451 H 0.11188 0.58572 0.03605 0.0
H452 H 0.16722 0.59283 1.01457 0.0
H453 H 0.11428 0.54285 0.90114 0.0
O454 O 0.15329 0.55877 0.13223 0.0
O455 O 0.12652 0.52995 0.08027 0.0
O456 O 0.09756 0.54731 0.05674 0.0
C457 C 0.1456 0.53937 0.10958 0.0
H458 H 0.08412 0.51055 0.34786 0.0
H459 H 0.17251 0.59648 0.84929 0.0
H460 H 0.12402 0.62306 0.05633 0.0
H461 H 0.17131 0.62655 0.22755 0.0
Co462 Co 0.48586 0.57878 0.14127 0.0
C463 C 0.49092 0.58761 0.32517 0.0
C464 C 0.50233 0.56707 0.28975 0.0
C465 C 0.50469 0.5702 0.37565 0.0
N466 N 0.49335 0.57771 0.25809 0.0
N467 N 0.49742 0.58307 0.3979 0.0
H468 H 0.48462 0.59805 0.3211 0.0
H469 H 0.50688 0.55755 0.25399 0.0
C470 C 0.49305 0.54615 0.04724 0.0
O471 O 0.48395 0.54731 0.9777 0.0
N472 N 0.47872 0.5806 0.02529 0.0
C473 C 0.46029 0.57748 0.99491 0.0
C474 C 0.46234 0.58149 0.90942 0.0
C475 C 0.49199 0.58757 0.9591 0.0
N476 N 0.48227 0.58768 0.88683 0.0
C477 C 0.44613 0.56466 0.21745 0.0
C478 C 0.4237 0.52733 0.13102 0.0
C479 C 0.41279 0.53489 0.1786 0.0
C480 C 0.42443 0.55332 0.22504 0.0
C481 C 0.4457 0.5392 0.12562 0.0
N482 N 0.4566 0.5581 0.166 0.0
H483 H 0.4543 0.57955 0.24907 0.0
H484 H 0.45356 0.53377 0.08432 0.0
H485 H 0.44626 0.57261 0.03184 0.0
H486 H 0.50829 0.59182 0.96371 0.0
O487 O 0.48436 0.60376 0.16286 0.0
O488 O 0.51324 0.60375 0.12485 0.0
O489 O 0.49359 0.55637 0.11376 0.0
C490 C 0.50415 0.61449 0.1446 0.0
H491 H 0.51065 0.56294 0.41853 0.0
H492 H 0.44987 0.57927 0.86697 0.0
H493 H 0.4153 0.51311 0.09414 0.0
H494 H 0.41673 0.55957 0.26397 0.0
Co495 Co 0.59185 0.77487 0.16749 0.0
C496 C 0.59044 0.77303 0.98257 0.0
C497 C 0.62035 0.77937 0.0304 0.0
C498 C 0.62042 0.7776 0.94377 0.0
N499 N 0.60159 0.77659 0.05405 0.0
N500 N 0.60157 0.77355 0.914 0.0
H501 H 0.57445 0.7699 0.98119 0.0
H502 H 0.63283 0.78186 0.07331 0.0
C503 C 0.62792 0.81159 0.25782 0.0
O504 O 0.615 0.81404 0.30737 0.0
N505 N 0.58212 0.77264 0.28233 0.0
C506 C 0.56412 0.77099 0.31098 0.0
C507 C 0.56375 0.76941 0.39775 0.0
C508 C 0.592 0.77118 0.35148 0.0
N509 N 0.5814 0.76974 0.42291 0.0
C510 C 0.56181 0.78722 0.12243 0.0
C511 C 0.58862 0.82999 0.12018 0.0
C512 C 0.56701 0.82238 0.11159 0.0
C513 C 0.55374 0.80057 0.10905 0.0
C514 C 0.5961 0.81599 0.13126 0.0
N515 N 0.58259 0.79492 0.13881 0.0
H516 H 0.55105 0.77057 0.12195 0.0
H517 H 0.61278 0.82239 0.13356 0.0
H518 H 0.55194 0.77083 0.27268 0.0
H519 H 0.6069 0.77163 0.34942 0.0
O520 O 0.56652 0.74888 0.14086 0.0
O521 O 0.59586 0.75108 0.18735 0.0
O522 O 0.62103 0.79766 0.19973 0.0
C523 C 0.57659 0.73928 0.16255 0.0
H524 H 0.63311 0.77852 0.9061 0.0
H525 H 0.55173 0.76872 0.43919 0.0
H526 H 0.59974 0.84663 0.12021 0.0
H527 H 0.5371 0.79368 0.09764 0.0
Co528 Co 0.26331 0.8242 0.16987 0.0
C529 C 0.26448 0.82421 0.98492 0.0
C530 C 0.25849 0.84801 0.03266 0.0
C531 C 0.26008 0.84977 0.94601 0.0
N532 N 0.26117 0.83195 0.05639 0.0
N533 N 0.26394 0.83485 0.91635 0.0
H534 H 0.26755 0.8113 0.98358 0.0
H535 H 0.25631 0.8582 0.07551 0.0
C536 C 0.22706 0.82491 0.25985 0.0
O537 O 0.22361 0.80915 0.30931 0.0
N538 N 0.26595 0.81706 0.28507 0.0
C539 C 0.26899 0.80156 0.3143 0.0
C540 C 0.27053 0.80289 0.40095 0.0
C541 C 0.26669 0.82813 0.35396 0.0
N542 N 0.2689 0.81951 0.42564 0.0
C543 C 0.24898 0.7808 0.13509 0.0
C544 C 0.20694 0.76768 0.11588 0.0
C545 C 0.21336 0.75271 0.11581 0.0
C546 C 0.2347 0.75951 0.12353 0.0
C547 C 0.22179 0.78886 0.129 0.0
N548 N 0.24239 0.79505 0.14391 0.0
H549 H 0.26543 0.78574 0.13808 0.0
H550 H 0.21656 0.80015 0.12616 0.0
H551 H 0.27035 0.79014 0.27669 0.0
H552 H 0.26542 0.84214 0.35152 0.0
O553 O 0.28876 0.82392 0.14065 0.0
O554 O 0.28763 0.85169 0.18646 0.0
O555 O 0.24135 0.83162 0.20329 0.0
C556 C 0.29888 0.84374 0.16007 0.0
H557 H 0.25929 0.86162 0.90821 0.0
H558 H 0.27222 0.79213 0.44255 0.0
H559 H 0.19061 0.76301 0.10696 0.0
H560 H 0.2403 0.74844 0.12061 0.0
Co561 Co 0.21479 0.45024 0.21743 0.0
C562 C 0.2145 0.44638 0.02519 0.0
C563 C 0.19027 0.41904 0.08624 0.0
C564 C 0.18821 0.41596 0.99999 0.0
N565 N 0.20712 0.43788 0.10315 0.0
N566 N 0.20343 0.43313 0.96103 0.0
H567 H 0.22725 0.46204 1.01462 0.0
H568 H 0.17969 0.4084 0.13349 0.0
C569 C 0.20809 0.40645 0.24694 0.0
O570 O 0.21836 0.40735 0.17764 0.0
N571 N 0.22198 0.46248 0.3309 0.0
C572 C 0.23724 0.48213 0.34822 0.0
C573 C 0.2386 0.48506 0.43458 0.0
C574 C 0.21421 0.45367 0.40781 0.0
N575 N 0.22413 0.46721 0.47275 0.0
C576 C 0.25625 0.47265 0.1473 0.0
C577 C 0.27423 0.45553 0.24998 0.0
C578 C 0.28696 0.47094 0.19103 0.0
C579 C 0.27758 0.47941 0.13906 0.0
C580 C 0.25288 0.44913 0.25583 0.0
N581 N 0.24393 0.45718 0.20298 0.0
H582 H 0.24992 0.48061 0.11125 0.0
H583 H 0.24386 0.43838 0.30572 0.0
H584 H 0.24703 0.49349 0.30114 0.0
H585 H 0.20151 0.4378 0.41608 0.0
O586 O 0.21644 0.47577 0.17434 0.0
O587 O 0.18781 0.44845 0.22513 0.0
O588 O 0.20615 0.42205 0.2694 0.0
C589 C 0.19654 0.46706 0.19175 0.0
H590 H 0.17588 0.40234 0.96834 0.0
H591 H 0.24983 0.49923 0.46674 0.0
H592 H 0.28085 0.4491 0.29386 0.0
H593 H 0.28669 0.49152 0.0932 0.0
H594 H 0.188 0.14594 0.53049 0.0
H595 H 0.24975 0.20012 0.50893 0.0
H596 H 0.23437 0.22276 0.49529 0.0
H597 H 0.20309 0.22713 0.49115 0.0
H598 H 0.14168 0.1724 0.51176 0.0
H599 H 0.1572 0.15003 0.52238 0.0
C600 C 0.19815 0.16266 0.52159 0.0
C601 C 0.22001 0.17126 0.52032 0.0
C602 C 0.18922 0.17553 0.51345 0.0
C603 C 0.23287 0.19307 0.51087 0.0
C604 C 0.22408 0.20602 0.50256 0.0
C605 C 0.19317 0.21029 0.49716 0.0
C606 C 0.17127 0.20147 0.50134 0.0
C607 C 0.20224 0.19743 0.50389 0.0
C608 C 0.15858 0.17962 0.50964 0.0
C609 C 0.16744 0.16679 0.51551 0.0
H610 H 0.83949 0.0457 0.4782 0.0
H611 H 0.88401 0.04949 0.66474 0.0
H612 H 0.86539 1.01142 0.6781 0.0
H613 H 0.83833 0.97705 0.62891 0.0
H614 H 0.79441 0.9724 0.43763 0.0
H615 H 0.81049 1.01061 0.43537 0.0
C616 C 0.84482 0.03812 0.5226 0.0
C617 C 0.86317 0.0503 0.56991 0.0
C618 C 0.8342 0.01606 0.52886 0.0
C619 C 0.87004 0.04036 0.62709 0.0
C620 C 0.85941 0.01861 0.63475 0.0
C621 C 0.83223 0.98437 0.58674 0.0
C622 C 0.81536 0.97186 0.53277 0.0
C623 C 0.84181 1.00629 0.5845 0.0
C624 C 0.80734 0.98162 0.4801 0.0
C625 C 0.81664 1.00351 0.4783 0.0
H626 H 0.98758 0.81166 0.44046 0.0
H627 H 0.98613 0.82436 0.70608 0.0
H628 H 0.02429 0.842 0.71245 0.0
H629 H 0.05819 0.85556 0.64098 0.0
H630 H 0.05996 0.84292 0.37561 0.0
H631 H 1.02166 0.8233 0.37085 0.0
C632 C 0.99567 0.81825 0.49966 0.0
C633 C 0.98407 0.81676 0.57259 0.0
C634 C 1.01767 0.82835 0.50296 0.0
C635 C 0.9947 0.82514 0.64922 0.0
C636 C 1.01653 0.83533 0.65285 0.0
C637 C 0.05016 0.84839 0.58228 0.0
C638 C 0.06187 0.85077 0.50872 0.0
C639 C 0.02818 0.83725 0.57994 0.0
C640 C 0.05129 0.84116 0.4333 0.0
C641 C 0.0294 0.83009 0.43037 0.0
H642 H 0.84238 0.87123 0.50879 0.0
H643 H 0.78218 0.81468 0.49787 0.0
H644 H 0.799 0.79354 0.51732 0.0
H645 H 0.83089 0.79114 0.5392 0.0
H646 H 0.89115 0.84773 0.54337 0.0
H647 H 0.87428 0.86878 0.52462 0.0
C648 C 0.83295 0.85427 0.51073 0.0
C649 C 0.81106 0.84454 0.50243 0.0
C650 C 0.84275 0.84221 0.52069 0.0
C651 C 0.79906 0.82256 0.50408 0.0
C652 C 0.80867 0.81045 0.51536 0.0
C653 C 0.8403 0.80808 0.53597 0.0
C654 C 0.86223 0.81785 0.5431 0.0
C655 C 0.8305 0.82011 0.52402 0.0
C656 C 0.87425 0.8398 0.53794 0.0
C657 C 0.86461 0.85187 0.52741 0.0
H658 H 0.20025 0.04699 0.516 0.0
H659 H 0.26102 0.05249 0.54442 0.0
H660 H 0.24556 1.01474 0.5225 0.0
H661 H 0.21448 0.9799 0.49743 0.0
H662 H 0.15364 0.97462 0.4767 0.0
H663 H 0.16938 1.01244 0.49294 0.0
C664 C 0.21012 0.03994 0.51716 0.0
C665 C 0.23174 0.05252 0.53166 0.0
C666 C 0.20109 0.01821 0.50578 0.0
C667 C 0.2443 0.04312 0.53362 0.0
C668 C 0.23548 0.02154 0.52092 0.0
C669 C 0.20474 0.9871 0.49594 0.0
C670 C 0.18295 0.9745 0.48561 0.0
C671 C 0.21387 1.0089 0.50714 0.0
C672 C 0.17046 0.98397 0.48477 0.0
C673 C 0.17944 1.00561 0.49402 0.0
H674 H 0.98952 0.20551 0.55298 0.0
H675 H 0.98569 0.14518 0.56695 0.0
H676 H 0.02353 0.16174 0.55157 0.0
H677 H 0.05759 0.193 0.53095 0.0
H678 H 0.0622 0.25352 0.50969 0.0
H679 H 0.02427 0.23732 0.53092 0.0
C680 C 0.99704 0.19608 0.5531 0.0
C681 C 0.98481 0.17416 0.56112 0.0
C682 C 1.01893 0.20571 0.54256 0.0
C683 C 0.99472 0.16207 0.56044 0.0
C684 C 1.01638 0.17151 0.55174 0.0
C685 C 0.05034 0.20269 0.53126 0.0
C686 C 0.06269 0.22443 0.51897 0.0
C687 C 0.02861 0.19327 0.54221 0.0
C688 C 0.05301 0.23673 0.5189 0.0
C689 C 0.03134 0.22747 0.53113 0.0
H690 H 0.90382 0.53155 0.93713 0.0
H691 H 0.84837 0.47091 0.90584 0.0
H692 H 0.8266 0.48701 0.90615 0.0
H693 H 0.82303 0.51811 0.90978 0.0
H694 H 0.8776 0.5788 0.95161 0.0
H695 H 0.89976 0.56285 0.95241 0.0
C696 C 0.88697 0.52183 0.93117 0.0
C697 C 0.87795 0.50003 0.91924 0.0
C698 C 0.87426 0.53119 0.93291 0.0
C699 C 0.85599 0.48778 0.91203 0.0
C700 C 0.8434 0.49695 0.91304 0.0
C701 C 0.83969 0.52792 0.92095 0.0
C702 C 0.84847 0.54973 0.93031 0.0
C703 C 0.85235 0.51863 0.92259 0.0
C704 C 0.87028 0.56203 0.94269 0.0
C705 C 0.88303 0.55289 0.94368 0.0
H706 H 0.51821 0.3114 0.86832 0.0
H707 H 0.45863 0.30479 0.79679 0.0
H708 H 0.47401 0.34286 0.80005 0.0
H709 H 0.50501 0.37841 0.81934 0.0
H710 H 0.56345 0.38367 0.89998 0.0
H711 H 0.54765 0.3458 0.89922 0.0
C712 C 0.50831 0.31808 0.85532 0.0
C713 C 0.48721 0.305 0.83234 0.0
C714 C 0.51711 0.33991 0.85879 0.0
C715 C 0.47501 0.31434 0.81342 0.0
C716 C 0.48376 0.33617 0.81584 0.0
C717 C 0.51416 0.37122 0.83765 0.0
C718 C 0.53554 0.38397 0.85773 0.0
C719 C 0.50488 0.34917 0.83782 0.0
C720 C 0.54715 0.37434 0.88178 0.0
C721 C 0.5381 0.35263 0.88185 0.0
H722 H 0.72756 0.21328 0.90058 0.0
H723 H 0.73345 0.15878 0.9495 0.0
H724 H 0.69532 0.13668 0.94888 0.0
H725 H 0.66 0.13273 0.93149 0.0
H726 H 0.65516 0.18818 0.89196 0.0
H727 H 0.69302 0.20984 0.89343 0.0
C728 C 0.72064 0.19664 0.91292 0.0
C729 C 0.7336 0.18786 0.92506 0.0
C730 C 0.69872 0.18406 0.91378 0.0
C731 C 0.72404 0.16608 0.93865 0.0
C732 C 0.70216 0.15339 0.93887 0.0
C733 C 0.66724 0.14956 0.92393 0.0
C734 C 0.65459 0.15864 0.90956 0.0
C735 C 0.68929 0.16218 0.92596 0.0
C736 C 0.66436 0.18056 0.9003 0.0
C737 C 0.6861 0.19307 0.90184 0.0
H738 H 0.51178 0.20325 0.845 0.0
H739 H 0.45184 0.1471 0.815 0.0
H740 H 0.46783 0.12557 0.84428 0.0
H741 H 0.49916 0.12267 0.877 0.0
H742 H 0.55926 0.17904 0.89848 0.0
H743 H 0.54297 0.20041 0.87452 0.0
C744 C 0.50222 0.1863 0.845 0.0
C745 C 0.48066 0.17681 0.82799 0.0
C746 C 0.51157 0.17401 0.86058 0.0
C747 C 0.4685 0.15481 0.82758 0.0
C748 C 0.47763 0.14247 0.84457 0.0
C749 C 0.50861 0.13962 0.87694 0.0
C750 C 0.53036 0.14925 0.88981 0.0
C751 C 0.49918 0.15189 0.86108 0.0
C752 C 0.54248 0.17124 0.88849 0.0
C753 C 0.53318 0.18349 0.87483 0.0
H754 H 0.83591 0.31249 0.89398 0.0
H755 H 0.89228 0.3085 0.88281 0.0
H756 H 0.91358 0.34657 0.89857 0.0
H757 H 0.91618 0.38128 0.91571 0.0
H758 H 0.85948 0.38482 0.91889 0.0
H759 H 0.83844 0.34684 0.90641 0.0
C760 C 0.85286 0.31994 0.89502 0.0
C761 C 0.86247 0.30765 0.88755 0.0
C762 C 0.865 0.34185 0.90286 0.0
C763 C 0.88447 0.3176 0.88827 0.0
C764 C 0.89667 0.33938 0.89751 0.0
C765 C 0.89922 0.37368 0.91396 0.0
C766 C 0.88943 0.38588 0.91855 0.0
C767 C 0.88712 0.35171 0.90501 0.0
C768 C 0.86744 0.37584 0.91523 0.0
C769 C 0.85536 0.35408 0.90819 0.0
H770 H 0.65569 0.54027 0.86701 0.0
H771 H 0.65113 0.48023 0.90797 0.0
H772 H 0.68915 0.49645 0.90336 0.0
H773 H 0.72379 0.52749 0.88494 0.0
H774 H 0.72883 0.58747 0.8366 0.0
H775 H 0.69076 0.57158 0.84626 0.0
C776 C 0.66309 0.53084 0.87553 0.0
C777 C 0.65062 0.50911 0.88803 0.0
C778 C 0.68509 0.54024 0.87082 0.0
C779 C 0.66038 0.497 0.89795 0.0
C780 C 0.68214 0.50625 0.89533 0.0
C781 C 0.71656 0.53709 0.87651 0.0
C782 C 0.72915 0.55862 0.8601 0.0
C783 C 0.69466 0.52782 0.88119 0.0
C784 C 0.71951 0.57082 0.84896 0.0
C785 C 0.69772 0.56176 0.85475 0.0
H786 H 0.54181 0.8929 0.07182 0.0
H787 H 0.48479 0.84372 0.18414 0.0
H788 H 0.50019 0.82151 0.19456 0.0
H789 H 0.52933 0.81548 0.17156 0.0
H790 H 0.5848 0.86223 0.04244 0.0
H791 H 0.57042 0.88573 0.03931 0.0
C792 C 0.53259 0.87727 0.0978 0.0
C793 C 0.51218 0.87043 0.12866 0.0
C794 C 0.54125 0.86398 0.10075 0.0
C795 C 0.50076 0.85002 0.1626 0.0
C796 C 0.50946 0.83704 0.16768 0.0
C797 C 0.53824 0.8306 0.14094 0.0
C798 C 0.5582 0.83683 0.10709 0.0
C799 C 0.52963 0.84382 0.13681 0.0
C800 C 0.56956 0.85692 0.07036 0.0
C801 C 0.56126 0.87038 0.06787 0.0
H802 H 0.20025 0.72399 0.24073 0.0
H803 H 0.19278 0.73086 0.97447 0.0
H804 H 0.17046 0.6927 0.96031 0.0
H805 H 0.15545 0.65718 0.02263 0.0
H806 H 0.1624 0.65092 0.29072 0.0
H807 H 0.18234 0.6889 0.30542 0.0
C808 C 0.19346 0.71706 0.17997 0.0
C809 C 0.19808 0.73003 0.10867 0.0
C810 C 0.18066 0.69521 0.17264 0.0
C811 C 0.1893 0.72106 0.03011 0.0
C812 C 0.17662 0.69928 0.0221 0.0
C813 C 0.16093 0.66412 0.08455 0.0
C814 C 0.15765 0.6511 0.15521 0.0
C815 C 0.17247 0.68613 0.09274 0.0
C816 C 0.16503 0.66048 0.23488 0.0
C817 C 0.17643 0.68224 0.24348 0.0
H818 H 0.38236 0.49326 0.19242 0.0
H819 H 0.39102 0.55509 0.15334 0.0
H820 H 0.3533 0.54087 0.15343 0.0
H821 H 0.31793 0.51138 0.16949 0.0
H822 H 0.30814 0.44907 0.20592 0.0
H823 H 0.34606 0.46296 0.20315 0.0
C824 C 0.37593 0.50353 0.18329 0.0
C825 C 0.38956 0.52526 0.17413 0.0
C826 C 0.354 0.49521 0.18362 0.0
C827 C 0.38095 0.53837 0.16233 0.0
C828 C 0.35935 0.53025 0.162 0.0
C829 C 0.32397 0.50071 0.17541 0.0
C830 C 0.31006 0.47916 0.18745 0.0
C831 C 0.34573 0.50876 0.17336 0.0
C832 C 0.31841 0.46576 0.19729 0.0
C833 C 0.34013 0.47368 0.19525 0.0
H834 H 0.13118 0.49747 0.12457 0.0
H835 H 0.18797 0.55748 0.11699 0.0
H836 H 0.20887 0.5405 0.1382 0.0
H837 H 0.21106 0.5086 0.16297 0.0
H838 H 0.15415 0.44883 0.1799 0.0
H839 H 0.13336 0.46559 0.15119 0.0
C840 C 0.14813 0.50677 0.12689 0.0
C841 C 0.15801 0.52868 0.1188 0.0
C842 C 0.16007 0.49693 0.1413 0.0
C843 C 0.17998 0.54058 0.12315 0.0
C844 C 0.19196 0.53088 0.13528 0.0
C845 C 0.19411 0.49926 0.16002 0.0
C846 C 0.18419 0.4775 0.17347 0.0
C847 C 0.18218 0.50908 0.1451 0.0
C848 C 0.1622 0.46562 0.17016 0.0
C849 C 0.15027 0.47519 0.15354 0.0
H850 H 0.53523 0.7113 0.14577 0.0
H851 H 0.59536 0.7153 0.17278 0.0
H852 H 0.57855 0.67703 0.16664 0.0
H853 H 0.54641 0.64217 0.15469 0.0
H854 H 0.48642 0.6389 0.13496 0.0
H855 H 0.50348 0.67697 0.13686 0.0
C856 C 0.54468 0.70381 0.15011 0.0
C857 C 0.56651 0.71613 0.1594 0.0
C858 C 0.5349 0.68185 0.1478 0.0
C859 C 0.5785 0.70616 0.16571 0.0
C860 C 0.5689 0.68427 0.16206 0.0
C861 C 0.53714 0.64984 0.15048 0.0
C862 C 0.51518 0.63769 0.14453 0.0
C863 C 0.54707 0.67191 0.15319 0.0
C864 C 0.50334 0.64785 0.13992 0.0
C865 C 0.51308 0.66966 0.14088 0.0
H866 H 0.3954 0.91072 0.12031 0.0
H867 H 0.3986 0.8541 0.09401 0.0
H868 H 0.36074 0.83296 0.10983 0.0
H869 H 0.3266 0.83026 0.13244 0.0
H870 H 0.32295 0.88644 0.16571 0.0
H871 H 0.36088 0.90791 0.14636 0.0
C872 C 0.38775 0.89377 0.11766 0.0
C873 C 0.39982 0.88403 0.10574 0.0
C874 C 0.36584 0.88157 0.12849 0.0
C875 C 0.38971 0.86203 0.10337 0.0
C876 C 0.36802 0.84988 0.11236 0.0
C877 C 0.33409 0.84721 0.13545 0.0
C878 C 0.32194 0.85671 0.15034 0.0
C879 C 0.35592 0.85944 0.12526 0.0
C880 C 0.33194 0.8787 0.15457 0.0
C881 C 0.35364 0.89101 0.14327 0.0
H882 H 0.15396 0.33176 0.49566 0.0
H883 H 0.16766 0.29716 0.31134 0.0
H884 H 0.18986 0.32962 0.23293 0.0
H885 H 0.20348 0.36773 0.21231 0.0
H886 H 0.18898 0.40134 0.39925 0.0
H887 H 0.16918 0.36948 0.48076 0.0
C888 C 0.16191 0.33129 0.43863 0.0
C889 C 0.15903 0.31205 0.40911 0.0
C890 C 0.17448 0.34991 0.39393 0.0
C891 C 0.16964 0.31179 0.33558 0.0
C892 C 0.18226 0.33034 0.2905 0.0
C893 C 0.19616 0.36811 0.27125 0.0
C894 C 0.19764 0.38701 0.29881 0.0
C895 C 0.18453 0.34949 0.31835 0.0
C896 C 0.18805 0.38713 0.37566 0.0
C897 C 0.17666 0.36885 0.42265 0.0
H898 H 0.6499 0.82739 0.4029 0.0
H899 H 0.65703 0.82648 0.13238 0.0
H900 H 0.69508 0.84814 0.14657 0.0
H901 H 0.72655 0.86587 0.23683 0.0
H902 H 0.71948 0.8634 0.50809 0.0
H903 H 0.68133 0.84471 0.49314 0.0
C904 C 0.65983 0.83216 0.34716 0.0
C905 C 0.65076 0.82551 0.26676 0.0
C906 C 0.68172 0.84397 0.35609 0.0
C907 C 0.66373 0.83142 0.19498 0.0
C908 C 0.68546 0.84381 0.20304 0.0
C909 C 0.71659 0.86146 0.29239 0.0
C910 C 0.7257 0.86612 0.37332 0.0
C911 C 0.69467 0.84999 0.28334 0.0
C912 C 0.71273 0.85997 0.44513 0.0
C913 C 0.69094 0.84928 0.43662 0.0
H914 H 0.21116 0.83222 0.40339 0.0
H915 H 0.21464 0.84083 0.13256 0.0
H916 H 0.19529 0.85966 0.14262 0.0
H917 H 0.17846 0.87475 0.2282 0.0
H918 H 0.17677 0.86848 0.49995 0.0
H919 H 0.19442 0.84786 0.49003 0.0
C920 C 0.20744 0.83804 0.34671 0.0
C921 C 0.21417 0.83505 0.26731 0.0
C922 C 0.19682 0.84945 0.35322 0.0
C923 C 0.20962 0.84297 0.19437 0.0
C924 C 0.19857 0.85375 0.20005 0.0
C925 C 0.18184 0.86877 0.28528 0.0
C926 C 0.1763 0.87314 0.36466 0.0
C927 C 0.19227 0.85726 0.27913 0.0
C928 C 0.18103 0.8655 0.43809 0.0
C929 C 0.19104 0.85361 0.43241 0.0
H930 H 0.37388 0.19059 0.83247 0.0
H931 H 0.40886 0.20483 0.59965 0.0
H932 H 0.37637 0.19021 0.51784 0.0
H933 H 0.33782 0.17131 0.51278 0.0
H934 H 0.30277 0.15392 0.74603 0.0
H935 H 0.33531 0.17188 0.8274 0.0
C936 C 0.37433 0.19071 0.76382 0.0
C937 C 0.39364 0.19879 0.72198 0.0
C938 C 0.35554 0.18161 0.71734 0.0
C939 C 0.3941 0.19858 0.63309 0.0
C940 C 0.37556 0.19025 0.58633 0.0
C941 C 0.33736 0.17174 0.58136 0.0
C942 C 0.31801 0.16145 0.62345 0.0
C943 C 0.35616 0.18143 0.62777 0.0
C944 C 0.31755 0.16174 0.71236 0.0
C945 C 0.33613 0.17199 0.75888 0.0
H946 H 0.84711 0.20344 0.6344 0.0
H947 H 0.84466 0.19806 0.90657 0.0
H948 H 0.86116 0.17636 0.90022 0.0
H949 H 0.87734 0.15972 0.81712 0.0
H950 H 0.88163 0.16719 0.54566 0.0
H951 H 0.8633 0.18708 0.55184 0.0
C952 C 0.85004 0.19737 0.6923 0.0
C953 C 0.84463 0.20234 0.7708 0.0
C954 C 0.85991 0.18527 0.68825 0.0
C955 C 0.84879 0.19459 0.84534 0.0
C956 C 0.85817 0.18212 0.84173 0.0
C957 C 0.87407 0.16555 0.75937 0.0
C958 C 0.88077 0.16192 0.68106 0.0
C959 C 0.86395 0.17747 0.76355 0.0
C960 C 0.87671 0.16983 0.60679 0.0
C961 C 0.8662 0.1812 0.61023 0.0
H962 H 0.83549 0.64927 0.62846 0.0
H963 H 0.83487 0.64952 0.90155 0.0
H964 H 0.85276 0.68776 0.90182 0.0
H965 H 0.86751 0.72104 0.82477 0.0
H966 H 0.866 0.72078 0.55155 0.0
H967 H 0.85003 0.68272 0.5511 0.0
C968 C 0.8395 0.65774 0.68795 0.0
C969 C 0.834 0.6466 0.76483 0.0
C970 C 0.84929 0.67973 0.68765 0.0
C971 C 0.83895 0.65774 0.8415 0.0
C972 C 0.84916 0.6796 0.84172 0.0
C973 C 0.8638 0.7127 0.765 0.0
C974 C 0.86816 0.72387 0.68829 0.0
C975 C 0.85422 0.69075 0.76519 0.0
C976 C 0.86297 0.7127 0.61158 0.0
C977 C 0.85381 0.69088 0.61123 0.0
H978 H 0.0443 0.52758 0.17272 0.0
H979 H 0.0731 0.54389 0.92603 0.0
H980 H 0.03851 0.52627 0.859 0.0
H981 H 0.99999 0.5054 0.87037 0.0
H982 H 0.97138 0.48634 0.11662 0.0
H983 H 1.00584 0.50581 0.18395 0.0
C984 C 0.04297 0.52742 0.1043 0.0
C985 C 0.06124 0.53722 0.05442 0.0
C986 C 1.02302 0.51668 0.06615 0.0
C987 C 0.05929 0.53651 0.96581 0.0
C988 C 0.0395 0.52644 0.92747 0.0
C989 C 1.00131 0.50565 0.93881 0.0
C990 C 0.98313 0.49459 0.98848 0.0
C991 C 1.02126 0.51637 0.97695 0.0
C992 C 0.98512 0.49474 0.077 0.0
C993 C 1.00483 0.50588 0.11551 0.0
H994 H 0.50984 0.53652 0.91345 0.0
H995 H 0.49935 0.52655 0.1822 0.0
H996 H 0.51792 0.50679 0.18412 0.0
H997 H 0.538 0.49308 0.10999 0.0
H998 H 0.54935 0.50404 0.84172 0.0
H999 H 0.52953 0.52248 0.83908 0.0
C1000 C 0.51146 0.52987 0.97235 0.0
C1001 C 0.50334 0.53318 0.04776 0.0
C1002 C 0.52237 0.51869 0.97308 0.0
C1003 C 0.50576 0.5246 0.12358 0.0
C1004 C 0.51628 0.51317 0.12459 0.0
C1005 C 0.53602 0.49936 0.05078 0.0
C1006 C 0.54519 0.4971 0.97615 0.0
C1007 C 0.52482 0.51026 0.04986 0.0
C1008 C 0.54258 0.50556 0.90023 0.0
C1009 C 0.5312 0.51611 0.8986 0.0
H1010 H 0.5562 0.04352 0.86808 0.0
H1011 H 0.52469 0.05857 0.06208 0.0
H1012 H 0.50357 0.02138 0.09888 0.0
H1013 H 0.49233 0.98403 0.06876 0.0
H1014 H 0.52374 0.97005 0.87033 0.0
H1015 H 0.54651 1.00718 0.84322 0.0
C1016 C 0.54487 0.03877 0.91905 0.0
C1017 C 0.54203 0.05391 0.96181 0.0
C1018 C 0.53258 0.01739 0.93892 0.0
C1019 C 0.52724 0.04731 0.02779 0.0
C1020 C 0.51509 0.02599 0.04877 0.0
C1021 C 0.50432 0.98916 0.02033 0.0
C1022 C 0.50613 0.97415 0.97128 0.0
C1023 C 0.51735 1.0108 1.00375 0.0
C1024 C 0.52175 0.98113 0.90856 0.0
C1025 C 0.53487 1.00243 0.8929 0.0
H1026 H 0.14198 0.28256 0.87725 0.0
H1027 H 0.09471 0.22144 0.79081 0.0
H1028 H 0.08499 0.20989 0.93655 0.0
H1029 H 0.09166 0.21634 0.08871 0.0
H1030 H 0.1402 0.27692 0.17478 0.0
H1031 H 0.14762 0.2895 0.02937 0.0
C1032 C 0.12955 0.26674 0.89045 0.0
C1033 C 0.1192 0.2529 0.82334 0.0
C1034 C 0.12431 0.26005 0.97439 0.0
C1035 C 0.10281 0.23253 0.84115 0.0
C1036 C 0.09735 0.22582 0.92458 0.0
C1037 C 0.10386 0.23227 0.07549 0.0
C1038 C 0.11539 0.2456 0.14236 0.0
C1039 C 0.10828 0.23932 0.99163 0.0
C1040 C 0.1309 0.26637 0.12459 0.0
C1041 C 0.13529 0.27355 0.04136 0.0
H1042 H 0.76066 0.84321 0.86708 0.0
H1043 H 0.80088 0.90777 0.79482 0.0
H1044 H 0.81221 0.91694 0.94125 0.0
H1045 H 0.81022 0.90678 0.08944 0.0
H1046 H 0.76999 0.8424 0.16353 0.0
H1047 H 0.75871 0.833 1.01657 0.0
C1048 C 0.77174 0.8593 0.88355 0.0
C1049 C 0.77994 0.87477 0.82013 0.0
C1050 C 0.77811 0.86448 0.96798 0.0
C1051 C 0.79455 0.89552 0.84223 0.0
C1052 C 0.80096 0.9008 0.92598 0.0
C1053 C 0.79923 0.89063 0.07339 0.0
C1054 C 0.79106 0.87529 0.13718 0.0
C1055 C 0.79287 0.8854 0.98921 0.0
C1056 C 0.7764 0.85452 0.11559 0.0
C1057 C 0.77001 0.84914 0.03162 0.0
H1058 H 0.18982 0.9225 0.86506 0.0
H1059 H 0.13472 0.92389 0.78046 0.0
H1060 H 0.12715 0.92907 0.92482 0.0
H1061 H 0.13432 0.93023 0.07588 0.0
H1062 H 0.1871 0.9249 0.16228 0.0
H1063 H 0.19754 0.92464 1.01663 0.0
C1064 C 0.1761 0.92382 0.87792 0.0
C1065 C 0.16286 0.92263 0.8113 0.0
C1066 C 0.17139 0.92616 0.96174 0.0
C1067 C 0.1454 0.92493 0.82963 0.0
C1068 C 0.14092 0.92776 0.91258 0.0
C1069 C 0.14809 0.92897 0.06314 0.0
C1070 C 0.15966 0.92731 0.13046 0.0
C1071 C 0.15355 0.92795 0.97919 0.0
C1072 C 0.17786 0.92634 0.1123 0.0
C1073 C 0.18377 0.92596 0.02871 0.0
H1074 H 0.23293 0.11878 0.95083 0.0
H1075 H 0.2698 0.09076 0.87818 0.0
H1076 H 0.28142 0.0926 0.02462 0.0
H1077 H 0.28042 0.10152 0.17371 0.0
H1078 H 0.24427 0.13055 0.24478 0.0
H1079 H 0.2328 0.12869 0.09882 0.0
C1080 C 0.24335 0.11291 0.96733 0.0
C1081 C 0.2504 0.10453 0.90409 0.0
C1082 C 0.25005 0.11416 0.05133 0.0
C1083 C 0.26426 0.09738 0.92584 0.0
C1084 C 0.27085 0.09837 1.00951 0.0
C1085 C 0.27025 0.10767 0.15721 0.0
C1086 C 0.26309 0.11598 0.22055 0.0
C1087 C 0.26384 0.10673 0.07281 0.0
C1088 C 0.24971 0.12369 0.19784 0.0
C1089 C 0.24322 0.12274 0.1142 0.0
H1090 H 0.91933 0.11499 0.96917 0.0
H1091 H 0.94932 0.18008 0.89643 0.0
H1092 H 0.94843 0.18997 0.04354 0.0
H1093 H 0.93915 0.17991 0.19269 0.0
H1094 H 0.90915 0.11466 0.26341 0.0
H1095 H 0.91047 0.10502 0.11691 0.0
C1096 C 0.926 0.13138 0.9855 0.0
C1097 C 0.9345 0.14679 0.92203 0.0
C1098 C 0.92544 0.13688 0.06972 0.0
C1099 C 0.94256 0.16792 0.94409 0.0
C1100 C 0.94212 0.17357 0.02813 0.0
C1101 C 0.93275 0.16358 0.17581 0.0
C1102 C 0.92408 0.14802 0.23875 0.0
C1103 C 0.9335 0.15815 0.09138 0.0
C1104 C 0.91614 0.12694 0.21628 0.0
C1105 C 0.91679 0.12141 0.13252 0.0
H1106 H 0.89174 0.80859 0.2366 0.0
H1107 H 0.86134 0.74158 0.20701 0.0
H1108 H 0.8606 0.74518 0.05378 0.0
H1109 H 0.87168 0.76753 0.92562 0.0
H1110 H 0.90222 0.83454 0.95435 0.0
H1111 H 0.89957 0.83081 0.10822 0.0
C1112 C 0.88458 0.79478 0.19675 0.0
C1113 C 0.87686 0.77484 0.234 0.0
C1114 C 0.88436 0.79696 0.10748 0.0
C1115 C 0.86776 0.75715 0.18056 0.0
C1116 C 0.86727 0.75918 0.09252 0.0
C1117 C 0.87729 0.78127 0.96546 0.0
C1118 C 0.88728 0.80131 0.9278 0.0
C1119 C 0.87599 0.77903 0.05479 0.0
C1120 C 0.89467 0.81893 0.98118 0.0
C1121 C 0.89318 0.81681 0.06954 0.0
H1122 H 0.79763 0.5743 0.20366 0.0
H1123 H 0.7668 0.61067 0.22747 0.0
H1124 H 0.76439 0.60545 0.38064 0.0
H1125 H 0.77134 0.59068 0.51007 0.0
H1126 H 0.80319 0.5552 0.48411 0.0
H1127 H 0.8046 0.55974 0.33192 0.0
C1128 C 0.79018 0.58089 0.24221 0.0
C1129 C 0.78248 0.59292 0.20339 0.0
C1130 C 0.78898 0.57797 0.33099 0.0
C1131 C 0.77312 0.60155 0.25515 0.0
C1132 C 0.77167 0.59852 0.34313 0.0
C1133 C 0.77864 0.584 0.47128 0.0
C1134 C 0.78679 0.57229 0.50997 0.0
C1135 C 0.77969 0.58687 0.3822 0.0
C1136 C 0.79621 0.56382 0.45745 0.0
C1137 C 0.79721 0.56653 0.36962 0.0
H1138 H 0.44249 0.18668 0.44498 0.0
H1139 H 0.49009 0.25159 0.41902 0.0
H1140 H 0.48479 0.24961 0.2663 0.0
H1141 H 0.46665 0.22952 0.13799 0.0
H1142 H 0.41942 0.16439 0.16354 0.0
H1143 H 0.42442 0.16651 0.31619 0.0
C1144 C 0.45159 0.20042 0.40602 0.0
C1145 C 0.46681 0.21921 0.44441 0.0
C1146 C 0.44853 0.19918 0.31705 0.0
C1147 C 0.47852 0.23679 0.39198 0.0
C1148 C 0.47544 0.23571 0.30414 0.0
C1149 C 0.45756 0.21573 0.17665 0.0
C1150 C 0.44254 0.19687 0.13787 0.0
C1151 C 0.46058 0.21696 0.26559 0.0
C1152 C 0.43084 0.17927 0.19038 0.0
C1153 C 0.43376 0.18041 0.27837 0.0
H1154 H 0.80846 0.26397 0.47852 0.0
H1155 H 0.85976 0.25608 0.56472 0.0
H1156 H 0.86987 0.25528 0.41905 0.0
H1157 H 0.86225 0.25354 0.26764 0.0
H1158 H 0.80838 0.25731 0.18336 0.0
H1159 H 0.80126 0.26292 0.32769 0.0
C1160 C 0.82181 0.26199 0.46581 0.0
C1161 C 0.83307 0.2598 0.53309 0.0
C1162 C 0.82705 0.26064 0.38188 0.0
C1163 C 0.85077 0.25793 0.51483 0.0
C1164 C 0.85648 0.25725 0.43122 0.0
C1165 C 0.84887 0.25545 0.2805 0.0
C1166 C 0.83588 0.25484 0.21393 0.0
C1167 C 0.84438 0.25801 0.36433 0.0
C1168 C 0.81889 0.25789 0.23241 0.0
C1169 C 0.81466 0.26098 0.31537 0.0
H1170 H 0.89956 0.43018 0.59354 0.0
H1171 H 0.96654 0.46718 0.56514 0.0
H1172 H 0.96272 0.46743 0.41143 0.0
H1173 H 0.94017 0.45734 0.28332 0.0
H1174 H 0.8732 0.41915 0.31362 0.0
H1175 H 0.87723 0.41936 0.46618 0.0
C1176 C 0.9133 0.43845 0.55381 0.0
C1177 C 0.93331 0.44868 0.59152 0.0
C1178 C 0.91101 0.43834 0.46482 0.0
C1179 C 0.95095 0.45902 0.53831 0.0
C1180 C 0.94877 0.45921 0.45007 0.0
C1181 C 0.92647 0.44892 0.3231 0.0
C1182 C 0.90637 0.43852 0.28566 0.0
C1183 C 0.92886 0.44887 0.41225 0.0
C1184 C 0.88887 0.42776 0.33943 0.0
C1185 C 0.89113 0.42773 0.42739 0.0
H1186 H 0.60879 0.51613 0.49873 0.0
H1187 H 0.57288 0.45117 0.57245 0.0
H1188 H 0.57218 0.44031 0.42635 0.0
H1189 H 0.5811 0.44919 0.27847 0.0
H1190 H 0.61755 0.51391 0.20188 0.0
H1191 H 0.61843 0.52505 0.34838 0.0
C1192 C 0.60074 0.49964 0.48233 0.0
C1193 C 0.59098 0.48446 0.54594 0.0
C1194 C 0.60046 0.4935 0.39808 0.0
C1195 C 0.58075 0.46311 0.52455 0.0
C1196 C 0.58026 0.4569 0.4411 0.0
C1197 C 0.58958 0.46573 0.2937 0.0
C1198 C 0.59933 0.48067 0.22932 0.0
C1199 C 0.5901 0.47195 0.37755 0.0
C1200 C 0.60976 0.50208 0.2502 0.0
C1201 C 0.61033 0.50845 0.33393 0.0
H1202 H 0.56167 0.13812 0.57474 0.0
H1203 H 0.53553 0.07148 0.54694 0.0
H1204 H 0.5393 0.07537 0.3933 0.0
H1205 H 0.55052 0.09788 0.26512 0.0
H1206 H 0.57573 0.16444 0.29435 0.0
H1207 H 0.57198 0.1604 0.4471 0.0
C1208 C 0.55696 0.12448 0.53516 0.0
C1209 C 0.54834 0.10453 0.57302 0.0
C1210 C 0.55901 0.1268 0.44617 0.0
C1211 C 0.54204 0.08701 0.51999 0.0
C1212 C 0.54424 0.08923 0.4318 0.0
C1213 C 0.55501 0.11146 0.30475 0.0
C1214 C 0.56369 0.13149 0.26715 0.0
C1215 C 0.55268 0.10905 0.39383 0.0
C1216 C 0.56946 0.14887 0.32054 0.0
C1217 C 0.56721 0.14659 0.4085 0.0
H1218 H 0.4651 0.94701 0.47989 0.0
H1219 H 0.43693 0.8833 0.39096 0.0
H1220 H 0.42874 0.87039 0.53604 0.0
H1221 H 0.43248 0.87735 0.68907 0.0
H1222 H 0.46181 0.94119 0.77781 0.0
H1223 H 0.46634 0.95383 0.63264 0.0
C1224 C 0.45706 0.93031 0.49243 0.0
C1225 C 0.45177 0.91619 0.42478 0.0
C1226 C 0.45263 0.92299 0.57617 0.0
C1227 C 0.44103 0.89454 0.44169 0.0
C1228 C 0.43648 0.88713 0.52479 0.0
C1229 C 0.43971 0.894 0.67653 0.0
C1230 C 0.44688 0.90824 0.74437 0.0
C1231 C 0.44263 0.90123 0.59261 0.0
C1232 C 0.45593 0.9298 0.72716 0.0
C1233 C 0.45873 0.93709 0.64393 0.0
H1234 H 0.14702 0.56349 0.44507 0.0
H1235 H 0.07996 0.52748 0.47289 0.0
H1236 H 0.08342 0.53186 0.62655 0.0
H1237 H 0.10562 0.54624 0.75479 0.0
H1238 H 0.17281 0.58105 0.72513 0.0
H1239 H 0.16912 0.57696 0.57262 0.0
C1240 C 0.13316 0.55677 0.48467 0.0
C1241 C 0.11326 0.5452 0.44683 0.0
C1242 C 0.13527 0.55913 0.57365 0.0
C1243 C 0.0955 0.53632 0.49986 0.0
C1244 C 0.09746 0.53886 0.58805 0.0
C1245 C 0.11946 0.55279 0.71517 0.0
C1246 C 0.13947 0.56425 0.7528 0.0
C1247 C 0.11729 0.55019 0.62604 0.0
C1248 C 0.15715 0.5726 0.69921 0.0
C1249 C 0.1551 0.57017 0.61127 0.0
H1250 H 0.46769 0.59767 0.74827 0.0
H1251 H 0.51525 0.58388 0.83318 0.0
H1252 H 0.52596 0.58402 0.68777 0.0
H1253 H 0.51938 0.58421 0.53622 0.0
H1254 H 0.46952 0.5945 0.45111 0.0
H1255 H 0.46235 0.59975 0.5965 0.0
C1256 C 0.4804 0.5947 0.73514 0.0
C1257 C 0.49039 0.59051 0.80196 0.0
C1258 C 0.48604 0.59406 0.65101 0.0
C1259 C 0.50727 0.58729 0.78359 0.0
C1260 C 0.51333 0.58717 0.70011 0.0
C1261 C 0.50693 0.58758 0.54931 0.0
C1262 C 0.49487 0.58865 0.48258 0.0
C1263 C 0.50241 0.58991 0.63333 0.0
C1264 C 0.47919 0.59367 0.50078 0.0
C1265 C 0.47493 0.59651 0.58419 0.0
H1266 H 0.62572 0.7881 0.77514 0.0
H1267 H 0.56158 0.75075 0.85789 0.0
H1268 H 0.54963 0.74572 0.71146 0.0
H1269 H 0.55739 0.75247 0.56006 0.0
H1270 H 0.62151 0.78976 0.47765 0.0
H1271 H 0.63357 0.79367 0.62381 0.0
C1272 C 0.60916 0.77863 0.76119 0.0
C1273 C 0.59459 0.76997 0.82748 0.0
C1274 C 0.60241 0.77565 0.67691 0.0
C1275 C 0.57313 0.75795 0.80825 0.0
C1276 C 0.56628 0.75492 0.72446 0.0
C1277 C 0.57398 0.76146 0.57427 0.0
C1278 C 0.58851 0.7708 0.50834 0.0
C1279 C 0.58077 0.76385 0.6584 0.0
C1280 C 0.61002 0.78216 0.52725 0.0
C1281 C 0.61692 0.78456 0.61084 0.0
H1282 H 0.28677 0.81358 0.56301 0.0
H1283 H 0.24769 0.83845 0.4801 0.0
H1284 H 0.24324 0.8461 0.62621 0.0
H1285 H 0.24885 0.84386 0.7777 0.0
H1286 H 0.28763 0.81865 0.86081 0.0
H1287 H 0.29331 0.81239 0.71431 0.0
C1288 C 0.27725 0.82062 0.57702 0.0
C1289 C 0.26757 0.8254 0.51097 0.0
C1290 C 0.27448 0.82465 0.6611 0.0
C1291 C 0.25556 0.83488 0.52975 0.0
C1292 C 0.25284 0.83908 0.61332 0.0
C1293 C 0.25875 0.83724 0.76371 0.0
C1294 C 0.26767 0.83161 0.83 0.0
C1295 C 0.26204 0.83381 0.67947 0.0
C1296 C 0.28024 0.82276 0.81099 0.0
C1297 C 0.28364 0.81933 0.72724 0.0
H1298 H 0.20781 0.43035 0.56075 0.0
H1299 H 0.23279 0.4968 0.59271 0.0
H1300 H 0.22949 0.49242 0.74561 0.0
H1301 H 0.21947 0.46982 0.87283 0.0
H1302 H 0.19395 0.40332 0.8416 0.0
H1303 H 0.19732 0.40763 0.6882 0.0
C1304 C 0.21237 0.44386 0.60095 0.0
C1305 C 0.22077 0.46394 0.56387 0.0
C1306 C 0.21035 0.44125 0.69018 0.0
C1307 C 0.22666 0.48119 0.61826 0.0
C1308 C 0.22469 0.4787 0.70638 0.0
C1309 C 0.21481 0.45629 0.83263 0.0
C1310 C 0.20639 0.43624 0.86979 0.0
C1311 C 0.21669 0.45884 0.74344 0.0
C1312 C 0.20023 0.41892 0.81561 0.0
C1313 C 0.20222 0.42137 0.72738 0.0
loop_
_geom_bond_atom_site_label_1
_geom_bond_atom_site_label_2
_geom_bond_distance
_geom_bond_site_symmetry_2
_ccdc_geom_bond_type
Co0 N4 2.148 . S
Co0 N10 2.128 . S
Co0 N20 2.194 . S
Co0 O25 2.351 . S
Co0 O26 2.155 . S
Co0 O27 2.096 . S
C1 N4 1.301 . S
C1 N5 1.328 . S
C1 H6 0.930 . S
C2 C3 1.333 . S
C2 N4 1.317 . S
C2 H7 0.930 . S
C3 C2 1.333 . S
C3 N5 1.350 . S
C3 H29 0.931 . S
N4 Co0 2.148 . S
N4 C1 1.301 . S
N4 C2 1.317 . S
N5 C1 1.328 . S
N5 C3 1.350 . S
H6 C1 0.930 . S
H7 C2 0.930 . S
C8 O9 1.224 . S
C8 O27 1.247 . S
O9 C8 1.224 . S
N10 Co0 2.128 . S
N10 C11 1.355 . S
N10 C13 1.311 . S
C11 N10 1.355 . S
C11 C12 1.363 . S
C11 H23 0.929 . S
C12 C11 1.363 . S
C12 N14 1.375 . S
C12 H30 0.931 . S
C13 N10 1.311 . S
C13 N14 1.347 . S
C13 H24 0.929 . S
N14 C12 1.375 . S
N14 C13 1.347 . S
C15 C18 1.365 . S
C15 N20 1.328 . S
C15 H21 0.929 . S
C16 C17 1.362 . S
C16 C19 1.378 . S
C16 H31 0.929 . S
C17 C16 1.362 . S
C17 C18 1.366 . S
C18 C15 1.365 . S
C18 C17 1.366 . S
C18 H32 0.930 . S
C19 C16 1.378 . S
C19 N20 1.315 . S
C19 H22 0.930 . S
N20 Co0 2.194 . S
N20 C15 1.328 . S
N20 C19 1.315 . S
H21 C15 0.929 . S
H22 C19 0.930 . S
H23 C11 0.929 . S
H24 C13 0.929 . S
O25 Co0 2.351 . S
O25 C28 1.244 . S
O26 Co0 2.155 . S
O26 C28 1.240 . S
O27 Co0 2.096 . S
O27 C8 1.247 . S
C28 O25 1.244 . S
C28 O26 1.240 . S
H29 C3 0.931 . S
H30 C12 0.931 . S
H31 C16 0.929 . S
H32 C18 0.930 . S
Co33 N37 2.148 . S
Co33 N43 2.128 . S
Co33 N53 2.194 . S
Co33 O58 2.351 . S
Co33 O59 2.155 . S
Co33 O60 2.096 . S
C34 N37 1.301 . S
C34 N38 1.328 . S
C34 H39 0.930 . S
C35 C36 1.333 . S
C35 N37 1.317 . S
C35 H40 0.930 . S
C36 C35 1.333 . S
C36 N38 1.350 . S
C36 H62 0.931 . S
N37 Co33 2.148 . S
N37 C34 1.301 . S
N37 C35 1.317 . S
N38 C34 1.328 . S
N38 C36 1.350 . S
H39 C34 0.930 . S
H40 C35 0.930 . S
C41 O42 1.224 . S
C41 O60 1.247 . S
O42 C41 1.224 . S
N43 Co33 2.128 . S
N43 C44 1.355 . S
N43 C46 1.311 . S
C44 N43 1.355 . S
C44 C45 1.363 . S
C44 H56 0.929 . S
C45 C44 1.363 . S
C45 N47 1.375 . S
C45 H63 0.931 . S
C46 N43 1.311 . S
C46 N47 1.347 . S
C46 H57 0.929 . S
N47 C45 1.375 . S
N47 C46 1.347 . S
C48 C51 1.365 . S
C48 N53 1.328 . S
C48 H54 0.929 . S
C49 C50 1.362 . S
C49 C52 1.378 . S
C49 H64 0.929 . S
C50 C49 1.362 . S
C50 C51 1.366 . S
C51 C48 1.365 . S
C51 C50 1.366 . S
C51 H65 0.930 . S
C52 C49 1.378 . S
C52 N53 1.315 . S
C52 H55 0.930 . S
N53 Co33 2.194 . S
N53 C48 1.328 . S
N53 C52 1.315 . S
H54 C48 0.929 . S
H55 C52 0.930 . S
H56 C44 0.929 . S
H57 C46 0.929 . S
O58 Co33 2.351 . S
O58 C61 1.244 . S
O59 Co33 2.155 . S
O59 C61 1.240 . S
O60 Co33 2.096 . S
O60 C41 1.247 . S
C61 O58 1.244 . S
C61 O59 1.240 . S
H62 C36 0.931 . S
H63 C45 0.931 . S
H64 C49 0.929 . S
H65 C51 0.930 . S
Co66 N70 2.148 . S
Co66 N76 2.128 . S
Co66 N86 2.194 . S
Co66 O91 2.351 . S
Co66 O92 2.155 . S
Co66 O93 2.096 . S
C67 N70 1.301 . S
C67 N71 1.328 . S
C67 H72 0.930 . S
C68 C69 1.333 . S
C68 N70 1.317 . S
C68 H73 0.930 . S
C69 C68 1.333 . S
C69 N71 1.350 . S
C69 H95 0.931 . S
N70 Co66 2.148 . S
N70 C67 1.301 . S
N70 C68 1.317 . S
N71 C67 1.328 . S
N71 C69 1.350 . S
H72 C67 0.930 . S
H73 C68 0.930 . S
C74 O75 1.224 . S
C74 O93 1.247 . S
O75 C74 1.224 . S
N76 Co66 2.128 . S
N76 C77 1.355 . S
N76 C79 1.311 . S
C77 N76 1.355 . S
C77 C78 1.363 . S
C77 H89 0.929 . S
C78 C77 1.363 . S
C78 N80 1.375 . S
C78 H96 0.931 . S
C79 N76 1.311 . S
C79 N80 1.347 . S
C79 H90 0.929 . S
N80 C78 1.375 . S
N80 C79 1.347 . S
C81 C84 1.365 . S
C81 N86 1.328 . S
C81 H87 0.929 . S
C82 C83 1.362 . S
C82 C85 1.378 . S
C82 H97 0.929 . S
C83 C82 1.362 . S
C83 C84 1.366 . S
C84 C81 1.365 . S
C84 C83 1.366 . S
C84 H98 0.930 . S
C85 C82 1.378 . S
C85 N86 1.315 . S
C85 H88 0.930 . S
N86 Co66 2.194 . S
N86 C81 1.328 . S
N86 C85 1.315 . S
H87 C81 0.929 . S
H88 C85 0.930 . S
H89 C77 0.929 . S
H90 C79 0.929 . S
O91 Co66 2.351 . S
O91 C94 1.244 . S
O92 Co66 2.155 . S
O92 C94 1.240 . S
O93 Co66 2.096 . S
O93 C74 1.247 . S
C94 O91 1.244 . S
C94 O92 1.240 . S
H95 C69 0.931 . S
H96 C78 0.931 . S
H97 C82 0.929 . S
H98 C84 0.930 . S
Co99 N103 2.148 . S
Co99 N109 2.128 . S
Co99 N119 2.194 . S
Co99 O124 2.351 . S
Co99 O125 2.155 . S
Co99 O126 2.096 . S
C100 N103 1.301 . S
C100 N104 1.328 . S
C100 H105 0.930 . S
C101 C102 1.333 . S
C101 N103 1.317 . S
C101 H106 0.930 . S
C102 C101 1.333 . S
C102 N104 1.350 . S
C102 H128 0.931 . S
N103 Co99 2.148 . S
N103 C100 1.301 . S
N103 C101 1.317 . S
N104 C100 1.328 . S
N104 C102 1.350 . S
H105 C100 0.930 . S
H106 C101 0.930 . S
C107 O108 1.224 . S
C107 O126 1.247 . S
O108 C107 1.224 . S
N109 Co99 2.128 . S
N109 C110 1.355 . S
N109 C112 1.311 . S
C110 N109 1.355 . S
C110 C111 1.363 . S
C110 H122 0.929 . S
C111 C110 1.363 . S
C111 N113 1.375 . S
C111 H129 0.931 . S
C112 N109 1.311 . S
C112 N113 1.347 . S
C112 H123 0.929 . S
N113 C111 1.375 . S
N113 C112 1.347 . S
C114 C117 1.365 . S
C114 N119 1.328 . S
C114 H120 0.929 . S
C115 C116 1.362 . S
C115 C118 1.378 . S
C115 H130 0.929 . S
C116 C115 1.362 . S
C116 C117 1.366 . S
C117 C114 1.365 . S
C117 C116 1.366 . S
C117 H131 0.930 . S
C118 C115 1.378 . S
C118 N119 1.315 . S
C118 H121 0.930 . S
N119 Co99 2.194 . S
N119 C114 1.328 . S
N119 C118 1.315 . S
H120 C114 0.929 . S
H121 C118 0.930 . S
H122 C110 0.929 . S
H123 C112 0.929 . S
O124 Co99 2.351 . S
O124 C127 1.244 . S
O125 Co99 2.155 . S
O125 C127 1.240 . S
O126 Co99 2.096 . S
O126 C107 1.247 . S
C127 O124 1.244 . S
C127 O125 1.240 . S
H128 C102 0.931 . S
H129 C111 0.931 . S
H130 C115 0.929 . S
H131 C117 0.930 . S
Co132 N136 2.148 . S
Co132 N142 2.128 . S
Co132 N152 2.194 . S
Co132 O157 2.351 . S
Co132 O158 2.155 . S
Co132 O159 2.096 . S
C133 N136 1.301 . S
C133 N137 1.328 . S
C133 H138 0.930 . S
C134 C135 1.333 . S
C134 N136 1.317 . S
C134 H139 0.930 . S
C135 C134 1.333 . S
C135 N137 1.350 . S
C135 H161 0.931 . S
N136 Co132 2.148 . S
N136 C133 1.301 . S
N136 C134 1.317 . S
N137 C133 1.328 . S
N137 C135 1.350 . S
H138 C133 0.930 . S
H139 C134 0.930 . S
C140 O141 1.224 . S
C140 O159 1.247 . S
O141 C140 1.224 . S
N142 Co132 2.128 . S
N142 C143 1.355 . S
N142 C145 1.311 . S
C143 N142 1.355 . S
C143 C144 1.363 . S
C143 H155 0.929 . S
C144 C143 1.363 . S
C144 N146 1.375 . S
C144 H162 0.931 . S
C145 N142 1.311 . S
C145 N146 1.347 . S
C145 H156 0.929 . S
N146 C144 1.375 . S
N146 C145 1.347 . S
C147 C150 1.365 . S
C147 N152 1.328 . S
C147 H153 0.929 . S
C148 C149 1.362 . S
C148 C151 1.378 . S
C148 H163 0.929 . S
C149 C148 1.362 . S
C149 C150 1.366 . S
C150 C147 1.365 . S
C150 C149 1.366 . S
C150 H164 0.930 . S
C151 C148 1.378 . S
C151 N152 1.315 . S
C151 H154 0.930 . S
N152 Co132 2.194 . S
N152 C147 1.328 . S
N152 C151 1.315 . S
H153 C147 0.929 . S
H154 C151 0.930 . S
H155 C143 0.929 . S
H156 C145 0.929 . S
O157 Co132 2.351 . S
O157 C160 1.244 . S
O158 Co132 2.155 . S
O158 C160 1.240 . S
O159 Co132 2.096 . S
O159 C140 1.247 . S
C160 O157 1.244 . S
C160 O158 1.240 . S
H161 C135 0.931 . S
H162 C144 0.931 . S
H163 C148 0.929 . S
H164 C150 0.930 . S
Co165 N169 2.148 . S
Co165 N175 2.128 . S
Co165 N185 2.194 . S
Co165 O190 2.351 . S
Co165 O191 2.155 . S
Co165 O192 2.096 . S
C166 N169 1.301 . S
C166 N170 1.328 . S
C166 H171 0.930 . S
C167 C168 1.333 . S
C167 N169 1.317 . S
C167 H172 0.930 . S
C168 C167 1.333 . S
C168 N170 1.350 . S
C168 H194 0.931 . S
N169 Co165 2.148 . S
N169 C166 1.301 . S
N169 C167 1.317 . S
N170 C166 1.328 . S
N170 C168 1.350 . S
H171 C166 0.930 . S
H172 C167 0.930 . S
C173 O174 1.224 . S
C173 O192 1.247 . S
O174 C173 1.224 . S
N175 Co165 2.128 . S
N175 C176 1.355 . S
N175 C178 1.311 . S
C176 N175 1.355 . S
C176 C177 1.363 . S
C176 H188 0.929 . S
C177 C176 1.363 . S
C177 N179 1.375 . S
C177 H195 0.931 . S
C178 N175 1.311 . S
C178 N179 1.347 . S
C178 H189 0.929 . S
N179 C177 1.375 . S
N179 C178 1.347 . S
C180 C183 1.365 . S
C180 N185 1.328 . S
C180 H186 0.929 . S
C181 C182 1.362 . S
C181 C184 1.378 . S
C181 H196 0.929 . S
C182 C181 1.362 . S
C182 C183 1.366 . S
C183 C180 1.365 . S
C183 C182 1.366 . S
C183 H197 0.930 . S
C184 C181 1.378 . S
C184 N185 1.315 . S
C184 H187 0.930 . S
N185 Co165 2.194 . S
N185 C180 1.328 . S
N185 C184 1.315 . S
H186 C180 0.929 . S
H187 C184 0.930 . S
H188 C176 0.929 . S
H189 C178 0.929 . S
O190 Co165 2.351 . S
O190 C193 1.244 . S
O191 Co165 2.155 . S
O191 C193 1.240 . S
O192 Co165 2.096 . S
O192 C173 1.247 . S
C193 O190 1.244 . S
C193 O191 1.240 . S
H194 C168 0.931 . S
H195 C177 0.931 . S
H196 C181 0.929 . S
H197 C183 0.930 . S
Co198 N202 2.148 . S
Co198 N208 2.128 . S
Co198 N218 2.194 . S
Co198 O223 2.351 . S
Co198 O224 2.155 . S
Co198 O225 2.096 . S
C199 N202 1.301 . S
C199 N203 1.328 1_556 S
C199 H204 0.930 . S
C200 C201 1.333 1_556 S
C200 N202 1.317 . S
C200 H205 0.930 . S
C201 C200 1.333 1_554 S
C201 N203 1.350 . S
C201 H227 0.931 . S
N202 Co198 2.148 . S
N202 C199 1.301 . S
N202 C200 1.317 . S
N203 C199 1.328 1_554 S
N203 C201 1.350 . S
H204 C199 0.930 . S
H205 C200 0.930 . S
C206 O207 1.224 . S
C206 O225 1.247 . S
O207 C206 1.224 . S
N208 Co198 2.128 . S
N208 C209 1.355 . S
N208 C211 1.311 . S
C209 N208 1.355 . S
C209 C210 1.363 . S
C209 H221 0.929 . S
C210 C209 1.363 . S
C210 N212 1.375 . S
C210 H228 0.931 . S
C211 N208 1.311 . S
C211 N212 1.347 . S
C211 H222 0.929 . S
N212 C210 1.375 . S
N212 C211 1.347 . S
C213 C216 1.365 . S
C213 N218 1.328 . S
C213 H219 0.929 . S
C214 C215 1.362 . S
C214 C217 1.378 . S
C214 H229 0.929 . S
C215 C214 1.362 . S
C215 C216 1.366 . S
C216 C213 1.365 . S
C216 C215 1.366 . S
C216 H230 0.930 . S
C217 C214 1.378 . S
C217 N218 1.315 . S
C217 H220 0.930 . S
N218 Co198 2.194 . S
N218 C213 1.328 . S
N218 C217 1.315 . S
H219 C213 0.929 . S
H220 C217 0.930 . S
H221 C209 0.929 . S
H222 C211 0.929 . S
O223 Co198 2.351 . S
O223 C226 1.244 . S
O224 Co198 2.155 . S
O224 C226 1.240 . S
O225 Co198 2.096 . S
O225 C206 1.247 . S
C226 O223 1.244 . S
C226 O224 1.240 . S
H227 C201 0.931 . S
H228 C210 0.931 . S
H229 C214 0.929 . S
H230 C216 0.930 . S
Co231 N235 2.148 . S
Co231 N241 2.128 . S
Co231 N251 2.194 . S
Co231 O256 2.351 . S
Co231 O257 2.155 . S
Co231 O258 2.096 . S
C232 N235 1.301 . S
C232 N236 1.328 1_556 S
C232 H237 0.930 . S
C233 C234 1.333 1_556 S
C233 N235 1.317 . S
C233 H238 0.930 . S
C234 C233 1.333 1_554 S
C234 N236 1.350 . S
C234 H260 0.931 . S
N235 Co231 2.148 . S
N235 C232 1.301 . S
N235 C233 1.317 . S
N236 C232 1.328 1_554 S
N236 C234 1.350 . S
H237 C232 0.930 . S
H238 C233 0.930 . S
C239 O240 1.224 . S
C239 O258 1.247 . S
O240 C239 1.224 . S
N241 Co231 2.128 . S
N241 C242 1.355 . S
N241 C244 1.311 . S
C242 N241 1.355 . S
C242 C243 1.363 . S
C242 H254 0.929 . S
C243 C242 1.363 . S
C243 N245 1.375 . S
C243 H261 0.931 . S
C244 N241 1.311 . S
C244 N245 1.347 . S
C244 H255 0.929 . S
N245 C243 1.375 . S
N245 C244 1.347 . S
C246 C249 1.365 . S
C246 N251 1.328 . S
C246 H252 0.929 . S
C247 C248 1.362 . S
C247 C250 1.378 . S
C247 H262 0.929 . S
C248 C247 1.362 . S
C248 C249 1.366 . S
C249 C246 1.365 . S
C249 C248 1.366 . S
C249 H263 0.930 . S
C250 C247 1.378 . S
C250 N251 1.315 . S
C250 H253 0.930 . S
N251 Co231 2.194 . S
N251 C246 1.328 . S
N251 C250 1.315 . S
H252 C246 0.929 . S
H253 C250 0.930 . S
H254 C242 0.929 . S
H255 C244 0.929 . S
O256 Co231 2.351 . S
O256 C259 1.244 . S
O257 Co231 2.155 . S
O257 C259 1.240 . S
O258 Co231 2.096 . S
O258 C239 1.247 . S
C259 O256 1.244 . S
C259 O257 1.240 . S
H260 C234 0.931 . S
H261 C243 0.931 . S
H262 C247 0.929 . S
H263 C249 0.930 . S
Co264 N268 2.148 . S
Co264 N274 2.128 . S
Co264 N284 2.194 . S
Co264 O289 2.351 . S
Co264 O290 2.155 . S
Co264 O291 2.096 . S
C265 N268 1.301 . S
C265 N269 1.328 1_556 S
C265 H270 0.930 . S
C266 C267 1.333 1_556 S
C266 N268 1.317 . S
C266 H271 0.930 . S
C267 C266 1.333 1_554 S
C267 N269 1.350 . S
C267 H293 0.931 . S
N268 Co264 2.148 . S
N268 C265 1.301 . S
N268 C266 1.317 . S
N269 C265 1.328 1_554 S
N269 C267 1.350 . S
H270 C265 0.930 . S
H271 C266 0.930 . S
C272 O273 1.224 . S
C272 O291 1.247 . S
O273 C272 1.224 . S
N274 Co264 2.128 . S
N274 C275 1.355 . S
N274 C277 1.311 . S
C275 N274 1.355 . S
C275 C276 1.363 . S
C275 H287 0.929 . S
C276 C275 1.363 . S
C276 N278 1.375 . S
C276 H294 0.931 . S
C277 N274 1.311 . S
C277 N278 1.347 . S
C277 H288 0.929 . S
N278 C276 1.375 . S
N278 C277 1.347 . S
C279 C282 1.365 . S
C279 N284 1.328 . S
C279 H285 0.929 . S
C280 C281 1.362 . S
C280 C283 1.378 . S
C280 H295 0.929 . S
C281 C280 1.362 . S
C281 C282 1.366 . S
C282 C279 1.365 . S
C282 C281 1.366 . S
C282 H296 0.930 . S
C283 C280 1.378 . S
C283 N284 1.315 . S
C283 H286 0.930 . S
N284 Co264 2.194 . S
N284 C279 1.328 . S
N284 C283 1.315 . S
H285 C279 0.929 . S
H286 C283 0.930 . S
H287 C275 0.929 . S
H288 C277 0.929 . S
O289 Co264 2.351 . S
O289 C292 1.244 . S
O290 Co264 2.155 . S
O290 C292 1.240 . S
O291 Co264 2.096 . S
O291 C272 1.247 . S
C292 O289 1.244 . S
C292 O290 1.240 . S
H293 C267 0.931 . S
H294 C276 0.931 . S
H295 C280 0.929 . S
H296 C282 0.930 . S
Co297 N301 2.148 . S
Co297 N307 2.128 1_556 S
Co297 N317 2.194 . S
Co297 O322 2.351 . S
Co297 O323 2.155 . S
Co297 O324 2.096 . S
C298 N301 1.301 . S
C298 N302 1.328 . S
C298 H303 0.930 . S
C299 C300 1.333 . S
C299 N301 1.317 . S
C299 H304 0.930 . S
C300 C299 1.333 . S
C300 N302 1.350 . S
C300 H326 0.931 . S
N301 Co297 2.148 . S
N301 C298 1.301 . S
N301 C299 1.317 . S
N302 C298 1.328 . S
N302 C300 1.350 . S
H303 C298 0.930 . S
H304 C299 0.930 . S
C305 O306 1.224 . S
C305 O324 1.247 . S
O306 C305 1.224 . S
N307 Co297 2.128 1_554 S
N307 C308 1.355 . S
N307 C310 1.311 . S
C308 N307 1.355 . S
C308 C309 1.363 . S
C308 H320 0.929 . S
C309 C308 1.363 . S
C309 N311 1.375 . S
C309 H327 0.931 . S
C310 N307 1.311 . S
C310 N311 1.347 . S
C310 H321 0.929 . S
N311 C309 1.375 . S
N311 C310 1.347 . S
C312 C315 1.365 . S
C312 N317 1.328 . S
C312 H318 0.929 . S
C313 C314 1.362 . S
C313 C316 1.378 . S
C313 H328 0.929 . S
C314 C313 1.362 . S
C314 C315 1.366 . S
C315 C312 1.365 . S
C315 C314 1.366 . S
C315 H329 0.930 . S
C316 C313 1.378 . S
C316 N317 1.315 . S
C316 H319 0.930 . S
N317 Co297 2.194 . S
N317 C312 1.328 . S
N317 C316 1.315 . S
H318 C312 0.929 . S
H319 C316 0.930 . S
H320 C308 0.929 . S
H321 C310 0.929 . S
O322 Co297 2.351 . S
O322 C325 1.244 . S
O323 Co297 2.155 . S
O323 C325 1.240 . S
O324 Co297 2.096 . S
O324 C305 1.247 . S
C325 O322 1.244 . S
C325 O323 1.240 . S
H326 C300 0.931 . S
H327 C309 0.931 . S
H328 C313 0.929 . S
H329 C315 0.930 . S
Co330 N334 2.148 . S
Co330 N340 2.128 1_556 S
Co330 N350 2.194 . S
Co330 O355 2.351 . S
Co330 O356 2.155 . S
Co330 O357 2.096 . S
C331 N334 1.301 . S
C331 N335 1.328 . S
C331 H336 0.930 . S
C332 C333 1.333 . S
C332 N334 1.317 . S
C332 H337 0.930 . S
C333 C332 1.333 . S
C333 N335 1.350 . S
C333 H359 0.931 . S
N334 Co330 2.148 . S
N334 C331 1.301 . S
N334 C332 1.317 . S
N335 C331 1.328 . S
N335 C333 1.350 . S
H336 C331 0.930 . S
H337 C332 0.930 . S
C338 O339 1.224 . S
C338 O357 1.247 . S
O339 C338 1.224 . S
N340 Co330 2.128 1_554 S
N340 C341 1.355 . S
N340 C343 1.311 . S
C341 N340 1.355 . S
C341 C342 1.363 . S
C341 H353 0.929 . S
C342 C341 1.363 . S
C342 N344 1.375 . S
C342 H360 0.931 . S
C343 N340 1.311 . S
C343 N344 1.347 . S
C343 H354 0.929 . S
N344 C342 1.375 . S
N344 C343 1.347 . S
C345 C348 1.365 . S
C345 N350 1.328 . S
C345 H351 0.929 . S
C346 C347 1.362 . S
C346 C349 1.378 . S
C346 H361 0.929 . S
C347 C346 1.362 . S
C347 C348 1.366 . S
C348 C345 1.365 . S
C348 C347 1.366 . S
C348 H362 0.930 . S
C349 C346 1.378 . S
C349 N350 1.315 . S
C349 H352 0.930 . S
N350 Co330 2.194 . S
N350 C345 1.328 . S
N350 C349 1.315 . S
H351 C345 0.929 . S
H352 C349 0.930 . S
H353 C341 0.929 . S
H354 C343 0.929 . S
O355 Co330 2.351 . S
O355 C358 1.244 . S
O356 Co330 2.155 . S
O356 C358 1.240 . S
O357 Co330 2.096 . S
O357 C338 1.247 . S
C358 O355 1.244 . S
C358 O356 1.240 . S
H359 C333 0.931 . S
H360 C342 0.931 . S
H361 C346 0.929 . S
H362 C348 0.930 . S
Co363 N367 2.148 . S
Co363 N373 2.128 1_556 S
Co363 N383 2.194 . S
Co363 O388 2.351 . S
Co363 O389 2.155 . S
Co363 O390 2.096 . S
C364 N367 1.301 . S
C364 N368 1.328 . S
C364 H369 0.930 . S
C365 C366 1.333 . S
C365 N367 1.317 . S
C365 H370 0.930 . S
C366 C365 1.333 . S
C366 N368 1.350 . S
C366 H392 0.931 . S
N367 Co363 2.148 . S
N367 C364 1.301 . S
N367 C365 1.317 . S
N368 C364 1.328 . S
N368 C366 1.350 . S
H369 C364 0.930 . S
H370 C365 0.930 . S
C371 O372 1.224 . S
C371 O390 1.247 . S
O372 C371 1.224 . S
N373 Co363 2.128 1_554 S
N373 C374 1.355 . S
N373 C376 1.311 . S
C374 N373 1.355 . S
C374 C375 1.363 . S
C374 H386 0.929 . S
C375 C374 1.363 . S
C375 N377 1.375 . S
C375 H393 0.931 . S
C376 N373 1.311 . S
C376 N377 1.347 . S
C376 H387 0.929 . S
N377 C375 1.375 . S
N377 C376 1.347 . S
C378 C381 1.365 . S
C378 N383 1.328 . S
C378 H384 0.929 . S
C379 C380 1.362 . S
C379 C382 1.378 . S
C379 H394 0.929 . S
C380 C379 1.362 . S
C380 C381 1.366 . S
C381 C378 1.365 . S
C381 C380 1.366 . S
C381 H395 0.930 . S
C382 C379 1.378 . S
C382 N383 1.315 . S
C382 H385 0.930 . S
N383 Co363 2.194 . S
N383 C378 1.328 . S
N383 C382 1.315 . S
H384 C378 0.929 . S
H385 C382 0.930 . S
H386 C374 0.929 . S
H387 C376 0.929 . S
O388 Co363 2.351 . S
O388 C391 1.244 . S
O389 Co363 2.155 . S
O389 C391 1.240 . S
O390 Co363 2.096 . S
O390 C371 1.247 . S
C391 O388 1.244 . S
C391 O389 1.240 . S
H392 C366 0.931 . S
H393 C375 0.931 . S
H394 C379 0.929 . S
H395 C381 0.930 . S
Co396 N400 2.148 . S
Co396 N406 2.128 1_554 S
Co396 N416 2.194 . S
Co396 O421 2.351 . S
Co396 O422 2.155 . S
Co396 O423 2.096 . S
C397 N400 1.301 . S
C397 N401 1.328 . S
C397 H402 0.930 . S
C398 C399 1.333 . S
C398 N400 1.317 . S
C398 H403 0.930 . S
C399 C398 1.333 . S
C399 N401 1.350 . S
C399 H425 0.931 . S
N400 Co396 2.148 . S
N400 C397 1.301 . S
N400 C398 1.317 . S
N401 C397 1.328 . S
N401 C399 1.350 . S
H402 C397 0.930 . S
H403 C398 0.930 . S
C404 O405 1.224 . S
C404 O423 1.247 . S
O405 C404 1.224 . S
N406 Co396 2.128 1_556 S
N406 C407 1.355 . S
N406 C409 1.311 . S
C407 N406 1.355 . S
C407 C408 1.363 . S
C407 H419 0.929 . S
C408 C407 1.363 . S
C408 N410 1.375 . S
C408 H426 0.931 . S
C409 N406 1.311 . S
C409 N410 1.347 . S
C409 H420 0.929 . S
N410 C408 1.375 . S
N410 C409 1.347 . S
C411 C414 1.365 . S
C411 N416 1.328 . S
C411 H417 0.929 . S
C412 C413 1.362 . S
C412 C415 1.378 . S
C412 H427 0.929 . S
C413 C412 1.362 . S
C413 C414 1.366 . S
C414 C411 1.365 . S
C414 C413 1.366 . S
C414 H428 0.930 . S
C415 C412 1.378 . S
C415 N416 1.315 . S
C415 H418 0.930 . S
N416 Co396 2.194 . S
N416 C411 1.328 . S
N416 C415 1.315 . S
H417 C411 0.929 . S
H418 C415 0.930 . S
H419 C407 0.929 . S
H420 C409 0.929 . S
O421 Co396 2.351 . S
O421 C424 1.244 . S
O422 Co396 2.155 . S
O422 C424 1.240 . S
O423 Co396 2.096 . S
O423 C404 1.247 . S
C424 O421 1.244 . S
C424 O422 1.240 . S
H425 C399 0.931 . S
H426 C408 0.931 . S
H427 C412 0.929 . S
H428 C414 0.930 . S
Co429 N433 2.148 . S
Co429 N439 2.128 1_554 S
Co429 N449 2.194 . S
Co429 O454 2.351 . S
Co429 O455 2.155 . S
Co429 O456 2.096 . S
C430 N433 1.301 . S
C430 N434 1.328 . S
C430 H435 0.930 . S
C431 C432 1.333 . S
C431 N433 1.317 . S
C431 H436 0.930 . S
C432 C431 1.333 . S
C432 N434 1.350 . S
C432 H458 0.931 . S
N433 Co429 2.148 . S
N433 C430 1.301 . S
N433 C431 1.317 . S
N434 C430 1.328 . S
N434 C432 1.350 . S
H435 C430 0.930 . S
H436 C431 0.930 . S
C437 O438 1.224 . S
C437 O456 1.247 . S
O438 C437 1.224 . S
N439 Co429 2.128 1_556 S
N439 C440 1.355 . S
N439 C442 1.311 . S
C440 N439 1.355 . S
C440 C441 1.363 . S
C440 H452 0.929 . S
C441 C440 1.363 . S
C441 N443 1.375 . S
C441 H459 0.931 . S
C442 N439 1.311 . S
C442 N443 1.347 . S
C442 H453 0.929 . S
N443 C441 1.375 . S
N443 C442 1.347 . S
C444 C447 1.365 . S
C444 N449 1.328 . S
C444 H450 0.929 . S
C445 C446 1.362 . S
C445 C448 1.378 . S
C445 H460 0.929 . S
C446 C445 1.362 . S
C446 C447 1.366 . S
C447 C444 1.365 . S
C447 C446 1.366 . S
C447 H461 0.930 . S
C448 C445 1.378 . S
C448 N449 1.315 . S
C448 H451 0.930 . S
N449 Co429 2.194 . S
N449 C444 1.328 . S
N449 C448 1.315 . S
H450 C444 0.929 . S
H451 C448 0.930 . S
H452 C440 0.929 . S
H453 C442 0.929 . S
O454 Co429 2.351 . S
O454 C457 1.244 . S
O455 Co429 2.155 . S
O455 C457 1.240 . S
O456 Co429 2.096 . S
O456 C437 1.247 . S
C457 O454 1.244 . S
C457 O455 1.240 . S
H458 C432 0.931 . S
H459 C441 0.931 . S
H460 C445 0.929 . S
H461 C447 0.930 . S
Co462 N466 2.148 . S
Co462 N472 2.128 1_554 S
Co462 N482 2.194 . S
Co462 O487 2.351 . S
Co462 O488 2.155 . S
Co462 O489 2.096 . S
C463 N466 1.301 . S
C463 N467 1.328 . S
C463 H468 0.930 . S
C464 C465 1.333 . S
C464 N466 1.317 . S
C464 H469 0.930 . S
C465 C464 1.333 . S
C465 N467 1.350 . S
C465 H491 0.931 . S
N466 Co462 2.148 . S
N466 C463 1.301 . S
N466 C464 1.317 . S
N467 C463 1.328 . S
N467 C465 1.350 . S
H468 C463 0.930 . S
H469 C464 0.930 . S
C470 O471 1.224 . S
C470 O489 1.247 . S
O471 C470 1.224 . S
N472 Co462 2.128 1_556 S
N472 C473 1.355 . S
N472 C475 1.311 . S
C473 N472 1.355 . S
C473 C474 1.363 . S
C473 H485 0.929 . S
C474 C473 1.363 . S
C474 N476 1.375 . S
C474 H492 0.931 . S
C475 N472 1.311 . S
C475 N476 1.347 . S
C475 H486 0.929 . S
N476 C474 1.375 . S
N476 C475 1.347 . S
C477 C480 1.365 . S
C477 N482 1.328 . S
C477 H483 0.929 . S
C478 C479 1.362 . S
C478 C481 1.378 . S
C478 H493 0.929 . S
C479 C478 1.362 . S
C479 C480 1.366 . S
C480 C477 1.365 . S
C480 C479 1.366 . S
C480 H494 0.930 . S
C481 C478 1.378 . S
C481 N482 1.315 . S
C481 H484 0.930 . S
N482 Co462 2.194 . S
N482 C477 1.328 . S
N482 C481 1.315 . S
H483 C477 0.929 . S
H484 C481 0.930 . S
H485 C473 0.929 . S
H486 C475 0.929 . S
O487 Co462 2.351 . S
O487 C490 1.244 . S
O488 Co462 2.155 . S
O488 C490 1.240 . S
O489 Co462 2.096 . S
O489 C470 1.247 . S
C490 O487 1.244 . S
C490 O488 1.240 . S
H491 C465 0.931 . S
H492 C474 0.931 . S
H493 C478 0.929 . S
H494 C480 0.930 . S
Co495 N499 2.148 . S
Co495 N505 2.128 . S
Co495 N515 2.194 . S
Co495 O520 2.351 . S
Co495 O521 2.155 . S
Co495 O522 2.096 . S
C496 N499 1.301 . S
C496 N500 1.328 1_554 S
C496 H501 0.930 . S
C497 C498 1.333 1_554 S
C497 N499 1.317 . S
C497 H502 0.930 . S
C498 C497 1.333 1_556 S
C498 N500 1.350 . S
C498 H524 0.931 . S
N499 Co495 2.148 . S
N499 C496 1.301 . S
N499 C497 1.317 . S
N500 C496 1.328 1_556 S
N500 C498 1.350 . S
H501 C496 0.930 . S
H502 C497 0.930 . S
C503 O504 1.224 . S
C503 O522 1.247 . S
O504 C503 1.224 . S
N505 Co495 2.128 . S
N505 C506 1.355 . S
N505 C508 1.311 . S
C506 N505 1.355 . S
C506 C507 1.363 . S
C506 H518 0.929 . S
C507 C506 1.363 . S
C507 N509 1.375 . S
C507 H525 0.931 . S
C508 N505 1.311 . S
C508 N509 1.347 . S
C508 H519 0.929 . S
N509 C507 1.375 . S
N509 C508 1.347 . S
C510 C513 1.365 . S
C510 N515 1.328 . S
C510 H516 0.929 . S
C511 C512 1.362 . S
C511 C514 1.378 . S
C511 H526 0.929 . S
C512 C511 1.362 . S
C512 C513 1.366 . S
C513 C510 1.365 . S
C513 C512 1.366 . S
C513 H527 0.930 . S
C514 C511 1.378 . S
C514 N515 1.315 . S
C514 H517 0.930 . S
N515 Co495 2.194 . S
N515 C510 1.328 . S
N515 C514 1.315 . S
H516 C510 0.929 . S
H517 C514 0.930 . S
H518 C506 0.929 . S
H519 C508 0.929 . S
O520 Co495 2.351 . S
O520 C523 1.244 . S
O521 Co495 2.155 . S
O521 C523 1.240 . S
O522 Co495 2.096 . S
O522 C503 1.247 . S
C523 O520 1.244 . S
C523 O521 1.240 . S
H524 C498 0.931 . S
H525 C507 0.931 . S
H526 C511 0.929 . S
H527 C513 0.930 . S
Co528 N532 2.148 . S
Co528 N538 2.128 . S
Co528 N548 2.194 . S
Co528 O553 2.351 . S
Co528 O554 2.155 . S
Co528 O555 2.096 . S
C529 N532 1.301 . S
C529 N533 1.328 1_554 S
C529 H534 0.930 . S
C530 C531 1.333 1_554 S
C530 N532 1.317 . S
C530 H535 0.930 . S
C531 C530 1.333 1_556 S
C531 N533 1.350 . S
C531 H557 0.931 . S
N532 Co528 2.148 . S
N532 C529 1.301 . S
N532 C530 1.317 . S
N533 C529 1.328 1_556 S
N533 C531 1.350 . S
H534 C529 0.930 . S
H535 C530 0.930 . S
C536 O537 1.224 . S
C536 O555 1.247 . S
O537 C536 1.224 . S
N538 Co528 2.128 . S
N538 C539 1.355 . S
N538 C541 1.311 . S
C539 N538 1.355 . S
C539 C540 1.363 . S
C539 H551 0.929 . S
C540 C539 1.363 . S
C540 N542 1.375 . S
C540 H558 0.931 . S
C541 N538 1.311 . S
C541 N542 1.347 . S
C541 H552 0.929 . S
N542 C540 1.375 . S
N542 C541 1.347 . S
C543 C546 1.365 . S
C543 N548 1.328 . S
C543 H549 0.929 . S
C544 C545 1.362 . S
C544 C547 1.378 . S
C544 H559 0.929 . S
C545 C544 1.362 . S
C545 C546 1.366 . S
C546 C543 1.365 . S
C546 C545 1.366 . S
C546 H560 0.930 . S
C547 C544 1.378 . S
C547 N548 1.315 . S
C547 H550 0.930 . S
N548 Co528 2.194 . S
N548 C543 1.328 . S
N548 C547 1.315 . S
H549 C543 0.929 . S
H550 C547 0.930 . S
H551 C539 0.929 . S
H552 C541 0.929 . S
O553 Co528 2.351 . S
O553 C556 1.244 . S
O554 Co528 2.155 . S
O554 C556 1.240 . S
O555 Co528 2.096 . S
O555 C536 1.247 . S
C556 O553 1.244 . S
C556 O554 1.240 . S
H557 C531 0.931 . S
H558 C540 0.931 . S
H559 C544 0.929 . S
H560 C546 0.930 . S
Co561 N565 2.148 . S
Co561 N571 2.128 . S
Co561 N581 2.194 . S
Co561 O586 2.351 . S
Co561 O587 2.155 . S
Co561 O588 2.096 . S
C562 N565 1.301 . S
C562 N566 1.328 1_554 S
C562 H567 0.930 . S
C563 C564 1.333 1_554 S
C563 N565 1.317 . S
C563 H568 0.930 . S
C564 C563 1.333 1_556 S
C564 N566 1.350 . S
C564 H590 0.931 . S
N565 Co561 2.148 . S
N565 C562 1.301 . S
N565 C563 1.317 . S
N566 C562 1.328 1_556 S
N566 C564 1.350 . S
H567 C562 0.930 . S
H568 C563 0.930 . S
C569 O570 1.224 . S
C569 O588 1.247 . S
O570 C569 1.224 . S
N571 Co561 2.128 . S
N571 C572 1.355 . S
N571 C574 1.311 . S
C572 N571 1.355 . S
C572 C573 1.363 . S
C572 H584 0.929 . S
C573 C572 1.363 . S
C573 N575 1.375 . S
C573 H591 0.931 . S
C574 N571 1.311 . S
C574 N575 1.347 . S
C574 H585 0.929 . S
N575 C573 1.375 . S
N575 C574 1.347 . S
C576 C579 1.365 . S
C576 N581 1.328 . S
C576 H582 0.929 . S
C577 C578 1.362 . S
C577 C580 1.378 . S
C577 H592 0.929 . S
C578 C577 1.362 . S
C578 C579 1.366 . S
C579 C576 1.365 . S
C579 C578 1.366 . S
C579 H593 0.930 . S
C580 C577 1.378 . S
C580 N581 1.315 . S
C580 H583 0.930 . S
N581 Co561 2.194 . S
N581 C576 1.328 . S
N581 C580 1.315 . S
H582 C576 0.929 . S
H583 C580 0.930 . S
H584 C572 0.929 . S
H585 C574 0.929 . S
O586 Co561 2.351 . S
O586 C589 1.244 . S
O587 Co561 2.155 . S
O587 C589 1.240 . S
O588 Co561 2.096 . S
O588 C569 1.247 . S
C589 O586 1.244 . S
C589 O587 1.240 . S
H590 C564 0.931 . S
H591 C573 0.931 . S
H592 C577 0.929 . S
H593 C579 0.930 . S
H594 C600 0.930 . S
H595 C603 0.930 . S
H596 C604 0.930 . S
H597 C605 0.930 . S
H598 C608 0.930 . S
H599 C609 0.930 . S
C600 H594 0.930 . S
C600 C601 1.355 . S
C600 C602 1.415 . S
C601 C600 1.355 . S
C601 C603 1.419 . S
C602 C600 1.415 . S
C602 C607 1.425 . S
C602 C609 1.409 . S
C603 H595 0.930 . S
C603 C601 1.419 . S
C603 C604 1.362 . S
C604 H596 0.930 . S
C604 C603 1.362 . S
C604 C607 1.409 . S
C605 H597 0.930 . S
C605 C606 1.355 . S
C605 C607 1.415 . S
C606 C605 1.355 . S
C606 C608 1.419 . S
C607 C602 1.425 . S
C607 C604 1.409 . S
C607 C605 1.415 . S
C608 H598 0.930 . S
C608 C606 1.419 . S
C608 C609 1.362 . S
C609 H599 0.930 . S
C609 C602 1.409 . S
C609 C608 1.362 . S
H610 C616 0.930 . S
H611 C619 0.930 . S
H612 C620 0.930 . S
H613 C621 0.930 . S
H614 C624 0.930 . S
H615 C625 0.930 . S
C616 H610 0.930 . S
C616 C617 1.355 . S
C616 C618 1.415 . S
C617 C616 1.355 . S
C617 C619 1.419 . S
C618 C616 1.415 . S
C618 C623 1.425 1_545 S
C618 C625 1.409 1_545 S
C619 H611 0.930 . S
C619 C617 1.419 . S
C619 C620 1.362 . S
C620 H612 0.930 . S
C620 C619 1.362 . S
C620 C623 1.409 1_545 S
C621 H613 0.930 . S
C621 C622 1.355 . S
C621 C623 1.415 . S
C622 C621 1.355 . S
C622 C624 1.419 . S
C623 C618 1.425 1_565 S
C623 C620 1.409 1_565 S
C623 C621 1.415 . S
C624 H614 0.930 . S
C624 C622 1.419 . S
C624 C625 1.362 . S
C625 H615 0.930 . S
C625 C618 1.409 1_565 S
C625 C624 1.362 . S
H626 C632 0.930 . S
H627 C635 0.930 . S
H628 C636 0.930 . S
H629 C637 0.930 . S
H630 C640 0.930 . S
H631 C641 0.930 . S
C632 H626 0.930 . S
C632 C633 1.355 . S
C632 C634 1.415 . S
C633 C632 1.355 . S
C633 C635 1.419 . S
C634 C632 1.415 . S
C634 C639 1.425 1_655 S
C634 C641 1.409 1_655 S
C635 H627 0.930 . S
C635 C633 1.419 . S
C635 C636 1.362 . S
C636 H628 0.930 . S
C636 C635 1.362 . S
C636 C639 1.409 1_655 S
C637 H629 0.930 . S
C637 C638 1.355 . S
C637 C639 1.415 . S
C638 C637 1.355 . S
C638 C640 1.419 . S
C639 C634 1.425 1_455 S
C639 C636 1.409 1_455 S
C639 C637 1.415 . S
C640 H630 0.930 . S
C640 C638 1.419 . S
C640 C641 1.362 . S
C641 H631 0.930 . S
C641 C634 1.409 1_455 S
C641 C640 1.362 . S
H642 C648 0.930 . S
H643 C651 0.930 . S
H644 C652 0.930 . S
H645 C653 0.930 . S
H646 C656 0.930 . S
H647 C657 0.930 . S
C648 H642 0.930 . S
C648 C649 1.355 . S
C648 C650 1.415 . S
C649 C648 1.355 . S
C649 C651 1.419 . S
C650 C648 1.415 . S
C650 C655 1.425 . S
C650 C657 1.409 . S
C651 H643 0.930 . S
C651 C649 1.419 . S
C651 C652 1.362 . S
C652 H644 0.930 . S
C652 C651 1.362 . S
C652 C655 1.409 . S
C653 H645 0.930 . S
C653 C654 1.355 . S
C653 C655 1.415 . S
C654 C653 1.355 . S
C654 C656 1.419 . S
C655 C650 1.425 . S
C655 C652 1.409 . S
C655 C653 1.415 . S
C656 H646 0.930 . S
C656 C654 1.419 . S
C656 C657 1.362 . S
C657 H647 0.930 . S
C657 C650 1.409 . S
C657 C656 1.362 . S
H658 C664 0.930 . S
H659 C667 0.930 . S
H660 C668 0.930 . S
H661 C669 0.930 . S
H662 C672 0.930 . S
H663 C673 0.930 . S
C664 H658 0.930 . S
C664 C665 1.355 . S
C664 C666 1.415 . S
C665 C664 1.355 . S
C665 C667 1.419 . S
C666 C664 1.415 . S
C666 C671 1.425 1_545 S
C666 C673 1.409 1_545 S
C667 H659 0.930 . S
C667 C665 1.419 . S
C667 C668 1.362 . S
C668 H660 0.930 . S
C668 C667 1.362 . S
C668 C671 1.409 1_545 S
C669 H661 0.930 . S
C669 C670 1.355 . S
C669 C671 1.415 . S
C670 C669 1.355 . S
C670 C672 1.419 . S
C671 C666 1.425 1_565 S
C671 C668 1.409 1_565 S
C671 C669 1.415 . S
C672 H662 0.930 . S
C672 C670 1.419 . S
C672 C673 1.362 . S
C673 H663 0.930 . S
C673 C666 1.409 1_565 S
C673 C672 1.362 . S
H674 C680 0.930 . S
H675 C683 0.930 . S
H676 C684 0.930 . S
H677 C685 0.930 . S
H678 C688 0.930 . S
H679 C689 0.930 . S
C680 H674 0.930 . S
C680 C681 1.355 . S
C680 C682 1.415 . S
C681 C680 1.355 . S
C681 C683 1.419 . S
C682 C680 1.415 . S
C682 C687 1.425 1_655 S
C682 C689 1.409 1_655 S
C683 H675 0.930 . S
C683 C681 1.419 . S
C683 C684 1.362 . S
C684 H676 0.930 . S
C684 C683 1.362 . S
C684 C687 1.409 1_655 S
C685 H677 0.930 . S
C685 C686 1.355 . S
C685 C687 1.415 . S
C686 C685 1.355 . S
C686 C688 1.419 . S
C687 C682 1.425 1_455 S
C687 C684 1.409 1_455 S
C687 C685 1.415 . S
C688 H678 0.930 . S
C688 C686 1.419 . S
C688 C689 1.362 . S
C689 H679 0.930 . S
C689 C682 1.409 1_455 S
C689 C688 1.362 . S
H690 C696 0.930 . S
H691 C699 0.930 . S
H692 C700 0.930 . S
H693 C701 0.930 . S
H694 C704 0.930 . S
H695 C705 0.930 . S
C696 H690 0.930 . S
C696 C697 1.355 . S
C696 C698 1.415 . S
C697 C696 1.355 . S
C697 C699 1.419 . S
C698 C696 1.415 . S
C698 C703 1.425 . S
C698 C705 1.409 . S
C699 H691 0.930 . S
C699 C697 1.419 . S
C699 C700 1.362 . S
C700 H692 0.930 . S
C700 C699 1.362 . S
C700 C703 1.409 . S
C701 H693 0.930 . S
C701 C702 1.355 . S
C701 C703 1.415 . S
C702 C701 1.355 . S
C702 C704 1.419 . S
C703 C698 1.425 . S
C703 C700 1.409 . S
C703 C701 1.415 . S
C704 H694 0.930 . S
C704 C702 1.419 . S
C704 C705 1.362 . S
C705 H695 0.930 . S
C705 C698 1.409 . S
C705 C704 1.362 . S
H706 C712 0.930 . S
H707 C715 0.930 . S
H708 C716 0.930 . S
H709 C717 0.930 . S
H710 C720 0.930 . S
H711 C721 0.930 . S
C712 H706 0.930 . S
C712 C713 1.355 . S
C712 C714 1.415 . S
C713 C712 1.355 . S
C713 C715 1.419 . S
C714 C712 1.415 . S
C714 C719 1.425 . S
C714 C721 1.409 . S
C715 H707 0.930 . S
C715 C713 1.419 . S
C715 C716 1.362 . S
C716 H708 0.930 . S
C716 C715 1.362 . S
C716 C719 1.409 . S
C717 H709 0.930 . S
C717 C718 1.355 . S
C717 C719 1.415 . S
C718 C717 1.355 . S
C718 C720 1.419 . S
C719 C714 1.425 . S
C719 C716 1.409 . S
C719 C717 1.415 . S
C720 H710 0.930 . S
C720 C718 1.419 . S
C720 C721 1.362 . S
C721 H711 0.930 . S
C721 C714 1.409 . S
C721 C720 1.362 . S
H722 C728 0.930 . S
H723 C731 0.930 . S
H724 C732 0.930 . S
H725 C733 0.930 . S
H726 C736 0.930 . S
H727 C737 0.930 . S
C728 H722 0.930 . S
C728 C729 1.355 . S
C728 C730 1.415 . S
C729 C728 1.355 . S
C729 C731 1.419 . S
C730 C728 1.415 . S
C730 C735 1.425 . S
C730 C737 1.409 . S
C731 H723 0.930 . S
C731 C729 1.419 . S
C731 C732 1.362 . S
C732 H724 0.930 . S
C732 C731 1.362 . S
C732 C735 1.409 . S
C733 H725 0.930 . S
C733 C734 1.355 . S
C733 C735 1.415 . S
C734 C733 1.355 . S
C734 C736 1.419 . S
C735 C730 1.425 . S
C735 C732 1.409 . S
C735 C733 1.415 . S
C736 H726 0.930 . S
C736 C734 1.419 . S
C736 C737 1.362 . S
C737 H727 0.930 . S
C737 C730 1.409 . S
C737 C736 1.362 . S
H738 C744 0.930 . S
H739 C747 0.930 . S
H740 C748 0.930 . S
H741 C749 0.930 . S
H742 C752 0.930 . S
H743 C753 0.930 . S
C744 H738 0.930 . S
C744 C745 1.355 . S
C744 C746 1.415 . S
C745 C744 1.355 . S
C745 C747 1.419 . S
C746 C744 1.415 . S
C746 C751 1.425 . S
C746 C753 1.409 . S
C747 H739 0.930 . S
C747 C745 1.419 . S
C747 C748 1.362 . S
C748 H740 0.930 . S
C748 C747 1.362 . S
C748 C751 1.409 . S
C749 H741 0.930 . S
C749 C750 1.355 . S
C749 C751 1.415 . S
C750 C749 1.355 . S
C750 C752 1.419 . S
C751 C746 1.425 . S
C751 C748 1.409 . S
C751 C749 1.415 . S
C752 H742 0.930 . S
C752 C750 1.419 . S
C752 C753 1.362 . S
C753 H743 0.930 . S
C753 C746 1.409 . S
C753 C752 1.362 . S
H754 C760 0.930 . S
H755 C763 0.930 . S
H756 C764 0.930 . S
H757 C765 0.930 . S
H758 C768 0.930 . S
H759 C769 0.930 . S
C760 H754 0.930 . S
C760 C761 1.355 . S
C760 C762 1.415 . S
C761 C760 1.355 . S
C761 C763 1.419 . S
C762 C760 1.415 . S
C762 C767 1.425 . S
C762 C769 1.409 . S
C763 H755 0.930 . S
C763 C761 1.419 . S
C763 C764 1.362 . S
C764 H756 0.930 . S
C764 C763 1.362 . S
C764 C767 1.409 . S
C765 H757 0.930 . S
C765 C766 1.355 . S
C765 C767 1.415 . S
C766 C765 1.355 . S
C766 C768 1.419 . S
C767 C762 1.425 . S
C767 C764 1.409 . S
C767 C765 1.415 . S
C768 H758 0.930 . S
C768 C766 1.419 . S
C768 C769 1.362 . S
C769 H759 0.930 . S
C769 C762 1.409 . S
C769 C768 1.362 . S
H770 C776 0.930 . S
H771 C779 0.930 . S
H772 C780 0.930 . S
H773 C781 0.930 . S
H774 C784 0.930 . S
H775 C785 0.930 . S
C776 H770 0.930 . S
C776 C777 1.355 . S
C776 C778 1.415 . S
C777 C776 1.355 . S
C777 C779 1.419 . S
C778 C776 1.415 . S
C778 C783 1.425 . S
C778 C785 1.409 . S
C779 H771 0.930 . S
C779 C777 1.419 . S
C779 C780 1.362 . S
C780 H772 0.930 . S
C780 C779 1.362 . S
C780 C783 1.409 . S
C781 H773 0.930 . S
C781 C782 1.355 . S
C781 C783 1.415 . S
C782 C781 1.355 . S
C782 C784 1.419 . S
C783 C778 1.425 . S
C783 C780 1.409 . S
C783 C781 1.415 . S
C784 H774 0.930 . S
C784 C782 1.419 . S
C784 C785 1.362 . S
C785 H775 0.930 . S
C785 C778 1.409 . S
C785 C784 1.362 . S
H786 C792 0.930 . S
H787 C795 0.930 . S
H788 C796 0.930 . S
H789 C797 0.930 . S
H790 C800 0.930 . S
H791 C801 0.930 . S
C792 H786 0.930 . S
C792 C793 1.355 . S
C792 C794 1.415 . S
C793 C792 1.355 . S
C793 C795 1.419 . S
C794 C792 1.415 . S
C794 C799 1.425 . S
C794 C801 1.409 . S
C795 H787 0.930 . S
C795 C793 1.419 . S
C795 C796 1.362 . S
C796 H788 0.930 . S
C796 C795 1.362 . S
C796 C799 1.409 . S
C797 H789 0.930 . S
C797 C798 1.355 . S
C797 C799 1.415 . S
C798 C797 1.355 . S
C798 C800 1.419 . S
C799 C794 1.425 . S
C799 C796 1.409 . S
C799 C797 1.415 . S
C800 H790 0.930 . S
C800 C798 1.419 . S
C800 C801 1.362 . S
C801 H791 0.930 . S
C801 C794 1.409 . S
C801 C800 1.362 . S
H802 C808 0.930 . S
H803 C811 0.930 . S
H804 C812 0.930 . S
H805 C813 0.930 . S
H806 C816 0.930 . S
H807 C817 0.930 . S
C808 H802 0.930 . S
C808 C809 1.355 . S
C808 C810 1.415 . S
C809 C808 1.355 . S
C809 C811 1.419 . S
C810 C808 1.415 . S
C810 C815 1.425 . S
C810 C817 1.409 . S
C811 H803 0.930 . S
C811 C809 1.419 . S
C811 C812 1.362 . S
C812 H804 0.930 . S
C812 C811 1.362 . S
C812 C815 1.409 . S
C813 H805 0.930 . S
C813 C814 1.355 . S
C813 C815 1.415 . S
C814 C813 1.355 . S
C814 C816 1.419 . S
C815 C810 1.425 . S
C815 C812 1.409 . S
C815 C813 1.415 . S
C816 H806 0.930 . S
C816 C814 1.419 . S
C816 C817 1.362 . S
C817 H807 0.930 . S
C817 C810 1.409 . S
C817 C816 1.362 . S
H818 C824 0.930 . S
H819 C827 0.930 . S
H820 C828 0.930 . S
H821 C829 0.930 . S
H822 C832 0.930 . S
H823 C833 0.930 . S
C824 H818 0.930 . S
C824 C825 1.355 . S
C824 C826 1.415 . S
C825 C824 1.355 . S
C825 C827 1.419 . S
C826 C824 1.415 . S
C826 C831 1.425 . S
C826 C833 1.409 . S
C827 H819 0.930 . S
C827 C825 1.419 . S
C827 C828 1.362 . S
C828 H820 0.930 . S
C828 C827 1.362 . S
C828 C831 1.409 . S
C829 H821 0.930 . S
C829 C830 1.355 . S
C829 C831 1.415 . S
C830 C829 1.355 . S
C830 C832 1.419 . S
C831 C826 1.425 . S
C831 C828 1.409 . S
C831 C829 1.415 . S
C832 H822 0.930 . S
C832 C830 1.419 . S
C832 C833 1.362 . S
C833 H823 0.930 . S
C833 C826 1.409 . S
C833 C832 1.362 . S
H834 C840 0.930 . S
H835 C843 0.930 . S
H836 C844 0.930 . S
H837 C845 0.930 . S
H838 C848 0.930 . S
H839 C849 0.930 . S
C840 H834 0.930 . S
C840 C841 1.355 . S
C840 C842 1.415 . S
C841 C840 1.355 . S
C841 C843 1.419 . S
C842 C840 1.415 . S
C842 C847 1.425 . S
C842 C849 1.409 . S
C843 H835 0.930 . S
C843 C841 1.419 . S
C843 C844 1.362 . S
C844 H836 0.930 . S
C844 C843 1.362 . S
C844 C847 1.409 . S
C845 H837 0.930 . S
C845 C846 1.355 . S
C845 C847 1.415 . S
C846 C845 1.355 . S
C846 C848 1.419 . S
C847 C842 1.425 . S
C847 C844 1.409 . S
C847 C845 1.415 . S
C848 H838 0.930 . S
C848 C846 1.419 . S
C848 C849 1.362 . S
C849 H839 0.930 . S
C849 C842 1.409 . S
C849 C848 1.362 . S
H850 C856 0.930 . S
H851 C859 0.930 . S
H852 C860 0.930 . S
H853 C861 0.930 . S
H854 C864 0.930 . S
H855 C865 0.930 . S
C856 H850 0.930 . S
C856 C857 1.355 . S
C856 C858 1.415 . S
C857 C856 1.355 . S
C857 C859 1.419 . S
C858 C856 1.415 . S
C858 C863 1.425 . S
C858 C865 1.409 . S
C859 H851 0.930 . S
C859 C857 1.419 . S
C859 C860 1.362 . S
C860 H852 0.930 . S
C860 C859 1.362 . S
C860 C863 1.409 . S
C861 H853 0.930 . S
C861 C862 1.355 . S
C861 C863 1.415 . S
C862 C861 1.355 . S
C862 C864 1.419 . S
C863 C858 1.425 . S
C863 C860 1.409 . S
C863 C861 1.415 . S
C864 H854 0.930 . S
C864 C862 1.419 . S
C864 C865 1.362 . S
C865 H855 0.930 . S
C865 C858 1.409 . S
C865 C864 1.362 . S
H866 C872 0.930 . S
H867 C875 0.930 . S
H868 C876 0.930 . S
H869 C877 0.930 . S
H870 C880 0.930 . S
H871 C881 0.930 . S
C872 H866 0.930 . S
C872 C873 1.355 . S
C872 C874 1.415 . S
C873 C872 1.355 . S
C873 C875 1.419 . S
C874 C872 1.415 . S
C874 C879 1.425 . S
C874 C881 1.409 . S
C875 H867 0.930 . S
C875 C873 1.419 . S
C875 C876 1.362 . S
C876 H868 0.930 . S
C876 C875 1.362 . S
C876 C879 1.409 . S
C877 H869 0.930 . S
C877 C878 1.355 . S
C877 C879 1.415 . S
C878 C877 1.355 . S
C878 C880 1.419 . S
C879 C874 1.425 . S
C879 C876 1.409 . S
C879 C877 1.415 . S
C880 H870 0.930 . S
C880 C878 1.419 . S
C880 C881 1.362 . S
C881 H871 0.930 . S
C881 C874 1.409 . S
C881 C880 1.362 . S
H882 C888 0.930 . S
H883 C891 0.930 . S
H884 C892 0.930 . S
H885 C893 0.930 . S
H886 C896 0.930 . S
H887 C897 0.930 . S
C888 H882 0.930 . S
C888 C889 1.355 . S
C888 C890 1.415 . S
C889 C888 1.355 . S
C889 C891 1.419 . S
C890 C888 1.415 . S
C890 C895 1.425 . S
C890 C897 1.409 . S
C891 H883 0.930 . S
C891 C889 1.419 . S
C891 C892 1.362 . S
C892 H884 0.930 . S
C892 C891 1.362 . S
C892 C895 1.409 . S
C893 H885 0.930 . S
C893 C894 1.355 . S
C893 C895 1.415 . S
C894 C893 1.355 . S
C894 C896 1.419 . S
C895 C890 1.425 . S
C895 C892 1.409 . S
C895 C893 1.415 . S
C896 H886 0.930 . S
C896 C894 1.419 . S
C896 C897 1.362 . S
C897 H887 0.930 . S
C897 C890 1.409 . S
C897 C896 1.362 . S
H898 C904 0.930 . S
H899 C907 0.930 . S
H900 C908 0.930 . S
H901 C909 0.930 . S
H902 C912 0.930 . S
H903 C913 0.930 . S
C904 H898 0.930 . S
C904 C905 1.355 . S
C904 C906 1.415 . S
C905 C904 1.355 . S
C905 C907 1.419 . S
C906 C904 1.415 . S
C906 C911 1.425 . S
C906 C913 1.409 . S
C907 H899 0.930 . S
C907 C905 1.419 . S
C907 C908 1.362 . S
C908 H900 0.930 . S
C908 C907 1.362 . S
C908 C911 1.409 . S
C909 H901 0.930 . S
C909 C910 1.355 . S
C909 C911 1.415 . S
C910 C909 1.355 . S
C910 C912 1.419 . S
C911 C906 1.425 . S
C911 C908 1.409 . S
C911 C909 1.415 . S
C912 H902 0.930 . S
C912 C910 1.419 . S
C912 C913 1.362 . S
C913 H903 0.930 . S
C913 C906 1.409 . S
C913 C912 1.362 . S
H914 C920 0.930 . S
H915 C923 0.930 . S
H916 C924 0.930 . S
H917 C925 0.930 . S
H918 C928 0.930 . S
H919 C929 0.930 . S
C920 H914 0.930 . S
C920 C921 1.355 . S
C920 C922 1.415 . S
C921 C920 1.355 . S
C921 C923 1.419 . S
C922 C920 1.415 . S
C922 C927 1.425 . S
C922 C929 1.409 . S
C923 H915 0.930 . S
C923 C921 1.419 . S
C923 C924 1.362 . S
C924 H916 0.930 . S
C924 C923 1.362 . S
C924 C927 1.409 . S
C925 H917 0.930 . S
C925 C926 1.355 . S
C925 C927 1.415 . S
C926 C925 1.355 . S
C926 C928 1.419 . S
C927 C922 1.425 . S
C927 C924 1.409 . S
C927 C925 1.415 . S
C928 H918 0.930 . S
C928 C926 1.419 . S
C928 C929 1.362 . S
C929 H919 0.930 . S
C929 C922 1.409 . S
C929 C928 1.362 . S
H930 C936 0.930 . S
H931 C939 0.930 . S
H932 C940 0.930 . S
H933 C941 0.930 . S
H934 C944 0.930 . S
H935 C945 0.930 . S
C936 H930 0.930 . S
C936 C937 1.355 . S
C936 C938 1.415 . S
C937 C936 1.355 . S
C937 C939 1.419 . S
C938 C936 1.415 . S
C938 C943 1.425 . S
C938 C945 1.409 . S
C939 H931 0.930 . S
C939 C937 1.419 . S
C939 C940 1.362 . S
C940 H932 0.930 . S
C940 C939 1.362 . S
C940 C943 1.409 . S
C941 H933 0.930 . S
C941 C942 1.355 . S
C941 C943 1.415 . S
C942 C941 1.355 . S
C942 C944 1.419 . S
C943 C938 1.425 . S
C943 C940 1.409 . S
C943 C941 1.415 . S
C944 H934 0.930 . S
C944 C942 1.419 . S
C944 C945 1.362 . S
C945 H935 0.930 . S
C945 C938 1.409 . S
C945 C944 1.362 . S
H946 C952 0.930 . S
H947 C955 0.930 . S
H948 C956 0.930 . S
H949 C957 0.930 . S
H950 C960 0.930 . S
H951 C961 0.930 . S
C952 H946 0.930 . S
C952 C953 1.355 . S
C952 C954 1.415 . S
C953 C952 1.355 . S
C953 C955 1.419 . S
C954 C952 1.415 . S
C954 C959 1.425 . S
C954 C961 1.409 . S
C955 H947 0.930 . S
C955 C953 1.419 . S
C955 C956 1.362 . S
C956 H948 0.930 . S
C956 C955 1.362 . S
C956 C959 1.409 . S
C957 H949 0.930 . S
C957 C958 1.355 . S
C957 C959 1.415 . S
C958 C957 1.355 . S
C958 C960 1.419 . S
C959 C954 1.425 . S
C959 C956 1.409 . S
C959 C957 1.415 . S
C960 H950 0.930 . S
C960 C958 1.419 . S
C960 C961 1.362 . S
C961 H951 0.930 . S
C961 C954 1.409 . S
C961 C960 1.362 . S
H962 C968 0.930 . S
H963 C971 0.930 . S
H964 C972 0.930 . S
H965 C973 0.930 . S
H966 C976 0.930 . S
H967 C977 0.930 . S
C968 H962 0.930 . S
C968 C969 1.355 . S
C968 C970 1.415 . S
C969 C968 1.355 . S
C969 C971 1.419 . S
C970 C968 1.415 . S
C970 C975 1.425 . S
C970 C977 1.409 . S
C971 H963 0.930 . S
C971 C969 1.419 . S
C971 C972 1.362 . S
C972 H964 0.930 . S
C972 C971 1.362 . S
C972 C975 1.409 . S
C973 H965 0.930 . S
C973 C974 1.355 . S
C973 C975 1.415 . S
C974 C973 1.355 . S
C974 C976 1.419 . S
C975 C970 1.425 . S
C975 C972 1.409 . S
C975 C973 1.415 . S
C976 H966 0.930 . S
C976 C974 1.419 . S
C976 C977 1.362 . S
C977 H967 0.930 . S
C977 C970 1.409 . S
C977 C976 1.362 . S
H978 C984 0.930 . S
H979 C987 0.930 . S
H980 C988 0.930 . S
H981 C989 0.930 . S
H982 C992 0.930 . S
H983 C993 0.930 . S
C984 H978 0.930 . S
C984 C985 1.355 . S
C984 C986 1.432 . S
C985 C984 1.355 . S
C985 C987 1.419 1_554 S
C986 C984 1.432 . S
C986 C991 1.419 1_454 S
C986 C993 1.398 1_455 S
C987 H979 0.930 . S
C987 C985 1.419 1_556 S
C987 C988 1.362 . S
C988 H980 0.930 . S
C988 C987 1.362 . S
C988 C991 1.409 1_455 S
C989 H981 0.930 . S
C989 C990 1.355 . S
C989 C991 1.415 . S
C990 C989 1.355 . S
C990 C992 1.419 1_556 S
C991 C986 1.419 1_656 S
C991 C988 1.409 1_655 S
C991 C989 1.415 . S
C992 H982 0.930 . S
C992 C990 1.419 1_554 S
C992 C993 1.362 . S
C993 H983 0.930 . S
C993 C986 1.398 1_655 S
C993 C992 1.362 . S
H994 C1000 0.930 . S
H995 C1003 0.930 . S
H996 C1004 0.930 . S
H997 C1005 0.930 . S
H998 C1008 0.930 . S
H999 C1009 0.930 . S
C1000 H994 0.930 . S
C1000 C1001 1.355 . S
C1000 C1002 1.415 1_554 S
C1001 C1000 1.355 . S
C1001 C1003 1.419 . S
C1002 C1000 1.415 1_556 S
C1002 C1007 1.425 1_556 S
C1002 C1009 1.409 . S
C1003 H995 0.930 . S
C1003 C1001 1.419 . S
C1003 C1004 1.362 . S
C1004 H996 0.930 . S
C1004 C1003 1.362 . S
C1004 C1007 1.409 . S
C1005 H997 0.930 . S
C1005 C1006 1.355 . S
C1005 C1007 1.415 1_556 S
C1006 C1005 1.355 . S
C1006 C1008 1.419 . S
C1007 C1002 1.425 1_554 S
C1007 C1004 1.409 . S
C1007 C1005 1.415 1_554 S
C1008 H998 0.930 . S
C1008 C1006 1.419 . S
C1008 C1009 1.362 . S
C1009 H999 0.930 . S
C1009 C1002 1.409 . S
C1009 C1008 1.362 . S
H1010 C1016 0.930 . S
H1011 C1019 0.930 . S
H1012 C1020 0.930 . S
H1013 C1021 0.930 . S
H1014 C1024 0.930 . S
H1015 C1025 0.930 . S
C1016 H1010 0.930 . S
C1016 C1017 1.355 . S
C1016 C1018 1.415 . S
C1017 C1016 1.355 . S
C1017 C1019 1.419 . S
C1018 C1016 1.415 . S
C1018 C1023 1.425 1_546 S
C1018 C1025 1.409 1_546 S
C1019 H1011 0.930 . S
C1019 C1017 1.419 . S
C1019 C1020 1.362 . S
C1020 H1012 0.930 . S
C1020 C1019 1.362 . S
C1020 C1023 1.409 1_546 S
C1021 H1013 0.930 . S
C1021 C1022 1.355 . S
C1021 C1023 1.415 . S
C1022 C1021 1.355 . S
C1022 C1024 1.419 . S
C1023 C1018 1.425 1_564 S
C1023 C1020 1.409 1_564 S
C1023 C1021 1.415 . S
C1024 H1014 0.930 . S
C1024 C1022 1.419 . S
C1024 C1025 1.362 . S
C1025 H1015 0.930 . S
C1025 C1018 1.409 1_564 S
C1025 C1024 1.362 . S
H1026 C1032 0.930 . S
H1027 C1035 0.930 . S
H1028 C1036 0.930 . S
H1029 C1037 0.930 . S
H1030 C1040 0.930 . S
H1031 C1041 0.930 . S
C1032 H1026 0.930 . S
C1032 C1033 1.355 . S
C1032 C1034 1.415 . S
C1033 C1032 1.355 . S
C1033 C1035 1.419 . S
C1034 C1032 1.415 . S
C1034 C1039 1.425 . S
C1034 C1041 1.409 . S
C1035 H1027 0.930 . S
C1035 C1033 1.419 . S
C1035 C1036 1.362 . S
C1036 H1028 0.930 . S
C1036 C1035 1.362 . S
C1036 C1039 1.409 . S
C1037 H1029 0.930 . S
C1037 C1038 1.355 . S
C1037 C1039 1.415 1_554 S
C1038 C1037 1.355 . S
C1038 C1040 1.419 . S
C1039 C1034 1.425 . S
C1039 C1036 1.409 . S
C1039 C1037 1.415 1_556 S
C1040 H1030 0.930 . S
C1040 C1038 1.419 . S
C1040 C1041 1.362 1_554 S
C1041 H1031 0.930 . S
C1041 C1034 1.409 . S
C1041 C1040 1.362 1_556 S
H1042 C1048 0.930 . S
H1043 C1051 0.930 . S
H1044 C1052 0.930 . S
H1045 C1053 0.930 . S
H1046 C1056 0.930 . S
H1047 C1057 0.930 . S
C1048 H1042 0.930 . S
C1048 C1049 1.355 . S
C1048 C1050 1.415 . S
C1049 C1048 1.355 . S
C1049 C1051 1.419 . S
C1050 C1048 1.415 . S
C1050 C1055 1.425 . S
C1050 C1057 1.409 . S
C1051 H1043 0.930 . S
C1051 C1049 1.419 . S
C1051 C1052 1.362 . S
C1052 H1044 0.930 . S
C1052 C1051 1.362 . S
C1052 C1055 1.409 . S
C1053 H1045 0.930 . S
C1053 C1054 1.355 . S
C1053 C1055 1.415 1_554 S
C1054 C1053 1.355 . S
C1054 C1056 1.419 . S
C1055 C1050 1.425 . S
C1055 C1052 1.409 . S
C1055 C1053 1.415 1_556 S
C1056 H1046 0.930 . S
C1056 C1054 1.419 . S
C1056 C1057 1.362 1_554 S
C1057 H1047 0.930 . S
C1057 C1050 1.409 . S
C1057 C1056 1.362 1_556 S
H1058 C1064 0.930 . S
H1059 C1067 0.930 . S
H1060 C1068 0.930 . S
H1061 C1069 0.930 . S
H1062 C1072 0.930 . S
H1063 C1073 0.930 . S
C1064 H1058 0.930 . S
C1064 C1065 1.355 . S
C1064 C1066 1.415 . S
C1065 C1064 1.355 . S
C1065 C1067 1.419 . S
C1066 C1064 1.415 . S
C1066 C1071 1.425 . S
C1066 C1073 1.409 . S
C1067 H1059 0.930 . S
C1067 C1065 1.419 . S
C1067 C1068 1.362 . S
C1068 H1060 0.930 . S
C1068 C1067 1.362 . S
C1068 C1071 1.409 . S
C1069 H1061 0.930 . S
C1069 C1070 1.355 . S
C1069 C1071 1.415 1_554 S
C1070 C1069 1.355 . S
C1070 C1072 1.419 . S
C1071 C1066 1.425 . S
C1071 C1068 1.409 . S
C1071 C1069 1.415 1_556 S
C1072 H1062 0.930 . S
C1072 C1070 1.419 . S
C1072 C1073 1.362 1_554 S
C1073 H1063 0.930 . S
C1073 C1066 1.409 . S
C1073 C1072 1.362 1_556 S
H1074 C1080 0.930 . S
H1075 C1083 0.930 . S
H1076 C1084 0.930 . S
H1077 C1085 0.930 . S
H1078 C1088 0.930 . S
H1079 C1089 0.930 . S
C1080 H1074 0.930 . S
C1080 C1081 1.355 . S
C1080 C1082 1.415 1_556 S
C1081 C1080 1.355 . S
C1081 C1083 1.419 . S
C1082 C1080 1.415 1_554 S
C1082 C1087 1.425 . S
C1082 C1089 1.409 . S
C1083 H1075 0.930 . S
C1083 C1081 1.419 . S
C1083 C1084 1.362 1_556 S
C1084 H1076 0.930 . S
C1084 C1083 1.362 1_554 S
C1084 C1087 1.409 . S
C1085 H1077 0.930 . S
C1085 C1086 1.355 . S
C1085 C1087 1.415 . S
C1086 C1085 1.355 . S
C1086 C1088 1.419 . S
C1087 C1082 1.425 . S
C1087 C1084 1.409 . S
C1087 C1085 1.415 . S
C1088 H1078 0.930 . S
C1088 C1086 1.419 . S
C1088 C1089 1.362 . S
C1089 H1079 0.930 . S
C1089 C1082 1.409 . S
C1089 C1088 1.362 . S
H1090 C1096 0.930 . S
H1091 C1099 0.930 . S
H1092 C1100 0.930 . S
H1093 C1101 0.930 . S
H1094 C1104 0.930 . S
H1095 C1105 0.930 . S
C1096 H1090 0.930 . S
C1096 C1097 1.355 . S
C1096 C1098 1.415 1_556 S
C1097 C1096 1.355 . S
C1097 C1099 1.419 . S
C1098 C1096 1.415 1_554 S
C1098 C1103 1.425 . S
C1098 C1105 1.409 . S
C1099 H1091 0.930 . S
C1099 C1097 1.419 . S
C1099 C1100 1.362 1_556 S
C1100 H1092 0.930 . S
C1100 C1099 1.362 1_554 S
C1100 C1103 1.409 . S
C1101 H1093 0.930 . S
C1101 C1102 1.355 . S
C1101 C1103 1.415 . S
C1102 C1101 1.355 . S
C1102 C1104 1.419 . S
C1103 C1098 1.425 . S
C1103 C1100 1.409 . S
C1103 C1101 1.415 . S
C1104 H1094 0.930 . S
C1104 C1102 1.419 . S
C1104 C1105 1.362 . S
C1105 H1095 0.930 . S
C1105 C1098 1.409 . S
C1105 C1104 1.362 . S
H1106 C1112 0.930 . S
H1107 C1115 0.930 . S
H1108 C1116 0.930 . S
H1109 C1117 0.930 . S
H1110 C1120 0.930 . S
H1111 C1121 0.930 . S
C1112 H1106 0.930 . S
C1112 C1113 1.355 . S
C1112 C1114 1.415 . S
C1113 C1112 1.355 . S
C1113 C1115 1.419 . S
C1114 C1112 1.415 . S
C1114 C1119 1.425 . S
C1114 C1121 1.409 . S
C1115 H1107 0.930 . S
C1115 C1113 1.419 . S
C1115 C1116 1.362 . S
C1116 H1108 0.930 . S
C1116 C1115 1.362 . S
C1116 C1119 1.409 . S
C1117 H1109 0.930 . S
C1117 C1118 1.355 . S
C1117 C1119 1.415 1_556 S
C1118 C1117 1.355 . S
C1118 C1120 1.419 . S
C1119 C1114 1.425 . S
C1119 C1116 1.409 . S
C1119 C1117 1.415 1_554 S
C1120 H1110 0.930 . S
C1120 C1118 1.419 . S
C1120 C1121 1.362 1_556 S
C1121 H1111 0.930 . S
C1121 C1114 1.409 . S
C1121 C1120 1.362 1_554 S
H1122 C1128 0.930 . S
H1123 C1131 0.930 . S
H1124 C1132 0.930 . S
H1125 C1133 0.930 . S
H1126 C1136 0.930 . S
H1127 C1137 0.930 . S
C1128 H1122 0.930 . S
C1128 C1129 1.355 . S
C1128 C1130 1.415 . S
C1129 C1128 1.355 . S
C1129 C1131 1.419 . S
C1130 C1128 1.415 . S
C1130 C1135 1.425 . S
C1130 C1137 1.409 . S
C1131 H1123 0.930 . S
C1131 C1129 1.419 . S
C1131 C1132 1.362 . S
C1132 H1124 0.930 . S
C1132 C1131 1.362 . S
C1132 C1135 1.409 . S
C1133 H1125 0.930 . S
C1133 C1134 1.355 . S
C1133 C1135 1.415 . S
C1134 C1133 1.355 . S
C1134 C1136 1.419 . S
C1135 C1130 1.425 . S
C1135 C1132 1.409 . S
C1135 C1133 1.415 . S
C1136 H1126 0.930 . S
C1136 C1134 1.419 . S
C1136 C1137 1.362 . S
C1137 H1127 0.930 . S
C1137 C1130 1.409 . S
C1137 C1136 1.362 . S
H1138 C1144 0.930 . S
H1139 C1147 0.930 . S
H1140 C1148 0.930 . S
H1141 C1149 0.930 . S
H1142 C1152 0.930 . S
H1143 C1153 0.930 . S
C1144 H1138 0.930 . S
C1144 C1145 1.355 . S
C1144 C1146 1.415 . S
C1145 C1144 1.355 . S
C1145 C1147 1.419 . S
C1146 C1144 1.415 . S
C1146 C1151 1.425 . S
C1146 C1153 1.409 . S
C1147 H1139 0.930 . S
C1147 C1145 1.419 . S
C1147 C1148 1.362 . S
C1148 H1140 0.930 . S
C1148 C1147 1.362 . S
C1148 C1151 1.409 . S
C1149 H1141 0.930 . S
C1149 C1150 1.355 . S
C1149 C1151 1.415 . S
C1150 C1149 1.355 . S
C1150 C1152 1.419 . S
C1151 C1146 1.425 . S
C1151 C1148 1.409 . S
C1151 C1149 1.415 . S
C1152 H1142 0.930 . S
C1152 C1150 1.419 . S
C1152 C1153 1.362 . S
C1153 H1143 0.930 . S
C1153 C1146 1.409 . S
C1153 C1152 1.362 . S
H1154 C1160 0.930 . S
H1155 C1163 0.930 . S
H1156 C1164 0.930 . S
H1157 C1165 0.930 . S
H1158 C1168 0.930 . S
H1159 C1169 0.930 . S
C1160 H1154 0.930 . S
C1160 C1161 1.355 . S
C1160 C1162 1.415 . S
C1161 C1160 1.355 . S
C1161 C1163 1.419 . S
C1162 C1160 1.415 . S
C1162 C1167 1.425 . S
C1162 C1169 1.409 . S
C1163 H1155 0.930 . S
C1163 C1161 1.419 . S
C1163 C1164 1.362 . S
C1164 H1156 0.930 . S
C1164 C1163 1.362 . S
C1164 C1167 1.409 . S
C1165 H1157 0.930 . S
C1165 C1166 1.355 . S
C1165 C1167 1.415 . S
C1166 C1165 1.355 . S
C1166 C1168 1.419 . S
C1167 C1162 1.425 . S
C1167 C1164 1.409 . S
C1167 C1165 1.415 . S
C1168 H1158 0.930 . S
C1168 C1166 1.419 . S
C1168 C1169 1.362 . S
C1169 H1159 0.930 . S
C1169 C1162 1.409 . S
C1169 C1168 1.362 . S
H1170 C1176 0.930 . S
H1171 C1179 0.930 . S
H1172 C1180 0.930 . S
H1173 C1181 0.930 . S
H1174 C1184 0.930 . S
H1175 C1185 0.930 . S
C1176 H1170 0.930 . S
C1176 C1177 1.355 . S
C1176 C1178 1.415 . S
C1177 C1176 1.355 . S
C1177 C1179 1.419 . S
C1178 C1176 1.415 . S
C1178 C1183 1.425 . S
C1178 C1185 1.409 . S
C1179 H1171 0.930 . S
C1179 C1177 1.419 . S
C1179 C1180 1.362 . S
C1180 H1172 0.930 . S
C1180 C1179 1.362 . S
C1180 C1183 1.409 . S
C1181 H1173 0.930 . S
C1181 C1182 1.355 . S
C1181 C1183 1.415 . S
C1182 C1181 1.355 . S
C1182 C1184 1.419 . S
C1183 C1178 1.425 . S
C1183 C1180 1.409 . S
C1183 C1181 1.415 . S
C1184 H1174 0.930 . S
C1184 C1182 1.419 . S
C1184 C1185 1.362 . S
C1185 H1175 0.930 . S
C1185 C1178 1.409 . S
C1185 C1184 1.362 . S
H1186 C1192 0.930 . S
H1187 C1195 0.930 . S
H1188 C1196 0.930 . S
H1189 C1197 0.930 . S
H1190 C1200 0.930 . S
H1191 C1201 0.930 . S
C1192 H1186 0.930 . S
C1192 C1193 1.355 . S
C1192 C1194 1.415 . S
C1193 C1192 1.355 . S
C1193 C1195 1.419 . S
C1194 C1192 1.415 . S
C1194 C1199 1.425 . S
C1194 C1201 1.409 . S
C1195 H1187 0.930 . S
C1195 C1193 1.419 . S
C1195 C1196 1.362 . S
C1196 H1188 0.930 . S
C1196 C1195 1.362 . S
C1196 C1199 1.409 . S
C1197 H1189 0.930 . S
C1197 C1198 1.355 . S
C1197 C1199 1.415 . S
C1198 C1197 1.355 . S
C1198 C1200 1.419 . S
C1199 C1194 1.425 . S
C1199 C1196 1.409 . S
C1199 C1197 1.415 . S
C1200 H1190 0.930 . S
C1200 C1198 1.419 . S
C1200 C1201 1.362 . S
C1201 H1191 0.930 . S
C1201 C1194 1.409 . S
C1201 C1200 1.362 . S
H1202 C1208 0.930 . S
H1203 C1211 0.930 . S
H1204 C1212 0.930 . S
H1205 C1213 0.930 . S
H1206 C1216 0.930 . S
H1207 C1217 0.930 . S
C1208 H1202 0.930 . S
C1208 C1209 1.355 . S
C1208 C1210 1.415 . S
C1209 C1208 1.355 . S
C1209 C1211 1.419 . S
C1210 C1208 1.415 . S
C1210 C1215 1.425 . S
C1210 C1217 1.409 . S
C1211 H1203 0.930 . S
C1211 C1209 1.419 . S
C1211 C1212 1.362 . S
C1212 H1204 0.930 . S
C1212 C1211 1.362 . S
C1212 C1215 1.409 . S
C1213 H1205 0.930 . S
C1213 C1214 1.355 . S
C1213 C1215 1.415 . S
C1214 C1213 1.355 . S
C1214 C1216 1.419 . S
C1215 C1210 1.425 . S
C1215 C1212 1.409 . S
C1215 C1213 1.415 . S
C1216 H1206 0.930 . S
C1216 C1214 1.419 . S
C1216 C1217 1.362 . S
C1217 H1207 0.930 . S
C1217 C1210 1.409 . S
C1217 C1216 1.362 . S
H1218 C1224 0.930 . S
H1219 C1227 0.930 . S
H1220 C1228 0.930 . S
H1221 C1229 0.930 . S
H1222 C1232 0.930 . S
H1223 C1233 0.930 . S
C1224 H1218 0.930 . S
C1224 C1225 1.355 . S
C1224 C1226 1.415 . S
C1225 C1224 1.355 . S
C1225 C1227 1.419 . S
C1226 C1224 1.415 . S
C1226 C1231 1.425 . S
C1226 C1233 1.409 . S
C1227 H1219 0.930 . S
C1227 C1225 1.419 . S
C1227 C1228 1.362 . S
C1228 H1220 0.930 . S
C1228 C1227 1.362 . S
C1228 C1231 1.409 . S
C1229 H1221 0.930 . S
C1229 C1230 1.355 . S
C1229 C1231 1.415 . S
C1230 C1229 1.355 . S
C1230 C1232 1.419 . S
C1231 C1226 1.425 . S
C1231 C1228 1.409 . S
C1231 C1229 1.415 . S
C1232 H1222 0.930 . S
C1232 C1230 1.419 . S
C1232 C1233 1.362 . S
C1233 H1223 0.930 . S
C1233 C1226 1.409 . S
C1233 C1232 1.362 . S
H1234 C1240 0.930 . S
H1235 C1243 0.930 . S
H1236 C1244 0.930 . S
H1237 C1245 0.930 . S
H1238 C1248 0.930 . S
H1239 C1249 0.930 . S
C1240 H1234 0.930 . S
C1240 C1241 1.355 . S
C1240 C1242 1.415 . S
C1241 C1240 1.355 . S
C1241 C1243 1.419 . S
C1242 C1240 1.415 . S
C1242 C1247 1.425 . S
C1242 C1249 1.409 . S
C1243 H1235 0.930 . S
C1243 C1241 1.419 . S
C1243 C1244 1.362 . S
C1244 H1236 0.930 . S
C1244 C1243 1.362 . S
C1244 C1247 1.409 . S
C1245 H1237 0.930 . S
C1245 C1246 1.355 . S
C1245 C1247 1.415 . S
C1246 C1245 1.355 . S
C1246 C1248 1.419 . S
C1247 C1242 1.425 . S
C1247 C1244 1.409 . S
C1247 C1245 1.415 . S
C1248 H1238 0.930 . S
C1248 C1246 1.419 . S
C1248 C1249 1.362 . S
C1249 H1239 0.930 . S
C1249 C1242 1.409 . S
C1249 C1248 1.362 . S
H1250 C1256 0.930 . S
H1251 C1259 0.930 . S
H1252 C1260 0.930 . S
H1253 C1261 0.930 . S
H1254 C1264 0.930 . S
H1255 C1265 0.930 . S
C1256 H1250 0.930 . S
C1256 C1257 1.355 . S
C1256 C1258 1.415 . S
C1257 C1256 1.355 . S
C1257 C1259 1.419 . S
C1258 C1256 1.415 . S
C1258 C1263 1.425 . S
C1258 C1265 1.409 . S
C1259 H1251 0.930 . S
C1259 C1257 1.419 . S
C1259 C1260 1.362 . S
C1260 H1252 0.930 . S
C1260 C1259 1.362 . S
C1260 C1263 1.409 . S
C1261 H1253 0.930 . S
C1261 C1262 1.355 . S
C1261 C1263 1.415 . S
C1262 C1261 1.355 . S
C1262 C1264 1.419 . S
C1263 C1258 1.425 . S
C1263 C1260 1.409 . S
C1263 C1261 1.415 . S
C1264 H1254 0.930 . S
C1264 C1262 1.419 . S
C1264 C1265 1.362 . S
C1265 H1255 0.930 . S
C1265 C1258 1.409 . S
C1265 C1264 1.362 . S
H1266 C1272 0.930 . S
H1267 C1275 0.930 . S
H1268 C1276 0.930 . S
H1269 C1277 0.930 . S
H1270 C1280 0.930 . S
H1271 C1281 0.930 . S
C1272 H1266 0.930 . S
C1272 C1273 1.355 . S
C1272 C1274 1.415 . S
C1273 C1272 1.355 . S
C1273 C1275 1.419 . S
C1274 C1272 1.415 . S
C1274 C1279 1.425 . S
C1274 C1281 1.409 . S
C1275 H1267 0.930 . S
C1275 C1273 1.419 . S
C1275 C1276 1.362 . S
C1276 H1268 0.930 . S
C1276 C1275 1.362 . S
C1276 C1279 1.409 . S
C1277 H1269 0.930 . S
C1277 C1278 1.355 . S
C1277 C1279 1.415 . S
C1278 C1277 1.355 . S
C1278 C1280 1.419 . S
C1279 C1274 1.425 . S
C1279 C1276 1.409 . S
C1279 C1277 1.415 . S
C1280 H1270 0.930 . S
C1280 C1278 1.419 . S
C1280 C1281 1.362 . S
C1281 H1271 0.930 . S
C1281 C1274 1.409 . S
C1281 C1280 1.362 . S
H1282 C1288 0.930 . S
H1283 C1291 0.930 . S
H1284 C1292 0.930 . S
H1285 C1293 0.930 . S
H1286 C1296 0.930 . S
H1287 C1297 0.930 . S
C1288 H1282 0.930 . S
C1288 C1289 1.355 . S
C1288 C1290 1.415 . S
C1289 C1288 1.355 . S
C1289 C1291 1.419 . S
C1290 C1288 1.415 . S
C1290 C1295 1.425 . S
C1290 C1297 1.409 . S
C1291 H1283 0.930 . S
C1291 C1289 1.419 . S
C1291 C1292 1.362 . S
C1292 H1284 0.930 . S
C1292 C1291 1.362 . S
C1292 C1295 1.409 . S
C1293 H1285 0.930 . S
C1293 C1294 1.355 . S
C1293 C1295 1.415 . S
C1294 C1293 1.355 . S
C1294 C1296 1.419 . S
C1295 C1290 1.425 . S
C1295 C1292 1.409 . S
C1295 C1293 1.415 . S
C1296 H1286 0.930 . S
C1296 C1294 1.419 . S
C1296 C1297 1.362 . S
C1297 H1287 0.930 . S
C1297 C1290 1.409 . S
C1297 C1296 1.362 . S
H1298 C1304 0.930 . S
H1299 C1307 0.930 . S
H1300 C1308 0.930 . S
H1301 C1309 0.930 . S
H1302 C1312 0.930 . S
H1303 C1313 0.930 . S
C1304 H1298 0.930 . S
C1304 C1305 1.355 . S
C1304 C1306 1.415 . S
C1305 C1304 1.355 . S
C1305 C1307 1.419 . S
C1306 C1304 1.415 . S
C1306 C1311 1.425 . S
C1306 C1313 1.409 . S
C1307 H1299 0.930 . S
C1307 C1305 1.419 . S
C1307 C1308 1.362 . S
C1308 H1300 0.930 . S
C1308 C1307 1.362 . S
C1308 C1311 1.409 . S
C1309 H1301 0.930 . S
C1309 C1310 1.355 . S
C1309 C1311 1.415 . S
C1310 C1309 1.355 . S
C1310 C1312 1.419 . S
C1311 C1306 1.425 . S
C1311 C1308 1.409 . S
C1311 C1309 1.415 . S
C1312 H1302 0.930 . S
C1312 C1310 1.419 . S
C1312 C1313 1.362 . S
C1313 H1303 0.930 . S
C1313 C1306 1.409 . S
C1313 C1312 1.362 . S
C601 C116 1.532 . S
C606 C17 1.530 . S
C617 C149 1.551 . S
C622 C50 1.552 . S
C633 C182 1.551 . S
C638 C83 1.553 . S
C649 C61 1.502 . S
C654 C193 1.504 . S
C665 C127 1.507 . S
C670 C94 1.512 . S
C681 C160 1.505 . S
C686 C28 1.503 . S
C697 C314 1.546 . S
C702 C215 1.549 . S
C713 C248 1.540 . S
C718 C347 1.538 . S
C729 C281 1.533 . S
C734 C380 1.531 . S
C745 C259 1.505 . S
C750 C391 1.510 . S
C761 C292 1.513 . S
C766 C325 1.518 . S
C777 C358 1.516 . S
C782 C226 1.511 . S
C793 C413 1.543 . S
C798 C512 1.546 . S
C809 C545 1.528 . S
C814 C446 1.527 . S
C825 C479 1.548 . S
C830 C578 1.550 . S
C841 C457 1.519 . S
C846 C589 1.515 . S
C857 C523 1.505 . S
C862 C490 1.510 . S
C873 C424 1.516 . S
C878 C556 1.510 . S
C889 C8 1.445 . S
C894 C569 1.450 . S
C905 C503 1.462 . S
C910 C41 1.459 . S
C921 C536 1.458 . S
C926 C74 1.461 . S
C937 C239 1.452 . S
C942 C107 1.446 . S
C953 C272 1.447 . S
C958 C140 1.453 . S
C969 C206 1.458 . S
C974 C173 1.461 . S
C985 C437 1.444 . S
C990 C305 1.445 . S
C1001 C470 1.460 . S
C1006 C338 1.455 . S
C1017 C371 1.458 . S
C1022 C404 1.452 . S
C1033 N5 1.430 . S
C1038 N14 1.430 . S
C1049 N38 1.413 . S
C1054 N47 1.407 . S
C1065 N71 1.458 . S
C1070 N80 1.457 . S
C1081 N113 1.443 . S
C1086 N104 1.443 . S
C1097 N146 1.423 . S
C1102 N137 1.424 . S
C1113 N170 1.421 . S
C1118 N179 1.414 . S
C1129 N203 1.438 . S
C1134 N212 1.431 . S
C1145 N245 1.411 . S
C1150 N236 1.419 . S
C1161 N278 1.460 . S
C1166 N269 1.461 . S
C1177 N302 1.417 . S
C1182 N311 1.410 . S
C1193 N335 1.430 . S
C1198 N344 1.430 . S
C1209 N368 1.413 . S
C1214 N377 1.408 . S
C1225 N401 1.449 . S
C1230 N410 1.450 . S
C1241 N434 1.421 . S
C1246 N443 1.414 . S
C1257 N476 1.459 . S
C1262 N467 1.460 . S
C1273 N500 1.462 . S
C1278 N509 1.460 . S
C1289 N542 1.448 . S
C1294 N533 1.453 . S
C1305 N575 1.415 . S
C1310 N566 1.418 . S
