# Generated by pormake.
# Topology mmt, (4)-cn, num edge types: 1
# Building blocks:
#     Node 0, Type 0, BuildingBlock: ICAMEG_clean_sbu_1, # of connection points: 4
#     Node 1, Type 0, BuildingBlock: ICAMEG_clean_sbu_1, # of connection points: 4
#     Node 2, Type 0, BuildingBlock: ICAMEG_clean_sbu_1, # of connection points: 4
#     Node 3, Type 0, BuildingBlock: ICAMEG_clean_sbu_1, # of connection points: 4
#     Node 4, Type 0, BuildingBlock: ICAMEG_clean_sbu_1, # of connection points: 4
#     Node 5, Type 0, BuildingBlock: ICAMEG_clean_sbu_1, # of connection points: 4
#     Node 6, Type 0, BuildingBlock: ICAMEG_clean_sbu_1, # of connection points: 4
#     Node 7, Type 0, BuildingBlock: ICAMEG_clean_sbu_1, # of connection points: 4
#     Edge 8, Type (0, 0), BuildingBlock: AJUNOK_clean_linker_0, # of connection points: 2
#     Edge 9, Type (0, 0), BuildingBlock: AJUNOK_clean_linker_0, # of connection points: 2
#     Edge 10, Type (0, 0), BuildingBlock: AJUNOK_clean_linker_0, # of connection points: 2
#     Edge 11, Type (0, 0), BuildingBlock: AJUNOK_clean_linker_0, # of connection points: 2
#     Edge 12, Type (0, 0), BuildingBlock: AJUNOK_clean_linker_0, # of connection points: 2
#     Edge 13, Type (0, 0), BuildingBlock: AJUNOK_clean_linker_0, # of connection points: 2
#     Edge 14, Type (0, 0), BuildingBlock: AJUNOK_clean_linker_0, # of connection points: 2
#     Edge 15, Type (0, 0), BuildingBlock: AJUNOK_clean_linker_0, # of connection points: 2
#     Edge 16, Type (0, 0), BuildingBlock: AJUNOK_clean_linker_0, # of connection points: 2
#     Edge 17, Type (0, 0), BuildingBlock: AJUNOK_clean_linker_0, # of connection points: 2
#     Edge 18, Type (0, 0), BuildingBlock: AJUNOK_clean_linker_0, # of connection points: 2
#     Edge 19, Type (0, 0), BuildingBlock: AJUNOK_clean_linker_0, # of connection points: 2
#     Edge 20, Type (0, 0), BuildingBlock: AJUNOK_clean_linker_0, # of connection points: 2
#     Edge 21, Type (0, 0), BuildingBlock: AJUNOK_clean_linker_0, # of connection points: 2
#     Edge 22, Type (0, 0), BuildingBlock: AJUNOK_clean_linker_0, # of connection points: 2
#     Edge 23, Type (0, 0), BuildingBlock: AJUNOK_clean_linker_0, # of connection points: 2
# Relax obj value: 0.090
# Max RMSD: 0.129
# Mean RMSD: 0.129
data_MOF--net-mmt--node1-ICAMEG_clean_sbu_1--edge1-AJUNOK_clean_linker_0
_symmetry_space_group_name_H-M    P1
_symmetry_Int_Tables_number       1
_symmetry_cell_setting            triclinic
loop_
_symmetry_equiv_pos_as_xyz
'x, y, z'
_cell_length_a     17.67342
_cell_length_b     31.441537
_cell_length_c     31.772735
_cell_angle_alpha  89.859904
_cell_angle_beta   89.957086
_cell_angle_gamma 89.848023
loop_
_atom_site_label
_atom_site_type_symbol
_atom_site_fract_x
_atom_site_fract_y
_atom_site_fract_z
_atom_type_partial_charge
Co0 Co 0.20417 0.53859 0.35199 0.0
Co1 Co 0.09036 0.6261 0.36369 0.0
O2 O 0.18993 0.60057 0.35153 0.0
C3 C 0.31013 0.57029 0.28273 0.0
O4 O 0.29668 0.6107 0.28981 0.0
C5 C 0.20267 0.68274 0.40779 0.0
O6 O 0.24355 0.64938 0.41793 0.0
O7 O 0.08781 0.59633 0.41943 0.0
O8 O 0.12985 0.53228 0.39921 0.0
H9 H 0.82086 0.62435 0.41438 0.0
H10 H 0.33744 0.59674 0.36256 0.0
O11 O 0.27845 0.54119 0.30434 0.0
H12 H 0.34335 0.501 0.4853 0.0
H13 H 0.35407 0.40242 0.34175 0.0
H14 H 0.09927 0.46509 0.35555 0.0
H15 H 0.24343 0.49417 0.43189 0.0
H16 H 0.33731 0.4802 0.34526 0.0
O17 O 0.1399 0.67786 0.38879 0.0
H18 H 0.94531 0.59313 0.39758 0.0
H19 H 0.02567 0.71383 0.35738 0.0
H20 H 0.11348 0.38716 0.35235 0.0
H21 H 0.43902 0.60415 0.41458 0.0
H22 H 0.24165 0.3553 0.34548 0.0
H23 H 0.44261 0.55612 0.47672 0.0
O24 O 0.12125 0.53233 0.31017 0.0
H25 H 0.21083 0.71106 0.24746 0.0
H26 H 0.98033 0.63584 0.29283 0.0
H27 H 0.98386 0.66968 0.22285 0.0
H28 H 0.0997 0.7078 0.19977 0.0
H29 H 0.20514 0.67625 0.31698 0.0
H30 H 0.90219 0.74636 0.37401 0.0
H31 H 0.79862 0.7015 0.40258 0.0
O32 O 0.03589 0.57673 0.33776 0.0
C33 C 0.09511 0.5562 0.42527 0.0
C34 C 0.8655 0.64422 0.40188 0.0
C35 C 0.91118 0.7127 0.37928 0.0
N36 N 0.99274 0.65155 0.37637 0.0
C37 C 0.93611 0.62671 0.39224 0.0
C38 C 0.98109 0.6941 0.37004 0.0
C39 C 0.85307 0.68751 0.39528 0.0
C40 C 0.33904 0.57505 0.38872 0.0
N41 N 0.28488 0.54447 0.39337 0.0
C42 C 0.39656 0.5797 0.41848 0.0
C43 C 0.3984 0.55287 0.4534 0.0
C44 C 0.34273 0.52198 0.45824 0.0
C45 C 0.28605 0.51834 0.42786 0.0
C46 C 0.29796 0.41589 0.34499 0.0
C47 C 0.15528 0.4515 0.35286 0.0
C48 C 0.28808 0.45993 0.34701 0.0
N49 N 0.2174 0.47721 0.35129 0.0
C50 C 0.16296 0.40733 0.35094 0.0
C51 C 0.23486 0.38948 0.34705 0.0
C52 C 0.05357 0.5459 0.31362 0.0
C53 C 0.16002 0.69456 0.25715 0.0
C54 C 0.03118 0.65196 0.28292 0.0
C55 C 0.03272 0.67127 0.2433 0.0
C56 C 0.09769 0.69268 0.23039 0.0
N57 N 0.09256 0.65388 0.309 0.0
C58 C 0.15641 0.67485 0.29654 0.0
Co59 Co 0.32597 1.00458 0.35178 0.0
Co60 Co 0.43172 0.91393 0.36053 0.0
O61 O 0.33416 0.9422 0.34905 0.0
C62 C 0.21364 0.97806 0.28355 0.0
O63 O 0.22791 0.93737 0.28843 0.0
C64 C 0.31635 0.85679 0.40255 0.0
O65 O 0.27388 0.88979 0.41166 0.0
O66 O 0.43336 0.94037 0.41733 0.0
O67 O 0.40211 1.00682 0.39873 0.0
H68 H 0.69795 0.90702 0.41584 0.0
H69 H 0.18711 0.95053 0.36222 0.0
O70 O 0.24896 1.00597 0.30497 0.0
H71 H 0.19495 0.04225 0.48746 0.0
H72 H 0.1909 0.14593 0.34754 0.0
H73 H 0.43827 0.07409 0.35995 0.0
H74 H 0.29456 0.04708 0.43352 0.0
H75 H 0.19936 0.06766 0.34667 0.0
O76 O 0.37886 0.86187 0.38323 0.0
H77 H 0.5767 0.94171 0.39863 0.0
H78 H 0.49212 0.82581 0.34924 0.0
H79 H 0.4322 0.1524 0.36146 0.0
H80 H 0.08581 0.9453 0.41482 0.0
H81 H 0.30785 0.18885 0.35519 0.0
H82 H 0.08907 0.99136 0.47817 0.0
O83 O 0.40852 1.0097 0.30922 0.0
H84 H 0.31108 0.83688 0.23967 0.0
H85 H 0.54291 0.90737 0.28985 0.0
H86 H 0.53975 0.87739 0.21827 0.0
H87 H 0.4233 0.84168 0.19278 0.0
H88 H 0.31642 0.86776 0.31089 0.0
H89 H 0.61226 0.78971 0.3663 0.0
H90 H 0.71636 0.83039 0.39973 0.0
O91 O 0.49042 0.96363 0.33776 0.0
C92 C 0.43153 0.98033 0.42453 0.0
C93 C 0.65313 0.88895 0.40116 0.0
C94 C 0.605 0.82312 0.37342 0.0
N95 N 0.52736 0.88593 0.37279 0.0
C96 C 0.58435 0.90848 0.39123 0.0
C97 C 0.53699 0.84373 0.36393 0.0
C98 C 0.66338 0.84596 0.39217 0.0
C99 C 0.18858 0.97137 0.38895 0.0
N100 N 0.24617 0.99981 0.3939 0.0
C101 C 0.13119 0.96794 0.41903 0.0
C102 C 0.13317 0.99368 0.45462 0.0
C103 C 0.19253 1.02221 0.45985 0.0
C104 C 0.24891 0.02474 0.42913 0.0
C105 C 0.24541 0.13041 0.35036 0.0
C106 C 0.38387 0.08966 0.35745 0.0
C107 C 0.25061 0.08609 0.34975 0.0
N108 N 0.31925 0.06624 0.35348 0.0
C109 C 0.38082 0.13404 0.35823 0.0
C110 C 0.31104 0.15448 0.35467 0.0
C111 C 0.47535 0.9951 0.3138 0.0
C112 C 0.36219 0.85231 0.25043 0.0
C113 C 0.4918 0.89217 0.27893 0.0
C114 C 0.49048 0.8751 0.23839 0.0
C115 C 0.42514 0.85505 0.22413 0.0
N116 N 0.42983 0.88931 0.30457 0.0
C117 C 0.36559 0.86976 0.29077 0.0
Co118 Co 0.70271 0.51035 0.14291 0.0
Co119 Co 0.59438 0.42145 0.12811 0.0
O120 O 0.69205 0.44814 0.1418 0.0
C121 C 0.80885 0.47824 0.21176 0.0
O122 O 0.79451 0.43805 0.20428 0.0
C123 C 0.71174 0.36582 0.0856 0.0
O124 O 0.755 0.39894 0.07871 0.0
O125 O 0.5924 0.45243 0.07302 0.0
O126 O 0.62924 0.51666 0.0953 0.0
H127 H 0.32822 0.42015 0.0724 0.0
H128 H 0.84007 0.45481 0.13233 0.0
O129 O 0.77645 0.50778 0.19094 0.0
H130 H 0.8428 0.55283 0.01131 0.0
H131 H 0.84468 0.64852 0.1559 0.0
H132 H 0.59364 0.58232 0.14062 0.0
H133 H 0.7411 0.55689 0.06406 0.0
H134 H 0.83233 0.57058 0.15138 0.0
O135 O 0.64682 0.37076 0.10232 0.0
H136 H 0.45019 0.4527 0.09133 0.0
H137 H 0.53314 0.33302 0.13344 0.0
H138 H 0.60345 0.66037 0.14482 0.0
H139 H 0.94353 0.45027 0.08102 0.0
H140 H 0.72971 0.69401 0.15239 0.0
H141 H 0.94553 0.49943 0.01974 0.0
O142 O 0.61811 0.5144 0.18414 0.0
H143 H 0.71613 0.33547 0.24337 0.0
H144 H 0.48291 0.40837 0.19795 0.0
H145 H 0.48635 0.37301 0.26715 0.0
H146 H 0.6036 0.33601 0.29026 0.0
H147 H 0.71042 0.37185 0.17469 0.0
H148 H 0.41209 0.29918 0.11485 0.0
H149 H 0.30841 0.34286 0.08428 0.0
O150 O 0.53634 0.46955 0.15447 0.0
C151 C 0.5972 0.49281 0.06825 0.0
C152 C 0.37288 0.40079 0.08579 0.0
C153 C 0.41995 0.33291 0.10962 0.0
N154 N 0.49863 0.39493 0.11384 0.0
C155 C 0.44213 0.41905 0.0966 0.0
C156 C 0.48845 0.35227 0.12003 0.0
C157 C 0.36181 0.35743 0.09246 0.0
C158 C 0.84087 0.47699 0.10655 0.0
N159 N 0.78479 0.50664 0.102 0.0
C160 C 0.89951 0.47396 0.07719 0.0
C161 C 0.90047 0.50144 0.04275 0.0
C162 C 0.84285 0.53135 0.03799 0.0
C163 C 0.78514 0.53341 0.06798 0.0
C164 C 0.78938 0.63426 0.15236 0.0
C165 C 0.64883 0.59668 0.14371 0.0
C166 C 0.782 0.59013 0.14978 0.0
N167 N 0.71237 0.57187 0.14504 0.0
C168 C 0.65401 0.64092 0.14616 0.0
C169 C 0.72485 0.65976 0.15043 0.0
C170 C 0.55117 0.50019 0.17935 0.0
C171 C 0.6647 0.35148 0.23368 0.0
C172 C 0.53434 0.39287 0.2079 0.0
C173 C 0.53585 0.37263 0.24707 0.0
C174 C 0.60159 0.35183 0.25999 0.0
N175 N 0.59646 0.39246 0.18225 0.0
C176 C 0.66106 0.37208 0.19474 0.0
Co177 Co 0.82083 0.04183 0.13841 0.0
Co178 Co 0.92851 0.13237 0.13774 0.0
O179 O 0.83031 0.10387 0.14391 0.0
C180 C 0.73748 0.05327 0.21978 0.0
O181 O 0.79834 0.07012 0.23649 0.0
C182 C 0.81942 0.19038 0.0911 0.0
O183 O 0.77635 0.15799 0.08122 0.0
O184 O 0.9419 0.10621 0.08098 0.0
O185 O 0.90187 0.04001 0.09448 0.0
H186 H 0.20375 0.13939 0.0985 0.0
H187 H 0.68244 0.09496 0.13082 0.0
O188 O 0.73773 0.04156 0.18149 0.0
H189 H 0.70264 1.01798 0.99621 0.0
H190 H 0.67705 0.90385 0.1318 0.0
H191 H 0.92959 0.97013 0.13088 0.0
H192 H 0.79764 1.00712 0.05199 0.0
H193 H 0.69022 0.98175 0.13634 0.0
O194 O 0.87979 0.1845 0.11222 0.0
H195 H 0.08034 0.10452 0.10881 0.0
H196 H 0.98529 0.22061 0.15234 0.0
H197 H 0.91892 0.89217 0.12597 0.0
H198 H 0.58543 0.10624 0.07611 0.0
H199 H 0.79193 0.85849 0.12645 0.0
H200 H 0.59529 0.06766 0.00818 0.0
O201 O 0.89961 0.03267 0.18276 0.0
H202 H 0.78085 0.20576 0.25169 0.0
H203 H 0.02619 0.14129 0.21405 0.0
H204 H 1.00787 0.17058 0.28521 0.0
H205 H 0.8845 0.20327 0.3044 0.0
H206 H 0.80141 0.17557 0.18102 0.0
H207 H 0.10752 0.2568 0.14218 0.0
H208 H 0.21794 0.2161 0.11517 0.0
O209 O 0.9825 0.08288 0.16387 0.0
C210 C 0.93807 0.06666 0.07188 0.0
C211 C 0.1561 0.15745 0.11034 0.0
C212 C 0.10209 0.22335 0.13481 0.0
N213 N 0.02557 0.16046 0.13116 0.0
C214 C 0.08606 0.13787 0.11631 0.0
C215 C 0.03291 0.2027 0.14037 0.0
C216 C 0.16401 0.2005 0.11967 0.0
C217 C 0.68679 0.0778 0.10148 0.0
N218 N 0.74566 0.05043 0.09465 0.0
C219 C 0.63184 0.08444 0.07055 0.0
C220 C 0.63748 0.06284 0.03242 0.0
C221 C 0.69773 0.035 0.02566 0.0
C222 C 0.75161 0.02915 0.0573 0.0
C223 C 0.73269 0.91815 0.1315 0.0
C224 C 0.87409 0.95579 0.13085 0.0
C225 C 0.74054 0.96225 0.13417 0.0
N226 N 0.81064 0.98055 0.13369 0.0
C227 C 0.86842 0.91159 0.12817 0.0
C228 C 0.79717 0.89272 0.12848 0.0
C229 C 0.9657 0.04899 0.18391 0.0
C230 C 0.83492 0.19169 0.24368 0.0
C231 C 0.97225 0.15519 0.2222 0.0
C232 C 0.96227 0.17188 0.26252 0.0
C233 C 0.89306 0.19024 0.27326 0.0
N234 N 0.91505 0.15684 0.1933 0.0
C235 C 0.84699 0.17468 0.20366 0.0
Co236 Co 0.83914 0.49616 0.64368 0.0
Co237 Co 0.94845 0.40751 0.6309 0.0
O238 O 0.85182 0.43421 0.64572 0.0
C239 C 0.76507 0.51316 0.72558 0.0
O240 O 0.82299 0.53775 0.73402 0.0
C241 C 0.83419 0.35248 0.58691 0.0
O242 O 0.79747 0.38658 0.57444 0.0
O243 O 0.94526 0.43608 0.5749 0.0
O244 O 0.9115 0.50162 0.59518 0.0
H245 H 0.21182 0.40534 0.571 0.0
H246 H 0.7033 0.44097 0.64092 0.0
O247 O 0.76421 0.49193 0.69146 0.0
H248 H 0.69408 0.52565 0.51018 0.0
H249 H 0.68955 0.63292 0.6484 0.0
H250 H 0.94394 0.56929 0.63623 0.0
H251 H 0.79778 0.53549 0.56102 0.0
H252 H 0.70605 0.55503 0.6488 0.0
O253 O 0.89455 0.35613 0.60839 0.0
H254 H 0.09091 0.43831 0.59187 0.0
H255 H 1.01061 0.31919 0.63644 0.0
H256 H 0.92995 0.64733 0.63545 0.0
H257 H 0.5981 0.43046 0.59112 0.0
H258 H 0.80204 0.67965 0.64163 0.0
H259 H 0.59307 0.47294 0.52516 0.0
O260 O 0.92639 0.50278 0.68364 0.0
H261 H 0.83831 0.3268 0.75299 0.0
H262 H 0.06576 0.39858 0.69804 0.0
H263 H 0.06893 0.36626 0.7688 0.0
H264 H 0.9547 0.32989 0.79665 0.0
H265 H 0.83732 0.36004 0.68257 0.0
H266 H 0.13058 0.28488 0.6158 0.0
H267 H 0.23231 0.32804 0.58292 0.0
O268 O 1.0067 0.45671 0.65375 0.0
C269 C 0.94117 0.4762 0.56853 0.0
C270 C 0.16801 0.38619 0.5854 0.0
C271 C 0.12234 0.31859 0.61045 0.0
N272 N 0.04369 0.38078 0.61544 0.0
C273 C 0.09942 0.40472 0.59738 0.0
C274 C 0.05441 0.33819 0.62195 0.0
C275 C 0.17942 0.34283 0.59203 0.0
C276 C 0.70116 0.45989 0.61249 0.0
N277 N 0.75649 0.48898 0.60407 0.0
C278 C 0.64159 0.45366 0.58432 0.0
C279 C 0.6389 0.47743 0.54728 0.0
C280 C 0.69559 0.50698 0.53883 0.0
C281 C 0.75436 0.5123 0.5677 0.0
C282 C 0.74559 0.61923 0.64566 0.0
C283 C 0.88806 0.58308 0.63884 0.0
C284 C 0.75531 0.57513 0.64591 0.0
N285 N 0.82594 0.55757 0.64254 0.0
C286 C 0.8805 0.62731 0.6384 0.0
C287 C 0.80872 0.64542 0.64187 0.0
C288 C 0.99313 0.48798 0.67809 0.0
C289 C 0.88851 0.34245 0.74115 0.0
C290 C 1.01571 0.38296 0.70998 0.0
C291 C 1.01791 0.36463 0.75005 0.0
C292 C 0.95381 0.34422 0.76565 0.0
N293 N 0.95151 0.38095 0.68608 0.0
C294 C 0.88835 0.36119 0.70125 0.0
Co295 Co 0.70288 0.0347 0.63954 0.0
Co296 Co 0.59882 0.12573 0.62782 0.0
O297 O 0.69528 0.09692 0.6391 0.0
C298 C 0.78365 0.05346 0.72054 0.0
O299 O 0.72287 0.0723 0.73539 0.0
C300 C 0.71657 0.17968 0.58353 0.0
O301 O 0.76101 0.14657 0.57879 0.0
O302 O 0.59062 0.095 0.5729 0.0
O303 O 0.62442 0.02967 0.59429 0.0
H304 H 0.3296 0.13362 0.57727 0.0
H305 H 0.84357 0.08518 0.62975 0.0
O306 O 0.78354 0.03766 0.68374 0.0
H307 H 0.82978 0.99571 0.50276 0.0
H308 H 0.84276 0.89506 0.64713 0.0
H309 H 0.5921 0.96391 0.64003 0.0
H310 H 0.73106 0.99133 0.55734 0.0
H311 H 0.83174 0.97317 0.64379 0.0
O312 O 0.65167 0.17534 0.60038 0.0
H313 H 0.45045 0.09809 0.59388 0.0
H314 H 0.543 0.21523 0.63543 0.0
H315 H 0.60056 0.88571 0.64313 0.0
H316 H 0.94446 0.08998 0.57632 0.0
H317 H 0.72662 0.85074 0.64661 0.0
H318 H 0.93783 0.04515 0.51217 0.0
O319 O 0.62089 0.03118 0.68298 0.0
H320 H 0.73802 0.20509 0.74084 0.0
H321 H 0.49379 0.14234 0.70004 0.0
H322 H 0.50616 0.1765 0.76933 0.0
H323 H 0.629 0.2084 0.79011 0.0
H324 H 0.72332 0.17002 0.6721 0.0
H325 H 0.42326 0.25205 0.61911 0.0
H326 H 0.3153 0.21116 0.59 0.0
O327 O 0.54052 0.07889 0.6558 0.0
C328 C 0.59253 0.05458 0.56788 0.0
C329 C 0.37615 0.15178 0.59004 0.0
C330 C 0.42868 0.21822 0.61354 0.0
N331 N 0.50366 0.15442 0.61593 0.0
C332 C 0.44478 0.13183 0.59951 0.0
C333 C 0.49643 0.19719 0.62267 0.0
C334 C 0.36816 0.19527 0.59718 0.0
C335 C 0.84054 0.0653 0.6021 0.0
N336 N 0.78118 0.03811 0.59667 0.0
C337 C 0.89772 0.06829 0.57187 0.0
C338 C 0.8939 0.04318 0.53585 0.0
C339 C 0.83325 1.0155 0.53052 0.0
C340 C 0.77715 1.01335 0.56143 0.0
C341 C 0.78752 0.9099 0.64542 0.0
C342 C 0.64718 0.94897 0.64137 0.0
C343 C 0.78089 0.95415 0.64352 0.0
N344 N 0.71131 0.97313 0.64112 0.0
C345 C 0.65161 0.90465 0.6432 0.0
C346 C 0.72234 0.88506 0.64516 0.0
C347 C 0.55467 0.0474 0.67996 0.0
C348 C 0.68413 0.19143 0.73211 0.0
C349 C 0.54745 0.15581 0.70888 0.0
C350 C 0.55409 0.17531 0.74814 0.0
C351 C 0.62299 0.19322 0.75976 0.0
N352 N 0.60754 0.15428 0.68182 0.0
C353 C 0.67535 0.17167 0.69311 0.0
Co354 Co 0.34027 0.55328 0.85062 0.0
Co355 Co 0.44871 0.64194 0.86328 0.0
O356 O 0.35239 0.61519 0.84848 0.0
C357 C 0.26542 0.53584 0.76909 0.0
O358 O 0.32429 0.51192 0.76011 0.0
C359 C 0.33224 0.69733 0.9057 0.0
O360 O 0.29298 0.66345 0.9158 0.0
O361 O 0.44537 0.61351 0.9194 0.0
O362 O 0.41274 0.54793 0.89897 0.0
H363 H 0.7096 0.64565 0.92616 0.0
H364 H 0.20419 0.60867 0.85398 0.0
O365 O 0.26519 0.55748 0.80297 0.0
H366 H 0.19492 0.52255 0.98377 0.0
H367 H 0.19209 0.41644 0.84627 0.0
H368 H 0.4458 0.48017 0.85827 0.0
H369 H 0.29953 0.51366 0.93319 0.0
H370 H 0.20779 0.49432 0.84554 0.0
O371 O 0.39434 0.69351 0.88571 0.0
H372 H 0.58926 0.6124 0.90539 0.0
H373 H 0.5111 0.7298 0.8553 0.0
H374 H 0.43258 0.40214 0.85941 0.0
H375 H 0.09772 0.618 0.90333 0.0
H376 H 0.30502 0.36977 0.85332 0.0
H377 H 0.09269 0.5748 0.96883 0.0
O378 O 0.42743 0.54665 0.81059 0.0
H379 H 0.33854 0.72248 0.74096 0.0
H380 H 0.56591 0.65009 0.79592 0.0
H381 H 0.56904 0.6821 0.72502 0.0
H382 H 0.45487 0.71881 0.69718 0.0
H383 H 0.33755 0.68952 0.8115 0.0
H384 H 0.6302 0.76457 0.87601 0.0
H385 H 0.7307 0.72238 0.91153 0.0
O386 O 0.50774 0.59246 0.84067 0.0
C387 C 0.44195 0.57334 0.92567 0.0
C388 C 0.66647 0.66435 0.91049 0.0
C389 C 0.62184 0.73109 0.88242 0.0
N390 N 0.54347 0.6689 0.87872 0.0
C391 C 0.59832 0.6456 0.89845 0.0
C392 C 0.55442 0.71122 0.87084 0.0
C393 C 0.6782 0.7074 0.90234 0.0
C394 C 0.20194 0.58938 0.88215 0.0
N395 N 0.25766 0.56035 0.8904 0.0
C396 C 0.14172 0.59498 0.91011 0.0
C397 C 0.13901 0.57079 0.94688 0.0
C398 C 0.19638 0.5415 0.9553 0.0
C399 C 0.25567 0.53674 0.92659 0.0
C400 C 0.24798 0.43016 0.84896 0.0
C401 C 0.39007 0.46637 0.85567 0.0
C402 C 0.25726 0.47425 0.84851 0.0
N403 N 0.32771 0.49185 0.85182 0.0
C404 C 0.38294 0.42214 0.85632 0.0
C405 C 0.31136 0.404 0.85291 0.0
C406 C 0.49423 0.56084 0.81675 0.0
C407 C 0.38872 0.7067 0.7528 0.0
C408 C 0.51585 0.66582 0.78397 0.0
C409 C 0.51805 0.68399 0.74383 0.0
C410 C 0.45399 0.70459 0.72824 0.0
N411 N 0.45173 0.66821 0.80796 0.0
C412 C 0.38857 0.68812 0.79278 0.0
Co413 Co 0.20009 1.0119 0.85178 0.0
Co414 Co 0.09012 0.9242 0.8663 0.0
O415 O 0.18808 0.94994 0.85163 0.0
C416 C 0.30822 0.9807 0.78295 0.0
O417 O 0.2967 0.94024 0.79081 0.0
C418 C 0.20495 0.86846 0.90913 0.0
O419 O 0.24131 0.90254 0.9215 0.0
O420 O 0.0937 0.9527 0.92224 0.0
O421 O 0.12759 1.01768 0.90033 0.0
H422 H 0.82655 0.92412 0.92597 0.0
H423 H 0.33338 0.95314 0.86316 0.0
O424 O 0.27344 1.00968 0.80335 0.0
H425 H 0.34505 0.05304 0.98189 0.0
H426 H 0.34305 0.14979 0.83831 0.0
H427 H 0.09235 0.08415 0.85787 0.0
H428 H 0.24294 0.05853 0.92963 0.0
H429 H 0.33002 0.07181 0.84169 0.0
O430 O 0.14334 0.87222 0.88873 0.0
H431 H 0.94867 0.95592 0.90593 0.0
H432 H 0.02611 0.83657 0.86043 0.0
H433 H 0.10298 0.16227 0.85519 0.0
H434 H 0.4371 0.94706 0.91397 0.0
H435 H 0.22905 0.19561 0.84535 0.0
H436 H 0.44371 0.9972 0.97411 0.0
O437 O 0.11476 1.01692 0.81088 0.0
H438 H 0.19813 0.84225 0.74453 0.0
H439 H 0.97297 0.91711 0.79888 0.0
H440 H 0.96929 0.88533 0.72807 0.0
H441 H 0.08238 0.84745 0.70049 0.0
H442 H 0.19965 0.87491 0.81501 0.0
H443 H 0.90497 0.80337 0.88032 0.0
H444 H 0.80401 0.84727 0.91317 0.0
O445 O 0.03219 0.97418 0.84337 0.0
C446 C 0.09823 0.99292 0.92777 0.0
C447 C 0.87 0.90467 0.91157 0.0
C448 C 0.91407 0.8369 0.88601 0.0
N449 N 0.99439 0.89826 0.88175 0.0
C450 C 0.93927 0.92254 0.90004 0.0
C451 C 0.98265 0.85587 0.87491 0.0
C452 C 0.85743 0.86155 0.90442 0.0
C453 C 0.33632 0.97585 0.88826 0.0
N454 N 0.28268 1.00696 0.8923 0.0
C455 C 0.39504 0.9719 0.91744 0.0
C456 C 0.39857 0.99991 0.95125 0.0
C457 C 0.34325 0.0312 0.95563 0.0
C458 C 0.28536 0.03412 0.92586 0.0
C459 C 0.28784 0.13566 0.84277 0.0
C460 C 0.14749 0.09839 0.85386 0.0
C461 C 0.28006 0.0915 0.84462 0.0
N462 N 0.21054 0.0734 0.85051 0.0
C463 C 0.15312 0.14266 0.85225 0.0
C464 C 0.22386 0.16134 0.84671 0.0
C465 C 0.04747 1.00394 0.81745 0.0
C466 C 0.14845 0.85862 0.75622 0.0
C467 C 0.0226 0.90089 0.78705 0.0
C468 C 0.02006 0.88284 0.74696 0.0
C469 C 0.08352 0.86158 0.73151 0.0
N470 N 0.08652 0.89785 0.81112 0.0
C471 C 0.14894 0.87709 0.79615 0.0
C472 C 0.44074 0.57449 0.25228 0.0
C473 C 0.36781 0.55684 0.25194 0.0
C474 C 0.49956 0.55642 0.22831 0.0
C475 C 0.48719 0.52038 0.20279 0.0
H476 H 0.4533 0.6011 0.27268 0.0
H477 H 0.55538 0.57037 0.23049 0.0
S478 S 0.30223 0.46579 0.188 0.0
N479 N 0.28442 0.50364 0.22249 0.0
N480 N 0.39275 0.4706 0.1763 0.0
C481 C 0.41279 0.50411 0.20074 0.0
C482 C 0.35374 0.52207 0.22563 0.0
C483 C 0.09702 0.05019 0.21345 0.0
C484 C 0.02773 0.02846 0.20871 0.0
C485 C 0.15681 0.03304 0.23681 0.0
C486 C 0.15127 0.99284 0.25585 0.0
H487 H 0.10556 0.08117 0.19936 0.0
H488 H 0.20798 0.05165 0.2401 0.0
S489 S 0.98434 0.92157 0.25245 0.0
N490 N 0.95809 0.96373 0.22492 0.0
N491 N 0.07184 0.93102 0.26806 0.0
C492 C 0.08352 0.96997 0.25068 0.0
C493 C 0.02153 0.98788 0.22739 0.0
C494 C 0.85946 0.52733 0.26575 0.0
C495 C 0.86954 0.49079 0.24109 0.0
C496 C 0.91868 0.54393 0.28974 0.0
C497 C 0.9915 0.52543 0.28925 0.0
H498 H 0.80539 0.54367 0.26604 0.0
H499 H 0.90717 0.57218 0.30809 0.0
S500 S 0.04679 0.42857 0.22969 0.0
N501 N 0.9565 0.43561 0.21811 0.0
N502 N 0.06923 0.46743 0.26221 0.0
C503 C 1.00198 0.48825 0.26511 0.0
C504 C 0.94072 0.47079 0.24131 0.0
C505 C 0.59836 0.0389 0.22594 0.0
C506 C 0.66931 0.04401 0.24567 0.0
C507 C 0.53445 0.02529 0.24858 0.0
C508 C 0.53953 1.01545 0.29161 0.0
H509 H 0.59246 0.04456 0.19244 0.0
H510 H 0.48173 1.02054 0.23189 0.0
S511 S 0.70981 0.02623 0.35896 0.0
N512 N 0.73891 0.04057 0.3116 0.0
N513 N 0.61933 1.01439 0.35383 0.0
C514 C 0.60915 1.02189 0.31207 0.0
C515 C 0.67387 0.03639 0.28922 0.0
C516 C 0.55692 0.52638 0.75412 0.0
C517 C 0.56066 0.54073 0.79597 0.0
C518 C 0.62306 0.51474 0.73209 0.0
C519 C 0.69505 0.51726 0.75117 0.0
H520 H 0.50334 0.52642 0.73758 0.0
H521 H 0.61811 0.5061 0.69923 0.0
S522 S 0.73327 0.54476 0.8625 0.0
N523 N 0.64085 0.55028 0.85738 0.0
N524 N 0.76444 0.52976 0.81583 0.0
C525 C 0.69856 0.52856 0.7938 0.0
C526 C 0.63156 0.53991 0.81623 0.0
C527 C 0.92315 0.04086 0.72731 0.0
C528 C 0.85228 0.04722 0.74689 0.0
C529 C 0.98762 0.02949 0.75065 0.0
C530 C 0.98324 1.02322 0.79433 0.0
H531 H 0.92852 0.0436 0.69344 0.0
H532 H 0.04015 1.02338 0.73411 0.0
S533 S 0.81353 0.03901 0.86138 0.0
N534 N 0.78353 0.04924 0.81317 0.0
N535 N 0.90422 0.02712 0.85682 0.0
C536 C 0.91377 0.0312 0.81456 0.0
C537 C 0.84843 0.04347 0.79092 0.0
C538 C 0.19829 0.51105 0.70458 0.0
C539 C 0.19462 0.53089 0.74409 0.0
C540 C 0.13265 0.49943 0.68291 0.0
C541 C 0.05988 0.50687 0.6997 0.0
H542 H 0.2525 0.50311 0.6907 0.0
H543 H 0.13943 0.48326 0.65309 0.0
S544 S 1.0182 0.56087 0.80076 0.0
N545 N 0.1115 0.56013 0.79806 0.0
N546 N 0.98813 0.53789 0.75722 0.0
C547 C 0.05498 0.52876 0.73813 0.0
C548 C 0.12224 0.54081 0.76033 0.0
C549 C 0.43938 0.97457 0.75258 0.0
C550 C 0.36781 0.99431 0.75308 0.0
C551 C 0.49954 0.99163 0.7288 0.0
C552 C 0.48999 0.02874 0.70424 0.0
H553 H 0.44985 0.94681 0.772 0.0
H554 H 0.55406 0.97588 0.73013 0.0
S555 S 0.3097 0.0895 0.69218 0.0
N556 N 0.28903 0.05102 0.72554 0.0
N557 N 0.39952 0.08236 0.68002 0.0
C558 C 0.41703 0.04743 0.70333 0.0
C559 C 0.35671 0.03043 0.72795 0.0
C560 C 1.01263 0.5591 0.49005 0.0
C561 C 0.05714 0.53521 0.46195 0.0
C562 C 0.97428 0.53964 0.52369 0.0
C563 C 0.97822 0.49529 0.53073 0.0
H564 H 1.00704 0.59319 0.48609 0.0
H565 H 0.94156 0.55982 0.54448 0.0
S566 S 0.08599 0.41771 0.46613 0.0
N567 N 0.10251 0.46416 0.44386 0.0
N568 N 0.02927 0.42798 0.50603 0.0
C569 C 0.02165 0.4709 0.50261 0.0
C570 C 0.06138 0.49072 0.46865 0.0
C571 C 0.4716 0.0423 0.46916 0.0
C572 C 0.47081 0.99794 0.4622 0.0
C573 C 0.5113 0.0603 0.50295 0.0
C574 C 0.55227 0.03484 0.53144 0.0
H575 H 0.44164 0.06366 0.44817 0.0
H576 H 0.50959 0.09452 0.50669 0.0
S577 S 0.56803 0.91661 0.52775 0.0
N578 N 0.51404 0.92892 0.48722 0.0
N579 N 0.58875 0.9623 0.55023 0.0
C580 C 0.55161 0.9903 0.52495 0.0
C581 C 0.51092 0.972 0.49059 0.0
C582 C 0.51678 0.49004 0.00283 0.0
C583 C 0.55906 0.51401 0.03174 0.0
C584 C 0.47803 0.5096 0.96938 0.0
C585 C 0.47943 0.55413 0.96328 0.0
H586 H 0.51319 0.4558 0.006 0.0
H587 H 0.44704 0.48934 0.94798 0.0
S588 S 0.58075 0.63198 0.03027 0.0
N589 N 0.59955 0.58535 0.05169 0.0
N590 N 0.52573 0.62169 0.98972 0.0
C591 C 0.5207 0.5786 0.99218 0.0
C592 C 0.56076 0.55869 0.02602 0.0
C593 C 1.01735 0.98736 0.99259 0.0
C594 C 0.06096 1.01258 0.96525 0.0
C595 C 0.97774 1.0053 0.02642 0.0
C596 C 0.9799 0.04939 0.03482 0.0
H597 H 1.01272 0.9534 0.98763 0.0
H598 H 0.94501 0.98405 0.04613 0.0
S599 S 0.08693 0.12986 0.97346 0.0
N600 N 0.10454 0.08445 0.94945 0.0
N601 N 0.03047 0.11781 0.01306 0.0
C602 C 0.02377 0.07505 0.00803 0.0
C603 C 0.06412 0.05679 0.97338 0.0
C604 C 0.18314 0.76198 0.40998 0.0
C605 C 0.23274 0.72681 0.41276 0.0
C606 C 0.21029 0.804 0.40894 0.0
C607 C 0.28831 0.81268 0.40993 0.0
H608 H 0.12268 0.75704 0.4075 0.0
H609 H 0.16987 0.82973 0.4054 0.0
S610 S 0.4421 0.73263 0.42061 0.0
N611 N 0.36387 0.70407 0.41931 0.0
N612 N 0.41465 0.78274 0.41698 0.0
C613 C 0.33839 0.778 0.41446 0.0
C614 C 0.31073 0.73522 0.41604 0.0
C615 C 0.71594 0.24458 0.08153 0.0
C616 C 0.79364 0.23489 0.08306 0.0
C617 C 0.69023 0.28695 0.08043 0.0
C618 C 0.74106 0.32153 0.08021 0.0
H619 H 0.67442 0.21935 0.08323 0.0
H620 H 0.62975 0.29262 0.08099 0.0
S621 S 0.95069 0.31311 0.07909 0.0
N622 N 0.9214 0.26332 0.0807 0.0
N623 N 0.87333 0.34266 0.07846 0.0
C624 C 0.819 0.31216 0.07928 0.0
C625 C 0.84515 0.269 0.08082 0.0
C626 C 0.82409 0.23161 0.58143 0.0
C627 C 0.74623 0.22357 0.57712 0.0
C628 C 0.85204 0.27338 0.58292 0.0
C629 C 0.80357 0.30895 0.57957 0.0
H630 H 0.8635 0.20554 0.58585 0.0
H631 H 0.91216 0.27775 0.58787 0.0
S632 S 0.59578 0.30514 0.5632 0.0
N633 N 0.62166 0.25472 0.56607 0.0
N634 N 0.67422 0.33303 0.56859 0.0
C635 C 0.72612 0.30134 0.57279 0.0
C636 C 0.69751 0.25876 0.5717 0.0
C637 C 0.2221 0.74761 0.9114 0.0
C638 C 0.30074 0.74073 0.9126 0.0
C639 C 0.19165 0.78898 0.91182 0.0
C640 C 0.23845 0.82518 0.91427 0.0
H641 H 0.18382 0.72097 0.90815 0.0
H642 H 0.13085 0.79261 0.90922 0.0
S643 S 0.44801 0.8242 0.92211 0.0
N644 N 0.42463 0.77349 0.91915 0.0
N645 N 0.36754 0.85097 0.9205 0.0
C646 C 0.31699 0.8186 0.91768 0.0
C647 C 0.34805 0.7765 0.91664 0.0
loop_
_geom_bond_atom_site_label_1
_geom_bond_atom_site_label_2
_geom_bond_distance
_geom_bond_site_symmetry_2
_ccdc_geom_bond_type
Co0 O2 2.143 . S
Co0 O8 2.074 . S
Co0 O11 2.093 . S
Co0 O24 2.097 . S
Co0 N41 2.151 . S
Co0 N49 2.214 . S
Co1 O2 2.160 . S
Co1 O7 2.058 . S
Co1 O17 2.057 . S
Co1 O32 2.037 . S
Co1 N36 2.145 1_455 S
Co1 N57 2.257 . S
O2 Co0 2.143 . S
O2 Co1 2.160 . S
C3 O4 1.278 . S
C3 O11 1.224 . S
O4 C3 1.278 . S
C5 O6 1.245 . S
C5 O17 1.232 . S
O6 C5 1.245 . S
O7 Co1 2.058 . S
O7 C33 1.269 . S
O8 Co0 2.074 . S
O8 C33 1.257 . S
H9 C34 0.930 . S
H10 C40 0.930 . S
O11 Co0 2.093 . S
O11 C3 1.224 . S
H12 C44 0.929 . S
H13 C46 0.930 . S
H14 C47 0.930 . S
H15 C45 0.929 . S
H16 C48 0.928 . S
O17 Co1 2.057 . S
O17 C5 1.232 . S
H18 C37 0.929 . S
H19 C38 0.929 1_455 S
H20 C50 0.931 . S
H21 C42 0.929 . S
H22 C51 0.930 . S
H23 C43 0.931 . S
O24 Co0 2.097 . S
O24 C52 1.214 . S
H25 C53 0.929 . S
H26 C54 0.929 . S
H27 C55 0.930 . S
H28 C56 0.929 . S
H29 C58 0.930 . S
H30 C35 0.930 . S
H31 C39 0.930 . S
O32 Co1 2.037 . S
O32 C52 1.234 . S
C33 O7 1.269 . S
C33 O8 1.257 . S
C34 H9 0.930 . S
C34 C37 1.388 . S
C34 C39 1.418 . S
C35 H30 0.930 . S
C35 C38 1.404 . S
C35 C39 1.353 . S
N36 Co1 2.145 1_655 S
N36 C37 1.397 . S
N36 C38 1.334 . S
C37 H18 0.929 . S
C37 C34 1.388 . S
C37 N36 1.397 . S
C38 H19 0.929 1_655 S
C38 C35 1.404 . S
C38 N36 1.334 . S
C39 H31 0.930 . S
C39 C34 1.418 . S
C39 C35 1.353 . S
C40 H10 0.930 . S
C40 N41 1.330 . S
C40 C42 1.446 . S
N41 Co0 2.151 . S
N41 C40 1.330 . S
N41 C45 1.418 . S
C42 H21 0.929 . S
C42 C40 1.446 . S
C42 C43 1.332 . S
C43 H23 0.931 . S
C43 C42 1.332 . S
C43 C44 1.267 . S
C44 H12 0.929 . S
C44 C43 1.267 . S
C44 C45 1.251 . S
C45 H15 0.929 . S
C45 N41 1.418 . S
C45 C44 1.251 . S
C46 H13 0.930 . S
C46 C48 1.406 . S
C46 C51 1.261 . S
C47 H14 0.930 . S
C47 N49 1.325 . S
C47 C50 1.357 . S
C48 H16 0.928 . S
C48 C46 1.406 . S
C48 N49 1.261 . S
N49 Co0 2.214 . S
N49 C47 1.325 . S
N49 C48 1.261 . S
C50 H20 0.931 . S
C50 C47 1.357 . S
C50 C51 1.312 . S
C51 H22 0.930 . S
C51 C46 1.261 . S
C51 C50 1.312 . S
C52 O24 1.214 . S
C52 O32 1.234 . S
C53 H25 0.929 . S
C53 C56 1.391 . S
C53 C58 1.391 . S
C54 H26 0.929 . S
C54 C55 1.390 . S
C54 N57 1.391 . S
C55 H27 0.930 . S
C55 C54 1.390 . S
C55 C56 1.392 . S
C56 H28 0.929 . S
C56 C53 1.391 . S
C56 C55 1.392 . S
N57 Co1 2.257 . S
N57 C54 1.391 . S
N57 C58 1.388 . S
C58 H29 0.930 . S
C58 C53 1.391 . S
C58 N57 1.388 . S
Co59 O61 2.143 . S
Co59 O67 2.074 . S
Co59 O70 2.093 1_565 S
Co59 O83 2.097 . S
Co59 N100 2.151 . S
Co59 N108 2.214 1_565 S
Co60 O61 2.160 . S
Co60 O66 2.058 . S
Co60 O76 2.057 . S
Co60 O91 2.037 . S
Co60 N95 2.145 . S
Co60 N116 2.257 . S
O61 Co59 2.143 . S
O61 Co60 2.160 . S
C62 O63 1.278 . S
C62 O70 1.224 1_565 S
O63 C62 1.278 . S
C64 O65 1.245 . S
C64 O76 1.232 . S
O65 C64 1.245 . S
O66 Co60 2.058 . S
O66 C92 1.269 . S
O67 Co59 2.074 . S
O67 C92 1.257 . S
H68 C93 0.930 . S
H69 C99 0.930 . S
O70 Co59 2.093 1_545 S
O70 C62 1.224 1_545 S
H71 C103 0.929 . S
H72 C105 0.930 . S
H73 C106 0.930 . S
H74 C104 0.929 . S
H75 C107 0.928 . S
O76 Co60 2.057 . S
O76 C64 1.232 . S
H77 C96 0.929 . S
H78 C97 0.929 . S
H79 C109 0.931 . S
H80 C101 0.929 . S
H81 C110 0.930 . S
H82 C102 0.931 . S
O83 Co59 2.097 . S
O83 C111 1.214 . S
H84 C112 0.929 . S
H85 C113 0.929 . S
H86 C114 0.930 . S
H87 C115 0.929 . S
H88 C117 0.930 . S
H89 C94 0.930 . S
H90 C98 0.930 . S
O91 Co60 2.037 . S
O91 C111 1.234 . S
C92 O66 1.269 . S
C92 O67 1.257 . S
C93 H68 0.930 . S
C93 C96 1.388 . S
C93 C98 1.418 . S
C94 H89 0.930 . S
C94 C97 1.404 . S
C94 C98 1.353 . S
N95 Co60 2.145 . S
N95 C96 1.397 . S
N95 C97 1.334 . S
C96 H77 0.929 . S
C96 C93 1.388 . S
C96 N95 1.397 . S
C97 H78 0.929 . S
C97 C94 1.404 . S
C97 N95 1.334 . S
C98 H90 0.930 . S
C98 C93 1.418 . S
C98 C94 1.353 . S
C99 H69 0.930 . S
C99 N100 1.330 . S
C99 C101 1.446 . S
N100 Co59 2.151 . S
N100 C99 1.330 . S
N100 C104 1.418 1_565 S
C101 H80 0.929 . S
C101 C99 1.446 . S
C101 C102 1.332 1_565 S
C102 H82 0.931 . S
C102 C101 1.332 1_545 S
C102 C103 1.267 . S
C103 H71 0.929 . S
C103 C102 1.267 . S
C103 C104 1.251 . S
C104 H74 0.929 . S
C104 N100 1.418 1_545 S
C104 C103 1.251 . S
C105 H72 0.930 . S
C105 C107 1.406 . S
C105 C110 1.261 . S
C106 H73 0.930 . S
C106 N108 1.325 . S
C106 C109 1.357 . S
C107 H75 0.928 . S
C107 C105 1.406 . S
C107 N108 1.261 . S
N108 Co59 2.214 1_545 S
N108 C106 1.325 . S
N108 C107 1.261 . S
C109 H79 0.931 . S
C109 C106 1.357 . S
C109 C110 1.312 . S
C110 H81 0.930 . S
C110 C105 1.261 . S
C110 C109 1.312 . S
C111 O83 1.214 . S
C111 O91 1.234 . S
C112 H84 0.929 . S
C112 C115 1.391 . S
C112 C117 1.391 . S
C113 H85 0.929 . S
C113 C114 1.390 . S
C113 N116 1.391 . S
C114 H86 0.930 . S
C114 C113 1.390 . S
C114 C115 1.392 . S
C115 H87 0.929 . S
C115 C112 1.391 . S
C115 C114 1.392 . S
N116 Co60 2.257 . S
N116 C113 1.391 . S
N116 C117 1.388 . S
C117 H88 0.930 . S
C117 C112 1.391 . S
C117 N116 1.388 . S
Co118 O120 2.143 . S
Co118 O126 2.074 . S
Co118 O129 2.093 . S
Co118 O142 2.097 . S
Co118 N159 2.151 . S
Co118 N167 2.214 . S
Co119 O120 2.160 . S
Co119 O125 2.058 . S
Co119 O135 2.057 . S
Co119 O150 2.037 . S
Co119 N154 2.145 . S
Co119 N175 2.257 . S
O120 Co118 2.143 . S
O120 Co119 2.160 . S
C121 O122 1.278 . S
C121 O129 1.224 . S
O122 C121 1.278 . S
C123 O124 1.245 . S
C123 O135 1.232 . S
O124 C123 1.245 . S
O125 Co119 2.058 . S
O125 C151 1.269 . S
O126 Co118 2.074 . S
O126 C151 1.257 . S
H127 C152 0.930 . S
H128 C158 0.930 . S
O129 Co118 2.093 . S
O129 C121 1.224 . S
H130 C162 0.927 1_556 S
H131 C164 0.930 . S
H132 C165 0.930 . S
H133 C163 0.929 . S
H134 C166 0.928 . S
O135 Co119 2.057 . S
O135 C123 1.232 . S
H136 C155 0.929 . S
H137 C156 0.929 . S
H138 C168 0.931 . S
H139 C160 0.929 . S
H140 C169 0.930 . S
H141 C161 0.931 . S
O142 Co118 2.097 . S
O142 C170 1.214 . S
H143 C171 0.929 . S
H144 C172 0.929 . S
H145 C173 0.930 . S
H146 C174 0.929 . S
H147 C176 0.930 . S
H148 C153 0.930 . S
H149 C157 0.930 . S
O150 Co119 2.037 . S
O150 C170 1.234 . S
C151 O125 1.269 . S
C151 O126 1.257 . S
C152 H127 0.930 . S
C152 C155 1.388 . S
C152 C157 1.418 . S
C153 H148 0.930 . S
C153 C156 1.404 . S
C153 C157 1.353 . S
N154 Co119 2.145 . S
N154 C155 1.397 . S
N154 C156 1.334 . S
C155 H136 0.929 . S
C155 C152 1.388 . S
C155 N154 1.397 . S
C156 H137 0.929 . S
C156 C153 1.404 . S
C156 N154 1.334 . S
C157 H149 0.930 . S
C157 C152 1.418 . S
C157 C153 1.353 . S
C158 H128 0.930 . S
C158 N159 1.330 . S
C158 C160 1.446 . S
N159 Co118 2.151 . S
N159 C158 1.330 . S
N159 C163 1.418 . S
C160 H139 0.929 . S
C160 C158 1.446 . S
C160 C161 1.332 . S
C161 H141 0.931 . S
C161 C160 1.332 . S
C161 C162 1.267 . S
C162 H130 0.927 1_554 S
C162 C161 1.267 . S
C162 C163 1.251 . S
C163 H133 0.929 . S
C163 N159 1.418 . S
C163 C162 1.251 . S
C164 H131 0.930 . S
C164 C166 1.406 . S
C164 C169 1.261 . S
C165 H132 0.930 . S
C165 N167 1.325 . S
C165 C168 1.357 . S
C166 H134 0.928 . S
C166 C164 1.406 . S
C166 N167 1.261 . S
N167 Co118 2.214 . S
N167 C165 1.325 . S
N167 C166 1.261 . S
C168 H138 0.931 . S
C168 C165 1.357 . S
C168 C169 1.312 . S
C169 H140 0.930 . S
C169 C164 1.261 . S
C169 C168 1.312 . S
C170 O142 1.214 . S
C170 O150 1.234 . S
C171 H143 0.929 . S
C171 C174 1.391 . S
C171 C176 1.391 . S
C172 H144 0.929 . S
C172 C173 1.390 . S
C172 N175 1.391 . S
C173 H145 0.930 . S
C173 C172 1.390 . S
C173 C174 1.392 . S
C174 H146 0.929 . S
C174 C171 1.391 . S
C174 C173 1.392 . S
N175 Co119 2.257 . S
N175 C172 1.391 . S
N175 C176 1.388 . S
C176 H147 0.930 . S
C176 C171 1.391 . S
C176 N175 1.388 . S
Co177 O179 2.143 . S
Co177 O185 2.074 . S
Co177 O188 2.093 1_545 S
Co177 O201 2.097 . S
Co177 N218 2.151 . S
Co177 N226 2.214 1_545 S
Co178 O179 2.160 . S
Co178 O184 2.058 . S
Co178 O194 2.057 . S
Co178 O209 2.037 . S
Co178 N213 2.145 1_655 S
Co178 N234 2.257 . S
O179 Co177 2.143 . S
O179 Co178 2.160 . S
C180 O181 1.278 . S
C180 O188 1.224 1_545 S
O181 C180 1.278 . S
C182 O183 1.245 . S
C182 O194 1.232 . S
O183 C182 1.245 . S
O184 Co178 2.058 . S
O184 C210 1.269 . S
O185 Co177 2.074 . S
O185 C210 1.257 . S
H186 C211 0.930 . S
H187 C217 0.930 . S
O188 Co177 2.093 1_565 S
O188 C180 1.224 1_565 S
H189 C221 0.927 1_556 S
H190 C223 0.930 . S
H191 C224 0.930 . S
H192 C222 0.929 . S
H193 C225 0.928 . S
O194 Co178 2.057 . S
O194 C182 1.232 . S
H195 C214 0.929 . S
H196 C215 0.929 1_655 S
H197 C227 0.931 . S
H198 C219 0.929 . S
H199 C228 0.930 . S
H200 C220 0.931 . S
O201 Co177 2.097 . S
O201 C229 1.214 . S
H202 C230 0.929 . S
H203 C231 0.929 . S
H204 C232 0.930 . S
H205 C233 0.929 . S
H206 C235 0.930 . S
H207 C212 0.930 . S
H208 C216 0.930 . S
O209 Co178 2.037 . S
O209 C229 1.234 . S
C210 O184 1.269 . S
C210 O185 1.257 . S
C211 H186 0.930 . S
C211 C214 1.388 . S
C211 C216 1.418 . S
C212 H207 0.930 . S
C212 C215 1.404 . S
C212 C216 1.353 . S
N213 Co178 2.145 1_455 S
N213 C214 1.397 . S
N213 C215 1.334 . S
C214 H195 0.929 . S
C214 C211 1.388 . S
C214 N213 1.397 . S
C215 H196 0.929 1_455 S
C215 C212 1.404 . S
C215 N213 1.334 . S
C216 H208 0.930 . S
C216 C211 1.418 . S
C216 C212 1.353 . S
C217 H187 0.930 . S
C217 N218 1.330 . S
C217 C219 1.446 . S
N218 Co177 2.151 . S
N218 C217 1.330 . S
N218 C222 1.418 1_545 S
C219 H198 0.929 . S
C219 C217 1.446 . S
C219 C220 1.332 1_545 S
C220 H200 0.931 . S
C220 C219 1.332 1_565 S
C220 C221 1.267 . S
C221 H189 0.927 1_554 S
C221 C220 1.267 . S
C221 C222 1.251 . S
C222 H192 0.929 . S
C222 N218 1.418 1_565 S
C222 C221 1.251 . S
C223 H190 0.930 . S
C223 C225 1.406 . S
C223 C228 1.261 . S
C224 H191 0.930 . S
C224 N226 1.325 . S
C224 C227 1.357 . S
C225 H193 0.928 . S
C225 C223 1.406 . S
C225 N226 1.261 . S
N226 Co177 2.214 1_565 S
N226 C224 1.325 . S
N226 C225 1.261 . S
C227 H197 0.931 . S
C227 C224 1.357 . S
C227 C228 1.312 . S
C228 H199 0.930 . S
C228 C223 1.261 . S
C228 C227 1.312 . S
C229 O201 1.214 . S
C229 O209 1.234 . S
C230 H202 0.929 . S
C230 C233 1.391 . S
C230 C235 1.391 . S
C231 H203 0.929 . S
C231 C232 1.390 . S
C231 N234 1.391 . S
C232 H204 0.930 . S
C232 C231 1.390 . S
C232 C233 1.392 . S
C233 H205 0.929 . S
C233 C230 1.391 . S
C233 C232 1.392 . S
N234 Co178 2.257 . S
N234 C231 1.391 . S
N234 C235 1.388 . S
C235 H206 0.930 . S
C235 C230 1.391 . S
C235 N234 1.388 . S
Co236 O238 2.143 . S
Co236 O244 2.074 . S
Co236 O247 2.093 . S
Co236 O260 2.097 . S
Co236 N277 2.151 . S
Co236 N285 2.214 . S
Co237 O238 2.160 . S
Co237 O243 2.058 . S
Co237 O253 2.057 . S
Co237 O268 2.037 . S
Co237 N272 2.145 1_655 S
Co237 N293 2.257 . S
O238 Co236 2.143 . S
O238 Co237 2.160 . S
C239 O240 1.278 . S
C239 O247 1.224 . S
O240 C239 1.278 . S
C241 O242 1.245 . S
C241 O253 1.232 . S
O242 C241 1.245 . S
O243 Co237 2.058 . S
O243 C269 1.269 . S
O244 Co236 2.074 . S
O244 C269 1.257 . S
H245 C270 0.930 . S
H246 C276 0.930 . S
O247 Co236 2.093 . S
O247 C239 1.224 . S
H248 C280 0.929 . S
H249 C282 0.930 . S
H250 C283 0.930 . S
H251 C281 0.929 . S
H252 C284 0.928 . S
O253 Co237 2.057 . S
O253 C241 1.232 . S
H254 C273 0.929 . S
H255 C274 0.929 1_655 S
H256 C286 0.931 . S
H257 C278 0.929 . S
H258 C287 0.930 . S
H259 C279 0.931 . S
O260 Co236 2.097 . S
O260 C288 1.214 . S
H261 C289 0.929 . S
H262 C290 0.929 . S
H263 C291 0.930 . S
H264 C292 0.929 . S
H265 C294 0.930 . S
H266 C271 0.930 . S
H267 C275 0.930 . S
O268 Co237 2.037 . S
O268 C288 1.234 . S
C269 O243 1.269 . S
C269 O244 1.257 . S
C270 H245 0.930 . S
C270 C273 1.388 . S
C270 C275 1.418 . S
C271 H266 0.930 . S
C271 C274 1.404 . S
C271 C275 1.353 . S
N272 Co237 2.145 1_455 S
N272 C273 1.397 . S
N272 C274 1.334 . S
C273 H254 0.929 . S
C273 C270 1.388 . S
C273 N272 1.397 . S
C274 H255 0.929 1_455 S
C274 C271 1.404 . S
C274 N272 1.334 . S
C275 H267 0.930 . S
C275 C270 1.418 . S
C275 C271 1.353 . S
C276 H246 0.930 . S
C276 N277 1.330 . S
C276 C278 1.446 . S
N277 Co236 2.151 . S
N277 C276 1.330 . S
N277 C281 1.418 . S
C278 H257 0.929 . S
C278 C276 1.446 . S
C278 C279 1.332 . S
C279 H259 0.931 . S
C279 C278 1.332 . S
C279 C280 1.267 . S
C280 H248 0.929 . S
C280 C279 1.267 . S
C280 C281 1.251 . S
C281 H251 0.929 . S
C281 N277 1.418 . S
C281 C280 1.251 . S
C282 H249 0.930 . S
C282 C284 1.406 . S
C282 C287 1.261 . S
C283 H250 0.930 . S
C283 N285 1.325 . S
C283 C286 1.357 . S
C284 H252 0.928 . S
C284 C282 1.406 . S
C284 N285 1.261 . S
N285 Co236 2.214 . S
N285 C283 1.325 . S
N285 C284 1.261 . S
C286 H256 0.931 . S
C286 C283 1.357 . S
C286 C287 1.312 . S
C287 H258 0.930 . S
C287 C282 1.261 . S
C287 C286 1.312 . S
C288 O260 1.214 . S
C288 O268 1.234 . S
C289 H261 0.929 . S
C289 C292 1.391 . S
C289 C294 1.391 . S
C290 H262 0.929 . S
C290 C291 1.390 . S
C290 N293 1.391 . S
C291 H263 0.930 . S
C291 C290 1.390 . S
C291 C292 1.392 . S
C292 H264 0.929 . S
C292 C289 1.391 . S
C292 C291 1.392 . S
N293 Co237 2.257 . S
N293 C290 1.391 . S
N293 C294 1.388 . S
C294 H265 0.930 . S
C294 C289 1.391 . S
C294 N293 1.388 . S
Co295 O297 2.143 . S
Co295 O303 2.074 . S
Co295 O306 2.093 1_545 S
Co295 O319 2.097 . S
Co295 N336 2.151 . S
Co295 N344 2.214 1_545 S
Co296 O297 2.160 . S
Co296 O302 2.058 . S
Co296 O312 2.057 . S
Co296 O327 2.037 . S
Co296 N331 2.145 . S
Co296 N352 2.257 . S
O297 Co295 2.143 . S
O297 Co296 2.160 . S
C298 O299 1.278 . S
C298 O306 1.224 1_545 S
O299 C298 1.278 . S
C300 O301 1.245 . S
C300 O312 1.232 . S
O301 C300 1.245 . S
O302 Co296 2.058 . S
O302 C328 1.269 . S
O303 Co295 2.074 . S
O303 C328 1.257 . S
H304 C329 0.930 . S
H305 C335 0.930 . S
O306 Co295 2.093 1_565 S
O306 C298 1.224 1_565 S
H307 C339 0.929 . S
H308 C341 0.930 . S
H309 C342 0.930 . S
H310 C340 0.929 . S
H311 C343 0.928 . S
O312 Co296 2.057 . S
O312 C300 1.232 . S
H313 C332 0.929 . S
H314 C333 0.929 . S
H315 C345 0.931 . S
H316 C337 0.929 . S
H317 C346 0.930 . S
H318 C338 0.931 . S
O319 Co295 2.097 . S
O319 C347 1.214 . S
H320 C348 0.929 . S
H321 C349 0.929 . S
H322 C350 0.930 . S
H323 C351 0.929 . S
H324 C353 0.930 . S
H325 C330 0.930 . S
H326 C334 0.930 . S
O327 Co296 2.037 . S
O327 C347 1.234 . S
C328 O302 1.269 . S
C328 O303 1.257 . S
C329 H304 0.930 . S
C329 C332 1.388 . S
C329 C334 1.418 . S
C330 H325 0.930 . S
C330 C333 1.404 . S
C330 C334 1.353 . S
N331 Co296 2.145 . S
N331 C332 1.397 . S
N331 C333 1.334 . S
C332 H313 0.929 . S
C332 C329 1.388 . S
C332 N331 1.397 . S
C333 H314 0.929 . S
C333 C330 1.404 . S
C333 N331 1.334 . S
C334 H326 0.930 . S
C334 C329 1.418 . S
C334 C330 1.353 . S
C335 H305 0.930 . S
C335 N336 1.330 . S
C335 C337 1.446 . S
N336 Co295 2.151 . S
N336 C335 1.330 . S
N336 C340 1.418 1_545 S
C337 H316 0.929 . S
C337 C335 1.446 . S
C337 C338 1.332 1_545 S
C338 H318 0.931 . S
C338 C337 1.332 1_565 S
C338 C339 1.267 . S
C339 H307 0.929 . S
C339 C338 1.267 . S
C339 C340 1.251 . S
C340 H310 0.929 . S
C340 N336 1.418 1_565 S
C340 C339 1.251 . S
C341 H308 0.930 . S
C341 C343 1.406 . S
C341 C346 1.261 . S
C342 H309 0.930 . S
C342 N344 1.325 . S
C342 C345 1.357 . S
C343 H311 0.928 . S
C343 C341 1.406 . S
C343 N344 1.261 . S
N344 Co295 2.214 1_565 S
N344 C342 1.325 . S
N344 C343 1.261 . S
C345 H315 0.931 . S
C345 C342 1.357 . S
C345 C346 1.312 . S
C346 H317 0.930 . S
C346 C341 1.261 . S
C346 C345 1.312 . S
C347 O319 1.214 . S
C347 O327 1.234 . S
C348 H320 0.929 . S
C348 C351 1.391 . S
C348 C353 1.391 . S
C349 H321 0.929 . S
C349 C350 1.390 . S
C349 N352 1.391 . S
C350 H322 0.930 . S
C350 C349 1.390 . S
C350 C351 1.392 . S
C351 H323 0.929 . S
C351 C348 1.391 . S
C351 C350 1.392 . S
N352 Co296 2.257 . S
N352 C349 1.391 . S
N352 C353 1.388 . S
C353 H324 0.930 . S
C353 C348 1.391 . S
C353 N352 1.388 . S
Co354 O356 2.143 . S
Co354 O362 2.074 . S
Co354 O365 2.093 . S
Co354 O378 2.097 . S
Co354 N395 2.151 . S
Co354 N403 2.214 . S
Co355 O356 2.160 . S
Co355 O361 2.058 . S
Co355 O371 2.057 . S
Co355 O386 2.037 . S
Co355 N390 2.145 . S
Co355 N411 2.257 . S
O356 Co354 2.143 . S
O356 Co355 2.160 . S
C357 O358 1.278 . S
C357 O365 1.224 . S
O358 C357 1.278 . S
C359 O360 1.245 . S
C359 O371 1.232 . S
O360 C359 1.245 . S
O361 Co355 2.058 . S
O361 C387 1.269 . S
O362 Co354 2.074 . S
O362 C387 1.257 . S
H363 C388 0.930 . S
H364 C394 0.930 . S
O365 Co354 2.093 . S
O365 C357 1.224 . S
H366 C398 0.927 1_554 S
H367 C400 0.930 . S
H368 C401 0.930 . S
H369 C399 0.929 . S
H370 C402 0.928 . S
O371 Co355 2.057 . S
O371 C359 1.232 . S
H372 C391 0.929 . S
H373 C392 0.929 . S
H374 C404 0.931 . S
H375 C396 0.929 . S
H376 C405 0.930 . S
H377 C397 0.931 . S
O378 Co354 2.097 . S
O378 C406 1.214 . S
H379 C407 0.929 . S
H380 C408 0.929 . S
H381 C409 0.930 . S
H382 C410 0.929 . S
H383 C412 0.930 . S
H384 C389 0.930 . S
H385 C393 0.930 . S
O386 Co355 2.037 . S
O386 C406 1.234 . S
C387 O361 1.269 . S
C387 O362 1.257 . S
C388 H363 0.930 . S
C388 C391 1.388 . S
C388 C393 1.418 . S
C389 H384 0.930 . S
C389 C392 1.404 . S
C389 C393 1.353 . S
N390 Co355 2.145 . S
N390 C391 1.397 . S
N390 C392 1.334 . S
C391 H372 0.929 . S
C391 C388 1.388 . S
C391 N390 1.397 . S
C392 H373 0.929 . S
C392 C389 1.404 . S
C392 N390 1.334 . S
C393 H385 0.930 . S
C393 C388 1.418 . S
C393 C389 1.353 . S
C394 H364 0.930 . S
C394 N395 1.330 . S
C394 C396 1.446 . S
N395 Co354 2.151 . S
N395 C394 1.330 . S
N395 C399 1.418 . S
C396 H375 0.929 . S
C396 C394 1.446 . S
C396 C397 1.332 . S
C397 H377 0.931 . S
C397 C396 1.332 . S
C397 C398 1.267 . S
C398 H366 0.927 1_556 S
C398 C397 1.267 . S
C398 C399 1.251 . S
C399 H369 0.929 . S
C399 N395 1.418 . S
C399 C398 1.251 . S
C400 H367 0.930 . S
C400 C402 1.406 . S
C400 C405 1.261 . S
C401 H368 0.930 . S
C401 N403 1.325 . S
C401 C404 1.357 . S
C402 H370 0.928 . S
C402 C400 1.406 . S
C402 N403 1.261 . S
N403 Co354 2.214 . S
N403 C401 1.325 . S
N403 C402 1.261 . S
C404 H374 0.931 . S
C404 C401 1.357 . S
C404 C405 1.312 . S
C405 H376 0.930 . S
C405 C400 1.261 . S
C405 C404 1.312 . S
C406 O378 1.214 . S
C406 O386 1.234 . S
C407 H379 0.929 . S
C407 C410 1.391 . S
C407 C412 1.391 . S
C408 H380 0.929 . S
C408 C409 1.390 . S
C408 N411 1.391 . S
C409 H381 0.930 . S
C409 C408 1.390 . S
C409 C410 1.392 . S
C410 H382 0.929 . S
C410 C407 1.391 . S
C410 C409 1.392 . S
N411 Co355 2.257 . S
N411 C408 1.391 . S
N411 C412 1.388 . S
C412 H383 0.930 . S
C412 C407 1.391 . S
C412 N411 1.388 . S
Co413 O415 2.143 . S
Co413 O421 2.074 . S
Co413 O424 2.093 1_565 S
Co413 O437 2.097 . S
Co413 N454 2.151 . S
Co413 N462 2.214 1_565 S
Co414 O415 2.160 . S
Co414 O420 2.058 . S
Co414 O430 2.057 . S
Co414 O445 2.037 . S
Co414 N449 2.145 1_455 S
Co414 N470 2.257 . S
O415 Co413 2.143 . S
O415 Co414 2.160 . S
C416 O417 1.278 . S
C416 O424 1.224 1_565 S
O417 C416 1.278 . S
C418 O419 1.245 . S
C418 O430 1.232 . S
O419 C418 1.245 . S
O420 Co414 2.058 . S
O420 C446 1.269 . S
O421 Co413 2.074 . S
O421 C446 1.257 . S
H422 C447 0.930 . S
H423 C453 0.930 . S
O424 Co413 2.093 1_545 S
O424 C416 1.224 1_545 S
H425 C457 0.927 1_554 S
H426 C459 0.930 . S
H427 C460 0.930 . S
H428 C458 0.929 . S
H429 C461 0.928 . S
O430 Co414 2.057 . S
O430 C418 1.232 . S
H431 C450 0.929 . S
H432 C451 0.929 1_455 S
H433 C463 0.931 . S
H434 C455 0.929 . S
H435 C464 0.930 . S
H436 C456 0.931 . S
O437 Co413 2.097 . S
O437 C465 1.214 . S
H438 C466 0.929 . S
H439 C467 0.929 . S
H440 C468 0.930 . S
H441 C469 0.929 . S
H442 C471 0.930 . S
H443 C448 0.930 . S
H444 C452 0.930 . S
O445 Co414 2.037 . S
O445 C465 1.234 . S
C446 O420 1.269 . S
C446 O421 1.257 . S
C447 H422 0.930 . S
C447 C450 1.388 . S
C447 C452 1.418 . S
C448 H443 0.930 . S
C448 C451 1.404 . S
C448 C452 1.353 . S
N449 Co414 2.145 1_655 S
N449 C450 1.397 . S
N449 C451 1.334 . S
C450 H431 0.929 . S
C450 C447 1.388 . S
C450 N449 1.397 . S
C451 H432 0.929 1_655 S
C451 C448 1.404 . S
C451 N449 1.334 . S
C452 H444 0.930 . S
C452 C447 1.418 . S
C452 C448 1.353 . S
C453 H423 0.930 . S
C453 N454 1.330 . S
C453 C455 1.446 . S
N454 Co413 2.151 . S
N454 C453 1.330 . S
N454 C458 1.418 1_565 S
C455 H434 0.929 . S
C455 C453 1.446 . S
C455 C456 1.332 1_565 S
C456 H436 0.931 . S
C456 C455 1.332 1_545 S
C456 C457 1.267 . S
C457 H425 0.927 1_556 S
C457 C456 1.267 . S
C457 C458 1.251 . S
C458 H428 0.929 . S
C458 N454 1.418 1_545 S
C458 C457 1.251 . S
C459 H426 0.930 . S
C459 C461 1.406 . S
C459 C464 1.261 . S
C460 H427 0.930 . S
C460 N462 1.325 . S
C460 C463 1.357 . S
C461 H429 0.928 . S
C461 C459 1.406 . S
C461 N462 1.261 . S
N462 Co413 2.214 1_545 S
N462 C460 1.325 . S
N462 C461 1.261 . S
C463 H433 0.931 . S
C463 C460 1.357 . S
C463 C464 1.312 . S
C464 H435 0.930 . S
C464 C459 1.261 . S
C464 C463 1.312 . S
C465 O437 1.214 . S
C465 O445 1.234 . S
C466 H438 0.929 . S
C466 C469 1.391 . S
C466 C471 1.391 . S
C467 H439 0.929 . S
C467 C468 1.390 . S
C467 N470 1.391 . S
C468 H440 0.930 . S
C468 C467 1.390 . S
C468 C469 1.392 . S
C469 H441 0.929 . S
C469 C466 1.391 . S
C469 C468 1.392 . S
N470 Co414 2.257 . S
N470 C467 1.391 . S
N470 C471 1.388 . S
C471 H442 0.930 . S
C471 C466 1.391 . S
C471 N470 1.388 . S
C472 C473 1.369 . S
C472 C474 1.419 . S
C472 H476 0.930 . S
C473 C472 1.369 . S
C473 C482 1.429 . S
C474 C472 1.419 . S
C474 C475 1.363 . S
C474 H477 0.929 . S
C475 C474 1.363 . S
C475 C481 1.428 . S
H476 C472 0.930 . S
H477 C474 0.929 . S
S478 N479 1.613 . S
S478 N480 1.610 . S
N479 S478 1.613 . S
N479 C482 1.350 . S
N480 S478 1.610 . S
N480 C481 1.351 . S
C481 C475 1.428 . S
C481 N480 1.351 . S
C481 C482 1.434 . S
C482 C473 1.429 . S
C482 N479 1.350 . S
C482 C481 1.434 . S
C483 C484 1.369 . S
C483 C485 1.419 . S
C483 H487 0.930 . S
C484 C483 1.369 . S
C484 C493 1.429 1_545 S
C485 C483 1.419 . S
C485 C486 1.363 1_545 S
C485 H488 0.929 . S
C486 C485 1.363 1_565 S
C486 C492 1.428 . S
H487 C483 0.930 . S
H488 C485 0.929 . S
S489 N490 1.613 . S
S489 N491 1.610 . S
N490 S489 1.613 . S
N490 C493 1.350 . S
N491 S489 1.610 . S
N491 C492 1.351 . S
C492 C486 1.428 . S
C492 N491 1.351 . S
C492 C493 1.434 . S
C493 C484 1.429 1_565 S
C493 N490 1.350 . S
C493 C492 1.434 . S
C494 C495 1.369 . S
C494 C496 1.419 . S
C494 H498 0.930 . S
C495 C494 1.369 . S
C495 C504 1.429 . S
C496 C494 1.419 . S
C496 C497 1.363 . S
C496 H499 0.929 . S
C497 C496 1.363 . S
C497 C503 1.428 . S
H498 C494 0.930 . S
H499 C496 0.929 . S
S500 N501 1.613 1_455 S
S500 N502 1.610 . S
N501 S500 1.613 1_655 S
N501 C504 1.350 . S
N502 S500 1.610 . S
N502 C503 1.351 1_455 S
C503 C497 1.428 . S
C503 N502 1.351 1_655 S
C503 C504 1.434 . S
C504 C495 1.429 . S
C504 N501 1.350 . S
C504 C503 1.434 . S
C505 C506 1.369 1_565 S
C505 C507 1.419 . S
C505 H509 0.930 . S
C506 C505 1.369 1_545 S
C506 C515 1.429 . S
C507 C505 1.419 . S
C507 C508 1.363 . S
C507 H510 0.929 . S
C508 C507 1.363 . S
C508 C514 1.428 1_565 S
H509 C505 0.930 . S
H510 C507 0.929 . S
S511 N512 1.613 . S
S511 N513 1.610 . S
N512 S511 1.613 . S
N512 C515 1.350 . S
N513 S511 1.610 . S
N513 C514 1.351 . S
C514 C508 1.428 1_545 S
C514 N513 1.351 . S
C514 C515 1.434 . S
C515 C506 1.429 . S
C515 N512 1.350 . S
C515 C514 1.434 . S
C516 C517 1.369 . S
C516 C518 1.419 . S
C516 H520 0.930 . S
C517 C516 1.369 . S
C517 C526 1.429 . S
C518 C516 1.419 . S
C518 C519 1.363 . S
C518 H521 0.929 . S
C519 C518 1.363 . S
C519 C525 1.428 . S
H520 C516 0.930 . S
H521 C518 0.929 . S
S522 N523 1.613 . S
S522 N524 1.610 . S
N523 S522 1.613 . S
N523 C526 1.350 . S
N524 S522 1.610 . S
N524 C525 1.351 . S
C525 C519 1.428 . S
C525 N524 1.351 . S
C525 C526 1.434 . S
C526 C517 1.429 . S
C526 N523 1.350 . S
C526 C525 1.434 . S
C527 C528 1.369 1_565 S
C527 C529 1.419 . S
C527 H531 0.930 . S
C528 C527 1.369 1_545 S
C528 C537 1.429 . S
C529 C527 1.419 . S
C529 C530 1.363 . S
C529 H532 0.921 1_655 S
C530 C529 1.363 . S
C530 C536 1.428 1_565 S
H531 C527 0.930 . S
H532 C529 0.921 1_455 S
S533 N534 1.613 . S
S533 N535 1.610 . S
N534 S533 1.613 . S
N534 C537 1.350 . S
N535 S533 1.610 . S
N535 C536 1.351 . S
C536 C530 1.428 1_545 S
C536 N535 1.351 . S
C536 C537 1.434 . S
C537 C528 1.429 . S
C537 N534 1.350 . S
C537 C536 1.434 . S
C538 C539 1.369 . S
C538 C540 1.419 . S
C538 H542 0.930 . S
C539 C538 1.369 . S
C539 C548 1.429 . S
C540 C538 1.419 . S
C540 C541 1.363 . S
C540 H543 0.929 . S
C541 C540 1.363 . S
C541 C547 1.428 . S
H542 C538 0.930 . S
H543 C540 0.929 . S
S544 N545 1.613 . S
S544 N546 1.610 1_455 S
N545 S544 1.613 . S
N545 C548 1.350 . S
N546 S544 1.610 1_655 S
N546 C547 1.351 1_655 S
C547 C541 1.428 . S
C547 N546 1.351 1_455 S
C547 C548 1.434 . S
C548 C539 1.429 . S
C548 N545 1.350 . S
C548 C547 1.434 . S
C549 C550 1.369 . S
C549 C551 1.419 . S
C549 H553 0.930 . S
C550 C549 1.369 . S
C550 C559 1.429 1_565 S
C551 C549 1.419 . S
C551 C552 1.363 1_565 S
C551 H554 0.929 . S
C552 C551 1.363 1_545 S
C552 C558 1.428 . S
H553 C549 0.930 . S
H554 C551 0.929 . S
S555 N556 1.613 . S
S555 N557 1.610 . S
N556 S555 1.613 . S
N556 C559 1.350 . S
N557 S555 1.610 . S
N557 C558 1.351 . S
C558 C552 1.428 . S
C558 N557 1.351 . S
C558 C559 1.434 . S
C559 C550 1.429 1_545 S
C559 N556 1.350 . S
C559 C558 1.434 . S
C560 C561 1.369 . S
C560 C562 1.419 1_455 S
C560 H564 0.930 . S
C561 C560 1.369 . S
C561 C570 1.429 . S
C562 C560 1.419 1_655 S
C562 C563 1.363 . S
C562 H565 0.929 . S
C563 C562 1.363 . S
C563 C569 1.428 . S
H564 C560 0.930 . S
H565 C562 0.929 . S
S566 N567 1.613 . S
S566 N568 1.610 1_455 S
N567 S566 1.613 . S
N567 C570 1.350 . S
N568 S566 1.610 1_655 S
N568 C569 1.351 . S
C569 C563 1.428 . S
C569 N568 1.351 . S
C569 C570 1.434 1_655 S
C570 C561 1.429 . S
C570 N567 1.350 . S
C570 C569 1.434 1_455 S
C571 C572 1.369 . S
C571 C573 1.419 . S
C571 H575 0.930 . S
C572 C571 1.369 . S
C572 C581 1.429 1_565 S
C573 C571 1.419 . S
C573 C574 1.363 1_565 S
C573 H576 0.929 . S
C574 C573 1.363 1_545 S
C574 C580 1.428 . S
H575 C571 0.930 . S
H576 C573 0.929 . S
S577 N578 1.613 . S
S577 N579 1.610 . S
N578 S577 1.613 . S
N578 C581 1.350 . S
N579 S577 1.610 . S
N579 C580 1.351 . S
C580 C574 1.428 . S
C580 N579 1.351 . S
C580 C581 1.434 . S
C581 C572 1.429 1_545 S
C581 N578 1.350 . S
C581 C580 1.434 . S
C582 C583 1.369 . S
C582 C584 1.419 1_554 S
C582 H586 0.930 . S
C583 C582 1.369 . S
C583 C592 1.429 . S
C584 C582 1.419 1_556 S
C584 C585 1.363 . S
C584 H587 0.929 . S
C585 C584 1.363 . S
C585 C591 1.428 . S
H586 C582 0.930 . S
H587 C584 0.929 . S
S588 N589 1.613 1_556 S
S588 N590 1.610 . S
N589 S588 1.613 1_554 S
N589 C592 1.350 . S
N590 S588 1.610 . S
N590 C591 1.351 . S
C591 C585 1.428 . S
C591 N590 1.351 . S
C591 C592 1.434 1_556 S
C592 C583 1.429 . S
C592 N589 1.350 . S
C592 C591 1.434 1_554 S
C593 C594 1.353 1_554 S
C593 C595 1.433 1_565 S
C593 H597 0.932 . S
C594 C593 1.353 1_556 S
C594 C603 1.429 1_455 S
C595 C593 1.433 1_545 S
C595 C596 1.363 1_455 S
C595 H598 0.929 . S
C596 C595 1.363 1_655 S
C596 C602 1.428 1_554 S
H597 C593 0.932 . S
H598 C595 0.929 . S
S599 N600 1.613 . S
S599 N601 1.610 1_565 S
N600 S599 1.613 . S
N600 C603 1.350 . S
N601 S599 1.610 1_545 S
N601 C602 1.351 . S
C602 C596 1.428 1_556 S
C602 N601 1.351 . S
C602 C603 1.434 1_545 S
C603 C594 1.429 1_655 S
C603 N600 1.350 . S
C603 C602 1.434 1_565 S
C604 C605 1.369 . S
C604 C606 1.419 . S
C604 H608 0.930 . S
C605 C604 1.369 . S
C605 C614 1.429 . S
C606 C604 1.419 . S
C606 C607 1.363 . S
C606 H609 0.929 . S
C607 C606 1.363 . S
C607 C613 1.428 . S
H608 C604 0.930 . S
H609 C606 0.929 . S
S610 N611 1.613 . S
S610 N612 1.610 . S
N611 S610 1.613 . S
N611 C614 1.350 . S
N612 S610 1.610 . S
N612 C613 1.351 . S
C613 C607 1.428 . S
C613 N612 1.351 . S
C613 C614 1.434 . S
C614 C605 1.429 . S
C614 N611 1.350 . S
C614 C613 1.434 . S
C615 C616 1.369 . S
C615 C617 1.419 . S
C615 H619 0.930 . S
C616 C615 1.369 . S
C616 C625 1.429 . S
C617 C615 1.419 . S
C617 C618 1.363 . S
C617 H620 0.929 . S
C618 C617 1.363 . S
C618 C624 1.428 . S
H619 C615 0.930 . S
H620 C617 0.929 . S
S621 N622 1.613 . S
S621 N623 1.610 . S
N622 S621 1.613 . S
N622 C625 1.350 . S
N623 S621 1.610 . S
N623 C624 1.351 . S
C624 C618 1.428 . S
C624 N623 1.351 . S
C624 C625 1.434 . S
C625 C616 1.429 . S
C625 N622 1.350 . S
C625 C624 1.434 . S
C626 C627 1.369 . S
C626 C628 1.419 . S
C626 H630 0.930 . S
C627 C626 1.369 . S
C627 C636 1.429 . S
C628 C626 1.419 . S
C628 C629 1.363 . S
C628 H631 0.929 . S
C629 C628 1.363 . S
C629 C635 1.428 . S
H630 C626 0.930 . S
H631 C628 0.929 . S
S632 N633 1.613 . S
S632 N634 1.610 . S
N633 S632 1.613 . S
N633 C636 1.350 . S
N634 S632 1.610 . S
N634 C635 1.351 . S
C635 C629 1.428 . S
C635 N634 1.351 . S
C635 C636 1.434 . S
C636 C627 1.429 . S
C636 N633 1.350 . S
C636 C635 1.434 . S
C637 C638 1.369 . S
C637 C639 1.419 . S
C637 H641 0.930 . S
C638 C637 1.369 . S
C638 C647 1.429 . S
C639 C637 1.419 . S
C639 C640 1.363 . S
C639 H642 0.929 . S
C640 C639 1.363 . S
C640 C646 1.428 . S
H641 C637 0.930 . S
H642 C639 0.929 . S
S643 N644 1.613 . S
S643 N645 1.610 . S
N644 S643 1.613 . S
N644 C647 1.350 . S
N645 S643 1.610 . S
N645 C646 1.351 . S
C646 C640 1.428 . S
C646 N645 1.351 . S
C646 C647 1.434 . S
C647 C638 1.429 . S
C647 N644 1.350 . S
C647 C646 1.434 . S
C473 C3 1.564 . S
C475 C170 1.556 . S
C484 C229 1.559 1_455 S
C486 C62 1.565 . S
C495 C121 1.566 . S
C497 C52 1.557 1_655 S
C506 C180 1.563 . S
C508 C111 1.558 . S
C517 C406 1.556 . S
C519 C239 1.563 . S
C528 C298 1.565 . S
C530 C465 1.558 1_655 S
C539 C357 1.565 . S
C541 C288 1.554 1_455 S
C550 C416 1.563 . S
C552 C347 1.557 . S
C561 C33 1.597 . S
C563 C269 1.603 . S
C572 C92 1.599 . S
C574 C328 1.602 . S
C583 C151 1.599 . S
C585 C387 1.601 . S
C594 C446 1.599 . S
C596 C210 1.602 . S
C605 C5 1.644 . S
C607 C64 1.642 . S
C616 C182 1.642 . S
C618 C123 1.643 . S
C627 C300 1.644 . S
C629 C241 1.645 . S
C638 C359 1.645 . S
C640 C418 1.645 . S
