# Generated by pormake.
# Topology vdb, (5)-cn, num edge types: 1
# Building blocks:
#     Node 0, Type 0, BuildingBlock: BEQFEK_clean_sbu_0, # of connection points: 5
#     Node 1, Type 0, BuildingBlock: BEQFEK_clean_sbu_0, # of connection points: 5
#     Node 2, Type 0, BuildingBlock: BEQFEK_clean_sbu_0, # of connection points: 5
#     Node 3, Type 0, BuildingBlock: BEQFEK_clean_sbu_0, # of connection points: 5
#     Node 4, Type 0, BuildingBlock: BEQFEK_clean_sbu_0, # of connection points: 5
#     Node 5, Type 0, BuildingBlock: BEQFEK_clean_sbu_0, # of connection points: 5
#     Node 6, Type 0, BuildingBlock: BEQFEK_clean_sbu_0, # of connection points: 5
#     Node 7, Type 0, BuildingBlock: BEQFEK_clean_sbu_0, # of connection points: 5
#     Node 8, Type 0, BuildingBlock: BEQFEK_clean_sbu_0, # of connection points: 5
#     Node 9, Type 0, BuildingBlock: BEQFEK_clean_sbu_0, # of connection points: 5
#     Node 10, Type 0, BuildingBlock: BEQFEK_clean_sbu_0, # of connection points: 5
#     Node 11, Type 0, BuildingBlock: BEQFEK_clean_sbu_0, # of connection points: 5
#     Node 12, Type 0, BuildingBlock: BEQFEK_clean_sbu_0, # of connection points: 5
#     Node 13, Type 0, BuildingBlock: BEQFEK_clean_sbu_0, # of connection points: 5
#     Node 14, Type 0, BuildingBlock: BEQFEK_clean_sbu_0, # of connection points: 5
#     Node 15, Type 0, BuildingBlock: BEQFEK_clean_sbu_0, # of connection points: 5
#     Node 16, Type 0, BuildingBlock: BEQFEK_clean_sbu_0, # of connection points: 5
#     Node 17, Type 0, BuildingBlock: BEQFEK_clean_sbu_0, # of connection points: 5
#     Node 18, Type 0, BuildingBlock: BEQFEK_clean_sbu_0, # of connection points: 5
#     Node 19, Type 0, BuildingBlock: BEQFEK_clean_sbu_0, # of connection points: 5
#     Node 20, Type 0, BuildingBlock: BEQFEK_clean_sbu_0, # of connection points: 5
#     Node 21, Type 0, BuildingBlock: BEQFEK_clean_sbu_0, # of connection points: 5
#     Node 22, Type 0, BuildingBlock: BEQFEK_clean_sbu_0, # of connection points: 5
#     Node 23, Type 0, BuildingBlock: BEQFEK_clean_sbu_0, # of connection points: 5
#     Node 24, Type 0, BuildingBlock: BEQFEK_clean_sbu_0, # of connection points: 5
#     Node 25, Type 0, BuildingBlock: BEQFEK_clean_sbu_0, # of connection points: 5
#     Node 26, Type 0, BuildingBlock: BEQFEK_clean_sbu_0, # of connection points: 5
#     Node 27, Type 0, BuildingBlock: BEQFEK_clean_sbu_0, # of connection points: 5
#     Node 28, Type 0, BuildingBlock: BEQFEK_clean_sbu_0, # of connection points: 5
#     Node 29, Type 0, BuildingBlock: BEQFEK_clean_sbu_0, # of connection points: 5
#     Node 30, Type 0, BuildingBlock: BEQFEK_clean_sbu_0, # of connection points: 5
#     Node 31, Type 0, BuildingBlock: BEQFEK_clean_sbu_0, # of connection points: 5
#     Edge 32, Type (0, 0), BuildingBlock: KIFKEQ_clean_linker_1, # of connection points: 2
#     Edge 33, Type (0, 0), BuildingBlock: KIFKEQ_clean_linker_1, # of connection points: 2
#     Edge 34, Type (0, 0), BuildingBlock: KIFKEQ_clean_linker_1, # of connection points: 2
#     Edge 35, Type (0, 0), BuildingBlock: KIFKEQ_clean_linker_1, # of connection points: 2
#     Edge 36, Type (0, 0), BuildingBlock: KIFKEQ_clean_linker_1, # of connection points: 2
#     Edge 37, Type (0, 0), BuildingBlock: KIFKEQ_clean_linker_1, # of connection points: 2
#     Edge 38, Type (0, 0), BuildingBlock: KIFKEQ_clean_linker_1, # of connection points: 2
#     Edge 39, Type (0, 0), BuildingBlock: KIFKEQ_clean_linker_1, # of connection points: 2
#     Edge 40, Type (0, 0), BuildingBlock: KIFKEQ_clean_linker_1, # of connection points: 2
#     Edge 41, Type (0, 0), BuildingBlock: KIFKEQ_clean_linker_1, # of connection points: 2
#     Edge 42, Type (0, 0), BuildingBlock: KIFKEQ_clean_linker_1, # of connection points: 2
#     Edge 43, Type (0, 0), BuildingBlock: KIFKEQ_clean_linker_1, # of connection points: 2
#     Edge 44, Type (0, 0), BuildingBlock: KIFKEQ_clean_linker_1, # of connection points: 2
#     Edge 45, Type (0, 0), BuildingBlock: KIFKEQ_clean_linker_1, # of connection points: 2
#     Edge 46, Type (0, 0), BuildingBlock: KIFKEQ_clean_linker_1, # of connection points: 2
#     Edge 47, Type (0, 0), BuildingBlock: KIFKEQ_clean_linker_1, # of connection points: 2
#     Edge 48, Type (0, 0), BuildingBlock: KIFKEQ_clean_linker_1, # of connection points: 2
#     Edge 49, Type (0, 0), BuildingBlock: KIFKEQ_clean_linker_1, # of connection points: 2
#     Edge 50, Type (0, 0), BuildingBlock: KIFKEQ_clean_linker_1, # of connection points: 2
#     Edge 51, Type (0, 0), BuildingBlock: KIFKEQ_clean_linker_1, # of connection points: 2
#     Edge 52, Type (0, 0), BuildingBlock: KIFKEQ_clean_linker_1, # of connection points: 2
#     Edge 53, Type (0, 0), BuildingBlock: KIFKEQ_clean_linker_1, # of connection points: 2
#     Edge 54, Type (0, 0), BuildingBlock: KIFKEQ_clean_linker_1, # of connection points: 2
#     Edge 55, Type (0, 0), BuildingBlock: KIFKEQ_clean_linker_1, # of connection points: 2
#     Edge 56, Type (0, 0), BuildingBlock: KIFKEQ_clean_linker_1, # of connection points: 2
#     Edge 57, Type (0, 0), BuildingBlock: KIFKEQ_clean_linker_1, # of connection points: 2
#     Edge 58, Type (0, 0), BuildingBlock: KIFKEQ_clean_linker_1, # of connection points: 2
#     Edge 59, Type (0, 0), BuildingBlock: KIFKEQ_clean_linker_1, # of connection points: 2
#     Edge 60, Type (0, 0), BuildingBlock: KIFKEQ_clean_linker_1, # of connection points: 2
#     Edge 61, Type (0, 0), BuildingBlock: KIFKEQ_clean_linker_1, # of connection points: 2
#     Edge 62, Type (0, 0), BuildingBlock: KIFKEQ_clean_linker_1, # of connection points: 2
#     Edge 63, Type (0, 0), BuildingBlock: KIFKEQ_clean_linker_1, # of connection points: 2
#     Edge 64, Type (0, 0), BuildingBlock: KIFKEQ_clean_linker_1, # of connection points: 2
#     Edge 65, Type (0, 0), BuildingBlock: KIFKEQ_clean_linker_1, # of connection points: 2
#     Edge 66, Type (0, 0), BuildingBlock: KIFKEQ_clean_linker_1, # of connection points: 2
#     Edge 67, Type (0, 0), BuildingBlock: KIFKEQ_clean_linker_1, # of connection points: 2
#     Edge 68, Type (0, 0), BuildingBlock: KIFKEQ_clean_linker_1, # of connection points: 2
#     Edge 69, Type (0, 0), BuildingBlock: KIFKEQ_clean_linker_1, # of connection points: 2
#     Edge 70, Type (0, 0), BuildingBlock: KIFKEQ_clean_linker_1, # of connection points: 2
#     Edge 71, Type (0, 0), BuildingBlock: KIFKEQ_clean_linker_1, # of connection points: 2
#     Edge 72, Type (0, 0), BuildingBlock: KIFKEQ_clean_linker_1, # of connection points: 2
#     Edge 73, Type (0, 0), BuildingBlock: KIFKEQ_clean_linker_1, # of connection points: 2
#     Edge 74, Type (0, 0), BuildingBlock: KIFKEQ_clean_linker_1, # of connection points: 2
#     Edge 75, Type (0, 0), BuildingBlock: KIFKEQ_clean_linker_1, # of connection points: 2
#     Edge 76, Type (0, 0), BuildingBlock: KIFKEQ_clean_linker_1, # of connection points: 2
#     Edge 77, Type (0, 0), BuildingBlock: KIFKEQ_clean_linker_1, # of connection points: 2
#     Edge 78, Type (0, 0), BuildingBlock: KIFKEQ_clean_linker_1, # of connection points: 2
#     Edge 79, Type (0, 0), BuildingBlock: KIFKEQ_clean_linker_1, # of connection points: 2
#     Edge 80, Type (0, 0), BuildingBlock: KIFKEQ_clean_linker_1, # of connection points: 2
#     Edge 81, Type (0, 0), BuildingBlock: KIFKEQ_clean_linker_1, # of connection points: 2
#     Edge 82, Type (0, 0), BuildingBlock: KIFKEQ_clean_linker_1, # of connection points: 2
#     Edge 83, Type (0, 0), BuildingBlock: KIFKEQ_clean_linker_1, # of connection points: 2
#     Edge 84, Type (0, 0), BuildingBlock: KIFKEQ_clean_linker_1, # of connection points: 2
#     Edge 85, Type (0, 0), BuildingBlock: KIFKEQ_clean_linker_1, # of connection points: 2
#     Edge 86, Type (0, 0), BuildingBlock: KIFKEQ_clean_linker_1, # of connection points: 2
#     Edge 87, Type (0, 0), BuildingBlock: KIFKEQ_clean_linker_1, # of connection points: 2
#     Edge 88, Type (0, 0), BuildingBlock: KIFKEQ_clean_linker_1, # of connection points: 2
#     Edge 89, Type (0, 0), BuildingBlock: KIFKEQ_clean_linker_1, # of connection points: 2
#     Edge 90, Type (0, 0), BuildingBlock: KIFKEQ_clean_linker_1, # of connection points: 2
#     Edge 91, Type (0, 0), BuildingBlock: KIFKEQ_clean_linker_1, # of connection points: 2
#     Edge 92, Type (0, 0), BuildingBlock: KIFKEQ_clean_linker_1, # of connection points: 2
#     Edge 93, Type (0, 0), BuildingBlock: KIFKEQ_clean_linker_1, # of connection points: 2
#     Edge 94, Type (0, 0), BuildingBlock: KIFKEQ_clean_linker_1, # of connection points: 2
#     Edge 95, Type (0, 0), BuildingBlock: KIFKEQ_clean_linker_1, # of connection points: 2
#     Edge 96, Type (0, 0), BuildingBlock: KIFKEQ_clean_linker_1, # of connection points: 2
#     Edge 97, Type (0, 0), BuildingBlock: KIFKEQ_clean_linker_1, # of connection points: 2
#     Edge 98, Type (0, 0), BuildingBlock: KIFKEQ_clean_linker_1, # of connection points: 2
#     Edge 99, Type (0, 0), BuildingBlock: KIFKEQ_clean_linker_1, # of connection points: 2
#     Edge 100, Type (0, 0), BuildingBlock: KIFKEQ_clean_linker_1, # of connection points: 2
#     Edge 101, Type (0, 0), BuildingBlock: KIFKEQ_clean_linker_1, # of connection points: 2
#     Edge 102, Type (0, 0), BuildingBlock: KIFKEQ_clean_linker_1, # of connection points: 2
#     Edge 103, Type (0, 0), BuildingBlock: KIFKEQ_clean_linker_1, # of connection points: 2
#     Edge 104, Type (0, 0), BuildingBlock: KIFKEQ_clean_linker_1, # of connection points: 2
#     Edge 105, Type (0, 0), BuildingBlock: KIFKEQ_clean_linker_1, # of connection points: 2
#     Edge 106, Type (0, 0), BuildingBlock: KIFKEQ_clean_linker_1, # of connection points: 2
#     Edge 107, Type (0, 0), BuildingBlock: KIFKEQ_clean_linker_1, # of connection points: 2
#     Edge 108, Type (0, 0), BuildingBlock: KIFKEQ_clean_linker_1, # of connection points: 2
#     Edge 109, Type (0, 0), BuildingBlock: KIFKEQ_clean_linker_1, # of connection points: 2
#     Edge 110, Type (0, 0), BuildingBlock: KIFKEQ_clean_linker_1, # of connection points: 2
#     Edge 111, Type (0, 0), BuildingBlock: KIFKEQ_clean_linker_1, # of connection points: 2
# Relax obj value: 0.438
# Max RMSD: 0.209
# Mean RMSD: 0.209
data_MOF--net-vdb--node1-BEQFEK_clean_sbu_0--edge1-KIFKEQ_clean_linker_1
_symmetry_space_group_name_H-M    P1
_symmetry_Int_Tables_number       1
_symmetry_cell_setting            triclinic
loop_
_symmetry_equiv_pos_as_xyz
'x, y, z'
_cell_length_a     25.729136
_cell_length_b     50.79537
_cell_length_c     117.65746
_cell_angle_alpha  90.012006
_cell_angle_beta   89.967908
_cell_angle_gamma 89.985971
loop_
_atom_site_label
_atom_site_type_symbol
_atom_site_fract_x
_atom_site_fract_y
_atom_site_fract_z
_atom_type_partial_charge
Co0 Co 0.32363 0.03485 0.0876 0.0
Co1 Co 0.38824 0.0566 0.06731 0.0
C2 C 0.27564 0.07005 0.06981 0.0
O3 O 0.27321 0.05593 0.07873 0.0
O4 O 0.31813 0.07254 0.06433 0.0
C5 C 0.24288 0.00382 0.09634 0.0
O6 O 0.22864 1.0032 0.08562 0.0
C7 C 0.41955 0.05873 0.04343 0.0
C8 C 0.50498 0.05792 0.04493 0.0
C9 C 0.46491 0.05476 0.03715 0.0
N10 N 0.43246 0.06231 0.0544 0.0
N11 N 0.48365 0.06277 0.05517 0.0
C12 C 0.36458 0.05902 0.03924 0.0
H13 H 0.3451 0.04025 0.04149 0.0
H14 H 0.36286 0.06217 0.02992 0.0
H15 H 0.34294 0.07518 0.04345 0.0
C16 C 0.36052 0.9838 0.079 0.0
N17 N 0.35845 0.01028 0.07854 0.0
N18 N 0.38343 0.01867 0.06947 0.0
C19 C 0.4005 0.99723 0.06366 0.0
C20 C 0.38624 0.97473 0.06952 0.0
C21 C 0.33876 0.9671 0.08834 0.0
H22 H 0.34159 0.97747 0.0966 0.0
H23 H 0.29756 0.96247 0.08646 0.0
H24 H 0.36001 0.94815 0.08899 0.0
O25 O 0.37315 0.05776 0.09537 0.0
O26 O 0.41875 0.07526 0.08118 0.0
H27 H 0.46493 0.01028 0.05372 0.0
H28 H 0.44307 0.97761 0.05026 0.0
C29 C 0.43021 0.99766 0.05276 0.0
H30 H 0.40517 0.00556 0.04593 0.0
H31 H 0.50397 0.06408 0.06283 0.0
O32 O 0.28321 0.01661 0.09916 0.0
C33 C 0.40852 0.0731 0.09179 0.0
Co34 Co 0.92159 0.22316 0.08742 0.0
Co35 Co 0.8522 0.20188 0.06787 0.0
C36 C 0.96333 0.18546 0.06979 0.0
O37 O 0.96793 0.19985 0.07858 0.0
O38 O 0.92022 0.18386 0.06448 0.0
C39 C 0.00937 0.25021 0.09509 0.0
O40 O 0.02572 0.24573 0.08469 0.0
C41 C 0.816 0.19887 0.04436 0.0
C42 C 0.73131 0.20299 0.04668 0.0
C43 C 0.77007 0.2041 0.03847 0.0
N44 N 0.80488 0.19656 0.0555 0.0
N45 N 0.75397 0.19806 0.05676 0.0
C46 C 0.86987 0.1962 0.03967 0.0
H47 H 0.89274 0.21416 0.0416 0.0
H48 H 0.86925 0.19268 0.03036 0.0
H49 H 0.88966 0.17935 0.0438 0.0
C50 C 0.89332 0.27438 0.07789 0.0
N51 N 0.88937 0.24796 0.07812 0.0
N52 N 0.86147 0.23984 0.06943 0.0
C53 C 0.84758 0.26139 0.06328 0.0
C54 C 0.86817 0.2837 0.06839 0.0
C55 C 0.91962 0.29092 0.08672 0.0
H56 H 0.91368 0.28237 0.09528 0.0
H57 H 0.96174 0.29207 0.08481 0.0
H58 H 0.90395 0.31129 0.08669 0.0
O59 O 0.87071 0.20246 0.09592 0.0
O60 O 0.82255 0.1848 0.08221 0.0
H61 H 0.78083 0.2499 0.05375 0.0
H62 H 0.8073 0.28126 0.04962 0.0
C63 C 0.81724 0.26107 0.05248 0.0
H64 H 0.84067 0.25158 0.04575 0.0
H65 H 0.73513 0.1981 0.06462 0.0
O66 O 0.96542 0.24159 0.09825 0.0
C67 C 0.83396 0.18751 0.09273 0.0
Co68 Co 0.31869 0.22078 0.16505 0.0
Co69 Co 0.38966 0.19881 0.1842 0.0
C70 C 0.27808 0.18266 0.18253 0.0
O71 O 0.27286 0.19733 0.17386 0.0
O72 O 0.32164 0.18076 0.18764 0.0
C73 C 0.23034 0.24815 0.1579 0.0
O74 O 0.2147 0.24318 0.16831 0.0
C75 C 0.42604 0.19541 0.20764 0.0
C76 C 0.51093 0.19829 0.20536 0.0
C77 C 0.47216 0.19991 0.21355 0.0
N78 N 0.4371 0.19297 0.19651 0.0
N79 N 0.48808 0.19375 0.19526 0.0
C80 C 0.37197 0.19369 0.21231 0.0
H81 H 0.3513 0.177 0.20826 0.0
H82 H 0.35022 0.21193 0.21025 0.0
H83 H 0.37221 0.19044 0.22163 0.0
C84 C 0.34826 0.27164 0.17472 0.0
N85 N 0.35157 0.24521 0.17441 0.0
N86 N 0.38064 0.23681 0.18286 0.0
C87 C 0.39618 0.2582 0.18892 0.0
C88 C 0.37526 0.28068 0.18402 0.0
C89 C 0.32142 0.28846 0.16607 0.0
H90 H 0.32668 0.28008 0.15745 0.0
H91 H 0.27945 0.28961 0.16813 0.0
H92 H 0.3372 0.3088 0.16611 0.0
O93 O 0.36929 0.20042 0.15628 0.0
O94 O 0.41885 0.18241 0.16968 0.0
H95 H 0.46437 0.2458 0.19774 0.0
H96 H 0.44086 0.27771 0.202 0.0
C97 C 0.42904 0.25761 0.19936 0.0
H98 H 0.4066 0.24868 0.20638 0.0
H99 H 0.50697 0.19353 0.18741 0.0
O100 O 0.27407 0.23967 0.15451 0.0
C101 C 0.40662 0.18553 0.15922 0.0
Co102 Co 0.91725 0.03392 0.16489 0.0
Co103 Co 0.85012 0.05711 0.18442 0.0
C104 C 0.96399 0.06924 0.18264 0.0
O105 O 0.96722 0.05484 0.17384 0.0
O106 O 0.92077 0.07232 0.18779 0.0
C107 C -0.00052 1.00304 0.15659 0.0
O108 O 0.01413 0.00361 0.16729 0.0
C109 C 0.81744 0.05808 0.20804 0.0
C110 C 0.73296 0.06466 0.20654 0.0
C111 C 0.77146 0.0577 0.21423 0.0
N112 N 0.80632 0.06428 0.1972 0.0
N113 N 0.75599 0.06912 0.19644 0.0
C114 C 0.86967 0.04847 0.21186 0.0
H115 H 0.89158 0.04005 0.2046 0.0
H116 H 0.86611 0.03354 0.21869 0.0
H117 H 0.89205 0.0654 0.21526 0.0
C118 C 0.87924 0.98347 0.17391 0.0
N119 N 0.88094 0.00998 0.174 0.0
N120 N 0.85258 0.01903 0.18247 0.0
C121 C 0.83231 0.99801 0.18808 0.0
C122 C 0.84934 0.9751 0.1829 0.0
C123 C 0.9051 0.96606 0.16534 0.0
H124 H 0.90294 0.97503 0.15677 0.0
H125 H 0.94631 0.96314 0.16776 0.0
H126 H 0.88635 0.94639 0.16504 0.0
O127 O 0.86907 0.057 0.15666 0.0
O128 O 0.82204 0.07566 0.17034 0.0
H129 H 0.76706 0.01514 0.19663 0.0
H130 H 0.7743 0.98025 0.19885 0.0
C131 C 0.79559 0.99914 0.19791 0.0
H132 H 0.81767 1.00253 0.20584 0.0
H133 H 0.73669 0.07304 0.18883 0.0
O134 O 0.95834 0.01499 0.15363 0.0
C135 C 0.83375 0.07288 0.15984 0.0
Co136 Co 0.67955 0.97386 0.91458 0.0
Co137 Co 0.60253 0.95226 0.93275 0.0
C138 C 0.71695 0.93698 0.93217 0.0
O139 O 0.72545 0.95205 0.92379 0.0
O140 O 0.67142 0.93464 0.93634 0.0
C141 C 0.76791 1.00047 0.9068 0.0
O142 O 0.78516 0.99508 0.91704 0.0
C143 C 0.5738 0.95621 0.95646 0.0
C144 C 0.49046 0.94621 0.95673 0.0
C145 C 0.53019 0.95627 0.96344 0.0
N146 N 0.56012 0.94752 0.94607 0.0
N147 N 0.51044 0.94095 0.94636 0.0
C148 C 0.62769 0.965 0.95946 0.0
H149 H 0.63601 0.98418 0.95534 0.0
H150 H 0.63279 0.96683 0.96879 0.0
H151 H 0.65636 0.95056 0.95624 0.0
C152 C 0.64741 0.02488 0.92389 0.0
N153 N 0.64446 0.99844 0.92345 0.0
N154 N 0.60896 0.99008 0.93063 0.0
C155 C 0.58682 0.01149 0.93556 0.0
C156 C 0.61188 0.03395 0.93171 0.0
C157 C 0.68232 0.04161 0.91671 0.0
H158 H 0.67942 0.03548 0.9077 0.0
H159 H 0.72297 0.03933 0.91965 0.0
H160 H 0.67173 0.06276 0.91727 0.0
O161 O 0.6305 0.95153 0.90606 0.0
O162 O 0.57414 0.93462 0.91844 0.0
H163 H 0.51609 0.99364 0.94148 0.0
H164 H 0.5169 0.02917 0.94202 0.0
C165 C 0.54054 0.0111 0.94321 0.0
H166 H 0.55377 0.01088 0.95212 0.0
H167 H 0.48937 0.93456 0.9393 0.0
O168 O 0.72325 0.99255 0.90377 0.0
C169 C 0.59146 0.93696 0.90827 0.0
Co170 Co 0.06681 0.78372 0.91511 0.0
Co171 Co 0.13738 0.80612 0.93432 0.0
C172 C 0.0225 0.81954 0.93245 0.0
O173 O 0.01717 0.80486 0.9238 0.0
O174 O 0.06662 0.82218 0.93725 0.0
C175 C 0.98234 0.75591 0.90604 0.0
O176 O 0.96173 0.76076 0.91604 0.0
C177 C 0.16143 0.80224 0.95829 0.0
C178 C 0.24417 0.81319 0.9593 0.0
C179 C 0.20378 0.80247 0.96562 0.0
N180 N 0.17659 0.81133 0.94806 0.0
N181 N 0.22584 0.81849 0.94879 0.0
C182 C 0.10743 0.79278 0.96078 0.0
H183 H 0.07874 0.80685 0.95729 0.0
H184 H 0.1009 0.7735 0.9566 0.0
H185 H 0.10056 0.79092 0.97005 0.0
C186 C 0.09947 0.73303 0.92477 0.0
N187 N 0.10094 0.75951 0.92438 0.0
N188 N 0.13415 0.76834 0.93197 0.0
C189 C 0.15642 0.74725 0.93711 0.0
C190 C 0.13382 0.72446 0.93294 0.0
C191 C 0.0666 0.71584 0.91735 0.0
H192 H 0.07133 0.7217 0.90834 0.0
H193 H 0.02529 0.718 0.91984 0.0
H194 H 0.0775 0.69478 0.91816 0.0
O195 O 0.11684 0.80678 0.90716 0.0
O196 O 0.16748 0.82471 0.92045 0.0
H197 H 0.22479 0.76599 0.94377 0.0
H198 H 0.22551 0.73047 0.94437 0.0
C199 C 0.20077 0.74826 0.94527 0.0
H200 H 0.18545 0.7484 0.95403 0.0
H201 H 0.24788 0.82526 0.94195 0.0
O202 O 0.02735 0.76454 0.9037 0.0
C203 C 0.15377 0.82209 0.91003 0.0
Co204 Co 0.68692 0.78424 0.83352 0.0
Co205 Co 0.60728 0.80687 0.81632 0.0
C206 C 0.72162 0.82193 0.8159 0.0
O207 O 0.7311 0.80652 0.82412 0.0
O208 O 0.67553 0.82459 0.81205 0.0
C209 C 0.77777 0.75814 0.84089 0.0
O210 O 0.79609 0.76528 0.83093 0.0
C211 C 0.57049 0.80436 0.79325 0.0
C212 C 0.48762 0.81503 0.79465 0.0
C213 C 0.52429 0.80503 0.78711 0.0
N214 N 0.56106 0.8129 0.80387 0.0
N215 N 0.51176 0.81993 0.80459 0.0
C216 C 0.6211 0.79214 0.78976 0.0
H217 H 0.64589 0.7881 0.79725 0.0
H218 H 0.61453 0.77356 0.78501 0.0
H219 H 0.6422 0.80599 0.78411 0.0
C220 C 0.65162 0.73377 0.82438 0.0
N221 N 0.64999 0.76022 0.8247 0.0
N222 N 0.6136 0.76889 0.81782 0.0
C223 C 0.58977 0.74766 0.8131 0.0
C224 C 0.61384 0.72495 0.81701 0.0
C225 C 0.68932 0.71709 0.83088 0.0
H226 H 0.68555 0.72126 0.84009 0.0
H227 H 0.72932 0.7219 0.8281 0.0
H228 H 0.68313 0.69576 0.82946 0.0
O229 O 0.63969 0.80602 0.84284 0.0
O230 O 0.58147 0.82339 0.83106 0.0
H231 H 0.51851 0.73034 0.80713 0.0
H232 H 0.55326 0.74916 0.79679 0.0
C233 C 0.54199 0.74844 0.80587 0.0
H234 H 0.518 0.76585 0.80801 0.0
H235 H 0.49373 0.82613 0.81208 0.0
O236 O 0.73211 0.76476 0.8438 0.0
C237 C 0.60018 0.82058 0.84108 0.0
Co238 Co 0.07079 0.9727 0.83561 0.0
Co239 Co 0.14322 0.95045 0.81683 0.0
C240 C 0.02856 0.93761 0.81752 0.0
O241 O 0.02291 0.95178 0.82631 0.0
O242 O 0.07305 0.93495 0.81288 0.0
C243 C 0.98385 1.00051 0.84341 0.0
O244 O 0.96668 0.99574 0.8331 0.0
C245 C 0.17346 0.95344 0.79333 0.0
C246 C 0.25581 0.94133 0.79333 0.0
C247 C 0.21738 0.95204 0.78643 0.0
N248 N 0.18583 0.94455 0.80375 0.0
N249 N 0.23478 0.93672 0.80365 0.0
C250 C 0.12258 0.96653 0.79072 0.0
H251 H 0.10145 0.97157 0.79863 0.0
H252 H 0.12847 0.9847 0.78566 0.0
H253 H 0.09808 0.9528 0.78571 0.0
C254 C 0.1088 0.02347 0.82716 0.0
N255 N 0.10791 0.99699 0.82689 0.0
N256 N 0.1405 0.98835 0.81912 0.0
C257 C 0.16376 0.00959 0.81427 0.0
C258 C 0.14375 0.03232 0.81913 0.0
C259 C 0.07552 0.04019 0.83473 0.0
H260 H 0.07922 0.03344 0.84364 0.0
H261 H 0.0345 0.03842 0.83199 0.0
H262 H 0.08606 0.0613 0.83434 0.0
O263 O 0.11838 0.94955 0.84411 0.0
O264 O 0.16985 0.93152 0.831 0.0
H265 H 0.23207 0.02648 0.80663 0.0
H266 H 0.1911 0.00858 0.79711 0.0
C267 C 0.20722 0.00871 0.80583 0.0
H268 H 0.23141 0.99096 0.80717 0.0
H269 H 0.25478 0.93 0.81079 0.0
O270 O 0.02797 0.99186 0.84646 0.0
C271 C 0.15515 0.93404 0.84136 0.0
Co272 Co 0.32351 0.53627 0.58889 0.0
Co273 Co 0.39026 0.55613 0.56858 0.0
C274 C 0.27662 0.57059 0.57116 0.0
O275 O 0.27264 0.55658 0.58005 0.0
O276 O 0.31983 0.5726 0.56592 0.0
C277 C 0.2422 0.50797 0.59879 0.0
O278 O 0.22475 0.50806 0.58829 0.0
C279 C 0.41255 0.55147 0.54448 0.0
C280 C 0.49551 0.56198 0.54325 0.0
C281 C 0.45452 0.55159 0.53703 0.0
N282 N 0.4285 0.56037 0.55467 0.0
N283 N 0.47788 0.56724 0.55381 0.0
C284 C 0.35806 0.54263 0.54211 0.0
H285 H 0.33027 0.5574 0.54543 0.0
H286 H 0.3503 0.52381 0.54657 0.0
H287 H 0.35103 0.54017 0.53287 0.0
C288 C 0.35823 0.48419 0.58082 0.0
N289 N 0.3571 0.51068 0.58009 0.0
N290 N 0.38645 0.51849 0.57157 0.0
C291 C 0.4074 0.49676 0.56665 0.0
C292 C 0.38937 0.47451 0.57222 0.0
C293 C 0.32912 0.46825 0.58945 0.0
H294 H 0.33312 0.4773 0.59796 0.0
H295 H 0.28756 0.46747 0.58703 0.0
H296 H 0.34321 0.44772 0.58997 0.0
O297 O 0.37455 0.55985 0.59597 0.0
O298 O 0.42327 0.57572 0.58189 0.0
H299 H 0.47326 0.51415 0.55832 0.0
H300 H 0.47166 0.47862 0.55792 0.0
C301 C 0.44764 0.49676 0.5575 0.0
H302 H 0.42813 0.49699 0.54915 0.0
H303 H 0.50039 0.57391 0.5606 0.0
O304 O 0.28469 0.51945 0.60107 0.0
C305 C 0.41142 0.57439 0.59245 0.0
Co306 Co 0.91417 0.72152 0.58655 0.0
Co307 Co 0.84938 0.69777 0.56677 0.0
C308 C 0.96393 0.68592 0.56959 0.0
O309 O 0.96673 0.70099 0.57819 0.0
O310 O 0.92103 0.68259 0.56437 0.0
C311 C 0.99309 0.75291 0.59579 0.0
O312 O 0.01037 0.75235 0.58528 0.0
C313 C 0.82679 0.69975 0.54277 0.0
C314 C 0.74513 0.68676 0.54174 0.0
C315 C 0.78484 0.69791 0.53532 0.0
N316 N 0.81189 0.69087 0.55304 0.0
N317 N 0.76347 0.68244 0.55231 0.0
C318 C 0.8779 0.71318 0.54078 0.0
H319 H 0.89698 0.71816 0.54894 0.0
H320 H 0.87285 0.73141 0.53571 0.0
H321 H 0.90385 0.6997 0.536 0.0
C322 C 0.87618 0.77174 0.57711 0.0
N323 N 0.8788 0.74524 0.57713 0.0
N324 N 0.84987 0.73579 0.56886 0.0
C325 C 0.82759 0.75645 0.56337 0.0
C326 C 0.84461 0.77963 0.56831 0.0
C327 C 0.90209 0.78959 0.58551 0.0
H328 H 0.89888 0.7813 0.59419 0.0
H329 H 0.9436 0.79184 0.5832 0.0
H330 H 0.88418 0.80946 0.58549 0.0
O331 O 0.86501 0.69776 0.59423 0.0
O332 O 0.81832 0.67901 0.58049 0.0
H333 H 0.76371 0.73668 0.55527 0.0
H334 H 0.76138 0.77211 0.5545 0.0
C335 C 0.78741 0.75468 0.55423 0.0
H336 H 0.80658 0.75463 0.5458 0.0
H337 H 0.74177 0.67561 0.5592 0.0
O338 O 0.95164 0.7407 0.59829 0.0
C339 C 0.82975 0.68187 0.59102 0.0
Co340 Co 0.3161 0.72313 0.66459 0.0
Co341 Co 0.38386 0.70169 0.68443 0.0
C342 C 0.27172 0.68645 0.68218 0.0
O343 O 0.26785 0.70081 0.67338 0.0
O344 O 0.31474 0.68442 0.68749 0.0
C345 C 0.23185 0.75236 0.65639 0.0
O346 O 0.21744 0.75143 0.6671 0.0
C347 C 0.41501 0.69899 0.70828 0.0
C348 C 0.5004 0.70101 0.70696 0.0
C349 C 0.45984 0.70318 0.71469 0.0
N350 N 0.42854 0.69613 0.6973 0.0
N351 N 0.47978 0.69641 0.69663 0.0
C352 C 0.35988 0.69796 0.71236 0.0
H353 H 0.33989 0.68097 0.70839 0.0
H354 H 0.33901 0.71606 0.70972 0.0
H355 H 0.35779 0.69562 0.72173 0.0
C356 C 0.34665 0.77445 0.67394 0.0
N357 N 0.34883 0.74796 0.67387 0.0
N358 N 0.37616 0.73968 0.68263 0.0
C359 C 0.39133 0.76117 0.68865 0.0
C360 C 0.37226 0.78363 0.6834 0.0
C361 C 0.32233 0.79123 0.66493 0.0
H362 H 0.32648 0.78185 0.65648 0.0
H363 H 0.28064 0.79421 0.66693 0.0
H364 H 0.34098 0.81093 0.66465 0.0
O365 O 0.36721 0.70172 0.65648 0.0
O366 O 0.41517 0.6843 0.67029 0.0
H367 H 0.457 0.7485 0.69829 0.0
H368 H 0.43379 0.78079 0.70206 0.0
C369 C 0.4218 0.76071 0.69944 0.0
H370 H 0.39747 0.75227 0.70627 0.0
H371 H 0.50049 0.69576 0.689 0.0
O372 O 0.27364 0.74111 0.65335 0.0
C373 C 0.40404 0.68689 0.65974 0.0
Co374 Co 0.91691 0.53406 0.66607 0.0
Co375 Co 0.84548 0.55793 0.68467 0.0
C376 C 0.9591 0.57161 0.68343 0.0
O377 O 0.96437 0.55639 0.67494 0.0
O378 O 0.91499 0.5746 0.68822 0.0
C379 C 0.00196 0.5037 0.65889 0.0
O380 O 0.0155 0.50565 0.66962 0.0
C381 C 0.8097 0.55937 0.70805 0.0
C382 C 0.7253 0.56541 0.70603 0.0
C383 C 0.76297 0.55878 0.71397 0.0
N384 N 0.7998 0.56533 0.69712 0.0
N385 N 0.74948 0.56985 0.69605 0.0
C386 C 0.86165 0.5501 0.7122 0.0
H387 H 0.88536 0.54252 0.70503 0.0
H388 H 0.85752 0.53458 0.71876 0.0
H389 H 0.88247 0.56699 0.71607 0.0
C390 C 0.88067 0.48389 0.67563 0.0
N391 N 0.88084 0.51039 0.67532 0.0
N392 N 0.85007 0.51969 0.68332 0.0
C393 C 0.82936 0.49882 0.68897 0.0
C394 C 0.84908 0.47578 0.68437 0.0
C395 C 0.90871 0.46616 0.6675 0.0
H396 H 0.90709 0.47434 0.65879 0.0
H397 H 0.94974 0.46413 0.67023 0.0
H398 H 0.89122 0.44619 0.66741 0.0
O399 O 0.86868 0.5557 0.65713 0.0
O400 O 0.81833 0.57487 0.6701 0.0
H401 H 0.76131 0.51604 0.69639 0.0
H402 H 0.76815 0.48123 0.6989 0.0
C403 C 0.7895 0.50015 0.69819 0.0
H404 H 0.8089 0.50378 0.70643 0.0
H405 H 0.73103 0.57349 0.68831 0.0
O406 O 0.96053 0.51472 0.65548 0.0
C407 C 0.83197 0.57134 0.65975 0.0
Co408 Co 0.6681 0.47132 0.41415 0.0
Co409 Co 0.59948 0.45059 0.43395 0.0
C410 C 0.7117 0.43626 0.4326 0.0
O411 O 0.71568 0.4499 0.42358 0.0
O412 O 0.66838 0.43423 0.4378 0.0
C413 C 0.75216 0.50124 0.40658 0.0
O414 O 0.76377 0.50104 0.41746 0.0
C415 C 0.56298 0.44795 0.45749 0.0
C416 C 0.47828 0.45198 0.45517 0.0
C417 C 0.51699 0.45306 0.46337 0.0
N418 N 0.55196 0.44562 0.44635 0.0
N419 N 0.50105 0.44712 0.44508 0.0
C420 C 0.61677 0.44533 0.46222 0.0
H421 H 0.63615 0.42805 0.45831 0.0
H422 H 0.64006 0.46298 0.46003 0.0
H423 H 0.61612 0.44251 0.47157 0.0
C424 C 0.63459 0.52288 0.42266 0.0
N425 N 0.63295 0.49639 0.42287 0.0
N426 N 0.60659 0.48846 0.43182 0.0
C427 C 0.59221 0.51018 0.43779 0.0
C428 C 0.61013 0.53245 0.4322 0.0
C429 C 0.65819 0.53932 0.41344 0.0
H430 H 0.65559 0.52912 0.40514 0.0
H431 H 0.69935 0.54352 0.41554 0.0
H432 H 0.63779 0.55853 0.4128 0.0
O433 O 0.61952 0.44892 0.4059 0.0
O434 O 0.57146 0.43183 0.41978 0.0
H435 H 0.52774 0.49908 0.44813 0.0
H436 H 0.55569 0.53036 0.45188 0.0
C437 C 0.56461 0.51009 0.44896 0.0
H438 H 0.58943 0.50048 0.4554 0.0
H439 H 0.48226 0.44712 0.43722 0.0
O440 O 0.71199 0.48915 0.40314 0.0
C441 C 0.58339 0.43377 0.40924 0.0
Co442 Co 0.06632 0.28386 0.41826 0.0
Co443 Co 0.13799 0.3077 0.43677 0.0
C444 C 0.02409 0.32202 0.43511 0.0
O445 O 0.01847 0.30656 0.42673 0.0
O446 O 0.06824 0.32482 0.43989 0.0
C447 C 0.97918 0.25606 0.41046 0.0
O448 O 0.96077 0.26194 0.42056 0.0
C449 C 0.16752 0.30672 0.46033 0.0
C450 C 0.25002 0.31853 0.46012 0.0
C451 C 0.21151 0.30844 0.46718 0.0
N452 N 0.18 0.31477 0.44979 0.0
N453 N 0.229 0.32247 0.44977 0.0
C454 C 0.11641 0.29409 0.46313 0.0
H455 H 0.09448 0.28927 0.4553 0.0
H456 H 0.12209 0.27587 0.46818 0.0
H457 H 0.09276 0.30802 0.46823 0.0
C458 C 0.10082 0.23386 0.42811 0.0
N459 N 0.10085 0.26033 0.4278 0.0
N460 N 0.13369 0.26959 0.43537 0.0
C461 C 0.15654 0.24875 0.44062 0.0
C462 C 0.13556 0.22568 0.43629 0.0
C463 C 0.06813 0.2165 0.4207 0.0
H464 H 0.0734 0.22209 0.41167 0.0
H465 H 0.02677 0.21898 0.42307 0.0
H466 H 0.07795 0.19538 0.42167 0.0
O467 O 0.11636 0.30522 0.40949 0.0
O468 O 0.16735 0.32423 0.4224 0.0
H469 H 0.2257 0.23239 0.44809 0.0
H470 H 0.18603 0.25114 0.45758 0.0
C471 C 0.20105 0.25026 0.44876 0.0
H472 H 0.22513 0.26785 0.447 0.0
H473 H 0.24909 0.32854 0.44252 0.0
O474 O 0.02408 0.26395 0.40757 0.0
C475 C 0.15373 0.32054 0.41205 0.0
Co476 Co 0.68514 0.28689 0.33608 0.0
Co477 Co 0.61128 0.30706 0.31708 0.0
C478 C 0.72441 0.32412 0.31878 0.0
O479 O 0.73164 0.30944 0.32734 0.0
O480 O 0.67994 0.32563 0.31402 0.0
C481 C 0.77355 0.26268 0.34538 0.0
O482 O 0.79466 0.26948 0.33565 0.0
C483 C 0.58421 0.30064 0.29343 0.0
C484 C 0.50172 0.31225 0.29263 0.0
C485 C 0.54116 0.30065 0.28631 0.0
N486 N 0.57042 0.31081 0.30355 0.0
N487 N 0.52129 0.31827 0.30296 0.0
C488 C 0.63761 0.29048 0.29083 0.0
H489 H 0.66727 0.30305 0.29495 0.0
H490 H 0.64203 0.2703 0.29428 0.0
H491 H 0.64477 0.29007 0.28153 0.0
C492 C 0.65652 0.23527 0.32694 0.0
N493 N 0.65375 0.26172 0.32686 0.0
N494 N 0.61865 0.26944 0.31947 0.0
C495 C 0.59616 0.24764 0.31496 0.0
C496 C 0.62033 0.22548 0.3194 0.0
C497 C 0.69409 0.21958 0.33392 0.0
H498 H 0.68716 0.22344 0.34307 0.0
H499 H 0.73419 0.2256 0.33172 0.0
H500 H 0.69086 0.19814 0.33235 0.0
O501 O 0.63231 0.30824 0.34411 0.0
O502 O 0.57906 0.3245 0.33091 0.0
H503 H 0.52509 0.26547 0.30917 0.0
H504 H 0.52428 0.2299 0.30969 0.0
C505 C 0.54841 0.24745 0.30774 0.0
H506 H 0.55978 0.24613 0.29871 0.0
H507 H 0.50025 0.32591 0.30979 0.0
O508 O 0.72672 0.26881 0.34748 0.0
C509 C 0.59329 0.32223 0.3413 0.0
Co510 Co 0.08313 0.4721 0.34011 0.0
Co511 Co 0.14823 0.45125 0.31979 0.0
C512 C 0.03568 0.43836 0.3216 0.0
O513 O 0.03325 0.45165 0.33075 0.0
O514 O 0.07834 0.43607 0.31617 0.0
C515 C 0.00199 0.503 0.34852 0.0
O516 O 0.989 0.50373 0.33772 0.0
C517 C 0.18213 0.44821 0.29607 0.0
C518 C 0.26702 0.4524 0.29797 0.0
C519 C 0.22751 0.45323 0.28995 0.0
N520 N 0.19426 0.44615 0.30716 0.0
N521 N 0.24527 0.44774 0.30818 0.0
C522 C 0.12795 0.44533 0.29158 0.0
H523 H 0.10924 0.42802 0.2956 0.0
H524 H 0.10455 0.4629 0.29384 0.0
H525 H 0.12778 0.44243 0.28223 0.0
C526 C 0.11785 0.52352 0.33168 0.0
N527 N 0.11872 0.49703 0.33138 0.0
N528 N 0.14292 0.48907 0.32215 0.0
C529 C 0.15626 0.51077 0.31605 0.0
C530 C 0.14014 0.53309 0.32188 0.0
C531 C 0.09682 0.53994 0.3412 0.0
H532 H 0.10024 0.5294 0.34941 0.0
H533 H 0.0556 0.54488 0.33948 0.0
H534 H 0.11848 0.5588 0.34179 0.0
O535 O 0.13119 0.44872 0.34793 0.0
O536 O 0.17669 0.43151 0.33368 0.0
H537 H 0.21756 0.49982 0.3048 0.0
H538 H 0.18756 0.53078 0.30133 0.0
C539 C 0.18018 0.51055 0.30449 0.0
H540 H 0.15369 0.50055 0.29849 0.0
H541 H 0.26481 0.44793 0.31595 0.0
O542 O 0.04178 0.49004 0.35155 0.0
C543 C 0.16603 0.43318 0.34429 0.0
Co544 Co 0.81724 0.03392 0.58718 0.0
Co545 Co 0.88656 0.05428 0.56737 0.0
C546 C 0.77446 0.06959 0.56898 0.0
O547 O 0.77006 0.05596 0.57799 0.0
O548 O 0.81777 0.0712 0.56374 0.0
C549 C 0.72955 0.00751 0.59561 0.0
O550 O 0.71168 0.01171 0.58531 0.0
C551 C 0.92066 0.05646 0.54369 0.0
C552 C 0.00579 0.05358 0.5455 0.0
C553 C 0.96611 0.05186 0.53755 0.0
N554 N 0.93292 0.05918 0.55475 0.0
N555 N 0.98404 0.05836 0.55572 0.0
C556 C 0.86614 0.05808 0.53928 0.0
H557 H 0.84661 0.07551 0.54301 0.0
H558 H 0.84395 0.0404 0.54195 0.0
H559 H 0.86531 0.06004 0.52989 0.0
C560 C 0.84659 0.98229 0.57822 0.0
N561 N 0.85041 0.00871 0.5782 0.0
N562 N 0.87847 0.01643 0.56947 0.0
C563 C 0.89267 0.99461 0.56354 0.0
C564 C 0.87209 0.97251 0.56883 0.0
C565 C 0.81922 0.96624 0.58706 0.0
H566 H 0.82542 0.97488 0.59559 0.0
H567 H 0.77709 0.96569 0.58512 0.0
H568 H 0.8338 0.94567 0.58711 0.0
O569 O 0.86746 0.05577 0.59535 0.0
O570 O 0.91584 0.07267 0.58148 0.0
H571 H 0.95856 0.00629 0.55372 0.0
H572 H 0.93354 0.97426 0.55009 0.0
C573 C 0.92271 0.99453 0.55268 0.0
H574 H 0.89857 1.00325 0.54589 0.0
H575 H 0.0038 0.05881 0.56346 0.0
O576 O 0.77418 0.01598 0.59836 0.0
C577 C 0.90406 0.07066 0.59202 0.0
Co578 Co 0.4268 0.22074 0.58592 0.0
Co579 Co 0.35167 0.19945 0.56747 0.0
C580 C 0.46496 0.18456 0.56767 0.0
O581 O 0.472 0.19881 0.5764 0.0
O582 O 0.42011 0.18247 0.56313 0.0
C583 C 0.51655 0.24675 0.5937 0.0
O584 O 0.53429 0.24117 0.58351 0.0
C585 C 0.31292 0.20067 0.54439 0.0
C586 C 0.22869 0.19462 0.54676 0.0
C587 C 0.26565 0.20178 0.53874 0.0
N588 N 0.30415 0.19372 0.55525 0.0
N589 N 0.25389 0.18928 0.55653 0.0
C590 C 0.36437 0.21037 0.54013 0.0
H591 H 0.38935 0.21672 0.5473 0.0
H592 H 0.35938 0.22692 0.53407 0.0
H593 H 0.3842 0.19407 0.53558 0.0
C594 C 0.39167 0.27197 0.57755 0.0
N595 N 0.39074 0.2455 0.57727 0.0
N596 N 0.35774 0.23742 0.56948 0.0
C597 C 0.33622 0.25908 0.56458 0.0
C598 C 0.35757 0.28145 0.5695 0.0
C599 C 0.42592 0.28805 0.58516 0.0
H600 H 0.46689 0.28533 0.58253 0.0
H601 H 0.41719 0.30937 0.5847 0.0
H602 H 0.42123 0.28146 0.59408 0.0
O603 O 0.37883 0.19868 0.59479 0.0
O604 O 0.3259 0.18135 0.58185 0.0
H605 H 0.27247 0.27806 0.55597 0.0
H606 H 0.3104 0.25618 0.54739 0.0
C607 C 0.29359 0.259 0.55596 0.0
H608 H 0.26575 0.24297 0.55781 0.0
H609 H 0.23627 0.18495 0.5643 0.0
O610 O 0.47145 0.23925 0.59661 0.0
C611 C 0.34114 0.18371 0.59215 0.0
Co612 Co 0.82168 0.22309 0.66468 0.0
Co613 Co 0.89217 0.20139 0.68395 0.0
C614 C 0.77993 0.18665 0.68277 0.0
O615 O 0.77513 0.20073 0.6739 0.0
O616 O 0.82359 0.18459 0.68782 0.0
C617 C 0.73384 0.25074 0.65727 0.0
O618 O 0.7178 0.24639 0.6677 0.0
C619 C 0.92961 0.1979 0.70733 0.0
C620 C 0.01424 0.20181 0.70487 0.0
C621 C 0.9758 0.20287 0.71315 0.0
N622 N 0.94024 0.19576 0.69617 0.0
N623 N 0.99112 0.19714 0.69481 0.0
C624 C 0.87591 0.19537 0.71213 0.0
H625 H 0.8561 0.17832 0.70815 0.0
H626 H 0.85292 0.21323 0.7101 0.0
H627 H 0.87679 0.1922 0.72146 0.0
C628 C 0.85317 0.27414 0.67389 0.0
N629 N 0.85623 0.24769 0.67369 0.0
N630 N 0.88449 0.23939 0.68228 0.0
C631 C 0.89938 0.26085 0.68838 0.0
C632 C 0.8793 0.2833 0.68329 0.0
C633 C 0.82585 0.29082 0.66527 0.0
H634 H 0.83064 0.28233 0.65666 0.0
H635 H 0.78399 0.292 0.66744 0.0
H636 H 0.84162 0.31116 0.66525 0.0
O637 O 0.87055 0.20151 0.65599 0.0
O638 O 0.91949 0.18358 0.66951 0.0
H639 H 0.96598 0.24905 0.69789 0.0
H640 H 0.93982 0.28046 0.70208 0.0
C641 C 0.92968 0.26031 0.69918 0.0
H642 H 0.90613 0.25078 0.70588 0.0
H643 H 0.00964 0.19727 0.68692 0.0
O644 O 0.77747 0.24185 0.65402 0.0
C645 C 0.90698 0.18618 0.65903 0.0
Co646 Co 0.42698 0.03512 0.66759 0.0
Co647 Co 0.35405 0.05914 0.68591 0.0
C648 C 0.46796 0.0727 0.685 0.0
O649 O 0.4738 0.05758 0.6765 0.0
O650 O 0.42356 0.07562 0.68968 0.0
C651 C 0.51478 0.00693 0.66021 0.0
O652 O 0.53213 0.01243 0.67043 0.0
C653 C 0.31735 0.06002 0.70916 0.0
C654 C 0.23326 0.06695 0.70708 0.0
C655 C 0.2705 0.0597 0.71502 0.0
N656 N 0.30799 0.06652 0.69827 0.0
N657 N 0.25787 0.07155 0.69717 0.0
C658 C 0.36871 0.04992 0.7133 0.0
H659 H 0.39275 0.04287 0.70608 0.0
H660 H 0.36355 0.03378 0.71955 0.0
H661 H 0.38971 0.06621 0.71758 0.0
C662 C 0.39155 0.98519 0.67735 0.0
N663 N 0.39092 0.01167 0.67689 0.0
N664 N 0.35828 0.02097 0.68452 0.0
C665 C 0.33635 1.00013 0.68995 0.0
C666 C 0.35777 0.97709 0.68571 0.0
C667 C 0.4228 0.96762 0.66975 0.0
H668 H 0.41905 0.97417 0.66081 0.0
H669 H 0.4642 0.9685 0.67232 0.0
H670 H 0.40979 0.94683 0.67033 0.0
O671 O 0.379 0.05684 0.65852 0.0
O672 O 0.32812 0.07622 0.67134 0.0
H673 H 0.26704 0.01782 0.69659 0.0
H674 H 0.27169 0.98281 0.69887 0.0
C675 C 0.29397 1.00152 0.69861 0.0
H676 H 0.31116 0.00454 0.70714 0.0
H677 H 0.23977 0.07565 0.68943 0.0
O678 O 0.47043 0.01517 0.65712 0.0
C679 C 0.34235 0.07263 0.66103 0.0
Co680 Co 0.18869 0.97345 0.41701 0.0
Co681 Co 0.11443 0.95071 0.43533 0.0
C682 C 0.22881 0.93723 0.4349 0.0
O683 O 0.23537 0.95177 0.42625 0.0
O684 O 0.18399 0.9346 0.4394 0.0
C685 C 0.27736 1.00024 0.4091 0.0
O686 O 0.29581 0.99436 0.41919 0.0
C687 C 0.07934 0.95276 0.45859 0.0
C688 C 0.99685 0.94121 0.45743 0.0
C689 C 0.03354 0.95149 0.46487 0.0
N690 N 0.06959 0.9443 0.44797 0.0
N691 N 0.02057 0.93674 0.44739 0.0
C692 C 0.12971 0.96535 0.46198 0.0
H693 H 0.15331 0.97034 0.4544 0.0
H694 H 0.12288 0.98343 0.46705 0.0
H695 H 0.15216 0.95131 0.46728 0.0
C696 C 0.15241 0.02399 0.42602 0.0
N697 N 0.15202 0.9975 0.42593 0.0
N698 N 0.11822 0.98871 0.43341 0.0
C699 C 0.09506 0.00987 0.43835 0.0
C700 C 0.11665 0.0327 0.43391 0.0
C701 C 0.18814 0.04071 0.41901 0.0
H702 H 0.18378 0.03559 0.4099 0.0
H703 H 0.22874 0.03692 0.42166 0.0
H704 H 0.18069 0.06203 0.42008 0.0
O705 O 0.14093 0.95104 0.40814 0.0
O706 O 0.08854 0.93264 0.42095 0.0
H707 H 0.02564 0.02682 0.44547 0.0
H708 H 0.06445 0.00845 0.45524 0.0
C709 C 0.05002 0.00891 0.44638 0.0
H710 H 0.0258 0.99133 0.44471 0.0
H711 H 0.00236 0.93044 0.43995 0.0
O712 O 0.23207 0.99278 0.40631 0.0
C713 C 0.10375 0.93558 0.41066 0.0
Co714 Co 0.57434 0.78494 0.41674 0.0
Co715 Co 0.65039 0.80723 0.43489 0.0
C716 C 0.53685 0.82186 0.43478 0.0
O717 O 0.52953 0.80733 0.42615 0.0
O718 O 0.58188 0.82415 0.43922 0.0
C719 C 0.48405 0.75856 0.40934 0.0
O720 O 0.46688 0.76438 0.41955 0.0
C721 C 0.68908 0.80672 0.45802 0.0
C722 C 0.77337 0.81252 0.45565 0.0
C723 C 0.73634 0.80558 0.46369 0.0
N724 N 0.69799 0.81338 0.44712 0.0
N725 N 0.74829 0.81769 0.44584 0.0
C726 C 0.63746 0.79729 0.4623 0.0
H727 H 0.61255 0.79075 0.45514 0.0
H728 H 0.64213 0.78092 0.46845 0.0
H729 H 0.61767 0.81378 0.46672 0.0
C730 C 0.60801 0.73422 0.42599 0.0
N731 N 0.61036 0.76067 0.42565 0.0
N732 N 0.64418 0.76921 0.43319 0.0
C733 C 0.66517 0.74786 0.43843 0.0
C734 C 0.64194 0.72531 0.43416 0.0
C735 C 0.57437 0.71743 0.41856 0.0
H736 H 0.57793 0.72388 0.4096 0.0
H737 H 0.53336 0.7194 0.42131 0.0
H738 H 0.5854 0.69634 0.41909 0.0
O739 O 0.62227 0.80659 0.40762 0.0
O740 O 0.67552 0.82476 0.4203 0.0
H741 H 0.73586 0.76422 0.44499 0.0
H742 H 0.7291 0.72923 0.44708 0.0
C743 C 0.70801 0.7483 0.44699 0.0
H744 H 0.69144 0.75133 0.45558 0.0
H745 H 0.76603 0.82177 0.43806 0.0
O746 O 0.52906 0.76593 0.4063 0.0
C747 C 0.65992 0.82181 0.41004 0.0
Co748 Co 0.18248 0.78467 0.33603 0.0
Co749 Co 0.11032 0.80758 0.31728 0.0
C750 C 0.2252 0.82014 0.31817 0.0
O751 O 0.23096 0.80562 0.32686 0.0
O752 O 0.18072 0.82299 0.31355 0.0
C753 C 0.26858 0.75673 0.34451 0.0
O754 O 0.28757 0.76128 0.33433 0.0
C755 C 0.07901 0.80477 0.29375 0.0
C756 C 0.99664 0.81678 0.29417 0.0
C757 C 0.03433 0.80595 0.2871 0.0
N758 N 0.06767 0.81378 0.30422 0.0
N759 N 0.01874 0.82162 0.30434 0.0
C760 C 0.12961 0.79173 0.29087 0.0
H761 H 0.1518 0.78693 0.29867 0.0
H762 H 0.1232 0.77346 0.28589 0.0
H763 H 0.15327 0.80539 0.28564 0.0
C764 C 0.14537 0.73423 0.32701 0.0
N765 N 0.14569 0.76072 0.32709 0.0
N766 N 0.11272 0.76969 0.31948 0.0
C767 C 0.08939 0.74868 0.31448 0.0
C768 C 0.11033 0.7258 0.31896 0.0
C769 C 0.17777 0.71702 0.33453 0.0
H770 H 0.17386 0.72347 0.34349 0.0
H771 H 0.21905 0.7186 0.33193 0.0
H772 H 0.166 0.69605 0.33393 0.0
O773 O 0.13483 0.808 0.34447 0.0
O774 O 0.08367 0.82641 0.33142 0.0
H775 H 0.02147 0.7676 0.30768 0.0
H776 H 0.0204 0.73211 0.30706 0.0
C777 C 0.04539 0.74982 0.3062 0.0
H778 H 0.06088 0.74993 0.29742 0.0
H779 H -0.0006 0.82836 0.31158 0.0
O780 O 0.22386 0.76536 0.34712 0.0
C781 C 0.09832 0.8237 0.34176 0.0
Co782 Co 0.57496 0.97133 0.33566 0.0
Co783 Co 0.64786 0.94979 0.31677 0.0
C784 C 0.53376 0.93564 0.31773 0.0
O785 O 0.52751 0.94998 0.32646 0.0
O786 O 0.57826 0.93335 0.31306 0.0
C787 C 0.48727 0.99782 0.34418 0.0
O788 O 0.46809 0.99249 0.33409 0.0
C789 C 0.67789 0.95307 0.29323 0.0
C790 C 0.76063 0.94166 0.29327 0.0
C791 C 0.72191 0.95203 0.28635 0.0
N792 N 0.69049 0.9443 0.30366 0.0
N793 N 0.7397 0.9369 0.30358 0.0
C794 C 0.62654 0.96564 0.2906 0.0
H795 H 0.60506 0.97036 0.29851 0.0
H796 H 0.63179 0.98392 0.28558 0.0
H797 H 0.60269 0.95171 0.28555 0.0
C798 C 0.60987 0.02244 0.32699 0.0
N799 N 0.61047 0.99595 0.32681 0.0
N800 N 0.64343 0.98765 0.31905 0.0
C801 C 0.66564 0.00912 0.31416 0.0
C802 C 0.64435 0.03163 0.31895 0.0
C803 C 0.57583 0.03881 0.33454 0.0
H804 H 0.53474 0.03586 0.33205 0.0
H805 H 0.58443 0.06012 0.33386 0.0
H806 H 0.58102 0.03268 0.3435 0.0
O807 O 0.62377 0.9485 0.34401 0.0
O808 O 0.67577 0.93115 0.33083 0.0
H809 H 0.73351 0.0267 0.30663 0.0
H810 H 0.69351 0.00844 0.29704 0.0
C811 C 0.70938 0.00869 0.30578 0.0
H812 H 0.7342 0.99117 0.30714 0.0
H813 H 0.75987 0.93037 0.31073 0.0
O814 O 0.53261 0.99003 0.34676 0.0
C815 C 0.66112 0.93341 0.3412 0.0
Co816 Co 0.82002 0.53428 0.08525 0.0
Co817 Co 0.89135 0.55845 0.06662 0.0
C818 C 0.77679 0.57162 0.06816 0.0
O819 O 0.77158 0.55638 0.07663 0.0
O820 O 0.82092 0.57469 0.06339 0.0
C821 C 0.73354 0.50596 0.09306 0.0
O822 O 0.71574 0.51132 0.08286 0.0
C823 C 0.92066 0.55696 0.04297 0.0
C824 C 0.00317 0.56875 0.04308 0.0
C825 C 0.9647 0.55838 0.03609 0.0
N826 N 0.93312 0.56538 0.05346 0.0
N827 N 0.98214 0.57308 0.05342 0.0
C828 C 0.86958 0.54421 0.04025 0.0
H829 H 0.84792 0.53938 0.04812 0.0
H830 H 0.87524 0.52599 0.03521 0.0
H831 H 0.84571 0.55808 0.03517 0.0
C832 C 0.85516 0.48444 0.07523 0.0
N833 N 0.85546 0.51091 0.07577 0.0
N834 N 0.88832 0.52037 0.06824 0.0
C835 C 0.9111 0.49969 0.06286 0.0
C836 C 0.88968 0.47654 0.06697 0.0
C837 C 0.82339 0.46668 0.08265 0.0
H838 H 0.82739 0.47271 0.09166 0.0
H839 H 0.78202 0.46809 0.08012 0.0
H840 H 0.83573 0.44583 0.08185 0.0
O841 O 0.86911 0.55646 0.09392 0.0
O842 O 0.91953 0.57578 0.08097 0.0
H843 H 0.97911 0.51897 0.05627 0.0
H844 H 0.98007 0.48354 0.05524 0.0
C845 C 0.95513 0.50132 0.05459 0.0
H846 H 0.93968 0.50197 0.04582 0.0
H847 H 0.00226 0.57937 0.06062 0.0
O848 O 0.77807 0.51424 0.09602 0.0
C849 C 0.90576 0.5722 0.09133 0.0
Co850 Co 0.42002 0.72041 0.08776 0.0
Co851 Co 0.35043 0.69928 0.06815 0.0
C852 C 0.46263 0.68456 0.0695 0.0
O853 O 0.46683 0.69836 0.07847 0.0
O854 O 0.41929 0.68263 0.06431 0.0
C855 C 0.50751 0.74799 0.09508 0.0
O856 O 0.52207 0.74423 0.0845 0.0
C857 C 0.31417 0.69697 0.04465 0.0
C858 C 0.22933 0.70023 0.04692 0.0
C859 C 0.26817 0.70199 0.03876 0.0
N860 N 0.30301 0.69411 0.05576 0.0
N861 N 0.25203 0.69513 0.057 0.0
C862 C 0.36818 0.69506 0.03995 0.0
H863 H 0.38826 0.67795 0.04381 0.0
H864 H 0.39055 0.71297 0.04222 0.0
H865 H 0.36786 0.69238 0.0306 0.0
C866 C 0.38758 0.77168 0.07899 0.0
N867 N 0.38536 0.74521 0.07889 0.0
N868 N 0.35758 0.73721 0.07016 0.0
C869 C 0.34216 0.75891 0.0643 0.0
C870 C 0.3614 0.7812 0.06966 0.0
C871 C 0.41373 0.78802 0.08791 0.0
H872 H 0.40915 0.7788 0.09638 0.0
H873 H 0.45558 0.78994 0.08583 0.0
H874 H 0.39686 0.80813 0.0882 0.0
O875 O 0.37108 0.69846 0.0962 0.0
O876 O 0.32278 0.68092 0.08245 0.0
H877 H 0.27598 0.74726 0.05462 0.0
H878 H 0.30145 0.77903 0.05077 0.0
C879 C 0.31203 0.75879 0.05346 0.0
H880 H 0.33589 0.74977 0.04669 0.0
H881 H 0.23309 0.69469 0.06484 0.0
O882 O 0.46439 0.73885 0.09852 0.0
C883 C 0.33488 0.68319 0.09297 0.0
Co884 Co 0.82533 0.72113 0.16484 0.0
Co885 Co 0.89525 0.70053 0.18455 0.0
C886 C 0.7831 0.68538 0.18308 0.0
O887 O 0.77863 0.6991 0.17411 0.0
O888 O 0.82649 0.68364 0.18826 0.0
C889 C 0.73741 0.74801 0.15727 0.0
O890 O 0.72247 0.7442 0.16782 0.0
C891 C 0.9287 0.69881 0.20827 0.0
C892 C 0.01388 0.70162 0.20662 0.0
C893 C 0.97385 0.70364 0.21449 0.0
N894 N 0.94146 0.69571 0.19725 0.0
N895 N 0.99263 0.69649 0.19639 0.0
C896 C 0.87397 0.69742 0.21258 0.0
H897 H 0.85458 0.67985 0.20895 0.0
H898 H 0.85198 0.71501 0.20974 0.0
H899 H 0.87266 0.69581 0.22198 0.0
C900 C 0.85617 0.77264 0.17361 0.0
N901 N 0.8593 0.74619 0.1737 0.0
N902 N 0.88739 0.73842 0.18242 0.0
C903 C 0.9022 0.76025 0.18827 0.0
C904 C 0.8821 0.78238 0.18293 0.0
C905 C 0.82912 0.78879 0.16476 0.0
H906 H 0.8341 0.77976 0.15626 0.0
H907 H 0.78721 0.79014 0.16687 0.0
H908 H 0.84496 0.80911 0.16453 0.0
O909 O 0.87481 0.69914 0.15655 0.0
O910 O 0.92371 0.68204 0.17031 0.0
H911 H 0.96822 0.74848 0.198 0.0
H912 H 0.9438 0.78065 0.20158 0.0
C913 C 0.93257 0.76038 0.19907 0.0
H914 H 0.90849 0.7519 0.20593 0.0
H915 H 0.01276 0.69581 0.18869 0.0
O916 O 0.78098 0.7392 0.15394 0.0
C917 C 0.91136 0.68409 0.15979 0.0
Co918 Co 0.43106 0.53344 0.1663 0.0
Co919 Co 0.35853 0.55571 0.18523 0.0
C920 C 0.47288 0.57034 0.18353 0.0
O921 O 0.4791 0.55545 0.17498 0.0
O922 O 0.42849 0.57272 0.18825 0.0
C923 C 0.51777 0.50662 0.15772 0.0
O924 O 0.53662 0.51192 0.16784 0.0
C925 C 0.33234 0.55111 0.20904 0.0
C926 C 0.24989 0.56278 0.20986 0.0
C927 C 0.2895 0.55151 0.21623 0.0
N928 N 0.31823 0.56067 0.19882 0.0
N929 N 0.26916 0.56822 0.19944 0.0
C930 C 0.38576 0.54101 0.21164 0.0
H931 H 0.41536 0.55413 0.20783 0.0
H932 H 0.39087 0.52118 0.20786 0.0
H933 H 0.39254 0.53994 0.22094 0.0
C934 C 0.39927 0.48271 0.17608 0.0
N935 N 0.3976 0.50919 0.17566 0.0
N936 N 0.36308 0.51797 0.18298 0.0
C937 C 0.33982 0.49688 0.18789 0.0
C938 C 0.36336 0.47413 0.18393 0.0
C939 C 0.43317 0.46561 0.16883 0.0
H940 H 0.42881 0.47124 0.15978 0.0
H941 H 0.47427 0.46827 0.1714 0.0
H942 H 0.42304 0.44448 0.16972 0.0
O943 O 0.37991 0.55567 0.15815 0.0
O944 O 0.32815 0.57346 0.17129 0.0
H945 H 0.2701 0.51586 0.19377 0.0
H946 H 0.26823 0.48033 0.19401 0.0
C947 C 0.29314 0.49786 0.19543 0.0
H948 H 0.30573 0.49743 0.20439 0.0
H949 H 0.24786 0.57542 0.19256 0.0
O950 O 0.47248 0.51443 0.15509 0.0
C951 C 0.34216 0.57061 0.16091 0.0
Co952 Co 0.17188 0.47115 0.91571 0.0
Co953 Co 0.10069 0.44957 0.93488 0.0
C954 C 0.21362 0.43452 0.93347 0.0
O955 O 0.21886 0.44902 0.92475 0.0
O956 O 0.16975 0.4323 0.93845 0.0
C957 C 0.25755 0.49982 0.90749 0.0
O958 O 0.27294 0.49856 0.91813 0.0
C959 C 0.06525 0.44986 0.95838 0.0
C960 C 0.98046 0.44541 0.95637 0.0
C961 C 0.01852 0.45166 0.96427 0.0
N962 N 0.05496 0.44365 0.94749 0.0
N963 N 0.00434 0.44008 0.94644 0.0
C964 C 0.11791 0.45809 0.9625 0.0
H965 H 0.14203 0.46522 0.95531 0.0
H966 H 0.11506 0.47362 0.96909 0.0
H967 H 0.13752 0.44076 0.96632 0.0
C968 C 0.14016 0.5224 0.92488 0.0
N969 N 0.13787 0.49592 0.92478 0.0
N970 N 0.10738 0.48767 0.93303 0.0
C971 C 0.08927 0.50925 0.93863 0.0
C972 C 0.11068 0.53163 0.93377 0.0
C973 C 0.16818 0.53913 0.91637 0.0
H974 H 0.16497 0.53043 0.90777 0.0
H975 H 0.20962 0.54077 0.91883 0.0
H976 H 0.15172 0.55933 0.91613 0.0
O977 O 0.1221 0.44958 0.90725 0.0
O978 O 0.07169 0.43195 0.92059 0.0
H979 H 0.02141 0.49386 0.94682 0.0
H980 H 0.03162 0.52853 0.94901 0.0
C981 C 0.05125 0.50916 0.94823 0.0
H982 H 0.07198 0.50544 0.95631 0.0
H983 H 0.98567 0.43646 0.93872 0.0
O984 O 0.21512 0.48903 0.9046 0.0
C985 C 0.08481 0.43464 0.91015 0.0
Co986 Co 0.57533 0.28669 0.91411 0.0
Co987 Co 0.6422 0.30825 0.93405 0.0
C988 C 0.52796 0.32145 0.93169 0.0
O989 O 0.52433 0.30717 0.92287 0.0
O990 O 0.57127 0.32408 0.93682 0.0
C991 C 0.49481 0.25625 0.90549 0.0
O992 O 0.47995 0.2569 0.91618 0.0
C993 C 0.66482 0.30572 0.95818 0.0
C994 C 0.74863 0.31446 0.95908 0.0
C995 C 0.70715 0.30533 0.96553 0.0
N996 N 0.681 0.31355 0.94783 0.0
N997 N 0.73092 0.31946 0.9485 0.0
C998 C 0.60975 0.29818 0.96076 0.0
H999 H 0.59982 0.27967 0.95626 0.0
H1000 H 0.60314 0.29583 0.97002 0.0
H1001 H 0.58321 0.31372 0.95762 0.0
C1002 C 0.6104 0.2354 0.92291 0.0
N1003 N 0.60982 0.26193 0.92312 0.0
N1004 N 0.63919 0.27041 0.93151 0.0
C1005 C 0.65963 0.24904 0.93681 0.0
C1006 C 0.64068 0.22643 0.93172 0.0
C1007 C 0.58455 0.21832 0.91421 0.0
H1008 H 0.58736 0.22741 0.90568 0.0
H1009 H 0.54324 0.21543 0.91657 0.0
H1010 H 0.6031 0.1986 0.91386 0.0
O1011 O 0.62545 0.30996 0.90654 0.0
O1012 O 0.67391 0.32719 0.92037 0.0
H1013 H 0.72515 0.26652 0.94517 0.0
H1014 H 0.72154 0.23115 0.94638 0.0
C1015 C 0.69848 0.24962 0.94621 0.0
H1016 H 0.67768 0.25116 0.95437 0.0
H1017 H 0.75368 0.32507 0.94157 0.0
O1018 O 0.53565 0.26843 0.90252 0.0
C1019 C 0.66195 0.32502 0.90983 0.0
Co1020 Co 0.17413 0.28607 0.83783 0.0
Co1021 Co 0.10629 0.30626 0.81782 0.0
C1022 C 0.21988 0.32057 0.81995 0.0
O1023 O 0.22414 0.30653 0.82881 0.0
O1024 O 0.17642 0.32272 0.81484 0.0
C1025 C 0.25623 0.25678 0.84646 0.0
O1026 O 0.27047 0.25714 0.83573 0.0
C1027 C 0.08264 0.30241 0.79379 0.0
C1028 C -0.0009 0.31187 0.79291 0.0
C1029 C 0.04018 0.30219 0.78649 0.0
N1030 N 0.06692 0.31078 0.80409 0.0
N1031 N 0.01718 0.31706 0.80344 0.0
C1032 C 0.13739 0.29431 0.79119 0.0
H1033 H 0.16452 0.30971 0.79422 0.0
H1034 H 0.14684 0.27588 0.79581 0.0
H1035 H 0.14368 0.29154 0.78194 0.0
C1036 C 0.1378 0.23416 0.82993 0.0
N1037 N 0.13947 0.26063 0.82916 0.0
N1038 N 0.11029 0.26854 0.82064 0.0
C1039 C 0.08928 0.24686 0.8157 0.0
C1040 C 0.10689 0.22457 0.82129 0.0
C1041 C 0.16575 0.21809 0.83869 0.0
H1042 H 0.16351 0.22786 0.84709 0.0
H1043 H 0.2069 0.21573 0.83611 0.0
H1044 H 0.14915 0.19812 0.83959 0.0
O1045 O 0.12383 0.3094 0.84532 0.0
O1046 O 0.07442 0.32553 0.83139 0.0
H1047 H 0.02623 0.22854 0.80663 0.0
H1048 H 0.06957 0.24786 0.79819 0.0
C1049 C 0.04955 0.24693 0.80646 0.0
H1050 H 0.02321 0.26401 0.8074 0.0
H1051 H 0.99478 0.32319 0.81035 0.0
O1052 O 0.21513 0.26871 0.84946 0.0
C1053 C 0.08678 0.32401 0.84193 0.0
Co1054 Co 0.5756 0.47206 0.83651 0.0
Co1055 Co 0.6446 0.45034 0.817 0.0
C1056 C 0.53055 0.43632 0.81906 0.0
O1057 O 0.52579 0.45098 0.82774 0.0
O1058 O 0.57428 0.4338 0.81407 0.0
C1059 C 0.49261 0.50064 0.84596 0.0
O1060 O 0.4743 0.49942 0.83555 0.0
C1061 C 0.67063 0.45348 0.79316 0.0
C1062 C 0.75325 0.44193 0.79264 0.0
C1063 C 0.71374 0.45248 0.78599 0.0
N1064 N 0.68463 0.44465 0.80349 0.0
N1065 N 0.73371 0.43712 0.80307 0.0
C1066 C 0.61888 0.46599 0.79087 0.0
H1067 H 0.5983 0.47046 0.79892 0.0
H1068 H 0.62334 0.48439 0.78589 0.0
H1069 H 0.59461 0.45212 0.78589 0.0
C1070 C 0.61038 0.52329 0.82767 0.0
N1071 N 0.60995 0.49678 0.82743 0.0
N1072 N 0.64066 0.48829 0.81926 0.0
C1073 C 0.66194 0.50963 0.81408 0.0
C1074 C 0.64265 0.53227 0.81915 0.0
C1075 C 0.57957 0.53989 0.83577 0.0
H1076 H 0.58367 0.53216 0.84452 0.0
H1077 H 0.53813 0.53945 0.83324 0.0
H1078 H 0.59207 0.56074 0.83574 0.0
O1079 O 0.62588 0.44927 0.84431 0.0
O1080 O 0.67599 0.43196 0.83081 0.0
H1081 H 0.72853 0.49145 0.80632 0.0
H1082 H 0.72819 0.52694 0.80579 0.0
C1083 C 0.70361 0.50902 0.80522 0.0
H1084 H 0.68574 0.50888 0.79667 0.0
H1085 H 0.75483 0.43051 0.81008 0.0
O1086 O 0.53585 0.48991 0.84826 0.0
C1087 C 0.66306 0.43436 0.84127 0.0
H1088 H 0.54989 0.05738 0.02347 0.0
H1089 H 0.398 0.02148 0.02548 0.0
H1090 H 0.56778 0.03243 0.00634 0.0
H1091 H 0.41329 0.999 0.00776 0.0
H1092 H 0.47038 0.94083 0.98143 0.0
H1093 H 0.45477 0.96447 0.99918 0.0
H1094 H 0.55376 0.02773 0.98741 0.0
H1095 H 0.57202 1.00334 0.97038 0.0
C1096 C 0.51955 0.04487 0.02007 0.0
C1097 C 0.47177 0.04239 0.02575 0.0
C1098 C 0.52966 0.03059 0.01014 0.0
C1099 C 0.49192 0.01364 0.00547 0.0
C1100 C 0.44377 0.01151 0.01107 0.0
C1101 C 0.43421 0.02529 0.02115 0.0
C1102 C 0.48931 0.95962 0.98278 0.0
C1103 C 0.52304 0.96989 0.97452 0.0
C1104 C 0.47991 0.97343 0.9929 0.0
C1105 C 0.50285 0.99827 0.99486 0.0
C1106 C 0.53625 0.00848 0.98649 0.0
C1107 C 0.54659 0.9944 0.97656 0.0
H1108 H 0.7681 0.31923 0.98353 0.0
H1109 H 0.65982 0.25954 0.97256 0.0
H1110 H 0.78284 0.29469 1.00107 0.0
H1111 H 0.67669 0.2344 0.98946 0.0
H1112 H 0.68245 0.20413 0.02558 0.0
H1113 H 0.66446 0.2299 0.00865 0.0
H1114 H 0.82306 0.25807 0.00862 0.0
H1115 H 0.83919 0.2346 0.02604 0.0
C1116 C 0.74731 0.30095 0.98487 0.0
C1117 C 0.7122 0.29169 0.97666 0.0
C1118 C 0.75622 0.28663 0.99486 0.0
C1119 C 0.73122 0.2623 0.99676 0.0
C1120 C 0.69595 0.25322 0.98853 0.0
C1121 C 0.6863 0.26778 0.9787 0.0
C1122 C 0.71366 0.21562 0.02188 0.0
C1123 C 0.76277 0.21643 0.02709 0.0
C1124 C 0.70342 0.23039 0.0121 0.0
C1125 C 0.74227 0.24621 0.00714 0.0
C1126 C 0.79175 0.24652 0.01221 0.0
C1127 C 0.80162 0.23218 0.02212 0.0
H1128 H 0.40508 0.23187 0.22579 0.0
H1129 H 0.55889 0.19781 0.22673 0.0
H1130 H 0.42203 0.25486 0.24329 0.0
H1131 H 0.57779 0.22292 0.24384 0.0
H1132 H 0.58132 0.25265 0.28006 0.0
H1133 H 0.56312 0.2275 0.26315 0.0
H1134 H 0.4662 0.29078 0.25067 0.0
H1135 H 0.48259 0.31549 0.2681 0.0
C1136 C 0.44211 0.22857 0.22984 0.0
C1137 C 0.4799 0.21198 0.22497 0.0
C1138 C 0.45249 0.24258 0.2398 0.0
C1139 C 0.50147 0.24105 0.24505 0.0
C1140 C 0.53923 0.22436 0.24021 0.0
C1141 C 0.52849 0.20997 0.23035 0.0
C1142 C 0.5567 0.26149 0.2737 0.0
C1143 C 0.53398 0.28636 0.27541 0.0
C1144 C 0.54622 0.24694 0.2639 0.0
C1145 C 0.51317 0.25694 0.25543 0.0
C1146 C 0.49106 0.28208 0.25706 0.0
C1147 C 0.50086 0.29644 0.267 0.0
H1148 H 0.81047 0.97544 0.2786 0.0
H1149 H 0.65316 0.95743 0.26852 0.0
H1150 H 0.82281 1.00032 0.26116 0.0
H1151 H 0.66346 0.98435 0.25168 0.0
H1152 H 0.70872 0.01559 0.21717 0.0
H1153 H 0.69905 0.98829 0.23398 0.0
H1154 H 0.80332 0.03991 0.25233 0.0
H1155 H 0.81527 0.06617 0.23509 0.0
C1156 C 0.77834 0.97689 0.27269 0.0
C1157 C 0.73026 0.96504 0.27517 0.0
C1158 C 0.78513 0.99158 0.26274 0.0
C1159 C 0.74388 0.99501 0.25502 0.0
C1160 C 0.69639 0.98226 0.25733 0.0
C1161 C 0.69001 0.96716 0.26717 0.0
C1162 C 0.72911 0.02119 0.22485 0.0
C1163 C 0.76236 0.04307 0.22491 0.0
C1164 C 0.72351 0.00557 0.23454 0.0
C1165 C 0.75021 0.01175 0.24464 0.0
C1166 C 0.78283 0.03409 0.2447 0.0
C1167 C 0.78926 0.04941 0.23489 0.0
H1168 H 0.16137 0.75514 0.97221 0.0
H1169 H 0.26202 0.81748 0.98389 0.0
H1170 H 0.17843 0.73039 0.98924 0.0
H1171 H 0.27706 0.79321 0.0015 0.0
H1172 H 0.3357 0.73423 0.0268 0.0
H1173 H 0.31966 0.75744 0.00929 0.0
H1174 H 0.16356 0.72598 0.00844 0.0
H1175 H 0.18164 0.7006 0.0255 0.0
C1176 C 0.18621 0.764 0.97853 0.0
C1177 C 0.20982 0.7886 0.97668 0.0
C1178 C 0.19597 0.74967 0.98842 0.0
C1179 C 0.22913 0.75961 0.99688 0.0
C1180 C 0.25207 0.78452 0.99512 0.0
C1181 C 0.24302 0.79866 0.98508 0.0
C1182 C 0.2988 0.73109 0.02267 0.0
C1183 C 0.26075 0.71448 0.02742 0.0
C1184 C 0.28893 0.74523 0.01271 0.0
C1185 C 0.24016 0.74385 0.00735 0.0
C1186 C 0.20202 0.72728 0.01212 0.0
C1187 C 0.21228 0.71274 0.02197 0.0
H1188 H 0.43544 0.77907 0.78141 0.0
H1189 H 0.58579 0.80063 0.76798 0.0
H1190 H 0.4183 0.75308 0.76437 0.0
H1191 H 0.56933 0.77379 0.75115 0.0
H1192 H 0.54206 0.69949 0.7292 0.0
H1193 H 0.55713 0.72457 0.74666 0.0
H1194 H 0.40647 0.76094 0.74318 0.0
H1195 H 0.39217 0.73703 0.72569 0.0
C1196 C 0.46478 0.77839 0.77481 0.0
C1197 C 0.51255 0.79147 0.77621 0.0
C1198 C 0.45502 0.76338 0.76508 0.0
C1199 C 0.49288 0.761 0.75653 0.0
C1200 C 0.53998 0.77471 0.75774 0.0
C1201 C 0.54946 0.79002 0.76741 0.0
C1202 C 0.51181 0.71253 0.73226 0.0
C1203 C 0.46519 0.71543 0.72614 0.0
C1204 C 0.52062 0.72702 0.7422 0.0
C1205 C 0.48287 0.74465 0.74629 0.0
C1206 C 0.43589 0.74716 0.74035 0.0
C1207 C 0.4274 0.73299 0.73034 0.0
H1208 H 0.14888 0.95805 0.7686 0.0
H1209 H 0.30642 0.97515 0.77879 0.0
H1210 H 0.15953 0.98551 0.75193 0.0
H1211 H 0.3191 1.00057 0.7615 0.0
H1212 H 0.31321 0.06736 0.73602 0.0
H1213 H 0.30018 0.04056 0.75305 0.0
H1214 H 0.19486 0.99038 0.73425 0.0
H1215 H 0.20562 0.01825 0.71764 0.0
C1216 C 0.18587 0.96767 0.76729 0.0
C1217 C 0.22607 0.96518 0.77529 0.0
C1218 C 0.19244 0.98311 0.75756 0.0
C1219 C 0.24006 0.99581 0.75534 0.0
C1220 C 0.2813 0.99191 0.76303 0.0
C1221 C 0.27432 0.9769 0.77288 0.0
C1222 C 0.28667 0.05082 0.73568 0.0
C1223 C 0.2599 0.04503 0.72562 0.0
C1224 C 0.27965 0.03518 0.74537 0.0
C1225 C 0.24657 0.01302 0.74511 0.0
C1226 C 0.21974 0.00747 0.73496 0.0
C1227 C 0.22592 0.02344 0.72539 0.0
H1228 H 0.43063 0.45115 0.4767 0.0
H1229 H 0.5847 0.48477 0.47546 0.0
H1230 H 0.41278 0.47599 0.49394 0.0
H1231 H 0.56881 0.50753 0.49311 0.0
H1232 H 0.51112 0.56721 0.51863 0.0
H1233 H 0.52558 0.54326 0.50091 0.0
H1234 H 0.42841 0.47991 0.51323 0.0
H1235 H 0.41208 0.50436 0.53045 0.0
C1236 C 0.4613 0.46318 0.48028 0.0
C1237 C 0.5097 0.4651 0.4748 0.0
C1238 C 0.45116 0.47741 0.49023 0.0
C1239 C 0.48934 0.49387 0.49504 0.0
C1240 C 0.53807 0.4954 0.48965 0.0
C1241 C 0.54784 0.48154 0.47961 0.0
C1242 C 0.49229 0.54834 0.51743 0.0
C1243 C 0.45974 0.53801 0.5259 0.0
C1244 C 0.50102 0.53439 0.50733 0.0
C1245 C 0.47839 0.50942 0.50557 0.0
C1246 C 0.44572 0.49923 0.51408 0.0
C1247 C 0.43633 0.51337 0.52405 0.0
H1248 H 0.80351 0.76507 0.46668 0.0
H1249 H 0.69182 0.81291 0.48456 0.0
H1250 H 0.81449 0.73758 0.48343 0.0
H1251 H 0.70453 0.78635 0.50165 0.0
H1252 H 0.69633 0.7199 0.52689 0.0
H1253 H 0.68564 0.74556 0.50963 0.0
H1254 H 0.84787 0.73343 0.50154 0.0
H1255 H 0.85705 0.70582 0.51825 0.0
C1256 C 0.78225 0.77006 0.47433 0.0
C1257 C 0.74696 0.79113 0.47437 0.0
C1258 C 0.78853 0.7543 0.48398 0.0
C1259 C 0.76031 0.75951 0.49399 0.0
C1260 C 0.72611 0.78123 0.49407 0.0
C1261 C 0.71918 0.7967 0.48433 0.0
C1262 C 0.72956 0.72235 0.52133 0.0
C1263 C 0.77799 0.71135 0.52417 0.0
C1264 C 0.72365 0.73751 0.51149 0.0
C1265 C 0.76612 0.74227 0.50423 0.0
C1266 C 0.81409 0.73035 0.50686 0.0
C1267 C 0.81972 0.71482 0.51661 0.0
H1268 H 0.80707 0.56692 0.73483 0.0
H1269 H 0.69769 0.51763 0.71704 0.0
H1270 H 0.7945 0.54076 0.75206 0.0
H1271 H 0.68713 0.49048 0.73389 0.0
H1272 H 0.64303 0.45927 0.76856 0.0
H1273 H 0.65268 0.48656 0.75179 0.0
H1274 H 0.81351 0.50067 0.76056 0.0
H1275 H 0.8021 0.4754 0.77791 0.0
C1276 C 0.78026 0.55048 0.73466 0.0
C1277 C 0.75294 0.54444 0.72469 0.0
C1278 C 0.77344 0.53523 0.74447 0.0
C1279 C 0.7399 0.51324 0.74445 0.0
C1280 C 0.71243 0.50746 0.73441 0.0
C1281 C 0.71851 0.52301 0.7247 0.0
C1282 C 0.68009 0.46868 0.76707 0.0
C1283 C 0.72113 0.46587 0.77485 0.0
C1284 C 0.68605 0.48401 0.75728 0.0
C1285 C 0.73378 0.49634 0.75479 0.0
C1286 C 0.77566 0.49228 0.76229 0.0
C1287 C 0.76936 0.47735 0.77219 0.0
H1288 H 0.30715 0.19375 0.51766 0.0
H1289 H 0.20173 0.24369 0.53628 0.0
H1290 H 0.29388 0.22047 0.50064 0.0
H1291 H 0.19064 0.27146 0.51962 0.0
H1292 H 0.14339 0.30312 0.48516 0.0
H1293 H 0.15436 0.27604 0.50194 0.0
H1294 H 0.31357 0.26047 0.49219 0.0
H1295 H 0.30063 0.28551 0.47483 0.0
C1296 C 0.28106 0.21047 0.51806 0.0
C1297 C 0.25496 0.21652 0.52818 0.0
C1298 C 0.27389 0.22605 0.50837 0.0
C1299 C 0.24133 0.2484 0.50868 0.0
C1300 C 0.21514 0.25422 0.51889 0.0
C1301 C 0.2215 0.23832 0.52848 0.0
C1302 C 0.18037 0.29347 0.48646 0.0
C1303 C 0.22039 0.2957 0.47839 0.0
C1304 C 0.18711 0.27826 0.49625 0.0
C1305 C 0.2347 0.26551 0.49844 0.0
C1306 C 0.27579 0.26918 0.49069 0.0
C1307 C 0.26865 0.28397 0.48079 0.0
H1308 H 0.15875 0.48478 0.27808 0.0
H1309 H 0.31243 0.45082 0.27626 0.0
H1310 H 0.17324 0.50727 0.26027 0.0
H1311 H 0.32898 0.47538 0.25891 0.0
H1312 H 0.32968 0.50367 0.22269 0.0
H1313 H 0.31227 0.47911 0.23976 0.0
H1314 H 0.21589 0.54276 0.25213 0.0
H1315 H 0.23128 0.56686 0.23448 0.0
C1316 C 0.19518 0.48141 0.27376 0.0
C1317 C 0.23366 0.46498 0.27845 0.0
C1318 C 0.20416 0.4951 0.26364 0.0
C1319 C 0.25241 0.49338 0.25806 0.0
C1320 C 0.29088 0.47691 0.26276 0.0
C1321 C 0.28152 0.46285 0.27277 0.0
C1322 C 0.30524 0.51272 0.22904 0.0
C1323 C 0.2825 0.53754 0.22723 0.0
C1324 C 0.29527 0.49851 0.23895 0.0
C1325 C 0.26281 0.50881 0.24747 0.0
C1326 C 0.24041 0.53384 0.24572 0.0
C1327 C 0.24965 0.54787 0.23565 0.0
H1328 H 0.94421 0.97672 0.47076 0.0
H1329 H 0.09555 0.95606 0.48389 0.0
H1330 H 0.92669 1.00226 0.4879 0.0
H1331 H 0.07856 0.98236 0.50088 0.0
H1332 H 0.04934 0.05569 0.5233 0.0
H1333 H 0.0654 0.0309 0.5058 0.0
H1334 H 0.91472 0.99433 0.50887 0.0
H1335 H 0.89937 0.01808 0.52637 0.0
C1336 C 0.97367 0.97748 0.47732 0.0
C1337 C 0.02178 0.96479 0.47583 0.0
C1338 C 0.96368 0.99223 0.48712 0.0
C1339 C 0.0016 0.99469 0.49564 0.0
C1340 C 0.04911 0.98137 0.49432 0.0
C1341 C 0.05888 0.96635 0.48457 0.0
C1342 C 0.01932 0.04266 0.52014 0.0
C1343 C 0.97235 0.03968 0.52612 0.0
C1344 C 0.0287 0.02833 0.51017 0.0
C1345 C 0.99121 0.01074 0.50595 0.0
C1346 C 0.94395 0.00809 0.5118 0.0
C1347 C 0.93486 0.02214 0.52181 0.0
H1348 H 0.90792 0.23408 0.72551 0.0
H1349 H 0.0631 0.20165 0.72617 0.0
H1350 H 0.92438 0.257 0.74306 0.0
H1351 H 0.08151 0.22679 0.74329 0.0
H1352 H 0.0845 0.25555 0.77967 0.0
H1353 H 0.06767 0.23088 0.76257 0.0
H1354 H 0.96659 0.29308 0.75067 0.0
H1355 H 0.98142 0.3172 0.76833 0.0
C1356 C 0.94518 0.23113 0.7295 0.0
C1357 C 0.98347 0.21497 0.72456 0.0
C1358 C 0.95527 0.24512 0.73949 0.0
C1359 C 0.00445 0.24405 0.74467 0.0
C1360 C 0.04278 0.22785 0.73973 0.0
C1361 C 0.03232 0.21345 0.72985 0.0
C1362 C 0.0592 0.26426 0.7734 0.0
C1363 C 0.03478 0.28861 0.77536 0.0
C1364 C 0.04956 0.25 0.76349 0.0
C1365 C 0.01568 0.25979 0.75513 0.0
C1366 C 0.9921 0.28451 0.75698 0.0
C1367 C 0.00104 0.29856 0.76704 0.0
H1368 H 0.94556 0.78086 0.28074 0.0
H1369 H 0.09932 0.80015 0.26859 0.0
H1370 H 0.93007 0.75488 0.26365 0.0
H1371 H 0.08426 0.7735 0.25162 0.0
H1372 H 0.05637 0.70039 0.22898 0.0
H1373 H 0.07108 0.7255 0.24646 0.0
H1374 H 0.92049 0.7619 0.24277 0.0
H1375 H 0.90642 0.73776 0.22534 0.0
C1376 C 0.97601 0.7797 0.2744 0.0
C1377 C 0.02411 0.79219 0.27616 0.0
C1378 C 0.96717 0.76471 0.26462 0.0
C1379 C 0.00623 0.76179 0.25636 0.0
C1380 C 0.05386 0.77484 0.25797 0.0
C1381 C 0.06251 0.79008 0.26771 0.0
C1382 C 0.02608 0.71346 0.232 0.0
C1383 C 0.97947 0.71623 0.22587 0.0
C1384 C 0.0347 0.72799 0.24195 0.0
C1385 C 0.99682 0.74561 0.24602 0.0
C1386 C 0.95001 0.74811 0.23999 0.0
C1387 C 0.94167 0.73385 0.23001 0.0
H1388 H 0.05389 0.53519 0.02854 0.0
H1389 H 0.8967 0.55245 0.01813 0.0
H1390 H 0.06732 0.51012 0.01118 0.0
H1391 H 0.90823 0.52543 0.00134 0.0
H1392 H 0.95587 0.49399 0.96694 0.0
H1393 H 0.94502 0.52147 0.98367 0.0
H1394 H 0.04855 0.47025 0.00241 0.0
H1395 H 0.06149 0.44369 0.98529 0.0
C1396 C 0.02202 0.53357 0.02257 0.0
C1397 C 0.97368 0.54529 0.02493 0.0
C1398 C 0.02946 0.51876 0.01267 0.0
C1399 C 0.98863 0.51509 0.00486 0.0
C1400 C 0.94085 0.5277 0.00705 0.0
C1401 C 0.93378 0.54288 0.01686 0.0
C1402 C 0.97589 0.48851 0.97469 0.0
C1403 C 0.00923 0.46664 0.97488 0.0
C1404 C 0.9696 0.50425 0.98433 0.0
C1405 C 0.99572 0.49823 0.99452 0.0
C1406 C 0.02849 0.47594 0.99471 0.0
C1407 C 0.03554 0.46047 0.98496 0.0
H1408 H 0.15528 0.97399 0.09351 0.0
H1409 H 0.26071 0.00362 0.11908 0.0
H1410 H 0.09588 0.95949 0.10842 0.0
H1411 H 0.20111 0.99027 0.13383 0.0
H1412 H 0.08946 0.97524 0.15973 0.0
H1413 H 0.14999 0.96119 0.14495 0.0
H1414 H 0.04182 0.9878 0.11926 0.0
H1415 H 0.98115 1.00068 0.13388 0.0
C1416 C 0.16611 0.97703 0.1023 0.0
C1417 C 0.21164 0.99074 0.10515 0.0
C1418 C 0.13222 0.96868 0.11084 0.0
C1419 C 0.14315 0.97425 0.1223 0.0
C1420 C 0.19135 0.9855 0.12512 0.0
C1421 C 0.22531 0.99358 0.11662 0.0
C1422 C 0.07824 0.97743 0.15091 0.0
C1423 C 0.03151 0.9899 0.14793 0.0
C1424 C 0.1128 0.96934 0.14245 0.0
C1425 C 0.10132 0.97395 0.13094 0.0
C1426 C 0.05207 0.98382 0.12802 0.0
C1427 C 0.01745 0.99163 0.13644 0.0
H1428 H 0.12513 0.25088 0.15802 0.0
H1429 H 0.26118 0.27833 0.14009 0.0
H1430 H 0.07066 0.26534 0.14244 0.0
H1431 H 0.20648 0.29432 0.12467 0.0
H1432 H 0.11452 0.25369 0.09507 0.0
H1433 H 0.16846 0.26711 0.1109 0.0
H1434 H 0.03175 0.29346 0.12911 0.0
H1435 H 0.97759 0.27856 0.11339 0.0
C1436 C 0.14307 0.26094 0.1509 0.0
C1437 C 0.19716 0.26267 0.14999 0.0
C1438 C 0.11185 0.26956 0.14199 0.0
C1439 C 0.13442 0.28041 0.13213 0.0
C1440 C 0.18814 0.28529 0.13198 0.0
C1441 C 0.21941 0.27613 0.14078 0.0
C1442 C 0.09624 0.26297 0.10234 0.0
C1443 C 0.04209 0.26424 0.10326 0.0
C1444 C 0.12715 0.27099 0.1114 0.0
C1445 C 0.10424 0.28077 0.12143 0.0
C1446 C 0.05038 0.28525 0.12165 0.0
C1447 C 0.01942 0.2767 0.11268 0.0
H1448 H 0.0172 0.02952 0.86139 0.0
H1449 H 0.87884 0.00451 0.84366 0.0
H1450 H 0.96415 0.04541 0.87712 0.0
H1451 H 0.82603 0.01882 0.85953 0.0
H1452 H 0.73545 0.03024 0.88898 0.0
H1453 H 0.78892 0.04616 0.87333 0.0
H1454 H 0.92625 0.01781 0.89071 0.0
H1455 H 0.87307 0.00345 0.9065 0.0
C1456 C 0.97531 0.02783 0.86081 0.0
C1457 C 0.95191 0.01504 0.85156 0.0
C1458 C 0.94497 0.03695 0.86978 0.0
C1459 C 0.89104 0.03263 0.86977 0.0
C1460 C 0.86741 0.02256 0.85988 0.0
C1461 C 0.89769 0.01401 0.8508 0.0
C1462 C 0.77728 0.02815 0.88953 0.0
C1463 C 0.80031 0.01487 0.8987 0.0
C1464 C 0.80786 0.03729 0.8806 0.0
C1465 C 0.86165 0.03254 0.88058 0.0
C1466 C 0.88499 0.02192 0.89039 0.0
C1467 C 0.85449 0.01333 0.89943 0.0
H1468 H 0.87767 0.75036 0.90466 0.0
H1469 H 0.0211 0.72905 0.88793 0.0
H1470 H 0.82915 0.73669 0.88807 0.0
H1471 H 0.97238 0.71402 0.8714 0.0
H1472 H 0.88308 0.75741 0.84198 0.0
H1473 H 0.93472 0.74258 0.85795 0.0
H1474 H 0.79721 0.70929 0.87354 0.0
H1475 H 0.74517 0.72554 0.85774 0.0
C1476 C 0.89861 0.74183 0.89756 0.0
C1477 C 0.95298 0.74166 0.89734 0.0
C1478 C 0.8708 0.73365 0.88806 0.0
C1479 C 0.89707 0.72486 0.87826 0.0
C1480 C 0.9512 0.72144 0.87869 0.0
C1481 C 0.97904 0.73009 0.88812 0.0
C1482 C 0.86422 0.74632 0.84868 0.0
C1483 C 0.81015 0.74344 0.8489 0.0
C1484 C 0.89387 0.73749 0.85781 0.0
C1485 C 0.86978 0.72533 0.8672 0.0
C1486 C 0.81658 0.71931 0.8666 0.0
C1487 C 0.78682 0.72864 0.85759 0.0
H1488 H 0.09573 0.47982 0.66274 0.0
H1489 H 0.98316 0.49632 0.63642 0.0
H1490 H 0.15815 0.46607 0.64829 0.0
H1491 H 0.04544 0.48387 0.62211 0.0
H1492 H 0.25999 0.51102 0.62147 0.0
H1493 H 0.20371 0.49593 0.63654 0.0
H1494 H 0.10463 0.45778 0.6118 0.0
H1495 H 0.16033 0.47412 0.59657 0.0
C1496 C 0.08402 0.48005 0.6539 0.0
C1497 C 0.03547 0.49013 0.65065 0.0
C1498 C 0.11967 0.47215 0.64563 0.0
C1499 C 0.10737 0.4746 0.63403 0.0
C1500 C 0.05651 0.48167 0.63093 0.0
C1501 C 0.02087 0.48928 0.63917 0.0
C1502 C 0.2267 0.49902 0.61925 0.0
C1503 C 0.21328 0.4946 0.60786 0.0
C1504 C 0.19474 0.48994 0.62792 0.0
C1505 C 0.14896 0.47604 0.62537 0.0
C1506 C 0.13892 0.46902 0.61401 0.0
C1507 C 0.1706 0.47847 0.6053 0.0
H1508 H 0.25065 0.75613 0.63375 0.0
H1509 H 0.1411 0.7794 0.65975 0.0
H1510 H 0.19051 0.7699 0.61922 0.0
H1511 H 0.081 0.79438 0.64507 0.0
H1512 H 0.07931 0.78392 0.59343 0.0
H1513 H 0.13681 0.79859 0.60864 0.0
H1514 H 0.03041 0.76627 0.63347 0.0
H1515 H 0.97254 0.75284 0.61843 0.0
C1516 C 0.21414 0.76487 0.63637 0.0
C1517 C 0.19962 0.76574 0.64785 0.0
C1518 C 0.17982 0.77323 0.628 0.0
C1519 C 0.13037 0.78279 0.63097 0.0
C1520 C 0.11835 0.7865 0.64252 0.0
C1521 C 0.15264 0.77786 0.65092 0.0
C1522 C 0.06777 0.7806 0.60217 0.0
C1523 C 0.02255 0.76638 0.60476 0.0
C1524 C 0.10056 0.78906 0.61087 0.0
C1525 C 0.08894 0.78297 0.62225 0.0
C1526 C 0.04075 0.77139 0.62483 0.0
C1527 C 0.00778 0.76327 0.61616 0.0
H1528 H 0.73773 0.50478 0.38379 0.0
H1529 H 0.84056 0.52954 0.4108 0.0
H1530 H 0.80006 0.51934 0.36984 0.0
H1531 H 0.90286 0.54524 0.3967 0.0
H1532 H 0.9161 0.5338 0.34519 0.0
H1533 H 0.85525 0.5486 0.35977 0.0
H1534 H 0.95644 0.51688 0.38574 0.0
H1535 H 0.01748 0.50323 0.37134 0.0
C1536 C 0.77319 0.51401 0.38675 0.0
C1537 C 0.78533 0.51505 0.39836 0.0
C1538 C 0.80872 0.52283 0.37872 0.0
C1539 C 0.85702 0.53299 0.38215 0.0
C1540 C 0.86643 0.53692 0.39381 0.0
C1541 C 0.83092 0.52784 0.40187 0.0
C1542 C 0.92576 0.53064 0.35404 0.0
C1543 C 0.97037 0.51646 0.35714 0.0
C1544 C 0.89109 0.5392 0.36238 0.0
C1545 C 0.9003 0.53331 0.37388 0.0
C1546 C 0.94794 0.52184 0.37698 0.0
C1547 C 0.9827 0.51356 0.36868 0.0
H1548 H 0.87852 0.25918 0.34698 0.0
H1549 H 0.73607 0.2329 0.36277 0.0
H1550 H 0.92754 0.24316 0.3631 0.0
H1551 H 0.78539 0.2156 0.37878 0.0
H1552 H 0.87392 0.25398 0.40965 0.0
H1553 H 0.82231 0.24165 0.3933 0.0
H1554 H 0.96047 0.21266 0.37642 0.0
H1555 H 0.01247 0.22637 0.39268 0.0
C1556 C 0.85793 0.24918 0.35375 0.0
C1557 C 0.80359 0.24811 0.35388 0.0
C1558 C 0.88605 0.23962 0.36297 0.0
C1559 C 0.86019 0.22854 0.37237 0.0
C1560 C 0.80623 0.22465 0.3718 0.0
C1561 C 0.77804 0.23463 0.36267 0.0
C1562 C 0.89296 0.24428 0.40258 0.0
C1563 C 0.94713 0.24203 0.40217 0.0
C1564 C 0.86333 0.2369 0.39321 0.0
C1565 C 0.88759 0.22686 0.38339 0.0
C1566 C 0.94098 0.22113 0.38372 0.0
C1567 C 0.9707 0.229 0.393 0.0
H1568 H 0.62436 0.00451 0.5964 0.0
H1569 H 0.76358 0.97971 0.61386 0.0
H1570 H 0.57244 0.99112 0.61258 0.0
H1571 H 0.71146 0.96485 0.62992 0.0
H1572 H 0.6201 0.00503 0.65972 0.0
H1573 H 0.6732 0.99213 0.64366 0.0
H1574 H 0.5364 0.96303 0.62632 0.0
H1575 H 0.48297 0.97739 0.64227 0.0
C1576 C 0.64357 0.9953 0.60356 0.0
C1577 C 0.69783 0.99393 0.60411 0.0
C1578 C 0.61382 0.9873 0.61283 0.0
C1579 C 0.63796 0.97743 0.62269 0.0
C1580 C 0.69188 0.9731 0.62259 0.0
C1581 C 0.72169 0.98161 0.61342 0.0
C1582 C 0.60166 0.99524 0.6526 0.0
C1583 C 0.54753 0.993 0.652 0.0
C1584 C 0.63213 0.98755 0.6434 0.0
C1585 C 0.60882 0.97713 0.63354 0.0
C1586 C 0.55527 0.97175 0.63364 0.0
C1587 C 0.52472 0.97995 0.64275 0.0
H1588 H 0.62859 0.2533 0.65716 0.0
H1589 H 0.76517 0.27962 0.63911 0.0
H1590 H 0.57476 0.26598 0.64119 0.0
H1591 H 0.71108 0.29379 0.62326 0.0
H1592 H 0.62179 0.2498 0.59417 0.0
H1593 H 0.67443 0.26466 0.60997 0.0
H1594 H 0.53628 0.29261 0.62719 0.0
H1595 H 0.48341 0.27633 0.61153 0.0
C1596 C 0.64675 0.26278 0.64993 0.0
C1597 C 0.70087 0.26464 0.64912 0.0
C1598 C 0.6159 0.27036 0.64078 0.0
C1599 C 0.63886 0.28027 0.63079 0.0
C1600 C 0.69248 0.28544 0.63069 0.0
C1601 C 0.7234 0.27732 0.63974 0.0
C1602 C 0.6029 0.25969 0.60122 0.0
C1603 C 0.54868 0.26111 0.60188 0.0
C1604 C 0.63308 0.26855 0.61025 0.0
C1605 C 0.60938 0.27931 0.62 0.0
C1606 C 0.5555 0.28371 0.61996 0.0
C1607 C 0.52527 0.27436 0.61102 0.0
H1608 H 0.38219 1.00131 0.34524 0.0
H1609 H 0.5228 0.0266 0.36203 0.0
H1610 H 0.33149 0.0157 0.36143 0.0
H1611 H 0.47185 0.04241 0.37811 0.0
H1612 H 0.38262 1.00214 0.40826 0.0
H1613 H 0.43462 0.0152 0.39206 0.0
H1614 H 0.29665 0.04433 0.37518 0.0
H1615 H 0.24429 0.02985 0.39127 0.0
C1616 C 0.40198 0.01083 0.35225 0.0
C1617 C 0.45629 0.01202 0.35263 0.0
C1618 C 0.37291 0.01942 0.36152 0.0
C1619 C 0.3978 0.02968 0.37122 0.0
C1620 C 0.45173 0.03389 0.37091 0.0
C1621 C 0.48087 0.02481 0.36173 0.0
C1622 C 0.36368 0.01196 0.40121 0.0
C1623 C 0.30951 0.01414 0.40077 0.0
C1624 C 0.39353 0.01976 0.39194 0.0
C1625 C 0.36954 0.03021 0.38217 0.0
C1626 C 0.316 0.03559 0.38244 0.0
C1627 C 0.28606 0.02729 0.39162 0.0
H1628 H 0.23385 0.73057 0.36318 0.0
H1629 H 0.37369 0.75281 0.34529 0.0
H1630 H 0.28567 0.71696 0.37949 0.0
H1631 H 0.42527 0.7406 0.36166 0.0
H1632 H 0.51455 0.72806 0.39159 0.0
H1633 H 0.46056 0.7134 0.3758 0.0
H1634 H 0.32502 0.74515 0.39278 0.0
H1635 H 0.37864 0.75834 0.40872 0.0
C1636 C 0.27579 0.73214 0.3627 0.0
C1637 C 0.29991 0.74343 0.35317 0.0
C1638 C 0.30542 0.72436 0.37202 0.0
C1639 C 0.35945 0.72834 0.37203 0.0
C1640 C 0.3838 0.73709 0.36199 0.0
C1641 C 0.35422 0.74439 0.3526 0.0
C1642 C 0.47293 0.73119 0.39203 0.0
C1643 C 0.45067 0.74496 0.40115 0.0
C1644 C 0.44206 0.72282 0.38301 0.0
C1645 C 0.38873 0.72874 0.38286 0.0
C1646 C 0.36589 0.7401 0.39258 0.0
C1647 C 0.39666 0.74796 0.4017 0.0
H1648 H 0.7656 0.47715 0.11122 0.0
H1649 H 0.62828 0.50377 0.09354 0.0
H1650 H 0.71209 0.46287 0.12717 0.0
H1651 H 0.57512 0.49102 0.10961 0.0
H1652 H 0.48423 0.47871 0.13941 0.0
H1653 H 0.53683 0.46401 0.12337 0.0
H1654 H 0.67524 0.49068 0.14083 0.0
H1655 H 0.62296 0.50388 0.15695 0.0
C1656 C 0.72382 0.47954 0.1107 0.0
C1657 C 0.70095 0.49225 0.10137 0.0
C1658 C 0.69321 0.47139 0.11981 0.0
C1659 C 0.63953 0.47651 0.11984 0.0
C1660 C 0.61626 0.48664 0.10993 0.0
C1661 C 0.64678 0.49425 0.10072 0.0
C1662 C 0.5261 0.48074 0.13987 0.0
C1663 C 0.54966 0.49311 0.14921 0.0
C1664 C 0.55618 0.47233 0.13072 0.0
C1665 C 0.61008 0.4768 0.13066 0.0
C1666 C 0.63392 0.48674 0.14054 0.0
C1667 C 0.60391 0.49464 0.14978 0.0
H1668 H 0.76624 0.77598 0.13864 0.0
H1669 H 0.63226 0.75049 0.1578 0.0
H1670 H 0.70974 0.79059 0.12326 0.0
H1671 H 0.576 0.76347 0.1423 0.0
H1672 H 0.47881 0.77612 0.11368 0.0
H1673 H 0.53543 0.79071 0.12904 0.0
H1674 H 0.66902 0.76355 0.10995 0.0
H1675 H 0.61262 0.75062 0.09446 0.0
C1676 C 0.72456 0.77386 0.13959 0.0
C1677 C 0.70338 0.76145 0.14918 0.0
C1678 C 0.69225 0.78221 0.13081 0.0
C1679 C 0.63848 0.77753 0.13137 0.0
C1680 C 0.61714 0.76756 0.14153 0.0
C1681 C 0.6494 0.75979 0.15041 0.0
C1682 C 0.52048 0.77401 0.11271 0.0
C1683 C 0.54159 0.76158 0.10311 0.0
C1684 C 0.55287 0.78234 0.12148 0.0
C1685 C 0.60661 0.7776 0.1209 0.0
C1686 C 0.62789 0.76767 0.11073 0.0
C1687 C 0.59556 0.75993 0.10186 0.0
H1688 H 0.34888 0.5266 0.91049 0.0
H1689 H 0.23687 0.50372 0.88496 0.0
H1690 H 0.40774 0.54156 0.89555 0.0
H1691 H 0.29578 0.51735 0.87018 0.0
H1692 H 0.51425 0.50041 0.86853 0.0
H1693 H 0.45735 0.5137 0.88377 0.0
H1694 H 0.3486 0.54549 0.8593 0.0
H1695 H 0.40513 0.53084 0.84389 0.0
C1696 C 0.33657 0.52511 0.90171 0.0
C1697 C 0.28924 0.51312 0.89884 0.0
C1698 C 0.37014 0.53373 0.89316 0.0
C1699 C 0.35708 0.53007 0.88166 0.0
C1700 C 0.30731 0.52064 0.87891 0.0
C1701 C 0.27368 0.51235 0.88742 0.0
C1702 C 0.47865 0.51066 0.86638 0.0
C1703 C 0.46301 0.51365 0.85504 0.0
C1704 C 0.44623 0.51871 0.87516 0.0
C1705 C 0.39773 0.53016 0.87276 0.0
C1706 C 0.3851 0.53605 0.86141 0.0
C1707 C 0.41731 0.5276 0.85259 0.0
H1708 H 0.23797 0.254 0.86914 0.0
H1709 H 0.34253 0.22639 0.84294 0.0
H1710 H 0.29694 0.23848 0.88355 0.0
H1711 H 0.40134 0.20969 0.85751 0.0
H1712 H 0.40853 0.22583 0.90891 0.0
H1713 H 0.34975 0.20946 0.89427 0.0
H1714 H 0.4551 0.23796 0.86836 0.0
H1715 H 0.51406 0.25312 0.88286 0.0
C1716 C 0.27303 0.24394 0.86646 0.0
C1717 C 0.28691 0.24245 0.85495 0.0
C1718 C 0.30659 0.23453 0.87476 0.0
C1719 C 0.35458 0.22337 0.87169 0.0
C1720 C 0.36522 0.21883 0.86012 0.0
C1721 C 0.33176 0.22852 0.8518 0.0
C1722 C 0.41955 0.22793 0.90007 0.0
C1723 C 0.4646 0.24174 0.89698 0.0
C1724 C 0.3861 0.21844 0.8917 0.0
C1725 C 0.39695 0.2231 0.88016 0.0
C1726 C 0.44525 0.23399 0.87714 0.0
C1727 C 0.47881 0.24317 0.88549 0.0
H1728 H 0.96407 0.13719 0.05926 0.0
H1729 H 0.0654 0.19725 0.07277 0.0
H1730 H 0.03938 0.10812 0.05653 0.0
H1731 H 0.1402 0.16857 0.06988 0.0
H1732 H 0.17451 0.05856 0.07463 0.0
H1733 H 0.09844 0.0864 0.07167 0.0
H1734 H 0.19429 0.1441 0.05477 0.0
H1735 H 0.27069 0.11598 0.05758 0.0
C1736 C 0.00247 0.14441 0.06137 0.0
C1737 C 0.00879 0.16942 0.0663 0.0
C1738 C 0.04549 0.12775 0.05987 0.0
C1739 C 0.09568 0.13607 0.06301 0.0
C1740 C 0.10218 0.16167 0.06728 0.0
C1741 C 0.05924 0.17805 0.06899 0.0
C1742 C 0.17926 0.07695 0.07008 0.0
C1743 C 0.22875 0.08516 0.06642 0.0
C1744 C 0.13557 0.09282 0.06832 0.0
C1745 C 0.14041 0.11748 0.06302 0.0
C1746 C 0.18947 0.12522 0.05892 0.0
C1747 C 0.23313 0.10908 0.06049 0.0
H1748 H 0.06513 0.0567 0.17843 0.0
H1749 H 0.96926 0.11536 0.19478 0.0
H1750 H 0.14168 0.08403 0.1815 0.0
H1751 H 0.04626 0.14292 0.19777 0.0
H1752 H 0.17612 0.19501 0.1799 0.0
H1753 H 0.10097 0.1668 0.18301 0.0
H1754 H 0.20125 0.10581 0.19612 0.0
H1755 H 0.27703 0.1344 0.19312 0.0
C1756 C 0.06054 0.07524 0.18287 0.0
C1757 C 0.01099 0.08397 0.18627 0.0
C1758 C 0.10454 0.09082 0.1847 0.0
C1759 C 0.10002 0.11569 0.18983 0.0
C1760 C 0.05088 0.12389 0.19374 0.0
C1761 C 0.00685 0.10807 0.19207 0.0
C1762 C 0.18214 0.17578 0.18366 0.0
C1763 C 0.23257 0.16685 0.18619 0.0
C1764 C 0.13896 0.15968 0.18552 0.0
C1765 C 0.14513 0.13405 0.18978 0.0
C1766 C 0.19535 0.12546 0.19278 0.0
C1767 C 0.23865 0.14184 0.19112 0.0
H1768 H 0.71368 0.88865 0.94266 0.0
H1769 H 0.81974 0.94871 0.93098 0.0
H1770 H 0.78749 0.85913 0.94614 0.0
H1771 H 0.89287 0.91949 0.93444 0.0
H1772 H 0.92044 0.80867 0.9286 0.0
H1773 H 0.84594 0.83704 0.93205 0.0
H1774 H 0.94582 0.89391 0.94837 0.0
H1775 H 0.02096 0.86533 0.94491 0.0
C1776 C 0.75273 0.89578 0.94112 0.0
C1777 C 0.76086 0.92087 0.93642 0.0
C1778 C 0.79494 0.87886 0.94305 0.0
C1779 C 0.84603 0.88692 0.9405 0.0
C1780 C 0.85418 0.91271 0.9366 0.0
C1781 C 0.81214 0.92941 0.93452 0.0
C1782 C 0.9265 0.827 0.93312 0.0
C1783 C 0.97678 0.83491 0.93635 0.0
C1784 C 0.88361 0.84317 0.93519 0.0
C1785 C 0.88994 0.86781 0.94043 0.0
C1786 C 0.93979 0.8751 0.94424 0.0
C1787 C 0.98277 0.85871 0.9423 0.0
H1788 H 0.71814 0.87148 0.80651 0.0
H1789 H 0.82402 0.80921 0.81585 0.0
H1790 H 0.79226 0.90099 0.80334 0.0
H1791 H 0.89743 0.83842 0.81277 0.0
H1792 H 0.02631 0.89335 0.80402 0.0
H1793 H 0.95066 0.86567 0.79986 0.0
H1794 H 0.8517 0.92097 0.81745 0.0
H1795 H 0.92659 0.94848 0.82153 0.0
C1796 C 0.75718 0.86389 0.80757 0.0
C1797 C 0.76523 0.83814 0.81156 0.0
C1798 C 0.79961 0.88081 0.80584 0.0
C1799 C 0.85081 0.87213 0.8079 0.0
C1800 C 0.85872 0.84574 0.81101 0.0
C1801 C 0.8165 0.82902 0.81287 0.0
C1802 C 0.98822 0.89985 0.80677 0.0
C1803 C 0.98263 0.92292 0.81325 0.0
C1804 C 0.94491 0.88395 0.80442 0.0
C1805 C 0.89512 0.89101 0.80838 0.0
C1806 C 0.88925 0.91502 0.81417 0.0
C1807 C 0.93242 0.93069 0.81661 0.0
H1808 H 0.96822 0.63851 0.55847 0.0
H1809 H 0.06537 0.69806 0.57378 0.0
H1810 H 0.0444 0.61 0.55615 0.0
H1811 H 0.14125 0.6698 0.5713 0.0
H1812 H 0.17466 0.5591 0.57482 0.0
H1813 H 0.09957 0.58742 0.57159 0.0
H1814 H 0.19925 0.6462 0.55654 0.0
H1815 H 0.27476 0.61754 0.55962 0.0
C1816 C 0.00595 0.64577 0.56108 0.0
C1817 C 0.01068 0.67047 0.56638 0.0
C1818 C 0.04948 0.62941 0.5598 0.0
C1819 C 0.09876 0.63764 0.56357 0.0
C1820 C 0.10393 0.66298 0.56823 0.0
C1821 C 0.06036 0.67911 0.5697 0.0
C1822 C 0.18049 0.57783 0.57061 0.0
C1823 C 0.23071 0.58613 0.56752 0.0
C1824 C 0.13738 0.594 0.5687 0.0
C1825 C 0.14351 0.61907 0.56384 0.0
C1826 C 0.19342 0.627 0.56034 0.0
C1827 C 0.23656 0.61055 0.56204 0.0
H1828 H 0.26852 0.64033 0.69441 0.0
H1829 H 0.17017 0.69759 0.67787 0.0
H1830 H 0.19246 0.61221 0.69771 0.0
H1831 H 0.09465 0.66977 0.68127 0.0
H1832 H 0.96086 0.62021 0.69369 0.0
H1833 H 0.03676 0.64885 0.69625 0.0
H1834 H 0.13646 0.58707 0.6836 0.0
H1835 H 0.06108 0.55872 0.68095 0.0
C1836 C 0.23061 0.64716 0.6917 0.0
C1837 C 0.22547 0.67106 0.68578 0.0
C1838 C 0.18712 0.63103 0.69355 0.0
C1839 C 0.13754 0.63875 0.68973 0.0
C1840 C 0.13212 0.66335 0.68442 0.0
C1841 C 0.17555 0.67921 0.68239 0.0
C1842 C -0.00087 0.61258 0.69172 0.0
C1843 C 0.00491 0.5873 0.68703 0.0
C1844 C 0.04253 0.62901 0.69312 0.0
C1845 C 0.0926 0.62026 0.69008 0.0
C1846 C 0.09858 0.59435 0.68612 0.0
C1847 C 0.05527 0.57815 0.68453 0.0
H1848 H 0.02314 0.3713 0.44476 0.0
H1849 H 0.92208 0.30909 0.43309 0.0
H1850 H 0.94744 0.4002 0.44715 0.0
H1851 H 0.84695 0.33768 0.43556 0.0
H1852 H 0.71531 0.39137 0.44562 0.0
H1853 H 0.79161 0.36375 0.44938 0.0
H1854 H 0.88898 0.42015 0.43206 0.0
H1855 H 0.81322 0.44749 0.42824 0.0
C1856 C 0.98474 0.36359 0.44299 0.0
C1857 C 0.97861 0.33801 0.43864 0.0
C1858 C 0.94146 0.38015 0.4443 0.0
C1859 C 0.89122 0.37125 0.4415 0.0
C1860 C 0.88496 0.34509 0.43789 0.0
C1861 C 0.92812 0.32875 0.4364 0.0
C1862 C 0.75318 0.39809 0.44283 0.0
C1863 C 0.75812 0.42147 0.43653 0.0
C1864 C 0.7968 0.38224 0.44494 0.0
C1865 C 0.84632 0.38973 0.44098 0.0
C1866 C 0.85156 0.41392 0.43532 0.0
C1867 C 0.80799 0.42949 0.43305 0.0
H1868 H 0.82648 0.31111 0.31896 0.0
H1869 H 0.72211 0.37469 0.31055 0.0
H1870 H 0.90065 0.34037 0.31659 0.0
H1871 H 0.79687 0.40434 0.30829 0.0
H1872 H 0.93503 0.44837 0.32749 0.0
H1873 H 0.85861 0.42165 0.32346 0.0
H1874 H 0.95231 0.36913 0.30314 0.0
H1875 H 0.02919 0.39605 0.30712 0.0
C1876 C 0.81952 0.33125 0.31634 0.0
C1877 C 0.76852 0.34066 0.31499 0.0
C1878 C 0.86207 0.348 0.31493 0.0
C1879 C 0.85466 0.37471 0.31231 0.0
C1880 C 0.80373 0.38385 0.31036 0.0
C1881 C 0.761 0.36688 0.31157 0.0
C1882 C 0.93929 0.43138 0.322 0.0
C1883 C 0.9884 0.42417 0.31774 0.0
C1884 C 0.89531 0.41619 0.31961 0.0
C1885 C 0.89941 0.39322 0.31302 0.0
C1886 C 0.94802 0.38666 0.3083 0.0
C1887 C 0.992 0.40211 0.31055 0.0
H1888 H 0.46406 0.13582 0.55756 0.0
H1889 H 0.56713 0.19758 0.56881 0.0
H1890 H 0.53916 0.10679 0.55461 0.0
H1891 H 0.64164 0.16887 0.56581 0.0
H1892 H 0.77184 0.11444 0.55589 0.0
H1893 H 0.69606 0.14241 0.55208 0.0
H1894 H 0.59762 0.08662 0.56948 0.0
H1895 H 0.67277 0.05896 0.57333 0.0
C1896 C 0.50276 0.14343 0.55908 0.0
C1897 C 0.50968 0.16887 0.56352 0.0
C1898 C 0.5457 0.12679 0.55746 0.0
C1899 C 0.59634 0.13549 0.56005 0.0
C1900 C 0.60332 0.16161 0.56365 0.0
C1901 C 0.56052 0.17802 0.56544 0.0
C1902 C 0.73383 0.10794 0.55869 0.0
C1903 C 0.72842 0.08465 0.56503 0.0
C1904 C 0.6905 0.12397 0.55654 0.0
C1905 C 0.64084 0.11676 0.56051 0.0
C1906 C 0.63513 0.09264 0.56621 0.0
C1907 C 0.67838 0.07689 0.5685 0.0
H1908 H 0.56987 0.05946 0.683 0.0
H1909 H 0.46928 0.12145 0.69513 0.0
H1910 H 0.64519 0.08778 0.68565 0.0
H1911 H 0.54519 0.15006 0.69773 0.0
H1912 H 0.67814 0.19793 0.67886 0.0
H1913 H 0.60277 0.17046 0.68275 0.0
H1914 H 0.7014 0.11342 0.69931 0.0
H1915 H 0.77741 0.1412 0.69547 0.0
C1916 C 0.56397 0.07899 0.68647 0.0
C1917 C 0.51354 0.08831 0.68876 0.0
C1918 C 0.60726 0.09518 0.68806 0.0
C1919 C 0.60119 0.12123 0.69183 0.0
C1920 C 0.55103 0.13011 0.69474 0.0
C1921 C 0.50762 0.1137 0.69331 0.0
C1922 C 0.68377 0.17976 0.68351 0.0
C1923 C 0.7339 0.17161 0.68674 0.0
C1924 C 0.64041 0.1641 0.68583 0.0
C1925 C 0.64607 0.13971 0.69131 0.0
C1926 C 0.69588 0.13207 0.69502 0.0
C1927 C 0.73934 0.148 0.69286 0.0
H1928 H 0.43445 0.8097 0.43286 0.0
H1929 H 0.53768 0.86929 0.44608 0.0
H1930 H 0.36025 0.83812 0.43645 0.0
H1931 H 0.46276 0.89799 0.44971 0.0
H1932 H 0.33106 0.9493 0.43231 0.0
H1933 H 0.40567 0.92114 0.43586 0.0
H1934 H 0.30462 0.86209 0.45031 0.0
H1935 H 0.22931 0.8905 0.44672 0.0
C1936 C 0.44119 0.82871 0.43677 0.0
C1937 C 0.49205 0.83737 0.43906 0.0
C1938 C 0.3985 0.84494 0.43891 0.0
C1939 C 0.40552 0.87041 0.4433 0.0
C1940 C 0.45614 0.87853 0.44624 0.0
C1941 C 0.499 0.86207 0.44422 0.0
C1942 C 0.32473 0.93053 0.43646 0.0
C1943 C 0.27413 0.92199 0.4391 0.0
C1944 C 0.36768 0.91446 0.43859 0.0
C1945 C 0.36115 0.88927 0.4433 0.0
C1946 C 0.31085 0.88133 0.44658 0.0
C1947 C 0.26776 0.89763 0.44458 0.0
H1948 H 0.43144 0.94772 0.3201 0.0
H1949 H 0.53395 0.88817 0.30653 0.0
H1950 H 0.35706 0.91915 0.31681 0.0
H1951 H 0.45897 0.85931 0.30327 0.0
H1952 H 0.22629 0.86654 0.30618 0.0
H1953 H 0.30159 0.89495 0.30264 0.0
H1954 H 0.40216 0.8365 0.31767 0.0
H1955 H 0.32743 0.80832 0.32122 0.0
C1956 C 0.43795 0.9287 0.31619 0.0
C1957 C 0.48865 0.9201 0.31368 0.0
C1958 C 0.3952 0.91238 0.31422 0.0
C1959 C 0.4021 0.8869 0.30983 0.0
C1960 C 0.45251 0.87881 0.30672 0.0
C1961 C 0.49537 0.89536 0.30853 0.0
C1962 C 0.26464 0.85953 0.30847 0.0
C1963 C 0.27081 0.83532 0.31409 0.0
C1964 C 0.3077 0.87584 0.3065 0.0
C1965 C 0.35782 0.86803 0.30993 0.0
C1966 C 0.36425 0.84302 0.31483 0.0
C1967 C 0.32127 0.82695 0.31694 0.0
H1968 H 0.77441 0.61997 0.05769 0.0
H1969 H 0.67503 0.55839 0.07063 0.0
H1970 H 0.69804 0.64819 0.05491 0.0
H1971 H 0.59923 0.58632 0.06779 0.0
H1972 H 0.56409 0.6966 0.0733 0.0
H1973 H 0.64003 0.66924 0.06974 0.0
H1974 H 0.54266 0.61088 0.0537 0.0
H1975 H 0.46609 0.63857 0.05719 0.0
C1976 C 0.73624 0.61223 0.05967 0.0
C1977 C 0.73081 0.58706 0.06448 0.0
C1978 C 0.69257 0.62841 0.05813 0.0
C1979 C 0.6426 0.61952 0.06118 0.0
C1980 C 0.63701 0.5937 0.06526 0.0
C1981 C 0.68058 0.57775 0.06697 0.0
C1982 C 0.55888 0.67816 0.06881 0.0
C1983 C 0.50895 0.66963 0.06562 0.0
C1984 C 0.60255 0.66256 0.0667 0.0
C1985 C 0.59739 0.63784 0.06147 0.0
C1986 C 0.54779 0.6298 0.05779 0.0
C1987 C 0.50401 0.64568 0.05974 0.0
H1988 H 0.47289 0.61847 0.19421 0.0
H1989 H 0.57514 0.55801 0.18131 0.0
H1990 H 0.54813 0.64725 0.19735 0.0
H1991 H 0.64979 0.58649 0.18451 0.0
H1992 H 0.78063 0.63942 0.19541 0.0
H1993 H 0.70473 0.61123 0.1988 0.0
H1994 H 0.60614 0.66904 0.18274 0.0
H1995 H 0.68142 0.69691 0.17929 0.0
C1996 C 0.51144 0.61109 0.19232 0.0
C1997 C 0.51804 0.5861 0.1874 0.0
C1998 C 0.55446 0.62759 0.19406 0.0
C1999 C 0.6049 0.61918 0.19113 0.0
C2000 C 0.61162 0.5935 0.18695 0.0
C2001 C 0.56872 0.57725 0.18504 0.0
C2002 C 0.74256 0.64631 0.19284 0.0
C2003 C 0.7371 0.67024 0.18696 0.0
C2004 C 0.69918 0.63015 0.19474 0.0
C2005 C 0.64946 0.63787 0.191 0.0
C2006 C 0.64372 0.66261 0.18582 0.0
C2007 C 0.68701 0.67849 0.18376 0.0
H2008 H 0.31533 0.44784 0.93137 0.0
H2009 H 0.21533 0.38566 0.9435 0.0
H2010 H 0.39095 0.41964 0.93399 0.0
H2011 H 0.29152 0.35712 0.94602 0.0
H2012 H 0.42659 0.30974 0.92734 0.0
H2013 H 0.35035 0.33691 0.93099 0.0
H2014 H 0.44673 0.39426 0.94797 0.0
H2015 H 0.52346 0.36682 0.94438 0.0
C2016 C 0.30965 0.42828 0.93483 0.0
C2017 C 0.25932 0.41891 0.93716 0.0
C2018 C 0.35308 0.41217 0.93639 0.0
C2019 C 0.34725 0.3861 0.94016 0.0
C2020 C 0.29716 0.3771 0.94305 0.0
C2021 C 0.25361 0.39346 0.94168 0.0
C2022 C 0.4315 0.32792 0.93203 0.0
C2023 C 0.48123 0.33624 0.93547 0.0
C2024 C 0.38766 0.34339 0.93421 0.0
C2025 C 0.39247 0.36779 0.93973 0.0
C2026 C 0.44185 0.3756 0.94364 0.0
C2027 C 0.48574 0.35986 0.94162 0.0
H2028 H 0.5291 0.38853 0.80814 0.0
H2029 H 0.42846 0.44836 0.82214 0.0
H2030 H 0.45369 0.35968 0.80539 0.0
H2031 H 0.3535 0.4198 0.81928 0.0
H2032 H 0.22199 0.36699 0.80798 0.0
H2033 H 0.29753 0.3955 0.80476 0.0
H2034 H 0.39689 0.33734 0.82035 0.0
H2035 H 0.32181 0.30914 0.82368 0.0
C2036 C 0.49081 0.39577 0.81036 0.0
C2037 C 0.48479 0.42063 0.81544 0.0
C2038 C 0.4477 0.37922 0.80884 0.0
C2039 C 0.39767 0.38743 0.81215 0.0
C2040 C 0.39138 0.41296 0.81654 0.0
C2041 C 0.43443 0.42926 0.81825 0.0
C2042 C 0.26013 0.36009 0.81049 0.0
C2043 C 0.26585 0.33592 0.81618 0.0
C2044 C 0.30331 0.37644 0.80869 0.0
C2045 C 0.35315 0.3687 0.81233 0.0
C2046 C 0.35918 0.3438 0.81735 0.0
C2047 C 0.31604 0.32771 0.81933 0.0
H2048 H 0.45599 0.93816 0.07638 0.0
H2049 H 0.32132 0.94921 0.05517 0.0
H2050 H 0.45057 0.89058 0.07352 0.0
H2051 H 0.31567 0.90148 0.05214 0.0
H2052 H 0.28242 0.81678 0.06755 0.0
H2053 H 0.29171 0.86439 0.06473 0.0
H2054 H 0.45711 0.8544 0.05994 0.0
H2055 H 0.44751 0.80708 0.06295 0.0
C2056 C 0.42627 0.93031 0.07081 0.0
C2057 C 0.38943 0.94705 0.06589 0.0
C2058 C 0.42303 0.90313 0.06915 0.0
C2059 C 0.38256 0.89223 0.06261 0.0
C2060 C 0.347 0.90926 0.05729 0.0
C2061 C 0.35048 0.93649 0.05891 0.0
C2062 C 0.32034 0.82482 0.06556 0.0
C2063 C 0.36426 0.80853 0.06547 0.0
C2064 C 0.32579 0.85201 0.06394 0.0
C2065 C 0.37532 0.8632 0.06224 0.0
C2066 C 0.41862 0.84646 0.06141 0.0
C2067 C 0.41313 0.81941 0.06304 0.0
H2068 H 0.964 0.44153 0.07319 0.0
H2069 H 0.82714 0.45034 0.05248 0.0
H2070 H 0.96042 0.39381 0.07062 0.0
H2071 H 0.82366 0.40262 0.04962 0.0
H2072 H 0.79013 0.31951 0.06563 0.0
H2073 H 0.80028 0.36681 0.06227 0.0
H2074 H 0.96596 0.356 0.05824 0.0
H2075 H 0.95542 0.30895 0.06185 0.0
C2076 C 0.93449 0.43321 0.0677 0.0
C2077 C 0.8963 0.44935 0.06289 0.0
C2078 C 0.9322 0.40591 0.06622 0.0
C2079 C 0.89145 0.39433 0.05997 0.0
C2080 C 0.85512 0.41085 0.0546 0.0
C2081 C 0.85745 0.43812 0.05609 0.0
C2082 C 0.82833 0.32728 0.0637 0.0
C2083 C 0.87198 0.31083 0.06398 0.0
C2084 C 0.83431 0.35431 0.06177 0.0
C2085 C 0.88411 0.36526 0.06008 0.0
C2086 C 0.92725 0.34832 0.05968 0.0
C2087 C 0.92122 0.3214 0.06165 0.0
H2088 H 0.29139 0.30749 0.19145 0.0
H2089 H 0.4559 0.31528 0.18547 0.0
H2090 H 0.2844 0.35493 0.19456 0.0
H2091 H 0.44925 0.36291 0.18829 0.0
H2092 H 0.42953 0.4474 0.1974 0.0
H2093 H 0.4315 0.39984 0.20066 0.0
H2094 H 0.28844 0.39184 0.18169 0.0
H2095 H 0.28637 0.4395 0.17874 0.0
C2096 C 0.32626 0.31943 0.19109 0.0
C2097 C 0.37422 0.30797 0.18829 0.0
C2098 C 0.32223 0.34656 0.19275 0.0
C2099 C 0.36609 0.3628 0.19155 0.0
C2100 C 0.41475 0.35099 0.18941 0.0
C2101 C 0.41874 0.32376 0.18779 0.0
C2102 C 0.39776 0.43541 0.19428 0.0
C2103 C 0.35749 0.44685 0.18795 0.0
C2104 C 0.39914 0.40822 0.19602 0.0
C2105 C 0.36043 0.39196 0.19136 0.0
C2106 C 0.31856 0.40376 0.18554 0.0
C2107 C 0.31718 0.43101 0.18384 0.0
H2108 H 0.77813 0.93824 0.17698 0.0
H2109 H 0.9157 0.95052 0.19714 0.0
H2110 H 0.78528 0.89074 0.17996 0.0
H2111 H 0.92299 0.90297 0.20032 0.0
H2112 H 0.95897 0.81913 0.18477 0.0
H2113 H 0.94707 0.86653 0.18771 0.0
H2114 H 0.78278 0.85401 0.19319 0.0
H2115 H 0.79499 0.80687 0.19004 0.0
C2116 C 0.80872 0.9307 0.18241 0.0
C2117 C 0.84594 0.94776 0.18698 0.0
C2118 C 0.81301 0.90355 0.18412 0.0
C2119 C 0.85492 0.89303 0.19035 0.0
C2120 C 0.8906 0.91042 0.1954 0.0
C2121 C 0.88614 0.93757 0.19371 0.0
C2122 C 0.92077 0.82657 0.18694 0.0
C2123 C 0.8779 0.80961 0.1872 0.0
C2124 C 0.9138 0.85365 0.18863 0.0
C2125 C 0.86379 0.86409 0.19057 0.0
C2126 C 0.82159 0.84668 0.19154 0.0
C2127 C 0.8286 0.81973 0.18983 0.0
H2128 H 0.56055 0.20197 0.9419 0.0
H2129 H 0.71792 0.18974 0.93053 0.0
H2130 H 0.55053 0.15469 0.94515 0.0
H2131 H 0.70816 0.14227 0.9336 0.0
H2132 H 0.68572 0.05866 0.94389 0.0
H2133 H 0.69389 0.10604 0.94709 0.0
H2134 H 0.5432 0.1179 0.9317 0.0
H2135 H 0.53526 0.07037 0.92864 0.0
C2136 C 0.59345 0.18909 0.94042 0.0
C2137 C 0.64014 0.19925 0.93609 0.0
C2138 C 0.58759 0.16207 0.94216 0.0
C2139 C 0.62833 0.14469 0.93954 0.0
C2140 C 0.67619 0.15516 0.93583 0.0
C2141 C 0.68198 0.18227 0.93408 0.0
C2142 C 0.65371 0.07144 0.94156 0.0
C2143 C 0.60968 0.06109 0.93612 0.0
C2144 C 0.6586 0.09852 0.94327 0.0
C2145 C 0.6195 0.11577 0.93955 0.0
C2146 C 0.57382 0.10513 0.93478 0.0
C2147 C 0.56904 0.07796 0.93304 0.0
H2148 H 0.21066 0.68857 0.92937 0.0
H2149 H 0.06206 0.69938 0.9456 0.0
H2150 H 0.20465 0.64107 0.9326 0.0
H2151 H 0.05596 0.652 0.94907 0.0
H2152 H 0.03192 0.56758 0.93345 0.0
H2153 H 0.04053 0.61515 0.93626 0.0
H2154 H 0.20127 0.60452 0.94591 0.0
H2155 H 0.19241 0.55713 0.94288 0.0
C2156 C 0.17772 0.68077 0.93401 0.0
C2157 C 0.13706 0.69738 0.93734 0.0
C2158 C 0.17407 0.65362 0.93586 0.0
C2159 C 0.12953 0.64269 0.94102 0.0
C2160 C 0.09039 0.65972 0.94495 0.0
C2161 C 0.0941 0.6868 0.94309 0.0
C2162 C 0.06841 0.57546 0.93653 0.0
C2163 C 0.11139 0.55893 0.93803 0.0
C2164 C 0.07353 0.60265 0.93813 0.0
C2165 C 0.12182 0.61367 0.94122 0.0
C2166 C 0.16383 0.59673 0.94338 0.0
C2167 C 0.15866 0.56964 0.94176 0.0
H2168 H 0.63913 0.69877 0.7976 0.0
H2169 H 0.57043 0.68864 0.83073 0.0
H2170 H 0.64968 0.65073 0.7959 0.0
H2171 H 0.58144 0.64096 0.82914 0.0
H2172 H 0.69103 0.57108 0.83079 0.0
H2173 H 0.67769 0.6184 0.8282 0.0
H2174 H 0.59186 0.60334 0.79738 0.0
H2175 H 0.60466 0.55571 0.80011 0.0
C2176 C 0.6243 0.68614 0.80428 0.0
C2177 C 0.60368 0.69713 0.81426 0.0
C2178 C 0.63081 0.6588 0.80336 0.0
C2179 C 0.61733 0.64237 0.8125 0.0
C2180 C 0.59275 0.65332 0.82206 0.0
C2181 C 0.58577 0.68047 0.82291 0.0
C2182 C 0.67088 0.57799 0.82327 0.0
C2183 C 0.64869 0.55999 0.81567 0.0
C2184 C 0.66272 0.60493 0.82185 0.0
C2185 C 0.63282 0.61433 0.81272 0.0
C2186 C 0.61477 0.59648 0.80451 0.0
C2187 C 0.62245 0.56937 0.80602 0.0
H2188 H 0.14687 0.20185 0.80228 0.0
H2189 H 0.06037 0.18472 0.83279 0.0
H2190 H 0.16158 0.15443 0.7993 0.0
H2191 H 0.07607 0.1376 0.82999 0.0
H2192 H 0.19212 0.06941 0.83171 0.0
H2193 H 0.17949 0.11701 0.83002 0.0
H2194 H 0.09829 0.10564 0.79834 0.0
H2195 H 0.11024 0.05771 0.80016 0.0
C2196 C 0.12964 0.18785 0.80812 0.0
C2197 C 0.10289 0.19671 0.81781 0.0
C2198 C 0.13838 0.16087 0.80646 0.0
C2199 C 0.1208 0.14262 0.81455 0.0
C2200 C 0.09055 0.15143 0.82373 0.0
C2201 C 0.08124 0.17826 0.82529 0.0
C2202 C 0.1735 0.0772 0.82417 0.0
C2203 C 0.15222 0.06013 0.81605 0.0
C2204 C 0.16573 0.10431 0.82327 0.0
C2205 C 0.13721 0.11475 0.81415 0.0
C2206 C 0.12029 0.09792 0.80544 0.0
C2207 C 0.12755 0.07065 0.80643 0.0
H2208 H 0.31079 0.31799 0.58264 0.0
H2209 H 0.38997 0.30785 0.55064 0.0
H2210 H 0.32248 0.36568 0.58126 0.0
H2211 H 0.40101 0.35591 0.54912 0.0
H2212 H 0.35256 0.45116 0.55303 0.0
H2213 H 0.33986 0.40359 0.55008 0.0
H2214 H 0.42142 0.3879 0.58139 0.0
H2215 H 0.435 0.43517 0.58417 0.0
C2216 C 0.32877 0.32615 0.57509 0.0
C2217 C 0.34947 0.30948 0.56674 0.0
C2218 C 0.33601 0.3533 0.57436 0.0
C2219 C 0.36345 0.36426 0.56519 0.0
C2220 C 0.3799 0.34782 0.55628 0.0
C2221 C 0.37319 0.32047 0.5571 0.0
C2222 C 0.36931 0.43739 0.55903 0.0
C2223 C 0.3943 0.44659 0.56888 0.0
C2224 C 0.36174 0.41031 0.55739 0.0
C2225 C 0.37872 0.3923 0.56564 0.0
C2226 C 0.4073 0.40151 0.575 0.0
C2227 C 0.41543 0.42843 0.57655 0.0
H2228 H 0.90691 0.80494 0.55346 0.0
H2229 H 0.77288 0.81568 0.57491 0.0
H2230 H 0.91224 0.8526 0.55046 0.0
H2231 H 0.77809 0.8633 0.5721 0.0
H2232 H 0.78425 0.94764 0.56242 0.0
H2233 H 0.77245 0.90053 0.55914 0.0
H2234 H 0.93781 0.88872 0.56312 0.0
H2235 H 0.94926 0.93609 0.56622 0.0
C2236 C 0.87758 0.81756 0.5572 0.0
C2237 C 0.839 0.80689 0.56425 0.0
C2238 C 0.88097 0.84479 0.55562 0.0
C2239 C 0.84584 0.86179 0.56109 0.0
C2240 C 0.80536 0.8508 0.56763 0.0
C2241 C 0.80214 0.82357 0.56923 0.0
C2242 C 0.81812 0.93496 0.56228 0.0
C2243 C 0.86764 0.94528 0.56455 0.0
C2244 C 0.81137 0.90801 0.5605 0.0
C2245 C 0.85405 0.8908 0.56099 0.0
C2246 C 0.90414 0.90145 0.56257 0.0
C2247 C 0.91085 0.92852 0.56435 0.0
H2248 H 0.42258 0.94964 0.69928 0.0
H2249 H 0.28097 0.94302 0.67999 0.0
H2250 H 0.42471 0.90183 0.7018 0.0
H2251 H 0.28328 0.89518 0.68216 0.0
H2252 H 0.28672 0.80989 0.69026 0.0
H2253 H 0.27856 0.85699 0.69405 0.0
H2254 H 0.44413 0.86605 0.68907 0.0
H2255 H 0.45192 0.81868 0.68562 0.0
C2256 C 0.39105 0.93787 0.6959 0.0
C2257 C 0.35117 0.94976 0.68961 0.0
C2258 C 0.39259 0.91053 0.69719 0.0
C2259 C 0.35449 0.89458 0.69209 0.0
C2260 C 0.31291 0.90681 0.68634 0.0
C2261 C 0.31135 0.93418 0.6851 0.0
C2262 C 0.32142 0.82198 0.69028 0.0
C2263 C 0.36995 0.81089 0.6877 0.0
C2264 C 0.31675 0.84894 0.69235 0.0
C2265 C 0.36054 0.86542 0.69175 0.0
C2266 C 0.40964 0.85395 0.68974 0.0
C2267 C 0.41427 0.82687 0.68774 0.0
H2268 H 0.91746 0.45067 0.69793 0.0
H2269 H 0.77477 0.43966 0.67941 0.0
H2270 H 0.92411 0.40312 0.70096 0.0
H2271 H 0.78145 0.39207 0.68215 0.0
H2272 H 0.79315 0.30757 0.6911 0.0
H2273 H 0.78157 0.35458 0.69472 0.0
H2274 H 0.94515 0.36713 0.68826 0.0
H2275 H 0.95642 0.31988 0.68494 0.0
C2276 C 0.88668 0.438 0.69484 0.0
C2277 C 0.8452 0.44858 0.68861 0.0
C2278 C 0.89077 0.41081 0.69644 0.0
C2279 C 0.8536 0.39371 0.69172 0.0
C2280 C 0.81043 0.40462 0.68604 0.0
C2281 C 0.80638 0.43184 0.68447 0.0
C2282 C 0.82677 0.3204 0.6908 0.0
C2283 C 0.87568 0.31034 0.6878 0.0
C2284 C 0.82012 0.3473 0.69276 0.0
C2285 C 0.86224 0.36472 0.69165 0.0
C2286 C 0.91192 0.35428 0.68931 0.0
C2287 C 0.91855 0.32727 0.6874 0.0
H2288 H 0.71518 0.6894 0.42827 0.0
H2289 H 0.57546 0.69954 0.44796 0.0
H2290 H 0.70865 0.64169 0.43055 0.0
H2291 H 0.56909 0.65185 0.45057 0.0
H2292 H 0.5337 0.56927 0.43449 0.0
H2293 H 0.54583 0.61646 0.43785 0.0
H2294 H 0.71052 0.6036 0.44263 0.0
H2295 H 0.69804 0.55669 0.43895 0.0
C2296 C 0.68431 0.68134 0.43348 0.0
C2297 C 0.64622 0.69788 0.43807 0.0
C2298 C 0.68035 0.65405 0.43479 0.0
C2299 C 0.63803 0.64287 0.44068 0.0
C2300 C 0.60171 0.65975 0.44586 0.0
C2301 C 0.60567 0.68701 0.44451 0.0
C2302 C 0.57209 0.5766 0.43656 0.0
C2303 C 0.61493 0.55962 0.43649 0.0
C2304 C 0.57921 0.60356 0.4385 0.0
C2305 C 0.62934 0.61389 0.44043 0.0
C2306 C 0.67161 0.59642 0.441 0.0
C2307 C 0.66447 0.56958 0.439 0.0
H2308 H 0.09929 0.19936 0.45477 0.0
H2309 H 0.18986 0.18987 0.42422 0.0
H2310 H 0.09051 0.15123 0.45632 0.0
H2311 H 0.18069 0.14205 0.42564 0.0
H2312 H 0.07571 0.07101 0.42078 0.0
H2313 H 0.08587 0.11843 0.42359 0.0
H2314 H 0.15074 0.10445 0.45686 0.0
H2315 H 0.14118 0.05666 0.45392 0.0
C2316 C 0.11917 0.18688 0.4487 0.0
C2317 C 0.14558 0.19806 0.43943 0.0
C2318 C 0.11373 0.15948 0.44951 0.0
C2319 C 0.1341 0.14313 0.44098 0.0
C2320 C 0.16414 0.15433 0.43225 0.0
C2321 C 0.17003 0.18157 0.43151 0.0
C2322 C 0.09048 0.07815 0.42883 0.0
C2323 C 0.1078 0.06041 0.43712 0.0
C2324 C 0.09689 0.10517 0.43039 0.0
C2325 C 0.12014 0.11491 0.44034 0.0
C2326 C 0.13305 0.09731 0.4491 0.0
C2327 C 0.12715 0.07012 0.44747 0.0
H2328 H 0.60954 0.05762 0.30024 0.0
H2329 H 0.69344 0.06831 0.33159 0.0
H2330 H 0.59892 0.10562 0.29854 0.0
H2331 H 0.6828 0.11599 0.32999 0.0
H2332 H 0.58387 0.18837 0.33374 0.0
H2333 H 0.59435 0.14079 0.33173 0.0
H2334 H 0.65118 0.15158 0.29752 0.0
H2335 H 0.64084 0.19954 0.29962 0.0
C2336 C 0.62744 0.07036 0.3065 0.0
C2337 C 0.65248 0.05954 0.31602 0.0
C2338 C 0.62097 0.0977 0.30559 0.0
C2339 C 0.639 0.11436 0.31427 0.0
C2340 C 0.6677 0.10351 0.32329 0.0
C2341 C 0.67449 0.07634 0.32414 0.0
C2342 C 0.59694 0.18046 0.32568 0.0
C2343 C 0.61166 0.19739 0.31684 0.0
C2344 C 0.60364 0.15334 0.32457 0.0
C2345 C 0.62483 0.14265 0.31457 0.0
C2346 C 0.63515 0.1594 0.30533 0.0
C2347 C 0.62881 0.18671 0.30649 0.0
H2348 H 0.04968 0.55747 0.3171 0.0
H2349 H 0.21546 0.56957 0.31743 0.0
H2350 H 0.03594 0.60421 0.3133 0.0
H2351 H 0.20213 0.61664 0.31383 0.0
H2352 H 0.16671 0.69929 0.30336 0.0
H2353 H 0.1713 0.65139 0.3011 0.0
H2354 H 0.0459 0.64271 0.32528 0.0
H2355 H 0.04127 0.69053 0.32731 0.0
C2356 C 0.08319 0.5702 0.31615 0.0
C2357 C 0.13359 0.56017 0.31758 0.0
C2358 C 0.07536 0.59694 0.31404 0.0
C2359 C 0.11785 0.61423 0.31338 0.0
C2360 C 0.16854 0.60382 0.31417 0.0
C2361 C 0.17633 0.57695 0.31626 0.0
C2362 C 0.13894 0.68702 0.30782 0.0
C2363 C 0.10305 0.69832 0.31535 0.0
C2364 C 0.14199 0.65967 0.30666 0.0
C2365 C 0.10928 0.64319 0.31307 0.0
C2366 C 0.07123 0.65478 0.32009 0.0
C2367 C 0.06832 0.68213 0.32125 0.0
H2368 H 0.408 0.12653 0.09219 0.0
H2369 H 0.45957 0.0587 0.111 0.0
H2370 H 0.42239 0.15418 0.10874 0.0
H2371 H 0.47847 0.08641 0.12739 0.0
H2372 H 0.41906 0.13237 0.1586 0.0
H2373 H 0.43458 0.10572 0.14179 0.0
H2374 H 0.46566 0.17643 0.12239 0.0
H2375 H 0.44563 0.20283 0.13911 0.0
C2376 C 0.42496 0.11781 0.09973 0.0
C2377 C 0.43291 0.09055 0.10031 0.0
C2378 C 0.43332 0.13367 0.10932 0.0
C2379 C 0.45089 0.12272 0.11968 0.0
C2380 C 0.46329 0.09567 0.11981 0.0
C2381 C 0.45345 0.07974 0.11033 0.0
C2382 C 0.43069 0.14207 0.1508 0.0
C2383 C 0.43117 0.16962 0.15015 0.0
C2384 C 0.43972 0.12679 0.14107 0.0
C2385 C 0.4506 0.1387 0.13047 0.0
C2386 C 0.45567 0.16633 0.13018 0.0
C2387 C 0.44511 0.18157 0.13983 0.0
H2388 H 0.82674 0.13416 0.09294 0.0
H2389 H 0.79105 0.20313 0.11274 0.0
H2390 H 0.81277 0.10657 0.10951 0.0
H2391 H 0.77238 0.17565 0.12921 0.0
H2392 H 0.7894 0.05782 0.13993 0.0
H2393 H 0.77038 0.08547 0.12354 0.0
H2394 H 0.81569 0.15412 0.143 0.0
H2395 H 0.83002 0.12639 0.15953 0.0
C2396 C 0.81336 0.14326 0.10074 0.0
C2397 C 0.80983 0.17073 0.10155 0.0
C2398 C 0.80524 0.12743 0.11034 0.0
C2399 C 0.7922 0.13864 0.12097 0.0
C2400 C 0.78412 0.1661 0.1214 0.0
C2401 C 0.79382 0.18194 0.11189 0.0
C2402 C 0.79334 0.07898 0.14075 0.0
C2403 C 0.81074 0.09002 0.151 0.0
C2404 C 0.78336 0.0949 0.13128 0.0
C2405 C 0.79255 0.12227 0.13166 0.0
C2406 C 0.80725 0.13334 0.14221 0.0
C2407 C 0.81564 0.11743 0.15178 0.0
H2408 H 0.612 0.80919 0.86354 0.0
H2409 H 0.54216 0.86639 0.84111 0.0
H2410 H 0.59327 0.83708 0.87977 0.0
H2411 H 0.52249 0.89444 0.85754 0.0
H2412 H 0.59065 0.94998 0.8859 0.0
H2413 H 0.57713 0.92098 0.86977 0.0
H2414 H 0.53247 0.8583 0.89257 0.0
H2415 H 0.54687 0.88758 0.90886 0.0
C2416 C 0.59158 0.82753 0.86208 0.0
C2417 C 0.57923 0.83566 0.85096 0.0
C2418 C 0.58037 0.84349 0.87146 0.0
C2419 C 0.55667 0.86821 0.87002 0.0
C2420 C 0.54138 0.87567 0.85896 0.0
C2421 C 0.5523 0.85952 0.84954 0.0
C2422 C 0.57668 0.9302 0.88749 0.0
C2423 C 0.57035 0.92104 0.8987 0.0
C2424 C 0.56859 0.91354 0.87819 0.0
C2425 C 0.55426 0.88711 0.8798 0.0
C2426 C 0.54422 0.87844 0.891 0.0
C2427 C 0.55193 0.89528 0.90035 0.0
H2428 H 0.19664 0.94999 0.86143 0.0
H2429 H 0.15821 0.88049 0.84226 0.0
H2430 H 0.21337 0.92319 0.87819 0.0
H2431 H 0.17038 0.85359 0.85914 0.0
H2432 H 0.19562 0.80597 0.89001 0.0
H2433 H 0.21281 0.83272 0.87325 0.0
H2434 H 0.17086 0.90248 0.89233 0.0
H2435 H 0.15821 0.8756 0.9092 0.0
C2436 C 0.19272 0.92881 0.86079 0.0
C2437 C 0.17678 0.91728 0.85052 0.0
C2438 C 0.20134 0.91336 0.87048 0.0
C2439 C 0.19229 0.88596 0.87031 0.0
C2440 C 0.17873 0.87439 0.85978 0.0
C2441 C 0.17164 0.88983 0.85 0.0
C2442 C 0.19208 0.82717 0.89066 0.0
C2443 C 0.17625 0.83875 0.90094 0.0
C2444 C 0.20094 0.8426 0.88097 0.0
C2445 C 0.19224 0.87002 0.88115 0.0
C2446 C 0.17892 0.88164 0.89169 0.0
C2447 C 0.17158 0.86622 0.90146 0.0
H2448 H 0.41223 0.62785 0.5928 0.0
H2449 H 0.46089 0.55977 0.61181 0.0
H2450 H 0.42537 0.6554 0.60944 0.0
H2451 H 0.47824 0.58734 0.62833 0.0
H2452 H 0.41496 0.63357 0.65921 0.0
H2453 H 0.43212 0.60683 0.64247 0.0
H2454 H 0.46825 0.67732 0.62336 0.0
H2455 H 0.44688 0.70383 0.63997 0.0
C2456 C 0.42837 0.61905 0.60041 0.0
C2457 C 0.43592 0.59176 0.60099 0.0
C2458 C 0.43593 0.63484 0.61005 0.0
C2459 C 0.45215 0.62378 0.6205 0.0
C2460 C 0.46416 0.59669 0.62067 0.0
C2461 C 0.45524 0.58085 0.61111 0.0
C2462 C 0.42812 0.64318 0.65151 0.0
C2463 C 0.4297 0.67073 0.65089 0.0
C2464 C 0.43805 0.62785 0.64182 0.0
C2465 C 0.45084 0.6397 0.6313 0.0
C2466 C 0.45689 0.66728 0.63108 0.0
C2467 C 0.44555 0.68257 0.64068 0.0
H2468 H 0.83091 0.62841 0.5919 0.0
H2469 H 0.7816 0.697 0.6105 0.0
H2470 H 0.8184 0.60142 0.60873 0.0
H2471 H 0.76456 0.66997 0.62719 0.0
H2472 H 0.82218 0.62468 0.65865 0.0
H2473 H 0.80817 0.65085 0.64163 0.0
H2474 H 0.77604 0.57968 0.62262 0.0
H2475 H 0.79458 0.55374 0.63954 0.0
C2476 C 0.8149 0.63745 0.59947 0.0
C2477 C 0.80691 0.66473 0.59988 0.0
C2478 C 0.80764 0.62197 0.60922 0.0
C2479 C 0.79111 0.63331 0.6196 0.0
C2480 C 0.77895 0.66039 0.6196 0.0
C2481 C 0.7877 0.67593 0.60995 0.0
C2482 C 0.81076 0.61479 0.65088 0.0
C2483 C 0.80937 0.58722 0.65042 0.0
C2484 C 0.8026 0.6298 0.64103 0.0
C2485 C 0.79164 0.61762 0.63048 0.0
C2486 C 0.78607 0.59 0.63036 0.0
C2487 C 0.79579 0.57502 0.64013 0.0
H2488 H 0.55503 0.30434 0.36137 0.0
H2489 H 0.57945 0.37532 0.3421 0.0
H2490 H 0.53357 0.3303 0.37814 0.0
H2491 H 0.56253 0.40158 0.35897 0.0
H2492 H 0.53347 0.44795 0.38986 0.0
H2493 H 0.51733 0.42032 0.3733 0.0
H2494 H 0.57445 0.35285 0.392 0.0
H2495 H 0.58606 0.38038 0.40869 0.0
C2496 C 0.55482 0.32562 0.36071 0.0
C2497 C 0.56842 0.33784 0.35043 0.0
C2498 C 0.54343 0.34062 0.37039 0.0
C2499 C 0.54735 0.36832 0.37019 0.0
C2500 C 0.5582 0.38046 0.35963 0.0
C2501 C 0.56803 0.3654 0.34986 0.0
C2502 C 0.54037 0.42696 0.3905 0.0
C2503 C 0.5603 0.41621 0.40059 0.0
C2504 C 0.53216 0.41109 0.38092 0.0
C2505 C 0.54566 0.38417 0.38102 0.0
C2506 C 0.56272 0.37325 0.39143 0.0
C2507 C 0.56943 0.38904 0.4011 0.0
H2508 H 0.18617 0.30223 0.39154 0.0
H2509 H 0.17169 0.37342 0.41117 0.0
H2510 H 0.20788 0.32788 0.37472 0.0
H2511 H 0.18896 0.3995 0.39426 0.0
H2512 H 0.15779 0.37998 0.34462 0.0
H2513 H 0.16801 0.35185 0.36115 0.0
H2514 H 0.23487 0.41713 0.37976 0.0
H2515 H 0.22019 0.44551 0.36337 0.0
C2516 C 0.1884 0.32347 0.39226 0.0
C2517 C 0.17748 0.33584 0.40266 0.0
C2518 C 0.20004 0.33831 0.38255 0.0
C2519 C 0.19917 0.36607 0.38286 0.0
C2520 C 0.1909 0.3783 0.39351 0.0
C2521 C 0.1808 0.36335 0.4033 0.0
C2522 C 0.17629 0.38798 0.35214 0.0
C2523 C 0.18862 0.41482 0.35269 0.0
C2524 C 0.18219 0.37184 0.36172 0.0
C2525 C 0.20156 0.38204 0.37207 0.0
C2526 C 0.21821 0.4085 0.37219 0.0
C2527 C 0.21088 0.42476 0.36269 0.0
H2528 H 0.94955 0.05584 0.61185 0.0
H2529 H 0.90834 0.12413 0.59215 0.0
H2530 H 0.96858 0.08369 0.62818 0.0
H2531 H 0.92275 0.15207 0.60862 0.0
H2532 H 0.91336 0.13272 0.65881 0.0
H2533 H 0.92647 0.10496 0.64223 0.0
H2534 H 0.96594 0.17385 0.62234 0.0
H2535 H 0.94821 0.20147 0.63881 0.0
C2536 C 0.94563 0.07699 0.61098 0.0
C2537 C 0.92808 0.08788 0.60071 0.0
C2538 C 0.95554 0.09304 0.62043 0.0
C2539 C 0.94617 0.12039 0.62001 0.0
C2540 C 0.93135 0.13132 0.60944 0.0
C2541 C 0.92299 0.11528 0.59989 0.0
C2542 C 0.92629 0.14174 0.65095 0.0
C2543 C 0.92993 0.16921 0.6501 0.0
C2544 C 0.93392 0.12581 0.64135 0.0
C2545 C 0.94656 0.1369 0.63067 0.0
C2546 C 0.95453 0.16436 0.63018 0.0
C2547 C 0.94534 0.18029 0.6397 0.0
H2548 H 0.29786 0.19958 0.61208 0.0
H2549 H 0.33989 0.13033 0.59309 0.0
H2550 H 0.28089 0.1727 0.62882 0.0
H2551 H 0.32782 0.10342 0.60994 0.0
H2552 H 0.30414 0.0557 0.64077 0.0
H2553 H 0.28637 0.0821 0.62395 0.0
H2554 H 0.32286 0.15257 0.64308 0.0
H2555 H 0.33572 0.126 0.66001 0.0
C2556 C 0.30255 0.17843 0.61147 0.0
C2557 C 0.31951 0.16696 0.60128 0.0
C2558 C 0.29382 0.16294 0.62115 0.0
C2559 C 0.30396 0.13563 0.62103 0.0
C2560 C 0.31858 0.12413 0.61055 0.0
C2561 C 0.32565 0.13957 0.60079 0.0
C2562 C 0.30649 0.07695 0.6414 0.0
C2563 C 0.32083 0.08885 0.6517 0.0
C2564 C 0.29724 0.0922 0.63168 0.0
C2565 C 0.30421 0.11975 0.63186 0.0
C2566 C 0.31614 0.13162 0.64242 0.0
C2567 C 0.3237 0.11637 0.65223 0.0
H2568 H 0.05567 0.80836 0.36183 0.0
H2569 H 0.09839 0.87718 0.34264 0.0
H2570 H 0.04046 0.83546 0.37858 0.0
H2571 H 0.08796 0.90429 0.35951 0.0
H2572 H 0.06569 0.95239 0.39038 0.0
H2573 H 0.04751 0.92596 0.37359 0.0
H2574 H 0.0835 0.85549 0.39275 0.0
H2575 H 0.09692 0.88213 0.40966 0.0
C2576 C 0.06087 0.82948 0.36118 0.0
C2577 C 0.07751 0.84074 0.35091 0.0
C2578 C 0.05317 0.84508 0.37087 0.0
C2579 C 0.06397 0.87232 0.37069 0.0
C2580 C 0.07826 0.88364 0.36016 0.0
C2581 C 0.08435 0.86808 0.35039 0.0
C2582 C 0.06788 0.93114 0.39103 0.0
C2583 C 0.08218 0.91928 0.40134 0.0
C2584 C 0.05839 0.91587 0.38132 0.0
C2585 C 0.06499 0.88829 0.38152 0.0
C2586 C 0.07703 0.87646 0.39208 0.0
C2587 C 0.08489 0.89175 0.40188 0.0
H2588 H 0.66114 0.87998 0.34207 0.0
H2589 H 0.70568 0.94881 0.36105 0.0
H2590 H 0.67289 0.8529 0.35889 0.0
H2591 H 0.72223 0.92173 0.37775 0.0
H2592 H 0.69674 0.80483 0.38967 0.0
H2593 H 0.7142 0.8312 0.37281 0.0
H2594 H 0.68024 0.90179 0.3921 0.0
H2595 H 0.66759 0.87521 0.40904 0.0
C2596 C 0.67589 0.88908 0.34975 0.0
C2597 C 0.68289 0.91642 0.35024 0.0
C2598 C 0.68275 0.87354 0.3595 0.0
C2599 C 0.69795 0.88487 0.36997 0.0
C2600 C 0.70887 0.9121 0.37009 0.0
C2601 C 0.70042 0.9277 0.36043 0.0
C2602 C 0.69488 0.82609 0.39032 0.0
C2603 C 0.68136 0.83801 0.40068 0.0
C2604 C 0.70394 0.84133 0.38058 0.0
C2605 C 0.69764 0.86893 0.3808 0.0
C2606 C 0.68645 0.8808 0.3914 0.0
C2607 C 0.67903 0.86555 0.40122 0.0
H2608 H 0.9094 0.63067 0.15916 0.0
H2609 H 0.95981 0.69853 0.14023 0.0
H2610 H 0.92057 0.60326 0.14241 0.0
H2611 H 0.97555 0.67104 0.12361 0.0
H2612 H 0.91685 0.62554 0.09232 0.0
H2613 H 0.93159 0.65192 0.10926 0.0
H2614 H 0.96114 0.58084 0.12852 0.0
H2615 H 0.94182 0.55475 0.11168 0.0
C2616 C 0.92547 0.63944 0.15153 0.0
C2617 C 0.9342 0.66665 0.15102 0.0
C2618 C 0.9319 0.62371 0.14182 0.0
C2619 C 0.9483 0.63471 0.13137 0.0
C2620 C 0.96123 0.66171 0.13125 0.0
C2621 C 0.95329 0.67751 0.14088 0.0
C2622 C 0.92777 0.61569 0.10013 0.0
C2623 C 0.92824 0.58812 0.10068 0.0
C2624 C 0.93639 0.63083 0.10994 0.0
C2625 C 0.94695 0.61879 0.12053 0.0
C2626 C 0.95145 0.59111 0.12075 0.0
C2627 C 0.94126 0.57602 0.11102 0.0
H2628 H 0.33086 0.62387 0.16017 0.0
H2629 H 0.30415 0.55339 0.14069 0.0
H2630 H 0.31519 0.65051 0.14336 0.0
H2631 H 0.28381 0.57977 0.124 0.0
H2632 H 0.33594 0.62977 0.09345 0.0
H2633 H 0.32441 0.60217 0.11011 0.0
H2634 H 0.27092 0.66995 0.12915 0.0
H2635 H 0.28714 0.69762 0.11261 0.0
C2636 C 0.31928 0.61416 0.15237 0.0
C2637 C 0.31864 0.58661 0.15173 0.0
C2638 C 0.31012 0.62945 0.14264 0.0
C2639 C 0.29886 0.61756 0.13204 0.0
C2640 C 0.29404 0.5899 0.13176 0.0
C2641 C 0.3048 0.57466 0.14141 0.0
C2642 C 0.32019 0.63851 0.10112 0.0
C2643 C 0.31211 0.66576 0.10172 0.0
C2644 C 0.3135 0.62267 0.11077 0.0
C2645 C 0.29744 0.63361 0.12126 0.0
C2646 C 0.28502 0.66067 0.12147 0.0
C2647 C 0.29327 0.67658 0.1119 0.0
H2648 H 0.03731 0.3085 0.86116 0.0
H2649 H 0.08548 0.37748 0.84271 0.0
H2650 H 0.01834 0.33541 0.87781 0.0
H2651 H 0.07074 0.4044 0.85949 0.0
H2652 H 0.0442 0.4518 0.89021 0.0
H2653 H 0.02599 0.42561 0.87333 0.0
H2654 H 0.06213 0.35488 0.89226 0.0
H2655 H 0.07608 0.38125 0.90925 0.0
C2656 C 0.04259 0.32963 0.86062 0.0
C2657 C 0.06213 0.34099 0.85061 0.0
C2658 C 0.03272 0.34509 0.87025 0.0
C2659 C 0.04397 0.37227 0.87027 0.0
C2660 C 0.06068 0.38376 0.85995 0.0
C2661 C 0.06919 0.36833 0.85022 0.0
C2662 C 0.0462 0.43054 0.89081 0.0
C2663 C 0.06102 0.41852 0.90105 0.0
C2664 C 0.03671 0.41544 0.88106 0.0
C2665 C 0.04366 0.38791 0.88116 0.0
C2666 C 0.05554 0.37586 0.89169 0.0
C2667 C 0.0636 0.39098 0.90152 0.0
H2668 H 0.6696 0.38091 0.84231 0.0
H2669 H 0.70644 0.45143 0.86094 0.0
H2670 H 0.68376 0.35472 0.85934 0.0
H2671 H 0.72472 0.42539 0.87786 0.0
H2672 H 0.70958 0.30875 0.89051 0.0
H2673 H 0.72834 0.33513 0.8737 0.0
H2674 H 0.6796 0.40497 0.89192 0.0
H2675 H 0.66494 0.37853 0.90885 0.0
C2676 C 0.68324 0.39063 0.84994 0.0
C2677 C 0.68722 0.41814 0.85029 0.0
C2678 C 0.69141 0.37563 0.85981 0.0
C2679 C 0.7047 0.38776 0.87023 0.0
C2680 C 0.71297 0.41519 0.8702 0.0
C2681 C 0.70345 0.43019 0.86043 0.0
C2682 C 0.70501 0.32993 0.89099 0.0
C2683 C 0.68647 0.34166 0.90101 0.0
C2684 C 0.71479 0.3451 0.88127 0.0
C2685 C 0.7045 0.37236 0.88118 0.0
C2686 C 0.68886 0.38422 0.89151 0.0
C2687 C 0.68041 0.36907 0.90132 0.0
loop_
_geom_bond_atom_site_label_1
_geom_bond_atom_site_label_2
_geom_bond_distance
_geom_bond_site_symmetry_2
_ccdc_geom_bond_type
Co0 O3 1.970 . S
Co0 N17 1.988 . S
Co0 O25 1.967 . S
Co0 O32 1.920 . S
Co1 O4 1.966 . S
Co1 N10 2.022 . S
Co1 N18 1.993 . S
Co1 O26 1.941 . S
C2 O3 1.258 . S
C2 O4 1.263 . S
O3 Co0 1.970 . S
O3 C2 1.258 . S
O4 Co1 1.966 . S
O4 C2 1.263 . S
C5 O6 1.235 . S
C5 O32 1.289 . S
O6 C5 1.235 . S
C7 C9 1.400 . S
C7 N10 1.351 . S
C7 C12 1.501 . S
C8 C9 1.387 . S
C8 N11 1.341 . S
C9 C7 1.400 . S
C9 C8 1.387 . S
N10 Co1 2.022 . S
N10 C7 1.351 . S
N10 N11 1.365 . S
N11 C8 1.341 . S
N11 N10 1.365 . S
N11 H31 0.862 . S
C12 C7 1.501 . S
C12 H13 0.961 . S
C12 H14 0.961 . S
C12 H15 0.960 . S
H13 C12 0.961 . S
H14 C12 0.961 . S
H15 C12 0.960 . S
C16 N17 1.343 1_565 S
C16 C20 1.401 . S
C16 C21 1.499 . S
N17 Co0 1.988 . S
N17 C16 1.343 1_545 S
N17 N18 1.388 . S
N18 Co1 1.993 . S
N18 N17 1.388 . S
N18 C19 1.346 1_545 S
C19 N18 1.346 1_565 S
C19 C20 1.396 . S
C19 C29 1.510 . S
C20 C16 1.401 . S
C20 C19 1.396 . S
C21 C16 1.499 . S
C21 H22 0.959 . S
C21 H23 0.960 . S
C21 H24 0.961 . S
H22 C21 0.959 . S
H23 C21 0.960 . S
H24 C21 0.961 . S
O25 Co0 1.967 . S
O25 C33 1.258 . S
O26 Co1 1.941 . S
O26 C33 1.266 . S
H27 C29 0.959 . S
H28 C29 0.961 . S
C29 C19 1.510 . S
C29 H27 0.959 . S
C29 H28 0.961 . S
C29 H30 0.960 . S
H30 C29 0.960 . S
H31 N11 0.862 . S
O32 Co0 1.920 . S
O32 C5 1.289 . S
C33 O25 1.258 . S
C33 O26 1.266 . S
Co34 O37 1.970 . S
Co34 N51 1.989 . S
Co34 O59 1.967 . S
Co34 O66 1.920 . S
Co35 O38 1.966 . S
Co35 N44 2.022 . S
Co35 N52 1.993 . S
Co35 O60 1.941 . S
C36 O37 1.258 . S
C36 O38 1.263 . S
O37 Co34 1.970 . S
O37 C36 1.258 . S
O38 Co35 1.966 . S
O38 C36 1.263 . S
C39 O40 1.235 . S
C39 O66 1.289 1_455 S
O40 C39 1.235 . S
C41 C43 1.400 . S
C41 N44 1.351 . S
C41 C46 1.501 . S
C42 C43 1.387 . S
C42 N45 1.341 . S
C43 C41 1.400 . S
C43 C42 1.387 . S
N44 Co35 2.022 . S
N44 C41 1.351 . S
N44 N45 1.365 . S
N45 C42 1.341 . S
N45 N44 1.365 . S
N45 H65 0.862 . S
C46 C41 1.501 . S
C46 H47 0.961 . S
C46 H48 0.961 . S
C46 H49 0.960 . S
H47 C46 0.961 . S
H48 C46 0.961 . S
H49 C46 0.960 . S
C50 N51 1.342 . S
C50 C54 1.401 . S
C50 C55 1.499 . S
N51 Co34 1.989 . S
N51 C50 1.342 . S
N51 N52 1.388 . S
N52 Co35 1.993 . S
N52 N51 1.388 . S
N52 C53 1.346 . S
C53 N52 1.346 . S
C53 C54 1.396 . S
C53 C63 1.510 . S
C54 C50 1.401 . S
C54 C53 1.396 . S
C55 C50 1.499 . S
C55 H56 0.959 . S
C55 H57 0.960 . S
C55 H58 0.961 . S
H56 C55 0.959 . S
H57 C55 0.960 . S
H58 C55 0.961 . S
O59 Co34 1.967 . S
O59 C67 1.258 . S
O60 Co35 1.941 . S
O60 C67 1.266 . S
H61 C63 0.959 . S
H62 C63 0.961 . S
C63 C53 1.510 . S
C63 H61 0.959 . S
C63 H62 0.961 . S
C63 H64 0.960 . S
H64 C63 0.960 . S
H65 N45 0.862 . S
O66 Co34 1.920 . S
O66 C39 1.289 1_655 S
C67 O59 1.258 . S
C67 O60 1.266 . S
Co68 O71 1.970 . S
Co68 N85 1.989 . S
Co68 O93 1.967 . S
Co68 O100 1.920 . S
Co69 O72 1.966 . S
Co69 N78 2.022 . S
Co69 N86 1.993 . S
Co69 O94 1.941 . S
C70 O71 1.258 . S
C70 O72 1.263 . S
O71 Co68 1.970 . S
O71 C70 1.258 . S
O72 Co69 1.966 . S
O72 C70 1.263 . S
C73 O74 1.235 . S
C73 O100 1.289 . S
O74 C73 1.235 . S
C75 C77 1.400 . S
C75 N78 1.351 . S
C75 C80 1.501 . S
C76 C77 1.387 . S
C76 N79 1.341 . S
C77 C75 1.400 . S
C77 C76 1.387 . S
N78 Co69 2.022 . S
N78 C75 1.351 . S
N78 N79 1.365 . S
N79 C76 1.341 . S
N79 N78 1.365 . S
N79 H99 0.862 . S
C80 C75 1.501 . S
C80 H81 0.961 . S
C80 H82 0.961 . S
C80 H83 0.960 . S
H81 C80 0.961 . S
H82 C80 0.961 . S
H83 C80 0.960 . S
C84 N85 1.342 . S
C84 C88 1.401 . S
C84 C89 1.499 . S
N85 Co68 1.989 . S
N85 C84 1.342 . S
N85 N86 1.388 . S
N86 Co69 1.993 . S
N86 N85 1.388 . S
N86 C87 1.346 . S
C87 N86 1.346 . S
C87 C88 1.396 . S
C87 C97 1.510 . S
C88 C84 1.401 . S
C88 C87 1.396 . S
C89 C84 1.499 . S
C89 H90 0.959 . S
C89 H91 0.960 . S
C89 H92 0.961 . S
H90 C89 0.959 . S
H91 C89 0.960 . S
H92 C89 0.961 . S
O93 Co68 1.967 . S
O93 C101 1.258 . S
O94 Co69 1.941 . S
O94 C101 1.266 . S
H95 C97 0.959 . S
H96 C97 0.961 . S
C97 C87 1.510 . S
C97 H95 0.959 . S
C97 H96 0.961 . S
C97 H98 0.960 . S
H98 C97 0.960 . S
H99 N79 0.862 . S
O100 Co68 1.920 . S
O100 C73 1.289 . S
C101 O93 1.258 . S
C101 O94 1.266 . S
Co102 O105 1.970 . S
Co102 N119 1.988 . S
Co102 O127 1.967 . S
Co102 O134 1.920 . S
Co103 O106 1.966 . S
Co103 N112 2.022 . S
Co103 N120 1.993 . S
Co103 O128 1.941 . S
C104 O105 1.258 . S
C104 O106 1.263 . S
O105 Co102 1.970 . S
O105 C104 1.258 . S
O106 Co103 1.966 . S
O106 C104 1.263 . S
C107 O108 1.235 . S
C107 O134 1.289 1_455 S
O108 C107 1.235 . S
C109 C111 1.400 . S
C109 N112 1.351 . S
C109 C114 1.501 . S
C110 C111 1.387 . S
C110 N113 1.341 . S
C111 C109 1.400 . S
C111 C110 1.387 . S
N112 Co103 2.022 . S
N112 C109 1.351 . S
N112 N113 1.365 . S
N113 C110 1.341 . S
N113 N112 1.365 . S
N113 H133 0.862 . S
C114 C109 1.501 . S
C114 H115 0.961 . S
C114 H116 0.961 . S
C114 H117 0.960 . S
H115 C114 0.961 . S
H116 C114 0.961 . S
H117 C114 0.960 . S
C118 N119 1.343 1_565 S
C118 C122 1.401 . S
C118 C123 1.499 . S
N119 Co102 1.988 . S
N119 C118 1.343 1_545 S
N119 N120 1.388 . S
N120 Co103 1.993 . S
N120 N119 1.388 . S
N120 C121 1.346 1_545 S
C121 N120 1.346 1_565 S
C121 C122 1.396 . S
C121 C131 1.510 . S
C122 C118 1.401 . S
C122 C121 1.396 . S
C123 C118 1.499 . S
C123 H124 0.959 . S
C123 H125 0.960 . S
C123 H126 0.961 . S
H124 C123 0.959 . S
H125 C123 0.960 . S
H126 C123 0.961 . S
O127 Co102 1.967 . S
O127 C135 1.258 . S
O128 Co103 1.941 . S
O128 C135 1.266 . S
H129 C131 0.959 . S
H130 C131 0.961 . S
C131 C121 1.510 . S
C131 H129 0.959 . S
C131 H130 0.961 . S
C131 H132 0.960 . S
H132 C131 0.960 . S
H133 N113 0.862 . S
O134 Co102 1.920 . S
O134 C107 1.289 1_655 S
C135 O127 1.258 . S
C135 O128 1.266 . S
Co136 O139 1.970 . S
Co136 N153 1.988 . S
Co136 O161 1.967 . S
Co136 O168 1.920 . S
Co137 O140 1.966 . S
Co137 N146 2.022 . S
Co137 N154 1.993 . S
Co137 O162 1.941 . S
C138 O139 1.258 . S
C138 O140 1.263 . S
O139 Co136 1.970 . S
O139 C138 1.258 . S
O140 Co137 1.966 . S
O140 C138 1.263 . S
C141 O142 1.235 . S
C141 O168 1.289 . S
O142 C141 1.235 . S
C143 C145 1.400 . S
C143 N146 1.351 . S
C143 C148 1.501 . S
C144 C145 1.387 . S
C144 N147 1.341 . S
C145 C143 1.400 . S
C145 C144 1.387 . S
N146 Co137 2.022 . S
N146 C143 1.351 . S
N146 N147 1.365 . S
N147 C144 1.341 . S
N147 N146 1.365 . S
N147 H167 0.862 . S
C148 C143 1.501 . S
C148 H149 0.961 . S
C148 H150 0.961 . S
C148 H151 0.960 . S
H149 C148 0.961 . S
H150 C148 0.961 . S
H151 C148 0.960 . S
C152 N153 1.343 1_545 S
C152 C156 1.401 . S
C152 C157 1.499 . S
N153 Co136 1.988 . S
N153 C152 1.343 1_565 S
N153 N154 1.388 . S
N154 Co137 1.993 . S
N154 N153 1.388 . S
N154 C155 1.346 1_565 S
C155 N154 1.346 1_545 S
C155 C156 1.396 . S
C155 C165 1.510 . S
C156 C152 1.401 . S
C156 C155 1.396 . S
C157 C152 1.499 . S
C157 H158 0.959 . S
C157 H159 0.960 . S
C157 H160 0.961 . S
H158 C157 0.959 . S
H159 C157 0.960 . S
H160 C157 0.961 . S
O161 Co136 1.967 . S
O161 C169 1.258 . S
O162 Co137 1.941 . S
O162 C169 1.266 . S
H163 C165 0.959 . S
H164 C165 0.961 . S
C165 C155 1.510 . S
C165 H163 0.959 . S
C165 H164 0.961 . S
C165 H166 0.960 . S
H166 C165 0.960 . S
H167 N147 0.862 . S
O168 Co136 1.920 . S
O168 C141 1.289 . S
C169 O161 1.258 . S
C169 O162 1.266 . S
Co170 O173 1.970 . S
Co170 N187 1.989 . S
Co170 O195 1.967 . S
Co170 O202 1.920 . S
Co171 O174 1.966 . S
Co171 N180 2.022 . S
Co171 N188 1.993 . S
Co171 O196 1.941 . S
C172 O173 1.258 . S
C172 O174 1.263 . S
O173 Co170 1.970 . S
O173 C172 1.258 . S
O174 Co171 1.966 . S
O174 C172 1.263 . S
C175 O176 1.235 . S
C175 O202 1.289 1_655 S
O176 C175 1.235 . S
C177 C179 1.400 . S
C177 N180 1.351 . S
C177 C182 1.501 . S
C178 C179 1.387 . S
C178 N181 1.341 . S
C179 C177 1.400 . S
C179 C178 1.387 . S
N180 Co171 2.022 . S
N180 C177 1.351 . S
N180 N181 1.365 . S
N181 C178 1.341 . S
N181 N180 1.365 . S
N181 H201 0.862 . S
C182 C177 1.501 . S
C182 H183 0.961 . S
C182 H184 0.961 . S
C182 H185 0.960 . S
H183 C182 0.961 . S
H184 C182 0.961 . S
H185 C182 0.960 . S
C186 N187 1.342 . S
C186 C190 1.401 . S
C186 C191 1.499 . S
N187 Co170 1.989 . S
N187 C186 1.342 . S
N187 N188 1.388 . S
N188 Co171 1.993 . S
N188 N187 1.388 . S
N188 C189 1.346 . S
C189 N188 1.346 . S
C189 C190 1.396 . S
C189 C199 1.510 . S
C190 C186 1.401 . S
C190 C189 1.396 . S
C191 C186 1.499 . S
C191 H192 0.959 . S
C191 H193 0.960 . S
C191 H194 0.961 . S
H192 C191 0.959 . S
H193 C191 0.960 . S
H194 C191 0.961 . S
O195 Co170 1.967 . S
O195 C203 1.258 . S
O196 Co171 1.941 . S
O196 C203 1.266 . S
H197 C199 0.959 . S
H198 C199 0.961 . S
C199 C189 1.510 . S
C199 H197 0.959 . S
C199 H198 0.961 . S
C199 H200 0.960 . S
H200 C199 0.960 . S
H201 N181 0.862 . S
O202 Co170 1.920 . S
O202 C175 1.289 1_455 S
C203 O195 1.258 . S
C203 O196 1.266 . S
Co204 O207 1.970 . S
Co204 N221 1.989 . S
Co204 O229 1.967 . S
Co204 O236 1.920 . S
Co205 O208 1.966 . S
Co205 N214 2.022 . S
Co205 N222 1.993 . S
Co205 O230 1.941 . S
C206 O207 1.258 . S
C206 O208 1.263 . S
O207 Co204 1.970 . S
O207 C206 1.258 . S
O208 Co205 1.966 . S
O208 C206 1.263 . S
C209 O210 1.235 . S
C209 O236 1.289 . S
O210 C209 1.235 . S
C211 C213 1.400 . S
C211 N214 1.351 . S
C211 C216 1.501 . S
C212 C213 1.387 . S
C212 N215 1.341 . S
C213 C211 1.400 . S
C213 C212 1.387 . S
N214 Co205 2.022 . S
N214 C211 1.351 . S
N214 N215 1.365 . S
N215 C212 1.341 . S
N215 N214 1.365 . S
N215 H235 0.862 . S
C216 C211 1.501 . S
C216 H217 0.961 . S
C216 H218 0.961 . S
C216 H219 0.960 . S
H217 C216 0.961 . S
H218 C216 0.961 . S
H219 C216 0.960 . S
C220 N221 1.342 . S
C220 C224 1.401 . S
C220 C225 1.499 . S
N221 Co204 1.989 . S
N221 C220 1.342 . S
N221 N222 1.388 . S
N222 Co205 1.993 . S
N222 N221 1.388 . S
N222 C223 1.346 . S
C223 N222 1.346 . S
C223 C224 1.396 . S
C223 C233 1.510 . S
C224 C220 1.401 . S
C224 C223 1.396 . S
C225 C220 1.499 . S
C225 H226 0.959 . S
C225 H227 0.960 . S
C225 H228 0.961 . S
H226 C225 0.959 . S
H227 C225 0.960 . S
H228 C225 0.961 . S
O229 Co204 1.967 . S
O229 C237 1.258 . S
O230 Co205 1.941 . S
O230 C237 1.266 . S
H231 C233 0.959 . S
H232 C233 0.961 . S
C233 C223 1.510 . S
C233 H231 0.959 . S
C233 H232 0.961 . S
C233 H234 0.960 . S
H234 C233 0.960 . S
H235 N215 0.862 . S
O236 Co204 1.920 . S
O236 C209 1.289 . S
C237 O229 1.258 . S
C237 O230 1.266 . S
Co238 O241 1.970 . S
Co238 N255 1.988 . S
Co238 O263 1.967 . S
Co238 O270 1.920 . S
Co239 O242 1.966 . S
Co239 N248 2.022 . S
Co239 N256 1.993 . S
Co239 O264 1.941 . S
C240 O241 1.258 . S
C240 O242 1.263 . S
O241 Co238 1.970 . S
O241 C240 1.258 . S
O242 Co239 1.966 . S
O242 C240 1.263 . S
C243 O244 1.235 . S
C243 O270 1.289 1_655 S
O244 C243 1.235 . S
C245 C247 1.400 . S
C245 N248 1.351 . S
C245 C250 1.501 . S
C246 C247 1.387 . S
C246 N249 1.341 . S
C247 C245 1.400 . S
C247 C246 1.387 . S
N248 Co239 2.022 . S
N248 C245 1.351 . S
N248 N249 1.365 . S
N249 C246 1.341 . S
N249 N248 1.365 . S
N249 H269 0.862 . S
C250 C245 1.501 . S
C250 H251 0.961 . S
C250 H252 0.961 . S
C250 H253 0.960 . S
H251 C250 0.961 . S
H252 C250 0.961 . S
H253 C250 0.960 . S
C254 N255 1.343 1_545 S
C254 C258 1.401 . S
C254 C259 1.499 . S
N255 Co238 1.988 . S
N255 C254 1.343 1_565 S
N255 N256 1.388 . S
N256 Co239 1.993 . S
N256 N255 1.388 . S
N256 C257 1.346 1_565 S
C257 N256 1.346 1_545 S
C257 C258 1.396 . S
C257 C267 1.510 . S
C258 C254 1.401 . S
C258 C257 1.396 . S
C259 C254 1.499 . S
C259 H260 0.959 . S
C259 H261 0.960 . S
C259 H262 0.961 . S
H260 C259 0.959 . S
H261 C259 0.960 . S
H262 C259 0.961 . S
O263 Co238 1.967 . S
O263 C271 1.258 . S
O264 Co239 1.941 . S
O264 C271 1.266 . S
H265 C267 0.959 . S
H266 C267 0.961 . S
C267 C257 1.510 . S
C267 H265 0.959 . S
C267 H266 0.961 . S
C267 H268 0.960 . S
H268 C267 0.960 . S
H269 N249 0.862 . S
O270 Co238 1.920 . S
O270 C243 1.289 1_455 S
C271 O263 1.258 . S
C271 O264 1.266 . S
Co272 O275 1.970 . S
Co272 N289 1.989 . S
Co272 O297 1.967 . S
Co272 O304 1.920 . S
Co273 O276 1.966 . S
Co273 N282 2.022 . S
Co273 N290 1.993 . S
Co273 O298 1.941 . S
C274 O275 1.258 . S
C274 O276 1.263 . S
O275 Co272 1.970 . S
O275 C274 1.258 . S
O276 Co273 1.966 . S
O276 C274 1.263 . S
C277 O278 1.235 . S
C277 O304 1.289 . S
O278 C277 1.235 . S
C279 C281 1.400 . S
C279 N282 1.351 . S
C279 C284 1.501 . S
C280 C281 1.387 . S
C280 N283 1.341 . S
C281 C279 1.400 . S
C281 C280 1.387 . S
N282 Co273 2.022 . S
N282 C279 1.351 . S
N282 N283 1.365 . S
N283 C280 1.341 . S
N283 N282 1.365 . S
N283 H303 0.862 . S
C284 C279 1.501 . S
C284 H285 0.961 . S
C284 H286 0.961 . S
C284 H287 0.960 . S
H285 C284 0.961 . S
H286 C284 0.961 . S
H287 C284 0.960 . S
C288 N289 1.342 . S
C288 C292 1.401 . S
C288 C293 1.499 . S
N289 Co272 1.989 . S
N289 C288 1.342 . S
N289 N290 1.388 . S
N290 Co273 1.993 . S
N290 N289 1.388 . S
N290 C291 1.346 . S
C291 N290 1.346 . S
C291 C292 1.396 . S
C291 C301 1.510 . S
C292 C288 1.401 . S
C292 C291 1.396 . S
C293 C288 1.499 . S
C293 H294 0.959 . S
C293 H295 0.960 . S
C293 H296 0.961 . S
H294 C293 0.959 . S
H295 C293 0.960 . S
H296 C293 0.961 . S
O297 Co272 1.967 . S
O297 C305 1.258 . S
O298 Co273 1.941 . S
O298 C305 1.266 . S
H299 C301 0.959 . S
H300 C301 0.961 . S
C301 C291 1.510 . S
C301 H299 0.959 . S
C301 H300 0.961 . S
C301 H302 0.960 . S
H302 C301 0.960 . S
H303 N283 0.862 . S
O304 Co272 1.920 . S
O304 C277 1.289 . S
C305 O297 1.258 . S
C305 O298 1.266 . S
Co306 O309 1.970 . S
Co306 N323 1.989 . S
Co306 O331 1.967 . S
Co306 O338 1.920 . S
Co307 O310 1.966 . S
Co307 N316 2.022 . S
Co307 N324 1.993 . S
Co307 O332 1.941 . S
C308 O309 1.258 . S
C308 O310 1.263 . S
O309 Co306 1.970 . S
O309 C308 1.258 . S
O310 Co307 1.966 . S
O310 C308 1.263 . S
C311 O312 1.235 . S
C311 O338 1.289 1_455 S
O312 C311 1.235 . S
C313 C315 1.400 . S
C313 N316 1.351 . S
C313 C318 1.501 . S
C314 C315 1.387 . S
C314 N317 1.341 . S
C315 C313 1.400 . S
C315 C314 1.387 . S
N316 Co307 2.022 . S
N316 C313 1.351 . S
N316 N317 1.365 . S
N317 C314 1.341 . S
N317 N316 1.365 . S
N317 H337 0.862 . S
C318 C313 1.501 . S
C318 H319 0.961 . S
C318 H320 0.961 . S
C318 H321 0.960 . S
H319 C318 0.961 . S
H320 C318 0.961 . S
H321 C318 0.960 . S
C322 N323 1.342 . S
C322 C326 1.401 . S
C322 C327 1.499 . S
N323 Co306 1.989 . S
N323 C322 1.342 . S
N323 N324 1.388 . S
N324 Co307 1.993 . S
N324 N323 1.388 . S
N324 C325 1.346 . S
C325 N324 1.346 . S
C325 C326 1.396 . S
C325 C335 1.510 . S
C326 C322 1.401 . S
C326 C325 1.396 . S
C327 C322 1.499 . S
C327 H328 0.959 . S
C327 H329 0.960 . S
C327 H330 0.961 . S
H328 C327 0.959 . S
H329 C327 0.960 . S
H330 C327 0.961 . S
O331 Co306 1.967 . S
O331 C339 1.258 . S
O332 Co307 1.941 . S
O332 C339 1.266 . S
H333 C335 0.959 . S
H334 C335 0.961 . S
C335 C325 1.510 . S
C335 H333 0.959 . S
C335 H334 0.961 . S
C335 H336 0.960 . S
H336 C335 0.960 . S
H337 N317 0.862 . S
O338 Co306 1.920 . S
O338 C311 1.289 1_655 S
C339 O331 1.258 . S
C339 O332 1.266 . S
Co340 O343 1.970 . S
Co340 N357 1.989 . S
Co340 O365 1.967 . S
Co340 O372 1.920 . S
Co341 O344 1.966 . S
Co341 N350 2.022 . S
Co341 N358 1.993 . S
Co341 O366 1.941 . S
C342 O343 1.258 . S
C342 O344 1.263 . S
O343 Co340 1.970 . S
O343 C342 1.258 . S
O344 Co341 1.966 . S
O344 C342 1.263 . S
C345 O346 1.235 . S
C345 O372 1.289 . S
O346 C345 1.235 . S
C347 C349 1.400 . S
C347 N350 1.351 . S
C347 C352 1.501 . S
C348 C349 1.387 . S
C348 N351 1.341 . S
C349 C347 1.400 . S
C349 C348 1.387 . S
N350 Co341 2.022 . S
N350 C347 1.351 . S
N350 N351 1.365 . S
N351 C348 1.341 . S
N351 N350 1.365 . S
N351 H371 0.862 . S
C352 C347 1.501 . S
C352 H353 0.961 . S
C352 H354 0.961 . S
C352 H355 0.960 . S
H353 C352 0.961 . S
H354 C352 0.961 . S
H355 C352 0.960 . S
C356 N357 1.342 . S
C356 C360 1.401 . S
C356 C361 1.499 . S
N357 Co340 1.989 . S
N357 C356 1.342 . S
N357 N358 1.388 . S
N358 Co341 1.993 . S
N358 N357 1.388 . S
N358 C359 1.346 . S
C359 N358 1.346 . S
C359 C360 1.396 . S
C359 C369 1.510 . S
C360 C356 1.401 . S
C360 C359 1.396 . S
C361 C356 1.499 . S
C361 H362 0.959 . S
C361 H363 0.960 . S
C361 H364 0.961 . S
H362 C361 0.959 . S
H363 C361 0.960 . S
H364 C361 0.961 . S
O365 Co340 1.967 . S
O365 C373 1.258 . S
O366 Co341 1.941 . S
O366 C373 1.266 . S
H367 C369 0.959 . S
H368 C369 0.961 . S
C369 C359 1.510 . S
C369 H367 0.959 . S
C369 H368 0.961 . S
C369 H370 0.960 . S
H370 C369 0.960 . S
H371 N351 0.862 . S
O372 Co340 1.920 . S
O372 C345 1.289 . S
C373 O365 1.258 . S
C373 O366 1.266 . S
Co374 O377 1.970 . S
Co374 N391 1.989 . S
Co374 O399 1.967 . S
Co374 O406 1.920 . S
Co375 O378 1.966 . S
Co375 N384 2.022 . S
Co375 N392 1.993 . S
Co375 O400 1.941 . S
C376 O377 1.258 . S
C376 O378 1.263 . S
O377 Co374 1.970 . S
O377 C376 1.258 . S
O378 Co375 1.966 . S
O378 C376 1.263 . S
C379 O380 1.235 . S
C379 O406 1.289 1_455 S
O380 C379 1.235 . S
C381 C383 1.400 . S
C381 N384 1.351 . S
C381 C386 1.501 . S
C382 C383 1.387 . S
C382 N385 1.341 . S
C383 C381 1.400 . S
C383 C382 1.387 . S
N384 Co375 2.022 . S
N384 C381 1.351 . S
N384 N385 1.365 . S
N385 C382 1.341 . S
N385 N384 1.365 . S
N385 H405 0.862 . S
C386 C381 1.501 . S
C386 H387 0.961 . S
C386 H388 0.961 . S
C386 H389 0.960 . S
H387 C386 0.961 . S
H388 C386 0.961 . S
H389 C386 0.960 . S
C390 N391 1.342 . S
C390 C394 1.401 . S
C390 C395 1.499 . S
N391 Co374 1.989 . S
N391 C390 1.342 . S
N391 N392 1.388 . S
N392 Co375 1.993 . S
N392 N391 1.388 . S
N392 C393 1.346 . S
C393 N392 1.346 . S
C393 C394 1.396 . S
C393 C403 1.510 . S
C394 C390 1.401 . S
C394 C393 1.396 . S
C395 C390 1.499 . S
C395 H396 0.959 . S
C395 H397 0.960 . S
C395 H398 0.961 . S
H396 C395 0.959 . S
H397 C395 0.960 . S
H398 C395 0.961 . S
O399 Co374 1.967 . S
O399 C407 1.258 . S
O400 Co375 1.941 . S
O400 C407 1.266 . S
H401 C403 0.959 . S
H402 C403 0.961 . S
C403 C393 1.510 . S
C403 H401 0.959 . S
C403 H402 0.961 . S
C403 H404 0.960 . S
H404 C403 0.960 . S
H405 N385 0.862 . S
O406 Co374 1.920 . S
O406 C379 1.289 1_655 S
C407 O399 1.258 . S
C407 O400 1.266 . S
Co408 O411 1.970 . S
Co408 N425 1.989 . S
Co408 O433 1.967 . S
Co408 O440 1.920 . S
Co409 O412 1.966 . S
Co409 N418 2.022 . S
Co409 N426 1.993 . S
Co409 O434 1.941 . S
C410 O411 1.258 . S
C410 O412 1.263 . S
O411 Co408 1.970 . S
O411 C410 1.258 . S
O412 Co409 1.966 . S
O412 C410 1.263 . S
C413 O414 1.235 . S
C413 O440 1.289 . S
O414 C413 1.235 . S
C415 C417 1.400 . S
C415 N418 1.351 . S
C415 C420 1.501 . S
C416 C417 1.387 . S
C416 N419 1.341 . S
C417 C415 1.400 . S
C417 C416 1.387 . S
N418 Co409 2.022 . S
N418 C415 1.351 . S
N418 N419 1.365 . S
N419 C416 1.341 . S
N419 N418 1.365 . S
N419 H439 0.862 . S
C420 C415 1.501 . S
C420 H421 0.961 . S
C420 H422 0.961 . S
C420 H423 0.960 . S
H421 C420 0.961 . S
H422 C420 0.961 . S
H423 C420 0.960 . S
C424 N425 1.342 . S
C424 C428 1.401 . S
C424 C429 1.499 . S
N425 Co408 1.989 . S
N425 C424 1.342 . S
N425 N426 1.388 . S
N426 Co409 1.993 . S
N426 N425 1.388 . S
N426 C427 1.346 . S
C427 N426 1.346 . S
C427 C428 1.396 . S
C427 C437 1.510 . S
C428 C424 1.401 . S
C428 C427 1.396 . S
C429 C424 1.499 . S
C429 H430 0.959 . S
C429 H431 0.960 . S
C429 H432 0.961 . S
H430 C429 0.959 . S
H431 C429 0.960 . S
H432 C429 0.961 . S
O433 Co408 1.967 . S
O433 C441 1.258 . S
O434 Co409 1.941 . S
O434 C441 1.266 . S
H435 C437 0.959 . S
H436 C437 0.961 . S
C437 C427 1.510 . S
C437 H435 0.959 . S
C437 H436 0.961 . S
C437 H438 0.960 . S
H438 C437 0.960 . S
H439 N419 0.862 . S
O440 Co408 1.920 . S
O440 C413 1.289 . S
C441 O433 1.258 . S
C441 O434 1.266 . S
Co442 O445 1.970 . S
Co442 N459 1.989 . S
Co442 O467 1.967 . S
Co442 O474 1.920 . S
Co443 O446 1.966 . S
Co443 N452 2.022 . S
Co443 N460 1.993 . S
Co443 O468 1.941 . S
C444 O445 1.258 . S
C444 O446 1.263 . S
O445 Co442 1.970 . S
O445 C444 1.258 . S
O446 Co443 1.966 . S
O446 C444 1.263 . S
C447 O448 1.235 . S
C447 O474 1.289 1_655 S
O448 C447 1.235 . S
C449 C451 1.400 . S
C449 N452 1.351 . S
C449 C454 1.501 . S
C450 C451 1.387 . S
C450 N453 1.341 . S
C451 C449 1.400 . S
C451 C450 1.387 . S
N452 Co443 2.022 . S
N452 C449 1.351 . S
N452 N453 1.365 . S
N453 C450 1.341 . S
N453 N452 1.365 . S
N453 H473 0.862 . S
C454 C449 1.501 . S
C454 H455 0.961 . S
C454 H456 0.961 . S
C454 H457 0.960 . S
H455 C454 0.961 . S
H456 C454 0.961 . S
H457 C454 0.960 . S
C458 N459 1.342 . S
C458 C462 1.401 . S
C458 C463 1.499 . S
N459 Co442 1.989 . S
N459 C458 1.342 . S
N459 N460 1.388 . S
N460 Co443 1.993 . S
N460 N459 1.388 . S
N460 C461 1.346 . S
C461 N460 1.346 . S
C461 C462 1.396 . S
C461 C471 1.510 . S
C462 C458 1.401 . S
C462 C461 1.396 . S
C463 C458 1.499 . S
C463 H464 0.959 . S
C463 H465 0.960 . S
C463 H466 0.961 . S
H464 C463 0.959 . S
H465 C463 0.960 . S
H466 C463 0.961 . S
O467 Co442 1.967 . S
O467 C475 1.258 . S
O468 Co443 1.941 . S
O468 C475 1.266 . S
H469 C471 0.959 . S
H470 C471 0.961 . S
C471 C461 1.510 . S
C471 H469 0.959 . S
C471 H470 0.961 . S
C471 H472 0.960 . S
H472 C471 0.960 . S
H473 N453 0.862 . S
O474 Co442 1.920 . S
O474 C447 1.289 1_455 S
C475 O467 1.258 . S
C475 O468 1.266 . S
Co476 O479 1.970 . S
Co476 N493 1.989 . S
Co476 O501 1.967 . S
Co476 O508 1.920 . S
Co477 O480 1.966 . S
Co477 N486 2.022 . S
Co477 N494 1.993 . S
Co477 O502 1.941 . S
C478 O479 1.258 . S
C478 O480 1.263 . S
O479 Co476 1.970 . S
O479 C478 1.258 . S
O480 Co477 1.966 . S
O480 C478 1.263 . S
C481 O482 1.235 . S
C481 O508 1.289 . S
O482 C481 1.235 . S
C483 C485 1.400 . S
C483 N486 1.351 . S
C483 C488 1.501 . S
C484 C485 1.387 . S
C484 N487 1.341 . S
C485 C483 1.400 . S
C485 C484 1.387 . S
N486 Co477 2.022 . S
N486 C483 1.351 . S
N486 N487 1.365 . S
N487 C484 1.341 . S
N487 N486 1.365 . S
N487 H507 0.862 . S
C488 C483 1.501 . S
C488 H489 0.961 . S
C488 H490 0.961 . S
C488 H491 0.960 . S
H489 C488 0.961 . S
H490 C488 0.961 . S
H491 C488 0.960 . S
C492 N493 1.342 . S
C492 C496 1.401 . S
C492 C497 1.499 . S
N493 Co476 1.989 . S
N493 C492 1.342 . S
N493 N494 1.388 . S
N494 Co477 1.993 . S
N494 N493 1.388 . S
N494 C495 1.346 . S
C495 N494 1.346 . S
C495 C496 1.396 . S
C495 C505 1.510 . S
C496 C492 1.401 . S
C496 C495 1.396 . S
C497 C492 1.499 . S
C497 H498 0.959 . S
C497 H499 0.960 . S
C497 H500 0.961 . S
H498 C497 0.959 . S
H499 C497 0.960 . S
H500 C497 0.961 . S
O501 Co476 1.967 . S
O501 C509 1.258 . S
O502 Co477 1.941 . S
O502 C509 1.266 . S
H503 C505 0.959 . S
H504 C505 0.961 . S
C505 C495 1.510 . S
C505 H503 0.959 . S
C505 H504 0.961 . S
C505 H506 0.960 . S
H506 C505 0.960 . S
H507 N487 0.862 . S
O508 Co476 1.920 . S
O508 C481 1.289 . S
C509 O501 1.258 . S
C509 O502 1.266 . S
Co510 O513 1.970 . S
Co510 N527 1.989 . S
Co510 O535 1.967 . S
Co510 O542 1.920 . S
Co511 O514 1.966 . S
Co511 N520 2.022 . S
Co511 N528 1.993 . S
Co511 O536 1.941 . S
C512 O513 1.258 . S
C512 O514 1.263 . S
O513 Co510 1.970 . S
O513 C512 1.258 . S
O514 Co511 1.966 . S
O514 C512 1.263 . S
C515 O516 1.235 . S
C515 O542 1.289 1_655 S
O516 C515 1.235 . S
C517 C519 1.400 . S
C517 N520 1.351 . S
C517 C522 1.501 . S
C518 C519 1.387 . S
C518 N521 1.341 . S
C519 C517 1.400 . S
C519 C518 1.387 . S
N520 Co511 2.022 . S
N520 C517 1.351 . S
N520 N521 1.365 . S
N521 C518 1.341 . S
N521 N520 1.365 . S
N521 H541 0.862 . S
C522 C517 1.501 . S
C522 H523 0.961 . S
C522 H524 0.961 . S
C522 H525 0.960 . S
H523 C522 0.961 . S
H524 C522 0.961 . S
H525 C522 0.960 . S
C526 N527 1.342 . S
C526 C530 1.401 . S
C526 C531 1.499 . S
N527 Co510 1.989 . S
N527 C526 1.342 . S
N527 N528 1.388 . S
N528 Co511 1.993 . S
N528 N527 1.388 . S
N528 C529 1.346 . S
C529 N528 1.346 . S
C529 C530 1.396 . S
C529 C539 1.510 . S
C530 C526 1.401 . S
C530 C529 1.396 . S
C531 C526 1.499 . S
C531 H532 0.959 . S
C531 H533 0.960 . S
C531 H534 0.961 . S
H532 C531 0.959 . S
H533 C531 0.960 . S
H534 C531 0.961 . S
O535 Co510 1.967 . S
O535 C543 1.258 . S
O536 Co511 1.941 . S
O536 C543 1.266 . S
H537 C539 0.959 . S
H538 C539 0.961 . S
C539 C529 1.510 . S
C539 H537 0.959 . S
C539 H538 0.961 . S
C539 H540 0.960 . S
H540 C539 0.960 . S
H541 N521 0.862 . S
O542 Co510 1.920 . S
O542 C515 1.289 1_455 S
C543 O535 1.258 . S
C543 O536 1.266 . S
Co544 O547 1.970 . S
Co544 N561 1.989 . S
Co544 O569 1.967 . S
Co544 O576 1.920 . S
Co545 O548 1.966 . S
Co545 N554 2.022 . S
Co545 N562 1.993 . S
Co545 O570 1.941 . S
C546 O547 1.258 . S
C546 O548 1.263 . S
O547 Co544 1.970 . S
O547 C546 1.258 . S
O548 Co545 1.966 . S
O548 C546 1.263 . S
C549 O550 1.235 . S
C549 O576 1.289 . S
O550 C549 1.235 . S
C551 C553 1.400 . S
C551 N554 1.351 . S
C551 C556 1.501 . S
C552 C553 1.387 1_455 S
C552 N555 1.341 1_455 S
C553 C551 1.400 . S
C553 C552 1.387 1_655 S
N554 Co545 2.022 . S
N554 C551 1.351 . S
N554 N555 1.365 . S
N555 C552 1.341 1_655 S
N555 N554 1.365 . S
N555 H575 0.862 1_655 S
C556 C551 1.501 . S
C556 H557 0.961 . S
C556 H558 0.961 . S
C556 H559 0.960 . S
H557 C556 0.961 . S
H558 C556 0.961 . S
H559 C556 0.960 . S
C560 N561 1.342 1_565 S
C560 C564 1.401 . S
C560 C565 1.499 . S
N561 Co544 1.989 . S
N561 C560 1.342 1_545 S
N561 N562 1.388 . S
N562 Co545 1.993 . S
N562 N561 1.388 . S
N562 C563 1.346 1_545 S
C563 N562 1.346 1_565 S
C563 C564 1.396 . S
C563 C573 1.510 . S
C564 C560 1.401 . S
C564 C563 1.396 . S
C565 C560 1.499 . S
C565 H566 0.959 . S
C565 H567 0.960 . S
C565 H568 0.961 . S
H566 C565 0.959 . S
H567 C565 0.960 . S
H568 C565 0.961 . S
O569 Co544 1.967 . S
O569 C577 1.258 . S
O570 Co545 1.941 . S
O570 C577 1.266 . S
H571 C573 0.959 . S
H572 C573 0.961 . S
C573 C563 1.510 . S
C573 H571 0.959 . S
C573 H572 0.961 . S
C573 H574 0.960 . S
H574 C573 0.960 . S
H575 N555 0.862 1_455 S
O576 Co544 1.920 . S
O576 C549 1.289 . S
C577 O569 1.258 . S
C577 O570 1.266 . S
Co578 O581 1.970 . S
Co578 N595 1.989 . S
Co578 O603 1.967 . S
Co578 O610 1.920 . S
Co579 O582 1.966 . S
Co579 N588 2.022 . S
Co579 N596 1.993 . S
Co579 O604 1.941 . S
C580 O581 1.258 . S
C580 O582 1.263 . S
O581 Co578 1.970 . S
O581 C580 1.258 . S
O582 Co579 1.966 . S
O582 C580 1.263 . S
C583 O584 1.235 . S
C583 O610 1.289 . S
O584 C583 1.235 . S
C585 C587 1.400 . S
C585 N588 1.351 . S
C585 C590 1.501 . S
C586 C587 1.387 . S
C586 N589 1.341 . S
C587 C585 1.400 . S
C587 C586 1.387 . S
N588 Co579 2.022 . S
N588 C585 1.351 . S
N588 N589 1.365 . S
N589 C586 1.341 . S
N589 N588 1.365 . S
N589 H609 0.862 . S
C590 C585 1.501 . S
C590 H591 0.961 . S
C590 H592 0.961 . S
C590 H593 0.960 . S
H591 C590 0.961 . S
H592 C590 0.961 . S
H593 C590 0.960 . S
C594 N595 1.342 . S
C594 C598 1.401 . S
C594 C599 1.499 . S
N595 Co578 1.989 . S
N595 C594 1.342 . S
N595 N596 1.388 . S
N596 Co579 1.993 . S
N596 N595 1.388 . S
N596 C597 1.346 . S
C597 N596 1.346 . S
C597 C598 1.396 . S
C597 C607 1.510 . S
C598 C594 1.401 . S
C598 C597 1.396 . S
C599 C594 1.499 . S
C599 H600 0.959 . S
C599 H601 0.960 . S
C599 H602 0.961 . S
H600 C599 0.959 . S
H601 C599 0.960 . S
H602 C599 0.961 . S
O603 Co578 1.967 . S
O603 C611 1.258 . S
O604 Co579 1.941 . S
O604 C611 1.266 . S
H605 C607 0.959 . S
H606 C607 0.961 . S
C607 C597 1.510 . S
C607 H605 0.959 . S
C607 H606 0.961 . S
C607 H608 0.960 . S
H608 C607 0.960 . S
H609 N589 0.862 . S
O610 Co578 1.920 . S
O610 C583 1.289 . S
C611 O603 1.258 . S
C611 O604 1.266 . S
Co612 O615 1.970 . S
Co612 N629 1.989 . S
Co612 O637 1.967 . S
Co612 O644 1.920 . S
Co613 O616 1.966 . S
Co613 N622 2.022 . S
Co613 N630 1.993 . S
Co613 O638 1.941 . S
C614 O615 1.258 . S
C614 O616 1.263 . S
O615 Co612 1.970 . S
O615 C614 1.258 . S
O616 Co613 1.966 . S
O616 C614 1.263 . S
C617 O618 1.235 . S
C617 O644 1.289 . S
O618 C617 1.235 . S
C619 C621 1.400 . S
C619 N622 1.351 . S
C619 C624 1.501 . S
C620 C621 1.387 1_455 S
C620 N623 1.341 1_455 S
C621 C619 1.400 . S
C621 C620 1.387 1_655 S
N622 Co613 2.022 . S
N622 C619 1.351 . S
N622 N623 1.365 . S
N623 C620 1.341 1_655 S
N623 N622 1.365 . S
N623 H643 0.862 1_655 S
C624 C619 1.501 . S
C624 H625 0.961 . S
C624 H626 0.961 . S
C624 H627 0.960 . S
H625 C624 0.961 . S
H626 C624 0.961 . S
H627 C624 0.960 . S
C628 N629 1.342 . S
C628 C632 1.401 . S
C628 C633 1.499 . S
N629 Co612 1.989 . S
N629 C628 1.342 . S
N629 N630 1.388 . S
N630 Co613 1.993 . S
N630 N629 1.388 . S
N630 C631 1.346 . S
C631 N630 1.346 . S
C631 C632 1.396 . S
C631 C641 1.510 . S
C632 C628 1.401 . S
C632 C631 1.396 . S
C633 C628 1.499 . S
C633 H634 0.959 . S
C633 H635 0.960 . S
C633 H636 0.961 . S
H634 C633 0.959 . S
H635 C633 0.960 . S
H636 C633 0.961 . S
O637 Co612 1.967 . S
O637 C645 1.258 . S
O638 Co613 1.941 . S
O638 C645 1.266 . S
H639 C641 0.959 . S
H640 C641 0.961 . S
C641 C631 1.510 . S
C641 H639 0.959 . S
C641 H640 0.961 . S
C641 H642 0.960 . S
H642 C641 0.960 . S
H643 N623 0.862 1_455 S
O644 Co612 1.920 . S
O644 C617 1.289 . S
C645 O637 1.258 . S
C645 O638 1.266 . S
Co646 O649 1.970 . S
Co646 N663 1.989 . S
Co646 O671 1.967 . S
Co646 O678 1.920 . S
Co647 O650 1.966 . S
Co647 N656 2.022 . S
Co647 N664 1.993 . S
Co647 O672 1.941 . S
C648 O649 1.258 . S
C648 O650 1.263 . S
O649 Co646 1.970 . S
O649 C648 1.258 . S
O650 Co647 1.966 . S
O650 C648 1.263 . S
C651 O652 1.235 . S
C651 O678 1.289 . S
O652 C651 1.235 . S
C653 C655 1.400 . S
C653 N656 1.351 . S
C653 C658 1.501 . S
C654 C655 1.387 . S
C654 N657 1.341 . S
C655 C653 1.400 . S
C655 C654 1.387 . S
N656 Co647 2.022 . S
N656 C653 1.351 . S
N656 N657 1.365 . S
N657 C654 1.341 . S
N657 N656 1.365 . S
N657 H677 0.862 . S
C658 C653 1.501 . S
C658 H659 0.961 . S
C658 H660 0.961 . S
C658 H661 0.960 . S
H659 C658 0.961 . S
H660 C658 0.961 . S
H661 C658 0.960 . S
C662 N663 1.342 1_565 S
C662 C666 1.401 . S
C662 C667 1.499 . S
N663 Co646 1.989 . S
N663 C662 1.342 1_545 S
N663 N664 1.388 . S
N664 Co647 1.993 . S
N664 N663 1.388 . S
N664 C665 1.346 1_545 S
C665 N664 1.346 1_565 S
C665 C666 1.396 . S
C665 C675 1.510 . S
C666 C662 1.401 . S
C666 C665 1.396 . S
C667 C662 1.499 . S
C667 H668 0.959 . S
C667 H669 0.960 . S
C667 H670 0.961 . S
H668 C667 0.959 . S
H669 C667 0.960 . S
H670 C667 0.961 . S
O671 Co646 1.967 . S
O671 C679 1.258 . S
O672 Co647 1.941 . S
O672 C679 1.266 . S
H673 C675 0.959 . S
H674 C675 0.961 . S
C675 C665 1.510 . S
C675 H673 0.959 . S
C675 H674 0.961 . S
C675 H676 0.960 . S
H676 C675 0.960 . S
H677 N657 0.862 . S
O678 Co646 1.920 . S
O678 C651 1.289 . S
C679 O671 1.258 . S
C679 O672 1.266 . S
Co680 O683 1.970 . S
Co680 N697 1.989 . S
Co680 O705 1.967 . S
Co680 O712 1.920 . S
Co681 O684 1.966 . S
Co681 N690 2.022 . S
Co681 N698 1.993 . S
Co681 O706 1.941 . S
C682 O683 1.258 . S
C682 O684 1.263 . S
O683 Co680 1.970 . S
O683 C682 1.258 . S
O684 Co681 1.966 . S
O684 C682 1.263 . S
C685 O686 1.235 . S
C685 O712 1.289 . S
O686 C685 1.235 . S
C687 C689 1.400 . S
C687 N690 1.351 . S
C687 C692 1.501 . S
C688 C689 1.387 1_655 S
C688 N691 1.341 1_655 S
C689 C687 1.400 . S
C689 C688 1.387 1_455 S
N690 Co681 2.022 . S
N690 C687 1.351 . S
N690 N691 1.365 . S
N691 C688 1.341 1_455 S
N691 N690 1.365 . S
N691 H711 0.862 1_455 S
C692 C687 1.501 . S
C692 H693 0.961 . S
C692 H694 0.961 . S
C692 H695 0.960 . S
H693 C692 0.961 . S
H694 C692 0.961 . S
H695 C692 0.960 . S
C696 N697 1.342 1_545 S
C696 C700 1.401 . S
C696 C701 1.499 . S
N697 Co680 1.989 . S
N697 C696 1.342 1_565 S
N697 N698 1.388 . S
N698 Co681 1.993 . S
N698 N697 1.388 . S
N698 C699 1.346 1_565 S
C699 N698 1.346 1_545 S
C699 C700 1.396 . S
C699 C709 1.510 . S
C700 C696 1.401 . S
C700 C699 1.396 . S
C701 C696 1.499 . S
C701 H702 0.959 . S
C701 H703 0.960 . S
C701 H704 0.961 . S
H702 C701 0.959 . S
H703 C701 0.960 . S
H704 C701 0.961 . S
O705 Co680 1.967 . S
O705 C713 1.258 . S
O706 Co681 1.941 . S
O706 C713 1.266 . S
H707 C709 0.959 . S
H708 C709 0.961 . S
C709 C699 1.510 . S
C709 H707 0.959 . S
C709 H708 0.961 . S
C709 H710 0.960 . S
H710 C709 0.960 . S
H711 N691 0.862 1_655 S
O712 Co680 1.920 . S
O712 C685 1.289 . S
C713 O705 1.258 . S
C713 O706 1.266 . S
Co714 O717 1.970 . S
Co714 N731 1.989 . S
Co714 O739 1.967 . S
Co714 O746 1.920 . S
Co715 O718 1.966 . S
Co715 N724 2.022 . S
Co715 N732 1.993 . S
Co715 O740 1.941 . S
C716 O717 1.258 . S
C716 O718 1.263 . S
O717 Co714 1.970 . S
O717 C716 1.258 . S
O718 Co715 1.966 . S
O718 C716 1.263 . S
C719 O720 1.235 . S
C719 O746 1.289 . S
O720 C719 1.235 . S
C721 C723 1.400 . S
C721 N724 1.351 . S
C721 C726 1.501 . S
C722 C723 1.387 . S
C722 N725 1.341 . S
C723 C721 1.400 . S
C723 C722 1.387 . S
N724 Co715 2.022 . S
N724 C721 1.351 . S
N724 N725 1.365 . S
N725 C722 1.341 . S
N725 N724 1.365 . S
N725 H745 0.862 . S
C726 C721 1.501 . S
C726 H727 0.961 . S
C726 H728 0.961 . S
C726 H729 0.960 . S
H727 C726 0.961 . S
H728 C726 0.961 . S
H729 C726 0.960 . S
C730 N731 1.342 . S
C730 C734 1.401 . S
C730 C735 1.499 . S
N731 Co714 1.989 . S
N731 C730 1.342 . S
N731 N732 1.388 . S
N732 Co715 1.993 . S
N732 N731 1.388 . S
N732 C733 1.346 . S
C733 N732 1.346 . S
C733 C734 1.396 . S
C733 C743 1.510 . S
C734 C730 1.401 . S
C734 C733 1.396 . S
C735 C730 1.499 . S
C735 H736 0.959 . S
C735 H737 0.960 . S
C735 H738 0.961 . S
H736 C735 0.959 . S
H737 C735 0.960 . S
H738 C735 0.961 . S
O739 Co714 1.967 . S
O739 C747 1.258 . S
O740 Co715 1.941 . S
O740 C747 1.266 . S
H741 C743 0.959 . S
H742 C743 0.961 . S
C743 C733 1.510 . S
C743 H741 0.959 . S
C743 H742 0.961 . S
C743 H744 0.960 . S
H744 C743 0.960 . S
H745 N725 0.862 . S
O746 Co714 1.920 . S
O746 C719 1.289 . S
C747 O739 1.258 . S
C747 O740 1.266 . S
Co748 O751 1.970 . S
Co748 N765 1.989 . S
Co748 O773 1.967 . S
Co748 O780 1.920 . S
Co749 O752 1.966 . S
Co749 N758 2.022 . S
Co749 N766 1.993 . S
Co749 O774 1.941 . S
C750 O751 1.258 . S
C750 O752 1.263 . S
O751 Co748 1.970 . S
O751 C750 1.258 . S
O752 Co749 1.966 . S
O752 C750 1.263 . S
C753 O754 1.235 . S
C753 O780 1.289 . S
O754 C753 1.235 . S
C755 C757 1.400 . S
C755 N758 1.351 . S
C755 C760 1.501 . S
C756 C757 1.387 1_655 S
C756 N759 1.341 1_655 S
C757 C755 1.400 . S
C757 C756 1.387 1_455 S
N758 Co749 2.022 . S
N758 C755 1.351 . S
N758 N759 1.365 . S
N759 C756 1.341 1_455 S
N759 N758 1.365 . S
N759 H779 0.862 1_455 S
C760 C755 1.501 . S
C760 H761 0.961 . S
C760 H762 0.961 . S
C760 H763 0.960 . S
H761 C760 0.961 . S
H762 C760 0.961 . S
H763 C760 0.960 . S
C764 N765 1.342 . S
C764 C768 1.401 . S
C764 C769 1.499 . S
N765 Co748 1.989 . S
N765 C764 1.342 . S
N765 N766 1.388 . S
N766 Co749 1.993 . S
N766 N765 1.388 . S
N766 C767 1.346 . S
C767 N766 1.346 . S
C767 C768 1.396 . S
C767 C777 1.510 . S
C768 C764 1.401 . S
C768 C767 1.396 . S
C769 C764 1.499 . S
C769 H770 0.959 . S
C769 H771 0.960 . S
C769 H772 0.961 . S
H770 C769 0.959 . S
H771 C769 0.960 . S
H772 C769 0.961 . S
O773 Co748 1.967 . S
O773 C781 1.258 . S
O774 Co749 1.941 . S
O774 C781 1.266 . S
H775 C777 0.959 . S
H776 C777 0.961 . S
C777 C767 1.510 . S
C777 H775 0.959 . S
C777 H776 0.961 . S
C777 H778 0.960 . S
H778 C777 0.960 . S
H779 N759 0.862 1_655 S
O780 Co748 1.920 . S
O780 C753 1.289 . S
C781 O773 1.258 . S
C781 O774 1.266 . S
Co782 O785 1.970 . S
Co782 N799 1.989 . S
Co782 O807 1.967 . S
Co782 O814 1.920 . S
Co783 O786 1.966 . S
Co783 N792 2.022 . S
Co783 N800 1.993 . S
Co783 O808 1.941 . S
C784 O785 1.258 . S
C784 O786 1.263 . S
O785 Co782 1.970 . S
O785 C784 1.258 . S
O786 Co783 1.966 . S
O786 C784 1.263 . S
C787 O788 1.235 . S
C787 O814 1.289 . S
O788 C787 1.235 . S
C789 C791 1.400 . S
C789 N792 1.351 . S
C789 C794 1.501 . S
C790 C791 1.387 . S
C790 N793 1.341 . S
C791 C789 1.400 . S
C791 C790 1.387 . S
N792 Co783 2.022 . S
N792 C789 1.351 . S
N792 N793 1.365 . S
N793 C790 1.341 . S
N793 N792 1.365 . S
N793 H813 0.862 . S
C794 C789 1.501 . S
C794 H795 0.961 . S
C794 H796 0.961 . S
C794 H797 0.960 . S
H795 C794 0.961 . S
H796 C794 0.961 . S
H797 C794 0.960 . S
C798 N799 1.342 1_545 S
C798 C802 1.401 . S
C798 C803 1.499 . S
N799 Co782 1.989 . S
N799 C798 1.342 1_565 S
N799 N800 1.388 . S
N800 Co783 1.993 . S
N800 N799 1.388 . S
N800 C801 1.346 1_565 S
C801 N800 1.346 1_545 S
C801 C802 1.396 . S
C801 C811 1.510 . S
C802 C798 1.401 . S
C802 C801 1.396 . S
C803 C798 1.499 . S
C803 H804 0.959 . S
C803 H805 0.960 . S
C803 H806 0.961 . S
H804 C803 0.959 . S
H805 C803 0.960 . S
H806 C803 0.961 . S
O807 Co782 1.967 . S
O807 C815 1.258 . S
O808 Co783 1.941 . S
O808 C815 1.266 . S
H809 C811 0.959 . S
H810 C811 0.961 . S
C811 C801 1.510 . S
C811 H809 0.959 . S
C811 H810 0.961 . S
C811 H812 0.960 . S
H812 C811 0.960 . S
H813 N793 0.862 . S
O814 Co782 1.920 . S
O814 C787 1.289 . S
C815 O807 1.258 . S
C815 O808 1.266 . S
Co816 O819 1.970 . S
Co816 N833 1.989 . S
Co816 O841 1.967 . S
Co816 O848 1.920 . S
Co817 O820 1.966 . S
Co817 N826 2.022 . S
Co817 N834 1.993 . S
Co817 O842 1.941 . S
C818 O819 1.258 . S
C818 O820 1.263 . S
O819 Co816 1.970 . S
O819 C818 1.258 . S
O820 Co817 1.966 . S
O820 C818 1.263 . S
C821 O822 1.235 . S
C821 O848 1.289 . S
O822 C821 1.235 . S
C823 C825 1.400 . S
C823 N826 1.351 . S
C823 C828 1.501 . S
C824 C825 1.387 1_455 S
C824 N827 1.341 1_455 S
C825 C823 1.400 . S
C825 C824 1.387 1_655 S
N826 Co817 2.022 . S
N826 C823 1.351 . S
N826 N827 1.365 . S
N827 C824 1.341 1_655 S
N827 N826 1.365 . S
N827 H847 0.862 1_655 S
C828 C823 1.501 . S
C828 H829 0.961 . S
C828 H830 0.961 . S
C828 H831 0.960 . S
H829 C828 0.961 . S
H830 C828 0.961 . S
H831 C828 0.960 . S
C832 N833 1.342 . S
C832 C836 1.401 . S
C832 C837 1.499 . S
N833 Co816 1.989 . S
N833 C832 1.342 . S
N833 N834 1.388 . S
N834 Co817 1.993 . S
N834 N833 1.388 . S
N834 C835 1.346 . S
C835 N834 1.346 . S
C835 C836 1.396 . S
C835 C845 1.510 . S
C836 C832 1.401 . S
C836 C835 1.396 . S
C837 C832 1.499 . S
C837 H838 0.959 . S
C837 H839 0.960 . S
C837 H840 0.961 . S
H838 C837 0.959 . S
H839 C837 0.960 . S
H840 C837 0.961 . S
O841 Co816 1.967 . S
O841 C849 1.258 . S
O842 Co817 1.941 . S
O842 C849 1.266 . S
H843 C845 0.959 . S
H844 C845 0.961 . S
C845 C835 1.510 . S
C845 H843 0.959 . S
C845 H844 0.961 . S
C845 H846 0.960 . S
H846 C845 0.960 . S
H847 N827 0.862 1_455 S
O848 Co816 1.920 . S
O848 C821 1.289 . S
C849 O841 1.258 . S
C849 O842 1.266 . S
Co850 O853 1.970 . S
Co850 N867 1.989 . S
Co850 O875 1.967 . S
Co850 O882 1.920 . S
Co851 O854 1.966 . S
Co851 N860 2.022 . S
Co851 N868 1.993 . S
Co851 O876 1.941 . S
C852 O853 1.258 . S
C852 O854 1.263 . S
O853 Co850 1.970 . S
O853 C852 1.258 . S
O854 Co851 1.966 . S
O854 C852 1.263 . S
C855 O856 1.235 . S
C855 O882 1.289 . S
O856 C855 1.235 . S
C857 C859 1.400 . S
C857 N860 1.351 . S
C857 C862 1.501 . S
C858 C859 1.387 . S
C858 N861 1.341 . S
C859 C857 1.400 . S
C859 C858 1.387 . S
N860 Co851 2.022 . S
N860 C857 1.351 . S
N860 N861 1.365 . S
N861 C858 1.341 . S
N861 N860 1.365 . S
N861 H881 0.862 . S
C862 C857 1.501 . S
C862 H863 0.961 . S
C862 H864 0.961 . S
C862 H865 0.960 . S
H863 C862 0.961 . S
H864 C862 0.961 . S
H865 C862 0.960 . S
C866 N867 1.342 . S
C866 C870 1.401 . S
C866 C871 1.499 . S
N867 Co850 1.989 . S
N867 C866 1.342 . S
N867 N868 1.388 . S
N868 Co851 1.993 . S
N868 N867 1.388 . S
N868 C869 1.346 . S
C869 N868 1.346 . S
C869 C870 1.396 . S
C869 C879 1.510 . S
C870 C866 1.401 . S
C870 C869 1.396 . S
C871 C866 1.499 . S
C871 H872 0.959 . S
C871 H873 0.960 . S
C871 H874 0.961 . S
H872 C871 0.959 . S
H873 C871 0.960 . S
H874 C871 0.961 . S
O875 Co850 1.967 . S
O875 C883 1.258 . S
O876 Co851 1.941 . S
O876 C883 1.266 . S
H877 C879 0.959 . S
H878 C879 0.961 . S
C879 C869 1.510 . S
C879 H877 0.959 . S
C879 H878 0.961 . S
C879 H880 0.960 . S
H880 C879 0.960 . S
H881 N861 0.862 . S
O882 Co850 1.920 . S
O882 C855 1.289 . S
C883 O875 1.258 . S
C883 O876 1.266 . S
Co884 O887 1.970 . S
Co884 N901 1.989 . S
Co884 O909 1.967 . S
Co884 O916 1.920 . S
Co885 O888 1.966 . S
Co885 N894 2.022 . S
Co885 N902 1.993 . S
Co885 O910 1.941 . S
C886 O887 1.258 . S
C886 O888 1.263 . S
O887 Co884 1.970 . S
O887 C886 1.258 . S
O888 Co885 1.966 . S
O888 C886 1.263 . S
C889 O890 1.235 . S
C889 O916 1.289 . S
O890 C889 1.235 . S
C891 C893 1.400 . S
C891 N894 1.351 . S
C891 C896 1.501 . S
C892 C893 1.387 1_455 S
C892 N895 1.341 1_455 S
C893 C891 1.400 . S
C893 C892 1.387 1_655 S
N894 Co885 2.022 . S
N894 C891 1.351 . S
N894 N895 1.365 . S
N895 C892 1.341 1_655 S
N895 N894 1.365 . S
N895 H915 0.862 1_655 S
C896 C891 1.501 . S
C896 H897 0.961 . S
C896 H898 0.961 . S
C896 H899 0.960 . S
H897 C896 0.961 . S
H898 C896 0.961 . S
H899 C896 0.960 . S
C900 N901 1.342 . S
C900 C904 1.401 . S
C900 C905 1.499 . S
N901 Co884 1.989 . S
N901 C900 1.342 . S
N901 N902 1.388 . S
N902 Co885 1.993 . S
N902 N901 1.388 . S
N902 C903 1.346 . S
C903 N902 1.346 . S
C903 C904 1.396 . S
C903 C913 1.510 . S
C904 C900 1.401 . S
C904 C903 1.396 . S
C905 C900 1.499 . S
C905 H906 0.959 . S
C905 H907 0.960 . S
C905 H908 0.961 . S
H906 C905 0.959 . S
H907 C905 0.960 . S
H908 C905 0.961 . S
O909 Co884 1.967 . S
O909 C917 1.258 . S
O910 Co885 1.941 . S
O910 C917 1.266 . S
H911 C913 0.959 . S
H912 C913 0.961 . S
C913 C903 1.510 . S
C913 H911 0.959 . S
C913 H912 0.961 . S
C913 H914 0.960 . S
H914 C913 0.960 . S
H915 N895 0.862 1_455 S
O916 Co884 1.920 . S
O916 C889 1.289 . S
C917 O909 1.258 . S
C917 O910 1.266 . S
Co918 O921 1.970 . S
Co918 N935 1.989 . S
Co918 O943 1.967 . S
Co918 O950 1.920 . S
Co919 O922 1.966 . S
Co919 N928 2.022 . S
Co919 N936 1.993 . S
Co919 O944 1.941 . S
C920 O921 1.258 . S
C920 O922 1.263 . S
O921 Co918 1.970 . S
O921 C920 1.258 . S
O922 Co919 1.966 . S
O922 C920 1.263 . S
C923 O924 1.235 . S
C923 O950 1.289 . S
O924 C923 1.235 . S
C925 C927 1.400 . S
C925 N928 1.351 . S
C925 C930 1.501 . S
C926 C927 1.387 . S
C926 N929 1.341 . S
C927 C925 1.400 . S
C927 C926 1.387 . S
N928 Co919 2.022 . S
N928 C925 1.351 . S
N928 N929 1.365 . S
N929 C926 1.341 . S
N929 N928 1.365 . S
N929 H949 0.862 . S
C930 C925 1.501 . S
C930 H931 0.961 . S
C930 H932 0.961 . S
C930 H933 0.960 . S
H931 C930 0.961 . S
H932 C930 0.961 . S
H933 C930 0.960 . S
C934 N935 1.342 . S
C934 C938 1.401 . S
C934 C939 1.499 . S
N935 Co918 1.989 . S
N935 C934 1.342 . S
N935 N936 1.388 . S
N936 Co919 1.993 . S
N936 N935 1.388 . S
N936 C937 1.346 . S
C937 N936 1.346 . S
C937 C938 1.396 . S
C937 C947 1.510 . S
C938 C934 1.401 . S
C938 C937 1.396 . S
C939 C934 1.499 . S
C939 H940 0.959 . S
C939 H941 0.960 . S
C939 H942 0.961 . S
H940 C939 0.959 . S
H941 C939 0.960 . S
H942 C939 0.961 . S
O943 Co918 1.967 . S
O943 C951 1.258 . S
O944 Co919 1.941 . S
O944 C951 1.266 . S
H945 C947 0.959 . S
H946 C947 0.961 . S
C947 C937 1.510 . S
C947 H945 0.959 . S
C947 H946 0.961 . S
C947 H948 0.960 . S
H948 C947 0.960 . S
H949 N929 0.862 . S
O950 Co918 1.920 . S
O950 C923 1.289 . S
C951 O943 1.258 . S
C951 O944 1.266 . S
Co952 O955 1.970 . S
Co952 N969 1.989 . S
Co952 O977 1.967 . S
Co952 O984 1.920 . S
Co953 O956 1.966 . S
Co953 N962 2.022 . S
Co953 N970 1.993 . S
Co953 O978 1.941 . S
C954 O955 1.258 . S
C954 O956 1.263 . S
O955 Co952 1.970 . S
O955 C954 1.258 . S
O956 Co953 1.966 . S
O956 C954 1.263 . S
C957 O958 1.235 . S
C957 O984 1.289 . S
O958 C957 1.235 . S
C959 C961 1.400 . S
C959 N962 1.351 . S
C959 C964 1.501 . S
C960 C961 1.387 1_655 S
C960 N963 1.341 1_655 S
C961 C959 1.400 . S
C961 C960 1.387 1_455 S
N962 Co953 2.022 . S
N962 C959 1.351 . S
N962 N963 1.365 . S
N963 C960 1.341 1_455 S
N963 N962 1.365 . S
N963 H983 0.862 1_455 S
C964 C959 1.501 . S
C964 H965 0.961 . S
C964 H966 0.961 . S
C964 H967 0.960 . S
H965 C964 0.961 . S
H966 C964 0.961 . S
H967 C964 0.960 . S
C968 N969 1.342 . S
C968 C972 1.401 . S
C968 C973 1.499 . S
N969 Co952 1.989 . S
N969 C968 1.342 . S
N969 N970 1.388 . S
N970 Co953 1.993 . S
N970 N969 1.388 . S
N970 C971 1.346 . S
C971 N970 1.346 . S
C971 C972 1.396 . S
C971 C981 1.510 . S
C972 C968 1.401 . S
C972 C971 1.396 . S
C973 C968 1.499 . S
C973 H974 0.959 . S
C973 H975 0.960 . S
C973 H976 0.961 . S
H974 C973 0.959 . S
H975 C973 0.960 . S
H976 C973 0.961 . S
O977 Co952 1.967 . S
O977 C985 1.258 . S
O978 Co953 1.941 . S
O978 C985 1.266 . S
H979 C981 0.959 . S
H980 C981 0.961 . S
C981 C971 1.510 . S
C981 H979 0.959 . S
C981 H980 0.961 . S
C981 H982 0.960 . S
H982 C981 0.960 . S
H983 N963 0.862 1_655 S
O984 Co952 1.920 . S
O984 C957 1.289 . S
C985 O977 1.258 . S
C985 O978 1.266 . S
Co986 O989 1.970 . S
Co986 N1003 1.989 . S
Co986 O1011 1.967 . S
Co986 O1018 1.920 . S
Co987 O990 1.966 . S
Co987 N996 2.022 . S
Co987 N1004 1.993 . S
Co987 O1012 1.941 . S
C988 O989 1.258 . S
C988 O990 1.263 . S
O989 Co986 1.970 . S
O989 C988 1.258 . S
O990 Co987 1.966 . S
O990 C988 1.263 . S
C991 O992 1.235 . S
C991 O1018 1.289 . S
O992 C991 1.235 . S
C993 C995 1.400 . S
C993 N996 1.351 . S
C993 C998 1.501 . S
C994 C995 1.387 . S
C994 N997 1.341 . S
C995 C993 1.400 . S
C995 C994 1.387 . S
N996 Co987 2.022 . S
N996 C993 1.351 . S
N996 N997 1.365 . S
N997 C994 1.341 . S
N997 N996 1.365 . S
N997 H1017 0.862 . S
C998 C993 1.501 . S
C998 H999 0.961 . S
C998 H1000 0.961 . S
C998 H1001 0.960 . S
H999 C998 0.961 . S
H1000 C998 0.961 . S
H1001 C998 0.960 . S
C1002 N1003 1.342 . S
C1002 C1006 1.401 . S
C1002 C1007 1.499 . S
N1003 Co986 1.989 . S
N1003 C1002 1.342 . S
N1003 N1004 1.388 . S
N1004 Co987 1.993 . S
N1004 N1003 1.388 . S
N1004 C1005 1.346 . S
C1005 N1004 1.346 . S
C1005 C1006 1.396 . S
C1005 C1015 1.510 . S
C1006 C1002 1.401 . S
C1006 C1005 1.396 . S
C1007 C1002 1.499 . S
C1007 H1008 0.959 . S
C1007 H1009 0.960 . S
C1007 H1010 0.961 . S
H1008 C1007 0.959 . S
H1009 C1007 0.960 . S
H1010 C1007 0.961 . S
O1011 Co986 1.967 . S
O1011 C1019 1.258 . S
O1012 Co987 1.941 . S
O1012 C1019 1.266 . S
H1013 C1015 0.959 . S
H1014 C1015 0.961 . S
C1015 C1005 1.510 . S
C1015 H1013 0.959 . S
C1015 H1014 0.961 . S
C1015 H1016 0.960 . S
H1016 C1015 0.960 . S
H1017 N997 0.862 . S
O1018 Co986 1.920 . S
O1018 C991 1.289 . S
C1019 O1011 1.258 . S
C1019 O1012 1.266 . S
Co1020 O1023 1.970 . S
Co1020 N1037 1.989 . S
Co1020 O1045 1.967 . S
Co1020 O1052 1.920 . S
Co1021 O1024 1.966 . S
Co1021 N1030 2.022 . S
Co1021 N1038 1.993 . S
Co1021 O1046 1.941 . S
C1022 O1023 1.258 . S
C1022 O1024 1.263 . S
O1023 Co1020 1.970 . S
O1023 C1022 1.258 . S
O1024 Co1021 1.966 . S
O1024 C1022 1.263 . S
C1025 O1026 1.235 . S
C1025 O1052 1.289 . S
O1026 C1025 1.235 . S
C1027 C1029 1.400 . S
C1027 N1030 1.351 . S
C1027 C1032 1.501 . S
C1028 C1029 1.387 1_655 S
C1028 N1031 1.341 1_655 S
C1029 C1027 1.400 . S
C1029 C1028 1.387 1_455 S
N1030 Co1021 2.022 . S
N1030 C1027 1.351 . S
N1030 N1031 1.365 . S
N1031 C1028 1.341 1_455 S
N1031 N1030 1.365 . S
N1031 H1051 0.862 1_455 S
C1032 C1027 1.501 . S
C1032 H1033 0.961 . S
C1032 H1034 0.961 . S
C1032 H1035 0.960 . S
H1033 C1032 0.961 . S
H1034 C1032 0.961 . S
H1035 C1032 0.960 . S
C1036 N1037 1.342 . S
C1036 C1040 1.401 . S
C1036 C1041 1.499 . S
N1037 Co1020 1.989 . S
N1037 C1036 1.342 . S
N1037 N1038 1.388 . S
N1038 Co1021 1.993 . S
N1038 N1037 1.388 . S
N1038 C1039 1.346 . S
C1039 N1038 1.346 . S
C1039 C1040 1.396 . S
C1039 C1049 1.510 . S
C1040 C1036 1.401 . S
C1040 C1039 1.396 . S
C1041 C1036 1.499 . S
C1041 H1042 0.959 . S
C1041 H1043 0.960 . S
C1041 H1044 0.961 . S
H1042 C1041 0.959 . S
H1043 C1041 0.960 . S
H1044 C1041 0.961 . S
O1045 Co1020 1.967 . S
O1045 C1053 1.258 . S
O1046 Co1021 1.941 . S
O1046 C1053 1.266 . S
H1047 C1049 0.959 . S
H1048 C1049 0.961 . S
C1049 C1039 1.510 . S
C1049 H1047 0.959 . S
C1049 H1048 0.961 . S
C1049 H1050 0.960 . S
H1050 C1049 0.960 . S
H1051 N1031 0.862 1_655 S
O1052 Co1020 1.920 . S
O1052 C1025 1.289 . S
C1053 O1045 1.258 . S
C1053 O1046 1.266 . S
Co1054 O1057 1.970 . S
Co1054 N1071 1.989 . S
Co1054 O1079 1.967 . S
Co1054 O1086 1.920 . S
Co1055 O1058 1.966 . S
Co1055 N1064 2.022 . S
Co1055 N1072 1.993 . S
Co1055 O1080 1.941 . S
C1056 O1057 1.258 . S
C1056 O1058 1.263 . S
O1057 Co1054 1.970 . S
O1057 C1056 1.258 . S
O1058 Co1055 1.966 . S
O1058 C1056 1.263 . S
C1059 O1060 1.235 . S
C1059 O1086 1.289 . S
O1060 C1059 1.235 . S
C1061 C1063 1.400 . S
C1061 N1064 1.351 . S
C1061 C1066 1.501 . S
C1062 C1063 1.387 . S
C1062 N1065 1.341 . S
C1063 C1061 1.400 . S
C1063 C1062 1.387 . S
N1064 Co1055 2.022 . S
N1064 C1061 1.351 . S
N1064 N1065 1.365 . S
N1065 C1062 1.341 . S
N1065 N1064 1.365 . S
N1065 H1085 0.862 . S
C1066 C1061 1.501 . S
C1066 H1067 0.961 . S
C1066 H1068 0.961 . S
C1066 H1069 0.960 . S
H1067 C1066 0.961 . S
H1068 C1066 0.961 . S
H1069 C1066 0.960 . S
C1070 N1071 1.342 . S
C1070 C1074 1.401 . S
C1070 C1075 1.499 . S
N1071 Co1054 1.989 . S
N1071 C1070 1.342 . S
N1071 N1072 1.388 . S
N1072 Co1055 1.993 . S
N1072 N1071 1.388 . S
N1072 C1073 1.346 . S
C1073 N1072 1.346 . S
C1073 C1074 1.396 . S
C1073 C1083 1.510 . S
C1074 C1070 1.401 . S
C1074 C1073 1.396 . S
C1075 C1070 1.499 . S
C1075 H1076 0.959 . S
C1075 H1077 0.960 . S
C1075 H1078 0.961 . S
H1076 C1075 0.959 . S
H1077 C1075 0.960 . S
H1078 C1075 0.961 . S
O1079 Co1054 1.967 . S
O1079 C1087 1.258 . S
O1080 Co1055 1.941 . S
O1080 C1087 1.266 . S
H1081 C1083 0.959 . S
H1082 C1083 0.961 . S
C1083 C1073 1.510 . S
C1083 H1081 0.959 . S
C1083 H1082 0.961 . S
C1083 H1084 0.960 . S
H1084 C1083 0.960 . S
H1085 N1065 0.862 . S
O1086 Co1054 1.920 . S
O1086 C1059 1.289 . S
C1087 O1079 1.258 . S
C1087 O1080 1.266 . S
H1088 C1096 0.950 . S
H1089 C1101 0.950 1_565 S
H1090 C1098 0.950 . S
H1091 C1100 0.950 . S
H1092 C1102 0.950 . S
H1093 C1104 0.950 . S
H1094 C1106 0.950 . S
H1095 C1107 0.950 1_545 S
C1096 H1088 0.950 . S
C1096 C1097 1.386 . S
C1096 C1098 1.391 . S
C1097 C1096 1.386 . S
C1097 C1101 1.393 . S
C1098 H1090 0.950 . S
C1098 C1096 1.391 . S
C1098 C1099 1.400 . S
C1099 C1098 1.400 . S
C1099 C1100 1.398 1_545 S
C1099 C1105 1.491 1_544 S
C1100 H1091 0.950 . S
C1100 C1099 1.398 1_565 S
C1100 C1101 1.391 1_565 S
C1101 H1089 0.950 1_545 S
C1101 C1097 1.393 . S
C1101 C1100 1.391 1_545 S
C1102 H1092 0.950 . S
C1102 C1103 1.386 . S
C1102 C1104 1.391 . S
C1103 C1102 1.386 . S
C1103 C1107 1.393 . S
C1104 H1093 0.950 . S
C1104 C1102 1.391 . S
C1104 C1105 1.400 . S
C1105 C1099 1.491 1_566 S
C1105 C1104 1.400 . S
C1105 C1106 1.398 1_565 S
C1106 H1094 0.950 . S
C1106 C1105 1.398 1_545 S
C1106 C1107 1.391 1_545 S
C1107 H1095 0.950 1_565 S
C1107 C1103 1.393 . S
C1107 C1106 1.391 1_565 S
H1108 C1116 0.950 . S
H1109 C1121 0.950 . S
H1110 C1118 0.950 . S
H1111 C1120 0.950 . S
H1112 C1122 0.950 . S
H1113 C1124 0.950 . S
H1114 C1126 0.950 . S
H1115 C1127 0.950 . S
C1116 H1108 0.950 . S
C1116 C1117 1.386 . S
C1116 C1118 1.391 . S
C1117 C1116 1.386 . S
C1117 C1121 1.393 . S
C1118 H1110 0.950 . S
C1118 C1116 1.391 . S
C1118 C1119 1.400 . S
C1119 C1118 1.400 . S
C1119 C1120 1.398 . S
C1119 C1125 1.491 1_556 S
C1120 H1111 0.950 . S
C1120 C1119 1.398 . S
C1120 C1121 1.391 . S
C1121 H1109 0.950 . S
C1121 C1117 1.393 . S
C1121 C1120 1.391 . S
C1122 H1112 0.950 . S
C1122 C1123 1.386 . S
C1122 C1124 1.391 . S
C1123 C1122 1.386 . S
C1123 C1127 1.393 . S
C1124 H1113 0.950 . S
C1124 C1122 1.391 . S
C1124 C1125 1.400 . S
C1125 C1119 1.491 1_554 S
C1125 C1124 1.400 . S
C1125 C1126 1.398 . S
C1126 H1114 0.950 . S
C1126 C1125 1.398 . S
C1126 C1127 1.391 . S
C1127 H1115 0.950 . S
C1127 C1123 1.393 . S
C1127 C1126 1.391 . S
H1128 C1136 0.950 . S
H1129 C1141 0.950 . S
H1130 C1138 0.950 . S
H1131 C1140 0.950 . S
H1132 C1142 0.950 . S
H1133 C1144 0.950 . S
H1134 C1146 0.950 . S
H1135 C1147 0.950 . S
C1136 H1128 0.950 . S
C1136 C1137 1.386 . S
C1136 C1138 1.391 . S
C1137 C1136 1.386 . S
C1137 C1141 1.393 . S
C1138 H1130 0.950 . S
C1138 C1136 1.391 . S
C1138 C1139 1.400 . S
C1139 C1138 1.400 . S
C1139 C1140 1.398 . S
C1139 C1145 1.491 . S
C1140 H1131 0.950 . S
C1140 C1139 1.398 . S
C1140 C1141 1.391 . S
C1141 H1129 0.950 . S
C1141 C1137 1.393 . S
C1141 C1140 1.391 . S
C1142 H1132 0.950 . S
C1142 C1143 1.386 . S
C1142 C1144 1.391 . S
C1143 C1142 1.386 . S
C1143 C1147 1.393 . S
C1144 H1133 0.950 . S
C1144 C1142 1.391 . S
C1144 C1145 1.400 . S
C1145 C1139 1.491 . S
C1145 C1144 1.400 . S
C1145 C1146 1.398 . S
C1146 H1134 0.950 . S
C1146 C1145 1.398 . S
C1146 C1147 1.391 . S
C1147 H1135 0.950 . S
C1147 C1143 1.393 . S
C1147 C1146 1.391 . S
H1148 C1156 0.950 . S
H1149 C1161 0.950 . S
H1150 C1158 0.969 . S
H1151 C1160 0.950 . S
H1152 C1162 0.950 . S
H1153 C1164 0.970 . S
H1154 C1166 0.950 . S
H1155 C1167 0.950 . S
C1156 H1148 0.950 . S
C1156 C1157 1.386 . S
C1156 C1158 1.380 1_565 S
C1157 C1156 1.386 . S
C1157 C1161 1.393 . S
C1158 H1150 0.969 . S
C1158 C1156 1.380 1_545 S
C1158 C1159 1.393 1_545 S
C1159 C1158 1.393 1_565 S
C1159 C1160 1.398 . S
C1159 C1165 1.491 1_565 S
C1160 H1151 0.950 . S
C1160 C1159 1.398 . S
C1160 C1161 1.391 . S
C1161 H1149 0.950 . S
C1161 C1157 1.393 . S
C1161 C1160 1.391 . S
C1162 H1152 0.950 . S
C1162 C1163 1.386 . S
C1162 C1164 1.379 1_545 S
C1163 C1162 1.386 . S
C1163 C1167 1.393 . S
C1164 H1153 0.970 . S
C1164 C1162 1.379 1_565 S
C1164 C1165 1.393 1_565 S
C1165 C1159 1.491 1_545 S
C1165 C1164 1.393 1_545 S
C1165 C1166 1.398 . S
C1166 H1154 0.950 . S
C1166 C1165 1.398 . S
C1166 C1167 1.391 . S
C1167 H1155 0.950 . S
C1167 C1163 1.393 . S
C1167 C1166 1.391 . S
H1168 C1176 0.950 . S
H1169 C1181 0.950 . S
H1170 C1178 0.950 . S
H1171 C1180 0.950 . S
H1172 C1182 0.950 . S
H1173 C1184 0.950 . S
H1174 C1186 0.950 . S
H1175 C1187 0.950 . S
C1176 H1168 0.950 . S
C1176 C1177 1.386 . S
C1176 C1178 1.391 . S
C1177 C1176 1.386 . S
C1177 C1181 1.393 . S
C1178 H1170 0.950 . S
C1178 C1176 1.391 . S
C1178 C1179 1.400 . S
C1179 C1178 1.400 . S
C1179 C1180 1.398 . S
C1179 C1185 1.491 1_556 S
C1180 H1171 0.950 . S
C1180 C1179 1.398 . S
C1180 C1181 1.391 . S
C1181 H1169 0.950 . S
C1181 C1177 1.393 . S
C1181 C1180 1.391 . S
C1182 H1172 0.950 . S
C1182 C1183 1.386 . S
C1182 C1184 1.391 . S
C1183 C1182 1.386 . S
C1183 C1187 1.393 . S
C1184 H1173 0.950 . S
C1184 C1182 1.391 . S
C1184 C1185 1.400 . S
C1185 C1179 1.491 1_554 S
C1185 C1184 1.400 . S
C1185 C1186 1.398 . S
C1186 H1174 0.950 . S
C1186 C1185 1.398 . S
C1186 C1187 1.391 . S
C1187 H1175 0.950 . S
C1187 C1183 1.393 . S
C1187 C1186 1.391 . S
H1188 C1196 0.950 . S
H1189 C1201 0.950 . S
H1190 C1198 0.950 . S
H1191 C1200 0.950 . S
H1192 C1202 0.950 . S
H1193 C1204 0.950 . S
H1194 C1206 0.950 . S
H1195 C1207 0.950 . S
C1196 H1188 0.950 . S
C1196 C1197 1.386 . S
C1196 C1198 1.391 . S
C1197 C1196 1.386 . S
C1197 C1201 1.393 . S
C1198 H1190 0.950 . S
C1198 C1196 1.391 . S
C1198 C1199 1.400 . S
C1199 C1198 1.400 . S
C1199 C1200 1.398 . S
C1199 C1205 1.491 . S
C1200 H1191 0.950 . S
C1200 C1199 1.398 . S
C1200 C1201 1.391 . S
C1201 H1189 0.950 . S
C1201 C1197 1.393 . S
C1201 C1200 1.391 . S
C1202 H1192 0.950 . S
C1202 C1203 1.386 . S
C1202 C1204 1.391 . S
C1203 C1202 1.386 . S
C1203 C1207 1.393 . S
C1204 H1193 0.950 . S
C1204 C1202 1.391 . S
C1204 C1205 1.400 . S
C1205 C1199 1.491 . S
C1205 C1204 1.400 . S
C1205 C1206 1.398 . S
C1206 H1194 0.950 . S
C1206 C1205 1.398 . S
C1206 C1207 1.391 . S
C1207 H1195 0.950 . S
C1207 C1203 1.393 . S
C1207 C1206 1.391 . S
H1208 C1216 0.950 . S
H1209 C1221 0.950 1_545 S
H1210 C1218 0.950 . S
H1211 C1220 0.950 . S
H1212 C1222 0.950 . S
H1213 C1224 0.950 . S
H1214 C1226 0.950 . S
H1215 C1227 0.950 1_565 S
C1216 H1208 0.950 . S
C1216 C1217 1.386 . S
C1216 C1218 1.391 . S
C1217 C1216 1.386 . S
C1217 C1221 1.393 . S
C1218 H1210 0.950 . S
C1218 C1216 1.391 . S
C1218 C1219 1.400 . S
C1219 C1218 1.400 . S
C1219 C1220 1.398 1_565 S
C1219 C1225 1.491 1_565 S
C1220 H1211 0.950 . S
C1220 C1219 1.398 1_545 S
C1220 C1221 1.391 1_545 S
C1221 H1209 0.950 1_565 S
C1221 C1217 1.393 . S
C1221 C1220 1.391 1_565 S
C1222 H1212 0.950 . S
C1222 C1223 1.386 . S
C1222 C1224 1.391 . S
C1223 C1222 1.386 . S
C1223 C1227 1.393 . S
C1224 H1213 0.950 . S
C1224 C1222 1.391 . S
C1224 C1225 1.400 . S
C1225 C1219 1.491 1_545 S
C1225 C1224 1.400 . S
C1225 C1226 1.398 1_545 S
C1226 H1214 0.950 . S
C1226 C1225 1.398 1_565 S
C1226 C1227 1.391 1_565 S
C1227 H1215 0.950 1_545 S
C1227 C1223 1.393 . S
C1227 C1226 1.391 1_545 S
H1228 C1236 0.950 . S
H1229 C1241 0.950 . S
H1230 C1238 0.950 . S
H1231 C1240 0.950 . S
H1232 C1242 0.950 . S
H1233 C1244 0.950 . S
H1234 C1246 0.950 . S
H1235 C1247 0.950 . S
C1236 H1228 0.950 . S
C1236 C1237 1.386 . S
C1236 C1238 1.391 . S
C1237 C1236 1.386 . S
C1237 C1241 1.393 . S
C1238 H1230 0.950 . S
C1238 C1236 1.391 . S
C1238 C1239 1.400 . S
C1239 C1238 1.400 . S
C1239 C1240 1.398 . S
C1239 C1245 1.491 . S
C1240 H1231 0.950 . S
C1240 C1239 1.398 . S
C1240 C1241 1.391 . S
C1241 H1229 0.950 . S
C1241 C1237 1.393 . S
C1241 C1240 1.391 . S
C1242 H1232 0.950 . S
C1242 C1243 1.386 . S
C1242 C1244 1.391 . S
C1243 C1242 1.386 . S
C1243 C1247 1.393 . S
C1244 H1233 0.950 . S
C1244 C1242 1.391 . S
C1244 C1245 1.400 . S
C1245 C1239 1.491 . S
C1245 C1244 1.400 . S
C1245 C1246 1.398 . S
C1246 H1234 0.950 . S
C1246 C1245 1.398 . S
C1246 C1247 1.391 . S
C1247 H1235 0.950 . S
C1247 C1243 1.393 . S
C1247 C1246 1.391 . S
H1248 C1256 0.950 . S
H1249 C1261 0.950 . S
H1250 C1258 0.950 . S
H1251 C1260 0.950 . S
H1252 C1262 0.950 . S
H1253 C1264 0.950 . S
H1254 C1266 0.950 . S
H1255 C1267 0.950 . S
C1256 H1248 0.950 . S
C1256 C1257 1.386 . S
C1256 C1258 1.391 . S
C1257 C1256 1.386 . S
C1257 C1261 1.393 . S
C1258 H1250 0.950 . S
C1258 C1256 1.391 . S
C1258 C1259 1.400 . S
C1259 C1258 1.400 . S
C1259 C1260 1.398 . S
C1259 C1265 1.491 . S
C1260 H1251 0.950 . S
C1260 C1259 1.398 . S
C1260 C1261 1.391 . S
C1261 H1249 0.950 . S
C1261 C1257 1.393 . S
C1261 C1260 1.391 . S
C1262 H1252 0.950 . S
C1262 C1263 1.386 . S
C1262 C1264 1.391 . S
C1263 C1262 1.386 . S
C1263 C1267 1.393 . S
C1264 H1253 0.950 . S
C1264 C1262 1.391 . S
C1264 C1265 1.400 . S
C1265 C1259 1.491 . S
C1265 C1264 1.400 . S
C1265 C1266 1.398 . S
C1266 H1254 0.950 . S
C1266 C1265 1.398 . S
C1266 C1267 1.391 . S
C1267 H1255 0.950 . S
C1267 C1263 1.393 . S
C1267 C1266 1.391 . S
H1268 C1276 0.950 . S
H1269 C1281 0.950 . S
H1270 C1278 0.950 . S
H1271 C1280 0.950 . S
H1272 C1282 0.950 . S
H1273 C1284 0.950 . S
H1274 C1286 0.950 . S
H1275 C1287 0.950 . S
C1276 H1268 0.950 . S
C1276 C1277 1.386 . S
C1276 C1278 1.391 . S
C1277 C1276 1.386 . S
C1277 C1281 1.393 . S
C1278 H1270 0.950 . S
C1278 C1276 1.391 . S
C1278 C1279 1.400 . S
C1279 C1278 1.400 . S
C1279 C1280 1.398 . S
C1279 C1285 1.491 . S
C1280 H1271 0.950 . S
C1280 C1279 1.398 . S
C1280 C1281 1.391 . S
C1281 H1269 0.950 . S
C1281 C1277 1.393 . S
C1281 C1280 1.391 . S
C1282 H1272 0.950 . S
C1282 C1283 1.386 . S
C1282 C1284 1.391 . S
C1283 C1282 1.386 . S
C1283 C1287 1.393 . S
C1284 H1273 0.950 . S
C1284 C1282 1.391 . S
C1284 C1285 1.400 . S
C1285 C1279 1.491 . S
C1285 C1284 1.400 . S
C1285 C1286 1.398 . S
C1286 H1274 0.950 . S
C1286 C1285 1.398 . S
C1286 C1287 1.391 . S
C1287 H1275 0.950 . S
C1287 C1283 1.393 . S
C1287 C1286 1.391 . S
H1288 C1296 0.950 . S
H1289 C1301 0.950 . S
H1290 C1298 0.950 . S
H1291 C1300 0.950 . S
H1292 C1302 0.950 . S
H1293 C1304 0.950 . S
H1294 C1306 0.950 . S
H1295 C1307 0.950 . S
C1296 H1288 0.950 . S
C1296 C1297 1.386 . S
C1296 C1298 1.391 . S
C1297 C1296 1.386 . S
C1297 C1301 1.393 . S
C1298 H1290 0.950 . S
C1298 C1296 1.391 . S
C1298 C1299 1.400 . S
C1299 C1298 1.400 . S
C1299 C1300 1.398 . S
C1299 C1305 1.491 . S
C1300 H1291 0.950 . S
C1300 C1299 1.398 . S
C1300 C1301 1.391 . S
C1301 H1289 0.950 . S
C1301 C1297 1.393 . S
C1301 C1300 1.391 . S
C1302 H1292 0.950 . S
C1302 C1303 1.386 . S
C1302 C1304 1.391 . S
C1303 C1302 1.386 . S
C1303 C1307 1.393 . S
C1304 H1293 0.950 . S
C1304 C1302 1.391 . S
C1304 C1305 1.400 . S
C1305 C1299 1.491 . S
C1305 C1304 1.400 . S
C1305 C1306 1.398 . S
C1306 H1294 0.950 . S
C1306 C1305 1.398 . S
C1306 C1307 1.391 . S
C1307 H1295 0.950 . S
C1307 C1303 1.393 . S
C1307 C1306 1.391 . S
H1308 C1316 0.950 . S
H1309 C1321 0.950 . S
H1310 C1318 0.950 . S
H1311 C1320 0.950 . S
H1312 C1322 0.950 . S
H1313 C1324 0.950 . S
H1314 C1326 0.950 . S
H1315 C1327 0.950 . S
C1316 H1308 0.950 . S
C1316 C1317 1.386 . S
C1316 C1318 1.391 . S
C1317 C1316 1.386 . S
C1317 C1321 1.393 . S
C1318 H1310 0.950 . S
C1318 C1316 1.391 . S
C1318 C1319 1.400 . S
C1319 C1318 1.400 . S
C1319 C1320 1.398 . S
C1319 C1325 1.491 . S
C1320 H1311 0.950 . S
C1320 C1319 1.398 . S
C1320 C1321 1.391 . S
C1321 H1309 0.950 . S
C1321 C1317 1.393 . S
C1321 C1320 1.391 . S
C1322 H1312 0.950 . S
C1322 C1323 1.386 . S
C1322 C1324 1.391 . S
C1323 C1322 1.386 . S
C1323 C1327 1.393 . S
C1324 H1313 0.950 . S
C1324 C1322 1.391 . S
C1324 C1325 1.400 . S
C1325 C1319 1.491 . S
C1325 C1324 1.400 . S
C1325 C1326 1.398 . S
C1326 H1314 0.950 . S
C1326 C1325 1.398 . S
C1326 C1327 1.391 . S
C1327 H1315 0.950 . S
C1327 C1323 1.393 . S
C1327 C1326 1.391 . S
H1328 C1336 0.950 . S
H1329 C1341 0.950 . S
H1330 C1338 0.950 . S
H1331 C1340 0.950 . S
H1332 C1342 0.950 . S
H1333 C1344 0.950 . S
H1334 C1346 0.950 . S
H1335 C1347 0.950 . S
C1336 H1328 0.950 . S
C1336 C1337 1.386 1_655 S
C1336 C1338 1.391 . S
C1337 C1336 1.386 1_455 S
C1337 C1341 1.393 . S
C1338 H1330 0.950 . S
C1338 C1336 1.391 . S
C1338 C1339 1.400 1_655 S
C1339 C1338 1.400 1_455 S
C1339 C1340 1.398 . S
C1339 C1345 1.491 1_465 S
C1340 H1331 0.950 . S
C1340 C1339 1.398 . S
C1340 C1341 1.391 . S
C1341 H1329 0.950 . S
C1341 C1337 1.393 . S
C1341 C1340 1.391 . S
C1342 H1332 0.950 . S
C1342 C1343 1.386 1_455 S
C1342 C1344 1.391 . S
C1343 C1342 1.386 1_655 S
C1343 C1347 1.393 . S
C1344 H1333 0.950 . S
C1344 C1342 1.391 . S
C1344 C1345 1.400 1_455 S
C1345 C1339 1.491 1_645 S
C1345 C1344 1.400 1_655 S
C1345 C1346 1.398 . S
C1346 H1334 0.950 . S
C1346 C1345 1.398 . S
C1346 C1347 1.391 . S
C1347 H1335 0.950 . S
C1347 C1343 1.393 . S
C1347 C1346 1.391 . S
H1348 C1356 0.950 . S
H1349 C1361 0.950 . S
H1350 C1358 0.950 . S
H1351 C1360 0.950 . S
H1352 C1362 0.950 . S
H1353 C1364 0.950 . S
H1354 C1366 0.950 . S
H1355 C1367 0.950 . S
C1356 H1348 0.950 . S
C1356 C1357 1.386 . S
C1356 C1358 1.391 . S
C1357 C1356 1.386 . S
C1357 C1361 1.393 1_655 S
C1358 H1350 0.950 . S
C1358 C1356 1.391 . S
C1358 C1359 1.400 . S
C1359 C1358 1.400 . S
C1359 C1360 1.398 1_655 S
C1359 C1365 1.491 1_655 S
C1360 H1351 0.950 . S
C1360 C1359 1.398 1_455 S
C1360 C1361 1.391 . S
C1361 H1349 0.950 . S
C1361 C1357 1.393 1_455 S
C1361 C1360 1.391 . S
C1362 H1352 0.950 . S
C1362 C1363 1.386 . S
C1362 C1364 1.391 . S
C1363 C1362 1.386 . S
C1363 C1367 1.393 1_455 S
C1364 H1353 0.950 . S
C1364 C1362 1.391 . S
C1364 C1365 1.400 . S
C1365 C1359 1.491 1_455 S
C1365 C1364 1.400 . S
C1365 C1366 1.398 1_455 S
C1366 H1354 0.950 . S
C1366 C1365 1.398 1_655 S
C1366 C1367 1.391 . S
C1367 H1355 0.950 . S
C1367 C1363 1.393 1_655 S
C1367 C1366 1.391 . S
H1368 C1376 0.950 . S
H1369 C1381 0.950 . S
H1370 C1378 0.950 . S
H1371 C1380 0.950 . S
H1372 C1382 0.950 . S
H1373 C1384 0.950 . S
H1374 C1386 0.950 . S
H1375 C1387 0.950 . S
C1376 H1368 0.950 . S
C1376 C1377 1.386 1_655 S
C1376 C1378 1.391 . S
C1377 C1376 1.386 1_455 S
C1377 C1381 1.393 . S
C1378 H1370 0.950 . S
C1378 C1376 1.391 . S
C1378 C1379 1.400 1_655 S
C1379 C1378 1.400 1_455 S
C1379 C1380 1.398 . S
C1379 C1385 1.491 1_455 S
C1380 H1371 0.950 . S
C1380 C1379 1.398 . S
C1380 C1381 1.391 . S
C1381 H1369 0.950 . S
C1381 C1377 1.393 . S
C1381 C1380 1.391 . S
C1382 H1372 0.950 . S
C1382 C1383 1.386 1_455 S
C1382 C1384 1.391 . S
C1383 C1382 1.386 1_655 S
C1383 C1387 1.393 . S
C1384 H1373 0.950 . S
C1384 C1382 1.391 . S
C1384 C1385 1.400 1_455 S
C1385 C1379 1.491 1_655 S
C1385 C1384 1.400 1_655 S
C1385 C1386 1.398 . S
C1386 H1374 0.950 . S
C1386 C1385 1.398 . S
C1386 C1387 1.391 . S
C1387 H1375 0.950 . S
C1387 C1383 1.393 . S
C1387 C1386 1.391 . S
H1388 C1396 0.950 . S
H1389 C1401 0.950 . S
H1390 C1398 0.950 . S
H1391 C1400 1.024 . S
H1392 C1402 0.950 . S
H1393 C1404 0.950 . S
H1394 C1406 1.024 . S
H1395 C1407 0.950 . S
C1396 H1388 0.950 . S
C1396 C1397 1.386 1_455 S
C1396 C1398 1.391 . S
C1397 C1396 1.386 1_655 S
C1397 C1401 1.393 . S
C1398 H1390 0.950 . S
C1398 C1396 1.391 . S
C1398 C1399 1.400 1_455 S
C1399 C1398 1.400 1_655 S
C1399 C1400 1.398 . S
C1399 C1405 1.491 1_654 S
C1400 H1391 1.024 . S
C1400 C1399 1.398 . S
C1400 C1401 1.391 . S
C1401 H1389 0.950 . S
C1401 C1397 1.393 . S
C1401 C1400 1.391 . S
C1402 H1392 0.950 . S
C1402 C1403 1.386 1_655 S
C1402 C1404 1.391 . S
C1403 C1402 1.386 1_455 S
C1403 C1407 1.393 . S
C1404 H1393 0.950 . S
C1404 C1402 1.391 . S
C1404 C1405 1.400 1_655 S
C1405 C1399 1.491 1_456 S
C1405 C1404 1.400 1_455 S
C1405 C1406 1.398 . S
C1406 H1394 1.024 . S
C1406 C1405 1.398 . S
C1406 C1407 1.391 . S
C1407 H1395 0.950 . S
C1407 C1403 1.393 . S
C1407 C1406 1.391 . S
H1408 C1416 0.950 . S
H1409 C1421 0.950 . S
H1410 C1418 0.965 . S
H1411 C1420 0.950 . S
H1412 C1422 0.950 . S
H1413 C1424 0.950 . S
H1414 C1426 0.950 1_565 S
H1415 C1427 0.936 1_665 S
C1416 H1408 0.950 . S
C1416 C1417 1.386 1_565 S
C1416 C1418 1.392 . S
C1417 C1416 1.386 1_545 S
C1417 C1421 1.393 . S
C1418 H1410 0.965 . S
C1418 C1416 1.392 . S
C1418 C1419 1.386 1_565 S
C1419 C1418 1.386 1_545 S
C1419 C1420 1.398 . S
C1419 C1425 1.491 . S
C1420 H1411 0.950 . S
C1420 C1419 1.398 . S
C1420 C1421 1.391 . S
C1421 H1409 0.950 . S
C1421 C1417 1.393 . S
C1421 C1420 1.391 . S
C1422 H1412 0.950 . S
C1422 C1423 1.386 . S
C1422 C1424 1.391 . S
C1423 C1422 1.386 . S
C1423 C1427 1.407 . S
C1424 H1413 0.950 . S
C1424 C1422 1.391 . S
C1424 C1425 1.400 . S
C1425 C1419 1.491 . S
C1425 C1424 1.400 . S
C1425 C1426 1.398 . S
C1426 H1414 0.950 1_545 S
C1426 C1425 1.398 . S
C1426 C1427 1.391 . S
C1427 H1415 0.936 1_445 S
C1427 C1423 1.407 . S
C1427 C1426 1.391 . S
H1428 C1436 0.950 . S
H1429 C1441 0.950 . S
H1430 C1438 0.950 . S
H1431 C1440 0.950 . S
H1432 C1442 0.950 . S
H1433 C1444 0.950 . S
H1434 C1446 0.950 . S
H1435 C1447 0.950 1_655 S
C1436 H1428 0.950 . S
C1436 C1437 1.386 . S
C1436 C1438 1.391 . S
C1437 C1436 1.386 . S
C1437 C1441 1.393 . S
C1438 H1430 0.950 . S
C1438 C1436 1.391 . S
C1438 C1439 1.400 . S
C1439 C1438 1.400 . S
C1439 C1440 1.398 . S
C1439 C1445 1.491 . S
C1440 H1431 0.950 . S
C1440 C1439 1.398 . S
C1440 C1441 1.391 . S
C1441 H1429 0.950 . S
C1441 C1437 1.393 . S
C1441 C1440 1.391 . S
C1442 H1432 0.950 . S
C1442 C1443 1.386 . S
C1442 C1444 1.391 . S
C1443 C1442 1.386 . S
C1443 C1447 1.393 . S
C1444 H1433 0.950 . S
C1444 C1442 1.391 . S
C1444 C1445 1.400 . S
C1445 C1439 1.491 . S
C1445 C1444 1.400 . S
C1445 C1446 1.398 . S
C1446 H1434 0.950 . S
C1446 C1445 1.398 . S
C1446 C1447 1.391 . S
C1447 H1435 0.950 1_455 S
C1447 C1443 1.393 . S
C1447 C1446 1.391 . S
H1448 C1456 0.950 1_455 S
H1449 C1461 0.950 . S
H1450 C1458 0.950 . S
H1451 C1460 0.950 . S
H1452 C1462 0.950 . S
H1453 C1464 0.950 . S
H1454 C1466 0.950 . S
H1455 C1467 0.950 . S
C1456 H1448 0.950 1_655 S
C1456 C1457 1.386 . S
C1456 C1458 1.391 . S
C1457 C1456 1.386 . S
C1457 C1461 1.393 1_565 S
C1458 H1450 0.950 . S
C1458 C1456 1.391 . S
C1458 C1459 1.400 . S
C1459 C1458 1.400 . S
C1459 C1460 1.398 1_565 S
C1459 C1465 1.491 . S
C1460 H1451 0.950 . S
C1460 C1459 1.398 1_545 S
C1460 C1461 1.391 . S
C1461 H1449 0.950 . S
C1461 C1457 1.393 1_545 S
C1461 C1460 1.391 . S
C1462 H1452 0.950 . S
C1462 C1463 1.386 1_545 S
C1462 C1464 1.391 . S
C1463 C1462 1.386 1_565 S
C1463 C1467 1.393 . S
C1464 H1453 0.950 . S
C1464 C1462 1.391 . S
C1464 C1465 1.400 1_545 S
C1465 C1459 1.491 . S
C1465 C1464 1.400 1_565 S
C1465 C1466 1.398 . S
C1466 H1454 0.950 . S
C1466 C1465 1.398 . S
C1466 C1467 1.391 . S
C1467 H1455 0.950 . S
C1467 C1463 1.393 . S
C1467 C1466 1.391 . S
H1468 C1476 0.950 . S
H1469 C1481 0.950 1_455 S
H1470 C1478 0.950 . S
H1471 C1480 0.950 . S
H1472 C1482 0.950 . S
H1473 C1484 0.950 . S
H1474 C1486 0.950 . S
H1475 C1487 0.950 . S
C1476 H1468 0.950 . S
C1476 C1477 1.386 . S
C1476 C1478 1.391 . S
C1477 C1476 1.386 . S
C1477 C1481 1.393 . S
C1478 H1470 0.950 . S
C1478 C1476 1.391 . S
C1478 C1479 1.400 . S
C1479 C1478 1.400 . S
C1479 C1480 1.398 . S
C1479 C1485 1.491 . S
C1480 H1471 0.950 . S
C1480 C1479 1.398 . S
C1480 C1481 1.391 . S
C1481 H1469 0.950 1_655 S
C1481 C1477 1.393 . S
C1481 C1480 1.391 . S
C1482 H1472 0.950 . S
C1482 C1483 1.386 . S
C1482 C1484 1.391 . S
C1483 C1482 1.386 . S
C1483 C1487 1.393 . S
C1484 H1473 0.950 . S
C1484 C1482 1.391 . S
C1484 C1485 1.400 . S
C1485 C1479 1.491 . S
C1485 C1484 1.400 . S
C1485 C1486 1.398 . S
C1486 H1474 0.950 . S
C1486 C1485 1.398 . S
C1486 C1487 1.391 . S
C1487 H1475 0.950 . S
C1487 C1483 1.393 . S
C1487 C1486 1.391 . S
H1488 C1496 0.950 . S
H1489 C1501 0.950 1_655 S
H1490 C1498 0.950 . S
H1491 C1500 0.950 . S
H1492 C1502 0.950 . S
H1493 C1504 0.950 . S
H1494 C1506 0.950 . S
H1495 C1507 0.950 . S
C1496 H1488 0.950 . S
C1496 C1497 1.386 . S
C1496 C1498 1.391 . S
C1497 C1496 1.386 . S
C1497 C1501 1.393 . S
C1498 H1490 0.950 . S
C1498 C1496 1.391 . S
C1498 C1499 1.400 . S
C1499 C1498 1.400 . S
C1499 C1500 1.398 . S
C1499 C1505 1.491 . S
C1500 H1491 0.950 . S
C1500 C1499 1.398 . S
C1500 C1501 1.391 . S
C1501 H1489 0.950 1_455 S
C1501 C1497 1.393 . S
C1501 C1500 1.391 . S
C1502 H1492 0.950 . S
C1502 C1503 1.386 . S
C1502 C1504 1.391 . S
C1503 C1502 1.386 . S
C1503 C1507 1.393 . S
C1504 H1493 0.950 . S
C1504 C1502 1.391 . S
C1504 C1505 1.400 . S
C1505 C1499 1.491 . S
C1505 C1504 1.400 . S
C1505 C1506 1.398 . S
C1506 H1494 0.950 . S
C1506 C1505 1.398 . S
C1506 C1507 1.391 . S
C1507 H1495 0.950 . S
C1507 C1503 1.393 . S
C1507 C1506 1.391 . S
H1508 C1516 0.950 . S
H1509 C1521 0.950 . S
H1510 C1518 0.950 . S
H1511 C1520 0.950 . S
H1512 C1522 0.950 . S
H1513 C1524 0.950 . S
H1514 C1526 0.950 . S
H1515 C1527 0.950 . S
C1516 H1508 0.950 . S
C1516 C1517 1.386 . S
C1516 C1518 1.391 . S
C1517 C1516 1.386 . S
C1517 C1521 1.393 . S
C1518 H1510 0.950 . S
C1518 C1516 1.391 . S
C1518 C1519 1.400 . S
C1519 C1518 1.400 . S
C1519 C1520 1.398 . S
C1519 C1525 1.491 . S
C1520 H1511 0.950 . S
C1520 C1519 1.398 . S
C1520 C1521 1.391 . S
C1521 H1509 0.950 . S
C1521 C1517 1.393 . S
C1521 C1520 1.391 . S
C1522 H1512 0.950 . S
C1522 C1523 1.386 . S
C1522 C1524 1.391 . S
C1523 C1522 1.386 . S
C1523 C1527 1.393 . S
C1524 H1513 0.950 . S
C1524 C1522 1.391 . S
C1524 C1525 1.400 . S
C1525 C1519 1.491 . S
C1525 C1524 1.400 . S
C1525 C1526 1.398 . S
C1526 H1514 0.950 . S
C1526 C1525 1.398 . S
C1526 C1527 1.391 . S
C1527 H1515 0.950 . S
C1527 C1523 1.393 . S
C1527 C1526 1.391 . S
H1528 C1536 0.950 . S
H1529 C1541 0.950 . S
H1530 C1538 0.950 . S
H1531 C1540 0.950 . S
H1532 C1542 0.950 1_455 S
H1533 C1544 0.950 . S
H1534 C1546 0.950 . S
H1535 C1547 0.950 . S
C1536 H1528 0.950 . S
C1536 C1537 1.386 . S
C1536 C1538 1.391 . S
C1537 C1536 1.386 . S
C1537 C1541 1.393 . S
C1538 H1530 0.950 . S
C1538 C1536 1.391 . S
C1538 C1539 1.400 . S
C1539 C1538 1.400 . S
C1539 C1540 1.398 . S
C1539 C1545 1.491 . S
C1540 H1531 0.950 . S
C1540 C1539 1.398 . S
C1540 C1541 1.391 . S
C1541 H1529 0.950 . S
C1541 C1537 1.393 . S
C1541 C1540 1.391 . S
C1542 H1532 0.950 1_655 S
C1542 C1543 1.386 . S
C1542 C1544 1.391 . S
C1543 C1542 1.386 . S
C1543 C1547 1.393 . S
C1544 H1533 0.950 . S
C1544 C1542 1.391 . S
C1544 C1545 1.400 . S
C1545 C1539 1.491 . S
C1545 C1544 1.400 . S
C1545 C1546 1.398 . S
C1546 H1534 0.950 . S
C1546 C1545 1.398 . S
C1546 C1547 1.391 . S
C1547 H1535 0.950 . S
C1547 C1543 1.393 . S
C1547 C1546 1.391 . S
H1548 C1556 0.950 . S
H1549 C1561 0.950 . S
H1550 C1558 0.950 . S
H1551 C1560 0.950 . S
H1552 C1562 0.950 . S
H1553 C1564 0.950 . S
H1554 C1566 0.950 . S
H1555 C1567 0.950 1_455 S
C1556 H1548 0.950 . S
C1556 C1557 1.386 . S
C1556 C1558 1.391 . S
C1557 C1556 1.386 . S
C1557 C1561 1.393 . S
C1558 H1550 0.950 . S
C1558 C1556 1.391 . S
C1558 C1559 1.400 . S
C1559 C1558 1.400 . S
C1559 C1560 1.398 . S
C1559 C1565 1.491 . S
C1560 H1551 0.950 . S
C1560 C1559 1.398 . S
C1560 C1561 1.391 . S
C1561 H1549 0.950 . S
C1561 C1557 1.393 . S
C1561 C1560 1.391 . S
C1562 H1552 0.950 . S
C1562 C1563 1.386 . S
C1562 C1564 1.391 . S
C1563 C1562 1.386 . S
C1563 C1567 1.393 . S
C1564 H1553 0.950 . S
C1564 C1562 1.391 . S
C1564 C1565 1.400 . S
C1565 C1559 1.491 . S
C1565 C1564 1.400 . S
C1565 C1566 1.398 . S
C1566 H1554 0.950 . S
C1566 C1565 1.398 . S
C1566 C1567 1.391 . S
C1567 H1555 0.950 1_655 S
C1567 C1563 1.393 . S
C1567 C1566 1.391 . S
H1568 C1576 0.950 . S
H1569 C1581 0.950 . S
H1570 C1578 0.950 . S
H1571 C1580 0.950 . S
H1572 C1582 0.950 . S
H1573 C1584 0.950 . S
H1574 C1586 0.950 . S
H1575 C1587 0.950 . S
C1576 H1568 0.950 . S
C1576 C1577 1.386 1_565 S
C1576 C1578 1.391 . S
C1577 C1576 1.386 1_545 S
C1577 C1581 1.393 . S
C1578 H1570 0.950 . S
C1578 C1576 1.391 . S
C1578 C1579 1.400 1_565 S
C1579 C1578 1.400 1_545 S
C1579 C1580 1.398 . S
C1579 C1585 1.491 . S
C1580 H1571 0.950 . S
C1580 C1579 1.398 . S
C1580 C1581 1.391 . S
C1581 H1569 0.950 . S
C1581 C1577 1.393 . S
C1581 C1580 1.391 . S
C1582 H1572 0.950 . S
C1582 C1583 1.386 . S
C1582 C1584 1.391 . S
C1583 C1582 1.386 . S
C1583 C1587 1.393 1_545 S
C1584 H1573 0.950 . S
C1584 C1582 1.391 . S
C1584 C1585 1.400 . S
C1585 C1579 1.491 . S
C1585 C1584 1.400 . S
C1585 C1586 1.398 1_545 S
C1586 H1574 0.950 . S
C1586 C1585 1.398 1_565 S
C1586 C1587 1.391 . S
C1587 H1575 0.950 . S
C1587 C1583 1.393 1_565 S
C1587 C1586 1.391 . S
H1588 C1596 0.950 . S
H1589 C1601 0.950 . S
H1590 C1598 0.950 . S
H1591 C1600 0.950 . S
H1592 C1602 0.950 . S
H1593 C1604 0.950 . S
H1594 C1606 0.950 . S
H1595 C1607 0.950 . S
C1596 H1588 0.950 . S
C1596 C1597 1.386 . S
C1596 C1598 1.391 . S
C1597 C1596 1.386 . S
C1597 C1601 1.393 . S
C1598 H1590 0.950 . S
C1598 C1596 1.391 . S
C1598 C1599 1.400 . S
C1599 C1598 1.400 . S
C1599 C1600 1.398 . S
C1599 C1605 1.491 . S
C1600 H1591 0.950 . S
C1600 C1599 1.398 . S
C1600 C1601 1.391 . S
C1601 H1589 0.950 . S
C1601 C1597 1.393 . S
C1601 C1600 1.391 . S
C1602 H1592 0.950 . S
C1602 C1603 1.386 . S
C1602 C1604 1.391 . S
C1603 C1602 1.386 . S
C1603 C1607 1.393 . S
C1604 H1593 0.950 . S
C1604 C1602 1.391 . S
C1604 C1605 1.400 . S
C1605 C1599 1.491 . S
C1605 C1604 1.400 . S
C1605 C1606 1.398 . S
C1606 H1594 0.950 . S
C1606 C1605 1.398 . S
C1606 C1607 1.391 . S
C1607 H1595 0.950 . S
C1607 C1603 1.393 . S
C1607 C1606 1.391 . S
H1608 C1616 0.950 . S
H1609 C1621 0.950 . S
H1610 C1618 0.950 . S
H1611 C1620 0.950 . S
H1612 C1622 0.950 . S
H1613 C1624 0.950 . S
H1614 C1626 0.950 . S
H1615 C1627 0.950 . S
C1616 H1608 0.950 . S
C1616 C1617 1.386 . S
C1616 C1618 1.391 . S
C1617 C1616 1.386 . S
C1617 C1621 1.393 1_565 S
C1618 H1610 0.950 . S
C1618 C1616 1.391 . S
C1618 C1619 1.400 . S
C1619 C1618 1.400 . S
C1619 C1620 1.398 1_565 S
C1619 C1625 1.491 . S
C1620 H1611 0.950 . S
C1620 C1619 1.398 1_545 S
C1620 C1621 1.391 . S
C1621 H1609 0.950 . S
C1621 C1617 1.393 1_545 S
C1621 C1620 1.391 . S
C1622 H1612 0.950 . S
C1622 C1623 1.386 1_545 S
C1622 C1624 1.391 . S
C1623 C1622 1.386 1_565 S
C1623 C1627 1.393 . S
C1624 H1613 0.950 . S
C1624 C1622 1.391 . S
C1624 C1625 1.400 1_545 S
C1625 C1619 1.491 . S
C1625 C1624 1.400 1_565 S
C1625 C1626 1.398 . S
C1626 H1614 0.950 . S
C1626 C1625 1.398 . S
C1626 C1627 1.391 . S
C1627 H1615 0.950 . S
C1627 C1623 1.393 . S
C1627 C1626 1.391 . S
H1628 C1636 0.950 . S
H1629 C1641 0.950 . S
H1630 C1638 0.950 . S
H1631 C1640 0.950 . S
H1632 C1642 0.950 . S
H1633 C1644 0.950 . S
H1634 C1646 0.950 . S
H1635 C1647 0.950 . S
C1636 H1628 0.950 . S
C1636 C1637 1.386 . S
C1636 C1638 1.391 . S
C1637 C1636 1.386 . S
C1637 C1641 1.393 . S
C1638 H1630 0.950 . S
C1638 C1636 1.391 . S
C1638 C1639 1.400 . S
C1639 C1638 1.400 . S
C1639 C1640 1.398 . S
C1639 C1645 1.491 . S
C1640 H1631 0.950 . S
C1640 C1639 1.398 . S
C1640 C1641 1.391 . S
C1641 H1629 0.950 . S
C1641 C1637 1.393 . S
C1641 C1640 1.391 . S
C1642 H1632 0.950 . S
C1642 C1643 1.386 . S
C1642 C1644 1.391 . S
C1643 C1642 1.386 . S
C1643 C1647 1.393 . S
C1644 H1633 0.950 . S
C1644 C1642 1.391 . S
C1644 C1645 1.400 . S
C1645 C1639 1.491 . S
C1645 C1644 1.400 . S
C1645 C1646 1.398 . S
C1646 H1634 0.950 . S
C1646 C1645 1.398 . S
C1646 C1647 1.391 . S
C1647 H1635 0.950 . S
C1647 C1643 1.393 . S
C1647 C1646 1.391 . S
H1648 C1656 0.950 . S
H1649 C1661 0.950 . S
H1650 C1658 0.950 . S
H1651 C1660 0.950 . S
H1652 C1662 0.950 . S
H1653 C1664 0.950 . S
H1654 C1666 0.950 . S
H1655 C1667 0.950 . S
C1656 H1648 0.950 . S
C1656 C1657 1.386 . S
C1656 C1658 1.391 . S
C1657 C1656 1.386 . S
C1657 C1661 1.393 . S
C1658 H1650 0.950 . S
C1658 C1656 1.391 . S
C1658 C1659 1.400 . S
C1659 C1658 1.400 . S
C1659 C1660 1.398 . S
C1659 C1665 1.491 . S
C1660 H1651 0.950 . S
C1660 C1659 1.398 . S
C1660 C1661 1.391 . S
C1661 H1649 0.950 . S
C1661 C1657 1.393 . S
C1661 C1660 1.391 . S
C1662 H1652 0.950 . S
C1662 C1663 1.386 . S
C1662 C1664 1.391 . S
C1663 C1662 1.386 . S
C1663 C1667 1.393 . S
C1664 H1653 0.950 . S
C1664 C1662 1.391 . S
C1664 C1665 1.400 . S
C1665 C1659 1.491 . S
C1665 C1664 1.400 . S
C1665 C1666 1.398 . S
C1666 H1654 0.950 . S
C1666 C1665 1.398 . S
C1666 C1667 1.391 . S
C1667 H1655 0.950 . S
C1667 C1663 1.393 . S
C1667 C1666 1.391 . S
H1668 C1676 0.950 . S
H1669 C1681 0.950 . S
H1670 C1678 0.950 . S
H1671 C1680 0.950 . S
H1672 C1682 0.950 . S
H1673 C1684 0.950 . S
H1674 C1686 0.950 . S
H1675 C1687 0.950 . S
C1676 H1668 0.950 . S
C1676 C1677 1.386 . S
C1676 C1678 1.391 . S
C1677 C1676 1.386 . S
C1677 C1681 1.393 . S
C1678 H1670 0.950 . S
C1678 C1676 1.391 . S
C1678 C1679 1.400 . S
C1679 C1678 1.400 . S
C1679 C1680 1.398 . S
C1679 C1685 1.491 . S
C1680 H1671 0.950 . S
C1680 C1679 1.398 . S
C1680 C1681 1.391 . S
C1681 H1669 0.950 . S
C1681 C1677 1.393 . S
C1681 C1680 1.391 . S
C1682 H1672 0.950 . S
C1682 C1683 1.386 . S
C1682 C1684 1.391 . S
C1683 C1682 1.386 . S
C1683 C1687 1.393 . S
C1684 H1673 0.950 . S
C1684 C1682 1.391 . S
C1684 C1685 1.400 . S
C1685 C1679 1.491 . S
C1685 C1684 1.400 . S
C1685 C1686 1.398 . S
C1686 H1674 0.950 . S
C1686 C1685 1.398 . S
C1686 C1687 1.391 . S
C1687 H1675 0.950 . S
C1687 C1683 1.393 . S
C1687 C1686 1.391 . S
H1688 C1696 0.950 . S
H1689 C1701 0.950 . S
H1690 C1698 0.950 . S
H1691 C1700 0.950 . S
H1692 C1702 0.950 . S
H1693 C1704 0.950 . S
H1694 C1706 0.950 . S
H1695 C1707 0.950 . S
C1696 H1688 0.950 . S
C1696 C1697 1.386 . S
C1696 C1698 1.391 . S
C1697 C1696 1.386 . S
C1697 C1701 1.393 . S
C1698 H1690 0.950 . S
C1698 C1696 1.391 . S
C1698 C1699 1.400 . S
C1699 C1698 1.400 . S
C1699 C1700 1.398 . S
C1699 C1705 1.491 . S
C1700 H1691 0.950 . S
C1700 C1699 1.398 . S
C1700 C1701 1.391 . S
C1701 H1689 0.950 . S
C1701 C1697 1.393 . S
C1701 C1700 1.391 . S
C1702 H1692 0.950 . S
C1702 C1703 1.386 . S
C1702 C1704 1.391 . S
C1703 C1702 1.386 . S
C1703 C1707 1.393 . S
C1704 H1693 0.950 . S
C1704 C1702 1.391 . S
C1704 C1705 1.400 . S
C1705 C1699 1.491 . S
C1705 C1704 1.400 . S
C1705 C1706 1.398 . S
C1706 H1694 0.950 . S
C1706 C1705 1.398 . S
C1706 C1707 1.391 . S
C1707 H1695 0.950 . S
C1707 C1703 1.393 . S
C1707 C1706 1.391 . S
H1708 C1716 0.950 . S
H1709 C1721 0.950 . S
H1710 C1718 0.950 . S
H1711 C1720 0.950 . S
H1712 C1722 0.950 . S
H1713 C1724 0.950 . S
H1714 C1726 0.950 . S
H1715 C1727 0.950 . S
C1716 H1708 0.950 . S
C1716 C1717 1.386 . S
C1716 C1718 1.391 . S
C1717 C1716 1.386 . S
C1717 C1721 1.393 . S
C1718 H1710 0.950 . S
C1718 C1716 1.391 . S
C1718 C1719 1.400 . S
C1719 C1718 1.400 . S
C1719 C1720 1.398 . S
C1719 C1725 1.491 . S
C1720 H1711 0.950 . S
C1720 C1719 1.398 . S
C1720 C1721 1.391 . S
C1721 H1709 0.950 . S
C1721 C1717 1.393 . S
C1721 C1720 1.391 . S
C1722 H1712 0.950 . S
C1722 C1723 1.386 . S
C1722 C1724 1.391 . S
C1723 C1722 1.386 . S
C1723 C1727 1.393 . S
C1724 H1713 0.950 . S
C1724 C1722 1.391 . S
C1724 C1725 1.400 . S
C1725 C1719 1.491 . S
C1725 C1724 1.400 . S
C1725 C1726 1.398 . S
C1726 H1714 0.950 . S
C1726 C1725 1.398 . S
C1726 C1727 1.391 . S
C1727 H1715 0.950 . S
C1727 C1723 1.393 . S
C1727 C1726 1.391 . S
H1728 C1736 0.950 . S
H1729 C1741 0.950 . S
H1730 C1738 0.950 . S
H1731 C1740 0.950 . S
H1732 C1742 0.950 . S
H1733 C1744 0.950 . S
H1734 C1746 0.950 . S
H1735 C1747 0.950 . S
C1736 H1728 0.950 . S
C1736 C1737 1.386 . S
C1736 C1738 1.391 . S
C1737 C1736 1.386 . S
C1737 C1741 1.393 . S
C1738 H1730 0.950 . S
C1738 C1736 1.391 . S
C1738 C1739 1.400 . S
C1739 C1738 1.400 . S
C1739 C1740 1.398 . S
C1739 C1745 1.491 . S
C1740 H1731 0.950 . S
C1740 C1739 1.398 . S
C1740 C1741 1.391 . S
C1741 H1729 0.950 . S
C1741 C1737 1.393 . S
C1741 C1740 1.391 . S
C1742 H1732 0.950 . S
C1742 C1743 1.386 . S
C1742 C1744 1.391 . S
C1743 C1742 1.386 . S
C1743 C1747 1.393 . S
C1744 H1733 0.950 . S
C1744 C1742 1.391 . S
C1744 C1745 1.400 . S
C1745 C1739 1.491 . S
C1745 C1744 1.400 . S
C1745 C1746 1.398 . S
C1746 H1734 0.950 . S
C1746 C1745 1.398 . S
C1746 C1747 1.391 . S
C1747 H1735 0.950 . S
C1747 C1743 1.393 . S
C1747 C1746 1.391 . S
H1748 C1756 0.950 . S
H1749 C1761 0.950 . S
H1750 C1758 0.950 . S
H1751 C1760 0.950 . S
H1752 C1762 0.950 . S
H1753 C1764 0.950 . S
H1754 C1766 0.950 . S
H1755 C1767 0.950 . S
C1756 H1748 0.950 . S
C1756 C1757 1.386 . S
C1756 C1758 1.391 . S
C1757 C1756 1.386 . S
C1757 C1761 1.393 . S
C1758 H1750 0.950 . S
C1758 C1756 1.391 . S
C1758 C1759 1.400 . S
C1759 C1758 1.400 . S
C1759 C1760 1.398 . S
C1759 C1765 1.491 . S
C1760 H1751 0.950 . S
C1760 C1759 1.398 . S
C1760 C1761 1.391 . S
C1761 H1749 0.950 . S
C1761 C1757 1.393 . S
C1761 C1760 1.391 . S
C1762 H1752 0.950 . S
C1762 C1763 1.386 . S
C1762 C1764 1.391 . S
C1763 C1762 1.386 . S
C1763 C1767 1.393 . S
C1764 H1753 0.950 . S
C1764 C1762 1.391 . S
C1764 C1765 1.400 . S
C1765 C1759 1.491 . S
C1765 C1764 1.400 . S
C1765 C1766 1.398 . S
C1766 H1754 0.950 . S
C1766 C1765 1.398 . S
C1766 C1767 1.391 . S
C1767 H1755 0.950 . S
C1767 C1763 1.393 . S
C1767 C1766 1.391 . S
H1768 C1776 0.950 . S
H1769 C1781 0.950 . S
H1770 C1778 0.950 . S
H1771 C1780 0.950 . S
H1772 C1782 0.950 . S
H1773 C1784 0.950 . S
H1774 C1786 0.950 . S
H1775 C1787 0.950 1_455 S
C1776 H1768 0.950 . S
C1776 C1777 1.386 . S
C1776 C1778 1.391 . S
C1777 C1776 1.386 . S
C1777 C1781 1.393 . S
C1778 H1770 0.950 . S
C1778 C1776 1.391 . S
C1778 C1779 1.400 . S
C1779 C1778 1.400 . S
C1779 C1780 1.398 . S
C1779 C1785 1.491 . S
C1780 H1771 0.950 . S
C1780 C1779 1.398 . S
C1780 C1781 1.391 . S
C1781 H1769 0.950 . S
C1781 C1777 1.393 . S
C1781 C1780 1.391 . S
C1782 H1772 0.950 . S
C1782 C1783 1.386 . S
C1782 C1784 1.391 . S
C1783 C1782 1.386 . S
C1783 C1787 1.393 . S
C1784 H1773 0.950 . S
C1784 C1782 1.391 . S
C1784 C1785 1.400 . S
C1785 C1779 1.491 . S
C1785 C1784 1.400 . S
C1785 C1786 1.398 . S
C1786 H1774 0.950 . S
C1786 C1785 1.398 . S
C1786 C1787 1.391 . S
C1787 H1775 0.950 1_655 S
C1787 C1783 1.393 . S
C1787 C1786 1.391 . S
H1788 C1796 0.950 . S
H1789 C1801 0.950 . S
H1790 C1798 0.950 . S
H1791 C1800 0.950 . S
H1792 C1802 0.950 1_455 S
H1793 C1804 0.950 . S
H1794 C1806 0.950 . S
H1795 C1807 0.950 . S
C1796 H1788 0.950 . S
C1796 C1797 1.386 . S
C1796 C1798 1.391 . S
C1797 C1796 1.386 . S
C1797 C1801 1.393 . S
C1798 H1790 0.950 . S
C1798 C1796 1.391 . S
C1798 C1799 1.400 . S
C1799 C1798 1.400 . S
C1799 C1800 1.398 . S
C1799 C1805 1.491 . S
C1800 H1791 0.950 . S
C1800 C1799 1.398 . S
C1800 C1801 1.391 . S
C1801 H1789 0.950 . S
C1801 C1797 1.393 . S
C1801 C1800 1.391 . S
C1802 H1792 0.950 1_655 S
C1802 C1803 1.386 . S
C1802 C1804 1.391 . S
C1803 C1802 1.386 . S
C1803 C1807 1.393 . S
C1804 H1793 0.950 . S
C1804 C1802 1.391 . S
C1804 C1805 1.400 . S
C1805 C1799 1.491 . S
C1805 C1804 1.400 . S
C1805 C1806 1.398 . S
C1806 H1794 0.950 . S
C1806 C1805 1.398 . S
C1806 C1807 1.391 . S
C1807 H1795 0.950 . S
C1807 C1803 1.393 . S
C1807 C1806 1.391 . S
H1808 C1816 0.950 . S
H1809 C1821 0.950 1_655 S
H1810 C1818 0.950 . S
H1811 C1820 0.950 . S
H1812 C1822 0.950 . S
H1813 C1824 0.950 . S
H1814 C1826 0.950 . S
H1815 C1827 0.950 . S
C1816 H1808 0.950 . S
C1816 C1817 1.386 . S
C1816 C1818 1.391 . S
C1817 C1816 1.386 . S
C1817 C1821 1.393 . S
C1818 H1810 0.950 . S
C1818 C1816 1.391 . S
C1818 C1819 1.400 . S
C1819 C1818 1.400 . S
C1819 C1820 1.398 . S
C1819 C1825 1.491 . S
C1820 H1811 0.950 . S
C1820 C1819 1.398 . S
C1820 C1821 1.391 . S
C1821 H1809 0.950 1_455 S
C1821 C1817 1.393 . S
C1821 C1820 1.391 . S
C1822 H1812 0.950 . S
C1822 C1823 1.386 . S
C1822 C1824 1.391 . S
C1823 C1822 1.386 . S
C1823 C1827 1.393 . S
C1824 H1813 0.950 . S
C1824 C1822 1.391 . S
C1824 C1825 1.400 . S
C1825 C1819 1.491 . S
C1825 C1824 1.400 . S
C1825 C1826 1.398 . S
C1826 H1814 0.950 . S
C1826 C1825 1.398 . S
C1826 C1827 1.391 . S
C1827 H1815 0.950 . S
C1827 C1823 1.393 . S
C1827 C1826 1.391 . S
H1828 C1836 0.950 . S
H1829 C1841 0.950 . S
H1830 C1838 0.950 . S
H1831 C1840 0.950 . S
H1832 C1842 0.950 1_655 S
H1833 C1844 0.950 . S
H1834 C1846 0.950 . S
H1835 C1847 0.950 . S
C1836 H1828 0.950 . S
C1836 C1837 1.386 . S
C1836 C1838 1.391 . S
C1837 C1836 1.386 . S
C1837 C1841 1.393 . S
C1838 H1830 0.950 . S
C1838 C1836 1.391 . S
C1838 C1839 1.400 . S
C1839 C1838 1.400 . S
C1839 C1840 1.398 . S
C1839 C1845 1.491 . S
C1840 H1831 0.950 . S
C1840 C1839 1.398 . S
C1840 C1841 1.391 . S
C1841 H1829 0.950 . S
C1841 C1837 1.393 . S
C1841 C1840 1.391 . S
C1842 H1832 0.950 1_455 S
C1842 C1843 1.386 . S
C1842 C1844 1.391 . S
C1843 C1842 1.386 . S
C1843 C1847 1.393 . S
C1844 H1833 0.950 . S
C1844 C1842 1.391 . S
C1844 C1845 1.400 . S
C1845 C1839 1.491 . S
C1845 C1844 1.400 . S
C1845 C1846 1.398 . S
C1846 H1834 0.950 . S
C1846 C1845 1.398 . S
C1846 C1847 1.391 . S
C1847 H1835 0.950 . S
C1847 C1843 1.393 . S
C1847 C1846 1.391 . S
H1848 C1856 0.960 . S
H1849 C1861 0.950 . S
H1850 C1858 0.950 . S
H1851 C1860 0.950 . S
H1852 C1862 0.950 . S
H1853 C1864 0.950 . S
H1854 C1866 0.950 . S
H1855 C1867 0.950 . S
C1856 H1848 0.960 . S
C1856 C1857 1.386 . S
C1856 C1858 1.391 . S
C1857 C1856 1.386 . S
C1857 C1861 1.393 . S
C1858 H1850 0.950 . S
C1858 C1856 1.391 . S
C1858 C1859 1.400 . S
C1859 C1858 1.400 . S
C1859 C1860 1.398 . S
C1859 C1865 1.491 . S
C1860 H1851 0.950 . S
C1860 C1859 1.398 . S
C1860 C1861 1.391 . S
C1861 H1849 0.950 . S
C1861 C1857 1.393 . S
C1861 C1860 1.391 . S
C1862 H1852 0.950 . S
C1862 C1863 1.386 . S
C1862 C1864 1.391 . S
C1863 C1862 1.386 . S
C1863 C1867 1.393 . S
C1864 H1853 0.950 . S
C1864 C1862 1.391 . S
C1864 C1865 1.400 . S
C1865 C1859 1.491 . S
C1865 C1864 1.400 . S
C1865 C1866 1.398 . S
C1866 H1854 0.950 . S
C1866 C1865 1.398 . S
C1866 C1867 1.391 . S
C1867 H1855 0.950 . S
C1867 C1863 1.393 . S
C1867 C1866 1.391 . S
H1868 C1876 0.950 . S
H1869 C1881 0.950 . S
H1870 C1878 0.950 . S
H1871 C1880 0.950 . S
H1872 C1882 0.950 . S
H1873 C1884 0.950 . S
H1874 C1886 0.950 . S
H1875 C1887 0.950 . S
C1876 H1868 0.950 . S
C1876 C1877 1.386 . S
C1876 C1878 1.391 . S
C1877 C1876 1.386 . S
C1877 C1881 1.393 . S
C1878 H1870 0.950 . S
C1878 C1876 1.391 . S
C1878 C1879 1.400 . S
C1879 C1878 1.400 . S
C1879 C1880 1.398 . S
C1879 C1885 1.491 . S
C1880 H1871 0.950 . S
C1880 C1879 1.398 . S
C1880 C1881 1.391 . S
C1881 H1869 0.950 . S
C1881 C1877 1.393 . S
C1881 C1880 1.391 . S
C1882 H1872 0.950 . S
C1882 C1883 1.386 . S
C1882 C1884 1.391 . S
C1883 C1882 1.386 . S
C1883 C1887 1.393 . S
C1884 H1873 0.950 . S
C1884 C1882 1.391 . S
C1884 C1885 1.400 . S
C1885 C1879 1.491 . S
C1885 C1884 1.400 . S
C1885 C1886 1.398 . S
C1886 H1874 0.950 . S
C1886 C1885 1.398 . S
C1886 C1887 1.391 . S
C1887 H1875 0.950 . S
C1887 C1883 1.393 . S
C1887 C1886 1.391 . S
H1888 C1896 0.950 . S
H1889 C1901 0.950 . S
H1890 C1898 0.950 . S
H1891 C1900 0.950 . S
H1892 C1902 0.950 . S
H1893 C1904 0.950 . S
H1894 C1906 0.950 . S
H1895 C1907 0.950 . S
C1896 H1888 0.950 . S
C1896 C1897 1.386 . S
C1896 C1898 1.391 . S
C1897 C1896 1.386 . S
C1897 C1901 1.393 . S
C1898 H1890 0.950 . S
C1898 C1896 1.391 . S
C1898 C1899 1.400 . S
C1899 C1898 1.400 . S
C1899 C1900 1.398 . S
C1899 C1905 1.491 . S
C1900 H1891 0.950 . S
C1900 C1899 1.398 . S
C1900 C1901 1.391 . S
C1901 H1889 0.950 . S
C1901 C1897 1.393 . S
C1901 C1900 1.391 . S
C1902 H1892 0.950 . S
C1902 C1903 1.386 . S
C1902 C1904 1.391 . S
C1903 C1902 1.386 . S
C1903 C1907 1.393 . S
C1904 H1893 0.950 . S
C1904 C1902 1.391 . S
C1904 C1905 1.400 . S
C1905 C1899 1.491 . S
C1905 C1904 1.400 . S
C1905 C1906 1.398 . S
C1906 H1894 0.950 . S
C1906 C1905 1.398 . S
C1906 C1907 1.391 . S
C1907 H1895 0.950 . S
C1907 C1903 1.393 . S
C1907 C1906 1.391 . S
H1908 C1916 0.950 . S
H1909 C1921 0.950 . S
H1910 C1918 0.950 . S
H1911 C1920 0.950 . S
H1912 C1922 0.950 . S
H1913 C1924 0.950 . S
H1914 C1926 0.950 . S
H1915 C1927 0.950 . S
C1916 H1908 0.950 . S
C1916 C1917 1.386 . S
C1916 C1918 1.391 . S
C1917 C1916 1.386 . S
C1917 C1921 1.393 . S
C1918 H1910 0.950 . S
C1918 C1916 1.391 . S
C1918 C1919 1.400 . S
C1919 C1918 1.400 . S
C1919 C1920 1.398 . S
C1919 C1925 1.491 . S
C1920 H1911 0.950 . S
C1920 C1919 1.398 . S
C1920 C1921 1.391 . S
C1921 H1909 0.950 . S
C1921 C1917 1.393 . S
C1921 C1920 1.391 . S
C1922 H1912 0.950 . S
C1922 C1923 1.386 . S
C1922 C1924 1.391 . S
C1923 C1922 1.386 . S
C1923 C1927 1.393 . S
C1924 H1913 0.950 . S
C1924 C1922 1.391 . S
C1924 C1925 1.400 . S
C1925 C1919 1.491 . S
C1925 C1924 1.400 . S
C1925 C1926 1.398 . S
C1926 H1914 0.950 . S
C1926 C1925 1.398 . S
C1926 C1927 1.391 . S
C1927 H1915 0.950 . S
C1927 C1923 1.393 . S
C1927 C1926 1.391 . S
H1928 C1936 0.950 . S
H1929 C1941 0.950 . S
H1930 C1938 0.950 . S
H1931 C1940 0.950 . S
H1932 C1942 0.950 . S
H1933 C1944 0.950 . S
H1934 C1946 0.950 . S
H1935 C1947 0.950 . S
C1936 H1928 0.950 . S
C1936 C1937 1.386 . S
C1936 C1938 1.391 . S
C1937 C1936 1.386 . S
C1937 C1941 1.393 . S
C1938 H1930 0.950 . S
C1938 C1936 1.391 . S
C1938 C1939 1.400 . S
C1939 C1938 1.400 . S
C1939 C1940 1.398 . S
C1939 C1945 1.491 . S
C1940 H1931 0.950 . S
C1940 C1939 1.398 . S
C1940 C1941 1.391 . S
C1941 H1929 0.950 . S
C1941 C1937 1.393 . S
C1941 C1940 1.391 . S
C1942 H1932 0.950 . S
C1942 C1943 1.386 . S
C1942 C1944 1.391 . S
C1943 C1942 1.386 . S
C1943 C1947 1.393 . S
C1944 H1933 0.950 . S
C1944 C1942 1.391 . S
C1944 C1945 1.400 . S
C1945 C1939 1.491 . S
C1945 C1944 1.400 . S
C1945 C1946 1.398 . S
C1946 H1934 0.950 . S
C1946 C1945 1.398 . S
C1946 C1947 1.391 . S
C1947 H1935 0.950 . S
C1947 C1943 1.393 . S
C1947 C1946 1.391 . S
H1948 C1956 0.950 . S
H1949 C1961 0.950 . S
H1950 C1958 0.950 . S
H1951 C1960 0.950 . S
H1952 C1962 0.950 . S
H1953 C1964 0.950 . S
H1954 C1966 0.950 . S
H1955 C1967 0.950 . S
C1956 H1948 0.950 . S
C1956 C1957 1.386 . S
C1956 C1958 1.391 . S
C1957 C1956 1.386 . S
C1957 C1961 1.393 . S
C1958 H1950 0.950 . S
C1958 C1956 1.391 . S
C1958 C1959 1.400 . S
C1959 C1958 1.400 . S
C1959 C1960 1.398 . S
C1959 C1965 1.491 . S
C1960 H1951 0.950 . S
C1960 C1959 1.398 . S
C1960 C1961 1.391 . S
C1961 H1949 0.950 . S
C1961 C1957 1.393 . S
C1961 C1960 1.391 . S
C1962 H1952 0.950 . S
C1962 C1963 1.386 . S
C1962 C1964 1.391 . S
C1963 C1962 1.386 . S
C1963 C1967 1.393 . S
C1964 H1953 0.950 . S
C1964 C1962 1.391 . S
C1964 C1965 1.400 . S
C1965 C1959 1.491 . S
C1965 C1964 1.400 . S
C1965 C1966 1.398 . S
C1966 H1954 0.950 . S
C1966 C1965 1.398 . S
C1966 C1967 1.391 . S
C1967 H1955 0.950 . S
C1967 C1963 1.393 . S
C1967 C1966 1.391 . S
H1968 C1976 0.950 . S
H1969 C1981 0.950 . S
H1970 C1978 0.950 . S
H1971 C1980 0.950 . S
H1972 C1982 0.950 . S
H1973 C1984 0.950 . S
H1974 C1986 0.950 . S
H1975 C1987 0.950 . S
C1976 H1968 0.950 . S
C1976 C1977 1.386 . S
C1976 C1978 1.391 . S
C1977 C1976 1.386 . S
C1977 C1981 1.393 . S
C1978 H1970 0.950 . S
C1978 C1976 1.391 . S
C1978 C1979 1.400 . S
C1979 C1978 1.400 . S
C1979 C1980 1.398 . S
C1979 C1985 1.491 . S
C1980 H1971 0.950 . S
C1980 C1979 1.398 . S
C1980 C1981 1.391 . S
C1981 H1969 0.950 . S
C1981 C1977 1.393 . S
C1981 C1980 1.391 . S
C1982 H1972 0.950 . S
C1982 C1983 1.386 . S
C1982 C1984 1.391 . S
C1983 C1982 1.386 . S
C1983 C1987 1.393 . S
C1984 H1973 0.950 . S
C1984 C1982 1.391 . S
C1984 C1985 1.400 . S
C1985 C1979 1.491 . S
C1985 C1984 1.400 . S
C1985 C1986 1.398 . S
C1986 H1974 0.950 . S
C1986 C1985 1.398 . S
C1986 C1987 1.391 . S
C1987 H1975 0.950 . S
C1987 C1983 1.393 . S
C1987 C1986 1.391 . S
H1988 C1996 0.950 . S
H1989 C2001 0.950 . S
H1990 C1998 0.950 . S
H1991 C2000 0.950 . S
H1992 C2002 0.950 . S
H1993 C2004 0.950 . S
H1994 C2006 0.950 . S
H1995 C2007 0.950 . S
C1996 H1988 0.950 . S
C1996 C1997 1.386 . S
C1996 C1998 1.391 . S
C1997 C1996 1.386 . S
C1997 C2001 1.393 . S
C1998 H1990 0.950 . S
C1998 C1996 1.391 . S
C1998 C1999 1.400 . S
C1999 C1998 1.400 . S
C1999 C2000 1.398 . S
C1999 C2005 1.491 . S
C2000 H1991 0.950 . S
C2000 C1999 1.398 . S
C2000 C2001 1.391 . S
C2001 H1989 0.950 . S
C2001 C1997 1.393 . S
C2001 C2000 1.391 . S
C2002 H1992 0.950 . S
C2002 C2003 1.386 . S
C2002 C2004 1.391 . S
C2003 C2002 1.386 . S
C2003 C2007 1.393 . S
C2004 H1993 0.950 . S
C2004 C2002 1.391 . S
C2004 C2005 1.400 . S
C2005 C1999 1.491 . S
C2005 C2004 1.400 . S
C2005 C2006 1.398 . S
C2006 H1994 0.950 . S
C2006 C2005 1.398 . S
C2006 C2007 1.391 . S
C2007 H1995 0.950 . S
C2007 C2003 1.393 . S
C2007 C2006 1.391 . S
H2008 C2016 0.950 . S
H2009 C2021 0.950 . S
H2010 C2018 0.950 . S
H2011 C2020 0.950 . S
H2012 C2022 0.950 . S
H2013 C2024 0.950 . S
H2014 C2026 0.950 . S
H2015 C2027 0.950 . S
C2016 H2008 0.950 . S
C2016 C2017 1.386 . S
C2016 C2018 1.391 . S
C2017 C2016 1.386 . S
C2017 C2021 1.393 . S
C2018 H2010 0.950 . S
C2018 C2016 1.391 . S
C2018 C2019 1.400 . S
C2019 C2018 1.400 . S
C2019 C2020 1.398 . S
C2019 C2025 1.491 . S
C2020 H2011 0.950 . S
C2020 C2019 1.398 . S
C2020 C2021 1.391 . S
C2021 H2009 0.950 . S
C2021 C2017 1.393 . S
C2021 C2020 1.391 . S
C2022 H2012 0.950 . S
C2022 C2023 1.386 . S
C2022 C2024 1.391 . S
C2023 C2022 1.386 . S
C2023 C2027 1.393 . S
C2024 H2013 0.950 . S
C2024 C2022 1.391 . S
C2024 C2025 1.400 . S
C2025 C2019 1.491 . S
C2025 C2024 1.400 . S
C2025 C2026 1.398 . S
C2026 H2014 0.950 . S
C2026 C2025 1.398 . S
C2026 C2027 1.391 . S
C2027 H2015 0.950 . S
C2027 C2023 1.393 . S
C2027 C2026 1.391 . S
H2028 C2036 0.950 . S
H2029 C2041 0.950 . S
H2030 C2038 0.950 . S
H2031 C2040 0.950 . S
H2032 C2042 0.950 . S
H2033 C2044 0.950 . S
H2034 C2046 0.950 . S
H2035 C2047 0.950 . S
C2036 H2028 0.950 . S
C2036 C2037 1.386 . S
C2036 C2038 1.391 . S
C2037 C2036 1.386 . S
C2037 C2041 1.393 . S
C2038 H2030 0.950 . S
C2038 C2036 1.391 . S
C2038 C2039 1.400 . S
C2039 C2038 1.400 . S
C2039 C2040 1.398 . S
C2039 C2045 1.491 . S
C2040 H2031 0.950 . S
C2040 C2039 1.398 . S
C2040 C2041 1.391 . S
C2041 H2029 0.950 . S
C2041 C2037 1.393 . S
C2041 C2040 1.391 . S
C2042 H2032 0.950 . S
C2042 C2043 1.386 . S
C2042 C2044 1.391 . S
C2043 C2042 1.386 . S
C2043 C2047 1.393 . S
C2044 H2033 0.950 . S
C2044 C2042 1.391 . S
C2044 C2045 1.400 . S
C2045 C2039 1.491 . S
C2045 C2044 1.400 . S
C2045 C2046 1.398 . S
C2046 H2034 0.950 . S
C2046 C2045 1.398 . S
C2046 C2047 1.391 . S
C2047 H2035 0.950 . S
C2047 C2043 1.393 . S
C2047 C2046 1.391 . S
H2048 C2056 0.950 . S
H2049 C2061 0.950 . S
H2050 C2058 0.950 . S
H2051 C2060 0.950 . S
H2052 C2062 0.950 . S
H2053 C2064 0.950 . S
H2054 C2066 0.950 . S
H2055 C2067 0.950 . S
C2056 H2048 0.950 . S
C2056 C2057 1.386 . S
C2056 C2058 1.391 . S
C2057 C2056 1.386 . S
C2057 C2061 1.393 . S
C2058 H2050 0.950 . S
C2058 C2056 1.391 . S
C2058 C2059 1.400 . S
C2059 C2058 1.400 . S
C2059 C2060 1.398 . S
C2059 C2065 1.491 . S
C2060 H2051 0.950 . S
C2060 C2059 1.398 . S
C2060 C2061 1.391 . S
C2061 H2049 0.950 . S
C2061 C2057 1.393 . S
C2061 C2060 1.391 . S
C2062 H2052 0.950 . S
C2062 C2063 1.386 . S
C2062 C2064 1.391 . S
C2063 C2062 1.386 . S
C2063 C2067 1.393 . S
C2064 H2053 0.950 . S
C2064 C2062 1.391 . S
C2064 C2065 1.400 . S
C2065 C2059 1.491 . S
C2065 C2064 1.400 . S
C2065 C2066 1.398 . S
C2066 H2054 0.950 . S
C2066 C2065 1.398 . S
C2066 C2067 1.391 . S
C2067 H2055 0.950 . S
C2067 C2063 1.393 . S
C2067 C2066 1.391 . S
H2068 C2076 0.950 . S
H2069 C2081 0.950 . S
H2070 C2078 0.950 . S
H2071 C2080 0.950 . S
H2072 C2082 0.950 . S
H2073 C2084 0.950 . S
H2074 C2086 0.950 . S
H2075 C2087 0.950 . S
C2076 H2068 0.950 . S
C2076 C2077 1.386 . S
C2076 C2078 1.391 . S
C2077 C2076 1.386 . S
C2077 C2081 1.393 . S
C2078 H2070 0.950 . S
C2078 C2076 1.391 . S
C2078 C2079 1.400 . S
C2079 C2078 1.400 . S
C2079 C2080 1.398 . S
C2079 C2085 1.491 . S
C2080 H2071 0.950 . S
C2080 C2079 1.398 . S
C2080 C2081 1.391 . S
C2081 H2069 0.950 . S
C2081 C2077 1.393 . S
C2081 C2080 1.391 . S
C2082 H2072 0.950 . S
C2082 C2083 1.386 . S
C2082 C2084 1.391 . S
C2083 C2082 1.386 . S
C2083 C2087 1.393 . S
C2084 H2073 0.950 . S
C2084 C2082 1.391 . S
C2084 C2085 1.400 . S
C2085 C2079 1.491 . S
C2085 C2084 1.400 . S
C2085 C2086 1.398 . S
C2086 H2074 0.950 . S
C2086 C2085 1.398 . S
C2086 C2087 1.391 . S
C2087 H2075 0.950 . S
C2087 C2083 1.393 . S
C2087 C2086 1.391 . S
H2088 C2096 0.950 . S
H2089 C2101 0.950 . S
H2090 C2098 0.950 . S
H2091 C2100 0.950 . S
H2092 C2102 0.950 . S
H2093 C2104 0.950 . S
H2094 C2106 0.950 . S
H2095 C2107 0.950 . S
C2096 H2088 0.950 . S
C2096 C2097 1.386 . S
C2096 C2098 1.391 . S
C2097 C2096 1.386 . S
C2097 C2101 1.393 . S
C2098 H2090 0.950 . S
C2098 C2096 1.391 . S
C2098 C2099 1.400 . S
C2099 C2098 1.400 . S
C2099 C2100 1.398 . S
C2099 C2105 1.491 . S
C2100 H2091 0.950 . S
C2100 C2099 1.398 . S
C2100 C2101 1.391 . S
C2101 H2089 0.950 . S
C2101 C2097 1.393 . S
C2101 C2100 1.391 . S
C2102 H2092 0.950 . S
C2102 C2103 1.386 . S
C2102 C2104 1.391 . S
C2103 C2102 1.386 . S
C2103 C2107 1.393 . S
C2104 H2093 0.950 . S
C2104 C2102 1.391 . S
C2104 C2105 1.400 . S
C2105 C2099 1.491 . S
C2105 C2104 1.400 . S
C2105 C2106 1.398 . S
C2106 H2094 0.950 . S
C2106 C2105 1.398 . S
C2106 C2107 1.391 . S
C2107 H2095 0.950 . S
C2107 C2103 1.393 . S
C2107 C2106 1.391 . S
H2108 C2116 0.950 . S
H2109 C2121 0.950 . S
H2110 C2118 0.950 . S
H2111 C2120 0.950 . S
H2112 C2122 0.950 . S
H2113 C2124 0.950 . S
H2114 C2126 0.950 . S
H2115 C2127 0.950 . S
C2116 H2108 0.950 . S
C2116 C2117 1.386 . S
C2116 C2118 1.391 . S
C2117 C2116 1.386 . S
C2117 C2121 1.393 . S
C2118 H2110 0.950 . S
C2118 C2116 1.391 . S
C2118 C2119 1.400 . S
C2119 C2118 1.400 . S
C2119 C2120 1.398 . S
C2119 C2125 1.491 . S
C2120 H2111 0.950 . S
C2120 C2119 1.398 . S
C2120 C2121 1.391 . S
C2121 H2109 0.950 . S
C2121 C2117 1.393 . S
C2121 C2120 1.391 . S
C2122 H2112 0.950 . S
C2122 C2123 1.386 . S
C2122 C2124 1.391 . S
C2123 C2122 1.386 . S
C2123 C2127 1.393 . S
C2124 H2113 0.950 . S
C2124 C2122 1.391 . S
C2124 C2125 1.400 . S
C2125 C2119 1.491 . S
C2125 C2124 1.400 . S
C2125 C2126 1.398 . S
C2126 H2114 0.950 . S
C2126 C2125 1.398 . S
C2126 C2127 1.391 . S
C2127 H2115 0.950 . S
C2127 C2123 1.393 . S
C2127 C2126 1.391 . S
H2128 C2136 0.950 . S
H2129 C2141 0.950 . S
H2130 C2138 0.950 . S
H2131 C2140 0.950 . S
H2132 C2142 0.950 . S
H2133 C2144 0.950 . S
H2134 C2146 0.950 . S
H2135 C2147 0.950 . S
C2136 H2128 0.950 . S
C2136 C2137 1.386 . S
C2136 C2138 1.391 . S
C2137 C2136 1.386 . S
C2137 C2141 1.393 . S
C2138 H2130 0.950 . S
C2138 C2136 1.391 . S
C2138 C2139 1.400 . S
C2139 C2138 1.400 . S
C2139 C2140 1.398 . S
C2139 C2145 1.491 . S
C2140 H2131 0.950 . S
C2140 C2139 1.398 . S
C2140 C2141 1.391 . S
C2141 H2129 0.950 . S
C2141 C2137 1.393 . S
C2141 C2140 1.391 . S
C2142 H2132 0.950 . S
C2142 C2143 1.386 . S
C2142 C2144 1.391 . S
C2143 C2142 1.386 . S
C2143 C2147 1.393 . S
C2144 H2133 0.950 . S
C2144 C2142 1.391 . S
C2144 C2145 1.400 . S
C2145 C2139 1.491 . S
C2145 C2144 1.400 . S
C2145 C2146 1.398 . S
C2146 H2134 0.950 . S
C2146 C2145 1.398 . S
C2146 C2147 1.391 . S
C2147 H2135 0.950 . S
C2147 C2143 1.393 . S
C2147 C2146 1.391 . S
H2148 C2156 0.950 . S
H2149 C2161 0.950 . S
H2150 C2158 0.950 . S
H2151 C2160 0.950 . S
H2152 C2162 0.950 . S
H2153 C2164 0.950 . S
H2154 C2166 0.950 . S
H2155 C2167 0.950 . S
C2156 H2148 0.950 . S
C2156 C2157 1.386 . S
C2156 C2158 1.391 . S
C2157 C2156 1.386 . S
C2157 C2161 1.393 . S
C2158 H2150 0.950 . S
C2158 C2156 1.391 . S
C2158 C2159 1.400 . S
C2159 C2158 1.400 . S
C2159 C2160 1.398 . S
C2159 C2165 1.491 . S
C2160 H2151 0.950 . S
C2160 C2159 1.398 . S
C2160 C2161 1.391 . S
C2161 H2149 0.950 . S
C2161 C2157 1.393 . S
C2161 C2160 1.391 . S
C2162 H2152 0.950 . S
C2162 C2163 1.386 . S
C2162 C2164 1.391 . S
C2163 C2162 1.386 . S
C2163 C2167 1.393 . S
C2164 H2153 0.950 . S
C2164 C2162 1.391 . S
C2164 C2165 1.400 . S
C2165 C2159 1.491 . S
C2165 C2164 1.400 . S
C2165 C2166 1.398 . S
C2166 H2154 0.950 . S
C2166 C2165 1.398 . S
C2166 C2167 1.391 . S
C2167 H2155 0.950 . S
C2167 C2163 1.393 . S
C2167 C2166 1.391 . S
H2168 C2176 0.950 . S
H2169 C2181 0.950 . S
H2170 C2178 0.950 . S
H2171 C2180 0.950 . S
H2172 C2182 0.950 . S
H2173 C2184 0.950 . S
H2174 C2186 0.950 . S
H2175 C2187 0.950 . S
C2176 H2168 0.950 . S
C2176 C2177 1.386 . S
C2176 C2178 1.391 . S
C2177 C2176 1.386 . S
C2177 C2181 1.393 . S
C2178 H2170 0.950 . S
C2178 C2176 1.391 . S
C2178 C2179 1.400 . S
C2179 C2178 1.400 . S
C2179 C2180 1.398 . S
C2179 C2185 1.491 . S
C2180 H2171 0.950 . S
C2180 C2179 1.398 . S
C2180 C2181 1.391 . S
C2181 H2169 0.950 . S
C2181 C2177 1.393 . S
C2181 C2180 1.391 . S
C2182 H2172 0.950 . S
C2182 C2183 1.386 . S
C2182 C2184 1.391 . S
C2183 C2182 1.386 . S
C2183 C2187 1.393 . S
C2184 H2173 0.950 . S
C2184 C2182 1.391 . S
C2184 C2185 1.400 . S
C2185 C2179 1.491 . S
C2185 C2184 1.400 . S
C2185 C2186 1.398 . S
C2186 H2174 0.950 . S
C2186 C2185 1.398 . S
C2186 C2187 1.391 . S
C2187 H2175 0.950 . S
C2187 C2183 1.393 . S
C2187 C2186 1.391 . S
H2188 C2196 0.950 . S
H2189 C2201 0.950 . S
H2190 C2198 0.950 . S
H2191 C2200 0.950 . S
H2192 C2202 0.950 . S
H2193 C2204 0.950 . S
H2194 C2206 0.950 . S
H2195 C2207 0.950 . S
C2196 H2188 0.950 . S
C2196 C2197 1.386 . S
C2196 C2198 1.391 . S
C2197 C2196 1.386 . S
C2197 C2201 1.393 . S
C2198 H2190 0.950 . S
C2198 C2196 1.391 . S
C2198 C2199 1.400 . S
C2199 C2198 1.400 . S
C2199 C2200 1.398 . S
C2199 C2205 1.491 . S
C2200 H2191 0.950 . S
C2200 C2199 1.398 . S
C2200 C2201 1.391 . S
C2201 H2189 0.950 . S
C2201 C2197 1.393 . S
C2201 C2200 1.391 . S
C2202 H2192 0.950 . S
C2202 C2203 1.386 . S
C2202 C2204 1.391 . S
C2203 C2202 1.386 . S
C2203 C2207 1.393 . S
C2204 H2193 0.950 . S
C2204 C2202 1.391 . S
C2204 C2205 1.400 . S
C2205 C2199 1.491 . S
C2205 C2204 1.400 . S
C2205 C2206 1.398 . S
C2206 H2194 0.950 . S
C2206 C2205 1.398 . S
C2206 C2207 1.391 . S
C2207 H2195 0.950 . S
C2207 C2203 1.393 . S
C2207 C2206 1.391 . S
H2208 C2216 0.950 . S
H2209 C2221 0.950 . S
H2210 C2218 0.950 . S
H2211 C2220 0.950 . S
H2212 C2222 0.950 . S
H2213 C2224 0.950 . S
H2214 C2226 0.950 . S
H2215 C2227 0.950 . S
C2216 H2208 0.950 . S
C2216 C2217 1.386 . S
C2216 C2218 1.391 . S
C2217 C2216 1.386 . S
C2217 C2221 1.393 . S
C2218 H2210 0.950 . S
C2218 C2216 1.391 . S
C2218 C2219 1.400 . S
C2219 C2218 1.400 . S
C2219 C2220 1.398 . S
C2219 C2225 1.491 . S
C2220 H2211 0.950 . S
C2220 C2219 1.398 . S
C2220 C2221 1.391 . S
C2221 H2209 0.950 . S
C2221 C2217 1.393 . S
C2221 C2220 1.391 . S
C2222 H2212 0.950 . S
C2222 C2223 1.386 . S
C2222 C2224 1.391 . S
C2223 C2222 1.386 . S
C2223 C2227 1.393 . S
C2224 H2213 0.950 . S
C2224 C2222 1.391 . S
C2224 C2225 1.400 . S
C2225 C2219 1.491 . S
C2225 C2224 1.400 . S
C2225 C2226 1.398 . S
C2226 H2214 0.950 . S
C2226 C2225 1.398 . S
C2226 C2227 1.391 . S
C2227 H2215 0.950 . S
C2227 C2223 1.393 . S
C2227 C2226 1.391 . S
H2228 C2236 0.950 . S
H2229 C2241 0.950 . S
H2230 C2238 0.950 . S
H2231 C2240 0.950 . S
H2232 C2242 0.950 . S
H2233 C2244 0.950 . S
H2234 C2246 0.950 . S
H2235 C2247 0.950 . S
C2236 H2228 0.950 . S
C2236 C2237 1.386 . S
C2236 C2238 1.391 . S
C2237 C2236 1.386 . S
C2237 C2241 1.393 . S
C2238 H2230 0.950 . S
C2238 C2236 1.391 . S
C2238 C2239 1.400 . S
C2239 C2238 1.400 . S
C2239 C2240 1.398 . S
C2239 C2245 1.491 . S
C2240 H2231 0.950 . S
C2240 C2239 1.398 . S
C2240 C2241 1.391 . S
C2241 H2229 0.950 . S
C2241 C2237 1.393 . S
C2241 C2240 1.391 . S
C2242 H2232 0.950 . S
C2242 C2243 1.386 . S
C2242 C2244 1.391 . S
C2243 C2242 1.386 . S
C2243 C2247 1.393 . S
C2244 H2233 0.950 . S
C2244 C2242 1.391 . S
C2244 C2245 1.400 . S
C2245 C2239 1.491 . S
C2245 C2244 1.400 . S
C2245 C2246 1.398 . S
C2246 H2234 0.950 . S
C2246 C2245 1.398 . S
C2246 C2247 1.391 . S
C2247 H2235 0.950 . S
C2247 C2243 1.393 . S
C2247 C2246 1.391 . S
H2248 C2256 0.950 . S
H2249 C2261 0.950 . S
H2250 C2258 0.950 . S
H2251 C2260 0.950 . S
H2252 C2262 0.950 . S
H2253 C2264 0.950 . S
H2254 C2266 0.950 . S
H2255 C2267 0.950 . S
C2256 H2248 0.950 . S
C2256 C2257 1.386 . S
C2256 C2258 1.391 . S
C2257 C2256 1.386 . S
C2257 C2261 1.393 . S
C2258 H2250 0.950 . S
C2258 C2256 1.391 . S
C2258 C2259 1.400 . S
C2259 C2258 1.400 . S
C2259 C2260 1.398 . S
C2259 C2265 1.491 . S
C2260 H2251 0.950 . S
C2260 C2259 1.398 . S
C2260 C2261 1.391 . S
C2261 H2249 0.950 . S
C2261 C2257 1.393 . S
C2261 C2260 1.391 . S
C2262 H2252 0.950 . S
C2262 C2263 1.386 . S
C2262 C2264 1.391 . S
C2263 C2262 1.386 . S
C2263 C2267 1.393 . S
C2264 H2253 0.950 . S
C2264 C2262 1.391 . S
C2264 C2265 1.400 . S
C2265 C2259 1.491 . S
C2265 C2264 1.400 . S
C2265 C2266 1.398 . S
C2266 H2254 0.950 . S
C2266 C2265 1.398 . S
C2266 C2267 1.391 . S
C2267 H2255 0.950 . S
C2267 C2263 1.393 . S
C2267 C2266 1.391 . S
H2268 C2276 0.950 . S
H2269 C2281 0.950 . S
H2270 C2278 0.950 . S
H2271 C2280 0.950 . S
H2272 C2282 0.950 . S
H2273 C2284 0.950 . S
H2274 C2286 0.950 . S
H2275 C2287 0.950 . S
C2276 H2268 0.950 . S
C2276 C2277 1.386 . S
C2276 C2278 1.391 . S
C2277 C2276 1.386 . S
C2277 C2281 1.393 . S
C2278 H2270 0.950 . S
C2278 C2276 1.391 . S
C2278 C2279 1.400 . S
C2279 C2278 1.400 . S
C2279 C2280 1.398 . S
C2279 C2285 1.491 . S
C2280 H2271 0.950 . S
C2280 C2279 1.398 . S
C2280 C2281 1.391 . S
C2281 H2269 0.950 . S
C2281 C2277 1.393 . S
C2281 C2280 1.391 . S
C2282 H2272 0.950 . S
C2282 C2283 1.386 . S
C2282 C2284 1.391 . S
C2283 C2282 1.386 . S
C2283 C2287 1.393 . S
C2284 H2273 0.950 . S
C2284 C2282 1.391 . S
C2284 C2285 1.400 . S
C2285 C2279 1.491 . S
C2285 C2284 1.400 . S
C2285 C2286 1.398 . S
C2286 H2274 0.950 . S
C2286 C2285 1.398 . S
C2286 C2287 1.391 . S
C2287 H2275 0.950 . S
C2287 C2283 1.393 . S
C2287 C2286 1.391 . S
H2288 C2296 0.950 . S
H2289 C2301 0.950 . S
H2290 C2298 0.950 . S
H2291 C2300 0.950 . S
H2292 C2302 0.950 . S
H2293 C2304 0.950 . S
H2294 C2306 0.950 . S
H2295 C2307 0.950 . S
C2296 H2288 0.950 . S
C2296 C2297 1.386 . S
C2296 C2298 1.391 . S
C2297 C2296 1.386 . S
C2297 C2301 1.393 . S
C2298 H2290 0.950 . S
C2298 C2296 1.391 . S
C2298 C2299 1.400 . S
C2299 C2298 1.400 . S
C2299 C2300 1.398 . S
C2299 C2305 1.491 . S
C2300 H2291 0.950 . S
C2300 C2299 1.398 . S
C2300 C2301 1.391 . S
C2301 H2289 0.950 . S
C2301 C2297 1.393 . S
C2301 C2300 1.391 . S
C2302 H2292 0.950 . S
C2302 C2303 1.386 . S
C2302 C2304 1.391 . S
C2303 C2302 1.386 . S
C2303 C2307 1.393 . S
C2304 H2293 0.950 . S
C2304 C2302 1.391 . S
C2304 C2305 1.400 . S
C2305 C2299 1.491 . S
C2305 C2304 1.400 . S
C2305 C2306 1.398 . S
C2306 H2294 0.950 . S
C2306 C2305 1.398 . S
C2306 C2307 1.391 . S
C2307 H2295 0.950 . S
C2307 C2303 1.393 . S
C2307 C2306 1.391 . S
H2308 C2316 0.950 . S
H2309 C2321 0.950 . S
H2310 C2318 0.950 . S
H2311 C2320 0.950 . S
H2312 C2322 0.950 . S
H2313 C2324 0.950 . S
H2314 C2326 0.950 . S
H2315 C2327 0.950 . S
C2316 H2308 0.950 . S
C2316 C2317 1.386 . S
C2316 C2318 1.391 . S
C2317 C2316 1.386 . S
C2317 C2321 1.393 . S
C2318 H2310 0.950 . S
C2318 C2316 1.391 . S
C2318 C2319 1.400 . S
C2319 C2318 1.400 . S
C2319 C2320 1.398 . S
C2319 C2325 1.491 . S
C2320 H2311 0.950 . S
C2320 C2319 1.398 . S
C2320 C2321 1.391 . S
C2321 H2309 0.950 . S
C2321 C2317 1.393 . S
C2321 C2320 1.391 . S
C2322 H2312 0.950 . S
C2322 C2323 1.386 . S
C2322 C2324 1.391 . S
C2323 C2322 1.386 . S
C2323 C2327 1.393 . S
C2324 H2313 0.950 . S
C2324 C2322 1.391 . S
C2324 C2325 1.400 . S
C2325 C2319 1.491 . S
C2325 C2324 1.400 . S
C2325 C2326 1.398 . S
C2326 H2314 0.950 . S
C2326 C2325 1.398 . S
C2326 C2327 1.391 . S
C2327 H2315 0.950 . S
C2327 C2323 1.393 . S
C2327 C2326 1.391 . S
H2328 C2336 0.950 . S
H2329 C2341 0.950 . S
H2330 C2338 0.950 . S
H2331 C2340 0.950 . S
H2332 C2342 0.950 . S
H2333 C2344 0.950 . S
H2334 C2346 0.950 . S
H2335 C2347 0.950 . S
C2336 H2328 0.950 . S
C2336 C2337 1.386 . S
C2336 C2338 1.391 . S
C2337 C2336 1.386 . S
C2337 C2341 1.393 . S
C2338 H2330 0.950 . S
C2338 C2336 1.391 . S
C2338 C2339 1.400 . S
C2339 C2338 1.400 . S
C2339 C2340 1.398 . S
C2339 C2345 1.491 . S
C2340 H2331 0.950 . S
C2340 C2339 1.398 . S
C2340 C2341 1.391 . S
C2341 H2329 0.950 . S
C2341 C2337 1.393 . S
C2341 C2340 1.391 . S
C2342 H2332 0.950 . S
C2342 C2343 1.386 . S
C2342 C2344 1.391 . S
C2343 C2342 1.386 . S
C2343 C2347 1.393 . S
C2344 H2333 0.950 . S
C2344 C2342 1.391 . S
C2344 C2345 1.400 . S
C2345 C2339 1.491 . S
C2345 C2344 1.400 . S
C2345 C2346 1.398 . S
C2346 H2334 0.950 . S
C2346 C2345 1.398 . S
C2346 C2347 1.391 . S
C2347 H2335 0.950 . S
C2347 C2343 1.393 . S
C2347 C2346 1.391 . S
H2348 C2356 0.950 . S
H2349 C2361 0.950 . S
H2350 C2358 0.950 . S
H2351 C2360 0.950 . S
H2352 C2362 0.950 . S
H2353 C2364 0.950 . S
H2354 C2366 0.950 . S
H2355 C2367 0.950 . S
C2356 H2348 0.950 . S
C2356 C2357 1.386 . S
C2356 C2358 1.391 . S
C2357 C2356 1.386 . S
C2357 C2361 1.393 . S
C2358 H2350 0.950 . S
C2358 C2356 1.391 . S
C2358 C2359 1.400 . S
C2359 C2358 1.400 . S
C2359 C2360 1.398 . S
C2359 C2365 1.491 . S
C2360 H2351 0.950 . S
C2360 C2359 1.398 . S
C2360 C2361 1.391 . S
C2361 H2349 0.950 . S
C2361 C2357 1.393 . S
C2361 C2360 1.391 . S
C2362 H2352 0.950 . S
C2362 C2363 1.386 . S
C2362 C2364 1.391 . S
C2363 C2362 1.386 . S
C2363 C2367 1.393 . S
C2364 H2353 0.950 . S
C2364 C2362 1.391 . S
C2364 C2365 1.400 . S
C2365 C2359 1.491 . S
C2365 C2364 1.400 . S
C2365 C2366 1.398 . S
C2366 H2354 0.950 . S
C2366 C2365 1.398 . S
C2366 C2367 1.391 . S
C2367 H2355 0.950 . S
C2367 C2363 1.393 . S
C2367 C2366 1.391 . S
H2368 C2376 0.950 . S
H2369 C2381 0.950 . S
H2370 C2378 0.950 . S
H2371 C2380 0.950 . S
H2372 C2382 0.950 . S
H2373 C2384 0.950 . S
H2374 C2386 0.950 . S
H2375 C2387 0.950 . S
C2376 H2368 0.950 . S
C2376 C2377 1.386 . S
C2376 C2378 1.391 . S
C2377 C2376 1.386 . S
C2377 C2381 1.393 . S
C2378 H2370 0.950 . S
C2378 C2376 1.391 . S
C2378 C2379 1.400 . S
C2379 C2378 1.400 . S
C2379 C2380 1.398 . S
C2379 C2385 1.491 . S
C2380 H2371 0.950 . S
C2380 C2379 1.398 . S
C2380 C2381 1.391 . S
C2381 H2369 0.950 . S
C2381 C2377 1.393 . S
C2381 C2380 1.391 . S
C2382 H2372 0.950 . S
C2382 C2383 1.386 . S
C2382 C2384 1.391 . S
C2383 C2382 1.386 . S
C2383 C2387 1.393 . S
C2384 H2373 0.950 . S
C2384 C2382 1.391 . S
C2384 C2385 1.400 . S
C2385 C2379 1.491 . S
C2385 C2384 1.400 . S
C2385 C2386 1.398 . S
C2386 H2374 0.950 . S
C2386 C2385 1.398 . S
C2386 C2387 1.391 . S
C2387 H2375 0.950 . S
C2387 C2383 1.393 . S
C2387 C2386 1.391 . S
H2388 C2396 0.950 . S
H2389 C2401 0.950 . S
H2390 C2398 0.950 . S
H2391 C2400 0.950 . S
H2392 C2402 0.950 . S
H2393 C2404 0.950 . S
H2394 C2406 0.950 . S
H2395 C2407 0.950 . S
C2396 H2388 0.950 . S
C2396 C2397 1.386 . S
C2396 C2398 1.391 . S
C2397 C2396 1.386 . S
C2397 C2401 1.393 . S
C2398 H2390 0.950 . S
C2398 C2396 1.391 . S
C2398 C2399 1.400 . S
C2399 C2398 1.400 . S
C2399 C2400 1.398 . S
C2399 C2405 1.491 . S
C2400 H2391 0.950 . S
C2400 C2399 1.398 . S
C2400 C2401 1.391 . S
C2401 H2389 0.950 . S
C2401 C2397 1.393 . S
C2401 C2400 1.391 . S
C2402 H2392 0.950 . S
C2402 C2403 1.386 . S
C2402 C2404 1.391 . S
C2403 C2402 1.386 . S
C2403 C2407 1.393 . S
C2404 H2393 0.950 . S
C2404 C2402 1.391 . S
C2404 C2405 1.400 . S
C2405 C2399 1.491 . S
C2405 C2404 1.400 . S
C2405 C2406 1.398 . S
C2406 H2394 0.950 . S
C2406 C2405 1.398 . S
C2406 C2407 1.391 . S
C2407 H2395 0.950 . S
C2407 C2403 1.393 . S
C2407 C2406 1.391 . S
H2408 C2416 0.950 . S
H2409 C2421 0.950 . S
H2410 C2418 0.950 . S
H2411 C2420 0.950 . S
H2412 C2422 0.950 . S
H2413 C2424 0.950 . S
H2414 C2426 0.950 . S
H2415 C2427 0.950 . S
C2416 H2408 0.950 . S
C2416 C2417 1.386 . S
C2416 C2418 1.391 . S
C2417 C2416 1.386 . S
C2417 C2421 1.393 . S
C2418 H2410 0.950 . S
C2418 C2416 1.391 . S
C2418 C2419 1.400 . S
C2419 C2418 1.400 . S
C2419 C2420 1.398 . S
C2419 C2425 1.491 . S
C2420 H2411 0.950 . S
C2420 C2419 1.398 . S
C2420 C2421 1.391 . S
C2421 H2409 0.950 . S
C2421 C2417 1.393 . S
C2421 C2420 1.391 . S
C2422 H2412 0.950 . S
C2422 C2423 1.386 . S
C2422 C2424 1.391 . S
C2423 C2422 1.386 . S
C2423 C2427 1.393 . S
C2424 H2413 0.950 . S
C2424 C2422 1.391 . S
C2424 C2425 1.400 . S
C2425 C2419 1.491 . S
C2425 C2424 1.400 . S
C2425 C2426 1.398 . S
C2426 H2414 0.950 . S
C2426 C2425 1.398 . S
C2426 C2427 1.391 . S
C2427 H2415 0.950 . S
C2427 C2423 1.393 . S
C2427 C2426 1.391 . S
H2428 C2436 0.950 . S
H2429 C2441 0.950 . S
H2430 C2438 0.950 . S
H2431 C2440 0.950 . S
H2432 C2442 0.950 . S
H2433 C2444 0.950 . S
H2434 C2446 0.950 . S
H2435 C2447 0.950 . S
C2436 H2428 0.950 . S
C2436 C2437 1.386 . S
C2436 C2438 1.391 . S
C2437 C2436 1.386 . S
C2437 C2441 1.393 . S
C2438 H2430 0.950 . S
C2438 C2436 1.391 . S
C2438 C2439 1.400 . S
C2439 C2438 1.400 . S
C2439 C2440 1.398 . S
C2439 C2445 1.491 . S
C2440 H2431 0.950 . S
C2440 C2439 1.398 . S
C2440 C2441 1.391 . S
C2441 H2429 0.950 . S
C2441 C2437 1.393 . S
C2441 C2440 1.391 . S
C2442 H2432 0.950 . S
C2442 C2443 1.386 . S
C2442 C2444 1.391 . S
C2443 C2442 1.386 . S
C2443 C2447 1.393 . S
C2444 H2433 0.950 . S
C2444 C2442 1.391 . S
C2444 C2445 1.400 . S
C2445 C2439 1.491 . S
C2445 C2444 1.400 . S
C2445 C2446 1.398 . S
C2446 H2434 0.950 . S
C2446 C2445 1.398 . S
C2446 C2447 1.391 . S
C2447 H2435 0.950 . S
C2447 C2443 1.393 . S
C2447 C2446 1.391 . S
H2448 C2456 0.950 . S
H2449 C2461 0.950 . S
H2450 C2458 0.950 . S
H2451 C2460 0.950 . S
H2452 C2462 0.950 . S
H2453 C2464 0.950 . S
H2454 C2466 0.950 . S
H2455 C2467 0.950 . S
C2456 H2448 0.950 . S
C2456 C2457 1.386 . S
C2456 C2458 1.391 . S
C2457 C2456 1.386 . S
C2457 C2461 1.393 . S
C2458 H2450 0.950 . S
C2458 C2456 1.391 . S
C2458 C2459 1.400 . S
C2459 C2458 1.400 . S
C2459 C2460 1.398 . S
C2459 C2465 1.491 . S
C2460 H2451 0.950 . S
C2460 C2459 1.398 . S
C2460 C2461 1.391 . S
C2461 H2449 0.950 . S
C2461 C2457 1.393 . S
C2461 C2460 1.391 . S
C2462 H2452 0.950 . S
C2462 C2463 1.386 . S
C2462 C2464 1.391 . S
C2463 C2462 1.386 . S
C2463 C2467 1.393 . S
C2464 H2453 0.950 . S
C2464 C2462 1.391 . S
C2464 C2465 1.400 . S
C2465 C2459 1.491 . S
C2465 C2464 1.400 . S
C2465 C2466 1.398 . S
C2466 H2454 0.950 . S
C2466 C2465 1.398 . S
C2466 C2467 1.391 . S
C2467 H2455 0.950 . S
C2467 C2463 1.393 . S
C2467 C2466 1.391 . S
H2468 C2476 0.950 . S
H2469 C2481 0.950 . S
H2470 C2478 0.950 . S
H2471 C2480 0.950 . S
H2472 C2482 0.950 . S
H2473 C2484 0.950 . S
H2474 C2486 0.950 . S
H2475 C2487 0.950 . S
C2476 H2468 0.950 . S
C2476 C2477 1.386 . S
C2476 C2478 1.391 . S
C2477 C2476 1.386 . S
C2477 C2481 1.393 . S
C2478 H2470 0.950 . S
C2478 C2476 1.391 . S
C2478 C2479 1.400 . S
C2479 C2478 1.400 . S
C2479 C2480 1.398 . S
C2479 C2485 1.491 . S
C2480 H2471 0.950 . S
C2480 C2479 1.398 . S
C2480 C2481 1.391 . S
C2481 H2469 0.950 . S
C2481 C2477 1.393 . S
C2481 C2480 1.391 . S
C2482 H2472 0.950 . S
C2482 C2483 1.386 . S
C2482 C2484 1.391 . S
C2483 C2482 1.386 . S
C2483 C2487 1.393 . S
C2484 H2473 0.950 . S
C2484 C2482 1.391 . S
C2484 C2485 1.400 . S
C2485 C2479 1.491 . S
C2485 C2484 1.400 . S
C2485 C2486 1.398 . S
C2486 H2474 0.950 . S
C2486 C2485 1.398 . S
C2486 C2487 1.391 . S
C2487 H2475 0.950 . S
C2487 C2483 1.393 . S
C2487 C2486 1.391 . S
H2488 C2496 0.950 . S
H2489 C2501 0.950 . S
H2490 C2498 0.950 . S
H2491 C2500 0.950 . S
H2492 C2502 0.950 . S
H2493 C2504 0.950 . S
H2494 C2506 0.950 . S
H2495 C2507 0.950 . S
C2496 H2488 0.950 . S
C2496 C2497 1.386 . S
C2496 C2498 1.391 . S
C2497 C2496 1.386 . S
C2497 C2501 1.393 . S
C2498 H2490 0.950 . S
C2498 C2496 1.391 . S
C2498 C2499 1.400 . S
C2499 C2498 1.400 . S
C2499 C2500 1.398 . S
C2499 C2505 1.491 . S
C2500 H2491 0.950 . S
C2500 C2499 1.398 . S
C2500 C2501 1.391 . S
C2501 H2489 0.950 . S
C2501 C2497 1.393 . S
C2501 C2500 1.391 . S
C2502 H2492 0.950 . S
C2502 C2503 1.386 . S
C2502 C2504 1.391 . S
C2503 C2502 1.386 . S
C2503 C2507 1.393 . S
C2504 H2493 0.950 . S
C2504 C2502 1.391 . S
C2504 C2505 1.400 . S
C2505 C2499 1.491 . S
C2505 C2504 1.400 . S
C2505 C2506 1.398 . S
C2506 H2494 0.950 . S
C2506 C2505 1.398 . S
C2506 C2507 1.391 . S
C2507 H2495 0.950 . S
C2507 C2503 1.393 . S
C2507 C2506 1.391 . S
H2508 C2516 0.950 . S
H2509 C2521 0.950 . S
H2510 C2518 0.950 . S
H2511 C2520 0.950 . S
H2512 C2522 0.950 . S
H2513 C2524 0.950 . S
H2514 C2526 0.950 . S
H2515 C2527 0.950 . S
C2516 H2508 0.950 . S
C2516 C2517 1.386 . S
C2516 C2518 1.391 . S
C2517 C2516 1.386 . S
C2517 C2521 1.393 . S
C2518 H2510 0.950 . S
C2518 C2516 1.391 . S
C2518 C2519 1.400 . S
C2519 C2518 1.400 . S
C2519 C2520 1.398 . S
C2519 C2525 1.491 . S
C2520 H2511 0.950 . S
C2520 C2519 1.398 . S
C2520 C2521 1.391 . S
C2521 H2509 0.950 . S
C2521 C2517 1.393 . S
C2521 C2520 1.391 . S
C2522 H2512 0.950 . S
C2522 C2523 1.386 . S
C2522 C2524 1.391 . S
C2523 C2522 1.386 . S
C2523 C2527 1.393 . S
C2524 H2513 0.950 . S
C2524 C2522 1.391 . S
C2524 C2525 1.400 . S
C2525 C2519 1.491 . S
C2525 C2524 1.400 . S
C2525 C2526 1.398 . S
C2526 H2514 0.950 . S
C2526 C2525 1.398 . S
C2526 C2527 1.391 . S
C2527 H2515 0.950 . S
C2527 C2523 1.393 . S
C2527 C2526 1.391 . S
H2528 C2536 0.950 1_455 S
H2529 C2541 0.950 . S
H2530 C2538 0.942 1_455 S
H2531 C2540 0.950 . S
H2532 C2542 0.950 . S
H2533 C2544 0.950 . S
H2534 C2546 0.933 1_455 S
H2535 C2547 0.950 1_455 S
C2536 H2528 0.950 1_655 S
C2536 C2537 1.386 . S
C2536 C2538 1.391 . S
C2537 C2536 1.386 . S
C2537 C2541 1.393 . S
C2538 H2530 0.942 1_655 S
C2538 C2536 1.391 . S
C2538 C2539 1.400 . S
C2539 C2538 1.400 . S
C2539 C2540 1.398 . S
C2539 C2545 1.491 . S
C2540 H2531 0.950 . S
C2540 C2539 1.398 . S
C2540 C2541 1.391 . S
C2541 H2529 0.950 . S
C2541 C2537 1.393 . S
C2541 C2540 1.391 . S
C2542 H2532 0.950 . S
C2542 C2543 1.386 . S
C2542 C2544 1.391 . S
C2543 C2542 1.386 . S
C2543 C2547 1.393 . S
C2544 H2533 0.950 . S
C2544 C2542 1.391 . S
C2544 C2545 1.400 . S
C2545 C2539 1.491 . S
C2545 C2544 1.400 . S
C2545 C2546 1.398 . S
C2546 H2534 0.933 1_655 S
C2546 C2545 1.398 . S
C2546 C2547 1.391 . S
C2547 H2535 0.950 1_655 S
C2547 C2543 1.393 . S
C2547 C2546 1.391 . S
H2548 C2556 0.950 . S
H2549 C2561 0.950 . S
H2550 C2558 0.950 . S
H2551 C2560 0.950 . S
H2552 C2562 0.950 . S
H2553 C2564 0.950 . S
H2554 C2566 0.950 . S
H2555 C2567 0.950 . S
C2556 H2548 0.950 . S
C2556 C2557 1.386 . S
C2556 C2558 1.391 . S
C2557 C2556 1.386 . S
C2557 C2561 1.393 . S
C2558 H2550 0.950 . S
C2558 C2556 1.391 . S
C2558 C2559 1.400 . S
C2559 C2558 1.400 . S
C2559 C2560 1.398 . S
C2559 C2565 1.491 . S
C2560 H2551 0.950 . S
C2560 C2559 1.398 . S
C2560 C2561 1.391 . S
C2561 H2549 0.950 . S
C2561 C2557 1.393 . S
C2561 C2560 1.391 . S
C2562 H2552 0.950 . S
C2562 C2563 1.386 . S
C2562 C2564 1.391 . S
C2563 C2562 1.386 . S
C2563 C2567 1.393 . S
C2564 H2553 0.950 . S
C2564 C2562 1.391 . S
C2564 C2565 1.400 . S
C2565 C2559 1.491 . S
C2565 C2564 1.400 . S
C2565 C2566 1.398 . S
C2566 H2554 0.950 . S
C2566 C2565 1.398 . S
C2566 C2567 1.391 . S
C2567 H2555 0.950 . S
C2567 C2563 1.393 . S
C2567 C2566 1.391 . S
H2568 C2576 0.950 . S
H2569 C2581 0.950 . S
H2570 C2578 0.950 . S
H2571 C2580 0.950 . S
H2572 C2582 0.950 . S
H2573 C2584 0.950 . S
H2574 C2586 0.950 . S
H2575 C2587 0.950 . S
C2576 H2568 0.950 . S
C2576 C2577 1.386 . S
C2576 C2578 1.391 . S
C2577 C2576 1.386 . S
C2577 C2581 1.393 . S
C2578 H2570 0.950 . S
C2578 C2576 1.391 . S
C2578 C2579 1.400 . S
C2579 C2578 1.400 . S
C2579 C2580 1.398 . S
C2579 C2585 1.491 . S
C2580 H2571 0.950 . S
C2580 C2579 1.398 . S
C2580 C2581 1.391 . S
C2581 H2569 0.950 . S
C2581 C2577 1.393 . S
C2581 C2580 1.391 . S
C2582 H2572 0.950 . S
C2582 C2583 1.386 . S
C2582 C2584 1.391 . S
C2583 C2582 1.386 . S
C2583 C2587 1.393 . S
C2584 H2573 0.950 . S
C2584 C2582 1.391 . S
C2584 C2585 1.400 . S
C2585 C2579 1.491 . S
C2585 C2584 1.400 . S
C2585 C2586 1.398 . S
C2586 H2574 0.950 . S
C2586 C2585 1.398 . S
C2586 C2587 1.391 . S
C2587 H2575 0.950 . S
C2587 C2583 1.393 . S
C2587 C2586 1.391 . S
H2588 C2596 0.950 . S
H2589 C2601 0.950 . S
H2590 C2598 0.950 . S
H2591 C2600 0.950 . S
H2592 C2602 0.950 . S
H2593 C2604 0.950 . S
H2594 C2606 0.950 . S
H2595 C2607 0.950 . S
C2596 H2588 0.950 . S
C2596 C2597 1.386 . S
C2596 C2598 1.391 . S
C2597 C2596 1.386 . S
C2597 C2601 1.393 . S
C2598 H2590 0.950 . S
C2598 C2596 1.391 . S
C2598 C2599 1.400 . S
C2599 C2598 1.400 . S
C2599 C2600 1.398 . S
C2599 C2605 1.491 . S
C2600 H2591 0.950 . S
C2600 C2599 1.398 . S
C2600 C2601 1.391 . S
C2601 H2589 0.950 . S
C2601 C2597 1.393 . S
C2601 C2600 1.391 . S
C2602 H2592 0.950 . S
C2602 C2603 1.386 . S
C2602 C2604 1.391 . S
C2603 C2602 1.386 . S
C2603 C2607 1.393 . S
C2604 H2593 0.950 . S
C2604 C2602 1.391 . S
C2604 C2605 1.400 . S
C2605 C2599 1.491 . S
C2605 C2604 1.400 . S
C2605 C2606 1.398 . S
C2606 H2594 0.950 . S
C2606 C2605 1.398 . S
C2606 C2607 1.391 . S
C2607 H2595 0.950 . S
C2607 C2603 1.393 . S
C2607 C2606 1.391 . S
H2608 C2616 0.950 . S
H2609 C2621 0.950 . S
H2610 C2618 0.950 . S
H2611 C2620 0.950 . S
H2612 C2622 0.950 . S
H2613 C2624 0.950 . S
H2614 C2626 0.950 . S
H2615 C2627 0.950 . S
C2616 H2608 0.950 . S
C2616 C2617 1.386 . S
C2616 C2618 1.391 . S
C2617 C2616 1.386 . S
C2617 C2621 1.393 . S
C2618 H2610 0.950 . S
C2618 C2616 1.391 . S
C2618 C2619 1.400 . S
C2619 C2618 1.400 . S
C2619 C2620 1.398 . S
C2619 C2625 1.491 . S
C2620 H2611 0.950 . S
C2620 C2619 1.398 . S
C2620 C2621 1.391 . S
C2621 H2609 0.950 . S
C2621 C2617 1.393 . S
C2621 C2620 1.391 . S
C2622 H2612 0.950 . S
C2622 C2623 1.386 . S
C2622 C2624 1.391 . S
C2623 C2622 1.386 . S
C2623 C2627 1.393 . S
C2624 H2613 0.950 . S
C2624 C2622 1.391 . S
C2624 C2625 1.400 . S
C2625 C2619 1.491 . S
C2625 C2624 1.400 . S
C2625 C2626 1.398 . S
C2626 H2614 0.950 . S
C2626 C2625 1.398 . S
C2626 C2627 1.391 . S
C2627 H2615 0.950 . S
C2627 C2623 1.393 . S
C2627 C2626 1.391 . S
H2628 C2636 0.950 . S
H2629 C2641 0.950 . S
H2630 C2638 0.950 . S
H2631 C2640 0.950 . S
H2632 C2642 0.950 . S
H2633 C2644 0.950 . S
H2634 C2646 0.950 . S
H2635 C2647 0.950 . S
C2636 H2628 0.950 . S
C2636 C2637 1.386 . S
C2636 C2638 1.391 . S
C2637 C2636 1.386 . S
C2637 C2641 1.393 . S
C2638 H2630 0.950 . S
C2638 C2636 1.391 . S
C2638 C2639 1.400 . S
C2639 C2638 1.400 . S
C2639 C2640 1.398 . S
C2639 C2645 1.491 . S
C2640 H2631 0.950 . S
C2640 C2639 1.398 . S
C2640 C2641 1.391 . S
C2641 H2629 0.950 . S
C2641 C2637 1.393 . S
C2641 C2640 1.391 . S
C2642 H2632 0.950 . S
C2642 C2643 1.386 . S
C2642 C2644 1.391 . S
C2643 C2642 1.386 . S
C2643 C2647 1.393 . S
C2644 H2633 0.950 . S
C2644 C2642 1.391 . S
C2644 C2645 1.400 . S
C2645 C2639 1.491 . S
C2645 C2644 1.400 . S
C2645 C2646 1.398 . S
C2646 H2634 0.950 . S
C2646 C2645 1.398 . S
C2646 C2647 1.391 . S
C2647 H2635 0.950 . S
C2647 C2643 1.393 . S
C2647 C2646 1.391 . S
H2648 C2656 0.950 . S
H2649 C2661 0.950 . S
H2650 C2658 0.950 . S
H2651 C2660 0.950 . S
H2652 C2662 0.950 . S
H2653 C2664 0.950 . S
H2654 C2666 0.950 . S
H2655 C2667 0.950 . S
C2656 H2648 0.950 . S
C2656 C2657 1.386 . S
C2656 C2658 1.391 . S
C2657 C2656 1.386 . S
C2657 C2661 1.393 . S
C2658 H2650 0.950 . S
C2658 C2656 1.391 . S
C2658 C2659 1.400 . S
C2659 C2658 1.400 . S
C2659 C2660 1.398 . S
C2659 C2665 1.491 . S
C2660 H2651 0.950 . S
C2660 C2659 1.398 . S
C2660 C2661 1.391 . S
C2661 H2649 0.950 . S
C2661 C2657 1.393 . S
C2661 C2660 1.391 . S
C2662 H2652 0.950 . S
C2662 C2663 1.386 . S
C2662 C2664 1.391 . S
C2663 C2662 1.386 . S
C2663 C2667 1.393 . S
C2664 H2653 0.950 . S
C2664 C2662 1.391 . S
C2664 C2665 1.400 . S
C2665 C2659 1.491 . S
C2665 C2664 1.400 . S
C2665 C2666 1.398 . S
C2666 H2654 0.950 . S
C2666 C2665 1.398 . S
C2666 C2667 1.391 . S
C2667 H2655 0.950 . S
C2667 C2663 1.393 . S
C2667 C2666 1.391 . S
H2668 C2676 0.950 . S
H2669 C2681 0.950 . S
H2670 C2678 0.950 . S
H2671 C2680 0.950 . S
H2672 C2682 0.950 . S
H2673 C2684 0.950 . S
H2674 C2686 0.950 . S
H2675 C2687 0.950 . S
C2676 H2668 0.950 . S
C2676 C2677 1.386 . S
C2676 C2678 1.391 . S
C2677 C2676 1.386 . S
C2677 C2681 1.393 . S
C2678 H2670 0.950 . S
C2678 C2676 1.391 . S
C2678 C2679 1.400 . S
C2679 C2678 1.400 . S
C2679 C2680 1.398 . S
C2679 C2685 1.491 . S
C2680 H2671 0.950 . S
C2680 C2679 1.398 . S
C2680 C2681 1.391 . S
C2681 H2669 0.950 . S
C2681 C2677 1.393 . S
C2681 C2680 1.391 . S
C2682 H2672 0.950 . S
C2682 C2683 1.386 . S
C2682 C2684 1.391 . S
C2683 C2682 1.386 . S
C2683 C2687 1.393 . S
C2684 H2673 0.950 . S
C2684 C2682 1.391 . S
C2684 C2685 1.400 . S
C2685 C2679 1.491 . S
C2685 C2684 1.400 . S
C2685 C2686 1.398 . S
C2686 H2674 0.950 . S
C2686 C2685 1.398 . S
C2686 C2687 1.391 . S
C2687 H2675 0.950 . S
C2687 C2683 1.393 . S
C2687 C2686 1.391 . S
C1097 C9 1.666 . S
C1103 C145 1.666 . S
C1117 C995 1.680 . S
C1123 C43 1.680 . S
C1137 C77 1.683 . S
C1143 C485 1.683 . S
C1157 C791 1.678 . S
C1163 C111 1.678 . S
C1177 C179 1.665 . S
C1183 C859 1.665 . S
C1197 C213 1.681 . S
C1203 C349 1.681 . S
C1217 C247 1.673 . S
C1223 C655 1.673 . S
C1237 C417 1.683 . S
C1243 C281 1.683 . S
C1257 C723 1.676 . S
C1263 C315 1.676 . S
C1277 C383 1.671 . S
C1283 C1063 1.671 . S
C1297 C587 1.680 . S
C1303 C451 1.680 . S
C1317 C519 1.665 . S
C1323 C927 1.665 . S
C1337 C689 1.682 . S
C1343 C553 1.682 . S
C1357 C621 1.683 . S
C1363 C1029 1.683 . S
C1377 C757 1.681 . S
C1383 C893 1.681 . S
C1397 C825 1.673 . S
C1403 C961 1.673 . S
C1417 C5 0.415 . S
C1423 C107 0.401 . S
C1437 C73 0.409 . S
C1443 C39 0.393 . S
C1457 C243 0.414 . S
C1463 C141 0.400 . S
C1477 C175 0.411 . S
C1483 C209 0.422 . S
C1497 C379 0.427 . S
C1503 C277 0.421 . S
C1517 C345 0.335 . S
C1523 C311 0.331 . S
C1537 C413 0.423 . S
C1543 C515 0.413 . S
C1557 C481 0.412 . S
C1563 C447 0.423 . S
C1577 C549 0.419 . S
C1583 C651 0.405 . S
C1597 C617 0.420 . S
C1603 C583 0.407 . S
C1617 C787 0.408 . S
C1623 C685 0.420 . S
C1637 C753 0.388 . S
C1643 C719 0.369 . S
C1657 C821 0.384 . S
C1663 C923 0.401 . S
C1677 C889 0.345 . S
C1683 C855 0.361 . S
C1697 C957 0.332 . S
C1703 C1059 0.332 . S
C1717 C1025 0.427 . S
C1723 C991 0.421 . S
C1737 C36 1.628 1_455 S
C1743 C2 1.630 . S
C1757 C104 1.636 1_455 S
C1763 C70 1.641 . S
C1777 C138 1.643 . S
C1783 C172 1.630 1_655 S
C1797 C206 1.624 . S
C1803 C240 1.641 1_655 S
C1817 C308 1.625 1_455 S
C1823 C274 1.636 . S
C1837 C342 1.638 . S
C1843 C376 1.624 1_455 S
C1857 C444 1.634 1_655 S
C1863 C410 1.642 . S
C1877 C478 1.637 . S
C1883 C512 1.640 1_655 S
C1897 C580 1.639 . S
C1903 C546 1.624 . S
C1917 C648 1.626 . S
C1923 C614 1.644 . S
C1937 C716 1.643 . S
C1943 C682 1.633 . S
C1957 C784 1.625 . S
C1963 C750 1.635 . S
C1977 C818 1.635 . S
C1983 C852 1.624 . S
C1997 C920 1.634 . S
C2003 C886 1.626 . S
C2017 C954 1.641 . S
C2023 C988 1.634 . S
C2037 C1056 1.624 . S
C2043 C1022 1.636 . S
C2057 C20 0.917 . S
C2063 C870 0.917 . S
C2077 C836 0.917 . S
C2083 C54 0.917 . S
C2097 C88 0.921 . S
C2103 C938 0.922 . S
C2117 C122 0.910 . S
C2123 C904 0.910 . S
C2137 C1006 0.923 . S
C2143 C156 0.922 . S
C2157 C190 0.921 . S
C2163 C972 0.922 . S
C2177 C224 0.907 . S
C2183 C1074 0.907 . S
C2197 C1040 0.907 . S
C2203 C258 0.907 . S
C2217 C598 0.909 . S
C2223 C292 0.909 . S
C2237 C326 0.934 . S
C2243 C564 0.934 . S
C2257 C666 0.932 . S
C2263 C360 0.933 . S
C2277 C394 0.930 . S
C2283 C632 0.930 . S
C2297 C734 0.926 . S
C2303 C428 0.926 . S
C2317 C462 0.908 . S
C2323 C700 0.908 . S
C2337 C802 0.908 . S
C2343 C496 0.908 . S
C2357 C530 0.936 . S
C2363 C768 0.935 . S
C2377 C33 1.228 . S
C2383 C101 1.252 . S
C2397 C67 1.244 . S
C2403 C135 1.233 . S
C2417 C237 1.238 . S
C2423 C169 1.244 . S
C2437 C271 1.225 . S
C2443 C203 1.254 . S
C2457 C305 1.228 . S
C2463 C373 1.250 . S
C2477 C339 1.229 . S
C2483 C407 1.249 . S
C2497 C509 1.225 . S
C2503 C441 1.253 . S
C2517 C475 1.236 . S
C2523 C543 1.241 . S
C2537 C577 1.238 . S
C2543 C645 1.244 . S
C2557 C611 1.249 . S
C2563 C679 1.232 . S
C2577 C781 1.230 . S
C2583 C713 1.252 . S
C2597 C815 1.245 . S
C2603 C747 1.236 . S
C2617 C917 1.230 . S
C2623 C849 1.248 . S
C2637 C951 1.225 . S
C2643 C883 1.254 . S
C2657 C1053 1.231 . S
C2663 C985 1.250 . S
C2677 C1087 1.243 . S
C2683 C1019 1.239 . S
