# Generated by pormake.
# Topology lcv-e, (6)-cn, num edge types: 1
# Building blocks:
#     Node 0, Type 0, BuildingBlock: OJICUG_clean_sbu_0, # of connection points: 6
#     Node 1, Type 0, BuildingBlock: OJICUG_clean_sbu_0, # of connection points: 6
#     Node 2, Type 0, BuildingBlock: OJICUG_clean_sbu_0, # of connection points: 6
#     Node 3, Type 0, BuildingBlock: OJICUG_clean_sbu_0, # of connection points: 6
#     Node 4, Type 0, BuildingBlock: OJICUG_clean_sbu_0, # of connection points: 6
#     Node 5, Type 0, BuildingBlock: OJICUG_clean_sbu_0, # of connection points: 6
#     Node 6, Type 0, BuildingBlock: OJICUG_clean_sbu_0, # of connection points: 6
#     Node 7, Type 0, BuildingBlock: OJICUG_clean_sbu_0, # of connection points: 6
#     Node 8, Type 0, BuildingBlock: OJICUG_clean_sbu_0, # of connection points: 6
#     Node 9, Type 0, BuildingBlock: OJICUG_clean_sbu_0, # of connection points: 6
#     Node 10, Type 0, BuildingBlock: OJICUG_clean_sbu_0, # of connection points: 6
#     Node 11, Type 0, BuildingBlock: OJICUG_clean_sbu_0, # of connection points: 6
#     Node 12, Type 0, BuildingBlock: OJICUG_clean_sbu_0, # of connection points: 6
#     Node 13, Type 0, BuildingBlock: OJICUG_clean_sbu_0, # of connection points: 6
#     Node 14, Type 0, BuildingBlock: OJICUG_clean_sbu_0, # of connection points: 6
#     Node 15, Type 0, BuildingBlock: OJICUG_clean_sbu_0, # of connection points: 6
#     Node 16, Type 0, BuildingBlock: OJICUG_clean_sbu_0, # of connection points: 6
#     Node 17, Type 0, BuildingBlock: OJICUG_clean_sbu_0, # of connection points: 6
#     Node 18, Type 0, BuildingBlock: OJICUG_clean_sbu_0, # of connection points: 6
#     Node 19, Type 0, BuildingBlock: OJICUG_clean_sbu_0, # of connection points: 6
#     Node 20, Type 0, BuildingBlock: OJICUG_clean_sbu_0, # of connection points: 6
#     Node 21, Type 0, BuildingBlock: OJICUG_clean_sbu_0, # of connection points: 6
#     Node 22, Type 0, BuildingBlock: OJICUG_clean_sbu_0, # of connection points: 6
#     Node 23, Type 0, BuildingBlock: OJICUG_clean_sbu_0, # of connection points: 6
#     Edge 24, Type (0, 0), BuildingBlock: EZIPEK_clean_linker_0, # of connection points: 2
#     Edge 25, Type (0, 0), BuildingBlock: EZIPEK_clean_linker_0, # of connection points: 2
#     Edge 26, Type (0, 0), BuildingBlock: EZIPEK_clean_linker_0, # of connection points: 2
#     Edge 27, Type (0, 0), BuildingBlock: EZIPEK_clean_linker_0, # of connection points: 2
#     Edge 28, Type (0, 0), BuildingBlock: EZIPEK_clean_linker_0, # of connection points: 2
#     Edge 29, Type (0, 0), BuildingBlock: EZIPEK_clean_linker_0, # of connection points: 2
#     Edge 30, Type (0, 0), BuildingBlock: EZIPEK_clean_linker_0, # of connection points: 2
#     Edge 31, Type (0, 0), BuildingBlock: EZIPEK_clean_linker_0, # of connection points: 2
#     Edge 32, Type (0, 0), BuildingBlock: EZIPEK_clean_linker_0, # of connection points: 2
#     Edge 33, Type (0, 0), BuildingBlock: EZIPEK_clean_linker_0, # of connection points: 2
#     Edge 34, Type (0, 0), BuildingBlock: EZIPEK_clean_linker_0, # of connection points: 2
#     Edge 35, Type (0, 0), BuildingBlock: EZIPEK_clean_linker_0, # of connection points: 2
#     Edge 36, Type (0, 0), BuildingBlock: EZIPEK_clean_linker_0, # of connection points: 2
#     Edge 37, Type (0, 0), BuildingBlock: EZIPEK_clean_linker_0, # of connection points: 2
#     Edge 38, Type (0, 0), BuildingBlock: EZIPEK_clean_linker_0, # of connection points: 2
#     Edge 39, Type (0, 0), BuildingBlock: EZIPEK_clean_linker_0, # of connection points: 2
#     Edge 40, Type (0, 0), BuildingBlock: EZIPEK_clean_linker_0, # of connection points: 2
#     Edge 41, Type (0, 0), BuildingBlock: EZIPEK_clean_linker_0, # of connection points: 2
#     Edge 42, Type (0, 0), BuildingBlock: EZIPEK_clean_linker_0, # of connection points: 2
#     Edge 43, Type (0, 0), BuildingBlock: EZIPEK_clean_linker_0, # of connection points: 2
#     Edge 44, Type (0, 0), BuildingBlock: EZIPEK_clean_linker_0, # of connection points: 2
#     Edge 45, Type (0, 0), BuildingBlock: EZIPEK_clean_linker_0, # of connection points: 2
#     Edge 46, Type (0, 0), BuildingBlock: EZIPEK_clean_linker_0, # of connection points: 2
#     Edge 47, Type (0, 0), BuildingBlock: EZIPEK_clean_linker_0, # of connection points: 2
#     Edge 48, Type (0, 0), BuildingBlock: EZIPEK_clean_linker_0, # of connection points: 2
#     Edge 49, Type (0, 0), BuildingBlock: EZIPEK_clean_linker_0, # of connection points: 2
#     Edge 50, Type (0, 0), BuildingBlock: EZIPEK_clean_linker_0, # of connection points: 2
#     Edge 51, Type (0, 0), BuildingBlock: EZIPEK_clean_linker_0, # of connection points: 2
#     Edge 52, Type (0, 0), BuildingBlock: EZIPEK_clean_linker_0, # of connection points: 2
#     Edge 53, Type (0, 0), BuildingBlock: EZIPEK_clean_linker_0, # of connection points: 2
#     Edge 54, Type (0, 0), BuildingBlock: EZIPEK_clean_linker_0, # of connection points: 2
#     Edge 55, Type (0, 0), BuildingBlock: EZIPEK_clean_linker_0, # of connection points: 2
#     Edge 56, Type (0, 0), BuildingBlock: EZIPEK_clean_linker_0, # of connection points: 2
#     Edge 57, Type (0, 0), BuildingBlock: EZIPEK_clean_linker_0, # of connection points: 2
#     Edge 58, Type (0, 0), BuildingBlock: EZIPEK_clean_linker_0, # of connection points: 2
#     Edge 59, Type (0, 0), BuildingBlock: EZIPEK_clean_linker_0, # of connection points: 2
#     Edge 60, Type (0, 0), BuildingBlock: EZIPEK_clean_linker_0, # of connection points: 2
#     Edge 61, Type (0, 0), BuildingBlock: EZIPEK_clean_linker_0, # of connection points: 2
#     Edge 62, Type (0, 0), BuildingBlock: EZIPEK_clean_linker_0, # of connection points: 2
#     Edge 63, Type (0, 0), BuildingBlock: EZIPEK_clean_linker_0, # of connection points: 2
#     Edge 64, Type (0, 0), BuildingBlock: EZIPEK_clean_linker_0, # of connection points: 2
#     Edge 65, Type (0, 0), BuildingBlock: EZIPEK_clean_linker_0, # of connection points: 2
#     Edge 66, Type (0, 0), BuildingBlock: EZIPEK_clean_linker_0, # of connection points: 2
#     Edge 67, Type (0, 0), BuildingBlock: EZIPEK_clean_linker_0, # of connection points: 2
#     Edge 68, Type (0, 0), BuildingBlock: EZIPEK_clean_linker_0, # of connection points: 2
#     Edge 69, Type (0, 0), BuildingBlock: EZIPEK_clean_linker_0, # of connection points: 2
#     Edge 70, Type (0, 0), BuildingBlock: EZIPEK_clean_linker_0, # of connection points: 2
#     Edge 71, Type (0, 0), BuildingBlock: EZIPEK_clean_linker_0, # of connection points: 2
#     Edge 72, Type (0, 0), BuildingBlock: EZIPEK_clean_linker_0, # of connection points: 2
#     Edge 73, Type (0, 0), BuildingBlock: EZIPEK_clean_linker_0, # of connection points: 2
#     Edge 74, Type (0, 0), BuildingBlock: EZIPEK_clean_linker_0, # of connection points: 2
#     Edge 75, Type (0, 0), BuildingBlock: EZIPEK_clean_linker_0, # of connection points: 2
#     Edge 76, Type (0, 0), BuildingBlock: EZIPEK_clean_linker_0, # of connection points: 2
#     Edge 77, Type (0, 0), BuildingBlock: EZIPEK_clean_linker_0, # of connection points: 2
#     Edge 78, Type (0, 0), BuildingBlock: EZIPEK_clean_linker_0, # of connection points: 2
#     Edge 79, Type (0, 0), BuildingBlock: EZIPEK_clean_linker_0, # of connection points: 2
#     Edge 80, Type (0, 0), BuildingBlock: EZIPEK_clean_linker_0, # of connection points: 2
#     Edge 81, Type (0, 0), BuildingBlock: EZIPEK_clean_linker_0, # of connection points: 2
#     Edge 82, Type (0, 0), BuildingBlock: EZIPEK_clean_linker_0, # of connection points: 2
#     Edge 83, Type (0, 0), BuildingBlock: EZIPEK_clean_linker_0, # of connection points: 2
#     Edge 84, Type (0, 0), BuildingBlock: EZIPEK_clean_linker_0, # of connection points: 2
#     Edge 85, Type (0, 0), BuildingBlock: EZIPEK_clean_linker_0, # of connection points: 2
#     Edge 86, Type (0, 0), BuildingBlock: EZIPEK_clean_linker_0, # of connection points: 2
#     Edge 87, Type (0, 0), BuildingBlock: EZIPEK_clean_linker_0, # of connection points: 2
#     Edge 88, Type (0, 0), BuildingBlock: EZIPEK_clean_linker_0, # of connection points: 2
#     Edge 89, Type (0, 0), BuildingBlock: EZIPEK_clean_linker_0, # of connection points: 2
#     Edge 90, Type (0, 0), BuildingBlock: EZIPEK_clean_linker_0, # of connection points: 2
#     Edge 91, Type (0, 0), BuildingBlock: EZIPEK_clean_linker_0, # of connection points: 2
#     Edge 92, Type (0, 0), BuildingBlock: EZIPEK_clean_linker_0, # of connection points: 2
#     Edge 93, Type (0, 0), BuildingBlock: EZIPEK_clean_linker_0, # of connection points: 2
#     Edge 94, Type (0, 0), BuildingBlock: EZIPEK_clean_linker_0, # of connection points: 2
#     Edge 95, Type (0, 0), BuildingBlock: EZIPEK_clean_linker_0, # of connection points: 2
# Relax obj value: 0.527
# Max RMSD: 0.261
# Mean RMSD: 0.261
data_MOF--net-lcv-e--node1-OJICUG_clean_sbu_0--edge1-EZIPEK_clean_linker_0
_symmetry_space_group_name_H-M    P1
_symmetry_Int_Tables_number       1
_symmetry_cell_setting            triclinic
loop_
_symmetry_equiv_pos_as_xyz
'x, y, z'
_cell_length_a     39.680884
_cell_length_b     39.936536
_cell_length_c     40.115471
_cell_angle_alpha  89.754429
_cell_angle_beta   90.250608
_cell_angle_gamma 90.391419
loop_
_atom_site_label
_atom_site_type_symbol
_atom_site_fract_x
_atom_site_fract_y
_atom_site_fract_z
_atom_type_partial_charge
Sc0 Sc 0.04743 0.12811 0.21971 0.0
Sc1 Sc 0.98604 0.09908 0.16642 0.0
Sc2 Sc 0.96986 0.11691 0.24864 0.0
O3 O 1.00047 0.1126 0.21198 0.0
C4 C 0.04516 0.08283 0.27639 0.0
C5 C 0.0572 0.07804 0.16366 0.0
C6 C 0.94428 0.04977 0.21222 0.0
C7 C 0.01375 0.16933 0.16839 0.0
C8 C 0.01465 0.17221 0.27316 0.0
C9 C 0.92827 0.14968 0.18079 0.0
O10 O 0.05528 0.08332 0.24653 0.0
O11 O 0.02788 0.06602 0.16627 0.0
O12 O 0.94928 0.06752 0.23822 0.0
O13 O 0.03125 0.17039 0.19496 0.0
O14 O 0.98631 0.16576 0.26046 0.0
O15 O 0.94444 0.13113 0.16139 0.0
O16 O 0.03967 0.15425 0.26622 0.0
O17 O 0.01332 0.14276 0.15047 0.0
O18 O 0.93224 0.14626 0.21324 0.0
O19 O 0.06425 0.10712 0.17376 0.0
O20 O 0.0144 0.09409 0.28284 0.0
O21 O 0.95581 0.05818 0.18379 0.0
Sc22 Sc 0.12574 0.82432 0.47153 0.0
Sc23 Sc 0.17377 0.75368 0.46696 0.0
Sc24 Sc 0.11105 0.76608 0.52568 0.0
O25 O 0.13818 0.78183 0.48983 0.0
C26 C 0.12773 0.84517 0.54572 0.0
C27 C 0.20659 0.8148 0.4908 0.0
C28 C 0.17536 0.72231 0.5352 0.0
C29 C 0.15674 0.8016 0.41282 0.0
C30 C 0.05517 0.79565 0.48359 0.0
C31 C 0.10574 0.71891 0.4525 0.0
O32 O 0.11613 0.85152 0.51692 0.0
O33 O 0.20766 0.78312 0.49401 0.0
O34 O 0.15478 0.74257 0.54758 0.0
O35 O 0.1303 0.79746 0.42831 0.0
O36 O 0.06633 0.79236 0.51278 0.0
O37 O 0.13471 0.7279 0.44197 0.0
O38 O 0.07378 0.81061 0.46273 0.0
O39 O 0.18265 0.78783 0.42441 0.0
O40 O 0.09546 0.72606 0.48338 0.0
O41 O 0.18051 0.83106 0.4798 0.0
O42 O 0.12885 0.81367 0.55528 0.0
O43 O 0.17246 0.71537 0.50467 0.0
Sc44 Sc 0.49723 0.93191 0.67103 0.0
Sc45 Sc 0.42631 0.88836 0.69935 0.0
Sc46 Sc 0.50248 0.88054 0.73945 0.0
O47 O 0.47556 0.90004 0.7038 0.0
C48 C 0.54929 0.87521 0.66763 0.0
C49 C 0.45347 0.88452 0.62945 0.0
C50 C 0.45411 0.82089 0.73298 0.0
C51 C 0.43361 0.96415 0.6891 0.0
C52 C 0.53877 0.95018 0.73599 0.0
C53 C 0.4271 0.90509 0.77467 0.0
O54 O 0.53009 0.89574 0.65336 0.0
O55 O 0.43784 0.86817 0.65188 0.0
O56 O 0.4841 0.83125 0.73053 0.0
O57 O 0.46499 0.96861 0.68909 0.0
O58 O 0.52398 0.92767 0.75278 0.0
O59 O 0.41371 0.90852 0.74616 0.0
O60 O 0.53522 0.95192 0.70453 0.0
O61 O 0.41961 0.93744 0.67822 0.0
O62 O 0.45818 0.89355 0.77727 0.0
O63 O 0.46162 0.91508 0.63372 0.0
O64 O 0.54465 0.86809 0.6995 0.0
O65 O 0.42924 0.83902 0.72406 0.0
Sc66 Sc 0.42236 0.23612 0.99569 0.0
Sc67 Sc 0.35929 0.27851 0.95342 0.0
Sc68 Sc 0.37716 0.1942 0.939 0.0
O69 O 0.38571 0.23606 0.9639 0.0
C70 C 0.45428 0.18113 0.95966 0.0
C71 C 0.43335 0.3015 0.94066 0.0
C72 C 0.37283 0.24809 0.88454 0.0
C73 C 0.36781 0.28309 0.02988 0.0
C74 C 0.37848 0.16221 0.00989 0.0
C75 C 0.3076 0.22556 0.95287 0.0
O76 O 0.45663 0.21213 0.9636 0.0
O77 O 0.40218 0.30498 0.93506 0.0
O78 O 0.39126 0.22425 0.89622 0.0
O79 O 0.38878 0.25925 0.03131 0.0
O80 O 0.36244 0.1655 0.98241 0.0
O81 O 0.31598 0.25134 0.96921 0.0
O82 O 0.40135 0.18497 0.0183 0.0
O83 O 0.36343 0.29899 0.00281 0.0
O84 O 0.32686 0.21269 0.93109 0.0
O85 O 0.44399 0.28175 0.96488 0.0
O86 O 0.42639 0.16911 0.9492 0.0
O87 O 0.35224 0.26397 0.90255 0.0
Sc88 Sc 0.08939 0.87642 0.23324 0.0
Sc89 Sc 0.02709 0.89992 0.28296 0.0
Sc90 Sc 0.00881 0.86035 0.21252 0.0
O91 O 0.04184 0.87563 0.24451 0.0
C92 C 0.07299 0.89146 0.16749 0.0
C93 C 0.07549 0.9493 0.25749 0.0
C94 C 0.97119 0.92194 0.23117 0.0
C95 C 0.09185 0.85969 0.30516 0.0
C96 C 0.05852 0.80436 0.20951 0.0
C97 C 0.97709 0.85061 0.29136 0.0
O98 O 0.07627 0.90688 0.19386 0.0
O99 O 0.04465 0.94301 0.25842 0.0
O100 O 0.98801 0.90947 0.20734 0.0
O101 O 0.10001 0.84983 0.2765 0.0
O102 O 0.02901 0.81215 0.21861 0.0
O103 O 1.007 0.85472 0.30093 0.0
O104 O 0.08275 0.82623 0.20791 0.0
O105 O 0.07417 0.88623 0.30869 0.0
O106 O 0.97147 0.85171 0.25884 0.0
O107 O 0.09679 0.92517 0.257 0.0
O108 O 0.04849 0.86919 0.16756 0.0
O109 O 0.97926 0.91567 0.26135 0.0
Sc110 Sc 0.36134 0.73613 0.49133 0.0
Sc111 Sc 0.41904 0.8012 0.49177 0.0
Sc112 Sc 0.38914 0.76644 0.56521 0.0
O113 O 0.3888 0.76885 0.51553 0.0
C114 C 0.31219 0.74314 0.5461 0.0
C115 C 0.35533 0.80954 0.44711 0.0
C116 C 0.37639 0.8367 0.54455 0.0
C117 C 0.43074 0.73471 0.45311 0.0
C118 C 0.39291 0.69519 0.55999 0.0
C119 C 0.46334 0.79184 0.54918 0.0
O120 O 0.3165 0.74985 0.51564 0.0
O121 O 0.38024 0.82212 0.46228 0.0
O122 O 0.36796 0.81316 0.56409 0.0
O123 O 0.40614 0.71979 0.46703 0.0
O124 O 0.41253 0.71954 0.56416 0.0
O125 O 0.46024 0.78226 0.51957 0.0
O126 O 0.37148 0.69636 0.53487 0.0
O127 O 0.4333 0.76653 0.45316 0.0
O128 O 0.43832 0.79023 0.56896 0.0
O129 O 0.34709 0.77783 0.45161 0.0
O130 O 0.33691 0.74385 0.56677 0.0
O131 O 0.4046 0.83707 0.52939 0.0
Sc132 Sc 0.42788 0.16175 0.77296 0.0
Sc133 Sc 0.4817 0.12419 0.82823 0.0
Sc134 Sc 0.5074 0.14039 0.75001 0.0
O135 O 0.47531 0.14892 0.78534 0.0
C136 C 0.43475 0.14504 0.70393 0.0
C137 C 0.43763 0.0854 0.7782 0.0
C138 C 0.52175 0.07416 0.78343 0.0
C139 C 0.41523 0.1593 0.83808 0.0
C140 C 0.48114 0.20873 0.73121 0.0
C141 C 0.54952 0.15588 0.82494 0.0
O142 O 0.432 0.17174 0.72038 0.0
O143 O 0.44631 0.08942 0.80883 0.0
O144 O 0.50957 0.08754 0.7575 0.0
O145 O 0.40978 0.13862 0.81592 0.0
O146 O 0.50677 0.19267 0.74099 0.0
O147 O 0.52214 0.15566 0.84138 0.0
O148 O 0.45096 0.19679 0.73478 0.0
O149 O 0.44509 0.15953 0.84961 0.0
O150 O 0.54942 0.14937 0.79242 0.0
O151 O 0.43138 0.11016 0.75912 0.0
O152 O 0.46287 0.12864 0.71007 0.0
O153 O 0.51907 0.08831 0.81146 0.0
Sc154 Sc 0.17213 0.23394 0.11304 0.0
Sc155 Sc 0.12113 0.20852 0.04814 0.0
Sc156 Sc 0.1669 0.27736 0.0378 0.0
O157 O 0.15648 0.23915 0.06556 0.0
C158 C 0.15268 0.31064 0.1152 0.0
C159 C 0.09394 0.23001 0.11129 0.0
C160 C 0.09709 0.2673 0.00426 0.0
C161 C 0.16138 0.16218 0.09313 0.0
C162 C 0.23685 0.26446 0.07647 0.0
C163 C 0.17163 0.20212 0.99409 0.0
O164 O 0.16005 0.28322 0.12925 0.0
O165 O 0.09388 0.2377 0.08097 0.0
O166 O 0.11513 0.28717 0.02126 0.0
O167 O 0.18403 0.18372 0.10002 0.0
O168 O 0.21945 0.2746 0.05168 0.0
O169 O 0.15395 0.18609 0.01518 0.0
O170 O 0.22372 0.24958 0.1016 0.0
O171 O 0.13198 0.17188 0.0862 0.0
O172 O 0.1771 0.23503 0.99666 0.0
O173 O 0.12058 0.22027 0.12651 0.0
O174 O 0.15409 0.31366 0.08246 0.0
O175 O 0.10321 0.2365 0.00552 0.0
Sc176 Sc 0.24641 0.04127 0.09592 0.0
Sc177 Sc 0.20729 0.97705 0.04868 0.0
Sc178 Sc 0.28032 0.96656 0.09524 0.0
O179 O 0.24319 0.99426 0.08122 0.0
C180 C 0.32041 0.03688 0.07563 0.0
C181 C 0.22132 0.05052 0.03048 0.0
C182 C 0.26774 0.93671 0.02456 0.0
C183 C 0.16757 0.0213 0.09547 0.0
C184 C 0.26928 0.00727 0.15861 0.0
C185 C 0.20757 0.92468 0.10416 0.0
O186 O 0.29991 0.04862 0.09637 0.0
O187 O 0.20245 0.02575 0.0233 0.0
O188 O 0.27814 0.93329 0.05408 0.0
O189 O 0.19241 0.04128 0.0984 0.0
O190 O 0.29045 0.99456 0.13936 0.0
O191 O 0.20425 0.92855 0.07288 0.0
O192 O 0.2476 0.02808 0.14796 0.0
O193 O 0.16913 0.99297 0.08157 0.0
O194 O 0.23482 0.93685 0.11846 0.0
O195 O 0.24884 0.0432 0.04338 0.0
O196 O 0.31772 0.00471 0.0688 0.0
O197 O 0.24583 0.95864 0.01626 0.0
Sc198 Sc 0.16831 0.96039 0.39923 0.0
Sc199 Sc 0.21557 0.91142 0.34249 0.0
Sc200 Sc 0.24018 0.99274 0.3645 0.0
O201 O 0.20822 0.95555 0.36821 0.0
C202 C 0.16063 0.02484 0.35471 0.0
C203 C 0.14371 0.9293 0.33655 0.0
C204 C 0.24876 0.9628 0.29243 0.0
C205 C 0.20666 0.89656 0.41404 0.0
C206 C 0.21634 0.01231 0.43543 0.0
C207 C 0.28562 0.92112 0.37687 0.0
O208 O 0.14753 1.00064 0.37099 0.0
O209 O 0.16717 0.9171 0.31935 0.0
O210 O 0.24768 0.98617 0.31326 0.0
O211 O 0.19256 0.92187 0.42709 0.0
O212 O 0.2393 0.00862 0.41436 0.0
O213 O 0.26315 0.90368 0.36303 0.0
O214 O 0.18831 0.9971 0.43343 0.0
O215 O 0.1968 0.88657 0.38561 0.0
O216 O 0.28253 0.95392 0.3795 0.0
O217 O 0.14503 0.92471 0.36766 0.0
O218 O 0.1937 0.02704 0.35122 0.0
O219 O 0.23919 0.93323 0.29935 0.0
Sc220 Sc 0.25882 0.95208 0.64979 0.0
Sc221 Sc 0.30946 0.0134 0.60085 0.0
Sc222 Sc 0.23476 0.03374 0.63937 0.0
O223 O 0.26849 1.0 0.62972 0.0
C224 C 0.19463 0.96044 0.61361 0.0
C225 C 0.30007 0.94172 0.58575 0.0
C226 C 0.2488 0.05364 0.56612 0.0
C227 C 0.30979 0.98387 0.673 0.0
C228 C 0.21948 0.99476 0.6999 0.0
C229 C 0.31147 0.07601 0.64551 0.0
O230 O 0.2219 0.94452 0.61386 0.0
O231 O 0.29424 0.9705 0.57425 0.0
O232 O 0.2282 0.0503 0.58965 0.0
O233 O 0.2961 0.95919 0.68694 0.0
O234 O 0.23711 0.01923 0.69006 0.0
O235 O 0.32583 0.05463 0.62771 0.0
O236 O 0.22019 0.96717 0.68456 0.0
O237 O 0.29286 0.99601 0.64829 0.0
O238 O 0.27871 0.0734 0.65149 0.0
O239 O 0.29638 0.93393 0.61636 0.0
O240 O 0.19332 0.99165 0.62503 0.0
O241 O 0.27979 0.04618 0.56926 0.0
Sc242 Sc 0.25723 0.01954 0.88721 0.0
Sc243 Sc 0.33582 0.05295 0.88972 0.0
Sc244 Sc 0.27239 0.09409 0.84606 0.0
O245 O 0.28794 0.05431 0.87288 0.0
C246 C 0.22196 0.03822 0.81925 0.0
C247 C 0.32929 0.9833 0.85511 0.0
C248 C 0.34097 0.07574 0.82217 0.0
C249 C 0.30477 1.00181 0.93948 0.0
C250 C 0.2189 0.09294 0.9042 0.0
C251 C 0.30579 0.12021 0.90774 0.0
O252 O 0.23037 0.01789 0.84187 0.0
O253 O 0.34562 0.0105 0.85871 0.0
O254 O 0.31104 0.07977 0.81187 0.0
O255 O 0.27763 0.01709 0.93573 0.0
O256 O 0.23389 0.10761 0.88047 0.0
O257 O 0.32038 0.09473 0.9207 0.0
O258 O 0.22261 0.06067 0.90916 0.0
O259 O 0.33081 0.0136 0.92609 0.0
O260 O 0.3065 0.12335 0.87635 0.0
O261 O 0.29755 0.98119 0.86492 0.0
O262 O 0.23568 0.06701 0.81637 0.0
O263 O 0.34842 0.08633 0.85071 0.0
Sc264 Sc 0.58319 0.27726 0.02202 0.0
Sc265 Sc 0.63598 0.2649 0.95553 0.0
Sc266 Sc 0.63933 0.21217 0.0198 0.0
O267 O 0.61869 0.25087 0.99943 0.0
C268 C 0.63575 0.27263 0.07656 0.0
C269 C 0.6258 0.33037 0.98651 0.0
C270 C 0.69923 0.25705 0.99977 0.0
C271 C 0.56024 0.26381 0.94817 0.0
C272 C 0.56027 0.20244 0.03093 0.0
C273 C 0.63592 0.19338 0.94154 0.0
O274 O 0.60436 0.27302 0.07138 0.0
O275 O 0.61623 0.31411 0.96162 0.0
O276 O 0.68933 0.22698 0.00438 0.0
O277 O 0.55878 0.28143 0.97467 0.0
O278 O 0.59048 0.19313 0.03689 0.0
O279 O 0.65641 0.21742 0.94156 0.0
O280 O 0.55248 0.23305 0.02687 0.0
O281 O 0.58753 0.25044 0.93824 0.0
O282 O 0.62583 0.18421 0.97089 0.0
O283 O 0.6158 0.32088 0.01509 0.0
O284 O 0.65266 0.24879 0.06242 0.0
O285 O 0.68227 0.27687 0.98162 0.0
Sc286 Sc 0.02978 0.42692 0.22368 0.0
Sc287 Sc 0.96978 0.36586 0.24604 0.0
Sc288 Sc 0.03644 0.38172 0.2962 0.0
O289 O 0.01217 0.39137 0.25486 0.0
C290 C 0.09048 0.3815 0.23328 0.0
C291 C 1.00383 0.37317 0.17497 0.0
C292 C 0.01116 0.30943 0.27604 0.0
C293 C 0.95253 0.43944 0.22986 0.0
C294 C 0.04103 0.46028 0.29347 0.0
C295 C 0.95785 0.38375 0.31904 0.0
O296 O 0.08201 0.41184 0.22865 0.0
O297 O 0.97767 0.36815 0.19261 0.0
O298 O 0.02258 0.32976 0.29749 0.0
O299 O 0.97975 0.44445 0.21398 0.0
O300 O 0.05345 0.43307 0.3044 0.0
O301 O 0.95513 0.36067 0.29783 0.0
O302 O 0.03066 0.46309 0.2636 0.0
O303 O 0.94591 0.41232 0.24499 0.0
O304 O 0.98784 0.39614 0.32381 0.0
O305 O 0.02805 0.39154 0.18451 0.0
O306 O 0.07869 0.36624 0.25965 0.0
O307 O 0.99461 0.31864 0.25046 0.0
Sc308 Sc 0.89105 0.76381 0.47532 0.0
Sc309 Sc 0.83036 0.76734 0.41376 0.0
Sc310 Sc 0.87695 0.69358 0.42736 0.0
O311 O 0.86632 0.74138 0.43937 0.0
C312 C 0.94981 0.7202 0.4489 0.0
C313 C 0.89051 0.81684 0.40783 0.0
C314 C 0.87137 0.73094 0.36171 0.0
C315 C 0.81832 0.79446 0.48537 0.0
C316 C 0.87542 0.6856 0.50626 0.0
C317 C 0.79749 0.70181 0.42481 0.0
O318 O 0.9383 0.74767 0.45915 0.0
O319 O 0.86484 0.80266 0.39565 0.0
O320 O 0.8886 0.71022 0.37848 0.0
O321 O 0.84431 0.78005 0.49669 0.0
O322 O 0.86759 0.67475 0.4773 0.0
O323 O 0.79515 0.73248 0.43121 0.0
O324 O 0.8856 0.71674 0.50992 0.0
O325 O 0.8148 0.79912 0.45424 0.0
O326 O 0.82425 0.68813 0.41353 0.0
O327 O 0.90089 0.8085 0.43794 0.0
O328 O 0.93112 0.69602 0.43913 0.0
O329 O 0.84158 0.73813 0.37042 0.0
Sc330 Sc 0.94271 0.67139 0.24227 0.0
Sc331 Sc 0.96234 0.65622 0.32641 0.0
Sc332 Sc 1.0058 0.61718 0.26455 0.0
O333 O 0.97019 0.64794 0.27774 0.0
C334 C 0.93628 0.5989 0.21541 0.0
C335 C 0.89301 0.64511 0.29642 0.0
C336 C 0.99136 0.57924 0.32547 0.0
C337 C 0.95225 0.72674 0.29003 0.0
C338 C 0.01561 0.67548 0.21186 0.0
C339 C 0.03623 0.65878 0.33384 0.0
O340 O 0.92332 0.62699 0.22107 0.0
O341 O 0.91284 0.6387 0.32053 0.0
O342 O 0.98889 0.57812 0.29435 0.0
O343 O 0.95987 0.71729 0.26126 0.0
O344 O 0.02745 0.65623 0.23413 0.0
O345 O 0.01023 0.67645 0.33463 0.0
O346 O 0.98388 0.67676 0.20663 0.0
O347 O 0.94574 0.70616 0.31388 0.0
O348 O 0.03979 0.63653 0.30986 0.0
O349 O 0.89944 0.6684 0.27536 0.0
O350 O 0.96757 0.59289 0.22515 0.0
O351 O 0.98254 0.6055 0.34177 0.0
Sc352 Sc 0.61452 0.30826 0.76338 0.0
Sc353 Sc 0.59225 0.37528 0.81363 0.0
Sc354 Sc 0.55924 0.37188 0.76155 0.0
O355 O 0.58179 0.33907 0.78161 0.0
C356 C 0.63414 0.37355 0.72297 0.0
C357 C 0.6633 0.35228 0.80033 0.0
C358 C 0.55376 0.4332 0.76213 0.0
C359 C 0.58844 0.30161 0.83421 0.0
C360 C 0.55035 0.31116 0.71413 0.0
C361 C 0.51604 0.36009 0.82689 0.0
O362 O 0.63873 0.3421 0.72752 0.0
O363 O 0.64252 0.37559 0.7927 0.0
O364 O 0.53662 0.41237 0.74534 0.0
O365 O 0.59011 0.28486 0.80671 0.0
O366 O 0.54257 0.34094 0.72194 0.0
O367 O 0.54318 0.37209 0.83872 0.0
O368 O 0.57438 0.29484 0.72835 0.0
O369 O 0.60583 0.32822 0.83697 0.0
O370 O 0.51459 0.35691 0.79471 0.0
O371 O 0.65501 0.32191 0.79603 0.0
O372 O 0.60627 0.38716 0.7327 0.0
O373 O 0.57506 0.42396 0.78558 0.0
Sc374 Sc 0.51724 0.62662 0.6821 0.0
Sc375 Sc 0.53899 0.67322 0.75277 0.0
Sc376 Sc 0.47248 0.61753 0.75449 0.0
O377 O 0.51005 0.63802 0.72985 0.0
C378 C 0.43901 0.62832 0.67772 0.0
C379 C 0.51187 0.70567 0.68937 0.0
C380 C 0.46971 0.69011 0.78164 0.0
C381 C 0.59032 0.63749 0.70557 0.0
C382 C 0.50236 0.55621 0.71588 0.0
C383 C 0.54364 0.61631 0.80336 0.0
O384 O 0.46784 0.63046 0.66538 0.0
O385 O 0.51711 0.70819 0.72033 0.0
O386 O 0.45441 0.66621 0.76763 0.0
O387 O 0.56795 0.62001 0.69188 0.0
O388 O 0.48739 0.56926 0.74036 0.0
O389 O 0.55882 0.63822 0.78622 0.0
O390 O 0.51293 0.5735 0.6913 0.0
O391 O 0.58364 0.66361 0.72236 0.0
O392 O 0.51149 0.60923 0.79829 0.0
O393 O 0.52 0.67959 0.67266 0.0
O394 O 0.43512 0.62315 0.70969 0.0
O395 O 0.50081 0.68713 0.78824 0.0
Sc396 Sc 0.88667 0.28404 0.99909 0.0
Sc397 Sc 0.94499 0.34915 0.99419 0.0
Sc398 Sc 0.89406 0.33683 0.06284 0.0
O399 O 0.90916 0.32173 0.01957 0.0
C400 C 0.82365 0.30906 0.03938 0.0
C401 C 0.87786 0.35858 0.9562 0.0
C402 C 0.91927 0.40292 0.03705 0.0
C403 C 0.95796 0.28294 0.9648 0.0
C404 C 0.89648 0.25689 0.07811 0.0
C405 C 0.97493 0.32973 0.05865 0.0
O406 O 0.83823 0.29171 0.01772 0.0
O407 O 0.90557 0.3714 0.96616 0.0
O408 O 0.89318 0.38427 0.03696 0.0
O409 O 0.93547 0.2676 0.9811 0.0
O410 O 0.89408 0.28746 0.08701 0.0
O411 O 0.97957 0.32685 0.02734 0.0
O412 O 0.89681 0.25029 0.04598 0.0
O413 O 0.95155 0.31251 0.95624 0.0
O414 O 0.94773 0.34052 0.0722 0.0
O415 O 0.87103 0.3263 0.96058 0.0
O416 O 0.83935 0.33078 0.05681 0.0
O417 O 0.94643 0.39101 0.027 0.0
Sc418 Sc 0.62814 0.73009 0.5087 0.0
Sc419 Sc 0.64361 0.71913 0.59186 0.0
Sc420 Sc 0.59983 0.65818 0.54779 0.0
O421 O 0.62499 0.7021 0.54842 0.0
C422 C 0.55699 0.69904 0.49572 0.0
C423 C 0.61037 0.78287 0.57233 0.0
C424 C 0.57578 0.69544 0.60772 0.0
C425 C 0.69602 0.75077 0.53987 0.0
C426 C 0.64127 0.6489 0.48401 0.0
C427 C 0.66509 0.64914 0.58617 0.0
O428 O 0.5746 0.72552 0.49962 0.0
O429 O 0.60925 0.75809 0.59133 0.0
O430 O 0.56539 0.68032 0.58196 0.0
O431 O 0.68159 0.7367 0.51524 0.0
O432 O 0.63238 0.63683 0.51196 0.0
O433 O 0.67599 0.6784 0.59115 0.0
O434 O 0.63944 0.68131 0.47781 0.0
O435 O 0.68287 0.7506 0.56887 0.0
O436 O 0.63353 0.6437 0.58719 0.0
O437 O 0.61862 0.77882 0.54089 0.0
O438 O 0.56617 0.67087 0.50729 0.0
O439 O 0.60575 0.69076 0.61707 0.0
Sc440 Sc 0.81149 0.50544 0.64271 0.0
Sc441 Sc 0.76625 0.57646 0.64303 0.0
Sc442 Sc 0.72995 0.50467 0.61422 0.0
O443 O 0.77025 0.52866 0.6331 0.0
C444 C 0.78925 0.46231 0.58424 0.0
C445 C 0.83429 0.5801 0.60566 0.0
C446 C 0.74021 0.5611 0.57056 0.0
C447 C 0.80715 0.55346 0.7053 0.0
C448 C 0.74448 0.45946 0.67115 0.0
C449 C 0.69803 0.55951 0.66015 0.0
O450 O 0.81109 0.48268 0.59524 0.0
O451 O 0.80624 0.59259 0.6129 0.0
O452 O 0.73918 0.52972 0.56978 0.0
O453 O 0.81346 0.52536 0.69219 0.0
O454 O 0.72348 0.47923 0.65828 0.0
O455 O 0.72623 0.56225 0.67395 0.0
O456 O 0.77725 0.46266 0.66609 0.0
O457 O 0.79573 0.57754 0.68805 0.0
O458 O 0.69463 0.5432 0.63296 0.0
O459 O 0.84219 0.54984 0.61656 0.0
O460 O 0.75884 0.46333 0.59414 0.0
O461 O 0.73715 0.57712 0.59804 0.0
Sc462 Sc 0.66269 0.49735 0.92621 0.0
Sc463 Sc 0.72138 0.46299 0.87465 0.0
Sc464 Sc 0.73728 0.53841 0.90637 0.0
O465 O 0.70878 0.49965 0.90379 0.0
C466 C 0.65684 0.55911 0.88103 0.0
C467 C 0.65493 0.45266 0.8667 0.0
C468 C 0.75388 0.52042 0.83138 0.0
C469 C 0.69943 0.43658 0.94838 0.0
C470 C 0.69961 0.54485 0.97457 0.0
C471 C 0.78863 0.47065 0.91298 0.0
O472 O 0.64362 0.53229 0.89214 0.0
O473 O 0.67313 0.47643 0.85837 0.0
O474 O 0.7546 0.53997 0.85601 0.0
O475 O 0.68567 0.46322 0.9586 0.0
O476 O 0.72678 0.54231 0.95848 0.0
O477 O 0.7705 0.45431 0.89268 0.0
O478 O 0.6718 0.53716 0.96115 0.0
O479 O 0.70558 0.43144 0.91724 0.0
O480 O 0.78099 0.50156 0.92164 0.0
O481 O 0.64481 0.4552 0.89622 0.0
O482 O 0.68878 0.56734 0.88704 0.0
O483 O 0.74087 0.49141 0.83295 0.0
Sc484 Sc 0.74907 0.46298 0.16506 0.0
Sc485 Sc 0.78866 0.38618 0.15656 0.0
Sc486 Sc 0.81404 0.46222 0.11059 0.0
O487 O 0.78505 0.43779 0.14473 0.0
C488 C 0.74445 0.49562 0.09289 0.0
C489 C 0.7178 0.3877 0.13262 0.0
C490 C 0.82562 0.39814 0.09354 0.0
C491 C 0.74991 0.41169 0.21958 0.0
C492 C 0.8171 0.51797 0.1645 0.0
C493 C 0.8366 0.42767 0.17795 0.0
O494 O 0.73302 0.49091 0.1219 0.0
O495 O 0.74712 0.37797 0.12517 0.0
O496 O 0.8005 0.41645 0.0902 0.0
O497 O 0.75905 0.44108 0.21234 0.0
O498 O 0.82534 0.50842 0.1355 0.0
O499 O 0.83099 0.39798 0.18749 0.0
O500 O 0.79021 0.50467 0.17907 0.0
O501 O 0.75443 0.38793 0.19928 0.0
O502 O 0.81247 0.44078 0.16071 0.0
O503 O 0.71344 0.41651 0.14869 0.0
O504 O 0.77291 0.48467 0.08409 0.0
O505 O 0.8231 0.37621 0.11588 0.0
Sc506 Sc 0.75599 0.46896 0.40815 0.0
Sc507 Sc 0.81384 0.52026 0.39829 0.0
Sc508 Sc 0.74219 0.5287 0.34986 0.0
O509 O 0.77304 0.50197 0.37886 0.0
C510 C 0.72077 0.45152 0.33999 0.0
C511 C 0.83501 0.45002 0.37639 0.0
C512 C 0.80846 0.54558 0.32314 0.0
C513 C 0.80792 0.46044 0.45078 0.0
C514 C 0.6988 0.52956 0.41438 0.0
C515 C 0.7698 0.58064 0.39996 0.0
O516 O 0.73033 0.44211 0.36895 0.0
O517 O 0.84268 0.48099 0.37667 0.0
O518 O 0.78232 0.52885 0.31555 0.0
O519 O 0.79761 0.44234 0.4269 0.0
O520 O 0.7002 0.53462 0.38323 0.0
O521 O 0.78239 0.55765 0.41782 0.0
O522 O 0.71548 0.50481 0.42742 0.0
O523 O 0.81009 0.4922 0.44627 0.0
O524 O 0.76065 0.57565 0.3699 0.0
O525 O 0.80516 0.44006 0.38817 0.0
O526 O 0.72316 0.48194 0.32981 0.0
O527 O 0.81969 0.54858 0.35296 0.0
C528 C 0.02068 0.22836 0.16972 0.0
C529 C 1.00388 0.20176 0.15399 0.0
C530 C 0.03629 0.20647 0.1053 0.0
C531 C 0.061 0.22402 0.12506 0.0
N532 N 0.0769 0.25059 0.17724 0.0
N533 N 0.97839 0.18719 0.10243 0.0
C534 C 0.05298 0.23608 0.15733 0.0
C535 C 1.00455 0.20111 0.11945 0.0
N536 N 0.01014 0.23865 0.20018 0.0
N537 N 0.04435 0.19042 0.07636 0.0
H538 H 0.95741 0.17841 0.11512 0.0
H539 H 0.97714 0.18565 0.07658 0.0
H540 H 0.06883 0.18755 0.06786 0.0
H541 H 0.02724 0.17588 0.06289 0.0
H542 H 0.02128 0.25855 0.21287 0.0
H543 H 0.98898 0.22788 0.21134 0.0
H544 H 0.07333 0.25471 0.20258 0.0
H545 H 0.10085 0.25726 0.16892 0.0
C546 C 0.13222 0.85156 0.3896 0.0
C547 C 0.15473 0.82458 0.38442 0.0
C548 C 0.13232 0.81697 0.32873 0.0
C549 C 0.10964 0.84407 0.33395 0.0
N550 N 0.07767 0.87333 0.37555 0.0
N551 N 0.18283 0.78805 0.3468 0.0
C552 C 0.10674 0.85797 0.36605 0.0
C553 C 0.15746 0.81004 0.35285 0.0
N554 N 0.13377 0.86909 0.41867 0.0
N555 N 0.12639 0.79467 0.30367 0.0
H556 H 0.20078 0.78219 0.36493 0.0
H557 H 0.18788 0.77851 0.32323 0.0
H558 H 0.10353 0.79408 0.29077 0.0
H559 H 0.14099 0.77351 0.29967 0.0
H560 H 0.11969 0.89053 0.42317 0.0
H561 H 0.1521 0.86408 0.43656 0.0
H562 H 0.0733 0.88176 0.39967 0.0
H563 H 0.05582 0.87249 0.36113 0.0
C564 C 0.46743 0.8742 0.56903 0.0
C565 C 0.47045 0.86528 0.60335 0.0
C566 C 0.502 0.816 0.58751 0.0
C567 C 0.48789 0.81853 0.55605 0.0
N568 N 0.47656 0.85628 0.51143 0.0
N569 N 0.49493 0.82833 0.64536 0.0
C570 C 0.47805 0.85045 0.54489 0.0
C571 C 0.48967 0.8367 0.61278 0.0
N572 N 0.45244 0.9035 0.55977 0.0
N573 N 0.52669 0.7934 0.59275 0.0
H574 H 0.48864 0.84353 0.66531 0.0
H575 H 0.50526 0.80562 0.65254 0.0
H576 H 0.53575 0.77914 0.57297 0.0
H577 H 0.54044 0.79249 0.61487 0.0
H578 H 0.44906 0.91098 0.53515 0.0
H579 H 0.4428 0.92047 0.57684 0.0
H580 H 0.46976 0.879 0.50066 0.0
H581 H 0.48418 0.83798 0.49457 0.0
C582 C 0.39643 0.25179 0.83005 0.0
C583 C 0.36694 0.24938 0.84853 0.0
C584 C 0.36072 0.19189 0.83323 0.0
C585 C 0.39689 0.19108 0.83317 0.0
N586 N 0.44384 0.22122 0.8082 0.0
N587 N 0.3116 0.2284 0.83945 0.0
C588 C 0.41366 0.22147 0.82396 0.0
C589 C 0.34544 0.22331 0.83921 0.0
N590 N 0.40775 0.28253 0.82057 0.0
N591 N 0.34178 0.16405 0.82721 0.0
H592 H 0.30197 0.25179 0.8459 0.0
H593 H 0.29387 0.2107 0.83186 0.0
H594 H 0.35221 0.14153 0.82009 0.0
H595 H 0.31559 0.16388 0.82701 0.0
H596 H 0.4283 0.28639 0.80504 0.0
H597 H 0.39453 0.30403 0.82725 0.0
H598 H 0.45246 0.24124 0.79393 0.0
H599 H 0.45894 0.20027 0.80721 0.0
C600 C 0.11515 0.05658 0.16336 0.0
C601 C 0.08353 0.05928 0.14704 0.0
C602 C 0.10587 0.03286 0.09697 0.0
C603 C 0.13738 0.03067 0.11349 0.0
N604 N 0.17063 0.03323 0.16398 0.0
N605 N 0.04974 0.05622 0.09675 0.0
C606 C 0.14167 0.04081 0.14704 0.0
C607 C 0.07874 0.04839 0.11363 0.0
N608 N 0.12017 0.06981 0.19437 0.0
N609 N 0.10217 0.02101 0.0652 0.0
H610 H 0.02987 0.06937 0.10721 0.0
H611 H 0.04606 0.05236 0.07137 0.0
H612 H 0.12221 0.0129 0.05072 0.0
H613 H 0.07899 0.01769 0.05343 0.0
H614 H 0.14378 0.07503 0.20455 0.0
H615 H 0.10069 0.07692 0.20977 0.0
H616 H 0.17498 0.03785 0.18911 0.0
H617 H 0.18929 0.01848 0.15381 0.0
C618 C 0.24192 0.84389 0.42671 0.0
C619 C 0.22984 0.87631 0.4351 0.0
C620 C 0.23837 0.86493 0.49381 0.0
C621 C 0.23879 0.83116 0.48531 0.0
N622 N 0.26672 0.79274 0.44954 0.0
N623 N 0.2429 0.92107 0.473 0.0
C624 C 0.25111 0.82263 0.45367 0.0
C625 C 0.23713 0.88819 0.46755 0.0
N626 N 0.24377 0.8332 0.39457 0.0
N627 N 0.23107 0.87382 0.52559 0.0
H628 H 0.24396 0.93803 0.45321 0.0
H629 H 0.25189 0.92917 0.49591 0.0
H630 H 0.22714 0.85548 0.54384 0.0
H631 H 0.22675 0.89849 0.53271 0.0
H632 H 0.25043 0.80889 0.38824 0.0
H633 H 0.23891 0.84846 0.37413 0.0
H634 H 0.27119 0.77708 0.47 0.0
H635 H 0.27701 0.78507 0.42701 0.0
C636 C 0.35505 0.98951 0.71486 0.0
C637 C 0.34464 0.99249 0.68105 0.0
C638 C 0.40159 0.00728 0.66562 0.0
C639 C 0.41239 0.99227 0.69499 0.0
N640 N 0.40236 0.97729 0.75131 0.0
N641 N 0.36343 0.99091 0.62363 0.0
C642 C 0.38986 0.98688 0.72124 0.0
C643 C 0.36879 0.99958 0.65582 0.0
N644 N 0.33195 0.98763 0.74001 0.0
N645 N 0.42423 0.02175 0.64456 0.0
H646 H 0.34435 0.97427 0.61777 0.0
H647 H 0.38143 0.99422 0.605 0.0
H648 H 0.44947 0.02471 0.65154 0.0
H649 H 0.41683 0.03298 0.62218 0.0
H650 H 0.33835 0.98647 0.76512 0.0
H651 H 0.30625 0.99153 0.73618 0.0
H652 H 0.38771 0.97314 0.77227 0.0
H653 H 0.42829 0.97446 0.75482 0.0
C654 C 0.25849 0.20011 0.93335 0.0
C655 C 0.27789 0.20625 0.96149 0.0
C656 C 0.29311 0.14783 0.96391 0.0
C657 C 0.28839 0.14657 0.9283 0.0
N658 N 0.25914 0.17353 0.88016 0.0
N659 N 0.29579 0.18431 0.01312 0.0
C660 C 0.2678 0.17264 0.91319 0.0
C661 C 0.28766 0.17881 0.98053 0.0
N662 N 0.23543 0.2234 0.92389 0.0
N663 N 0.30215 0.12026 0.98179 0.0
H664 H 0.29236 0.208 0.02346 0.0
H665 H 0.3056 0.16653 0.0294 0.0
H666 H 0.30136 0.09608 0.97248 0.0
H667 H 0.30444 0.12031 0.00753 0.0
H668 H 0.21878 0.22009 0.90399 0.0
H669 H 0.23146 0.24465 0.93845 0.0
H670 H 0.24766 0.19418 0.86912 0.0
H671 H 0.26373 0.15533 0.86256 0.0
C672 C 0.07176 0.98155 0.30586 0.0
C673 C 0.08467 0.98105 0.27328 0.0
C674 C 0.14009 0.97588 0.29448 0.0
C675 C 0.12541 0.95815 0.322 0.0
N676 N 0.07801 0.9556 0.36035 0.0
N677 N 0.12936 1.00171 0.24023 0.0
C678 C 0.09147 0.96543 0.33064 0.0
C679 C 0.1185 0.98863 0.26963 0.0
N680 N 0.03918 0.99074 0.31057 0.0
N681 N 0.17386 0.98007 0.29269 0.0
H682 H 0.11198 0.00801 0.22163 0.0
H683 H 0.15456 0.00583 0.23443 0.0
H684 H 0.18842 0.97381 0.3132 0.0
H685 H 0.18628 0.99235 0.27336 0.0
H686 H 0.02723 0.9902 0.3336 0.0
H687 H 0.025 1.00037 0.29074 0.0
H688 H 0.05255 0.95772 0.36598 0.0
H689 H 0.09238 0.9457 0.3797 0.0
C690 C 0.34461 0.92402 0.54602 0.0
C691 C 0.3145 0.91704 0.56425 0.0
C692 C 0.3194 0.85817 0.55355 0.0
C693 C 0.35271 0.86441 0.54245 0.0
N694 N 0.38595 0.90176 0.50825 0.0
N695 N 0.27244 0.87783 0.58461 0.0
C696 C 0.36231 0.8969 0.53245 0.0
C697 C 0.30122 0.88431 0.56702 0.0
N698 N 0.35816 0.95556 0.54419 0.0
N699 N 0.30439 0.82773 0.54859 0.0
H700 H 0.25536 0.89635 0.59109 0.0
H701 H 0.26575 0.85393 0.59295 0.0
H702 H 0.31622 0.80897 0.53524 0.0
H703 H 0.27892 0.82301 0.5528 0.0
H704 H 0.3825 0.96024 0.53562 0.0
H705 H 0.34667 0.97702 0.55301 0.0
H706 H 0.3915 0.92518 0.49807 0.0
H707 H 0.3961 0.88216 0.49464 0.0
C708 C 0.39434 0.05559 0.74978 0.0
C709 C 0.4238 0.05257 0.76852 0.0
C710 C 0.39557 0.04123 0.81816 0.0
C711 C 0.36571 0.05594 0.80308 0.0
N712 N 0.33327 0.05705 0.75114 0.0
N713 N 0.4478 0.01266 0.80517 0.0
C714 C 0.36346 0.0561 0.76743 0.0
C715 C 0.42116 0.03174 0.79607 0.0
N716 N 0.397 0.06162 0.71666 0.0
N717 N 0.40323 0.04212 0.85143 0.0
H718 H 0.4679 0.00938 0.78881 0.0
H719 H 0.44822 0.99901 0.82728 0.0
H720 H 0.38841 0.05198 0.87002 0.0
H721 H 0.42662 0.03472 0.86072 0.0
H722 H 0.37651 0.06301 0.70063 0.0
H723 H 0.42076 0.06335 0.70557 0.0
H724 H 0.33111 0.05663 0.72533 0.0
H725 H 0.31042 0.05227 0.76291 0.0
C726 C 0.15314 0.10909 0.06024 0.0
C727 C 0.17169 0.12781 0.08419 0.0
C728 C 0.22329 0.10081 0.06827 0.0
C729 C 0.20541 0.08164 0.04372 0.0
N730 N 0.1555 0.07632 0.00962 0.0
N731 N 0.21903 0.12807 0.12146 0.0
C732 C 0.17078 0.08817 0.0378 0.0
C733 C 0.20501 0.11909 0.09165 0.0
N734 N 0.11875 0.10923 0.06075 0.0
N735 N 0.25766 0.10377 0.06797 0.0
H736 H 0.20501 0.14015 0.13978 0.0
H737 H 0.24269 0.11985 0.12926 0.0
H738 H 0.2725 0.09492 0.04864 0.0
H739 H 0.27089 0.11956 0.08409 0.0
H740 H 0.10383 0.09432 0.0453 0.0
H741 H 0.10531 0.12025 0.08005 0.0
H742 H 0.1311 0.08269 0.00252 0.0
H743 H 0.16879 0.06376 0.99117 0.0
C744 C 0.6814 0.35118 0.96076 0.0
C745 C 0.65291 0.35607 0.98269 0.0
C746 C 0.67787 0.40937 0.9993 0.0
C747 C 0.69891 0.40771 0.97144 0.0
N748 N 0.73527 0.37244 0.94082 0.0
N749 N 0.6239 0.39305 0.02093 0.0
C750 C 0.70613 0.37651 0.95822 0.0
C751 C 0.65165 0.38558 0.00244 0.0
N752 N 0.68341 0.32496 0.93925 0.0
N753 N 0.68279 0.43404 0.02207 0.0
H754 H 0.60224 0.3782 0.02157 0.0
H755 H 0.62089 0.41617 0.03248 0.0
H756 H 0.70253 0.45132 0.01951 0.0
H757 H 0.67012 0.43426 0.04472 0.0
H758 H 0.70296 0.3215 0.92248 0.0
H759 H 0.66469 0.30751 0.93519 0.0
H760 H 0.74486 0.34929 0.93393 0.0
H761 H 0.75157 0.39249 0.93644 0.0
C762 C 0.91881 0.47366 0.19227 0.0
C763 C 0.92376 0.46124 0.22444 0.0
C764 C 0.86502 0.44654 0.22974 0.0
C765 C 0.86295 0.44788 0.19437 0.0
N766 N 0.88538 0.47002 0.14259 0.0
N767 N 0.90028 0.45615 0.27867 0.0
C768 C 0.88867 0.46471 0.17581 0.0
C769 C 0.89589 0.45507 0.24498 0.0
N770 N 0.94324 0.49303 0.17791 0.0
N771 N 0.83788 0.43679 0.24826 0.0
H772 H 0.92388 0.46168 0.28903 0.0
H773 H 0.88064 0.45503 0.29567 0.0
H774 H 0.8145 0.4319 0.23761 0.0
H775 H 0.83814 0.43421 0.27404 0.0
H776 H 0.94066 0.50487 0.15489 0.0
H777 H 0.96475 0.50011 0.1913 0.0
H778 H 0.904 0.4803 0.12744 0.0
H779 H 0.86414 0.46244 0.12995 0.0
C780 C 0.74666 0.67126 0.41183 0.0
C781 C 0.77112 0.67946 0.43571 0.0
C782 C 0.79048 0.62375 0.44033 0.0
C783 C 0.76771 0.61423 0.41428 0.0
N784 N 0.71465 0.62677 0.38599 0.0
N785 N 0.79934 0.66323 0.48522 0.0
C786 C 0.74244 0.6372 0.40332 0.0
C787 C 0.78513 0.65468 0.45559 0.0
N788 N 0.72995 0.69623 0.39568 0.0
N789 N 0.81904 0.60616 0.44766 0.0
H790 H 0.79656 0.6873 0.49493 0.0
H791 H 0.8124 0.64617 0.49988 0.0
H792 H 0.82866 0.58754 0.43239 0.0
H793 H 0.83622 0.61366 0.46589 0.0
H794 H 0.71436 0.69216 0.37509 0.0
H795 H 0.73321 0.72122 0.4027 0.0
H796 H 0.69497 0.64277 0.37971 0.0
H797 H 0.70921 0.60166 0.38157 0.0
C798 C 0.81498 0.59184 0.28283 0.0
C799 C 0.82816 0.5625 0.29775 0.0
C800 C 0.88449 0.58429 0.29323 0.0
C801 C 0.87097 0.61664 0.28728 0.0
N802 N 0.8235 0.65145 0.27344 0.0
N803 N 0.87471 0.52828 0.3143 0.0
C804 C 0.83629 0.62048 0.28004 0.0
C805 C 0.86295 0.55768 0.30102 0.0
N806 N 0.78204 0.59252 0.27306 0.0
N807 N 0.91835 0.57986 0.29294 0.0
H808 H 0.85895 0.50749 0.31763 0.0
H809 H 0.89922 0.52437 0.32263 0.0
H810 H 0.93402 0.59804 0.28277 0.0
H811 H 0.93028 0.55771 0.29945 0.0
H812 H 0.77126 0.61256 0.26032 0.0
H813 H 0.7665 0.57144 0.27488 0.0
H814 H 0.79782 0.65632 0.27161 0.0
H815 H 0.83867 0.67273 0.27116 0.0
C816 C 0.69033 0.41877 0.82707 0.0
C817 C 0.66596 0.4193 0.85379 0.0
C818 C 0.67232 0.35815 0.85768 0.0
C819 C 0.68795 0.35978 0.82664 0.0
N820 N 0.73404 0.38622 0.80006 0.0
N821 N 0.63886 0.38718 0.89848 0.0
C822 C 0.70616 0.38838 0.8195 0.0
C823 C 0.65882 0.38833 0.87094 0.0
N824 N 0.69547 0.4454 0.80634 0.0
N825 N 0.66416 0.32721 0.86956 0.0
H826 H 0.62145 0.40542 0.90457 0.0
H827 H 0.63666 0.36616 0.91356 0.0
H828 H 0.67448 0.30573 0.85896 0.0
H829 H 0.64507 0.32279 0.88669 0.0
H830 H 0.7138 0.4453 0.78794 0.0
H831 H 0.67889 0.4654 0.8043 0.0
H832 H 0.74946 0.40677 0.79467 0.0
H833 H 0.74275 0.36291 0.7922 0.0
C834 C 0.54071 0.75287 0.67367 0.0
C835 C 0.50936 0.73737 0.67131 0.0
C836 C 0.51972 0.72407 0.61415 0.0
C837 C 0.55457 0.72135 0.62378 0.0
N838 N 0.59906 0.74326 0.66146 0.0
N839 N 0.46285 0.73663 0.63421 0.0
C840 C 0.56596 0.74007 0.65254 0.0
C841 C 0.49656 0.73363 0.63917 0.0
N842 N 0.54699 0.77373 0.69969 0.0
N843 N 0.50941 0.71843 0.58217 0.0
H844 H 0.44701 0.74247 0.65407 0.0
H845 H 0.45121 0.73441 0.61113 0.0
H846 H 0.52636 0.71813 0.56241 0.0
H847 H 0.48426 0.71747 0.57482 0.0
H848 H 0.57008 0.7854 0.7038 0.0
H849 H 0.52773 0.78 0.71618 0.0
H850 H 0.60664 0.75268 0.68449 0.0
H851 H 0.61929 0.73669 0.64667 0.0
C852 C 0.53794 0.30613 0.91541 0.0
C853 C 0.5366 0.27214 0.92173 0.0
C854 C 0.54787 0.26134 0.86347 0.0
C855 C 0.56463 0.29328 0.86201 0.0
N856 N 0.57441 0.34694 0.8929 0.0
N857 N 0.52721 0.21774 0.90097 0.0
C858 C 0.55888 0.31651 0.88929 0.0
C859 C 0.5359 0.25008 0.89485 0.0
N860 N 0.52541 0.32787 0.93832 0.0
N861 N 0.54196 0.24254 0.83573 0.0
H862 H 0.51809 0.21084 0.92438 0.0
H863 H 0.5305 0.19852 0.88404 0.0
H864 H 0.54533 0.2512 0.81153 0.0
H865 H 0.52747 0.22077 0.83637 0.0
H866 H 0.5259 0.3538 0.93518 0.0
H867 H 0.51159 0.3192 0.95878 0.0
H868 H 0.57468 0.35972 0.91551 0.0
H869 H 0.58731 0.36054 0.87518 0.0
C870 C 0.02431 0.3513 0.08509 0.0
C871 C 1.00235 0.32413 0.08173 0.0
C872 C 0.99445 0.32108 0.14125 0.0
C873 C 1.00722 0.35466 0.14333 0.0
N874 N 0.03396 0.40233 0.11523 0.0
N875 N 0.97647 0.2757 0.10487 0.0
C876 C 0.02325 0.36972 0.11503 0.0
C877 C 0.99216 0.30579 0.10971 0.0
N878 N 0.04334 0.36087 0.0585 0.0
N879 N 0.984 0.30431 0.16904 0.0
H880 H 0.97123 0.26676 0.08097 0.0
H881 H 0.96931 0.25942 0.12372 0.0
H882 H 0.99 0.31211 0.19285 0.0
H883 H 0.97142 0.28151 0.16904 0.0
H884 H 0.06181 0.37951 0.05979 0.0
H885 H 0.04256 0.34736 0.03625 0.0
H886 H 0.04344 0.41443 0.09418 0.0
H887 H 0.02973 0.41885 0.13469 0.0
C888 C 0.90684 0.76365 0.282 0.0
C889 C 0.94019 0.76092 0.29331 0.0
C890 C 0.92327 0.76474 0.3498 0.0
C891 C 0.89053 0.7533 0.33931 0.0
N892 N 0.84846 0.75105 0.29539 0.0
N893 N 0.97936 0.7825 0.33203 0.0
C894 C 0.88084 0.75695 0.30535 0.0
C895 C 0.94735 0.7724 0.32505 0.0
N896 N 0.90104 0.76883 0.24896 0.0
N897 N 0.93231 0.76444 0.38254 0.0
H898 H 0.99766 0.78327 0.31337 0.0
H899 H 0.98637 0.7928 0.35472 0.0
H900 H 0.91561 0.75748 0.40116 0.0
H901 H 0.95556 0.77256 0.3914 0.0
H902 H 0.87711 0.77207 0.23874 0.0
H903 H 0.92119 0.77193 0.23251 0.0
H904 H 0.84102 0.75034 0.27048 0.0
H905 H 0.82904 0.74654 0.31224 0.0
C906 C 0.64799 0.56664 0.69597 0.0
C907 C 0.67141 0.58096 0.67354 0.0
C908 C 0.64904 0.63724 0.684 0.0
C909 C 0.62408 0.62251 0.70422 0.0
N910 N 0.6049 0.5762 0.73753 0.0
N911 N 0.70124 0.63047 0.65409 0.0
C912 C 0.62576 0.5881 0.71317 0.0
C913 C 0.67421 0.61651 0.67006 0.0
N914 N 0.64713 0.53265 0.70064 0.0
N915 N 0.64765 0.67067 0.67696 0.0
H916 H 0.71937 0.61646 0.64197 0.0
H917 H 0.70687 0.65596 0.65441 0.0
H918 H 0.63059 0.68648 0.6886 0.0
H919 H 0.66258 0.68258 0.65918 0.0
H920 H 0.6298 0.52008 0.71555 0.0
H921 H 0.66315 0.51629 0.68827 0.0
H922 H 0.60476 0.55171 0.74627 0.0
H923 H 0.58887 0.592 0.75055 0.0
C924 C 0.89361 0.45271 0.05359 0.0
C925 C 0.92018 0.43132 0.06017 0.0
C926 C 0.88967 0.40553 0.10496 0.0
C927 C 0.85893 0.4142 0.08693 0.0
N928 N 0.83482 0.44935 0.04146 0.0
N929 N 0.94975 0.41917 0.11019 0.0
C930 C 0.86118 0.44038 0.06158 0.0
C931 C 0.92042 0.41904 0.09261 0.0
N932 N 0.89908 0.48123 0.03582 0.0
N933 N 0.89081 0.38423 0.13167 0.0
H934 H 0.97181 0.42855 0.0994 0.0
H935 H 0.95117 0.41279 0.13538 0.0
H936 H 0.87035 0.37479 0.14456 0.0
H937 H 0.91349 0.37514 0.14115 0.0
H938 H 0.88016 0.4987 0.03125 0.0
H939 H 0.92341 0.48787 0.02825 0.0
H940 H 0.83742 0.46674 0.02217 0.0
H941 H 0.812 0.43664 0.04008 0.0
C942 C 0.674 0.59337 0.55908 0.0
C943 C 0.68735 0.62526 0.5692 0.0
C944 C 0.74119 0.61101 0.54283 0.0
C945 C 0.72852 0.57852 0.54114 0.0
N946 N 0.68172 0.54603 0.5224 0.0
N947 N 0.73473 0.66553 0.56564 0.0
C948 C 0.69388 0.57379 0.53797 0.0
C949 C 0.72077 0.63517 0.55835 0.0
N950 N 0.64605 0.57932 0.57339 0.0
N951 N 0.77516 0.61515 0.54008 0.0
H952 H 0.7318 0.67666 0.58884 0.0
H953 H 0.75392 0.67606 0.5512 0.0
H954 H 0.79012 0.59592 0.5307 0.0
H955 H 0.78821 0.63573 0.54959 0.0
H956 H 0.637 0.55566 0.56691 0.0
H957 H 0.63561 0.58798 0.59548 0.0
H958 H 0.65598 0.54178 0.51888 0.0
H959 H 0.698 0.52912 0.51103 0.0
C960 C 0.93879 0.95994 0.19178 0.0
C961 C 0.94524 0.94815 0.22455 0.0
C962 C 0.92489 1.00059 0.24764 0.0
C963 C 0.93006 0.01516 0.21577 0.0
N964 N 0.91873 0.0063 0.15757 0.0
N965 N 0.92227 0.94894 0.27999 0.0
C966 C 0.92932 0.99392 0.18756 0.0
C967 C 0.93103 0.96581 0.25163 0.0
N968 N 0.94155 0.93883 0.16531 0.0
N969 N 0.9142 0.01983 0.27347 0.0
H970 H 0.92325 0.92284 0.28139 0.0
H971 H 0.91068 0.95998 0.30035 0.0
H972 H 0.90463 0.04382 0.26959 0.0
H973 H 0.91394 0.01184 0.29819 0.0
H974 H 0.94118 0.94671 0.14055 0.0
H975 H 0.94315 0.91295 0.1685 0.0
H976 H 0.91631 0.99204 0.13604 0.0
H977 H 0.9091 0.0305 0.15541 0.0
C978 C 0.25677 0.74655 0.57695 0.0
C979 C 0.27858 0.72896 0.55533 0.0
C980 C 0.23104 0.69347 0.53734 0.0
C981 C 0.20879 0.71647 0.5519 0.0
N982 N 0.20033 0.75119 0.60001 0.0
N983 N 0.28765 0.68177 0.51899 0.0
C984 C 0.22155 0.73884 0.57644 0.0
C985 C 0.26613 0.70064 0.53742 0.0
N986 N 0.26937 0.77165 0.59645 0.0
N987 N 0.21825 0.66462 0.52403 0.0
H988 H 0.31362 0.68496 0.52004 0.0
H989 H 0.27986 0.66372 0.50192 0.0
H990 H 0.19258 0.65881 0.52542 0.0
H991 H 0.23294 0.64521 0.51501 0.0
H992 H 0.25441 0.78829 0.6096 0.0
H993 H 0.29511 0.77668 0.59844 0.0
H994 H 0.20812 0.76633 0.61967 0.0
H995 H 0.1756 0.74253 0.60238 0.0
C996 C 0.54712 0.98286 0.78864 0.0
C997 C 0.55381 0.97932 0.75423 0.0
C998 C 0.56125 0.03977 0.75002 0.0
C999 C 0.54151 0.04294 0.77933 0.0
N1000 N 0.5226 0.01746 0.83122 0.0
N1001 N 0.58251 1.00275 0.70695 0.0
C1002 C 0.53743 0.0147 0.80071 0.0
C1003 C 0.56633 0.00738 0.73649 0.0
N1004 N 0.55065 0.956 0.80945 0.0
N1005 N 0.57498 0.06778 0.73571 0.0
H1006 H 0.58975 0.97895 0.69917 0.0
H1007 H 0.58927 0.02202 0.69073 0.0
H1008 H 0.57283 0.09135 0.74666 0.0
H1009 H 0.59059 0.06752 0.71496 0.0
H1010 H 0.5483 0.95747 0.83525 0.0
H1011 H 0.56024 0.93331 0.80094 0.0
H1012 H 0.51504 0.99677 0.84529 0.0
H1013 H 0.51654 0.04013 0.84219 0.0
C1014 C 0.33335 0.2576 0.07655 0.0
C1015 C 0.34095 0.28579 0.05631 0.0
C1016 C 0.28365 0.30614 0.06667 0.0
C1017 C 0.27369 0.27307 0.07606 0.0
N1018 N 0.29071 0.21694 0.09171 0.0
N1019 N 0.32644 0.34229 0.04179 0.0
C1020 C 0.29904 0.24884 0.08238 0.0
C1021 C 0.31705 0.31201 0.05477 0.0
N1022 N 0.35876 0.24009 0.09126 0.0
N1023 N 0.26135 0.33183 0.07 0.0
H1024 H 0.35166 0.3481 0.03696 0.0
H1025 H 0.30962 0.36129 0.0358 0.0
H1026 H 0.23746 0.32837 0.0803 0.0
H1027 H 0.26742 0.35686 0.06573 0.0
H1028 H 0.35433 0.22135 0.1089 0.0
H1029 H 0.38387 0.24784 0.08953 0.0
H1030 H 0.30842 0.19783 0.09316 0.0
H1031 H 0.26602 0.20874 0.09518 0.0
C1032 C 0.32988 0.95623 0.97602 0.0
C1033 C 0.30447 0.96708 0.95298 0.0
C1034 C 0.27092 0.91793 0.96852 0.0
C1035 C 0.28732 0.91963 0.99888 0.0
N1036 N 0.34295 0.91646 0.02084 0.0
N1037 N 0.25347 0.95076 0.92183 0.0
C1038 C 0.3211 0.92994 0.99833 0.0
C1039 C 0.27627 0.94497 0.94654 0.0
N1040 N 0.3605 0.97187 0.97824 0.0
N1041 N 0.24747 0.89345 0.96345 0.0
H1042 H 0.25665 0.96899 0.90403 0.0
H1043 H 0.23082 0.93765 0.91946 0.0
H1044 H 0.24279 0.87546 0.9819 0.0
H1045 H 0.23524 0.88967 0.94073 0.0
H1046 H 0.37791 0.96696 0.99707 0.0
H1047 H 0.36898 0.98974 0.96132 0.0
H1048 H 0.36865 0.9218 0.02149 0.0
H1049 H 0.33478 0.898 0.03756 0.0
C1050 C 0.26084 0.96123 0.19949 0.0
C1051 C 0.26913 0.99518 0.19304 0.0
C1052 C 0.27686 1.00251 0.25231 0.0
C1053 C 0.25802 0.97234 0.25814 0.0
N1054 N 0.22276 0.92898 0.23241 0.0
N1055 N 0.28502 0.04933 0.21462 0.0
C1056 C 0.24714 0.9532 0.23046 0.0
C1057 C 0.27667 0.01655 0.21989 0.0
N1058 N 0.26746 0.93628 0.17752 0.0
N1059 N 0.29672 0.01632 0.27659 0.0
H1060 H 0.28701 0.05975 0.19079 0.0
H1061 H 0.28798 0.0663 0.23413 0.0
H1062 H 0.30171 1.0042 0.29914 0.0
H1063 H 0.31207 0.03718 0.27232 0.0
H1064 H 0.2622 0.91122 0.18307 0.0
H1065 H 0.28261 0.93977 0.1567 0.0
H1066 H 0.2145 0.91604 0.2113 0.0
H1067 H 0.2073 0.92541 0.25301 0.0
C1068 C 0.24461 0.00878 0.48902 0.0
C1069 C 0.22562 0.02812 0.46693 0.0
C1070 C 0.22086 0.07039 0.51081 0.0
C1071 C 0.23481 0.04664 0.53314 0.0
N1072 N 0.23914 0.9876 0.54392 0.0
N1073 N 0.19265 0.07786 0.45704 0.0
C1074 C 0.23972 0.01386 0.52243 0.0
C1075 C 0.21236 0.05928 0.47784 0.0
N1076 N 0.27004 0.98874 0.47889 0.0
N1077 N 0.21596 0.1025 0.52084 0.0
H1078 H 0.18739 0.07034 0.43265 0.0
H1079 H 0.18057 0.0996 0.4646 0.0
H1080 H 0.22149 0.11006 0.54516 0.0
H1081 H 0.20798 0.12141 0.50474 0.0
H1082 H 0.28581 0.97687 0.49616 0.0
H1083 H 0.27747 0.98736 0.45411 0.0
H1084 H 0.2409 0.96296 0.53585 0.0
H1085 H 0.23407 0.99077 0.5691 0.0
C1086 C 0.18849 0.04669 0.76663 0.0
C1087 C 0.1992 0.02542 0.79268 0.0
C1088 C 0.19832 0.97714 0.75624 0.0
C1089 C 0.19806 1.0 0.72924 0.0
N1090 N 0.17487 0.05105 0.70753 0.0
N1091 N 0.18862 0.97039 0.81551 0.0
C1092 C 0.18624 0.03301 0.7342 0.0
C1093 C 0.19546 0.99036 0.78869 0.0
N1094 N 0.18172 0.07946 0.77301 0.0
N1095 N 0.2031 0.94377 0.75126 0.0
H1096 H 0.18339 0.98051 0.83887 0.0
H1097 H 0.18391 0.94477 0.81363 0.0
H1098 H 0.20161 0.93283 0.72779 0.0
H1099 H 0.20831 0.92705 0.77059 0.0
H1100 H 0.17655 0.09722 0.75467 0.0
H1101 H 0.18067 0.08845 0.79739 0.0
H1102 H 0.16525 0.07515 0.70915 0.0
H1103 H 0.17313 0.04034 0.68385 0.0
C1104 C 1.00435 0.25892 1.00058 0.0
C1105 C 0.99446 0.27335 0.96974 0.0
C1106 C 0.05503 0.28431 0.95882 0.0
C1107 C 0.06254 0.27661 0.99259 0.0
N1108 N 0.04131 0.26801 0.04736 0.0
N1109 N 0.01193 0.29856 0.91775 0.0
C1110 C 0.03609 0.26762 0.01396 0.0
C1111 C 0.02036 0.28587 0.94826 0.0
N1112 N 0.98447 0.23619 0.01674 0.0
N1113 N 0.08079 0.28956 0.93699 0.0
H1114 H 0.98753 0.29672 0.9081 0.0
H1115 H 0.02893 0.31132 0.90251 0.0
H1116 H 0.10597 0.28969 0.94469 0.0
H1117 H 0.07727 0.2921 0.91136 0.0
H1118 H 0.99215 0.22468 0.03875 0.0
H1119 H 0.96384 0.22454 0.00547 0.0
H1120 H 0.02359 0.25973 0.06439 0.0
H1121 H 0.06159 0.28126 0.05747 0.0
C1122 C 0.47533 0.16244 0.01507 0.0
C1123 C 0.47837 0.16063 0.98005 0.0
C1124 C 0.53901 0.15944 0.98997 0.0
C1125 C 0.53437 0.17731 0.0202 0.0
N1126 N 0.49582 0.1902 0.06453 0.0
N1127 N 0.51514 0.14682 0.93541 0.0
C1128 C 0.50166 0.17741 0.03375 0.0
C1129 C 0.51099 0.15523 0.96789 0.0
N1130 N 0.45166 0.14351 0.03056 0.0
N1131 N 0.56877 0.14424 0.98381 0.0
H1132 H 0.4945 0.14287 0.91961 0.0
H1133 H 0.53883 0.14562 0.92455 0.0
H1134 H 0.58816 0.14394 1.00143 0.0
H1135 H 0.57136 0.12751 0.96419 0.0
H1136 H 0.4501 0.1417 0.05649 0.0
H1137 H 0.43688 0.12695 0.01668 0.0
H1138 H 0.4715 0.19153 0.07426 0.0
H1139 H 0.51527 0.19984 0.07935 0.0
C1140 C 0.04899 0.22329 0.286 0.0
C1141 C 0.01896 0.20469 0.29015 0.0
C1142 C 0.98623 0.25555 0.29537 0.0
C1143 C 0.01459 0.27374 0.28348 0.0
N1144 N 0.074 0.27651 0.27046 0.0
N1145 N 0.96489 0.2023 0.31619 0.0
C1146 C 0.04658 0.25824 0.28044 0.0
C1147 C 0.98945 0.22078 0.30085 0.0
N1148 N 0.0794 0.20775 0.28887 0.0
N1149 N 0.95608 0.27118 0.29997 0.0
H1150 H 0.96808 0.17678 0.32104 0.0
H1151 H 0.94341 0.21248 0.32683 0.0
H1152 H 0.95305 0.29691 0.29719 0.0
H1153 H 0.93363 0.25854 0.30499 0.0
H1154 H 0.10248 0.22024 0.28794 0.0
H1155 H 0.08132 0.1829 0.29672 0.0
H1156 H 0.09697 0.26596 0.26401 0.0
H1157 H 0.07327 0.30229 0.26673 0.0
C1158 C 0.02169 0.76604 0.43754 0.0
C1159 C 0.02749 0.77215 0.47222 0.0
C1160 C 0.99703 0.7199 0.48508 0.0
C1161 C 0.98662 0.71767 0.45181 0.0
N1162 N 1.00117 0.72669 0.39534 0.0
N1163 N 0.00918 0.75943 0.52861 0.0
C1164 C 1.00405 0.73639 0.42772 0.0
C1165 C 0.01248 0.74999 0.49611 0.0
N1166 N 0.02995 0.7898 0.41439 0.0
N1167 N 0.98786 0.69503 0.5066 0.0
H1168 H 0.01401 0.78384 0.53652 0.0
H1169 H 0.99675 0.74489 0.5464 0.0
H1170 H 0.97447 0.67405 0.49817 0.0
H1171 H 0.99608 0.69408 0.5313 0.0
H1172 H 0.02874 0.78596 0.38887 0.0
H1173 H 0.03549 0.81451 0.42062 0.0
H1174 H 0.0145 0.7376 0.37579 0.0
H1175 H 0.98658 0.70576 0.389 0.0
C1176 C 0.52335 0.72167 0.44722 0.0
C1177 C 0.52502 0.70105 0.4763 0.0
C1178 C 0.46621 0.68575 0.46682 0.0
C1179 C 0.46204 0.71498 0.44742 0.0
N1180 N 0.48768 0.75525 0.4108 0.0
N1181 N 0.49486 0.66446 0.51509 0.0
C1182 C 0.49114 0.73094 0.43452 0.0
C1183 C 0.49581 0.68262 0.48616 0.0
N1184 N 0.55223 0.73139 0.43139 0.0
N1185 N 0.44161 0.66178 0.46753 0.0
H1186 H 0.51455 0.66347 0.53224 0.0
H1187 H 0.47271 0.6534 0.5239 0.0
H1188 H 0.42059 0.6631 0.45183 0.0
H1189 H 0.44441 0.63915 0.48031 0.0
H1190 H 0.55241 0.74459 0.40895 0.0
H1191 H 0.57597 0.723 0.43876 0.0
H1192 H 0.50733 0.77086 0.40312 0.0
H1193 H 0.46445 0.75987 0.39938 0.0
C1194 C 0.03683 0.75875 0.17273 0.0
C1195 C 0.06132 0.7694 0.19655 0.0
C1196 C 0.06949 0.71079 0.21289 0.0
C1197 C 0.0382 0.70252 0.19734 0.0
N1198 N 1.00345 0.71281 0.14946 0.0
N1199 N 0.10626 0.75496 0.23398 0.0
C1200 C 0.02552 0.72474 0.17282 0.0
C1201 C 0.07988 0.74507 0.21443 0.0
N1202 N 0.0233 0.78191 0.15151 0.0
N1203 N 0.08977 0.68586 0.22456 0.0
H1204 H 0.11557 0.77943 0.23337 0.0
H1205 H 0.11827 0.73926 0.25099 0.0
H1206 H 0.08456 0.66069 0.21979 0.0
H1207 H 0.11362 0.69001 0.23469 0.0
H1208 H 1.00314 0.77731 0.13549 0.0
H1209 H 0.03268 0.80635 0.15021 0.0
H1210 H 0.99352 0.72699 0.13002 0.0
H1211 H 0.99748 0.68735 0.14798 0.0
C1212 C 0.47296 0.26841 0.71293 0.0
C1213 C 0.48744 0.23657 0.70788 0.0
C1214 C 0.53577 0.26163 0.68017 0.0
C1215 C 0.52565 0.29233 0.69376 0.0
N1216 N 0.4773 0.32772 0.69987 0.0
N1217 N 0.5215 0.203 0.67166 0.0
C1218 C 0.49134 0.29674 0.7018 0.0
C1219 C 0.51491 0.23332 0.68564 0.0
N1220 N 0.44356 0.27181 0.73002 0.0
N1221 N 0.56641 0.25952 0.66516 0.0
H1222 H 0.50566 0.18237 0.67566 0.0
H1223 H 0.54052 0.19917 0.65432 0.0
H1224 H 0.58115 0.28094 0.66114 0.0
H1225 H 0.57709 0.23713 0.65743 0.0
H1226 H 0.43449 0.2949 0.73781 0.0
H1227 H 0.42859 0.25145 0.73692 0.0
H1228 H 0.45182 0.33208 0.70413 0.0
H1229 H 0.49074 0.34812 0.69023 0.0
C1230 C 0.51711 0.48103 0.76692 0.0
C1231 C 0.54705 0.4682 0.75347 0.0
C1232 C 0.5436 0.50877 0.70722 0.0
C1233 C 0.513 0.52085 0.72079 0.0
N1234 N 0.46399 0.50678 0.75337 0.0
N1235 N 0.58458 0.4645 0.70645 0.0
C1236 C 0.49763 0.50315 0.74748 0.0
C1237 C 0.55944 0.48088 0.72257 0.0
N1238 N 0.50672 0.47114 0.79786 0.0
N1239 N 0.55702 0.52281 0.67912 0.0
H1240 H 0.59659 0.44405 0.71684 0.0
H1241 H 0.59203 0.46964 0.68209 0.0
H1242 H 0.54268 0.53601 0.66178 0.0
H1243 H 0.58204 0.51973 0.6721 0.0
H1244 H 0.48608 0.48168 0.80979 0.0
H1245 H 0.52088 0.45487 0.81269 0.0
H1246 H 0.45096 0.49265 0.77109 0.0
H1247 H 0.44866 0.52104 0.73763 0.0
C1248 C 0.76062 0.31888 0.04042 0.0
C1249 C 0.7885 0.29798 0.04595 0.0
C1250 C 0.75705 0.24947 0.0261 0.0
C1251 C 0.72926 0.2703 0.01828 0.0
N1252 N 0.7002 0.32088 0.03446 0.0
N1253 N 0.80565 0.24272 0.06199 0.0
C1254 C 0.72955 0.30397 0.03047 0.0
C1255 C 0.7835 0.26291 0.04561 0.0
N1256 N 0.76376 0.35258 0.04428 0.0
N1257 N 0.76007 0.21818 0.01286 0.0
H1258 H 0.82518 0.2528 0.07639 0.0
H1259 H 0.80205 0.21691 0.06416 0.0
H1260 H 0.74362 0.20845 0.99505 0.0
H1261 H 0.78149 0.20359 0.01646 0.0
H1262 H 0.74496 0.36948 0.03765 0.0
H1263 H 0.78628 0.36347 0.0521 0.0
H1264 H 0.69889 0.34441 0.04547 0.0
H1265 H 0.67691 0.30938 0.03101 0.0
C1266 C 0.01042 0.49014 0.33967 0.0
C1267 C 0.03709 0.48964 0.31615 0.0
C1268 C 0.04522 0.54896 0.32725 0.0
C1269 C 0.0117 0.55126 0.33957 0.0
N1270 N 0.96337 0.52212 0.36085 0.0
N1271 N 0.08248 0.51966 0.28975 0.0
C1272 C 0.99486 0.52114 0.34753 0.0
C1273 C 0.05548 0.51942 0.31066 0.0
N1274 N 1.00121 0.46161 0.35575 0.0
N1275 N 0.06724 0.57468 0.33196 0.0
H1276 H 0.09151 0.49787 0.27872 0.0
H1277 H 0.09469 0.54168 0.28243 0.0
H1278 H 0.06122 0.59444 0.34747 0.0
H1279 H 0.09244 0.57376 0.32483 0.0
H1280 H 0.98378 0.46173 0.37507 0.0
H1281 H 0.01553 0.43998 0.35379 0.0
H1282 H 0.94833 0.50079 0.36372 0.0
H1283 H 0.95223 0.54476 0.36749 0.0
C1284 C 0.75748 0.76617 0.55081 0.0
C1285 C 0.72689 0.77142 0.53296 0.0
C1286 C 0.75702 0.80912 0.49424 0.0
C1287 C 0.78791 0.79752 0.50754 0.0
N1288 N 0.81567 0.78359 0.55906 0.0
N1289 N 0.69593 0.80432 0.4927 0.0
C1290 C 0.78765 0.7818 0.53929 0.0
C1291 C 0.72615 0.79529 0.5064 0.0
N1292 N 0.75828 0.74505 0.57763 0.0
N1293 N 0.75755 0.83462 0.47145 0.0
H1294 H 0.6729 0.79753 0.50328 0.0
H1295 H 0.6934 0.81831 0.47092 0.0
H1296 H 0.77992 0.84706 0.46529 0.0
H1297 H 0.73621 0.84577 0.46134 0.0
H1298 H 0.78055 0.7367 0.58857 0.0
H1299 H 0.73675 0.73457 0.58816 0.0
H1300 H 0.8165 0.77478 0.58352 0.0
H1301 H 0.83658 0.79811 0.55242 0.0
C1302 C 0.77186 0.43069 0.5334 0.0
C1303 C 0.79783 0.44283 0.55401 0.0
C1304 C 0.83484 0.44945 0.50625 0.0
C1305 C 0.80607 0.44699 0.4852 0.0
N1306 N 0.74669 0.43177 0.47882 0.0
N1307 N 0.85757 0.4434 0.56238 0.0
C1308 C 0.77461 0.43548 0.49853 0.0
C1309 C 0.83074 0.4454 0.54109 0.0
N1310 N 0.74528 0.41393 0.54726 0.0
N1311 N 0.86553 0.45724 0.49306 0.0
H1312 H 0.85418 0.43852 0.58777 0.0
H1313 H 0.88259 0.44306 0.55474 0.0
H1314 H 0.86939 0.45831 0.4675 0.0
H1315 H 0.88671 0.46335 0.50723 0.0
H1316 H 0.72657 0.40199 0.53332 0.0
H1317 H 0.74463 0.40841 0.57272 0.0
H1318 H 0.72252 0.42848 0.48839 0.0
H1319 H 0.74684 0.43333 0.45303 0.0
C1320 C 0.81815 0.52767 0.76126 0.0
C1321 C 0.80399 0.55421 0.74248 0.0
C1322 C 0.75977 0.56105 0.78404 0.0
C1323 C 0.77107 0.53168 0.80058 0.0
N1324 N 0.81251 0.48802 0.80707 0.0
N1325 N 0.77431 0.6064 0.74645 0.0
C1326 C 0.801 0.51542 0.79002 0.0
C1327 C 0.77877 0.57423 0.75709 0.0
N1328 N 0.8487 0.51537 0.75186 0.0
N1329 N 0.72995 0.5754 0.79291 0.0
H1330 H 0.79085 0.61791 0.72975 0.0
H1331 H 0.75773 0.62296 0.75771 0.0
H1332 H 0.71484 0.56612 0.8121 0.0
H1333 H 0.71871 0.59457 0.77922 0.0
H1334 H 0.86203 0.49718 0.76489 0.0
H1335 H 0.86219 0.52601 0.73212 0.0
H1336 H 0.83219 0.47303 0.79909 0.0
H1337 H 0.80155 0.47926 0.82901 0.0
C1338 C 0.74532 0.54524 0.05472 0.0
C1339 C 0.72664 0.51856 0.06953 0.0
C1340 C 0.67931 0.53131 0.0324 0.0
C1341 C 0.70215 0.54868 0.01149 0.0
N1342 N 0.75043 0.58473 0.00845 0.0
N1343 N 0.6726 0.49107 0.07734 0.0
C1344 C 0.733 0.56022 0.02498 0.0
C1345 C 0.69225 0.5136 0.06048 0.0
N1346 N 0.77457 0.55594 0.06937 0.0
N1347 N 0.64561 0.53248 0.02564 0.0
H1348 H 0.68107 0.47726 0.09771 0.0
H1349 H 0.64822 0.48457 0.07007 0.0
H1350 H 0.63597 0.54801 0.00696 0.0
H1351 H 0.6272 0.52192 0.04087 0.0
H1352 H 0.78956 0.57547 0.06054 0.0
H1353 H 0.78281 0.54625 0.09209 0.0
H1354 H 0.77442 0.59315 0.0149 0.0
H1355 H 0.7399 0.59716 0.98797 0.0
C1356 C 0.69161 0.43684 0.28741 0.0
C1357 C 0.71165 0.42604 0.31441 0.0
C1358 C 0.74303 0.38889 0.27778 0.0
C1359 C 0.7299 0.40718 0.2504 0.0
N1360 N 0.68412 0.43907 0.22731 0.0
N1361 N 0.74106 0.37904 0.33784 0.0
C1362 C 0.70106 0.42758 0.25468 0.0
C1363 C 0.73219 0.39744 0.31049 0.0
N1364 N 0.66491 0.45722 0.29364 0.0
N1365 N 0.76656 0.36475 0.27248 0.0
H1366 H 0.7306 0.38355 0.36118 0.0
H1367 H 0.75564 0.35753 0.33704 0.0
H1368 H 0.77439 0.3581 0.24866 0.0
H1369 H 0.77794 0.35087 0.29131 0.0
H1370 H 0.64882 0.46682 0.27551 0.0
H1371 H 0.65818 0.4632 0.31805 0.0
H1372 H 0.66391 0.45547 0.22802 0.0
H1373 H 0.69002 0.43099 0.20342 0.0
C1374 C 0.42817 0.73162 0.75774 0.0
C1375 C 0.45456 0.72452 0.78063 0.0
C1376 C 0.46723 0.78453 0.78267 0.0
C1377 C 0.4492 0.78901 0.75207 0.0
N1378 N 0.41073 0.76607 0.7112 0.0
N1379 N 0.49182 0.74593 0.82287 0.0
C1380 C 0.42856 0.76258 0.74011 0.0
C1381 C 0.47159 0.75169 0.79585 0.0
N1382 N 0.40196 0.70969 0.75413 0.0
N1383 N 0.47912 0.8118 0.79958 0.0
H1384 H 0.49139 0.72311 0.83566 0.0
H1385 H 0.50885 0.76338 0.83243 0.0
H1386 H 0.47486 0.83617 0.79148 0.0
H1387 H 0.49015 0.81068 0.82312 0.0
H1388 H 0.38053 0.71538 0.74018 0.0
H1389 H 0.39944 0.6885 0.76924 0.0
H1390 H 0.39794 0.7461 0.70025 0.0
H1391 H 0.41084 0.78793 0.69695 0.0
C1392 C 0.07102 0.06095 0.33425 0.0
C1393 C 0.07454 0.07523 0.30185 0.0
C1394 C 0.13692 0.06379 0.30643 0.0
C1395 C 0.13358 0.04837 0.33832 0.0
N1396 N 0.09814 0.04698 0.3872 0.0
N1397 N 0.11555 0.10672 0.26954 0.0
C1398 C 0.10073 0.05145 0.35355 0.0
C1399 C 0.10891 0.08146 0.29165 0.0
N1400 N 0.03955 0.05603 0.34689 0.0
N1401 N 0.1664 0.0616 0.28926 0.0
H1402 H 0.0971 0.12331 0.2614 0.0
H1403 H 0.13996 0.11417 0.26329 0.0
H1404 H 0.18805 0.05061 0.29878 0.0
H1405 H 0.16842 0.06892 0.26436 0.0
H1406 H 0.03499 0.04263 0.36876 0.0
H1407 H 0.01782 0.06313 0.33416 0.0
H1408 H 0.07611 0.05134 0.40046 0.0
H1409 H 0.11922 0.04335 0.40241 0.0
C1410 C 0.15239 0.90677 0.54813 0.0
C1411 C 0.14106 0.87679 0.56572 0.0
C1412 C 0.15612 0.90819 0.61804 0.0
C1413 C 0.16557 0.93807 0.60017 0.0
N1414 N 0.16203 0.96736 0.54852 0.0
N1415 N 0.12522 0.85502 0.61961 0.0
C1416 C 0.15959 0.93776 0.56546 0.0
C1417 C 0.14092 0.87937 0.60134 0.0
N1418 N 0.15966 0.90552 0.5149 0.0
N1419 N 0.16256 0.90699 0.65144 0.0
H1420 H 0.11303 0.83461 0.60877 0.0
H1421 H 0.12132 0.85683 0.64519 0.0
H1422 H 0.17087 0.92801 0.66456 0.0
H1423 H 0.16098 0.8851 0.66557 0.0
H1424 H 0.17062 0.92537 0.50186 0.0
H1425 H 0.16024 0.88362 0.50124 0.0
H1426 H 0.15498 0.97014 0.52361 0.0
H1427 H 0.16754 0.98981 0.56073 0.0
C1428 C 0.4117 0.93402 0.83243 0.0
C1429 C 0.40234 0.91552 0.80348 0.0
C1430 C 0.3421 0.93349 0.81374 0.0
C1431 C 0.35167 0.95422 0.841 0.0
N1432 N 0.39426 0.96305 0.88312 0.0
N1433 N 0.35552 0.88609 0.77823 0.0
C1434 C 0.38617 0.95092 0.85231 0.0
C1435 C 0.3665 0.91171 0.79799 0.0
N1436 N 0.44496 0.93576 0.84104 0.0
N1437 N 0.31005 0.93549 0.80151 0.0
H1438 H 0.37202 0.86845 0.76844 0.0
H1439 H 0.33016 0.87988 0.77516 0.0
H1440 H 0.29167 0.95035 0.81238 0.0
H1441 H 0.30253 0.92439 0.7792 0.0
H1442 H 0.4545 0.95072 0.86008 0.0
H1443 H 0.46353 0.92279 0.82832 0.0
H1444 H 0.41753 0.9598 0.89466 0.0
H1445 H 0.37622 0.97322 0.89886 0.0
C1446 C 0.35114 0.06758 0.02486 0.0
C1447 C 0.34449 0.06456 0.05968 0.0
C1448 C 0.36437 0.12524 0.064 0.0
C1449 C 0.37134 0.12793 0.02918 0.0
N1450 N 0.38222 0.09508 0.98001 0.0
N1451 N 0.35669 0.08949 0.11306 0.0
C1452 C 0.36832 0.09693 0.011 0.0
C1453 C 0.35481 0.0932 0.07927 0.0
N1454 N 0.33901 0.04364 0.00396 0.0
N1455 N 0.36574 0.15353 0.08278 0.0
H1456 H 0.35221 0.06653 0.12482 0.0
H1457 H 0.36659 0.10774 0.12884 0.0
H1458 H 0.37342 0.17648 0.07292 0.0
H1459 H 0.35709 0.15461 0.10723 0.0
H1460 H 0.33906 0.04683 0.97826 0.0
H1461 H 0.32622 0.02237 0.01223 0.0
H1462 H 0.38383 0.07279 0.96671 0.0
H1463 H 0.3957 0.11485 0.96938 0.0
C1464 C 0.12122 0.92945 0.14842 0.0
C1465 C 0.10442 0.89776 0.14424 0.0
C1466 C 0.1571 0.88143 0.11327 0.0
C1467 C 0.17512 0.91155 0.1228 0.0
N1468 N 0.1739 0.95696 0.16173 0.0
N1469 N 0.11103 0.84143 0.12462 0.0
C1470 C 0.15705 0.93318 0.14409 0.0
C1471 C 0.12374 0.87307 0.1271 0.0
N1472 N 0.10268 0.95683 0.15666 0.0
N1473 N 0.17198 0.86034 0.09125 0.0
H1474 H 0.08699 0.83522 0.13309 0.0
H1475 H 0.12495 0.82131 0.11585 0.0
H1476 H 0.19655 0.86418 0.08279 0.0
H1477 H 0.15943 0.8401 0.08044 0.0
H1478 H 0.11331 0.98051 0.15951 0.0
H1479 H 0.07637 0.95631 0.15713 0.0
H1480 H 0.1624 0.96987 0.18111 0.0
H1481 H 0.19985 0.96038 0.16016 0.0
C1482 C 0.31729 0.89677 0.42729 0.0
C1483 C 0.31286 0.89795 0.39243 0.0
C1484 C 0.3369 0.83921 0.39133 0.0
C1485 C 0.33538 0.83638 0.42669 0.0
N1486 N 0.31685 0.86232 0.47673 0.0
N1487 N 0.32096 0.86923 0.3404 0.0
C1488 C 0.32387 0.86543 0.44393 0.0
C1489 C 0.32369 0.86874 0.37432 0.0
N1490 N 0.31575 0.92583 0.4448 0.0
N1491 N 0.35178 0.81409 0.37394 0.0
H1492 H 0.31477 0.89101 0.3273 0.0
H1493 H 0.32388 0.84818 0.32551 0.0
H1494 H 0.36022 0.79224 0.38554 0.0
H1495 H 0.35733 0.81558 0.34864 0.0
H1496 H 0.3214 0.92741 0.47014 0.0
H1497 H 0.31324 0.94882 0.43273 0.0
H1498 H 0.30567 0.88124 0.49048 0.0
H1499 H 0.31794 0.839 0.4882 0.0
C1500 C 0.33756 0.11768 0.6904 0.0
C1501 C 0.33794 0.10243 0.65855 0.0
C1502 C 0.40036 0.11586 0.65601 0.0
C1503 C 0.4009 0.1305 0.68832 0.0
N1504 N 0.36324 0.15449 0.73078 0.0
N1505 N 0.36749 0.10415 0.60612 0.0
C1506 C 0.36757 0.13436 0.70372 0.0
C1507 C 0.36879 0.10676 0.64004 0.0
N1508 N 0.30878 0.11573 0.70884 0.0
N1509 N 0.43004 0.1109 0.63976 0.0
H1510 H 0.34475 0.10092 0.59329 0.0
H1511 H 0.38788 0.10969 0.59072 0.0
H1512 H 0.45328 0.11866 0.64924 0.0
H1513 H 0.43165 0.09696 0.61793 0.0
H1514 H 0.30785 0.12119 0.73419 0.0
H1515 H 0.28611 0.10659 0.69934 0.0
H1516 H 0.33965 0.16222 0.73888 0.0
H1517 H 0.38198 0.16636 0.74405 0.0
C1518 C 0.17156 0.17278 0.93635 0.0
C1519 C 0.18682 0.178 0.96821 0.0
C1520 C 0.21467 0.12204 0.96138 0.0
C1521 C 0.2016 0.11777 0.92859 0.0
N1522 N 0.16848 0.14148 0.88412 0.0
N1523 N 0.2236 0.15742 0.01062 0.0
C1524 C 0.18026 0.14397 0.91605 0.0
C1525 C 0.2085 0.15233 0.98037 0.0
N1526 N 0.14761 0.19489 0.92592 0.0
N1527 N 0.23408 0.09718 0.97423 0.0
H1528 H 0.22031 0.17904 0.02473 0.0
H1529 H 0.24244 0.14263 0.0204 0.0
H1530 H 0.23792 0.07426 0.9628 0.0
H1531 H 0.24651 0.09865 0.99673 0.0
H1532 H 0.13223 0.19114 0.90518 0.0
H1533 H 0.14207 0.21655 0.93924 0.0
H1534 H 0.15686 0.161 0.87134 0.0
H1535 H 0.17143 0.11985 0.86995 0.0
C1536 C 0.10263 0.3283 0.15107 0.0
C1537 C 0.13596 0.3357 0.14009 0.0
C1538 C 0.14047 0.37356 0.19036 0.0
C1539 C 0.10829 0.36311 0.20328 0.0
N1540 N 0.06124 0.32584 0.19593 0.0
N1541 N 0.18825 0.36303 0.15315 0.0
C1542 C 0.09035 0.33899 0.18354 0.0
C1543 C 0.1552 0.35781 0.16092 0.0
N1544 N 0.08239 0.31067 0.12981 0.0
N1545 N 0.15735 0.39869 0.20634 0.0
H1546 H 0.19892 0.35332 0.13153 0.0
H1547 H 0.20525 0.37535 0.16877 0.0
H1548 H 0.14875 0.40908 0.22853 0.0
H1549 H 0.17877 0.41037 0.19672 0.0
H1550 H 0.05775 0.30385 0.1348 0.0
H1551 H 0.0899 0.30457 0.10572 0.0
H1552 H 0.04824 0.30624 0.18495 0.0
H1553 H 0.05071 0.3333 0.21832 0.0
C1554 C 0.60091 0.18995 0.84742 0.0
C1555 C 0.58117 0.16033 0.84786 0.0
C1556 C 0.60835 0.14768 0.90342 0.0
C1557 C 0.61996 0.18124 0.90743 0.0
N1558 N 0.62897 0.23447 0.87779 0.0
N1559 N 0.56982 0.10851 0.8768 0.0
C1560 C 0.61731 0.2022 0.87766 0.0
C1561 C 0.58632 0.13851 0.87597 0.0
N1562 N 0.6044 0.20635 0.81772 0.0
N1563 N 0.62036 0.12361 0.9245 0.0
H1564 H 0.55664 0.09935 0.85636 0.0
H1565 H 0.56841 0.09349 0.89807 0.0
H1566 H 0.63758 0.1289 0.9435 0.0
H1567 H 0.61598 0.0981 0.92102 0.0
H1568 H 0.62203 0.22532 0.8136 0.0
H1569 H 0.5922 0.19816 0.79612 0.0
H1570 H 0.62578 0.25091 0.85797 0.0
H1571 H 0.63996 0.24665 0.89777 0.0
C1572 C 0.9625 0.85928 0.35411 0.0
C1573 C 0.95085 0.85138 0.32076 0.0
C1574 C 0.89537 0.84287 0.34841 0.0
C1575 C 0.9106 0.8373 0.38082 0.0
N1576 N 0.96136 0.84584 0.41318 0.0
N1577 N 0.90078 0.84106 0.28793 0.0
C1578 C 0.94505 0.84693 0.38326 0.0
C1579 C 0.91559 0.84491 0.31837 0.0
N1580 N 0.98788 0.88212 0.35836 0.0
N1581 N 0.86155 0.84863 0.3465 0.0
H1582 H 0.91364 0.84429 0.26563 0.0
H1583 H 0.87596 0.83282 0.28503 0.0
H1584 H 0.84687 0.85172 0.36778 0.0
H1585 H 0.8493 0.85525 0.32443 0.0
H1586 H 0.99571 0.89046 0.38176 0.0
H1587 H 0.99684 0.89694 0.33882 0.0
H1588 H 0.98731 0.8495 0.41526 0.0
H1589 H 0.94922 0.8412 0.43564 0.0
C1590 C 0.88869 0.19488 0.10289 0.0
C1591 C 0.89886 0.22931 0.10738 0.0
C1592 C 0.91248 0.21235 0.1677 0.0
C1593 C 0.90824 0.17763 0.16108 0.0
N1594 N 0.88578 0.13683 0.12322 0.0
N1595 N 0.90833 0.27053 0.15174 0.0
C1596 C 0.89381 0.16962 0.12902 0.0
C1597 C 0.90691 0.23782 0.14199 0.0
N1598 N 0.87135 0.18643 0.07461 0.0
N1599 N 0.92394 0.22148 0.1985 0.0
H1600 H 0.91604 0.2904 0.13689 0.0
H1601 H 0.90341 0.27792 0.17611 0.0
H1602 H 0.92557 0.20472 0.21836 0.0
H1603 H 0.93242 0.24546 0.20442 0.0
H1604 H 0.86021 0.16319 0.07047 0.0
H1605 H 0.86445 0.2036 0.05637 0.0
H1606 H 0.88086 0.12683 0.09979 0.0
H1607 H 0.8851 0.11909 0.14243 0.0
C1608 C 0.41538 0.62053 0.61859 0.0
C1609 C 0.41164 0.635 0.65113 0.0
C1610 C 0.38564 0.68399 0.62384 0.0
C1611 C 0.39148 0.67112 0.59064 0.0
N1612 N 0.40545 0.62308 0.55812 0.0
N1613 N 0.37968 0.67298 0.68351 0.0
C1614 C 0.40379 0.63779 0.5887 0.0
C1615 C 0.39192 0.664 0.65318 0.0
N1616 N 0.4316 0.59059 0.61646 0.0
N1617 N 0.37659 0.71651 0.62811 0.0
H1618 H 0.38408 0.65858 0.70483 0.0
H1619 H 0.36185 0.69173 0.68656 0.0
H1620 H 0.37407 0.73329 0.60877 0.0
H1621 H 0.37489 0.728 0.65122 0.0
H1622 H 0.43908 0.57967 0.59423 0.0
H1623 H 0.43815 0.5769 0.63775 0.0
H1624 H 0.41208 0.59824 0.55433 0.0
H1625 H 0.3977 0.63539 0.53644 0.0
C1626 C 0.07007 0.66929 0.42613 0.0
C1627 C 0.08473 0.70173 0.42404 0.0
C1628 C 0.0794 0.69674 0.36153 0.0
C1629 C 0.06064 0.66655 0.36339 0.0
N1630 N 0.03326 0.62759 0.40127 0.0
N1631 N 0.09089 0.74956 0.38808 0.0
C1632 C 0.05476 0.65383 0.39684 0.0
C1633 C 0.08631 0.716 0.39108 0.0
N1634 N 0.07104 0.65267 0.45587 0.0
N1635 N 0.08933 0.70821 0.33101 0.0
H1636 H 0.08841 0.76445 0.40896 0.0
H1637 H 0.09013 0.76249 0.36547 0.0
H1638 H 0.08425 0.69497 0.30913 0.0
H1639 H 0.10546 0.72869 0.32804 0.0
H1640 H 0.06426 0.62754 0.45844 0.0
H1641 H 0.08089 0.66356 0.47743 0.0
H1642 H 0.02414 0.6202 0.4245 0.0
H1643 H 0.02349 0.61429 0.38145 0.0
C1644 C 0.46549 0.29693 0.88445 0.0
C1645 C 0.45606 0.31693 0.91248 0.0
C1646 C 0.47894 0.36671 0.8805 0.0
C1647 C 0.48937 0.3466 0.85284 0.0
N1648 N 0.48844 0.29251 0.82792 0.0
N1649 N 0.44718 0.37275 0.93242 0.0
C1650 C 0.4808 0.31183 0.85464 0.0
C1651 C 0.46062 0.35239 0.90875 0.0
N1652 N 0.45993 0.26315 0.88662 0.0
N1653 N 0.4872 0.39996 0.88015 0.0
H1654 H 0.43577 0.36338 0.95395 0.0
H1655 H 0.4456 0.39864 0.92998 0.0
H1656 H 0.49741 0.41178 0.85922 0.0
H1657 H 0.48513 0.41551 0.90077 0.0
H1658 H 0.46606 0.24573 0.8686 0.0
H1659 H 0.45042 0.25164 0.90796 0.0
H1660 H 0.48505 0.26699 0.82729 0.0
H1661 H 0.49813 0.30178 0.80567 0.0
C1662 C 0.61445 0.60735 0.87043 0.0
C1663 C 0.63155 0.57838 0.8589 0.0
C1664 C 0.58271 0.56853 0.82011 0.0
C1665 C 0.56747 0.59937 0.8287 0.0
N1666 N 0.57158 0.64999 0.86085 0.0
N1667 N 0.63395 0.53539 0.81727 0.0
C1668 C 0.58429 0.61921 0.85358 0.0
C1669 C 0.61606 0.56031 0.83206 0.0
N1670 N 0.62635 0.62305 0.89827 0.0
N1671 N 0.56512 0.54674 0.80045 0.0
H1672 H 0.65881 0.53027 0.82407 0.0
H1673 H 0.62574 0.52245 0.79624 0.0
H1674 H 0.54104 0.55212 0.79148 0.0
H1675 H 0.57306 0.52243 0.79576 0.0
H1676 H 0.61329 0.6418 0.91058 0.0
H1677 H 0.64871 0.6159 0.91001 0.0
H1678 H 0.58431 0.66761 0.87533 0.0
H1679 H 0.5487 0.65832 0.85103 0.0
C1680 C 0.70007 0.32522 0.13177 0.0
C1681 C 0.69111 0.35959 0.12551 0.0
C1682 C 0.64019 0.33676 0.09641 0.0
C1683 C 0.65258 0.30231 0.09695 0.0
N1684 N 0.69611 0.26606 0.11814 0.0
N1685 N 0.64945 0.3967 0.10344 0.0
C1686 C 0.68308 0.2975 0.11539 0.0
C1687 C 0.66034 0.36472 0.10836 0.0
N1688 N 0.72375 0.31866 0.15569 0.0
N1689 N 0.60909 0.34504 0.08476 0.0
H1690 H 0.66303 0.41754 0.11165 0.0
H1691 H 0.62683 0.40231 0.09141 0.0
H1692 H 0.59038 0.32847 0.07688 0.0
H1693 H 0.59038 0.32847 0.07688 0.0
H1694 H 0.7293 0.29472 0.16439 0.0
H1695 H 0.73485 0.33743 0.16998 0.0
H1696 H 0.72095 0.26154 0.12527 0.0
H1697 H 0.68234 0.24444 0.11282 0.0
C1698 C 0.89785 0.43099 0.38036 0.0
C1699 C 0.86452 0.42645 0.36664 0.0
C1700 C 0.89134 0.39164 0.32266 0.0
C1701 C 0.92491 0.39594 0.33682 0.0
N1702 N 0.95327 0.40671 0.38875 0.0
N1703 N 0.83032 0.39254 0.33067 0.0
C1704 C 0.9261 0.41184 0.36846 0.0
C1705 C 0.86162 0.40318 0.34014 0.0
N1706 N 0.9032 0.4538 0.40504 0.0
N1707 N 0.887 0.37912 0.29122 0.0
H1708 H 0.80833 0.40155 0.34135 0.0
H1709 H 0.82659 0.37221 0.31493 0.0
H1710 H 0.9061 0.37312 0.27492 0.0
H1711 H 0.86378 0.37834 0.27906 0.0
H1712 H 0.92727 0.46078 0.41306 0.0
H1713 H 0.88396 0.46725 0.41605 0.0
H1714 H 0.95417 0.41484 0.4134 0.0
H1715 H 0.97303 0.39097 0.38229 0.0
C1716 C 0.86759 0.59764 0.55138 0.0
C1717 C 0.85588 0.60502 0.58406 0.0
C1718 C 0.85934 0.66625 0.56768 0.0
C1719 C 0.8725 0.65902 0.53542 0.0
N1720 N 0.89982 0.61612 0.50306 0.0
N1721 N 0.85144 0.6483 0.62536 0.0
C1722 C 0.87981 0.62416 0.52937 0.0
C1723 C 0.85552 0.63999 0.59267 0.0
N1724 N 0.86585 0.56542 0.5404 0.0
N1725 N 0.84824 0.69776 0.57431 0.0
H1726 H 0.84953 0.63017 0.6441 0.0
H1727 H 0.85384 0.67273 0.63413 0.0
H1728 H 0.84932 0.71725 0.55705 0.0
H1729 H 0.83501 0.7037 0.59584 0.0
H1730 H 0.86991 0.55888 0.51562 0.0
H1731 H 0.85812 0.54566 0.55569 0.0
H1732 H 0.90824 0.59187 0.49873 0.0
H1733 H 0.91147 0.63423 0.48817 0.0
C1734 C 0.7036 0.445 0.71618 0.0
C1735 C 0.72588 0.43265 0.69146 0.0
C1736 C 0.68803 0.38239 0.68629 0.0
C1737 C 0.66481 0.39517 0.71058 0.0
N1738 N 0.65174 0.44125 0.74747 0.0
N1739 N 0.73849 0.39026 0.65174 0.0
C1740 C 0.67305 0.4272 0.72505 0.0
C1741 C 0.71812 0.4011 0.67681 0.0
N1742 N 0.71206 0.47475 0.73108 0.0
N1743 N 0.68057 0.35276 0.67093 0.0
H1744 H 0.76088 0.40266 0.64562 0.0
H1745 H 0.73337 0.36982 0.63655 0.0
H1746 H 0.65671 0.34175 0.67168 0.0
H1747 H 0.69766 0.33909 0.65703 0.0
H1748 H 0.69788 0.48696 0.74895 0.0
H1749 H 0.73506 0.48683 0.72665 0.0
H1750 H 0.65081 0.46679 0.75226 0.0
H1751 H 0.63404 0.4279 0.76102 0.0
C1752 C 0.86408 0.40881 0.91693 0.0
C1753 C 0.85303 0.38535 0.9419 0.0
C1754 C 0.80714 0.42634 0.95508 0.0
C1755 C 0.81636 0.44826 0.92846 0.0
N1756 N 0.85274 0.45791 0.8819 0.0
N1757 N 0.80875 0.37048 0.97965 0.0
C1758 C 0.84476 0.43869 0.90898 0.0
C1759 C 0.82312 0.39397 0.95952 0.0
N1760 N 0.89338 0.40246 0.90046 0.0
N1761 N 0.78224 0.43643 0.97613 0.0
H1762 H 0.81877 0.34672 0.98277 0.0
H1763 H 0.78463 0.37295 0.9891 0.0
H1764 H 0.77079 0.45978 0.97376 0.0
H1765 H 0.77462 0.42304 0.99712 0.0
H1766 H 0.90561 0.41988 0.8853 0.0
H1767 H 0.90611 0.3798 0.9029 0.0
H1768 H 0.86982 0.45082 0.86366 0.0
H1769 H 0.841 0.48077 0.87719 0.0
C1770 C 0.85991 0.56812 0.16026 0.0
C1771 C 0.84414 0.54264 0.1805 0.0
C1772 C 0.89529 0.54772 0.21781 0.0
C1773 C 0.91023 0.57402 0.19878 0.0
N1774 N 0.90409 0.61053 0.15163 0.0
N1775 N 0.84445 0.51607 0.23382 0.0
C1776 C 0.89159 0.58431 0.16986 0.0
C1777 C 0.86115 0.53512 0.21101 0.0
N1778 N 0.84389 0.57751 0.13161 0.0
N1779 N 0.91464 0.53398 0.24214 0.0
H1780 H 0.81943 0.5087 0.23067 0.0
H1781 H 0.85433 0.50915 0.2567 0.0
H1782 H 0.94037 0.53921 0.24412 0.0
H1783 H 0.90595 0.51688 0.25946 0.0
H1784 H 0.85499 0.59157 0.11267 0.0
H1785 H 0.81889 0.57089 0.12702 0.0
H1786 H 0.89078 0.62291 0.13295 0.0
H1787 H 0.92803 0.62063 0.15601 0.0
C1788 C 0.63485 0.59956 0.44224 0.0
C1789 C 0.65608 0.62228 0.46023 0.0
C1790 C 0.70192 0.57969 0.4553 0.0
C1791 C 0.68176 0.55797 0.43499 0.0
N1792 N 0.62895 0.55057 0.4062 0.0
N1793 N 0.71099 0.63552 0.47923 0.0
C1794 C 0.64825 0.56914 0.42755 0.0
C1795 C 0.69003 0.61268 0.46488 0.0
N1796 N 0.60132 0.60662 0.43994 0.0
N1797 N 0.73253 0.56849 0.466 0.0
H1798 H 0.70365 0.65986 0.48501 0.0
H1799 H 0.736 0.63113 0.48385 0.0
H1800 H 0.74007 0.54377 0.46346 0.0
H1801 H 0.75004 0.58253 0.47923 0.0
H1802 H 0.58333 0.58979 0.43098 0.0
H1803 H 0.59135 0.62907 0.44864 0.0
H1804 H 0.60619 0.55881 0.39622 0.0
H1805 H 0.63658 0.5273 0.39735 0.0
C1806 C 0.59984 0.83518 0.65172 0.0
C1807 C 0.57418 0.8581 0.64259 0.0
C1808 C 0.58301 0.84146 0.58266 0.0
C1809 C 0.6049 0.81545 0.59229 0.0
N1810 N 0.64661 0.80047 0.63342 0.0
N1811 N 0.56345 0.89674 0.59637 0.0
C1812 C 0.61716 0.81645 0.62619 0.0
C1813 C 0.57215 0.86547 0.60709 0.0
N1814 N 0.60919 0.83252 0.68435 0.0
N1815 N 0.57185 0.84325 0.55053 0.0
H1816 H 0.56296 0.91728 0.6123 0.0
H1817 H 0.5631 0.90359 0.57127 0.0
H1818 H 0.58009 0.82685 0.53219 0.0
H1819 H 0.55308 0.85976 0.54289 0.0
H1820 H 0.62502 0.8139 0.69346 0.0
H1821 H 0.60077 0.84896 0.70253 0.0
H1822 H 0.65889 0.80178 0.65635 0.0
H1823 H 0.66062 0.7887 0.61499 0.0
loop_
_geom_bond_atom_site_label_1
_geom_bond_atom_site_label_2
_geom_bond_distance
_geom_bond_site_symmetry_2
_ccdc_geom_bond_type
Sc0 O3 2.025 . S
Sc0 O10 2.105 . S
Sc0 O13 2.105 . S
Sc0 O16 2.105 . S
Sc0 O19 2.105 . S
Sc1 O3 2.025 . S
Sc1 O11 2.105 . S
Sc1 O15 2.105 1_455 S
Sc1 O17 2.105 . S
Sc1 O21 2.105 1_455 S
Sc2 O3 2.025 1_655 S
Sc2 O12 2.105 . S
Sc2 O14 2.105 . S
Sc2 O18 2.105 . S
Sc2 O20 2.105 1_655 S
O3 Sc0 2.025 . S
O3 Sc1 2.025 . S
O3 Sc2 2.025 1_455 S
C4 O10 1.268 . S
C4 O20 1.268 . S
C5 O11 1.268 . S
C5 O19 1.268 . S
C6 O12 1.268 . S
C6 O21 1.268 . S
C7 O13 1.268 . S
C7 O17 1.268 . S
C8 O14 1.268 1_455 S
C8 O16 1.268 . S
C9 O15 1.268 . S
C9 O18 1.268 . S
O10 Sc0 2.105 . S
O10 C4 1.268 . S
O11 Sc1 2.105 . S
O11 C5 1.268 . S
O12 Sc2 2.105 . S
O12 C6 1.268 . S
O13 Sc0 2.105 . S
O13 C7 1.268 . S
O14 Sc2 2.105 . S
O14 C8 1.268 1_655 S
O15 Sc1 2.105 1_655 S
O15 C9 1.268 . S
O16 Sc0 2.105 . S
O16 C8 1.268 . S
O17 Sc1 2.105 . S
O17 C7 1.268 . S
O18 Sc2 2.105 . S
O18 C9 1.268 . S
O19 Sc0 2.105 . S
O19 C5 1.268 . S
O20 Sc2 2.105 1_455 S
O20 C4 1.268 . S
O21 Sc1 2.105 1_655 S
O21 C6 1.268 . S
Sc22 O25 2.025 . S
Sc22 O32 2.105 . S
Sc22 O35 2.105 . S
Sc22 O38 2.105 . S
Sc22 O41 2.105 . S
Sc23 O25 2.025 . S
Sc23 O33 2.105 . S
Sc23 O37 2.105 . S
Sc23 O39 2.105 . S
Sc23 O43 2.105 . S
Sc24 O25 2.025 . S
Sc24 O34 2.105 . S
Sc24 O36 2.105 . S
Sc24 O40 2.105 . S
Sc24 O42 2.105 . S
O25 Sc22 2.025 . S
O25 Sc23 2.025 . S
O25 Sc24 2.025 . S
C26 O32 1.268 . S
C26 O42 1.268 . S
C27 O33 1.268 . S
C27 O41 1.268 . S
C28 O34 1.268 . S
C28 O43 1.268 . S
C29 O35 1.268 . S
C29 O39 1.268 . S
C30 O36 1.268 . S
C30 O38 1.268 . S
C31 O37 1.268 . S
C31 O40 1.268 . S
O32 Sc22 2.105 . S
O32 C26 1.268 . S
O33 Sc23 2.105 . S
O33 C27 1.268 . S
O34 Sc24 2.105 . S
O34 C28 1.268 . S
O35 Sc22 2.105 . S
O35 C29 1.268 . S
O36 Sc24 2.105 . S
O36 C30 1.268 . S
O37 Sc23 2.105 . S
O37 C31 1.268 . S
O38 Sc22 2.105 . S
O38 C30 1.268 . S
O39 Sc23 2.105 . S
O39 C29 1.268 . S
O40 Sc24 2.105 . S
O40 C31 1.268 . S
O41 Sc22 2.105 . S
O41 C27 1.268 . S
O42 Sc24 2.105 . S
O42 C26 1.268 . S
O43 Sc23 2.105 . S
O43 C28 1.268 . S
Sc44 O47 2.025 . S
Sc44 O54 2.105 . S
Sc44 O57 2.105 . S
Sc44 O60 2.105 . S
Sc44 O63 2.105 . S
Sc45 O47 2.025 . S
Sc45 O55 2.105 . S
Sc45 O59 2.105 . S
Sc45 O61 2.105 . S
Sc45 O65 2.105 . S
Sc46 O47 2.025 . S
Sc46 O56 2.105 . S
Sc46 O58 2.105 . S
Sc46 O62 2.105 . S
Sc46 O64 2.105 . S
O47 Sc44 2.025 . S
O47 Sc45 2.025 . S
O47 Sc46 2.025 . S
C48 O54 1.268 . S
C48 O64 1.268 . S
C49 O55 1.268 . S
C49 O63 1.268 . S
C50 O56 1.268 . S
C50 O65 1.268 . S
C51 O57 1.268 . S
C51 O61 1.268 . S
C52 O58 1.268 . S
C52 O60 1.268 . S
C53 O59 1.268 . S
C53 O62 1.268 . S
O54 Sc44 2.105 . S
O54 C48 1.268 . S
O55 Sc45 2.105 . S
O55 C49 1.268 . S
O56 Sc46 2.105 . S
O56 C50 1.268 . S
O57 Sc44 2.105 . S
O57 C51 1.268 . S
O58 Sc46 2.105 . S
O58 C52 1.268 . S
O59 Sc45 2.105 . S
O59 C53 1.268 . S
O60 Sc44 2.105 . S
O60 C52 1.268 . S
O61 Sc45 2.105 . S
O61 C51 1.268 . S
O62 Sc46 2.105 . S
O62 C53 1.268 . S
O63 Sc44 2.105 . S
O63 C49 1.268 . S
O64 Sc46 2.105 . S
O64 C48 1.268 . S
O65 Sc45 2.105 . S
O65 C50 1.268 . S
Sc66 O69 2.025 1_554 S
Sc66 O76 2.105 . S
Sc66 O79 2.105 . S
Sc66 O82 2.105 . S
Sc66 O85 2.105 1_554 S
Sc67 O69 2.025 . S
Sc67 O77 2.105 . S
Sc67 O81 2.105 . S
Sc67 O83 2.105 . S
Sc67 O87 2.105 . S
Sc68 O69 2.025 . S
Sc68 O78 2.105 . S
Sc68 O80 2.105 1_556 S
Sc68 O84 2.105 . S
Sc68 O86 2.105 1_556 S
O69 Sc66 2.025 1_556 S
O69 Sc67 2.025 . S
O69 Sc68 2.025 . S
C70 O76 1.268 . S
C70 O86 1.268 . S
C71 O77 1.268 . S
C71 O85 1.268 . S
C72 O78 1.268 . S
C72 O87 1.268 . S
C73 O79 1.268 1_556 S
C73 O83 1.268 . S
C74 O80 1.268 . S
C74 O82 1.268 . S
C75 O81 1.268 . S
C75 O84 1.268 . S
O76 Sc66 2.105 . S
O76 C70 1.268 . S
O77 Sc67 2.105 . S
O77 C71 1.268 . S
O78 Sc68 2.105 . S
O78 C72 1.268 . S
O79 Sc66 2.105 . S
O79 C73 1.268 1_554 S
O80 Sc68 2.105 1_554 S
O80 C74 1.268 . S
O81 Sc67 2.105 . S
O81 C75 1.268 . S
O82 Sc66 2.105 . S
O82 C74 1.268 . S
O83 Sc67 2.105 . S
O83 C73 1.268 . S
O84 Sc68 2.105 . S
O84 C75 1.268 . S
O85 Sc66 2.105 1_556 S
O85 C71 1.268 . S
O86 Sc68 2.105 1_554 S
O86 C70 1.268 . S
O87 Sc67 2.105 . S
O87 C72 1.268 . S
Sc88 O91 2.025 . S
Sc88 O98 2.105 . S
Sc88 O101 2.105 . S
Sc88 O104 2.105 . S
Sc88 O107 2.105 . S
Sc89 O91 2.025 . S
Sc89 O99 2.105 . S
Sc89 O103 2.105 1_455 S
Sc89 O105 2.105 . S
Sc89 O109 2.105 1_455 S
Sc90 O91 2.025 1_655 S
Sc90 O100 2.105 . S
Sc90 O102 2.105 . S
Sc90 O106 2.105 . S
Sc90 O108 2.105 1_655 S
O91 Sc88 2.025 . S
O91 Sc89 2.025 . S
O91 Sc90 2.025 1_455 S
C92 O98 1.268 . S
C92 O108 1.268 . S
C93 O99 1.268 . S
C93 O107 1.268 . S
C94 O100 1.268 . S
C94 O109 1.268 . S
C95 O101 1.268 . S
C95 O105 1.268 . S
C96 O102 1.268 1_455 S
C96 O104 1.268 . S
C97 O103 1.268 . S
C97 O106 1.268 . S
O98 Sc88 2.105 . S
O98 C92 1.268 . S
O99 Sc89 2.105 . S
O99 C93 1.268 . S
O100 Sc90 2.105 . S
O100 C94 1.268 . S
O101 Sc88 2.105 . S
O101 C95 1.268 . S
O102 Sc90 2.105 . S
O102 C96 1.268 1_655 S
O103 Sc89 2.105 1_655 S
O103 C97 1.268 . S
O104 Sc88 2.105 . S
O104 C96 1.268 . S
O105 Sc89 2.105 . S
O105 C95 1.268 . S
O106 Sc90 2.105 . S
O106 C97 1.268 . S
O107 Sc88 2.105 . S
O107 C93 1.268 . S
O108 Sc90 2.105 1_455 S
O108 C92 1.268 . S
O109 Sc89 2.105 1_655 S
O109 C94 1.268 . S
Sc110 O113 2.025 . S
Sc110 O120 2.105 . S
Sc110 O123 2.105 . S
Sc110 O126 2.105 . S
Sc110 O129 2.105 . S
Sc111 O113 2.025 . S
Sc111 O121 2.105 . S
Sc111 O125 2.105 . S
Sc111 O127 2.105 . S
Sc111 O131 2.105 . S
Sc112 O113 2.025 . S
Sc112 O122 2.105 . S
Sc112 O124 2.105 . S
Sc112 O128 2.105 . S
Sc112 O130 2.105 . S
O113 Sc110 2.025 . S
O113 Sc111 2.025 . S
O113 Sc112 2.025 . S
C114 O120 1.268 . S
C114 O130 1.268 . S
C115 O121 1.268 . S
C115 O129 1.268 . S
C116 O122 1.268 . S
C116 O131 1.268 . S
C117 O123 1.268 . S
C117 O127 1.268 . S
C118 O124 1.268 . S
C118 O126 1.268 . S
C119 O125 1.268 . S
C119 O128 1.268 . S
O120 Sc110 2.105 . S
O120 C114 1.268 . S
O121 Sc111 2.105 . S
O121 C115 1.268 . S
O122 Sc112 2.105 . S
O122 C116 1.268 . S
O123 Sc110 2.105 . S
O123 C117 1.268 . S
O124 Sc112 2.105 . S
O124 C118 1.268 . S
O125 Sc111 2.105 . S
O125 C119 1.268 . S
O126 Sc110 2.105 . S
O126 C118 1.268 . S
O127 Sc111 2.105 . S
O127 C117 1.268 . S
O128 Sc112 2.105 . S
O128 C119 1.268 . S
O129 Sc110 2.105 . S
O129 C115 1.268 . S
O130 Sc112 2.105 . S
O130 C114 1.268 . S
O131 Sc111 2.105 . S
O131 C116 1.268 . S
Sc132 O135 2.025 . S
Sc132 O142 2.105 . S
Sc132 O145 2.105 . S
Sc132 O148 2.105 . S
Sc132 O151 2.105 . S
Sc133 O135 2.025 . S
Sc133 O143 2.105 . S
Sc133 O147 2.105 . S
Sc133 O149 2.105 . S
Sc133 O153 2.105 . S
Sc134 O135 2.025 . S
Sc134 O144 2.105 . S
Sc134 O146 2.105 . S
Sc134 O150 2.105 . S
Sc134 O152 2.105 . S
O135 Sc132 2.025 . S
O135 Sc133 2.025 . S
O135 Sc134 2.025 . S
C136 O142 1.268 . S
C136 O152 1.268 . S
C137 O143 1.268 . S
C137 O151 1.268 . S
C138 O144 1.268 . S
C138 O153 1.268 . S
C139 O145 1.268 . S
C139 O149 1.268 . S
C140 O146 1.268 . S
C140 O148 1.268 . S
C141 O147 1.268 . S
C141 O150 1.268 . S
O142 Sc132 2.105 . S
O142 C136 1.268 . S
O143 Sc133 2.105 . S
O143 C137 1.268 . S
O144 Sc134 2.105 . S
O144 C138 1.268 . S
O145 Sc132 2.105 . S
O145 C139 1.268 . S
O146 Sc134 2.105 . S
O146 C140 1.268 . S
O147 Sc133 2.105 . S
O147 C141 1.268 . S
O148 Sc132 2.105 . S
O148 C140 1.268 . S
O149 Sc133 2.105 . S
O149 C139 1.268 . S
O150 Sc134 2.105 . S
O150 C141 1.268 . S
O151 Sc132 2.105 . S
O151 C137 1.268 . S
O152 Sc134 2.105 . S
O152 C136 1.268 . S
O153 Sc133 2.105 . S
O153 C138 1.268 . S
Sc154 O157 2.025 . S
Sc154 O164 2.105 . S
Sc154 O167 2.105 . S
Sc154 O170 2.105 . S
Sc154 O173 2.105 . S
Sc155 O157 2.025 . S
Sc155 O165 2.105 . S
Sc155 O169 2.105 1_554 S
Sc155 O171 2.105 . S
Sc155 O175 2.105 1_554 S
Sc156 O157 2.025 1_556 S
Sc156 O166 2.105 . S
Sc156 O168 2.105 . S
Sc156 O172 2.105 . S
Sc156 O174 2.105 1_556 S
O157 Sc154 2.025 . S
O157 Sc155 2.025 . S
O157 Sc156 2.025 1_554 S
C158 O164 1.268 . S
C158 O174 1.268 . S
C159 O165 1.268 . S
C159 O173 1.268 . S
C160 O166 1.268 . S
C160 O175 1.268 . S
C161 O167 1.268 . S
C161 O171 1.268 . S
C162 O168 1.268 1_554 S
C162 O170 1.268 . S
C163 O169 1.268 . S
C163 O172 1.268 . S
O164 Sc154 2.105 . S
O164 C158 1.268 . S
O165 Sc155 2.105 . S
O165 C159 1.268 . S
O166 Sc156 2.105 . S
O166 C160 1.268 . S
O167 Sc154 2.105 . S
O167 C161 1.268 . S
O168 Sc156 2.105 . S
O168 C162 1.268 1_556 S
O169 Sc155 2.105 1_556 S
O169 C163 1.268 . S
O170 Sc154 2.105 . S
O170 C162 1.268 . S
O171 Sc155 2.105 . S
O171 C161 1.268 . S
O172 Sc156 2.105 . S
O172 C163 1.268 . S
O173 Sc154 2.105 . S
O173 C159 1.268 . S
O174 Sc156 2.105 1_554 S
O174 C158 1.268 . S
O175 Sc155 2.105 1_556 S
O175 C160 1.268 . S
Sc176 O179 2.025 . S
Sc176 O186 2.105 . S
Sc176 O189 2.105 . S
Sc176 O192 2.105 . S
Sc176 O195 2.105 . S
Sc177 O179 2.025 . S
Sc177 O187 2.105 . S
Sc177 O191 2.105 1_545 S
Sc177 O193 2.105 . S
Sc177 O197 2.105 1_545 S
Sc178 O179 2.025 1_565 S
Sc178 O188 2.105 . S
Sc178 O190 2.105 . S
Sc178 O194 2.105 . S
Sc178 O196 2.105 1_565 S
O179 Sc176 2.025 . S
O179 Sc177 2.025 . S
O179 Sc178 2.025 1_545 S
C180 O186 1.268 . S
C180 O196 1.268 . S
C181 O187 1.268 . S
C181 O195 1.268 . S
C182 O188 1.268 . S
C182 O197 1.268 . S
C183 O189 1.268 . S
C183 O193 1.268 . S
C184 O190 1.268 1_545 S
C184 O192 1.268 . S
C185 O191 1.268 . S
C185 O194 1.268 . S
O186 Sc176 2.105 . S
O186 C180 1.268 . S
O187 Sc177 2.105 . S
O187 C181 1.268 . S
O188 Sc178 2.105 . S
O188 C182 1.268 . S
O189 Sc176 2.105 . S
O189 C183 1.268 . S
O190 Sc178 2.105 . S
O190 C184 1.268 1_565 S
O191 Sc177 2.105 1_565 S
O191 C185 1.268 . S
O192 Sc176 2.105 . S
O192 C184 1.268 . S
O193 Sc177 2.105 . S
O193 C183 1.268 . S
O194 Sc178 2.105 . S
O194 C185 1.268 . S
O195 Sc176 2.105 . S
O195 C181 1.268 . S
O196 Sc178 2.105 1_545 S
O196 C180 1.268 . S
O197 Sc177 2.105 1_565 S
O197 C182 1.268 . S
Sc198 O201 2.025 . S
Sc198 O208 2.105 1_565 S
Sc198 O211 2.105 . S
Sc198 O214 2.105 1_565 S
Sc198 O217 2.105 . S
Sc199 O201 2.025 . S
Sc199 O209 2.105 . S
Sc199 O213 2.105 . S
Sc199 O215 2.105 . S
Sc199 O219 2.105 . S
Sc200 O201 2.025 1_545 S
Sc200 O210 2.105 . S
Sc200 O212 2.105 . S
Sc200 O216 2.105 1_545 S
Sc200 O218 2.105 . S
O201 Sc198 2.025 . S
O201 Sc199 2.025 . S
O201 Sc200 2.025 1_565 S
C202 O208 1.268 . S
C202 O218 1.268 . S
C203 O209 1.268 . S
C203 O217 1.268 . S
C204 O210 1.268 1_565 S
C204 O219 1.268 . S
C205 O211 1.268 . S
C205 O215 1.268 . S
C206 O212 1.268 . S
C206 O214 1.268 . S
C207 O213 1.268 . S
C207 O216 1.268 . S
O208 Sc198 2.105 1_545 S
O208 C202 1.268 . S
O209 Sc199 2.105 . S
O209 C203 1.268 . S
O210 Sc200 2.105 . S
O210 C204 1.268 1_545 S
O211 Sc198 2.105 . S
O211 C205 1.268 . S
O212 Sc200 2.105 . S
O212 C206 1.268 . S
O213 Sc199 2.105 . S
O213 C207 1.268 . S
O214 Sc198 2.105 1_545 S
O214 C206 1.268 . S
O215 Sc199 2.105 . S
O215 C205 1.268 . S
O216 Sc200 2.105 1_565 S
O216 C207 1.268 . S
O217 Sc198 2.105 . S
O217 C203 1.268 . S
O218 Sc200 2.105 . S
O218 C202 1.268 . S
O219 Sc199 2.105 . S
O219 C204 1.268 . S
Sc220 O223 2.025 . S
Sc220 O230 2.105 . S
Sc220 O233 2.105 . S
Sc220 O236 2.105 . S
Sc220 O239 2.105 . S
Sc221 O223 2.025 . S
Sc221 O231 2.105 . S
Sc221 O235 2.105 1_565 S
Sc221 O237 2.105 . S
Sc221 O241 2.105 1_565 S
Sc222 O223 2.025 1_545 S
Sc222 O232 2.105 . S
Sc222 O234 2.105 . S
Sc222 O238 2.105 . S
Sc222 O240 2.105 1_545 S
O223 Sc220 2.025 . S
O223 Sc221 2.025 . S
O223 Sc222 2.025 1_565 S
C224 O230 1.268 . S
C224 O240 1.268 . S
C225 O231 1.268 . S
C225 O239 1.268 . S
C226 O232 1.268 . S
C226 O241 1.268 . S
C227 O233 1.268 . S
C227 O237 1.268 . S
C228 O234 1.268 1_565 S
C228 O236 1.268 . S
C229 O235 1.268 . S
C229 O238 1.268 . S
O230 Sc220 2.105 . S
O230 C224 1.268 . S
O231 Sc221 2.105 . S
O231 C225 1.268 . S
O232 Sc222 2.105 . S
O232 C226 1.268 . S
O233 Sc220 2.105 . S
O233 C227 1.268 . S
O234 Sc222 2.105 . S
O234 C228 1.268 1_545 S
O235 Sc221 2.105 1_545 S
O235 C229 1.268 . S
O236 Sc220 2.105 . S
O236 C228 1.268 . S
O237 Sc221 2.105 . S
O237 C227 1.268 . S
O238 Sc222 2.105 . S
O238 C229 1.268 . S
O239 Sc220 2.105 . S
O239 C225 1.268 . S
O240 Sc222 2.105 1_565 S
O240 C224 1.268 . S
O241 Sc221 2.105 1_545 S
O241 C226 1.268 . S
Sc242 O245 2.025 1_565 S
Sc242 O252 2.105 . S
Sc242 O255 2.105 . S
Sc242 O258 2.105 1_565 S
Sc242 O261 2.105 . S
Sc243 O245 2.025 . S
Sc243 O253 2.105 1_545 S
Sc243 O257 2.105 . S
Sc243 O259 2.105 1_545 S
Sc243 O263 2.105 . S
Sc244 O245 2.025 . S
Sc244 O254 2.105 . S
Sc244 O256 2.105 . S
Sc244 O260 2.105 . S
Sc244 O262 2.105 . S
O245 Sc242 2.025 1_545 S
O245 Sc243 2.025 . S
O245 Sc244 2.025 . S
C246 O252 1.268 1_545 S
C246 O262 1.268 . S
C247 O253 1.268 . S
C247 O261 1.268 . S
C248 O254 1.268 . S
C248 O263 1.268 . S
C249 O255 1.268 . S
C249 O259 1.268 . S
C250 O256 1.268 . S
C250 O258 1.268 . S
C251 O257 1.268 . S
C251 O260 1.268 . S
O252 Sc242 2.105 . S
O252 C246 1.268 1_565 S
O253 Sc243 2.105 1_565 S
O253 C247 1.268 . S
O254 Sc244 2.105 . S
O254 C248 1.268 . S
O255 Sc242 2.105 . S
O255 C249 1.268 . S
O256 Sc244 2.105 . S
O256 C250 1.268 . S
O257 Sc243 2.105 . S
O257 C251 1.268 . S
O258 Sc242 2.105 1_545 S
O258 C250 1.268 . S
O259 Sc243 2.105 1_565 S
O259 C249 1.268 . S
O260 Sc244 2.105 . S
O260 C251 1.268 . S
O261 Sc242 2.105 . S
O261 C247 1.268 . S
O262 Sc244 2.105 . S
O262 C246 1.268 . S
O263 Sc243 2.105 . S
O263 C248 1.268 . S
Sc264 O267 2.025 . S
Sc264 O274 2.105 1_556 S
Sc264 O277 2.105 . S
Sc264 O280 2.105 1_556 S
Sc264 O283 2.105 . S
Sc265 O267 2.025 . S
Sc265 O275 2.105 . S
Sc265 O279 2.105 . S
Sc265 O281 2.105 . S
Sc265 O285 2.105 . S
Sc266 O267 2.025 1_554 S
Sc266 O276 2.105 . S
Sc266 O278 2.105 . S
Sc266 O282 2.105 1_554 S
Sc266 O284 2.105 . S
O267 Sc264 2.025 . S
O267 Sc265 2.025 . S
O267 Sc266 2.025 1_556 S
C268 O274 1.268 . S
C268 O284 1.268 . S
C269 O275 1.268 . S
C269 O283 1.268 . S
C270 O276 1.268 1_556 S
C270 O285 1.268 . S
C271 O277 1.268 . S
C271 O281 1.268 . S
C272 O278 1.268 . S
C272 O280 1.268 . S
C273 O279 1.268 . S
C273 O282 1.268 . S
O274 Sc264 2.105 1_554 S
O274 C268 1.268 . S
O275 Sc265 2.105 . S
O275 C269 1.268 . S
O276 Sc266 2.105 . S
O276 C270 1.268 1_554 S
O277 Sc264 2.105 . S
O277 C271 1.268 . S
O278 Sc266 2.105 . S
O278 C272 1.268 . S
O279 Sc265 2.105 . S
O279 C273 1.268 . S
O280 Sc264 2.105 1_554 S
O280 C272 1.268 . S
O281 Sc265 2.105 . S
O281 C271 1.268 . S
O282 Sc266 2.105 1_556 S
O282 C273 1.268 . S
O283 Sc264 2.105 . S
O283 C269 1.268 . S
O284 Sc266 2.105 . S
O284 C268 1.268 . S
O285 Sc265 2.105 . S
O285 C270 1.268 . S
Sc286 O289 2.025 . S
Sc286 O296 2.105 1_655 S
Sc286 O299 2.105 . S
Sc286 O302 2.105 1_655 S
Sc286 O305 2.105 . S
Sc287 O289 2.025 . S
Sc287 O297 2.105 . S
Sc287 O301 2.105 . S
Sc287 O303 2.105 . S
Sc287 O307 2.105 . S
Sc288 O289 2.025 1_455 S
Sc288 O298 2.105 . S
Sc288 O300 2.105 . S
Sc288 O304 2.105 1_455 S
Sc288 O306 2.105 . S
O289 Sc286 2.025 . S
O289 Sc287 2.025 . S
O289 Sc288 2.025 1_655 S
C290 O296 1.268 . S
C290 O306 1.268 . S
C291 O297 1.268 . S
C291 O305 1.268 . S
C292 O298 1.268 1_655 S
C292 O307 1.268 . S
C293 O299 1.268 . S
C293 O303 1.268 . S
C294 O300 1.268 . S
C294 O302 1.268 . S
C295 O301 1.268 . S
C295 O304 1.268 . S
O296 Sc286 2.105 1_455 S
O296 C290 1.268 . S
O297 Sc287 2.105 . S
O297 C291 1.268 . S
O298 Sc288 2.105 . S
O298 C292 1.268 1_455 S
O299 Sc286 2.105 . S
O299 C293 1.268 . S
O300 Sc288 2.105 . S
O300 C294 1.268 . S
O301 Sc287 2.105 . S
O301 C295 1.268 . S
O302 Sc286 2.105 1_455 S
O302 C294 1.268 . S
O303 Sc287 2.105 . S
O303 C293 1.268 . S
O304 Sc288 2.105 1_655 S
O304 C295 1.268 . S
O305 Sc286 2.105 . S
O305 C291 1.268 . S
O306 Sc288 2.105 . S
O306 C290 1.268 . S
O307 Sc287 2.105 . S
O307 C292 1.268 . S
Sc308 O311 2.025 . S
Sc308 O318 2.105 . S
Sc308 O321 2.105 . S
Sc308 O324 2.105 . S
Sc308 O327 2.105 . S
Sc309 O311 2.025 . S
Sc309 O319 2.105 . S
Sc309 O323 2.105 . S
Sc309 O325 2.105 . S
Sc309 O329 2.105 . S
Sc310 O311 2.025 . S
Sc310 O320 2.105 . S
Sc310 O322 2.105 . S
Sc310 O326 2.105 . S
Sc310 O328 2.105 . S
O311 Sc308 2.025 . S
O311 Sc309 2.025 . S
O311 Sc310 2.025 . S
C312 O318 1.268 . S
C312 O328 1.268 . S
C313 O319 1.268 . S
C313 O327 1.268 . S
C314 O320 1.268 . S
C314 O329 1.268 . S
C315 O321 1.268 . S
C315 O325 1.268 . S
C316 O322 1.268 . S
C316 O324 1.268 . S
C317 O323 1.268 . S
C317 O326 1.268 . S
O318 Sc308 2.105 . S
O318 C312 1.268 . S
O319 Sc309 2.105 . S
O319 C313 1.268 . S
O320 Sc310 2.105 . S
O320 C314 1.268 . S
O321 Sc308 2.105 . S
O321 C315 1.268 . S
O322 Sc310 2.105 . S
O322 C316 1.268 . S
O323 Sc309 2.105 . S
O323 C317 1.268 . S
O324 Sc308 2.105 . S
O324 C316 1.268 . S
O325 Sc309 2.105 . S
O325 C315 1.268 . S
O326 Sc310 2.105 . S
O326 C317 1.268 . S
O327 Sc308 2.105 . S
O327 C313 1.268 . S
O328 Sc310 2.105 . S
O328 C312 1.268 . S
O329 Sc309 2.105 . S
O329 C314 1.268 . S
Sc330 O333 2.025 . S
Sc330 O340 2.105 . S
Sc330 O343 2.105 . S
Sc330 O346 2.105 . S
Sc330 O349 2.105 . S
Sc331 O333 2.025 . S
Sc331 O341 2.105 . S
Sc331 O345 2.105 1_655 S
Sc331 O347 2.105 . S
Sc331 O351 2.105 1_655 S
Sc332 O333 2.025 1_455 S
Sc332 O342 2.105 . S
Sc332 O344 2.105 . S
Sc332 O348 2.105 . S
Sc332 O350 2.105 1_455 S
O333 Sc330 2.025 . S
O333 Sc331 2.025 . S
O333 Sc332 2.025 1_655 S
C334 O340 1.268 . S
C334 O350 1.268 . S
C335 O341 1.268 . S
C335 O349 1.268 . S
C336 O342 1.268 . S
C336 O351 1.268 . S
C337 O343 1.268 . S
C337 O347 1.268 . S
C338 O344 1.268 1_655 S
C338 O346 1.268 . S
C339 O345 1.268 . S
C339 O348 1.268 . S
O340 Sc330 2.105 . S
O340 C334 1.268 . S
O341 Sc331 2.105 . S
O341 C335 1.268 . S
O342 Sc332 2.105 . S
O342 C336 1.268 . S
O343 Sc330 2.105 . S
O343 C337 1.268 . S
O344 Sc332 2.105 . S
O344 C338 1.268 1_455 S
O345 Sc331 2.105 1_455 S
O345 C339 1.268 . S
O346 Sc330 2.105 . S
O346 C338 1.268 . S
O347 Sc331 2.105 . S
O347 C337 1.268 . S
O348 Sc332 2.105 . S
O348 C339 1.268 . S
O349 Sc330 2.105 . S
O349 C335 1.268 . S
O350 Sc332 2.105 1_655 S
O350 C334 1.268 . S
O351 Sc331 2.105 1_455 S
O351 C336 1.268 . S
Sc352 O355 2.025 . S
Sc352 O362 2.105 . S
Sc352 O365 2.105 . S
Sc352 O368 2.105 . S
Sc352 O371 2.105 . S
Sc353 O355 2.025 . S
Sc353 O363 2.105 . S
Sc353 O367 2.105 . S
Sc353 O369 2.105 . S
Sc353 O373 2.105 . S
Sc354 O355 2.025 . S
Sc354 O364 2.105 . S
Sc354 O366 2.105 . S
Sc354 O370 2.105 . S
Sc354 O372 2.105 . S
O355 Sc352 2.025 . S
O355 Sc353 2.025 . S
O355 Sc354 2.025 . S
C356 O362 1.268 . S
C356 O372 1.268 . S
C357 O363 1.268 . S
C357 O371 1.268 . S
C358 O364 1.268 . S
C358 O373 1.268 . S
C359 O365 1.268 . S
C359 O369 1.268 . S
C360 O366 1.268 . S
C360 O368 1.268 . S
C361 O367 1.268 . S
C361 O370 1.268 . S
O362 Sc352 2.105 . S
O362 C356 1.268 . S
O363 Sc353 2.105 . S
O363 C357 1.268 . S
O364 Sc354 2.105 . S
O364 C358 1.268 . S
O365 Sc352 2.105 . S
O365 C359 1.268 . S
O366 Sc354 2.105 . S
O366 C360 1.268 . S
O367 Sc353 2.105 . S
O367 C361 1.268 . S
O368 Sc352 2.105 . S
O368 C360 1.268 . S
O369 Sc353 2.105 . S
O369 C359 1.268 . S
O370 Sc354 2.105 . S
O370 C361 1.268 . S
O371 Sc352 2.105 . S
O371 C357 1.268 . S
O372 Sc354 2.105 . S
O372 C356 1.268 . S
O373 Sc353 2.105 . S
O373 C358 1.268 . S
Sc374 O377 2.025 . S
Sc374 O384 2.105 . S
Sc374 O387 2.105 . S
Sc374 O390 2.105 . S
Sc374 O393 2.105 . S
Sc375 O377 2.025 . S
Sc375 O385 2.105 . S
Sc375 O389 2.105 . S
Sc375 O391 2.105 . S
Sc375 O395 2.105 . S
Sc376 O377 2.025 . S
Sc376 O386 2.105 . S
Sc376 O388 2.105 . S
Sc376 O392 2.105 . S
Sc376 O394 2.105 . S
O377 Sc374 2.025 . S
O377 Sc375 2.025 . S
O377 Sc376 2.025 . S
C378 O384 1.268 . S
C378 O394 1.268 . S
C379 O385 1.268 . S
C379 O393 1.268 . S
C380 O386 1.268 . S
C380 O395 1.268 . S
C381 O387 1.268 . S
C381 O391 1.268 . S
C382 O388 1.268 . S
C382 O390 1.268 . S
C383 O389 1.268 . S
C383 O392 1.268 . S
O384 Sc374 2.105 . S
O384 C378 1.268 . S
O385 Sc375 2.105 . S
O385 C379 1.268 . S
O386 Sc376 2.105 . S
O386 C380 1.268 . S
O387 Sc374 2.105 . S
O387 C381 1.268 . S
O388 Sc376 2.105 . S
O388 C382 1.268 . S
O389 Sc375 2.105 . S
O389 C383 1.268 . S
O390 Sc374 2.105 . S
O390 C382 1.268 . S
O391 Sc375 2.105 . S
O391 C381 1.268 . S
O392 Sc376 2.105 . S
O392 C383 1.268 . S
O393 Sc374 2.105 . S
O393 C379 1.268 . S
O394 Sc376 2.105 . S
O394 C378 1.268 . S
O395 Sc375 2.105 . S
O395 C380 1.268 . S
Sc396 O399 2.025 1_556 S
Sc396 O406 2.105 . S
Sc396 O409 2.105 . S
Sc396 O412 2.105 1_556 S
Sc396 O415 2.105 . S
Sc397 O399 2.025 . S
Sc397 O407 2.105 1_554 S
Sc397 O411 2.105 . S
Sc397 O413 2.105 1_554 S
Sc397 O417 2.105 . S
Sc398 O399 2.025 . S
Sc398 O408 2.105 . S
Sc398 O410 2.105 . S
Sc398 O414 2.105 . S
Sc398 O416 2.105 . S
O399 Sc396 2.025 1_554 S
O399 Sc397 2.025 . S
O399 Sc398 2.025 . S
C400 O406 1.268 1_554 S
C400 O416 1.268 . S
C401 O407 1.268 . S
C401 O415 1.268 . S
C402 O408 1.268 . S
C402 O417 1.268 . S
C403 O409 1.268 . S
C403 O413 1.268 . S
C404 O410 1.268 . S
C404 O412 1.268 . S
C405 O411 1.268 . S
C405 O414 1.268 . S
O406 Sc396 2.105 . S
O406 C400 1.268 1_556 S
O407 Sc397 2.105 1_556 S
O407 C401 1.268 . S
O408 Sc398 2.105 . S
O408 C402 1.268 . S
O409 Sc396 2.105 . S
O409 C403 1.268 . S
O410 Sc398 2.105 . S
O410 C404 1.268 . S
O411 Sc397 2.105 . S
O411 C405 1.268 . S
O412 Sc396 2.105 1_554 S
O412 C404 1.268 . S
O413 Sc397 2.105 1_556 S
O413 C403 1.268 . S
O414 Sc398 2.105 . S
O414 C405 1.268 . S
O415 Sc396 2.105 . S
O415 C401 1.268 . S
O416 Sc398 2.105 . S
O416 C400 1.268 . S
O417 Sc397 2.105 . S
O417 C402 1.268 . S
Sc418 O421 2.025 . S
Sc418 O428 2.105 . S
Sc418 O431 2.105 . S
Sc418 O434 2.105 . S
Sc418 O437 2.105 . S
Sc419 O421 2.025 . S
Sc419 O429 2.105 . S
Sc419 O433 2.105 . S
Sc419 O435 2.105 . S
Sc419 O439 2.105 . S
Sc420 O421 2.025 . S
Sc420 O430 2.105 . S
Sc420 O432 2.105 . S
Sc420 O436 2.105 . S
Sc420 O438 2.105 . S
O421 Sc418 2.025 . S
O421 Sc419 2.025 . S
O421 Sc420 2.025 . S
C422 O428 1.268 . S
C422 O438 1.268 . S
C423 O429 1.268 . S
C423 O437 1.268 . S
C424 O430 1.268 . S
C424 O439 1.268 . S
C425 O431 1.268 . S
C425 O435 1.268 . S
C426 O432 1.268 . S
C426 O434 1.268 . S
C427 O433 1.268 . S
C427 O436 1.268 . S
O428 Sc418 2.105 . S
O428 C422 1.268 . S
O429 Sc419 2.105 . S
O429 C423 1.268 . S
O430 Sc420 2.105 . S
O430 C424 1.268 . S
O431 Sc418 2.105 . S
O431 C425 1.268 . S
O432 Sc420 2.105 . S
O432 C426 1.268 . S
O433 Sc419 2.105 . S
O433 C427 1.268 . S
O434 Sc418 2.105 . S
O434 C426 1.268 . S
O435 Sc419 2.105 . S
O435 C425 1.268 . S
O436 Sc420 2.105 . S
O436 C427 1.268 . S
O437 Sc418 2.105 . S
O437 C423 1.268 . S
O438 Sc420 2.105 . S
O438 C422 1.268 . S
O439 Sc419 2.105 . S
O439 C424 1.268 . S
Sc440 O443 2.025 . S
Sc440 O450 2.105 . S
Sc440 O453 2.105 . S
Sc440 O456 2.105 . S
Sc440 O459 2.105 . S
Sc441 O443 2.025 . S
Sc441 O451 2.105 . S
Sc441 O455 2.105 . S
Sc441 O457 2.105 . S
Sc441 O461 2.105 . S
Sc442 O443 2.025 . S
Sc442 O452 2.105 . S
Sc442 O454 2.105 . S
Sc442 O458 2.105 . S
Sc442 O460 2.105 . S
O443 Sc440 2.025 . S
O443 Sc441 2.025 . S
O443 Sc442 2.025 . S
C444 O450 1.268 . S
C444 O460 1.268 . S
C445 O451 1.268 . S
C445 O459 1.268 . S
C446 O452 1.268 . S
C446 O461 1.268 . S
C447 O453 1.268 . S
C447 O457 1.268 . S
C448 O454 1.268 . S
C448 O456 1.268 . S
C449 O455 1.268 . S
C449 O458 1.268 . S
O450 Sc440 2.105 . S
O450 C444 1.268 . S
O451 Sc441 2.105 . S
O451 C445 1.268 . S
O452 Sc442 2.105 . S
O452 C446 1.268 . S
O453 Sc440 2.105 . S
O453 C447 1.268 . S
O454 Sc442 2.105 . S
O454 C448 1.268 . S
O455 Sc441 2.105 . S
O455 C449 1.268 . S
O456 Sc440 2.105 . S
O456 C448 1.268 . S
O457 Sc441 2.105 . S
O457 C447 1.268 . S
O458 Sc442 2.105 . S
O458 C449 1.268 . S
O459 Sc440 2.105 . S
O459 C445 1.268 . S
O460 Sc442 2.105 . S
O460 C444 1.268 . S
O461 Sc441 2.105 . S
O461 C446 1.268 . S
Sc462 O465 2.025 . S
Sc462 O472 2.105 . S
Sc462 O475 2.105 . S
Sc462 O478 2.105 . S
Sc462 O481 2.105 . S
Sc463 O465 2.025 . S
Sc463 O473 2.105 . S
Sc463 O477 2.105 . S
Sc463 O479 2.105 . S
Sc463 O483 2.105 . S
Sc464 O465 2.025 . S
Sc464 O474 2.105 . S
Sc464 O476 2.105 . S
Sc464 O480 2.105 . S
Sc464 O482 2.105 . S
O465 Sc462 2.025 . S
O465 Sc463 2.025 . S
O465 Sc464 2.025 . S
C466 O472 1.268 . S
C466 O482 1.268 . S
C467 O473 1.268 . S
C467 O481 1.268 . S
C468 O474 1.268 . S
C468 O483 1.268 . S
C469 O475 1.268 . S
C469 O479 1.268 . S
C470 O476 1.268 . S
C470 O478 1.268 . S
C471 O477 1.268 . S
C471 O480 1.268 . S
O472 Sc462 2.105 . S
O472 C466 1.268 . S
O473 Sc463 2.105 . S
O473 C467 1.268 . S
O474 Sc464 2.105 . S
O474 C468 1.268 . S
O475 Sc462 2.105 . S
O475 C469 1.268 . S
O476 Sc464 2.105 . S
O476 C470 1.268 . S
O477 Sc463 2.105 . S
O477 C471 1.268 . S
O478 Sc462 2.105 . S
O478 C470 1.268 . S
O479 Sc463 2.105 . S
O479 C469 1.268 . S
O480 Sc464 2.105 . S
O480 C471 1.268 . S
O481 Sc462 2.105 . S
O481 C467 1.268 . S
O482 Sc464 2.105 . S
O482 C466 1.268 . S
O483 Sc463 2.105 . S
O483 C468 1.268 . S
Sc484 O487 2.025 . S
Sc484 O494 2.105 . S
Sc484 O497 2.105 . S
Sc484 O500 2.105 . S
Sc484 O503 2.105 . S
Sc485 O487 2.025 . S
Sc485 O495 2.105 . S
Sc485 O499 2.105 . S
Sc485 O501 2.105 . S
Sc485 O505 2.105 . S
Sc486 O487 2.025 . S
Sc486 O496 2.105 . S
Sc486 O498 2.105 . S
Sc486 O502 2.105 . S
Sc486 O504 2.105 . S
O487 Sc484 2.025 . S
O487 Sc485 2.025 . S
O487 Sc486 2.025 . S
C488 O494 1.268 . S
C488 O504 1.268 . S
C489 O495 1.268 . S
C489 O503 1.268 . S
C490 O496 1.268 . S
C490 O505 1.268 . S
C491 O497 1.268 . S
C491 O501 1.268 . S
C492 O498 1.268 . S
C492 O500 1.268 . S
C493 O499 1.268 . S
C493 O502 1.268 . S
O494 Sc484 2.105 . S
O494 C488 1.268 . S
O495 Sc485 2.105 . S
O495 C489 1.268 . S
O496 Sc486 2.105 . S
O496 C490 1.268 . S
O497 Sc484 2.105 . S
O497 C491 1.268 . S
O498 Sc486 2.105 . S
O498 C492 1.268 . S
O499 Sc485 2.105 . S
O499 C493 1.268 . S
O500 Sc484 2.105 . S
O500 C492 1.268 . S
O501 Sc485 2.105 . S
O501 C491 1.268 . S
O502 Sc486 2.105 . S
O502 C493 1.268 . S
O503 Sc484 2.105 . S
O503 C489 1.268 . S
O504 Sc486 2.105 . S
O504 C488 1.268 . S
O505 Sc485 2.105 . S
O505 C490 1.268 . S
Sc506 O509 2.025 . S
Sc506 O516 2.105 . S
Sc506 O519 2.105 . S
Sc506 O522 2.105 . S
Sc506 O525 2.105 . S
Sc507 O509 2.025 . S
Sc507 O517 2.105 . S
Sc507 O521 2.105 . S
Sc507 O523 2.105 . S
Sc507 O527 2.105 . S
Sc508 O509 2.025 . S
Sc508 O518 2.105 . S
Sc508 O520 2.105 . S
Sc508 O524 2.105 . S
Sc508 O526 2.105 . S
O509 Sc506 2.025 . S
O509 Sc507 2.025 . S
O509 Sc508 2.025 . S
C510 O516 1.268 . S
C510 O526 1.268 . S
C511 O517 1.268 . S
C511 O525 1.268 . S
C512 O518 1.268 . S
C512 O527 1.268 . S
C513 O519 1.268 . S
C513 O523 1.268 . S
C514 O520 1.268 . S
C514 O522 1.268 . S
C515 O521 1.268 . S
C515 O524 1.268 . S
O516 Sc506 2.105 . S
O516 C510 1.268 . S
O517 Sc507 2.105 . S
O517 C511 1.268 . S
O518 Sc508 2.105 . S
O518 C512 1.268 . S
O519 Sc506 2.105 . S
O519 C513 1.268 . S
O520 Sc508 2.105 . S
O520 C514 1.268 . S
O521 Sc507 2.105 . S
O521 C515 1.268 . S
O522 Sc506 2.105 . S
O522 C514 1.268 . S
O523 Sc507 2.105 . S
O523 C513 1.268 . S
O524 Sc508 2.105 . S
O524 C515 1.268 . S
O525 Sc506 2.105 . S
O525 C511 1.268 . S
O526 Sc508 2.105 . S
O526 C510 1.268 . S
O527 Sc507 2.105 . S
O527 C512 1.268 . S
C528 C529 1.363 . S
C528 C534 1.379 . S
C528 N536 1.356 . S
C529 C528 1.363 . S
C529 C535 1.363 . S
C530 C531 1.363 . S
C530 C535 1.379 . S
C530 N537 1.356 . S
C531 C530 1.363 . S
C531 C534 1.363 . S
N532 C534 1.356 . S
N532 H544 0.984 . S
N532 H545 0.985 . S
N533 C535 1.356 . S
N533 H538 0.984 . S
N533 H539 0.985 . S
C534 C528 1.379 . S
C534 C531 1.363 . S
C534 N532 1.356 . S
C535 C529 1.363 . S
C535 C530 1.379 . S
C535 N533 1.356 . S
N536 C528 1.356 . S
N536 H542 0.984 . S
N536 H543 0.984 . S
N537 C530 1.356 . S
N537 H540 0.984 . S
N537 H541 0.985 . S
H538 N533 0.984 . S
H539 N533 0.985 . S
H540 N537 0.984 . S
H541 N537 0.985 . S
H542 N536 0.984 . S
H543 N536 0.984 . S
H544 N532 0.984 . S
H545 N532 0.985 . S
C546 C547 1.363 . S
C546 C552 1.379 . S
C546 N554 1.356 . S
C547 C546 1.363 . S
C547 C553 1.363 . S
C548 C549 1.363 . S
C548 C553 1.379 . S
C548 N555 1.356 . S
C549 C548 1.363 . S
C549 C552 1.363 . S
N550 C552 1.356 . S
N550 H562 0.984 . S
N550 H563 0.985 . S
N551 C553 1.356 . S
N551 H556 0.984 . S
N551 H557 0.985 . S
C552 C546 1.379 . S
C552 C549 1.363 . S
C552 N550 1.356 . S
C553 C547 1.363 . S
C553 C548 1.379 . S
C553 N551 1.356 . S
N554 C546 1.356 . S
N554 H560 0.984 . S
N554 H561 0.984 . S
N555 C548 1.356 . S
N555 H558 0.984 . S
N555 H559 0.985 . S
H556 N551 0.984 . S
H557 N551 0.985 . S
H558 N555 0.984 . S
H559 N555 0.985 . S
H560 N554 0.984 . S
H561 N554 0.984 . S
H562 N550 0.984 . S
H563 N550 0.985 . S
C564 C565 1.363 . S
C564 C570 1.379 . S
C564 N572 1.356 . S
C565 C564 1.363 . S
C565 C571 1.363 . S
C566 C567 1.363 . S
C566 C571 1.379 . S
C566 N573 1.356 . S
C567 C566 1.363 . S
C567 C570 1.363 . S
N568 C570 1.356 . S
N568 H580 0.984 . S
N568 H581 0.985 . S
N569 C571 1.356 . S
N569 H574 0.984 . S
N569 H575 0.985 . S
C570 C564 1.379 . S
C570 C567 1.363 . S
C570 N568 1.356 . S
C571 C565 1.363 . S
C571 C566 1.379 . S
C571 N569 1.356 . S
N572 C564 1.356 . S
N572 H578 0.984 . S
N572 H579 0.984 . S
N573 C566 1.356 . S
N573 H576 0.984 . S
N573 H577 0.985 . S
H574 N569 0.984 . S
H575 N569 0.985 . S
H576 N573 0.984 . S
H577 N573 0.985 . S
H578 N572 0.984 . S
H579 N572 0.984 . S
H580 N568 0.984 . S
H581 N568 0.985 . S
C582 C583 1.363 . S
C582 C588 1.379 . S
C582 N590 1.356 . S
C583 C582 1.363 . S
C583 C589 1.363 . S
C584 C585 1.363 . S
C584 C589 1.379 . S
C584 N591 1.356 . S
C585 C584 1.363 . S
C585 C588 1.363 . S
N586 C588 1.356 . S
N586 H598 0.984 . S
N586 H599 0.985 . S
N587 C589 1.356 . S
N587 H592 0.984 . S
N587 H593 0.985 . S
C588 C582 1.379 . S
C588 C585 1.363 . S
C588 N586 1.356 . S
C589 C583 1.363 . S
C589 C584 1.379 . S
C589 N587 1.356 . S
N590 C582 1.356 . S
N590 H596 0.984 . S
N590 H597 0.984 . S
N591 C584 1.356 . S
N591 H594 0.984 . S
N591 H595 0.985 . S
H592 N587 0.984 . S
H593 N587 0.985 . S
H594 N591 0.984 . S
H595 N591 0.985 . S
H596 N590 0.984 . S
H597 N590 0.984 . S
H598 N586 0.984 . S
H599 N586 0.985 . S
C600 C601 1.363 . S
C600 C606 1.379 . S
C600 N608 1.356 . S
C601 C600 1.363 . S
C601 C607 1.363 . S
C602 C603 1.363 . S
C602 C607 1.379 . S
C602 N609 1.356 . S
C603 C602 1.363 . S
C603 C606 1.363 . S
N604 C606 1.356 . S
N604 H616 0.984 . S
N604 H617 0.985 . S
N605 C607 1.356 . S
N605 H610 0.984 . S
N605 H611 0.985 . S
C606 C600 1.379 . S
C606 C603 1.363 . S
C606 N604 1.356 . S
C607 C601 1.363 . S
C607 C602 1.379 . S
C607 N605 1.356 . S
N608 C600 1.356 . S
N608 H614 0.984 . S
N608 H615 0.984 . S
N609 C602 1.356 . S
N609 H612 0.984 . S
N609 H613 0.985 . S
H610 N605 0.984 . S
H611 N605 0.985 . S
H612 N609 0.984 . S
H613 N609 0.985 . S
H614 N608 0.984 . S
H615 N608 0.984 . S
H616 N604 0.984 . S
H617 N604 0.985 . S
C618 C619 1.363 . S
C618 C624 1.379 . S
C618 N626 1.356 . S
C619 C618 1.363 . S
C619 C625 1.363 . S
C620 C621 1.363 . S
C620 C625 1.379 . S
C620 N627 1.356 . S
C621 C620 1.363 . S
C621 C624 1.363 . S
N622 C624 1.356 . S
N622 H634 0.984 . S
N622 H635 0.985 . S
N623 C625 1.356 . S
N623 H628 0.984 . S
N623 H629 0.985 . S
C624 C618 1.379 . S
C624 C621 1.363 . S
C624 N622 1.356 . S
C625 C619 1.363 . S
C625 C620 1.379 . S
C625 N623 1.356 . S
N626 C618 1.356 . S
N626 H632 0.984 . S
N626 H633 0.984 . S
N627 C620 1.356 . S
N627 H630 0.984 . S
N627 H631 0.985 . S
H628 N623 0.984 . S
H629 N623 0.985 . S
H630 N627 0.984 . S
H631 N627 0.985 . S
H632 N626 0.984 . S
H633 N626 0.984 . S
H634 N622 0.984 . S
H635 N622 0.985 . S
C636 C637 1.363 . S
C636 C642 1.379 . S
C636 N644 1.356 . S
C637 C636 1.363 . S
C637 C643 1.363 . S
C638 C639 1.363 . S
C638 C643 1.379 . S
C638 N645 1.356 . S
C639 C638 1.363 . S
C639 C642 1.363 . S
N640 C642 1.356 . S
N640 H652 0.984 . S
N640 H653 0.985 . S
N641 C643 1.356 . S
N641 H646 0.984 . S
N641 H647 0.985 . S
C642 C636 1.379 . S
C642 C639 1.363 . S
C642 N640 1.356 . S
C643 C637 1.363 . S
C643 C638 1.379 . S
C643 N641 1.356 . S
N644 C636 1.356 . S
N644 H650 0.984 . S
N644 H651 0.984 . S
N645 C638 1.356 . S
N645 H648 0.984 . S
N645 H649 0.985 . S
H646 N641 0.984 . S
H647 N641 0.985 . S
H648 N645 0.984 . S
H649 N645 0.985 . S
H650 N644 0.984 . S
H651 N644 0.984 . S
H652 N640 0.984 . S
H653 N640 0.985 . S
C654 C655 1.363 . S
C654 C660 1.379 . S
C654 N662 1.356 . S
C655 C654 1.363 . S
C655 C661 1.363 . S
C656 C657 1.363 . S
C656 C661 1.379 . S
C656 N663 1.356 . S
C657 C656 1.363 . S
C657 C660 1.363 . S
N658 C660 1.356 . S
N658 H670 0.984 . S
N658 H671 0.985 . S
N659 C661 1.356 . S
N659 H664 0.984 1_556 S
N659 H665 0.985 1_556 S
C660 C654 1.379 . S
C660 C657 1.363 . S
C660 N658 1.356 . S
C661 C655 1.363 . S
C661 C656 1.379 . S
C661 N659 1.356 . S
N662 C654 1.356 . S
N662 H668 0.984 . S
N662 H669 0.984 . S
N663 C656 1.356 . S
N663 H666 0.984 . S
N663 H667 0.985 . S
H664 N659 0.984 1_554 S
H665 N659 0.985 1_554 S
H666 N663 0.984 . S
H667 N663 0.985 . S
H668 N662 0.984 . S
H669 N662 0.984 . S
H670 N658 0.984 . S
H671 N658 0.985 . S
C672 C673 1.363 . S
C672 C678 1.379 . S
C672 N680 1.356 . S
C673 C672 1.363 . S
C673 C679 1.363 . S
C674 C675 1.363 . S
C674 C679 1.379 . S
C674 N681 1.356 . S
C675 C674 1.363 . S
C675 C678 1.363 . S
N676 C678 1.356 . S
N676 H688 0.984 . S
N676 H689 0.985 . S
N677 C679 1.356 . S
N677 H682 0.984 . S
N677 H683 0.985 . S
C678 C672 1.379 . S
C678 C675 1.363 . S
C678 N676 1.356 . S
C679 C673 1.363 . S
C679 C674 1.379 . S
C679 N677 1.356 . S
N680 C672 1.356 . S
N680 H686 0.984 . S
N680 H687 0.984 . S
N681 C674 1.356 . S
N681 H684 0.984 . S
N681 H685 0.985 . S
H682 N677 0.984 . S
H683 N677 0.985 . S
H684 N681 0.984 . S
H685 N681 0.985 . S
H686 N680 0.984 . S
H687 N680 0.984 . S
H688 N676 0.984 . S
H689 N676 0.985 . S
C690 C691 1.363 . S
C690 C696 1.379 . S
C690 N698 1.356 . S
C691 C690 1.363 . S
C691 C697 1.363 . S
C692 C693 1.363 . S
C692 C697 1.379 . S
C692 N699 1.356 . S
C693 C692 1.363 . S
C693 C696 1.363 . S
N694 C696 1.356 . S
N694 H706 0.984 . S
N694 H707 0.985 . S
N695 C697 1.356 . S
N695 H700 0.984 . S
N695 H701 0.985 . S
C696 C690 1.379 . S
C696 C693 1.363 . S
C696 N694 1.356 . S
C697 C691 1.363 . S
C697 C692 1.379 . S
C697 N695 1.356 . S
N698 C690 1.356 . S
N698 H704 0.984 . S
N698 H705 0.984 . S
N699 C692 1.356 . S
N699 H702 0.984 . S
N699 H703 0.985 . S
H700 N695 0.984 . S
H701 N695 0.985 . S
H702 N699 0.984 . S
H703 N699 0.985 . S
H704 N698 0.984 . S
H705 N698 0.984 . S
H706 N694 0.984 . S
H707 N694 0.985 . S
C708 C709 1.363 . S
C708 C714 1.379 . S
C708 N716 1.356 . S
C709 C708 1.363 . S
C709 C715 1.363 . S
C710 C711 1.363 . S
C710 C715 1.379 . S
C710 N717 1.356 . S
C711 C710 1.363 . S
C711 C714 1.363 . S
N712 C714 1.356 . S
N712 H724 0.984 . S
N712 H725 0.985 . S
N713 C715 1.356 . S
N713 H718 0.984 . S
N713 H719 0.985 . S
C714 C708 1.379 . S
C714 C711 1.363 . S
C714 N712 1.356 . S
C715 C709 1.363 . S
C715 C710 1.379 . S
C715 N713 1.356 . S
N716 C708 1.356 . S
N716 H722 0.984 . S
N716 H723 0.984 . S
N717 C710 1.356 . S
N717 H720 0.984 . S
N717 H721 0.985 . S
H718 N713 0.984 . S
H719 N713 0.985 . S
H720 N717 0.984 . S
H721 N717 0.985 . S
H722 N716 0.984 . S
H723 N716 0.984 . S
H724 N712 0.984 . S
H725 N712 0.985 . S
C726 C727 1.363 . S
C726 C732 1.379 . S
C726 N734 1.356 1_554 S
C727 C726 1.363 . S
C727 C733 1.363 . S
C728 C729 1.363 . S
C728 C733 1.379 . S
C728 N735 1.356 . S
C729 C728 1.363 . S
C729 C732 1.363 . S
N730 C732 1.356 . S
N730 H742 0.984 . S
N730 H743 0.985 . S
N731 C733 1.356 . S
N731 H736 0.984 . S
N731 H737 0.985 . S
C732 C726 1.379 . S
C732 C729 1.363 . S
C732 N730 1.356 . S
C733 C727 1.363 . S
C733 C728 1.379 . S
C733 N731 1.356 . S
N734 C726 1.356 1_556 S
N734 H740 0.984 . S
N734 H741 0.984 . S
N735 C728 1.356 . S
N735 H738 0.984 . S
N735 H739 0.985 . S
H736 N731 0.984 . S
H737 N731 0.985 . S
H738 N735 0.984 . S
H739 N735 0.985 . S
H740 N734 0.984 . S
H741 N734 0.984 . S
H742 N730 0.984 . S
H743 N730 0.985 . S
C744 C745 1.363 . S
C744 C750 1.379 . S
C744 N752 1.356 . S
C745 C744 1.363 . S
C745 C751 1.363 . S
C746 C747 1.363 . S
C746 C751 1.379 . S
C746 N753 1.356 . S
C747 C746 1.363 . S
C747 C750 1.363 . S
N748 C750 1.356 . S
N748 H760 0.984 . S
N748 H761 0.985 . S
N749 C751 1.356 . S
N749 H754 0.984 1_556 S
N749 H755 0.985 1_556 S
C750 C744 1.379 . S
C750 C747 1.363 . S
C750 N748 1.356 . S
C751 C745 1.363 . S
C751 C746 1.379 . S
C751 N749 1.356 . S
N752 C744 1.356 . S
N752 H758 0.984 . S
N752 H759 0.984 . S
N753 C746 1.356 . S
N753 H756 0.984 . S
N753 H757 0.985 . S
H754 N749 0.984 1_554 S
H755 N749 0.985 1_554 S
H756 N753 0.984 . S
H757 N753 0.985 . S
H758 N752 0.984 . S
H759 N752 0.984 . S
H760 N748 0.984 . S
H761 N748 0.985 . S
C762 C763 1.363 . S
C762 C768 1.379 . S
C762 N770 1.356 . S
C763 C762 1.363 . S
C763 C769 1.363 . S
C764 C765 1.363 . S
C764 C769 1.379 . S
C764 N771 1.356 . S
C765 C764 1.363 . S
C765 C768 1.363 . S
N766 C768 1.356 . S
N766 H778 0.984 . S
N766 H779 0.985 . S
N767 C769 1.356 . S
N767 H772 0.984 . S
N767 H773 0.985 . S
C768 C762 1.379 . S
C768 C765 1.363 . S
C768 N766 1.356 . S
C769 C763 1.363 . S
C769 C764 1.379 . S
C769 N767 1.356 . S
N770 C762 1.356 . S
N770 H776 0.984 . S
N770 H777 0.984 . S
N771 C764 1.356 . S
N771 H774 0.984 . S
N771 H775 0.985 . S
H772 N767 0.984 . S
H773 N767 0.985 . S
H774 N771 0.984 . S
H775 N771 0.985 . S
H776 N770 0.984 . S
H777 N770 0.984 . S
H778 N766 0.984 . S
H779 N766 0.985 . S
C780 C781 1.363 . S
C780 C786 1.379 . S
C780 N788 1.356 . S
C781 C780 1.363 . S
C781 C787 1.363 . S
C782 C783 1.363 . S
C782 C787 1.379 . S
C782 N789 1.356 . S
C783 C782 1.363 . S
C783 C786 1.363 . S
N784 C786 1.356 . S
N784 H796 0.984 . S
N784 H797 0.985 . S
N785 C787 1.356 . S
N785 H790 0.984 . S
N785 H791 0.985 . S
C786 C780 1.379 . S
C786 C783 1.363 . S
C786 N784 1.356 . S
C787 C781 1.363 . S
C787 C782 1.379 . S
C787 N785 1.356 . S
N788 C780 1.356 . S
N788 H794 0.984 . S
N788 H795 0.984 . S
N789 C782 1.356 . S
N789 H792 0.984 . S
N789 H793 0.985 . S
H790 N785 0.984 . S
H791 N785 0.985 . S
H792 N789 0.984 . S
H793 N789 0.985 . S
H794 N788 0.984 . S
H795 N788 0.984 . S
H796 N784 0.984 . S
H797 N784 0.985 . S
C798 C799 1.363 . S
C798 C804 1.379 . S
C798 N806 1.356 . S
C799 C798 1.363 . S
C799 C805 1.363 . S
C800 C801 1.363 . S
C800 C805 1.379 . S
C800 N807 1.356 . S
C801 C800 1.363 . S
C801 C804 1.363 . S
N802 C804 1.356 . S
N802 H814 0.984 . S
N802 H815 0.985 . S
N803 C805 1.356 . S
N803 H808 0.984 . S
N803 H809 0.985 . S
C804 C798 1.379 . S
C804 C801 1.363 . S
C804 N802 1.356 . S
C805 C799 1.363 . S
C805 C800 1.379 . S
C805 N803 1.356 . S
N806 C798 1.356 . S
N806 H812 0.984 . S
N806 H813 0.984 . S
N807 C800 1.356 . S
N807 H810 0.984 . S
N807 H811 0.985 . S
H808 N803 0.984 . S
H809 N803 0.985 . S
H810 N807 0.984 . S
H811 N807 0.985 . S
H812 N806 0.984 . S
H813 N806 0.984 . S
H814 N802 0.984 . S
H815 N802 0.985 . S
C816 C817 1.363 . S
C816 C822 1.379 . S
C816 N824 1.356 . S
C817 C816 1.363 . S
C817 C823 1.363 . S
C818 C819 1.363 . S
C818 C823 1.379 . S
C818 N825 1.356 . S
C819 C818 1.363 . S
C819 C822 1.363 . S
N820 C822 1.356 . S
N820 H832 0.984 . S
N820 H833 0.985 . S
N821 C823 1.356 . S
N821 H826 0.984 . S
N821 H827 0.985 . S
C822 C816 1.379 . S
C822 C819 1.363 . S
C822 N820 1.356 . S
C823 C817 1.363 . S
C823 C818 1.379 . S
C823 N821 1.356 . S
N824 C816 1.356 . S
N824 H830 0.984 . S
N824 H831 0.984 . S
N825 C818 1.356 . S
N825 H828 0.984 . S
N825 H829 0.985 . S
H826 N821 0.984 . S
H827 N821 0.985 . S
H828 N825 0.984 . S
H829 N825 0.985 . S
H830 N824 0.984 . S
H831 N824 0.984 . S
H832 N820 0.984 . S
H833 N820 0.985 . S
C834 C835 1.363 . S
C834 C840 1.379 . S
C834 N842 1.356 . S
C835 C834 1.363 . S
C835 C841 1.363 . S
C836 C837 1.363 . S
C836 C841 1.379 . S
C836 N843 1.356 . S
C837 C836 1.363 . S
C837 C840 1.363 . S
N838 C840 1.356 . S
N838 H850 0.984 . S
N838 H851 0.985 . S
N839 C841 1.356 . S
N839 H844 0.984 . S
N839 H845 0.985 . S
C840 C834 1.379 . S
C840 C837 1.363 . S
C840 N838 1.356 . S
C841 C835 1.363 . S
C841 C836 1.379 . S
C841 N839 1.356 . S
N842 C834 1.356 . S
N842 H848 0.984 . S
N842 H849 0.984 . S
N843 C836 1.356 . S
N843 H846 0.984 . S
N843 H847 0.985 . S
H844 N839 0.984 . S
H845 N839 0.985 . S
H846 N843 0.984 . S
H847 N843 0.985 . S
H848 N842 0.984 . S
H849 N842 0.984 . S
H850 N838 0.984 . S
H851 N838 0.985 . S
C852 C853 1.363 . S
C852 C858 1.379 . S
C852 N860 1.356 . S
C853 C852 1.363 . S
C853 C859 1.363 . S
C854 C855 1.363 . S
C854 C859 1.379 . S
C854 N861 1.356 . S
C855 C854 1.363 . S
C855 C858 1.363 . S
N856 C858 1.356 . S
N856 H868 0.984 . S
N856 H869 0.985 . S
N857 C859 1.356 . S
N857 H862 0.984 . S
N857 H863 0.985 . S
C858 C852 1.379 . S
C858 C855 1.363 . S
C858 N856 1.356 . S
C859 C853 1.363 . S
C859 C854 1.379 . S
C859 N857 1.356 . S
N860 C852 1.356 . S
N860 H866 0.984 . S
N860 H867 0.984 . S
N861 C854 1.356 . S
N861 H864 0.984 . S
N861 H865 0.985 . S
H862 N857 0.984 . S
H863 N857 0.985 . S
H864 N861 0.984 . S
H865 N861 0.985 . S
H866 N860 0.984 . S
H867 N860 0.984 . S
H868 N856 0.984 . S
H869 N856 0.985 . S
C870 C871 1.363 . S
C870 C876 1.379 . S
C870 N878 1.356 . S
C871 C870 1.363 . S
C871 C877 1.363 . S
C872 C873 1.363 . S
C872 C877 1.379 . S
C872 N879 1.356 . S
C873 C872 1.363 . S
C873 C876 1.363 . S
N874 C876 1.356 . S
N874 H886 0.984 1_655 S
N874 H887 0.985 . S
N875 C877 1.356 . S
N875 H880 0.984 . S
N875 H881 0.985 . S
C876 C870 1.379 . S
C876 C873 1.363 . S
C876 N874 1.356 . S
C877 C871 1.363 . S
C877 C872 1.379 . S
C877 N875 1.356 . S
N878 C870 1.356 . S
N878 H884 0.984 . S
N878 H885 0.984 . S
N879 C872 1.356 . S
N879 H882 0.984 . S
N879 H883 0.985 . S
H880 N875 0.984 . S
H881 N875 0.985 . S
H882 N879 0.984 . S
H883 N879 0.985 . S
H884 N878 0.984 . S
H885 N878 0.984 . S
H886 N874 0.984 1_455 S
H887 N874 0.985 . S
C888 C889 1.363 . S
C888 C894 1.379 . S
C888 N896 1.356 . S
C889 C888 1.363 . S
C889 C895 1.363 . S
C890 C891 1.363 . S
C890 C895 1.379 . S
C890 N897 1.356 . S
C891 C890 1.363 . S
C891 C894 1.363 . S
N892 C894 1.356 . S
N892 H904 0.984 . S
N892 H905 0.985 . S
N893 C895 1.356 . S
N893 H898 0.984 . S
N893 H899 0.985 . S
C894 C888 1.379 . S
C894 C891 1.363 . S
C894 N892 1.356 . S
C895 C889 1.363 . S
C895 C890 1.379 . S
C895 N893 1.356 . S
N896 C888 1.356 . S
N896 H902 0.984 . S
N896 H903 0.984 . S
N897 C890 1.356 . S
N897 H900 0.984 . S
N897 H901 0.985 . S
H898 N893 0.984 . S
H899 N893 0.985 . S
H900 N897 0.984 . S
H901 N897 0.985 . S
H902 N896 0.984 . S
H903 N896 0.984 . S
H904 N892 0.984 . S
H905 N892 0.985 . S
C906 C907 1.363 . S
C906 C912 1.379 . S
C906 N914 1.356 . S
C907 C906 1.363 . S
C907 C913 1.363 . S
C908 C909 1.363 . S
C908 C913 1.379 . S
C908 N915 1.356 . S
C909 C908 1.363 . S
C909 C912 1.363 . S
N910 C912 1.356 . S
N910 H922 0.984 . S
N910 H923 0.985 . S
N911 C913 1.356 . S
N911 H916 0.984 . S
N911 H917 0.985 . S
C912 C906 1.379 . S
C912 C909 1.363 . S
C912 N910 1.356 . S
C913 C907 1.363 . S
C913 C908 1.379 . S
C913 N911 1.356 . S
N914 C906 1.356 . S
N914 H920 0.984 . S
N914 H921 0.984 . S
N915 C908 1.356 . S
N915 H918 0.984 . S
N915 H919 0.985 . S
H916 N911 0.984 . S
H917 N911 0.985 . S
H918 N915 0.984 . S
H919 N915 0.985 . S
H920 N914 0.984 . S
H921 N914 0.984 . S
H922 N910 0.984 . S
H923 N910 0.985 . S
C924 C925 1.363 . S
C924 C930 1.379 . S
C924 N932 1.356 . S
C925 C924 1.363 . S
C925 C931 1.363 . S
C926 C927 1.363 . S
C926 C931 1.379 . S
C926 N933 1.356 . S
C927 C926 1.363 . S
C927 C930 1.363 . S
N928 C930 1.356 . S
N928 H940 0.984 . S
N928 H941 0.985 . S
N929 C931 1.356 . S
N929 H934 0.984 . S
N929 H935 0.985 . S
C930 C924 1.379 . S
C930 C927 1.363 . S
C930 N928 1.356 . S
C931 C925 1.363 . S
C931 C926 1.379 . S
C931 N929 1.356 . S
N932 C924 1.356 . S
N932 H938 0.984 . S
N932 H939 0.984 . S
N933 C926 1.356 . S
N933 H936 0.984 . S
N933 H937 0.985 . S
H934 N929 0.984 . S
H935 N929 0.985 . S
H936 N933 0.984 . S
H937 N933 0.985 . S
H938 N932 0.984 . S
H939 N932 0.984 . S
H940 N928 0.984 . S
H941 N928 0.985 . S
C942 C943 1.363 . S
C942 C948 1.379 . S
C942 N950 1.356 . S
C943 C942 1.363 . S
C943 C949 1.363 . S
C944 C945 1.363 . S
C944 C949 1.379 . S
C944 N951 1.356 . S
C945 C944 1.363 . S
C945 C948 1.363 . S
N946 C948 1.356 . S
N946 H958 0.984 . S
N946 H959 0.985 . S
N947 C949 1.356 . S
N947 H952 0.984 . S
N947 H953 0.985 . S
C948 C942 1.379 . S
C948 C945 1.363 . S
C948 N946 1.356 . S
C949 C943 1.363 . S
C949 C944 1.379 . S
C949 N947 1.356 . S
N950 C942 1.356 . S
N950 H956 0.984 . S
N950 H957 0.984 . S
N951 C944 1.356 . S
N951 H954 0.984 . S
N951 H955 0.985 . S
H952 N947 0.984 . S
H953 N947 0.985 . S
H954 N951 0.984 . S
H955 N951 0.985 . S
H956 N950 0.984 . S
H957 N950 0.984 . S
H958 N946 0.984 . S
H959 N946 0.985 . S
C960 C961 1.363 . S
C960 C966 1.379 1_565 S
C960 N968 1.345 1_655 S
C961 C960 1.363 . S
C961 C967 1.363 . S
C962 C963 1.363 . S
C962 C967 1.379 1_545 S
C962 N969 1.356 . S
C963 C962 1.363 . S
C963 C966 1.363 . S
N964 C966 1.345 1_455 S
N964 H976 1.001 . S
N964 H977 0.980 1_455 S
N965 C967 1.356 . S
N965 H970 0.984 . S
N965 H971 0.985 . S
C966 C960 1.379 1_545 S
C966 C963 1.363 . S
C966 N964 1.345 1_655 S
C967 C961 1.363 . S
C967 C962 1.379 1_565 S
C967 N965 1.356 . S
N968 C960 1.345 1_455 S
N968 H974 1.001 . S
N968 H975 0.980 1_455 S
N969 C962 1.356 . S
N969 H972 0.984 . S
N969 H973 0.985 . S
H970 N965 0.984 . S
H971 N965 0.985 . S
H972 N969 0.984 . S
H973 N969 0.985 . S
H974 N968 1.001 . S
H975 N968 0.980 1_655 S
H976 N964 1.001 . S
H977 N964 0.980 1_655 S
C978 C979 1.363 . S
C978 C984 1.379 . S
C978 N986 1.356 . S
C979 C978 1.363 . S
C979 C985 1.363 . S
C980 C981 1.363 . S
C980 C985 1.379 . S
C980 N987 1.356 . S
C981 C980 1.363 . S
C981 C984 1.363 . S
N982 C984 1.356 . S
N982 H994 0.984 . S
N982 H995 0.985 . S
N983 C985 1.356 . S
N983 H988 0.984 . S
N983 H989 0.985 . S
C984 C978 1.379 . S
C984 C981 1.363 . S
C984 N982 1.356 . S
C985 C979 1.363 . S
C985 C980 1.379 . S
C985 N983 1.356 . S
N986 C978 1.356 . S
N986 H992 0.984 . S
N986 H993 0.984 . S
N987 C980 1.356 . S
N987 H990 0.984 . S
N987 H991 0.985 . S
H988 N983 0.984 . S
H989 N983 0.985 . S
H990 N987 0.984 . S
H991 N987 0.985 . S
H992 N986 0.984 . S
H993 N986 0.984 . S
H994 N982 0.984 . S
H995 N982 0.985 . S
C996 C997 1.363 . S
C996 C1002 1.379 1_565 S
C996 N1004 1.356 . S
C997 C996 1.363 . S
C997 C1003 1.363 . S
C998 C999 1.363 . S
C998 C1003 1.379 1_545 S
C998 N1005 1.356 . S
C999 C998 1.363 . S
C999 C1002 1.363 . S
N1000 C1002 1.356 . S
N1000 H1012 0.984 . S
N1000 H1013 0.985 . S
N1001 C1003 1.356 . S
N1001 H1006 0.984 . S
N1001 H1007 0.985 . S
C1002 C996 1.379 1_545 S
C1002 C999 1.363 . S
C1002 N1000 1.356 . S
C1003 C997 1.363 . S
C1003 C998 1.379 1_565 S
C1003 N1001 1.356 . S
N1004 C996 1.356 . S
N1004 H1010 0.984 . S
N1004 H1011 0.984 . S
N1005 C998 1.356 . S
N1005 H1008 0.984 . S
N1005 H1009 0.985 . S
H1006 N1001 0.984 . S
H1007 N1001 0.985 . S
H1008 N1005 0.984 . S
H1009 N1005 0.985 . S
H1010 N1004 0.984 . S
H1011 N1004 0.984 . S
H1012 N1000 0.984 . S
H1013 N1000 0.985 . S
C1014 C1015 1.363 1_556 S
C1014 C1020 1.379 . S
C1014 N1022 1.356 . S
C1015 C1014 1.363 1_554 S
C1015 C1021 1.363 . S
C1016 C1017 1.363 1_554 S
C1016 C1021 1.379 . S
C1016 N1023 1.356 . S
C1017 C1016 1.363 1_556 S
C1017 C1020 1.363 . S
N1018 C1020 1.356 . S
N1018 H1030 0.984 . S
N1018 H1031 0.985 . S
N1019 C1021 1.356 . S
N1019 H1024 0.984 . S
N1019 H1025 0.985 . S
C1020 C1014 1.379 . S
C1020 C1017 1.363 . S
C1020 N1018 1.356 . S
C1021 C1015 1.363 . S
C1021 C1016 1.379 . S
C1021 N1019 1.356 . S
N1022 C1014 1.356 . S
N1022 H1028 0.984 . S
N1022 H1029 0.984 . S
N1023 C1016 1.356 . S
N1023 H1026 0.984 . S
N1023 H1027 0.985 . S
H1024 N1019 0.984 . S
H1025 N1019 0.985 . S
H1026 N1023 0.984 . S
H1027 N1023 0.985 . S
H1028 N1022 0.984 . S
H1029 N1022 0.984 . S
H1030 N1018 0.984 . S
H1031 N1018 0.985 . S
C1032 C1033 1.363 . S
C1032 C1038 1.379 1_556 S
C1032 N1040 1.356 1_565 S
C1033 C1032 1.363 . S
C1033 C1039 1.363 . S
C1034 C1035 1.363 . S
C1034 C1039 1.379 1_554 S
C1034 N1041 1.356 . S
C1035 C1034 1.363 . S
C1035 C1038 1.363 . S
N1036 C1038 1.356 1_545 S
N1036 H1048 0.984 . S
N1036 H1049 0.985 . S
N1037 C1039 1.356 . S
N1037 H1042 0.984 . S
N1037 H1043 0.985 . S
C1038 C1032 1.379 1_554 S
C1038 C1035 1.363 . S
C1038 N1036 1.356 1_565 S
C1039 C1033 1.363 . S
C1039 C1034 1.379 1_556 S
C1039 N1037 1.356 . S
N1040 C1032 1.356 1_545 S
N1040 H1046 0.984 . S
N1040 H1047 0.984 . S
N1041 C1034 1.356 . S
N1041 H1044 0.984 . S
N1041 H1045 0.985 . S
H1042 N1037 0.984 . S
H1043 N1037 0.985 . S
H1044 N1041 0.984 . S
H1045 N1041 0.985 . S
H1046 N1040 0.984 . S
H1047 N1040 0.984 . S
H1048 N1036 0.984 . S
H1049 N1036 0.985 . S
C1050 C1051 1.363 . S
C1050 C1056 1.379 . S
C1050 N1058 1.356 . S
C1051 C1050 1.363 . S
C1051 C1057 1.363 1_565 S
C1052 C1053 1.363 . S
C1052 C1057 1.379 . S
C1052 N1059 1.356 . S
C1053 C1052 1.363 . S
C1053 C1056 1.363 1_545 S
N1054 C1056 1.356 . S
N1054 H1066 0.984 . S
N1054 H1067 0.985 . S
N1055 C1057 1.356 . S
N1055 H1060 0.984 . S
N1055 H1061 0.985 . S
C1056 C1050 1.379 . S
C1056 C1053 1.363 1_565 S
C1056 N1054 1.356 . S
C1057 C1051 1.363 1_545 S
C1057 C1052 1.379 . S
C1057 N1055 1.356 . S
N1058 C1050 1.356 . S
N1058 H1064 0.984 . S
N1058 H1065 0.984 . S
N1059 C1052 1.356 . S
N1059 H1062 0.984 . S
N1059 H1063 0.985 . S
H1060 N1055 0.984 . S
H1061 N1055 0.985 . S
H1062 N1059 0.984 . S
H1063 N1059 0.985 . S
H1064 N1058 0.984 . S
H1065 N1058 0.984 . S
H1066 N1054 0.984 . S
H1067 N1054 0.985 . S
C1068 C1069 1.363 . S
C1068 C1074 1.379 . S
C1068 N1076 1.356 1_545 S
C1069 C1068 1.363 . S
C1069 C1075 1.363 . S
C1070 C1071 1.363 . S
C1070 C1075 1.379 . S
C1070 N1077 1.356 . S
C1071 C1070 1.363 . S
C1071 C1074 1.363 . S
N1072 C1074 1.356 1_565 S
N1072 H1084 0.984 . S
N1072 H1085 0.985 . S
N1073 C1075 1.356 . S
N1073 H1078 0.984 . S
N1073 H1079 0.985 . S
C1074 C1068 1.379 . S
C1074 C1071 1.363 . S
C1074 N1072 1.356 1_545 S
C1075 C1069 1.363 . S
C1075 C1070 1.379 . S
C1075 N1073 1.356 . S
N1076 C1068 1.356 1_565 S
N1076 H1082 0.984 . S
N1076 H1083 0.984 . S
N1077 C1070 1.356 . S
N1077 H1080 0.984 . S
N1077 H1081 0.985 . S
H1078 N1073 0.984 . S
H1079 N1073 0.985 . S
H1080 N1077 0.984 . S
H1081 N1077 0.985 . S
H1082 N1076 0.984 . S
H1083 N1076 0.984 . S
H1084 N1072 0.984 . S
H1085 N1072 0.985 . S
C1086 C1087 1.363 1_545 S
C1086 C1092 1.379 . S
C1086 N1094 1.356 . S
C1087 C1086 1.363 1_565 S
C1087 C1093 1.363 . S
C1088 C1089 1.363 1_565 S
C1088 C1093 1.379 . S
C1088 N1095 1.356 . S
C1089 C1088 1.363 1_545 S
C1089 C1092 1.363 . S
N1090 C1092 1.356 . S
N1090 H1102 0.984 . S
N1090 H1103 0.985 . S
N1091 C1093 1.356 . S
N1091 H1096 0.984 . S
N1091 H1097 0.985 . S
C1092 C1086 1.379 . S
C1092 C1089 1.363 . S
C1092 N1090 1.356 . S
C1093 C1087 1.363 . S
C1093 C1088 1.379 . S
C1093 N1091 1.356 . S
N1094 C1086 1.356 . S
N1094 H1100 0.984 . S
N1094 H1101 0.984 . S
N1095 C1088 1.356 . S
N1095 H1098 0.984 . S
N1095 H1099 0.985 . S
H1096 N1091 0.984 . S
H1097 N1091 0.985 . S
H1098 N1095 0.984 . S
H1099 N1095 0.985 . S
H1100 N1094 0.984 . S
H1101 N1094 0.984 . S
H1102 N1090 0.984 . S
H1103 N1090 0.985 . S
C1104 C1105 1.363 . S
C1104 C1110 1.379 1_655 S
C1104 N1112 1.356 1_556 S
C1105 C1104 1.363 . S
C1105 C1111 1.363 . S
C1106 C1107 1.363 . S
C1106 C1111 1.379 1_455 S
C1106 N1113 1.356 . S
C1107 C1106 1.363 . S
C1107 C1110 1.363 . S
N1108 C1110 1.356 1_554 S
N1108 H1120 0.984 . S
N1108 H1121 0.985 . S
N1109 C1111 1.356 . S
N1109 H1114 0.984 . S
N1109 H1115 0.985 . S
C1110 C1104 1.379 1_455 S
C1110 C1107 1.363 . S
C1110 N1108 1.356 1_556 S
C1111 C1105 1.363 . S
C1111 C1106 1.379 1_655 S
C1111 N1109 1.356 . S
N1112 C1104 1.356 1_554 S
N1112 H1118 0.984 . S
N1112 H1119 0.984 . S
N1113 C1106 1.356 . S
N1113 H1116 0.984 . S
N1113 H1117 0.985 . S
H1114 N1109 0.984 . S
H1115 N1109 0.985 . S
H1116 N1113 0.984 . S
H1117 N1113 0.985 . S
H1118 N1112 0.984 . S
H1119 N1112 0.984 . S
H1120 N1108 0.984 . S
H1121 N1108 0.985 . S
C1122 C1123 1.363 . S
C1122 C1128 1.379 . S
C1122 N1130 1.356 . S
C1123 C1122 1.363 . S
C1123 C1129 1.363 . S
C1124 C1125 1.363 . S
C1124 C1129 1.379 . S
C1124 N1131 1.356 1_554 S
C1125 C1124 1.363 . S
C1125 C1128 1.363 . S
N1126 C1128 1.356 . S
N1126 H1138 0.984 . S
N1126 H1139 0.985 . S
N1127 C1129 1.356 1_556 S
N1127 H1132 0.984 . S
N1127 H1133 0.985 . S
C1128 C1122 1.379 . S
C1128 C1125 1.363 . S
C1128 N1126 1.356 . S
C1129 C1123 1.363 . S
C1129 C1124 1.379 . S
C1129 N1127 1.356 1_554 S
N1130 C1122 1.356 . S
N1130 H1136 0.984 . S
N1130 H1137 0.984 . S
N1131 C1124 1.356 1_556 S
N1131 H1134 0.984 . S
N1131 H1135 0.985 . S
H1132 N1127 0.984 . S
H1133 N1127 0.985 . S
H1134 N1131 0.984 . S
H1135 N1131 0.985 . S
H1136 N1130 0.984 . S
H1137 N1130 0.984 . S
H1138 N1126 0.984 . S
H1139 N1126 0.985 . S
C1140 C1141 1.363 1_455 S
C1140 C1146 1.379 . S
C1140 N1148 1.356 . S
C1141 C1140 1.363 1_655 S
C1141 C1147 1.363 . S
C1142 C1143 1.363 1_655 S
C1142 C1147 1.379 . S
C1142 N1149 1.356 . S
C1143 C1142 1.363 1_455 S
C1143 C1146 1.363 . S
N1144 C1146 1.356 . S
N1144 H1156 0.984 . S
N1144 H1157 0.985 . S
N1145 C1147 1.356 . S
N1145 H1150 0.984 . S
N1145 H1151 0.985 . S
C1146 C1140 1.379 . S
C1146 C1143 1.363 . S
C1146 N1144 1.356 . S
C1147 C1141 1.363 . S
C1147 C1142 1.379 . S
C1147 N1145 1.356 . S
N1148 C1140 1.356 . S
N1148 H1154 0.984 . S
N1148 H1155 0.984 . S
N1149 C1142 1.356 . S
N1149 H1152 0.984 . S
N1149 H1153 0.985 . S
H1150 N1145 0.984 . S
H1151 N1145 0.985 . S
H1152 N1149 0.984 . S
H1153 N1149 0.985 . S
H1154 N1148 0.984 . S
H1155 N1148 0.984 . S
H1156 N1144 0.984 . S
H1157 N1144 0.985 . S
C1158 C1159 1.363 . S
C1158 C1164 1.379 1_455 S
C1158 N1166 1.356 . S
C1159 C1158 1.363 . S
C1159 C1165 1.363 . S
C1160 C1161 1.363 . S
C1160 C1165 1.379 1_655 S
C1160 N1167 1.356 . S
C1161 C1160 1.363 . S
C1161 C1164 1.363 . S
N1162 C1164 1.356 . S
N1162 H1174 0.984 . S
N1162 H1175 0.985 . S
N1163 C1165 1.356 . S
N1163 H1168 0.984 . S
N1163 H1169 0.985 . S
C1164 C1158 1.379 1_655 S
C1164 C1161 1.363 . S
C1164 N1162 1.356 . S
C1165 C1159 1.363 . S
C1165 C1160 1.379 1_455 S
C1165 N1163 1.356 . S
N1166 C1158 1.356 . S
N1166 H1172 0.984 . S
N1166 H1173 0.984 . S
N1167 C1160 1.356 . S
N1167 H1170 0.984 . S
N1167 H1171 0.985 . S
H1168 N1163 0.984 . S
H1169 N1163 0.985 . S
H1170 N1167 0.984 . S
H1171 N1167 0.985 . S
H1172 N1166 0.984 . S
H1173 N1166 0.984 . S
H1174 N1162 0.984 . S
H1175 N1162 0.985 . S
C1176 C1177 1.363 . S
C1176 C1182 1.379 . S
C1176 N1184 1.356 . S
C1177 C1176 1.363 . S
C1177 C1183 1.363 . S
C1178 C1179 1.363 . S
C1178 C1183 1.379 . S
C1178 N1185 1.356 . S
C1179 C1178 1.363 . S
C1179 C1182 1.363 . S
N1180 C1182 1.356 . S
N1180 H1192 0.984 . S
N1180 H1193 0.985 . S
N1181 C1183 1.356 . S
N1181 H1186 0.984 . S
N1181 H1187 0.985 . S
C1182 C1176 1.379 . S
C1182 C1179 1.363 . S
C1182 N1180 1.356 . S
C1183 C1177 1.363 . S
C1183 C1178 1.379 . S
C1183 N1181 1.356 . S
N1184 C1176 1.356 . S
N1184 H1190 0.984 . S
N1184 H1191 0.984 . S
N1185 C1178 1.356 . S
N1185 H1188 0.984 . S
N1185 H1189 0.985 . S
H1186 N1181 0.984 . S
H1187 N1181 0.985 . S
H1188 N1185 0.984 . S
H1189 N1185 0.985 . S
H1190 N1184 0.984 . S
H1191 N1184 0.984 . S
H1192 N1180 0.984 . S
H1193 N1180 0.985 . S
C1194 C1195 1.363 . S
C1194 C1200 1.379 . S
C1194 N1202 1.356 . S
C1195 C1194 1.363 . S
C1195 C1201 1.363 1_655 S
C1196 C1197 1.363 . S
C1196 C1201 1.379 . S
C1196 N1203 1.356 . S
C1197 C1196 1.363 . S
C1197 C1200 1.363 1_455 S
N1198 C1200 1.356 . S
N1198 H1210 0.984 . S
N1198 H1211 0.985 . S
N1199 C1201 1.356 . S
N1199 H1204 0.984 . S
N1199 H1205 0.985 . S
C1200 C1194 1.379 . S
C1200 C1197 1.363 1_655 S
C1200 N1198 1.356 . S
C1201 C1195 1.363 1_455 S
C1201 C1196 1.379 . S
C1201 N1199 1.356 . S
N1202 C1194 1.356 . S
N1202 H1208 0.984 . S
N1202 H1209 0.984 . S
N1203 C1196 1.356 . S
N1203 H1206 0.984 . S
N1203 H1207 0.985 . S
H1204 N1199 0.984 . S
H1205 N1199 0.985 . S
H1206 N1203 0.984 . S
H1207 N1203 0.985 . S
H1208 N1202 0.984 . S
H1209 N1202 0.984 . S
H1210 N1198 0.984 . S
H1211 N1198 0.985 . S
C1212 C1213 1.363 . S
C1212 C1218 1.379 . S
C1212 N1220 1.356 . S
C1213 C1212 1.363 . S
C1213 C1219 1.363 . S
C1214 C1215 1.363 . S
C1214 C1219 1.379 . S
C1214 N1221 1.356 . S
C1215 C1214 1.363 . S
C1215 C1218 1.363 . S
N1216 C1218 1.356 . S
N1216 H1228 0.984 . S
N1216 H1229 0.985 . S
N1217 C1219 1.356 . S
N1217 H1222 0.984 . S
N1217 H1223 0.985 . S
C1218 C1212 1.379 . S
C1218 C1215 1.363 . S
C1218 N1216 1.356 . S
C1219 C1213 1.363 . S
C1219 C1214 1.379 . S
C1219 N1217 1.356 . S
N1220 C1212 1.356 . S
N1220 H1226 0.984 . S
N1220 H1227 0.984 . S
N1221 C1214 1.356 . S
N1221 H1224 0.984 . S
N1221 H1225 0.985 . S
H1222 N1217 0.984 . S
H1223 N1217 0.985 . S
H1224 N1221 0.984 . S
H1225 N1221 0.985 . S
H1226 N1220 0.984 . S
H1227 N1220 0.984 . S
H1228 N1216 0.984 . S
H1229 N1216 0.985 . S
C1230 C1231 1.363 . S
C1230 C1236 1.379 . S
C1230 N1238 1.356 . S
C1231 C1230 1.363 . S
C1231 C1237 1.363 . S
C1232 C1233 1.363 . S
C1232 C1237 1.379 . S
C1232 N1239 1.356 . S
C1233 C1232 1.363 . S
C1233 C1236 1.363 . S
N1234 C1236 1.356 . S
N1234 H1246 0.984 . S
N1234 H1247 0.985 . S
N1235 C1237 1.356 . S
N1235 H1240 0.984 . S
N1235 H1241 0.985 . S
C1236 C1230 1.379 . S
C1236 C1233 1.363 . S
C1236 N1234 1.356 . S
C1237 C1231 1.363 . S
C1237 C1232 1.379 . S
C1237 N1235 1.356 . S
N1238 C1230 1.356 . S
N1238 H1244 0.984 . S
N1238 H1245 0.984 . S
N1239 C1232 1.356 . S
N1239 H1242 0.984 . S
N1239 H1243 0.985 . S
H1240 N1235 0.984 . S
H1241 N1235 0.985 . S
H1242 N1239 0.984 . S
H1243 N1239 0.985 . S
H1244 N1238 0.984 . S
H1245 N1238 0.984 . S
H1246 N1234 0.984 . S
H1247 N1234 0.985 . S
C1248 C1249 1.363 1_554 S
C1248 C1254 1.379 . S
C1248 N1256 1.356 . S
C1249 C1248 1.363 1_556 S
C1249 C1255 1.363 . S
C1250 C1251 1.363 1_556 S
C1250 C1255 1.379 . S
C1250 N1257 1.356 . S
C1251 C1250 1.363 1_554 S
C1251 C1254 1.363 . S
N1252 C1254 1.356 . S
N1252 H1264 0.984 . S
N1252 H1265 0.985 . S
N1253 C1255 1.356 . S
N1253 H1258 0.984 . S
N1253 H1259 0.985 . S
C1254 C1248 1.379 . S
C1254 C1251 1.363 . S
C1254 N1252 1.356 . S
C1255 C1249 1.363 . S
C1255 C1250 1.379 . S
C1255 N1253 1.356 . S
N1256 C1248 1.356 . S
N1256 H1262 0.984 . S
N1256 H1263 0.984 . S
N1257 C1250 1.356 . S
N1257 H1260 0.984 . S
N1257 H1261 0.985 . S
H1258 N1253 0.984 . S
H1259 N1253 0.985 . S
H1260 N1257 0.984 . S
H1261 N1257 0.985 . S
H1262 N1256 0.984 . S
H1263 N1256 0.984 . S
H1264 N1252 0.984 . S
H1265 N1252 0.985 . S
C1266 C1267 1.363 . S
C1266 C1272 1.379 . S
C1266 N1274 1.346 1_455 S
C1267 C1266 1.363 . S
C1267 C1273 1.363 . S
C1268 C1269 1.363 . S
C1268 C1273 1.379 . S
C1268 N1275 1.356 . S
C1269 C1268 1.363 . S
C1269 C1272 1.363 . S
N1270 C1272 1.345 1_655 S
N1270 H1282 1.001 . S
N1270 H1283 0.980 1_655 S
N1271 C1273 1.356 . S
N1271 H1276 0.984 . S
N1271 H1277 0.985 . S
C1272 C1266 1.379 . S
C1272 C1269 1.363 . S
C1272 N1270 1.345 1_455 S
C1273 C1267 1.363 . S
C1273 C1268 1.379 . S
C1273 N1271 1.356 . S
N1274 C1266 1.346 1_655 S
N1274 H1280 1.001 . S
N1274 H1281 0.980 1_655 S
N1275 C1268 1.356 . S
N1275 H1278 0.984 . S
N1275 H1279 0.985 . S
H1276 N1271 0.984 . S
H1277 N1271 0.985 . S
H1278 N1275 0.984 . S
H1279 N1275 0.985 . S
H1280 N1274 1.001 . S
H1281 N1274 0.980 1_455 S
H1282 N1270 1.001 . S
H1283 N1270 0.980 1_455 S
C1284 C1285 1.363 . S
C1284 C1290 1.379 . S
C1284 N1292 1.356 . S
C1285 C1284 1.363 . S
C1285 C1291 1.363 . S
C1286 C1287 1.363 . S
C1286 C1291 1.379 . S
C1286 N1293 1.356 . S
C1287 C1286 1.363 . S
C1287 C1290 1.363 . S
N1288 C1290 1.356 . S
N1288 H1300 0.984 . S
N1288 H1301 0.985 . S
N1289 C1291 1.356 . S
N1289 H1294 0.984 . S
N1289 H1295 0.985 . S
C1290 C1284 1.379 . S
C1290 C1287 1.363 . S
C1290 N1288 1.356 . S
C1291 C1285 1.363 . S
C1291 C1286 1.379 . S
C1291 N1289 1.356 . S
N1292 C1284 1.356 . S
N1292 H1298 0.984 . S
N1292 H1299 0.984 . S
N1293 C1286 1.356 . S
N1293 H1296 0.984 . S
N1293 H1297 0.985 . S
H1294 N1289 0.984 . S
H1295 N1289 0.985 . S
H1296 N1293 0.984 . S
H1297 N1293 0.985 . S
H1298 N1292 0.984 . S
H1299 N1292 0.984 . S
H1300 N1288 0.984 . S
H1301 N1288 0.985 . S
C1302 C1303 1.363 . S
C1302 C1308 1.379 . S
C1302 N1310 1.356 . S
C1303 C1302 1.363 . S
C1303 C1309 1.363 . S
C1304 C1305 1.363 . S
C1304 C1309 1.379 . S
C1304 N1311 1.356 . S
C1305 C1304 1.363 . S
C1305 C1308 1.363 . S
N1306 C1308 1.356 . S
N1306 H1318 0.984 . S
N1306 H1319 0.985 . S
N1307 C1309 1.356 . S
N1307 H1312 0.984 . S
N1307 H1313 0.985 . S
C1308 C1302 1.379 . S
C1308 C1305 1.363 . S
C1308 N1306 1.356 . S
C1309 C1303 1.363 . S
C1309 C1304 1.379 . S
C1309 N1307 1.356 . S
N1310 C1302 1.356 . S
N1310 H1316 0.984 . S
N1310 H1317 0.984 . S
N1311 C1304 1.356 . S
N1311 H1314 0.984 . S
N1311 H1315 0.985 . S
H1312 N1307 0.984 . S
H1313 N1307 0.985 . S
H1314 N1311 0.984 . S
H1315 N1311 0.985 . S
H1316 N1310 0.984 . S
H1317 N1310 0.984 . S
H1318 N1306 0.984 . S
H1319 N1306 0.985 . S
C1320 C1321 1.363 . S
C1320 C1326 1.379 . S
C1320 N1328 1.356 . S
C1321 C1320 1.363 . S
C1321 C1327 1.363 . S
C1322 C1323 1.363 . S
C1322 C1327 1.379 . S
C1322 N1329 1.356 . S
C1323 C1322 1.363 . S
C1323 C1326 1.363 . S
N1324 C1326 1.356 . S
N1324 H1336 0.984 . S
N1324 H1337 0.985 . S
N1325 C1327 1.356 . S
N1325 H1330 0.984 . S
N1325 H1331 0.985 . S
C1326 C1320 1.379 . S
C1326 C1323 1.363 . S
C1326 N1324 1.356 . S
C1327 C1321 1.363 . S
C1327 C1322 1.379 . S
C1327 N1325 1.356 . S
N1328 C1320 1.356 . S
N1328 H1334 0.984 . S
N1328 H1335 0.984 . S
N1329 C1322 1.356 . S
N1329 H1332 0.984 . S
N1329 H1333 0.985 . S
H1330 N1325 0.984 . S
H1331 N1325 0.985 . S
H1332 N1329 0.984 . S
H1333 N1329 0.985 . S
H1334 N1328 0.984 . S
H1335 N1328 0.984 . S
H1336 N1324 0.984 . S
H1337 N1324 0.985 . S
C1338 C1339 1.363 . S
C1338 C1344 1.379 1_554 S
C1338 N1346 1.356 . S
C1339 C1338 1.363 . S
C1339 C1345 1.363 . S
C1340 C1341 1.363 . S
C1340 C1345 1.379 1_556 S
C1340 N1347 1.356 . S
C1341 C1340 1.363 . S
C1341 C1344 1.363 . S
N1342 C1344 1.356 . S
N1342 H1354 0.984 . S
N1342 H1355 0.985 . S
N1343 C1345 1.356 . S
N1343 H1348 0.984 . S
N1343 H1349 0.985 . S
C1344 C1338 1.379 1_556 S
C1344 C1341 1.363 . S
C1344 N1342 1.356 . S
C1345 C1339 1.363 . S
C1345 C1340 1.379 1_554 S
C1345 N1343 1.356 . S
N1346 C1338 1.356 . S
N1346 H1352 0.984 . S
N1346 H1353 0.984 . S
N1347 C1340 1.356 . S
N1347 H1350 0.984 . S
N1347 H1351 0.985 . S
H1348 N1343 0.984 . S
H1349 N1343 0.985 . S
H1350 N1347 0.984 . S
H1351 N1347 0.985 . S
H1352 N1346 0.984 . S
H1353 N1346 0.984 . S
H1354 N1342 0.984 . S
H1355 N1342 0.985 . S
C1356 C1357 1.363 . S
C1356 C1362 1.379 . S
C1356 N1364 1.356 . S
C1357 C1356 1.363 . S
C1357 C1363 1.363 . S
C1358 C1359 1.363 . S
C1358 C1363 1.379 . S
C1358 N1365 1.356 . S
C1359 C1358 1.363 . S
C1359 C1362 1.363 . S
N1360 C1362 1.356 . S
N1360 H1372 0.984 . S
N1360 H1373 0.985 . S
N1361 C1363 1.356 . S
N1361 H1366 0.984 . S
N1361 H1367 0.985 . S
C1362 C1356 1.379 . S
C1362 C1359 1.363 . S
C1362 N1360 1.356 . S
C1363 C1357 1.363 . S
C1363 C1358 1.379 . S
C1363 N1361 1.356 . S
N1364 C1356 1.356 . S
N1364 H1370 0.984 . S
N1364 H1371 0.984 . S
N1365 C1358 1.356 . S
N1365 H1368 0.984 . S
N1365 H1369 0.985 . S
H1366 N1361 0.984 . S
H1367 N1361 0.985 . S
H1368 N1365 0.984 . S
H1369 N1365 0.985 . S
H1370 N1364 0.984 . S
H1371 N1364 0.984 . S
H1372 N1360 0.984 . S
H1373 N1360 0.985 . S
C1374 C1375 1.363 . S
C1374 C1380 1.379 . S
C1374 N1382 1.356 . S
C1375 C1374 1.363 . S
C1375 C1381 1.363 . S
C1376 C1377 1.363 . S
C1376 C1381 1.379 . S
C1376 N1383 1.356 . S
C1377 C1376 1.363 . S
C1377 C1380 1.363 . S
N1378 C1380 1.356 . S
N1378 H1390 0.984 . S
N1378 H1391 0.985 . S
N1379 C1381 1.356 . S
N1379 H1384 0.984 . S
N1379 H1385 0.985 . S
C1380 C1374 1.379 . S
C1380 C1377 1.363 . S
C1380 N1378 1.356 . S
C1381 C1375 1.363 . S
C1381 C1376 1.379 . S
C1381 N1379 1.356 . S
N1382 C1374 1.356 . S
N1382 H1388 0.984 . S
N1382 H1389 0.984 . S
N1383 C1376 1.356 . S
N1383 H1386 0.984 . S
N1383 H1387 0.985 . S
H1384 N1379 0.984 . S
H1385 N1379 0.985 . S
H1386 N1383 0.984 . S
H1387 N1383 0.985 . S
H1388 N1382 0.984 . S
H1389 N1382 0.984 . S
H1390 N1378 0.984 . S
H1391 N1378 0.985 . S
C1392 C1393 1.363 . S
C1392 C1398 1.379 . S
C1392 N1400 1.356 . S
C1393 C1392 1.363 . S
C1393 C1399 1.363 . S
C1394 C1395 1.363 . S
C1394 C1399 1.379 . S
C1394 N1401 1.356 . S
C1395 C1394 1.363 . S
C1395 C1398 1.363 . S
N1396 C1398 1.356 . S
N1396 H1408 0.984 . S
N1396 H1409 0.985 . S
N1397 C1399 1.356 . S
N1397 H1402 0.984 . S
N1397 H1403 0.985 . S
C1398 C1392 1.379 . S
C1398 C1395 1.363 . S
C1398 N1396 1.356 . S
C1399 C1393 1.363 . S
C1399 C1394 1.379 . S
C1399 N1397 1.356 . S
N1400 C1392 1.356 . S
N1400 H1406 0.984 . S
N1400 H1407 0.984 . S
N1401 C1394 1.356 . S
N1401 H1404 0.984 . S
N1401 H1405 0.985 . S
H1402 N1397 0.984 . S
H1403 N1397 0.985 . S
H1404 N1401 0.984 . S
H1405 N1401 0.985 . S
H1406 N1400 0.984 . S
H1407 N1400 0.984 . S
H1408 N1396 0.984 . S
H1409 N1396 0.985 . S
C1410 C1411 1.363 . S
C1410 C1416 1.379 . S
C1410 N1418 1.356 . S
C1411 C1410 1.363 . S
C1411 C1417 1.363 . S
C1412 C1413 1.363 . S
C1412 C1417 1.379 . S
C1412 N1419 1.356 . S
C1413 C1412 1.363 . S
C1413 C1416 1.363 . S
N1414 C1416 1.356 . S
N1414 H1426 0.984 . S
N1414 H1427 0.985 . S
N1415 C1417 1.356 . S
N1415 H1420 0.984 . S
N1415 H1421 0.985 . S
C1416 C1410 1.379 . S
C1416 C1413 1.363 . S
C1416 N1414 1.356 . S
C1417 C1411 1.363 . S
C1417 C1412 1.379 . S
C1417 N1415 1.356 . S
N1418 C1410 1.356 . S
N1418 H1424 0.984 . S
N1418 H1425 0.984 . S
N1419 C1412 1.356 . S
N1419 H1422 0.984 . S
N1419 H1423 0.985 . S
H1420 N1415 0.984 . S
H1421 N1415 0.985 . S
H1422 N1419 0.984 . S
H1423 N1419 0.985 . S
H1424 N1418 0.984 . S
H1425 N1418 0.984 . S
H1426 N1414 0.984 . S
H1427 N1414 0.985 . S
C1428 C1429 1.363 . S
C1428 C1434 1.379 . S
C1428 N1436 1.356 . S
C1429 C1428 1.363 . S
C1429 C1435 1.363 . S
C1430 C1431 1.363 . S
C1430 C1435 1.379 . S
C1430 N1437 1.356 . S
C1431 C1430 1.363 . S
C1431 C1434 1.363 . S
N1432 C1434 1.356 . S
N1432 H1444 0.984 . S
N1432 H1445 0.985 . S
N1433 C1435 1.356 . S
N1433 H1438 0.984 . S
N1433 H1439 0.985 . S
C1434 C1428 1.379 . S
C1434 C1431 1.363 . S
C1434 N1432 1.356 . S
C1435 C1429 1.363 . S
C1435 C1430 1.379 . S
C1435 N1433 1.356 . S
N1436 C1428 1.356 . S
N1436 H1442 0.984 . S
N1436 H1443 0.984 . S
N1437 C1430 1.356 . S
N1437 H1440 0.984 . S
N1437 H1441 0.985 . S
H1438 N1433 0.984 . S
H1439 N1433 0.985 . S
H1440 N1437 0.984 . S
H1441 N1437 0.985 . S
H1442 N1436 0.984 . S
H1443 N1436 0.984 . S
H1444 N1432 0.984 . S
H1445 N1432 0.985 . S
C1446 C1447 1.363 . S
C1446 C1452 1.379 . S
C1446 N1454 1.356 . S
C1447 C1446 1.363 . S
C1447 C1453 1.363 . S
C1448 C1449 1.363 . S
C1448 C1453 1.379 . S
C1448 N1455 1.356 . S
C1449 C1448 1.363 . S
C1449 C1452 1.363 . S
N1450 C1452 1.356 . S
N1450 H1462 0.984 . S
N1450 H1463 0.985 . S
N1451 C1453 1.356 . S
N1451 H1456 0.984 . S
N1451 H1457 0.985 . S
C1452 C1446 1.379 . S
C1452 C1449 1.363 . S
C1452 N1450 1.356 . S
C1453 C1447 1.363 . S
C1453 C1448 1.379 . S
C1453 N1451 1.356 . S
N1454 C1446 1.356 . S
N1454 H1460 0.984 . S
N1454 H1461 0.984 . S
N1455 C1448 1.356 . S
N1455 H1458 0.984 . S
N1455 H1459 0.985 . S
H1456 N1451 0.984 . S
H1457 N1451 0.985 . S
H1458 N1455 0.984 . S
H1459 N1455 0.985 . S
H1460 N1454 0.984 . S
H1461 N1454 0.984 . S
H1462 N1450 0.984 . S
H1463 N1450 0.985 . S
C1464 C1465 1.363 . S
C1464 C1470 1.379 . S
C1464 N1472 1.356 . S
C1465 C1464 1.363 . S
C1465 C1471 1.363 . S
C1466 C1467 1.363 . S
C1466 C1471 1.379 . S
C1466 N1473 1.356 . S
C1467 C1466 1.363 . S
C1467 C1470 1.363 . S
N1468 C1470 1.356 . S
N1468 H1480 0.984 . S
N1468 H1481 0.985 . S
N1469 C1471 1.356 . S
N1469 H1474 0.984 . S
N1469 H1475 0.985 . S
C1470 C1464 1.379 . S
C1470 C1467 1.363 . S
C1470 N1468 1.356 . S
C1471 C1465 1.363 . S
C1471 C1466 1.379 . S
C1471 N1469 1.356 . S
N1472 C1464 1.356 . S
N1472 H1478 0.984 . S
N1472 H1479 0.984 . S
N1473 C1466 1.356 . S
N1473 H1476 0.984 . S
N1473 H1477 0.985 . S
H1474 N1469 0.984 . S
H1475 N1469 0.985 . S
H1476 N1473 0.984 . S
H1477 N1473 0.985 . S
H1478 N1472 0.984 . S
H1479 N1472 0.984 . S
H1480 N1468 0.984 . S
H1481 N1468 0.985 . S
C1482 C1483 1.363 . S
C1482 C1488 1.379 . S
C1482 N1490 1.356 . S
C1483 C1482 1.363 . S
C1483 C1489 1.363 . S
C1484 C1485 1.363 . S
C1484 C1489 1.379 . S
C1484 N1491 1.356 . S
C1485 C1484 1.363 . S
C1485 C1488 1.363 . S
N1486 C1488 1.356 . S
N1486 H1498 0.984 . S
N1486 H1499 0.985 . S
N1487 C1489 1.356 . S
N1487 H1492 0.984 . S
N1487 H1493 0.985 . S
C1488 C1482 1.379 . S
C1488 C1485 1.363 . S
C1488 N1486 1.356 . S
C1489 C1483 1.363 . S
C1489 C1484 1.379 . S
C1489 N1487 1.356 . S
N1490 C1482 1.356 . S
N1490 H1496 0.984 . S
N1490 H1497 0.984 . S
N1491 C1484 1.356 . S
N1491 H1494 0.984 . S
N1491 H1495 0.985 . S
H1492 N1487 0.984 . S
H1493 N1487 0.985 . S
H1494 N1491 0.984 . S
H1495 N1491 0.985 . S
H1496 N1490 0.984 . S
H1497 N1490 0.984 . S
H1498 N1486 0.984 . S
H1499 N1486 0.985 . S
C1500 C1501 1.363 . S
C1500 C1506 1.379 . S
C1500 N1508 1.356 . S
C1501 C1500 1.363 . S
C1501 C1507 1.363 . S
C1502 C1503 1.363 . S
C1502 C1507 1.379 . S
C1502 N1509 1.356 . S
C1503 C1502 1.363 . S
C1503 C1506 1.363 . S
N1504 C1506 1.356 . S
N1504 H1516 0.984 . S
N1504 H1517 0.985 . S
N1505 C1507 1.356 . S
N1505 H1510 0.984 . S
N1505 H1511 0.985 . S
C1506 C1500 1.379 . S
C1506 C1503 1.363 . S
C1506 N1504 1.356 . S
C1507 C1501 1.363 . S
C1507 C1502 1.379 . S
C1507 N1505 1.356 . S
N1508 C1500 1.356 . S
N1508 H1514 0.984 . S
N1508 H1515 0.984 . S
N1509 C1502 1.356 . S
N1509 H1512 0.984 . S
N1509 H1513 0.985 . S
H1510 N1505 0.984 . S
H1511 N1505 0.985 . S
H1512 N1509 0.984 . S
H1513 N1509 0.985 . S
H1514 N1508 0.984 . S
H1515 N1508 0.984 . S
H1516 N1504 0.984 . S
H1517 N1504 0.985 . S
C1518 C1519 1.363 . S
C1518 C1524 1.379 . S
C1518 N1526 1.356 . S
C1519 C1518 1.363 . S
C1519 C1525 1.363 . S
C1520 C1521 1.363 . S
C1520 C1525 1.379 . S
C1520 N1527 1.356 . S
C1521 C1520 1.363 . S
C1521 C1524 1.363 . S
N1522 C1524 1.356 . S
N1522 H1534 0.984 . S
N1522 H1535 0.985 . S
N1523 C1525 1.356 . S
N1523 H1528 0.984 . S
N1523 H1529 0.985 . S
C1524 C1518 1.379 . S
C1524 C1521 1.363 . S
C1524 N1522 1.356 . S
C1525 C1519 1.363 . S
C1525 C1520 1.379 . S
C1525 N1523 1.356 . S
N1526 C1518 1.356 . S
N1526 H1532 0.984 . S
N1526 H1533 0.984 . S
N1527 C1520 1.356 . S
N1527 H1530 0.984 . S
N1527 H1531 0.985 . S
H1528 N1523 0.984 . S
H1529 N1523 0.985 . S
H1530 N1527 0.984 . S
H1531 N1527 0.985 . S
H1532 N1526 0.984 . S
H1533 N1526 0.984 . S
H1534 N1522 0.984 . S
H1535 N1522 0.985 . S
C1536 C1537 1.363 . S
C1536 C1542 1.379 . S
C1536 N1544 1.356 . S
C1537 C1536 1.363 . S
C1537 C1543 1.363 . S
C1538 C1539 1.363 . S
C1538 C1543 1.379 . S
C1538 N1545 1.356 . S
C1539 C1538 1.363 . S
C1539 C1542 1.363 . S
N1540 C1542 1.356 . S
N1540 H1552 0.984 . S
N1540 H1553 0.985 . S
N1541 C1543 1.356 . S
N1541 H1546 0.984 . S
N1541 H1547 0.985 . S
C1542 C1536 1.379 . S
C1542 C1539 1.363 . S
C1542 N1540 1.356 . S
C1543 C1537 1.363 . S
C1543 C1538 1.379 . S
C1543 N1541 1.356 . S
N1544 C1536 1.356 . S
N1544 H1550 0.984 . S
N1544 H1551 0.984 . S
N1545 C1538 1.356 . S
N1545 H1548 0.984 . S
N1545 H1549 0.985 . S
H1546 N1541 0.984 . S
H1547 N1541 0.985 . S
H1548 N1545 0.984 . S
H1549 N1545 0.985 . S
H1550 N1544 0.984 . S
H1551 N1544 0.984 . S
H1552 N1540 0.984 . S
H1553 N1540 0.985 . S
C1554 C1555 1.363 . S
C1554 C1560 1.379 . S
C1554 N1562 1.356 . S
C1555 C1554 1.363 . S
C1555 C1561 1.363 . S
C1556 C1557 1.363 . S
C1556 C1561 1.379 . S
C1556 N1563 1.356 . S
C1557 C1556 1.363 . S
C1557 C1560 1.363 . S
N1558 C1560 1.356 . S
N1558 H1570 0.984 . S
N1558 H1571 0.985 . S
N1559 C1561 1.356 . S
N1559 H1564 0.984 . S
N1559 H1565 0.985 . S
C1560 C1554 1.379 . S
C1560 C1557 1.363 . S
C1560 N1558 1.356 . S
C1561 C1555 1.363 . S
C1561 C1556 1.379 . S
C1561 N1559 1.356 . S
N1562 C1554 1.356 . S
N1562 H1568 0.984 . S
N1562 H1569 0.984 . S
N1563 C1556 1.356 . S
N1563 H1566 0.984 . S
N1563 H1567 0.985 . S
H1564 N1559 0.984 . S
H1565 N1559 0.985 . S
H1566 N1563 0.984 . S
H1567 N1563 0.985 . S
H1568 N1562 0.984 . S
H1569 N1562 0.984 . S
H1570 N1558 0.984 . S
H1571 N1558 0.985 . S
C1572 C1573 1.363 . S
C1572 C1578 1.379 . S
C1572 N1580 1.356 . S
C1573 C1572 1.363 . S
C1573 C1579 1.363 . S
C1574 C1575 1.363 . S
C1574 C1579 1.379 . S
C1574 N1581 1.356 . S
C1575 C1574 1.363 . S
C1575 C1578 1.363 . S
N1576 C1578 1.356 . S
N1576 H1588 0.984 . S
N1576 H1589 0.985 . S
N1577 C1579 1.356 . S
N1577 H1582 0.984 . S
N1577 H1583 0.985 . S
C1578 C1572 1.379 . S
C1578 C1575 1.363 . S
C1578 N1576 1.356 . S
C1579 C1573 1.363 . S
C1579 C1574 1.379 . S
C1579 N1577 1.356 . S
N1580 C1572 1.356 . S
N1580 H1586 0.984 . S
N1580 H1587 0.984 . S
N1581 C1574 1.356 . S
N1581 H1584 0.984 . S
N1581 H1585 0.985 . S
H1582 N1577 0.984 . S
H1583 N1577 0.985 . S
H1584 N1581 0.984 . S
H1585 N1581 0.985 . S
H1586 N1580 0.984 . S
H1587 N1580 0.984 . S
H1588 N1576 0.984 . S
H1589 N1576 0.985 . S
C1590 C1591 1.363 . S
C1590 C1596 1.379 . S
C1590 N1598 1.356 . S
C1591 C1590 1.363 . S
C1591 C1597 1.363 . S
C1592 C1593 1.363 . S
C1592 C1597 1.379 . S
C1592 N1599 1.356 . S
C1593 C1592 1.363 . S
C1593 C1596 1.363 . S
N1594 C1596 1.356 . S
N1594 H1606 0.984 . S
N1594 H1607 0.985 . S
N1595 C1597 1.356 . S
N1595 H1600 0.984 . S
N1595 H1601 0.985 . S
C1596 C1590 1.379 . S
C1596 C1593 1.363 . S
C1596 N1594 1.356 . S
C1597 C1591 1.363 . S
C1597 C1592 1.379 . S
C1597 N1595 1.356 . S
N1598 C1590 1.356 . S
N1598 H1604 0.984 . S
N1598 H1605 0.984 . S
N1599 C1592 1.356 . S
N1599 H1602 0.984 . S
N1599 H1603 0.985 . S
H1600 N1595 0.984 . S
H1601 N1595 0.985 . S
H1602 N1599 0.984 . S
H1603 N1599 0.985 . S
H1604 N1598 0.984 . S
H1605 N1598 0.984 . S
H1606 N1594 0.984 . S
H1607 N1594 0.985 . S
C1608 C1609 1.363 . S
C1608 C1614 1.379 . S
C1608 N1616 1.356 . S
C1609 C1608 1.363 . S
C1609 C1615 1.363 . S
C1610 C1611 1.363 . S
C1610 C1615 1.379 . S
C1610 N1617 1.356 . S
C1611 C1610 1.363 . S
C1611 C1614 1.363 . S
N1612 C1614 1.356 . S
N1612 H1624 0.984 . S
N1612 H1625 0.985 . S
N1613 C1615 1.356 . S
N1613 H1618 0.984 . S
N1613 H1619 0.985 . S
C1614 C1608 1.379 . S
C1614 C1611 1.363 . S
C1614 N1612 1.356 . S
C1615 C1609 1.363 . S
C1615 C1610 1.379 . S
C1615 N1613 1.356 . S
N1616 C1608 1.356 . S
N1616 H1622 0.984 . S
N1616 H1623 0.984 . S
N1617 C1610 1.356 . S
N1617 H1620 0.984 . S
N1617 H1621 0.985 . S
H1618 N1613 0.984 . S
H1619 N1613 0.985 . S
H1620 N1617 0.984 . S
H1621 N1617 0.985 . S
H1622 N1616 0.984 . S
H1623 N1616 0.984 . S
H1624 N1612 0.984 . S
H1625 N1612 0.985 . S
C1626 C1627 1.363 . S
C1626 C1632 1.379 . S
C1626 N1634 1.356 . S
C1627 C1626 1.363 . S
C1627 C1633 1.363 . S
C1628 C1629 1.363 . S
C1628 C1633 1.379 . S
C1628 N1635 1.356 . S
C1629 C1628 1.363 . S
C1629 C1632 1.363 . S
N1630 C1632 1.356 . S
N1630 H1642 0.984 . S
N1630 H1643 0.985 . S
N1631 C1633 1.356 . S
N1631 H1636 0.984 . S
N1631 H1637 0.985 . S
C1632 C1626 1.379 . S
C1632 C1629 1.363 . S
C1632 N1630 1.356 . S
C1633 C1627 1.363 . S
C1633 C1628 1.379 . S
C1633 N1631 1.356 . S
N1634 C1626 1.356 . S
N1634 H1640 0.984 . S
N1634 H1641 0.984 . S
N1635 C1628 1.356 . S
N1635 H1638 0.984 . S
N1635 H1639 0.985 . S
H1636 N1631 0.984 . S
H1637 N1631 0.985 . S
H1638 N1635 0.984 . S
H1639 N1635 0.985 . S
H1640 N1634 0.984 . S
H1641 N1634 0.984 . S
H1642 N1630 0.984 . S
H1643 N1630 0.985 . S
C1644 C1645 1.363 . S
C1644 C1650 1.379 . S
C1644 N1652 1.356 . S
C1645 C1644 1.363 . S
C1645 C1651 1.363 . S
C1646 C1647 1.363 . S
C1646 C1651 1.379 . S
C1646 N1653 1.356 . S
C1647 C1646 1.363 . S
C1647 C1650 1.363 . S
N1648 C1650 1.356 . S
N1648 H1660 0.984 . S
N1648 H1661 0.985 . S
N1649 C1651 1.356 . S
N1649 H1654 0.984 . S
N1649 H1655 0.985 . S
C1650 C1644 1.379 . S
C1650 C1647 1.363 . S
C1650 N1648 1.356 . S
C1651 C1645 1.363 . S
C1651 C1646 1.379 . S
C1651 N1649 1.356 . S
N1652 C1644 1.356 . S
N1652 H1658 0.984 . S
N1652 H1659 0.984 . S
N1653 C1646 1.356 . S
N1653 H1656 0.984 . S
N1653 H1657 0.985 . S
H1654 N1649 0.984 . S
H1655 N1649 0.985 . S
H1656 N1653 0.984 . S
H1657 N1653 0.985 . S
H1658 N1652 0.984 . S
H1659 N1652 0.984 . S
H1660 N1648 0.984 . S
H1661 N1648 0.985 . S
C1662 C1663 1.363 . S
C1662 C1668 1.379 . S
C1662 N1670 1.356 . S
C1663 C1662 1.363 . S
C1663 C1669 1.363 . S
C1664 C1665 1.363 . S
C1664 C1669 1.379 . S
C1664 N1671 1.356 . S
C1665 C1664 1.363 . S
C1665 C1668 1.363 . S
N1666 C1668 1.356 . S
N1666 H1678 0.984 . S
N1666 H1679 0.985 . S
N1667 C1669 1.356 . S
N1667 H1672 0.984 . S
N1667 H1673 0.985 . S
C1668 C1662 1.379 . S
C1668 C1665 1.363 . S
C1668 N1666 1.356 . S
C1669 C1663 1.363 . S
C1669 C1664 1.379 . S
C1669 N1667 1.356 . S
N1670 C1662 1.356 . S
N1670 H1676 0.984 . S
N1670 H1677 0.984 . S
N1671 C1664 1.356 . S
N1671 H1674 0.984 . S
N1671 H1675 0.985 . S
H1672 N1667 0.984 . S
H1673 N1667 0.985 . S
H1674 N1671 0.984 . S
H1675 N1671 0.985 . S
H1676 N1670 0.984 . S
H1677 N1670 0.984 . S
H1678 N1666 0.984 . S
H1679 N1666 0.985 . S
C1680 C1681 1.363 . S
C1680 C1686 1.379 . S
C1680 N1688 1.356 . S
C1681 C1680 1.363 . S
C1681 C1687 1.363 . S
C1682 C1683 1.363 . S
C1682 C1687 1.379 . S
C1682 N1689 1.356 . S
C1683 C1682 1.363 . S
C1683 C1686 1.363 . S
N1684 C1686 1.356 . S
N1684 H1696 0.984 . S
N1684 H1697 0.985 . S
N1685 C1687 1.356 . S
N1685 H1690 0.984 . S
N1685 H1691 0.985 . S
C1686 C1680 1.379 . S
C1686 C1683 1.363 . S
C1686 N1684 1.356 . S
C1687 C1681 1.363 . S
C1687 C1682 1.379 . S
C1687 N1685 1.356 . S
N1688 C1680 1.356 . S
N1688 H1694 0.984 . S
N1688 H1695 0.984 . S
N1689 C1682 1.356 . S
N1689 H1692 0.984 . S
N1689 H1693 0.985 . S
H1690 N1685 0.984 . S
H1691 N1685 0.985 . S
H1692 N1689 0.984 . S
H1693 N1689 0.985 . S
H1694 N1688 0.984 . S
H1695 N1688 0.984 . S
H1696 N1684 0.984 . S
H1697 N1684 0.985 . S
C1698 C1699 1.363 . S
C1698 C1704 1.379 . S
C1698 N1706 1.356 . S
C1699 C1698 1.363 . S
C1699 C1705 1.363 . S
C1700 C1701 1.363 . S
C1700 C1705 1.379 . S
C1700 N1707 1.356 . S
C1701 C1700 1.363 . S
C1701 C1704 1.363 . S
N1702 C1704 1.356 . S
N1702 H1714 0.984 . S
N1702 H1715 0.985 . S
N1703 C1705 1.356 . S
N1703 H1708 0.984 . S
N1703 H1709 0.985 . S
C1704 C1698 1.379 . S
C1704 C1701 1.363 . S
C1704 N1702 1.356 . S
C1705 C1699 1.363 . S
C1705 C1700 1.379 . S
C1705 N1703 1.356 . S
N1706 C1698 1.356 . S
N1706 H1712 0.984 . S
N1706 H1713 0.984 . S
N1707 C1700 1.356 . S
N1707 H1710 0.984 . S
N1707 H1711 0.985 . S
H1708 N1703 0.984 . S
H1709 N1703 0.985 . S
H1710 N1707 0.984 . S
H1711 N1707 0.985 . S
H1712 N1706 0.984 . S
H1713 N1706 0.984 . S
H1714 N1702 0.984 . S
H1715 N1702 0.985 . S
C1716 C1717 1.363 . S
C1716 C1722 1.379 . S
C1716 N1724 1.356 . S
C1717 C1716 1.363 . S
C1717 C1723 1.363 . S
C1718 C1719 1.363 . S
C1718 C1723 1.379 . S
C1718 N1725 1.356 . S
C1719 C1718 1.363 . S
C1719 C1722 1.363 . S
N1720 C1722 1.356 . S
N1720 H1732 0.984 . S
N1720 H1733 0.985 . S
N1721 C1723 1.356 . S
N1721 H1726 0.984 . S
N1721 H1727 0.985 . S
C1722 C1716 1.379 . S
C1722 C1719 1.363 . S
C1722 N1720 1.356 . S
C1723 C1717 1.363 . S
C1723 C1718 1.379 . S
C1723 N1721 1.356 . S
N1724 C1716 1.356 . S
N1724 H1730 0.984 . S
N1724 H1731 0.984 . S
N1725 C1718 1.356 . S
N1725 H1728 0.984 . S
N1725 H1729 0.985 . S
H1726 N1721 0.984 . S
H1727 N1721 0.985 . S
H1728 N1725 0.984 . S
H1729 N1725 0.985 . S
H1730 N1724 0.984 . S
H1731 N1724 0.984 . S
H1732 N1720 0.984 . S
H1733 N1720 0.985 . S
C1734 C1735 1.363 . S
C1734 C1740 1.379 . S
C1734 N1742 1.356 . S
C1735 C1734 1.363 . S
C1735 C1741 1.363 . S
C1736 C1737 1.363 . S
C1736 C1741 1.379 . S
C1736 N1743 1.356 . S
C1737 C1736 1.363 . S
C1737 C1740 1.363 . S
N1738 C1740 1.356 . S
N1738 H1750 0.984 . S
N1738 H1751 0.985 . S
N1739 C1741 1.356 . S
N1739 H1744 0.984 . S
N1739 H1745 0.985 . S
C1740 C1734 1.379 . S
C1740 C1737 1.363 . S
C1740 N1738 1.356 . S
C1741 C1735 1.363 . S
C1741 C1736 1.379 . S
C1741 N1739 1.356 . S
N1742 C1734 1.356 . S
N1742 H1748 0.984 . S
N1742 H1749 0.984 . S
N1743 C1736 1.356 . S
N1743 H1746 0.984 . S
N1743 H1747 0.985 . S
H1744 N1739 0.984 . S
H1745 N1739 0.985 . S
H1746 N1743 0.984 . S
H1747 N1743 0.985 . S
H1748 N1742 0.984 . S
H1749 N1742 0.984 . S
H1750 N1738 0.984 . S
H1751 N1738 0.985 . S
C1752 C1753 1.363 . S
C1752 C1758 1.379 . S
C1752 N1760 1.356 . S
C1753 C1752 1.363 . S
C1753 C1759 1.363 . S
C1754 C1755 1.363 . S
C1754 C1759 1.379 . S
C1754 N1761 1.356 . S
C1755 C1754 1.363 . S
C1755 C1758 1.363 . S
N1756 C1758 1.356 . S
N1756 H1768 0.984 . S
N1756 H1769 0.985 . S
N1757 C1759 1.356 . S
N1757 H1762 0.984 . S
N1757 H1763 0.985 . S
C1758 C1752 1.379 . S
C1758 C1755 1.363 . S
C1758 N1756 1.356 . S
C1759 C1753 1.363 . S
C1759 C1754 1.379 . S
C1759 N1757 1.356 . S
N1760 C1752 1.356 . S
N1760 H1766 0.984 . S
N1760 H1767 0.984 . S
N1761 C1754 1.356 . S
N1761 H1764 0.984 . S
N1761 H1765 0.985 . S
H1762 N1757 0.984 . S
H1763 N1757 0.985 . S
H1764 N1761 0.984 . S
H1765 N1761 0.985 . S
H1766 N1760 0.984 . S
H1767 N1760 0.984 . S
H1768 N1756 0.984 . S
H1769 N1756 0.985 . S
C1770 C1771 1.363 . S
C1770 C1776 1.379 . S
C1770 N1778 1.356 . S
C1771 C1770 1.363 . S
C1771 C1777 1.363 . S
C1772 C1773 1.363 . S
C1772 C1777 1.379 . S
C1772 N1779 1.356 . S
C1773 C1772 1.363 . S
C1773 C1776 1.363 . S
N1774 C1776 1.356 . S
N1774 H1786 0.984 . S
N1774 H1787 0.985 . S
N1775 C1777 1.356 . S
N1775 H1780 0.984 . S
N1775 H1781 0.985 . S
C1776 C1770 1.379 . S
C1776 C1773 1.363 . S
C1776 N1774 1.356 . S
C1777 C1771 1.363 . S
C1777 C1772 1.379 . S
C1777 N1775 1.356 . S
N1778 C1770 1.356 . S
N1778 H1784 0.984 . S
N1778 H1785 0.984 . S
N1779 C1772 1.356 . S
N1779 H1782 0.984 . S
N1779 H1783 0.985 . S
H1780 N1775 0.984 . S
H1781 N1775 0.985 . S
H1782 N1779 0.984 . S
H1783 N1779 0.985 . S
H1784 N1778 0.984 . S
H1785 N1778 0.984 . S
H1786 N1774 0.984 . S
H1787 N1774 0.985 . S
C1788 C1789 1.363 . S
C1788 C1794 1.379 . S
C1788 N1796 1.356 . S
C1789 C1788 1.363 . S
C1789 C1795 1.363 . S
C1790 C1791 1.363 . S
C1790 C1795 1.379 . S
C1790 N1797 1.356 . S
C1791 C1790 1.363 . S
C1791 C1794 1.363 . S
N1792 C1794 1.356 . S
N1792 H1804 0.984 . S
N1792 H1805 0.985 . S
N1793 C1795 1.356 . S
N1793 H1798 0.984 . S
N1793 H1799 0.985 . S
C1794 C1788 1.379 . S
C1794 C1791 1.363 . S
C1794 N1792 1.356 . S
C1795 C1789 1.363 . S
C1795 C1790 1.379 . S
C1795 N1793 1.356 . S
N1796 C1788 1.356 . S
N1796 H1802 0.984 . S
N1796 H1803 0.984 . S
N1797 C1790 1.356 . S
N1797 H1800 0.984 . S
N1797 H1801 0.985 . S
H1798 N1793 0.984 . S
H1799 N1793 0.985 . S
H1800 N1797 0.984 . S
H1801 N1797 0.985 . S
H1802 N1796 0.984 . S
H1803 N1796 0.984 . S
H1804 N1792 0.984 . S
H1805 N1792 0.985 . S
C1806 C1807 1.363 . S
C1806 C1812 1.379 . S
C1806 N1814 1.356 . S
C1807 C1806 1.363 . S
C1807 C1813 1.363 . S
C1808 C1809 1.363 . S
C1808 C1813 1.379 . S
C1808 N1815 1.356 . S
C1809 C1808 1.363 . S
C1809 C1812 1.363 . S
N1810 C1812 1.356 . S
N1810 H1822 0.984 . S
N1810 H1823 0.985 . S
N1811 C1813 1.356 . S
N1811 H1816 0.984 . S
N1811 H1817 0.985 . S
C1812 C1806 1.379 . S
C1812 C1809 1.363 . S
C1812 N1810 1.356 . S
C1813 C1807 1.363 . S
C1813 C1808 1.379 . S
C1813 N1811 1.356 . S
N1814 C1806 1.356 . S
N1814 H1820 0.984 . S
N1814 H1821 0.984 . S
N1815 C1808 1.356 . S
N1815 H1818 0.984 . S
N1815 H1819 0.985 . S
H1816 N1811 0.984 . S
H1817 N1811 0.985 . S
H1818 N1815 0.984 . S
H1819 N1815 0.985 . S
H1820 N1814 0.984 . S
H1821 N1814 0.984 . S
H1822 N1810 0.984 . S
H1823 N1810 0.985 . S
C529 C7 0.959 . S
C531 C159 0.959 . S
C547 C29 0.959 . S
C549 C95 0.959 . S
C565 C49 0.959 . S
C567 C119 0.959 . S
C583 C72 0.959 . S
C585 C139 0.959 . S
C601 C5 0.959 . S
C603 C183 0.959 . S
C619 C205 0.959 . S
C621 C27 0.959 . S
C637 C227 0.959 . S
C639 C51 0.959 . S
C655 C75 0.959 . S
C657 C251 0.959 . S
C673 C93 0.959 . S
C675 C203 0.959 . S
C691 C225 0.959 . S
C693 C116 0.959 . S
C709 C137 0.959 . S
C711 C248 0.959 . S
C727 C161 0.959 . S
C729 C181 0.959 . S
C745 C269 0.959 . S
C747 C469 0.959 . S
C763 C293 0.959 . S
C765 C493 0.959 . S
C781 C317 0.959 . S
C783 C515 0.959 . S
C799 C512 0.959 . S
C801 C335 0.959 . S
C817 C467 0.959 . S
C819 C357 0.959 . S
C835 C379 0.959 . S
C837 C424 0.959 . S
C853 C271 0.959 . S
C855 C359 0.959 . S
C871 C405 0.959 . S
C873 C291 0.959 . S
C889 C337 0.959 . S
C891 C314 0.959 . S
C907 C449 0.959 . S
C909 C381 0.959 . S
C925 C402 0.959 . S
C927 C490 0.959 . S
C943 C427 0.959 . S
C945 C446 0.959 . S
C961 C94 0.729 . S
C963 C6 0.729 . S
C979 C114 0.729 . S
C981 C28 0.729 . S
C997 C52 0.729 . S
C999 C138 0.729 . S
C1015 C73 0.729 1_554 S
C1017 C162 0.729 1_556 S
C1033 C249 0.729 . S
C1035 C182 0.729 . S
C1051 C184 0.729 1_565 S
C1053 C204 0.729 1_545 S
C1069 C206 0.729 . S
C1071 C226 0.729 . S
C1087 C246 0.729 1_565 S
C1089 C228 0.729 1_545 S
C1105 C403 0.729 . S
C1107 C160 0.729 . S
C1123 C70 0.729 . S
C1125 C272 0.729 . S
C1141 C8 0.729 1_655 S
C1143 C292 0.729 1_455 S
C1159 C30 0.729 . S
C1161 C312 0.729 . S
C1177 C422 0.729 . S
C1179 C117 0.729 . S
C1195 C96 0.729 1_655 S
C1197 C338 0.729 1_455 S
C1213 C140 0.729 . S
C1215 C360 0.729 . S
C1231 C358 0.729 . S
C1233 C382 0.729 . S
C1249 C400 0.729 1_556 S
C1251 C270 0.729 1_554 S
C1267 C294 0.729 . S
C1269 C336 0.729 . S
C1285 C425 0.729 . S
C1287 C315 0.729 . S
C1303 C444 0.729 . S
C1305 C513 0.729 . S
C1321 C447 0.729 . S
C1323 C468 0.729 . S
C1339 C488 0.729 . S
C1341 C470 0.729 . S
C1357 C510 0.729 . S
C1359 C491 0.729 . S
C1375 C380 0.729 . S
C1377 C50 0.729 . S
C1393 C4 2.271 . S
C1395 C202 2.271 . S
C1411 C26 2.270 . S
C1413 C224 2.270 . S
C1429 C53 2.271 . S
C1431 C247 2.271 . S
C1447 C180 2.271 . S
C1449 C74 2.271 . S
C1465 C92 2.271 . S
C1467 C185 2.271 . S
C1483 C207 2.271 . S
C1485 C115 2.271 . S
C1501 C229 2.270 . S
C1503 C136 2.270 . S
C1519 C163 2.271 . S
C1521 C250 2.271 . S
C1537 C158 2.271 . S
C1539 C290 2.271 . S
C1555 C141 2.270 . S
C1557 C273 2.270 . S
C1573 C97 2.271 . S
C1575 C313 2.271 . S
C1591 C404 2.271 . S
C1593 C9 2.271 . S
C1609 C378 2.271 . S
C1611 C118 2.271 . S
C1627 C31 2.270 . S
C1629 C339 2.270 . S
C1645 C71 2.271 . S
C1647 C361 2.271 . S
C1663 C466 2.271 . S
C1665 C383 2.271 . S
C1681 C489 2.270 . S
C1683 C268 2.270 . S
C1699 C511 2.271 . S
C1701 C295 2.271 . S
C1717 C445 2.271 . S
C1719 C316 2.271 . S
C1735 C448 2.271 . S
C1737 C356 2.271 . S
C1753 C401 2.271 . S
C1755 C471 2.271 . S
C1771 C492 2.270 . S
C1773 C334 2.270 . S
C1789 C426 2.271 . S
C1791 C514 2.271 . S
C1807 C48 2.271 . S
C1809 C423 2.271 . S
