# Generated by pormake.
# Topology snk, (6)-cn, num edge types: 1
# Building blocks:
#     Node 0, Type 0, BuildingBlock: BETFEN_clean_sbu_0, # of connection points: 6
#     Node 1, Type 0, BuildingBlock: BETFEN_clean_sbu_0, # of connection points: 6
#     Node 2, Type 0, BuildingBlock: BETFEN_clean_sbu_0, # of connection points: 6
#     Node 3, Type 0, BuildingBlock: BETFEN_clean_sbu_0, # of connection points: 6
#     Node 4, Type 0, BuildingBlock: BETFEN_clean_sbu_0, # of connection points: 6
#     Node 5, Type 0, BuildingBlock: BETFEN_clean_sbu_0, # of connection points: 6
#     Node 6, Type 0, BuildingBlock: BETFEN_clean_sbu_0, # of connection points: 6
#     Node 7, Type 0, BuildingBlock: BETFEN_clean_sbu_0, # of connection points: 6
#     Edge 8, Type (0, 0), BuildingBlock: AJUNOK_clean_linker_0, # of connection points: 2
#     Edge 9, Type (0, 0), BuildingBlock: AJUNOK_clean_linker_0, # of connection points: 2
#     Edge 10, Type (0, 0), BuildingBlock: AJUNOK_clean_linker_0, # of connection points: 2
#     Edge 11, Type (0, 0), BuildingBlock: AJUNOK_clean_linker_0, # of connection points: 2
#     Edge 12, Type (0, 0), BuildingBlock: AJUNOK_clean_linker_0, # of connection points: 2
#     Edge 13, Type (0, 0), BuildingBlock: AJUNOK_clean_linker_0, # of connection points: 2
#     Edge 14, Type (0, 0), BuildingBlock: AJUNOK_clean_linker_0, # of connection points: 2
#     Edge 15, Type (0, 0), BuildingBlock: AJUNOK_clean_linker_0, # of connection points: 2
#     Edge 16, Type (0, 0), BuildingBlock: AJUNOK_clean_linker_0, # of connection points: 2
#     Edge 17, Type (0, 0), BuildingBlock: AJUNOK_clean_linker_0, # of connection points: 2
#     Edge 18, Type (0, 0), BuildingBlock: AJUNOK_clean_linker_0, # of connection points: 2
#     Edge 19, Type (0, 0), BuildingBlock: AJUNOK_clean_linker_0, # of connection points: 2
#     Edge 20, Type (0, 0), BuildingBlock: AJUNOK_clean_linker_0, # of connection points: 2
#     Edge 21, Type (0, 0), BuildingBlock: AJUNOK_clean_linker_0, # of connection points: 2
#     Edge 22, Type (0, 0), BuildingBlock: AJUNOK_clean_linker_0, # of connection points: 2
#     Edge 23, Type (0, 0), BuildingBlock: AJUNOK_clean_linker_0, # of connection points: 2
#     Edge 24, Type (0, 0), BuildingBlock: AJUNOK_clean_linker_0, # of connection points: 2
#     Edge 25, Type (0, 0), BuildingBlock: AJUNOK_clean_linker_0, # of connection points: 2
#     Edge 26, Type (0, 0), BuildingBlock: AJUNOK_clean_linker_0, # of connection points: 2
#     Edge 27, Type (0, 0), BuildingBlock: AJUNOK_clean_linker_0, # of connection points: 2
#     Edge 28, Type (0, 0), BuildingBlock: AJUNOK_clean_linker_0, # of connection points: 2
#     Edge 29, Type (0, 0), BuildingBlock: AJUNOK_clean_linker_0, # of connection points: 2
#     Edge 30, Type (0, 0), BuildingBlock: AJUNOK_clean_linker_0, # of connection points: 2
#     Edge 31, Type (0, 0), BuildingBlock: AJUNOK_clean_linker_0, # of connection points: 2
# Relax obj value: 0.122
# Max RMSD: 0.192
# Mean RMSD: 0.151
data_MOF--net-snk--node1-BETFEN_clean_sbu_0--edge1-AJUNOK_clean_linker_0
_symmetry_space_group_name_H-M    P1
_symmetry_Int_Tables_number       1
_symmetry_cell_setting            triclinic
loop_
_symmetry_equiv_pos_as_xyz
'x, y, z'
_cell_length_a     26.998266
_cell_length_b     26.867159
_cell_length_c     21.232793
_cell_angle_alpha  97.230946
_cell_angle_beta   97.262359
_cell_angle_gamma 90.574129
loop_
_atom_site_label
_atom_site_type_symbol
_atom_site_fract_x
_atom_site_fract_y
_atom_site_fract_z
_atom_type_partial_charge
Pr0 Pr 0.98958 0.97716 0.45969 0.0
Pr1 Pr 0.02785 0.04064 0.58933 0.0
C2 C 0.96006 0.94606 0.3342 0.0
C3 C 0.97136 0.95852 0.27121 0.0
C4 C 0.97344 0.91999 0.22046 0.0
C5 C 0.98431 0.93092 0.16069 0.0
C6 C 0.99343 0.98073 0.15026 0.0
C7 C 0.99108 0.01934 0.20115 0.0
C8 C 0.9804 1.00834 0.26101 0.0
C9 C 0.05969 0.93145 0.53949 0.0
C10 C 0.08137 0.06551 0.46792 0.0
C11 C 0.05863 0.07058 0.71476 0.0
C12 C 0.04994 0.05593 0.77771 0.0
C13 C 0.04645 0.09321 0.82946 0.0
C14 C 0.03809 0.08027 0.88929 0.0
C15 C 0.03322 0.02965 0.89896 0.0
C16 C 0.03658 0.99231 0.84685 0.0
C17 C 0.04482 1.00529 0.78693 0.0
C18 C 0.95772 0.08663 0.50976 0.0
C19 C 0.93609 0.95274 0.58145 0.0
O20 O 0.93627 0.9794 0.3687 0.0
O21 O 0.99522 0.92444 0.36847 0.0
O22 O 0.06205 0.97658 0.52932 0.0
O23 O 0.02095 0.90736 0.50643 0.0
O24 O 0.08775 0.06875 0.53107 0.0
O25 O 0.04435 0.03808 0.43306 0.0
O26 O 0.08336 0.0395 0.67848 0.0
O27 O 0.02143 0.09091 0.68233 0.0
O28 O 0.95529 0.04144 0.51972 0.0
O29 O 0.99629 0.11071 0.5433 0.0
O30 O 0.92934 0.94907 0.51819 0.0
O31 O 0.97366 0.97958 0.61576 0.0
H32 H 0.96648 0.8813 0.227 0.0
H33 H 0.98489 0.90038 0.1223 0.0
H34 H 0.99805 0.05807 0.19487 0.0
H35 H 0.9793 0.03875 0.29936 0.0
H36 H 0.05025 0.1325 0.82361 0.0
H37 H 0.03595 0.10999 0.92829 0.0
H38 H 0.03182 0.95301 0.85196 0.0
H39 H 0.04677 0.97573 0.7477 0.0
Pr40 Pr 0.28964 0.74879 0.72066 0.0
Pr41 Pr 0.23141 0.77767 0.83528 0.0
C42 C 0.3232 0.72305 0.60725 0.0
C43 C 0.31043 0.72882 0.53908 0.0
C44 C 0.34666 0.74866 0.50663 0.0
C45 C 0.33551 0.75533 0.44228 0.0
C46 C 0.288 0.74185 0.40907 0.0
C47 C 0.25168 0.72192 0.44153 0.0
C48 C 0.26275 0.7155 0.50608 0.0
C49 C 0.34119 0.81274 0.82107 0.0
C50 C 0.20005 0.83418 0.71026 0.0
C51 C 0.20003 0.80433 0.94978 0.0
C52 C 0.21403 0.797 1.01721 0.0
C53 C 0.17787 0.77835 0.05074 0.0
C54 C 0.19046 0.76884 0.11381 0.0
C55 C 0.23943 0.77812 0.14456 0.0
C56 C 0.27547 0.79777 0.11151 0.0
C57 C 0.26299 0.80684 0.04809 0.0
C58 C 0.18006 0.71246 0.73618 0.0
C59 C 0.31865 0.68949 0.84354 0.0
O60 O 0.29429 0.69354 0.63223 0.0
O61 O 0.33829 0.76382 0.64558 0.0
O62 O 0.29585 0.81689 0.79962 0.0
O63 O 0.36195 0.77662 0.7882 0.0
O64 O 0.19929 0.83781 0.77265 0.0
O65 O 0.22757 0.80124 0.67975 0.0
O66 O 0.22949 0.83301 0.92438 0.0
O67 O 0.18286 0.76444 0.91108 0.0
O68 O 0.22563 0.70916 0.75717 0.0
O69 O 0.15897 0.74845 0.76892 0.0
O70 O 0.31906 0.68651 0.78117 0.0
O71 O 0.29222 0.7231 0.8749 0.0
H72 H 0.38363 0.75922 0.53123 0.0
H73 H 0.36413 0.77074 0.4183 0.0
H74 H 0.21449 0.71207 0.41726 0.0
H75 H 0.23395 0.70049 0.53014 0.0
H76 H 0.13989 0.77069 0.02785 0.0
H77 H 0.16188 0.75444 0.13872 0.0
H78 H 0.31346 0.80524 0.13439 0.0
H79 H 0.29169 0.82103 1.02319 0.0
Pr80 Pr 0.53634 0.99395 0.09605 0.0
Pr81 Pr 0.48078 0.02662 0.96859 0.0
C82 C 0.58225 0.99065 0.21578 0.0
C83 C 0.56694 0.99316 0.28024 0.0
C84 C 0.51889 0.97692 0.28867 0.0
C85 C 0.5047 0.97947 0.35008 0.0
C86 C 0.53822 0.99849 0.40412 0.0
C87 C 0.58602 0.01546 0.39536 0.0
C88 C 0.60029 0.01268 0.33391 0.0
C89 C 0.45563 0.93195 0.03737 0.0
C90 C 0.44448 0.07688 0.101 0.0
C91 C 0.43444 0.02961 0.8491 0.0
C92 C 0.44949 0.02539 0.78437 0.0
C93 C 0.49782 0.04011 0.77503 0.0
C94 C 0.51199 0.0351 0.71345 0.0
C95 C 0.47832 0.01472 0.66027 0.0
C96 C 0.42998 0.99997 0.66985 0.0
C97 C 0.41573 1.00523 0.73143 0.0
C98 C 0.56123 0.08845 0.02785 0.0
C99 C 0.57591 0.94661 0.96379 0.0
O100 O 0.57849 0.03201 0.18915 0.0
O101 O 0.56765 0.95055 0.17586 0.0
O102 O 0.45699 0.97917 0.04205 0.0
O103 O 0.49509 0.91579 0.06927 0.0
O104 O 0.42777 0.06171 0.04032 0.0
O105 O 0.48662 0.0608 0.12924 0.0
O106 O 0.43713 0.98862 0.87662 0.0
O107 O 0.45023 0.06986 0.88818 0.0
O108 O 0.55992 0.04122 1.02224 0.0
O109 O 0.5212 0.10522 0.99764 0.0
O110 O 0.58948 0.95774 1.02596 0.0
O111 O 0.5353 0.96429 0.93365 0.0
H112 H 0.49229 0.9624 0.24775 0.0
H113 H 0.46726 0.96717 0.35526 0.0
H114 H 0.61254 0.03039 0.43615 0.0
H115 H 0.63738 0.02576 0.32826 0.0
H116 H 0.52467 0.05527 0.81536 0.0
H117 H 0.54952 0.04654 0.70746 0.0
H118 H 0.40304 0.98483 0.62964 0.0
H119 H 0.37836 0.9935 0.73775 0.0
Pr120 Pr 0.28739 0.28293 0.34253 0.0
Pr121 Pr 0.227 0.24149 0.21097 0.0
C122 C 0.31856 0.31479 0.46747 0.0
C123 C 0.30577 0.30735 0.53156 0.0
C124 C 0.34421 0.3056 0.58227 0.0
C125 C 0.3333 0.29728 0.64297 0.0
C126 C 0.28357 0.29084 0.65451 0.0
C127 C 0.24507 0.29272 0.60351 0.0
C128 C 0.25603 0.30084 0.54267 0.0
C129 C 0.33858 0.21652 0.26422 0.0
C130 C 0.20305 0.1878 0.33313 0.0
C131 C 0.19648 0.21228 0.08535 0.0
C132 C 0.2109 0.22248 1.02302 0.0
C133 C 0.17368 0.22562 0.9713 0.0
C134 C 0.18619 0.23711 0.91259 0.0
C135 C 0.2363 0.24591 0.90423 0.0
C136 C 0.27364 0.24219 0.95606 0.0
C137 C 0.26107 0.2308 1.01489 0.0
C138 C 0.17614 0.30778 0.28992 0.0
C139 C 0.31239 0.33535 0.21997 0.0
O140 O 0.28717 0.33935 0.43143 0.0
O141 O 0.33757 0.27657 0.43524 0.0
O142 O 0.29319 0.21115 0.27164 0.0
O143 O 0.35955 0.25546 0.30073 0.0
O144 O 0.20087 0.18029 0.26996 0.0
O145 O 0.22785 0.2267 0.36767 0.0
O146 O 0.22722 0.18652 0.12068 0.0
O147 O 0.17694 0.24949 0.11878 0.0
O148 O 0.22134 0.31319 0.28175 0.0
O149 O 0.15503 0.26882 0.2536 0.0
O150 O 0.31332 0.34365 0.28288 0.0
O151 O 0.28761 0.2964 0.18566 0.0
H152 H 0.38286 0.31019 0.57474 0.0
H153 H 0.36396 0.29492 0.68055 0.0
H154 H 0.20638 0.28793 0.61069 0.0
H155 H 0.22565 0.30166 0.50426 0.0
H156 H 0.13474 0.21958 0.97649 0.0
H157 H 0.15647 0.23985 0.87392 0.0
H158 H 0.31267 0.24762 0.95103 0.0
H159 H 0.29055 0.22866 0.05405 0.0
Pr160 Pr 0.78736 0.24778 0.22257 0.0
Pr161 Pr 0.72902 0.27674 0.33729 0.0
C162 C 0.82088 0.22123 0.10918 0.0
C163 C 0.80782 0.22724 0.04144 0.0
C164 C 0.84401 0.21892 0.99976 0.0
C165 C 0.83283 0.22586 0.93546 0.0
C166 C 0.78512 0.24104 0.91181 0.0
C167 C 0.74892 0.24949 0.95391 0.0
C168 C 0.76019 0.24262 1.01831 0.0
C169 C 0.83895 0.31165 0.32303 0.0
C170 C 0.69715 0.33276 0.21175 0.0
C171 C 0.69785 0.30346 0.45203 0.0
C172 C 0.71272 0.29622 0.51905 0.0
C173 C 0.67776 0.30338 0.56256 0.0
C174 C 0.69049 0.29446 0.62592 0.0
C175 C 0.73837 0.27803 0.64664 0.0
C176 C 0.77359 0.27154 0.60298 0.0
C177 C 0.76079 0.2804 0.53953 0.0
C178 C 0.67812 0.21129 0.23824 0.0
C179 C 0.8163 0.18842 0.34531 0.0
O180 O 0.79086 0.1926 0.13372 0.0
O181 O 0.83621 0.26197 0.14739 0.0
O182 O 0.7936 0.31592 0.3016 0.0
O183 O 0.85969 0.27552 0.29016 0.0
O184 O 0.69594 0.33626 0.27408 0.0
O185 O 0.72535 0.3003 0.18162 0.0
O186 O 0.7275 0.33192 0.42664 0.0
O187 O 0.68106 0.2633 0.41364 0.0
O188 O 0.72363 0.20822 0.25955 0.0
O189 O 0.65668 0.24722 0.27063 0.0
O190 O 0.81676 0.18547 0.28296 0.0
O191 O 0.78981 0.22198 0.37667 0.0
H192 H 0.88111 0.20751 1.01712 0.0
H193 H 0.86177 0.22019 0.9045 0.0
H194 H 0.71187 0.26121 0.93692 0.0
H195 H 0.73188 0.24951 0.05006 0.0
H196 H 0.64042 0.31533 0.54734 0.0
H197 H 0.66259 0.29957 0.65847 0.0
H198 H 0.81105 0.25983 0.61795 0.0
H199 H 0.78825 0.27464 0.50642 0.0
Pr200 Pr 0.78408 0.78016 0.8367 0.0
Pr201 Pr 0.71965 0.74464 0.70607 0.0
C202 C 0.81334 0.8094 0.96248 0.0
C203 C 0.79905 0.7989 1.02495 0.0
C204 C 0.83589 0.78542 0.07219 0.0
C205 C 0.82341 0.77486 0.13131 0.0
C206 C 0.77372 0.77763 0.1447 0.0
C207 C 0.73684 0.79154 0.09758 0.0
C208 C 0.74929 0.8018 0.03822 0.0
C209 C 0.83113 0.71372 0.75421 0.0
C210 C 0.69719 0.68707 0.82601 0.0
C211 C 0.6835 0.71923 0.58131 0.0
C212 C 0.6979 0.72693 0.51804 0.0
C213 C 0.68783 0.68902 0.46592 0.0
C214 C 0.70057 0.69606 0.40555 0.0
C215 C 0.72372 0.74123 0.39604 0.0
C216 C 0.73382 0.77913 0.4484 0.0
C217 C 0.72121 0.77202 0.50877 0.0
C218 C 0.67511 0.81181 0.79075 0.0
C219 C 0.81048 0.83388 0.71583 0.0
O220 O 0.78224 0.83469 0.92689 0.0
O221 O 0.83424 0.77301 0.9292 0.0
O222 O 0.78564 0.71003 0.76198 0.0
O223 O 0.85504 0.74909 0.79435 0.0
O224 O 0.6932 0.68218 0.76276 0.0
O225 O 0.72462 0.72367 0.8617 0.0
O226 O 0.71096 0.68935 0.61455 0.0
O227 O 0.66989 0.75893 0.61663 0.0
O228 O 0.7195 0.81534 0.77909 0.0
O229 O 0.65113 0.77334 0.75686 0.0
O230 O 0.81291 0.84049 0.77896 0.0
O231 O 0.78261 0.79733 0.68049 0.0
H232 H 0.87451 0.78312 0.06335 0.0
H233 H 0.85282 0.76516 0.16697 0.0
H234 H 0.69824 0.79395 0.10643 0.0
H235 H 0.71997 0.81191 1.00276 0.0
H236 H 0.66974 0.65403 0.47181 0.0
H237 H 0.69153 0.66646 0.36602 0.0
H238 H 0.75183 0.81421 0.44273 0.0
H239 H 0.7296 0.80184 0.54817 0.0
Pr240 Pr 0.4875 0.47454 0.9581 0.0
Pr241 Pr 0.52809 0.53904 0.08674 0.0
C242 C 0.45662 0.44326 0.83297 0.0
C243 C 0.46609 0.45541 0.76886 0.0
C244 C 0.48295 0.41799 0.72474 0.0
C245 C 0.49189 0.42838 0.66397 0.0
C246 C 0.48375 0.47642 0.64537 0.0
C247 C 0.467 0.51396 0.6897 0.0
C248 C 0.45823 0.5036 0.75061 0.0
C249 C 0.55734 0.42868 0.03829 0.0
C250 C 0.57958 0.56245 0.96334 0.0
C251 C 0.55832 0.56685 0.21266 0.0
C252 C 0.54715 0.55159 0.27464 0.0
C253 C 0.53034 0.58731 0.32082 0.0
C254 C 0.51957 0.57393 0.3795 0.0
C255 C 0.52542 0.52437 0.39383 0.0
C256 C 0.54253 0.48859 0.34758 0.0
C257 C 0.55302 0.50194 0.28866 0.0
C258 C 0.45824 0.58537 1.00749 0.0
C259 C 0.43433 0.4532 0.08074 0.0
O260 O 0.43268 0.47593 0.86822 0.0
O261 O 0.49264 0.4221 0.86648 0.0
O262 O 0.56032 0.4735 0.027 0.0
O263 O 0.51812 0.40488 1.00599 0.0
O264 O 0.58708 0.56708 0.02666 0.0
O265 O 0.54224 0.53451 0.9302 0.0
O266 O 0.58274 0.53548 0.17627 0.0
O267 O 0.52302 0.58953 0.17991 0.0
O268 O 0.45523 0.5403 1.01793 0.0
O269 O 0.49696 0.60929 0.04096 0.0
O270 O 0.42727 0.44841 1.01749 0.0
O271 O 0.47233 0.47991 0.11418 0.0
H272 H 0.4894 0.38056 0.7374 0.0
H273 H 0.50586 0.39884 0.63184 0.0
H274 H 0.46031 0.55137 0.67711 0.0
H275 H 0.44527 0.53338 0.78333 0.0
H276 H 0.52545 0.6258 0.31147 0.0
H277 H 0.50621 0.60245 0.41358 0.0
H278 H 0.54856 0.45034 0.35719 0.0
H279 H 0.56594 0.47337 0.25427 0.0
Pr280 Pr 0.03774 0.49532 0.59218 0.0
Pr281 Pr 0.98208 0.52791 0.46544 0.0
C282 C 0.0855 0.4909 0.7108 0.0
C283 C 0.07312 0.49653 0.77709 0.0
C284 C 0.09182 0.46256 0.81872 0.0
C285 C 0.07907 0.46623 0.88101 0.0
C286 C 0.04738 0.50405 0.90284 0.0
C287 C 0.02877 0.5381 0.86105 0.0
C288 C 0.04162 0.53447 0.79885 0.0
C289 C 0.95754 0.43285 0.53351 0.0
C290 C 0.9425 0.57514 0.59758 0.0
C291 C 0.93816 0.53414 0.34544 0.0
C292 C 0.95341 0.52731 0.28065 0.0
C293 C 0.93575 0.55982 0.23663 0.0
C294 C 0.95135 0.55528 0.17584 0.0
C295 C 0.98515 0.5182 0.158 0.0
C296 C 1.00232 0.48522 0.20198 0.0
C297 C 0.98679 0.48986 0.26286 0.0
C298 C 0.06243 0.58981 0.52556 0.0
C299 C 0.07271 0.44433 0.45938 0.0
O300 O 0.08495 0.53141 0.68228 0.0
O301 O 0.06629 0.4513 0.67312 0.0
O302 O 0.95825 0.48012 0.53859 0.0
O303 O 0.99781 0.41674 0.56385 0.0
O304 O 0.92821 0.56187 0.53582 0.0
O305 O 0.98437 0.55903 0.62695 0.0
O306 O 0.93539 0.49389 0.37383 0.0
O307 O 0.95802 0.57299 0.38395 0.0
O308 O 0.06158 0.54256 0.51871 0.0
O309 O 0.02178 0.6065 0.49698 0.0
O310 O 0.09005 0.45981 0.51975 0.0
O311 O 0.0303 0.46018 0.43178 0.0
H312 H 0.1159 0.43281 0.80278 0.0
H313 H 0.09324 0.43889 0.91168 0.0
H314 H 1.00442 0.56772 0.87661 0.0
H315 H 0.02675 0.56116 0.76771 0.0
H316 H 0.91027 0.58914 0.24957 0.0
H317 H 0.93763 0.58135 0.14312 0.0
H318 H 0.02756 0.45563 0.18922 0.0
H319 H 1.0011 0.46434 0.29604 0.0
C320 C 0.10489 0.0952 0.36745 0.0
C321 C 0.11497 0.09466 0.43431 0.0
C322 C 0.13422 0.12413 0.3347 0.0
C323 C 0.17496 0.15384 0.36731 0.0
H324 H 0.07346 0.07377 0.33996 0.0
H325 H 0.124 0.12415 0.2837 0.0
S326 S 0.22069 0.16205 0.54117 0.0
N327 N 0.17106 0.12418 0.531 0.0
N328 N 0.22615 0.17802 0.4698 0.0
C329 C 0.18654 0.15238 0.43378 0.0
C330 C 0.15665 0.12297 0.46711 0.0
C331 C 0.14663 0.91074 0.58064 0.0
C332 C 0.0953 0.90941 0.58588 0.0
C333 C 0.18076 0.88711 0.62206 0.0
C334 C 0.16478 0.86344 0.67167 0.0
H335 H 0.16022 0.92859 0.54289 0.0
H336 H 0.21981 0.88705 0.61501 0.0
S337 S 0.03446 0.85272 0.70768 0.0
N338 N 0.03011 0.88345 0.64462 0.0
N339 N 0.09446 0.84182 0.72505 0.0
C340 C 0.11374 0.86379 0.67892 0.0
C341 C 0.07888 0.8861 0.63528 0.0
C342 C 0.35389 0.89091 0.89965 0.0
C343 C 0.36675 0.84131 0.88022 0.0
C344 C 0.38157 0.91967 0.95253 0.0
C345 C 0.42241 0.89941 0.98795 0.0
H346 H 0.32364 0.90819 0.87237 0.0
H347 H 0.37188 0.95844 0.9645 0.0
S348 S 0.46526 0.76834 0.96242 0.0
N349 N 0.41917 0.77145 0.90426 0.0
N350 N 0.47025 0.82469 1.00416 0.0
C351 C 0.43321 0.84871 0.97144 0.0
C352 C 0.40565 0.81987 0.91726 0.0
C353 C 0.36497 0.11005 0.13761 0.0
C354 C 0.41705 0.11415 0.13932 0.0
C355 C 0.33969 0.14306 0.17861 0.0
C356 C 0.36551 0.182 0.22118 0.0
H357 H 0.34394 0.08021 0.10606 0.0
H358 H 0.29979 0.13768 0.17737 0.0
S359 S 0.50196 0.21014 0.24051 0.0
N360 N 0.49343 0.16058 0.18554 0.0
N361 N 0.44603 0.22361 0.2604 0.0
C362 C 0.41746 0.18716 0.22175 0.0
C363 C 0.44318 0.153 0.18128 0.0
C364 C 0.87321 0.88336 0.58369 0.0
C365 C 0.90232 0.92471 0.61595 0.0
C366 C 0.84349 0.85474 0.61629 0.0
C367 C 0.84124 0.86635 0.68263 0.0
H368 H 0.87414 0.87219 0.53303 0.0
H369 H 0.82271 0.82272 0.58907 0.0
S370 S 0.90746 0.97345 0.78869 0.0
N371 N 0.92498 0.9775 0.71777 0.0
N372 N 0.8693 0.92393 0.77864 0.0
C373 C 0.86934 0.90835 0.7152 0.0
C374 C 0.89975 0.93742 0.68204 0.0
C375 C 0.8713 0.1137 0.47645 0.0
C376 C 0.92132 0.10945 0.4651 0.0
C377 C 0.83693 0.13845 0.43659 0.0
C378 C 0.85109 0.15769 0.38266 0.0
H379 H 0.85915 0.09941 0.51763 0.0
H380 H 0.79918 0.14291 0.44829 0.0
S381 S 0.97769 0.1546 0.33177 0.0
N382 N 0.98358 0.12666 0.39721 0.0
N383 N 0.91838 0.16959 0.31938 0.0
C384 C 0.90062 0.15168 0.36952 0.0
C385 C 0.93597 0.12853 0.41164 0.0
C386 C 0.60968 0.19904 0.14797 0.0
C387 C 0.6523 0.18033 0.18128 0.0
C388 C 0.58195 0.16977 0.09616 0.0
C389 C 0.59536 0.12038 0.07651 0.0
H390 H 0.59717 0.23643 0.16253 0.0
H391 H 0.54862 0.18539 0.07309 0.0
S392 S 0.70622 0.05531 0.14475 0.0
N393 N 0.70883 0.11088 0.18852 0.0
N394 N 0.65604 0.05518 0.0914 0.0
C395 C 0.6391 0.10188 0.10772 0.0
C396 C 0.66779 0.13207 0.16012 0.0
C397 C 0.65267 0.89782 0.8337 0.0
C398 C 0.65347 0.84621 0.8386 0.0
C399 C 0.62848 0.93068 0.87585 0.0
C400 C 0.60637 0.91304 0.92555 0.0
H401 H 0.66902 0.9125 0.79555 0.0
H402 H 0.62641 0.96994 0.86903 0.0
S403 S 0.60205 0.78186 0.96143 0.0
N404 N 0.63156 0.77915 0.89756 0.0
N405 N 0.58882 0.84151 0.97932 0.0
C406 C 0.60897 0.86195 0.93267 0.0
C407 C 0.63192 0.82827 0.88842 0.0
C408 C 0.64339 0.63072 0.96005 0.0
C409 C 0.61161 0.59141 0.92753 0.0
C410 C 0.67128 0.66059 0.92683 0.0
C411 C 0.66874 0.65265 0.85941 0.0
H412 H 0.64609 0.63932 1.01161 0.0
H413 H 0.69445 0.69077 0.95462 0.0
S414 S 0.59378 0.55227 0.75148 0.0
N415 N 0.58126 0.54445 0.82371 0.0
N416 N 0.63327 0.60073 0.7617 0.0
C417 C 0.638 0.61269 0.82634 0.0
C418 C 0.60961 0.58214 0.8602 0.0
C419 C 0.67805 0.38471 0.12246 0.0
C420 C 0.66191 0.36175 0.17257 0.0
C421 C 0.64409 0.40791 0.08034 0.0
C422 C 0.59271 0.40687 0.08531 0.0
H423 H 0.71713 0.3844 0.11554 0.0
H424 H 0.65787 0.4252 0.04228 0.0
S425 S 0.53136 0.35205 0.20818 0.0
N426 N 0.59129 0.34109 0.22604 0.0
N427 N 0.52727 0.38199 0.14443 0.0
C428 C 0.57609 0.38428 0.1352 0.0
C429 C 0.6108 0.36238 0.17953 0.0
C430 C 0.88278 0.42075 0.4497 0.0
C431 C 0.92289 0.40016 0.4861 0.0
C432 C 0.854 0.39142 0.39825 0.0
C433 C 0.86494 0.34086 0.38141 0.0
H434 H 0.87459 0.46014 0.45964 0.0
H435 H 0.82456 0.40893 0.3699 0.0
S436 S 0.96032 0.26708 0.46794 0.0
N437 N 0.96761 0.32445 0.50658 0.0
N438 N 0.91434 0.27 0.40954 0.0
C439 C 0.90283 0.31921 0.41983 0.0
C440 C 0.93155 0.34868 0.47246 0.0
C441 C 0.8921 0.64599 0.74117 0.0
C442 C 0.85646 0.67686 0.71315 0.0
C443 C 0.91883 0.61239 0.70323 0.0
C444 C 0.91131 0.60894 0.63589 0.0
H445 H 0.89946 0.64793 0.79281 0.0
H446 H 0.94577 0.58917 0.72709 0.0
S447 S 0.82456 0.68531 0.54002 0.0
N448 N 0.81641 0.70414 0.615 0.0
N449 N 0.86656 0.64115 0.54321 0.0
C450 C 0.87568 0.63998 0.60743 0.0
C451 C 0.84834 0.67402 0.64624 0.0
C452 C 0.3436 0.35555 0.11931 0.0
C453 C 0.34161 0.36826 0.18559 0.0
C454 C 0.37241 0.38387 0.08543 0.0
C455 C 0.4008 0.4261 0.11627 0.0
H456 H 0.32331 0.32287 0.09306 0.0
H457 H 0.37337 0.37171 0.03498 0.0
S458 S 0.40498 0.47892 0.2874 0.0
N459 N 0.36823 0.42845 0.27958 0.0
N460 N 0.42234 0.4816 0.21612 0.0
C461 C 0.39809 0.44027 0.18205 0.0
C462 C 0.36857 0.41145 0.21659 0.0
C463 C 0.37266 0.61502 0.97544 0.0
C464 C 0.42213 0.60842 0.96276 0.0
C465 C 0.33881 0.64043 0.93576 0.0
C466 C 0.35292 0.65824 0.88087 0.0
H467 H 0.3606 0.60204 1.01748 0.0
H468 H 0.30151 0.64655 0.94838 0.0
S469 S 0.47812 0.64833 0.82606 0.0
N470 N 0.48376 0.62134 0.89222 0.0
N471 N 0.41957 0.66606 0.81519 0.0
C472 C 0.40187 0.64992 0.86647 0.0
C473 C 0.43671 0.62583 0.90819 0.0
C474 C 0.10814 0.69812 0.65078 0.0
C475 C 0.1534 0.6812 0.67992 0.0
C476 C 0.08013 0.66898 0.59916 0.0
C477 C 0.09596 0.62144 0.57526 0.0
H478 H 0.09388 0.7341 0.66827 0.0
H479 H 0.04499 0.6833 0.57924 0.0
S480 S 0.21309 0.56094 0.63254 0.0
N481 N 0.21417 0.61501 0.67944 0.0
N482 N 0.16085 0.55954 0.58248 0.0
C483 C 0.14182 0.60451 0.60274 0.0
C484 C 0.17076 0.63459 0.65508 0.0
C485 C 0.17593 0.38104 0.37593 0.0
C486 C 0.14995 0.34135 0.33489 0.0
C487 C 0.15139 0.41316 0.41875 0.0
C488 C 0.09985 0.40735 0.42045 0.0
H489 H 0.2153 0.38783 0.37437 0.0
H490 H 0.1724 0.4438 0.44882 0.0
S491 S 0.01482 0.30898 0.32434 0.0
N492 N 0.06995 0.29726 0.30074 0.0
N493 N 0.0238 0.35865 0.37911 0.0
C494 C 0.07357 0.36771 0.38013 0.0
C495 C 0.0986 0.33448 0.33776 0.0
C496 C 0.98797 0.04201 0.99653 0.0
C497 C 0.02383 0.01622 0.96297 0.0
C498 C 0.9786 0.03049 0.05686 0.0
C499 C 1.00452 0.99254 0.08629 0.0
H500 H 0.96645 0.07104 0.97567 0.0
H501 H 0.95026 0.05107 0.08027 0.0
S502 S 0.10499 0.91639 1.02134 0.0
N503 N 0.08734 0.9527 0.96577 0.0
N504 N 0.06949 0.9309 0.07854 0.0
C505 C 0.04084 0.96679 0.05365 0.0
C506 C 0.05051 0.97862 0.99228 0.0
C507 C 0.28643 0.79676 0.32211 0.0
C508 C 0.27616 0.74978 0.34105 0.0
C509 C 0.27495 0.80549 0.25828 0.0
C510 C 0.2527 0.76758 0.21126 0.0
H511 H 0.30274 0.82724 0.35712 0.0
H512 H 0.2827 0.84242 0.24581 0.0
S513 S 0.22269 0.63676 0.23483 0.0
N514 N 0.24554 0.66399 0.30692 0.0
N515 N 0.2237 0.68054 0.18689 0.0
C516 C 0.24315 0.72018 0.22925 0.0
C517 C 0.25492 0.71125 0.29417 0.0
C518 C 0.51583 0.05047 0.57298 0.0
C519 C 0.49358 1.00944 0.59493 0.0
C520 C 0.53032 0.04656 0.5114 0.0
C521 C 0.52311 1.00144 0.46943 0.0
H522 H 0.52149 0.08613 0.60335 0.0
H523 H 0.54664 0.07933 0.49618 0.0
S524 S 0.47045 0.88174 0.5058 0.0
N525 N 0.46764 0.92147 0.5712 0.0
N526 N 0.49488 0.91407 0.45554 0.0
C527 C 0.50163 0.95989 0.49115 0.0
C528 C 0.48686 0.9639 0.55383 0.0
C529 C 0.2268 0.23076 0.78367 0.0
C530 C 0.24921 0.2583 0.8413 0.0
C531 C 0.23786 0.24173 0.72387 0.0
C532 C 0.27191 0.28068 0.7189 0.0
H533 H 0.20085 0.19995 0.78473 0.0
H534 H 0.22006 0.21893 0.68117 0.0
S535 S 0.33786 0.36689 0.85483 0.0
N536 N 0.30511 0.32823 0.88916 0.0
N537 N 0.32599 0.34866 0.77707 0.0
C538 C 0.29416 0.30897 0.77608 0.0
C539 C 0.28283 0.29784 0.83705 0.0
C540 C 0.75098 0.29401 0.82832 0.0
C541 C 0.77349 0.24936 0.84377 0.0
C542 C 0.74004 0.30305 0.76454 0.0
C543 C 0.75121 0.26781 0.71379 0.0
H544 H 0.74229 0.32248 0.86589 0.0
H545 H 0.72312 0.33816 0.75491 0.0
S546 S 0.80694 0.14344 0.72841 0.0
N547 N 0.80447 0.16851 0.80303 0.0
N548 N 0.78388 0.18551 0.68309 0.0
C549 C 0.7733 0.2228 0.72851 0.0
C550 C 0.78443 0.21358 0.79348 0.0
C551 C 0.72184 0.79323 0.30503 0.0
C552 C 0.73656 0.74933 0.33155 0.0
C553 C 0.7333 0.80169 0.24436 0.0
C554 C 0.76061 0.76698 0.20809 0.0
H555 H 0.70088 0.82112 0.33118 0.0
H556 H 0.72134 0.83611 0.22613 0.0
S557 S 0.80793 0.64611 0.25559 0.0
N558 N 0.77996 0.67075 0.31659 0.0
N559 N 0.80139 0.68658 0.20286 0.0
C560 C 0.77552 0.72293 0.23401 0.0
C561 C 0.76347 0.7141 0.29551 0.0
C562 C 0.52041 0.53168 0.57425 0.0
C563 C 0.49359 0.48769 0.58052 0.0
C564 C 0.53066 0.5429 0.51415 0.0
C565 C 0.51448 0.51075 0.45731 0.0
H566 H 0.5342 0.55752 0.61629 0.0
H567 H 0.55201 0.57693 0.51237 0.0
S568 S 0.4392 0.39269 0.44655 0.0
N569 N 0.44858 0.41312 0.52388 0.0
N570 N 0.46805 0.43389 0.41141 0.0
C571 C 0.48717 0.46682 0.46282 0.0
C572 C 0.47665 0.45544 0.52409 0.0
C573 C 0.98202 0.51159 0.97736 0.0
C574 C 0.03266 0.50739 0.96846 0.0
C575 C 0.96704 0.51483 0.03862 0.0
C576 C 1.00211 0.51406 0.0935 0.0
H577 H 0.95361 0.51183 0.9365 0.0
H578 H 0.92758 0.51748 0.04299 0.0
S579 S 0.13966 0.50751 0.09671 0.0
N580 N 0.11813 0.505 1.01999 0.0
N581 N 0.09006 0.51133 0.13514 0.0
C582 C 0.05294 0.51038 0.08535 0.0
C583 C 0.06818 0.507 1.02291 0.0
loop_
_geom_bond_atom_site_label_1
_geom_bond_atom_site_label_2
_geom_bond_distance
_geom_bond_site_symmetry_2
_ccdc_geom_bond_type
Pr0 C2 2.880 1_655 S
Pr0 O20 2.562 . S
Pr0 O21 2.490 1_655 S
Pr0 O22 2.695 1_655 S
Pr0 O23 2.512 1_655 S
Pr0 O25 2.437 1_665 S
Pr0 O28 2.436 1_565 S
Pr0 O30 2.438 . S
Pr1 C11 2.880 1_455 S
Pr1 O22 2.436 1_545 S
Pr1 O24 2.438 . S
Pr1 O26 2.562 . S
Pr1 O27 2.490 1_455 S
Pr1 O28 2.695 1_455 S
Pr1 O29 2.512 1_455 S
Pr1 O31 2.437 1_445 S
C2 Pr0 2.880 1_455 S
C2 C3 1.491 . S
C2 O20 1.254 1_455 S
C2 O21 1.225 . S
C3 C2 1.491 . S
C3 C4 1.392 . S
C3 C8 1.356 . S
C4 C3 1.392 . S
C4 C5 1.368 . S
C4 H32 0.929 . S
C5 C4 1.368 . S
C5 C6 1.386 . S
C5 H33 0.929 . S
C6 C5 1.386 . S
C6 C7 1.373 . S
C7 C6 1.373 . S
C7 C8 1.409 . S
C7 H34 0.931 1_565 S
C8 C3 1.356 . S
C8 C7 1.409 . S
C8 H35 0.930 1_465 S
C9 O22 1.270 . S
C9 O23 1.248 . S
C10 O24 1.267 . S
C10 O25 1.278 . S
C11 Pr1 2.880 1_655 S
C11 C12 1.491 . S
C11 O26 1.254 1_655 S
C11 O27 1.225 . S
C12 C11 1.491 . S
C12 C13 1.392 . S
C12 C17 1.356 . S
C13 C12 1.392 . S
C13 C14 1.368 . S
C13 H36 0.929 . S
C14 C13 1.368 . S
C14 C15 1.386 . S
C14 H37 0.929 . S
C15 C14 1.386 . S
C15 C16 1.373 . S
C16 C15 1.373 . S
C16 C17 1.409 . S
C16 H38 0.931 1_545 S
C17 C12 1.356 . S
C17 C16 1.409 . S
C17 H39 0.930 1_645 S
C18 O28 1.270 . S
C18 O29 1.248 . S
C19 O30 1.267 . S
C19 O31 1.278 . S
O20 Pr0 2.562 . S
O20 C2 1.254 1_655 S
O21 Pr0 2.490 1_455 S
O21 C2 1.225 . S
O22 Pr0 2.695 1_455 S
O22 Pr1 2.436 1_565 S
O22 C9 1.270 . S
O23 Pr0 2.512 1_455 S
O23 C9 1.248 . S
O24 Pr1 2.438 . S
O24 C10 1.267 . S
O25 Pr0 2.437 1_445 S
O25 C10 1.278 . S
O26 Pr1 2.562 . S
O26 C11 1.254 1_455 S
O27 Pr1 2.490 1_655 S
O27 C11 1.225 . S
O28 Pr0 2.436 1_545 S
O28 Pr1 2.695 1_655 S
O28 C18 1.270 . S
O29 Pr1 2.512 1_655 S
O29 C18 1.248 . S
O30 Pr0 2.438 . S
O30 C19 1.267 . S
O31 Pr1 2.437 1_665 S
O31 C19 1.278 . S
H32 C4 0.929 . S
H33 C5 0.929 . S
H34 C7 0.931 1_545 S
H35 C8 0.930 1_645 S
H36 C13 0.929 . S
H37 C14 0.929 . S
H38 C16 0.931 1_565 S
H39 C17 0.930 1_465 S
Pr40 C42 2.880 . S
Pr40 O60 2.562 . S
Pr40 O61 2.490 . S
Pr40 O62 2.695 . S
Pr40 O63 2.512 . S
Pr40 O65 2.437 . S
Pr40 O68 2.436 . S
Pr40 O70 2.438 . S
Pr41 C51 2.880 . S
Pr41 O62 2.436 . S
Pr41 O64 2.438 . S
Pr41 O66 2.562 . S
Pr41 O67 2.490 . S
Pr41 O68 2.695 . S
Pr41 O69 2.512 . S
Pr41 O71 2.437 . S
C42 Pr40 2.880 . S
C42 C43 1.491 . S
C42 O60 1.254 . S
C42 O61 1.225 . S
C43 C42 1.491 . S
C43 C44 1.392 . S
C43 C48 1.356 . S
C44 C43 1.392 . S
C44 C45 1.368 . S
C44 H72 0.929 . S
C45 C44 1.368 . S
C45 C46 1.386 . S
C45 H73 0.929 . S
C46 C45 1.386 . S
C46 C47 1.373 . S
C47 C46 1.373 . S
C47 C48 1.409 . S
C47 H74 0.931 . S
C48 C43 1.356 . S
C48 C47 1.409 . S
C48 H75 0.930 . S
C49 O62 1.270 . S
C49 O63 1.248 . S
C50 O64 1.267 . S
C50 O65 1.278 . S
C51 Pr41 2.880 . S
C51 C52 1.491 1_556 S
C51 O66 1.254 . S
C51 O67 1.225 . S
C52 C51 1.491 1_554 S
C52 C53 1.392 . S
C52 C57 1.356 . S
C53 C52 1.392 . S
C53 C54 1.368 . S
C53 H76 0.929 1_554 S
C54 C53 1.368 . S
C54 C55 1.386 . S
C54 H77 0.929 . S
C55 C54 1.386 . S
C55 C56 1.373 . S
C56 C55 1.373 . S
C56 C57 1.409 . S
C56 H78 0.931 . S
C57 C52 1.356 . S
C57 C56 1.409 . S
C57 H79 0.930 . S
C58 O68 1.270 . S
C58 O69 1.248 . S
C59 O70 1.267 . S
C59 O71 1.278 . S
O60 Pr40 2.562 . S
O60 C42 1.254 . S
O61 Pr40 2.490 . S
O61 C42 1.225 . S
O62 Pr40 2.695 . S
O62 Pr41 2.436 . S
O62 C49 1.270 . S
O63 Pr40 2.512 . S
O63 C49 1.248 . S
O64 Pr41 2.438 . S
O64 C50 1.267 . S
O65 Pr40 2.437 . S
O65 C50 1.278 . S
O66 Pr41 2.562 . S
O66 C51 1.254 . S
O67 Pr41 2.490 . S
O67 C51 1.225 . S
O68 Pr40 2.436 . S
O68 Pr41 2.695 . S
O68 C58 1.270 . S
O69 Pr41 2.512 . S
O69 C58 1.248 . S
O70 Pr40 2.438 . S
O70 C59 1.267 . S
O71 Pr41 2.437 . S
O71 C59 1.278 . S
H72 C44 0.929 . S
H73 C45 0.929 . S
H74 C47 0.931 . S
H75 C48 0.930 . S
H76 C53 0.929 1_556 S
H77 C54 0.929 . S
H78 C56 0.931 . S
H79 C57 0.930 . S
Pr80 C82 2.880 . S
Pr80 O100 2.562 1_565 S
Pr80 O101 2.490 . S
Pr80 O102 2.695 1_554 S
Pr80 O103 2.512 . S
Pr80 O105 2.437 1_565 S
Pr80 O108 2.436 1_565 S
Pr80 O110 2.438 1_554 S
Pr81 C91 2.880 . S
Pr81 O102 2.436 1_545 S
Pr81 O104 2.438 1_556 S
Pr81 O106 2.562 1_545 S
Pr81 O107 2.490 . S
Pr81 O108 2.695 1_556 S
Pr81 O109 2.512 . S
Pr81 O111 2.437 1_545 S
C82 Pr80 2.880 . S
C82 C83 1.491 . S
C82 O100 1.254 1_565 S
C82 O101 1.225 . S
C83 C82 1.491 . S
C83 C84 1.392 . S
C83 C88 1.356 1_565 S
C84 C83 1.392 . S
C84 C85 1.368 . S
C84 H112 0.929 . S
C85 C84 1.368 . S
C85 C86 1.386 . S
C85 H113 0.929 . S
C86 C85 1.386 . S
C86 C87 1.373 1_565 S
C87 C86 1.373 1_545 S
C87 C88 1.409 . S
C87 H114 0.931 . S
C88 C83 1.356 1_545 S
C88 C87 1.409 . S
C88 H115 0.930 . S
C89 O102 1.270 . S
C89 O103 1.248 1_556 S
C90 O104 1.267 . S
C90 O105 1.278 . S
C91 Pr81 2.880 . S
C91 C92 1.491 . S
C91 O106 1.254 1_545 S
C91 O107 1.225 . S
C92 C91 1.491 . S
C92 C93 1.392 . S
C92 C97 1.356 1_545 S
C93 C92 1.392 . S
C93 C94 1.368 . S
C93 H116 0.929 . S
C94 C93 1.368 . S
C94 C95 1.386 . S
C94 H117 0.929 . S
C95 C94 1.386 . S
C95 C96 1.373 1_545 S
C96 C95 1.373 1_565 S
C96 C97 1.409 . S
C96 H118 0.931 . S
C97 C92 1.356 1_565 S
C97 C96 1.409 . S
C97 H119 0.930 . S
C98 O108 1.270 . S
C98 O109 1.248 1_554 S
C99 O110 1.267 . S
C99 O111 1.278 . S
O100 Pr80 2.562 1_545 S
O100 C82 1.254 1_545 S
O101 Pr80 2.490 . S
O101 C82 1.225 . S
O102 Pr80 2.695 1_556 S
O102 Pr81 2.436 1_565 S
O102 C89 1.270 . S
O103 Pr80 2.512 . S
O103 C89 1.248 1_554 S
O104 Pr81 2.438 1_554 S
O104 C90 1.267 . S
O105 Pr80 2.437 1_545 S
O105 C90 1.278 . S
O106 Pr81 2.562 1_565 S
O106 C91 1.254 1_565 S
O107 Pr81 2.490 . S
O107 C91 1.225 . S
O108 Pr80 2.436 1_545 S
O108 Pr81 2.695 1_554 S
O108 C98 1.270 . S
O109 Pr81 2.512 . S
O109 C98 1.248 1_556 S
O110 Pr80 2.438 1_556 S
O110 C99 1.267 . S
O111 Pr81 2.437 1_565 S
O111 C99 1.278 . S
H112 C84 0.929 . S
H113 C85 0.929 . S
H114 C87 0.931 . S
H115 C88 0.930 . S
H116 C93 0.929 . S
H117 C94 0.929 . S
H118 C96 0.931 . S
H119 C97 0.930 . S
Pr120 C122 2.880 . S
Pr120 O140 2.562 . S
Pr120 O141 2.490 . S
Pr120 O142 2.695 . S
Pr120 O143 2.512 . S
Pr120 O145 2.437 . S
Pr120 O148 2.436 . S
Pr120 O150 2.438 . S
Pr121 C131 2.880 . S
Pr121 O142 2.436 . S
Pr121 O144 2.438 . S
Pr121 O146 2.562 . S
Pr121 O147 2.490 . S
Pr121 O148 2.695 . S
Pr121 O149 2.512 . S
Pr121 O151 2.437 . S
C122 Pr120 2.880 . S
C122 C123 1.491 . S
C122 O140 1.254 . S
C122 O141 1.225 . S
C123 C122 1.491 . S
C123 C124 1.392 . S
C123 C128 1.356 . S
C124 C123 1.392 . S
C124 C125 1.368 . S
C124 H152 0.929 . S
C125 C124 1.368 . S
C125 C126 1.386 . S
C125 H153 0.929 . S
C126 C125 1.386 . S
C126 C127 1.373 . S
C127 C126 1.373 . S
C127 C128 1.409 . S
C127 H154 0.931 . S
C128 C123 1.356 . S
C128 C127 1.409 . S
C128 H155 0.930 . S
C129 O142 1.270 . S
C129 O143 1.248 . S
C130 O144 1.267 . S
C130 O145 1.278 . S
C131 Pr121 2.880 . S
C131 C132 1.491 1_554 S
C131 O146 1.254 . S
C131 O147 1.225 . S
C132 C131 1.491 1_556 S
C132 C133 1.392 . S
C132 C137 1.356 . S
C133 C132 1.392 . S
C133 C134 1.368 . S
C133 H156 0.929 . S
C134 C133 1.368 . S
C134 C135 1.386 . S
C134 H157 0.929 . S
C135 C134 1.386 . S
C135 C136 1.373 . S
C136 C135 1.373 . S
C136 C137 1.409 . S
C136 H158 0.931 . S
C137 C132 1.356 . S
C137 C136 1.409 . S
C137 H159 0.930 . S
C138 O148 1.270 . S
C138 O149 1.248 . S
C139 O150 1.267 . S
C139 O151 1.278 . S
O140 Pr120 2.562 . S
O140 C122 1.254 . S
O141 Pr120 2.490 . S
O141 C122 1.225 . S
O142 Pr120 2.695 . S
O142 Pr121 2.436 . S
O142 C129 1.270 . S
O143 Pr120 2.512 . S
O143 C129 1.248 . S
O144 Pr121 2.438 . S
O144 C130 1.267 . S
O145 Pr120 2.437 . S
O145 C130 1.278 . S
O146 Pr121 2.562 . S
O146 C131 1.254 . S
O147 Pr121 2.490 . S
O147 C131 1.225 . S
O148 Pr120 2.436 . S
O148 Pr121 2.695 . S
O148 C138 1.270 . S
O149 Pr121 2.512 . S
O149 C138 1.248 . S
O150 Pr120 2.438 . S
O150 C139 1.267 . S
O151 Pr121 2.437 . S
O151 C139 1.278 . S
H152 C124 0.929 . S
H153 C125 0.929 . S
H154 C127 0.931 . S
H155 C128 0.930 . S
H156 C133 0.929 . S
H157 C134 0.929 . S
H158 C136 0.931 . S
H159 C137 0.930 . S
Pr160 C162 2.880 . S
Pr160 O180 2.562 . S
Pr160 O181 2.490 . S
Pr160 O182 2.695 . S
Pr160 O183 2.512 . S
Pr160 O185 2.437 . S
Pr160 O188 2.436 . S
Pr160 O190 2.438 . S
Pr161 C171 2.880 . S
Pr161 O182 2.436 . S
Pr161 O184 2.438 . S
Pr161 O186 2.562 . S
Pr161 O187 2.490 . S
Pr161 O188 2.695 . S
Pr161 O189 2.512 . S
Pr161 O191 2.437 . S
C162 Pr160 2.880 . S
C162 C163 1.491 1_554 S
C162 O180 1.254 . S
C162 O181 1.225 . S
C163 C162 1.491 1_556 S
C163 C164 1.392 . S
C163 C168 1.356 . S
C164 C163 1.392 . S
C164 C165 1.368 . S
C164 H192 0.929 1_556 S
C165 C164 1.368 . S
C165 C166 1.386 . S
C165 H193 0.929 . S
C166 C165 1.386 . S
C166 C167 1.373 . S
C167 C166 1.373 . S
C167 C168 1.409 . S
C167 H194 0.931 . S
C168 C163 1.356 . S
C168 C167 1.409 . S
C168 H195 0.930 . S
C169 O182 1.270 . S
C169 O183 1.248 . S
C170 O184 1.267 . S
C170 O185 1.278 . S
C171 Pr161 2.880 . S
C171 C172 1.491 . S
C171 O186 1.254 . S
C171 O187 1.225 . S
C172 C171 1.491 . S
C172 C173 1.392 . S
C172 C177 1.356 . S
C173 C172 1.392 . S
C173 C174 1.368 . S
C173 H196 0.929 . S
C174 C173 1.368 . S
C174 C175 1.386 . S
C174 H197 0.929 . S
C175 C174 1.386 . S
C175 C176 1.373 . S
C176 C175 1.373 . S
C176 C177 1.409 . S
C176 H198 0.931 . S
C177 C172 1.356 . S
C177 C176 1.409 . S
C177 H199 0.930 . S
C178 O188 1.270 . S
C178 O189 1.248 . S
C179 O190 1.267 . S
C179 O191 1.278 . S
O180 Pr160 2.562 . S
O180 C162 1.254 . S
O181 Pr160 2.490 . S
O181 C162 1.225 . S
O182 Pr160 2.695 . S
O182 Pr161 2.436 . S
O182 C169 1.270 . S
O183 Pr160 2.512 . S
O183 C169 1.248 . S
O184 Pr161 2.438 . S
O184 C170 1.267 . S
O185 Pr160 2.437 . S
O185 C170 1.278 . S
O186 Pr161 2.562 . S
O186 C171 1.254 . S
O187 Pr161 2.490 . S
O187 C171 1.225 . S
O188 Pr160 2.436 . S
O188 Pr161 2.695 . S
O188 C178 1.270 . S
O189 Pr161 2.512 . S
O189 C178 1.248 . S
O190 Pr160 2.438 . S
O190 C179 1.267 . S
O191 Pr161 2.437 . S
O191 C179 1.278 . S
H192 C164 0.929 1_554 S
H193 C165 0.929 . S
H194 C167 0.931 . S
H195 C168 0.930 . S
H196 C173 0.929 . S
H197 C174 0.929 . S
H198 C176 0.931 . S
H199 C177 0.930 . S
Pr200 C202 2.880 . S
Pr200 O220 2.562 . S
Pr200 O221 2.490 . S
Pr200 O222 2.695 . S
Pr200 O223 2.512 . S
Pr200 O225 2.437 . S
Pr200 O228 2.436 . S
Pr200 O230 2.438 . S
Pr201 C211 2.880 . S
Pr201 O222 2.436 . S
Pr201 O224 2.438 . S
Pr201 O226 2.562 . S
Pr201 O227 2.490 . S
Pr201 O228 2.695 . S
Pr201 O229 2.512 . S
Pr201 O231 2.437 . S
C202 Pr200 2.880 . S
C202 C203 1.491 1_556 S
C202 O220 1.254 . S
C202 O221 1.225 . S
C203 C202 1.491 1_554 S
C203 C204 1.392 . S
C203 C208 1.356 . S
C204 C203 1.392 . S
C204 C205 1.368 . S
C204 H232 0.929 . S
C205 C204 1.368 . S
C205 C206 1.386 . S
C205 H233 0.929 . S
C206 C205 1.386 . S
C206 C207 1.373 . S
C207 C206 1.373 . S
C207 C208 1.409 . S
C207 H234 0.931 . S
C208 C203 1.356 . S
C208 C207 1.409 . S
C208 H235 0.930 . S
C209 O222 1.270 . S
C209 O223 1.248 . S
C210 O224 1.267 . S
C210 O225 1.278 . S
C211 Pr201 2.880 . S
C211 C212 1.491 . S
C211 O226 1.254 . S
C211 O227 1.225 . S
C212 C211 1.491 . S
C212 C213 1.392 . S
C212 C217 1.356 . S
C213 C212 1.392 . S
C213 C214 1.368 . S
C213 H236 0.929 . S
C214 C213 1.368 . S
C214 C215 1.386 . S
C214 H237 0.929 . S
C215 C214 1.386 . S
C215 C216 1.373 . S
C216 C215 1.373 . S
C216 C217 1.409 . S
C216 H238 0.931 . S
C217 C212 1.356 . S
C217 C216 1.409 . S
C217 H239 0.930 . S
C218 O228 1.270 . S
C218 O229 1.248 . S
C219 O230 1.267 . S
C219 O231 1.278 . S
O220 Pr200 2.562 . S
O220 C202 1.254 . S
O221 Pr200 2.490 . S
O221 C202 1.225 . S
O222 Pr200 2.695 . S
O222 Pr201 2.436 . S
O222 C209 1.270 . S
O223 Pr200 2.512 . S
O223 C209 1.248 . S
O224 Pr201 2.438 . S
O224 C210 1.267 . S
O225 Pr200 2.437 . S
O225 C210 1.278 . S
O226 Pr201 2.562 . S
O226 C211 1.254 . S
O227 Pr201 2.490 . S
O227 C211 1.225 . S
O228 Pr200 2.436 . S
O228 Pr201 2.695 . S
O228 C218 1.270 . S
O229 Pr201 2.512 . S
O229 C218 1.248 . S
O230 Pr200 2.438 . S
O230 C219 1.267 . S
O231 Pr201 2.437 . S
O231 C219 1.278 . S
H232 C204 0.929 . S
H233 C205 0.929 . S
H234 C207 0.931 . S
H235 C208 0.930 . S
H236 C213 0.929 . S
H237 C214 0.929 . S
H238 C216 0.931 . S
H239 C217 0.930 . S
Pr240 C242 2.880 . S
Pr240 O260 2.562 . S
Pr240 O261 2.490 . S
Pr240 O262 2.695 1_556 S
Pr240 O263 2.512 . S
Pr240 O265 2.437 . S
Pr240 O268 2.436 . S
Pr240 O270 2.438 . S
Pr241 C251 2.880 . S
Pr241 O262 2.436 . S
Pr241 O264 2.438 . S
Pr241 O266 2.562 . S
Pr241 O267 2.490 . S
Pr241 O268 2.695 1_554 S
Pr241 O269 2.512 . S
Pr241 O271 2.437 . S
C242 Pr240 2.880 . S
C242 C243 1.491 . S
C242 O260 1.254 . S
C242 O261 1.225 . S
C243 C242 1.491 . S
C243 C244 1.392 . S
C243 C248 1.356 . S
C244 C243 1.392 . S
C244 C245 1.368 . S
C244 H272 0.929 . S
C245 C244 1.368 . S
C245 C246 1.386 . S
C245 H273 0.929 . S
C246 C245 1.386 . S
C246 C247 1.373 . S
C247 C246 1.373 . S
C247 C248 1.409 . S
C247 H274 0.931 . S
C248 C243 1.356 . S
C248 C247 1.409 . S
C248 H275 0.930 . S
C249 O262 1.270 . S
C249 O263 1.248 1_554 S
C250 O264 1.267 1_556 S
C250 O265 1.278 . S
C251 Pr241 2.880 . S
C251 C252 1.491 . S
C251 O266 1.254 . S
C251 O267 1.225 . S
C252 C251 1.491 . S
C252 C253 1.392 . S
C252 C257 1.356 . S
C253 C252 1.392 . S
C253 C254 1.368 . S
C253 H276 0.929 . S
C254 C253 1.368 . S
C254 C255 1.386 . S
C254 H277 0.929 . S
C255 C254 1.386 . S
C255 C256 1.373 . S
C256 C255 1.373 . S
C256 C257 1.409 . S
C256 H278 0.931 . S
C257 C252 1.356 . S
C257 C256 1.409 . S
C257 H279 0.930 . S
C258 O268 1.270 . S
C258 O269 1.248 1_556 S
C259 O270 1.267 1_554 S
C259 O271 1.278 . S
O260 Pr240 2.562 . S
O260 C242 1.254 . S
O261 Pr240 2.490 . S
O261 C242 1.225 . S
O262 Pr240 2.695 1_554 S
O262 Pr241 2.436 . S
O262 C249 1.270 . S
O263 Pr240 2.512 . S
O263 C249 1.248 1_556 S
O264 Pr241 2.438 . S
O264 C250 1.267 1_554 S
O265 Pr240 2.437 . S
O265 C250 1.278 . S
O266 Pr241 2.562 . S
O266 C251 1.254 . S
O267 Pr241 2.490 . S
O267 C251 1.225 . S
O268 Pr240 2.436 . S
O268 Pr241 2.695 1_556 S
O268 C258 1.270 . S
O269 Pr241 2.512 . S
O269 C258 1.248 1_554 S
O270 Pr240 2.438 . S
O270 C259 1.267 1_556 S
O271 Pr241 2.437 . S
O271 C259 1.278 . S
H272 C244 0.929 . S
H273 C245 0.929 . S
H274 C247 0.931 . S
H275 C248 0.930 . S
H276 C253 0.929 . S
H277 C254 0.929 . S
H278 C256 0.931 . S
H279 C257 0.930 . S
Pr280 C282 2.880 1_455 S
Pr280 O300 2.562 . S
Pr280 O301 2.490 1_455 S
Pr280 O302 2.695 1_455 S
Pr280 O303 2.512 1_455 S
Pr280 O305 2.437 1_455 S
Pr280 O308 2.436 . S
Pr280 O310 2.438 . S
Pr281 C291 2.880 1_655 S
Pr281 O302 2.436 . S
Pr281 O304 2.438 . S
Pr281 O306 2.562 . S
Pr281 O307 2.490 1_655 S
Pr281 O308 2.695 1_655 S
Pr281 O309 2.512 1_655 S
Pr281 O311 2.437 1_655 S
C282 Pr280 2.880 1_655 S
C282 C283 1.491 . S
C282 O300 1.254 1_655 S
C282 O301 1.225 . S
C283 C282 1.491 . S
C283 C284 1.392 . S
C283 C288 1.356 . S
C284 C283 1.392 . S
C284 C285 1.368 . S
C284 H312 0.929 . S
C285 C284 1.368 . S
C285 C286 1.386 . S
C285 H313 0.929 . S
C286 C285 1.386 . S
C286 C287 1.373 . S
C287 C286 1.373 . S
C287 C288 1.409 . S
C287 H314 0.931 . S
C288 C283 1.356 . S
C288 C287 1.409 . S
C288 H315 0.930 1_655 S
C289 O302 1.270 . S
C289 O303 1.248 . S
C290 O304 1.267 . S
C290 O305 1.278 . S
C291 Pr281 2.880 1_455 S
C291 C292 1.491 . S
C291 O306 1.254 1_455 S
C291 O307 1.225 . S
C292 C291 1.491 . S
C292 C293 1.392 . S
C292 C297 1.356 . S
C293 C292 1.392 . S
C293 C294 1.368 . S
C293 H316 0.929 . S
C294 C293 1.368 . S
C294 C295 1.386 . S
C294 H317 0.929 . S
C295 C294 1.386 . S
C295 C296 1.373 . S
C296 C295 1.373 . S
C296 C297 1.409 . S
C296 H318 0.931 . S
C297 C292 1.356 . S
C297 C296 1.409 . S
C297 H319 0.930 1_455 S
C298 O308 1.270 . S
C298 O309 1.248 . S
C299 O310 1.267 . S
C299 O311 1.278 . S
O300 Pr280 2.562 . S
O300 C282 1.254 1_455 S
O301 Pr280 2.490 1_655 S
O301 C282 1.225 . S
O302 Pr280 2.695 1_655 S
O302 Pr281 2.436 . S
O302 C289 1.270 . S
O303 Pr280 2.512 1_655 S
O303 C289 1.248 . S
O304 Pr281 2.438 . S
O304 C290 1.267 . S
O305 Pr280 2.437 1_655 S
O305 C290 1.278 . S
O306 Pr281 2.562 . S
O306 C291 1.254 1_655 S
O307 Pr281 2.490 1_455 S
O307 C291 1.225 . S
O308 Pr280 2.436 . S
O308 Pr281 2.695 1_455 S
O308 C298 1.270 . S
O309 Pr281 2.512 1_455 S
O309 C298 1.248 . S
O310 Pr280 2.438 . S
O310 C299 1.267 . S
O311 Pr281 2.437 1_455 S
O311 C299 1.278 . S
H312 C284 0.929 . S
H313 C285 0.929 . S
H314 C287 0.931 . S
H315 C288 0.930 1_455 S
H316 C293 0.929 . S
H317 C294 0.929 . S
H318 C296 0.931 . S
H319 C297 0.930 1_655 S
C320 C321 1.369 . S
C320 C322 1.419 . S
C320 H324 0.930 . S
C321 C320 1.369 . S
C321 C330 1.429 . S
C322 C320 1.419 . S
C322 C323 1.363 . S
C322 H325 0.929 . S
C323 C322 1.363 . S
C323 C329 1.428 . S
H324 C320 0.930 . S
H325 C322 0.929 . S
S326 N327 1.613 . S
S326 N328 1.610 . S
N327 S326 1.613 . S
N327 C330 1.350 . S
N328 S326 1.610 . S
N328 C329 1.351 . S
C329 C323 1.428 . S
C329 N328 1.351 . S
C329 C330 1.434 . S
C330 C321 1.429 . S
C330 N327 1.350 . S
C330 C329 1.434 . S
C331 C332 1.369 . S
C331 C333 1.419 . S
C331 H335 0.930 . S
C332 C331 1.369 . S
C332 C341 1.429 . S
C333 C331 1.419 . S
C333 C334 1.363 . S
C333 H336 0.929 . S
C334 C333 1.363 . S
C334 C340 1.428 . S
H335 C331 0.930 . S
H336 C333 0.929 . S
S337 N338 1.613 . S
S337 N339 1.610 . S
N338 S337 1.613 . S
N338 C341 1.350 . S
N339 S337 1.610 . S
N339 C340 1.351 . S
C340 C334 1.428 . S
C340 N339 1.351 . S
C340 C341 1.434 . S
C341 C332 1.429 . S
C341 N338 1.350 . S
C341 C340 1.434 . S
C342 C343 1.369 . S
C342 C344 1.419 . S
C342 H346 0.930 . S
C343 C342 1.369 . S
C343 C352 1.429 . S
C344 C342 1.419 . S
C344 C345 1.363 . S
C344 H347 0.929 . S
C345 C344 1.363 . S
C345 C351 1.428 . S
H346 C342 0.930 . S
H347 C344 0.929 . S
S348 N349 1.613 . S
S348 N350 1.610 . S
N349 S348 1.613 . S
N349 C352 1.350 . S
N350 S348 1.610 . S
N350 C351 1.351 . S
C351 C345 1.428 . S
C351 N350 1.351 . S
C351 C352 1.434 . S
C352 C343 1.429 . S
C352 N349 1.350 . S
C352 C351 1.434 . S
C353 C354 1.369 . S
C353 C355 1.419 . S
C353 H357 0.930 . S
C354 C353 1.369 . S
C354 C363 1.429 . S
C355 C353 1.419 . S
C355 C356 1.363 . S
C355 H358 0.929 . S
C356 C355 1.363 . S
C356 C362 1.428 . S
H357 C353 0.930 . S
H358 C355 0.929 . S
S359 N360 1.613 . S
S359 N361 1.610 . S
N360 S359 1.613 . S
N360 C363 1.350 . S
N361 S359 1.610 . S
N361 C362 1.351 . S
C362 C356 1.428 . S
C362 N361 1.351 . S
C362 C363 1.434 . S
C363 C354 1.429 . S
C363 N360 1.350 . S
C363 C362 1.434 . S
C364 C365 1.369 . S
C364 C366 1.419 . S
C364 H368 0.930 . S
C365 C364 1.369 . S
C365 C374 1.429 . S
C366 C364 1.419 . S
C366 C367 1.363 . S
C366 H369 0.929 . S
C367 C366 1.363 . S
C367 C373 1.428 . S
H368 C364 0.930 . S
H369 C366 0.929 . S
S370 N371 1.613 . S
S370 N372 1.610 . S
N371 S370 1.613 . S
N371 C374 1.350 . S
N372 S370 1.610 . S
N372 C373 1.351 . S
C373 C367 1.428 . S
C373 N372 1.351 . S
C373 C374 1.434 . S
C374 C365 1.429 . S
C374 N371 1.350 . S
C374 C373 1.434 . S
C375 C376 1.369 . S
C375 C377 1.419 . S
C375 H379 0.930 . S
C376 C375 1.369 . S
C376 C385 1.429 . S
C377 C375 1.419 . S
C377 C378 1.363 . S
C377 H380 0.929 . S
C378 C377 1.363 . S
C378 C384 1.428 . S
H379 C375 0.930 . S
H380 C377 0.929 . S
S381 N382 1.613 . S
S381 N383 1.610 . S
N382 S381 1.613 . S
N382 C385 1.350 . S
N383 S381 1.610 . S
N383 C384 1.351 . S
C384 C378 1.428 . S
C384 N383 1.351 . S
C384 C385 1.434 . S
C385 C376 1.429 . S
C385 N382 1.350 . S
C385 C384 1.434 . S
C386 C387 1.369 . S
C386 C388 1.419 . S
C386 H390 0.930 . S
C387 C386 1.369 . S
C387 C396 1.429 . S
C388 C386 1.419 . S
C388 C389 1.363 . S
C388 H391 0.929 . S
C389 C388 1.363 . S
C389 C395 1.428 . S
H390 C386 0.930 . S
H391 C388 0.929 . S
S392 N393 1.613 . S
S392 N394 1.610 . S
N393 S392 1.613 . S
N393 C396 1.350 . S
N394 S392 1.610 . S
N394 C395 1.351 . S
C395 C389 1.428 . S
C395 N394 1.351 . S
C395 C396 1.434 . S
C396 C387 1.429 . S
C396 N393 1.350 . S
C396 C395 1.434 . S
C397 C398 1.369 . S
C397 C399 1.419 . S
C397 H401 0.930 . S
C398 C397 1.369 . S
C398 C407 1.429 . S
C399 C397 1.419 . S
C399 C400 1.363 . S
C399 H402 0.929 . S
C400 C399 1.363 . S
C400 C406 1.428 . S
H401 C397 0.930 . S
H402 C399 0.929 . S
S403 N404 1.613 . S
S403 N405 1.610 . S
N404 S403 1.613 . S
N404 C407 1.350 . S
N405 S403 1.610 . S
N405 C406 1.351 . S
C406 C400 1.428 . S
C406 N405 1.351 . S
C406 C407 1.434 . S
C407 C398 1.429 . S
C407 N404 1.350 . S
C407 C406 1.434 . S
C408 C409 1.369 . S
C408 C410 1.419 . S
C408 H412 0.930 . S
C409 C408 1.369 . S
C409 C418 1.429 . S
C410 C408 1.419 . S
C410 C411 1.363 . S
C410 H413 0.929 . S
C411 C410 1.363 . S
C411 C417 1.428 . S
H412 C408 0.930 . S
H413 C410 0.929 . S
S414 N415 1.613 . S
S414 N416 1.610 . S
N415 S414 1.613 . S
N415 C418 1.350 . S
N416 S414 1.610 . S
N416 C417 1.351 . S
C417 C411 1.428 . S
C417 N416 1.351 . S
C417 C418 1.434 . S
C418 C409 1.429 . S
C418 N415 1.350 . S
C418 C417 1.434 . S
C419 C420 1.369 . S
C419 C421 1.419 . S
C419 H423 0.930 . S
C420 C419 1.369 . S
C420 C429 1.429 . S
C421 C419 1.419 . S
C421 C422 1.363 . S
C421 H424 0.929 . S
C422 C421 1.363 . S
C422 C428 1.428 . S
H423 C419 0.930 . S
H424 C421 0.929 . S
S425 N426 1.613 . S
S425 N427 1.610 . S
N426 S425 1.613 . S
N426 C429 1.350 . S
N427 S425 1.610 . S
N427 C428 1.351 . S
C428 C422 1.428 . S
C428 N427 1.351 . S
C428 C429 1.434 . S
C429 C420 1.429 . S
C429 N426 1.350 . S
C429 C428 1.434 . S
C430 C431 1.369 . S
C430 C432 1.419 . S
C430 H434 0.930 . S
C431 C430 1.369 . S
C431 C440 1.429 . S
C432 C430 1.419 . S
C432 C433 1.363 . S
C432 H435 0.929 . S
C433 C432 1.363 . S
C433 C439 1.428 . S
H434 C430 0.930 . S
H435 C432 0.929 . S
S436 N437 1.613 . S
S436 N438 1.610 . S
N437 S436 1.613 . S
N437 C440 1.350 . S
N438 S436 1.610 . S
N438 C439 1.351 . S
C439 C433 1.428 . S
C439 N438 1.351 . S
C439 C440 1.434 . S
C440 C431 1.429 . S
C440 N437 1.350 . S
C440 C439 1.434 . S
C441 C442 1.369 . S
C441 C443 1.419 . S
C441 H445 0.930 . S
C442 C441 1.369 . S
C442 C451 1.429 . S
C443 C441 1.419 . S
C443 C444 1.363 . S
C443 H446 0.929 . S
C444 C443 1.363 . S
C444 C450 1.428 . S
H445 C441 0.930 . S
H446 C443 0.929 . S
S447 N448 1.613 . S
S447 N449 1.610 . S
N448 S447 1.613 . S
N448 C451 1.350 . S
N449 S447 1.610 . S
N449 C450 1.351 . S
C450 C444 1.428 . S
C450 N449 1.351 . S
C450 C451 1.434 . S
C451 C442 1.429 . S
C451 N448 1.350 . S
C451 C450 1.434 . S
C452 C453 1.369 . S
C452 C454 1.419 . S
C452 H456 0.930 . S
C453 C452 1.369 . S
C453 C462 1.429 . S
C454 C452 1.419 . S
C454 C455 1.363 . S
C454 H457 0.929 . S
C455 C454 1.363 . S
C455 C461 1.428 . S
H456 C452 0.930 . S
H457 C454 0.929 . S
S458 N459 1.613 . S
S458 N460 1.610 . S
N459 S458 1.613 . S
N459 C462 1.350 . S
N460 S458 1.610 . S
N460 C461 1.351 . S
C461 C455 1.428 . S
C461 N460 1.351 . S
C461 C462 1.434 . S
C462 C453 1.429 . S
C462 N459 1.350 . S
C462 C461 1.434 . S
C463 C464 1.369 . S
C463 C465 1.419 . S
C463 H467 0.930 . S
C464 C463 1.369 . S
C464 C473 1.429 . S
C465 C463 1.419 . S
C465 C466 1.363 . S
C465 H468 0.929 . S
C466 C465 1.363 . S
C466 C472 1.428 . S
H467 C463 0.930 . S
H468 C465 0.929 . S
S469 N470 1.613 . S
S469 N471 1.610 . S
N470 S469 1.613 . S
N470 C473 1.350 . S
N471 S469 1.610 . S
N471 C472 1.351 . S
C472 C466 1.428 . S
C472 N471 1.351 . S
C472 C473 1.434 . S
C473 C464 1.429 . S
C473 N470 1.350 . S
C473 C472 1.434 . S
C474 C475 1.369 . S
C474 C476 1.419 . S
C474 H478 0.930 . S
C475 C474 1.369 . S
C475 C484 1.429 . S
C476 C474 1.419 . S
C476 C477 1.363 . S
C476 H479 0.929 . S
C477 C476 1.363 . S
C477 C483 1.428 . S
H478 C474 0.930 . S
H479 C476 0.929 . S
S480 N481 1.613 . S
S480 N482 1.610 . S
N481 S480 1.613 . S
N481 C484 1.350 . S
N482 S480 1.610 . S
N482 C483 1.351 . S
C483 C477 1.428 . S
C483 N482 1.351 . S
C483 C484 1.434 . S
C484 C475 1.429 . S
C484 N481 1.350 . S
C484 C483 1.434 . S
C485 C486 1.369 . S
C485 C487 1.419 . S
C485 H489 0.930 . S
C486 C485 1.369 . S
C486 C495 1.429 . S
C487 C485 1.419 . S
C487 C488 1.363 . S
C487 H490 0.929 . S
C488 C487 1.363 . S
C488 C494 1.428 . S
H489 C485 0.930 . S
H490 C487 0.929 . S
S491 N492 1.613 . S
S491 N493 1.610 . S
N492 S491 1.613 . S
N492 C495 1.350 . S
N493 S491 1.610 . S
N493 C494 1.351 . S
C494 C488 1.428 . S
C494 N493 1.351 . S
C494 C495 1.434 . S
C495 C486 1.429 . S
C495 N492 1.350 . S
C495 C494 1.434 . S
C496 C497 1.369 . S
C496 C498 1.419 1_546 S
C496 H500 0.930 . S
C497 C496 1.369 . S
C497 C506 1.429 1_655 S
C498 C496 1.419 1_564 S
C498 C499 1.363 1_655 S
C498 H501 0.929 . S
C499 C498 1.363 1_455 S
C499 C505 1.428 . S
H500 C496 0.930 . S
H501 C498 0.929 . S
S502 N503 1.613 1_565 S
S502 N504 1.610 . S
N503 S502 1.613 1_545 S
N503 C506 1.350 . S
N504 S502 1.610 . S
N504 C505 1.351 1_556 S
C505 C499 1.428 . S
C505 N504 1.351 1_554 S
C505 C506 1.434 1_564 S
C506 C497 1.429 1_455 S
C506 N503 1.350 . S
C506 C505 1.434 1_546 S
C507 C508 1.369 . S
C507 C509 1.419 . S
C507 H511 0.930 . S
C508 C507 1.369 . S
C508 C517 1.429 . S
C509 C507 1.419 . S
C509 C510 1.363 . S
C509 H512 0.929 . S
C510 C509 1.363 . S
C510 C516 1.428 . S
H511 C507 0.930 . S
H512 C509 0.929 . S
S513 N514 1.613 . S
S513 N515 1.610 . S
N514 S513 1.613 . S
N514 C517 1.350 . S
N515 S513 1.610 . S
N515 C516 1.351 . S
C516 C510 1.428 . S
C516 N515 1.351 . S
C516 C517 1.434 . S
C517 C508 1.429 . S
C517 N514 1.350 . S
C517 C516 1.434 . S
C518 C519 1.369 . S
C518 C520 1.419 . S
C518 H522 0.930 . S
C519 C518 1.369 . S
C519 C528 1.429 1_545 S
C520 C518 1.419 . S
C520 C521 1.363 1_545 S
C520 H523 0.929 . S
C521 C520 1.363 1_565 S
C521 C527 1.428 . S
H522 C518 0.930 . S
H523 C520 0.929 . S
S524 N525 1.613 . S
S524 N526 1.610 . S
N525 S524 1.613 . S
N525 C528 1.350 . S
N526 S524 1.610 . S
N526 C527 1.351 . S
C527 C521 1.428 . S
C527 N526 1.351 . S
C527 C528 1.434 . S
C528 C519 1.429 1_565 S
C528 N525 1.350 . S
C528 C527 1.434 . S
C529 C530 1.369 . S
C529 C531 1.419 . S
C529 H533 0.930 . S
C530 C529 1.369 . S
C530 C539 1.429 . S
C531 C529 1.419 . S
C531 C532 1.363 . S
C531 H534 0.929 . S
C532 C531 1.363 . S
C532 C538 1.428 . S
H533 C529 0.930 . S
H534 C531 0.929 . S
S535 N536 1.613 . S
S535 N537 1.610 . S
N536 S535 1.613 . S
N536 C539 1.350 . S
N537 S535 1.610 . S
N537 C538 1.351 . S
C538 C532 1.428 . S
C538 N537 1.351 . S
C538 C539 1.434 . S
C539 C530 1.429 . S
C539 N536 1.350 . S
C539 C538 1.434 . S
C540 C541 1.369 . S
C540 C542 1.419 . S
C540 H544 0.930 . S
C541 C540 1.369 . S
C541 C550 1.429 . S
C542 C540 1.419 . S
C542 C543 1.363 . S
C542 H545 0.929 . S
C543 C542 1.363 . S
C543 C549 1.428 . S
H544 C540 0.930 . S
H545 C542 0.929 . S
S546 N547 1.613 . S
S546 N548 1.610 . S
N547 S546 1.613 . S
N547 C550 1.350 . S
N548 S546 1.610 . S
N548 C549 1.351 . S
C549 C543 1.428 . S
C549 N548 1.351 . S
C549 C550 1.434 . S
C550 C541 1.429 . S
C550 N547 1.350 . S
C550 C549 1.434 . S
C551 C552 1.369 . S
C551 C553 1.419 . S
C551 H555 0.930 . S
C552 C551 1.369 . S
C552 C561 1.429 . S
C553 C551 1.419 . S
C553 C554 1.363 . S
C553 H556 0.929 . S
C554 C553 1.363 . S
C554 C560 1.428 . S
H555 C551 0.930 . S
H556 C553 0.929 . S
S557 N558 1.613 . S
S557 N559 1.610 . S
N558 S557 1.613 . S
N558 C561 1.350 . S
N559 S557 1.610 . S
N559 C560 1.351 . S
C560 C554 1.428 . S
C560 N559 1.351 . S
C560 C561 1.434 . S
C561 C552 1.429 . S
C561 N558 1.350 . S
C561 C560 1.434 . S
C562 C563 1.369 . S
C562 C564 1.419 . S
C562 H566 0.930 . S
C563 C562 1.369 . S
C563 C572 1.429 . S
C564 C562 1.419 . S
C564 C565 1.363 . S
C564 H567 0.929 . S
C565 C564 1.363 . S
C565 C571 1.428 . S
H566 C562 0.930 . S
H567 C564 0.929 . S
S568 N569 1.613 . S
S568 N570 1.610 . S
N569 S568 1.613 . S
N569 C572 1.350 . S
N570 S568 1.610 . S
N570 C571 1.351 . S
C571 C565 1.428 . S
C571 N570 1.351 . S
C571 C572 1.434 . S
C572 C563 1.429 . S
C572 N569 1.350 . S
C572 C571 1.434 . S
C573 C574 1.369 . S
C573 C575 1.419 1_556 S
C573 H577 0.930 . S
C574 C573 1.369 . S
C574 C583 1.429 1_655 S
C575 C573 1.419 1_554 S
C575 C576 1.363 1_655 S
C575 H578 0.929 . S
C576 C575 1.363 1_455 S
C576 C582 1.428 . S
H577 C573 0.930 . S
H578 C575 0.929 . S
S579 N580 1.613 . S
S579 N581 1.610 1_556 S
N580 S579 1.613 . S
N580 C583 1.350 . S
N581 S579 1.610 1_554 S
N581 C582 1.351 . S
C582 C576 1.428 . S
C582 N581 1.351 . S
C582 C583 1.434 1_554 S
C583 C574 1.429 1_455 S
C583 N580 1.350 . S
C583 C582 1.434 1_556 S
C321 C10 1.975 . S
C323 C130 1.972 . S
C332 C9 1.548 . S
C334 C50 1.570 . S
C343 C49 1.048 . S
C345 C89 1.049 . S
C354 C90 1.571 . S
C356 C129 1.543 . S
C365 C19 1.975 . S
C367 C219 1.978 . S
C376 C18 1.546 . S
C378 C179 1.570 . S
C387 C178 1.053 . S
C389 C98 1.051 . S
C398 C218 1.547 . S
C400 C99 1.573 . S
C409 C250 1.975 . S
C411 C210 1.976 . S
C420 C170 1.571 . S
C422 C249 1.545 . S
C431 C289 1.046 . S
C433 C169 1.048 . S
C442 C209 1.550 . S
C444 C290 1.571 . S
C453 C139 1.974 . S
C455 C259 1.973 . S
C464 C258 1.547 . S
C466 C59 1.571 . S
C475 C58 1.052 . S
C477 C298 1.051 . S
C486 C138 1.546 . S
C488 C299 1.569 . S
C497 C15 1.906 . S
C499 C6 1.915 . S
C508 C46 1.497 . S
C510 C55 1.503 . S
C519 C95 1.500 . S
C521 C86 1.501 . S
C530 C135 1.908 . S
C532 C126 1.914 . S
C541 C166 1.501 . S
C543 C175 1.500 . S
C552 C215 1.908 . S
C554 C206 1.913 . S
C563 C246 1.914 . S
C565 C255 1.910 . S
C574 C286 1.498 . S
C576 C295 1.502 . S
