# Generated by pormake.
# Topology snk, (6)-cn, num edge types: 1
# Building blocks:
#     Node 0, Type 0, BuildingBlock: BETGAK_clean_sbu_0, # of connection points: 6
#     Node 1, Type 0, BuildingBlock: BETGAK_clean_sbu_0, # of connection points: 6
#     Node 2, Type 0, BuildingBlock: BETGAK_clean_sbu_0, # of connection points: 6
#     Node 3, Type 0, BuildingBlock: BETGAK_clean_sbu_0, # of connection points: 6
#     Node 4, Type 0, BuildingBlock: BETGAK_clean_sbu_0, # of connection points: 6
#     Node 5, Type 0, BuildingBlock: BETGAK_clean_sbu_0, # of connection points: 6
#     Node 6, Type 0, BuildingBlock: BETGAK_clean_sbu_0, # of connection points: 6
#     Node 7, Type 0, BuildingBlock: BETGAK_clean_sbu_0, # of connection points: 6
#     Edge 8, Type (0, 0), BuildingBlock: UVAHIK_clean_linker_0, # of connection points: 2
#     Edge 9, Type (0, 0), BuildingBlock: UVAHIK_clean_linker_0, # of connection points: 2
#     Edge 10, Type (0, 0), BuildingBlock: UVAHIK_clean_linker_0, # of connection points: 2
#     Edge 11, Type (0, 0), BuildingBlock: UVAHIK_clean_linker_0, # of connection points: 2
#     Edge 12, Type (0, 0), BuildingBlock: UVAHIK_clean_linker_0, # of connection points: 2
#     Edge 13, Type (0, 0), BuildingBlock: UVAHIK_clean_linker_0, # of connection points: 2
#     Edge 14, Type (0, 0), BuildingBlock: UVAHIK_clean_linker_0, # of connection points: 2
#     Edge 15, Type (0, 0), BuildingBlock: UVAHIK_clean_linker_0, # of connection points: 2
#     Edge 16, Type (0, 0), BuildingBlock: UVAHIK_clean_linker_0, # of connection points: 2
#     Edge 17, Type (0, 0), BuildingBlock: UVAHIK_clean_linker_0, # of connection points: 2
#     Edge 18, Type (0, 0), BuildingBlock: UVAHIK_clean_linker_0, # of connection points: 2
#     Edge 19, Type (0, 0), BuildingBlock: UVAHIK_clean_linker_0, # of connection points: 2
#     Edge 20, Type (0, 0), BuildingBlock: UVAHIK_clean_linker_0, # of connection points: 2
#     Edge 21, Type (0, 0), BuildingBlock: UVAHIK_clean_linker_0, # of connection points: 2
#     Edge 22, Type (0, 0), BuildingBlock: UVAHIK_clean_linker_0, # of connection points: 2
#     Edge 23, Type (0, 0), BuildingBlock: UVAHIK_clean_linker_0, # of connection points: 2
#     Edge 24, Type (0, 0), BuildingBlock: UVAHIK_clean_linker_0, # of connection points: 2
#     Edge 25, Type (0, 0), BuildingBlock: UVAHIK_clean_linker_0, # of connection points: 2
#     Edge 26, Type (0, 0), BuildingBlock: UVAHIK_clean_linker_0, # of connection points: 2
#     Edge 27, Type (0, 0), BuildingBlock: UVAHIK_clean_linker_0, # of connection points: 2
#     Edge 28, Type (0, 0), BuildingBlock: UVAHIK_clean_linker_0, # of connection points: 2
#     Edge 29, Type (0, 0), BuildingBlock: UVAHIK_clean_linker_0, # of connection points: 2
#     Edge 30, Type (0, 0), BuildingBlock: UVAHIK_clean_linker_0, # of connection points: 2
#     Edge 31, Type (0, 0), BuildingBlock: UVAHIK_clean_linker_0, # of connection points: 2
# Relax obj value: 0.079
# Max RMSD: 0.134
# Mean RMSD: 0.116
data_MOF--net-snk--node1-BETGAK_clean_sbu_0--edge1-UVAHIK_clean_linker_0
_symmetry_space_group_name_H-M    P1
_symmetry_Int_Tables_number       1
_symmetry_cell_setting            triclinic
loop_
_symmetry_equiv_pos_as_xyz
'x, y, z'
_cell_length_a     49.824515
_cell_length_b     49.761177
_cell_length_c     29.925077
_cell_angle_alpha  83.885457
_cell_angle_beta   95.935998
_cell_angle_gamma 89.169826
loop_
_atom_site_label
_atom_site_type_symbol
_atom_site_fract_x
_atom_site_fract_y
_atom_site_fract_z
_atom_type_partial_charge
La0 La 1.00182 0.98749 0.4424 0.0
La1 La 0.02366 1.00473 0.53531 0.0
C2 C 0.98556 0.98206 0.36135 0.0
C3 C 0.98684 0.99424 0.31432 0.0
C4 C 0.01122 1.0033 0.29896 0.0
C5 C 0.01309 0.00983 0.25265 0.0
C6 C 0.99062 1.00746 0.22073 0.0
C7 C 0.96587 0.99997 0.23666 0.0
C8 C 0.96405 0.99335 0.28288 0.0
C9 C 0.03381 0.95277 0.49591 0.0
C10 C 0.05039 0.02847 0.44846 0.0
C11 C 0.04938 0.01126 0.61024 0.0
C12 C 0.04314 0.0128 0.65703 0.0
C13 C 0.01685 0.00912 0.66908 0.0
C14 C 0.01142 0.01039 0.71388 0.0
C15 C 0.03218 0.01539 0.74748 0.0
C16 C 0.05848 0.01907 0.73496 0.0
C17 C 0.06386 0.01778 0.69023 0.0
C18 C 0.97991 0.03076 0.49526 0.0
C19 C 0.97371 0.96669 0.52775 0.0
O20 O 1.00809 0.97128 0.38274 0.0
O21 O 0.97128 0.99465 0.38765 0.0
O22 O 0.01339 0.94577 0.46984 0.0
O23 O 0.03601 0.97787 0.49051 0.0
O24 O 0.03111 0.01771 0.42255 0.0
O25 O 0.05258 0.0243 0.49319 0.0
O26 O 0.03999 0.03129 0.58033 0.0
O27 O 0.04618 0.98763 0.5949 0.0
O28 O 0.98552 0.02667 0.53873 0.0
O29 O 0.9994 0.02252 0.4767 0.0
O30 O 0.99581 0.97282 0.55296 0.0
O31 O 0.96972 0.97435 0.48362 0.0
H32 H 0.02915 1.00417 0.32249 0.0
H33 H 0.03251 0.0154 0.24179 0.0
H34 H 0.94798 0.99851 0.21327 0.0
H35 H 0.94505 0.98642 0.29389 0.0
H36 H 1.00056 1.00526 0.64385 0.0
H37 H 0.99089 1.00775 0.72208 0.0
H38 H 0.07506 0.02251 0.7599 0.0
H39 H 0.08431 0.02054 0.68161 0.0
La40 La 0.25302 0.74368 0.83166 0.0
La41 La 0.25939 0.7727 0.73739 0.0
C42 C 0.25979 0.71931 0.91087 0.0
C43 C 0.26122 0.72592 0.95804 0.0
C44 C 0.25219 0.75113 0.96854 0.0
C45 C 0.25206 0.75624 1.01378 0.0
C46 C 0.26094 0.73621 0.04942 0.0
C47 C 0.27053 0.71122 0.03845 0.0
C48 C 0.27063 0.70616 0.99331 0.0
C49 C 0.21767 0.78299 0.80213 0.0
C50 C 0.29146 0.7946 0.82026 0.0
C51 C 0.2524 0.79734 0.65843 0.0
C52 C 0.2501 0.79072 0.61118 0.0
C53 C 0.25887 0.76551 0.60026 0.0
C54 C 0.25858 0.76051 0.55492 0.0
C55 C 0.24953 0.78063 0.51954 0.0
C56 C 0.24012 0.8056 0.53092 0.0
C57 C 0.24043 0.81056 0.57619 0.0
C58 C 0.29446 0.73294 0.7667 0.0
C59 C 0.22118 0.72168 0.74847 0.0
O60 O 0.23633 0.72342 0.88693 0.0
O61 O 0.27964 0.72726 0.88763 0.0
O62 O 0.21264 0.76226 0.8295 0.0
O63 O 0.24208 0.78229 0.79593 0.0
O64 O 0.28622 0.77165 0.84435 0.0
O65 O 0.27877 0.80165 0.7794 0.0
O66 O 0.276 0.7924 0.68162 0.0
O67 O 0.2326 0.79023 0.68242 0.0
O68 O 0.29955 0.75333 0.73861 0.0
O69 O 0.27015 0.73415 0.77318 0.0
O70 O 0.2262 0.74477 0.72459 0.0
O71 O 0.23408 0.71455 0.78921 0.0
H72 H 0.24478 0.76668 0.94179 0.0
H73 H 0.24432 0.77562 0.02078 0.0
H74 H 0.27799 0.69548 0.06479 0.0
H75 H 0.27776 0.6866 0.98594 0.0
H76 H 0.26648 0.74991 0.62677 0.0
H77 H 0.2662 0.74114 0.54761 0.0
H78 H 0.23253 0.82141 0.5048 0.0
H79 H 0.23352 0.83013 0.58386 0.0
La80 La 0.5229 0.99946 0.06287 0.0
La81 La 0.49894 0.02049 0.96843 0.0
C82 C 0.54451 0.99571 0.1435 0.0
C83 C 0.53772 0.9995 0.18935 0.0
C84 C 0.51522 0.98749 0.20721 0.0
C85 C 0.5106 0.98983 0.25204 0.0
C86 C 0.52835 1.00426 0.27986 0.0
C87 C 0.55038 0.01689 0.2613 0.0
C88 C 0.55503 0.01446 0.21662 0.0
C89 C 0.48578 0.96905 0.02605 0.0
C90 C 0.4723 0.04149 0.0486 0.0
C91 C 0.47727 0.02424 0.88782 0.0
C92 C 0.48393 0.02003 0.84205 0.0
C93 C 0.50646 0.03179 0.82387 0.0
C94 C 0.51094 0.02914 0.77908 0.0
C95 C 0.49304 0.01465 0.75163 0.0
C96 C 0.47098 1.00227 0.77051 0.0
C97 C 0.46647 1.00501 0.81515 0.0
C98 C 0.53591 0.051 1.0054 0.0
C99 C 0.54967 0.97857 0.98288 0.0
O100 O 0.53364 0.97546 0.12429 0.0
O101 O 0.54492 0.01752 0.11506 0.0
O102 O 0.50601 0.95974 0.05444 0.0
O103 O 0.48565 0.99449 0.02228 0.0
O104 O 0.49285 0.02979 0.07583 0.0
O105 O 0.46852 0.03763 1.00529 0.0
O106 O 0.4886 0.04436 0.90676 0.0
O107 O 0.47642 1.0026 0.91653 0.0
O108 O 0.51568 0.06026 0.97696 0.0
O109 O 0.5361 0.02556 1.00902 0.0
O110 O 0.52902 0.99006 0.9556 0.0
O111 O 0.55346 0.98266 0.02607 0.0
H112 H 0.50148 0.97587 0.18688 0.0
H113 H 0.49356 0.97967 0.26526 0.0
H114 H 0.56416 0.0286 0.28137 0.0
H115 H 0.57245 0.02399 0.20351 0.0
H116 H 0.52031 0.04346 0.84389 0.0
H117 H 0.528 0.03912 0.76561 0.0
H118 H 0.45708 0.99052 0.75072 0.0
H119 H 0.44902 0.99569 0.82851 0.0
La120 La 0.24931 0.27056 0.21935 0.0
La121 La 0.26932 0.24601 0.31444 0.0
C122 C 0.24669 0.29322 0.13927 0.0
C123 C 0.25003 0.28685 0.0931 0.0
C124 C 0.24227 0.26204 0.07803 0.0
C125 C 0.24424 0.25738 0.03306 0.0
C126 C 0.25405 0.27742 1.0024 0.0
C127 C 0.26246 0.30191 0.01821 0.0
C128 C 0.26042 0.30655 0.06301 0.0
C129 C 0.21963 0.23174 0.25355 0.0
C130 C 0.29232 0.22073 0.23445 0.0
C131 C 0.27198 0.22334 0.39449 0.0
C132 C 0.26836 0.2297 0.44058 0.0
C133 C 0.27593 0.25455 0.4557 0.0
C134 C 0.27383 0.25917 0.50064 0.0
C135 C 0.26407 0.23906 0.53123 0.0
C136 C 0.25583 0.21454 0.51536 0.0
C137 C 0.25801 0.20992 0.47059 0.0
C138 C 0.29916 0.28458 0.27992 0.0
C139 C 0.22648 0.29598 0.29943 0.0
O140 O 0.22595 0.28301 0.158 0.0
O141 O 0.26852 0.29208 0.16779 0.0
O142 O 0.21015 0.25166 0.22456 0.0
O143 O 0.24494 0.23274 0.25892 0.0
O144 O 0.28069 0.24136 0.20717 0.0
O145 O 0.28765 0.21637 0.2774 0.0
O146 O 0.29263 0.23387 0.37592 0.0
O147 O 0.25024 0.22412 0.3658 0.0
O148 O 0.30858 0.26463 0.30892 0.0
O149 O 0.27383 0.28374 0.2748 0.0
O150 O 0.23804 0.27529 0.32666 0.0
O151 O 0.23111 0.30029 0.25645 0.0
H152 H 0.2343 0.24647 0.10075 0.0
H153 H 0.23741 0.23836 0.02206 0.0
H154 H 0.27064 0.31757 0.99594 0.0
H155 H 0.2667 0.32576 0.07405 0.0
H156 H 0.28388 0.27018 0.43305 0.0
H157 H 0.28053 0.27822 0.51168 0.0
H158 H 0.24769 0.19881 0.53758 0.0
H159 H 0.25189 0.19068 0.45951 0.0
La160 La 0.75497 0.2471 0.30782 0.0
La161 La 0.76743 0.27398 0.2152 0.0
C162 C 0.75727 0.22288 0.38686 0.0
C163 C 0.7607 0.22933 0.4341 0.0
C164 C 0.75725 0.25584 0.44495 0.0
C165 C 0.75863 0.26108 0.49027 0.0
C166 C 0.76357 0.23992 0.52559 0.0
C167 C 0.76756 0.2135 0.5143 0.0
C168 C 0.76612 0.2083 0.46907 0.0
C169 C 0.72375 0.2887 0.27253 0.0
C170 C 0.79714 0.29524 0.30105 0.0
C171 C 0.76505 0.29812 0.13608 0.0
C172 C 0.76165 0.29159 0.08891 0.0
C173 C 0.76503 0.26503 0.07824 0.0
C174 C 0.76354 0.25967 0.03296 0.0
C175 C 0.75856 0.28076 0.99753 0.0
C176 C 0.75464 0.30723 1.00866 0.0
C177 C 0.75619 0.31255 0.05384 0.0
C178 C 0.7992 0.23311 0.25097 0.0
C179 C 0.72555 0.22551 0.22206 0.0
O180 O 0.73486 0.23183 0.36286 0.0
O181 O 0.7782 0.22599 0.36385 0.0
O182 O 0.71562 0.26889 0.29896 0.0
O183 O 0.74845 0.28574 0.27032 0.0
O184 O 0.7891 0.27333 0.32498 0.0
O185 O 0.78707 0.30215 0.25848 0.0
O186 O 0.78749 0.28931 0.16013 0.0
O187 O 0.74412 0.29488 0.15907 0.0
O188 O 0.80701 0.25308 0.22454 0.0
O189 O 0.77435 0.23536 0.25287 0.0
O190 O 0.73361 0.24736 0.19801 0.0
O191 O 0.73538 0.21884 0.26477 0.0
H192 H 0.7531 0.27239 0.41839 0.0
H193 H 0.75582 0.28171 0.49764 0.0
H194 H 0.77105 0.19665 0.54042 0.0
H195 H 0.7687 0.18768 0.46139 0.0
H196 H 0.76918 0.24853 0.10488 0.0
H197 H 0.7663 0.23901 0.02572 0.0
H198 H 0.75112 0.32403 0.98244 0.0
H199 H 0.75363 0.33319 0.06139 0.0
La200 La 0.7462 0.76813 0.72056 0.0
La201 La 0.77359 0.74933 0.81312 0.0
C202 C 0.73505 0.78507 0.63801 0.0
C203 C 0.74023 0.77842 0.59262 0.0
C204 C 0.71814 0.77531 0.5607 0.0
C205 C 0.72205 0.7707 0.51657 0.0
C206 C 0.74822 0.76923 0.50319 0.0
C207 C 0.77043 0.772 0.53538 0.0
C208 C 0.76649 0.77649 0.57974 0.0
C209 C 0.71816 0.73492 0.77085 0.0
C210 C 0.78925 0.71843 0.73434 0.0
C211 C 0.78583 0.73317 0.89576 0.0
C212 C 0.78055 0.73967 0.94116 0.0
C213 C 0.8026 0.74277 0.97316 0.0
C214 C 0.79861 0.7473 1.0173 0.0
C215 C 0.77241 0.7487 0.03058 0.0
C216 C 0.75025 0.74594 0.99829 0.0
C217 C 0.75426 0.74154 0.95393 0.0
C218 C 0.80127 0.78241 0.76189 0.0
C219 C 0.73013 0.79854 0.79967 0.0
O220 O 0.72012 0.76831 0.66067 0.0
O221 O 0.75516 0.79377 0.66391 0.0
O222 O 0.70772 0.75453 0.7421 0.0
O223 O 0.74328 0.73332 0.76871 0.0
O224 O 0.77614 0.73795 0.70647 0.0
O225 O 0.78819 0.71672 0.77854 0.0
O226 O 0.79983 0.75058 0.87253 0.0
O227 O 0.76606 0.7235 0.87042 0.0
O228 O 0.81191 0.76253 0.78984 0.0
O229 O 0.77631 0.78408 0.76511 0.0
O230 O 0.7432 0.77894 0.82736 0.0
O231 O 0.73136 0.80049 0.75549 0.0
H232 H 0.69771 0.77694 0.56972 0.0
H233 H 0.70449 0.76904 0.49256 0.0
H234 H 0.79085 0.77071 0.52628 0.0
H235 H 0.78395 0.77875 0.60367 0.0
H236 H 0.82305 0.74122 0.9642 0.0
H237 H 0.81613 0.74895 0.04138 0.0
H238 H 0.72981 0.74719 1.00732 0.0
H239 H 0.73685 0.7393 0.92989 0.0
La240 La 0.499 0.50746 0.98926 0.0
La241 La 0.52322 0.51901 0.08545 0.0
C242 C 0.47119 0.50408 0.91491 0.0
C243 C 0.47588 0.50406 0.86711 0.0
C244 C 0.5021 0.50283 0.85413 0.0
C245 C 0.5061 0.5027 0.80846 0.0
C246 C 0.48393 0.50393 0.77494 0.0
C247 C 0.45771 0.50526 0.78833 0.0
C248 C 0.45376 0.50531 0.83394 0.0
C249 C 0.54664 0.48497 1.01722 0.0
C250 C 0.54536 0.54903 1.00082 0.0
C251 C 0.54531 0.51576 0.16601 0.0
C252 C 0.53809 0.51037 0.21257 0.0
C253 C 0.51111 0.51051 0.22217 0.0
C254 C 0.50497 0.50741 0.2671 0.0
C255 C 0.52572 0.50404 0.30317 0.0
C256 C 0.55268 0.50332 0.29308 0.0
C257 C 0.55876 0.50646 0.24827 0.0
C258 C 0.48517 0.55287 0.04457 0.0
C259 C 0.47448 0.47859 0.07645 0.0
O260 O 0.48087 0.48304 0.94235 0.0
O261 O 0.47557 0.52693 0.93236 0.0
O262 O 0.53761 0.48988 0.975 0.0
O263 O 0.52799 0.48926 0.0408 0.0
O264 O 0.5223 0.54394 0.97716 0.0
O265 O 0.55235 0.53716 0.04233 0.0
O266 O 0.53531 0.53812 0.1431 0.0
O267 O 0.54418 0.49553 0.14141 0.0
O268 O 0.50449 0.55983 0.07304 0.0
O269 O 0.48681 0.52793 0.04272 0.0
O270 O 0.4914 0.49144 0.10355 0.0
O271 O 0.47354 0.48234 0.03164 0.0
H272 H 0.51946 0.502 0.87928 0.0
H273 H 0.52655 0.50199 0.79936 0.0
H274 H 0.44017 0.50588 0.76359 0.0
H275 H 0.43337 0.50625 0.84335 0.0
H276 H 0.49485 0.51346 0.19499 0.0
H277 H 0.48399 0.50772 0.27359 0.0
H278 H 0.56919 0.50114 0.31985 0.0
H279 H 0.57971 0.50643 0.24151 0.0
La280 La 0.02177 0.49644 0.56812 0.0
La281 La 1.00007 0.52033 0.47395 0.0
C282 C 0.04187 0.48904 0.64974 0.0
C283 C 0.03619 0.49474 0.6952 0.0
C284 C 0.00972 0.49784 0.70641 0.0
C285 C 1.0051 0.50156 0.75082 0.0
C286 C 0.02688 0.50238 0.78466 0.0
C287 C 0.05332 0.49983 0.77279 0.0
C288 C 0.05788 0.49604 0.72856 0.0
C289 C 0.98647 0.46684 0.52531 0.0
C290 C 0.97171 0.53915 0.55374 0.0
C291 C 0.98033 0.52827 0.39219 0.0
C292 C 0.9859 0.52231 0.34679 0.0
C293 C 0.01233 0.51916 0.33544 0.0
C294 C 0.01685 0.51526 0.29106 0.0
C295 C 0.99502 0.51435 0.25737 0.0
C296 C 0.96861 0.51694 0.26938 0.0
C297 C 0.96414 0.52089 0.31358 0.0
C298 C 0.03545 0.5497 0.51737 0.0
C299 C 0.04956 0.47717 0.48791 0.0
O300 O 0.0263 0.47187 0.63004 0.0
O301 O 0.04715 0.50974 0.62159 0.0
O302 O 1.00653 0.45706 0.55367 0.0
O303 O 0.98562 0.49225 0.5241 0.0
O304 O 0.99177 0.52683 0.58141 0.0
O305 O 0.96889 0.53654 0.50996 0.0
O306 O 0.9964 0.54495 0.41208 0.0
O307 O 0.97431 0.50781 0.42022 0.0
O308 O 0.01526 0.55966 0.48948 0.0
O309 O 0.03621 0.52435 0.51791 0.0
O310 O 0.02948 0.4896 0.46052 0.0
O311 O 0.05267 0.47983 0.53171 0.0
H312 H 0.99267 0.49704 0.68105 0.0
H313 H 0.9845 0.50379 0.75867 0.0
H314 H 0.07055 0.49999 0.79798 0.0
H315 H 0.07845 0.49363 0.72058 0.0
H316 H 0.02944 0.52006 0.36066 0.0
H317 H 0.03743 0.513 0.28311 0.0
H318 H 0.95133 0.5167 0.2443 0.0
H319 H 0.9436 0.52335 0.32166 0.0
C320 C 0.06192 0.06091 0.38384 0.0
C321 C 0.06939 0.04695 0.42672 0.0
C322 C 0.07912 0.07973 0.36448 0.0
C323 C 0.13963 0.12053 0.39474 0.0
H324 H 0.13815 0.13446 0.26451 0.0
C325 C 0.21576 0.18803 0.30226 0.0
C326 C 0.20347 0.20944 0.27239 0.0
C327 C 0.20019 0.1674 0.32094 0.0
C328 C 0.13871 0.13074 0.30093 0.0
H329 H 0.10119 0.04093 0.4822 0.0
H330 H 0.13181 0.07254 0.44761 0.0
H331 H 0.11038 0.09905 0.297 0.0
H332 H 0.16545 0.22559 0.23735 0.0
H333 H 0.13839 0.18893 0.26875 0.0
H334 H 0.16882 0.15174 0.39815 0.0
C335 C 0.11223 0.06996 0.42949 0.0
C336 C 0.12264 0.11059 0.3197 0.0
C337 C 0.09475 0.0516 0.44927 0.0
C338 C 0.17545 0.20941 0.26048 0.0
C339 C 0.15998 0.18845 0.27831 0.0
C340 C 0.15613 0.14024 0.37592 0.0
C341 C 0.10453 0.08464 0.38706 0.0
C342 C 0.1226 0.10535 0.36693 0.0
C343 C 0.17218 0.16741 0.30902 0.0
C344 C 0.15559 0.14571 0.32888 0.0
H345 H 0.04238 0.05795 0.36577 0.0
H346 H 0.07206 0.09087 0.33226 0.0
H347 H 0.13987 0.11768 0.43114 0.0
H348 H 0.23739 0.18724 0.31127 0.0
H349 H 0.21006 0.15123 0.34426 0.0
C350 C 0.07632 0.9435 0.54589 0.0
C351 C 0.0512 0.9346 0.52847 0.0
C352 C 0.09327 0.92635 0.57649 0.0
C353 C 0.09501 0.86997 0.66244 0.0
H354 H 0.16828 0.85831 0.63431 0.0
C355 C 0.17023 0.79383 0.77062 0.0
C356 C 0.19736 0.80109 0.77529 0.0
C357 C 0.15137 0.80992 0.74147 0.0
C358 C 0.14802 0.86167 0.64302 0.0
H359 H 0.02358 0.90136 0.52944 0.0
H360 H 0.05334 0.87123 0.58412 0.0
H361 H 0.13688 0.88677 0.58112 0.0
H362 H 0.22618 0.83106 0.75545 0.0
H363 H 0.19314 0.8598 0.70588 0.0
H364 H 0.10631 0.84562 0.72503 0.0
C365 C 0.05984 0.89141 0.57369 0.0
C366 C 0.13007 0.87777 0.61244 0.0
C367 C 0.043 0.90848 0.54243 0.0
C368 C 0.20531 0.82506 0.75197 0.0
C369 C 0.18645 0.84132 0.72336 0.0
C370 C 0.11311 0.85413 0.69345 0.0
C371 C 0.08517 0.9002 0.5905 0.0
C372 C 0.10353 0.88214 0.62207 0.0
C373 C 0.15938 0.83365 0.71708 0.0
C374 C 0.13987 0.85 0.68417 0.0
H375 H 0.08298 0.96363 0.53551 0.0
H376 H 0.11267 0.93354 0.58942 0.0
H377 H 0.0746 0.87332 0.67049 0.0
H378 H 0.16377 0.77527 0.78819 0.0
H379 H 0.13074 0.80332 0.73701 0.0
C380 C 0.32927 0.80389 0.87802 0.0
C381 C 0.31077 0.81333 0.84082 0.0
C382 C 0.34758 0.82139 0.89759 0.0
C383 C 0.37811 0.8892 0.87641 0.0
H384 H 0.39954 0.87737 1.00543 0.0
C385 C 0.44247 0.96407 0.97698 0.0
C386 C 0.46486 0.95223 1.00492 0.0
C387 C 0.4231 0.94786 0.95646 0.0
C388 C 0.39381 0.88085 0.96932 0.0
H389 H 0.29684 0.8487 0.79522 0.0
H390 H 0.32804 0.87949 0.83031 0.0
H391 H 0.36652 0.84815 0.97087 0.0
H392 H 0.48424 0.91422 0.0342 0.0
H393 H 0.45008 0.88596 0.99941 0.0
H394 H 0.40507 0.92248 0.87555 0.0
C395 C 0.32901 0.85838 0.84372 0.0
C396 C 0.37498 0.86398 0.94934 0.0
C397 C 0.31095 0.84074 0.8237 0.0
C398 C 0.46722 0.92392 1.01275 0.0
C399 C 0.44765 0.90774 0.99294 0.0
C400 C 0.39665 0.90635 0.89659 0.0
C401 C 0.34764 0.84897 0.88099 0.0
C402 C 0.36705 0.86768 0.90247 0.0
C403 C 0.42546 0.91952 0.9644 0.0
C404 C 0.4049 0.90215 0.94317 0.0
H405 H 0.32987 0.78282 0.89174 0.0
H406 H 0.36194 0.81312 0.92546 0.0
H407 H 0.37294 0.89253 0.84019 0.0
H408 H 0.43987 0.98584 0.97102 0.0
H409 H 0.40605 0.95747 0.93498 0.0
C410 C 0.43348 0.07521 0.03932 0.0
C411 C 0.4527 0.05868 0.06773 0.0
C412 C 0.41566 0.0921 0.05745 0.0
C413 C 0.40653 0.12384 0.16256 0.0
H414 H 0.33331 0.13714 0.10592 0.0
C415 C 0.32585 0.18172 0.24422 0.0
C416 C 0.30995 0.20139 0.21559 0.0
C417 C 0.34288 0.1639 0.22641 0.0
C418 C 0.35376 0.13378 0.12194 0.0
H419 H 0.46782 0.04659 0.13773 0.0
H420 H 0.43641 0.07534 0.16927 0.0
H421 H 0.36338 0.1066 0.07476 0.0
H422 H 0.29934 0.21747 0.14556 0.0
H423 H 0.32886 0.18627 0.11462 0.0
H424 H 0.39668 0.15078 0.21009 0.0
C425 C 0.43546 0.07587 0.13288 0.0
C426 C 0.37108 0.11631 0.10399 0.0
C427 C 0.45342 0.05918 0.11474 0.0
C428 C 0.3113 0.2026 0.16867 0.0
C429 C 0.32811 0.18461 0.15086 0.0
C430 C 0.38913 0.14111 0.18071 0.0
C431 C 0.41644 0.09276 0.10452 0.0
C432 C 0.39777 0.11114 0.12394 0.0
C433 C 0.34422 0.16512 0.17951 0.0
C434 C 0.36256 0.14637 0.16055 0.0
H435 H 0.43247 0.07549 1.00295 0.0
H436 H 0.40164 0.10506 0.0344 0.0
H437 H 0.42704 0.12086 0.17844 0.0
H438 H 0.32536 0.18021 0.2805 0.0
H439 H 0.35484 0.14896 0.24937 0.0
C440 C 0.93328 0.93692 0.52417 0.0
C441 C 0.95343 0.94988 0.54981 0.0
C442 C 0.91534 0.9197 0.54553 0.0
C443 C 0.87186 0.89329 0.59929 0.0
H444 H 0.90128 0.84858 0.70778 0.0
C445 C 0.80541 0.82609 0.71291 0.0
C446 C 0.81677 0.80129 0.73362 0.0
C447 C 0.82101 0.84441 0.68843 0.0
C448 C 0.89272 0.86066 0.67727 0.0
H449 H 0.96971 0.95582 0.61806 0.0
H450 H 0.93819 0.92654 0.65506 0.0
H451 H 0.93016 0.87992 0.669 0.0
H452 H 0.85284 0.77565 0.74354 0.0
H453 H 0.87978 0.80707 0.70016 0.0
H454 H 0.83456 0.87322 0.60701 0.0
C455 C 0.93665 0.92893 0.61848 0.0
C456 C 0.90924 0.87903 0.65534 0.0
C457 C 0.95468 0.9459 0.5972 0.0
C458 C 0.84366 0.79478 0.72836 0.0
C459 C 0.85915 0.8129 0.70369 0.0
C460 C 0.8553 0.87474 0.62118 0.0
C461 C 0.91701 0.91521 0.59302 0.0
C462 C 0.89907 0.89568 0.61611 0.0
C463 C 0.84823 0.83818 0.68404 0.0
C464 C 0.86555 0.85812 0.66044 0.0
H465 H 0.9318 0.93949 0.4876 0.0
H466 H 0.90067 0.90932 0.52477 0.0
H467 H 0.86323 0.90593 0.56942 0.0
H468 H 0.78471 0.83162 0.71659 0.0
H469 H 0.81196 0.86374 0.67411 0.0
C470 C 0.95609 0.05357 0.42441 0.0
C471 C 0.95814 0.04857 0.4716 0.0
C472 C 0.93702 0.07217 0.40162 0.0
C473 C 0.87639 0.11353 0.41481 0.0
H474 H 0.90101 0.15737 0.31265 0.0
C475 C 0.84451 0.21619 0.28524 0.0
C476 C 0.81676 0.21219 0.27746 0.0
C477 C 0.86114 0.19642 0.31125 0.0
C478 C 0.89391 0.14562 0.34148 0.0
H479 H 0.94183 0.05854 0.5323 0.0
H480 H 0.90918 0.09224 0.49262 0.0
H481 H 0.93065 0.12244 0.35434 0.0
H482 H 0.78428 0.18487 0.29016 0.0
H483 H 0.81345 0.14966 0.33381 0.0
H484 H 0.84012 0.13783 0.40319 0.0
C485 C 0.92171 0.08118 0.473 0.0
C486 C 0.91074 0.12517 0.36491 0.0
C487 C 0.94048 0.06204 0.49577 0.0
C488 C 0.80573 0.18828 0.29589 0.0
C489 C 0.8224 0.16828 0.32122 0.0
C490 C 0.85967 0.13435 0.39177 0.0
C491 C 0.92014 0.08677 0.4257 0.0
C492 C 0.90209 0.10869 0.40151 0.0
C493 C 0.85032 0.1721 0.3291 0.0
C494 C 0.86821 0.15051 0.35466 0.0
H495 H 0.96973 0.04372 0.40506 0.0
H496 H 0.93593 0.07547 0.36511 0.0
H497 H 0.86905 0.10109 0.44269 0.0
H498 H 0.8533 0.23472 0.27177 0.0
H499 H 0.88246 0.20027 0.3175 0.0
C500 C 0.70532 0.17992 0.21737 0.0
C501 C 0.70674 0.20709 0.1996 0.0
C502 C 0.68778 0.16242 0.19591 0.0
C503 C 0.64544 0.15634 0.08656 0.0
H504 H 0.61249 0.09895 0.1585 0.0
C505 C 0.55412 0.09623 0.0188 0.0
C506 C 0.55658 0.06793 0.02688 0.0
C507 C 0.57332 0.11256 0.03919 0.0
C508 C 0.62173 0.11477 0.138 0.0
H509 H 0.69054 0.23736 0.1458 0.0
H510 H 0.65912 0.20734 0.10949 0.0
H511 H 0.64349 0.12911 0.19571 0.0
H512 H 0.58147 0.03448 0.06164 0.0
H513 H 0.61454 0.06314 0.09894 0.0
H514 H 0.62259 0.14247 0.02908 0.0
C515 C 0.67217 0.1991 0.13909 0.0
C516 C 0.63964 0.13204 0.15924 0.0
C517 C 0.69007 0.21646 0.16012 0.0
C518 C 0.57877 0.05624 0.05554 0.0
C519 C 0.59771 0.0726 0.07672 0.0
C520 C 0.62714 0.13938 0.06548 0.0
C521 C 0.67082 0.17175 0.15652 0.0
C522 C 0.65179 0.15313 0.13385 0.0
C523 C 0.59518 0.10093 0.06864 0.0
C524 C 0.61512 0.11844 0.09098 0.0
H525 H 0.71809 0.17199 0.24753 0.0
H526 H 0.68787 0.14146 0.21001 0.0
H527 H 0.65474 0.17183 0.06555 0.0
H528 H 0.53728 0.10581 0.99675 0.0
H529 H 0.57082 0.13433 0.03256 0.0
C530 C 0.71354 0.81859 0.86578 0.0
C531 C 0.71323 0.81845 0.81875 0.0
C532 C 0.69687 0.83666 0.88376 0.0
C533 C 0.65496 0.9001 0.85328 0.0
H534 H 0.62193 0.87531 0.96153 0.0
C535 C 0.56818 0.95957 0.91736 0.0
C536 C 0.56942 0.96131 0.96415 0.0
C537 C 0.58642 0.94285 0.89985 0.0
C538 C 0.6312 0.88266 0.93154 0.0
H539 H 0.69505 0.83736 0.7538 0.0
H540 H 0.66567 0.86838 0.78503 0.0
H541 H 0.65226 0.84498 0.93066 0.0
H542 H 0.59098 0.94674 0.02915 0.0
H543 H 0.62266 0.91754 0.99859 0.0
H544 H 0.63339 0.93764 0.85386 0.0
C545 C 0.67918 0.85494 0.80816 0.0
C546 C 0.6487 0.86526 0.91383 0.0
C547 C 0.69598 0.83699 0.79018 0.0
C548 C 0.58941 0.94595 0.99295 0.0
C549 C 0.6075 0.92906 0.97546 0.0
C550 C 0.63729 0.91742 0.87082 0.0
C551 C 0.67928 0.85497 0.85523 0.0
C552 C 0.66085 0.87371 0.87442 0.0
C553 C 0.6062 0.92725 0.9287 0.0
C554 C 0.62519 0.90892 0.91017 0.0
H555 H 0.72663 0.80468 0.88887 0.0
H556 H 0.69792 0.83634 0.92014 0.0
H557 H 0.66423 0.90756 0.82337 0.0
H558 H 0.55305 0.97108 0.89412 0.0
H559 H 0.58469 0.94175 0.86371 0.0
C560 C 0.59171 0.56734 0.99483 0.0
C561 C 0.56406 0.5681 0.9795 0.0
C562 C 0.60946 0.58466 0.97326 0.0
C563 C 0.614 0.62919 0.8656 0.0
H564 H 0.67559 0.65794 0.93345 0.0
C565 C 0.6739 0.71878 0.7933 0.0
C566 C 0.70209 0.71531 0.79682 0.0
C567 C 0.65817 0.70012 0.81636 0.0
C568 C 0.65858 0.64986 0.91409 0.0
H569 H 0.53318 0.58822 0.93048 0.0
H570 H 0.5637 0.61907 0.89417 0.0
H571 H 0.64563 0.6273 0.97263 0.0
H572 H 0.73595 0.68948 0.82713 0.0
H573 H 0.70838 0.65718 0.86901 0.0
H574 H 0.62651 0.6526 0.80743 0.0
C575 C 0.57206 0.6045 0.92172 0.0
C576 C 0.64142 0.6322 0.93644 0.0
C577 C 0.55444 0.58691 0.94279 0.0
C578 C 0.71431 0.6929 0.82439 0.0
C579 C 0.69856 0.67441 0.84819 0.0
C580 C 0.63087 0.64713 0.8435 0.0
C581 C 0.5999 0.60345 0.93624 0.0
C582 C 0.61874 0.62174 0.91254 0.0
C583 C 0.6703 0.67772 0.84398 0.0
C584 C 0.65323 0.65777 0.86752 0.0
H585 H 0.59978 0.55291 0.02284 0.0
H586 H 0.63075 0.5829 0.98513 0.0
H587 H 0.59727 0.62108 0.84566 0.0
H588 H 0.6639 0.73586 0.77234 0.0
H589 H 0.63646 0.70329 0.81282 0.0
C590 C 0.71941 0.3315 0.22181 0.0
C591 C 0.70699 0.31054 0.2466 0.0
C592 C 0.70386 0.35158 0.1947 0.0
C593 C 0.66477 0.37967 0.11871 0.0
H594 H 0.60747 0.41673 0.16805 0.0
C595 C 0.57951 0.44731 1.01518 0.0
C596 C 0.57156 0.47005 0.03491 0.0
C597 C 0.59963 0.42965 0.03805 0.0
C598 C 0.62359 0.40669 0.15399 0.0
H599 H 0.66887 0.29434 0.26399 0.0
H600 H 0.64139 0.33004 0.21683 0.0
H601 H 0.63429 0.38111 0.21553 0.0
H602 H 0.58047 0.49456 0.08976 0.0
H603 H 0.61536 0.4636 0.13023 0.0
H604 H 0.65384 0.40522 0.05697 0.0
C605 C 0.66318 0.33066 0.21819 0.0
C606 C 0.63865 0.38615 0.18095 0.0
C607 C 0.6788 0.31034 0.24505 0.0
C608 C 0.58558 0.47644 0.07519 0.0
C609 C 0.60561 0.4589 0.09802 0.0
C610 C 0.64949 0.40007 0.09153 0.0
C611 C 0.67565 0.35124 0.19246 0.0
C612 C 0.65937 0.37254 0.16355 0.0
C613 C 0.61192 0.43477 0.08062 0.0
C614 C 0.62888 0.41381 0.10911 0.0
H615 H 0.74117 0.33226 0.22293 0.0
H616 H 0.7139 0.3675 0.17573 0.0
H617 H 0.68061 0.36925 0.10457 0.0
H618 H 0.56889 0.44219 0.98388 0.0
H619 H 0.60424 0.41116 0.02396 0.0
C620 C 0.96979 0.42192 0.50696 0.0
C621 C 0.96641 0.45016 0.50176 0.0
C622 C 0.95114 0.40575 0.48497 0.0
C623 C 0.88152 0.40718 0.42409 0.0
H624 H 0.90697 0.34001 0.38621 0.0
C625 C 0.81726 0.34082 0.30682 0.0
C626 C 0.81621 0.31339 0.32352 0.0
C627 C 0.83512 0.358 0.32836 0.0
C628 C 0.89959 0.35866 0.39679 0.0
H629 H 0.94038 0.48363 0.47054 0.0
H630 H 0.90862 0.45566 0.42977 0.0
H631 H 0.93908 0.36944 0.42248 0.0
H632 H 0.83328 0.2824 0.37553 0.0
H633 H 0.86508 0.31231 0.41233 0.0
H634 H 0.84208 0.39653 0.39651 0.0
C635 C 0.92536 0.44579 0.4516 0.0
C636 C 0.91794 0.37553 0.41792 0.0
C637 C 0.94381 0.46194 0.4744 0.0
C638 C 0.83356 0.30345 0.36195 0.0
C639 C 0.85182 0.3205 0.3829 0.0
C640 C 0.86325 0.39052 0.40212 0.0
C641 C 0.92877 0.4174 0.4565 0.0
C642 C 0.90918 0.39992 0.4324 0.0
C643 C 0.8527 0.34796 0.36641 0.0
C644 C 0.87209 0.36599 0.38868 0.0
H645 H 0.98686 0.41222 0.52829 0.0
H646 H 0.95422 0.38403 0.49082 0.0
H647 H 0.87377 0.42547 0.43529 0.0
H648 H 0.80405 0.34911 0.27739 0.0
H649 H 0.83551 0.37906 0.31488 0.0
C650 C 0.80631 0.69841 0.66852 0.0
C651 C 0.80616 0.69841 0.7155 0.0
C652 C 0.82316 0.68035 0.65086 0.0
C653 C 0.8648 0.61677 0.68174 0.0
H654 H 0.89938 0.64219 0.57542 0.0
C655 C 0.95234 0.55734 0.6193 0.0
C656 C 0.95175 0.55621 0.57242 0.0
C657 C 0.93391 0.57395 0.63666 0.0
C658 C 0.88968 0.63466 0.60486 0.0
H659 H 0.82369 0.67921 0.78068 0.0
H660 H 0.85333 0.64819 0.75003 0.0
H661 H 0.86855 0.67232 0.60562 0.0
H662 H 0.93109 0.5717 0.50713 0.0
H663 H 0.89909 0.6006 0.53742 0.0
H664 H 0.8864 0.57923 0.68125 0.0
C665 C 0.84006 0.66176 0.72667 0.0
C666 C 0.8719 0.65194 0.62218 0.0
C667 C 0.8231 0.6797 0.74433 0.0
C668 C 0.93219 0.57202 0.54341 0.0
C669 C 0.91391 0.58876 0.56075 0.0
C670 C 0.88274 0.59955 0.66457 0.0
C671 C 0.84046 0.6619 0.67967 0.0
C672 C 0.85918 0.64326 0.66088 0.0
C673 C 0.91457 0.59001 0.60758 0.0
C674 C 0.8954 0.60827 0.62589 0.0
H675 H 0.79348 0.71245 0.64524 0.0
H676 H 0.8225 0.6808 0.61451 0.0
H677 H 0.85511 0.60915 0.71111 0.0
H678 H 0.96712 0.54549 0.6427 0.0
H679 H 0.93515 0.57461 0.67288 0.0
C680 C 0.30361 0.32758 0.22946 0.0
C681 C 0.31561 0.3062 0.25975 0.0
C682 C 0.31959 0.34733 0.20922 0.0
C683 C 0.38135 0.38305 0.22545 0.0
H684 H 0.38327 0.38998 0.09558 0.0
C685 C 0.46144 0.44742 0.14139 0.0
C686 C 0.45519 0.46002 0.09721 0.0
C687 C 0.44355 0.42947 0.16097 0.0
C688 C 0.38266 0.38884 0.13177 0.0
H689 H 0.35353 0.2893 0.29407 0.0
H690 H 0.38128 0.32449 0.26011 0.0
H691 H 0.35282 0.35813 0.13053 0.0
H692 H 0.425 0.46425 0.03923 0.0
H693 H 0.39313 0.43412 0.07399 0.0
H694 H 0.41025 0.41426 0.22721 0.0
C695 C 0.35962 0.32555 0.25131 0.0
C696 C 0.36529 0.37042 0.15172 0.0
C697 C 0.34375 0.30546 0.27064 0.0
C698 C 0.43049 0.45461 0.07321 0.0
C699 C 0.41228 0.43713 0.09316 0.0
C700 C 0.39825 0.40194 0.2055 0.0
C701 C 0.34771 0.34647 0.22009 0.0
C702 C 0.36478 0.36714 0.19874 0.0
C703 C 0.4186 0.42412 0.13728 0.0
C704 C 0.3995 0.40487 0.15837 0.0
H705 H 0.28193 0.329 0.22127 0.0
H706 H 0.30999 0.36344 0.18549 0.0
H707 H 0.3811 0.38097 0.26181 0.0
H708 H 0.48046 0.45099 0.16061 0.0
H709 H 0.44963 0.41949 0.19448 0.0
C710 C 0.44478 0.56027 0.98895 0.0
C711 C 0.46525 0.57108 1.01678 0.0
C712 C 0.42692 0.57724 0.95969 0.0
C713 C 0.41683 0.64899 0.90946 0.0
H714 H 0.34474 0.62418 0.87762 0.0
C715 C 0.34122 0.71337 0.78163 0.0
C716 C 0.3141 0.71272 0.7901 0.0
C717 C 0.36002 0.69496 0.8063 0.0
C718 C 0.36463 0.63172 0.88657 0.0
H719 H 0.48225 0.60788 0.03866 0.0
H720 H 0.44962 0.63781 0.99015 0.0
H721 H 0.37562 0.59591 0.9303 0.0
H722 H 0.2849 0.69189 0.8291 0.0
H723 H 0.31764 0.66144 0.87455 0.0
H724 H 0.40491 0.68585 0.8687 0.0
C725 C 0.44828 0.61624 0.98864 0.0
C726 C 0.38267 0.61514 0.91624 0.0
C727 C 0.46676 0.59915 1.01691 0.0
C728 C 0.30584 0.69308 0.82254 0.0
C729 C 0.32464 0.67528 0.84809 0.0
C730 C 0.39846 0.66596 0.88086 0.0
C731 C 0.42836 0.60549 0.95913 0.0
C732 C 0.40906 0.62347 0.92799 0.0
C733 C 0.35203 0.67601 0.8405 0.0
C734 C 0.37208 0.65756 0.86913 0.0
H735 H 0.44279 0.53861 0.98922 0.0
H736 H 0.41229 0.56805 0.93712 0.0
H737 H 0.43712 0.65595 0.91687 0.0
H738 H 0.34794 0.72821 0.75625 0.0
H739 H 0.38078 0.69573 0.79865 0.0
C740 C 0.18276 0.71271 0.69175 0.0
C741 C 0.20216 0.70288 0.72746 0.0
C742 C 0.16481 0.69517 0.67143 0.0
C743 C 0.15672 0.62539 0.6474 0.0
H744 H 0.08015 0.64344 0.63146 0.0
C745 C 0.07805 0.55407 0.56877 0.0
C746 C 0.05513 0.56605 0.54253 0.0
C747 C 0.09608 0.56982 0.59328 0.0
C748 C 0.10148 0.63822 0.63486 0.0
H749 H 0.21809 0.66686 0.76957 0.0
H750 H 0.187 0.63604 0.73313 0.0
H751 H 0.1114 0.67274 0.6699 0.0
H752 H 0.03367 0.604 0.51982 0.0
H753 H 0.06551 0.63158 0.56047 0.0
H754 H 0.14714 0.59149 0.61086 0.0
C755 C 0.18564 0.6574 0.72128 0.0
C756 C 0.11936 0.65498 0.65724 0.0
C757 C 0.2033 0.67506 0.74225 0.0
C758 C 0.051 0.59413 0.5402 0.0
C759 C 0.06919 0.60993 0.56401 0.0
C760 C 0.13888 0.60882 0.62426 0.0
C761 C 0.16613 0.66732 0.6858 0.0
C762 C 0.14716 0.64883 0.66356 0.0
C763 C 0.09188 0.59803 0.59137 0.0
C764 C 0.11098 0.61509 0.61736 0.0
H765 H 0.18129 0.73404 0.67966 0.0
H766 H 0.1501 0.70334 0.64396 0.0
H767 H 0.17811 0.62031 0.6515 0.0
H768 H 0.08204 0.53252 0.57046 0.0
H769 H 0.11312 0.55977 0.61412 0.0
C770 C 0.20764 0.31405 0.36538 0.0
C771 C 0.20908 0.31546 0.31847 0.0
C772 C 0.19114 0.33224 0.38342 0.0
C773 C 0.13109 0.37726 0.35384 0.0
H774 H 0.15735 0.4101 0.46128 0.0
C775 C 0.06857 0.45994 0.42146 0.0
C776 C 0.06901 0.4599 0.46855 0.0
C777 C 0.08622 0.44307 0.40306 0.0
C778 C 0.14951 0.40087 0.43162 0.0
H779 H 0.19413 0.33721 0.25379 0.0
H780 H 0.16521 0.36882 0.28529 0.0
H781 H 0.1868 0.37921 0.42958 0.0
H782 H 0.08853 0.44194 0.53317 0.0
H783 H 0.11886 0.41211 0.50121 0.0
H784 H 0.09365 0.39838 0.35619 0.0
C785 C 0.17684 0.35356 0.30809 0.0
C786 C 0.16647 0.38319 0.41337 0.0
C787 C 0.19355 0.33553 0.29006 0.0
C788 C 0.08772 0.44266 0.49676 0.0
C789 C 0.10525 0.42561 0.47834 0.0
C790 C 0.11405 0.39476 0.37228 0.0
C791 C 0.17544 0.35215 0.355 0.0
C792 C 0.15748 0.37117 0.37423 0.0
C793 C 0.10469 0.42547 0.43119 0.0
C794 C 0.12299 0.40686 0.41144 0.0
H795 H 0.21931 0.29889 0.38835 0.0
H796 H 0.19033 0.3304 0.41964 0.0
H797 H 0.12338 0.36805 0.32406 0.0
H798 H 0.05456 0.47305 0.39862 0.0
H799 H 0.08547 0.44401 0.36663 0.0
C800 C 0.03939 0.03548 0.82165 0.0
C801 C 0.02661 0.01654 0.79541 0.0
C802 C 0.03475 0.03611 0.86691 0.0
C803 C 0.98688 0.01382 0.95009 0.0
H804 H 0.04728 0.02442 0.03851 0.0
C805 C 0.98009 0.99357 0.14242 0.0
C806 C 0.99336 0.01096 0.17115 0.0
C807 C 0.98344 0.99582 0.09634 0.0
C808 C 0.0301 0.02181 1.01422 0.0
H809 H 0.99893 0.98329 0.79676 0.0
H810 H 0.99083 0.9844 0.8755 0.0
H811 H 0.0544 0.02524 0.95898 0.0
H812 H 0.02028 0.04477 0.17316 0.0
H813 H 0.02617 0.04867 0.09271 0.0
H814 H 0.96262 0.01018 1.00538 0.0
C815 C 1.00419 0.99906 0.86088 0.0
C816 C 0.03418 0.02227 0.96852 0.0
C817 C 1.00884 0.99843 0.81561 0.0
C818 C 0.00997 0.03082 0.15228 0.0
C819 C 0.01337 0.03304 0.10609 0.0
C820 C 0.98279 0.01336 0.99577 0.0
C821 C 0.01718 0.01783 0.88724 0.0
C822 C 0.01266 0.0181 0.93583 0.0
C823 C 1.00023 0.01548 0.07752 0.0
C824 C 1.00438 0.01716 0.02854 0.0
H825 H 0.05285 0.05006 0.8071 0.0
H826 H 0.04477 0.05115 0.88584 0.0
H827 H 0.96972 0.01102 0.92585 0.0
H828 H 0.96761 0.97763 0.15572 0.0
H829 H 0.97338 0.98162 0.07566 0.0
C830 C 0.24417 0.75073 0.45599 0.0
C831 C 0.2505 0.77596 0.47107 0.0
C832 C 0.24522 0.74647 0.41059 0.0
C833 C 0.27449 0.77403 0.30602 0.0
H834 H 0.21984 0.73159 0.24642 0.0
C835 C 0.266 0.76631 0.1127 0.0
C836 C 0.25971 0.74104 0.09775 0.0
C837 C 0.26485 0.77067 0.15804 0.0
C838 C 0.23547 0.74325 0.26261 0.0
H839 H 0.26338 0.81635 0.4497 0.0
H840 H 0.26466 0.80911 0.37076 0.0
H841 H 0.218 0.73873 0.32538 0.0
H842 H 0.24679 0.70069 0.11924 0.0
H843 H 0.24533 0.70808 0.19807 0.0
H844 H 0.29197 0.77854 0.24325 0.0
C845 C 0.25909 0.79248 0.39408 0.0
C846 C 0.23441 0.74734 0.30804 0.0
C847 C 0.25799 0.79675 0.4394 0.0
C848 C 0.25214 0.72031 0.12946 0.0
C849 C 0.25095 0.72467 0.17471 0.0
C850 C 0.27555 0.76993 0.26059 0.0
C851 C 0.25272 0.76728 0.37895 0.0
C852 C 0.25391 0.76279 0.33046 0.0
C853 C 0.25729 0.74991 0.18973 0.0
C854 C 0.25606 0.75447 0.23818 0.0
H855 H 0.2381 0.73428 0.47918 0.0
H856 H 0.24045 0.7267 0.40042 0.0
H857 H 0.29013 0.78568 0.32221 0.0
H858 H 0.27214 0.7827 0.08948 0.0
H859 H 0.26961 0.79046 0.16812 0.0
C860 C 0.47442 0.01499 0.67012 0.0
C861 C 0.49682 0.01309 0.70316 0.0
C862 C 0.47782 0.01386 0.62456 0.0
C863 C 0.52847 0.02357 0.54268 0.0
H864 H 0.4787 0.98316 0.46878 0.0
C865 C 0.54681 1.00355 0.36148 0.0
C866 C 0.52446 1.00551 0.32835 0.0
C867 C 0.54333 1.00456 0.40703 0.0
C868 C 0.49259 0.9948 0.48879 0.0
H869 H 0.54041 1.00815 0.7139 0.0
H870 H 0.54635 1.00628 0.63434 0.0
H871 H 0.47307 0.98445 0.54853 0.0
H872 H 0.48086 0.01032 0.31745 0.0
H873 H 0.47478 0.01199 0.39702 0.0
H874 H 0.54798 0.03393 0.48296 0.0
C875 C 0.52614 0.00897 0.64372 0.0
C876 C 0.48937 0.99552 0.53456 0.0
C877 C 0.52274 0.01005 0.68936 0.0
C878 C 0.4985 0.00841 0.34206 0.0
C879 C 0.49501 0.00937 0.38771 0.0
C880 C 0.53168 0.02285 0.49693 0.0
C881 C 0.50372 0.01087 0.61074 0.0
C882 C 0.50727 0.00992 0.56209 0.0
C883 C 0.5174 1.00748 0.42076 0.0
C884 C 0.51379 0.00844 0.46939 0.0
H885 H 0.4542 0.01788 0.67932 0.0
H886 H 0.46014 0.01584 0.60003 0.0
H887 H 0.54236 0.03521 0.56269 0.0
H888 H 0.56705 1.00076 0.35235 0.0
H889 H 0.56098 1.00257 0.43163 0.0
C890 C 0.26267 0.24793 0.94144 0.0
C891 C 0.25501 0.27319 0.95393 0.0
C892 C 0.26364 0.24419 0.89588 0.0
C893 C 0.26809 0.28207 0.78324 0.0
H894 H 0.24238 0.21581 0.73835 0.0
C895 C 0.2553 0.26848 0.59221 0.0
C896 C 0.26303 0.24326 0.57971 0.0
C897 C 0.25431 0.27221 0.63777 0.0
C898 C 0.24992 0.23433 0.7504 0.0
H899 H 0.24169 0.31409 0.9278 0.0
H900 H 0.24349 0.30759 0.84871 0.0
H901 H 0.24083 0.22193 0.81782 0.0
H902 H 0.27645 0.20238 0.60582 0.0
H903 H 0.27461 0.20885 0.68492 0.0
H904 H 0.27718 0.29447 0.71581 0.0
C905 C 0.24922 0.29079 0.87415 0.0
C906 C 0.24905 0.23782 0.79604 0.0
C907 C 0.24821 0.29451 0.91962 0.0
C908 C 0.26987 0.22193 0.61401 0.0
C909 C 0.26884 0.22564 0.65948 0.0
C910 C 0.26896 0.27857 0.7376 0.0
C911 C 0.257 0.2656 0.86164 0.0
C912 C 0.25811 0.26175 0.81307 0.0
C913 C 0.26101 0.25081 0.67201 0.0
C914 C 0.2599 0.25465 0.72057 0.0
H915 H 0.26837 0.23114 0.96692 0.0
H916 H 0.27005 0.22461 0.88754 0.0
H917 H 0.27564 0.30058 0.79529 0.0
H918 H 0.24956 0.28527 0.56674 0.0
H919 H 0.24786 0.29177 0.64612 0.0
C920 C 0.73952 0.2891 0.91561 0.0
C921 C 0.7582 0.27545 0.94922 0.0
C922 C 0.73995 0.28504 0.87007 0.0
C923 C 0.78487 0.26124 0.79006 0.0
H924 H 0.71814 0.25788 0.71204 0.0
C925 C 0.78246 0.23141 0.60757 0.0
C926 C 0.76382 0.2451 0.57395 0.0
C927 C 0.78196 0.23537 0.65313 0.0
C928 C 0.73699 0.25911 0.73317 0.0
H929 H 0.79196 0.24669 0.96085 0.0
H930 H 0.79239 0.23923 0.88167 0.0
H931 H 0.71659 0.26365 0.79163 0.0
H932 H 0.73003 0.27384 0.56234 0.0
H933 H 0.72949 0.28114 0.64156 0.0
H934 H 0.80527 0.2567 0.73161 0.0
C935 C 0.77756 0.25334 0.89048 0.0
C936 C 0.7361 0.26239 0.77893 0.0
C937 C 0.77709 0.25736 0.93604 0.0
C938 C 0.74488 0.26314 0.58715 0.0
C939 C 0.74434 0.26706 0.63274 0.0
C940 C 0.78576 0.25795 0.74431 0.0
C941 C 0.7591 0.26726 0.8568 0.0
C942 C 0.76002 0.2635 0.80804 0.0
C943 C 0.76277 0.25312 0.66642 0.0
C944 C 0.76184 0.25684 0.71519 0.0
H945 H 0.72448 0.30296 0.92447 0.0
H946 H 0.72556 0.29629 0.84515 0.0
H947 H 0.80372 0.26247 0.81119 0.0
H948 H 0.79753 0.21758 0.5987 0.0
H949 H 0.79633 0.2241 0.67805 0.0
C950 C 0.73604 0.74779 0.43162 0.0
C951 C 0.75206 0.76572 0.45542 0.0
C952 C 0.73841 0.74571 0.38594 0.0
C953 C 0.78373 0.76084 0.29609 0.0
H954 H 0.71822 0.7557 0.21567 0.0
C955 C 0.78447 0.77009 0.10223 0.0
C956 C 0.7685 0.75216 0.07835 0.0
C957 C 0.78206 0.77211 0.14791 0.0
C958 C 0.73674 0.75683 0.2377 0.0
H959 H 0.7833 0.79539 0.44973 0.0
H960 H 0.78743 0.79181 0.37004 0.0
H961 H 0.71542 0.75784 0.29606 0.0
H962 H 0.73729 0.72245 0.08388 0.0
H963 H 0.73309 0.72593 0.16359 0.0
H964 H 0.80506 0.75983 0.23774 0.0
C965 C 0.77325 0.77907 0.38686 0.0
C966 C 0.73514 0.75804 0.28386 0.0
C967 C 0.77091 0.78112 0.43261 0.0
C968 C 0.74965 0.73672 0.10108 0.0
C969 C 0.74727 0.7387 0.14683 0.0
C970 C 0.78533 0.75964 0.24993 0.0
C971 C 0.75685 0.76153 0.36282 0.0
C972 C 0.75862 0.76005 0.31368 0.0
C973 C 0.76364 0.75623 0.17096 0.0
C974 C 0.76186 0.75764 0.22011 0.0
H975 H 0.72163 0.73531 0.44835 0.0
H976 H 0.72584 0.73159 0.36878 0.0
H977 H 0.80226 0.76197 0.31812 0.0
H978 H 0.79888 0.78261 0.08557 0.0
H979 H 0.7946 0.78623 0.16514 0.0
C980 C 0.50778 0.48671 0.7129 0.0
C981 C 0.48803 0.50377 0.72626 0.0
C982 C 0.51127 0.48626 0.66713 0.0
C983 C 0.49755 0.52659 0.55528 0.0
H984 H 0.51031 0.45824 0.50883 0.0
C985 C 0.49934 0.51905 0.36401 0.0
C986 C 0.51951 0.50228 0.35114 0.0
C987 C 0.49467 0.51861 0.40944 0.0
C988 C 0.50704 0.47754 0.52129 0.0
H989 H 0.45677 0.53411 0.70169 0.0
H990 H 0.46259 0.53307 0.622 0.0
H991 H 0.50428 0.45895 0.58856 0.0
H992 H 0.54999 0.47122 0.37615 0.0
H993 H 0.54219 0.47078 0.45528 0.0
H994 H 0.50045 0.54521 0.48815 0.0
C995 C 0.47553 0.52013 0.64692 0.0
C996 C 0.50359 0.47795 0.56708 0.0
C997 C 0.47198 0.52051 0.69265 0.0
C998 C 0.5345 0.48464 0.38483 0.0
C999 C 0.52982 0.48418 0.43023 0.0
C1000 C 0.50102 0.52619 0.50953 0.0
C1001 C 0.49517 0.50295 0.63352 0.0
C1002 C 0.49883 0.50248 0.58471 0.0
C1003 C 0.51003 0.50135 0.44323 0.0
C1004 C 0.50584 0.50166 0.49189 0.0
H1005 H 0.52033 0.47337 0.73779 0.0
H1006 H 0.52679 0.473 0.65811 0.0
H1007 H 0.49434 0.5459 0.56777 0.0
H1008 H 0.48757 0.53307 0.33911 0.0
H1009 H 0.47902 0.53185 0.41807 0.0
C1010 C 1.00181 0.49055 0.85275 0.0
C1011 C 0.02225 0.50502 0.83247 0.0
C1012 C 0.99862 0.4917 0.89846 0.0
C1013 C 0.01594 0.5321 0.99439 0.0
H1014 H 1.00193 0.46571 0.06753 0.0
C1015 C 0.01995 0.52608 0.18912 0.0
C1016 C 0.99955 0.51164 0.20953 0.0
C1017 C 0.02306 0.5249 0.14339 0.0
C1018 C 1.00556 0.48449 0.04753 0.0
H1019 H 0.05476 0.53275 0.84424 0.0
H1020 H 0.04945 0.53445 0.92394 0.0
H1021 H 1.0058 0.46504 0.9871 0.0
H1022 H 0.96701 0.48391 0.19799 0.0
H1023 H 0.97218 0.48214 0.11824 0.0
H1024 H 0.0157 0.55156 0.05482 0.0
C1025 C 0.03578 0.5223 0.90449 0.0
C1026 C 1.00774 0.48412 1.00134 0.0
C1027 C 0.03901 0.52111 0.85885 0.0
C1028 C 0.98274 0.49553 0.18327 0.0
C1029 C 0.98588 0.4943 0.1376 0.0
C1030 C 0.01376 0.53247 0.04058 0.0
C1031 C 0.01571 0.50741 0.92504 0.0
C1032 C 0.01297 0.50791 0.97414 0.0
C1033 C 1.00591 0.50918 0.11692 0.0
C1034 C 1.00856 0.50867 0.06779 0.0
H1035 H 0.98869 0.47777 0.83359 0.0
H1036 H 0.98272 0.48024 0.91299 0.0
H1037 H 0.01957 0.55088 0.97439 0.0
H1038 H 0.03311 0.53888 0.20817 0.0
H1039 H 0.03893 0.53634 0.12875 0.0
loop_
_geom_bond_atom_site_label_1
_geom_bond_atom_site_label_2
_geom_bond_distance
_geom_bond_site_symmetry_2
_ccdc_geom_bond_type
La0 C2 2.928 1_655 S
La0 O20 2.521 1_655 S
La0 O21 2.628 1_565 S
La0 O22 2.554 1_655 S
La0 O23 2.757 1_655 S
La0 O24 2.470 1_665 S
La0 O29 2.482 1_565 S
La0 O31 2.503 . S
La1 C11 2.928 1_455 S
La1 O23 2.482 1_545 S
La1 O25 2.503 . S
La1 O26 2.521 1_455 S
La1 O27 2.628 1_545 S
La1 O28 2.554 1_455 S
La1 O29 2.757 1_455 S
La1 O30 2.470 1_445 S
C2 La0 2.928 1_455 S
C2 C3 1.503 . S
C2 O20 1.261 . S
C2 O21 1.243 1_465 S
C3 C2 1.503 . S
C3 C4 1.394 . S
C3 C8 1.373 1_565 S
C4 C3 1.394 . S
C4 C5 1.380 . S
C4 H32 0.930 . S
C5 C4 1.380 . S
C5 C6 1.376 1_565 S
C5 H33 0.930 . S
C6 C5 1.376 1_545 S
C6 C7 1.370 . S
C7 C6 1.370 . S
C7 C8 1.396 . S
C7 H34 0.929 . S
C8 C3 1.373 1_545 S
C8 C7 1.396 . S
C8 H35 0.929 1_455 S
C9 O22 1.240 . S
C9 O23 1.289 . S
C10 O24 1.258 . S
C10 O25 1.256 . S
C11 La1 2.928 1_655 S
C11 C12 1.503 . S
C11 O26 1.261 . S
C11 O27 1.243 1_645 S
C12 C11 1.503 . S
C12 C13 1.394 . S
C12 C17 1.373 1_545 S
C13 C12 1.394 . S
C13 C14 1.380 . S
C13 H36 0.930 . S
C14 C13 1.380 . S
C14 C15 1.376 1_545 S
C14 H37 0.930 . S
C15 C14 1.376 1_565 S
C15 C16 1.370 . S
C16 C15 1.370 . S
C16 C17 1.396 . S
C16 H38 0.929 . S
C17 C12 1.373 1_565 S
C17 C16 1.396 . S
C17 H39 0.929 1_655 S
C18 O28 1.240 . S
C18 O29 1.289 . S
C19 O30 1.258 . S
C19 O31 1.256 . S
O20 La0 2.521 1_455 S
O20 C2 1.261 . S
O21 La0 2.628 1_545 S
O21 C2 1.243 1_645 S
O22 La0 2.554 1_455 S
O22 C9 1.240 . S
O23 La0 2.757 1_455 S
O23 La1 2.482 1_565 S
O23 C9 1.289 . S
O24 La0 2.470 1_445 S
O24 C10 1.258 . S
O25 La1 2.503 . S
O25 C10 1.256 . S
O26 La1 2.521 1_655 S
O26 C11 1.261 . S
O27 La1 2.628 1_565 S
O27 C11 1.243 1_465 S
O28 La1 2.554 1_655 S
O28 C18 1.240 . S
O29 La0 2.482 1_545 S
O29 La1 2.757 1_655 S
O29 C18 1.289 . S
O30 La1 2.470 1_665 S
O30 C19 1.258 . S
O31 La0 2.503 . S
O31 C19 1.256 . S
H32 C4 0.930 . S
H33 C5 0.930 . S
H34 C7 0.929 . S
H35 C8 0.929 1_655 S
H36 C13 0.930 . S
H37 C14 0.930 . S
H38 C16 0.929 . S
H39 C17 0.929 1_455 S
La40 C42 2.928 . S
La40 O60 2.521 . S
La40 O61 2.628 . S
La40 O62 2.554 . S
La40 O63 2.757 . S
La40 O64 2.470 . S
La40 O69 2.482 . S
La40 O71 2.503 . S
La41 C51 2.928 . S
La41 O63 2.482 . S
La41 O65 2.503 . S
La41 O66 2.521 . S
La41 O67 2.628 . S
La41 O68 2.554 . S
La41 O69 2.757 . S
La41 O70 2.470 . S
C42 La40 2.928 . S
C42 C43 1.503 . S
C42 O60 1.261 . S
C42 O61 1.243 . S
C43 C42 1.503 . S
C43 C44 1.394 . S
C43 C48 1.373 . S
C44 C43 1.394 . S
C44 C45 1.380 . S
C44 H72 0.930 . S
C45 C44 1.380 . S
C45 C46 1.376 1_556 S
C45 H73 0.930 1_556 S
C46 C45 1.376 1_554 S
C46 C47 1.370 . S
C47 C46 1.370 . S
C47 C48 1.396 1_554 S
C47 H74 0.929 . S
C48 C43 1.373 . S
C48 C47 1.396 1_556 S
C48 H75 0.929 . S
C49 O62 1.240 . S
C49 O63 1.289 . S
C50 O64 1.258 . S
C50 O65 1.256 . S
C51 La41 2.928 . S
C51 C52 1.503 . S
C51 O66 1.261 . S
C51 O67 1.243 . S
C52 C51 1.503 . S
C52 C53 1.394 . S
C52 C57 1.373 . S
C53 C52 1.394 . S
C53 C54 1.380 . S
C53 H76 0.930 . S
C54 C53 1.380 . S
C54 C55 1.376 . S
C54 H77 0.930 . S
C55 C54 1.376 . S
C55 C56 1.370 . S
C56 C55 1.370 . S
C56 C57 1.396 . S
C56 H78 0.929 . S
C57 C52 1.373 . S
C57 C56 1.396 . S
C57 H79 0.929 . S
C58 O68 1.240 . S
C58 O69 1.289 . S
C59 O70 1.258 . S
C59 O71 1.256 . S
O60 La40 2.521 . S
O60 C42 1.261 . S
O61 La40 2.628 . S
O61 C42 1.243 . S
O62 La40 2.554 . S
O62 C49 1.240 . S
O63 La40 2.757 . S
O63 La41 2.482 . S
O63 C49 1.289 . S
O64 La40 2.470 . S
O64 C50 1.258 . S
O65 La41 2.503 . S
O65 C50 1.256 . S
O66 La41 2.521 . S
O66 C51 1.261 . S
O67 La41 2.628 . S
O67 C51 1.243 . S
O68 La41 2.554 . S
O68 C58 1.240 . S
O69 La40 2.482 . S
O69 La41 2.757 . S
O69 C58 1.289 . S
O70 La41 2.470 . S
O70 C59 1.258 . S
O71 La40 2.503 . S
O71 C59 1.256 . S
H72 C44 0.930 . S
H73 C45 0.930 1_554 S
H74 C47 0.929 . S
H75 C48 0.929 . S
H76 C53 0.930 . S
H77 C54 0.930 . S
H78 C56 0.929 . S
H79 C57 0.929 . S
La80 C82 2.928 . S
La80 O100 2.521 . S
La80 O101 2.632 . S
La80 O102 2.554 . S
La80 O103 2.757 1_554 S
La80 O104 2.470 1_565 S
La80 O109 2.482 1_565 S
La80 O111 2.503 . S
La81 C91 2.928 . S
La81 O103 2.482 1_545 S
La81 O105 2.503 . S
La81 O106 2.521 . S
La81 O107 2.638 . S
La81 O108 2.554 . S
La81 O109 2.757 1_556 S
La81 O110 2.470 1_545 S
C82 La80 2.928 . S
C82 C83 1.503 . S
C82 O100 1.261 . S
C82 O101 1.247 . S
C83 C82 1.503 . S
C83 C84 1.394 . S
C83 C88 1.373 1_565 S
C84 C83 1.394 . S
C84 C85 1.380 . S
C84 H112 0.930 . S
C85 C84 1.380 . S
C85 C86 1.376 . S
C85 H113 0.930 . S
C86 C85 1.376 . S
C86 C87 1.370 1_565 S
C87 C86 1.370 1_545 S
C87 C88 1.396 . S
C87 H114 0.929 . S
C88 C83 1.373 1_545 S
C88 C87 1.396 . S
C88 H115 0.929 . S
C89 O102 1.240 1_556 S
C89 O103 1.289 . S
C90 O104 1.258 . S
C90 O105 1.256 1_554 S
C91 La81 2.928 . S
C91 C92 1.503 . S
C91 O106 1.261 . S
C91 O107 1.254 . S
C92 C91 1.503 . S
C92 C93 1.394 . S
C92 C97 1.373 1_545 S
C93 C92 1.394 . S
C93 C94 1.380 . S
C93 H116 0.930 . S
C94 C93 1.380 . S
C94 C95 1.376 . S
C94 H117 0.930 . S
C95 C94 1.376 . S
C95 C96 1.370 1_545 S
C96 C95 1.370 1_565 S
C96 C97 1.396 . S
C96 H118 0.929 . S
C97 C92 1.373 1_565 S
C97 C96 1.396 . S
C97 H119 0.929 . S
C98 O108 1.240 1_554 S
C98 O109 1.289 . S
C99 O110 1.258 . S
C99 O111 1.256 1_556 S
O100 La80 2.521 . S
O100 C82 1.261 . S
O101 La80 2.632 . S
O101 C82 1.247 . S
O102 La80 2.554 . S
O102 C89 1.240 1_554 S
O103 La80 2.757 1_556 S
O103 La81 2.482 1_565 S
O103 C89 1.289 . S
O104 La80 2.470 1_545 S
O104 C90 1.258 . S
O105 La81 2.503 . S
O105 C90 1.256 1_556 S
O106 La81 2.521 . S
O106 C91 1.261 . S
O107 La81 2.638 . S
O107 C91 1.254 . S
O108 La81 2.554 . S
O108 C98 1.240 1_556 S
O109 La80 2.482 1_545 S
O109 La81 2.757 1_554 S
O109 C98 1.289 . S
O110 La81 2.470 1_565 S
O110 C99 1.258 . S
O111 La80 2.503 . S
O111 C99 1.256 1_554 S
H112 C84 0.930 . S
H113 C85 0.930 . S
H114 C87 0.929 . S
H115 C88 0.929 . S
H116 C93 0.930 . S
H117 C94 0.930 . S
H118 C96 0.929 . S
H119 C97 0.929 . S
La120 C122 2.928 . S
La120 O140 2.521 . S
La120 O141 2.628 . S
La120 O142 2.554 . S
La120 O143 2.757 . S
La120 O144 2.470 . S
La120 O149 2.482 . S
La120 O151 2.503 . S
La121 C131 2.928 . S
La121 O143 2.482 . S
La121 O145 2.503 . S
La121 O146 2.521 . S
La121 O147 2.628 . S
La121 O148 2.554 . S
La121 O149 2.757 . S
La121 O150 2.470 . S
C122 La120 2.928 . S
C122 C123 1.503 . S
C122 O140 1.261 . S
C122 O141 1.243 . S
C123 C122 1.503 . S
C123 C124 1.394 . S
C123 C128 1.373 . S
C124 C123 1.394 . S
C124 C125 1.380 1_554 S
C124 H152 0.930 . S
C125 C124 1.380 1_556 S
C125 C126 1.376 . S
C125 H153 0.930 . S
C126 C125 1.376 . S
C126 C127 1.370 . S
C127 C126 1.370 . S
C127 C128 1.396 1_556 S
C127 H154 0.929 . S
C128 C123 1.373 . S
C128 C127 1.396 1_554 S
C128 H155 0.929 . S
C129 O142 1.240 . S
C129 O143 1.289 . S
C130 O144 1.258 . S
C130 O145 1.256 . S
C131 La121 2.928 . S
C131 C132 1.503 . S
C131 O146 1.261 . S
C131 O147 1.243 . S
C132 C131 1.503 . S
C132 C133 1.394 . S
C132 C137 1.373 . S
C133 C132 1.394 . S
C133 C134 1.380 . S
C133 H156 0.930 . S
C134 C133 1.380 . S
C134 C135 1.376 . S
C134 H157 0.930 . S
C135 C134 1.376 . S
C135 C136 1.370 . S
C136 C135 1.370 . S
C136 C137 1.396 . S
C136 H158 0.929 . S
C137 C132 1.373 . S
C137 C136 1.396 . S
C137 H159 0.929 . S
C138 O148 1.240 . S
C138 O149 1.289 . S
C139 O150 1.258 . S
C139 O151 1.256 . S
O140 La120 2.521 . S
O140 C122 1.261 . S
O141 La120 2.628 . S
O141 C122 1.243 . S
O142 La120 2.554 . S
O142 C129 1.240 . S
O143 La120 2.757 . S
O143 La121 2.482 . S
O143 C129 1.289 . S
O144 La120 2.470 . S
O144 C130 1.258 . S
O145 La121 2.503 . S
O145 C130 1.256 . S
O146 La121 2.521 . S
O146 C131 1.261 . S
O147 La121 2.628 . S
O147 C131 1.243 . S
O148 La121 2.554 . S
O148 C138 1.240 . S
O149 La120 2.482 . S
O149 La121 2.757 . S
O149 C138 1.289 . S
O150 La121 2.470 . S
O150 C139 1.258 . S
O151 La120 2.503 . S
O151 C139 1.256 . S
H152 C124 0.930 . S
H153 C125 0.930 . S
H154 C127 0.929 . S
H155 C128 0.929 . S
H156 C133 0.930 . S
H157 C134 0.930 . S
H158 C136 0.929 . S
H159 C137 0.929 . S
La160 C162 2.928 . S
La160 O180 2.521 . S
La160 O181 2.628 . S
La160 O182 2.554 . S
La160 O183 2.757 . S
La160 O184 2.470 . S
La160 O189 2.482 . S
La160 O191 2.503 . S
La161 C171 2.928 . S
La161 O183 2.482 . S
La161 O185 2.503 . S
La161 O186 2.521 . S
La161 O187 2.628 . S
La161 O188 2.554 . S
La161 O189 2.757 . S
La161 O190 2.470 . S
C162 La160 2.928 . S
C162 C163 1.503 . S
C162 O180 1.261 . S
C162 O181 1.243 . S
C163 C162 1.503 . S
C163 C164 1.394 . S
C163 C168 1.373 . S
C164 C163 1.394 . S
C164 C165 1.380 . S
C164 H192 0.930 . S
C165 C164 1.380 . S
C165 C166 1.376 . S
C165 H193 0.930 . S
C166 C165 1.376 . S
C166 C167 1.370 . S
C167 C166 1.370 . S
C167 C168 1.396 . S
C167 H194 0.929 . S
C168 C163 1.373 . S
C168 C167 1.396 . S
C168 H195 0.929 . S
C169 O182 1.240 . S
C169 O183 1.289 . S
C170 O184 1.258 . S
C170 O185 1.256 . S
C171 La161 2.928 . S
C171 C172 1.503 . S
C171 O186 1.261 . S
C171 O187 1.243 . S
C172 C171 1.503 . S
C172 C173 1.394 . S
C172 C177 1.373 . S
C173 C172 1.394 . S
C173 C174 1.380 . S
C173 H196 0.930 . S
C174 C173 1.380 . S
C174 C175 1.376 1_554 S
C174 H197 0.930 1_554 S
C175 C174 1.376 1_556 S
C175 C176 1.370 . S
C176 C175 1.370 . S
C176 C177 1.396 1_556 S
C176 H198 0.929 . S
C177 C172 1.373 . S
C177 C176 1.396 1_554 S
C177 H199 0.929 . S
C178 O188 1.240 . S
C178 O189 1.289 . S
C179 O190 1.258 . S
C179 O191 1.256 . S
O180 La160 2.521 . S
O180 C162 1.261 . S
O181 La160 2.628 . S
O181 C162 1.243 . S
O182 La160 2.554 . S
O182 C169 1.240 . S
O183 La160 2.757 . S
O183 La161 2.482 . S
O183 C169 1.289 . S
O184 La160 2.470 . S
O184 C170 1.258 . S
O185 La161 2.503 . S
O185 C170 1.256 . S
O186 La161 2.521 . S
O186 C171 1.261 . S
O187 La161 2.628 . S
O187 C171 1.243 . S
O188 La161 2.554 . S
O188 C178 1.240 . S
O189 La160 2.482 . S
O189 La161 2.757 . S
O189 C178 1.289 . S
O190 La161 2.470 . S
O190 C179 1.258 . S
O191 La160 2.503 . S
O191 C179 1.256 . S
H192 C164 0.930 . S
H193 C165 0.930 . S
H194 C167 0.929 . S
H195 C168 0.929 . S
H196 C173 0.930 . S
H197 C174 0.930 1_556 S
H198 C176 0.929 . S
H199 C177 0.929 . S
La200 C202 2.928 . S
La200 O220 2.521 . S
La200 O221 2.628 . S
La200 O222 2.554 . S
La200 O223 2.757 . S
La200 O224 2.470 . S
La200 O229 2.482 . S
La200 O231 2.503 . S
La201 C211 2.928 . S
La201 O223 2.482 . S
La201 O225 2.503 . S
La201 O226 2.521 . S
La201 O227 2.628 . S
La201 O228 2.554 . S
La201 O229 2.757 . S
La201 O230 2.470 . S
C202 La200 2.928 . S
C202 C203 1.503 . S
C202 O220 1.261 . S
C202 O221 1.243 . S
C203 C202 1.503 . S
C203 C204 1.394 . S
C203 C208 1.373 . S
C204 C203 1.394 . S
C204 C205 1.380 . S
C204 H232 0.930 . S
C205 C204 1.380 . S
C205 C206 1.376 . S
C205 H233 0.930 . S
C206 C205 1.376 . S
C206 C207 1.370 . S
C207 C206 1.370 . S
C207 C208 1.396 . S
C207 H234 0.929 . S
C208 C203 1.373 . S
C208 C207 1.396 . S
C208 H235 0.929 . S
C209 O222 1.240 . S
C209 O223 1.289 . S
C210 O224 1.258 . S
C210 O225 1.256 . S
C211 La201 2.928 . S
C211 C212 1.503 . S
C211 O226 1.261 . S
C211 O227 1.243 . S
C212 C211 1.503 . S
C212 C213 1.394 . S
C212 C217 1.373 . S
C213 C212 1.394 . S
C213 C214 1.380 1_556 S
C213 H236 0.930 . S
C214 C213 1.380 1_554 S
C214 C215 1.376 . S
C214 H237 0.930 . S
C215 C214 1.376 . S
C215 C216 1.370 . S
C216 C215 1.370 . S
C216 C217 1.396 1_554 S
C216 H238 0.929 . S
C217 C212 1.373 . S
C217 C216 1.396 1_556 S
C217 H239 0.929 . S
C218 O228 1.240 . S
C218 O229 1.289 . S
C219 O230 1.258 . S
C219 O231 1.256 . S
O220 La200 2.521 . S
O220 C202 1.261 . S
O221 La200 2.628 . S
O221 C202 1.243 . S
O222 La200 2.554 . S
O222 C209 1.240 . S
O223 La200 2.757 . S
O223 La201 2.482 . S
O223 C209 1.289 . S
O224 La200 2.470 . S
O224 C210 1.258 . S
O225 La201 2.503 . S
O225 C210 1.256 . S
O226 La201 2.521 . S
O226 C211 1.261 . S
O227 La201 2.628 . S
O227 C211 1.243 . S
O228 La201 2.554 . S
O228 C218 1.240 . S
O229 La200 2.482 . S
O229 La201 2.757 . S
O229 C218 1.289 . S
O230 La201 2.470 . S
O230 C219 1.258 . S
O231 La200 2.503 . S
O231 C219 1.256 . S
H232 C204 0.930 . S
H233 C205 0.930 . S
H234 C207 0.929 . S
H235 C208 0.929 . S
H236 C213 0.930 . S
H237 C214 0.930 . S
H238 C216 0.929 . S
H239 C217 0.929 . S
La240 C242 2.928 . S
La240 O260 2.521 . S
La240 O261 2.628 . S
La240 O262 2.554 . S
La240 O263 2.757 1_556 S
La240 O264 2.470 . S
La240 O269 2.482 . S
La240 O271 2.503 1_556 S
La241 C251 2.928 . S
La241 O263 2.482 . S
La241 O265 2.503 1_554 S
La241 O266 2.521 . S
La241 O267 2.628 . S
La241 O268 2.554 . S
La241 O269 2.757 1_554 S
La241 O270 2.470 . S
C242 La240 2.928 . S
C242 C243 1.503 . S
C242 O260 1.261 . S
C242 O261 1.243 . S
C243 C242 1.503 . S
C243 C244 1.394 . S
C243 C248 1.373 . S
C244 C243 1.394 . S
C244 C245 1.380 . S
C244 H272 0.930 . S
C245 C244 1.380 . S
C245 C246 1.376 . S
C245 H273 0.930 . S
C246 C245 1.376 . S
C246 C247 1.370 . S
C247 C246 1.370 . S
C247 C248 1.396 . S
C247 H274 0.929 . S
C248 C243 1.373 . S
C248 C247 1.396 . S
C248 H275 0.929 . S
C249 O262 1.240 1_554 S
C249 O263 1.289 . S
C250 O264 1.258 . S
C250 O265 1.256 . S
C251 La241 2.928 . S
C251 C252 1.503 . S
C251 O266 1.261 . S
C251 O267 1.243 . S
C252 C251 1.503 . S
C252 C253 1.394 . S
C252 C257 1.373 . S
C253 C252 1.394 . S
C253 C254 1.380 . S
C253 H276 0.930 . S
C254 C253 1.380 . S
C254 C255 1.376 . S
C254 H277 0.930 . S
C255 C254 1.376 . S
C255 C256 1.370 . S
C256 C255 1.370 . S
C256 C257 1.396 . S
C256 H278 0.929 . S
C257 C252 1.373 . S
C257 C256 1.396 . S
C257 H279 0.929 . S
C258 O268 1.240 1_556 S
C258 O269 1.289 . S
C259 O270 1.258 . S
C259 O271 1.256 . S
O260 La240 2.521 . S
O260 C242 1.261 . S
O261 La240 2.628 . S
O261 C242 1.243 . S
O262 La240 2.554 . S
O262 C249 1.240 1_556 S
O263 La240 2.757 1_554 S
O263 La241 2.482 . S
O263 C249 1.289 . S
O264 La240 2.470 . S
O264 C250 1.258 . S
O265 La241 2.503 1_556 S
O265 C250 1.256 . S
O266 La241 2.521 . S
O266 C251 1.261 . S
O267 La241 2.628 . S
O267 C251 1.243 . S
O268 La241 2.554 . S
O268 C258 1.240 1_554 S
O269 La240 2.482 . S
O269 La241 2.757 1_556 S
O269 C258 1.289 . S
O270 La241 2.470 . S
O270 C259 1.258 . S
O271 La240 2.503 1_554 S
O271 C259 1.256 . S
H272 C244 0.930 . S
H273 C245 0.930 . S
H274 C247 0.929 . S
H275 C248 0.929 . S
H276 C253 0.930 . S
H277 C254 0.930 . S
H278 C256 0.929 . S
H279 C257 0.929 . S
La280 C282 2.928 1_455 S
La280 O300 2.521 1_455 S
La280 O301 2.628 . S
La280 O302 2.554 1_455 S
La280 O303 2.757 1_455 S
La280 O304 2.470 1_455 S
La280 O309 2.482 . S
La280 O311 2.503 . S
La281 C291 2.928 1_655 S
La281 O303 2.482 . S
La281 O305 2.503 . S
La281 O306 2.521 1_655 S
La281 O307 2.628 . S
La281 O308 2.554 1_655 S
La281 O309 2.757 1_655 S
La281 O310 2.470 1_655 S
C282 La280 2.928 1_655 S
C282 C283 1.503 . S
C282 O300 1.261 . S
C282 O301 1.243 1_655 S
C283 C282 1.503 . S
C283 C284 1.394 . S
C283 C288 1.373 . S
C284 C283 1.394 . S
C284 C285 1.380 . S
C284 H312 0.930 . S
C285 C284 1.380 . S
C285 C286 1.376 . S
C285 H313 0.930 . S
C286 C285 1.376 . S
C286 C287 1.370 . S
C287 C286 1.370 . S
C287 C288 1.396 . S
C287 H314 0.929 . S
C288 C283 1.373 . S
C288 C287 1.396 . S
C288 H315 0.929 1_655 S
C289 O302 1.240 . S
C289 O303 1.289 . S
C290 O304 1.258 . S
C290 O305 1.256 . S
C291 La281 2.928 1_455 S
C291 C292 1.503 . S
C291 O306 1.261 . S
C291 O307 1.243 1_455 S
C292 C291 1.503 . S
C292 C293 1.394 . S
C292 C297 1.373 . S
C293 C292 1.394 . S
C293 C294 1.380 . S
C293 H316 0.930 . S
C294 C293 1.380 . S
C294 C295 1.376 . S
C294 H317 0.930 . S
C295 C294 1.376 . S
C295 C296 1.370 . S
C296 C295 1.370 . S
C296 C297 1.396 . S
C296 H318 0.929 . S
C297 C292 1.373 . S
C297 C296 1.396 . S
C297 H319 0.929 1_455 S
C298 O308 1.240 . S
C298 O309 1.289 . S
C299 O310 1.258 . S
C299 O311 1.256 . S
O300 La280 2.521 1_655 S
O300 C282 1.261 . S
O301 La280 2.628 . S
O301 C282 1.243 1_455 S
O302 La280 2.554 1_655 S
O302 C289 1.240 . S
O303 La280 2.757 1_655 S
O303 La281 2.482 . S
O303 C289 1.289 . S
O304 La280 2.470 1_655 S
O304 C290 1.258 . S
O305 La281 2.503 . S
O305 C290 1.256 . S
O306 La281 2.521 1_455 S
O306 C291 1.261 . S
O307 La281 2.628 . S
O307 C291 1.243 1_655 S
O308 La281 2.554 1_455 S
O308 C298 1.240 . S
O309 La280 2.482 . S
O309 La281 2.757 1_455 S
O309 C298 1.289 . S
O310 La281 2.470 1_455 S
O310 C299 1.258 . S
O311 La280 2.503 . S
O311 C299 1.256 . S
H312 C284 0.930 . S
H313 C285 0.930 . S
H314 C287 0.929 . S
H315 C288 0.929 1_455 S
H316 C293 0.930 . S
H317 C294 0.930 . S
H318 C296 0.929 . S
H319 C297 0.929 1_655 S
C320 C321 1.349 . S
C320 C322 1.327 . S
C320 H345 0.950 . S
C321 C320 1.349 . S
C321 C337 1.349 . S
C322 C320 1.327 . S
C322 C341 1.429 . S
C322 H346 0.950 . S
C323 C340 1.574 . S
C323 C342 1.368 . S
C323 H347 0.949 . S
H324 C328 0.949 . S
C325 C326 1.349 . S
C325 C327 1.327 . S
C325 H348 0.950 . S
C326 C325 1.349 . S
C326 C338 1.349 . S
C327 C325 1.327 . S
C327 C343 1.429 . S
C327 H349 0.950 . S
C328 H324 0.949 . S
C328 C336 1.574 . S
C328 C344 1.368 . S
H329 C337 0.950 . S
H330 C335 0.950 . S
H331 C336 0.949 . S
H332 C338 0.950 . S
H333 C339 0.950 . S
H334 C340 0.949 . S
C335 H330 0.950 . S
C335 C337 1.327 . S
C335 C341 1.429 . S
C336 C328 1.574 . S
C336 H331 0.949 . S
C336 C342 1.368 . S
C337 C321 1.349 . S
C337 H329 0.950 . S
C337 C335 1.327 . S
C338 C326 1.349 . S
C338 H332 0.950 . S
C338 C339 1.327 . S
C339 H333 0.950 . S
C339 C338 1.327 . S
C339 C343 1.429 . S
C340 C323 1.574 . S
C340 H334 0.949 . S
C340 C344 1.368 . S
C341 C322 1.429 . S
C341 C335 1.429 . S
C341 C342 1.523 . S
C342 C323 1.368 . S
C342 C336 1.368 . S
C342 C341 1.523 . S
C343 C327 1.429 . S
C343 C339 1.429 . S
C343 C344 1.523 . S
C344 C328 1.368 . S
C344 C340 1.368 . S
C344 C343 1.523 . S
H345 C320 0.950 . S
H346 C322 0.950 . S
H347 C323 0.949 . S
H348 C325 0.950 . S
H349 C327 0.950 . S
C350 C351 1.349 . S
C350 C352 1.327 . S
C350 H375 0.950 . S
C351 C350 1.349 . S
C351 C367 1.349 . S
C352 C350 1.327 . S
C352 C371 1.429 . S
C352 H376 0.950 . S
C353 C370 1.574 . S
C353 C372 1.368 . S
C353 H377 0.949 . S
H354 C358 0.949 . S
C355 C356 1.349 . S
C355 C357 1.327 . S
C355 H378 0.950 . S
C356 C355 1.349 . S
C356 C368 1.349 . S
C357 C355 1.327 . S
C357 C373 1.429 . S
C357 H379 0.950 . S
C358 H354 0.949 . S
C358 C366 1.574 . S
C358 C374 1.368 . S
H359 C367 0.950 . S
H360 C365 0.950 . S
H361 C366 0.949 . S
H362 C368 0.950 . S
H363 C369 0.950 . S
H364 C370 0.949 . S
C365 H360 0.950 . S
C365 C367 1.327 . S
C365 C371 1.429 . S
C366 C358 1.574 . S
C366 H361 0.949 . S
C366 C372 1.368 . S
C367 C351 1.349 . S
C367 H359 0.950 . S
C367 C365 1.327 . S
C368 C356 1.349 . S
C368 H362 0.950 . S
C368 C369 1.327 . S
C369 H363 0.950 . S
C369 C368 1.327 . S
C369 C373 1.429 . S
C370 C353 1.574 . S
C370 H364 0.949 . S
C370 C374 1.368 . S
C371 C352 1.429 . S
C371 C365 1.429 . S
C371 C372 1.523 . S
C372 C353 1.368 . S
C372 C366 1.368 . S
C372 C371 1.523 . S
C373 C357 1.429 . S
C373 C369 1.429 . S
C373 C374 1.523 . S
C374 C358 1.368 . S
C374 C370 1.368 . S
C374 C373 1.523 . S
H375 C350 0.950 . S
H376 C352 0.950 . S
H377 C353 0.949 . S
H378 C355 0.950 . S
H379 C357 0.950 . S
C380 C381 1.349 . S
C380 C382 1.327 . S
C380 H405 0.950 . S
C381 C380 1.349 . S
C381 C397 1.349 . S
C382 C380 1.327 . S
C382 C401 1.429 . S
C382 H406 0.950 . S
C383 C400 1.574 . S
C383 C402 1.368 . S
C383 H407 0.949 . S
H384 C388 0.949 . S
C385 C386 1.349 . S
C385 C387 1.327 . S
C385 H408 0.950 . S
C386 C385 1.349 . S
C386 C398 1.349 . S
C387 C385 1.327 . S
C387 C403 1.429 . S
C387 H409 0.950 . S
C388 H384 0.949 . S
C388 C396 1.574 . S
C388 C404 1.368 . S
H389 C397 0.950 . S
H390 C395 0.950 . S
H391 C396 0.949 . S
H392 C398 0.950 . S
H393 C399 0.950 . S
H394 C400 0.949 . S
C395 H390 0.950 . S
C395 C397 1.327 . S
C395 C401 1.429 . S
C396 C388 1.574 . S
C396 H391 0.949 . S
C396 C402 1.368 . S
C397 C381 1.349 . S
C397 H389 0.950 . S
C397 C395 1.327 . S
C398 C386 1.349 . S
C398 H392 0.950 . S
C398 C399 1.327 . S
C399 H393 0.950 . S
C399 C398 1.327 . S
C399 C403 1.429 . S
C400 C383 1.574 . S
C400 H394 0.949 . S
C400 C404 1.368 . S
C401 C382 1.429 . S
C401 C395 1.429 . S
C401 C402 1.523 . S
C402 C383 1.368 . S
C402 C396 1.368 . S
C402 C401 1.523 . S
C403 C387 1.429 . S
C403 C399 1.429 . S
C403 C404 1.523 . S
C404 C388 1.368 . S
C404 C400 1.368 . S
C404 C403 1.523 . S
H405 C380 0.950 . S
H406 C382 0.950 . S
H407 C383 0.949 . S
H408 C385 0.950 . S
H409 C387 0.950 . S
C410 C411 1.349 . S
C410 C412 1.327 . S
C410 H435 0.950 . S
C411 C410 1.349 . S
C411 C427 1.349 . S
C412 C410 1.327 . S
C412 C431 1.429 . S
C412 H436 0.950 . S
C413 C430 1.574 . S
C413 C432 1.368 . S
C413 H437 0.949 . S
H414 C418 0.949 . S
C415 C416 1.349 . S
C415 C417 1.327 . S
C415 H438 0.950 . S
C416 C415 1.349 . S
C416 C428 1.349 . S
C417 C415 1.327 . S
C417 C433 1.429 . S
C417 H439 0.950 . S
C418 H414 0.949 . S
C418 C426 1.574 . S
C418 C434 1.368 . S
H419 C427 0.950 . S
H420 C425 0.950 . S
H421 C426 0.949 . S
H422 C428 0.950 . S
H423 C429 0.950 . S
H424 C430 0.949 . S
C425 H420 0.950 . S
C425 C427 1.327 . S
C425 C431 1.429 . S
C426 C418 1.574 . S
C426 H421 0.949 . S
C426 C432 1.368 . S
C427 C411 1.349 . S
C427 H419 0.950 . S
C427 C425 1.327 . S
C428 C416 1.349 . S
C428 H422 0.950 . S
C428 C429 1.327 . S
C429 H423 0.950 . S
C429 C428 1.327 . S
C429 C433 1.429 . S
C430 C413 1.574 . S
C430 H424 0.949 . S
C430 C434 1.368 . S
C431 C412 1.429 . S
C431 C425 1.429 . S
C431 C432 1.523 . S
C432 C413 1.368 . S
C432 C426 1.368 . S
C432 C431 1.523 . S
C433 C417 1.429 . S
C433 C429 1.429 . S
C433 C434 1.523 . S
C434 C418 1.368 . S
C434 C430 1.368 . S
C434 C433 1.523 . S
H435 C410 0.950 . S
H436 C412 0.950 . S
H437 C413 0.949 . S
H438 C415 0.950 . S
H439 C417 0.950 . S
C440 C441 1.349 . S
C440 C442 1.327 . S
C440 H465 0.950 . S
C441 C440 1.349 . S
C441 C457 1.349 . S
C442 C440 1.327 . S
C442 C461 1.429 . S
C442 H466 0.950 . S
C443 C460 1.574 . S
C443 C462 1.368 . S
C443 H467 0.949 . S
H444 C448 0.949 . S
C445 C446 1.349 . S
C445 C447 1.327 . S
C445 H468 0.950 . S
C446 C445 1.349 . S
C446 C458 1.349 . S
C447 C445 1.327 . S
C447 C463 1.429 . S
C447 H469 0.950 . S
C448 H444 0.949 . S
C448 C456 1.574 . S
C448 C464 1.368 . S
H449 C457 0.950 . S
H450 C455 0.950 . S
H451 C456 0.949 . S
H452 C458 0.950 . S
H453 C459 0.950 . S
H454 C460 0.949 . S
C455 H450 0.950 . S
C455 C457 1.327 . S
C455 C461 1.429 . S
C456 C448 1.574 . S
C456 H451 0.949 . S
C456 C462 1.368 . S
C457 C441 1.349 . S
C457 H449 0.950 . S
C457 C455 1.327 . S
C458 C446 1.349 . S
C458 H452 0.950 . S
C458 C459 1.327 . S
C459 H453 0.950 . S
C459 C458 1.327 . S
C459 C463 1.429 . S
C460 C443 1.574 . S
C460 H454 0.949 . S
C460 C464 1.368 . S
C461 C442 1.429 . S
C461 C455 1.429 . S
C461 C462 1.523 . S
C462 C443 1.368 . S
C462 C456 1.368 . S
C462 C461 1.523 . S
C463 C447 1.429 . S
C463 C459 1.429 . S
C463 C464 1.523 . S
C464 C448 1.368 . S
C464 C460 1.368 . S
C464 C463 1.523 . S
H465 C440 0.950 . S
H466 C442 0.950 . S
H467 C443 0.949 . S
H468 C445 0.950 . S
H469 C447 0.950 . S
C470 C471 1.349 . S
C470 C472 1.327 . S
C470 H495 0.950 . S
C471 C470 1.349 . S
C471 C487 1.349 . S
C472 C470 1.327 . S
C472 C491 1.429 . S
C472 H496 0.950 . S
C473 C490 1.574 . S
C473 C492 1.368 . S
C473 H497 0.949 . S
H474 C478 0.949 . S
C475 C476 1.349 . S
C475 C477 1.327 . S
C475 H498 0.950 . S
C476 C475 1.349 . S
C476 C488 1.349 . S
C477 C475 1.327 . S
C477 C493 1.429 . S
C477 H499 0.950 . S
C478 H474 0.949 . S
C478 C486 1.574 . S
C478 C494 1.368 . S
H479 C487 0.950 . S
H480 C485 0.950 . S
H481 C486 0.949 . S
H482 C488 0.950 . S
H483 C489 0.950 . S
H484 C490 0.949 . S
C485 H480 0.950 . S
C485 C487 1.327 . S
C485 C491 1.429 . S
C486 C478 1.574 . S
C486 H481 0.949 . S
C486 C492 1.368 . S
C487 C471 1.349 . S
C487 H479 0.950 . S
C487 C485 1.327 . S
C488 C476 1.349 . S
C488 H482 0.950 . S
C488 C489 1.327 . S
C489 H483 0.950 . S
C489 C488 1.327 . S
C489 C493 1.429 . S
C490 C473 1.574 . S
C490 H484 0.949 . S
C490 C494 1.368 . S
C491 C472 1.429 . S
C491 C485 1.429 . S
C491 C492 1.523 . S
C492 C473 1.368 . S
C492 C486 1.368 . S
C492 C491 1.523 . S
C493 C477 1.429 . S
C493 C489 1.429 . S
C493 C494 1.523 . S
C494 C478 1.368 . S
C494 C490 1.368 . S
C494 C493 1.523 . S
H495 C470 0.950 . S
H496 C472 0.950 . S
H497 C473 0.949 . S
H498 C475 0.950 . S
H499 C477 0.950 . S
C500 C501 1.349 . S
C500 C502 1.327 . S
C500 H525 0.950 . S
C501 C500 1.349 . S
C501 C517 1.349 . S
C502 C500 1.327 . S
C502 C521 1.429 . S
C502 H526 0.950 . S
C503 C520 1.574 . S
C503 C522 1.368 . S
C503 H527 0.949 . S
H504 C508 0.949 . S
C505 C506 1.349 . S
C505 C507 1.327 . S
C505 H528 0.950 1_554 S
C506 C505 1.349 . S
C506 C518 1.349 . S
C507 C505 1.327 . S
C507 C523 1.429 . S
C507 H529 0.950 . S
C508 H504 0.949 . S
C508 C516 1.574 . S
C508 C524 1.368 . S
H509 C517 0.950 . S
H510 C515 0.950 . S
H511 C516 0.949 . S
H512 C518 0.950 . S
H513 C519 0.950 . S
H514 C520 0.949 . S
C515 H510 0.950 . S
C515 C517 1.327 . S
C515 C521 1.429 . S
C516 C508 1.574 . S
C516 H511 0.949 . S
C516 C522 1.368 . S
C517 C501 1.349 . S
C517 H509 0.950 . S
C517 C515 1.327 . S
C518 C506 1.349 . S
C518 H512 0.950 . S
C518 C519 1.327 . S
C519 H513 0.950 . S
C519 C518 1.327 . S
C519 C523 1.429 . S
C520 C503 1.574 . S
C520 H514 0.949 . S
C520 C524 1.368 . S
C521 C502 1.429 . S
C521 C515 1.429 . S
C521 C522 1.523 . S
C522 C503 1.368 . S
C522 C516 1.368 . S
C522 C521 1.523 . S
C523 C507 1.429 . S
C523 C519 1.429 . S
C523 C524 1.523 . S
C524 C508 1.368 . S
C524 C520 1.368 . S
C524 C523 1.523 . S
H525 C500 0.950 . S
H526 C502 0.950 . S
H527 C503 0.949 . S
H528 C505 0.950 1_556 S
H529 C507 0.950 . S
C530 C531 1.349 . S
C530 C532 1.327 . S
C530 H555 0.950 . S
C531 C530 1.349 . S
C531 C547 1.349 . S
C532 C530 1.327 . S
C532 C551 1.429 . S
C532 H556 0.950 . S
C533 C550 1.574 . S
C533 C552 1.368 . S
C533 H557 0.949 . S
H534 C538 0.949 . S
C535 C536 1.349 . S
C535 C537 1.327 . S
C535 H558 0.950 . S
C536 C535 1.349 . S
C536 C548 1.349 . S
C537 C535 1.327 . S
C537 C553 1.429 . S
C537 H559 0.950 . S
C538 H534 0.949 . S
C538 C546 1.574 . S
C538 C554 1.368 . S
H539 C547 0.950 . S
H540 C545 0.950 . S
H541 C546 0.949 . S
H542 C548 0.950 . S
H543 C549 0.950 . S
H544 C550 0.949 . S
C545 H540 0.950 . S
C545 C547 1.327 . S
C545 C551 1.429 . S
C546 C538 1.574 . S
C546 H541 0.949 . S
C546 C552 1.368 . S
C547 C531 1.349 . S
C547 H539 0.950 . S
C547 C545 1.327 . S
C548 C536 1.349 . S
C548 H542 0.950 . S
C548 C549 1.327 . S
C549 H543 0.950 . S
C549 C548 1.327 . S
C549 C553 1.429 . S
C550 C533 1.574 . S
C550 H544 0.949 . S
C550 C554 1.368 . S
C551 C532 1.429 . S
C551 C545 1.429 . S
C551 C552 1.523 . S
C552 C533 1.368 . S
C552 C546 1.368 . S
C552 C551 1.523 . S
C553 C537 1.429 . S
C553 C549 1.429 . S
C553 C554 1.523 . S
C554 C538 1.368 . S
C554 C550 1.368 . S
C554 C553 1.523 . S
H555 C530 0.950 . S
H556 C532 0.950 . S
H557 C533 0.949 . S
H558 C535 0.950 . S
H559 C537 0.950 . S
C560 C561 1.349 . S
C560 C562 1.327 . S
C560 H585 0.950 . S
C561 C560 1.349 . S
C561 C577 1.349 . S
C562 C560 1.327 . S
C562 C581 1.429 . S
C562 H586 0.950 . S
C563 C580 1.574 . S
C563 C582 1.368 . S
C563 H587 0.949 . S
H564 C568 0.949 . S
C565 C566 1.349 . S
C565 C567 1.327 . S
C565 H588 0.950 . S
C566 C565 1.349 . S
C566 C578 1.349 . S
C567 C565 1.327 . S
C567 C583 1.429 . S
C567 H589 0.950 . S
C568 H564 0.949 . S
C568 C576 1.574 . S
C568 C584 1.368 . S
H569 C577 0.950 . S
H570 C575 0.950 . S
H571 C576 0.949 . S
H572 C578 0.950 . S
H573 C579 0.950 . S
H574 C580 0.949 . S
C575 H570 0.950 . S
C575 C577 1.327 . S
C575 C581 1.429 . S
C576 C568 1.574 . S
C576 H571 0.949 . S
C576 C582 1.368 . S
C577 C561 1.349 . S
C577 H569 0.950 . S
C577 C575 1.327 . S
C578 C566 1.349 . S
C578 H572 0.950 . S
C578 C579 1.327 . S
C579 H573 0.950 . S
C579 C578 1.327 . S
C579 C583 1.429 . S
C580 C563 1.574 . S
C580 H574 0.949 . S
C580 C584 1.368 . S
C581 C562 1.429 . S
C581 C575 1.429 . S
C581 C582 1.523 . S
C582 C563 1.368 . S
C582 C576 1.368 . S
C582 C581 1.523 . S
C583 C567 1.429 . S
C583 C579 1.429 . S
C583 C584 1.523 . S
C584 C568 1.368 . S
C584 C580 1.368 . S
C584 C583 1.523 . S
H585 C560 0.950 . S
H586 C562 0.950 . S
H587 C563 0.949 . S
H588 C565 0.950 . S
H589 C567 0.950 . S
C590 C591 1.349 . S
C590 C592 1.327 . S
C590 H615 0.950 . S
C591 C590 1.349 . S
C591 C607 1.349 . S
C592 C590 1.327 . S
C592 C611 1.429 . S
C592 H616 0.950 . S
C593 C610 1.574 . S
C593 C612 1.368 . S
C593 H617 0.949 . S
H594 C598 0.949 . S
C595 C596 1.349 . S
C595 C597 1.327 . S
C595 H618 0.950 1_554 S
C596 C595 1.349 . S
C596 C608 1.349 . S
C597 C595 1.327 . S
C597 C613 1.429 . S
C597 H619 0.950 . S
C598 H594 0.949 . S
C598 C606 1.574 . S
C598 C614 1.368 . S
H599 C607 0.950 . S
H600 C605 0.950 . S
H601 C606 0.949 . S
H602 C608 0.950 . S
H603 C609 0.950 . S
H604 C610 0.949 . S
C605 H600 0.950 . S
C605 C607 1.327 . S
C605 C611 1.429 . S
C606 C598 1.574 . S
C606 H601 0.949 . S
C606 C612 1.368 . S
C607 C591 1.349 . S
C607 H599 0.950 . S
C607 C605 1.327 . S
C608 C596 1.349 . S
C608 H602 0.950 . S
C608 C609 1.327 . S
C609 H603 0.950 . S
C609 C608 1.327 . S
C609 C613 1.429 . S
C610 C593 1.574 . S
C610 H604 0.949 . S
C610 C614 1.368 . S
C611 C592 1.429 . S
C611 C605 1.429 . S
C611 C612 1.523 . S
C612 C593 1.368 . S
C612 C606 1.368 . S
C612 C611 1.523 . S
C613 C597 1.429 . S
C613 C609 1.429 . S
C613 C614 1.523 . S
C614 C598 1.368 . S
C614 C610 1.368 . S
C614 C613 1.523 . S
H615 C590 0.950 . S
H616 C592 0.950 . S
H617 C593 0.949 . S
H618 C595 0.950 1_556 S
H619 C597 0.950 . S
C620 C621 1.349 . S
C620 C622 1.327 . S
C620 H645 0.950 . S
C621 C620 1.349 . S
C621 C637 1.349 . S
C622 C620 1.327 . S
C622 C641 1.429 . S
C622 H646 0.950 . S
C623 C640 1.574 . S
C623 C642 1.368 . S
C623 H647 0.949 . S
H624 C628 0.949 . S
C625 C626 1.349 . S
C625 C627 1.327 . S
C625 H648 0.950 . S
C626 C625 1.349 . S
C626 C638 1.349 . S
C627 C625 1.327 . S
C627 C643 1.429 . S
C627 H649 0.950 . S
C628 H624 0.949 . S
C628 C636 1.574 . S
C628 C644 1.368 . S
H629 C637 0.950 . S
H630 C635 0.950 . S
H631 C636 0.949 . S
H632 C638 0.950 . S
H633 C639 0.950 . S
H634 C640 0.949 . S
C635 H630 0.950 . S
C635 C637 1.327 . S
C635 C641 1.429 . S
C636 C628 1.574 . S
C636 H631 0.949 . S
C636 C642 1.368 . S
C637 C621 1.349 . S
C637 H629 0.950 . S
C637 C635 1.327 . S
C638 C626 1.349 . S
C638 H632 0.950 . S
C638 C639 1.327 . S
C639 H633 0.950 . S
C639 C638 1.327 . S
C639 C643 1.429 . S
C640 C623 1.574 . S
C640 H634 0.949 . S
C640 C644 1.368 . S
C641 C622 1.429 . S
C641 C635 1.429 . S
C641 C642 1.523 . S
C642 C623 1.368 . S
C642 C636 1.368 . S
C642 C641 1.523 . S
C643 C627 1.429 . S
C643 C639 1.429 . S
C643 C644 1.523 . S
C644 C628 1.368 . S
C644 C640 1.368 . S
C644 C643 1.523 . S
H645 C620 0.950 . S
H646 C622 0.950 . S
H647 C623 0.949 . S
H648 C625 0.950 . S
H649 C627 0.950 . S
C650 C651 1.349 . S
C650 C652 1.327 . S
C650 H675 0.950 . S
C651 C650 1.349 . S
C651 C667 1.349 . S
C652 C650 1.327 . S
C652 C671 1.429 . S
C652 H676 0.950 . S
C653 C670 1.574 . S
C653 C672 1.368 . S
C653 H677 0.949 . S
H654 C658 0.949 . S
C655 C656 1.349 . S
C655 C657 1.327 . S
C655 H678 0.950 . S
C656 C655 1.349 . S
C656 C668 1.349 . S
C657 C655 1.327 . S
C657 C673 1.429 . S
C657 H679 0.950 . S
C658 H654 0.949 . S
C658 C666 1.574 . S
C658 C674 1.368 . S
H659 C667 0.950 . S
H660 C665 0.950 . S
H661 C666 0.949 . S
H662 C668 0.950 . S
H663 C669 0.950 . S
H664 C670 0.949 . S
C665 H660 0.950 . S
C665 C667 1.327 . S
C665 C671 1.429 . S
C666 C658 1.574 . S
C666 H661 0.949 . S
C666 C672 1.368 . S
C667 C651 1.349 . S
C667 H659 0.950 . S
C667 C665 1.327 . S
C668 C656 1.349 . S
C668 H662 0.950 . S
C668 C669 1.327 . S
C669 H663 0.950 . S
C669 C668 1.327 . S
C669 C673 1.429 . S
C670 C653 1.574 . S
C670 H664 0.949 . S
C670 C674 1.368 . S
C671 C652 1.429 . S
C671 C665 1.429 . S
C671 C672 1.523 . S
C672 C653 1.368 . S
C672 C666 1.368 . S
C672 C671 1.523 . S
C673 C657 1.429 . S
C673 C669 1.429 . S
C673 C674 1.523 . S
C674 C658 1.368 . S
C674 C670 1.368 . S
C674 C673 1.523 . S
H675 C650 0.950 . S
H676 C652 0.950 . S
H677 C653 0.949 . S
H678 C655 0.950 . S
H679 C657 0.950 . S
C680 C681 1.349 . S
C680 C682 1.327 . S
C680 H705 0.950 . S
C681 C680 1.349 . S
C681 C697 1.349 . S
C682 C680 1.327 . S
C682 C701 1.429 . S
C682 H706 0.950 . S
C683 C700 1.574 . S
C683 C702 1.368 . S
C683 H707 0.949 . S
H684 C688 0.949 . S
C685 C686 1.349 . S
C685 C687 1.327 . S
C685 H708 0.950 . S
C686 C685 1.349 . S
C686 C698 1.349 . S
C687 C685 1.327 . S
C687 C703 1.429 . S
C687 H709 0.950 . S
C688 H684 0.949 . S
C688 C696 1.574 . S
C688 C704 1.368 . S
H689 C697 0.950 . S
H690 C695 0.950 . S
H691 C696 0.949 . S
H692 C698 0.950 . S
H693 C699 0.950 . S
H694 C700 0.949 . S
C695 H690 0.950 . S
C695 C697 1.327 . S
C695 C701 1.429 . S
C696 C688 1.574 . S
C696 H691 0.949 . S
C696 C702 1.368 . S
C697 C681 1.349 . S
C697 H689 0.950 . S
C697 C695 1.327 . S
C698 C686 1.349 . S
C698 H692 0.950 . S
C698 C699 1.327 . S
C699 H693 0.950 . S
C699 C698 1.327 . S
C699 C703 1.429 . S
C700 C683 1.574 . S
C700 H694 0.949 . S
C700 C704 1.368 . S
C701 C682 1.429 . S
C701 C695 1.429 . S
C701 C702 1.523 . S
C702 C683 1.368 . S
C702 C696 1.368 . S
C702 C701 1.523 . S
C703 C687 1.429 . S
C703 C699 1.429 . S
C703 C704 1.523 . S
C704 C688 1.368 . S
C704 C700 1.368 . S
C704 C703 1.523 . S
H705 C680 0.950 . S
H706 C682 0.950 . S
H707 C683 0.949 . S
H708 C685 0.950 . S
H709 C687 0.950 . S
C710 C711 1.349 . S
C710 C712 1.327 . S
C710 H735 0.950 . S
C711 C710 1.349 . S
C711 C727 1.349 . S
C712 C710 1.327 . S
C712 C731 1.429 . S
C712 H736 0.950 . S
C713 C730 1.574 . S
C713 C732 1.368 . S
C713 H737 0.949 . S
H714 C718 0.949 . S
C715 C716 1.349 . S
C715 C717 1.327 . S
C715 H738 0.950 . S
C716 C715 1.349 . S
C716 C728 1.349 . S
C717 C715 1.327 . S
C717 C733 1.429 . S
C717 H739 0.950 . S
C718 H714 0.949 . S
C718 C726 1.574 . S
C718 C734 1.368 . S
H719 C727 0.950 1_554 S
H720 C725 0.950 . S
H721 C726 0.949 . S
H722 C728 0.950 . S
H723 C729 0.950 . S
H724 C730 0.949 . S
C725 H720 0.950 . S
C725 C727 1.327 . S
C725 C731 1.429 . S
C726 C718 1.574 . S
C726 H721 0.949 . S
C726 C732 1.368 . S
C727 C711 1.349 . S
C727 H719 0.950 1_556 S
C727 C725 1.327 . S
C728 C716 1.349 . S
C728 H722 0.950 . S
C728 C729 1.327 . S
C729 H723 0.950 . S
C729 C728 1.327 . S
C729 C733 1.429 . S
C730 C713 1.574 . S
C730 H724 0.949 . S
C730 C734 1.368 . S
C731 C712 1.429 . S
C731 C725 1.429 . S
C731 C732 1.523 . S
C732 C713 1.368 . S
C732 C726 1.368 . S
C732 C731 1.523 . S
C733 C717 1.429 . S
C733 C729 1.429 . S
C733 C734 1.523 . S
C734 C718 1.368 . S
C734 C730 1.368 . S
C734 C733 1.523 . S
H735 C710 0.950 . S
H736 C712 0.950 . S
H737 C713 0.949 . S
H738 C715 0.950 . S
H739 C717 0.950 . S
C740 C741 1.349 . S
C740 C742 1.327 . S
C740 H765 0.950 . S
C741 C740 1.349 . S
C741 C757 1.349 . S
C742 C740 1.327 . S
C742 C761 1.429 . S
C742 H766 0.950 . S
C743 C760 1.574 . S
C743 C762 1.368 . S
C743 H767 0.949 . S
H744 C748 0.949 . S
C745 C746 1.349 . S
C745 C747 1.327 . S
C745 H768 0.950 . S
C746 C745 1.349 . S
C746 C758 1.349 . S
C747 C745 1.327 . S
C747 C763 1.429 . S
C747 H769 0.950 . S
C748 H744 0.949 . S
C748 C756 1.574 . S
C748 C764 1.368 . S
H749 C757 0.950 . S
H750 C755 0.950 . S
H751 C756 0.949 . S
H752 C758 0.950 . S
H753 C759 0.950 . S
H754 C760 0.949 . S
C755 H750 0.950 . S
C755 C757 1.327 . S
C755 C761 1.429 . S
C756 C748 1.574 . S
C756 H751 0.949 . S
C756 C762 1.368 . S
C757 C741 1.349 . S
C757 H749 0.950 . S
C757 C755 1.327 . S
C758 C746 1.349 . S
C758 H752 0.950 . S
C758 C759 1.327 . S
C759 H753 0.950 . S
C759 C758 1.327 . S
C759 C763 1.429 . S
C760 C743 1.574 . S
C760 H754 0.949 . S
C760 C764 1.368 . S
C761 C742 1.429 . S
C761 C755 1.429 . S
C761 C762 1.523 . S
C762 C743 1.368 . S
C762 C756 1.368 . S
C762 C761 1.523 . S
C763 C747 1.429 . S
C763 C759 1.429 . S
C763 C764 1.523 . S
C764 C748 1.368 . S
C764 C760 1.368 . S
C764 C763 1.523 . S
H765 C740 0.950 . S
H766 C742 0.950 . S
H767 C743 0.949 . S
H768 C745 0.950 . S
H769 C747 0.950 . S
C770 C771 1.349 . S
C770 C772 1.327 . S
C770 H795 0.950 . S
C771 C770 1.349 . S
C771 C787 1.349 . S
C772 C770 1.327 . S
C772 C791 1.429 . S
C772 H796 0.950 . S
C773 C790 1.574 . S
C773 C792 1.368 . S
C773 H797 0.949 . S
H774 C778 0.949 . S
C775 C776 1.349 . S
C775 C777 1.327 . S
C775 H798 0.950 . S
C776 C775 1.349 . S
C776 C788 1.349 . S
C777 C775 1.327 . S
C777 C793 1.429 . S
C777 H799 0.950 . S
C778 H774 0.949 . S
C778 C786 1.574 . S
C778 C794 1.368 . S
H779 C787 0.950 . S
H780 C785 0.950 . S
H781 C786 0.949 . S
H782 C788 0.950 . S
H783 C789 0.950 . S
H784 C790 0.949 . S
C785 H780 0.950 . S
C785 C787 1.327 . S
C785 C791 1.429 . S
C786 C778 1.574 . S
C786 H781 0.949 . S
C786 C792 1.368 . S
C787 C771 1.349 . S
C787 H779 0.950 . S
C787 C785 1.327 . S
C788 C776 1.349 . S
C788 H782 0.950 . S
C788 C789 1.327 . S
C789 H783 0.950 . S
C789 C788 1.327 . S
C789 C793 1.429 . S
C790 C773 1.574 . S
C790 H784 0.949 . S
C790 C794 1.368 . S
C791 C772 1.429 . S
C791 C785 1.429 . S
C791 C792 1.523 . S
C792 C773 1.368 . S
C792 C786 1.368 . S
C792 C791 1.523 . S
C793 C777 1.429 . S
C793 C789 1.429 . S
C793 C794 1.523 . S
C794 C778 1.368 . S
C794 C790 1.368 . S
C794 C793 1.523 . S
H795 C770 0.950 . S
H796 C772 0.950 . S
H797 C773 0.949 . S
H798 C775 0.950 . S
H799 C777 0.950 . S
C800 C801 1.349 . S
C800 C802 1.327 1_655 S
C800 H825 0.950 1_655 S
C801 C800 1.349 . S
C801 C817 1.349 1_565 S
C802 C800 1.327 1_455 S
C802 C821 1.429 1_455 S
C802 H826 0.950 . S
C803 C820 1.574 1_556 S
C803 C822 1.368 1_545 S
C803 H827 0.949 . S
H804 C808 0.949 . S
C805 C806 1.349 . S
C805 C807 1.327 1_455 S
C805 H828 0.950 1_455 S
C806 C805 1.349 . S
C806 C818 1.349 1_545 S
C807 C805 1.327 1_655 S
C807 C823 1.429 1_655 S
C807 H829 0.950 . S
C808 H804 0.949 . S
C808 C816 1.574 1_554 S
C808 C824 1.368 1_565 S
H809 C817 0.950 . S
H810 C815 0.950 . S
H811 C816 0.949 . S
H812 C818 0.950 . S
H813 C819 0.950 . S
H814 C820 0.949 . S
C815 H810 0.950 . S
C815 C817 1.327 . S
C815 C821 1.429 1_545 S
C816 C808 1.574 1_556 S
C816 H811 0.949 . S
C816 C822 1.368 1_455 S
C817 C801 1.349 1_545 S
C817 H809 0.950 . S
C817 C815 1.327 . S
C818 C806 1.349 1_565 S
C818 H812 0.950 . S
C818 C819 1.327 . S
C819 H813 0.950 . S
C819 C818 1.327 . S
C819 C823 1.429 1_565 S
C820 C803 1.574 1_554 S
C820 H814 0.949 . S
C820 C824 1.368 1_655 S
C821 C802 1.429 1_655 S
C821 C815 1.429 1_565 S
C821 C822 1.523 . S
C822 C803 1.368 1_565 S
C822 C816 1.368 1_655 S
C822 C821 1.523 . S
C823 C807 1.429 1_455 S
C823 C819 1.429 1_545 S
C823 C824 1.523 . S
C824 C808 1.368 1_545 S
C824 C820 1.368 1_455 S
C824 C823 1.523 . S
H825 C800 0.950 1_455 S
H826 C802 0.950 . S
H827 C803 0.949 . S
H828 C805 0.950 1_655 S
H829 C807 0.950 . S
C830 C831 1.349 . S
C830 C832 1.327 . S
C830 H855 0.950 . S
C831 C830 1.349 . S
C831 C847 1.349 . S
C832 C830 1.327 . S
C832 C851 1.429 . S
C832 H856 0.950 . S
C833 C850 1.574 . S
C833 C852 1.368 . S
C833 H857 0.949 . S
H834 C838 0.949 . S
C835 C836 1.349 . S
C835 C837 1.327 . S
C835 H858 0.950 . S
C836 C835 1.349 . S
C836 C848 1.349 . S
C837 C835 1.327 . S
C837 C853 1.429 . S
C837 H859 0.950 . S
C838 H834 0.949 . S
C838 C846 1.574 . S
C838 C854 1.368 . S
H839 C847 0.950 . S
H840 C845 0.950 . S
H841 C846 0.949 . S
H842 C848 0.950 . S
H843 C849 0.950 . S
H844 C850 0.949 . S
C845 H840 0.950 . S
C845 C847 1.327 . S
C845 C851 1.429 . S
C846 C838 1.574 . S
C846 H841 0.949 . S
C846 C852 1.368 . S
C847 C831 1.349 . S
C847 H839 0.950 . S
C847 C845 1.327 . S
C848 C836 1.349 . S
C848 H842 0.950 . S
C848 C849 1.327 . S
C849 H843 0.950 . S
C849 C848 1.327 . S
C849 C853 1.429 . S
C850 C833 1.574 . S
C850 H844 0.949 . S
C850 C854 1.368 . S
C851 C832 1.429 . S
C851 C845 1.429 . S
C851 C852 1.523 . S
C852 C833 1.368 . S
C852 C846 1.368 . S
C852 C851 1.523 . S
C853 C837 1.429 . S
C853 C849 1.429 . S
C853 C854 1.523 . S
C854 C838 1.368 . S
C854 C850 1.368 . S
C854 C853 1.523 . S
H855 C830 0.950 . S
H856 C832 0.950 . S
H857 C833 0.949 . S
H858 C835 0.950 . S
H859 C837 0.950 . S
C860 C861 1.349 1_565 S
C860 C862 1.327 . S
C860 H885 0.950 . S
C861 C860 1.349 1_545 S
C861 C877 1.349 . S
C862 C860 1.327 . S
C862 C881 1.429 1_565 S
C862 H886 0.950 . S
C863 C880 1.574 . S
C863 C882 1.368 . S
C863 H887 0.949 . S
H864 C868 0.949 . S
C865 C866 1.349 1_545 S
C865 C867 1.327 . S
C865 H888 0.950 . S
C866 C865 1.349 1_565 S
C866 C878 1.349 . S
C867 C865 1.327 . S
C867 C883 1.429 1_545 S
C867 H889 0.950 . S
C868 H864 0.949 . S
C868 C876 1.574 . S
C868 C884 1.368 . S
H869 C877 0.950 . S
H870 C875 0.950 . S
H871 C876 0.949 . S
H872 C878 0.950 . S
H873 C879 0.950 . S
H874 C880 0.949 . S
C875 H870 0.950 . S
C875 C877 1.327 . S
C875 C881 1.429 . S
C876 C868 1.574 . S
C876 H871 0.949 . S
C876 C882 1.368 1_565 S
C877 C861 1.349 . S
C877 H869 0.950 . S
C877 C875 1.327 . S
C878 C866 1.349 . S
C878 H872 0.950 . S
C878 C879 1.327 . S
C879 H873 0.950 . S
C879 C878 1.327 . S
C879 C883 1.429 . S
C880 C863 1.574 . S
C880 H874 0.949 . S
C880 C884 1.368 1_545 S
C881 C862 1.429 1_545 S
C881 C875 1.429 . S
C881 C882 1.523 . S
C882 C863 1.368 . S
C882 C876 1.368 1_545 S
C882 C881 1.523 . S
C883 C867 1.429 1_565 S
C883 C879 1.429 . S
C883 C884 1.523 . S
C884 C868 1.368 . S
C884 C880 1.368 1_565 S
C884 C883 1.523 . S
H885 C860 0.950 . S
H886 C862 0.950 . S
H887 C863 0.949 . S
H888 C865 0.950 . S
H889 C867 0.950 . S
C890 C891 1.349 . S
C890 C892 1.327 . S
C890 H915 0.950 . S
C891 C890 1.349 . S
C891 C907 1.349 . S
C892 C890 1.327 . S
C892 C911 1.429 . S
C892 H916 0.950 . S
C893 C910 1.574 . S
C893 C912 1.368 . S
C893 H917 0.949 . S
H894 C898 0.949 . S
C895 C896 1.349 . S
C895 C897 1.327 . S
C895 H918 0.950 . S
C896 C895 1.349 . S
C896 C908 1.349 . S
C897 C895 1.327 . S
C897 C913 1.429 . S
C897 H919 0.950 . S
C898 H894 0.949 . S
C898 C906 1.574 . S
C898 C914 1.368 . S
H899 C907 0.950 . S
H900 C905 0.950 . S
H901 C906 0.949 . S
H902 C908 0.950 . S
H903 C909 0.950 . S
H904 C910 0.949 . S
C905 H900 0.950 . S
C905 C907 1.327 . S
C905 C911 1.429 . S
C906 C898 1.574 . S
C906 H901 0.949 . S
C906 C912 1.368 . S
C907 C891 1.349 . S
C907 H899 0.950 . S
C907 C905 1.327 . S
C908 C896 1.349 . S
C908 H902 0.950 . S
C908 C909 1.327 . S
C909 H903 0.950 . S
C909 C908 1.327 . S
C909 C913 1.429 . S
C910 C893 1.574 . S
C910 H904 0.949 . S
C910 C914 1.368 . S
C911 C892 1.429 . S
C911 C905 1.429 . S
C911 C912 1.523 . S
C912 C893 1.368 . S
C912 C906 1.368 . S
C912 C911 1.523 . S
C913 C897 1.429 . S
C913 C909 1.429 . S
C913 C914 1.523 . S
C914 C898 1.368 . S
C914 C910 1.368 . S
C914 C913 1.523 . S
H915 C890 0.950 . S
H916 C892 0.950 . S
H917 C893 0.949 . S
H918 C895 0.950 . S
H919 C897 0.950 . S
C920 C921 1.349 . S
C920 C922 1.327 . S
C920 H945 0.950 . S
C921 C920 1.349 . S
C921 C937 1.349 . S
C922 C920 1.327 . S
C922 C941 1.429 . S
C922 H946 0.950 . S
C923 C940 1.574 . S
C923 C942 1.368 . S
C923 H947 0.949 . S
H924 C928 0.949 . S
C925 C926 1.349 . S
C925 C927 1.327 . S
C925 H948 0.950 . S
C926 C925 1.349 . S
C926 C938 1.349 . S
C927 C925 1.327 . S
C927 C943 1.429 . S
C927 H949 0.950 . S
C928 H924 0.949 . S
C928 C936 1.574 . S
C928 C944 1.368 . S
H929 C937 0.950 . S
H930 C935 0.950 . S
H931 C936 0.949 . S
H932 C938 0.950 . S
H933 C939 0.950 . S
H934 C940 0.949 . S
C935 H930 0.950 . S
C935 C937 1.327 . S
C935 C941 1.429 . S
C936 C928 1.574 . S
C936 H931 0.949 . S
C936 C942 1.368 . S
C937 C921 1.349 . S
C937 H929 0.950 . S
C937 C935 1.327 . S
C938 C926 1.349 . S
C938 H932 0.950 . S
C938 C939 1.327 . S
C939 H933 0.950 . S
C939 C938 1.327 . S
C939 C943 1.429 . S
C940 C923 1.574 . S
C940 H934 0.949 . S
C940 C944 1.368 . S
C941 C922 1.429 . S
C941 C935 1.429 . S
C941 C942 1.523 . S
C942 C923 1.368 . S
C942 C936 1.368 . S
C942 C941 1.523 . S
C943 C927 1.429 . S
C943 C939 1.429 . S
C943 C944 1.523 . S
C944 C928 1.368 . S
C944 C940 1.368 . S
C944 C943 1.523 . S
H945 C920 0.950 . S
H946 C922 0.950 . S
H947 C923 0.949 . S
H948 C925 0.950 . S
H949 C927 0.950 . S
C950 C951 1.349 . S
C950 C952 1.327 . S
C950 H975 0.950 . S
C951 C950 1.349 . S
C951 C967 1.349 . S
C952 C950 1.327 . S
C952 C971 1.429 . S
C952 H976 0.950 . S
C953 C970 1.574 . S
C953 C972 1.368 . S
C953 H977 0.949 . S
H954 C958 0.949 . S
C955 C956 1.349 . S
C955 C957 1.327 . S
C955 H978 0.950 . S
C956 C955 1.349 . S
C956 C968 1.349 . S
C957 C955 1.327 . S
C957 C973 1.429 . S
C957 H979 0.950 . S
C958 H954 0.949 . S
C958 C966 1.574 . S
C958 C974 1.368 . S
H959 C967 0.950 . S
H960 C965 0.950 . S
H961 C966 0.949 . S
H962 C968 0.950 . S
H963 C969 0.950 . S
H964 C970 0.949 . S
C965 H960 0.950 . S
C965 C967 1.327 . S
C965 C971 1.429 . S
C966 C958 1.574 . S
C966 H961 0.949 . S
C966 C972 1.368 . S
C967 C951 1.349 . S
C967 H959 0.950 . S
C967 C965 1.327 . S
C968 C956 1.349 . S
C968 H962 0.950 . S
C968 C969 1.327 . S
C969 H963 0.950 . S
C969 C968 1.327 . S
C969 C973 1.429 . S
C970 C953 1.574 . S
C970 H964 0.949 . S
C970 C974 1.368 . S
C971 C952 1.429 . S
C971 C965 1.429 . S
C971 C972 1.523 . S
C972 C953 1.368 . S
C972 C966 1.368 . S
C972 C971 1.523 . S
C973 C957 1.429 . S
C973 C969 1.429 . S
C973 C974 1.523 . S
C974 C958 1.368 . S
C974 C970 1.368 . S
C974 C973 1.523 . S
H975 C950 0.950 . S
H976 C952 0.950 . S
H977 C953 0.949 . S
H978 C955 0.950 . S
H979 C957 0.950 . S
C980 C981 1.349 . S
C980 C982 1.327 . S
C980 H1005 0.950 . S
C981 C980 1.349 . S
C981 C997 1.349 . S
C982 C980 1.327 . S
C982 C1001 1.429 . S
C982 H1006 0.950 . S
C983 C1000 1.574 . S
C983 C1002 1.368 . S
C983 H1007 0.949 . S
H984 C988 0.949 . S
C985 C986 1.349 . S
C985 C987 1.327 . S
C985 H1008 0.950 . S
C986 C985 1.349 . S
C986 C998 1.349 . S
C987 C985 1.327 . S
C987 C1003 1.429 . S
C987 H1009 0.950 . S
C988 H984 0.949 . S
C988 C996 1.574 . S
C988 C1004 1.368 . S
H989 C997 0.950 . S
H990 C995 0.950 . S
H991 C996 0.949 . S
H992 C998 0.950 . S
H993 C999 0.950 . S
H994 C1000 0.949 . S
C995 H990 0.950 . S
C995 C997 1.327 . S
C995 C1001 1.429 . S
C996 C988 1.574 . S
C996 H991 0.949 . S
C996 C1002 1.368 . S
C997 C981 1.349 . S
C997 H989 0.950 . S
C997 C995 1.327 . S
C998 C986 1.349 . S
C998 H992 0.950 . S
C998 C999 1.327 . S
C999 H993 0.950 . S
C999 C998 1.327 . S
C999 C1003 1.429 . S
C1000 C983 1.574 . S
C1000 H994 0.949 . S
C1000 C1004 1.368 . S
C1001 C982 1.429 . S
C1001 C995 1.429 . S
C1001 C1002 1.523 . S
C1002 C983 1.368 . S
C1002 C996 1.368 . S
C1002 C1001 1.523 . S
C1003 C987 1.429 . S
C1003 C999 1.429 . S
C1003 C1004 1.523 . S
C1004 C988 1.368 . S
C1004 C1000 1.368 . S
C1004 C1003 1.523 . S
H1005 C980 0.950 . S
H1006 C982 0.950 . S
H1007 C983 0.949 . S
H1008 C985 0.950 . S
H1009 C987 0.950 . S
C1010 C1011 1.349 . S
C1010 C1012 1.327 1_655 S
C1010 H1035 0.950 1_655 S
C1011 C1010 1.349 . S
C1011 C1027 1.349 . S
C1012 C1010 1.327 1_455 S
C1012 C1031 1.420 1_455 S
C1012 H1036 0.959 . S
C1013 C1030 1.574 1_556 S
C1013 C1032 1.368 . S
C1013 H1037 0.949 . S
H1014 C1018 0.949 . S
C1015 C1016 1.349 . S
C1015 C1017 1.327 1_455 S
C1015 H1038 0.950 1_455 S
C1016 C1015 1.349 . S
C1016 C1028 1.349 . S
C1017 C1015 1.327 1_655 S
C1017 C1033 1.424 1_655 S
C1017 H1039 0.955 . S
C1018 H1014 0.949 . S
C1018 C1026 1.574 1_554 S
C1018 C1034 1.368 . S
H1019 C1027 0.950 . S
H1020 C1025 0.950 . S
H1021 C1026 0.949 . S
H1022 C1028 0.950 . S
H1023 C1029 0.950 . S
H1024 C1030 0.949 . S
C1025 H1020 0.950 . S
C1025 C1027 1.327 . S
C1025 C1031 1.429 . S
C1026 C1018 1.574 1_556 S
C1026 H1021 0.949 . S
C1026 C1032 1.368 1_455 S
C1027 C1011 1.349 . S
C1027 H1019 0.950 . S
C1027 C1025 1.327 . S
C1028 C1016 1.349 . S
C1028 H1022 0.950 . S
C1028 C1029 1.327 . S
C1029 H1023 0.950 . S
C1029 C1028 1.327 . S
C1029 C1033 1.429 . S
C1030 C1013 1.574 1_554 S
C1030 H1024 0.949 . S
C1030 C1034 1.368 1_655 S
C1031 C1012 1.420 1_655 S
C1031 C1025 1.429 . S
C1031 C1032 1.523 . S
C1032 C1013 1.368 . S
C1032 C1026 1.368 1_655 S
C1032 C1031 1.523 . S
C1033 C1017 1.424 1_455 S
C1033 C1029 1.429 . S
C1033 C1034 1.523 . S
C1034 C1018 1.368 . S
C1034 C1030 1.368 1_455 S
C1034 C1033 1.523 . S
H1035 C1010 0.950 1_455 S
H1036 C1012 0.959 . S
H1037 C1013 0.949 . S
H1038 C1015 0.950 1_655 S
H1039 C1017 0.955 . S
C321 C10 1.513 . S
C326 C129 1.497 . S
C351 C9 0.782 . S
C356 C49 0.783 . S
C381 C50 1.513 . S
C386 C89 1.507 . S
C411 C90 2.147 . S
C416 C130 2.143 . S
C441 C19 1.513 . S
C446 C218 1.509 . S
C471 C18 0.782 . S
C476 C178 0.780 . S
C501 C179 1.513 . S
C506 C98 1.499 . S
C531 C219 2.147 . S
C536 C99 2.152 . S
C561 C250 1.513 . S
C566 C209 1.504 . S
C591 C169 0.782 . S
C596 C249 0.780 . S
C621 C289 1.503 . S
C626 C170 1.516 . S
C651 C210 2.147 . S
C656 C290 2.150 . S
C681 C138 1.503 . S
C686 C259 1.511 . S
C711 C258 0.782 . S
C716 C58 0.783 . S
C741 C59 1.513 . S
C746 C298 1.500 . S
C771 C139 2.147 . S
C776 C299 2.144 . S
C801 C15 1.434 . S
C806 C6 1.434 . S
C831 C55 1.434 . S
C836 C46 1.434 . S
C861 C95 1.521 . S
C866 C86 1.521 . S
C891 C126 1.521 . S
C896 C135 1.521 . S
C921 C175 1.434 . S
C926 C166 1.434 . S
C951 C206 1.521 . S
C956 C215 1.521 . S
C981 C246 1.434 . S
C986 C255 1.434 . S
C1011 C286 1.521 . S
C1016 C295 1.521 . S
