# Generated by pormake.
# Topology vbm, (6)-cn, num edge types: 1
# Building blocks:
#     Node 0, Type 0, BuildingBlock: KUMBOL_clean_sbu_1, # of connection points: 6
#     Node 1, Type 0, BuildingBlock: KUMBOL_clean_sbu_1, # of connection points: 6
#     Node 2, Type 0, BuildingBlock: KUMBOL_clean_sbu_1, # of connection points: 6
#     Node 3, Type 0, BuildingBlock: KUMBOL_clean_sbu_1, # of connection points: 6
#     Node 4, Type 0, BuildingBlock: KUMBOL_clean_sbu_1, # of connection points: 6
#     Node 5, Type 0, BuildingBlock: KUMBOL_clean_sbu_1, # of connection points: 6
#     Node 6, Type 0, BuildingBlock: KUMBOL_clean_sbu_1, # of connection points: 6
#     Node 7, Type 0, BuildingBlock: KUMBOL_clean_sbu_1, # of connection points: 6
#     Node 8, Type 0, BuildingBlock: KUMBOL_clean_sbu_1, # of connection points: 6
#     Node 9, Type 0, BuildingBlock: KUMBOL_clean_sbu_1, # of connection points: 6
#     Node 10, Type 0, BuildingBlock: KUMBOL_clean_sbu_1, # of connection points: 6
#     Node 11, Type 0, BuildingBlock: KUMBOL_clean_sbu_1, # of connection points: 6
#     Node 12, Type 0, BuildingBlock: KUMBOL_clean_sbu_1, # of connection points: 6
#     Node 13, Type 0, BuildingBlock: KUMBOL_clean_sbu_1, # of connection points: 6
#     Node 14, Type 0, BuildingBlock: KUMBOL_clean_sbu_1, # of connection points: 6
#     Node 15, Type 0, BuildingBlock: KUMBOL_clean_sbu_1, # of connection points: 6
#     Edge 16, Type (0, 0), BuildingBlock: UVAHIK_clean_linker_0, # of connection points: 2
#     Edge 17, Type (0, 0), BuildingBlock: UVAHIK_clean_linker_0, # of connection points: 2
#     Edge 18, Type (0, 0), BuildingBlock: UVAHIK_clean_linker_0, # of connection points: 2
#     Edge 19, Type (0, 0), BuildingBlock: UVAHIK_clean_linker_0, # of connection points: 2
#     Edge 20, Type (0, 0), BuildingBlock: UVAHIK_clean_linker_0, # of connection points: 2
#     Edge 21, Type (0, 0), BuildingBlock: UVAHIK_clean_linker_0, # of connection points: 2
#     Edge 22, Type (0, 0), BuildingBlock: UVAHIK_clean_linker_0, # of connection points: 2
#     Edge 23, Type (0, 0), BuildingBlock: UVAHIK_clean_linker_0, # of connection points: 2
#     Edge 24, Type (0, 0), BuildingBlock: UVAHIK_clean_linker_0, # of connection points: 2
#     Edge 25, Type (0, 0), BuildingBlock: UVAHIK_clean_linker_0, # of connection points: 2
#     Edge 26, Type (0, 0), BuildingBlock: UVAHIK_clean_linker_0, # of connection points: 2
#     Edge 27, Type (0, 0), BuildingBlock: UVAHIK_clean_linker_0, # of connection points: 2
#     Edge 28, Type (0, 0), BuildingBlock: UVAHIK_clean_linker_0, # of connection points: 2
#     Edge 29, Type (0, 0), BuildingBlock: UVAHIK_clean_linker_0, # of connection points: 2
#     Edge 30, Type (0, 0), BuildingBlock: UVAHIK_clean_linker_0, # of connection points: 2
#     Edge 31, Type (0, 0), BuildingBlock: UVAHIK_clean_linker_0, # of connection points: 2
#     Edge 32, Type (0, 0), BuildingBlock: UVAHIK_clean_linker_0, # of connection points: 2
#     Edge 33, Type (0, 0), BuildingBlock: UVAHIK_clean_linker_0, # of connection points: 2
#     Edge 34, Type (0, 0), BuildingBlock: UVAHIK_clean_linker_0, # of connection points: 2
#     Edge 35, Type (0, 0), BuildingBlock: UVAHIK_clean_linker_0, # of connection points: 2
#     Edge 36, Type (0, 0), BuildingBlock: UVAHIK_clean_linker_0, # of connection points: 2
#     Edge 37, Type (0, 0), BuildingBlock: UVAHIK_clean_linker_0, # of connection points: 2
#     Edge 38, Type (0, 0), BuildingBlock: UVAHIK_clean_linker_0, # of connection points: 2
#     Edge 39, Type (0, 0), BuildingBlock: UVAHIK_clean_linker_0, # of connection points: 2
#     Edge 40, Type (0, 0), BuildingBlock: UVAHIK_clean_linker_0, # of connection points: 2
#     Edge 41, Type (0, 0), BuildingBlock: UVAHIK_clean_linker_0, # of connection points: 2
#     Edge 42, Type (0, 0), BuildingBlock: UVAHIK_clean_linker_0, # of connection points: 2
#     Edge 43, Type (0, 0), BuildingBlock: UVAHIK_clean_linker_0, # of connection points: 2
#     Edge 44, Type (0, 0), BuildingBlock: UVAHIK_clean_linker_0, # of connection points: 2
#     Edge 45, Type (0, 0), BuildingBlock: UVAHIK_clean_linker_0, # of connection points: 2
#     Edge 46, Type (0, 0), BuildingBlock: UVAHIK_clean_linker_0, # of connection points: 2
#     Edge 47, Type (0, 0), BuildingBlock: UVAHIK_clean_linker_0, # of connection points: 2
#     Edge 48, Type (0, 0), BuildingBlock: UVAHIK_clean_linker_0, # of connection points: 2
#     Edge 49, Type (0, 0), BuildingBlock: UVAHIK_clean_linker_0, # of connection points: 2
#     Edge 50, Type (0, 0), BuildingBlock: UVAHIK_clean_linker_0, # of connection points: 2
#     Edge 51, Type (0, 0), BuildingBlock: UVAHIK_clean_linker_0, # of connection points: 2
#     Edge 52, Type (0, 0), BuildingBlock: UVAHIK_clean_linker_0, # of connection points: 2
#     Edge 53, Type (0, 0), BuildingBlock: UVAHIK_clean_linker_0, # of connection points: 2
#     Edge 54, Type (0, 0), BuildingBlock: UVAHIK_clean_linker_0, # of connection points: 2
#     Edge 55, Type (0, 0), BuildingBlock: UVAHIK_clean_linker_0, # of connection points: 2
#     Edge 56, Type (0, 0), BuildingBlock: UVAHIK_clean_linker_0, # of connection points: 2
#     Edge 57, Type (0, 0), BuildingBlock: UVAHIK_clean_linker_0, # of connection points: 2
#     Edge 58, Type (0, 0), BuildingBlock: UVAHIK_clean_linker_0, # of connection points: 2
#     Edge 59, Type (0, 0), BuildingBlock: UVAHIK_clean_linker_0, # of connection points: 2
#     Edge 60, Type (0, 0), BuildingBlock: UVAHIK_clean_linker_0, # of connection points: 2
#     Edge 61, Type (0, 0), BuildingBlock: UVAHIK_clean_linker_0, # of connection points: 2
#     Edge 62, Type (0, 0), BuildingBlock: UVAHIK_clean_linker_0, # of connection points: 2
#     Edge 63, Type (0, 0), BuildingBlock: UVAHIK_clean_linker_0, # of connection points: 2
# Relax obj value: 0.080
# Max RMSD: 0.140
# Mean RMSD: 0.140
data_MOF--net-vbm--node1-KUMBOL_clean_sbu_1--edge1-UVAHIK_clean_linker_0
_symmetry_space_group_name_H-M    P1
_symmetry_Int_Tables_number       1
_symmetry_cell_setting            triclinic
loop_
_symmetry_equiv_pos_as_xyz
'x, y, z'
_cell_length_a     71.854106
_cell_length_b     29.616901
_cell_length_c     75.493624
_cell_angle_alpha  89.985718
_cell_angle_beta   89.982291
_cell_angle_gamma 89.986736
loop_
_atom_site_label
_atom_site_type_symbol
_atom_site_fract_x
_atom_site_fract_y
_atom_site_fract_z
_atom_type_partial_charge
C0 C 0.17683 0.03791 0.09194 0.0
C1 C 0.20516 0.03951 0.10947 0.0
C2 C 0.18559 0.04008 0.10833 0.0
C3 C 0.2158 0.03694 0.09389 0.0
C4 C 0.18745 0.03491 0.07629 0.0
C5 C 0.20698 0.03466 0.07735 0.0
N6 N 0.15793 0.03845 0.09133 0.0
C7 C 0.14873 0.03429 0.07561 0.0
C8 C 0.17811 0.03211 0.06004 0.0
C9 C 0.15867 0.03154 0.05972 0.0
Gd10 Gd 0.12032 0.16492 0.13519 0.0
Gd11 Gd 0.14262 0.04587 0.11855 0.0
N12 N 0.17491 0.044 0.12314 0.0
C13 C 0.21343 0.04166 0.12624 0.0
C14 C 0.18285 0.04445 0.13956 0.0
C15 C 0.20222 0.04379 0.14135 0.0
H16 H 0.17429 0.04611 0.15128 0.0
H17 H 0.20849 0.04499 0.15437 0.0
H18 H 0.10688 0.19903 0.09392 0.0
H19 H 0.13372 0.03262 0.07539 0.0
H20 H 0.07853 0.19897 0.07585 0.0
H21 H 0.22844 0.04138 0.12768 0.0
H22 H 0.23087 0.03661 0.09449 0.0
H23 H 0.10654 0.15151 0.17695 0.0
H24 H 0.18578 0.02987 0.04771 0.0
H25 H 0.15133 0.02874 0.04725 0.0
H26 H 0.03025 0.15965 0.11682 0.0
H27 H 0.21538 0.03252 0.06546 0.0
H28 H 0.04715 0.13991 0.17773 0.0
H29 H 0.07726 0.14044 0.19363 0.0
N30 N 0.09312 0.15657 0.15204 0.0
C31 C 0.07672 0.15789 0.1431 0.0
C32 C 0.09347 0.15126 0.16998 0.0
C33 C 0.05995 0.14498 0.1704 0.0
C34 C 0.07692 0.14514 0.17942 0.0
C35 C 0.05967 0.15161 0.15204 0.0
H36 H 0.02977 0.14628 0.14897 0.0
N37 N 0.09379 0.17091 0.11674 0.0
C38 C 0.07709 0.16459 0.12491 0.0
C39 C 0.06094 0.17688 0.09725 0.0
C40 C 0.06025 0.16642 0.1153 0.0
C41 C 0.09421 0.1864 0.09969 0.0
C42 C 0.07796 0.18805 0.08953 0.0
O43 O 0.16178 0.10714 0.11815 0.0
O44 O 0.15139 0.15886 0.13904 0.0
O45 O 0.12045 0.23514 0.12667 0.0
O46 O 0.12004 0.21965 0.15446 0.0
O47 O 0.13969 0.05505 0.14813 0.0
O48 O 0.13539 0.12965 0.15761 0.0
O49 O 0.10601 0.09749 0.14036 0.0
O50 O 0.11185 0.05846 0.11497 0.0
O51 O 0.13803 0.98626 0.13479 0.0
O52 O 0.14248 0.979 0.10665 0.0
O53 O 0.13246 0.15851 0.10732 0.0
O54 O 0.12421 0.08596 0.10055 0.0
C55 C 0.16439 0.14198 0.12871 0.0
C56 C 0.139 0.08643 0.16056 0.0
C57 C 0.13565 0.28633 0.14557 0.0
C58 C 0.1454 0.36562 0.14437 0.0
C59 C 0.16734 0.30698 0.15313 0.0
C60 C 0.1536 0.27415 0.15105 0.0
C61 C 0.16332 0.35233 0.14981 0.0
C62 C 0.13156 0.33214 0.14231 0.0
C63 C 0.12135 0.25136 0.14262 0.0
C64 C 0.04327 0.15901 0.12406 0.0
C65 C 0.04298 0.15164 0.14238 0.0
H66 H 0.04834 0.17858 0.0894 0.0
C67 C 0.10067 0.06905 0.12806 0.0
C68 C 0.12902 0.12667 0.09557 0.0
C69 C 0.1235 0.92457 0.12057 0.0
C70 C 0.11324 0.84581 0.12275 0.0
C71 C 0.09103 0.90565 0.11602 0.0
C72 C 0.1052 0.93776 0.11678 0.0
C73 C 0.09497 0.86007 0.11895 0.0
C74 C 0.1275 0.87861 0.12352 0.0
C75 C 0.13849 0.95846 0.1214 0.0
H76 H 0.18117 0.29724 0.15736 0.0
H77 H 0.15698 0.23925 0.15372 0.0
H78 H 0.17421 0.37712 0.15177 0.0
H79 H 0.11774 0.34152 0.13788 0.0
H80 H 0.07693 0.91611 0.11304 0.0
H81 H 0.10189 0.9728 0.11433 0.0
H82 H 0.08372 0.8359 0.11794 0.0
H83 H 0.14164 0.86857 0.12658 0.0
C84 C 0.81849 0.95746 0.11334 0.0
C85 C 0.80245 0.96612 0.14143 0.0
C86 C 0.81911 0.96508 0.13155 0.0
C87 C 0.78538 0.95792 0.13293 0.0
C88 C 0.80136 0.95004 0.10473 0.0
C89 C 0.78484 0.94994 0.11465 0.0
N90 N 0.83475 0.95565 0.10415 0.0
C91 C 0.83491 0.94944 0.08624 0.0
C92 C 0.8014 0.9424 0.08641 0.0
C93 C 0.81823 0.94243 0.07712 0.0
Gd94 Gd 0.88307 0.84418 0.1342 0.0
Gd95 Gd 0.86186 0.96767 0.12052 0.0
N96 N 0.8359 0.9721 0.13952 0.0
C97 C 0.80339 0.97615 0.15951 0.0
C98 C 0.83665 0.98575 0.15677 0.0
C99 C 0.82052 0.98683 0.16713 0.0
H100 H 0.84948 0.99727 0.16255 0.0
H101 H 0.82128 0.99672 0.18091 0.0
H102 H 0.91363 0.8285 0.10128 0.0
H103 H 0.84797 0.94925 0.07912 0.0
H104 H 0.9477 0.81933 0.09768 0.0
H105 H 0.7909 0.97727 0.16756 0.0
H106 H 0.77248 0.9582 0.14037 0.0
H107 H 0.87423 0.82818 0.17737 0.0
H108 H 0.78851 0.93653 0.07932 0.0
H109 H 0.81837 0.93685 0.06295 0.0
H110 H 0.971 0.81754 0.15735 0.0
H111 H 0.77155 0.94388 0.1083 0.0
H112 H 0.9264 0.81984 0.20464 0.0
H113 H 0.89196 0.82166 0.20533 0.0
N114 N 0.8984 0.83341 0.16129 0.0
C115 C 0.91725 0.83027 0.16052 0.0
C116 C 0.88926 0.82874 0.17702 0.0
C117 C 0.91869 0.82345 0.19238 0.0
C118 C 0.89926 0.82448 0.19283 0.0
C119 C 0.92794 0.82549 0.17607 0.0
H120 H 0.95586 0.81852 0.1866 0.0
N121 N 0.91503 0.83332 0.12935 0.0
C122 C 0.92581 0.82957 0.14406 0.0
C123 C 0.95318 0.82145 0.12575 0.0
C124 C 0.94524 0.82428 0.14266 0.0
C125 C 0.92249 0.82766 0.11284 0.0
C126 C 0.94172 0.8225 0.11078 0.0
O127 O 0.84814 0.89939 0.1152 0.0
O128 O 0.85357 0.86215 0.14078 0.0
O129 O 0.87229 0.78985 0.11777 0.0
O130 O 0.88378 0.7747 0.1435 0.0
O131 O 0.87538 0.9615 0.14741 0.0
O132 O 0.86859 0.88803 0.15465 0.0
O133 O 0.90479 0.89731 0.12864 0.0
O134 O 0.89301 0.97041 0.12499 0.0
O135 O 0.85729 0.03881 0.12655 0.0
O136 O 0.86376 0.01846 0.09986 0.0
O137 O 0.87948 0.85877 0.10469 0.0
O138 O 0.87955 0.93656 0.09935 0.0
C139 C 0.84225 0.87281 0.12792 0.0
C140 C 0.87427 0.92872 0.15911 0.0
C141 C 0.86066 0.7255 0.13268 0.0
C142 C 0.84974 0.64721 0.13239 0.0
C143 C 0.82908 0.708 0.14167 0.0
C144 C 0.84327 0.73944 0.139 0.0
C145 C 0.83224 0.66221 0.13837 0.0
C146 C 0.86391 0.67937 0.12949 0.0
C147 C 0.87558 0.7586 0.12952 0.0
C148 C 0.95602 0.82122 0.15813 0.0
C149 C 0.94739 0.82183 0.17479 0.0
H150 H 0.96807 0.81746 0.12411 0.0
C151 C 0.90676 0.94116 0.12673 0.0
C152 C 0.88163 0.89433 0.09423 0.0
C153 C 0.87569 0.08854 0.10955 0.0
C154 C 0.88418 0.16847 0.11191 0.0
C155 C 0.90765 0.11197 0.10471 0.0
C156 C 0.89427 0.078 0.1056 0.0
C157 C 0.90269 0.15683 0.10779 0.0
C158 C 0.87068 0.13384 0.1127 0.0
C159 C 0.86163 0.05226 0.11069 0.0
H160 H 0.81564 0.71909 0.14648 0.0
H161 H 0.84077 0.77454 0.14197 0.0
H162 H 0.82111 0.63842 0.1409 0.0
H163 H 0.87741 0.66863 0.12466 0.0
H164 H 0.92193 0.10351 0.10156 0.0
H165 H 0.89843 0.04347 0.10314 0.0
H166 H 0.91336 0.18251 0.10671 0.0
H167 H 0.85638 0.1419 0.11601 0.0
C168 C 0.18842 0.96104 0.37958 0.0
C169 C 0.20056 0.9744 0.35012 0.0
C170 C 0.18537 0.97018 0.36182 0.0
C171 C 0.21871 0.96672 0.35637 0.0
C172 C 0.20662 0.95507 0.3861 0.0
C173 C 0.22174 0.95708 0.37433 0.0
N174 N 0.17348 0.95805 0.39053 0.0
C175 C 0.17574 0.9531 0.40838 0.0
C176 C 0.20905 0.94768 0.40429 0.0
C177 C 0.19356 0.9473 0.41551 0.0
Gd178 Gd 0.12222 0.84096 0.3682 0.0
Gd179 Gd 0.14405 0.9653 0.37743 0.0
N180 N 0.16763 0.97744 0.35623 0.0
C181 C 0.1971 0.98768 0.33263 0.0
C182 C 0.16444 0.99467 0.33974 0.0
C183 C 0.17898 0.99883 0.32754 0.0
H184 H 0.15075 1.00616 0.33606 0.0
H185 H 0.17626 0.01133 0.31432 0.0
H186 H 0.09909 0.81698 0.40512 0.0
H187 H 0.16372 0.95249 0.417 0.0
H188 H 0.06635 0.81113 0.41531 0.0
H189 H 0.20838 0.99133 0.32321 0.0
H190 H 0.23054 0.96927 0.34752 0.0
H191 H 0.12026 0.83189 0.32346 0.0
H192 H 0.22282 0.94291 0.40982 0.0
H193 H 0.19532 0.94233 0.42961 0.0
H194 H 0.03041 0.8389 0.36269 0.0
H195 H 0.23583 0.95206 0.37903 0.0
H196 H 0.0635 0.84801 0.30766 0.0
H197 H 0.09677 0.8395 0.29988 0.0
N198 N 0.10085 0.8415 0.34444 0.0
C199 C 0.08255 0.84253 0.34895 0.0
C200 C 0.10593 0.83778 0.32706 0.0
C201 C 0.07383 0.8459 0.31808 0.0
C202 C 0.09259 0.84117 0.31364 0.0
C203 C 0.06853 0.84526 0.33592 0.0
H204 H 0.03878 0.84809 0.33127 0.0
N205 N 0.09166 0.8332 0.37865 0.0
C206 C 0.07779 0.83734 0.36658 0.0
C207 C 0.05487 0.82591 0.38956 0.0
C208 C 0.05898 0.83472 0.37175 0.0
C209 C 0.08784 0.82212 0.39583 0.0
C210 C 0.06938 0.81884 0.4016 0.0
O211 O 0.15991 0.89992 0.38253 0.0
O212 O 0.1515 0.85593 0.35927 0.0
O213 O 0.13255 0.78267 0.38259 0.0
O214 O 0.11881 0.77307 0.35754 0.0
O215 O 0.12976 0.95353 0.35117 0.0
O216 O 0.1357 0.8786 0.34508 0.0
O217 O 0.10473 0.89596 0.38096 0.0
O218 O 0.11418 0.96165 0.36773 0.0
O219 O 0.14854 0.03752 0.37382 0.0
O220 O 0.13664 0.01279 0.39815 0.0
O221 O 0.13226 0.85428 0.39643 0.0
O222 O 0.13065 0.93213 0.40106 0.0
C223 C 0.1642 0.87008 0.37037 0.0
C224 C 0.13213 0.92025 0.33985 0.0
C225 C 0.14183 0.71993 0.3656 0.0
C226 C 0.15192 0.64108 0.36443 0.0
C227 C 0.17282 0.70134 0.35514 0.0
C228 C 0.15914 0.73342 0.35889 0.0
C229 C 0.16929 0.65549 0.35794 0.0
C230 C 0.13819 0.67373 0.36821 0.0
C231 C 0.12772 0.75378 0.37047 0.0
C232 C 0.04496 0.84004 0.35896 0.0
C233 C 0.04973 0.8454 0.34107 0.0
H234 H 0.04059 0.8236 0.39407 0.0
C235 C 0.10097 0.93583 0.37428 0.0
C236 C 0.13117 0.89011 0.4069 0.0
C237 C 0.12571 0.083 0.38741 0.0
C238 C 0.11651 0.1622 0.38372 0.0
C239 C 0.093 0.10346 0.38707 0.0
C240 C 0.10686 0.07067 0.38827 0.0
C241 C 0.09773 0.14882 0.3849 0.0
C242 C 0.13047 0.12875 0.38506 0.0
C243 C 0.1404 0.04823 0.3886 0.0
H244 H 0.18619 0.71205 0.35005 0.0
H245 H 0.16207 0.76873 0.35666 0.0
H246 H 0.18007 0.63122 0.35477 0.0
H247 H 0.12483 0.66333 0.37349 0.0
H248 H 0.07851 0.09367 0.38787 0.0
H249 H 0.10282 0.03569 0.38992 0.0
H250 H 0.08662 0.17347 0.38434 0.0
H251 H 0.14502 0.13802 0.38401 0.0
C252 C 0.82102 0.0632 0.3895 0.0
C253 C 0.80297 0.05504 0.36254 0.0
C254 C 0.82032 0.05639 0.37125 0.0
C255 C 0.78653 0.06225 0.37223 0.0
C256 C 0.80455 0.06968 0.39931 0.0
C257 C 0.78732 0.06952 0.39055 0.0
N258 N 0.83794 0.06458 0.39759 0.0
C259 C 0.8394 0.07044 0.41545 0.0
C260 C 0.80593 0.07656 0.41762 0.0
C261 C 0.82342 0.07671 0.42573 0.0
Gd262 Gd 0.88563 0.17374 0.36408 0.0
Gd263 Gd 0.86387 0.05413 0.37931 0.0
N264 N 0.83652 0.05028 0.36212 0.0
C265 C 0.8026 0.04554 0.3444 0.0
C266 C 0.83602 0.03697 0.34482 0.0
C267 C 0.81917 0.03559 0.33559 0.0
H268 H 0.84842 0.0258 0.33814 0.0
H269 H 0.81894 0.02595 0.32176 0.0
H270 H 0.9135 0.17541 0.40002 0.0
H271 H 0.85292 0.07037 0.42171 0.0
H272 H 0.947 0.17788 0.40671 0.0
H273 H 0.78955 0.04415 0.33723 0.0
H274 H 0.77311 0.0617 0.36571 0.0
H275 H 0.88195 0.186 0.32017 0.0
H276 H 0.79358 0.08169 0.42562 0.0
H277 H 0.82459 0.08173 0.43989 0.0
H278 H 0.97619 0.1894 0.34968 0.0
H279 H 0.77451 0.07478 0.39784 0.0
H280 H 0.93688 0.19461 0.2984 0.0
H281 H 0.90273 0.19246 0.2942 0.0
N282 N 0.90413 0.18265 0.33872 0.0
C283 C 0.92283 0.1845 0.34135 0.0
C284 C 0.89685 0.18593 0.32208 0.0
C285 C 0.92783 0.19135 0.30981 0.0
C286 C 0.90857 0.19007 0.30738 0.0
C287 C 0.9352 0.1888 0.32695 0.0
H288 H 0.96418 0.19353 0.3192 0.0
N289 N 0.91727 0.17693 0.3721 0.0
C290 C 0.92962 0.18194 0.35854 0.0
C291 C 0.95519 0.18188 0.37931 0.0
C292 C 0.94892 0.18399 0.36178 0.0
C293 C 0.92327 0.17678 0.38925 0.0
C294 C 0.94229 0.17867 0.39309 0.0
O295 O 0.84894 0.12136 0.3839 0.0
O296 O 0.85547 0.15949 0.35862 0.0
O297 O 0.88065 0.23464 0.37956 0.0
O298 O 0.88299 0.23901 0.35114 0.0
O299 O 0.87582 0.05999 0.35166 0.0
O300 O 0.8695 0.13345 0.34374 0.0
O301 O 0.90507 0.11351 0.36263 0.0
O302 O 0.89529 0.05838 0.38241 0.0
O303 O 0.86484 0.98436 0.37034 0.0
O304 O 0.8629 0.99877 0.39825 0.0
O305 O 0.87966 0.16334 0.39365 0.0
O306 O 0.8818 0.08663 0.39992 0.0
C307 C 0.8439 0.14958 0.37139 0.0
C308 C 0.87371 0.09151 0.33953 0.0
C309 C 0.89348 0.30167 0.36762 0.0
C310 C 0.89713 0.38316 0.372 0.0
C311 C 0.92427 0.33533 0.36751 0.0
C312 C 0.91284 0.29755 0.36614 0.0
C313 C 0.91653 0.37782 0.37038 0.0
C314 C 0.88562 0.34464 0.37052 0.0
C315 C 0.88149 0.26143 0.36588 0.0
C316 C 0.9613 0.18801 0.34746 0.0
C317 C 0.95446 0.19036 0.3301 0.0
H318 H 0.96991 0.18325 0.38235 0.0
C319 C 0.90814 0.07757 0.37245 0.0
C320 C 0.88202 0.12927 0.4048 0.0
C321 C 0.84913 0.93089 0.388 0.0
C322 C 0.84165 0.85031 0.3868 0.0
C323 C 0.81746 0.90556 0.39309 0.0
C324 C 0.83045 0.9404 0.39186 0.0
C325 C 0.82297 0.86083 0.39055 0.0
C326 C 0.8547 0.88575 0.38555 0.0
C327 C 0.86289 0.96754 0.38614 0.0
H328 H 0.9392 0.33169 0.36623 0.0
H329 H 0.91916 0.26524 0.3638 0.0
H330 H 0.92576 0.40667 0.37106 0.0
H331 H 0.87066 0.34794 0.37177 0.0
H332 H 0.80308 0.91324 0.39609 0.0
H333 H 0.82588 0.97462 0.39398 0.0
H334 H 0.81264 0.83438 0.39183 0.0
H335 H 0.86912 0.87833 0.38246 0.0
C336 C 0.91791 0.83302 0.83871 0.0
C337 C 0.94588 0.82694 0.85659 0.0
C338 C 0.92645 0.83218 0.85519 0.0
C339 C 0.95669 0.82391 0.84113 0.0
C340 C 0.92863 0.82848 0.82317 0.0
C341 C 0.94808 0.8247 0.82446 0.0
N342 N 0.89907 0.83637 0.83791 0.0
C343 C 0.88997 0.83236 0.82214 0.0
C344 C 0.91943 0.82692 0.80683 0.0
C345 C 0.9 0.82833 0.80634 0.0
Gd346 Gd 0.86239 0.96995 0.87881 0.0
Gd347 Gd 0.8837 0.84657 0.86503 0.0
N348 N 0.91566 0.83606 0.86989 0.0
C349 C 0.95381 0.82428 0.87351 0.0
C350 C 0.92312 0.83074 0.88641 0.0
C351 C 0.94235 0.82557 0.88847 0.0
H352 H 0.91426 0.83173 0.89797 0.0
H353 H 0.94832 0.82259 0.90158 0.0
H354 H 0.85015 0.99966 0.83676 0.0
H355 H 0.87493 0.83217 0.82174 0.0
H356 H 0.82206 0.99871 0.81827 0.0
H357 H 0.9687 0.82032 0.87516 0.0
H358 H 0.97167 0.82025 0.84192 0.0
H359 H 0.84829 0.95203 0.92021 0.0
H360 H 0.92717 0.82352 0.79458 0.0
H361 H 0.89274 0.82599 0.79381 0.0
H362 H 0.77311 0.9598 0.85863 0.0
H363 H 0.95657 0.82152 0.81266 0.0
H364 H 0.78886 0.93889 0.91978 0.0
H365 H 0.81862 0.93961 0.93628 0.0
N366 N 0.8352 0.95812 0.89511 0.0
C367 C 0.81899 0.95966 0.88585 0.0
C368 C 0.83527 0.95208 0.91303 0.0
C369 C 0.80177 0.94479 0.91274 0.0
C370 C 0.81855 0.94505 0.9221 0.0
C371 C 0.80182 0.95221 0.8944 0.0
H372 H 0.77204 0.94577 0.89072 0.0
N373 N 0.83651 0.9741 0.85971 0.0
C374 C 0.81969 0.96704 0.86763 0.0
C375 C 0.80409 0.97789 0.83959 0.0
C376 C 0.80308 0.96792 0.85768 0.0
C377 C 0.83731 0.98788 0.84247 0.0
C378 C 0.82124 0.98878 0.83205 0.0
O379 O 0.9054 0.9001 0.87002 0.0
O380 O 0.89369 0.97242 0.87564 0.0
O381 O 0.85826 0.04104 0.8724 0.0
O382 O 0.86367 0.02116 0.89934 0.0
O383 O 0.88015 0.86091 0.89455 0.0
O384 O 0.87986 0.93865 0.90011 0.0
O385 O 0.84866 0.90172 0.88427 0.0
O386 O 0.8541 0.86426 0.85872 0.0
O387 O 0.87344 0.79166 0.88148 0.0
O388 O 0.88426 0.77741 0.85539 0.0
O389 O 0.87603 0.96362 0.85193 0.0
O390 O 0.86884 0.89037 0.8449 0.0
C391 C 0.9074 0.94355 0.873 0.0
C392 C 0.88209 0.89634 0.90511 0.0
C393 C 0.87617 0.09078 0.88981 0.0
C394 C 0.88497 0.17054 0.88764 0.0
C395 C 0.9081 0.1136 0.89528 0.0
C396 C 0.89462 0.0799 0.89415 0.0
C397 C 0.90335 0.15855 0.89209 0.0
C398 C 0.87137 0.13617 0.88658 0.0
C399 C 0.86204 0.05477 0.88835 0.0
C400 C 0.78598 0.95967 0.86612 0.0
C401 C 0.78535 0.95186 0.88441 0.0
H402 H 0.79165 0.97889 0.8315 0.0
C403 C 0.84283 0.87478 0.87164 0.0
C404 C 0.87471 0.93076 0.84029 0.0
C405 C 0.8615 0.7277 0.86655 0.0
C406 C 0.85065 0.64936 0.86698 0.0
C407 C 0.82984 0.71005 0.8579 0.0
C408 C 0.84403 0.74157 0.86042 0.0
C409 C 0.83308 0.66427 0.86117 0.0
C410 C 0.86482 0.6816 0.86973 0.0
C411 C 0.87646 0.76081 0.86949 0.0
H412 H 0.92228 0.10486 0.8987 0.0
H413 H 0.89861 0.0453 0.89673 0.0
H414 H 0.91407 0.18403 0.89336 0.0
H415 H 0.85717 0.14453 0.88301 0.0
H416 H 0.81634 0.72109 0.85323 0.0
H417 H 0.84148 0.77666 0.85748 0.0
H418 H 0.82193 0.64043 0.85876 0.0
H419 H 0.87838 0.67094 0.87443 0.0
C420 C 0.07748 0.16818 0.85705 0.0
C421 C 0.0595 0.17511 0.8841 0.0
C422 C 0.07684 0.17392 0.87531 0.0
C423 C 0.04302 0.16832 0.87445 0.0
C424 C 0.06095 0.16223 0.84726 0.0
C425 C 0.04374 0.16191 0.85608 0.0
N426 N 0.09436 0.16694 0.84894 0.0
C427 C 0.09572 0.16183 0.83104 0.0
C428 C 0.06225 0.15609 0.82891 0.0
C429 C 0.07971 0.15618 0.82076 0.0
Gd430 Gd 0.14266 0.05567 0.88371 0.0
Gd431 Gd 0.12054 0.17439 0.8672 0.0
N432 N 0.09308 0.17933 0.88438 0.0
C433 C 0.05921 0.18407 0.90228 0.0
C434 C 0.0926 0.19302 0.90165 0.0
C435 C 0.0758 0.19414 0.911 0.0
H436 H 0.10498 0.2047 0.90824 0.0
H437 H 0.07564 0.20376 0.92483 0.0
H438 H 0.17249 0.05574 0.84939 0.0
H439 H 0.10919 0.16197 0.82473 0.0
H440 H 0.20644 0.05529 0.84456 0.0
H441 H 0.04619 0.18525 0.90952 0.0
H442 H 0.02962 0.16853 0.88104 0.0
H443 H 0.13624 0.04565 0.92743 0.0
H444 H 0.04988 0.15132 0.82093 0.0
H445 H 0.08085 0.15174 0.80657 0.0
H446 H 0.23215 0.04863 0.90322 0.0
H447 H 0.03091 0.15686 0.84881 0.0
H448 H 0.18981 0.04398 0.95232 0.0
H449 H 0.15544 0.0433 0.95462 0.0
N450 N 0.15949 0.05018 0.91017 0.0
C451 C 0.17833 0.04941 0.90856 0.0
C452 C 0.15122 0.04719 0.92639 0.0
C453 C 0.18145 0.04554 0.9404 0.0
C454 C 0.16205 0.04525 0.94175 0.0
C455 C 0.18983 0.0473 0.92366 0.0
H456 H 0.21834 0.0456 0.93303 0.0
N457 N 0.17465 0.05445 0.87745 0.0
C458 C 0.18615 0.05098 0.89172 0.0
C459 C 0.21295 0.05261 0.8724 0.0
C460 C 0.20563 0.05068 0.88958 0.0
C461 C 0.18166 0.05475 0.86066 0.0
C462 C 0.2009 0.05431 0.85789 0.0
O463 O 0.10575 0.10766 0.86206 0.0
O464 O 0.11177 0.06748 0.88718 0.0
O465 O 0.13969 0.9941 0.86829 0.0
O466 O 0.14184 0.99024 0.89676 0.0
O467 O 0.13184 0.16767 0.89539 0.0
O468 O 0.12403 0.09453 0.90192 0.0
O469 O 0.16141 0.11782 0.88477 0.0
O470 O 0.15147 0.1671 0.86295 0.0
O471 O 0.12126 0.24389 0.87653 0.0
O472 O 0.12022 0.23053 0.84856 0.0
O473 O 0.13781 0.06366 0.85428 0.0
O474 O 0.13671 0.13922 0.84541 0.0
C475 C 0.10051 0.07875 0.87423 0.0
C476 C 0.12833 0.1355 0.907 0.0
C477 C 0.12408 0.93403 0.8825 0.0
C478 C 0.11386 0.85535 0.87985 0.0
C479 C 0.09145 0.91519 0.88598 0.0
C480 C 0.10566 0.94724 0.88571 0.0
C481 C 0.09547 0.86963 0.88311 0.0
C482 C 0.12815 0.8881 0.87959 0.0
C483 C 0.1391 0.96791 0.88216 0.0
C484 C 0.21714 0.04877 0.9046 0.0
C485 C 0.20927 0.04709 0.92158 0.0
H486 H 0.22785 0.05252 0.8702 0.0
C487 C 0.16429 0.15155 0.87373 0.0
C488 C 0.13863 0.09556 0.84208 0.0
C489 C 0.13633 0.29601 0.8579 0.0
C490 C 0.14619 0.37518 0.859 0.0
C491 C 0.16817 0.3162 0.85069 0.0
C492 C 0.15434 0.28355 0.85268 0.0
C493 C 0.16417 0.36165 0.85383 0.0
C494 C 0.13227 0.34189 0.86098 0.0
C495 C 0.12192 0.26126 0.86074 0.0
H496 H 0.07726 0.92567 0.88852 0.0
H497 H 0.10227 0.98226 0.88809 0.0
H498 H 0.08417 0.84549 0.88374 0.0
H499 H 0.14239 0.87806 0.87694 0.0
H500 H 0.18204 0.30625 0.84666 0.0
H501 H 0.15769 0.24857 0.85015 0.0
H502 H 0.17513 0.38631 0.85196 0.0
H503 H 0.1184 0.35148 0.8652 0.0
C504 C 0.92435 0.16938 0.65318 0.0
C505 C 0.94767 0.1716 0.62994 0.0
C506 C 0.92887 0.17095 0.63528 0.0
C507 C 0.9618 0.16948 0.64277 0.0
C508 C 0.93849 0.16782 0.66611 0.0
C509 C 0.95723 0.16759 0.66079 0.0
N510 N 0.90609 0.1687 0.65791 0.0
C511 C 0.901 0.16802 0.67531 0.0
C512 C 0.93336 0.16623 0.68399 0.0
C513 C 0.91453 0.16657 0.6886 0.0
Gd514 Gd 0.86239 0.0489 0.61925 0.0
Gd515 Gd 0.88435 0.16799 0.63475 0.0
N516 N 0.91483 0.17183 0.62314 0.0
C517 C 0.95172 0.17472 0.61186 0.0
C518 C 0.91877 0.17798 0.60562 0.0
C519 C 0.9372 0.17866 0.59968 0.0
H520 H 0.90787 0.18351 0.59613 0.0
H521 H 0.9402 0.18277 0.58573 0.0
H522 H 0.84467 0.02333 0.65994 0.0
H523 H 0.88647 0.16898 0.67895 0.0
H524 H 0.8143 0.02384 0.67474 0.0
H525 H 0.96599 0.17527 0.60721 0.0
H526 H 0.97632 0.16952 0.63888 0.0
H527 H 0.85377 0.06182 0.5762 0.0
H528 H 0.94381 0.16496 0.69432 0.0
H529 H 0.91042 0.16575 0.70239 0.0
H530 H 0.77091 0.05518 0.62812 0.0
H531 H 0.96829 0.1661 0.67053 0.0
H532 H 0.79474 0.07211 0.56917 0.0
H533 H 0.82652 0.07191 0.55652 0.0
N534 N 0.83747 0.05708 0.59957 0.0
C535 C 0.82012 0.05594 0.60678 0.0
C536 C 0.83993 0.06214 0.58177 0.0
C537 C 0.80662 0.0676 0.57783 0.0
C538 C 0.82455 0.06762 0.57064 0.0
C539 C 0.80421 0.06165 0.5961 0.0
H540 H 0.77412 0.06633 0.59598 0.0
N541 N 0.83407 0.04521 0.63502 0.0
C542 C 0.81839 0.05029 0.62503 0.0
C543 C 0.7992 0.0411 0.65106 0.0
C544 C 0.80057 0.04924 0.63286 0.0
C545 C 0.83263 0.03342 0.65246 0.0
C546 C 0.81528 0.03231 0.66082 0.0
O547 O 0.90177 0.10468 0.63813 0.0
O548 O 0.89369 0.05602 0.61561 0.0
O549 O 0.8645 0.98002 0.62909 0.0
O550 O 0.86192 0.99198 0.60104 0.0
O551 O 0.87711 0.15897 0.60536 0.0
O552 O 0.88048 0.08274 0.59901 0.0
O553 O 0.8469 0.11529 0.61473 0.0
O554 O 0.85378 0.15602 0.63945 0.0
O555 O 0.88031 0.2333 0.62203 0.0
O556 O 0.8827 0.22936 0.65045 0.0
O557 O 0.87281 0.05527 0.64746 0.0
O558 O 0.86744 0.12964 0.65516 0.0
C559 C 0.90601 0.07303 0.62667 0.0
C560 C 0.87988 0.12534 0.59409 0.0
C561 C 0.84913 0.92411 0.61234 0.0
C562 C 0.84254 0.84315 0.61443 0.0
C563 C 0.81769 0.8965 0.6079 0.0
C564 C 0.8303 0.93221 0.60866 0.0
C565 C 0.82371 0.85229 0.61076 0.0
C566 C 0.85521 0.8795 0.61518 0.0
C567 C 0.8625 0.96178 0.61353 0.0
C568 C 0.78469 0.05552 0.62228 0.0
C569 C 0.78651 0.0617 0.60396 0.0
H570 H 0.78576 0.03998 0.65757 0.0
C571 C 0.84208 0.1445 0.62697 0.0
C572 C 0.87052 0.08713 0.65946 0.0
C573 C 0.89407 0.29543 0.63667 0.0
C574 C 0.89888 0.37686 0.63325 0.0
C575 C 0.92502 0.32725 0.63975 0.0
C576 C 0.91316 0.29005 0.63987 0.0
C577 C 0.91798 0.37033 0.63648 0.0
C578 C 0.88694 0.33896 0.6334 0.0
C579 C 0.88156 0.25592 0.63678 0.0
H580 H 0.80318 0.90308 0.605 0.0
H581 H 0.82533 0.96602 0.60631 0.0
H582 H 0.81365 0.82517 0.60982 0.0
H583 H 0.86974 0.87324 0.61818 0.0
H584 H 0.93972 0.3227 0.64232 0.0
H585 H 0.9189 0.2572 0.64259 0.0
H586 H 0.92749 0.39869 0.63679 0.0
H587 H 0.87221 0.34318 0.63082 0.0
C588 C 0.07881 0.85694 0.64908 0.0
C589 C 0.05953 0.84787 0.62297 0.0
C590 C 0.07728 0.85062 0.6309 0.0
C591 C 0.04351 0.85354 0.63341 0.0
C592 C 0.06276 0.86164 0.65967 0.0
C593 C 0.04512 0.86035 0.6517 0.0
N594 N 0.09608 0.85916 0.65637 0.0
C595 C 0.09833 0.86446 0.67418 0.0
C596 C 0.06496 0.8679 0.67793 0.0
C597 C 0.08282 0.86905 0.68522 0.0
Gd598 Gd 0.1437 0.97193 0.62054 0.0
Gd599 Gd 0.12134 0.85342 0.63686 0.0
N600 N 0.09308 0.84593 0.62109 0.0
C601 C 0.0584 0.83839 0.60487 0.0
C602 C 0.0919 0.83223 0.60385 0.0
C603 C 0.07464 0.82954 0.59536 0.0
H604 H 0.10408 0.82191 0.59661 0.0
H605 H 0.07387 0.81977 0.58157 0.0
H606 H 0.1673 0.98503 0.65913 0.0
H607 H 0.11211 0.86498 0.67986 0.0
H608 H 0.19966 0.98303 0.66948 0.0
H609 H 0.04504 0.83599 0.59828 0.0
H610 H 0.02978 0.85205 0.62749 0.0
H611 H 0.14569 0.97045 0.57639 0.0
H612 H 0.05297 0.87169 0.68651 0.0
H613 H 0.08466 0.87352 0.69935 0.0
H614 H 0.23555 0.96668 0.61628 0.0
H615 H 0.03262 0.86433 0.65959 0.0
H616 H 0.20291 0.96146 0.56092 0.0
H617 H 0.16953 0.9642 0.55289 0.0
N618 N 0.16531 0.96908 0.59734 0.0
C619 C 0.18358 0.96887 0.60206 0.0
C620 C 0.16018 0.96817 0.57997 0.0
C621 C 0.19249 0.96381 0.57126 0.0
C622 C 0.17366 0.96522 0.56667 0.0
C623 C 0.19767 0.96588 0.58913 0.0
H624 H 0.22743 0.96237 0.58467 0.0
N625 N 0.17415 0.97311 0.63214 0.0
C626 C 0.18814 0.97098 0.61996 0.0
C627 C 0.21105 0.97406 0.64333 0.0
C628 C 0.20695 0.97065 0.62527 0.0
C629 C 0.17815 0.97907 0.64964 0.0
C630 C 0.1966 0.9789 0.65553 0.0
O631 O 0.10536 0.91881 0.64099 0.0
O632 O 0.11251 0.96291 0.61697 0.0
O633 O 0.14178 0.03846 0.63266 0.0
O634 O 0.14251 0.03233 0.6042 0.0
O635 O 0.13069 0.86097 0.60803 0.0
O636 O 0.12505 0.93579 0.60143 0.0
O637 O 0.1604 0.90678 0.61754 0.0
O638 O 0.15203 0.86396 0.64152 0.0
O639 O 0.12589 0.78503 0.62716 0.0
O640 O 0.12118 0.79631 0.65498 0.0
O641 O 0.13542 0.96588 0.64938 0.0
O642 O 0.13772 0.89067 0.65797 0.0
C643 C 0.10053 0.94804 0.62879 0.0
C644 C 0.12717 0.89354 0.59654 0.0
C645 C 0.15547 0.0985 0.61667 0.0
C646 C 0.16127 0.17982 0.61901 0.0
C647 C 0.18657 0.1281 0.612 0.0
C648 C 0.17434 0.09164 0.61278 0.0
C649 C 0.18014 0.17185 0.61508 0.0
C650 C 0.14896 0.14269 0.61974 0.0
C651 C 0.14252 0.0599 0.61761 0.0
C652 C 0.22103 0.96726 0.61242 0.0
C653 C 0.21641 0.96486 0.59441 0.0
H654 H 0.22533 0.97396 0.64795 0.0
C655 C 0.16423 0.87591 0.6295 0.0
C656 C 0.13722 0.93433 0.66162 0.0
C657 C 0.11036 0.72737 0.6429 0.0
C658 C 0.10492 0.64608 0.63967 0.0
C659 C 0.07926 0.69685 0.6466 0.0
C660 C 0.09137 0.7336 0.64644 0.0
C661 C 0.08593 0.65344 0.64326 0.0
C662 C 0.1171 0.68352 0.63954 0.0
C663 C 0.12317 0.76635 0.64254 0.0
H664 H 0.2011 0.12244 0.60892 0.0
H665 H 0.17962 0.05822 0.61026 0.0
H666 H 0.18992 0.19956 0.61411 0.0
H667 H 0.1344 0.14802 0.62287 0.0
H668 H 0.06464 0.702 0.64942 0.0
H669 H 0.08589 0.76676 0.64919 0.0
H670 H 0.07623 0.62548 0.64378 0.0
H671 H 0.13174 0.6787 0.63666 0.0
C672 C 0.68709 0.55568 0.1081 0.0
C673 C 0.70457 0.53859 0.13478 0.0
C674 C 0.68737 0.54409 0.12601 0.0
C675 C 0.72126 0.54673 0.12562 0.0
C676 C 0.70384 0.56299 0.0988 0.0
C677 C 0.7209 0.55887 0.10769 0.0
N678 N 0.67036 0.56132 0.09993 0.0
C679 C 0.66935 0.57164 0.08233 0.0
C680 C 0.70292 0.57465 0.08083 0.0
C681 C 0.6856 0.57869 0.07254 0.0
Gd682 Gd 0.62248 0.66595 0.13608 0.0
Gd683 Gd 0.64398 0.54825 0.11739 0.0
N684 N 0.67096 0.53683 0.13466 0.0
C685 C 0.70454 0.52385 0.15238 0.0
C686 C 0.67104 0.51815 0.15121 0.0
C687 C 0.68772 0.5127 0.1605 0.0
H688 H 0.65843 0.5059 0.15723 0.0
H689 H 0.68761 0.49894 0.17378 0.0
H690 H 0.59956 0.68909 0.09766 0.0
H691 H 0.65595 0.57463 0.07594 0.0
H692 H 0.56736 0.69282 0.08708 0.0
H693 H 0.71745 0.51919 0.15956 0.0
H694 H 0.73457 0.54303 0.13222 0.0
H695 H 0.61983 0.65691 0.18004 0.0
H696 H 0.71548 0.58052 0.07323 0.0
H697 H 0.68477 0.58736 0.05864 0.0
H698 H 0.53052 0.67299 0.13946 0.0
H699 H 0.7339 0.56471 0.1008 0.0
H700 H 0.56229 0.65465 0.19483 0.0
H701 H 0.59558 0.65088 0.20315 0.0
N702 N 0.60046 0.66255 0.15894 0.0
C703 C 0.58227 0.66581 0.15411 0.0
C704 C 0.60535 0.65786 0.17629 0.0
C705 C 0.57288 0.65712 0.18465 0.0
C706 C 0.59165 0.65486 0.1894 0.0
C707 C 0.56797 0.66282 0.16684 0.0
H708 H 0.53813 0.66274 0.17097 0.0
N709 N 0.59219 0.67337 0.12429 0.0
C710 C 0.57801 0.67143 0.13628 0.0
C711 C 0.55547 0.6812 0.11285 0.0
C712 C 0.55928 0.6745 0.13083 0.0
C713 C 0.58852 0.68281 0.10693 0.0
C714 C 0.57016 0.68604 0.10091 0.0
O715 O 0.65968 0.61488 0.11418 0.0
O716 O 0.653 0.65166 0.13989 0.0
O717 O 0.62564 0.73445 0.12581 0.0
O718 O 0.6257 0.72285 0.15398 0.0
O719 O 0.63334 0.54949 0.14562 0.0
O720 O 0.63934 0.62247 0.15497 0.0
O721 O 0.60455 0.60313 0.13833 0.0
O722 O 0.61248 0.55503 0.11542 0.0
O723 O 0.64329 0.47439 0.12213 0.0
O724 O 0.64374 0.50221 0.09535 0.0
O725 O 0.62987 0.66204 0.10657 0.0
O726 O 0.62514 0.58714 0.09937 0.0
C727 C 0.66444 0.64292 0.12686 0.0
C728 C 0.63591 0.5795 0.1583 0.0
C729 C 0.61297 0.79207 0.14399 0.0
C730 C 0.60641 0.87307 0.14129 0.0
C731 C 0.58332 0.82228 0.15392 0.0
C732 C 0.59531 0.78585 0.15155 0.0
C733 C 0.58877 0.86553 0.14883 0.0
C734 C 0.61855 0.83595 0.13896 0.0
C735 C 0.62556 0.75301 0.14145 0.0
C736 C 0.54498 0.67105 0.14345 0.0
C737 C 0.54931 0.66526 0.1614 0.0
H738 H 0.54127 0.68372 0.10813 0.0
C739 C 0.60026 0.57209 0.12661 0.0
C740 C 0.6269 0.62967 0.09483 0.0
C741 C 0.6439 0.42077 0.09694 0.0
C742 C 0.64024 0.33864 0.09809 0.0
C743 C 0.64785 0.37546 0.0703 0.0
C744 C 0.64776 0.4173 0.07871 0.0
C745 C 0.64403 0.33641 0.07988 0.0
C746 C 0.64029 0.38097 0.10671 0.0
C747 C 0.64367 0.46626 0.10517 0.0
H748 H 0.56976 0.81701 0.15981 0.0
H749 H 0.5908 0.75293 0.15582 0.0
H750 H 0.57923 0.89329 0.15105 0.0
H751 H 0.63215 0.84107 0.1331 0.0
H752 H 0.6508 0.37333 0.05626 0.0
H753 H 0.65073 0.44706 0.07085 0.0
H754 H 0.64403 0.30421 0.07306 0.0
H755 H 0.63725 0.38288 0.12075 0.0
C756 C 0.32718 0.47182 0.09251 0.0
C757 C 0.3006 0.47096 0.11241 0.0
C758 C 0.32 0.47084 0.10962 0.0
C759 C 0.28853 0.47217 0.09778 0.0
C760 C 0.3151 0.4731 0.0778 0.0
C761 C 0.29576 0.47325 0.08054 0.0
N762 N 0.34595 0.47093 0.09024 0.0
C763 C 0.35359 0.47292 0.07373 0.0
C764 C 0.32284 0.47402 0.06077 0.0
C765 C 0.34217 0.47413 0.05874 0.0
Gd766 Gd 0.3857 0.34858 0.13285 0.0
Gd767 Gd 0.36378 0.46707 0.11614 0.0
N768 N 0.33203 0.46798 0.12351 0.0
C769 C 0.29392 0.46951 0.12982 0.0
C770 C 0.32563 0.46819 0.14052 0.0
C771 C 0.30649 0.46847 0.14393 0.0
H772 H 0.33517 0.46806 0.1515 0.0
H773 H 0.30145 0.46796 0.15744 0.0
H774 H 0.40333 0.32195 0.09219 0.0
H775 H 0.36851 0.47431 0.07214 0.0
H776 H 0.43352 0.32367 0.07708 0.0
H777 H 0.27911 0.46948 0.13252 0.0
H778 H 0.27358 0.47218 0.09966 0.0
H779 H 0.39476 0.35827 0.17593 0.0
H780 H 0.31403 0.47496 0.04913 0.0
H781 H 0.34829 0.47538 0.04564 0.0
H782 H 0.47725 0.35336 0.12355 0.0
H783 H 0.28626 0.47413 0.06939 0.0
H784 H 0.45381 0.36684 0.18276 0.0
H785 H 0.4221 0.36664 0.19555 0.0
N786 N 0.41086 0.35425 0.15244 0.0
C787 C 0.42816 0.35299 0.14517 0.0
C788 C 0.40854 0.35849 0.17029 0.0
C789 C 0.44188 0.36295 0.17413 0.0
C790 C 0.42399 0.36301 0.1814 0.0
C791 C 0.44415 0.35789 0.15582 0.0
H792 H 0.47425 0.36246 0.1558 0.0
N793 N 0.41403 0.34429 0.11699 0.0
C794 C 0.42978 0.34849 0.12691 0.0
C795 C 0.44879 0.34052 0.10069 0.0
C796 C 0.44756 0.34773 0.11896 0.0
C797 C 0.41537 0.33253 0.09954 0.0
C798 C 0.43265 0.33185 0.09102 0.0
O799 O 0.34544 0.40427 0.1145 0.0
O800 O 0.35483 0.35713 0.13713 0.0
O801 O 0.38478 0.27983 0.12275 0.0
O802 O 0.38545 0.29121 0.15089 0.0
O803 O 0.36974 0.4599 0.14542 0.0
O804 O 0.36911 0.38442 0.1542 0.0
O805 O 0.40108 0.41463 0.13769 0.0
O806 O 0.39475 0.45573 0.1128 0.0
O807 O 0.36576 0.53002 0.13084 0.0
O808 O 0.36497 0.53136 0.10227 0.0
O809 O 0.37517 0.35534 0.1044 0.0
O810 O 0.38249 0.42888 0.09779 0.0
C811 C 0.34226 0.37138 0.12583 0.0
C812 C 0.36819 0.4282 0.15762 0.0
C813 C 0.36923 0.22682 0.14062 0.0
C814 C 0.35927 0.14779 0.13908 0.0
C815 C 0.3371 0.20697 0.14666 0.0
C816 C 0.35106 0.23946 0.14521 0.0
C817 C 0.34112 0.1615 0.14361 0.0
C818 C 0.37332 0.18093 0.13763 0.0
C819 C 0.38382 0.26138 0.13835 0.0
C820 C 0.46351 0.35332 0.12948 0.0
C821 C 0.46182 0.35831 0.14786 0.0
H822 H 0.46218 0.33973 0.09408 0.0
C823 C 0.40615 0.44386 0.12557 0.0
C824 C 0.3787 0.38752 0.09279 0.0
C825 C 0.38196 0.58895 0.11655 0.0
C826 C 0.39208 0.66767 0.11928 0.0
C827 C 0.41466 0.60787 0.11377 0.0
C828 C 0.40047 0.57577 0.11379 0.0
C829 C 0.41055 0.65343 0.11647 0.0
C830 C 0.37779 0.63489 0.11928 0.0
C831 C 0.36697 0.55499 0.11667 0.0
H832 H 0.3231 0.21706 0.1502 0.0
H833 H 0.34769 0.27445 0.14767 0.0
H834 H 0.33005 0.13695 0.14507 0.0
H835 H 0.38733 0.1712 0.1339 0.0
H836 H 0.42892 0.5974 0.11158 0.0
H837 H 0.40394 0.54073 0.11156 0.0
H838 H 0.42184 0.67761 0.11607 0.0
H839 H 0.36349 0.64492 0.1216 0.0
C840 C 0.6878 0.46102 0.37931 0.0
C841 C 0.70087 0.47429 0.35019 0.0
C842 C 0.68529 0.4697 0.36141 0.0
C843 C 0.71886 0.46809 0.35709 0.0
C844 C 0.70581 0.45609 0.38642 0.0
C845 C 0.72132 0.45904 0.37516 0.0
N846 N 0.6725 0.457 0.38978 0.0
C847 C 0.67419 0.45117 0.40766 0.0
C848 C 0.70767 0.44851 0.40466 0.0
C849 C 0.6918 0.4465 0.41534 0.0
Gd850 Gd 0.62105 0.34079 0.36649 0.0
Gd851 Gd 0.64351 0.46521 0.37587 0.0
N852 N 0.6677 0.47556 0.35515 0.0
C853 C 0.69795 0.48625 0.33248 0.0
C854 C 0.66495 0.49107 0.33832 0.0
C855 C 0.67992 0.49548 0.32661 0.0
H856 H 0.6513 0.50118 0.33392 0.0
H857 H 0.67757 0.50676 0.31315 0.0
H858 H 0.59867 0.31679 0.4038 0.0
H859 H 0.66191 0.44981 0.41591 0.0
H860 H 0.56618 0.31221 0.41477 0.0
H861 H 0.70954 0.49011 0.32342 0.0
H862 H 0.73098 0.4711 0.34863 0.0
H863 H 0.61769 0.33733 0.3217 0.0
H864 H 0.72129 0.4446 0.41063 0.0
H865 H 0.69312 0.44127 0.42947 0.0
H866 H 0.52905 0.34531 0.36339 0.0
H867 H 0.73528 0.45494 0.38034 0.0
H868 H 0.56068 0.35809 0.30769 0.0
H869 H 0.59364 0.3488 0.29891 0.0
N870 N 0.59898 0.3456 0.34335 0.0
C871 C 0.58081 0.34701 0.34833 0.0
C872 C 0.60352 0.34355 0.3258 0.0
C873 C 0.57127 0.35427 0.31779 0.0
C874 C 0.58985 0.34912 0.31279 0.0
C875 C 0.56647 0.3519 0.33573 0.0
H876 H 0.53663 0.35695 0.33191 0.0
N877 N 0.59067 0.33478 0.37766 0.0
C878 C 0.57649 0.3405 0.366 0.0
C879 C 0.55413 0.32894 0.38945 0.0
C880 C 0.55781 0.33861 0.37163 0.0
C881 C 0.58722 0.32312 0.39485 0.0
C882 C 0.5689 0.32052 0.40106 0.0
O883 O 0.65952 0.3999 0.38092 0.0
O884 O 0.65076 0.35394 0.35827 0.0
O885 O 0.62858 0.27854 0.38034 0.0
O886 O 0.61941 0.27602 0.35324 0.0
O887 O 0.62934 0.45311 0.34961 0.0
O888 O 0.63528 0.37812 0.34377 0.0
O889 O 0.60399 0.39633 0.37933 0.0
O890 O 0.61348 0.46235 0.36643 0.0
O891 O 0.64617 0.53675 0.37027 0.0
O892 O 0.63771 0.51545 0.39632 0.0
O893 O 0.63197 0.35378 0.3945 0.0
O894 O 0.62959 0.43164 0.39923 0.0
C895 C 0.6635 0.36854 0.36925 0.0
C896 C 0.63173 0.41961 0.33844 0.0
C897 C 0.61148 0.21402 0.37119 0.0
C898 C 0.60729 0.13385 0.37831 0.0
C899 C 0.58043 0.18205 0.37278 0.0
C900 C 0.59211 0.21876 0.3698 0.0
C901 C 0.5879 0.13992 0.37691 0.0
C902 C 0.61904 0.17149 0.37548 0.0
C903 C 0.6238 0.25264 0.36719 0.0
C904 C 0.5435 0.34583 0.35929 0.0
C905 C 0.54782 0.35259 0.34137 0.0
H906 H 0.53996 0.32714 0.39431 0.0
C907 C 0.60022 0.43591 0.37247 0.0
C908 C 0.63049 0.38952 0.40504 0.0
C909 C 0.65394 0.58537 0.39366 0.0
C910 C 0.66047 0.6659 0.3974 0.0
C911 C 0.68299 0.60969 0.40701 0.0
C912 C 0.67123 0.57516 0.40128 0.0
C913 C 0.67773 0.65478 0.40501 0.0
C914 C 0.64854 0.63085 0.39188 0.0
C915 C 0.64202 0.54955 0.38622 0.0
H916 H 0.56551 0.18607 0.37154 0.0
H917 H 0.58597 0.25056 0.36602 0.0
H918 H 0.57842 0.11181 0.37854 0.0
H919 H 0.63401 0.16778 0.3765 0.0
H920 H 0.69632 0.60147 0.41285 0.0
H921 H 0.6758 0.54072 0.40259 0.0
H922 H 0.68711 0.68101 0.4095 0.0
H923 H 0.63533 0.63896 0.38571 0.0
C924 C 0.32518 0.54867 0.40069 0.0
C925 C 0.30016 0.55049 0.37908 0.0
C926 C 0.3193 0.5491 0.38313 0.0
C927 C 0.28706 0.55196 0.39288 0.0
C928 C 0.31207 0.54984 0.41457 0.0
C929 C 0.29299 0.55164 0.41057 0.0
N930 N 0.34375 0.54758 0.40418 0.0
C931 C 0.35013 0.54601 0.42117 0.0
C932 C 0.31853 0.54927 0.43207 0.0
C933 C 0.33765 0.54712 0.43537 0.0
Gd934 Gd 0.38601 0.6661 0.36347 0.0
Gd935 Gd 0.36357 0.54763 0.37955 0.0
N936 N 0.33237 0.54876 0.37003 0.0
C937 C 0.29476 0.5503 0.36128 0.0
C938 C 0.32713 0.5465 0.35269 0.0
C939 C 0.3083 0.54783 0.34804 0.0
H940 H 0.33733 0.54315 0.34237 0.0
H941 H 0.30424 0.54663 0.33425 0.0
H942 H 0.40253 0.69869 0.40381 0.0
H943 H 0.36484 0.54312 0.42374 0.0
H944 H 0.43245 0.70136 0.41938 0.0
H945 H 0.28019 0.55139 0.35762 0.0
H946 H 0.27229 0.55324 0.39002 0.0
H947 H 0.39599 0.65518 0.32061 0.0
H948 H 0.3089 0.55015 0.44311 0.0
H949 H 0.34277 0.54612 0.44885 0.0
H950 H 0.4774 0.66982 0.37418 0.0
H951 H 0.28271 0.5527 0.42106 0.0
H952 H 0.45526 0.65109 0.31475 0.0
H953 H 0.42379 0.6484 0.30147 0.0
N954 N 0.41161 0.66083 0.34435 0.0
C955 C 0.42875 0.66329 0.3519 0.0
C956 C 0.40967 0.65604 0.32648 0.0
C957 C 0.44312 0.65408 0.32318 0.0
C958 C 0.42538 0.65244 0.31563 0.0
C959 C 0.44499 0.65971 0.34151 0.0
H960 H 0.47514 0.65825 0.34199 0.0
N961 N 0.41398 0.67364 0.37969 0.0
C962 C 0.42996 0.66917 0.37012 0.0
C963 C 0.44836 0.68233 0.3964 0.0
C964 C 0.44756 0.67259 0.37829 0.0
C965 C 0.41484 0.68802 0.39686 0.0
C966 C 0.43194 0.69112 0.40562 0.0
O967 O 0.34668 0.61257 0.38248 0.0
O968 O 0.35527 0.65655 0.35886 0.0
O969 O 0.38148 0.73445 0.37322 0.0
O970 O 0.38633 0.72335 0.34542 0.0
O971 O 0.37078 0.55441 0.3505 0.0
O972 O 0.36961 0.63 0.34208 0.0
O973 O 0.4018 0.60068 0.35857 0.0
O974 O 0.39481 0.55611 0.38251 0.0
O975 O 0.36493 0.48288 0.366 0.0
O976 O 0.36499 0.48504 0.39457 0.0
O977 O 0.37656 0.65748 0.39221 0.0
O978 O 0.38274 0.58285 0.39843 0.0
C979 C 0.34302 0.64421 0.37077 0.0
C980 C 0.36928 0.58635 0.33839 0.0
C981 C 0.39714 0.79211 0.35762 0.0
C982 C 0.40256 0.8734 0.36069 0.0
C983 C 0.42835 0.82243 0.35453 0.0
C984 C 0.41621 0.78575 0.35452 0.0
C985 C 0.42163 0.86593 0.35758 0.0
C986 C 0.39035 0.83604 0.36066 0.0
C987 C 0.3843 0.75323 0.35788 0.0
C988 C 0.46378 0.66777 0.36807 0.0
C989 C 0.4625 0.66143 0.34973 0.0
H990 H 0.4616 0.68527 0.40317 0.0
C991 C 0.40656 0.57006 0.3703 0.0
C992 C 0.38043 0.62483 0.40355 0.0
C993 C 0.35153 0.42091 0.38103 0.0
C994 C 0.34575 0.33968 0.37843 0.0
C995 C 0.32022 0.39153 0.38444 0.0
C996 C 0.33253 0.42789 0.38417 0.0
C997 C 0.32673 0.34775 0.38159 0.0
C998 C 0.35812 0.37671 0.3782 0.0
C999 C 0.36455 0.45939 0.38059 0.0
H1000 H 0.44303 0.81716 0.35207 0.0
H1001 H 0.42173 0.75254 0.352 0.0
H1002 H 0.43135 0.89385 0.35721 0.0
H1003 H 0.37564 0.841 0.36319 0.0
H1004 H 0.30558 0.39729 0.38694 0.0
H1005 H 0.32719 0.46132 0.38649 0.0
H1006 H 0.31688 0.3201 0.38215 0.0
H1007 H 0.3728 0.37129 0.37564 0.0
C1008 C 0.4303 0.36129 0.85822 0.0
C1009 C 0.44564 0.34754 0.88628 0.0
C1010 C 0.4292 0.35209 0.87621 0.0
C1011 C 0.46301 0.35524 0.87826 0.0
C1012 C 0.44773 0.36721 0.84995 0.0
C1013 C 0.46405 0.36499 0.86013 0.0
N1014 N 0.41427 0.36407 0.84875 0.0
C1015 C 0.41465 0.37084 0.83088 0.0
C1016 C 0.44822 0.37533 0.83168 0.0
C1017 C 0.4316 0.37682 0.82209 0.0
Gd1018 Gd 0.36417 0.47409 0.88166 0.0
Gd1019 Gd 0.38638 0.35549 0.86455 0.0
N1020 N 0.41217 0.34483 0.8836 0.0
C1021 C 0.44421 0.33354 0.90391 0.0
C1022 C 0.41101 0.32574 0.90005 0.0
C1023 C 0.42685 0.32142 0.91067 0.0
H1024 H 0.39799 0.31282 0.90502 0.0
H1025 H 0.42569 0.30779 0.92393 0.0
H1026 H 0.33351 0.47326 0.84805 0.0
H1027 H 0.40183 0.372 0.82348 0.0
H1028 H 0.29944 0.4726 0.84396 0.0
H1029 H 0.45649 0.32963 0.91209 0.0
H1030 H 0.47574 0.35254 0.88586 0.0
H1031 H 0.37151 0.48472 0.92519 0.0
H1032 H 0.46133 0.3802 0.82486 0.0
H1033 H 0.43184 0.38269 0.80794 0.0
H1034 H 0.27508 0.47698 0.9032 0.0
H1035 H 0.47755 0.37013 0.85407 0.0
H1036 H 0.31858 0.48384 0.95132 0.0
H1037 H 0.35298 0.48636 0.9528 0.0
N1038 N 0.34789 0.47894 0.90847 0.0
C1039 C 0.32901 0.47842 0.90732 0.0
C1040 C 0.35653 0.48247 0.92449 0.0
C1041 C 0.32665 0.48258 0.9392 0.0
C1042 C 0.34607 0.48394 0.9401 0.0
C1043 C 0.31787 0.48013 0.92267 0.0
H1044 H 0.2896 0.48059 0.93269 0.0
N1045 N 0.33199 0.47374 0.87616 0.0
C1046 C 0.3208 0.47626 0.89068 0.0
C1047 C 0.29357 0.47421 0.87195 0.0
C1048 C 0.30128 0.47594 0.88897 0.0
C1049 C 0.32459 0.47365 0.85952 0.0
C1050 C 0.30528 0.47341 0.85717 0.0
O1051 O 0.40107 0.4226 0.85978 0.0
O1052 O 0.39513 0.46294 0.88491 0.0
O1053 O 0.36758 0.5357 0.86626 0.0
O1054 O 0.36554 0.53944 0.89474 0.0
O1055 O 0.37502 0.36235 0.89269 0.0
O1056 O 0.38303 0.43508 0.89964 0.0
O1057 O 0.3458 0.4113 0.88246 0.0
O1058 O 0.35555 0.36412 0.85994 0.0
O1059 O 0.38135 0.28545 0.87195 0.0
O1060 O 0.38827 0.30167 0.84499 0.0
O1061 O 0.36815 0.46701 0.85206 0.0
O1062 O 0.37156 0.39233 0.84237 0.0
C1063 C 0.40645 0.45093 0.8721 0.0
C1064 C 0.37903 0.39373 0.90447 0.0
C1065 C 0.35374 0.60118 0.87843 0.0
C1066 C 0.34877 0.68241 0.87436 0.0
C1067 C 0.32239 0.63163 0.878 0.0
C1068 C 0.33444 0.59495 0.87944 0.0
C1069 C 0.32945 0.67502 0.8755 0.0
C1070 C 0.36089 0.64503 0.87592 0.0
C1071 C 0.36643 0.56218 0.88002 0.0
C1072 C 0.29012 0.47736 0.90424 0.0
C1073 C 0.29839 0.47941 0.92104 0.0
H1074 H 0.27863 0.47385 0.87007 0.0
C1075 C 0.34288 0.37805 0.87121 0.0
C1076 C 0.36861 0.43589 0.83952 0.0
C1077 C 0.39868 0.23124 0.85615 0.0
C1078 C 0.4047 0.15012 0.85904 0.0
C1079 C 0.43025 0.20258 0.85401 0.0
C1080 C 0.4178 0.23867 0.85375 0.0
C1081 C 0.42381 0.15865 0.85665 0.0
C1082 C 0.39217 0.18685 0.85873 0.0
C1083 C 0.38552 0.26954 0.85642 0.0
H1084 H 0.30751 0.62643 0.8789 0.0
H1085 H 0.32864 0.56183 0.88143 0.0
H1086 H 0.31974 0.70292 0.87472 0.0
H1087 H 0.37581 0.64988 0.875 0.0
H1088 H 0.44497 0.20866 0.85211 0.0
H1089 H 0.42314 0.27229 0.85164 0.0
H1090 H 0.43378 0.13123 0.85655 0.0
H1091 H 0.37742 0.18105 0.86074 0.0
C1092 C 0.58094 0.66587 0.84955 0.0
C1093 C 0.55989 0.67571 0.87436 0.0
C1094 C 0.57814 0.67238 0.86758 0.0
C1095 C 0.54462 0.67089 0.8629 0.0
C1096 C 0.56566 0.66182 0.83795 0.0
C1097 C 0.54749 0.66403 0.84474 0.0
N1098 N 0.59868 0.6627 0.84341 0.0
C1099 C 0.60217 0.65722 0.8258 0.0
C1100 C 0.56912 0.65529 0.81988 0.0
C1101 C 0.58746 0.65324 0.81377 0.0
Gd1102 Gd 0.64482 0.55062 0.88271 0.0
Gd1103 Gd 0.62254 0.66795 0.86446 0.0
N1104 N 0.59325 0.67612 0.87842 0.0
C1105 C 0.55751 0.68467 0.89239 0.0
C1106 C 0.5909 0.68883 0.89567 0.0
C1107 C 0.57309 0.69214 0.90301 0.0
H1108 H 0.60257 0.69798 0.90382 0.0
H1109 H 0.57138 0.70129 0.9168 0.0
H1110 H 0.66171 0.5124 0.8432 0.0
H1111 H 0.6163 0.65634 0.82102 0.0
H1112 H 0.69177 0.5076 0.82799 0.0
H1113 H 0.54372 0.68749 0.89811 0.0
H1114 H 0.53051 0.67296 0.86792 0.0
H1115 H 0.65441 0.57527 0.92488 0.0
H1116 H 0.55776 0.65201 0.81054 0.0
H1117 H 0.59028 0.64864 0.7998 0.0
H1118 H 0.73615 0.54994 0.87228 0.0
H1119 H 0.53557 0.66063 0.83606 0.0
H1120 H 0.71362 0.58372 0.93052 0.0
H1121 H 0.68211 0.58877 0.94361 0.0
N1122 N 0.67015 0.56391 0.90152 0.0
C1123 C 0.68735 0.55926 0.89416 0.0
C1124 C 0.66812 0.57348 0.91909 0.0
C1125 C 0.70153 0.5777 0.92228 0.0
C1126 C 0.68376 0.58078 0.92971 0.0
C1127 C 0.70351 0.56679 0.90432 0.0
H1128 H 0.73364 0.56975 0.90381 0.0
N1129 N 0.6728 0.54165 0.8667 0.0
C1130 C 0.68868 0.54875 0.87621 0.0
C1131 C 0.70737 0.5312 0.85049 0.0
C1132 C 0.70637 0.54454 0.86823 0.0
C1133 C 0.67389 0.52451 0.84994 0.0
C1134 C 0.69108 0.52027 0.84142 0.0
O1135 O 0.60572 0.60372 0.86113 0.0
O1136 O 0.61327 0.55678 0.88445 0.0
O1137 O 0.6446 0.47713 0.87692 0.0
O1138 O 0.64459 0.50262 0.90406 0.0
O1139 O 0.63058 0.66313 0.89377 0.0
O1140 O 0.6255 0.5883 0.9007 0.0
O1141 O 0.66031 0.61742 0.88593 0.0
O1142 O 0.6532 0.65542 0.86054 0.0
O1143 O 0.62578 0.73729 0.87379 0.0
O1144 O 0.6248 0.72359 0.84581 0.0
O1145 O 0.63514 0.55228 0.85417 0.0
O1146 O 0.63925 0.62629 0.84476 0.0
C1147 C 0.6012 0.57314 0.87295 0.0
C1148 C 0.62723 0.63073 0.90539 0.0
C1149 C 0.6457 0.42151 0.90149 0.0
C1150 C 0.64256 0.33935 0.89957 0.0
C1151 C 0.65218 0.37426 0.92715 0.0
C1152 C 0.65108 0.41676 0.91932 0.0
C1153 C 0.64793 0.3358 0.91737 0.0
C1154 C 0.64149 0.38237 0.89154 0.0
C1155 C 0.64493 0.46755 0.89377 0.0
C1156 C 0.72249 0.55269 0.87826 0.0
C1157 C 0.72106 0.56376 0.89624 0.0
H1158 H 0.72068 0.52753 0.84389 0.0
C1159 C 0.66487 0.64583 0.87331 0.0
C1160 C 0.63733 0.58263 0.8415 0.0
C1161 C 0.61217 0.79327 0.85545 0.0
C1162 C 0.60533 0.87426 0.8578 0.0
C1163 C 0.5823 0.82247 0.84568 0.0
C1164 C 0.59445 0.78636 0.84814 0.0
C1165 C 0.58765 0.86603 0.85044 0.0
C1166 C 0.61762 0.83744 0.86021 0.0
C1167 C 0.625 0.75467 0.85797 0.0
H1168 H 0.65633 0.37113 0.94088 0.0
H1169 H 0.65456 0.44601 0.92728 0.0
H1170 H 0.64878 0.30305 0.92373 0.0
H1171 H 0.63731 0.38528 0.87779 0.0
H1172 H 0.5687 0.8167 0.83995 0.0
H1173 H 0.59 0.75314 0.84413 0.0
H1174 H 0.578 0.89347 0.84809 0.0
H1175 H 0.63126 0.84299 0.86593 0.0
C1176 C 0.42459 0.67367 0.65097 0.0
C1177 C 0.44842 0.67954 0.62831 0.0
C1178 C 0.42955 0.67845 0.63337 0.0
C1179 C 0.46227 0.67329 0.64121 0.0
C1180 C 0.43847 0.66998 0.6641 0.0
C1181 C 0.4573 0.66845 0.65907 0.0
N1182 N 0.40627 0.67582 0.65534 0.0
C1183 C 0.40109 0.6798 0.67268 0.0
C1184 C 0.43303 0.66969 0.6819 0.0
C1185 C 0.41428 0.6756 0.68621 0.0
Gd1186 Gd 0.36275 0.55368 0.62177 0.0
Gd1187 Gd 0.38509 0.67734 0.63146 0.0
N1188 N 0.41581 0.68336 0.6212 0.0
C1189 C 0.45276 0.68766 0.6105 0.0
C1190 C 0.41989 0.69384 0.60401 0.0
C1191 C 0.43843 0.69556 0.59835 0.0
H1192 H 0.40878 0.69956 0.59462 0.0
H1193 H 0.44165 0.70272 0.58463 0.0
H1194 H 0.35533 0.51264 0.66303 0.0
H1195 H 0.38679 0.68647 0.67617 0.0
H1196 H 0.32946 0.50751 0.68437 0.0
H1197 H 0.46709 0.68876 0.60608 0.0
H1198 H 0.47685 0.67325 0.63757 0.0
H1199 H 0.34374 0.56756 0.58198 0.0
H1200 H 0.44325 0.66688 0.69239 0.0
H1201 H 0.41001 0.67748 0.69994 0.0
H1202 H 0.2758 0.55052 0.65046 0.0
H1203 H 0.46814 0.66498 0.66895 0.0
H1204 H 0.28455 0.57769 0.58834 0.0
H1205 H 0.31236 0.57831 0.56895 0.0
N1206 N 0.33355 0.56156 0.60828 0.0
C1207 C 0.31843 0.55858 0.61901 0.0
C1208 C 0.33158 0.56692 0.59042 0.0
C1209 C 0.29822 0.57265 0.59406 0.0
C1210 C 0.31389 0.57305 0.58306 0.0
C1211 C 0.30034 0.56491 0.61225 0.0
H1212 H 0.27104 0.56823 0.61892 0.0
N1213 N 0.33882 0.54153 0.64262 0.0
C1214 C 0.32118 0.54911 0.63679 0.0
C1215 C 0.30896 0.53148 0.66578 0.0
C1216 C 0.3058 0.54498 0.64828 0.0
C1217 C 0.34172 0.52422 0.65914 0.0
C1218 C 0.32697 0.52012 0.67112 0.0
O1219 O 0.40228 0.62149 0.61889 0.0
O1220 O 0.39239 0.55631 0.63213 0.0
O1221 O 0.35801 0.48147 0.62513 0.0
O1222 O 0.37044 0.50642 0.60107 0.0
O1223 O 0.37496 0.66469 0.60326 0.0
O1224 O 0.37655 0.58697 0.5983 0.0
O1225 O 0.34713 0.61942 0.6167 0.0
O1226 O 0.35561 0.66322 0.64004 0.0
O1227 O 0.37565 0.73623 0.61689 0.0
O1228 O 0.38859 0.74497 0.64235 0.0
O1229 O 0.37653 0.56504 0.64832 0.0
O1230 O 0.37111 0.64026 0.65442 0.0
C1231 C 0.40582 0.58189 0.62589 0.0
C1232 C 0.37631 0.6292 0.59266 0.0
C1233 C 0.38113 0.43609 0.6119 0.0
C1234 C 0.39031 0.35693 0.61582 0.0
C1235 C 0.41384 0.4157 0.61272 0.0
C1236 C 0.4 0.44844 0.61129 0.0
C1237 C 0.4091 0.37035 0.61488 0.0
C1238 C 0.37635 0.39033 0.61423 0.0
C1239 C 0.36646 0.47088 0.61049 0.0
C1240 C 0.28776 0.553 0.64179 0.0
C1241 C 0.28504 0.56294 0.62381 0.0
H1242 H 0.29753 0.5279 0.67504 0.0
C1243 C 0.34291 0.64927 0.62889 0.0
C1244 C 0.37425 0.5984 0.65964 0.0
C1245 C 0.36599 0.7987 0.63381 0.0
C1246 C 0.35582 0.87754 0.63462 0.0
C1247 C 0.33478 0.8173 0.64364 0.0
C1248 C 0.34855 0.78523 0.64021 0.0
C1249 C 0.33833 0.86313 0.64082 0.0
C1250 C 0.36965 0.84489 0.63117 0.0
C1251 C 0.38019 0.76476 0.62924 0.0
H1252 H 0.42834 0.42552 0.61211 0.0
H1253 H 0.40405 0.48341 0.60966 0.0
H1254 H 0.42021 0.34574 0.61563 0.0
H1255 H 0.36179 0.38102 0.61509 0.0
H1256 H 0.32131 0.8066 0.64851 0.0
H1257 H 0.34558 0.74995 0.64244 0.0
H1258 H 0.32747 0.88738 0.64374 0.0
H1259 H 0.38311 0.8553 0.62612 0.0
C1260 C 0.57493 0.34704 0.64345 0.0
C1261 C 0.55792 0.33866 0.61594 0.0
C1262 C 0.57495 0.34145 0.62519 0.0
C1263 C 0.54107 0.34416 0.62512 0.0
C1264 C 0.55802 0.35092 0.65282 0.0
C1265 C 0.54111 0.35017 0.64352 0.0
N1266 N 0.59151 0.34851 0.65208 0.0
C1267 C 0.59222 0.3524 0.67007 0.0
C1268 C 0.55864 0.35573 0.67126 0.0
C1269 C 0.57582 0.35624 0.67993 0.0
Gd1270 Gd 0.64144 0.46172 0.6198 0.0
Gd1271 Gd 0.61838 0.3428 0.63462 0.0
N1272 N 0.59152 0.33606 0.61667 0.0
C1273 C 0.5583 0.32855 0.59785 0.0
C1274 C 0.5917 0.32092 0.59957 0.0
C1275 C 0.57524 0.31852 0.58974 0.0
H1276 H 0.60437 0.30931 0.59345 0.0
H1277 H 0.5756 0.30784 0.57604 0.0
H1278 H 0.66939 0.45756 0.65568 0.0
H1279 H 0.60547 0.35257 0.67677 0.0
H1280 H 0.7029 0.45315 0.6622 0.0
H1281 H 0.54554 0.32607 0.59027 0.0
H1282 H 0.52789 0.34266 0.61817 0.0
H1283 H 0.63795 0.47489 0.57599 0.0
H1284 H 0.54595 0.35891 0.67893 0.0
H1285 H 0.57643 0.35964 0.69419 0.0
H1286 H 0.73206 0.45763 0.605 0.0
H1287 H 0.52799 0.35369 0.65045 0.0
H1288 H 0.69281 0.47036 0.55386 0.0
H1289 H 0.6587 0.47587 0.54983 0.0
N1290 N 0.65999 0.46625 0.59434 0.0
C1291 C 0.6787 0.46431 0.59692 0.0
C1292 C 0.65277 0.47112 0.57776 0.0
C1293 C 0.68375 0.46935 0.56533 0.0
C1294 C 0.6645 0.47235 0.56299 0.0
C1295 C 0.6911 0.46559 0.58245 0.0
H1296 H 0.72009 0.46381 0.57456 0.0
N1297 N 0.67307 0.4586 0.62776 0.0
C1298 C 0.68547 0.46072 0.61411 0.0
C1299 C 0.71105 0.45526 0.63475 0.0
C1300 C 0.70478 0.4585 0.61724 0.0
C1301 C 0.67913 0.45711 0.64486 0.0
C1302 C 0.69817 0.45495 0.64861 0.0
O1303 O 0.60323 0.40878 0.6403 0.0
O1304 O 0.61027 0.45333 0.61645 0.0
O1305 O 0.63976 0.5239 0.63504 0.0
O1306 O 0.64018 0.52678 0.60648 0.0
O1307 O 0.62889 0.35267 0.60626 0.0
O1308 O 0.62226 0.42718 0.60074 0.0
O1309 O 0.65865 0.39729 0.61693 0.0
O1310 O 0.64916 0.35083 0.63957 0.0
O1311 O 0.62303 0.27429 0.62513 0.0
O1312 O 0.617 0.28563 0.65268 0.0
O1313 O 0.63519 0.45295 0.64897 0.0
O1314 O 0.634 0.37691 0.65705 0.0
C1315 C 0.59855 0.43988 0.62873 0.0
C1316 C 0.62517 0.38586 0.59514 0.0
C1317 C 0.65339 0.5883 0.62188 0.0
C1318 C 0.65895 0.66957 0.62458 0.0
C1319 C 0.68494 0.6174 0.62155 0.0
C1320 C 0.67263 0.5811 0.62082 0.0
C1321 C 0.6782 0.66132 0.6234 0.0
C1322 C 0.64657 0.63261 0.62373 0.0
C1323 C 0.64036 0.54991 0.62112 0.0
C1324 C 0.71717 0.4595 0.60286 0.0
C1325 C 0.71035 0.46301 0.58551 0.0
H1326 H 0.72578 0.45341 0.63771 0.0
C1327 C 0.66169 0.36382 0.62802 0.0
C1328 C 0.63565 0.42034 0.6609 0.0
C1329 C 0.60643 0.21715 0.64007 0.0
C1330 C 0.60087 0.13595 0.63707 0.0
C1331 C 0.57494 0.18773 0.64135 0.0
C1332 C 0.58723 0.22411 0.64193 0.0
C1333 C 0.58166 0.14396 0.63893 0.0
C1334 C 0.61322 0.17298 0.63768 0.0
C1335 C 0.61945 0.25565 0.64034 0.0
H1336 H 0.69978 0.61148 0.62062 0.0
H1337 H 0.67816 0.54753 0.6194 0.0
H1338 H 0.68809 0.6889 0.62368 0.0
H1339 H 0.6317 0.63815 0.62474 0.0
H1340 H 0.56015 0.19345 0.64285 0.0
H1341 H 0.5817 0.25756 0.64391 0.0
H1342 H 0.57182 0.11628 0.63881 0.0
H1343 H 0.62805 0.16759 0.63608 0.0
C1344 C 0.19366 0.16525 0.11307 0.0
C1345 C 0.18293 0.16403 0.12862 0.0
C1346 C 0.21075 0.18805 0.11269 0.0
C1347 C 0.23905 0.2724 0.13855 0.0
H1348 H 0.2782 0.23402 0.10657 0.0
C1349 C 0.31614 0.33314 0.14201 0.0
C1350 C 0.32355 0.35019 0.12612 0.0
C1351 C 0.29872 0.31193 0.14224 0.0
C1352 C 0.26733 0.24523 0.11549 0.0
H1353 H 0.1822 0.18349 0.15623 0.0
H1354 H 0.2122 0.2216 0.15589 0.0
H1355 H 0.24901 0.19213 0.10757 0.0
H1356 H 0.31834 0.35922 0.09808 0.0
H1357 H 0.28807 0.32081 0.09839 0.0
H1358 H 0.25798 0.32427 0.14698 0.0
C1359 C 0.20719 0.20689 0.14367 0.0
C1360 C 0.25048 0.2214 0.11602 0.0
C1361 C 0.18995 0.18478 0.14394 0.0
C1362 C 0.31303 0.34619 0.1105 0.0
C1363 C 0.29577 0.3241 0.11066 0.0
C1364 C 0.25607 0.29553 0.13829 0.0
C1365 C 0.2178 0.20949 0.12797 0.0
C1366 C 0.23598 0.23465 0.12752 0.0
C1367 C 0.28847 0.30664 0.12653 0.0
C1368 C 0.27034 0.28233 0.1267 0.0
H1369 H 0.1886 0.14962 0.10102 0.0
H1370 H 0.21817 0.18961 0.10023 0.0
H1371 H 0.22824 0.28466 0.1473 0.0
H1372 H 0.32381 0.33629 0.1543 0.0
H1373 H 0.29342 0.29878 0.15464 0.0
C1374 C 0.81525 0.84077 0.11089 0.0
C1375 C 0.82354 0.85175 0.12717 0.0
C1376 C 0.798 0.81859 0.11037 0.0
C1377 C 0.76669 0.74837 0.13856 0.0
H1378 H 0.73003 0.77472 0.10234 0.0
C1379 C 0.69103 0.68161 0.14211 0.0
C1380 C 0.68288 0.66562 0.1264 0.0
C1381 C 0.70835 0.70329 0.14179 0.0
C1382 C 0.7402 0.7666 0.11244 0.0
H1383 H 0.81999 0.84998 0.15563 0.0
H1384 H 0.78987 0.81202 0.1548 0.0
H1385 H 0.75949 0.81582 0.10263 0.0
H1386 H 0.6864 0.6606 0.09798 0.0
H1387 H 0.71671 0.69825 0.0974 0.0
H1388 H 0.74727 0.69965 0.14851 0.0
C1389 C 0.7968 0.81931 0.14239 0.0
C1390 C 0.75714 0.79017 0.1126 0.0
C1391 C 0.81403 0.84132 0.14289 0.0
C1392 C 0.69241 0.67204 0.11034 0.0
C1393 C 0.7097 0.69403 0.10999 0.0
C1394 C 0.74972 0.72506 0.13846 0.0
C1395 C 0.78863 0.807 0.12614 0.0
C1396 C 0.7706 0.78158 0.12573 0.0
C1397 C 0.7179 0.70998 0.12573 0.0
C1398 C 0.73621 0.73398 0.12546 0.0
H1399 H 0.8223 0.84836 0.09857 0.0
H1400 H 0.79228 0.80948 0.0976 0.0
H1401 H 0.77682 0.73994 0.14865 0.0
H1402 H 0.68405 0.67717 0.15472 0.0
H1403 H 0.71412 0.71553 0.15414 0.0
C1404 C 0.31717 0.68552 0.35529 0.0
C1405 C 0.32436 0.66587 0.3708 0.0
C1406 C 0.29963 0.70621 0.35531 0.0
C1407 C 0.26669 0.76501 0.38393 0.0
H1408 H 0.22983 0.73577 0.34827 0.0
C1409 C 0.19222 0.84061 0.38646 0.0
C1410 C 0.18274 0.84813 0.37047 0.0
C1411 C 0.20941 0.81823 0.38661 0.0
C1412 C 0.24002 0.74514 0.35816 0.0
H1413 H 0.31871 0.65253 0.39852 0.0
H1414 H 0.28824 0.6897 0.39865 0.0
H1415 H 0.25978 0.69703 0.34818 0.0
H1416 H 0.18407 0.83961 0.34205 0.0
H1417 H 0.2143 0.80221 0.34211 0.0
H1418 H 0.24745 0.81431 0.39357 0.0
C1419 C 0.29617 0.68878 0.38645 0.0
C1420 C 0.25717 0.72255 0.35816 0.0
C1421 C 0.31357 0.66733 0.38635 0.0
C1422 C 0.19099 0.83377 0.35459 0.0
C1423 C 0.2083 0.81196 0.35469 0.0
C1424 C 0.24969 0.78826 0.38375 0.0
C1425 C 0.28901 0.70851 0.37093 0.0
C1426 C 0.27068 0.73213 0.37107 0.0
C1427 C 0.21773 0.80333 0.37072 0.0
C1428 C 0.23602 0.77868 0.37087 0.0
H1429 H 0.32507 0.68467 0.34307 0.0
H1430 H 0.29451 0.72124 0.34317 0.0
H1431 H 0.27692 0.7735 0.39393 0.0
H1432 H 0.18612 0.85105 0.39892 0.0
H1433 H 0.21592 0.8118 0.39928 0.0
C1434 C 0.81565 0.17809 0.38759 0.0
C1435 C 0.8251 0.17037 0.37157 0.0
C1436 C 0.79803 0.19856 0.38766 0.0
C1437 C 0.75673 0.21983 0.35994 0.0
H1438 H 0.74785 0.32117 0.3913 0.0
C1439 C 0.68966 0.32757 0.35415 0.0
C1440 C 0.68198 0.34611 0.36963 0.0
C1441 C 0.70709 0.30631 0.35451 0.0
C1442 C 0.74988 0.29247 0.38264 0.0
H1443 H 0.82333 0.1771 0.34305 0.0
H1444 H 0.7925 0.21221 0.34314 0.0
H1445 H 0.77772 0.28213 0.39213 0.0
H1446 H 0.68638 0.35598 0.39772 0.0
H1447 H 0.71645 0.31807 0.39855 0.0
H1448 H 0.72886 0.22907 0.35071 0.0
C1449 C 0.79873 0.20269 0.35566 0.0
C1450 C 0.7671 0.27017 0.3831 0.0
C1451 C 0.81645 0.18291 0.35562 0.0
C1452 C 0.69207 0.34269 0.3855 0.0
C1453 C 0.7094 0.32097 0.38593 0.0
C1454 C 0.73941 0.24166 0.35966 0.0
C1455 C 0.78937 0.21117 0.37168 0.0
C1456 C 0.77079 0.23379 0.37167 0.0
C1457 C 0.71722 0.30233 0.37044 0.0
C1458 C 0.73572 0.27859 0.37091 0.0
H1459 H 0.82198 0.16886 0.4001 0.0
H1460 H 0.79112 0.20425 0.40021 0.0
H1461 H 0.75905 0.19156 0.35111 0.0
H1462 H 0.68227 0.33005 0.34168 0.0
H1463 H 0.71268 0.29343 0.34219 0.0
C1464 C 0.69132 0.68482 0.85792 0.0
C1465 C 0.68332 0.66844 0.87365 0.0
C1466 C 0.70866 0.70638 0.85815 0.0
C1467 C 0.74077 0.76895 0.88739 0.0
H1468 H 0.77722 0.74238 0.85099 0.0
C1469 C 0.81585 0.84282 0.88872 0.0
C1470 C 0.82413 0.85375 0.87243 0.0
C1471 C 0.7986 0.8207 0.88928 0.0
C1472 C 0.76713 0.75079 0.86112 0.0
H1473 H 0.68715 0.66256 0.90201 0.0
H1474 H 0.71749 0.70006 0.90244 0.0
H1475 H 0.7476 0.70231 0.85119 0.0
H1476 H 0.82054 0.85196 0.84398 0.0
H1477 H 0.7904 0.81417 0.84486 0.0
H1478 H 0.76015 0.81798 0.89717 0.0
C1479 C 0.71034 0.69622 0.88991 0.0
C1480 C 0.75014 0.72761 0.86126 0.0
C1481 C 0.69304 0.67432 0.88964 0.0
C1482 C 0.81459 0.84333 0.85673 0.0
C1483 C 0.79735 0.82142 0.85726 0.0
C1484 C 0.75773 0.79243 0.88718 0.0
C1485 C 0.71838 0.71257 0.87415 0.0
C1486 C 0.7367 0.73648 0.87435 0.0
C1487 C 0.78919 0.80915 0.87353 0.0
C1488 C 0.77114 0.78385 0.87398 0.0
H1489 H 0.6842 0.68077 0.84537 0.0
H1490 H 0.71433 0.71893 0.8458 0.0
H1491 H 0.73066 0.77701 0.89755 0.0
H1492 H 0.82292 0.85042 0.90104 0.0
H1493 H 0.79289 0.81162 0.90206 0.0
C1494 C 0.31742 0.3347 0.85596 0.0
C1495 C 0.32438 0.3557 0.87129 0.0
C1496 C 0.29999 0.31343 0.85613 0.0
C1497 C 0.26801 0.25254 0.88415 0.0
H1498 H 0.22898 0.28865 0.8517 0.0
C1499 C 0.19388 0.17544 0.88873 0.0
C1500 C 0.18299 0.17282 0.87333 0.0
C1501 C 0.21113 0.19757 0.88852 0.0
C1502 C 0.23976 0.27725 0.86065 0.0
H1503 H 0.31848 0.37072 0.89884 0.0
H1504 H 0.28832 0.33214 0.89926 0.0
H1505 H 0.25896 0.32709 0.85094 0.0
H1506 H 0.18211 0.18895 0.84538 0.0
H1507 H 0.21238 0.22557 0.84471 0.0
H1508 H 0.24943 0.20137 0.89339 0.0
C1509 C 0.29629 0.3327 0.88708 0.0
C1510 C 0.25692 0.29974 0.86028 0.0
C1511 C 0.31352 0.35489 0.8868 0.0
C1512 C 0.19001 0.19134 0.85757 0.0
C1513 C 0.2074 0.21267 0.85725 0.0
C1514 C 0.25101 0.22926 0.88425 0.0
C1515 C 0.28936 0.31177 0.87174 0.0
C1516 C 0.27117 0.28778 0.87208 0.0
C1517 C 0.21818 0.21681 0.87278 0.0
C1518 C 0.23653 0.24131 0.87255 0.0
H1519 H 0.32539 0.33503 0.84377 0.0
H1520 H 0.29495 0.29751 0.84414 0.0
H1521 H 0.27885 0.24239 0.8933 0.0
H1522 H 0.18882 0.16147 0.9011 0.0
H1523 H 0.21868 0.20035 0.90087 0.0
C1524 C 0.69124 0.34171 0.61243 0.0
C1525 C 0.68016 0.3411 0.62777 0.0
C1526 C 0.70852 0.31972 0.61206 0.0
C1527 C 0.7371 0.2344 0.63722 0.0
H1528 H 0.77677 0.27936 0.60721 0.0
C1529 C 0.81452 0.17786 0.6426 0.0
C1530 C 0.82321 0.16491 0.62671 0.0
C1531 C 0.79677 0.19746 0.64245 0.0
C1532 C 0.76577 0.26624 0.61556 0.0
H1533 H 0.67883 0.31801 0.65495 0.0
H1534 H 0.70915 0.28142 0.65466 0.0
H1535 H 0.74699 0.31876 0.60794 0.0
H1536 H 0.82009 0.16228 0.59819 0.0
H1537 H 0.78923 0.19785 0.59789 0.0
H1538 H 0.75641 0.18303 0.64535 0.0
C1539 C 0.70433 0.29728 0.64259 0.0
C1540 C 0.74857 0.28869 0.61594 0.0
C1541 C 0.68691 0.3186 0.64283 0.0
C1542 C 0.81374 0.17192 0.61065 0.0
C1543 C 0.79613 0.19241 0.61047 0.0
C1544 C 0.75442 0.21257 0.6371 0.0
C1545 C 0.7154 0.29703 0.62714 0.0
C1546 C 0.73389 0.27313 0.62676 0.0
C1547 C 0.78746 0.20547 0.62637 0.0
C1548 C 0.76894 0.22817 0.62624 0.0
H1549 H 0.68642 0.35853 0.60054 0.0
H1550 H 0.71628 0.31992 0.59978 0.0
H1551 H 0.72618 0.22039 0.64543 0.0
H1552 H 0.82141 0.17251 0.65519 0.0
H1553 H 0.79046 0.20725 0.6549 0.0
C1554 C 0.19358 0.8521 0.61391 0.0
C1555 C 0.18286 0.85406 0.62946 0.0
C1556 C 0.21091 0.83032 0.61379 0.0
C1557 C 0.23962 0.74843 0.64026 0.0
H1558 H 0.27904 0.78826 0.60886 0.0
C1559 C 0.31613 0.68511 0.64485 0.0
C1560 C 0.32435 0.67115 0.62888 0.0
C1561 C 0.29877 0.70667 0.64486 0.0
C1562 C 0.2681 0.77659 0.61762 0.0
H1563 H 0.18225 0.83604 0.65725 0.0
H1564 H 0.21261 0.79966 0.6573 0.0
H1565 H 0.2495 0.8289 0.60934 0.0
H1566 H 0.32088 0.66872 0.60041 0.0
H1567 H 0.29066 0.7072 0.60038 0.0
H1568 H 0.25864 0.69705 0.64891 0.0
C1569 C 0.20747 0.81337 0.64495 0.0
C1570 C 0.25107 0.79975 0.61786 0.0
C1571 C 0.19004 0.83456 0.64498 0.0
C1572 C 0.31484 0.67901 0.61292 0.0
C1573 C 0.29762 0.70128 0.6129 0.0
C1574 C 0.25676 0.72582 0.64023 0.0
C1575 C 0.21813 0.81035 0.6293 0.0
C1576 C 0.23649 0.78599 0.62915 0.0
C1577 C 0.28939 0.71542 0.62887 0.0
C1578 C 0.27117 0.73951 0.62887 0.0
H1579 H 0.18838 0.86651 0.60168 0.0
H1580 H 0.21841 0.82835 0.60138 0.0
H1581 H 0.22874 0.73586 0.64886 0.0
H1582 H 0.32313 0.67928 0.65735 0.0
H1583 H 0.29282 0.71732 0.65737 0.0
C1584 C 0.14192 0.90637 0.30823 0.0
C1585 C 0.13198 0.93193 0.32074 0.0
C1586 C 0.14337 0.92125 0.29063 0.0
C1587 C 0.14347 0.02501 0.26458 0.0
H1588 H 0.13141 0.95009 0.22414 0.0
C1589 C 0.1376 0.09879 0.19365 0.0
C1590 C 0.14146 0.07059 0.17914 0.0
C1591 C 0.13767 0.08156 0.21095 0.0
C1592 C 0.13523 0.97137 0.23521 0.0
H1593 H 0.11497 0.99177 0.3244 0.0
H1594 H 0.11788 0.01798 0.29394 0.0
H1595 H 0.12909 0.91885 0.25394 0.0
H1596 H 0.15003 1.00274 0.17176 0.0
H1597 H 0.15108 0.97369 0.20169 0.0
H1598 H 0.15006 0.07724 0.24606 0.0
C1599 C 0.12465 0.98674 0.29772 0.0
C1600 C 0.13377 0.95337 0.2523 0.0
C1601 C 0.12294 0.97158 0.31514 0.0
C1602 C 0.14659 0.02549 0.1825 0.0
C1603 C 0.14701 1.00854 0.19976 0.0
C1604 C 0.14524 0.04281 0.24749 0.0
C1605 C 0.13512 0.96219 0.28535 0.0
C1606 C 0.13765 0.98018 0.26715 0.0
C1607 C 0.14205 0.03589 0.21424 0.0
C1608 C 0.14095 0.01644 0.23252 0.0
H1609 H 0.14911 0.87582 0.31216 0.0
H1610 H 0.1515 0.90165 0.28131 0.0
H1611 H 0.14676 0.04627 0.27582 0.0
H1612 H 0.134 0.1339 0.19168 0.0
H1613 H 0.1337 0.10385 0.22167 0.0
C1614 C 0.88469 0.03831 0.3161 0.0
C1615 C 0.87473 0.07744 0.32069 0.0
C1616 C 0.88485 0.02255 0.29867 0.0
C1617 C 0.8737 0.98035 0.26375 0.0
H1618 H 0.87638 0.06263 0.22393 0.0
C1619 C 0.86444 0.92089 0.19096 0.0
C1620 C 0.87554 0.94178 0.17802 0.0
C1621 C 0.86444 0.93675 0.20845 0.0
C1622 C 0.87579 0.03909 0.2349 0.0
H1623 H 0.85712 0.13082 0.31053 0.0
H1624 H 0.85731 0.10324 0.27996 0.0
H1625 H 0.87651 0.09253 0.254 0.0
H1626 H 0.89566 0.99488 0.17331 0.0
H1627 H 0.89598 0.02199 0.20379 0.0
H1628 H 0.87345 0.92687 0.24468 0.0
C1629 C 0.86524 0.08505 0.28984 0.0
C1630 C 0.87561 0.05634 0.25217 0.0
C1631 C 0.86514 0.10093 0.30735 0.0
C1632 C 0.88691 0.9782 0.183 0.0
C1633 C 0.88697 0.99396 0.20045 0.0
C1634 C 0.87391 0.96312 0.24649 0.0
C1635 C 0.87495 0.04532 0.28531 0.0
C1636 C 0.87467 0.02719 0.26685 0.0
C1637 C 0.87555 0.9739 0.21338 0.0
C1638 C 0.87505 0.99222 0.23181 0.0
H1639 H 0.89236 0.01961 0.32605 0.0
H1640 H 0.89282 0.99247 0.29566 0.0
H1641 H 0.87268 0.95685 0.2747 0.0
H1642 H 0.85522 0.89339 0.18743 0.0
H1643 H 0.8553 0.92078 0.21797 0.0
C1644 C 0.86158 0.09654 0.69152 0.0
C1645 C 0.8717 0.07376 0.67834 0.0
C1646 C 0.86219 0.08171 0.70917 0.0
C1647 C 0.89083 0.01681 0.74065 0.0
H1648 H 0.8448 0.99873 0.76654 0.0
C1649 C 0.888 0.97758 0.81587 0.0
C1650 C 0.87573 0.9434 0.82134 0.0
C1651 C 0.88797 0.99279 0.79832 0.0
C1652 C 0.85776 1.00344 0.75944 0.0
H1653 H 0.89076 0.01843 0.67335 0.0
H1654 H 0.89207 0.99317 0.70407 0.0
H1655 H 0.84387 0.02884 0.73633 0.0
H1656 H 0.85373 0.89842 0.81278 0.0
H1657 H 0.85359 0.92521 0.78206 0.0
H1658 H 0.90473 0.99159 0.76375 0.0
C1659 C 0.88358 0.02224 0.70081 0.0
C1660 C 0.85723 0.02112 0.74223 0.0
C1661 C 0.88272 0.03655 0.6832 0.0
C1662 C 0.86354 0.92434 0.80886 0.0
C1663 C 0.86331 0.94005 0.79135 0.0
C1664 C 0.89137 0.99976 0.75793 0.0
C1665 C 0.87321 0.04434 0.71399 0.0
C1666 C 0.87376 0.02771 0.7326 0.0
C1667 C 0.87545 0.97467 0.78592 0.0
C1668 C 0.87484 0.9926 0.7675 0.0
H1669 H 0.85291 0.12518 0.68812 0.0
H1670 H 0.85414 0.09957 0.71907 0.0
H1671 H 0.9038 0.02172 0.73359 0.0
H1672 H 0.8975 0.99295 0.82524 0.0
H1673 H 0.8974 0.01969 0.79459 0.0
C1674 C 0.14047 0.11069 0.80916 0.0
C1675 C 0.14098 0.08023 0.82344 0.0
C1676 C 0.1412 0.09493 0.79165 0.0
C1677 C 0.13317 0.99042 0.76535 0.0
H1678 H 0.15854 0.05646 0.72819 0.0
C1679 C 0.14231 0.91931 0.6942 0.0
C1680 C 0.13856 0.94967 0.68033 0.0
C1681 C 0.14342 0.93463 0.71174 0.0
C1682 C 0.1513 0.03775 0.73842 0.0
H1683 H 0.14379 0.00924 0.83034 0.0
H1684 H 0.14558 0.98235 0.80015 0.0
H1685 H 0.15918 0.08513 0.75849 0.0
H1686 H 0.13315 0.02019 0.67417 0.0
H1687 H 0.13518 0.04651 0.70452 0.0
H1688 H 0.12538 0.94297 0.74527 0.0
C1689 C 0.14394 0.01826 0.80235 0.0
C1690 C 0.15161 0.05428 0.75579 0.0
C1691 C 0.14305 0.03389 0.81976 0.0
C1692 C 0.13612 0.99568 0.68443 0.0
C1693 C 0.13738 0.01096 0.70187 0.0
C1694 C 0.13297 0.97378 0.74802 0.0
C1695 C 0.14267 0.04838 0.78803 0.0
C1696 C 0.14251 0.0309 0.76949 0.0
C1697 C 0.14101 0.9807 0.71575 0.0
C1698 C 0.14194 0.99735 0.73433 0.0
H1699 H 0.13916 0.14663 0.81144 0.0
H1700 H 0.14013 0.11917 0.78096 0.0
H1701 H 0.12568 0.97189 0.77546 0.0
H1702 H 0.14442 0.88375 0.69153 0.0
H1703 H 0.14638 0.91052 0.72216 0.0
C1704 C 0.64313 0.40976 0.3072 0.0
C1705 C 0.631 0.43041 0.31933 0.0
C1706 C 0.64355 0.42403 0.28948 0.0
C1707 C 0.64946 0.48628 0.25704 0.0
H1708 H 0.6035 0.50468 0.23106 0.0
C1709 C 0.64535 0.58453 0.19034 0.0
C1710 C 0.63506 0.56341 0.17686 0.0
C1711 C 0.64497 0.56751 0.20768 0.0
C1712 C 0.61646 0.49961 0.23813 0.0
H1713 H 0.60939 0.48081 0.32242 0.0
H1714 H 0.60979 0.50484 0.29151 0.0
H1715 H 0.60248 0.47382 0.26108 0.0
H1716 H 0.61606 0.50856 0.17101 0.0
H1717 H 0.61519 0.47941 0.20121 0.0
H1718 H 0.66341 0.51258 0.2341 0.0
C1719 C 0.61907 0.47801 0.29563 0.0
C1720 C 0.61587 0.48213 0.25533 0.0
C1721 C 0.61889 0.46436 0.31333 0.0
C1722 C 0.6242 0.52547 0.1811 0.0
C1723 C 0.62361 0.5089 0.19842 0.0
C1724 C 0.65004 0.50436 0.23989 0.0
C1725 C 0.63159 0.45853 0.28355 0.0
C1726 C 0.63235 0.47525 0.26498 0.0
C1727 C 0.63407 0.52951 0.21189 0.0
C1728 C 0.63354 0.51116 0.23024 0.0
H1729 H 0.6527 0.38375 0.31154 0.0
H1730 H 0.65326 0.40822 0.28042 0.0
H1731 H 0.66237 0.48176 0.26423 0.0
H1732 H 0.65391 0.61369 0.18742 0.0
H1733 H 0.65307 0.5843 0.21782 0.0
C1734 C 0.36526 0.60266 0.30577 0.0
C1735 C 0.36735 0.57145 0.31967 0.0
C1736 C 0.36407 0.58781 0.28818 0.0
C1737 C 0.35318 0.48757 0.26081 0.0
H1738 H 0.38366 0.54668 0.22537 0.0
C1739 C 0.36458 0.41306 0.19041 0.0
C1740 C 0.36604 0.44371 0.17625 0.0
C1741 C 0.36372 0.42865 0.20793 0.0
C1742 C 0.37482 0.53013 0.23501 0.0
H1743 H 0.36934 0.49986 0.32584 0.0
H1744 H 0.36713 0.47441 0.29539 0.0
H1745 H 0.38348 0.57514 0.25562 0.0
H1746 H 0.36679 0.51512 0.16955 0.0
H1747 H 0.36477 0.54185 0.19973 0.0
H1748 H 0.34444 0.44265 0.24019 0.0
C1749 C 0.3664 0.5103 0.29805 0.0
C1750 C 0.37475 0.54651 0.25237 0.0
C1751 C 0.36778 0.52507 0.31555 0.0
C1752 C 0.36593 0.49026 0.18003 0.0
C1753 C 0.36492 0.50575 0.19745 0.0
C1754 C 0.35315 0.47134 0.24339 0.0
C1755 C 0.36467 0.54143 0.28414 0.0
C1756 C 0.364 0.52531 0.26549 0.0
C1757 C 0.36412 0.47525 0.21167 0.0
C1758 C 0.36402 0.49234 0.23026 0.0
H1759 H 0.36464 0.63855 0.30844 0.0
H1760 H 0.36255 0.61261 0.27773 0.0
H1761 H 0.34461 0.47076 0.27059 0.0
H1762 H 0.36435 0.37702 0.18801 0.0
H1763 H 0.36318 0.40411 0.21856 0.0
C1764 C 0.37023 0.42372 0.80648 0.0
C1765 C 0.36643 0.45205 0.82097 0.0
C1766 C 0.37006 0.44078 0.78916 0.0
C1767 C 0.37227 0.55024 0.7645 0.0
H1768 H 0.35959 0.47442 0.72445 0.0
C1769 C 0.36479 0.61319 0.69128 0.0
C1770 C 0.37434 0.58683 0.67875 0.0
C1771 C 0.36349 0.5989 0.70897 0.0
C1772 C 0.36321 0.49593 0.73553 0.0
H1773 H 0.35811 0.52005 0.82835 0.0
H1774 H 0.35696 0.54893 0.79835 0.0
H1775 H 0.35676 0.44445 0.7544 0.0
H1776 H 0.39077 0.52603 0.67511 0.0
H1777 H 0.38813 0.50084 0.70572 0.0
H1778 H 0.37829 0.60201 0.74541 0.0
C1779 C 0.36096 0.51404 0.80031 0.0
C1780 C 0.36171 0.4787 0.75273 0.0
C1781 C 0.36146 0.49723 0.8176 0.0
C1782 C 0.38309 0.54684 0.68438 0.0
C1783 C 0.38154 0.53228 0.70189 0.0
C1784 C 0.37348 0.56768 0.74729 0.0
C1785 C 0.36567 0.4864 0.78584 0.0
C1786 C 0.36643 0.5054 0.76748 0.0
C1787 C 0.37151 0.55775 0.71431 0.0
C1788 C 0.36919 0.54049 0.73264 0.0
H1789 H 0.37384 0.38862 0.80847 0.0
H1790 H 0.3739 0.41834 0.77845 0.0
H1791 H 0.37638 0.57173 0.77541 0.0
H1792 H 0.35783 0.64402 0.68733 0.0
H1793 H 0.35569 0.61917 0.71832 0.0
C1794 C 0.63199 0.52171 0.81903 0.0
C1795 C 0.63758 0.56618 0.82288 0.0
C1796 C 0.63251 0.50519 0.80172 0.0
C1797 C 0.65287 0.5281 0.75717 0.0
H1798 H 0.61511 0.44309 0.74182 0.0
C1799 C 0.64059 0.48033 0.68388 0.0
C1800 C 0.63773 0.43446 0.67973 0.0
C1801 C 0.64163 0.49477 0.70145 0.0
C1802 C 0.62588 0.46639 0.74598 0.0
H1803 H 0.64798 0.62823 0.81133 0.0
H1804 H 0.64816 0.60008 0.78095 0.0
H1805 H 0.6141 0.47317 0.77184 0.0
H1806 H 0.63445 0.36765 0.69111 0.0
H1807 H 0.63571 0.3933 0.72192 0.0
H1808 H 0.66422 0.52222 0.731 0.0
C1809 C 0.64381 0.57749 0.79143 0.0
C1810 C 0.62535 0.48367 0.76323 0.0
C1811 C 0.64351 0.59389 0.80886 0.0
C1812 C 0.63634 0.40328 0.69374 0.0
C1813 C 0.63708 0.41794 0.7114 0.0
C1814 C 0.65325 0.51123 0.73985 0.0
C1815 C 0.63838 0.53279 0.78762 0.0
C1816 C 0.63885 0.51477 0.76911 0.0
C1817 C 0.63965 0.46391 0.71542 0.0
C1818 C 0.63976 0.4802 0.73406 0.0
H1819 H 0.62732 0.49927 0.82946 0.0
H1820 H 0.62855 0.4704 0.79947 0.0
H1821 H 0.66373 0.55122 0.76123 0.0
H1822 H 0.64187 0.50549 0.67354 0.0
H1823 H 0.6435 0.53043 0.70411 0.0
C1824 C 0.1398 0.17763 0.93375 0.0
C1825 C 0.1277 0.14589 0.92613 0.0
C1826 C 0.13986 0.18444 0.95214 0.0
C1827 C 0.11122 0.16611 0.99239 0.0
H1828 H 0.15831 0.1623 0.01743 0.0
C1829 C 0.11619 0.11486 0.06529 0.0
C1830 C 0.12863 0.13767 0.07648 0.0
C1831 C 0.116 0.12353 0.04714 0.0
C1832 C 0.14507 0.16423 0.01062 0.0
H1833 H 0.10566 0.09788 0.93152 0.0
H1834 H 0.10573 0.10965 0.96339 0.0
H1835 H 0.15803 0.16443 0.98501 0.0
H1836 H 0.15039 0.18813 0.07759 0.0
H1837 H 0.15015 0.20337 0.04557 0.0
H1838 H 0.09823 0.16462 0.01787 0.0
C1839 C 0.11519 0.12935 0.95533 0.0
C1840 C 0.14491 0.16547 0.99206 0.0
C1841 C 0.11525 0.12231 0.93707 0.0
C1842 C 0.14068 0.17008 0.06921 0.0
C1843 C 0.14061 0.17854 0.05092 0.0
C1844 C 0.11139 0.16485 0.01087 0.0
C1845 C 0.12759 0.16016 0.96313 0.0
C1846 C 0.12796 0.1652 0.98274 0.0
C1847 C 0.12826 0.15527 0.0397 0.0
C1848 C 0.12829 0.16266 0.0202 0.0
H1849 H 0.14954 0.19618 0.92556 0.0
H1850 H 0.14951 0.20859 0.95777 0.0
H1851 H 0.09794 0.16681 0.98561 0.0
H1852 H 0.1066 0.09004 0.07058 0.0
H1853 H 0.10648 0.10458 0.03887 0.0
C1854 C 0.89096 0.92476 0.93519 0.0
C1855 C 0.88569 0.88852 0.92424 0.0
C1856 C 0.8931 0.91876 0.95341 0.0
C1857 C 0.87751 0.84728 0.9903 0.0
H1858 H 0.91618 0.91109 0.0159 0.0
C1859 C 0.88265 0.84428 0.06721 0.0
C1860 C 0.88533 0.88683 0.07509 0.0
C1861 C 0.88478 0.83872 0.04886 0.0
C1862 C 0.90526 0.89315 0.00897 0.0
H1863 H 0.87896 0.81712 0.92397 0.0
H1864 H 0.88271 0.80668 0.95594 0.0
H1865 H 0.91624 0.91152 0.98362 0.0
H1866 H 0.89301 0.9565 0.06986 0.0
H1867 H 0.89663 0.94681 0.03814 0.0
H1868 H 0.86627 0.82988 0.01572 0.0
C1869 C 0.88507 0.83984 0.95032 0.0
C1870 C 0.90529 0.8934 0.99046 0.0
C1871 C 0.88304 0.84578 0.93198 0.0
C1872 C 0.89074 0.92324 0.06429 0.0
C1873 C 0.89297 0.91762 0.04606 0.0
C1874 C 0.87747 0.84704 0.00887 0.0
C1875 C 0.88999 0.87639 0.96127 0.0
C1876 C 0.89117 0.87138 0.98088 0.0
C1877 C 0.88983 0.87546 0.03805 0.0
C1878 C 0.8911 0.8709 0.01842 0.0
H1879 H 0.89319 0.95816 0.92973 0.0
H1880 H 0.89667 0.94781 0.96144 0.0
H1881 H 0.86634 0.83029 0.98336 0.0
H1882 H 0.87847 0.8155 0.07512 0.0
H1883 H 0.8824 0.80571 0.04313 0.0
C1884 C 0.13543 0.84229 0.43426 0.0
C1885 C 0.13035 0.8835 0.42635 0.0
C1886 C 0.13557 0.8378 0.45277 0.0
C1887 C 0.13744 0.90865 0.49332 0.0
H1888 H 0.11967 0.80179 0.51775 0.0
C1889 C 0.11711 0.91415 0.56602 0.0
C1890 C 0.1261 0.88348 0.57736 0.0
C1891 C 0.11796 0.90873 0.54772 0.0
C1892 C 0.12484 0.83159 0.51104 0.0
H1893 H 0.12059 0.95154 0.43169 0.0
H1894 H 0.12042 0.94343 0.46358 0.0
H1895 H 0.12068 0.80292 0.48523 0.0
H1896 H 0.14186 0.82113 0.57842 0.0
H1897 H 0.14302 0.81112 0.54608 0.0
H1898 H 0.14101 0.93787 0.51899 0.0
C1899 C 0.12489 0.91494 0.45565 0.0
C1900 C 0.12547 0.83226 0.49246 0.0
C1901 C 0.12488 0.91951 0.43729 0.0
C1902 C 0.1349 0.84543 0.56999 0.0
C1903 C 0.13558 0.83971 0.55154 0.0
C1904 C 0.13662 0.90812 0.51176 0.0
C1905 C 0.13056 0.87438 0.46369 0.0
C1906 C 0.13139 0.87127 0.48338 0.0
C1907 C 0.12757 0.87211 0.54027 0.0
C1908 C 0.12997 0.87001 0.5208 0.0
H1909 H 0.13972 0.81389 0.4262 0.0
H1910 H 0.14005 0.80611 0.45852 0.0
H1911 H 0.14262 0.93876 0.48683 0.0
H1912 H 0.10989 0.94335 0.57128 0.0
H1913 H 0.11139 0.93376 0.53932 0.0
C1914 C 0.8764 0.17611 0.56739 0.0
C1915 C 0.88231 0.13508 0.57491 0.0
C1916 C 0.8779 0.18341 0.54905 0.0
C1917 C 0.90245 0.14114 0.50898 0.0
H1918 H 0.85985 0.18686 0.48305 0.0
C1919 C 0.89178 0.10488 0.43511 0.0
C1920 C 0.88443 0.13856 0.424 0.0
C1921 C 0.893 0.11156 0.45338 0.0
C1922 C 0.872 0.17479 0.4901 0.0
H1923 H 0.89488 0.07011 0.56908 0.0
H1924 H 0.89743 0.08273 0.53743 0.0
H1925 H 0.8593 0.18597 0.51547 0.0
H1926 H 0.87284 0.20612 0.42344 0.0
H1927 H 0.87491 0.21777 0.45557 0.0
H1928 H 0.91497 0.12881 0.48372 0.0
C1929 C 0.89172 0.10946 0.54558 0.0
C1930 C 0.87168 0.17427 0.50869 0.0
C1931 C 0.89011 0.10207 0.56377 0.0
C1932 C 0.87863 0.17956 0.43162 0.0
C1933 C 0.87969 0.18611 0.45002 0.0
C1934 C 0.90276 0.14162 0.49047 0.0
C1935 C 0.88556 0.15006 0.53792 0.0
C1936 C 0.88672 0.1563 0.51834 0.0
C1937 C 0.88683 0.15203 0.46112 0.0
C1938 C 0.88735 0.15732 0.48077 0.0
H1939 H 0.8703 0.20219 0.5756 0.0
H1940 H 0.8731 0.21516 0.54359 0.0
H1941 H 0.91444 0.12801 0.51598 0.0
H1942 H 0.89644 0.07291 0.42973 0.0
H1943 H 0.89833 0.08433 0.4615 0.0
C1944 C 0.61737 0.60855 0.06423 0.0
C1945 C 0.62558 0.64025 0.07566 0.0
C1946 C 0.61788 0.61457 0.04595 0.0
C1947 C 0.62439 0.69504 0.00947 0.0
H1948 H 0.63766 0.58597 0.98398 0.0
C1949 C 0.63392 0.67998 0.93199 0.0
C1950 C 0.62583 0.64107 0.92458 0.0
C1951 C 0.63434 0.68587 0.95048 0.0
C1952 C 0.63385 0.61671 0.99087 0.0
H1953 H 0.63996 0.70449 0.07681 0.0
H1954 H 0.64084 0.71514 0.04447 0.0
H1955 H 0.63767 0.58581 0.01616 0.0
H1956 H 0.61073 0.57952 0.93067 0.0
H1957 H 0.61142 0.58983 0.96252 0.0
H1958 H 0.62037 0.72557 0.98387 0.0
C1959 C 0.63404 0.68555 0.04986 0.0
C1960 C 0.63385 0.61662 0.00932 0.0
C1961 C 0.63352 0.67948 0.06834 0.0
C1962 C 0.61737 0.60951 0.93591 0.0
C1963 C 0.61782 0.61532 0.95421 0.0
C1964 C 0.6244 0.69514 0.99084 0.0
C1965 C 0.62665 0.65243 0.03848 0.0
C1966 C 0.62861 0.6553 0.01887 0.0
C1967 C 0.62673 0.65286 0.96177 0.0
C1968 C 0.62863 0.6555 0.98138 0.0
H1969 H 0.61084 0.5783 0.06939 0.0
H1970 H 0.61164 0.589 0.03759 0.0
H1971 H 0.62034 0.7254 0.01648 0.0
H1972 H 0.64054 0.70489 0.92359 0.0
H1973 H 0.64126 0.71521 0.95594 0.0
C1974 C 0.392 0.40604 0.93466 0.0
C1975 C 0.37983 0.38232 0.9235 0.0
C1976 C 0.39235 0.39732 0.9528 0.0
C1977 C 0.36362 0.35469 0.98921 0.0
H1978 H 0.41051 0.35702 0.01462 0.0
C1979 C 0.3683 0.34359 0.06611 0.0
C1980 C 0.37972 0.37682 0.07371 0.0
C1981 C 0.36859 0.33624 0.04776 0.0
C1982 C 0.3973 0.35631 0.00773 0.0
H1983 H 0.35875 0.33015 0.92243 0.0
H1984 H 0.3593 0.31481 0.9544 0.0
H1985 H 0.4105 0.35841 0.98234 0.0
H1986 H 0.40092 0.42701 0.06833 0.0
H1987 H 0.40147 0.41428 0.03651 0.0
H1988 H 0.35043 0.35387 0.0147 0.0
C1989 C 0.3685 0.34037 0.94905 0.0
C1990 C 0.39729 0.35713 0.98924 0.0
C1991 C 0.36826 0.3489 0.93078 0.0
C1992 C 0.39186 0.40141 0.06279 0.0
C1993 C 0.39228 0.39383 0.04458 0.0
C1994 C 0.36363 0.35386 0.00777 0.0
C1995 C 0.38052 0.36466 0.96026 0.0
C1996 C 0.38046 0.35758 0.97976 0.0
C1997 C 0.38055 0.36149 0.03679 0.0
C1998 C 0.38047 0.3559 0.01722 0.0
H1999 H 0.40119 0.43172 0.92936 0.0
H2000 H 0.4016 0.41706 0.96106 0.0
H2001 H 0.35041 0.3553 0.9823 0.0
H2002 H 0.35881 0.32422 0.07427 0.0
H2003 H 0.35947 0.31091 0.04214 0.0
C2004 C 0.63576 0.34253 0.43247 0.0
C2005 C 0.62956 0.38271 0.42448 0.0
C2006 C 0.63578 0.33806 0.45099 0.0
C2007 C 0.6345 0.40901 0.49168 0.0
H2008 H 0.62114 0.2979 0.51572 0.0
C2009 C 0.6147 0.40728 0.5648 0.0
C2010 C 0.62459 0.37749 0.5758 0.0
C2011 C 0.61571 0.40333 0.54643 0.0
C2012 C 0.62506 0.32897 0.50913 0.0
H2013 H 0.61766 0.44876 0.42966 0.0
H2014 H 0.6172 0.44058 0.46156 0.0
H2015 H 0.62219 0.29993 0.48323 0.0
H2016 H 0.64221 0.3181 0.57621 0.0
H2017 H 0.64363 0.31056 0.54378 0.0
H2018 H 0.63681 0.43841 0.51746 0.0
C2019 C 0.62269 0.41301 0.45371 0.0
C2020 C 0.62572 0.33017 0.49055 0.0
C2021 C 0.62284 0.4176 0.43534 0.0
C2022 C 0.63454 0.34171 0.56803 0.0
C2023 C 0.63537 0.33741 0.54953 0.0
C2024 C 0.63364 0.40792 0.51012 0.0
C2025 C 0.62947 0.37359 0.46185 0.0
C2026 C 0.63009 0.37053 0.48158 0.0
C2027 C 0.62635 0.369 0.53858 0.0
C2028 C 0.6286 0.36819 0.51904 0.0
H2029 H 0.64104 0.31503 0.42446 0.0
H2030 H 0.64117 0.30728 0.45679 0.0
H2031 H 0.6385 0.44032 0.48531 0.0
H2032 H 0.60657 0.43459 0.57039 0.0
H2033 H 0.60834 0.42764 0.53831 0.0
C2034 C 0.37214 0.67742 0.5655 0.0
C2035 C 0.37807 0.6368 0.57335 0.0
C2036 C 0.37342 0.6835 0.54712 0.0
C2037 C 0.39861 0.64313 0.50784 0.0
H2038 H 0.35474 0.67738 0.48114 0.0
C2039 C 0.39195 0.60527 0.43376 0.0
C2040 C 0.38206 0.63489 0.4227 0.0
C2041 C 0.39258 0.61233 0.45201 0.0
C2042 C 0.36724 0.66868 0.48837 0.0
H2043 H 0.39032 0.57117 0.5681 0.0
H2044 H 0.39278 0.5821 0.53623 0.0
H2045 H 0.35378 0.67775 0.51351 0.0
H2046 H 0.36566 0.69626 0.42201 0.0
H2047 H 0.36705 0.70924 0.45404 0.0
H2048 H 0.41213 0.63383 0.4829 0.0
C2049 C 0.38709 0.60915 0.54424 0.0
C2050 C 0.36666 0.66879 0.50693 0.0
C2051 C 0.38555 0.60279 0.56249 0.0
C2052 C 0.37334 0.67276 0.43023 0.0
C2053 C 0.37401 0.67996 0.44858 0.0
C2054 C 0.39927 0.64346 0.48936 0.0
C2055 C 0.38097 0.64943 0.53633 0.0
C2056 C 0.38219 0.65487 0.51682 0.0
C2057 C 0.3835 0.64953 0.45972 0.0
C2058 C 0.38345 0.655 0.47935 0.0
H2059 H 0.36626 0.7042 0.57351 0.0
H2060 H 0.36863 0.71492 0.54136 0.0
H2061 H 0.4109 0.63298 0.51515 0.0
H2062 H 0.39896 0.57597 0.42834 0.0
H2063 H 0.39977 0.58773 0.46012 0.0
C2064 C 0.9332 0.98344 0.11279 0.0
C2065 C 0.92604 0.95837 0.12702 0.0
C2066 C 0.95196 0.99654 0.11263 0.0
C2067 C 0.99165 0.02185 0.14094 0.0
H2068 H 0.02269 0.98523 0.10148 0.0
C2069 C 0.0715 0.04469 0.14346 0.0
C2070 C 0.08105 0.05386 0.12767 0.0
C2071 C 0.05261 0.03301 0.14317 0.0
C2072 C 0.01425 0.9966 0.11249 0.0
H2073 H 0.93259 0.92784 0.15231 0.0
H2074 H 0.96525 0.95178 0.15228 0.0
H2075 H 0.98952 0.96777 0.10121 0.0
H2076 H 0.07846 0.05804 0.09916 0.0
H2077 H 0.04542 0.03959 0.09858 0.0
H2078 H 0.01599 0.05219 0.15202 0.0
C2079 C 0.95644 0.96107 0.14122 0.0
C2080 C 0.99521 0.9863 0.11233 0.0
C2081 C 0.93781 0.94726 0.14121 0.0
C2082 C 0.07145 0.05057 0.11153 0.0
C2083 C 0.05247 0.03981 0.11124 0.0
C2084 C 0.01059 0.03305 0.14095 0.0
C2085 C 0.96376 0.98549 0.12686 0.0
C2086 C 0.98376 0.99842 0.12663 0.0
C2087 C 0.04269 0.03101 0.12707 0.0
C2088 C 0.02229 0.02014 0.12682 0.0
H2089 H 0.92446 0.99161 0.10155 0.0
H2090 H 0.95727 0.01532 0.10139 0.0
H2091 H 0.98309 0.03195 0.15207 0.0
H2092 H 0.07863 0.04678 0.15608 0.0
H2093 H 0.04585 0.02555 0.15564 0.0
C2094 C 0.93961 0.06939 0.35848 0.0
C2095 C 0.92744 0.05933 0.37254 0.0
C2096 C 0.9582 0.05546 0.35888 0.0
C2097 C 0.99535 0.01697 0.38968 0.0
H2098 H 0.01999 0.98126 0.34617 0.0
C2099 C 0.06943 0.93888 0.38835 0.0
C2100 C 0.08151 0.95244 0.37472 0.0
C2101 C 0.05073 0.95213 0.38831 0.0
C2102 C 0.01339 0.99163 0.35841 0.0
H2103 H 0.92523 0.02532 0.39785 0.0
H2104 H 0.95763 0.99971 0.39837 0.0
H2105 H 0.98714 1.00174 0.34562 0.0
H2106 H 0.08365 0.99176 0.35063 0.0
H2107 H 0.05096 0.01535 0.35058 0.0
H2108 H 0.02164 1.00642 0.40246 0.0
C2109 C 0.95287 0.01945 0.38718 0.0
C2110 C 0.9945 1.0034 0.35812 0.0
C2111 C 0.93422 0.03367 0.38681 0.0
C2112 C 0.07463 0.98067 0.36129 0.0
C2113 C 0.05587 0.9938 0.36118 0.0
C2114 C 0.01423 1.00499 0.38998 0.0
C2115 C 0.96517 0.03045 0.37327 0.0
C2116 C 0.9852 0.01647 0.37373 0.0
C2117 C 0.04364 0.97942 0.37464 0.0
C2118 C 0.02353 0.99233 0.37434 0.0
H2119 H 0.93483 0.08845 0.34712 0.0
H2120 H 0.96718 0.06518 0.34802 0.0
H2121 H 0.98882 0.02753 0.40193 0.0
H2122 H 0.07444 0.9178 0.39905 0.0
H2123 H 0.04174 0.94016 0.39883 0.0
C2124 C 0.0713 0.05845 0.89049 0.0
C2125 C 0.08096 0.06307 0.87443 0.0
C2126 C 0.05237 0.04705 0.89058 0.0
C2127 C 0.01071 0.0402 0.86057 0.0
H2128 H 0.98994 0.97128 0.89952 0.0
C2129 C 0.93877 0.95026 0.85908 0.0
C2130 C 0.92668 0.96084 0.87311 0.0
C2131 C 0.95731 0.96473 0.85936 0.0
C2132 C 0.99555 0.99079 0.88862 0.0
H2133 H 0.07869 0.05797 0.84594 0.0
H2134 H 0.04606 0.03563 0.84602 0.0
H2135 H 0.02294 0.99058 0.89965 0.0
H2136 H 0.92453 0.99364 0.89862 0.0
H2137 H 0.95719 0.01839 0.8993 0.0
H2138 H 0.98332 0.03821 0.84923 0.0
C2139 C 0.05271 0.04249 0.85859 0.0
C2140 C 0.01449 1.00218 0.8887 0.0
C2141 C 0.07152 0.0548 0.85851 0.0
C2142 C 0.93349 0.98588 0.8875 0.0
C2143 C 0.95217 0.99958 0.88796 0.0
C2144 C 0.99189 0.02791 0.86032 0.0
C2145 C 0.04272 0.03895 0.87462 0.0
C2146 C 0.02241 0.02706 0.87466 0.0
C2147 C 0.96424 0.98921 0.87386 0.0
C2148 C 0.98412 1.00314 0.87435 0.0
H2149 H 0.07821 0.06527 0.90296 0.0
H2150 H 0.04526 0.04566 0.90321 0.0
H2151 H 0.016 0.06036 0.84972 0.0
H2152 H 0.93383 0.93091 0.84784 0.0
H2153 H 0.96634 0.95599 0.84839 0.0
C2154 C 0.93403 0.04296 0.61052 0.0
C2155 C 0.9255 0.05658 0.62638 0.0
C2156 C 0.95298 0.03142 0.61021 0.0
C2157 C 0.99664 0.04443 0.63681 0.0
H2158 H 0.01523 0.95 0.60594 0.0
C2159 C 0.0705 0.96806 0.64365 0.0
C2160 C 0.08088 0.96305 0.62801 0.0
C2161 C 0.05166 0.98 0.64298 0.0
C2162 C 0.01026 0.97671 0.61453 0.0
H2163 H 0.9299 0.06715 0.65446 0.0
H2164 H 0.96257 0.04586 0.6541 0.0
H2165 H 0.98211 0.96879 0.60571 0.0
H2166 H 0.07968 0.96612 0.59938 0.0
H2167 H 0.04661 0.98661 0.59817 0.0
H2168 H 0.02475 0.05139 0.64592 0.0
C2169 C 0.95496 0.04531 0.64173 0.0
C2170 C 0.99126 0.98765 0.61437 0.0
C2171 C 0.93614 0.05722 0.64199 0.0
C2172 C 0.07205 0.97027 0.61165 0.0
C2173 C 0.0531 0.98152 0.61096 0.0
C2174 C 0.01556 0.03309 0.63711 0.0
C2175 C 0.96378 0.03278 0.62581 0.0
C2176 C 0.98413 0.02156 0.62558 0.0
C2177 C 0.0427 0.98666 0.62663 0.0
C2178 C 0.0226 0.99905 0.62601 0.0
H2179 H 0.92621 0.0427 0.59825 0.0
H2180 H 0.95924 0.02254 0.59765 0.0
H2181 H 0.99189 0.0715 0.64532 0.0
H2182 H 0.07695 0.96256 0.65644 0.0
H2183 H 0.04401 0.98321 0.65528 0.0
C2184 C 0.4356 0.46514 0.14121 0.0
C2185 C 0.42569 0.45978 0.12531 0.0
C2186 C 0.45436 0.47787 0.141 0.0
C2187 C 0.49636 0.47543 0.11335 0.0
H2188 H 0.51403 0.56992 0.14463 0.0
C2189 C 0.57233 0.54269 0.11024 0.0
C2190 C 0.58073 0.55596 0.1262 0.0
C2191 C 0.55341 0.53107 0.10976 0.0
C2192 C 0.50946 0.54295 0.13599 0.0
H2193 H 0.4276 0.46354 0.09672 0.0
H2194 H 0.4605 0.48537 0.09632 0.0
H2195 H 0.48117 0.54951 0.14469 0.0
H2196 H 0.57612 0.56574 0.15429 0.0
H2197 H 0.54343 0.54454 0.15363 0.0
H2198 H 0.52465 0.46792 0.10493 0.0
C2199 C 0.45373 0.47982 0.10895 0.0
C2200 C 0.49056 0.53144 0.13598 0.0
C2201 C 0.43487 0.46776 0.10918 0.0
C2202 C 0.56997 0.55624 0.14173 0.0
C2203 C 0.55115 0.54431 0.14131 0.0
C2204 C 0.51533 0.48656 0.1135 0.0
C2205 C 0.46369 0.485 0.12486 0.0
C2206 C 0.48378 0.49754 0.12467 0.0
C2207 C 0.54249 0.532 0.12529 0.0
C2208 C 0.52219 0.52043 0.12486 0.0
H2209 H 0.42885 0.45916 0.15383 0.0
H2210 H 0.46168 0.48116 0.15347 0.0
H2211 H 0.49159 0.44879 0.10463 0.0
H2212 H 0.58024 0.54266 0.09801 0.0
H2213 H 0.54726 0.5224 0.09713 0.0
C2214 C 0.4367 0.55406 0.35472 0.0
C2215 C 0.42598 0.55282 0.37027 0.0
C2216 C 0.45546 0.54125 0.3549 0.0
C2217 C 0.49526 0.52196 0.3859 0.0
H2218 H 0.51761 0.46497 0.34482 0.0
C2219 C 0.56899 0.44223 0.38688 0.0
C2220 C 0.58069 0.45184 0.37246 0.0
C2221 C 0.55022 0.45486 0.38658 0.0
C2222 C 0.5116 0.48123 0.35634 0.0
H2223 H 0.42635 0.53516 0.39811 0.0
H2224 H 0.45883 0.51099 0.39835 0.0
H2225 H 0.48462 0.48452 0.34442 0.0
H2226 H 0.58201 0.48214 0.34641 0.0
H2227 H 0.54906 0.50404 0.34577 0.0
H2228 H 0.52225 0.51762 0.39791 0.0
C2229 C 0.45299 0.5234 0.38606 0.0
C2230 C 0.49266 0.4926 0.35612 0.0
C2231 C 0.43425 0.53668 0.3859 0.0
C2232 C 0.57331 0.47468 0.35776 0.0
C2233 C 0.55443 0.48676 0.35734 0.0
C2234 C 0.51414 0.51012 0.38617 0.0
C2235 C 0.46397 0.52598 0.37061 0.0
C2236 C 0.48418 0.51325 0.37089 0.0
C2237 C 0.54266 0.47701 0.37176 0.0
C2238 C 0.52256 0.48973 0.37139 0.0
H2239 H 0.43064 0.56553 0.34238 0.0
H2240 H 0.46337 0.54432 0.34275 0.0
H2241 H 0.48945 0.53862 0.3974 0.0
H2242 H 0.57436 0.42467 0.39839 0.0
H2243 H 0.54152 0.44644 0.39783 0.0
C2244 C 0.43549 0.47088 0.88871 0.0
C2245 C 0.42611 0.46588 0.87252 0.0
C2246 C 0.45448 0.48164 0.88907 0.0
C2247 C 0.49692 0.48087 0.86063 0.0
H2248 H 0.51678 0.55985 0.89696 0.0
C2249 C 0.57131 0.55552 0.8574 0.0
C2250 C 0.58172 0.55667 0.87315 0.0
C2251 C 0.55252 0.54318 0.85761 0.0
C2252 C 0.51149 0.53734 0.88684 0.0
H2253 H 0.42899 0.46977 0.84403 0.0
H2254 H 0.46195 0.48978 0.84456 0.0
H2255 H 0.48361 0.54212 0.8967 0.0
H2256 H 0.58066 0.54541 0.90147 0.0
H2257 H 0.54775 0.5236 0.90187 0.0
H2258 H 0.52478 0.47678 0.85062 0.0
C2259 C 0.45487 0.48425 0.85704 0.0
C2260 C 0.49244 0.52709 0.88669 0.0
C2261 C 0.43593 0.47312 0.8567 0.0
C2262 C 0.57301 0.5445 0.88911 0.0
C2263 C 0.55413 0.53251 0.88935 0.0
C2264 C 0.51592 0.49138 0.86071 0.0
C2265 C 0.46449 0.48822 0.87322 0.0
C2266 C 0.48485 0.49882 0.87354 0.0
C2267 C 0.54363 0.53183 0.8736 0.0
C2268 C 0.52345 0.51983 0.87379 0.0
H2269 H 0.42829 0.46498 0.90111 0.0
H2270 H 0.46139 0.48373 0.90178 0.0
H2271 H 0.49172 0.45823 0.85051 0.0
H2272 H 0.57768 0.56449 0.84488 0.0
H2273 H 0.54484 0.54351 0.84527 0.0
C2274 C 0.4321 0.5402 0.64042 0.0
C2275 C 0.42523 0.56506 0.62599 0.0
C2276 C 0.45081 0.52673 0.64091 0.0
C2277 C 0.49127 0.50291 0.61251 0.0
H2278 H 0.52058 0.52614 0.65462 0.0
C2279 C 0.57097 0.4737 0.61312 0.0
C2280 C 0.57918 0.45747 0.62876 0.0
C2281 C 0.55229 0.48735 0.61291 0.0
C2282 C 0.5126 0.51865 0.64283 0.0
H2283 H 0.43225 0.5939 0.60051 0.0
H2284 H 0.46482 0.56985 0.60121 0.0
H2285 H 0.48772 0.54681 0.65406 0.0
H2286 H 0.57445 0.44495 0.65664 0.0
H2287 H 0.54178 0.46675 0.65622 0.0
H2288 H 0.51586 0.47376 0.60135 0.0
C2289 C 0.45585 0.56109 0.61222 0.0
C2290 C 0.49373 0.5307 0.64251 0.0
C2291 C 0.43725 0.57511 0.61186 0.0
C2292 C 0.56844 0.45655 0.6443 0.0
C2293 C 0.54971 0.46968 0.64408 0.0
C2294 C 0.51007 0.49029 0.61289 0.0
C2295 C 0.46291 0.53707 0.62681 0.0
C2296 C 0.48286 0.52319 0.62732 0.0
C2297 C 0.54126 0.48501 0.62835 0.0
C2298 C 0.52109 0.49819 0.62802 0.0
H2299 H 0.42312 0.53212 0.6515 0.0
H2300 H 0.4558 0.50797 0.65227 0.0
H2301 H 0.48322 0.4962 0.60067 0.0
H2302 H 0.57889 0.47503 0.60091 0.0
H2303 H 0.54653 0.49986 0.60061 0.0
C2304 C 0.13335 0.77652 0.11868 0.0
C2305 C 0.11724 0.79681 0.12569 0.0
C2306 C 0.13651 0.73007 0.1207 0.0
C2307 C 0.12188 0.62999 0.14728 0.0
H2308 H 0.14225 0.56241 0.10781 0.0
C2309 C 0.12481 0.4343 0.14723 0.0
C2310 C 0.14133 0.41434 0.14103 0.0
C2311 C 0.12164 0.4807 0.14505 0.0
C2312 C 0.1367 0.5808 0.11903 0.0
H2313 H 0.09216 0.78396 0.14088 0.0
H2314 H 0.09743 0.70324 0.14405 0.0
H2315 H 0.1377 0.64371 0.10506 0.0
H2316 H 0.16716 0.42746 0.12708 0.0
H2317 H 0.16171 0.50815 0.12341 0.0
H2318 H 0.12079 0.56699 0.16121 0.0
C2319 C 0.10773 0.72316 0.13709 0.0
C2320 C 0.13414 0.62755 0.11747 0.0
C2321 C 0.10459 0.76951 0.13507 0.0
C2322 C 0.15437 0.44176 0.13221 0.0
C2323 C 0.15117 0.48803 0.12995 0.0
C2324 C 0.12439 0.58324 0.14882 0.0
C2325 C 0.12367 0.70265 0.12982 0.0
C2326 C 0.12669 0.65284 0.13158 0.0
C2327 C 0.13485 0.50826 0.1365 0.0
C2328 C 0.13184 0.55799 0.13472 0.0
H2329 H 0.14334 0.79633 0.11126 0.0
H2330 H 0.14906 0.71567 0.11512 0.0
H2331 H 0.11639 0.64831 0.15854 0.0
H2332 H 0.11452 0.41428 0.15418 0.0
H2333 H 0.10881 0.49501 0.15008 0.0
C2334 C 0.89146 0.24501 0.12461 0.0
C2335 C 0.87922 0.21672 0.11521 0.0
C2336 C 0.88757 0.29094 0.12677 0.0
C2337 C 0.85975 0.38414 0.10734 0.0
H2338 H 0.87327 0.44603 0.15072 0.0
C2339 C 0.83971 0.57059 0.12149 0.0
C2340 C 0.85322 0.59807 0.1296 0.0
C2341 C 0.84262 0.52409 0.11958 0.0
C2342 C 0.86958 0.42937 0.13845 0.0
H2343 H 0.853 0.21477 0.10104 0.0
H2344 H 0.84594 0.29476 0.10519 0.0
H2345 H 0.87808 0.36483 0.1483 0.0
H2346 H 0.88043 0.59802 0.14199 0.0
H2347 H 0.88557 0.51698 0.13853 0.0
H2348 H 0.85116 0.44882 0.09757 0.0
C2349 C 0.85877 0.28149 0.11063 0.0
C2350 C 0.87234 0.38272 0.13704 0.0
C2351 C 0.86269 0.23543 0.10844 0.0
C2352 C 0.86981 0.57794 0.13556 0.0
C2353 C 0.87266 0.53138 0.13375 0.0
C2354 C 0.85691 0.4308 0.10878 0.0
C2355 C 0.87125 0.30997 0.11968 0.0
C2356 C 0.86758 0.35945 0.12143 0.0
C2357 C 0.85905 0.50381 0.12584 0.0
C2358 C 0.8619 0.45406 0.12432 0.0
H2359 H 0.90419 0.23172 0.13026 0.0
H2360 H 0.89762 0.31172 0.13367 0.0
H2361 H 0.85619 0.36762 0.09501 0.0
H2362 H 0.82686 0.58505 0.1166 0.0
H2363 H 0.8318 0.50387 0.11353 0.0
C2364 C 0.11006 0.23868 0.3704 0.0
C2365 C 0.1213 0.21091 0.3811 0.0
C2366 C 0.11386 0.28475 0.36858 0.0
C2367 C 0.13972 0.37916 0.38999 0.0
H2368 H 0.12922 0.44003 0.34561 0.0
C2369 C 0.16156 0.56431 0.37535 0.0
C2370 C 0.14822 0.59208 0.36713 0.0
C2371 C 0.1584 0.51794 0.37736 0.0
C2372 C 0.13208 0.42358 0.35814 0.0
H2373 H 0.14568 0.21035 0.39805 0.0
H2374 H 0.15275 0.29028 0.39431 0.0
H2375 H 0.12433 0.35887 0.34801 0.0
H2376 H 0.12109 0.59286 0.35461 0.0
H2377 H 0.11562 0.51176 0.35801 0.0
H2378 H 0.14783 0.44409 0.39993 0.0
C2379 C 0.14067 0.27658 0.38764 0.0
C2380 C 0.12923 0.37697 0.35956 0.0
C2381 C 0.13677 0.23045 0.38959 0.0
C2382 C 0.13158 0.57243 0.36109 0.0
C2383 C 0.12852 0.52595 0.3629 0.0
C2384 C 0.14276 0.42574 0.3885 0.0
C2385 C 0.12917 0.30451 0.37722 0.0
C2386 C 0.13288 0.35406 0.37554 0.0
C2387 C 0.14192 0.49813 0.371 0.0
C2388 C 0.13885 0.44854 0.37259 0.0
H2389 H 0.09822 0.22488 0.36338 0.0
H2390 H 0.10451 0.30499 0.36061 0.0
H2391 H 0.1424 0.36306 0.40261 0.0
H2392 H 0.17445 0.57849 0.38027 0.0
H2393 H 0.16903 0.49742 0.38357 0.0
C2394 C 0.89832 0.45965 0.3863 0.0
C2395 C 0.88925 0.42912 0.37494 0.0
C2396 C 0.89215 0.50418 0.3879 0.0
C2397 C 0.86478 0.59103 0.36408 0.0
H2398 H 0.86842 0.65488 0.40878 0.0
C2399 C 0.83631 0.7724 0.3746 0.0
C2400 C 0.84738 0.80236 0.38449 0.0
C2401 C 0.84109 0.72674 0.37321 0.0
C2402 C 0.86749 0.63765 0.39616 0.0
H2403 H 0.86611 0.42135 0.35678 0.0
H2404 H 0.85497 0.49893 0.35994 0.0
H2405 H 0.8762 0.57487 0.40746 0.0
H2406 H 0.87229 0.80783 0.40053 0.0
H2407 H 0.88071 0.7281 0.39803 0.0
H2408 H 0.85593 0.65396 0.35285 0.0
C2409 C 0.86715 0.48856 0.36735 0.0
C2410 C 0.87195 0.59171 0.39539 0.0
C2411 C 0.87338 0.44388 0.36571 0.0
C2412 C 0.86354 0.78571 0.39272 0.0
C2413 C 0.86824 0.73994 0.39144 0.0
C2414 C 0.86021 0.63695 0.36488 0.0
C2415 C 0.87662 0.51948 0.37829 0.0
C2416 C 0.87082 0.56783 0.3793 0.0
C2417 C 0.857 0.70985 0.38178 0.0
C2418 C 0.86166 0.66089 0.38091 0.0
H2419 H 0.91042 0.4493 0.39383 0.0
H2420 H 0.89993 0.52696 0.39632 0.0
H2421 H 0.86402 0.57403 0.3514 0.0
H2422 H 0.82387 0.78425 0.36796 0.0
H2423 H 0.83208 0.70446 0.36575 0.0
C2424 C 0.8927 0.247 0.87512 0.0
C2425 C 0.88022 0.21888 0.88433 0.0
C2426 C 0.88907 0.29308 0.8731 0.0
C2427 C 0.8517 0.37905 0.87471 0.0
H2428 H 0.89277 0.46186 0.88208 0.0
C2429 C 0.84077 0.57264 0.87792 0.0
C2430 C 0.85421 0.60025 0.86978 0.0
C2431 C 0.8438 0.52623 0.87994 0.0
C2432 C 0.88118 0.43928 0.87976 0.0
H2433 H 0.85384 0.21738 0.89827 0.0
H2434 H 0.84741 0.29791 0.89461 0.0
H2435 H 0.89796 0.38086 0.88462 0.0
H2436 H 0.88138 0.60043 0.8573 0.0
H2437 H 0.88664 0.51956 0.86068 0.0
H2438 H 0.83493 0.43746 0.86971 0.0
C2439 C 0.86001 0.2841 0.88889 0.0
C2440 C 0.88416 0.39274 0.88123 0.0
C2441 C 0.86368 0.23789 0.89097 0.0
C2442 C 0.87085 0.58031 0.86386 0.0
C2443 C 0.87386 0.53386 0.86582 0.0
C2444 C 0.84872 0.42564 0.87317 0.0
C2445 C 0.87281 0.3124 0.88015 0.0
C2446 C 0.86948 0.36199 0.87868 0.0
C2447 C 0.86034 0.50611 0.87381 0.0
C2448 C 0.86344 0.45642 0.87564 0.0
H2449 H 0.90538 0.23339 0.86949 0.0
H2450 H 0.89903 0.31363 0.86595 0.0
H2451 H 0.84013 0.35633 0.87245 0.0
H2452 H 0.82791 0.58699 0.88287 0.0
H2453 H 0.83322 0.50618 0.88646 0.0
C2454 C 0.15506 0.45135 0.87117 0.0
C2455 C 0.14215 0.42396 0.86217 0.0
C2456 C 0.15185 0.49764 0.87333 0.0
C2457 C 0.1256 0.59291 0.85393 0.0
H2458 H 0.13777 0.65323 0.898 0.0
C2459 C 0.10556 0.7792 0.86721 0.0
C2460 C 0.11793 0.80639 0.87696 0.0
C2461 C 0.10874 0.73285 0.86525 0.0
C2462 C 0.13453 0.63711 0.8855 0.0
H2463 H 0.11559 0.42397 0.84858 0.0
H2464 H 0.10989 0.50476 0.85247 0.0
H2465 H 0.14236 0.57193 0.89534 0.0
H2466 H 0.14357 0.80573 0.8921 0.0
H2467 H 0.14939 0.72512 0.8883 0.0
H2468 H 0.11792 0.65803 0.84402 0.0
C2469 C 0.1226 0.4904 0.85773 0.0
C2470 C 0.13712 0.59038 0.884 0.0
C2471 C 0.12577 0.44398 0.85566 0.0
C2472 C 0.1338 0.78601 0.88439 0.0
C2473 C 0.13701 0.73958 0.88241 0.0
C2474 C 0.12308 0.63966 0.85541 0.0
C2475 C 0.13567 0.51791 0.86648 0.0
C2476 C 0.13266 0.56763 0.8682 0.0
C2477 C 0.12444 0.71225 0.87292 0.0
C2478 C 0.12748 0.66246 0.87123 0.0
H2479 H 0.16773 0.437 0.87653 0.0
H2480 H 0.16228 0.51775 0.88003 0.0
H2481 H 0.12232 0.57669 0.84146 0.0
H2482 H 0.09332 0.79372 0.86108 0.0
H2483 H 0.09864 0.71301 0.85799 0.0
C2484 C 0.83786 0.76544 0.62714 0.0
C2485 C 0.84879 0.79567 0.61721 0.0
C2486 C 0.84309 0.72017 0.62893 0.0
C2487 C 0.87144 0.63184 0.60734 0.0
H2488 H 0.86556 0.56892 0.65203 0.0
C2489 C 0.90185 0.45391 0.61957 0.0
C2490 C 0.89165 0.42334 0.63003 0.0
C2491 C 0.89598 0.49863 0.6176 0.0
C2492 C 0.86704 0.58576 0.63938 0.0
H2493 H 0.87397 0.80194 0.60158 0.0
H2494 H 0.88324 0.72302 0.60491 0.0
H2495 H 0.85723 0.64857 0.64991 0.0
H2496 H 0.86699 0.41582 0.64631 0.0
H2497 H 0.85652 0.49378 0.6426 0.0
H2498 H 0.88123 0.5691 0.59678 0.0
C2499 C 0.87049 0.73429 0.61115 0.0
C2500 C 0.86231 0.63153 0.63818 0.0
C2501 C 0.86529 0.77966 0.60941 0.0
C2502 C 0.87512 0.43836 0.63807 0.0
C2503 C 0.86925 0.48323 0.63612 0.0
C2504 C 0.87614 0.58608 0.60853 0.0
C2505 C 0.85937 0.70387 0.62081 0.0
C2506 C 0.86451 0.6552 0.62215 0.0
C2507 C 0.87972 0.51408 0.62602 0.0
C2508 C 0.87407 0.56244 0.62458 0.0
H2509 H 0.82517 0.77674 0.6335 0.0
H2510 H 0.83412 0.6977 0.63636 0.0
H2511 H 0.87299 0.64876 0.5947 0.0
H2512 H 0.91452 0.44336 0.61299 0.0
H2513 H 0.90451 0.5214 0.60985 0.0
C2514 C 0.13793 0.24248 0.6146 0.0
C2515 C 0.15466 0.22693 0.62209 0.0
C2516 C 0.13248 0.28767 0.61654 0.0
C2517 C 0.14082 0.3905 0.64364 0.0
H2518 H 0.12063 0.4531 0.60284 0.0
C2519 C 0.12847 0.58379 0.64392 0.0
C2520 C 0.11178 0.59927 0.63634 0.0
C2521 C 0.1341 0.53878 0.64182 0.0
C2522 C 0.12608 0.43606 0.61442 0.0
H2523 H 0.17841 0.24648 0.63807 0.0
H2524 H 0.16907 0.32508 0.64125 0.0
H2525 H 0.12889 0.37347 0.60046 0.0
H2526 H 0.08833 0.5798 0.61994 0.0
H2527 H 0.09792 0.50148 0.61654 0.0
H2528 H 0.13797 0.45302 0.65762 0.0
C2529 C 0.16009 0.30244 0.63392 0.0
C2530 C 0.13078 0.3903 0.61307 0.0
C2531 C 0.16555 0.2574 0.63194 0.0
C2532 C 0.10114 0.56893 0.62618 0.0
C2533 C 0.10676 0.52404 0.62406 0.0
C2534 C 0.1361 0.43624 0.645 0.0
C2535 C 0.14358 0.31834 0.6261 0.0
C2536 C 0.13822 0.36689 0.62766 0.0
C2537 C 0.1232 0.50816 0.63202 0.0
C2538 C 0.12866 0.45966 0.63042 0.0
H2539 H 0.12927 0.22003 0.60684 0.0
H2540 H 0.11955 0.29858 0.61053 0.0
H2541 H 0.14627 0.37344 0.65522 0.0
H2542 H 0.13695 0.60612 0.65191 0.0
H2543 H 0.14698 0.52793 0.64793 0.0
C2544 C 0.62909 0.93828 0.14084 0.0
C2545 C 0.61175 0.91988 0.13607 0.0
C2546 C 0.63312 0.98388 0.13742 0.0
C2547 C 0.61788 0.08142 0.10995 0.0
H2548 H 0.64096 0.15449 0.14647 0.0
C2549 C 0.61896 0.27402 0.10367 0.0
C2550 C 0.63581 0.29597 0.10738 0.0
C2551 C 0.61623 0.22908 0.1087 0.0
C2552 C 0.63464 0.13449 0.13608 0.0
H2553 H 0.58541 0.93447 0.12331 0.0
H2554 H 0.59231 0.01342 0.11747 0.0
H2555 H 0.63682 0.07332 0.1512 0.0
H2556 H 0.66282 0.28895 0.11967 0.0
H2557 H 0.65812 0.21005 0.12857 0.0
H2558 H 0.61564 0.14216 0.09482 0.0
C2559 C 0.60287 0.99293 0.12382 0.0
C2560 C 0.63232 0.0879 0.13877 0.0
C2561 C 0.59883 0.94765 0.1273 0.0
C2562 C 0.64957 0.27291 0.11698 0.0
C2563 C 0.64688 0.2277 0.12199 0.0
C2564 C 0.62018 0.12779 0.10729 0.0
C2565 C 0.61997 0.01189 0.12899 0.0
C2566 C 0.6237 0.06086 0.1258 0.0
C2567 C 0.6304 0.20477 0.11737 0.0
C2568 C 0.62836 0.15514 0.12039 0.0
H2569 H 0.63929 0.91785 0.14771 0.0
H2570 H 0.6465 0.99723 0.14142 0.0
H2571 H 0.61155 0.0616 0.09952 0.0
H2572 H 0.60824 0.29104 0.09609 0.0
H2573 H 0.60321 0.2129 0.10526 0.0
C2574 C 0.37226 0.73693 0.11415 0.0
C2575 C 0.38791 0.71662 0.12203 0.0
C2576 C 0.36899 0.78337 0.11603 0.0
C2577 C 0.38198 0.88325 0.14341 0.0
H2578 H 0.36418 0.95103 0.10287 0.0
C2579 C 0.37946 0.07885 0.14309 0.0
C2580 C 0.36336 0.09899 0.13604 0.0
C2581 C 0.38264 0.03242 0.14112 0.0
C2582 C 0.369 0.93257 0.11437 0.0
H2583 H 0.41203 0.72935 0.13858 0.0
H2584 H 0.40658 0.81006 0.14149 0.0
H2585 H 0.36882 0.86971 0.10036 0.0
H2586 H 0.33832 0.08617 0.12081 0.0
H2587 H 0.3438 1.00538 0.11748 0.0
H2588 H 0.38225 0.94621 0.15737 0.0
C2589 C 0.39672 0.79018 0.13396 0.0
C2590 C 0.37162 0.88583 0.11295 0.0
C2591 C 0.39997 0.74384 0.13211 0.0
C2592 C 0.35076 0.07171 0.12659 0.0
C2593 C 0.35399 0.02541 0.12454 0.0
C2594 C 0.37942 0.93 0.1448 0.0
C2595 C 0.38125 0.81072 0.12585 0.0
C2596 C 0.37815 0.86048 0.12745 0.0
C2597 C 0.36988 1.00502 0.13192 0.0
C2598 C 0.3729 0.9553 0.13031 0.0
H2599 H 0.36274 0.71717 0.10619 0.0
H2600 H 0.3568 0.7978 0.10978 0.0
H2601 H 0.38673 0.86487 0.15495 0.0
H2602 H 0.38939 0.09877 0.15053 0.0
H2603 H 0.39514 0.01797 0.1468 0.0
C2604 C 0.60543 0.05821 0.39344 0.0
C2605 C 0.61493 0.08786 0.38201 0.0
C2606 C 0.61129 0.01354 0.39554 0.0
C2607 C 0.63999 0.92524 0.37338 0.0
H2608 H 0.63197 0.86131 0.41756 0.0
C2609 C 0.66791 0.74473 0.38749 0.0
C2610 C 0.65523 0.71407 0.39501 0.0
C2611 C 0.66332 0.79042 0.38574 0.0
C2612 C 0.63417 0.87867 0.4051 0.0
H2613 H 0.63864 0.09371 0.36438 0.0
H2614 H 0.64942 0.01647 0.3687 0.0
H2615 H 0.62464 0.9415 0.41566 0.0
H2616 H 0.62778 0.70719 0.40654 0.0
H2617 H 0.61983 0.78741 0.40375 0.0
H2618 H 0.64999 0.86224 0.36306 0.0
C2619 C 0.63702 0.02739 0.37563 0.0
C2620 C 0.62992 0.92469 0.40396 0.0
C2621 C 0.63101 0.07206 0.37336 0.0
C2622 C 0.63778 0.73003 0.40063 0.0
C2623 C 0.63331 0.77592 0.39916 0.0
C2624 C 0.6445 0.87934 0.37462 0.0
C2625 C 0.62705 0.9972 0.3865 0.0
C2626 C 0.63258 0.94863 0.38802 0.0
C2627 C 0.64605 0.80661 0.39173 0.0
C2628 C 0.64147 0.85548 0.39045 0.0
H2629 H 0.5932 0.06927 0.40062 0.0
H2630 H 0.60307 0.99152 0.40389 0.0
H2631 H 0.64194 0.94203 0.36078 0.0
H2632 H 0.68141 0.7333 0.38292 0.0
H2633 H 0.67345 0.81329 0.38004 0.0
C2634 C 0.40591 0.9507 0.37409 0.0
C2635 C 0.39563 0.92025 0.36366 0.0
C2636 C 0.40024 0.99562 0.37591 0.0
C2637 C 0.37192 0.08318 0.35371 0.0
H2638 H 0.37701 0.14624 0.39846 0.0
C2639 C 0.34202 0.26216 0.36533 0.0
C2640 C 0.35245 0.29258 0.37563 0.0
C2641 C 0.34753 0.2171 0.3636 0.0
C2642 C 0.37572 0.12932 0.3858 0.0
H2643 H 0.37106 0.91319 0.34724 0.0
H2644 H 0.36096 0.9915 0.35066 0.0
H2645 H 0.38533 0.06657 0.39653 0.0
H2646 H 0.37711 0.29945 0.39194 0.0
H2647 H 0.38694 0.22088 0.38869 0.0
H2648 H 0.36232 0.14593 0.34298 0.0
C2649 C 0.37358 0.98069 0.35724 0.0
C2650 C 0.38046 0.08356 0.3847 0.0
C2651 C 0.37925 0.93563 0.35545 0.0
C2652 C 0.36881 0.27701 0.38382 0.0
C2653 C 0.37432 0.23183 0.38213 0.0
C2654 C 0.36719 0.12894 0.35481 0.0
C2655 C 0.38412 0.01138 0.36735 0.0
C2656 C 0.37864 0.05987 0.36864 0.0
C2657 C 0.36365 0.20118 0.37213 0.0
C2658 C 0.36903 0.15263 0.37087 0.0
H2659 H 0.41847 0.93987 0.38078 0.0
H2660 H 0.40879 0.01829 0.38368 0.0
H2661 H 0.37065 0.06628 0.34105 0.0
H2662 H 0.32946 0.27312 0.35866 0.0
H2663 H 0.33889 0.19446 0.35591 0.0
C2664 C 0.37138 0.74517 0.88137 0.0
C2665 C 0.35595 0.72924 0.87177 0.0
C2666 C 0.37708 0.7903 0.87988 0.0
C2667 C 0.37231 0.89258 0.85143 0.0
H2668 H 0.38678 0.95627 0.89411 0.0
C2669 C 0.38235 0.08658 0.85263 0.0
C2670 C 0.3981 0.10285 0.86165 0.0
C2671 C 0.37705 0.04119 0.85413 0.0
C2672 C 0.38293 0.9389 0.88203 0.0
H2673 H 0.33496 0.74798 0.85247 0.0
H2674 H 0.34461 0.82642 0.85014 0.0
H2675 H 0.37873 0.87638 0.89572 0.0
H2676 H 0.42015 0.08448 0.87989 0.0
H2677 H 0.41101 1.0055 0.88239 0.0
H2678 H 0.3764 0.95521 0.83778 0.0
C2679 C 0.35242 0.80418 0.85877 0.0
C2680 C 0.37837 0.89299 0.88294 0.0
C2681 C 0.34674 0.7592 0.86026 0.0
C2682 C 0.40808 0.07295 0.87259 0.0
C2683 C 0.40273 0.02772 0.87416 0.0
C2684 C 0.37681 0.93851 0.85054 0.0
C2685 C 0.36754 0.82055 0.8687 0.0
C2686 C 0.37296 0.86918 0.86765 0.0
C2687 C 0.38728 0.01107 0.86478 0.0
C2688 C 0.38217 0.9623 0.86583 0.0
H2689 H 0.37873 0.72314 0.89043 0.0
H2690 H 0.38895 0.80151 0.88754 0.0
H2691 H 0.3685 0.87528 0.83932 0.0
H2692 H 0.37442 0.10861 0.84402 0.0
H2693 H 0.36493 0.02965 0.8469 0.0
C2694 C 0.65188 0.27162 0.88195 0.0
C2695 C 0.63782 0.29721 0.89007 0.0
C2696 C 0.64856 0.22671 0.87695 0.0
C2697 C 0.61871 0.13109 0.88995 0.0
H2698 H 0.63789 0.07301 0.84772 0.0
C2699 C 0.59748 0.94999 0.87081 0.0
C2700 C 0.6106 0.92143 0.8627 0.0
C2701 C 0.60155 0.99538 0.87403 0.0
C2702 C 0.63266 0.08854 0.85971 0.0
H2703 H 0.60923 0.29682 0.89895 0.0
H2704 H 0.60321 0.21884 0.88991 0.0
H2705 H 0.64284 0.15396 0.85215 0.0
H2706 H 0.63857 0.91831 0.85203 0.0
H2707 H 0.64588 0.99766 0.85801 0.0
H2708 H 0.60872 0.06602 0.89769 0.0
C2709 C 0.61685 0.23309 0.88748 0.0
C2710 C 0.63543 0.13504 0.8622 0.0
C2711 C 0.62017 0.27792 0.89242 0.0
C2712 C 0.62817 0.93927 0.85838 0.0
C2713 C 0.63227 0.98492 0.8616 0.0
C2714 C 0.61602 0.08474 0.88751 0.0
C2715 C 0.63117 0.20642 0.8802 0.0
C2716 C 0.62831 0.157 0.87729 0.0
C2717 C 0.61892 0.01372 0.86933 0.0
C2718 C 0.62279 0.0628 0.87228 0.0
H2719 H 0.66573 0.28554 0.8804 0.0
H2720 H 0.65994 0.20715 0.8715 0.0
H2721 H 0.61345 0.14654 0.90196 0.0
H2722 H 0.58388 0.93733 0.87452 0.0
H2723 H 0.59082 0.01639 0.87983 0.0
C2724 C 0.34628 0.95406 0.62337 0.0
C2725 C 0.3595 0.92654 0.63188 0.0
C2726 C 0.34935 1.00047 0.6214 0.0
C2727 C 0.37494 0.0953 0.64116 0.0
H2728 H 0.36528 0.15578 0.59655 0.0
C2729 C 0.39661 0.28063 0.62934 0.0
C2730 C 0.38552 0.30822 0.61843 0.0
C2731 C 0.39289 0.23451 0.63111 0.0
C2732 C 0.36776 0.13969 0.60921 0.0
H2733 H 0.38635 0.92622 0.64493 0.0
H2734 H 0.39168 1.00741 0.64159 0.0
H2735 H 0.36011 0.07462 0.59908 0.0
H2736 H 0.36147 0.30842 0.60107 0.0
H2737 H 0.35452 0.22838 0.6047 0.0
H2738 H 0.38223 0.16014 0.65147 0.0
C2739 C 0.37892 0.993 0.63645 0.0
C2740 C 0.36488 0.09304 0.61061 0.0
C2741 C 0.37595 0.94646 0.63823 0.0
C2742 C 0.37026 0.28846 0.60969 0.0
C2743 C 0.36644 0.24227 0.61157 0.0
C2744 C 0.37763 0.14198 0.63982 0.0
C2745 C 0.36562 0.02058 0.62808 0.0
C2746 C 0.36856 0.07024 0.62657 0.0
C2747 C 0.37781 0.21451 0.62219 0.0
C2748 C 0.37422 0.16488 0.62379 0.0
H2749 H 0.33353 0.93966 0.61821 0.0
H2750 H 0.33879 0.02079 0.61498 0.0
H2751 H 0.3776 0.07887 0.65373 0.0
H2752 H 0.40829 0.29461 0.63656 0.0
H2753 H 0.40213 0.21442 0.63924 0.0
C2754 C 0.63652 0.7321 0.61693 0.0
C2755 C 0.65202 0.71675 0.62657 0.0
C2756 C 0.63079 0.77724 0.61808 0.0
C2757 C 0.63519 0.88024 0.64589 0.0
H2758 H 0.62059 0.94237 0.60287 0.0
C2759 C 0.62352 0.07348 0.64405 0.0
C2760 C 0.60781 0.0889 0.63474 0.0
C2761 C 0.62921 0.02836 0.64274 0.0
C2762 C 0.62446 0.92543 0.61504 0.0
H2763 H 0.67323 0.73659 0.64547 0.0
H2764 H 0.6635 0.81516 0.64721 0.0
H2765 H 0.62918 0.86277 0.60162 0.0
H2766 H 0.58622 0.06929 0.61621 0.0
H2767 H 0.59597 0.9907 0.6141 0.0
H2768 H 0.6305 0.94292 0.65929 0.0
C2769 C 0.65567 0.79239 0.63883 0.0
C2770 C 0.62935 0.87971 0.61433 0.0
C2771 C 0.66138 0.74738 0.63768 0.0
C2772 C 0.59824 0.05842 0.62373 0.0
C2773 C 0.60396 0.01342 0.62238 0.0
C2774 C 0.63033 0.92595 0.64659 0.0
C2775 C 0.6404 0.80806 0.62894 0.0
C2776 C 0.63479 0.85651 0.62974 0.0
C2777 C 0.61939 0.99765 0.63202 0.0
C2778 C 0.62491 0.94916 0.63117 0.0
H2779 H 0.62906 0.70951 0.60817 0.0
H2780 H 0.61883 0.78798 0.61044 0.0
H2781 H 0.63903 0.86333 0.65807 0.0
H2782 H 0.63114 0.09597 0.65272 0.0
H2783 H 0.64131 0.0175 0.65016 0.0
loop_
_geom_bond_atom_site_label_1
_geom_bond_atom_site_label_2
_geom_bond_distance
_geom_bond_site_symmetry_2
_ccdc_geom_bond_type
C0 C2 1.422 . S
C0 C4 1.415 . S
C0 N6 1.369 . S
C1 C2 1.421 . S
C1 C3 1.417 . S
C1 C13 1.422 . S
C2 C0 1.422 . S
C2 C1 1.421 . S
C2 N12 1.359 . S
C3 C1 1.417 . S
C3 C5 1.329 . S
C3 H22 0.930 . S
C4 C0 1.415 . S
C4 C5 1.437 . S
C4 C8 1.413 . S
C5 C3 1.329 . S
C5 C4 1.437 . S
C5 H27 0.929 . S
N6 C0 1.369 . S
N6 C7 1.338 . S
N6 Gd11 2.622 . S
C7 N6 1.338 . S
C7 C9 1.378 . S
C7 H19 0.929 . S
C8 C4 1.413 . S
C8 C9 1.348 . S
C8 H24 0.931 . S
C9 C7 1.378 . S
C9 C8 1.348 . S
C9 H25 0.930 . S
Gd10 N30 2.622 . S
Gd10 N37 2.570 . S
Gd10 O44 2.353 . S
Gd10 O45 2.468 . S
Gd10 O46 2.427 . S
Gd10 O48 2.388 . S
Gd10 O49 2.386 . S
Gd10 O53 2.307 . S
Gd10 C63 2.805 . S
Gd11 N6 2.622 . S
Gd11 N12 2.570 . S
Gd11 O43 2.386 . S
Gd11 O47 2.307 . S
Gd11 O50 2.353 . S
Gd11 O51 2.468 1_545 S
Gd11 O52 2.427 1_545 S
Gd11 O54 2.388 . S
Gd11 C75 2.805 1_545 S
N12 C2 1.359 . S
N12 Gd11 2.570 . S
N12 C14 1.343 . S
C13 C1 1.422 . S
C13 C15 1.321 . S
C13 H21 0.931 . S
C14 N12 1.343 . S
C14 C15 1.390 . S
C14 H16 0.931 . S
C15 C13 1.321 . S
C15 C14 1.390 . S
C15 H17 0.930 . S
H16 C14 0.931 . S
H17 C15 0.930 . S
H18 C41 0.931 . S
H19 C7 0.929 . S
H20 C42 0.930 . S
H21 C13 0.931 . S
H22 C3 0.930 . S
H23 C32 0.929 . S
H24 C8 0.931 . S
H25 C9 0.930 . S
H26 C64 0.930 . S
H27 C5 0.929 . S
H28 C33 0.931 . S
H29 C34 0.930 . S
N30 Gd10 2.622 . S
N30 C31 1.369 . S
N30 C32 1.338 . S
C31 N30 1.369 . S
C31 C35 1.415 . S
C31 C38 1.422 . S
C32 H23 0.929 . S
C32 N30 1.338 . S
C32 C34 1.378 . S
C33 H28 0.931 . S
C33 C34 1.348 . S
C33 C35 1.413 . S
C34 H29 0.930 . S
C34 C32 1.378 . S
C34 C33 1.348 . S
C35 C31 1.415 . S
C35 C33 1.413 . S
C35 C65 1.437 . S
H36 C65 0.929 . S
N37 Gd10 2.570 . S
N37 C38 1.359 . S
N37 C41 1.343 . S
C38 C31 1.422 . S
C38 N37 1.359 . S
C38 C40 1.421 . S
C39 C40 1.422 . S
C39 C42 1.321 . S
C39 H66 0.931 . S
C40 C38 1.421 . S
C40 C39 1.422 . S
C40 C64 1.417 . S
C41 H18 0.931 . S
C41 N37 1.343 . S
C41 C42 1.390 . S
C42 H20 0.930 . S
C42 C39 1.321 . S
C42 C41 1.390 . S
O43 Gd11 2.386 . S
O43 C55 1.265 . S
O44 Gd10 2.353 . S
O44 C55 1.242 . S
O45 Gd10 2.468 . S
O45 C63 1.263 . S
O46 Gd10 2.427 . S
O46 C63 1.252 . S
O47 Gd11 2.307 . S
O47 C56 1.261 . S
O48 Gd10 2.388 . S
O48 C56 1.252 . S
O49 Gd10 2.386 . S
O49 C67 1.265 . S
O50 Gd11 2.353 . S
O50 C67 1.242 . S
O51 Gd11 2.468 1_565 S
O51 C75 1.263 . S
O52 Gd11 2.427 1_565 S
O52 C75 1.252 . S
O53 Gd10 2.307 . S
O53 C68 1.261 . S
O54 Gd11 2.388 . S
O54 C68 1.252 . S
C55 O43 1.265 . S
C55 O44 1.242 . S
C56 O47 1.261 . S
C56 O48 1.252 . S
C57 C60 1.394 . S
C57 C62 1.370 . S
C57 C63 1.500 . S
C58 C61 1.383 . S
C58 C62 1.395 . S
C59 C60 1.396 . S
C59 C61 1.365 . S
C59 H76 0.929 . S
C60 C57 1.394 . S
C60 C59 1.396 . S
C60 H77 0.930 . S
C61 C58 1.383 . S
C61 C59 1.365 . S
C61 H78 0.931 . S
C62 C57 1.370 . S
C62 C58 1.395 . S
C62 H79 0.930 . S
C63 Gd10 2.805 . S
C63 O45 1.263 . S
C63 O46 1.252 . S
C63 C57 1.500 . S
C64 H26 0.930 . S
C64 C40 1.417 . S
C64 C65 1.329 . S
C65 C35 1.437 . S
C65 H36 0.929 . S
C65 C64 1.329 . S
H66 C39 0.931 . S
C67 O49 1.265 . S
C67 O50 1.242 . S
C68 O53 1.261 . S
C68 O54 1.252 . S
C69 C72 1.394 . S
C69 C74 1.370 . S
C69 C75 1.500 . S
C70 C73 1.383 . S
C70 C74 1.395 . S
C71 C72 1.396 . S
C71 C73 1.365 . S
C71 H80 0.929 . S
C72 C69 1.394 . S
C72 C71 1.396 . S
C72 H81 0.930 . S
C73 C70 1.383 . S
C73 C71 1.365 . S
C73 H82 0.931 . S
C74 C69 1.370 . S
C74 C70 1.395 . S
C74 H83 0.930 . S
C75 Gd11 2.805 1_565 S
C75 O51 1.263 . S
C75 O52 1.252 . S
C75 C69 1.500 . S
H76 C59 0.929 . S
H77 C60 0.930 . S
H78 C61 0.931 . S
H79 C62 0.930 . S
H80 C71 0.929 . S
H81 C72 0.930 . S
H82 C73 0.931 . S
H83 C74 0.930 . S
C84 C86 1.422 . S
C84 C88 1.415 . S
C84 N90 1.369 . S
C85 C86 1.421 . S
C85 C87 1.417 . S
C85 C97 1.422 . S
C86 C84 1.422 . S
C86 C85 1.421 . S
C86 N96 1.359 . S
C87 C85 1.417 . S
C87 C89 1.329 . S
C87 H106 0.930 . S
C88 C84 1.415 . S
C88 C89 1.437 . S
C88 C92 1.413 . S
C89 C87 1.329 . S
C89 C88 1.437 . S
C89 H111 0.929 . S
N90 C84 1.369 . S
N90 C91 1.338 . S
N90 Gd95 2.622 . S
C91 N90 1.338 . S
C91 C93 1.378 . S
C91 H103 0.929 . S
C92 C88 1.413 . S
C92 C93 1.348 . S
C92 H108 0.931 . S
C93 C91 1.378 . S
C93 C92 1.348 . S
C93 H109 0.930 . S
Gd94 N114 2.622 . S
Gd94 N121 2.570 . S
Gd94 O128 2.353 . S
Gd94 O129 2.468 . S
Gd94 O130 2.427 . S
Gd94 O132 2.388 . S
Gd94 O133 2.386 . S
Gd94 O137 2.307 . S
Gd94 C147 2.805 . S
Gd95 N90 2.622 . S
Gd95 N96 2.570 . S
Gd95 O127 2.386 . S
Gd95 O131 2.307 . S
Gd95 O134 2.353 . S
Gd95 O135 2.468 1_565 S
Gd95 O136 2.427 1_565 S
Gd95 O138 2.388 . S
Gd95 C159 2.805 1_565 S
N96 C86 1.359 . S
N96 Gd95 2.570 . S
N96 C98 1.343 . S
C97 C85 1.422 . S
C97 C99 1.321 . S
C97 H105 0.931 . S
C98 N96 1.343 . S
C98 C99 1.390 . S
C98 H100 0.931 . S
C99 C97 1.321 . S
C99 C98 1.390 . S
C99 H101 0.930 . S
H100 C98 0.931 . S
H101 C99 0.930 . S
H102 C125 0.931 . S
H103 C91 0.929 . S
H104 C126 0.930 . S
H105 C97 0.931 . S
H106 C87 0.930 . S
H107 C116 0.929 . S
H108 C92 0.931 . S
H109 C93 0.930 . S
H110 C148 0.930 . S
H111 C89 0.929 . S
H112 C117 0.931 . S
H113 C118 0.930 . S
N114 Gd94 2.622 . S
N114 C115 1.369 . S
N114 C116 1.338 . S
C115 N114 1.369 . S
C115 C119 1.415 . S
C115 C122 1.422 . S
C116 H107 0.929 . S
C116 N114 1.338 . S
C116 C118 1.378 . S
C117 H112 0.931 . S
C117 C118 1.348 . S
C117 C119 1.413 . S
C118 H113 0.930 . S
C118 C116 1.378 . S
C118 C117 1.348 . S
C119 C115 1.415 . S
C119 C117 1.413 . S
C119 C149 1.437 . S
H120 C149 0.929 . S
N121 Gd94 2.570 . S
N121 C122 1.359 . S
N121 C125 1.343 . S
C122 C115 1.422 . S
C122 N121 1.359 . S
C122 C124 1.421 . S
C123 C124 1.422 . S
C123 C126 1.321 . S
C123 H150 0.931 . S
C124 C122 1.421 . S
C124 C123 1.422 . S
C124 C148 1.417 . S
C125 H102 0.931 . S
C125 N121 1.343 . S
C125 C126 1.390 . S
C126 H104 0.930 . S
C126 C123 1.321 . S
C126 C125 1.390 . S
O127 Gd95 2.386 . S
O127 C139 1.265 . S
O128 Gd94 2.353 . S
O128 C139 1.242 . S
O129 Gd94 2.468 . S
O129 C147 1.263 . S
O130 Gd94 2.427 . S
O130 C147 1.252 . S
O131 Gd95 2.307 . S
O131 C140 1.261 . S
O132 Gd94 2.388 . S
O132 C140 1.252 . S
O133 Gd94 2.386 . S
O133 C151 1.265 . S
O134 Gd95 2.353 . S
O134 C151 1.242 . S
O135 Gd95 2.468 1_545 S
O135 C159 1.263 . S
O136 Gd95 2.427 1_545 S
O136 C159 1.252 . S
O137 Gd94 2.307 . S
O137 C152 1.261 . S
O138 Gd95 2.388 . S
O138 C152 1.252 . S
C139 O127 1.265 . S
C139 O128 1.242 . S
C140 O131 1.261 . S
C140 O132 1.252 . S
C141 C144 1.394 . S
C141 C146 1.370 . S
C141 C147 1.500 . S
C142 C145 1.383 . S
C142 C146 1.395 . S
C143 C144 1.396 . S
C143 C145 1.365 . S
C143 H160 0.929 . S
C144 C141 1.394 . S
C144 C143 1.396 . S
C144 H161 0.930 . S
C145 C142 1.383 . S
C145 C143 1.365 . S
C145 H162 0.931 . S
C146 C141 1.370 . S
C146 C142 1.395 . S
C146 H163 0.930 . S
C147 Gd94 2.805 . S
C147 O129 1.263 . S
C147 O130 1.252 . S
C147 C141 1.500 . S
C148 H110 0.930 . S
C148 C124 1.417 . S
C148 C149 1.329 . S
C149 C119 1.437 . S
C149 H120 0.929 . S
C149 C148 1.329 . S
H150 C123 0.931 . S
C151 O133 1.265 . S
C151 O134 1.242 . S
C152 O137 1.261 . S
C152 O138 1.252 . S
C153 C156 1.394 . S
C153 C158 1.370 . S
C153 C159 1.500 . S
C154 C157 1.383 . S
C154 C158 1.395 . S
C155 C156 1.396 . S
C155 C157 1.365 . S
C155 H164 0.929 . S
C156 C153 1.394 . S
C156 C155 1.396 . S
C156 H165 0.930 . S
C157 C154 1.383 . S
C157 C155 1.365 . S
C157 H166 0.931 . S
C158 C153 1.370 . S
C158 C154 1.395 . S
C158 H167 0.930 . S
C159 Gd95 2.805 1_545 S
C159 O135 1.263 . S
C159 O136 1.252 . S
C159 C153 1.500 . S
H160 C143 0.929 . S
H161 C144 0.930 . S
H162 C145 0.931 . S
H163 C146 0.930 . S
H164 C155 0.929 . S
H165 C156 0.930 . S
H166 C157 0.931 . S
H167 C158 0.930 . S
C168 C170 1.422 . S
C168 C172 1.415 . S
C168 N174 1.369 . S
C169 C170 1.421 . S
C169 C171 1.417 . S
C169 C181 1.422 . S
C170 C168 1.422 . S
C170 C169 1.421 . S
C170 N180 1.359 . S
C171 C169 1.417 . S
C171 C173 1.329 . S
C171 H190 0.930 . S
C172 C168 1.415 . S
C172 C173 1.437 . S
C172 C176 1.413 . S
C173 C171 1.329 . S
C173 C172 1.437 . S
C173 H195 0.929 . S
N174 C168 1.369 . S
N174 C175 1.338 . S
N174 Gd179 2.622 . S
C175 N174 1.338 . S
C175 C177 1.378 . S
C175 H187 0.929 . S
C176 C172 1.413 . S
C176 C177 1.348 . S
C176 H192 0.931 . S
C177 C175 1.378 . S
C177 C176 1.348 . S
C177 H193 0.930 . S
Gd178 N198 2.622 . S
Gd178 N205 2.570 . S
Gd178 O212 2.353 . S
Gd178 O213 2.468 . S
Gd178 O214 2.427 . S
Gd178 O216 2.388 . S
Gd178 O217 2.386 . S
Gd178 O221 2.307 . S
Gd178 C231 2.805 . S
Gd179 N174 2.622 . S
Gd179 N180 2.570 . S
Gd179 O211 2.386 . S
Gd179 O215 2.307 . S
Gd179 O218 2.353 . S
Gd179 O219 2.468 1_565 S
Gd179 O220 2.427 1_565 S
Gd179 O222 2.388 . S
Gd179 C243 2.805 1_565 S
N180 C170 1.359 . S
N180 Gd179 2.570 . S
N180 C182 1.343 . S
C181 C169 1.422 . S
C181 C183 1.321 . S
C181 H189 0.931 . S
C182 N180 1.343 . S
C182 C183 1.390 . S
C182 H184 0.931 . S
C183 C181 1.321 . S
C183 C182 1.390 . S
C183 H185 0.930 . S
H184 C182 0.931 . S
H185 C183 0.930 . S
H186 C209 0.931 . S
H187 C175 0.929 . S
H188 C210 0.930 . S
H189 C181 0.931 . S
H190 C171 0.930 . S
H191 C200 0.929 . S
H192 C176 0.931 . S
H193 C177 0.930 . S
H194 C232 0.930 . S
H195 C173 0.929 . S
H196 C201 0.931 . S
H197 C202 0.930 . S
N198 Gd178 2.622 . S
N198 C199 1.369 . S
N198 C200 1.338 . S
C199 N198 1.369 . S
C199 C203 1.415 . S
C199 C206 1.422 . S
C200 H191 0.929 . S
C200 N198 1.338 . S
C200 C202 1.378 . S
C201 H196 0.931 . S
C201 C202 1.348 . S
C201 C203 1.413 . S
C202 H197 0.930 . S
C202 C200 1.378 . S
C202 C201 1.348 . S
C203 C199 1.415 . S
C203 C201 1.413 . S
C203 C233 1.437 . S
H204 C233 0.929 . S
N205 Gd178 2.570 . S
N205 C206 1.359 . S
N205 C209 1.343 . S
C206 C199 1.422 . S
C206 N205 1.359 . S
C206 C208 1.421 . S
C207 C208 1.422 . S
C207 C210 1.321 . S
C207 H234 0.931 . S
C208 C206 1.421 . S
C208 C207 1.422 . S
C208 C232 1.417 . S
C209 H186 0.931 . S
C209 N205 1.343 . S
C209 C210 1.390 . S
C210 H188 0.930 . S
C210 C207 1.321 . S
C210 C209 1.390 . S
O211 Gd179 2.386 . S
O211 C223 1.265 . S
O212 Gd178 2.353 . S
O212 C223 1.242 . S
O213 Gd178 2.468 . S
O213 C231 1.263 . S
O214 Gd178 2.427 . S
O214 C231 1.252 . S
O215 Gd179 2.307 . S
O215 C224 1.261 . S
O216 Gd178 2.388 . S
O216 C224 1.252 . S
O217 Gd178 2.386 . S
O217 C235 1.265 . S
O218 Gd179 2.353 . S
O218 C235 1.242 . S
O219 Gd179 2.468 1_545 S
O219 C243 1.263 . S
O220 Gd179 2.427 1_545 S
O220 C243 1.252 . S
O221 Gd178 2.307 . S
O221 C236 1.261 . S
O222 Gd179 2.388 . S
O222 C236 1.252 . S
C223 O211 1.265 . S
C223 O212 1.242 . S
C224 O215 1.261 . S
C224 O216 1.252 . S
C225 C228 1.394 . S
C225 C230 1.370 . S
C225 C231 1.500 . S
C226 C229 1.383 . S
C226 C230 1.395 . S
C227 C228 1.396 . S
C227 C229 1.365 . S
C227 H244 0.929 . S
C228 C225 1.394 . S
C228 C227 1.396 . S
C228 H245 0.930 . S
C229 C226 1.383 . S
C229 C227 1.365 . S
C229 H246 0.931 . S
C230 C225 1.370 . S
C230 C226 1.395 . S
C230 H247 0.930 . S
C231 Gd178 2.805 . S
C231 O213 1.263 . S
C231 O214 1.252 . S
C231 C225 1.500 . S
C232 H194 0.930 . S
C232 C208 1.417 . S
C232 C233 1.329 . S
C233 C203 1.437 . S
C233 H204 0.929 . S
C233 C232 1.329 . S
H234 C207 0.931 . S
C235 O217 1.265 . S
C235 O218 1.242 . S
C236 O221 1.261 . S
C236 O222 1.252 . S
C237 C240 1.394 . S
C237 C242 1.370 . S
C237 C243 1.500 . S
C238 C241 1.383 . S
C238 C242 1.395 . S
C239 C240 1.396 . S
C239 C241 1.365 . S
C239 H248 0.929 . S
C240 C237 1.394 . S
C240 C239 1.396 . S
C240 H249 0.930 . S
C241 C238 1.383 . S
C241 C239 1.365 . S
C241 H250 0.931 . S
C242 C237 1.370 . S
C242 C238 1.395 . S
C242 H251 0.930 . S
C243 Gd179 2.805 1_545 S
C243 O219 1.263 . S
C243 O220 1.252 . S
C243 C237 1.500 . S
H244 C227 0.929 . S
H245 C228 0.930 . S
H246 C229 0.931 . S
H247 C230 0.930 . S
H248 C239 0.929 . S
H249 C240 0.930 . S
H250 C241 0.931 . S
H251 C242 0.930 . S
C252 C254 1.422 . S
C252 C256 1.415 . S
C252 N258 1.369 . S
C253 C254 1.421 . S
C253 C255 1.417 . S
C253 C265 1.422 . S
C254 C252 1.422 . S
C254 C253 1.421 . S
C254 N264 1.359 . S
C255 C253 1.417 . S
C255 C257 1.329 . S
C255 H274 0.930 . S
C256 C252 1.415 . S
C256 C257 1.437 . S
C256 C260 1.413 . S
C257 C255 1.329 . S
C257 C256 1.437 . S
C257 H279 0.929 . S
N258 C252 1.369 . S
N258 C259 1.338 . S
N258 Gd263 2.622 . S
C259 N258 1.338 . S
C259 C261 1.378 . S
C259 H271 0.929 . S
C260 C256 1.413 . S
C260 C261 1.348 . S
C260 H276 0.931 . S
C261 C259 1.378 . S
C261 C260 1.348 . S
C261 H277 0.930 . S
Gd262 N282 2.622 . S
Gd262 N289 2.570 . S
Gd262 O296 2.353 . S
Gd262 O297 2.468 . S
Gd262 O298 2.427 . S
Gd262 O300 2.388 . S
Gd262 O301 2.386 . S
Gd262 O305 2.307 . S
Gd262 C315 2.805 . S
Gd263 N258 2.622 . S
Gd263 N264 2.570 . S
Gd263 O295 2.386 . S
Gd263 O299 2.307 . S
Gd263 O302 2.353 . S
Gd263 O303 2.468 1_545 S
Gd263 O304 2.427 1_545 S
Gd263 O306 2.388 . S
Gd263 C327 2.805 1_545 S
N264 C254 1.359 . S
N264 Gd263 2.570 . S
N264 C266 1.343 . S
C265 C253 1.422 . S
C265 C267 1.321 . S
C265 H273 0.931 . S
C266 N264 1.343 . S
C266 C267 1.390 . S
C266 H268 0.931 . S
C267 C265 1.321 . S
C267 C266 1.390 . S
C267 H269 0.930 . S
H268 C266 0.931 . S
H269 C267 0.930 . S
H270 C293 0.931 . S
H271 C259 0.929 . S
H272 C294 0.930 . S
H273 C265 0.931 . S
H274 C255 0.930 . S
H275 C284 0.929 . S
H276 C260 0.931 . S
H277 C261 0.930 . S
H278 C316 0.930 . S
H279 C257 0.929 . S
H280 C285 0.931 . S
H281 C286 0.930 . S
N282 Gd262 2.622 . S
N282 C283 1.369 . S
N282 C284 1.338 . S
C283 N282 1.369 . S
C283 C287 1.415 . S
C283 C290 1.422 . S
C284 H275 0.929 . S
C284 N282 1.338 . S
C284 C286 1.378 . S
C285 H280 0.931 . S
C285 C286 1.348 . S
C285 C287 1.413 . S
C286 H281 0.930 . S
C286 C284 1.378 . S
C286 C285 1.348 . S
C287 C283 1.415 . S
C287 C285 1.413 . S
C287 C317 1.437 . S
H288 C317 0.929 . S
N289 Gd262 2.570 . S
N289 C290 1.359 . S
N289 C293 1.343 . S
C290 C283 1.422 . S
C290 N289 1.359 . S
C290 C292 1.421 . S
C291 C292 1.422 . S
C291 C294 1.321 . S
C291 H318 0.931 . S
C292 C290 1.421 . S
C292 C291 1.422 . S
C292 C316 1.417 . S
C293 H270 0.931 . S
C293 N289 1.343 . S
C293 C294 1.390 . S
C294 H272 0.930 . S
C294 C291 1.321 . S
C294 C293 1.390 . S
O295 Gd263 2.386 . S
O295 C307 1.265 . S
O296 Gd262 2.353 . S
O296 C307 1.242 . S
O297 Gd262 2.468 . S
O297 C315 1.263 . S
O298 Gd262 2.427 . S
O298 C315 1.252 . S
O299 Gd263 2.307 . S
O299 C308 1.261 . S
O300 Gd262 2.388 . S
O300 C308 1.252 . S
O301 Gd262 2.386 . S
O301 C319 1.265 . S
O302 Gd263 2.353 . S
O302 C319 1.242 . S
O303 Gd263 2.468 1_565 S
O303 C327 1.263 . S
O304 Gd263 2.427 1_565 S
O304 C327 1.252 . S
O305 Gd262 2.307 . S
O305 C320 1.261 . S
O306 Gd263 2.388 . S
O306 C320 1.252 . S
C307 O295 1.265 . S
C307 O296 1.242 . S
C308 O299 1.261 . S
C308 O300 1.252 . S
C309 C312 1.394 . S
C309 C314 1.370 . S
C309 C315 1.500 . S
C310 C313 1.383 . S
C310 C314 1.395 . S
C311 C312 1.396 . S
C311 C313 1.365 . S
C311 H328 0.929 . S
C312 C309 1.394 . S
C312 C311 1.396 . S
C312 H329 0.930 . S
C313 C310 1.383 . S
C313 C311 1.365 . S
C313 H330 0.931 . S
C314 C309 1.370 . S
C314 C310 1.395 . S
C314 H331 0.930 . S
C315 Gd262 2.805 . S
C315 O297 1.263 . S
C315 O298 1.252 . S
C315 C309 1.500 . S
C316 H278 0.930 . S
C316 C292 1.417 . S
C316 C317 1.329 . S
C317 C287 1.437 . S
C317 H288 0.929 . S
C317 C316 1.329 . S
H318 C291 0.931 . S
C319 O301 1.265 . S
C319 O302 1.242 . S
C320 O305 1.261 . S
C320 O306 1.252 . S
C321 C324 1.394 . S
C321 C326 1.370 . S
C321 C327 1.500 . S
C322 C325 1.383 . S
C322 C326 1.395 . S
C323 C324 1.396 . S
C323 C325 1.365 . S
C323 H332 0.929 . S
C324 C321 1.394 . S
C324 C323 1.396 . S
C324 H333 0.930 . S
C325 C322 1.383 . S
C325 C323 1.365 . S
C325 H334 0.931 . S
C326 C321 1.370 . S
C326 C322 1.395 . S
C326 H335 0.930 . S
C327 Gd263 2.805 1_565 S
C327 O303 1.263 . S
C327 O304 1.252 . S
C327 C321 1.500 . S
H328 C311 0.929 . S
H329 C312 0.930 . S
H330 C313 0.931 . S
H331 C314 0.930 . S
H332 C323 0.929 . S
H333 C324 0.930 . S
H334 C325 0.931 . S
H335 C326 0.930 . S
C336 C338 1.422 . S
C336 C340 1.415 . S
C336 N342 1.369 . S
C337 C338 1.421 . S
C337 C339 1.417 . S
C337 C349 1.422 . S
C338 C336 1.422 . S
C338 C337 1.421 . S
C338 N348 1.359 . S
C339 C337 1.417 . S
C339 C341 1.329 . S
C339 H358 0.930 . S
C340 C336 1.415 . S
C340 C341 1.437 . S
C340 C344 1.413 . S
C341 C339 1.329 . S
C341 C340 1.437 . S
C341 H363 0.929 . S
N342 C336 1.369 . S
N342 C343 1.338 . S
N342 Gd347 2.622 . S
C343 N342 1.338 . S
C343 C345 1.378 . S
C343 H355 0.929 . S
C344 C340 1.413 . S
C344 C345 1.348 . S
C344 H360 0.931 . S
C345 C343 1.378 . S
C345 C344 1.348 . S
C345 H361 0.930 . S
Gd346 N366 2.622 . S
Gd346 N373 2.570 . S
Gd346 O380 2.353 . S
Gd346 O381 2.468 1_565 S
Gd346 O382 2.427 1_565 S
Gd346 O384 2.388 . S
Gd346 O385 2.386 . S
Gd346 O389 2.307 . S
Gd346 C399 2.805 1_565 S
Gd347 N342 2.622 . S
Gd347 N348 2.570 . S
Gd347 O379 2.386 . S
Gd347 O383 2.307 . S
Gd347 O386 2.353 . S
Gd347 O387 2.468 . S
Gd347 O388 2.427 . S
Gd347 O390 2.388 . S
Gd347 C411 2.805 . S
N348 C338 1.359 . S
N348 Gd347 2.570 . S
N348 C350 1.343 . S
C349 C337 1.422 . S
C349 C351 1.321 . S
C349 H357 0.931 . S
C350 N348 1.343 . S
C350 C351 1.390 . S
C350 H352 0.931 . S
C351 C349 1.321 . S
C351 C350 1.390 . S
C351 H353 0.930 . S
H352 C350 0.931 . S
H353 C351 0.930 . S
H354 C377 0.931 . S
H355 C343 0.929 . S
H356 C378 0.930 . S
H357 C349 0.931 . S
H358 C339 0.930 . S
H359 C368 0.929 . S
H360 C344 0.931 . S
H361 C345 0.930 . S
H362 C400 0.930 . S
H363 C341 0.929 . S
H364 C369 0.931 . S
H365 C370 0.930 . S
N366 Gd346 2.622 . S
N366 C367 1.369 . S
N366 C368 1.338 . S
C367 N366 1.369 . S
C367 C371 1.415 . S
C367 C374 1.422 . S
C368 H359 0.929 . S
C368 N366 1.338 . S
C368 C370 1.378 . S
C369 H364 0.931 . S
C369 C370 1.348 . S
C369 C371 1.413 . S
C370 H365 0.930 . S
C370 C368 1.378 . S
C370 C369 1.348 . S
C371 C367 1.415 . S
C371 C369 1.413 . S
C371 C401 1.437 . S
H372 C401 0.929 . S
N373 Gd346 2.570 . S
N373 C374 1.359 . S
N373 C377 1.343 . S
C374 C367 1.422 . S
C374 N373 1.359 . S
C374 C376 1.421 . S
C375 C376 1.422 . S
C375 C378 1.321 . S
C375 H402 0.931 . S
C376 C374 1.421 . S
C376 C375 1.422 . S
C376 C400 1.417 . S
C377 H354 0.931 . S
C377 N373 1.343 . S
C377 C378 1.390 . S
C378 H356 0.930 . S
C378 C375 1.321 . S
C378 C377 1.390 . S
O379 Gd347 2.386 . S
O379 C391 1.265 . S
O380 Gd346 2.353 . S
O380 C391 1.242 . S
O381 Gd346 2.468 1_545 S
O381 C399 1.263 . S
O382 Gd346 2.427 1_545 S
O382 C399 1.252 . S
O383 Gd347 2.307 . S
O383 C392 1.261 . S
O384 Gd346 2.388 . S
O384 C392 1.252 . S
O385 Gd346 2.386 . S
O385 C403 1.265 . S
O386 Gd347 2.353 . S
O386 C403 1.242 . S
O387 Gd347 2.468 . S
O387 C411 1.263 . S
O388 Gd347 2.427 . S
O388 C411 1.252 . S
O389 Gd346 2.307 . S
O389 C404 1.261 . S
O390 Gd347 2.388 . S
O390 C404 1.252 . S
C391 O379 1.265 . S
C391 O380 1.242 . S
C392 O383 1.261 . S
C392 O384 1.252 . S
C393 C396 1.394 . S
C393 C398 1.370 . S
C393 C399 1.500 . S
C394 C397 1.383 . S
C394 C398 1.395 . S
C395 C396 1.396 . S
C395 C397 1.365 . S
C395 H412 0.929 . S
C396 C393 1.394 . S
C396 C395 1.396 . S
C396 H413 0.930 . S
C397 C394 1.383 . S
C397 C395 1.365 . S
C397 H414 0.931 . S
C398 C393 1.370 . S
C398 C394 1.395 . S
C398 H415 0.930 . S
C399 Gd346 2.805 1_545 S
C399 O381 1.263 . S
C399 O382 1.252 . S
C399 C393 1.500 . S
C400 H362 0.930 . S
C400 C376 1.417 . S
C400 C401 1.329 . S
C401 C371 1.437 . S
C401 H372 0.929 . S
C401 C400 1.329 . S
H402 C375 0.931 . S
C403 O385 1.265 . S
C403 O386 1.242 . S
C404 O389 1.261 . S
C404 O390 1.252 . S
C405 C408 1.394 . S
C405 C410 1.370 . S
C405 C411 1.500 . S
C406 C409 1.383 . S
C406 C410 1.395 . S
C407 C408 1.396 . S
C407 C409 1.365 . S
C407 H416 0.929 . S
C408 C405 1.394 . S
C408 C407 1.396 . S
C408 H417 0.930 . S
C409 C406 1.383 . S
C409 C407 1.365 . S
C409 H418 0.931 . S
C410 C405 1.370 . S
C410 C406 1.395 . S
C410 H419 0.930 . S
C411 Gd347 2.805 . S
C411 O387 1.263 . S
C411 O388 1.252 . S
C411 C405 1.500 . S
H412 C395 0.929 . S
H413 C396 0.930 . S
H414 C397 0.931 . S
H415 C398 0.930 . S
H416 C407 0.929 . S
H417 C408 0.930 . S
H418 C409 0.931 . S
H419 C410 0.930 . S
C420 C422 1.422 . S
C420 C424 1.415 . S
C420 N426 1.369 . S
C421 C422 1.421 . S
C421 C423 1.417 . S
C421 C433 1.422 . S
C422 C420 1.422 . S
C422 C421 1.421 . S
C422 N432 1.359 . S
C423 C421 1.417 . S
C423 C425 1.329 . S
C423 H442 0.930 . S
C424 C420 1.415 . S
C424 C425 1.437 . S
C424 C428 1.413 . S
C425 C423 1.329 . S
C425 C424 1.437 . S
C425 H447 0.929 . S
N426 C420 1.369 . S
N426 C427 1.338 . S
N426 Gd431 2.622 . S
C427 N426 1.338 . S
C427 C429 1.378 . S
C427 H439 0.929 . S
C428 C424 1.413 . S
C428 C429 1.348 . S
C428 H444 0.931 . S
C429 C427 1.378 . S
C429 C428 1.348 . S
C429 H445 0.930 . S
Gd430 N450 2.622 . S
Gd430 N457 2.570 . S
Gd430 O464 2.353 . S
Gd430 O465 2.468 1_545 S
Gd430 O466 2.427 1_545 S
Gd430 O468 2.388 . S
Gd430 O469 2.386 . S
Gd430 O473 2.307 . S
Gd430 C483 2.805 1_545 S
Gd431 N426 2.622 . S
Gd431 N432 2.570 . S
Gd431 O463 2.386 . S
Gd431 O467 2.307 . S
Gd431 O470 2.353 . S
Gd431 O471 2.468 . S
Gd431 O472 2.427 . S
Gd431 O474 2.388 . S
Gd431 C495 2.805 . S
N432 C422 1.359 . S
N432 Gd431 2.570 . S
N432 C434 1.343 . S
C433 C421 1.422 . S
C433 C435 1.321 . S
C433 H441 0.931 . S
C434 N432 1.343 . S
C434 C435 1.390 . S
C434 H436 0.931 . S
C435 C433 1.321 . S
C435 C434 1.390 . S
C435 H437 0.930 . S
H436 C434 0.931 . S
H437 C435 0.930 . S
H438 C461 0.931 . S
H439 C427 0.929 . S
H440 C462 0.930 . S
H441 C433 0.931 . S
H442 C423 0.930 . S
H443 C452 0.929 . S
H444 C428 0.931 . S
H445 C429 0.930 . S
H446 C484 0.930 . S
H447 C425 0.929 . S
H448 C453 0.931 . S
H449 C454 0.930 . S
N450 Gd430 2.622 . S
N450 C451 1.369 . S
N450 C452 1.338 . S
C451 N450 1.369 . S
C451 C455 1.415 . S
C451 C458 1.422 . S
C452 H443 0.929 . S
C452 N450 1.338 . S
C452 C454 1.378 . S
C453 H448 0.931 . S
C453 C454 1.348 . S
C453 C455 1.413 . S
C454 H449 0.930 . S
C454 C452 1.378 . S
C454 C453 1.348 . S
C455 C451 1.415 . S
C455 C453 1.413 . S
C455 C485 1.437 . S
H456 C485 0.929 . S
N457 Gd430 2.570 . S
N457 C458 1.359 . S
N457 C461 1.343 . S
C458 C451 1.422 . S
C458 N457 1.359 . S
C458 C460 1.421 . S
C459 C460 1.422 . S
C459 C462 1.321 . S
C459 H486 0.931 . S
C460 C458 1.421 . S
C460 C459 1.422 . S
C460 C484 1.417 . S
C461 H438 0.931 . S
C461 N457 1.343 . S
C461 C462 1.390 . S
C462 H440 0.930 . S
C462 C459 1.321 . S
C462 C461 1.390 . S
O463 Gd431 2.386 . S
O463 C475 1.265 . S
O464 Gd430 2.353 . S
O464 C475 1.242 . S
O465 Gd430 2.468 1_565 S
O465 C483 1.263 . S
O466 Gd430 2.427 1_565 S
O466 C483 1.252 . S
O467 Gd431 2.307 . S
O467 C476 1.261 . S
O468 Gd430 2.388 . S
O468 C476 1.252 . S
O469 Gd430 2.386 . S
O469 C487 1.265 . S
O470 Gd431 2.353 . S
O470 C487 1.242 . S
O471 Gd431 2.468 . S
O471 C495 1.263 . S
O472 Gd431 2.427 . S
O472 C495 1.252 . S
O473 Gd430 2.307 . S
O473 C488 1.261 . S
O474 Gd431 2.388 . S
O474 C488 1.252 . S
C475 O463 1.265 . S
C475 O464 1.242 . S
C476 O467 1.261 . S
C476 O468 1.252 . S
C477 C480 1.394 . S
C477 C482 1.370 . S
C477 C483 1.500 . S
C478 C481 1.383 . S
C478 C482 1.395 . S
C479 C480 1.396 . S
C479 C481 1.365 . S
C479 H496 0.929 . S
C480 C477 1.394 . S
C480 C479 1.396 . S
C480 H497 0.930 . S
C481 C478 1.383 . S
C481 C479 1.365 . S
C481 H498 0.931 . S
C482 C477 1.370 . S
C482 C478 1.395 . S
C482 H499 0.930 . S
C483 Gd430 2.805 1_565 S
C483 O465 1.263 . S
C483 O466 1.252 . S
C483 C477 1.500 . S
C484 H446 0.930 . S
C484 C460 1.417 . S
C484 C485 1.329 . S
C485 C455 1.437 . S
C485 H456 0.929 . S
C485 C484 1.329 . S
H486 C459 0.931 . S
C487 O469 1.265 . S
C487 O470 1.242 . S
C488 O473 1.261 . S
C488 O474 1.252 . S
C489 C492 1.394 . S
C489 C494 1.370 . S
C489 C495 1.500 . S
C490 C493 1.383 . S
C490 C494 1.395 . S
C491 C492 1.396 . S
C491 C493 1.365 . S
C491 H500 0.929 . S
C492 C489 1.394 . S
C492 C491 1.396 . S
C492 H501 0.930 . S
C493 C490 1.383 . S
C493 C491 1.365 . S
C493 H502 0.931 . S
C494 C489 1.370 . S
C494 C490 1.395 . S
C494 H503 0.930 . S
C495 Gd431 2.805 . S
C495 O471 1.263 . S
C495 O472 1.252 . S
C495 C489 1.500 . S
H496 C479 0.929 . S
H497 C480 0.930 . S
H498 C481 0.931 . S
H499 C482 0.930 . S
H500 C491 0.929 . S
H501 C492 0.930 . S
H502 C493 0.931 . S
H503 C494 0.930 . S
C504 C506 1.422 . S
C504 C508 1.415 . S
C504 N510 1.369 . S
C505 C506 1.421 . S
C505 C507 1.417 . S
C505 C517 1.422 . S
C506 C504 1.422 . S
C506 C505 1.421 . S
C506 N516 1.359 . S
C507 C505 1.417 . S
C507 C509 1.329 . S
C507 H526 0.930 . S
C508 C504 1.415 . S
C508 C509 1.437 . S
C508 C512 1.413 . S
C509 C507 1.329 . S
C509 C508 1.437 . S
C509 H531 0.929 . S
N510 C504 1.369 . S
N510 C511 1.338 . S
N510 Gd515 2.622 . S
C511 N510 1.338 . S
C511 C513 1.378 . S
C511 H523 0.929 . S
C512 C508 1.413 . S
C512 C513 1.348 . S
C512 H528 0.931 . S
C513 C511 1.378 . S
C513 C512 1.348 . S
C513 H529 0.930 . S
Gd514 N534 2.622 . S
Gd514 N541 2.570 . S
Gd514 O548 2.353 . S
Gd514 O549 2.468 1_545 S
Gd514 O550 2.427 1_545 S
Gd514 O552 2.388 . S
Gd514 O553 2.386 . S
Gd514 O557 2.307 . S
Gd514 C567 2.805 1_545 S
Gd515 N510 2.622 . S
Gd515 N516 2.570 . S
Gd515 O547 2.386 . S
Gd515 O551 2.307 . S
Gd515 O554 2.353 . S
Gd515 O555 2.468 . S
Gd515 O556 2.427 . S
Gd515 O558 2.388 . S
Gd515 C579 2.805 . S
N516 C506 1.359 . S
N516 Gd515 2.570 . S
N516 C518 1.343 . S
C517 C505 1.422 . S
C517 C519 1.321 . S
C517 H525 0.931 . S
C518 N516 1.343 . S
C518 C519 1.390 . S
C518 H520 0.931 . S
C519 C517 1.321 . S
C519 C518 1.390 . S
C519 H521 0.930 . S
H520 C518 0.931 . S
H521 C519 0.930 . S
H522 C545 0.931 . S
H523 C511 0.929 . S
H524 C546 0.930 . S
H525 C517 0.931 . S
H526 C507 0.930 . S
H527 C536 0.929 . S
H528 C512 0.931 . S
H529 C513 0.930 . S
H530 C568 0.930 . S
H531 C509 0.929 . S
H532 C537 0.931 . S
H533 C538 0.930 . S
N534 Gd514 2.622 . S
N534 C535 1.369 . S
N534 C536 1.338 . S
C535 N534 1.369 . S
C535 C539 1.415 . S
C535 C542 1.422 . S
C536 H527 0.929 . S
C536 N534 1.338 . S
C536 C538 1.378 . S
C537 H532 0.931 . S
C537 C538 1.348 . S
C537 C539 1.413 . S
C538 H533 0.930 . S
C538 C536 1.378 . S
C538 C537 1.348 . S
C539 C535 1.415 . S
C539 C537 1.413 . S
C539 C569 1.437 . S
H540 C569 0.929 . S
N541 Gd514 2.570 . S
N541 C542 1.359 . S
N541 C545 1.343 . S
C542 C535 1.422 . S
C542 N541 1.359 . S
C542 C544 1.421 . S
C543 C544 1.422 . S
C543 C546 1.321 . S
C543 H570 0.931 . S
C544 C542 1.421 . S
C544 C543 1.422 . S
C544 C568 1.417 . S
C545 H522 0.931 . S
C545 N541 1.343 . S
C545 C546 1.390 . S
C546 H524 0.930 . S
C546 C543 1.321 . S
C546 C545 1.390 . S
O547 Gd515 2.386 . S
O547 C559 1.265 . S
O548 Gd514 2.353 . S
O548 C559 1.242 . S
O549 Gd514 2.468 1_565 S
O549 C567 1.263 . S
O550 Gd514 2.427 1_565 S
O550 C567 1.252 . S
O551 Gd515 2.307 . S
O551 C560 1.261 . S
O552 Gd514 2.388 . S
O552 C560 1.252 . S
O553 Gd514 2.386 . S
O553 C571 1.265 . S
O554 Gd515 2.353 . S
O554 C571 1.242 . S
O555 Gd515 2.468 . S
O555 C579 1.263 . S
O556 Gd515 2.427 . S
O556 C579 1.252 . S
O557 Gd514 2.307 . S
O557 C572 1.261 . S
O558 Gd515 2.388 . S
O558 C572 1.252 . S
C559 O547 1.265 . S
C559 O548 1.242 . S
C560 O551 1.261 . S
C560 O552 1.252 . S
C561 C564 1.394 . S
C561 C566 1.370 . S
C561 C567 1.500 . S
C562 C565 1.383 . S
C562 C566 1.395 . S
C563 C564 1.396 . S
C563 C565 1.365 . S
C563 H580 0.929 . S
C564 C561 1.394 . S
C564 C563 1.396 . S
C564 H581 0.930 . S
C565 C562 1.383 . S
C565 C563 1.365 . S
C565 H582 0.931 . S
C566 C561 1.370 . S
C566 C562 1.395 . S
C566 H583 0.930 . S
C567 Gd514 2.805 1_565 S
C567 O549 1.263 . S
C567 O550 1.252 . S
C567 C561 1.500 . S
C568 H530 0.930 . S
C568 C544 1.417 . S
C568 C569 1.329 . S
C569 C539 1.437 . S
C569 H540 0.929 . S
C569 C568 1.329 . S
H570 C543 0.931 . S
C571 O553 1.265 . S
C571 O554 1.242 . S
C572 O557 1.261 . S
C572 O558 1.252 . S
C573 C576 1.394 . S
C573 C578 1.370 . S
C573 C579 1.500 . S
C574 C577 1.383 . S
C574 C578 1.395 . S
C575 C576 1.396 . S
C575 C577 1.365 . S
C575 H584 0.929 . S
C576 C573 1.394 . S
C576 C575 1.396 . S
C576 H585 0.930 . S
C577 C574 1.383 . S
C577 C575 1.365 . S
C577 H586 0.931 . S
C578 C573 1.370 . S
C578 C574 1.395 . S
C578 H587 0.930 . S
C579 Gd515 2.805 . S
C579 O555 1.263 . S
C579 O556 1.252 . S
C579 C573 1.500 . S
H580 C563 0.929 . S
H581 C564 0.930 . S
H582 C565 0.931 . S
H583 C566 0.930 . S
H584 C575 0.929 . S
H585 C576 0.930 . S
H586 C577 0.931 . S
H587 C578 0.930 . S
C588 C590 1.422 . S
C588 C592 1.415 . S
C588 N594 1.369 . S
C589 C590 1.421 . S
C589 C591 1.417 . S
C589 C601 1.422 . S
C590 C588 1.422 . S
C590 C589 1.421 . S
C590 N600 1.359 . S
C591 C589 1.417 . S
C591 C593 1.329 . S
C591 H610 0.930 . S
C592 C588 1.415 . S
C592 C593 1.437 . S
C592 C596 1.413 . S
C593 C591 1.329 . S
C593 C592 1.437 . S
C593 H615 0.929 . S
N594 C588 1.369 . S
N594 C595 1.338 . S
N594 Gd599 2.622 . S
C595 N594 1.338 . S
C595 C597 1.378 . S
C595 H607 0.929 . S
C596 C592 1.413 . S
C596 C597 1.348 . S
C596 H612 0.931 . S
C597 C595 1.378 . S
C597 C596 1.348 . S
C597 H613 0.930 . S
Gd598 N618 2.622 . S
Gd598 N625 2.570 . S
Gd598 O632 2.353 . S
Gd598 O633 2.468 1_565 S
Gd598 O634 2.427 1_565 S
Gd598 O636 2.388 . S
Gd598 O637 2.386 . S
Gd598 O641 2.307 . S
Gd598 C651 2.805 1_565 S
Gd599 N594 2.622 . S
Gd599 N600 2.570 . S
Gd599 O631 2.386 . S
Gd599 O635 2.307 . S
Gd599 O638 2.353 . S
Gd599 O639 2.468 . S
Gd599 O640 2.427 . S
Gd599 O642 2.388 . S
Gd599 C663 2.805 . S
N600 C590 1.359 . S
N600 Gd599 2.570 . S
N600 C602 1.343 . S
C601 C589 1.422 . S
C601 C603 1.321 . S
C601 H609 0.931 . S
C602 N600 1.343 . S
C602 C603 1.390 . S
C602 H604 0.931 . S
C603 C601 1.321 . S
C603 C602 1.390 . S
C603 H605 0.930 . S
H604 C602 0.931 . S
H605 C603 0.930 . S
H606 C629 0.931 . S
H607 C595 0.929 . S
H608 C630 0.930 . S
H609 C601 0.931 . S
H610 C591 0.930 . S
H611 C620 0.929 . S
H612 C596 0.931 . S
H613 C597 0.930 . S
H614 C652 0.930 . S
H615 C593 0.929 . S
H616 C621 0.931 . S
H617 C622 0.930 . S
N618 Gd598 2.622 . S
N618 C619 1.369 . S
N618 C620 1.338 . S
C619 N618 1.369 . S
C619 C623 1.415 . S
C619 C626 1.422 . S
C620 H611 0.929 . S
C620 N618 1.338 . S
C620 C622 1.378 . S
C621 H616 0.931 . S
C621 C622 1.348 . S
C621 C623 1.413 . S
C622 H617 0.930 . S
C622 C620 1.378 . S
C622 C621 1.348 . S
C623 C619 1.415 . S
C623 C621 1.413 . S
C623 C653 1.437 . S
H624 C653 0.929 . S
N625 Gd598 2.570 . S
N625 C626 1.359 . S
N625 C629 1.343 . S
C626 C619 1.422 . S
C626 N625 1.359 . S
C626 C628 1.421 . S
C627 C628 1.422 . S
C627 C630 1.321 . S
C627 H654 0.931 . S
C628 C626 1.421 . S
C628 C627 1.422 . S
C628 C652 1.417 . S
C629 H606 0.931 . S
C629 N625 1.343 . S
C629 C630 1.390 . S
C630 H608 0.930 . S
C630 C627 1.321 . S
C630 C629 1.390 . S
O631 Gd599 2.386 . S
O631 C643 1.265 . S
O632 Gd598 2.353 . S
O632 C643 1.242 . S
O633 Gd598 2.468 1_545 S
O633 C651 1.263 . S
O634 Gd598 2.427 1_545 S
O634 C651 1.252 . S
O635 Gd599 2.307 . S
O635 C644 1.261 . S
O636 Gd598 2.388 . S
O636 C644 1.252 . S
O637 Gd598 2.386 . S
O637 C655 1.265 . S
O638 Gd599 2.353 . S
O638 C655 1.242 . S
O639 Gd599 2.468 . S
O639 C663 1.263 . S
O640 Gd599 2.427 . S
O640 C663 1.252 . S
O641 Gd598 2.307 . S
O641 C656 1.261 . S
O642 Gd599 2.388 . S
O642 C656 1.252 . S
C643 O631 1.265 . S
C643 O632 1.242 . S
C644 O635 1.261 . S
C644 O636 1.252 . S
C645 C648 1.394 . S
C645 C650 1.370 . S
C645 C651 1.500 . S
C646 C649 1.383 . S
C646 C650 1.395 . S
C647 C648 1.396 . S
C647 C649 1.365 . S
C647 H664 0.929 . S
C648 C645 1.394 . S
C648 C647 1.396 . S
C648 H665 0.930 . S
C649 C646 1.383 . S
C649 C647 1.365 . S
C649 H666 0.931 . S
C650 C645 1.370 . S
C650 C646 1.395 . S
C650 H667 0.930 . S
C651 Gd598 2.805 1_545 S
C651 O633 1.263 . S
C651 O634 1.252 . S
C651 C645 1.500 . S
C652 H614 0.930 . S
C652 C628 1.417 . S
C652 C653 1.329 . S
C653 C623 1.437 . S
C653 H624 0.929 . S
C653 C652 1.329 . S
H654 C627 0.931 . S
C655 O637 1.265 . S
C655 O638 1.242 . S
C656 O641 1.261 . S
C656 O642 1.252 . S
C657 C660 1.394 . S
C657 C662 1.370 . S
C657 C663 1.500 . S
C658 C661 1.383 . S
C658 C662 1.395 . S
C659 C660 1.396 . S
C659 C661 1.365 . S
C659 H668 0.929 . S
C660 C657 1.394 . S
C660 C659 1.396 . S
C660 H669 0.930 . S
C661 C658 1.383 . S
C661 C659 1.365 . S
C661 H670 0.931 . S
C662 C657 1.370 . S
C662 C658 1.395 . S
C662 H671 0.930 . S
C663 Gd599 2.805 . S
C663 O639 1.263 . S
C663 O640 1.252 . S
C663 C657 1.500 . S
H664 C647 0.929 . S
H665 C648 0.930 . S
H666 C649 0.931 . S
H667 C650 0.930 . S
H668 C659 0.929 . S
H669 C660 0.930 . S
H670 C661 0.931 . S
H671 C662 0.930 . S
C672 C674 1.422 . S
C672 C676 1.415 . S
C672 N678 1.369 . S
C673 C674 1.421 . S
C673 C675 1.417 . S
C673 C685 1.422 . S
C674 C672 1.422 . S
C674 C673 1.421 . S
C674 N684 1.359 . S
C675 C673 1.417 . S
C675 C677 1.329 . S
C675 H694 0.930 . S
C676 C672 1.415 . S
C676 C677 1.437 . S
C676 C680 1.413 . S
C677 C675 1.329 . S
C677 C676 1.437 . S
C677 H699 0.929 . S
N678 C672 1.369 . S
N678 C679 1.338 . S
N678 Gd683 2.622 . S
C679 N678 1.338 . S
C679 C681 1.378 . S
C679 H691 0.929 . S
C680 C676 1.413 . S
C680 C681 1.348 . S
C680 H696 0.931 . S
C681 C679 1.378 . S
C681 C680 1.348 . S
C681 H697 0.930 . S
Gd682 N702 2.622 . S
Gd682 N709 2.570 . S
Gd682 O716 2.353 . S
Gd682 O717 2.468 . S
Gd682 O718 2.427 . S
Gd682 O720 2.388 . S
Gd682 O721 2.386 . S
Gd682 O725 2.307 . S
Gd682 C735 2.805 . S
Gd683 N678 2.622 . S
Gd683 N684 2.570 . S
Gd683 O715 2.386 . S
Gd683 O719 2.307 . S
Gd683 O722 2.353 . S
Gd683 O723 2.468 . S
Gd683 O724 2.427 . S
Gd683 O726 2.388 . S
Gd683 C747 2.805 . S
N684 C674 1.359 . S
N684 Gd683 2.570 . S
N684 C686 1.343 . S
C685 C673 1.422 . S
C685 C687 1.321 . S
C685 H693 0.931 . S
C686 N684 1.343 . S
C686 C687 1.390 . S
C686 H688 0.931 . S
C687 C685 1.321 . S
C687 C686 1.390 . S
C687 H689 0.930 . S
H688 C686 0.931 . S
H689 C687 0.930 . S
H690 C713 0.931 . S
H691 C679 0.929 . S
H692 C714 0.930 . S
H693 C685 0.931 . S
H694 C675 0.930 . S
H695 C704 0.929 . S
H696 C680 0.931 . S
H697 C681 0.930 . S
H698 C736 0.930 . S
H699 C677 0.929 . S
H700 C705 0.931 . S
H701 C706 0.930 . S
N702 Gd682 2.622 . S
N702 C703 1.369 . S
N702 C704 1.338 . S
C703 N702 1.369 . S
C703 C707 1.415 . S
C703 C710 1.422 . S
C704 H695 0.929 . S
C704 N702 1.338 . S
C704 C706 1.378 . S
C705 H700 0.931 . S
C705 C706 1.348 . S
C705 C707 1.413 . S
C706 H701 0.930 . S
C706 C704 1.378 . S
C706 C705 1.348 . S
C707 C703 1.415 . S
C707 C705 1.413 . S
C707 C737 1.437 . S
H708 C737 0.929 . S
N709 Gd682 2.570 . S
N709 C710 1.359 . S
N709 C713 1.343 . S
C710 C703 1.422 . S
C710 N709 1.359 . S
C710 C712 1.421 . S
C711 C712 1.422 . S
C711 C714 1.321 . S
C711 H738 0.931 . S
C712 C710 1.421 . S
C712 C711 1.422 . S
C712 C736 1.417 . S
C713 H690 0.931 . S
C713 N709 1.343 . S
C713 C714 1.390 . S
C714 H692 0.930 . S
C714 C711 1.321 . S
C714 C713 1.390 . S
O715 Gd683 2.386 . S
O715 C727 1.265 . S
O716 Gd682 2.353 . S
O716 C727 1.242 . S
O717 Gd682 2.468 . S
O717 C735 1.263 . S
O718 Gd682 2.427 . S
O718 C735 1.252 . S
O719 Gd683 2.307 . S
O719 C728 1.261 . S
O720 Gd682 2.388 . S
O720 C728 1.252 . S
O721 Gd682 2.386 . S
O721 C739 1.265 . S
O722 Gd683 2.353 . S
O722 C739 1.242 . S
O723 Gd683 2.468 . S
O723 C747 1.263 . S
O724 Gd683 2.427 . S
O724 C747 1.252 . S
O725 Gd682 2.307 . S
O725 C740 1.261 . S
O726 Gd683 2.388 . S
O726 C740 1.252 . S
C727 O715 1.265 . S
C727 O716 1.242 . S
C728 O719 1.261 . S
C728 O720 1.252 . S
C729 C732 1.394 . S
C729 C734 1.370 . S
C729 C735 1.500 . S
C730 C733 1.383 . S
C730 C734 1.395 . S
C731 C732 1.396 . S
C731 C733 1.365 . S
C731 H748 0.929 . S
C732 C729 1.394 . S
C732 C731 1.396 . S
C732 H749 0.930 . S
C733 C730 1.383 . S
C733 C731 1.365 . S
C733 H750 0.931 . S
C734 C729 1.370 . S
C734 C730 1.395 . S
C734 H751 0.930 . S
C735 Gd682 2.805 . S
C735 O717 1.263 . S
C735 O718 1.252 . S
C735 C729 1.500 . S
C736 H698 0.930 . S
C736 C712 1.417 . S
C736 C737 1.329 . S
C737 C707 1.437 . S
C737 H708 0.929 . S
C737 C736 1.329 . S
H738 C711 0.931 . S
C739 O721 1.265 . S
C739 O722 1.242 . S
C740 O725 1.261 . S
C740 O726 1.252 . S
C741 C744 1.394 . S
C741 C746 1.370 . S
C741 C747 1.500 . S
C742 C745 1.383 . S
C742 C746 1.395 . S
C743 C744 1.396 . S
C743 C745 1.365 . S
C743 H752 0.929 . S
C744 C741 1.394 . S
C744 C743 1.396 . S
C744 H753 0.930 . S
C745 C742 1.383 . S
C745 C743 1.365 . S
C745 H754 0.931 . S
C746 C741 1.370 . S
C746 C742 1.395 . S
C746 H755 0.930 . S
C747 Gd683 2.805 . S
C747 O723 1.263 . S
C747 O724 1.252 . S
C747 C741 1.500 . S
H748 C731 0.929 . S
H749 C732 0.930 . S
H750 C733 0.931 . S
H751 C734 0.930 . S
H752 C743 0.929 . S
H753 C744 0.930 . S
H754 C745 0.931 . S
H755 C746 0.930 . S
C756 C758 1.422 . S
C756 C760 1.415 . S
C756 N762 1.369 . S
C757 C758 1.421 . S
C757 C759 1.417 . S
C757 C769 1.422 . S
C758 C756 1.422 . S
C758 C757 1.421 . S
C758 N768 1.359 . S
C759 C757 1.417 . S
C759 C761 1.329 . S
C759 H778 0.930 . S
C760 C756 1.415 . S
C760 C761 1.437 . S
C760 C764 1.413 . S
C761 C759 1.329 . S
C761 C760 1.437 . S
C761 H783 0.929 . S
N762 C756 1.369 . S
N762 C763 1.338 . S
N762 Gd767 2.622 . S
C763 N762 1.338 . S
C763 C765 1.378 . S
C763 H775 0.929 . S
C764 C760 1.413 . S
C764 C765 1.348 . S
C764 H780 0.931 . S
C765 C763 1.378 . S
C765 C764 1.348 . S
C765 H781 0.930 . S
Gd766 N786 2.622 . S
Gd766 N793 2.570 . S
Gd766 O800 2.353 . S
Gd766 O801 2.468 . S
Gd766 O802 2.427 . S
Gd766 O804 2.388 . S
Gd766 O805 2.386 . S
Gd766 O809 2.307 . S
Gd766 C819 2.805 . S
Gd767 N762 2.622 . S
Gd767 N768 2.570 . S
Gd767 O799 2.386 . S
Gd767 O803 2.307 . S
Gd767 O806 2.353 . S
Gd767 O807 2.468 . S
Gd767 O808 2.427 . S
Gd767 O810 2.388 . S
Gd767 C831 2.805 . S
N768 C758 1.359 . S
N768 Gd767 2.570 . S
N768 C770 1.343 . S
C769 C757 1.422 . S
C769 C771 1.321 . S
C769 H777 0.931 . S
C770 N768 1.343 . S
C770 C771 1.390 . S
C770 H772 0.931 . S
C771 C769 1.321 . S
C771 C770 1.390 . S
C771 H773 0.930 . S
H772 C770 0.931 . S
H773 C771 0.930 . S
H774 C797 0.931 . S
H775 C763 0.929 . S
H776 C798 0.930 . S
H777 C769 0.931 . S
H778 C759 0.930 . S
H779 C788 0.929 . S
H780 C764 0.931 . S
H781 C765 0.930 . S
H782 C820 0.930 . S
H783 C761 0.929 . S
H784 C789 0.931 . S
H785 C790 0.930 . S
N786 Gd766 2.622 . S
N786 C787 1.369 . S
N786 C788 1.338 . S
C787 N786 1.369 . S
C787 C791 1.415 . S
C787 C794 1.422 . S
C788 H779 0.929 . S
C788 N786 1.338 . S
C788 C790 1.378 . S
C789 H784 0.931 . S
C789 C790 1.348 . S
C789 C791 1.413 . S
C790 H785 0.930 . S
C790 C788 1.378 . S
C790 C789 1.348 . S
C791 C787 1.415 . S
C791 C789 1.413 . S
C791 C821 1.437 . S
H792 C821 0.929 . S
N793 Gd766 2.570 . S
N793 C794 1.359 . S
N793 C797 1.343 . S
C794 C787 1.422 . S
C794 N793 1.359 . S
C794 C796 1.421 . S
C795 C796 1.422 . S
C795 C798 1.321 . S
C795 H822 0.931 . S
C796 C794 1.421 . S
C796 C795 1.422 . S
C796 C820 1.417 . S
C797 H774 0.931 . S
C797 N793 1.343 . S
C797 C798 1.390 . S
C798 H776 0.930 . S
C798 C795 1.321 . S
C798 C797 1.390 . S
O799 Gd767 2.386 . S
O799 C811 1.265 . S
O800 Gd766 2.353 . S
O800 C811 1.242 . S
O801 Gd766 2.468 . S
O801 C819 1.263 . S
O802 Gd766 2.427 . S
O802 C819 1.252 . S
O803 Gd767 2.307 . S
O803 C812 1.261 . S
O804 Gd766 2.388 . S
O804 C812 1.252 . S
O805 Gd766 2.386 . S
O805 C823 1.265 . S
O806 Gd767 2.353 . S
O806 C823 1.242 . S
O807 Gd767 2.468 . S
O807 C831 1.263 . S
O808 Gd767 2.427 . S
O808 C831 1.252 . S
O809 Gd766 2.307 . S
O809 C824 1.261 . S
O810 Gd767 2.388 . S
O810 C824 1.252 . S
C811 O799 1.265 . S
C811 O800 1.242 . S
C812 O803 1.261 . S
C812 O804 1.252 . S
C813 C816 1.394 . S
C813 C818 1.370 . S
C813 C819 1.500 . S
C814 C817 1.383 . S
C814 C818 1.395 . S
C815 C816 1.396 . S
C815 C817 1.365 . S
C815 H832 0.929 . S
C816 C813 1.394 . S
C816 C815 1.396 . S
C816 H833 0.930 . S
C817 C814 1.383 . S
C817 C815 1.365 . S
C817 H834 0.931 . S
C818 C813 1.370 . S
C818 C814 1.395 . S
C818 H835 0.930 . S
C819 Gd766 2.805 . S
C819 O801 1.263 . S
C819 O802 1.252 . S
C819 C813 1.500 . S
C820 H782 0.930 . S
C820 C796 1.417 . S
C820 C821 1.329 . S
C821 C791 1.437 . S
C821 H792 0.929 . S
C821 C820 1.329 . S
H822 C795 0.931 . S
C823 O805 1.265 . S
C823 O806 1.242 . S
C824 O809 1.261 . S
C824 O810 1.252 . S
C825 C828 1.394 . S
C825 C830 1.370 . S
C825 C831 1.500 . S
C826 C829 1.383 . S
C826 C830 1.395 . S
C827 C828 1.396 . S
C827 C829 1.365 . S
C827 H836 0.929 . S
C828 C825 1.394 . S
C828 C827 1.396 . S
C828 H837 0.930 . S
C829 C826 1.383 . S
C829 C827 1.365 . S
C829 H838 0.931 . S
C830 C825 1.370 . S
C830 C826 1.395 . S
C830 H839 0.930 . S
C831 Gd767 2.805 . S
C831 O807 1.263 . S
C831 O808 1.252 . S
C831 C825 1.500 . S
H832 C815 0.929 . S
H833 C816 0.930 . S
H834 C817 0.931 . S
H835 C818 0.930 . S
H836 C827 0.929 . S
H837 C828 0.930 . S
H838 C829 0.931 . S
H839 C830 0.930 . S
C840 C842 1.422 . S
C840 C844 1.415 . S
C840 N846 1.369 . S
C841 C842 1.421 . S
C841 C843 1.417 . S
C841 C853 1.422 . S
C842 C840 1.422 . S
C842 C841 1.421 . S
C842 N852 1.359 . S
C843 C841 1.417 . S
C843 C845 1.329 . S
C843 H862 0.930 . S
C844 C840 1.415 . S
C844 C845 1.437 . S
C844 C848 1.413 . S
C845 C843 1.329 . S
C845 C844 1.437 . S
C845 H867 0.929 . S
N846 C840 1.369 . S
N846 C847 1.338 . S
N846 Gd851 2.622 . S
C847 N846 1.338 . S
C847 C849 1.378 . S
C847 H859 0.929 . S
C848 C844 1.413 . S
C848 C849 1.348 . S
C848 H864 0.931 . S
C849 C847 1.378 . S
C849 C848 1.348 . S
C849 H865 0.930 . S
Gd850 N870 2.622 . S
Gd850 N877 2.570 . S
Gd850 O884 2.353 . S
Gd850 O885 2.468 . S
Gd850 O886 2.427 . S
Gd850 O888 2.388 . S
Gd850 O889 2.386 . S
Gd850 O893 2.307 . S
Gd850 C903 2.805 . S
Gd851 N846 2.622 . S
Gd851 N852 2.570 . S
Gd851 O883 2.386 . S
Gd851 O887 2.307 . S
Gd851 O890 2.353 . S
Gd851 O891 2.468 . S
Gd851 O892 2.427 . S
Gd851 O894 2.388 . S
Gd851 C915 2.805 . S
N852 C842 1.359 . S
N852 Gd851 2.570 . S
N852 C854 1.343 . S
C853 C841 1.422 . S
C853 C855 1.321 . S
C853 H861 0.931 . S
C854 N852 1.343 . S
C854 C855 1.390 . S
C854 H856 0.931 . S
C855 C853 1.321 . S
C855 C854 1.390 . S
C855 H857 0.930 . S
H856 C854 0.931 . S
H857 C855 0.930 . S
H858 C881 0.931 . S
H859 C847 0.929 . S
H860 C882 0.930 . S
H861 C853 0.931 . S
H862 C843 0.930 . S
H863 C872 0.929 . S
H864 C848 0.931 . S
H865 C849 0.930 . S
H866 C904 0.930 . S
H867 C845 0.929 . S
H868 C873 0.931 . S
H869 C874 0.930 . S
N870 Gd850 2.622 . S
N870 C871 1.369 . S
N870 C872 1.338 . S
C871 N870 1.369 . S
C871 C875 1.415 . S
C871 C878 1.422 . S
C872 H863 0.929 . S
C872 N870 1.338 . S
C872 C874 1.378 . S
C873 H868 0.931 . S
C873 C874 1.348 . S
C873 C875 1.413 . S
C874 H869 0.930 . S
C874 C872 1.378 . S
C874 C873 1.348 . S
C875 C871 1.415 . S
C875 C873 1.413 . S
C875 C905 1.437 . S
H876 C905 0.929 . S
N877 Gd850 2.570 . S
N877 C878 1.359 . S
N877 C881 1.343 . S
C878 C871 1.422 . S
C878 N877 1.359 . S
C878 C880 1.421 . S
C879 C880 1.422 . S
C879 C882 1.321 . S
C879 H906 0.931 . S
C880 C878 1.421 . S
C880 C879 1.422 . S
C880 C904 1.417 . S
C881 H858 0.931 . S
C881 N877 1.343 . S
C881 C882 1.390 . S
C882 H860 0.930 . S
C882 C879 1.321 . S
C882 C881 1.390 . S
O883 Gd851 2.386 . S
O883 C895 1.265 . S
O884 Gd850 2.353 . S
O884 C895 1.242 . S
O885 Gd850 2.468 . S
O885 C903 1.263 . S
O886 Gd850 2.427 . S
O886 C903 1.252 . S
O887 Gd851 2.307 . S
O887 C896 1.261 . S
O888 Gd850 2.388 . S
O888 C896 1.252 . S
O889 Gd850 2.386 . S
O889 C907 1.265 . S
O890 Gd851 2.353 . S
O890 C907 1.242 . S
O891 Gd851 2.468 . S
O891 C915 1.263 . S
O892 Gd851 2.427 . S
O892 C915 1.252 . S
O893 Gd850 2.307 . S
O893 C908 1.261 . S
O894 Gd851 2.388 . S
O894 C908 1.252 . S
C895 O883 1.265 . S
C895 O884 1.242 . S
C896 O887 1.261 . S
C896 O888 1.252 . S
C897 C900 1.394 . S
C897 C902 1.370 . S
C897 C903 1.500 . S
C898 C901 1.383 . S
C898 C902 1.395 . S
C899 C900 1.396 . S
C899 C901 1.365 . S
C899 H916 0.929 . S
C900 C897 1.394 . S
C900 C899 1.396 . S
C900 H917 0.930 . S
C901 C898 1.383 . S
C901 C899 1.365 . S
C901 H918 0.931 . S
C902 C897 1.370 . S
C902 C898 1.395 . S
C902 H919 0.930 . S
C903 Gd850 2.805 . S
C903 O885 1.263 . S
C903 O886 1.252 . S
C903 C897 1.500 . S
C904 H866 0.930 . S
C904 C880 1.417 . S
C904 C905 1.329 . S
C905 C875 1.437 . S
C905 H876 0.929 . S
C905 C904 1.329 . S
H906 C879 0.931 . S
C907 O889 1.265 . S
C907 O890 1.242 . S
C908 O893 1.261 . S
C908 O894 1.252 . S
C909 C912 1.394 . S
C909 C914 1.370 . S
C909 C915 1.500 . S
C910 C913 1.383 . S
C910 C914 1.395 . S
C911 C912 1.396 . S
C911 C913 1.365 . S
C911 H920 0.929 . S
C912 C909 1.394 . S
C912 C911 1.396 . S
C912 H921 0.930 . S
C913 C910 1.383 . S
C913 C911 1.365 . S
C913 H922 0.931 . S
C914 C909 1.370 . S
C914 C910 1.395 . S
C914 H923 0.930 . S
C915 Gd851 2.805 . S
C915 O891 1.263 . S
C915 O892 1.252 . S
C915 C909 1.500 . S
H916 C899 0.929 . S
H917 C900 0.930 . S
H918 C901 0.931 . S
H919 C902 0.930 . S
H920 C911 0.929 . S
H921 C912 0.930 . S
H922 C913 0.931 . S
H923 C914 0.930 . S
C924 C926 1.422 . S
C924 C928 1.415 . S
C924 N930 1.369 . S
C925 C926 1.421 . S
C925 C927 1.417 . S
C925 C937 1.422 . S
C926 C924 1.422 . S
C926 C925 1.421 . S
C926 N936 1.359 . S
C927 C925 1.417 . S
C927 C929 1.329 . S
C927 H946 0.930 . S
C928 C924 1.415 . S
C928 C929 1.437 . S
C928 C932 1.413 . S
C929 C927 1.329 . S
C929 C928 1.437 . S
C929 H951 0.929 . S
N930 C924 1.369 . S
N930 C931 1.338 . S
N930 Gd935 2.622 . S
C931 N930 1.338 . S
C931 C933 1.378 . S
C931 H943 0.929 . S
C932 C928 1.413 . S
C932 C933 1.348 . S
C932 H948 0.931 . S
C933 C931 1.378 . S
C933 C932 1.348 . S
C933 H949 0.930 . S
Gd934 N954 2.622 . S
Gd934 N961 2.570 . S
Gd934 O968 2.353 . S
Gd934 O969 2.468 . S
Gd934 O970 2.427 . S
Gd934 O972 2.388 . S
Gd934 O973 2.386 . S
Gd934 O977 2.307 . S
Gd934 C987 2.805 . S
Gd935 N930 2.622 . S
Gd935 N936 2.570 . S
Gd935 O967 2.386 . S
Gd935 O971 2.307 . S
Gd935 O974 2.353 . S
Gd935 O975 2.468 . S
Gd935 O976 2.427 . S
Gd935 O978 2.388 . S
Gd935 C999 2.805 . S
N936 C926 1.359 . S
N936 Gd935 2.570 . S
N936 C938 1.343 . S
C937 C925 1.422 . S
C937 C939 1.321 . S
C937 H945 0.931 . S
C938 N936 1.343 . S
C938 C939 1.390 . S
C938 H940 0.931 . S
C939 C937 1.321 . S
C939 C938 1.390 . S
C939 H941 0.930 . S
H940 C938 0.931 . S
H941 C939 0.930 . S
H942 C965 0.931 . S
H943 C931 0.929 . S
H944 C966 0.930 . S
H945 C937 0.931 . S
H946 C927 0.930 . S
H947 C956 0.929 . S
H948 C932 0.931 . S
H949 C933 0.930 . S
H950 C988 0.930 . S
H951 C929 0.929 . S
H952 C957 0.931 . S
H953 C958 0.930 . S
N954 Gd934 2.622 . S
N954 C955 1.369 . S
N954 C956 1.338 . S
C955 N954 1.369 . S
C955 C959 1.415 . S
C955 C962 1.422 . S
C956 H947 0.929 . S
C956 N954 1.338 . S
C956 C958 1.378 . S
C957 H952 0.931 . S
C957 C958 1.348 . S
C957 C959 1.413 . S
C958 H953 0.930 . S
C958 C956 1.378 . S
C958 C957 1.348 . S
C959 C955 1.415 . S
C959 C957 1.413 . S
C959 C989 1.437 . S
H960 C989 0.929 . S
N961 Gd934 2.570 . S
N961 C962 1.359 . S
N961 C965 1.343 . S
C962 C955 1.422 . S
C962 N961 1.359 . S
C962 C964 1.421 . S
C963 C964 1.422 . S
C963 C966 1.321 . S
C963 H990 0.931 . S
C964 C962 1.421 . S
C964 C963 1.422 . S
C964 C988 1.417 . S
C965 H942 0.931 . S
C965 N961 1.343 . S
C965 C966 1.390 . S
C966 H944 0.930 . S
C966 C963 1.321 . S
C966 C965 1.390 . S
O967 Gd935 2.386 . S
O967 C979 1.265 . S
O968 Gd934 2.353 . S
O968 C979 1.242 . S
O969 Gd934 2.468 . S
O969 C987 1.263 . S
O970 Gd934 2.427 . S
O970 C987 1.252 . S
O971 Gd935 2.307 . S
O971 C980 1.261 . S
O972 Gd934 2.388 . S
O972 C980 1.252 . S
O973 Gd934 2.386 . S
O973 C991 1.265 . S
O974 Gd935 2.353 . S
O974 C991 1.242 . S
O975 Gd935 2.468 . S
O975 C999 1.263 . S
O976 Gd935 2.427 . S
O976 C999 1.252 . S
O977 Gd934 2.307 . S
O977 C992 1.261 . S
O978 Gd935 2.388 . S
O978 C992 1.252 . S
C979 O967 1.265 . S
C979 O968 1.242 . S
C980 O971 1.261 . S
C980 O972 1.252 . S
C981 C984 1.394 . S
C981 C986 1.370 . S
C981 C987 1.500 . S
C982 C985 1.383 . S
C982 C986 1.395 . S
C983 C984 1.396 . S
C983 C985 1.365 . S
C983 H1000 0.929 . S
C984 C981 1.394 . S
C984 C983 1.396 . S
C984 H1001 0.930 . S
C985 C982 1.383 . S
C985 C983 1.365 . S
C985 H1002 0.931 . S
C986 C981 1.370 . S
C986 C982 1.395 . S
C986 H1003 0.930 . S
C987 Gd934 2.805 . S
C987 O969 1.263 . S
C987 O970 1.252 . S
C987 C981 1.500 . S
C988 H950 0.930 . S
C988 C964 1.417 . S
C988 C989 1.329 . S
C989 C959 1.437 . S
C989 H960 0.929 . S
C989 C988 1.329 . S
H990 C963 0.931 . S
C991 O973 1.265 . S
C991 O974 1.242 . S
C992 O977 1.261 . S
C992 O978 1.252 . S
C993 C996 1.394 . S
C993 C998 1.370 . S
C993 C999 1.500 . S
C994 C997 1.383 . S
C994 C998 1.395 . S
C995 C996 1.396 . S
C995 C997 1.365 . S
C995 H1004 0.929 . S
C996 C993 1.394 . S
C996 C995 1.396 . S
C996 H1005 0.930 . S
C997 C994 1.383 . S
C997 C995 1.365 . S
C997 H1006 0.931 . S
C998 C993 1.370 . S
C998 C994 1.395 . S
C998 H1007 0.930 . S
C999 Gd935 2.805 . S
C999 O975 1.263 . S
C999 O976 1.252 . S
C999 C993 1.500 . S
H1000 C983 0.929 . S
H1001 C984 0.930 . S
H1002 C985 0.931 . S
H1003 C986 0.930 . S
H1004 C995 0.929 . S
H1005 C996 0.930 . S
H1006 C997 0.931 . S
H1007 C998 0.930 . S
C1008 C1010 1.422 . S
C1008 C1012 1.415 . S
C1008 N1014 1.369 . S
C1009 C1010 1.421 . S
C1009 C1011 1.417 . S
C1009 C1021 1.422 . S
C1010 C1008 1.422 . S
C1010 C1009 1.421 . S
C1010 N1020 1.359 . S
C1011 C1009 1.417 . S
C1011 C1013 1.329 . S
C1011 H1030 0.930 . S
C1012 C1008 1.415 . S
C1012 C1013 1.437 . S
C1012 C1016 1.413 . S
C1013 C1011 1.329 . S
C1013 C1012 1.437 . S
C1013 H1035 0.929 . S
N1014 C1008 1.369 . S
N1014 C1015 1.338 . S
N1014 Gd1019 2.622 . S
C1015 N1014 1.338 . S
C1015 C1017 1.378 . S
C1015 H1027 0.929 . S
C1016 C1012 1.413 . S
C1016 C1017 1.348 . S
C1016 H1032 0.931 . S
C1017 C1015 1.378 . S
C1017 C1016 1.348 . S
C1017 H1033 0.930 . S
Gd1018 N1038 2.622 . S
Gd1018 N1045 2.570 . S
Gd1018 O1052 2.353 . S
Gd1018 O1053 2.468 . S
Gd1018 O1054 2.427 . S
Gd1018 O1056 2.388 . S
Gd1018 O1057 2.386 . S
Gd1018 O1061 2.307 . S
Gd1018 C1071 2.805 . S
Gd1019 N1014 2.622 . S
Gd1019 N1020 2.570 . S
Gd1019 O1051 2.386 . S
Gd1019 O1055 2.307 . S
Gd1019 O1058 2.353 . S
Gd1019 O1059 2.468 . S
Gd1019 O1060 2.427 . S
Gd1019 O1062 2.388 . S
Gd1019 C1083 2.805 . S
N1020 C1010 1.359 . S
N1020 Gd1019 2.570 . S
N1020 C1022 1.343 . S
C1021 C1009 1.422 . S
C1021 C1023 1.321 . S
C1021 H1029 0.931 . S
C1022 N1020 1.343 . S
C1022 C1023 1.390 . S
C1022 H1024 0.931 . S
C1023 C1021 1.321 . S
C1023 C1022 1.390 . S
C1023 H1025 0.930 . S
H1024 C1022 0.931 . S
H1025 C1023 0.930 . S
H1026 C1049 0.931 . S
H1027 C1015 0.929 . S
H1028 C1050 0.930 . S
H1029 C1021 0.931 . S
H1030 C1011 0.930 . S
H1031 C1040 0.929 . S
H1032 C1016 0.931 . S
H1033 C1017 0.930 . S
H1034 C1072 0.930 . S
H1035 C1013 0.929 . S
H1036 C1041 0.931 . S
H1037 C1042 0.930 . S
N1038 Gd1018 2.622 . S
N1038 C1039 1.369 . S
N1038 C1040 1.338 . S
C1039 N1038 1.369 . S
C1039 C1043 1.415 . S
C1039 C1046 1.422 . S
C1040 H1031 0.929 . S
C1040 N1038 1.338 . S
C1040 C1042 1.378 . S
C1041 H1036 0.931 . S
C1041 C1042 1.348 . S
C1041 C1043 1.413 . S
C1042 H1037 0.930 . S
C1042 C1040 1.378 . S
C1042 C1041 1.348 . S
C1043 C1039 1.415 . S
C1043 C1041 1.413 . S
C1043 C1073 1.437 . S
H1044 C1073 0.929 . S
N1045 Gd1018 2.570 . S
N1045 C1046 1.359 . S
N1045 C1049 1.343 . S
C1046 C1039 1.422 . S
C1046 N1045 1.359 . S
C1046 C1048 1.421 . S
C1047 C1048 1.422 . S
C1047 C1050 1.321 . S
C1047 H1074 0.931 . S
C1048 C1046 1.421 . S
C1048 C1047 1.422 . S
C1048 C1072 1.417 . S
C1049 H1026 0.931 . S
C1049 N1045 1.343 . S
C1049 C1050 1.390 . S
C1050 H1028 0.930 . S
C1050 C1047 1.321 . S
C1050 C1049 1.390 . S
O1051 Gd1019 2.386 . S
O1051 C1063 1.265 . S
O1052 Gd1018 2.353 . S
O1052 C1063 1.242 . S
O1053 Gd1018 2.468 . S
O1053 C1071 1.263 . S
O1054 Gd1018 2.427 . S
O1054 C1071 1.252 . S
O1055 Gd1019 2.307 . S
O1055 C1064 1.261 . S
O1056 Gd1018 2.388 . S
O1056 C1064 1.252 . S
O1057 Gd1018 2.386 . S
O1057 C1075 1.265 . S
O1058 Gd1019 2.353 . S
O1058 C1075 1.242 . S
O1059 Gd1019 2.468 . S
O1059 C1083 1.263 . S
O1060 Gd1019 2.427 . S
O1060 C1083 1.252 . S
O1061 Gd1018 2.307 . S
O1061 C1076 1.261 . S
O1062 Gd1019 2.388 . S
O1062 C1076 1.252 . S
C1063 O1051 1.265 . S
C1063 O1052 1.242 . S
C1064 O1055 1.261 . S
C1064 O1056 1.252 . S
C1065 C1068 1.394 . S
C1065 C1070 1.370 . S
C1065 C1071 1.500 . S
C1066 C1069 1.383 . S
C1066 C1070 1.395 . S
C1067 C1068 1.396 . S
C1067 C1069 1.365 . S
C1067 H1084 0.929 . S
C1068 C1065 1.394 . S
C1068 C1067 1.396 . S
C1068 H1085 0.930 . S
C1069 C1066 1.383 . S
C1069 C1067 1.365 . S
C1069 H1086 0.931 . S
C1070 C1065 1.370 . S
C1070 C1066 1.395 . S
C1070 H1087 0.930 . S
C1071 Gd1018 2.805 . S
C1071 O1053 1.263 . S
C1071 O1054 1.252 . S
C1071 C1065 1.500 . S
C1072 H1034 0.930 . S
C1072 C1048 1.417 . S
C1072 C1073 1.329 . S
C1073 C1043 1.437 . S
C1073 H1044 0.929 . S
C1073 C1072 1.329 . S
H1074 C1047 0.931 . S
C1075 O1057 1.265 . S
C1075 O1058 1.242 . S
C1076 O1061 1.261 . S
C1076 O1062 1.252 . S
C1077 C1080 1.394 . S
C1077 C1082 1.370 . S
C1077 C1083 1.500 . S
C1078 C1081 1.383 . S
C1078 C1082 1.395 . S
C1079 C1080 1.396 . S
C1079 C1081 1.365 . S
C1079 H1088 0.929 . S
C1080 C1077 1.394 . S
C1080 C1079 1.396 . S
C1080 H1089 0.930 . S
C1081 C1078 1.383 . S
C1081 C1079 1.365 . S
C1081 H1090 0.931 . S
C1082 C1077 1.370 . S
C1082 C1078 1.395 . S
C1082 H1091 0.930 . S
C1083 Gd1019 2.805 . S
C1083 O1059 1.263 . S
C1083 O1060 1.252 . S
C1083 C1077 1.500 . S
H1084 C1067 0.929 . S
H1085 C1068 0.930 . S
H1086 C1069 0.931 . S
H1087 C1070 0.930 . S
H1088 C1079 0.929 . S
H1089 C1080 0.930 . S
H1090 C1081 0.931 . S
H1091 C1082 0.930 . S
C1092 C1094 1.422 . S
C1092 C1096 1.415 . S
C1092 N1098 1.369 . S
C1093 C1094 1.421 . S
C1093 C1095 1.417 . S
C1093 C1105 1.422 . S
C1094 C1092 1.422 . S
C1094 C1093 1.421 . S
C1094 N1104 1.359 . S
C1095 C1093 1.417 . S
C1095 C1097 1.329 . S
C1095 H1114 0.930 . S
C1096 C1092 1.415 . S
C1096 C1097 1.437 . S
C1096 C1100 1.413 . S
C1097 C1095 1.329 . S
C1097 C1096 1.437 . S
C1097 H1119 0.929 . S
N1098 C1092 1.369 . S
N1098 C1099 1.338 . S
N1098 Gd1103 2.622 . S
C1099 N1098 1.338 . S
C1099 C1101 1.378 . S
C1099 H1111 0.929 . S
C1100 C1096 1.413 . S
C1100 C1101 1.348 . S
C1100 H1116 0.931 . S
C1101 C1099 1.378 . S
C1101 C1100 1.348 . S
C1101 H1117 0.930 . S
Gd1102 N1122 2.622 . S
Gd1102 N1129 2.570 . S
Gd1102 O1136 2.353 . S
Gd1102 O1137 2.468 . S
Gd1102 O1138 2.427 . S
Gd1102 O1140 2.388 . S
Gd1102 O1141 2.386 . S
Gd1102 O1145 2.307 . S
Gd1102 C1155 2.805 . S
Gd1103 N1098 2.622 . S
Gd1103 N1104 2.570 . S
Gd1103 O1135 2.386 . S
Gd1103 O1139 2.307 . S
Gd1103 O1142 2.353 . S
Gd1103 O1143 2.468 . S
Gd1103 O1144 2.427 . S
Gd1103 O1146 2.388 . S
Gd1103 C1167 2.805 . S
N1104 C1094 1.359 . S
N1104 Gd1103 2.570 . S
N1104 C1106 1.343 . S
C1105 C1093 1.422 . S
C1105 C1107 1.321 . S
C1105 H1113 0.931 . S
C1106 N1104 1.343 . S
C1106 C1107 1.390 . S
C1106 H1108 0.931 . S
C1107 C1105 1.321 . S
C1107 C1106 1.390 . S
C1107 H1109 0.930 . S
H1108 C1106 0.931 . S
H1109 C1107 0.930 . S
H1110 C1133 0.931 . S
H1111 C1099 0.929 . S
H1112 C1134 0.930 . S
H1113 C1105 0.931 . S
H1114 C1095 0.930 . S
H1115 C1124 0.929 . S
H1116 C1100 0.931 . S
H1117 C1101 0.930 . S
H1118 C1156 0.930 . S
H1119 C1097 0.929 . S
H1120 C1125 0.931 . S
H1121 C1126 0.930 . S
N1122 Gd1102 2.622 . S
N1122 C1123 1.369 . S
N1122 C1124 1.338 . S
C1123 N1122 1.369 . S
C1123 C1127 1.415 . S
C1123 C1130 1.422 . S
C1124 H1115 0.929 . S
C1124 N1122 1.338 . S
C1124 C1126 1.378 . S
C1125 H1120 0.931 . S
C1125 C1126 1.348 . S
C1125 C1127 1.413 . S
C1126 H1121 0.930 . S
C1126 C1124 1.378 . S
C1126 C1125 1.348 . S
C1127 C1123 1.415 . S
C1127 C1125 1.413 . S
C1127 C1157 1.437 . S
H1128 C1157 0.929 . S
N1129 Gd1102 2.570 . S
N1129 C1130 1.359 . S
N1129 C1133 1.343 . S
C1130 C1123 1.422 . S
C1130 N1129 1.359 . S
C1130 C1132 1.421 . S
C1131 C1132 1.422 . S
C1131 C1134 1.321 . S
C1131 H1158 0.931 . S
C1132 C1130 1.421 . S
C1132 C1131 1.422 . S
C1132 C1156 1.417 . S
C1133 H1110 0.931 . S
C1133 N1129 1.343 . S
C1133 C1134 1.390 . S
C1134 H1112 0.930 . S
C1134 C1131 1.321 . S
C1134 C1133 1.390 . S
O1135 Gd1103 2.386 . S
O1135 C1147 1.265 . S
O1136 Gd1102 2.353 . S
O1136 C1147 1.242 . S
O1137 Gd1102 2.468 . S
O1137 C1155 1.263 . S
O1138 Gd1102 2.427 . S
O1138 C1155 1.252 . S
O1139 Gd1103 2.307 . S
O1139 C1148 1.261 . S
O1140 Gd1102 2.388 . S
O1140 C1148 1.252 . S
O1141 Gd1102 2.386 . S
O1141 C1159 1.265 . S
O1142 Gd1103 2.353 . S
O1142 C1159 1.242 . S
O1143 Gd1103 2.468 . S
O1143 C1167 1.263 . S
O1144 Gd1103 2.427 . S
O1144 C1167 1.252 . S
O1145 Gd1102 2.307 . S
O1145 C1160 1.261 . S
O1146 Gd1103 2.388 . S
O1146 C1160 1.252 . S
C1147 O1135 1.265 . S
C1147 O1136 1.242 . S
C1148 O1139 1.261 . S
C1148 O1140 1.252 . S
C1149 C1152 1.394 . S
C1149 C1154 1.370 . S
C1149 C1155 1.500 . S
C1150 C1153 1.383 . S
C1150 C1154 1.395 . S
C1151 C1152 1.396 . S
C1151 C1153 1.365 . S
C1151 H1168 0.929 . S
C1152 C1149 1.394 . S
C1152 C1151 1.396 . S
C1152 H1169 0.930 . S
C1153 C1150 1.383 . S
C1153 C1151 1.365 . S
C1153 H1170 0.931 . S
C1154 C1149 1.370 . S
C1154 C1150 1.395 . S
C1154 H1171 0.930 . S
C1155 Gd1102 2.805 . S
C1155 O1137 1.263 . S
C1155 O1138 1.252 . S
C1155 C1149 1.500 . S
C1156 H1118 0.930 . S
C1156 C1132 1.417 . S
C1156 C1157 1.329 . S
C1157 C1127 1.437 . S
C1157 H1128 0.929 . S
C1157 C1156 1.329 . S
H1158 C1131 0.931 . S
C1159 O1141 1.265 . S
C1159 O1142 1.242 . S
C1160 O1145 1.261 . S
C1160 O1146 1.252 . S
C1161 C1164 1.394 . S
C1161 C1166 1.370 . S
C1161 C1167 1.500 . S
C1162 C1165 1.383 . S
C1162 C1166 1.395 . S
C1163 C1164 1.396 . S
C1163 C1165 1.365 . S
C1163 H1172 0.929 . S
C1164 C1161 1.394 . S
C1164 C1163 1.396 . S
C1164 H1173 0.930 . S
C1165 C1162 1.383 . S
C1165 C1163 1.365 . S
C1165 H1174 0.931 . S
C1166 C1161 1.370 . S
C1166 C1162 1.395 . S
C1166 H1175 0.930 . S
C1167 Gd1103 2.805 . S
C1167 O1143 1.263 . S
C1167 O1144 1.252 . S
C1167 C1161 1.500 . S
H1168 C1151 0.929 . S
H1169 C1152 0.930 . S
H1170 C1153 0.931 . S
H1171 C1154 0.930 . S
H1172 C1163 0.929 . S
H1173 C1164 0.930 . S
H1174 C1165 0.931 . S
H1175 C1166 0.930 . S
C1176 C1178 1.422 . S
C1176 C1180 1.415 . S
C1176 N1182 1.369 . S
C1177 C1178 1.421 . S
C1177 C1179 1.417 . S
C1177 C1189 1.422 . S
C1178 C1176 1.422 . S
C1178 C1177 1.421 . S
C1178 N1188 1.359 . S
C1179 C1177 1.417 . S
C1179 C1181 1.329 . S
C1179 H1198 0.930 . S
C1180 C1176 1.415 . S
C1180 C1181 1.437 . S
C1180 C1184 1.413 . S
C1181 C1179 1.329 . S
C1181 C1180 1.437 . S
C1181 H1203 0.929 . S
N1182 C1176 1.369 . S
N1182 C1183 1.338 . S
N1182 Gd1187 2.622 . S
C1183 N1182 1.338 . S
C1183 C1185 1.378 . S
C1183 H1195 0.929 . S
C1184 C1180 1.413 . S
C1184 C1185 1.348 . S
C1184 H1200 0.931 . S
C1185 C1183 1.378 . S
C1185 C1184 1.348 . S
C1185 H1201 0.930 . S
Gd1186 N1206 2.622 . S
Gd1186 N1213 2.570 . S
Gd1186 O1220 2.353 . S
Gd1186 O1221 2.468 . S
Gd1186 O1222 2.427 . S
Gd1186 O1224 2.388 . S
Gd1186 O1225 2.386 . S
Gd1186 O1229 2.307 . S
Gd1186 C1239 2.805 . S
Gd1187 N1182 2.622 . S
Gd1187 N1188 2.570 . S
Gd1187 O1219 2.386 . S
Gd1187 O1223 2.307 . S
Gd1187 O1226 2.353 . S
Gd1187 O1227 2.468 . S
Gd1187 O1228 2.427 . S
Gd1187 O1230 2.388 . S
Gd1187 C1251 2.805 . S
N1188 C1178 1.359 . S
N1188 Gd1187 2.570 . S
N1188 C1190 1.343 . S
C1189 C1177 1.422 . S
C1189 C1191 1.321 . S
C1189 H1197 0.931 . S
C1190 N1188 1.343 . S
C1190 C1191 1.390 . S
C1190 H1192 0.931 . S
C1191 C1189 1.321 . S
C1191 C1190 1.390 . S
C1191 H1193 0.930 . S
H1192 C1190 0.931 . S
H1193 C1191 0.930 . S
H1194 C1217 0.931 . S
H1195 C1183 0.929 . S
H1196 C1218 0.930 . S
H1197 C1189 0.931 . S
H1198 C1179 0.930 . S
H1199 C1208 0.929 . S
H1200 C1184 0.931 . S
H1201 C1185 0.930 . S
H1202 C1240 0.930 . S
H1203 C1181 0.929 . S
H1204 C1209 0.931 . S
H1205 C1210 0.930 . S
N1206 Gd1186 2.622 . S
N1206 C1207 1.369 . S
N1206 C1208 1.338 . S
C1207 N1206 1.369 . S
C1207 C1211 1.415 . S
C1207 C1214 1.422 . S
C1208 H1199 0.929 . S
C1208 N1206 1.338 . S
C1208 C1210 1.378 . S
C1209 H1204 0.931 . S
C1209 C1210 1.348 . S
C1209 C1211 1.413 . S
C1210 H1205 0.930 . S
C1210 C1208 1.378 . S
C1210 C1209 1.348 . S
C1211 C1207 1.415 . S
C1211 C1209 1.413 . S
C1211 C1241 1.437 . S
H1212 C1241 0.929 . S
N1213 Gd1186 2.570 . S
N1213 C1214 1.359 . S
N1213 C1217 1.343 . S
C1214 C1207 1.422 . S
C1214 N1213 1.359 . S
C1214 C1216 1.421 . S
C1215 C1216 1.422 . S
C1215 C1218 1.321 . S
C1215 H1242 0.931 . S
C1216 C1214 1.421 . S
C1216 C1215 1.422 . S
C1216 C1240 1.417 . S
C1217 H1194 0.931 . S
C1217 N1213 1.343 . S
C1217 C1218 1.390 . S
C1218 H1196 0.930 . S
C1218 C1215 1.321 . S
C1218 C1217 1.390 . S
O1219 Gd1187 2.386 . S
O1219 C1231 1.265 . S
O1220 Gd1186 2.353 . S
O1220 C1231 1.242 . S
O1221 Gd1186 2.468 . S
O1221 C1239 1.263 . S
O1222 Gd1186 2.427 . S
O1222 C1239 1.252 . S
O1223 Gd1187 2.307 . S
O1223 C1232 1.261 . S
O1224 Gd1186 2.388 . S
O1224 C1232 1.252 . S
O1225 Gd1186 2.386 . S
O1225 C1243 1.265 . S
O1226 Gd1187 2.353 . S
O1226 C1243 1.242 . S
O1227 Gd1187 2.468 . S
O1227 C1251 1.263 . S
O1228 Gd1187 2.427 . S
O1228 C1251 1.252 . S
O1229 Gd1186 2.307 . S
O1229 C1244 1.261 . S
O1230 Gd1187 2.388 . S
O1230 C1244 1.252 . S
C1231 O1219 1.265 . S
C1231 O1220 1.242 . S
C1232 O1223 1.261 . S
C1232 O1224 1.252 . S
C1233 C1236 1.394 . S
C1233 C1238 1.370 . S
C1233 C1239 1.500 . S
C1234 C1237 1.383 . S
C1234 C1238 1.395 . S
C1235 C1236 1.396 . S
C1235 C1237 1.365 . S
C1235 H1252 0.929 . S
C1236 C1233 1.394 . S
C1236 C1235 1.396 . S
C1236 H1253 0.930 . S
C1237 C1234 1.383 . S
C1237 C1235 1.365 . S
C1237 H1254 0.931 . S
C1238 C1233 1.370 . S
C1238 C1234 1.395 . S
C1238 H1255 0.930 . S
C1239 Gd1186 2.805 . S
C1239 O1221 1.263 . S
C1239 O1222 1.252 . S
C1239 C1233 1.500 . S
C1240 H1202 0.930 . S
C1240 C1216 1.417 . S
C1240 C1241 1.329 . S
C1241 C1211 1.437 . S
C1241 H1212 0.929 . S
C1241 C1240 1.329 . S
H1242 C1215 0.931 . S
C1243 O1225 1.265 . S
C1243 O1226 1.242 . S
C1244 O1229 1.261 . S
C1244 O1230 1.252 . S
C1245 C1248 1.394 . S
C1245 C1250 1.370 . S
C1245 C1251 1.500 . S
C1246 C1249 1.383 . S
C1246 C1250 1.395 . S
C1247 C1248 1.396 . S
C1247 C1249 1.365 . S
C1247 H1256 0.929 . S
C1248 C1245 1.394 . S
C1248 C1247 1.396 . S
C1248 H1257 0.930 . S
C1249 C1246 1.383 . S
C1249 C1247 1.365 . S
C1249 H1258 0.931 . S
C1250 C1245 1.370 . S
C1250 C1246 1.395 . S
C1250 H1259 0.930 . S
C1251 Gd1187 2.805 . S
C1251 O1227 1.263 . S
C1251 O1228 1.252 . S
C1251 C1245 1.500 . S
H1252 C1235 0.929 . S
H1253 C1236 0.930 . S
H1254 C1237 0.931 . S
H1255 C1238 0.930 . S
H1256 C1247 0.929 . S
H1257 C1248 0.930 . S
H1258 C1249 0.931 . S
H1259 C1250 0.930 . S
C1260 C1262 1.422 . S
C1260 C1264 1.415 . S
C1260 N1266 1.369 . S
C1261 C1262 1.421 . S
C1261 C1263 1.417 . S
C1261 C1273 1.422 . S
C1262 C1260 1.422 . S
C1262 C1261 1.421 . S
C1262 N1272 1.359 . S
C1263 C1261 1.417 . S
C1263 C1265 1.329 . S
C1263 H1282 0.930 . S
C1264 C1260 1.415 . S
C1264 C1265 1.437 . S
C1264 C1268 1.413 . S
C1265 C1263 1.329 . S
C1265 C1264 1.437 . S
C1265 H1287 0.929 . S
N1266 C1260 1.369 . S
N1266 C1267 1.338 . S
N1266 Gd1271 2.622 . S
C1267 N1266 1.338 . S
C1267 C1269 1.378 . S
C1267 H1279 0.929 . S
C1268 C1264 1.413 . S
C1268 C1269 1.348 . S
C1268 H1284 0.931 . S
C1269 C1267 1.378 . S
C1269 C1268 1.348 . S
C1269 H1285 0.930 . S
Gd1270 N1290 2.622 . S
Gd1270 N1297 2.570 . S
Gd1270 O1304 2.353 . S
Gd1270 O1305 2.468 . S
Gd1270 O1306 2.427 . S
Gd1270 O1308 2.388 . S
Gd1270 O1309 2.386 . S
Gd1270 O1313 2.307 . S
Gd1270 C1323 2.805 . S
Gd1271 N1266 2.622 . S
Gd1271 N1272 2.570 . S
Gd1271 O1303 2.386 . S
Gd1271 O1307 2.307 . S
Gd1271 O1310 2.353 . S
Gd1271 O1311 2.468 . S
Gd1271 O1312 2.427 . S
Gd1271 O1314 2.388 . S
Gd1271 C1335 2.805 . S
N1272 C1262 1.359 . S
N1272 Gd1271 2.570 . S
N1272 C1274 1.343 . S
C1273 C1261 1.422 . S
C1273 C1275 1.321 . S
C1273 H1281 0.931 . S
C1274 N1272 1.343 . S
C1274 C1275 1.390 . S
C1274 H1276 0.931 . S
C1275 C1273 1.321 . S
C1275 C1274 1.390 . S
C1275 H1277 0.930 . S
H1276 C1274 0.931 . S
H1277 C1275 0.930 . S
H1278 C1301 0.931 . S
H1279 C1267 0.929 . S
H1280 C1302 0.930 . S
H1281 C1273 0.931 . S
H1282 C1263 0.930 . S
H1283 C1292 0.929 . S
H1284 C1268 0.931 . S
H1285 C1269 0.930 . S
H1286 C1324 0.930 . S
H1287 C1265 0.929 . S
H1288 C1293 0.931 . S
H1289 C1294 0.930 . S
N1290 Gd1270 2.622 . S
N1290 C1291 1.369 . S
N1290 C1292 1.338 . S
C1291 N1290 1.369 . S
C1291 C1295 1.415 . S
C1291 C1298 1.422 . S
C1292 H1283 0.929 . S
C1292 N1290 1.338 . S
C1292 C1294 1.378 . S
C1293 H1288 0.931 . S
C1293 C1294 1.348 . S
C1293 C1295 1.413 . S
C1294 H1289 0.930 . S
C1294 C1292 1.378 . S
C1294 C1293 1.348 . S
C1295 C1291 1.415 . S
C1295 C1293 1.413 . S
C1295 C1325 1.437 . S
H1296 C1325 0.929 . S
N1297 Gd1270 2.570 . S
N1297 C1298 1.359 . S
N1297 C1301 1.343 . S
C1298 C1291 1.422 . S
C1298 N1297 1.359 . S
C1298 C1300 1.421 . S
C1299 C1300 1.422 . S
C1299 C1302 1.321 . S
C1299 H1326 0.931 . S
C1300 C1298 1.421 . S
C1300 C1299 1.422 . S
C1300 C1324 1.417 . S
C1301 H1278 0.931 . S
C1301 N1297 1.343 . S
C1301 C1302 1.390 . S
C1302 H1280 0.930 . S
C1302 C1299 1.321 . S
C1302 C1301 1.390 . S
O1303 Gd1271 2.386 . S
O1303 C1315 1.265 . S
O1304 Gd1270 2.353 . S
O1304 C1315 1.242 . S
O1305 Gd1270 2.468 . S
O1305 C1323 1.263 . S
O1306 Gd1270 2.427 . S
O1306 C1323 1.252 . S
O1307 Gd1271 2.307 . S
O1307 C1316 1.261 . S
O1308 Gd1270 2.388 . S
O1308 C1316 1.252 . S
O1309 Gd1270 2.386 . S
O1309 C1327 1.265 . S
O1310 Gd1271 2.353 . S
O1310 C1327 1.242 . S
O1311 Gd1271 2.468 . S
O1311 C1335 1.263 . S
O1312 Gd1271 2.427 . S
O1312 C1335 1.252 . S
O1313 Gd1270 2.307 . S
O1313 C1328 1.261 . S
O1314 Gd1271 2.388 . S
O1314 C1328 1.252 . S
C1315 O1303 1.265 . S
C1315 O1304 1.242 . S
C1316 O1307 1.261 . S
C1316 O1308 1.252 . S
C1317 C1320 1.394 . S
C1317 C1322 1.370 . S
C1317 C1323 1.500 . S
C1318 C1321 1.383 . S
C1318 C1322 1.395 . S
C1319 C1320 1.396 . S
C1319 C1321 1.365 . S
C1319 H1336 0.929 . S
C1320 C1317 1.394 . S
C1320 C1319 1.396 . S
C1320 H1337 0.930 . S
C1321 C1318 1.383 . S
C1321 C1319 1.365 . S
C1321 H1338 0.931 . S
C1322 C1317 1.370 . S
C1322 C1318 1.395 . S
C1322 H1339 0.930 . S
C1323 Gd1270 2.805 . S
C1323 O1305 1.263 . S
C1323 O1306 1.252 . S
C1323 C1317 1.500 . S
C1324 H1286 0.930 . S
C1324 C1300 1.417 . S
C1324 C1325 1.329 . S
C1325 C1295 1.437 . S
C1325 H1296 0.929 . S
C1325 C1324 1.329 . S
H1326 C1299 0.931 . S
C1327 O1309 1.265 . S
C1327 O1310 1.242 . S
C1328 O1313 1.261 . S
C1328 O1314 1.252 . S
C1329 C1332 1.394 . S
C1329 C1334 1.370 . S
C1329 C1335 1.500 . S
C1330 C1333 1.383 . S
C1330 C1334 1.395 . S
C1331 C1332 1.396 . S
C1331 C1333 1.365 . S
C1331 H1340 0.929 . S
C1332 C1329 1.394 . S
C1332 C1331 1.396 . S
C1332 H1341 0.930 . S
C1333 C1330 1.383 . S
C1333 C1331 1.365 . S
C1333 H1342 0.931 . S
C1334 C1329 1.370 . S
C1334 C1330 1.395 . S
C1334 H1343 0.930 . S
C1335 Gd1271 2.805 . S
C1335 O1311 1.263 . S
C1335 O1312 1.252 . S
C1335 C1329 1.500 . S
H1336 C1319 0.929 . S
H1337 C1320 0.930 . S
H1338 C1321 0.931 . S
H1339 C1322 0.930 . S
H1340 C1331 0.929 . S
H1341 C1332 0.930 . S
H1342 C1333 0.931 . S
H1343 C1334 0.930 . S
C1344 C1345 1.349 . S
C1344 C1346 1.327 . S
C1344 H1369 0.950 . S
C1345 C1344 1.349 . S
C1345 C1361 1.349 . S
C1346 C1344 1.327 . S
C1346 C1365 1.429 . S
C1346 H1370 0.950 . S
C1347 C1364 1.574 . S
C1347 C1366 1.368 . S
C1347 H1371 0.949 . S
H1348 C1352 0.949 . S
C1349 C1350 1.349 . S
C1349 C1351 1.327 . S
C1349 H1372 0.950 . S
C1350 C1349 1.349 . S
C1350 C1362 1.349 . S
C1351 C1349 1.327 . S
C1351 C1367 1.429 . S
C1351 H1373 0.950 . S
C1352 H1348 0.949 . S
C1352 C1360 1.574 . S
C1352 C1368 1.368 . S
H1353 C1361 0.950 . S
H1354 C1359 0.950 . S
H1355 C1360 0.949 . S
H1356 C1362 0.950 . S
H1357 C1363 0.950 . S
H1358 C1364 0.949 . S
C1359 H1354 0.950 . S
C1359 C1361 1.327 . S
C1359 C1365 1.429 . S
C1360 C1352 1.574 . S
C1360 H1355 0.949 . S
C1360 C1366 1.368 . S
C1361 C1345 1.349 . S
C1361 H1353 0.950 . S
C1361 C1359 1.327 . S
C1362 C1350 1.349 . S
C1362 H1356 0.950 . S
C1362 C1363 1.327 . S
C1363 H1357 0.950 . S
C1363 C1362 1.327 . S
C1363 C1367 1.429 . S
C1364 C1347 1.574 . S
C1364 H1358 0.949 . S
C1364 C1368 1.368 . S
C1365 C1346 1.429 . S
C1365 C1359 1.429 . S
C1365 C1366 1.523 . S
C1366 C1347 1.368 . S
C1366 C1360 1.368 . S
C1366 C1365 1.523 . S
C1367 C1351 1.429 . S
C1367 C1363 1.429 . S
C1367 C1368 1.523 . S
C1368 C1352 1.368 . S
C1368 C1364 1.368 . S
C1368 C1367 1.523 . S
H1369 C1344 0.950 . S
H1370 C1346 0.950 . S
H1371 C1347 0.949 . S
H1372 C1349 0.950 . S
H1373 C1351 0.950 . S
C1374 C1375 1.349 . S
C1374 C1376 1.327 . S
C1374 H1399 0.950 . S
C1375 C1374 1.349 . S
C1375 C1391 1.349 . S
C1376 C1374 1.327 . S
C1376 C1395 1.429 . S
C1376 H1400 0.950 . S
C1377 C1394 1.574 . S
C1377 C1396 1.368 . S
C1377 H1401 0.949 . S
H1378 C1382 0.949 . S
C1379 C1380 1.349 . S
C1379 C1381 1.327 . S
C1379 H1402 0.950 . S
C1380 C1379 1.349 . S
C1380 C1392 1.349 . S
C1381 C1379 1.327 . S
C1381 C1397 1.429 . S
C1381 H1403 0.950 . S
C1382 H1378 0.949 . S
C1382 C1390 1.574 . S
C1382 C1398 1.368 . S
H1383 C1391 0.950 . S
H1384 C1389 0.950 . S
H1385 C1390 0.949 . S
H1386 C1392 0.950 . S
H1387 C1393 0.950 . S
H1388 C1394 0.949 . S
C1389 H1384 0.950 . S
C1389 C1391 1.327 . S
C1389 C1395 1.429 . S
C1390 C1382 1.574 . S
C1390 H1385 0.949 . S
C1390 C1396 1.368 . S
C1391 C1375 1.349 . S
C1391 H1383 0.950 . S
C1391 C1389 1.327 . S
C1392 C1380 1.349 . S
C1392 H1386 0.950 . S
C1392 C1393 1.327 . S
C1393 H1387 0.950 . S
C1393 C1392 1.327 . S
C1393 C1397 1.429 . S
C1394 C1377 1.574 . S
C1394 H1388 0.949 . S
C1394 C1398 1.368 . S
C1395 C1376 1.429 . S
C1395 C1389 1.429 . S
C1395 C1396 1.523 . S
C1396 C1377 1.368 . S
C1396 C1390 1.368 . S
C1396 C1395 1.523 . S
C1397 C1381 1.429 . S
C1397 C1393 1.429 . S
C1397 C1398 1.523 . S
C1398 C1382 1.368 . S
C1398 C1394 1.368 . S
C1398 C1397 1.523 . S
H1399 C1374 0.950 . S
H1400 C1376 0.950 . S
H1401 C1377 0.949 . S
H1402 C1379 0.950 . S
H1403 C1381 0.950 . S
C1404 C1405 1.349 . S
C1404 C1406 1.327 . S
C1404 H1429 0.950 . S
C1405 C1404 1.349 . S
C1405 C1421 1.349 . S
C1406 C1404 1.327 . S
C1406 C1425 1.429 . S
C1406 H1430 0.950 . S
C1407 C1424 1.574 . S
C1407 C1426 1.368 . S
C1407 H1431 0.949 . S
H1408 C1412 0.949 . S
C1409 C1410 1.349 . S
C1409 C1411 1.327 . S
C1409 H1432 0.950 . S
C1410 C1409 1.349 . S
C1410 C1422 1.349 . S
C1411 C1409 1.327 . S
C1411 C1427 1.429 . S
C1411 H1433 0.950 . S
C1412 H1408 0.949 . S
C1412 C1420 1.574 . S
C1412 C1428 1.368 . S
H1413 C1421 0.950 . S
H1414 C1419 0.950 . S
H1415 C1420 0.949 . S
H1416 C1422 0.950 . S
H1417 C1423 0.950 . S
H1418 C1424 0.949 . S
C1419 H1414 0.950 . S
C1419 C1421 1.327 . S
C1419 C1425 1.429 . S
C1420 C1412 1.574 . S
C1420 H1415 0.949 . S
C1420 C1426 1.368 . S
C1421 C1405 1.349 . S
C1421 H1413 0.950 . S
C1421 C1419 1.327 . S
C1422 C1410 1.349 . S
C1422 H1416 0.950 . S
C1422 C1423 1.327 . S
C1423 H1417 0.950 . S
C1423 C1422 1.327 . S
C1423 C1427 1.429 . S
C1424 C1407 1.574 . S
C1424 H1418 0.949 . S
C1424 C1428 1.368 . S
C1425 C1406 1.429 . S
C1425 C1419 1.429 . S
C1425 C1426 1.523 . S
C1426 C1407 1.368 . S
C1426 C1420 1.368 . S
C1426 C1425 1.523 . S
C1427 C1411 1.429 . S
C1427 C1423 1.429 . S
C1427 C1428 1.523 . S
C1428 C1412 1.368 . S
C1428 C1424 1.368 . S
C1428 C1427 1.523 . S
H1429 C1404 0.950 . S
H1430 C1406 0.950 . S
H1431 C1407 0.949 . S
H1432 C1409 0.950 . S
H1433 C1411 0.950 . S
C1434 C1435 1.349 . S
C1434 C1436 1.327 . S
C1434 H1459 0.950 . S
C1435 C1434 1.349 . S
C1435 C1451 1.349 . S
C1436 C1434 1.327 . S
C1436 C1455 1.429 . S
C1436 H1460 0.950 . S
C1437 C1454 1.574 . S
C1437 C1456 1.368 . S
C1437 H1461 0.949 . S
H1438 C1442 0.949 . S
C1439 C1440 1.349 . S
C1439 C1441 1.327 . S
C1439 H1462 0.950 . S
C1440 C1439 1.349 . S
C1440 C1452 1.349 . S
C1441 C1439 1.327 . S
C1441 C1457 1.429 . S
C1441 H1463 0.950 . S
C1442 H1438 0.949 . S
C1442 C1450 1.574 . S
C1442 C1458 1.368 . S
H1443 C1451 0.950 . S
H1444 C1449 0.950 . S
H1445 C1450 0.949 . S
H1446 C1452 0.950 . S
H1447 C1453 0.950 . S
H1448 C1454 0.949 . S
C1449 H1444 0.950 . S
C1449 C1451 1.327 . S
C1449 C1455 1.429 . S
C1450 C1442 1.574 . S
C1450 H1445 0.949 . S
C1450 C1456 1.368 . S
C1451 C1435 1.349 . S
C1451 H1443 0.950 . S
C1451 C1449 1.327 . S
C1452 C1440 1.349 . S
C1452 H1446 0.950 . S
C1452 C1453 1.327 . S
C1453 H1447 0.950 . S
C1453 C1452 1.327 . S
C1453 C1457 1.429 . S
C1454 C1437 1.574 . S
C1454 H1448 0.949 . S
C1454 C1458 1.368 . S
C1455 C1436 1.429 . S
C1455 C1449 1.429 . S
C1455 C1456 1.523 . S
C1456 C1437 1.368 . S
C1456 C1450 1.368 . S
C1456 C1455 1.523 . S
C1457 C1441 1.429 . S
C1457 C1453 1.429 . S
C1457 C1458 1.523 . S
C1458 C1442 1.368 . S
C1458 C1454 1.368 . S
C1458 C1457 1.523 . S
H1459 C1434 0.950 . S
H1460 C1436 0.950 . S
H1461 C1437 0.949 . S
H1462 C1439 0.950 . S
H1463 C1441 0.950 . S
C1464 C1465 1.349 . S
C1464 C1466 1.327 . S
C1464 H1489 0.950 . S
C1465 C1464 1.349 . S
C1465 C1481 1.349 . S
C1466 C1464 1.327 . S
C1466 C1485 1.429 . S
C1466 H1490 0.950 . S
C1467 C1484 1.574 . S
C1467 C1486 1.368 . S
C1467 H1491 0.949 . S
H1468 C1472 0.949 . S
C1469 C1470 1.349 . S
C1469 C1471 1.327 . S
C1469 H1492 0.950 . S
C1470 C1469 1.349 . S
C1470 C1482 1.349 . S
C1471 C1469 1.327 . S
C1471 C1487 1.429 . S
C1471 H1493 0.950 . S
C1472 H1468 0.949 . S
C1472 C1480 1.574 . S
C1472 C1488 1.368 . S
H1473 C1481 0.950 . S
H1474 C1479 0.950 . S
H1475 C1480 0.949 . S
H1476 C1482 0.950 . S
H1477 C1483 0.950 . S
H1478 C1484 0.949 . S
C1479 H1474 0.950 . S
C1479 C1481 1.327 . S
C1479 C1485 1.429 . S
C1480 C1472 1.574 . S
C1480 H1475 0.949 . S
C1480 C1486 1.368 . S
C1481 C1465 1.349 . S
C1481 H1473 0.950 . S
C1481 C1479 1.327 . S
C1482 C1470 1.349 . S
C1482 H1476 0.950 . S
C1482 C1483 1.327 . S
C1483 H1477 0.950 . S
C1483 C1482 1.327 . S
C1483 C1487 1.429 . S
C1484 C1467 1.574 . S
C1484 H1478 0.949 . S
C1484 C1488 1.368 . S
C1485 C1466 1.429 . S
C1485 C1479 1.429 . S
C1485 C1486 1.523 . S
C1486 C1467 1.368 . S
C1486 C1480 1.368 . S
C1486 C1485 1.523 . S
C1487 C1471 1.429 . S
C1487 C1483 1.429 . S
C1487 C1488 1.523 . S
C1488 C1472 1.368 . S
C1488 C1484 1.368 . S
C1488 C1487 1.523 . S
H1489 C1464 0.950 . S
H1490 C1466 0.950 . S
H1491 C1467 0.949 . S
H1492 C1469 0.950 . S
H1493 C1471 0.950 . S
C1494 C1495 1.349 . S
C1494 C1496 1.327 . S
C1494 H1519 0.950 . S
C1495 C1494 1.349 . S
C1495 C1511 1.349 . S
C1496 C1494 1.327 . S
C1496 C1515 1.429 . S
C1496 H1520 0.950 . S
C1497 C1514 1.574 . S
C1497 C1516 1.368 . S
C1497 H1521 0.949 . S
H1498 C1502 0.949 . S
C1499 C1500 1.349 . S
C1499 C1501 1.327 . S
C1499 H1522 0.950 . S
C1500 C1499 1.349 . S
C1500 C1512 1.349 . S
C1501 C1499 1.327 . S
C1501 C1517 1.429 . S
C1501 H1523 0.950 . S
C1502 H1498 0.949 . S
C1502 C1510 1.574 . S
C1502 C1518 1.368 . S
H1503 C1511 0.950 . S
H1504 C1509 0.950 . S
H1505 C1510 0.949 . S
H1506 C1512 0.950 . S
H1507 C1513 0.950 . S
H1508 C1514 0.949 . S
C1509 H1504 0.950 . S
C1509 C1511 1.327 . S
C1509 C1515 1.429 . S
C1510 C1502 1.574 . S
C1510 H1505 0.949 . S
C1510 C1516 1.368 . S
C1511 C1495 1.349 . S
C1511 H1503 0.950 . S
C1511 C1509 1.327 . S
C1512 C1500 1.349 . S
C1512 H1506 0.950 . S
C1512 C1513 1.327 . S
C1513 H1507 0.950 . S
C1513 C1512 1.327 . S
C1513 C1517 1.429 . S
C1514 C1497 1.574 . S
C1514 H1508 0.949 . S
C1514 C1518 1.368 . S
C1515 C1496 1.429 . S
C1515 C1509 1.429 . S
C1515 C1516 1.523 . S
C1516 C1497 1.368 . S
C1516 C1510 1.368 . S
C1516 C1515 1.523 . S
C1517 C1501 1.429 . S
C1517 C1513 1.429 . S
C1517 C1518 1.523 . S
C1518 C1502 1.368 . S
C1518 C1514 1.368 . S
C1518 C1517 1.523 . S
H1519 C1494 0.950 . S
H1520 C1496 0.950 . S
H1521 C1497 0.949 . S
H1522 C1499 0.950 . S
H1523 C1501 0.950 . S
C1524 C1525 1.349 . S
C1524 C1526 1.327 . S
C1524 H1549 0.950 . S
C1525 C1524 1.349 . S
C1525 C1541 1.349 . S
C1526 C1524 1.327 . S
C1526 C1545 1.429 . S
C1526 H1550 0.950 . S
C1527 C1544 1.574 . S
C1527 C1546 1.368 . S
C1527 H1551 0.949 . S
H1528 C1532 0.949 . S
C1529 C1530 1.349 . S
C1529 C1531 1.327 . S
C1529 H1552 0.950 . S
C1530 C1529 1.349 . S
C1530 C1542 1.349 . S
C1531 C1529 1.327 . S
C1531 C1547 1.429 . S
C1531 H1553 0.950 . S
C1532 H1528 0.949 . S
C1532 C1540 1.574 . S
C1532 C1548 1.368 . S
H1533 C1541 0.950 . S
H1534 C1539 0.950 . S
H1535 C1540 0.949 . S
H1536 C1542 0.950 . S
H1537 C1543 0.950 . S
H1538 C1544 0.949 . S
C1539 H1534 0.950 . S
C1539 C1541 1.327 . S
C1539 C1545 1.429 . S
C1540 C1532 1.574 . S
C1540 H1535 0.949 . S
C1540 C1546 1.368 . S
C1541 C1525 1.349 . S
C1541 H1533 0.950 . S
C1541 C1539 1.327 . S
C1542 C1530 1.349 . S
C1542 H1536 0.950 . S
C1542 C1543 1.327 . S
C1543 H1537 0.950 . S
C1543 C1542 1.327 . S
C1543 C1547 1.429 . S
C1544 C1527 1.574 . S
C1544 H1538 0.949 . S
C1544 C1548 1.368 . S
C1545 C1526 1.429 . S
C1545 C1539 1.429 . S
C1545 C1546 1.523 . S
C1546 C1527 1.368 . S
C1546 C1540 1.368 . S
C1546 C1545 1.523 . S
C1547 C1531 1.429 . S
C1547 C1543 1.429 . S
C1547 C1548 1.523 . S
C1548 C1532 1.368 . S
C1548 C1544 1.368 . S
C1548 C1547 1.523 . S
H1549 C1524 0.950 . S
H1550 C1526 0.950 . S
H1551 C1527 0.949 . S
H1552 C1529 0.950 . S
H1553 C1531 0.950 . S
C1554 C1555 1.349 . S
C1554 C1556 1.327 . S
C1554 H1579 0.950 . S
C1555 C1554 1.349 . S
C1555 C1571 1.349 . S
C1556 C1554 1.327 . S
C1556 C1575 1.429 . S
C1556 H1580 0.950 . S
C1557 C1574 1.574 . S
C1557 C1576 1.368 . S
C1557 H1581 0.949 . S
H1558 C1562 0.949 . S
C1559 C1560 1.349 . S
C1559 C1561 1.327 . S
C1559 H1582 0.950 . S
C1560 C1559 1.349 . S
C1560 C1572 1.349 . S
C1561 C1559 1.327 . S
C1561 C1577 1.429 . S
C1561 H1583 0.950 . S
C1562 H1558 0.949 . S
C1562 C1570 1.574 . S
C1562 C1578 1.368 . S
H1563 C1571 0.950 . S
H1564 C1569 0.950 . S
H1565 C1570 0.949 . S
H1566 C1572 0.950 . S
H1567 C1573 0.950 . S
H1568 C1574 0.949 . S
C1569 H1564 0.950 . S
C1569 C1571 1.327 . S
C1569 C1575 1.429 . S
C1570 C1562 1.574 . S
C1570 H1565 0.949 . S
C1570 C1576 1.368 . S
C1571 C1555 1.349 . S
C1571 H1563 0.950 . S
C1571 C1569 1.327 . S
C1572 C1560 1.349 . S
C1572 H1566 0.950 . S
C1572 C1573 1.327 . S
C1573 H1567 0.950 . S
C1573 C1572 1.327 . S
C1573 C1577 1.429 . S
C1574 C1557 1.574 . S
C1574 H1568 0.949 . S
C1574 C1578 1.368 . S
C1575 C1556 1.429 . S
C1575 C1569 1.429 . S
C1575 C1576 1.523 . S
C1576 C1557 1.368 . S
C1576 C1570 1.368 . S
C1576 C1575 1.523 . S
C1577 C1561 1.429 . S
C1577 C1573 1.429 . S
C1577 C1578 1.523 . S
C1578 C1562 1.368 . S
C1578 C1574 1.368 . S
C1578 C1577 1.523 . S
H1579 C1554 0.950 . S
H1580 C1556 0.950 . S
H1581 C1557 0.949 . S
H1582 C1559 0.950 . S
H1583 C1561 0.950 . S
C1584 C1585 1.349 . S
C1584 C1586 1.327 . S
C1584 H1609 0.950 . S
C1585 C1584 1.349 . S
C1585 C1601 1.349 . S
C1586 C1584 1.327 . S
C1586 C1605 1.429 . S
C1586 H1610 0.950 . S
C1587 C1604 1.574 . S
C1587 C1606 1.368 1_545 S
C1587 H1611 0.949 . S
H1588 C1592 0.949 . S
C1589 C1590 1.349 . S
C1589 C1591 1.327 . S
C1589 H1612 0.950 . S
C1590 C1589 1.349 . S
C1590 C1602 1.349 . S
C1591 C1589 1.327 . S
C1591 C1607 1.429 . S
C1591 H1613 0.950 . S
C1592 H1588 0.949 . S
C1592 C1600 1.574 . S
C1592 C1608 1.368 1_565 S
H1593 C1601 0.950 . S
H1594 C1599 0.950 1_545 S
H1595 C1600 0.949 . S
H1596 C1602 0.950 . S
H1597 C1603 0.950 1_565 S
H1598 C1604 0.949 . S
C1599 H1594 0.950 1_565 S
C1599 C1601 1.327 . S
C1599 C1605 1.429 . S
C1600 C1592 1.574 . S
C1600 H1595 0.949 . S
C1600 C1606 1.368 . S
C1601 C1585 1.349 . S
C1601 H1593 0.950 . S
C1601 C1599 1.327 . S
C1602 C1590 1.349 . S
C1602 H1596 0.950 . S
C1602 C1603 1.327 . S
C1603 H1597 0.950 1_545 S
C1603 C1602 1.327 . S
C1603 C1607 1.429 . S
C1604 C1587 1.574 . S
C1604 H1598 0.949 . S
C1604 C1608 1.368 . S
C1605 C1586 1.429 . S
C1605 C1599 1.429 . S
C1605 C1606 1.523 . S
C1606 C1587 1.368 1_565 S
C1606 C1600 1.368 . S
C1606 C1605 1.523 . S
C1607 C1591 1.429 . S
C1607 C1603 1.429 . S
C1607 C1608 1.523 . S
C1608 C1592 1.368 1_545 S
C1608 C1604 1.368 . S
C1608 C1607 1.523 . S
H1609 C1584 0.950 . S
H1610 C1586 0.950 . S
H1611 C1587 0.949 . S
H1612 C1589 0.950 . S
H1613 C1591 0.950 . S
C1614 C1615 1.349 . S
C1614 C1616 1.327 . S
C1614 H1639 0.950 . S
C1615 C1614 1.349 . S
C1615 C1631 1.349 . S
C1616 C1614 1.327 . S
C1616 C1635 1.429 . S
C1616 H1640 0.950 . S
C1617 C1634 1.574 . S
C1617 C1636 1.368 1_565 S
C1617 H1641 0.949 . S
H1618 C1622 0.949 . S
C1619 C1620 1.349 . S
C1619 C1621 1.327 . S
C1619 H1642 0.950 . S
C1620 C1619 1.349 . S
C1620 C1632 1.349 . S
C1621 C1619 1.327 . S
C1621 C1637 1.429 . S
C1621 H1643 0.950 . S
C1622 H1618 0.949 . S
C1622 C1630 1.574 . S
C1622 C1638 1.368 1_545 S
H1623 C1631 0.950 . S
H1624 C1629 0.950 . S
H1625 C1630 0.949 . S
H1626 C1632 0.950 . S
H1627 C1633 0.950 . S
H1628 C1634 0.949 . S
C1629 H1624 0.950 . S
C1629 C1631 1.327 . S
C1629 C1635 1.429 . S
C1630 C1622 1.574 . S
C1630 H1625 0.949 . S
C1630 C1636 1.368 . S
C1631 C1615 1.349 . S
C1631 H1623 0.950 . S
C1631 C1629 1.327 . S
C1632 C1620 1.349 . S
C1632 H1626 0.950 . S
C1632 C1633 1.327 . S
C1633 H1627 0.950 . S
C1633 C1632 1.327 . S
C1633 C1637 1.429 . S
C1634 C1617 1.574 . S
C1634 H1628 0.949 . S
C1634 C1638 1.368 . S
C1635 C1616 1.429 . S
C1635 C1629 1.429 . S
C1635 C1636 1.523 . S
C1636 C1617 1.368 1_545 S
C1636 C1630 1.368 . S
C1636 C1635 1.523 . S
C1637 C1621 1.429 . S
C1637 C1633 1.429 . S
C1637 C1638 1.523 . S
C1638 C1622 1.368 1_565 S
C1638 C1634 1.368 . S
C1638 C1637 1.523 . S
H1639 C1614 0.950 . S
H1640 C1616 0.950 . S
H1641 C1617 0.949 . S
H1642 C1619 0.950 . S
H1643 C1621 0.950 . S
C1644 C1645 1.349 . S
C1644 C1646 1.327 . S
C1644 H1669 0.950 . S
C1645 C1644 1.349 . S
C1645 C1661 1.349 . S
C1646 C1644 1.327 . S
C1646 C1665 1.429 . S
C1646 H1670 0.950 . S
C1647 C1664 1.574 1_545 S
C1647 C1666 1.368 . S
C1647 H1671 0.949 . S
H1648 C1652 0.949 . S
C1649 C1650 1.349 . S
C1649 C1651 1.327 . S
C1649 H1672 0.950 . S
C1650 C1649 1.349 . S
C1650 C1662 1.349 . S
C1651 C1649 1.327 . S
C1651 C1667 1.429 . S
C1651 H1673 0.950 . S
C1652 H1648 0.949 . S
C1652 C1660 1.574 1_565 S
C1652 C1668 1.368 . S
H1653 C1661 0.950 . S
H1654 C1659 0.950 . S
H1655 C1660 0.949 . S
H1656 C1662 0.950 . S
H1657 C1663 0.950 . S
H1658 C1664 0.949 . S
C1659 H1654 0.950 . S
C1659 C1661 1.327 . S
C1659 C1665 1.429 . S
C1660 C1652 1.574 1_545 S
C1660 H1655 0.949 . S
C1660 C1666 1.368 . S
C1661 C1645 1.349 . S
C1661 H1653 0.950 . S
C1661 C1659 1.327 . S
C1662 C1650 1.349 . S
C1662 H1656 0.950 . S
C1662 C1663 1.327 . S
C1663 H1657 0.950 . S
C1663 C1662 1.327 . S
C1663 C1667 1.429 . S
C1664 C1647 1.574 1_565 S
C1664 H1658 0.949 . S
C1664 C1668 1.368 . S
C1665 C1646 1.429 . S
C1665 C1659 1.429 . S
C1665 C1666 1.523 . S
C1666 C1647 1.368 . S
C1666 C1660 1.368 . S
C1666 C1665 1.523 . S
C1667 C1651 1.429 . S
C1667 C1663 1.429 . S
C1667 C1668 1.523 . S
C1668 C1652 1.368 . S
C1668 C1664 1.368 . S
C1668 C1667 1.523 . S
H1669 C1644 0.950 . S
H1670 C1646 0.950 . S
H1671 C1647 0.949 . S
H1672 C1649 0.950 . S
H1673 C1651 0.950 . S
C1674 C1675 1.349 . S
C1674 C1676 1.327 . S
C1674 H1699 0.950 . S
C1675 C1674 1.349 . S
C1675 C1691 1.349 . S
C1676 C1674 1.327 . S
C1676 C1695 1.429 . S
C1676 H1700 0.950 . S
C1677 C1694 1.574 . S
C1677 C1696 1.368 1_565 S
C1677 H1701 0.949 . S
H1678 C1682 0.949 . S
C1679 C1680 1.349 . S
C1679 C1681 1.327 . S
C1679 H1702 0.950 . S
C1680 C1679 1.349 . S
C1680 C1692 1.349 . S
C1681 C1679 1.327 . S
C1681 C1697 1.429 . S
C1681 H1703 0.950 . S
C1682 H1678 0.949 . S
C1682 C1690 1.574 . S
C1682 C1698 1.368 1_545 S
H1683 C1691 0.950 . S
H1684 C1689 0.970 . S
H1685 C1690 0.949 . S
H1686 C1692 0.950 . S
H1687 C1693 0.970 . S
H1688 C1694 0.949 . S
C1689 H1684 0.970 . S
C1689 C1691 1.327 . S
C1689 C1695 1.429 . S
C1690 C1682 1.574 . S
C1690 H1685 0.949 . S
C1690 C1696 1.368 . S
C1691 C1675 1.349 . S
C1691 H1683 0.950 . S
C1691 C1689 1.327 . S
C1692 C1680 1.349 . S
C1692 H1686 0.950 . S
C1692 C1693 1.327 . S
C1693 H1687 0.970 . S
C1693 C1692 1.327 . S
C1693 C1697 1.429 . S
C1694 C1677 1.574 . S
C1694 H1688 0.949 . S
C1694 C1698 1.368 . S
C1695 C1676 1.429 . S
C1695 C1689 1.429 . S
C1695 C1696 1.523 . S
C1696 C1677 1.368 1_545 S
C1696 C1690 1.368 . S
C1696 C1695 1.523 . S
C1697 C1681 1.429 . S
C1697 C1693 1.429 . S
C1697 C1698 1.523 . S
C1698 C1682 1.368 1_565 S
C1698 C1694 1.368 . S
C1698 C1697 1.523 . S
H1699 C1674 0.950 . S
H1700 C1676 0.950 . S
H1701 C1677 0.949 . S
H1702 C1679 0.950 . S
H1703 C1681 0.950 . S
C1704 C1705 1.349 . S
C1704 C1706 1.327 . S
C1704 H1729 0.950 . S
C1705 C1704 1.349 . S
C1705 C1721 1.349 . S
C1706 C1704 1.327 . S
C1706 C1725 1.429 . S
C1706 H1730 0.950 . S
C1707 C1724 1.574 . S
C1707 C1726 1.368 . S
C1707 H1731 0.949 . S
H1708 C1712 0.949 . S
C1709 C1710 1.349 . S
C1709 C1711 1.327 . S
C1709 H1732 0.950 . S
C1710 C1709 1.349 . S
C1710 C1722 1.349 . S
C1711 C1709 1.327 . S
C1711 C1727 1.429 . S
C1711 H1733 0.950 . S
C1712 H1708 0.949 . S
C1712 C1720 1.574 . S
C1712 C1728 1.368 . S
H1713 C1721 0.950 . S
H1714 C1719 0.950 . S
H1715 C1720 0.949 . S
H1716 C1722 0.950 . S
H1717 C1723 0.950 . S
H1718 C1724 0.949 . S
C1719 H1714 0.950 . S
C1719 C1721 1.327 . S
C1719 C1725 1.429 . S
C1720 C1712 1.574 . S
C1720 H1715 0.949 . S
C1720 C1726 1.368 . S
C1721 C1705 1.349 . S
C1721 H1713 0.950 . S
C1721 C1719 1.327 . S
C1722 C1710 1.349 . S
C1722 H1716 0.950 . S
C1722 C1723 1.327 . S
C1723 H1717 0.950 . S
C1723 C1722 1.327 . S
C1723 C1727 1.429 . S
C1724 C1707 1.574 . S
C1724 H1718 0.949 . S
C1724 C1728 1.368 . S
C1725 C1706 1.429 . S
C1725 C1719 1.429 . S
C1725 C1726 1.523 . S
C1726 C1707 1.368 . S
C1726 C1720 1.368 . S
C1726 C1725 1.523 . S
C1727 C1711 1.429 . S
C1727 C1723 1.429 . S
C1727 C1728 1.523 . S
C1728 C1712 1.368 . S
C1728 C1724 1.368 . S
C1728 C1727 1.523 . S
H1729 C1704 0.950 . S
H1730 C1706 0.950 . S
H1731 C1707 0.949 . S
H1732 C1709 0.950 . S
H1733 C1711 0.950 . S
C1734 C1735 1.349 . S
C1734 C1736 1.327 . S
C1734 H1759 0.950 . S
C1735 C1734 1.349 . S
C1735 C1751 1.349 . S
C1736 C1734 1.327 . S
C1736 C1755 1.429 . S
C1736 H1760 0.950 . S
C1737 C1754 1.574 . S
C1737 C1756 1.368 . S
C1737 H1761 0.949 . S
H1738 C1742 0.949 . S
C1739 C1740 1.349 . S
C1739 C1741 1.327 . S
C1739 H1762 0.950 . S
C1740 C1739 1.349 . S
C1740 C1752 1.349 . S
C1741 C1739 1.327 . S
C1741 C1757 1.429 . S
C1741 H1763 0.950 . S
C1742 H1738 0.949 . S
C1742 C1750 1.574 . S
C1742 C1758 1.368 . S
H1743 C1751 0.950 . S
H1744 C1749 0.950 . S
H1745 C1750 0.949 . S
H1746 C1752 0.950 . S
H1747 C1753 0.950 . S
H1748 C1754 0.949 . S
C1749 H1744 0.950 . S
C1749 C1751 1.327 . S
C1749 C1755 1.429 . S
C1750 C1742 1.574 . S
C1750 H1745 0.949 . S
C1750 C1756 1.368 . S
C1751 C1735 1.349 . S
C1751 H1743 0.950 . S
C1751 C1749 1.327 . S
C1752 C1740 1.349 . S
C1752 H1746 0.950 . S
C1752 C1753 1.327 . S
C1753 H1747 0.950 . S
C1753 C1752 1.327 . S
C1753 C1757 1.429 . S
C1754 C1737 1.574 . S
C1754 H1748 0.949 . S
C1754 C1758 1.368 . S
C1755 C1736 1.429 . S
C1755 C1749 1.429 . S
C1755 C1756 1.523 . S
C1756 C1737 1.368 . S
C1756 C1750 1.368 . S
C1756 C1755 1.523 . S
C1757 C1741 1.429 . S
C1757 C1753 1.429 . S
C1757 C1758 1.523 . S
C1758 C1742 1.368 . S
C1758 C1754 1.368 . S
C1758 C1757 1.523 . S
H1759 C1734 0.950 . S
H1760 C1736 0.950 . S
H1761 C1737 0.949 . S
H1762 C1739 0.950 . S
H1763 C1741 0.950 . S
C1764 C1765 1.349 . S
C1764 C1766 1.327 . S
C1764 H1789 0.950 . S
C1765 C1764 1.349 . S
C1765 C1781 1.349 . S
C1766 C1764 1.327 . S
C1766 C1785 1.429 . S
C1766 H1790 0.950 . S
C1767 C1784 1.574 . S
C1767 C1786 1.368 . S
C1767 H1791 0.949 . S
H1768 C1772 0.949 . S
C1769 C1770 1.349 . S
C1769 C1771 1.327 . S
C1769 H1792 0.950 . S
C1770 C1769 1.349 . S
C1770 C1782 1.349 . S
C1771 C1769 1.327 . S
C1771 C1787 1.429 . S
C1771 H1793 0.950 . S
C1772 H1768 0.949 . S
C1772 C1780 1.574 . S
C1772 C1788 1.368 . S
H1773 C1781 0.950 . S
H1774 C1779 0.950 . S
H1775 C1780 0.949 . S
H1776 C1782 0.950 . S
H1777 C1783 0.950 . S
H1778 C1784 0.949 . S
C1779 H1774 0.950 . S
C1779 C1781 1.327 . S
C1779 C1785 1.429 . S
C1780 C1772 1.574 . S
C1780 H1775 0.949 . S
C1780 C1786 1.368 . S
C1781 C1765 1.349 . S
C1781 H1773 0.950 . S
C1781 C1779 1.327 . S
C1782 C1770 1.349 . S
C1782 H1776 0.950 . S
C1782 C1783 1.327 . S
C1783 H1777 0.950 . S
C1783 C1782 1.327 . S
C1783 C1787 1.429 . S
C1784 C1767 1.574 . S
C1784 H1778 0.949 . S
C1784 C1788 1.368 . S
C1785 C1766 1.429 . S
C1785 C1779 1.429 . S
C1785 C1786 1.523 . S
C1786 C1767 1.368 . S
C1786 C1780 1.368 . S
C1786 C1785 1.523 . S
C1787 C1771 1.429 . S
C1787 C1783 1.429 . S
C1787 C1788 1.523 . S
C1788 C1772 1.368 . S
C1788 C1784 1.368 . S
C1788 C1787 1.523 . S
H1789 C1764 0.950 . S
H1790 C1766 0.950 . S
H1791 C1767 0.949 . S
H1792 C1769 0.950 . S
H1793 C1771 0.950 . S
C1794 C1795 1.349 . S
C1794 C1796 1.327 . S
C1794 H1819 0.950 . S
C1795 C1794 1.349 . S
C1795 C1811 1.349 . S
C1796 C1794 1.327 . S
C1796 C1815 1.429 . S
C1796 H1820 0.950 . S
C1797 C1814 1.574 . S
C1797 C1816 1.368 . S
C1797 H1821 0.949 . S
H1798 C1802 0.949 . S
C1799 C1800 1.349 . S
C1799 C1801 1.327 . S
C1799 H1822 0.950 . S
C1800 C1799 1.349 . S
C1800 C1812 1.349 . S
C1801 C1799 1.327 . S
C1801 C1817 1.429 . S
C1801 H1823 0.950 . S
C1802 H1798 0.949 . S
C1802 C1810 1.574 . S
C1802 C1818 1.368 . S
H1803 C1811 0.950 . S
H1804 C1809 0.950 . S
H1805 C1810 0.949 . S
H1806 C1812 0.950 . S
H1807 C1813 0.950 . S
H1808 C1814 0.949 . S
C1809 H1804 0.950 . S
C1809 C1811 1.327 . S
C1809 C1815 1.429 . S
C1810 C1802 1.574 . S
C1810 H1805 0.949 . S
C1810 C1816 1.368 . S
C1811 C1795 1.349 . S
C1811 H1803 0.950 . S
C1811 C1809 1.327 . S
C1812 C1800 1.349 . S
C1812 H1806 0.950 . S
C1812 C1813 1.327 . S
C1813 H1807 0.950 . S
C1813 C1812 1.327 . S
C1813 C1817 1.429 . S
C1814 C1797 1.574 . S
C1814 H1808 0.949 . S
C1814 C1818 1.368 . S
C1815 C1796 1.429 . S
C1815 C1809 1.429 . S
C1815 C1816 1.523 . S
C1816 C1797 1.368 . S
C1816 C1810 1.368 . S
C1816 C1815 1.523 . S
C1817 C1801 1.429 . S
C1817 C1813 1.429 . S
C1817 C1818 1.523 . S
C1818 C1802 1.368 . S
C1818 C1814 1.368 . S
C1818 C1817 1.523 . S
H1819 C1794 0.950 . S
H1820 C1796 0.950 . S
H1821 C1797 0.949 . S
H1822 C1799 0.950 . S
H1823 C1801 0.950 . S
C1824 C1825 1.349 . S
C1824 C1826 1.327 . S
C1824 H1849 0.950 . S
C1825 C1824 1.349 . S
C1825 C1841 1.349 . S
C1826 C1824 1.327 . S
C1826 C1845 1.429 . S
C1826 H1850 0.950 . S
C1827 C1844 1.574 1_556 S
C1827 C1846 1.368 . S
C1827 H1851 0.949 . S
H1828 C1832 0.949 . S
C1829 C1830 1.349 . S
C1829 C1831 1.327 . S
C1829 H1852 0.950 . S
C1830 C1829 1.349 . S
C1830 C1842 1.349 . S
C1831 C1829 1.327 . S
C1831 C1847 1.429 . S
C1831 H1853 0.950 . S
C1832 H1828 0.949 . S
C1832 C1840 1.574 1_554 S
C1832 C1848 1.368 . S
H1833 C1841 0.950 . S
H1834 C1839 0.950 . S
H1835 C1840 0.949 . S
H1836 C1842 0.950 . S
H1837 C1843 0.950 . S
H1838 C1844 0.949 . S
C1839 H1834 0.950 . S
C1839 C1841 1.327 . S
C1839 C1845 1.429 . S
C1840 C1832 1.574 1_556 S
C1840 H1835 0.949 . S
C1840 C1846 1.368 . S
C1841 C1825 1.349 . S
C1841 H1833 0.950 . S
C1841 C1839 1.327 . S
C1842 C1830 1.349 . S
C1842 H1836 0.950 . S
C1842 C1843 1.327 . S
C1843 H1837 0.950 . S
C1843 C1842 1.327 . S
C1843 C1847 1.429 . S
C1844 C1827 1.574 1_554 S
C1844 H1838 0.949 . S
C1844 C1848 1.368 . S
C1845 C1826 1.429 . S
C1845 C1839 1.429 . S
C1845 C1846 1.523 . S
C1846 C1827 1.368 . S
C1846 C1840 1.368 . S
C1846 C1845 1.523 . S
C1847 C1831 1.429 . S
C1847 C1843 1.429 . S
C1847 C1848 1.523 . S
C1848 C1832 1.368 . S
C1848 C1844 1.368 . S
C1848 C1847 1.523 . S
H1849 C1824 0.950 . S
H1850 C1826 0.950 . S
H1851 C1827 0.949 . S
H1852 C1829 0.950 . S
H1853 C1831 0.950 . S
C1854 C1855 1.349 . S
C1854 C1856 1.327 . S
C1854 H1879 0.950 . S
C1855 C1854 1.349 . S
C1855 C1871 1.349 . S
C1856 C1854 1.327 . S
C1856 C1875 1.429 . S
C1856 H1880 0.950 . S
C1857 C1874 1.574 1_556 S
C1857 C1876 1.368 . S
C1857 H1881 0.949 . S
H1858 C1862 0.949 . S
C1859 C1860 1.349 . S
C1859 C1861 1.327 . S
C1859 H1882 0.950 . S
C1860 C1859 1.349 . S
C1860 C1872 1.349 . S
C1861 C1859 1.327 . S
C1861 C1877 1.429 . S
C1861 H1883 0.950 . S
C1862 H1858 0.949 . S
C1862 C1870 1.574 1_554 S
C1862 C1878 1.368 . S
H1863 C1871 0.950 . S
H1864 C1869 0.950 . S
H1865 C1870 0.949 . S
H1866 C1872 0.950 . S
H1867 C1873 0.950 . S
H1868 C1874 0.949 . S
C1869 H1864 0.950 . S
C1869 C1871 1.327 . S
C1869 C1875 1.429 . S
C1870 C1862 1.574 1_556 S
C1870 H1865 0.949 . S
C1870 C1876 1.368 . S
C1871 C1855 1.349 . S
C1871 H1863 0.950 . S
C1871 C1869 1.327 . S
C1872 C1860 1.349 . S
C1872 H1866 0.950 . S
C1872 C1873 1.327 . S
C1873 H1867 0.950 . S
C1873 C1872 1.327 . S
C1873 C1877 1.429 . S
C1874 C1857 1.574 1_554 S
C1874 H1868 0.949 . S
C1874 C1878 1.368 . S
C1875 C1856 1.429 . S
C1875 C1869 1.429 . S
C1875 C1876 1.523 . S
C1876 C1857 1.368 . S
C1876 C1870 1.368 . S
C1876 C1875 1.523 . S
C1877 C1861 1.429 . S
C1877 C1873 1.429 . S
C1877 C1878 1.523 . S
C1878 C1862 1.368 . S
C1878 C1874 1.368 . S
C1878 C1877 1.523 . S
H1879 C1854 0.950 . S
H1880 C1856 0.950 . S
H1881 C1857 0.949 . S
H1882 C1859 0.950 . S
H1883 C1861 0.950 . S
C1884 C1885 1.349 . S
C1884 C1886 1.327 . S
C1884 H1909 0.950 . S
C1885 C1884 1.349 . S
C1885 C1901 1.349 . S
C1886 C1884 1.327 . S
C1886 C1905 1.429 . S
C1886 H1910 0.950 . S
C1887 C1904 1.574 . S
C1887 C1906 1.368 . S
C1887 H1911 0.949 . S
H1888 C1892 0.949 . S
C1889 C1890 1.349 . S
C1889 C1891 1.327 . S
C1889 H1912 0.950 . S
C1890 C1889 1.349 . S
C1890 C1902 1.349 . S
C1891 C1889 1.327 . S
C1891 C1907 1.429 . S
C1891 H1913 0.950 . S
C1892 H1888 0.949 . S
C1892 C1900 1.574 . S
C1892 C1908 1.368 . S
H1893 C1901 0.950 . S
H1894 C1899 0.950 . S
H1895 C1900 0.949 . S
H1896 C1902 0.950 . S
H1897 C1903 0.950 . S
H1898 C1904 0.949 . S
C1899 H1894 0.950 . S
C1899 C1901 1.327 . S
C1899 C1905 1.429 . S
C1900 C1892 1.574 . S
C1900 H1895 0.949 . S
C1900 C1906 1.368 . S
C1901 C1885 1.349 . S
C1901 H1893 0.950 . S
C1901 C1899 1.327 . S
C1902 C1890 1.349 . S
C1902 H1896 0.950 . S
C1902 C1903 1.327 . S
C1903 H1897 0.950 . S
C1903 C1902 1.327 . S
C1903 C1907 1.429 . S
C1904 C1887 1.574 . S
C1904 H1898 0.949 . S
C1904 C1908 1.368 . S
C1905 C1886 1.429 . S
C1905 C1899 1.429 . S
C1905 C1906 1.523 . S
C1906 C1887 1.368 . S
C1906 C1900 1.368 . S
C1906 C1905 1.523 . S
C1907 C1891 1.429 . S
C1907 C1903 1.429 . S
C1907 C1908 1.523 . S
C1908 C1892 1.368 . S
C1908 C1904 1.368 . S
C1908 C1907 1.523 . S
H1909 C1884 0.950 . S
H1910 C1886 0.950 . S
H1911 C1887 0.949 . S
H1912 C1889 0.950 . S
H1913 C1891 0.950 . S
C1914 C1915 1.349 . S
C1914 C1916 1.327 . S
C1914 H1939 0.950 . S
C1915 C1914 1.349 . S
C1915 C1931 1.349 . S
C1916 C1914 1.327 . S
C1916 C1935 1.429 . S
C1916 H1940 0.950 . S
C1917 C1934 1.574 . S
C1917 C1936 1.368 . S
C1917 H1941 0.949 . S
H1918 C1922 0.949 . S
C1919 C1920 1.349 . S
C1919 C1921 1.327 . S
C1919 H1942 0.950 . S
C1920 C1919 1.349 . S
C1920 C1932 1.349 . S
C1921 C1919 1.327 . S
C1921 C1937 1.429 . S
C1921 H1943 0.950 . S
C1922 H1918 0.949 . S
C1922 C1930 1.574 . S
C1922 C1938 1.368 . S
H1923 C1931 0.950 . S
H1924 C1929 0.950 . S
H1925 C1930 0.949 . S
H1926 C1932 0.950 . S
H1927 C1933 0.950 . S
H1928 C1934 0.949 . S
C1929 H1924 0.950 . S
C1929 C1931 1.327 . S
C1929 C1935 1.429 . S
C1930 C1922 1.574 . S
C1930 H1925 0.949 . S
C1930 C1936 1.368 . S
C1931 C1915 1.349 . S
C1931 H1923 0.950 . S
C1931 C1929 1.327 . S
C1932 C1920 1.349 . S
C1932 H1926 0.950 . S
C1932 C1933 1.327 . S
C1933 H1927 0.950 . S
C1933 C1932 1.327 . S
C1933 C1937 1.429 . S
C1934 C1917 1.574 . S
C1934 H1928 0.949 . S
C1934 C1938 1.368 . S
C1935 C1916 1.429 . S
C1935 C1929 1.429 . S
C1935 C1936 1.523 . S
C1936 C1917 1.368 . S
C1936 C1930 1.368 . S
C1936 C1935 1.523 . S
C1937 C1921 1.429 . S
C1937 C1933 1.429 . S
C1937 C1938 1.523 . S
C1938 C1922 1.368 . S
C1938 C1934 1.368 . S
C1938 C1937 1.523 . S
H1939 C1914 0.950 . S
H1940 C1916 0.950 . S
H1941 C1917 0.949 . S
H1942 C1919 0.950 . S
H1943 C1921 0.950 . S
C1944 C1945 1.349 . S
C1944 C1946 1.327 . S
C1944 H1969 0.950 . S
C1945 C1944 1.349 . S
C1945 C1961 1.349 . S
C1946 C1944 1.327 . S
C1946 C1965 1.429 . S
C1946 H1970 0.950 . S
C1947 C1964 1.574 1_554 S
C1947 C1966 1.368 . S
C1947 H1971 0.949 . S
H1948 C1952 0.949 . S
C1949 C1950 1.349 . S
C1949 C1951 1.327 . S
C1949 H1972 0.950 . S
C1950 C1949 1.349 . S
C1950 C1962 1.349 . S
C1951 C1949 1.327 . S
C1951 C1967 1.429 . S
C1951 H1973 0.950 . S
C1952 H1948 0.949 . S
C1952 C1960 1.574 1_556 S
C1952 C1968 1.368 . S
H1953 C1961 0.950 . S
H1954 C1959 0.950 . S
H1955 C1960 0.949 . S
H1956 C1962 0.950 . S
H1957 C1963 0.950 . S
H1958 C1964 0.949 . S
C1959 H1954 0.950 . S
C1959 C1961 1.327 . S
C1959 C1965 1.429 . S
C1960 C1952 1.574 1_554 S
C1960 H1955 0.949 . S
C1960 C1966 1.368 . S
C1961 C1945 1.349 . S
C1961 H1953 0.950 . S
C1961 C1959 1.327 . S
C1962 C1950 1.349 . S
C1962 H1956 0.950 . S
C1962 C1963 1.327 . S
C1963 H1957 0.950 . S
C1963 C1962 1.327 . S
C1963 C1967 1.429 . S
C1964 C1947 1.574 1_556 S
C1964 H1958 0.949 . S
C1964 C1968 1.368 . S
C1965 C1946 1.429 . S
C1965 C1959 1.429 . S
C1965 C1966 1.523 . S
C1966 C1947 1.368 . S
C1966 C1960 1.368 . S
C1966 C1965 1.523 . S
C1967 C1951 1.429 . S
C1967 C1963 1.429 . S
C1967 C1968 1.523 . S
C1968 C1952 1.368 . S
C1968 C1964 1.368 . S
C1968 C1967 1.523 . S
H1969 C1944 0.950 . S
H1970 C1946 0.950 . S
H1971 C1947 0.949 . S
H1972 C1949 0.950 . S
H1973 C1951 0.950 . S
C1974 C1975 1.349 . S
C1974 C1976 1.327 . S
C1974 H1999 0.950 . S
C1975 C1974 1.349 . S
C1975 C1991 1.349 . S
C1976 C1974 1.327 . S
C1976 C1995 1.429 . S
C1976 H2000 0.950 . S
C1977 C1994 1.574 1_556 S
C1977 C1996 1.368 . S
C1977 H2001 0.949 . S
H1978 C1982 0.949 . S
C1979 C1980 1.349 . S
C1979 C1981 1.327 . S
C1979 H2002 0.950 . S
C1980 C1979 1.349 . S
C1980 C1992 1.349 . S
C1981 C1979 1.327 . S
C1981 C1997 1.429 . S
C1981 H2003 0.950 . S
C1982 H1978 0.949 . S
C1982 C1990 1.574 1_554 S
C1982 C1998 1.368 . S
H1983 C1991 0.950 . S
H1984 C1989 0.950 . S
H1985 C1990 0.949 . S
H1986 C1992 0.950 . S
H1987 C1993 0.950 . S
H1988 C1994 0.949 . S
C1989 H1984 0.950 . S
C1989 C1991 1.327 . S
C1989 C1995 1.429 . S
C1990 C1982 1.574 1_556 S
C1990 H1985 0.949 . S
C1990 C1996 1.368 . S
C1991 C1975 1.349 . S
C1991 H1983 0.950 . S
C1991 C1989 1.327 . S
C1992 C1980 1.349 . S
C1992 H1986 0.950 . S
C1992 C1993 1.327 . S
C1993 H1987 0.950 . S
C1993 C1992 1.327 . S
C1993 C1997 1.429 . S
C1994 C1977 1.574 1_554 S
C1994 H1988 0.949 . S
C1994 C1998 1.368 . S
C1995 C1976 1.429 . S
C1995 C1989 1.429 . S
C1995 C1996 1.523 . S
C1996 C1977 1.368 . S
C1996 C1990 1.368 . S
C1996 C1995 1.523 . S
C1997 C1981 1.429 . S
C1997 C1993 1.429 . S
C1997 C1998 1.523 . S
C1998 C1982 1.368 . S
C1998 C1994 1.368 . S
C1998 C1997 1.523 . S
H1999 C1974 0.950 . S
H2000 C1976 0.950 . S
H2001 C1977 0.949 . S
H2002 C1979 0.950 . S
H2003 C1981 0.950 . S
C2004 C2005 1.349 . S
C2004 C2006 1.327 . S
C2004 H2029 0.950 . S
C2005 C2004 1.349 . S
C2005 C2021 1.349 . S
C2006 C2004 1.327 . S
C2006 C2025 1.429 . S
C2006 H2030 0.950 . S
C2007 C2024 1.574 . S
C2007 C2026 1.368 . S
C2007 H2031 0.949 . S
H2008 C2012 0.949 . S
C2009 C2010 1.349 . S
C2009 C2011 1.327 . S
C2009 H2032 0.950 . S
C2010 C2009 1.349 . S
C2010 C2022 1.349 . S
C2011 C2009 1.327 . S
C2011 C2027 1.429 . S
C2011 H2033 0.950 . S
C2012 H2008 0.949 . S
C2012 C2020 1.574 . S
C2012 C2028 1.368 . S
H2013 C2021 0.950 . S
H2014 C2019 0.950 . S
H2015 C2020 0.949 . S
H2016 C2022 0.950 . S
H2017 C2023 0.950 . S
H2018 C2024 0.949 . S
C2019 H2014 0.950 . S
C2019 C2021 1.327 . S
C2019 C2025 1.429 . S
C2020 C2012 1.574 . S
C2020 H2015 0.949 . S
C2020 C2026 1.368 . S
C2021 C2005 1.349 . S
C2021 H2013 0.950 . S
C2021 C2019 1.327 . S
C2022 C2010 1.349 . S
C2022 H2016 0.950 . S
C2022 C2023 1.327 . S
C2023 H2017 0.950 . S
C2023 C2022 1.327 . S
C2023 C2027 1.429 . S
C2024 C2007 1.574 . S
C2024 H2018 0.949 . S
C2024 C2028 1.368 . S
C2025 C2006 1.429 . S
C2025 C2019 1.429 . S
C2025 C2026 1.523 . S
C2026 C2007 1.368 . S
C2026 C2020 1.368 . S
C2026 C2025 1.523 . S
C2027 C2011 1.429 . S
C2027 C2023 1.429 . S
C2027 C2028 1.523 . S
C2028 C2012 1.368 . S
C2028 C2024 1.368 . S
C2028 C2027 1.523 . S
H2029 C2004 0.950 . S
H2030 C2006 0.950 . S
H2031 C2007 0.949 . S
H2032 C2009 0.950 . S
H2033 C2011 0.950 . S
C2034 C2035 1.349 . S
C2034 C2036 1.327 . S
C2034 H2059 0.950 . S
C2035 C2034 1.349 . S
C2035 C2051 1.349 . S
C2036 C2034 1.327 . S
C2036 C2055 1.429 . S
C2036 H2060 0.950 . S
C2037 C2054 1.574 . S
C2037 C2056 1.368 . S
C2037 H2061 0.949 . S
H2038 C2042 0.949 . S
C2039 C2040 1.349 . S
C2039 C2041 1.327 . S
C2039 H2062 0.950 . S
C2040 C2039 1.349 . S
C2040 C2052 1.349 . S
C2041 C2039 1.327 . S
C2041 C2057 1.429 . S
C2041 H2063 0.950 . S
C2042 H2038 0.949 . S
C2042 C2050 1.574 . S
C2042 C2058 1.368 . S
H2043 C2051 0.950 . S
H2044 C2049 0.950 . S
H2045 C2050 0.949 . S
H2046 C2052 0.950 . S
H2047 C2053 0.950 . S
H2048 C2054 0.949 . S
C2049 H2044 0.950 . S
C2049 C2051 1.327 . S
C2049 C2055 1.429 . S
C2050 C2042 1.574 . S
C2050 H2045 0.949 . S
C2050 C2056 1.368 . S
C2051 C2035 1.349 . S
C2051 H2043 0.950 . S
C2051 C2049 1.327 . S
C2052 C2040 1.349 . S
C2052 H2046 0.950 . S
C2052 C2053 1.327 . S
C2053 H2047 0.950 . S
C2053 C2052 1.327 . S
C2053 C2057 1.429 . S
C2054 C2037 1.574 . S
C2054 H2048 0.949 . S
C2054 C2058 1.368 . S
C2055 C2036 1.429 . S
C2055 C2049 1.429 . S
C2055 C2056 1.523 . S
C2056 C2037 1.368 . S
C2056 C2050 1.368 . S
C2056 C2055 1.523 . S
C2057 C2041 1.429 . S
C2057 C2053 1.429 . S
C2057 C2058 1.523 . S
C2058 C2042 1.368 . S
C2058 C2054 1.368 . S
C2058 C2057 1.523 . S
H2059 C2034 0.950 . S
H2060 C2036 0.950 . S
H2061 C2037 0.949 . S
H2062 C2039 0.950 . S
H2063 C2041 0.950 . S
C2064 C2065 1.349 . S
C2064 C2066 1.327 . S
C2064 H2089 0.950 . S
C2065 C2064 1.349 . S
C2065 C2081 1.349 . S
C2066 C2064 1.327 . S
C2066 C2085 1.429 . S
C2066 H2090 0.950 . S
C2067 C2084 1.574 1_655 S
C2067 C2086 1.368 . S
C2067 H2091 0.949 . S
H2068 C2072 0.949 . S
C2069 C2070 1.349 . S
C2069 C2071 1.327 . S
C2069 H2092 0.950 . S
C2070 C2069 1.349 . S
C2070 C2082 1.349 . S
C2071 C2069 1.327 . S
C2071 C2087 1.429 . S
C2071 H2093 0.950 . S
C2072 H2068 0.949 . S
C2072 C2080 1.574 1_455 S
C2072 C2088 1.368 . S
H2073 C2081 0.950 . S
H2074 C2079 0.950 . S
H2075 C2080 0.949 . S
H2076 C2082 0.950 . S
H2077 C2083 0.950 . S
H2078 C2084 0.949 . S
C2079 H2074 0.950 . S
C2079 C2081 1.327 . S
C2079 C2085 1.429 . S
C2080 C2072 1.574 1_655 S
C2080 H2075 0.949 . S
C2080 C2086 1.368 1_545 S
C2081 C2065 1.349 . S
C2081 H2073 0.950 . S
C2081 C2079 1.327 . S
C2082 C2070 1.349 . S
C2082 H2076 0.950 . S
C2082 C2083 1.327 . S
C2083 H2077 0.950 . S
C2083 C2082 1.327 . S
C2083 C2087 1.429 . S
C2084 C2067 1.574 1_455 S
C2084 H2078 0.949 . S
C2084 C2088 1.368 1_565 S
C2085 C2066 1.429 . S
C2085 C2079 1.429 . S
C2085 C2086 1.523 . S
C2086 C2067 1.368 . S
C2086 C2080 1.368 1_565 S
C2086 C2085 1.523 . S
C2087 C2071 1.429 . S
C2087 C2083 1.429 . S
C2087 C2088 1.523 . S
C2088 C2072 1.368 . S
C2088 C2084 1.368 1_545 S
C2088 C2087 1.523 . S
H2089 C2064 0.950 . S
H2090 C2066 0.950 . S
H2091 C2067 0.949 . S
H2092 C2069 0.950 . S
H2093 C2071 0.950 . S
C2094 C2095 1.349 . S
C2094 C2096 1.327 . S
C2094 H2119 0.950 . S
C2095 C2094 1.349 . S
C2095 C2111 1.349 . S
C2096 C2094 1.327 . S
C2096 C2115 1.429 . S
C2096 H2120 0.950 . S
C2097 C2114 1.574 1_655 S
C2097 C2116 1.368 1_565 S
C2097 H2121 0.949 . S
H2098 C2102 0.949 . S
C2099 C2100 1.349 . S
C2099 C2101 1.327 . S
C2099 H2122 0.950 . S
C2100 C2099 1.349 . S
C2100 C2112 1.349 . S
C2101 C2099 1.327 . S
C2101 C2117 1.429 . S
C2101 H2123 0.950 . S
C2102 H2098 0.949 . S
C2102 C2110 1.574 1_455 S
C2102 C2118 1.368 1_545 S
H2103 C2111 0.950 . S
H2104 C2109 0.950 . S
H2105 C2110 0.949 . S
H2106 C2112 0.950 . S
H2107 C2113 0.950 . S
H2108 C2114 0.949 . S
C2109 H2104 0.950 . S
C2109 C2111 1.327 . S
C2109 C2115 1.429 . S
C2110 C2102 1.574 1_655 S
C2110 H2105 0.949 . S
C2110 C2116 1.368 . S
C2111 C2095 1.349 . S
C2111 H2103 0.950 . S
C2111 C2109 1.327 . S
C2112 C2100 1.349 . S
C2112 H2106 0.950 . S
C2112 C2113 1.327 . S
C2113 H2107 0.950 . S
C2113 C2112 1.327 . S
C2113 C2117 1.429 . S
C2114 C2097 1.574 1_455 S
C2114 H2108 0.949 . S
C2114 C2118 1.368 . S
C2115 C2096 1.429 . S
C2115 C2109 1.429 . S
C2115 C2116 1.523 . S
C2116 C2097 1.368 1_545 S
C2116 C2110 1.368 . S
C2116 C2115 1.523 . S
C2117 C2101 1.429 . S
C2117 C2113 1.429 . S
C2117 C2118 1.523 . S
C2118 C2102 1.368 1_565 S
C2118 C2114 1.368 . S
C2118 C2117 1.523 . S
H2119 C2094 0.950 . S
H2120 C2096 0.950 . S
H2121 C2097 0.949 . S
H2122 C2099 0.950 . S
H2123 C2101 0.950 . S
C2124 C2125 1.349 . S
C2124 C2126 1.327 . S
C2124 H2149 0.950 . S
C2125 C2124 1.349 . S
C2125 C2141 1.349 . S
C2126 C2124 1.327 . S
C2126 C2145 1.429 . S
C2126 H2150 0.950 . S
C2127 C2144 1.574 1_455 S
C2127 C2146 1.368 1_565 S
C2127 H2151 0.949 . S
H2128 C2132 0.949 . S
C2129 C2130 1.349 . S
C2129 C2131 1.327 . S
C2129 H2152 0.950 . S
C2130 C2129 1.349 . S
C2130 C2142 1.349 . S
C2131 C2129 1.327 . S
C2131 C2147 1.429 . S
C2131 H2153 0.950 . S
C2132 H2128 0.949 . S
C2132 C2140 1.574 1_655 S
C2132 C2148 1.368 1_545 S
H2133 C2141 0.950 . S
H2134 C2139 0.950 . S
H2135 C2140 0.949 . S
H2136 C2142 0.950 . S
H2137 C2143 0.950 . S
H2138 C2144 0.949 . S
C2139 H2134 0.950 . S
C2139 C2141 1.327 . S
C2139 C2145 1.429 . S
C2140 C2132 1.574 1_455 S
C2140 H2135 0.949 . S
C2140 C2146 1.368 . S
C2141 C2125 1.349 . S
C2141 H2133 0.950 . S
C2141 C2139 1.327 . S
C2142 C2130 1.349 . S
C2142 H2136 0.950 . S
C2142 C2143 1.327 . S
C2143 H2137 0.950 . S
C2143 C2142 1.327 . S
C2143 C2147 1.429 . S
C2144 C2127 1.574 1_655 S
C2144 H2138 0.949 . S
C2144 C2148 1.368 . S
C2145 C2126 1.429 . S
C2145 C2139 1.429 . S
C2145 C2146 1.523 . S
C2146 C2127 1.368 1_545 S
C2146 C2140 1.368 . S
C2146 C2145 1.523 . S
C2147 C2131 1.429 . S
C2147 C2143 1.429 . S
C2147 C2148 1.523 . S
C2148 C2132 1.368 1_565 S
C2148 C2144 1.368 . S
C2148 C2147 1.523 . S
H2149 C2124 0.950 . S
H2150 C2126 0.950 . S
H2151 C2127 0.949 . S
H2152 C2129 0.950 . S
H2153 C2131 0.950 . S
C2154 C2155 1.349 . S
C2154 C2156 1.327 . S
C2154 H2179 0.950 . S
C2155 C2154 1.349 . S
C2155 C2171 1.349 . S
C2156 C2154 1.327 . S
C2156 C2175 1.429 . S
C2156 H2180 0.950 . S
C2157 C2174 1.574 1_655 S
C2157 C2176 1.368 1_565 S
C2157 H2181 0.949 . S
H2158 C2162 0.949 . S
C2159 C2160 1.349 . S
C2159 C2161 1.327 . S
C2159 H2182 0.950 . S
C2160 C2159 1.349 . S
C2160 C2172 1.349 . S
C2161 C2159 1.327 . S
C2161 C2177 1.429 . S
C2161 H2183 0.950 . S
C2162 H2158 0.949 . S
C2162 C2170 1.574 1_455 S
C2162 C2178 1.368 1_545 S
H2163 C2171 0.950 . S
H2164 C2169 0.950 . S
H2165 C2170 0.949 . S
H2166 C2172 0.950 . S
H2167 C2173 0.950 . S
H2168 C2174 0.949 . S
C2169 H2164 0.950 . S
C2169 C2171 1.327 . S
C2169 C2175 1.429 . S
C2170 C2162 1.574 1_655 S
C2170 H2165 0.949 . S
C2170 C2176 1.368 . S
C2171 C2155 1.349 . S
C2171 H2163 0.950 . S
C2171 C2169 1.327 . S
C2172 C2160 1.349 . S
C2172 H2166 0.950 . S
C2172 C2173 1.327 . S
C2173 H2167 0.950 . S
C2173 C2172 1.327 . S
C2173 C2177 1.429 . S
C2174 C2157 1.574 1_455 S
C2174 H2168 0.949 . S
C2174 C2178 1.368 . S
C2175 C2156 1.429 . S
C2175 C2169 1.429 . S
C2175 C2176 1.523 . S
C2176 C2157 1.368 1_545 S
C2176 C2170 1.368 . S
C2176 C2175 1.523 . S
C2177 C2161 1.429 . S
C2177 C2173 1.429 . S
C2177 C2178 1.523 . S
C2178 C2162 1.368 1_565 S
C2178 C2174 1.368 . S
C2178 C2177 1.523 . S
H2179 C2154 0.950 . S
H2180 C2156 0.950 . S
H2181 C2157 0.949 . S
H2182 C2159 0.950 . S
H2183 C2161 0.950 . S
C2184 C2185 1.349 . S
C2184 C2186 1.327 . S
C2184 H2209 0.950 . S
C2185 C2184 1.349 . S
C2185 C2201 1.349 . S
C2186 C2184 1.327 . S
C2186 C2205 1.429 . S
C2186 H2210 0.950 . S
C2187 C2204 1.574 . S
C2187 C2206 1.368 . S
C2187 H2211 0.949 . S
H2188 C2192 0.949 . S
C2189 C2190 1.349 . S
C2189 C2191 1.327 . S
C2189 H2212 0.950 . S
C2190 C2189 1.349 . S
C2190 C2202 1.349 . S
C2191 C2189 1.327 . S
C2191 C2207 1.429 . S
C2191 H2213 0.950 . S
C2192 H2188 0.949 . S
C2192 C2200 1.574 . S
C2192 C2208 1.368 . S
H2193 C2201 0.950 . S
H2194 C2199 0.950 . S
H2195 C2200 0.949 . S
H2196 C2202 0.950 . S
H2197 C2203 0.950 . S
H2198 C2204 0.949 . S
C2199 H2194 0.950 . S
C2199 C2201 1.327 . S
C2199 C2205 1.429 . S
C2200 C2192 1.574 . S
C2200 H2195 0.949 . S
C2200 C2206 1.368 . S
C2201 C2185 1.349 . S
C2201 H2193 0.950 . S
C2201 C2199 1.327 . S
C2202 C2190 1.349 . S
C2202 H2196 0.950 . S
C2202 C2203 1.327 . S
C2203 H2197 0.950 . S
C2203 C2202 1.327 . S
C2203 C2207 1.429 . S
C2204 C2187 1.574 . S
C2204 H2198 0.949 . S
C2204 C2208 1.368 . S
C2205 C2186 1.429 . S
C2205 C2199 1.429 . S
C2205 C2206 1.523 . S
C2206 C2187 1.368 . S
C2206 C2200 1.368 . S
C2206 C2205 1.523 . S
C2207 C2191 1.429 . S
C2207 C2203 1.429 . S
C2207 C2208 1.523 . S
C2208 C2192 1.368 . S
C2208 C2204 1.368 . S
C2208 C2207 1.523 . S
H2209 C2184 0.950 . S
H2210 C2186 0.950 . S
H2211 C2187 0.949 . S
H2212 C2189 0.950 . S
H2213 C2191 0.950 . S
C2214 C2215 1.349 . S
C2214 C2216 1.327 . S
C2214 H2239 0.950 . S
C2215 C2214 1.349 . S
C2215 C2231 1.349 . S
C2216 C2214 1.327 . S
C2216 C2235 1.429 . S
C2216 H2240 0.950 . S
C2217 C2234 1.574 . S
C2217 C2236 1.368 . S
C2217 H2241 0.949 . S
H2218 C2222 0.949 . S
C2219 C2220 1.349 . S
C2219 C2221 1.327 . S
C2219 H2242 0.950 . S
C2220 C2219 1.349 . S
C2220 C2232 1.349 . S
C2221 C2219 1.327 . S
C2221 C2237 1.429 . S
C2221 H2243 0.950 . S
C2222 H2218 0.949 . S
C2222 C2230 1.574 . S
C2222 C2238 1.368 . S
H2223 C2231 0.950 . S
H2224 C2229 0.950 . S
H2225 C2230 0.949 . S
H2226 C2232 0.950 . S
H2227 C2233 0.950 . S
H2228 C2234 0.949 . S
C2229 H2224 0.950 . S
C2229 C2231 1.327 . S
C2229 C2235 1.429 . S
C2230 C2222 1.574 . S
C2230 H2225 0.949 . S
C2230 C2236 1.368 . S
C2231 C2215 1.349 . S
C2231 H2223 0.950 . S
C2231 C2229 1.327 . S
C2232 C2220 1.349 . S
C2232 H2226 0.950 . S
C2232 C2233 1.327 . S
C2233 H2227 0.950 . S
C2233 C2232 1.327 . S
C2233 C2237 1.429 . S
C2234 C2217 1.574 . S
C2234 H2228 0.949 . S
C2234 C2238 1.368 . S
C2235 C2216 1.429 . S
C2235 C2229 1.429 . S
C2235 C2236 1.523 . S
C2236 C2217 1.368 . S
C2236 C2230 1.368 . S
C2236 C2235 1.523 . S
C2237 C2221 1.429 . S
C2237 C2233 1.429 . S
C2237 C2238 1.523 . S
C2238 C2222 1.368 . S
C2238 C2234 1.368 . S
C2238 C2237 1.523 . S
H2239 C2214 0.950 . S
H2240 C2216 0.950 . S
H2241 C2217 0.949 . S
H2242 C2219 0.950 . S
H2243 C2221 0.950 . S
C2244 C2245 1.349 . S
C2244 C2246 1.327 . S
C2244 H2269 0.950 . S
C2245 C2244 1.349 . S
C2245 C2261 1.349 . S
C2246 C2244 1.327 . S
C2246 C2265 1.429 . S
C2246 H2270 0.950 . S
C2247 C2264 1.574 . S
C2247 C2266 1.368 . S
C2247 H2271 0.949 . S
H2248 C2252 0.949 . S
C2249 C2250 1.349 . S
C2249 C2251 1.327 . S
C2249 H2272 0.950 . S
C2250 C2249 1.349 . S
C2250 C2262 1.349 . S
C2251 C2249 1.327 . S
C2251 C2267 1.429 . S
C2251 H2273 0.950 . S
C2252 H2248 0.949 . S
C2252 C2260 1.574 . S
C2252 C2268 1.368 . S
H2253 C2261 0.950 . S
H2254 C2259 0.950 . S
H2255 C2260 0.949 . S
H2256 C2262 0.950 . S
H2257 C2263 0.950 . S
H2258 C2264 0.949 . S
C2259 H2254 0.950 . S
C2259 C2261 1.327 . S
C2259 C2265 1.429 . S
C2260 C2252 1.574 . S
C2260 H2255 0.949 . S
C2260 C2266 1.368 . S
C2261 C2245 1.349 . S
C2261 H2253 0.950 . S
C2261 C2259 1.327 . S
C2262 C2250 1.349 . S
C2262 H2256 0.950 . S
C2262 C2263 1.327 . S
C2263 H2257 0.950 . S
C2263 C2262 1.327 . S
C2263 C2267 1.429 . S
C2264 C2247 1.574 . S
C2264 H2258 0.949 . S
C2264 C2268 1.368 . S
C2265 C2246 1.429 . S
C2265 C2259 1.429 . S
C2265 C2266 1.523 . S
C2266 C2247 1.368 . S
C2266 C2260 1.368 . S
C2266 C2265 1.523 . S
C2267 C2251 1.429 . S
C2267 C2263 1.429 . S
C2267 C2268 1.523 . S
C2268 C2252 1.368 . S
C2268 C2264 1.368 . S
C2268 C2267 1.523 . S
H2269 C2244 0.950 . S
H2270 C2246 0.950 . S
H2271 C2247 0.949 . S
H2272 C2249 0.950 . S
H2273 C2251 0.950 . S
C2274 C2275 1.349 . S
C2274 C2276 1.327 . S
C2274 H2299 0.950 . S
C2275 C2274 1.349 . S
C2275 C2291 1.349 . S
C2276 C2274 1.327 . S
C2276 C2295 1.429 . S
C2276 H2300 0.950 . S
C2277 C2294 1.574 . S
C2277 C2296 1.368 . S
C2277 H2301 0.949 . S
H2278 C2282 0.949 . S
C2279 C2280 1.349 . S
C2279 C2281 1.327 . S
C2279 H2302 0.950 . S
C2280 C2279 1.349 . S
C2280 C2292 1.349 . S
C2281 C2279 1.327 . S
C2281 C2297 1.429 . S
C2281 H2303 0.950 . S
C2282 H2278 0.949 . S
C2282 C2290 1.574 . S
C2282 C2298 1.368 . S
H2283 C2291 0.950 . S
H2284 C2289 0.950 . S
H2285 C2290 0.949 . S
H2286 C2292 0.950 . S
H2287 C2293 0.950 . S
H2288 C2294 0.949 . S
C2289 H2284 0.950 . S
C2289 C2291 1.327 . S
C2289 C2295 1.429 . S
C2290 C2282 1.574 . S
C2290 H2285 0.949 . S
C2290 C2296 1.368 . S
C2291 C2275 1.349 . S
C2291 H2283 0.950 . S
C2291 C2289 1.327 . S
C2292 C2280 1.349 . S
C2292 H2286 0.950 . S
C2292 C2293 1.327 . S
C2293 H2287 0.950 . S
C2293 C2292 1.327 . S
C2293 C2297 1.429 . S
C2294 C2277 1.574 . S
C2294 H2288 0.949 . S
C2294 C2298 1.368 . S
C2295 C2276 1.429 . S
C2295 C2289 1.429 . S
C2295 C2296 1.523 . S
C2296 C2277 1.368 . S
C2296 C2290 1.368 . S
C2296 C2295 1.523 . S
C2297 C2281 1.429 . S
C2297 C2293 1.429 . S
C2297 C2298 1.523 . S
C2298 C2282 1.368 . S
C2298 C2294 1.368 . S
C2298 C2297 1.523 . S
H2299 C2274 0.950 . S
H2300 C2276 0.950 . S
H2301 C2277 0.949 . S
H2302 C2279 0.950 . S
H2303 C2281 0.950 . S
C2304 C2305 1.349 . S
C2304 C2306 1.327 . S
C2304 H2329 0.950 . S
C2305 C2304 1.349 . S
C2305 C2321 1.349 . S
C2306 C2304 1.327 . S
C2306 C2325 1.429 . S
C2306 H2330 0.950 . S
C2307 C2324 1.574 . S
C2307 C2326 1.368 . S
C2307 H2331 0.949 . S
H2308 C2312 0.949 . S
C2309 C2310 1.349 . S
C2309 C2311 1.327 . S
C2309 H2332 0.950 . S
C2310 C2309 1.349 . S
C2310 C2322 1.349 . S
C2311 C2309 1.327 . S
C2311 C2327 1.429 . S
C2311 H2333 0.950 . S
C2312 H2308 0.949 . S
C2312 C2320 1.574 . S
C2312 C2328 1.368 . S
H2313 C2321 0.950 . S
H2314 C2319 0.950 . S
H2315 C2320 0.949 . S
H2316 C2322 0.950 . S
H2317 C2323 0.950 . S
H2318 C2324 0.949 . S
C2319 H2314 0.950 . S
C2319 C2321 1.327 . S
C2319 C2325 1.429 . S
C2320 C2312 1.574 . S
C2320 H2315 0.949 . S
C2320 C2326 1.368 . S
C2321 C2305 1.349 . S
C2321 H2313 0.950 . S
C2321 C2319 1.327 . S
C2322 C2310 1.349 . S
C2322 H2316 0.950 . S
C2322 C2323 1.327 . S
C2323 H2317 0.950 . S
C2323 C2322 1.327 . S
C2323 C2327 1.429 . S
C2324 C2307 1.574 . S
C2324 H2318 0.949 . S
C2324 C2328 1.368 . S
C2325 C2306 1.429 . S
C2325 C2319 1.429 . S
C2325 C2326 1.523 . S
C2326 C2307 1.368 . S
C2326 C2320 1.368 . S
C2326 C2325 1.523 . S
C2327 C2311 1.429 . S
C2327 C2323 1.429 . S
C2327 C2328 1.523 . S
C2328 C2312 1.368 . S
C2328 C2324 1.368 . S
C2328 C2327 1.523 . S
H2329 C2304 0.950 . S
H2330 C2306 0.950 . S
H2331 C2307 0.949 . S
H2332 C2309 0.950 . S
H2333 C2311 0.950 . S
C2334 C2335 1.349 . S
C2334 C2336 1.327 . S
C2334 H2359 0.950 . S
C2335 C2334 1.349 . S
C2335 C2351 1.349 . S
C2336 C2334 1.327 . S
C2336 C2355 1.429 . S
C2336 H2360 0.950 . S
C2337 C2354 1.574 . S
C2337 C2356 1.368 . S
C2337 H2361 0.949 . S
H2338 C2342 0.949 . S
C2339 C2340 1.349 . S
C2339 C2341 1.327 . S
C2339 H2362 0.950 . S
C2340 C2339 1.349 . S
C2340 C2352 1.349 . S
C2341 C2339 1.327 . S
C2341 C2357 1.429 . S
C2341 H2363 0.950 . S
C2342 H2338 0.949 . S
C2342 C2350 1.574 . S
C2342 C2358 1.368 . S
H2343 C2351 0.950 . S
H2344 C2349 0.950 . S
H2345 C2350 0.949 . S
H2346 C2352 0.950 . S
H2347 C2353 0.950 . S
H2348 C2354 0.949 . S
C2349 H2344 0.950 . S
C2349 C2351 1.327 . S
C2349 C2355 1.429 . S
C2350 C2342 1.574 . S
C2350 H2345 0.949 . S
C2350 C2356 1.368 . S
C2351 C2335 1.349 . S
C2351 H2343 0.950 . S
C2351 C2349 1.327 . S
C2352 C2340 1.349 . S
C2352 H2346 0.950 . S
C2352 C2353 1.327 . S
C2353 H2347 0.950 . S
C2353 C2352 1.327 . S
C2353 C2357 1.429 . S
C2354 C2337 1.574 . S
C2354 H2348 0.949 . S
C2354 C2358 1.368 . S
C2355 C2336 1.429 . S
C2355 C2349 1.429 . S
C2355 C2356 1.523 . S
C2356 C2337 1.368 . S
C2356 C2350 1.368 . S
C2356 C2355 1.523 . S
C2357 C2341 1.429 . S
C2357 C2353 1.429 . S
C2357 C2358 1.523 . S
C2358 C2342 1.368 . S
C2358 C2354 1.368 . S
C2358 C2357 1.523 . S
H2359 C2334 0.950 . S
H2360 C2336 0.950 . S
H2361 C2337 0.949 . S
H2362 C2339 0.950 . S
H2363 C2341 0.950 . S
C2364 C2365 1.349 . S
C2364 C2366 1.327 . S
C2364 H2389 0.950 . S
C2365 C2364 1.349 . S
C2365 C2381 1.349 . S
C2366 C2364 1.327 . S
C2366 C2385 1.429 . S
C2366 H2390 0.950 . S
C2367 C2384 1.574 . S
C2367 C2386 1.368 . S
C2367 H2391 0.949 . S
H2368 C2372 0.949 . S
C2369 C2370 1.349 . S
C2369 C2371 1.327 . S
C2369 H2392 0.950 . S
C2370 C2369 1.349 . S
C2370 C2382 1.349 . S
C2371 C2369 1.327 . S
C2371 C2387 1.429 . S
C2371 H2393 0.950 . S
C2372 H2368 0.949 . S
C2372 C2380 1.574 . S
C2372 C2388 1.368 . S
H2373 C2381 0.950 . S
H2374 C2379 0.950 . S
H2375 C2380 0.949 . S
H2376 C2382 0.950 . S
H2377 C2383 0.950 . S
H2378 C2384 0.949 . S
C2379 H2374 0.950 . S
C2379 C2381 1.327 . S
C2379 C2385 1.429 . S
C2380 C2372 1.574 . S
C2380 H2375 0.949 . S
C2380 C2386 1.368 . S
C2381 C2365 1.349 . S
C2381 H2373 0.950 . S
C2381 C2379 1.327 . S
C2382 C2370 1.349 . S
C2382 H2376 0.950 . S
C2382 C2383 1.327 . S
C2383 H2377 0.950 . S
C2383 C2382 1.327 . S
C2383 C2387 1.429 . S
C2384 C2367 1.574 . S
C2384 H2378 0.949 . S
C2384 C2388 1.368 . S
C2385 C2366 1.429 . S
C2385 C2379 1.429 . S
C2385 C2386 1.523 . S
C2386 C2367 1.368 . S
C2386 C2380 1.368 . S
C2386 C2385 1.523 . S
C2387 C2371 1.429 . S
C2387 C2383 1.429 . S
C2387 C2388 1.523 . S
C2388 C2372 1.368 . S
C2388 C2384 1.368 . S
C2388 C2387 1.523 . S
H2389 C2364 0.950 . S
H2390 C2366 0.950 . S
H2391 C2367 0.949 . S
H2392 C2369 0.950 . S
H2393 C2371 0.950 . S
C2394 C2395 1.349 . S
C2394 C2396 1.327 . S
C2394 H2419 0.950 . S
C2395 C2394 1.349 . S
C2395 C2411 1.349 . S
C2396 C2394 1.327 . S
C2396 C2415 1.429 . S
C2396 H2420 0.950 . S
C2397 C2414 1.574 . S
C2397 C2416 1.368 . S
C2397 H2421 0.949 . S
H2398 C2402 0.949 . S
C2399 C2400 1.349 . S
C2399 C2401 1.327 . S
C2399 H2422 0.950 . S
C2400 C2399 1.349 . S
C2400 C2412 1.349 . S
C2401 C2399 1.327 . S
C2401 C2417 1.429 . S
C2401 H2423 0.950 . S
C2402 H2398 0.949 . S
C2402 C2410 1.574 . S
C2402 C2418 1.368 . S
H2403 C2411 0.950 . S
H2404 C2409 0.950 . S
H2405 C2410 0.949 . S
H2406 C2412 0.950 . S
H2407 C2413 0.950 . S
H2408 C2414 0.949 . S
C2409 H2404 0.950 . S
C2409 C2411 1.327 . S
C2409 C2415 1.429 . S
C2410 C2402 1.574 . S
C2410 H2405 0.949 . S
C2410 C2416 1.368 . S
C2411 C2395 1.349 . S
C2411 H2403 0.950 . S
C2411 C2409 1.327 . S
C2412 C2400 1.349 . S
C2412 H2406 0.950 . S
C2412 C2413 1.327 . S
C2413 H2407 0.950 . S
C2413 C2412 1.327 . S
C2413 C2417 1.429 . S
C2414 C2397 1.574 . S
C2414 H2408 0.949 . S
C2414 C2418 1.368 . S
C2415 C2396 1.429 . S
C2415 C2409 1.429 . S
C2415 C2416 1.523 . S
C2416 C2397 1.368 . S
C2416 C2410 1.368 . S
C2416 C2415 1.523 . S
C2417 C2401 1.429 . S
C2417 C2413 1.429 . S
C2417 C2418 1.523 . S
C2418 C2402 1.368 . S
C2418 C2414 1.368 . S
C2418 C2417 1.523 . S
H2419 C2394 0.950 . S
H2420 C2396 0.950 . S
H2421 C2397 0.949 . S
H2422 C2399 0.950 . S
H2423 C2401 0.950 . S
C2424 C2425 1.349 . S
C2424 C2426 1.327 . S
C2424 H2449 0.950 . S
C2425 C2424 1.349 . S
C2425 C2441 1.349 . S
C2426 C2424 1.327 . S
C2426 C2445 1.429 . S
C2426 H2450 0.950 . S
C2427 C2444 1.574 . S
C2427 C2446 1.368 . S
C2427 H2451 0.949 . S
H2428 C2432 0.949 . S
C2429 C2430 1.349 . S
C2429 C2431 1.327 . S
C2429 H2452 0.950 . S
C2430 C2429 1.349 . S
C2430 C2442 1.349 . S
C2431 C2429 1.327 . S
C2431 C2447 1.429 . S
C2431 H2453 0.950 . S
C2432 H2428 0.949 . S
C2432 C2440 1.574 . S
C2432 C2448 1.368 . S
H2433 C2441 0.950 . S
H2434 C2439 0.950 . S
H2435 C2440 0.949 . S
H2436 C2442 0.950 . S
H2437 C2443 0.950 . S
H2438 C2444 0.949 . S
C2439 H2434 0.950 . S
C2439 C2441 1.327 . S
C2439 C2445 1.429 . S
C2440 C2432 1.574 . S
C2440 H2435 0.949 . S
C2440 C2446 1.368 . S
C2441 C2425 1.349 . S
C2441 H2433 0.950 . S
C2441 C2439 1.327 . S
C2442 C2430 1.349 . S
C2442 H2436 0.950 . S
C2442 C2443 1.327 . S
C2443 H2437 0.950 . S
C2443 C2442 1.327 . S
C2443 C2447 1.429 . S
C2444 C2427 1.574 . S
C2444 H2438 0.949 . S
C2444 C2448 1.368 . S
C2445 C2426 1.429 . S
C2445 C2439 1.429 . S
C2445 C2446 1.523 . S
C2446 C2427 1.368 . S
C2446 C2440 1.368 . S
C2446 C2445 1.523 . S
C2447 C2431 1.429 . S
C2447 C2443 1.429 . S
C2447 C2448 1.523 . S
C2448 C2432 1.368 . S
C2448 C2444 1.368 . S
C2448 C2447 1.523 . S
H2449 C2424 0.950 . S
H2450 C2426 0.950 . S
H2451 C2427 0.949 . S
H2452 C2429 0.950 . S
H2453 C2431 0.950 . S
C2454 C2455 1.349 . S
C2454 C2456 1.327 . S
C2454 H2479 0.950 . S
C2455 C2454 1.349 . S
C2455 C2471 1.349 . S
C2456 C2454 1.327 . S
C2456 C2475 1.429 . S
C2456 H2480 0.950 . S
C2457 C2474 1.574 . S
C2457 C2476 1.368 . S
C2457 H2481 0.949 . S
H2458 C2462 0.949 . S
C2459 C2460 1.349 . S
C2459 C2461 1.327 . S
C2459 H2482 0.950 . S
C2460 C2459 1.349 . S
C2460 C2472 1.349 . S
C2461 C2459 1.327 . S
C2461 C2477 1.429 . S
C2461 H2483 0.950 . S
C2462 H2458 0.949 . S
C2462 C2470 1.574 . S
C2462 C2478 1.368 . S
H2463 C2471 0.950 . S
H2464 C2469 0.950 . S
H2465 C2470 0.949 . S
H2466 C2472 0.950 . S
H2467 C2473 0.950 . S
H2468 C2474 0.949 . S
C2469 H2464 0.950 . S
C2469 C2471 1.327 . S
C2469 C2475 1.429 . S
C2470 C2462 1.574 . S
C2470 H2465 0.949 . S
C2470 C2476 1.368 . S
C2471 C2455 1.349 . S
C2471 H2463 0.950 . S
C2471 C2469 1.327 . S
C2472 C2460 1.349 . S
C2472 H2466 0.950 . S
C2472 C2473 1.327 . S
C2473 H2467 0.950 . S
C2473 C2472 1.327 . S
C2473 C2477 1.429 . S
C2474 C2457 1.574 . S
C2474 H2468 0.949 . S
C2474 C2478 1.368 . S
C2475 C2456 1.429 . S
C2475 C2469 1.429 . S
C2475 C2476 1.523 . S
C2476 C2457 1.368 . S
C2476 C2470 1.368 . S
C2476 C2475 1.523 . S
C2477 C2461 1.429 . S
C2477 C2473 1.429 . S
C2477 C2478 1.523 . S
C2478 C2462 1.368 . S
C2478 C2474 1.368 . S
C2478 C2477 1.523 . S
H2479 C2454 0.950 . S
H2480 C2456 0.950 . S
H2481 C2457 0.949 . S
H2482 C2459 0.950 . S
H2483 C2461 0.950 . S
C2484 C2485 1.349 . S
C2484 C2486 1.327 . S
C2484 H2509 0.950 . S
C2485 C2484 1.349 . S
C2485 C2501 1.349 . S
C2486 C2484 1.327 . S
C2486 C2505 1.429 . S
C2486 H2510 0.950 . S
C2487 C2504 1.574 . S
C2487 C2506 1.368 . S
C2487 H2511 0.949 . S
H2488 C2492 0.949 . S
C2489 C2490 1.349 . S
C2489 C2491 1.327 . S
C2489 H2512 0.950 . S
C2490 C2489 1.349 . S
C2490 C2502 1.349 . S
C2491 C2489 1.327 . S
C2491 C2507 1.429 . S
C2491 H2513 0.950 . S
C2492 H2488 0.949 . S
C2492 C2500 1.574 . S
C2492 C2508 1.368 . S
H2493 C2501 0.950 . S
H2494 C2499 0.950 . S
H2495 C2500 0.949 . S
H2496 C2502 0.950 . S
H2497 C2503 0.950 . S
H2498 C2504 0.949 . S
C2499 H2494 0.950 . S
C2499 C2501 1.327 . S
C2499 C2505 1.429 . S
C2500 C2492 1.574 . S
C2500 H2495 0.949 . S
C2500 C2506 1.368 . S
C2501 C2485 1.349 . S
C2501 H2493 0.950 . S
C2501 C2499 1.327 . S
C2502 C2490 1.349 . S
C2502 H2496 0.950 . S
C2502 C2503 1.327 . S
C2503 H2497 0.950 . S
C2503 C2502 1.327 . S
C2503 C2507 1.429 . S
C2504 C2487 1.574 . S
C2504 H2498 0.949 . S
C2504 C2508 1.368 . S
C2505 C2486 1.429 . S
C2505 C2499 1.429 . S
C2505 C2506 1.523 . S
C2506 C2487 1.368 . S
C2506 C2500 1.368 . S
C2506 C2505 1.523 . S
C2507 C2491 1.429 . S
C2507 C2503 1.429 . S
C2507 C2508 1.523 . S
C2508 C2492 1.368 . S
C2508 C2504 1.368 . S
C2508 C2507 1.523 . S
H2509 C2484 0.950 . S
H2510 C2486 0.950 . S
H2511 C2487 0.949 . S
H2512 C2489 0.950 . S
H2513 C2491 0.950 . S
C2514 C2515 1.349 . S
C2514 C2516 1.327 . S
C2514 H2539 0.950 . S
C2515 C2514 1.349 . S
C2515 C2531 1.349 . S
C2516 C2514 1.327 . S
C2516 C2535 1.429 . S
C2516 H2540 0.950 . S
C2517 C2534 1.574 . S
C2517 C2536 1.368 . S
C2517 H2541 0.949 . S
H2518 C2522 0.949 . S
C2519 C2520 1.349 . S
C2519 C2521 1.327 . S
C2519 H2542 0.950 . S
C2520 C2519 1.349 . S
C2520 C2532 1.349 . S
C2521 C2519 1.327 . S
C2521 C2537 1.429 . S
C2521 H2543 0.950 . S
C2522 H2518 0.949 . S
C2522 C2530 1.574 . S
C2522 C2538 1.368 . S
H2523 C2531 0.950 . S
H2524 C2529 0.950 . S
H2525 C2530 0.949 . S
H2526 C2532 0.950 . S
H2527 C2533 0.950 . S
H2528 C2534 0.949 . S
C2529 H2524 0.950 . S
C2529 C2531 1.327 . S
C2529 C2535 1.429 . S
C2530 C2522 1.574 . S
C2530 H2525 0.949 . S
C2530 C2536 1.368 . S
C2531 C2515 1.349 . S
C2531 H2523 0.950 . S
C2531 C2529 1.327 . S
C2532 C2520 1.349 . S
C2532 H2526 0.950 . S
C2532 C2533 1.327 . S
C2533 H2527 0.950 . S
C2533 C2532 1.327 . S
C2533 C2537 1.429 . S
C2534 C2517 1.574 . S
C2534 H2528 0.949 . S
C2534 C2538 1.368 . S
C2535 C2516 1.429 . S
C2535 C2529 1.429 . S
C2535 C2536 1.523 . S
C2536 C2517 1.368 . S
C2536 C2530 1.368 . S
C2536 C2535 1.523 . S
C2537 C2521 1.429 . S
C2537 C2533 1.429 . S
C2537 C2538 1.523 . S
C2538 C2522 1.368 . S
C2538 C2534 1.368 . S
C2538 C2537 1.523 . S
H2539 C2514 0.950 . S
H2540 C2516 0.950 . S
H2541 C2517 0.949 . S
H2542 C2519 0.950 . S
H2543 C2521 0.950 . S
C2544 C2545 1.349 . S
C2544 C2546 1.327 1_565 S
C2544 H2569 0.950 . S
C2545 C2544 1.349 . S
C2545 C2561 1.349 . S
C2546 C2544 1.327 1_545 S
C2546 C2565 1.429 . S
C2546 H2570 0.950 . S
C2547 C2564 1.574 . S
C2547 C2566 1.368 . S
C2547 H2571 0.949 . S
H2548 C2552 0.949 . S
C2549 C2550 1.349 . S
C2549 C2551 1.327 . S
C2549 H2572 0.950 . S
C2550 C2549 1.349 . S
C2550 C2562 1.349 . S
C2551 C2549 1.327 . S
C2551 C2567 1.429 . S
C2551 H2573 0.950 . S
C2552 H2548 0.949 . S
C2552 C2560 1.574 . S
C2552 C2568 1.368 . S
H2553 C2561 0.950 . S
H2554 C2559 0.950 . S
H2555 C2560 0.949 . S
H2556 C2562 0.950 . S
H2557 C2563 0.950 . S
H2558 C2564 0.949 . S
C2559 H2554 0.950 . S
C2559 C2561 1.327 1_545 S
C2559 C2565 1.429 . S
C2560 C2552 1.574 . S
C2560 H2555 0.949 . S
C2560 C2566 1.368 . S
C2561 C2545 1.349 . S
C2561 H2553 0.950 . S
C2561 C2559 1.327 1_565 S
C2562 C2550 1.349 . S
C2562 H2556 0.950 . S
C2562 C2563 1.327 . S
C2563 H2557 0.950 . S
C2563 C2562 1.327 . S
C2563 C2567 1.429 . S
C2564 C2547 1.574 . S
C2564 H2558 0.949 . S
C2564 C2568 1.368 . S
C2565 C2546 1.429 . S
C2565 C2559 1.429 . S
C2565 C2566 1.523 . S
C2566 C2547 1.368 . S
C2566 C2560 1.368 . S
C2566 C2565 1.523 . S
C2567 C2551 1.429 . S
C2567 C2563 1.429 . S
C2567 C2568 1.523 . S
C2568 C2552 1.368 . S
C2568 C2564 1.368 . S
C2568 C2567 1.523 . S
H2569 C2544 0.950 . S
H2570 C2546 0.950 . S
H2571 C2547 0.949 . S
H2572 C2549 0.950 . S
H2573 C2551 0.950 . S
C2574 C2575 1.349 . S
C2574 C2576 1.327 . S
C2574 H2599 0.950 . S
C2575 C2574 1.349 . S
C2575 C2591 1.349 . S
C2576 C2574 1.327 . S
C2576 C2595 1.429 . S
C2576 H2600 0.950 . S
C2577 C2594 1.574 . S
C2577 C2596 1.368 . S
C2577 H2601 0.949 . S
H2578 C2582 0.949 . S
C2579 C2580 1.349 . S
C2579 C2581 1.309 1_545 S
C2579 H2602 0.950 . S
C2580 C2579 1.349 . S
C2580 C2592 1.349 . S
C2581 C2579 1.309 1_565 S
C2581 C2597 1.441 . S
C2581 H2603 0.955 . S
C2582 H2578 0.949 . S
C2582 C2590 1.574 . S
C2582 C2598 1.368 . S
H2583 C2591 0.950 . S
H2584 C2589 0.950 . S
H2585 C2590 0.949 . S
H2586 C2592 0.950 . S
H2587 C2593 0.950 . S
H2588 C2594 0.949 . S
C2589 H2584 0.950 . S
C2589 C2591 1.327 . S
C2589 C2595 1.429 . S
C2590 C2582 1.574 . S
C2590 H2585 0.949 . S
C2590 C2596 1.368 . S
C2591 C2575 1.349 . S
C2591 H2583 0.950 . S
C2591 C2589 1.327 . S
C2592 C2580 1.349 . S
C2592 H2586 0.950 . S
C2592 C2593 1.327 1_545 S
C2593 H2587 0.950 . S
C2593 C2592 1.327 1_565 S
C2593 C2597 1.429 . S
C2594 C2577 1.574 . S
C2594 H2588 0.949 . S
C2594 C2598 1.368 . S
C2595 C2576 1.429 . S
C2595 C2589 1.429 . S
C2595 C2596 1.523 . S
C2596 C2577 1.368 . S
C2596 C2590 1.368 . S
C2596 C2595 1.523 . S
C2597 C2581 1.441 . S
C2597 C2593 1.429 . S
C2597 C2598 1.523 . S
C2598 C2582 1.368 . S
C2598 C2594 1.368 . S
C2598 C2597 1.523 . S
H2599 C2574 0.950 . S
H2600 C2576 0.950 . S
H2601 C2577 0.949 . S
H2602 C2579 0.950 . S
H2603 C2581 0.955 . S
C2604 C2605 1.349 . S
C2604 C2606 1.327 1_545 S
C2604 H2629 0.950 . S
C2605 C2604 1.349 . S
C2605 C2621 1.349 . S
C2606 C2604 1.327 1_565 S
C2606 C2625 1.429 . S
C2606 H2630 0.950 . S
C2607 C2624 1.574 . S
C2607 C2626 1.368 . S
C2607 H2631 0.949 . S
H2608 C2612 0.949 . S
C2609 C2610 1.349 . S
C2609 C2611 1.327 . S
C2609 H2632 0.950 . S
C2610 C2609 1.349 . S
C2610 C2622 1.349 . S
C2611 C2609 1.327 . S
C2611 C2627 1.429 . S
C2611 H2633 0.950 . S
C2612 H2608 0.949 . S
C2612 C2620 1.574 . S
C2612 C2628 1.368 . S
H2613 C2621 0.950 . S
H2614 C2619 0.950 . S
H2615 C2620 0.949 . S
H2616 C2622 0.950 . S
H2617 C2623 0.950 . S
H2618 C2624 0.949 . S
C2619 H2614 0.950 . S
C2619 C2621 1.327 1_565 S
C2619 C2625 1.429 . S
C2620 C2612 1.574 . S
C2620 H2615 0.949 . S
C2620 C2626 1.368 . S
C2621 C2605 1.349 . S
C2621 H2613 0.950 . S
C2621 C2619 1.327 1_545 S
C2622 C2610 1.349 . S
C2622 H2616 0.950 . S
C2622 C2623 1.327 . S
C2623 H2617 0.950 . S
C2623 C2622 1.327 . S
C2623 C2627 1.429 . S
C2624 C2607 1.574 . S
C2624 H2618 0.949 . S
C2624 C2628 1.368 . S
C2625 C2606 1.429 . S
C2625 C2619 1.429 . S
C2625 C2626 1.523 . S
C2626 C2607 1.368 . S
C2626 C2620 1.368 . S
C2626 C2625 1.523 . S
C2627 C2611 1.429 . S
C2627 C2623 1.429 . S
C2627 C2628 1.523 . S
C2628 C2612 1.368 . S
C2628 C2624 1.368 . S
C2628 C2627 1.523 . S
H2629 C2604 0.950 . S
H2630 C2606 0.950 . S
H2631 C2607 0.949 . S
H2632 C2609 0.950 . S
H2633 C2611 0.950 . S
C2634 C2635 1.349 . S
C2634 C2636 1.327 1_565 S
C2634 H2659 0.950 . S
C2635 C2634 1.349 . S
C2635 C2651 1.349 . S
C2636 C2634 1.327 1_545 S
C2636 C2655 1.429 . S
C2636 H2660 0.950 . S
C2637 C2654 1.574 . S
C2637 C2656 1.368 . S
C2637 H2661 0.949 . S
H2638 C2642 0.949 . S
C2639 C2640 1.349 . S
C2639 C2641 1.327 . S
C2639 H2662 0.950 . S
C2640 C2639 1.349 . S
C2640 C2652 1.349 . S
C2641 C2639 1.327 . S
C2641 C2657 1.429 . S
C2641 H2663 0.950 . S
C2642 H2638 0.949 . S
C2642 C2650 1.574 . S
C2642 C2658 1.368 . S
H2643 C2651 0.950 . S
H2644 C2649 0.950 . S
H2645 C2650 0.949 . S
H2646 C2652 0.950 . S
H2647 C2653 0.950 . S
H2648 C2654 0.949 . S
C2649 H2644 0.950 . S
C2649 C2651 1.327 1_545 S
C2649 C2655 1.429 . S
C2650 C2642 1.574 . S
C2650 H2645 0.949 . S
C2650 C2656 1.368 . S
C2651 C2635 1.349 . S
C2651 H2643 0.950 . S
C2651 C2649 1.327 1_565 S
C2652 C2640 1.349 . S
C2652 H2646 0.950 . S
C2652 C2653 1.327 . S
C2653 H2647 0.950 . S
C2653 C2652 1.327 . S
C2653 C2657 1.429 . S
C2654 C2637 1.574 . S
C2654 H2648 0.949 . S
C2654 C2658 1.368 . S
C2655 C2636 1.429 . S
C2655 C2649 1.429 . S
C2655 C2656 1.523 . S
C2656 C2637 1.368 . S
C2656 C2650 1.368 . S
C2656 C2655 1.523 . S
C2657 C2641 1.429 . S
C2657 C2653 1.429 . S
C2657 C2658 1.523 . S
C2658 C2642 1.368 . S
C2658 C2654 1.368 . S
C2658 C2657 1.523 . S
H2659 C2634 0.950 . S
H2660 C2636 0.950 . S
H2661 C2637 0.949 . S
H2662 C2639 0.950 . S
H2663 C2641 0.950 . S
C2664 C2665 1.349 . S
C2664 C2666 1.327 . S
C2664 H2689 0.950 . S
C2665 C2664 1.349 . S
C2665 C2681 1.349 . S
C2666 C2664 1.327 . S
C2666 C2685 1.429 . S
C2666 H2690 0.950 . S
C2667 C2684 1.574 . S
C2667 C2686 1.368 . S
C2667 H2691 0.949 . S
H2668 C2672 0.949 . S
C2669 C2670 1.349 . S
C2669 C2671 1.327 1_545 S
C2669 H2692 0.950 . S
C2670 C2669 1.349 . S
C2670 C2682 1.349 . S
C2671 C2669 1.327 1_565 S
C2671 C2687 1.429 . S
C2671 H2693 0.950 . S
C2672 H2668 0.949 . S
C2672 C2680 1.574 . S
C2672 C2688 1.368 . S
H2673 C2681 0.950 . S
H2674 C2679 0.950 . S
H2675 C2680 0.949 . S
H2676 C2682 0.950 . S
H2677 C2683 0.950 . S
H2678 C2684 0.949 . S
C2679 H2674 0.950 . S
C2679 C2681 1.327 . S
C2679 C2685 1.429 . S
C2680 C2672 1.574 . S
C2680 H2675 0.949 . S
C2680 C2686 1.368 . S
C2681 C2665 1.349 . S
C2681 H2673 0.950 . S
C2681 C2679 1.327 . S
C2682 C2670 1.349 . S
C2682 H2676 0.950 . S
C2682 C2683 1.327 1_545 S
C2683 H2677 0.950 . S
C2683 C2682 1.327 1_565 S
C2683 C2687 1.429 . S
C2684 C2667 1.574 . S
C2684 H2678 0.949 . S
C2684 C2688 1.368 . S
C2685 C2666 1.429 . S
C2685 C2679 1.429 . S
C2685 C2686 1.523 . S
C2686 C2667 1.368 . S
C2686 C2680 1.368 . S
C2686 C2685 1.523 . S
C2687 C2671 1.429 . S
C2687 C2683 1.429 . S
C2687 C2688 1.523 . S
C2688 C2672 1.368 . S
C2688 C2684 1.368 . S
C2688 C2687 1.523 . S
H2689 C2664 0.950 . S
H2690 C2666 0.950 . S
H2691 C2667 0.949 . S
H2692 C2669 0.950 . S
H2693 C2671 0.950 . S
C2694 C2695 1.349 . S
C2694 C2696 1.327 . S
C2694 H2719 0.950 . S
C2695 C2694 1.349 . S
C2695 C2711 1.349 . S
C2696 C2694 1.327 . S
C2696 C2715 1.429 . S
C2696 H2720 0.950 . S
C2697 C2714 1.574 . S
C2697 C2716 1.368 . S
C2697 H2721 0.949 . S
H2698 C2702 0.949 . S
C2699 C2700 1.349 . S
C2699 C2701 1.327 1_565 S
C2699 H2722 0.950 . S
C2700 C2699 1.349 . S
C2700 C2712 1.349 . S
C2701 C2699 1.327 1_545 S
C2701 C2717 1.429 . S
C2701 H2723 0.950 . S
C2702 H2698 0.949 . S
C2702 C2710 1.574 . S
C2702 C2718 1.368 . S
H2703 C2711 0.950 . S
H2704 C2709 0.950 . S
H2705 C2710 0.949 . S
H2706 C2712 0.950 . S
H2707 C2713 0.950 . S
H2708 C2714 0.949 . S
C2709 H2704 0.950 . S
C2709 C2711 1.327 . S
C2709 C2715 1.429 . S
C2710 C2702 1.574 . S
C2710 H2705 0.949 . S
C2710 C2716 1.368 . S
C2711 C2695 1.349 . S
C2711 H2703 0.950 . S
C2711 C2709 1.327 . S
C2712 C2700 1.349 . S
C2712 H2706 0.950 . S
C2712 C2713 1.327 1_565 S
C2713 H2707 0.950 . S
C2713 C2712 1.327 1_545 S
C2713 C2717 1.429 . S
C2714 C2697 1.574 . S
C2714 H2708 0.949 . S
C2714 C2718 1.368 . S
C2715 C2696 1.429 . S
C2715 C2709 1.429 . S
C2715 C2716 1.523 . S
C2716 C2697 1.368 . S
C2716 C2710 1.368 . S
C2716 C2715 1.523 . S
C2717 C2701 1.429 . S
C2717 C2713 1.429 . S
C2717 C2718 1.523 . S
C2718 C2702 1.368 . S
C2718 C2714 1.368 . S
C2718 C2717 1.523 . S
H2719 C2694 0.950 . S
H2720 C2696 0.950 . S
H2721 C2697 0.949 . S
H2722 C2699 0.950 . S
H2723 C2701 0.950 . S
C2724 C2725 1.349 . S
C2724 C2726 1.327 1_565 S
C2724 H2749 0.950 . S
C2725 C2724 1.349 . S
C2725 C2741 1.349 . S
C2726 C2724 1.327 1_545 S
C2726 C2745 1.429 . S
C2726 H2750 0.950 . S
C2727 C2744 1.574 . S
C2727 C2746 1.368 . S
C2727 H2751 0.949 . S
H2728 C2732 0.949 . S
C2729 C2730 1.349 . S
C2729 C2731 1.327 . S
C2729 H2752 0.950 . S
C2730 C2729 1.349 . S
C2730 C2742 1.349 . S
C2731 C2729 1.327 . S
C2731 C2747 1.429 . S
C2731 H2753 0.950 . S
C2732 H2728 0.949 . S
C2732 C2740 1.574 . S
C2732 C2748 1.368 . S
H2733 C2741 0.950 . S
H2734 C2739 0.949 . S
H2735 C2740 0.949 . S
H2736 C2742 0.950 . S
H2737 C2743 0.950 . S
H2738 C2744 0.949 . S
C2739 H2734 0.949 . S
C2739 C2741 1.328 1_545 S
C2739 C2745 1.428 . S
C2740 C2732 1.574 . S
C2740 H2735 0.949 . S
C2740 C2746 1.368 . S
C2741 C2725 1.349 . S
C2741 H2733 0.950 . S
C2741 C2739 1.328 1_565 S
C2742 C2730 1.349 . S
C2742 H2736 0.950 . S
C2742 C2743 1.327 . S
C2743 H2737 0.950 . S
C2743 C2742 1.327 . S
C2743 C2747 1.429 . S
C2744 C2727 1.574 . S
C2744 H2738 0.949 . S
C2744 C2748 1.368 . S
C2745 C2726 1.429 . S
C2745 C2739 1.428 . S
C2745 C2746 1.523 . S
C2746 C2727 1.368 . S
C2746 C2740 1.368 . S
C2746 C2745 1.523 . S
C2747 C2731 1.429 . S
C2747 C2743 1.429 . S
C2747 C2748 1.523 . S
C2748 C2732 1.368 . S
C2748 C2744 1.368 . S
C2748 C2747 1.523 . S
H2749 C2724 0.950 . S
H2750 C2726 0.950 . S
H2751 C2727 0.949 . S
H2752 C2729 0.950 . S
H2753 C2731 0.950 . S
C2754 C2755 1.349 . S
C2754 C2756 1.327 . S
C2754 H2779 0.950 . S
C2755 C2754 1.349 . S
C2755 C2771 1.349 . S
C2756 C2754 1.327 . S
C2756 C2775 1.429 . S
C2756 H2780 0.950 . S
C2757 C2774 1.574 . S
C2757 C2776 1.368 . S
C2757 H2781 0.949 . S
H2758 C2762 0.949 . S
C2759 C2760 1.349 . S
C2759 C2761 1.327 1_545 S
C2759 H2782 0.950 . S
C2760 C2759 1.349 . S
C2760 C2772 1.349 . S
C2761 C2759 1.327 1_565 S
C2761 C2777 1.429 . S
C2761 H2783 0.950 . S
C2762 H2758 0.949 . S
C2762 C2770 1.574 . S
C2762 C2778 1.368 . S
H2763 C2771 0.950 . S
H2764 C2769 0.950 . S
H2765 C2770 0.949 . S
H2766 C2772 0.950 . S
H2767 C2773 0.950 . S
H2768 C2774 0.949 . S
C2769 H2764 0.950 . S
C2769 C2771 1.327 . S
C2769 C2775 1.429 . S
C2770 C2762 1.574 . S
C2770 H2765 0.949 . S
C2770 C2776 1.368 . S
C2771 C2755 1.349 . S
C2771 H2763 0.950 . S
C2771 C2769 1.327 . S
C2772 C2760 1.349 . S
C2772 H2766 0.950 . S
C2772 C2773 1.327 1_545 S
C2773 H2767 0.950 . S
C2773 C2772 1.327 1_565 S
C2773 C2777 1.429 . S
C2774 C2757 1.574 . S
C2774 H2768 0.949 . S
C2774 C2778 1.368 . S
C2775 C2756 1.429 . S
C2775 C2769 1.429 . S
C2775 C2776 1.523 . S
C2776 C2757 1.368 . S
C2776 C2770 1.368 . S
C2776 C2775 1.523 . S
C2777 C2761 1.429 . S
C2777 C2773 1.429 . S
C2777 C2778 1.523 . S
C2778 C2762 1.368 . S
C2778 C2774 1.368 . S
C2778 C2777 1.523 . S
H2779 C2754 0.950 . S
H2780 C2756 0.950 . S
H2781 C2757 0.949 . S
H2782 C2759 0.950 . S
H2783 C2761 0.950 . S
C1345 C55 1.501 . S
C1350 C811 1.501 . S
C1375 C139 1.501 . S
C1380 C727 1.501 . S
C1405 C979 1.501 . S
C1410 C223 1.501 . S
C1435 C307 1.501 . S
C1440 C895 1.501 . S
C1465 C1159 1.501 . S
C1470 C403 1.501 . S
C1495 C1075 1.501 . S
C1500 C487 1.501 . S
C1525 C1327 1.501 . S
C1530 C571 1.501 . S
C1555 C655 1.501 . S
C1560 C1243 1.501 . S
C1585 C224 1.653 . S
C1590 C56 1.653 . S
C1615 C308 1.653 . S
C1620 C140 1.653 . S
C1645 C572 1.653 . S
C1650 C404 1.653 . S
C1675 C488 1.653 . S
C1680 C656 1.653 . S
C1705 C896 1.653 . S
C1710 C728 1.653 . S
C1735 C980 1.653 . S
C1740 C812 1.653 . S
C1765 C1076 1.653 . S
C1770 C1244 1.653 . S
C1795 C1160 1.653 . S
C1800 C1328 1.653 . S
C1825 C476 1.695 . S
C1830 C68 1.695 . S
C1855 C392 1.695 . S
C1860 C152 1.695 . S
C1885 C236 1.695 . S
C1890 C644 1.695 . S
C1915 C560 1.695 . S
C1920 C320 1.695 . S
C1945 C740 1.695 . S
C1950 C1148 1.695 . S
C1975 C1064 1.695 . S
C1980 C824 1.695 . S
C2005 C908 1.695 . S
C2010 C1316 1.695 . S
C2035 C1232 1.695 . S
C2040 C992 1.695 . S
C2065 C151 1.501 . S
C2070 C67 1.501 . S
C2095 C319 1.501 . S
C2100 C235 1.501 . S
C2125 C475 1.501 . S
C2130 C391 1.501 . S
C2155 C559 1.501 . S
C2160 C643 1.501 . S
C2185 C823 1.501 . S
C2190 C739 1.501 . S
C2215 C991 1.501 . S
C2220 C907 1.501 . S
C2245 C1063 1.501 . S
C2250 C1147 1.501 . S
C2275 C1231 1.501 . S
C2280 C1315 1.501 . S
C2305 C70 1.488 . S
C2310 C58 1.488 . S
C2335 C154 1.488 . S
C2340 C142 1.488 . S
C2365 C238 1.488 . S
C2370 C226 1.488 . S
C2395 C310 1.488 . S
C2400 C322 1.488 . S
C2425 C394 1.488 . S
C2430 C406 1.488 . S
C2455 C490 1.488 . S
C2460 C478 1.488 . S
C2485 C562 1.488 . S
C2490 C574 1.488 . S
C2515 C646 1.488 . S
C2520 C658 1.488 . S
C2545 C730 1.488 . S
C2550 C742 1.488 . S
C2575 C826 1.488 . S
C2580 C814 1.488 . S
C2605 C898 1.488 . S
C2610 C910 1.488 . S
C2635 C982 1.488 . S
C2640 C994 1.488 . S
C2665 C1066 1.488 . S
C2670 C1078 1.488 . S
C2695 C1150 1.488 . S
C2700 C1162 1.488 . S
C2725 C1246 1.488 . S
C2730 C1234 1.488 . S
C2755 C1318 1.488 . S
C2760 C1330 1.488 . S
