# Generated by pormake.
# Topology fcp, (5)-cn, num edge types: 1
# Building blocks:
#     Node 0, Type 0, BuildingBlock: BEQFEK_clean_sbu_0, # of connection points: 5
#     Node 1, Type 0, BuildingBlock: BEQFEK_clean_sbu_0, # of connection points: 5
#     Node 2, Type 0, BuildingBlock: BEQFEK_clean_sbu_0, # of connection points: 5
#     Node 3, Type 0, BuildingBlock: BEQFEK_clean_sbu_0, # of connection points: 5
#     Node 4, Type 0, BuildingBlock: BEQFEK_clean_sbu_0, # of connection points: 5
#     Node 5, Type 0, BuildingBlock: BEQFEK_clean_sbu_0, # of connection points: 5
#     Node 6, Type 0, BuildingBlock: BEQFEK_clean_sbu_0, # of connection points: 5
#     Node 7, Type 0, BuildingBlock: BEQFEK_clean_sbu_0, # of connection points: 5
#     Node 8, Type 0, BuildingBlock: BEQFEK_clean_sbu_0, # of connection points: 5
#     Node 9, Type 0, BuildingBlock: BEQFEK_clean_sbu_0, # of connection points: 5
#     Node 10, Type 0, BuildingBlock: BEQFEK_clean_sbu_0, # of connection points: 5
#     Node 11, Type 0, BuildingBlock: BEQFEK_clean_sbu_0, # of connection points: 5
#     Node 12, Type 0, BuildingBlock: BEQFEK_clean_sbu_0, # of connection points: 5
#     Node 13, Type 0, BuildingBlock: BEQFEK_clean_sbu_0, # of connection points: 5
#     Node 14, Type 0, BuildingBlock: BEQFEK_clean_sbu_0, # of connection points: 5
#     Node 15, Type 0, BuildingBlock: BEQFEK_clean_sbu_0, # of connection points: 5
#     Node 16, Type 0, BuildingBlock: BEQFEK_clean_sbu_0, # of connection points: 5
#     Node 17, Type 0, BuildingBlock: BEQFEK_clean_sbu_0, # of connection points: 5
#     Node 18, Type 0, BuildingBlock: BEQFEK_clean_sbu_0, # of connection points: 5
#     Node 19, Type 0, BuildingBlock: BEQFEK_clean_sbu_0, # of connection points: 5
#     Node 20, Type 0, BuildingBlock: BEQFEK_clean_sbu_0, # of connection points: 5
#     Node 21, Type 0, BuildingBlock: BEQFEK_clean_sbu_0, # of connection points: 5
#     Node 22, Type 0, BuildingBlock: BEQFEK_clean_sbu_0, # of connection points: 5
#     Node 23, Type 0, BuildingBlock: BEQFEK_clean_sbu_0, # of connection points: 5
#     Edge 24, Type (0, 0), BuildingBlock: OJICUG_clean_linker_0, # of connection points: 2
#     Edge 25, Type (0, 0), BuildingBlock: OJICUG_clean_linker_0, # of connection points: 2
#     Edge 26, Type (0, 0), BuildingBlock: OJICUG_clean_linker_0, # of connection points: 2
#     Edge 27, Type (0, 0), BuildingBlock: OJICUG_clean_linker_0, # of connection points: 2
#     Edge 28, Type (0, 0), BuildingBlock: OJICUG_clean_linker_0, # of connection points: 2
#     Edge 29, Type (0, 0), BuildingBlock: OJICUG_clean_linker_0, # of connection points: 2
#     Edge 30, Type (0, 0), BuildingBlock: OJICUG_clean_linker_0, # of connection points: 2
#     Edge 31, Type (0, 0), BuildingBlock: OJICUG_clean_linker_0, # of connection points: 2
#     Edge 32, Type (0, 0), BuildingBlock: OJICUG_clean_linker_0, # of connection points: 2
#     Edge 33, Type (0, 0), BuildingBlock: OJICUG_clean_linker_0, # of connection points: 2
#     Edge 34, Type (0, 0), BuildingBlock: OJICUG_clean_linker_0, # of connection points: 2
#     Edge 35, Type (0, 0), BuildingBlock: OJICUG_clean_linker_0, # of connection points: 2
#     Edge 36, Type (0, 0), BuildingBlock: OJICUG_clean_linker_0, # of connection points: 2
#     Edge 37, Type (0, 0), BuildingBlock: OJICUG_clean_linker_0, # of connection points: 2
#     Edge 38, Type (0, 0), BuildingBlock: OJICUG_clean_linker_0, # of connection points: 2
#     Edge 39, Type (0, 0), BuildingBlock: OJICUG_clean_linker_0, # of connection points: 2
#     Edge 40, Type (0, 0), BuildingBlock: OJICUG_clean_linker_0, # of connection points: 2
#     Edge 41, Type (0, 0), BuildingBlock: OJICUG_clean_linker_0, # of connection points: 2
#     Edge 42, Type (0, 0), BuildingBlock: OJICUG_clean_linker_0, # of connection points: 2
#     Edge 43, Type (0, 0), BuildingBlock: OJICUG_clean_linker_0, # of connection points: 2
#     Edge 44, Type (0, 0), BuildingBlock: OJICUG_clean_linker_0, # of connection points: 2
#     Edge 45, Type (0, 0), BuildingBlock: OJICUG_clean_linker_0, # of connection points: 2
#     Edge 46, Type (0, 0), BuildingBlock: OJICUG_clean_linker_0, # of connection points: 2
#     Edge 47, Type (0, 0), BuildingBlock: OJICUG_clean_linker_0, # of connection points: 2
#     Edge 48, Type (0, 0), BuildingBlock: OJICUG_clean_linker_0, # of connection points: 2
#     Edge 49, Type (0, 0), BuildingBlock: OJICUG_clean_linker_0, # of connection points: 2
#     Edge 50, Type (0, 0), BuildingBlock: OJICUG_clean_linker_0, # of connection points: 2
#     Edge 51, Type (0, 0), BuildingBlock: OJICUG_clean_linker_0, # of connection points: 2
#     Edge 52, Type (0, 0), BuildingBlock: OJICUG_clean_linker_0, # of connection points: 2
#     Edge 53, Type (0, 0), BuildingBlock: OJICUG_clean_linker_0, # of connection points: 2
#     Edge 54, Type (0, 0), BuildingBlock: OJICUG_clean_linker_0, # of connection points: 2
#     Edge 55, Type (0, 0), BuildingBlock: OJICUG_clean_linker_0, # of connection points: 2
#     Edge 56, Type (0, 0), BuildingBlock: OJICUG_clean_linker_0, # of connection points: 2
#     Edge 57, Type (0, 0), BuildingBlock: OJICUG_clean_linker_0, # of connection points: 2
#     Edge 58, Type (0, 0), BuildingBlock: OJICUG_clean_linker_0, # of connection points: 2
#     Edge 59, Type (0, 0), BuildingBlock: OJICUG_clean_linker_0, # of connection points: 2
#     Edge 60, Type (0, 0), BuildingBlock: OJICUG_clean_linker_0, # of connection points: 2
#     Edge 61, Type (0, 0), BuildingBlock: OJICUG_clean_linker_0, # of connection points: 2
#     Edge 62, Type (0, 0), BuildingBlock: OJICUG_clean_linker_0, # of connection points: 2
#     Edge 63, Type (0, 0), BuildingBlock: OJICUG_clean_linker_0, # of connection points: 2
#     Edge 64, Type (0, 0), BuildingBlock: OJICUG_clean_linker_0, # of connection points: 2
#     Edge 65, Type (0, 0), BuildingBlock: OJICUG_clean_linker_0, # of connection points: 2
#     Edge 66, Type (0, 0), BuildingBlock: OJICUG_clean_linker_0, # of connection points: 2
#     Edge 67, Type (0, 0), BuildingBlock: OJICUG_clean_linker_0, # of connection points: 2
#     Edge 68, Type (0, 0), BuildingBlock: OJICUG_clean_linker_0, # of connection points: 2
#     Edge 69, Type (0, 0), BuildingBlock: OJICUG_clean_linker_0, # of connection points: 2
#     Edge 70, Type (0, 0), BuildingBlock: OJICUG_clean_linker_0, # of connection points: 2
#     Edge 71, Type (0, 0), BuildingBlock: OJICUG_clean_linker_0, # of connection points: 2
#     Edge 72, Type (0, 0), BuildingBlock: OJICUG_clean_linker_0, # of connection points: 2
#     Edge 73, Type (0, 0), BuildingBlock: OJICUG_clean_linker_0, # of connection points: 2
#     Edge 74, Type (0, 0), BuildingBlock: OJICUG_clean_linker_0, # of connection points: 2
#     Edge 75, Type (0, 0), BuildingBlock: OJICUG_clean_linker_0, # of connection points: 2
#     Edge 76, Type (0, 0), BuildingBlock: OJICUG_clean_linker_0, # of connection points: 2
#     Edge 77, Type (0, 0), BuildingBlock: OJICUG_clean_linker_0, # of connection points: 2
#     Edge 78, Type (0, 0), BuildingBlock: OJICUG_clean_linker_0, # of connection points: 2
#     Edge 79, Type (0, 0), BuildingBlock: OJICUG_clean_linker_0, # of connection points: 2
#     Edge 80, Type (0, 0), BuildingBlock: OJICUG_clean_linker_0, # of connection points: 2
#     Edge 81, Type (0, 0), BuildingBlock: OJICUG_clean_linker_0, # of connection points: 2
#     Edge 82, Type (0, 0), BuildingBlock: OJICUG_clean_linker_0, # of connection points: 2
#     Edge 83, Type (0, 0), BuildingBlock: OJICUG_clean_linker_0, # of connection points: 2
# Relax obj value: 0.281
# Max RMSD: 0.212
# Mean RMSD: 0.212
data_MOF--net-fcp--node1-BEQFEK_clean_sbu_0--edge1-OJICUG_clean_linker_0
_symmetry_space_group_name_H-M    P1
_symmetry_Int_Tables_number       1
_symmetry_cell_setting            triclinic
loop_
_symmetry_equiv_pos_as_xyz
'x, y, z'
_cell_length_a     39.590072
_cell_length_b     39.585177
_cell_length_c     39.575272
_cell_angle_alpha  90.022893
_cell_angle_beta   90.008565
_cell_angle_gamma 89.993633
loop_
_atom_site_label
_atom_site_type_symbol
_atom_site_fract_x
_atom_site_fract_y
_atom_site_fract_z
_atom_type_partial_charge
Co0 Co 0.02519 0.3406 0.16861 0.0
Co1 Co 0.09575 0.32346 0.13701 0.0
C2 C 0.05891 0.27522 0.18305 0.0
O3 O 0.03359 0.2947 0.1861 0.0
O4 O 0.08406 0.28338 0.16475 0.0
C5 C 0.96394 0.33917 0.20654 0.0
O6 O 0.97257 0.30754 0.21146 0.0
C7 C 0.14197 0.28112 0.09905 0.0
C8 C 0.18524 0.31503 0.08973 0.0
C9 C 0.17398 0.2822 0.08501 0.0
N10 N 0.13474 0.31171 0.11173 0.0
N11 N 0.16057 0.33202 0.10588 0.0
C12 C 0.11792 0.25197 0.09939 0.0
H13 H 0.09147 0.26126 0.09908 0.0
H14 H 0.12241 0.23515 0.07739 0.0
H15 H 0.12174 0.23718 0.12283 0.0
C16 C 0.00783 0.34741 0.09497 0.0
N17 N 0.02974 0.34215 0.12058 0.0
N18 N 0.05989 0.3363 0.10785 0.0
C19 C 0.05839 0.3386 0.07394 0.0
C20 C 0.02527 0.3452 0.06441 0.0
C21 C 0.97066 0.35208 0.09979 0.0
H22 H 0.96508 0.37948 0.10173 0.0
H23 H 0.96229 0.33966 0.12347 0.0
H24 H 0.95637 0.34159 0.07805 0.0
O25 O 0.05827 0.37055 0.19154 0.0
O26 O 0.1082 0.35981 0.16864 0.0
H27 H 0.1101 0.34999 0.06279 0.0
H28 H 0.08346 0.34759 0.0261 0.0
C29 C 0.08858 0.33634 0.05125 0.0
H30 H 0.09574 0.30945 0.04796 0.0
H31 H 0.16165 0.35722 0.11355 0.0
O32 O 0.98099 0.35705 0.18597 0.0
C33 C 0.08996 0.37562 0.18986 0.0
Co34 Co 0.84059 0.46808 0.32465 0.0
Co35 Co 0.82301 0.39758 0.35633 0.0
C36 C 0.77482 0.43482 0.31062 0.0
O37 O 0.79457 0.4599 0.30738 0.0
O38 O 0.7828 0.40961 0.32892 0.0
C39 C 0.83948 0.52906 0.28628 0.0
O40 O 0.80793 0.5203 0.28113 0.0
C41 C 0.7807 0.3512 0.39419 0.0
C42 C 0.81466 0.30791 0.40327 0.0
C43 C 0.78181 0.3191 0.408 0.0
N44 N 0.8113 0.35857 0.38161 0.0
N45 N 0.83163 0.33272 0.38733 0.0
C46 C 0.75147 0.37513 0.39391 0.0
H47 H 0.76062 0.40163 0.39414 0.0
H48 H 0.73476 0.37059 0.41598 0.0
H49 H 0.73658 0.37116 0.37056 0.0
C50 C 0.8477 0.48535 0.3983 0.0
N51 N 0.84228 0.46348 0.37268 0.0
N52 N 0.8363 0.43335 0.38541 0.0
C53 C 0.83867 0.43482 0.41931 0.0
C54 C 0.84543 0.46791 0.42886 0.0
C55 C 0.85246 0.52251 0.3935 0.0
H56 H 0.87988 0.52803 0.39175 0.0
H57 H 0.84021 0.53091 0.36974 0.0
H58 H 0.84187 0.53683 0.41518 0.0
O59 O 0.87023 0.43481 0.30162 0.0
O60 O 0.85907 0.38494 0.32445 0.0
H61 H 0.84983 0.38306 0.43044 0.0
H62 H 0.84751 0.40968 0.46715 0.0
C63 C 0.83626 0.40463 0.44198 0.0
H64 H 0.80934 0.39757 0.4452 0.0
H65 H 0.85683 0.33171 0.37966 0.0
O66 O 0.85723 0.51221 0.30715 0.0
C67 C 0.87501 0.40306 0.30324 0.0
Co68 Co 0.96815 0.65323 0.16864 0.0
Co69 Co 0.89757 0.67059 0.13703 0.0
C70 C 0.93446 0.71872 0.18302 0.0
O71 O 0.95962 0.69905 0.18614 0.0
O72 O 0.9093 0.71075 0.16466 0.0
C73 C 0.02927 0.65502 0.20693 0.0
O74 O 0.02044 0.68659 0.2119 0.0
C75 C 0.85094 0.71282 0.09943 0.0
C76 C 0.80776 0.67874 0.09028 0.0
C77 C 0.81879 0.71166 0.0857 0.0
N78 N 0.85847 0.68219 0.11183 0.0
N79 N 0.83269 0.66179 0.10606 0.0
C80 C 0.87476 0.74215 0.0998 0.0
H81 H 0.90129 0.73307 0.09936 0.0
H82 H 0.87004 0.75901 0.07789 0.0
H83 H 0.87089 0.75683 0.1233 0.0
C84 C 0.98547 0.64665 0.09492 0.0
N85 N 0.96358 0.65178 0.12057 0.0
N86 N 0.93343 0.6577 0.10787 0.0
C87 C 0.93491 0.65557 0.07395 0.0
C88 C 0.96803 0.64904 0.06436 0.0
C89 C 0.02266 0.64201 0.09968 0.0
H90 H 0.0283 0.6146 0.10124 0.0
H91 H 0.03101 0.65414 0.12354 0.0
H92 H 0.03691 0.65281 0.07809 0.0
O93 O 0.93512 0.62318 0.19152 0.0
O94 O 0.88521 0.63428 0.16873 0.0
H95 H 0.88319 0.64423 0.06274 0.0
H96 H 0.9098 0.6469 0.02605 0.0
C97 C 0.9047 0.65798 0.05129 0.0
H98 H 0.89751 0.68488 0.04823 0.0
H99 H 0.8318 0.63655 0.11361 0.0
O100 O 0.01244 0.63709 0.18617 0.0
C101 C 0.90339 0.61829 0.18986 0.0
Co102 Co 0.15181 0.52592 0.32493 0.0
Co103 Co 0.16965 0.59599 0.35761 0.0
C104 C 0.21766 0.55913 0.31128 0.0
O105 O 0.19787 0.5341 0.30788 0.0
O106 O 0.20977 0.58417 0.32987 0.0
C107 C 0.15331 0.46472 0.28683 0.0
O108 O 0.18502 0.47321 0.2822 0.0
C109 C 0.21223 0.6427 0.39497 0.0
C110 C 0.17744 0.68465 0.4068 0.0
C111 C 0.21081 0.67441 0.4097 0.0
N112 N 0.18132 0.6347 0.38355 0.0
N113 N 0.1605 0.65973 0.39095 0.0
C114 C 0.24207 0.6196 0.39303 0.0
H115 H 0.23367 0.59285 0.39295 0.0
H116 H 0.25945 0.62407 0.41459 0.0
H117 H 0.25597 0.62454 0.36928 0.0
C118 C 0.14376 0.50783 0.39787 0.0
N119 N 0.1497 0.53014 0.37282 0.0
N120 N 0.15611 0.5599 0.38623 0.0
C121 C 0.15368 0.55764 0.42013 0.0
C122 C 0.14582 0.52461 0.42869 0.0
C123 C 0.1373 0.47106 0.39219 0.0
H124 H 0.11587 0.46805 0.37436 0.0
H125 H 0.15986 0.45949 0.38022 0.0
H126 H 0.13153 0.45778 0.41621 0.0
O127 O 0.12245 0.55936 0.30216 0.0
O128 O 0.13355 0.60901 0.32559 0.0
H129 H 0.14614 0.60842 0.43705 0.0
H130 H 0.15591 0.57908 0.4706 0.0
C131 C 0.16135 0.58597 0.444 0.0
H132 H 0.18844 0.59271 0.44192 0.0
H133 H 0.13496 0.66014 0.38447 0.0
O134 O 0.13533 0.48184 0.30727 0.0
C135 C 0.1177 0.59109 0.30408 0.0
Co136 Co 0.02221 0.65612 0.82441 0.0
Co137 Co 0.09212 0.67369 0.85774 0.0
C138 C 0.05538 0.72251 0.81236 0.0
O139 O 0.03047 0.70263 0.8085 0.0
O140 O 0.08041 0.71442 0.83087 0.0
C141 C 0.96372 0.65624 0.78264 0.0
O142 O 0.97517 0.68622 0.77442 0.0
C143 C 0.14008 0.71505 0.89512 0.0
C144 C 0.18093 0.67899 0.9069 0.0
C145 C 0.17181 0.7127 0.90963 0.0
N146 N 0.13099 0.68436 0.88392 0.0
N147 N 0.15535 0.66278 0.89135 0.0
C148 C 0.11808 0.74569 0.89301 0.0
H149 H 0.09104 0.73829 0.89312 0.0
H150 H 0.12328 0.7631 0.91439 0.0
H151 H 0.12349 0.75917 0.86913 0.0
C152 C 0.00402 0.6462 0.89712 0.0
N153 N 0.02632 0.65298 0.87229 0.0
N154 N 0.05594 0.65956 0.88595 0.0
C155 C 0.05355 0.65656 0.91979 0.0
C156 C 0.02061 0.64799 0.92806 0.0
C157 C 0.96742 0.63908 0.89115 0.0
H158 H 0.96487 0.61885 0.8719 0.0
H159 H 0.95516 0.66209 0.88085 0.0
H160 H 0.95445 0.63134 0.91477 0.0
O161 O 0.05569 0.62715 0.8012 0.0
O162 O 0.10515 0.63822 0.825 0.0
H163 H 0.1039 0.64873 0.93773 0.0
H164 H 0.07428 0.66014 0.97052 0.0
C165 C 0.08162 0.66455 0.94386 0.0
H166 H 0.08891 0.69142 0.94095 0.0
H167 H 0.15493 0.6372 0.88496 0.0
O168 O 0.97816 0.63988 0.80628 0.0
C169 C 0.08742 0.62255 0.80321 0.0
Co170 Co 0.15148 0.47224 0.6695 0.0
Co171 Co 0.17262 0.40246 0.63791 0.0
C172 C 0.21714 0.4397 0.68646 0.0
O173 O 0.19611 0.46367 0.68978 0.0
O174 O 0.21158 0.415 0.66669 0.0
C175 C 0.15224 0.53421 0.7065 0.0
O176 O 0.18422 0.52657 0.71079 0.0
C177 C 0.21691 0.35552 0.60256 0.0
C178 C 0.18224 0.31418 0.58839 0.0
C179 C 0.21576 0.3242 0.58699 0.0
N180 N 0.1856 0.36362 0.61279 0.0
N181 N 0.16493 0.33886 0.60417 0.0
C182 C 0.24696 0.37803 0.60682 0.0
H183 H 0.23912 0.40491 0.60538 0.0
H184 H 0.26629 0.37272 0.58721 0.0
H185 H 0.25826 0.37353 0.63207 0.0
C186 C 0.14678 0.48988 0.59575 0.0
N187 N 0.15237 0.46806 0.62137 0.0
N188 N 0.15993 0.43829 0.60861 0.0
C189 C 0.15866 0.43996 0.57464 0.0
C190 C 0.15071 0.4728 0.56514 0.0
C191 C 0.13971 0.52666 0.60066 0.0
H192 H 0.11201 0.53042 0.60274 0.0
H193 H 0.15162 0.53575 0.62435 0.0
H194 H 0.14917 0.54167 0.57895 0.0
O195 O 0.12098 0.43871 0.6904 0.0
O196 O 0.13555 0.3892 0.66861 0.0
H197 H 0.14838 0.38842 0.56211 0.0
H198 H 0.15358 0.41517 0.52595 0.0
C199 C 0.16286 0.41003 0.55187 0.0
H200 H 0.18994 0.40291 0.55079 0.0
H201 H 0.13911 0.3386 0.60949 0.0
O202 O 0.13435 0.51629 0.68665 0.0
C203 C 0.11766 0.40679 0.68873 0.0
Co204 Co 0.96991 0.34052 0.82457 0.0
Co205 Co 0.90027 0.32271 0.85803 0.0
C206 C 0.93663 0.27464 0.81138 0.0
O207 O 0.96169 0.29435 0.80786 0.0
O208 O 0.91173 0.28261 0.83011 0.0
C209 C 0.02935 0.34011 0.78396 0.0
O210 O 0.01967 0.30909 0.77744 0.0
C211 C 0.85371 0.28014 0.89551 0.0
C212 C 0.81207 0.31509 0.90789 0.0
C213 C 0.82211 0.28163 0.9104 0.0
N214 N 0.86184 0.3111 0.88434 0.0
N215 N 0.83701 0.33202 0.8921 0.0
C216 C 0.87657 0.25015 0.89313 0.0
H217 H 0.90338 0.25834 0.89298 0.0
H218 H 0.8721 0.23259 0.91454 0.0
H219 H 0.87136 0.23651 0.86928 0.0
C220 C 0.98871 0.34936 0.89726 0.0
N221 N 0.96623 0.34293 0.87249 0.0
N222 N 0.93667 0.33633 0.88624 0.0
C223 C 0.93925 0.33902 0.9201 0.0
C224 C 0.97228 0.34735 0.92828 0.0
C225 C 0.02528 0.3565 0.89114 0.0
H226 H 0.02772 0.37708 0.87228 0.0
H227 H 0.03739 0.33366 0.8803 0.0
H228 H 0.03846 0.36377 0.91481 0.0
O229 O 0.93618 0.36971 0.80208 0.0
O230 O 0.88684 0.35881 0.82619 0.0
H231 H 0.88882 0.34666 0.93793 0.0
H232 H 0.91854 0.33588 0.97085 0.0
C233 C 0.91124 0.3311 0.94424 0.0
H234 H 0.90419 0.30413 0.94164 0.0
H235 H 0.83671 0.35762 0.88583 0.0
O236 O 0.01365 0.35711 0.80632 0.0
C237 C 0.9045 0.37454 0.80441 0.0
Co238 Co 0.84094 0.52356 0.66866 0.0
Co239 Co 0.82213 0.59293 0.63495 0.0
C240 C 0.77462 0.55642 0.68176 0.0
O241 O 0.79487 0.53182 0.68556 0.0
O242 O 0.78199 0.58125 0.66271 0.0
C243 C 0.83966 0.46311 0.70802 0.0
O244 O 0.80818 0.47204 0.71329 0.0
C245 C 0.77973 0.64016 0.59787 0.0
C246 C 0.8152 0.68122 0.58509 0.0
C247 C 0.78155 0.67179 0.58304 0.0
N248 N 0.81069 0.63145 0.6086 0.0
N249 N 0.83192 0.65593 0.60058 0.0
C250 C 0.74935 0.61791 0.60073 0.0
H251 H 0.757 0.59093 0.60062 0.0
H252 H 0.73146 0.62282 0.57969 0.0
H253 H 0.73632 0.62333 0.62487 0.0
C254 C 0.84976 0.50469 0.59599 0.0
N255 N 0.84309 0.52716 0.62071 0.0
N256 N 0.83601 0.55658 0.60687 0.0
C257 C 0.83858 0.5539 0.57302 0.0
C258 C 0.84739 0.52098 0.56494 0.0
C259 C 0.85744 0.46824 0.6022 0.0
H260 H 0.87825 0.46616 0.62086 0.0
H261 H 0.83488 0.45588 0.61335 0.0
H262 H 0.86463 0.45503 0.57852 0.0
O263 O 0.87016 0.55742 0.691 0.0
O264 O 0.85813 0.60649 0.66684 0.0
H265 H 0.84587 0.60412 0.55453 0.0
H266 H 0.83422 0.57411 0.52216 0.0
C267 C 0.83011 0.58169 0.54881 0.0
H268 H 0.80324 0.58886 0.55201 0.0
H269 H 0.8576 0.6558 0.60652 0.0
O270 O 0.85736 0.47969 0.68689 0.0
C271 C 0.87438 0.58918 0.68853 0.0
Co272 Co 0.1696 0.02451 0.34038 0.0
Co273 Co 0.13607 0.09435 0.32349 0.0
C274 C 0.18435 0.05939 0.27578 0.0
O275 O 0.18742 0.03378 0.29486 0.0
O276 O 0.16544 0.08407 0.28402 0.0
C277 C 0.20925 0.96422 0.33883 0.0
O278 O 0.21529 0.97378 0.30767 0.0
C279 C 0.09932 0.14131 0.28067 0.0
C280 C 0.08589 0.18243 0.31587 0.0
C281 C 0.08421 0.17282 0.28222 0.0
N282 N 0.10981 0.13283 0.31179 0.0
N283 N 0.10143 0.15735 0.33284 0.0
C284 C 0.10245 0.1188 0.25046 0.0
H285 H 0.12647 0.12437 0.23731 0.0
H286 H 0.10272 0.0919 0.25836 0.0
H287 H 0.08132 0.12328 0.23257 0.0
C288 C 0.0968 0.00524 0.3476 0.0
N289 N 0.12157 0.02785 0.34163 0.0
N290 N 0.10778 0.05744 0.33524 0.0
C291 C 0.07393 0.05476 0.33757 0.0
C292 C 0.06577 0.02163 0.34549 0.0
C293 C 0.10298 0.96871 0.35494 0.0
H294 H 0.12113 0.96645 0.37619 0.0
H295 H 0.11476 0.9567 0.33251 0.0
H296 H 0.07922 0.95531 0.36138 0.0
O297 O 0.19101 0.05775 0.37107 0.0
O298 O 0.16599 0.10697 0.36147 0.0
H299 H 0.05582 0.10487 0.34656 0.0
H300 H 0.02316 0.07541 0.33432 0.0
C301 C 0.04981 0.08294 0.33019 0.0
H302 H 0.05277 0.09086 0.30351 0.0
H303 H 0.10711 0.15736 0.35859 0.0
O304 O 0.18761 0.98039 0.3563 0.0
C305 C 0.18768 0.08914 0.37714 0.0
Co306 Co 0.52374 0.32464 0.15283 0.0
Co307 Co 0.59401 0.35683 0.17079 0.0
C308 C 0.55718 0.31052 0.21862 0.0
O309 O 0.53217 0.30717 0.19878 0.0
O310 O 0.58222 0.32913 0.21086 0.0
C311 C 0.46356 0.2849 0.1533 0.0
O312 O 0.47316 0.2785 0.18439 0.0
C313 C 0.64086 0.39442 0.21304 0.0
C314 C 0.68357 0.40407 0.17852 0.0
C315 C 0.67292 0.40833 0.21161 0.0
N316 N 0.63303 0.38223 0.18238 0.0
N317 N 0.65853 0.38831 0.16172 0.0
C318 C 0.61744 0.39363 0.24267 0.0
H319 H 0.59078 0.39393 0.23395 0.0
H320 H 0.62221 0.41544 0.25965 0.0
H321 H 0.62171 0.37006 0.2571 0.0
C322 C 0.50598 0.39831 0.14626 0.0
N323 N 0.528 0.37279 0.15149 0.0
N324 N 0.55802 0.3857 0.15771 0.0
C325 C 0.55631 0.4196 0.1557 0.0
C326 C 0.52318 0.42898 0.14892 0.0
C327 C 0.46887 0.39332 0.14125 0.0
H328 H 0.46351 0.3918 0.11377 0.0
H329 H 0.46057 0.36938 0.15321 0.0
H330 H 0.45438 0.4148 0.15197 0.0
O331 O 0.55716 0.30196 0.123 0.0
O332 O 0.60675 0.32521 0.13456 0.0
H333 H 0.60795 0.43131 0.14463 0.0
H334 H 0.58111 0.46777 0.14767 0.0
C335 C 0.58634 0.44245 0.15847 0.0
H336 H 0.59345 0.44524 0.18543 0.0
H337 H 0.65917 0.38096 0.1364 0.0
O338 O 0.47963 0.30686 0.13615 0.0
C339 C 0.58892 0.30392 0.1184 0.0
Co340 Co 0.82524 0.96904 0.342 0.0
Co341 Co 0.85679 0.8985 0.32435 0.0
C342 C 0.81053 0.93553 0.2765 0.0
O343 O 0.80751 0.96074 0.29615 0.0
O344 O 0.82893 0.91038 0.28442 0.0
C345 C 0.78728 0.03031 0.34074 0.0
O346 O 0.78265 0.02192 0.30899 0.0
C347 C 0.89399 0.85177 0.28179 0.0
C348 C 0.90354 0.80874 0.31595 0.0
C349 C 0.90778 0.81965 0.28294 0.0
N350 N 0.88189 0.8594 0.31252 0.0
N351 N 0.88789 0.83371 0.33297 0.0
C352 C 0.89331 0.87545 0.25236 0.0
H353 H 0.86973 0.87142 0.23786 0.0
H354 H 0.89372 0.90203 0.26132 0.0
H355 H 0.9151 0.87073 0.23535 0.0
C356 C 0.89901 0.98635 0.34818 0.0
N357 N 0.87332 0.96446 0.34323 0.0
N358 N 0.88599 0.93431 0.33718 0.0
C359 C 0.91991 0.93579 0.33903 0.0
C360 C 0.92954 0.96892 0.34552 0.0
C361 C 0.89428 0.02354 0.35286 0.0
H362 H 0.893 0.02919 0.38029 0.0
H363 H 0.8703 0.03187 0.34098 0.0
H364 H 0.91575 0.0378 0.34184 0.0
O365 O 0.80239 0.93583 0.37188 0.0
O366 O 0.82527 0.88599 0.36069 0.0
H367 H 0.93128 0.88408 0.3502 0.0
H368 H 0.9679 0.91071 0.34714 0.0
C369 C 0.94256 0.9056 0.33634 0.0
H370 H 0.94533 0.89843 0.30939 0.0
H371 H 0.88059 0.83291 0.3583 0.0
O372 O 0.80779 0.0132 0.35865 0.0
C373 C 0.80409 0.90409 0.37669 0.0
Co374 Co 0.46899 0.66902 0.15409 0.0
Co375 Co 0.399 0.63615 0.17165 0.0
C376 C 0.43549 0.68244 0.21992 0.0
O377 O 0.46056 0.68589 0.2002 0.0
O378 O 0.41051 0.66384 0.21193 0.0
C379 C 0.52982 0.70776 0.15593 0.0
O380 O 0.52082 0.71298 0.18742 0.0
C381 C 0.35176 0.59909 0.21387 0.0
C382 C 0.31026 0.58712 0.1786 0.0
C383 C 0.32002 0.58451 0.21214 0.0
N384 N 0.36023 0.61019 0.18296 0.0
N385 N 0.33548 0.60267 0.16186 0.0
C386 C 0.3744 0.60125 0.24405 0.0
H387 H 0.36935 0.62517 0.25763 0.0
H388 H 0.40128 0.60111 0.23607 0.0
H389 H 0.36956 0.57992 0.26159 0.0
C390 C 0.4872 0.59615 0.14538 0.0
N391 N 0.46491 0.62111 0.15173 0.0
N392 N 0.43521 0.60761 0.1582 0.0
C393 C 0.43751 0.57374 0.15552 0.0
C394 C 0.47049 0.56527 0.14731 0.0
C395 C 0.52385 0.60194 0.13838 0.0
H396 H 0.52653 0.62073 0.11776 0.0
H397 H 0.53595 0.61276 0.16125 0.0
H398 H 0.53687 0.57816 0.13123 0.0
O399 O 0.43568 0.6918 0.12451 0.0
O400 O 0.38612 0.66816 0.13549 0.0
H401 H 0.38698 0.55635 0.14759 0.0
H402 H 0.41636 0.52318 0.15851 0.0
C403 C 0.40925 0.54984 0.16328 0.0
H404 H 0.40207 0.55249 0.19021 0.0
H405 H 0.33543 0.60895 0.13625 0.0
O406 O 0.51315 0.68683 0.13808 0.0
C407 C 0.40398 0.68972 0.11966 0.0
Co408 Co 0.16909 0.97159 0.65455 0.0
Co409 Co 0.13679 0.9013 0.67206 0.0
C410 C 0.18334 0.93765 0.72002 0.0
O411 O 0.18672 0.9628 0.70038 0.0
O412 O 0.16461 0.91276 0.7121 0.0
C413 C 0.20821 0.03225 0.65588 0.0
O414 O 0.21422 0.02271 0.68706 0.0
C415 C 0.09854 0.85518 0.71432 0.0
C416 C 0.08898 0.81207 0.68023 0.0
C417 C 0.08434 0.82324 0.71311 0.0
N418 N 0.11123 0.86245 0.68373 0.0
N419 N 0.10524 0.83671 0.66333 0.0
C420 C 0.09905 0.87909 0.74358 0.0
H421 H 0.09907 0.9056 0.73443 0.0
H422 H 0.07697 0.87476 0.76031 0.0
H423 H 0.12239 0.87493 0.75844 0.0
C424 C 0.09548 0.98941 0.64756 0.0
N425 N 0.12096 0.96741 0.65313 0.0
N426 N 0.10801 0.93739 0.65917 0.0
C427 C 0.07414 0.93905 0.65671 0.0
C428 C 0.06482 0.97216 0.6498 0.0
C429 C 0.1005 0.02649 0.64236 0.0
H430 H 0.10271 0.03161 0.61489 0.0
H431 H 0.12411 0.03495 0.65486 0.0
H432 H 0.07874 0.04103 0.65242 0.0
O433 O 0.19155 0.93829 0.6244 0.0
O434 O 0.16822 0.88866 0.63567 0.0
H435 H 0.06273 0.8874 0.64527 0.0
H436 H 0.02619 0.91418 0.64766 0.0
C437 C 0.0513 0.90897 0.65894 0.0
H438 H 0.04798 0.90182 0.68583 0.0
H439 H 0.1129 0.83567 0.63812 0.0
O440 O 0.18678 0.01587 0.63832 0.0
C441 C 0.18948 0.90656 0.61956 0.0
Co442 Co 0.47067 0.32401 0.84148 0.0
Co443 Co 0.40161 0.35779 0.8206 0.0
C444 C 0.43974 0.31192 0.77365 0.0
O445 O 0.46321 0.3073 0.79506 0.0
O446 O 0.41496 0.33139 0.78006 0.0
C447 C 0.5318 0.28587 0.8405 0.0
O448 O 0.52383 0.28149 0.8086 0.0
C449 C 0.34457 0.38503 0.78157 0.0
C450 C 0.32458 0.42438 0.81567 0.0
C451 C 0.32091 0.41091 0.78353 0.0
N452 N 0.36251 0.38453 0.81041 0.0
N453 N 0.34978 0.40749 0.83104 0.0
C454 C 0.34731 0.3584 0.75488 0.0
H455 H 0.35444 0.33392 0.7664 0.0
H456 H 0.36694 0.366 0.73641 0.0
H457 H 0.32296 0.35475 0.74151 0.0
C458 C 0.48965 0.39603 0.8513 0.0
N459 N 0.46688 0.3718 0.84392 0.0
N460 N 0.43831 0.38613 0.83453 0.0
C461 C 0.44242 0.42001 0.83507 0.0
C462 C 0.47467 0.42735 0.84641 0.0
C463 C 0.52535 0.38907 0.86142 0.0
H464 H 0.5256 0.37114 0.88297 0.0
H465 H 0.53871 0.37676 0.84005 0.0
H466 H 0.53881 0.41261 0.86858 0.0
O467 O 0.4369 0.30154 0.87 0.0
O468 O 0.38796 0.32488 0.85616 0.0
H469 H 0.4001 0.45311 0.84024 0.0
H470 H 0.43156 0.46801 0.81141 0.0
C471 C 0.41817 0.44508 0.82042 0.0
H472 H 0.40431 0.43386 0.79886 0.0
H473 H 0.35862 0.41194 0.85549 0.0
O474 O 0.51434 0.30606 0.85843 0.0
C475 C 0.40503 0.30353 0.87313 0.0
Co476 Co 0.82478 0.02528 0.65227 0.0
Co477 Co 0.85737 0.09526 0.67035 0.0
C478 C 0.81176 0.058 0.71861 0.0
O479 O 0.80817 0.03317 0.69858 0.0
O480 O 0.83019 0.08314 0.71078 0.0
C481 C 0.78668 0.96413 0.65375 0.0
O482 O 0.78203 0.97263 0.68546 0.0
C483 C 0.89481 0.142 0.71276 0.0
C484 C 0.90624 0.18404 0.67798 0.0
C485 C 0.90938 0.17374 0.71131 0.0
N486 N 0.88324 0.13399 0.6819 0.0
N487 N 0.89042 0.15908 0.66108 0.0
C488 C 0.89315 0.1189 0.74262 0.0
H489 H 0.89295 0.09214 0.73424 0.0
H490 H 0.91488 0.12336 0.75979 0.0
H491 H 0.86957 0.12393 0.75677 0.0
C492 C 0.89767 0.00745 0.64335 0.0
N493 N 0.87262 0.02963 0.6497 0.0
N494 N 0.88599 0.05937 0.65628 0.0
C495 C 0.91987 0.05721 0.65362 0.0
C496 C 0.92847 0.02426 0.64537 0.0
C497 C 0.89204 0.97073 0.63654 0.0
H498 H 0.87324 0.96784 0.61594 0.0
H499 H 0.88131 0.9587 0.65948 0.0
H500 H 0.91588 0.95778 0.62944 0.0
O501 O 0.80164 0.05876 0.62325 0.0
O502 O 0.82495 0.10839 0.63462 0.0
H503 H 0.93682 0.10803 0.64652 0.0
H504 H 0.97031 0.07866 0.65639 0.0
C505 C 0.94368 0.08548 0.66165 0.0
H506 H 0.94138 0.09207 0.68877 0.0
H507 H 0.88377 0.15951 0.63557 0.0
O508 O 0.80712 0.98123 0.63576 0.0
C509 C 0.80342 0.09053 0.61875 0.0
Co510 Co 0.52617 0.66764 0.8414 0.0
Co511 Co 0.59706 0.63665 0.82417 0.0
C512 C 0.55947 0.68203 0.77585 0.0
O513 O 0.53425 0.685 0.79546 0.0
O514 O 0.58483 0.66401 0.78396 0.0
C515 C 0.46502 0.70574 0.84038 0.0
O516 O 0.47373 0.71083 0.8088 0.0
C517 C 0.64317 0.59871 0.78176 0.0
C518 C 0.687 0.59035 0.81521 0.0
C519 C 0.67536 0.58509 0.78259 0.0
N520 N 0.63618 0.61166 0.81229 0.0
N521 N 0.66236 0.60639 0.83233 0.0
C522 C 0.61876 0.59841 0.7529 0.0
H523 H 0.59242 0.59803 0.76252 0.0
H524 H 0.62324 0.57621 0.73635 0.0
H525 H 0.6222 0.62165 0.73772 0.0
C526 C 0.50957 0.5938 0.84788 0.0
N527 N 0.53122 0.61966 0.84293 0.0
N528 N 0.56158 0.60729 0.83743 0.0
C529 C 0.56053 0.57339 0.83989 0.0
C530 C 0.52742 0.56342 0.84598 0.0
C531 C 0.47225 0.59823 0.85173 0.0
H532 H 0.46594 0.5992 0.87904 0.0
H533 H 0.464 0.62225 0.8399 0.0
H534 H 0.45842 0.57676 0.84014 0.0
O535 O 0.55927 0.69089 0.87109 0.0
O536 O 0.60942 0.66852 0.86023 0.0
H537 H 0.61236 0.5635 0.85193 0.0
H538 H 0.58638 0.52632 0.85047 0.0
C539 C 0.59113 0.55119 0.83849 0.0
H540 H 0.59853 0.54723 0.81175 0.0
H541 H 0.66367 0.6144 0.85743 0.0
O542 O 0.48192 0.68489 0.85812 0.0
C543 C 0.59101 0.68958 0.87604 0.0
Co544 Co 0.33999 0.16901 0.02249 0.0
Co545 Co 0.3222 0.13594 0.09244 0.0
C546 C 0.27399 0.18213 0.05602 0.0
O547 O 0.29389 0.18579 0.03111 0.0
O548 O 0.2818 0.16338 0.08095 0.0
C549 C 0.3385 0.20884 0.96223 0.0
O550 O 0.30761 0.21554 0.97223 0.0
C551 C 0.28059 0.09938 0.14075 0.0
C552 C 0.3167 0.08713 0.18144 0.0
C553 C 0.28291 0.08494 0.17252 0.0
N554 N 0.3114 0.11003 0.13145 0.0
N555 N 0.333 0.10233 0.15571 0.0
C556 C 0.24984 0.1019 0.11895 0.0
H557 H 0.25705 0.10173 0.09185 0.0
H558 H 0.23222 0.08074 0.12424 0.0
H559 H 0.23668 0.12593 0.12451 0.0
C560 C 0.34888 0.09605 0.00428 0.0
N561 N 0.34239 0.12102 0.02655 0.0
N562 N 0.33571 0.10749 0.0562 0.0
C563 C 0.33832 0.07362 0.05389 0.0
C564 C 0.34678 0.06516 0.02094 0.0
C565 C 0.35619 0.10185 0.96768 0.0
H566 H 0.3765 0.121 0.96516 0.0
H567 H 0.33327 0.1122 0.95528 0.0
H568 H 0.36389 0.07815 0.95482 0.0
O569 O 0.36964 0.19185 0.05577 0.0
O570 O 0.35822 0.16814 0.1052 0.0
H571 H 0.34634 0.05562 0.10419 0.0
H572 H 0.33408 0.023 0.07471 0.0
C573 C 0.3302 0.04974 0.08206 0.0
H574 H 0.30346 0.05313 0.08962 0.0
H575 H 0.35867 0.10831 0.15512 0.0
O576 O 0.35576 0.18686 0.97817 0.0
C577 C 0.37423 0.1897 0.08752 0.0
Co578 Co 0.34123 0.82422 0.96903 0.0
Co579 Co 0.32439 0.85589 0.89831 0.0
C580 C 0.27583 0.81016 0.93509 0.0
O581 O 0.29525 0.80697 0.96045 0.0
O582 O 0.28415 0.82841 0.90997 0.0
C583 C 0.3397 0.78541 0.02984 0.0
O584 O 0.30845 0.77965 0.02041 0.0
C585 C 0.28231 0.89396 0.85189 0.0
C586 C 0.31631 0.90298 0.80862 0.0
C587 C 0.2835 0.9079 0.81982 0.0
N588 N 0.31283 0.88116 0.85921 0.0
N589 N 0.33318 0.88683 0.83336 0.0
C590 C 0.25312 0.89388 0.87588 0.0
H591 H 0.26235 0.89399 0.90238 0.0
H592 H 0.23657 0.91608 0.87143 0.0
H593 H 0.23805 0.87064 0.87193 0.0
C594 C 0.34795 0.89802 0.98635 0.0
N595 N 0.34292 0.87233 0.96444 0.0
N596 N 0.33727 0.88501 0.93422 0.0
C597 C 0.3395 0.91892 0.93567 0.0
C598 C 0.34578 0.92856 0.96884 0.0
C599 C 0.35229 0.89331 0.02359 0.0
H600 H 0.37966 0.89186 0.02946 0.0
H601 H 0.34019 0.86944 0.03185 0.0
H602 H 0.3413 0.9149 0.03772 0.0
O603 O 0.3712 0.80109 0.93598 0.0
O604 O 0.36059 0.82405 0.88603 0.0
H605 H 0.35117 0.92988 0.88396 0.0
H606 H 0.34879 0.96664 0.91051 0.0
C607 C 0.33746 0.94152 0.9054 0.0
H608 H 0.31062 0.94489 0.89811 0.0
H609 H 0.35834 0.87902 0.83234 0.0
O610 O 0.35736 0.8067 0.01341 0.0
C611 C 0.3763 0.80276 0.90426 0.0
Co612 Co 0.32442 0.15578 0.52558 0.0
Co613 Co 0.35875 0.17201 0.59497 0.0
C614 C 0.31395 0.22203 0.55868 0.0
O615 O 0.30993 0.20282 0.53327 0.0
O616 O 0.33201 0.21293 0.58368 0.0
C617 C 0.27462 0.1496 0.47731 0.0
O618 O 0.26007 0.16901 0.49995 0.0
C619 C 0.39821 0.2138 0.64051 0.0
C620 C 0.40839 0.17953 0.68329 0.0
C621 C 0.41273 0.21253 0.67236 0.0
N622 N 0.38554 0.1832 0.63319 0.0
N623 N 0.39198 0.16267 0.6587 0.0
C624 C 0.39756 0.24304 0.61657 0.0
H625 H 0.39733 0.23388 0.59006 0.0
H626 H 0.41973 0.25971 0.6207 0.0
H627 H 0.37428 0.25793 0.62082 0.0
C628 C 0.39673 0.14472 0.5062 0.0
N629 N 0.37227 0.15157 0.52889 0.0
N630 N 0.38636 0.1575 0.55845 0.0
C631 C 0.4201 0.15384 0.55568 0.0
C632 C 0.42788 0.1457 0.52249 0.0
C633 C 0.39029 0.13848 0.46951 0.0
H634 H 0.37002 0.11933 0.46668 0.0
H635 H 0.38124 0.1622 0.45764 0.0
H636 H 0.41346 0.12973 0.45635 0.0
O637 O 0.30096 0.12725 0.55942 0.0
O638 O 0.32608 0.13677 0.60857 0.0
H639 H 0.43718 0.14617 0.60641 0.0
H640 H 0.47083 0.15413 0.57665 0.0
C641 C 0.44457 0.16077 0.58369 0.0
H642 H 0.44375 0.18801 0.59012 0.0
H643 H 0.38435 0.13746 0.6597 0.0
O644 O 0.30522 0.1407 0.48177 0.0
C645 C 0.30355 0.12197 0.59103 0.0
Co646 Co 0.65468 0.16831 0.96992 0.0
Co647 Co 0.67225 0.13608 0.89956 0.0
C648 C 0.72038 0.18217 0.9365 0.0
O649 O 0.70073 0.18545 0.96168 0.0
O650 O 0.71235 0.16375 0.91139 0.0
C651 C 0.65485 0.20813 0.02991 0.0
O652 O 0.68598 0.21445 0.02043 0.0
C653 C 0.71444 0.09827 0.85284 0.0
C654 C 0.67995 0.08857 0.81009 0.0
C655 C 0.71302 0.08428 0.82079 0.0
N656 N 0.68381 0.11055 0.8606 0.0
N657 N 0.66317 0.10443 0.83508 0.0
C658 C 0.74403 0.09909 0.87632 0.0
H659 H 0.73527 0.09866 0.90296 0.0
H660 H 0.7611 0.07736 0.8715 0.0
H661 H 0.75838 0.12274 0.8722 0.0
C662 C 0.64726 0.09493 0.98763 0.0
N663 N 0.65291 0.12032 0.96559 0.0
N664 N 0.65903 0.10732 0.93559 0.0
C665 C 0.65656 0.07345 0.93732 0.0
C666 C 0.64952 0.06424 0.97045 0.0
C667 C 0.6422 0.10008 0.02473 0.0
H668 H 0.61475 0.10225 0.02996 0.0
H669 H 0.65468 0.12374 0.03307 0.0
H670 H 0.65237 0.07839 0.03931 0.0
O671 O 0.62515 0.19105 0.93648 0.0
O672 O 0.63614 0.16779 0.88676 0.0
H673 H 0.64543 0.06175 0.88567 0.0
H674 H 0.64813 0.0253 0.91257 0.0
C675 C 0.65914 0.05052 0.90732 0.0
H676 H 0.68607 0.0475 0.90023 0.0
H677 H 0.63788 0.11183 0.8344 0.0
O678 O 0.63777 0.18611 0.01387 0.0
C679 C 0.62029 0.18916 0.90476 0.0
Co680 Co 0.6684 0.84049 0.52536 0.0
Co681 Co 0.63692 0.82302 0.59594 0.0
C682 C 0.68287 0.77494 0.55874 0.0
O683 O 0.68587 0.79453 0.5335 0.0
O684 O 0.66464 0.783 0.58398 0.0
C685 C 0.70675 0.83958 0.46442 0.0
O686 O 0.71181 0.80796 0.47301 0.0
C687 C 0.59959 0.78055 0.64261 0.0
C688 C 0.59017 0.81468 0.68571 0.0
C689 C 0.58583 0.78171 0.67474 0.0
N690 N 0.61178 0.81125 0.63502 0.0
N691 N 0.60585 0.83168 0.66076 0.0
C692 C 0.60021 0.75114 0.61888 0.0
H693 H 0.59975 0.76011 0.59231 0.0
H694 H 0.57841 0.73415 0.62362 0.0
H695 H 0.62378 0.73662 0.62286 0.0
C696 C 0.59475 0.84739 0.50816 0.0
N697 N 0.62039 0.84204 0.53 0.0
N698 N 0.60771 0.83601 0.56015 0.0
C699 C 0.57381 0.83825 0.5587 0.0
C700 C 0.56422 0.84503 0.52562 0.0
C701 C 0.59951 0.85225 0.47099 0.0
H702 H 0.60125 0.87969 0.46554 0.0
H703 H 0.62327 0.84004 0.46254 0.0
H704 H 0.57784 0.84168 0.45666 0.0
O705 O 0.69136 0.87024 0.55856 0.0
O706 O 0.66855 0.85932 0.60848 0.0
H707 H 0.56263 0.84944 0.61046 0.0
H708 H 0.52593 0.84675 0.58389 0.0
C709 C 0.55118 0.83572 0.58892 0.0
H710 H 0.5482 0.80879 0.59604 0.0
H711 H 0.61322 0.85698 0.6616 0.0
O712 O 0.68583 0.85725 0.48128 0.0
C713 C 0.68973 0.87519 0.59028 0.0
Co714 Co 0.65185 0.825 0.02606 0.0
Co715 Co 0.67022 0.85804 0.09581 0.0
C716 C 0.71801 0.81165 0.0589 0.0
O717 O 0.69791 0.80804 0.03414 0.0
O718 O 0.71044 0.83042 0.0839 0.0
C719 C 0.65361 0.78746 0.96455 0.0
O720 O 0.68556 0.78362 0.97251 0.0
C721 C 0.71267 0.89526 0.14279 0.0
C722 C 0.67755 0.90749 0.18434 0.0
C723 C 0.71106 0.91 0.17448 0.0
N724 N 0.68174 0.88416 0.13444 0.0
N725 N 0.66072 0.89184 0.15922 0.0
C726 C 0.74278 0.8929 0.1201 0.0
H727 H 0.75627 0.86896 0.12526 0.0
H728 H 0.73475 0.89293 0.09323 0.0
H729 H 0.7604 0.9142 0.12481 0.0
C730 C 0.64334 0.89763 0.00763 0.0
N731 N 0.64965 0.87281 0.03006 0.0
N732 N 0.65642 0.88644 0.05964 0.0
C733 C 0.65397 0.92031 0.05713 0.0
C734 C 0.64562 0.92858 0.02413 0.0
C735 C 0.63623 0.89162 0.97102 0.0
H736 H 0.61522 0.87324 0.96851 0.0
H737 H 0.65886 0.88021 0.95902 0.0
H738 H 0.62956 0.91541 0.95776 0.0
O739 O 0.62267 0.8024 0.05962 0.0
O740 O 0.63427 0.82593 0.10912 0.0
H741 H 0.64679 0.93812 0.10766 0.0
H742 H 0.65752 0.971 0.07788 0.0
C743 C 0.66223 0.94437 0.08514 0.0
H744 H 0.68923 0.94162 0.092 0.0
H745 H 0.63512 0.8856 0.15937 0.0
O746 O 0.63534 0.80724 0.98211 0.0
C747 C 0.61822 0.80442 0.09139 0.0
Co748 Co 0.32441 0.84138 0.47009 0.0
Co749 Co 0.35793 0.82295 0.40055 0.0
C750 C 0.31086 0.77538 0.43693 0.0
O751 O 0.30727 0.79529 0.46187 0.0
O752 O 0.32981 0.78305 0.41211 0.0
C753 C 0.28471 0.84104 0.5302 0.0
O754 O 0.27874 0.80975 0.521 0.0
C755 C 0.39511 0.78019 0.35379 0.0
C756 C 0.4079 0.81526 0.31239 0.0
C757 C 0.41007 0.78172 0.32221 0.0
N758 N 0.38423 0.81121 0.36212 0.0
N759 N 0.39225 0.83219 0.33743 0.0
C760 C 0.39239 0.75006 0.37643 0.0
H761 H 0.39223 0.75807 0.40331 0.0
H762 H 0.41364 0.73233 0.37188 0.0
H763 H 0.36844 0.73669 0.37103 0.0
C764 C 0.3971 0.84972 0.489 0.0
N765 N 0.37235 0.84335 0.46648 0.0
N766 N 0.38612 0.8365 0.43697 0.0
C767 C 0.41998 0.83894 0.43963 0.0
C768 C 0.42813 0.8474 0.47264 0.0
C769 C 0.39095 0.85712 0.52553 0.0
H770 H 0.37262 0.87821 0.52778 0.0
H771 H 0.37941 0.83462 0.53763 0.0
H772 H 0.4147 0.86381 0.53885 0.0
O773 O 0.30222 0.87065 0.43622 0.0
O774 O 0.32633 0.85919 0.38699 0.0
H775 H 0.43812 0.8464 0.38928 0.0
H776 H 0.47076 0.83515 0.41914 0.0
C777 C 0.44413 0.83073 0.4117 0.0
H778 H 0.44121 0.80381 0.40459 0.0
H779 H 0.38623 0.85786 0.33729 0.0
O780 O 0.30637 0.8583 0.51388 0.0
C781 C 0.30465 0.87523 0.4045 0.0
Co782 Co 0.66794 0.15299 0.46927 0.0
Co783 Co 0.63629 0.17027 0.39862 0.0
C784 C 0.68189 0.21863 0.43568 0.0
O785 O 0.68511 0.19896 0.46083 0.0
O786 O 0.66361 0.21059 0.41048 0.0
C787 C 0.70643 0.15469 0.53029 0.0
O788 O 0.71165 0.18616 0.52127 0.0
C789 C 0.59857 0.21224 0.35176 0.0
C790 C 0.58957 0.17793 0.30871 0.0
C791 C 0.58486 0.21089 0.31959 0.0
N792 N 0.61108 0.18169 0.35942 0.0
N793 N 0.6054 0.16114 0.33372 0.0
C794 C 0.59882 0.24168 0.37546 0.0
H795 H 0.59843 0.23273 0.40204 0.0
H796 H 0.57684 0.25843 0.37067 0.0
H797 H 0.62224 0.25644 0.37151 0.0
C798 C 0.59432 0.14561 0.48642 0.0
N799 N 0.61992 0.15113 0.46458 0.0
N800 N 0.60719 0.15712 0.43444 0.0
C801 C 0.57329 0.15473 0.4359 0.0
C802 C 0.56376 0.14786 0.46898 0.0
C803 C 0.5991 0.14073 0.52359 0.0
H804 H 0.60111 0.11329 0.52897 0.0
H805 H 0.62273 0.15315 0.53208 0.0
H806 H 0.57732 0.15104 0.53792 0.0
O807 O 0.69113 0.12322 0.43622 0.0
O808 O 0.66837 0.13422 0.38626 0.0
H809 H 0.56201 0.14363 0.38414 0.0
H810 H 0.52536 0.14627 0.4108 0.0
C811 C 0.5506 0.15731 0.40573 0.0
H812 H 0.54759 0.18425 0.39866 0.0
H813 H 0.61304 0.13592 0.33294 0.0
O814 O 0.6855 0.13686 0.51359 0.0
C815 C 0.6896 0.11838 0.40447 0.0
C816 C 0.1022 0.43492 0.2642 0.0
C817 C 0.13733 0.43995 0.26382 0.0
H818 H 0.05963 0.41116 0.24091 0.0
C819 C 0.15675 0.42351 0.23903 0.0
H820 H 0.08647 0.44736 0.28283 0.0
C821 C 0.14136 0.403 0.21479 0.0
C822 C 0.10616 0.3984 0.21478 0.0
H823 H 0.18387 0.42693 0.23792 0.0
H824 H 0.15711 0.3908 0.19602 0.0
C825 C 0.08678 0.4144 0.23994 0.0
C826 C 0.93413 0.3904 0.22888 0.0
C827 C 0.93913 0.35526 0.22941 0.0
H828 H 0.91046 0.43311 0.25201 0.0
C829 C 0.92264 0.33596 0.25425 0.0
H830 H 0.9466 0.40604 0.21021 0.0
C831 C 0.90215 0.35149 0.27842 0.0
C832 C 0.89764 0.3867 0.27831 0.0
H833 H 0.92602 0.30883 0.25547 0.0
H834 H 0.88994 0.33583 0.29725 0.0
C835 C 0.91365 0.40595 0.25308 0.0
C836 C 0.83635 0.57035 0.23857 0.0
C837 C 0.85563 0.55387 0.26344 0.0
H838 H 0.83623 0.60313 0.19565 0.0
C839 C 0.89076 0.5589 0.26405 0.0
H840 H 0.80923 0.56695 0.2373 0.0
C841 C 0.90632 0.57946 0.23991 0.0
C842 C 0.88708 0.5955 0.21467 0.0
H843 H 0.90638 0.54642 0.28273 0.0
H844 H 0.93346 0.5827 0.24104 0.0
C845 C 0.85188 0.59091 0.21448 0.0
C846 C 0.07947 0.58836 0.25363 0.0
C847 C 0.09521 0.60757 0.2791 0.0
H848 H 0.0469 0.58826 0.21048 0.0
C849 C 0.09056 0.64276 0.27933 0.0
H850 H 0.08276 0.56122 0.25244 0.0
C851 C 0.07018 0.65829 0.25504 0.0
C852 C 0.05399 0.639 0.22996 0.0
H853 H 0.10256 0.65837 0.29834 0.0
H854 H 0.06667 0.68539 0.25635 0.0
C855 C 0.05914 0.6039 0.22932 0.0
C856 C 0.10077 0.56353 0.72886 0.0
C857 C 0.13596 0.55897 0.72933 0.0
H858 H 0.05784 0.58671 0.752 0.0
C859 C 0.15512 0.57583 0.75406 0.0
H860 H 0.08523 0.5508 0.71027 0.0
C861 C 0.1394 0.59621 0.77822 0.0
C862 C 0.10413 0.60025 0.77819 0.0
H863 H 0.18229 0.57279 0.75522 0.0
H864 H 0.15492 0.60869 0.797 0.0
C865 C 0.08504 0.58391 0.75302 0.0
C866 C 0.07017 0.33825 0.73576 0.0
C867 C 0.05374 0.35687 0.76118 0.0
H868 H 0.10282 0.33935 0.69271 0.0
C869 C 0.05841 0.39202 0.76248 0.0
H870 H 0.06699 0.31114 0.73396 0.0
C871 C 0.07861 0.40826 0.73854 0.0
C872 C 0.09478 0.38969 0.71288 0.0
H873 H 0.04592 0.40715 0.78157 0.0
H874 H 0.08163 0.4354 0.7403 0.0
C875 C 0.0905 0.35447 0.71191 0.0
C876 C 0.9067 0.41264 0.75387 0.0
C877 C 0.88778 0.39706 0.77963 0.0
H878 H 0.90634 0.44513 0.71068 0.0
C879 C 0.85263 0.40195 0.78039 0.0
H880 H 0.93379 0.40918 0.75229 0.0
C881 C 0.83687 0.42239 0.75631 0.0
C882 C 0.85588 0.43841 0.73092 0.0
H883 H 0.83723 0.39007 0.79964 0.0
H884 H 0.80981 0.42608 0.758 0.0
C885 C 0.89092 0.43304 0.72978 0.0
C886 C 0.93239 0.60475 0.76323 0.0
C887 C 0.93866 0.63956 0.76048 0.0
H888 H 0.9077 0.56146 0.74241 0.0
C889 C 0.92326 0.65776 0.73414 0.0
H890 H 0.94402 0.58995 0.78309 0.0
C891 C 0.90259 0.64142 0.71066 0.0
C892 C 0.89692 0.60646 0.71292 0.0
H893 H 0.92762 0.68462 0.73126 0.0
H894 H 0.89126 0.65621 0.69061 0.0
C895 C 0.91182 0.58836 0.73966 0.0
C896 C 0.20246 0.13673 0.41616 0.0
C897 C 0.21053 0.10527 0.40191 0.0
H898 H 0.21658 0.17542 0.4512 0.0
C899 C 0.24103 0.08948 0.41114 0.0
H900 H 0.17927 0.14961 0.40942 0.0
C901 C 0.26274 0.1046 0.43453 0.0
C902 C 0.25407 0.13549 0.44959 0.0
H903 H 0.24816 0.06538 0.40028 0.0
H904 H 0.28574 0.09157 0.44163 0.0
C905 C 0.22387 0.15153 0.44 0.0
C906 C 0.58704 0.25342 0.08004 0.0
C907 C 0.60571 0.27927 0.09577 0.0
H908 H 0.58792 0.21024 0.04744 0.0
C909 C 0.64088 0.28025 0.09107 0.0
H910 H 0.55994 0.25167 0.08339 0.0
C911 C 0.65693 0.25632 0.07069 0.0
C912 C 0.63821 0.23082 0.05454 0.0
H913 H 0.65612 0.29957 0.10304 0.0
H914 H 0.68399 0.25821 0.06719 0.0
C915 C 0.60312 0.22943 0.05969 0.0
C916 C 0.75491 0.83673 0.42365 0.0
C917 C 0.72986 0.8559 0.43999 0.0
H918 H 0.7982 0.83683 0.39137 0.0
C919 C 0.72936 0.89107 0.43527 0.0
H920 H 0.75613 0.80958 0.42684 0.0
C921 C 0.75374 0.90678 0.41513 0.0
C922 C 0.77913 0.88765 0.39921 0.0
H923 H 0.71055 0.90661 0.44766 0.0
H924 H 0.75266 0.93395 0.41209 0.0
C925 C 0.77926 0.85241 0.40352 0.0
C926 C 0.39082 0.76398 0.0605 0.0
C927 C 0.35579 0.76281 0.05492 0.0
H928 H 0.43354 0.74161 0.0848 0.0
C929 C 0.33668 0.73761 0.0711 0.0
H930 H 0.40632 0.78292 0.04828 0.0
C931 C 0.3523 0.71371 0.09185 0.0
C932 C 0.38743 0.71444 0.09691 0.0
H933 H 0.30964 0.73591 0.06728 0.0
H934 H 0.33681 0.69458 0.1038 0.0
C935 C 0.40646 0.74004 0.08121 0.0
C936 C 0.23673 0.83876 0.5712 0.0
C937 C 0.2621 0.85757 0.55497 0.0
H938 H 0.19373 0.83941 0.60385 0.0
C939 C 0.26351 0.89264 0.56027 0.0
H940 H 0.23484 0.8117 0.56759 0.0
C941 C 0.23968 0.90863 0.58086 0.0
C942 C 0.21396 0.88987 0.59669 0.0
H943 H 0.28261 0.9079 0.54798 0.0
H944 H 0.24144 0.93571 0.58433 0.0
C945 C 0.21295 0.85471 0.59181 0.0
C946 C 0.40606 0.25286 0.91101 0.0
C947 C 0.38764 0.27896 0.89538 0.0
H948 H 0.40499 0.20988 0.9437 0.0
C949 C 0.35252 0.2804 0.90026 0.0
H950 H 0.43311 0.2507 0.90753 0.0
C951 C 0.33635 0.25677 0.92095 0.0
C952 C 0.35492 0.23113 0.93711 0.0
H953 H 0.33751 0.29994 0.88835 0.0
H954 H 0.30935 0.25903 0.92477 0.0
C955 C 0.38989 0.22919 0.93154 0.0
C956 C 0.75284 0.08795 0.58067 0.0
C957 C 0.77836 0.10709 0.59639 0.0
H958 H 0.70972 0.08796 0.54806 0.0
C959 C 0.77868 0.14227 0.59173 0.0
H960 H 0.75158 0.06081 0.58396 0.0
C961 C 0.75445 0.15786 0.57132 0.0
C962 C 0.72934 0.13864 0.5551 0.0
H963 H 0.79773 0.15784 0.60371 0.0
H964 H 0.75584 0.18495 0.56777 0.0
C965 C 0.72859 0.10354 0.5603 0.0
C966 C 0.60263 0.7641 0.93515 0.0
C967 C 0.63781 0.76423 0.9399 0.0
H968 H 0.56022 0.7402 0.91175 0.0
C969 C 0.65746 0.73973 0.92331 0.0
H970 H 0.58673 0.78251 0.9477 0.0
C971 C 0.64225 0.71526 0.90295 0.0
C972 C 0.60702 0.71474 0.89865 0.0
H973 H 0.68463 0.73902 0.92652 0.0
H974 H 0.65818 0.69672 0.89063 0.0
C975 C 0.5874 0.73962 0.91477 0.0
C976 C 0.43318 0.26399 0.10174 0.0
C977 C 0.43865 0.26241 0.13678 0.0
H978 H 0.40905 0.24206 0.05864 0.0
C979 C 0.42249 0.23692 0.15552 0.0
H980 H 0.44539 0.28317 0.08652 0.0
C981 C 0.40185 0.21316 0.13953 0.0
C982 C 0.39689 0.21431 0.10439 0.0
H983 H 0.42622 0.23489 0.18256 0.0
H984 H 0.38992 0.19382 0.15476 0.0
C985 C 0.41258 0.24018 0.08572 0.0
C986 C 0.41491 0.7525 0.90726 0.0
C987 C 0.39897 0.77777 0.88799 0.0
H988 H 0.44777 0.70952 0.90736 0.0
C989 C 0.40351 0.77784 0.85277 0.0
H990 H 0.41171 0.75146 0.93442 0.0
C991 C 0.42391 0.7536 0.83726 0.0
C992 C 0.44032 0.7287 0.85656 0.0
H993 H 0.39136 0.79669 0.83709 0.0
H994 H 0.42727 0.7548 0.81012 0.0
C995 C 0.43534 0.72822 0.89171 0.0
C996 C 0.25626 0.07323 0.65861 0.0
C997 C 0.2306 0.05748 0.63973 0.0
H998 H 0.29957 0.10555 0.65812 0.0
C999 C 0.22874 0.06364 0.60482 0.0
H1000 H 0.25849 0.06898 0.68555 0.0
C1001 C 0.2525 0.08443 0.58903 0.0
C1002 C 0.27865 0.09958 0.60779 0.0
H1003 H 0.20939 0.05181 0.58951 0.0
H1004 H 0.25045 0.08842 0.56203 0.0
C1005 C 0.28001 0.09403 0.64283 0.0
C1006 C 0.56118 0.26341 0.89186 0.0
C1007 C 0.55641 0.2629 0.85668 0.0
H1008 H 0.58461 0.24029 0.93467 0.0
C1009 C 0.57297 0.23806 0.83743 0.0
H1010 H 0.54866 0.28209 0.90745 0.0
C1011 C 0.59336 0.21387 0.85305 0.0
C1012 C 0.59769 0.214 0.8883 0.0
H1013 H 0.56974 0.23686 0.81028 0.0
H1014 H 0.60566 0.19505 0.83744 0.0
C1015 C 0.58157 0.23922 0.90749 0.0
C1016 C 0.73892 0.92293 0.65716 0.0
C1017 C 0.76369 0.93938 0.63775 0.0
H1018 H 0.69592 0.89024 0.65749 0.0
C1019 C 0.76406 0.93438 0.6026 0.0
H1020 H 0.73782 0.92632 0.6843 0.0
C1021 C 0.7398 0.9139 0.58715 0.0
C1022 C 0.71465 0.8979 0.60652 0.0
H1023 H 0.78268 0.94682 0.58687 0.0
H1024 H 0.74076 0.91069 0.55999 0.0
C1025 C 0.71468 0.90245 0.64174 0.0
C1026 C 0.57069 0.75592 0.15896 0.0
C1027 C 0.55457 0.73066 0.13983 0.0
H1028 H 0.60303 0.79924 0.15874 0.0
C1029 C 0.55982 0.72971 0.10475 0.0
H1030 H 0.56709 0.75745 0.18605 0.0
C1031 C 0.58015 0.75389 0.08905 0.0
C1032 C 0.5958 0.77954 0.10808 0.0
H1033 H 0.54765 0.71073 0.08924 0.0
H1034 H 0.58349 0.75246 0.06192 0.0
C1035 C 0.59108 0.78008 0.14327 0.0
C1036 C 0.23019 0.93375 0.39018 0.0
C1037 C 0.23188 0.93937 0.35518 0.0
H1038 H 0.25207 0.90963 0.43324 0.0
C1039 C 0.25754 0.92347 0.33644 0.0
H1040 H 0.21087 0.94574 0.40541 0.0
C1041 C 0.28137 0.90292 0.35243 0.0
C1042 C 0.2801 0.89782 0.38754 0.0
H1043 H 0.25964 0.92735 0.30943 0.0
H1044 H 0.30086 0.89115 0.33724 0.0
C1045 C 0.25406 0.91327 0.40619 0.0
C1046 C 0.73931 0.07132 0.33746 0.0
C1047 C 0.76412 0.05487 0.35685 0.0
H1048 H 0.69613 0.10377 0.33719 0.0
C1049 C 0.76433 0.05963 0.39204 0.0
H1050 H 0.73832 0.06812 0.31029 0.0
C1051 C 0.73989 0.07989 0.40753 0.0
C1052 C 0.71472 0.09588 0.38818 0.0
H1053 H 0.78296 0.04718 0.40775 0.0
H1054 H 0.74075 0.08292 0.43472 0.0
C1055 C 0.7149 0.09157 0.35293 0.0
C1056 C 0.01027 0.32336 0.9723 0.0
C1057 C 0.98714 0.34826 0.96251 0.0
H1058 H 0.0393 0.30208 0.01258 0.0
C1059 C 0.97635 0.37228 0.9863 0.0
H1060 H 0.01842 0.30424 0.95447 0.0
C1061 C 0.98865 0.37142 0.01949 0.0
C1062 C 0.01168 0.34632 0.02943 0.0
H1063 H 0.95826 0.39156 0.97921 0.0
H1064 H 0.98033 0.39048 0.03728 0.0
C1065 C 0.02217 0.3222 0.00551 0.0
C1066 C 0.87161 0.50455 0.4738 0.0
C1067 C 0.84654 0.4815 0.46384 0.0
H1068 H 0.89164 0.53501 0.51411 0.0
C1069 C 0.82239 0.47101 0.48773 0.0
H1070 H 0.89067 0.51288 0.45604 0.0
C1071 C 0.82353 0.4829 0.52094 0.0
C1072 C 0.84841 0.50604 0.53075 0.0
H1073 H 0.80228 0.45389 0.48062 0.0
H1074 H 0.80441 0.47476 0.53874 0.0
C1075 C 0.87242 0.51688 0.50699 0.0
C1076 C 0.98277 0.67161 0.97241 0.0
C1077 C 0.00593 0.64684 0.96236 0.0
H1078 H 0.95382 0.69254 0.01294 0.0
C1079 C 0.0169 0.62271 0.98595 0.0
H1080 H 0.9745 0.69082 0.95476 0.0
C1081 C 0.00469 0.62329 0.01918 0.0
C1082 C 0.98159 0.64824 0.02937 0.0
H1083 H 0.03502 0.60354 0.97866 0.0
H1084 H 0.01311 0.60414 0.0368 0.0
C1085 C 0.97098 0.67252 0.00567 0.0
C1086 C 0.17414 0.47753 0.50655 0.0
C1087 C 0.14912 0.48638 0.53019 0.0
H1088 H 0.19205 0.48208 0.45556 0.0
C1089 C 0.12252 0.50751 0.51992 0.0
H1090 H 0.19534 0.46189 0.51391 0.0
C1091 C 0.12099 0.51944 0.48662 0.0
C1092 C 0.1458 0.5101 0.46306 0.0
H1093 H 0.10278 0.51455 0.53751 0.0
H1094 H 0.10052 0.53605 0.47925 0.0
C1095 C 0.17231 0.489 0.47322 0.0
C1096 C 0.97491 0.00554 0.37094 0.0
C1097 C 0.96453 0.98249 0.34602 0.0
H1098 H 0.01557 0.03585 0.39043 0.0
C1099 C 0.98803 0.97194 0.32151 0.0
H1100 H 0.95746 0.01392 0.39027 0.0
C1101 C 0.02128 0.98375 0.32215 0.0
C1102 C 0.03152 0.00688 0.34689 0.0
H1103 H 0.9806 0.95481 0.30152 0.0
H1104 H 0.03878 0.97553 0.30277 0.0
C1105 C 0.00814 0.01776 0.37127 0.0
C1106 C 0.48659 0.47407 0.12289 0.0
C1107 C 0.50941 0.46391 0.14811 0.0
H1108 H 0.45653 0.5146 0.10275 0.0
C1109 C 0.51965 0.4876 0.17256 0.0
H1110 H 0.47844 0.45646 0.1036 0.0
C1111 C 0.50787 0.52085 0.17152 0.0
C1112 C 0.48507 0.53091 0.14643 0.0
H1113 H 0.53658 0.48034 0.19279 0.0
H1114 H 0.51591 0.53852 0.19084 0.0
C1115 C 0.47439 0.50731 0.12216 0.0
C1116 C 0.00583 0.97561 0.67233 0.0
C1117 C 0.0299 0.98579 0.64825 0.0
H1118 H 0.9546 0.97926 0.68965 0.0
C1119 C 0.02008 0.00832 0.62265 0.0
H1120 H 0.01281 0.95886 0.6928 0.0
C1121 C 0.98681 0.02033 0.62119 0.0
C1122 C 0.96284 0.00975 0.64512 0.0
H1123 H 0.038 0.0164 0.60363 0.0
H1124 H 0.97978 0.038 0.60151 0.0
C1125 C 0.97256 0.98721 0.67059 0.0
C1126 C 0.52636 0.50406 0.82378 0.0
C1127 C 0.51427 0.52826 0.8469 0.0
H1128 H 0.52401 0.45274 0.80634 0.0
C1129 C 0.4898 0.51848 0.87066 0.0
H1130 H 0.54447 0.51097 0.8045 0.0
C1131 C 0.47752 0.48531 0.87105 0.0
C1132 C 0.49007 0.46123 0.84822 0.0
H1133 H 0.4802 0.5364 0.88896 0.0
H1134 H 0.45809 0.47844 0.88906 0.0
C1135 C 0.51469 0.47076 0.82472 0.0
C1136 C 0.37184 0.00711 0.01774 0.0
C1137 C 0.34794 0.03076 0.0064 0.0
H1138 H 0.39025 0.95617 0.01438 0.0
C1139 C 0.32337 0.02069 0.98302 0.0
H1140 H 0.39085 0.0144 0.03604 0.0
C1141 C 0.32246 0.98737 0.97137 0.0
C1142 C 0.34653 0.96361 0.98234 0.0
H1143 H 0.30432 0.03838 0.97446 0.0
H1144 H 0.3026 0.98011 0.95403 0.0
C1145 C 0.37125 0.97381 0.00568 0.0
C1146 C 0.47181 0.16982 0.48448 0.0
C1147 C 0.46198 0.14468 0.50733 0.0
H1148 H 0.51208 0.19128 0.45556 0.0
C1149 C 0.48568 0.12037 0.51766 0.0
H1150 H 0.45407 0.18916 0.47668 0.0
C1151 C 0.51883 0.12125 0.50527 0.0
C1152 C 0.5288 0.14663 0.48256 0.0
H1153 H 0.47857 0.10088 0.5355 0.0
H1154 H 0.53656 0.10203 0.51328 0.0
C1155 C 0.50496 0.17098 0.47245 0.0
C1156 C 0.62252 0.01983 0.00705 0.0
C1157 C 0.64802 0.02942 0.98431 0.0
H1158 H 0.60168 0.97989 0.03739 0.0
C1159 C 0.67217 0.00532 0.97437 0.0
H1160 H 0.60346 0.03779 0.01495 0.0
C1161 C 0.67061 0.97222 0.98645 0.0
C1162 C 0.64527 0.96275 0.00923 0.0
H1163 H 0.69258 0.01216 0.95749 0.0
H1164 H 0.68971 0.95421 0.97869 0.0
C1165 C 0.62127 0.98675 0.01956 0.0
C1166 C 0.4861 0.87231 0.47683 0.0
C1167 C 0.46233 0.84826 0.48754 0.0
H1168 H 0.53705 0.89049 0.4809 0.0
C1169 C 0.47213 0.82326 0.51056 0.0
H1170 H 0.47901 0.89165 0.45881 0.0
C1171 C 0.50534 0.82204 0.52244 0.0
C1172 C 0.52923 0.84621 0.51206 0.0
H1173 H 0.45432 0.80411 0.51862 0.0
H1174 H 0.51243 0.80185 0.53948 0.0
C1175 C 0.51929 0.87141 0.48914 0.0
C1176 C 0.03978 0.24119 0.23286 0.0
C1177 C 0.06145 0.24502 0.20493 0.0
H1178 H 0.03024 0.2152 0.27945 0.0
C1179 C 0.08839 0.22228 0.20089 0.0
H1180 H 0.01889 0.25838 0.23689 0.0
C1181 C 0.09467 0.19752 0.22515 0.0
C1182 C 0.07417 0.19498 0.25398 0.0
H1183 H 0.10571 0.22463 0.17988 0.0
H1184 H 0.11693 0.18193 0.22229 0.0
C1185 C 0.04631 0.2166 0.25734 0.0
C1186 C 0.74168 0.45307 0.25996 0.0
C1187 C 0.74457 0.4325 0.28882 0.0
H1188 H 0.71657 0.46125 0.21263 0.0
C1189 C 0.72084 0.40662 0.29387 0.0
H1190 H 0.75965 0.47312 0.25515 0.0
C1191 C 0.69609 0.40008 0.26965 0.0
C1192 C 0.69463 0.41924 0.23984 0.0
H1193 H 0.72243 0.39022 0.31566 0.0
H1194 H 0.67969 0.37853 0.27331 0.0
C1195 C 0.71715 0.44623 0.23551 0.0
C1196 C 0.94576 0.77576 0.25862 0.0
C1197 C 0.91867 0.79819 0.25453 0.0
H1198 H 0.97279 0.73356 0.23856 0.0
C1199 C 0.89945 0.79694 0.22475 0.0
H1200 H 0.96083 0.7762 0.28147 0.0
C1201 C 0.90602 0.77242 0.20029 0.0
C1202 C 0.93203 0.74877 0.20509 0.0
H1203 H 0.87784 0.81331 0.22127 0.0
H1204 H 0.88959 0.77095 0.17851 0.0
C1205 C 0.95265 0.75148 0.23394 0.0
C1206 C 0.27587 0.54679 0.2366 0.0
C1207 C 0.29783 0.57434 0.24028 0.0
H1208 H 0.23383 0.51962 0.25682 0.0
C1209 C 0.29565 0.59446 0.26942 0.0
H1210 H 0.27698 0.53103 0.21425 0.0
C1211 C 0.27091 0.58815 0.29368 0.0
C1212 C 0.24783 0.56156 0.28936 0.0
H1213 H 0.31153 0.61648 0.27253 0.0
H1214 H 0.26885 0.60522 0.3149 0.0
C1215 C 0.2513 0.54022 0.2611 0.0
C1216 C 0.03809 0.75541 0.76124 0.0
C1217 C 0.05794 0.7528 0.79063 0.0
H1218 H 0.03118 0.77991 0.71341 0.0
C1219 C 0.08364 0.77663 0.79612 0.0
H1220 H 0.01819 0.7374 0.75606 0.0
C1221 C 0.09086 0.80106 0.77178 0.0
C1222 C 0.07254 0.8021 0.74142 0.0
H1223 H 0.09942 0.77532 0.81834 0.0
H1224 H 0.11233 0.81746 0.77582 0.0
C1225 C 0.04559 0.77963 0.73669 0.0
C1226 C 0.26568 0.43727 0.76801 0.0
C1227 C 0.29604 0.42198 0.7578 0.0
H1228 H 0.21705 0.45553 0.75299 0.0
C1229 C 0.30203 0.41731 0.72304 0.0
H1230 H 0.26054 0.44191 0.79448 0.0
C1231 C 0.27676 0.42419 0.69941 0.0
C1232 C 0.24576 0.43754 0.70997 0.0
H1233 H 0.32598 0.40788 0.71394 0.0
H1234 H 0.28128 0.4187 0.67298 0.0
C1235 C 0.24086 0.44523 0.74425 0.0
C1236 C 0.90719 0.22166 0.7936 0.0
C1237 C 0.93386 0.24463 0.78925 0.0
H1238 H 0.8783 0.18154 0.77222 0.0
C1239 C 0.95483 0.24137 0.76071 0.0
H1240 H 0.89039 0.22357 0.81504 0.0
C1241 C 0.94776 0.2172 0.73595 0.0
C1242 C 0.9201 0.19541 0.73965 0.0
H1243 H 0.97549 0.25875 0.7564 0.0
H1244 H 0.96323 0.21628 0.71338 0.0
C1245 C 0.90039 0.1973 0.76907 0.0
C1246 C 0.71916 0.54677 0.75865 0.0
C1247 C 0.69621 0.57334 0.75406 0.0
H1248 H 0.76141 0.51974 0.73876 0.0
C1249 C 0.69643 0.59136 0.72351 0.0
H1250 H 0.7195 0.53261 0.78207 0.0
C1251 C 0.7205 0.58422 0.69878 0.0
C1252 C 0.74478 0.5589 0.70408 0.0
H1253 H 0.67964 0.61255 0.71956 0.0
H1254 H 0.72117 0.59977 0.67637 0.0
C1255 C 0.74301 0.53934 0.73373 0.0
C1256 C 0.23438 0.0408 0.24169 0.0
C1257 C 0.20652 0.06253 0.24584 0.0
H1258 H 0.28064 0.03112 0.21514 0.0
C1259 C 0.20254 0.08972 0.22342 0.0
H1260 H 0.23841 0.01973 0.25865 0.0
C1261 C 0.22656 0.09599 0.19844 0.0
C1262 C 0.25516 0.07525 0.19539 0.0
H1263 H 0.18169 0.10715 0.22606 0.0
H1264 H 0.22367 0.1183 0.18294 0.0
C1265 C 0.25866 0.04733 0.2169 0.0
C1266 C 0.54682 0.23458 0.27536 0.0
C1267 C 0.57361 0.23914 0.29808 0.0
H1268 H 0.51981 0.2542 0.23293 0.0
C1269 C 0.59223 0.2693 0.29709 0.0
H1270 H 0.53222 0.21143 0.27558 0.0
C1271 C 0.58537 0.29368 0.27259 0.0
C1272 C 0.5597 0.28844 0.24866 0.0
H1273 H 0.61361 0.27317 0.31366 0.0
H1274 H 0.60136 0.31579 0.27138 0.0
C1275 C 0.53966 0.25918 0.25108 0.0
C1276 C 0.79273 0.90644 0.22335 0.0
C1277 C 0.7885 0.93307 0.24642 0.0
H1278 H 0.77144 0.87802 0.18286 0.0
C1279 C 0.76025 0.95442 0.24302 0.0
H1280 H 0.81397 0.88938 0.22537 0.0
C1281 C 0.73569 0.94781 0.21852 0.0
C1282 C 0.73927 0.92022 0.19658 0.0
H1283 H 0.75606 0.97505 0.26049 0.0
H1284 H 0.71334 0.96358 0.21745 0.0
C1285 C 0.76839 0.90008 0.1987 0.0
C1286 C 0.45456 0.73235 0.25389 0.0
C1287 C 0.43297 0.70433 0.25014 0.0
H1288 H 0.46397 0.77905 0.27976 0.0
C1289 C 0.40612 0.70026 0.27297 0.0
H1290 H 0.47538 0.73643 0.23664 0.0
C1291 C 0.39981 0.72455 0.2977 0.0
C1292 C 0.4202 0.75346 0.30013 0.0
H1293 H 0.38885 0.67924 0.27069 0.0
H1294 H 0.37761 0.72166 0.31335 0.0
C1295 C 0.448 0.75687 0.27845 0.0
C1296 C 0.22477 0.90151 0.79785 0.0
C1297 C 0.25518 0.91972 0.79871 0.0
H1298 H 0.17791 0.89319 0.77248 0.0
C1299 C 0.25985 0.94667 0.77621 0.0
H1300 H 0.22079 0.88003 0.81425 0.0
C1301 C 0.2351 0.95437 0.75224 0.0
C1302 C 0.20558 0.93471 0.7499 0.0
H1303 H 0.28318 0.96098 0.77634 0.0
H1304 H 0.24015 0.97431 0.73421 0.0
C1305 C 0.20023 0.9089 0.77365 0.0
C1306 C 0.41429 0.29628 0.71798 0.0
C1307 C 0.43825 0.29004 0.74337 0.0
H1308 H 0.38685 0.27656 0.67614 0.0
C1309 C 0.45709 0.25991 0.74214 0.0
H1310 H 0.39955 0.31925 0.71802 0.0
C1311 C 0.45006 0.23541 0.7177 0.0
C1312 C 0.42449 0.24078 0.69375 0.0
H1313 H 0.47571 0.2542 0.76135 0.0
H1314 H 0.46362 0.21164 0.71844 0.0
C1315 C 0.40734 0.27185 0.69354 0.0
C1316 C 0.76116 0.03966 0.75179 0.0
C1317 C 0.79008 0.06015 0.74898 0.0
H1318 H 0.71385 0.03151 0.7769 0.0
C1319 C 0.79526 0.08586 0.77289 0.0
H1320 H 0.75624 0.01973 0.7337 0.0
C1321 C 0.7711 0.09234 0.79772 0.0
C1322 C 0.74123 0.0733 0.79908 0.0
H1323 H 0.81708 0.10218 0.7714 0.0
H1324 H 0.77487 0.1138 0.81423 0.0
C1325 C 0.73678 0.04644 0.77641 0.0
C1326 C 0.54106 0.73274 0.74295 0.0
C1327 C 0.56175 0.70395 0.7457 0.0
H1328 H 0.53278 0.7802 0.71818 0.0
C1329 C 0.58773 0.69915 0.72202 0.0
H1330 H 0.52093 0.73735 0.7609 0.0
C1331 C 0.59423 0.72355 0.69746 0.0
C1332 C 0.57496 0.7533 0.69619 0.0
H1333 H 0.60422 0.67741 0.72352 0.0
H1334 H 0.61582 0.72009 0.68107 0.0
C1335 C 0.54788 0.75738 0.71863 0.0
C1336 C 0.24176 0.23375 0.03896 0.0
C1337 C 0.24399 0.20424 0.05867 0.0
H1338 H 0.2177 0.2818 0.03215 0.0
C1339 C 0.22 0.19887 0.08424 0.0
H1340 H 0.25993 0.23883 0.01917 0.0
C1341 C 0.19575 0.22339 0.09146 0.0
C1342 C 0.19505 0.25382 0.07327 0.0
H1343 H 0.22101 0.17655 0.0999 0.0
H1344 H 0.17921 0.2194 0.11283 0.0
C1345 C 0.21772 0.25847 0.04646 0.0
C1346 C 0.2415 0.76042 0.95385 0.0
C1347 C 0.24543 0.78859 0.93252 0.0
H1348 H 0.21498 0.71405 0.96307 0.0
C1349 C 0.22247 0.79326 0.90587 0.0
H1350 H 0.25888 0.75589 0.97448 0.0
C1351 C 0.19732 0.76943 0.89955 0.0
C1352 C 0.19459 0.7404 0.91973 0.0
H1353 H 0.2249 0.81445 0.8888 0.0
H1354 H 0.18151 0.77279 0.87752 0.0
C1355 C 0.2165 0.73636 0.94728 0.0
C1356 C 0.26519 0.25772 0.54002 0.0
C1357 C 0.29286 0.25276 0.56179 0.0
H1358 H 0.21881 0.28431 0.53125 0.0
C1359 C 0.29698 0.27457 0.58953 0.0
H1360 H 0.26114 0.24135 0.51846 0.0
C1361 C 0.27288 0.29931 0.59658 0.0
C1362 C 0.24412 0.30265 0.57611 0.0
H1363 H 0.31778 0.27135 0.60695 0.0
H1364 H 0.2757 0.31418 0.61935 0.0
C1365 C 0.24084 0.28219 0.54736 0.0
C1366 C 0.79809 0.22415 0.90077 0.0
C1367 C 0.80023 0.25334 0.92082 0.0
H1368 H 0.77143 0.17851 0.89026 0.0
C1369 C 0.77844 0.25695 0.94851 0.0
H1370 H 0.81384 0.22108 0.87865 0.0
C1371 C 0.75402 0.23238 0.95527 0.0
C1372 C 0.75053 0.20409 0.93398 0.0
H1373 H 0.77954 0.27934 0.96423 0.0
H1374 H 0.73665 0.23663 0.97596 0.0
C1375 C 0.7735 0.19979 0.90728 0.0
C1376 C 0.7006 0.72177 0.58783 0.0
C1377 C 0.70468 0.74468 0.56105 0.0
H1378 H 0.72184 0.68111 0.61601 0.0
C1379 C 0.73255 0.74087 0.53928 0.0
H1380 H 0.67967 0.72411 0.60523 0.0
C1381 C 0.75691 0.71608 0.54557 0.0
C1382 C 0.75348 0.69426 0.57325 0.0
H1383 H 0.73663 0.7582 0.51852 0.0
H1384 H 0.77898 0.71467 0.52944 0.0
C1385 C 0.72473 0.69683 0.59386 0.0
C1386 C 0.77466 0.73575 0.04782 0.0
C1387 C 0.7974 0.74006 0.07463 0.0
H1388 H 0.73226 0.75565 0.021 0.0
C1389 C 0.7965 0.7701 0.09348 0.0
H1390 H 0.77482 0.7127 0.03304 0.0
C1391 C 0.77205 0.79458 0.08684 0.0
C1392 C 0.74807 0.78957 0.06118 0.0
H1393 H 0.81309 0.77378 0.11488 0.0
H1394 H 0.7709 0.81656 0.103 0.0
C1395 C 0.75043 0.76045 0.04088 0.0
C1396 C 0.23528 0.71812 0.44797 0.0
C1397 C 0.23912 0.69611 0.42047 0.0
H1398 H 0.25557 0.75989 0.47554 0.0
C1399 C 0.26866 0.69784 0.40092 0.0
H1400 H 0.21263 0.71735 0.46331 0.0
C1401 C 0.29315 0.72222 0.40772 0.0
C1402 C 0.28867 0.74541 0.43421 0.0
H1403 H 0.27195 0.68193 0.37895 0.0
H1404 H 0.3147 0.72396 0.39106 0.0
C1405 C 0.25999 0.74234 0.45502 0.0
C1406 C 0.69887 0.27245 0.40734 0.0
C1407 C 0.70391 0.24869 0.4332 0.0
H1408 H 0.71967 0.31326 0.37895 0.0
C1409 C 0.73302 0.25123 0.45347 0.0
H1410 H 0.67688 0.27113 0.39118 0.0
C1411 C 0.75772 0.27538 0.44631 0.0
C1412 C 0.7534 0.29787 0.4193 0.0
H1413 H 0.73782 0.23322 0.47349 0.0
H1414 H 0.78078 0.27566 0.46106 0.0
C1415 C 0.72335 0.29684 0.40049 0.0
loop_
_geom_bond_atom_site_label_1
_geom_bond_atom_site_label_2
_geom_bond_distance
_geom_bond_site_symmetry_2
_ccdc_geom_bond_type
Co0 O3 1.970 . S
Co0 N17 1.989 . S
Co0 O25 1.967 . S
Co0 O32 1.929 . S
Co1 O4 1.966 . S
Co1 N10 2.022 . S
Co1 N18 1.993 . S
Co1 O26 1.941 . S
C2 O3 1.258 . S
C2 O4 1.263 . S
O3 Co0 1.970 . S
O3 C2 1.258 . S
O4 Co1 1.966 . S
O4 C2 1.263 . S
C5 O6 1.235 . S
C5 O32 1.280 1_655 S
O6 C5 1.235 . S
C7 C9 1.400 . S
C7 N10 1.351 . S
C7 C12 1.501 . S
C8 C9 1.387 . S
C8 N11 1.341 . S
C9 C7 1.400 . S
C9 C8 1.387 . S
N10 Co1 2.022 . S
N10 C7 1.351 . S
N10 N11 1.365 . S
N11 C8 1.341 . S
N11 N10 1.365 . S
N11 H31 0.862 . S
C12 C7 1.501 . S
C12 H13 0.961 . S
C12 H14 0.961 . S
C12 H15 0.960 . S
H13 C12 0.961 . S
H14 C12 0.961 . S
H15 C12 0.960 . S
C16 N17 1.342 . S
C16 C20 1.401 . S
C16 C21 1.499 1_455 S
N17 Co0 1.989 . S
N17 C16 1.342 . S
N17 N18 1.388 . S
N18 Co1 1.993 . S
N18 N17 1.388 . S
N18 C19 1.346 . S
C19 N18 1.346 . S
C19 C20 1.396 . S
C19 C29 1.510 . S
C20 C16 1.401 . S
C20 C19 1.396 . S
C21 C16 1.499 1_655 S
C21 H22 0.959 . S
C21 H23 0.960 . S
C21 H24 0.961 . S
H22 C21 0.959 . S
H23 C21 0.960 . S
H24 C21 0.961 . S
O25 Co0 1.967 . S
O25 C33 1.258 . S
O26 Co1 1.941 . S
O26 C33 1.266 . S
H27 C29 0.959 . S
H28 C29 0.961 . S
C29 C19 1.510 . S
C29 H27 0.959 . S
C29 H28 0.961 . S
C29 H30 0.960 . S
H30 C29 0.960 . S
H31 N11 0.862 . S
O32 Co0 1.929 . S
O32 C5 1.280 1_455 S
C33 O25 1.258 . S
C33 O26 1.266 . S
Co34 O37 1.970 . S
Co34 N51 1.989 . S
Co34 O59 1.967 . S
Co34 O66 1.920 . S
Co35 O38 1.966 . S
Co35 N44 2.022 . S
Co35 N52 1.993 . S
Co35 O60 1.941 . S
C36 O37 1.258 . S
C36 O38 1.263 . S
O37 Co34 1.970 . S
O37 C36 1.258 . S
O38 Co35 1.966 . S
O38 C36 1.263 . S
C39 O40 1.235 . S
C39 O66 1.289 . S
O40 C39 1.235 . S
C41 C43 1.400 . S
C41 N44 1.351 . S
C41 C46 1.501 . S
C42 C43 1.387 . S
C42 N45 1.341 . S
C43 C41 1.400 . S
C43 C42 1.387 . S
N44 Co35 2.022 . S
N44 C41 1.351 . S
N44 N45 1.365 . S
N45 C42 1.341 . S
N45 N44 1.365 . S
N45 H65 0.862 . S
C46 C41 1.501 . S
C46 H47 0.961 . S
C46 H48 0.961 . S
C46 H49 0.960 . S
H47 C46 0.961 . S
H48 C46 0.961 . S
H49 C46 0.960 . S
C50 N51 1.342 . S
C50 C54 1.401 . S
C50 C55 1.499 . S
N51 Co34 1.989 . S
N51 C50 1.342 . S
N51 N52 1.388 . S
N52 Co35 1.993 . S
N52 N51 1.388 . S
N52 C53 1.346 . S
C53 N52 1.346 . S
C53 C54 1.396 . S
C53 C63 1.510 . S
C54 C50 1.401 . S
C54 C53 1.396 . S
C55 C50 1.499 . S
C55 H56 0.959 . S
C55 H57 0.960 . S
C55 H58 0.961 . S
H56 C55 0.959 . S
H57 C55 0.960 . S
H58 C55 0.961 . S
O59 Co34 1.967 . S
O59 C67 1.258 . S
O60 Co35 1.941 . S
O60 C67 1.266 . S
H61 C63 0.959 . S
H62 C63 0.961 . S
C63 C53 1.510 . S
C63 H61 0.959 . S
C63 H62 0.961 . S
C63 H64 0.960 . S
H64 C63 0.960 . S
H65 N45 0.862 . S
O66 Co34 1.920 . S
O66 C39 1.289 . S
C67 O59 1.258 . S
C67 O60 1.266 . S
Co68 O71 1.970 . S
Co68 N85 1.989 . S
Co68 O93 1.967 . S
Co68 O100 1.929 . S
Co69 O72 1.966 . S
Co69 N78 2.022 . S
Co69 N86 1.993 . S
Co69 O94 1.941 . S
C70 O71 1.258 . S
C70 O72 1.263 . S
O71 Co68 1.970 . S
O71 C70 1.258 . S
O72 Co69 1.966 . S
O72 C70 1.263 . S
C73 O74 1.235 . S
C73 O100 1.280 1_455 S
O74 C73 1.235 . S
C75 C77 1.400 . S
C75 N78 1.351 . S
C75 C80 1.501 . S
C76 C77 1.387 . S
C76 N79 1.341 . S
C77 C75 1.400 . S
C77 C76 1.387 . S
N78 Co69 2.022 . S
N78 C75 1.351 . S
N78 N79 1.365 . S
N79 C76 1.341 . S
N79 N78 1.365 . S
N79 H99 0.862 . S
C80 C75 1.501 . S
C80 H81 0.961 . S
C80 H82 0.961 . S
C80 H83 0.960 . S
H81 C80 0.961 . S
H82 C80 0.961 . S
H83 C80 0.960 . S
C84 N85 1.342 . S
C84 C88 1.401 . S
C84 C89 1.499 1_655 S
N85 Co68 1.989 . S
N85 C84 1.342 . S
N85 N86 1.388 . S
N86 Co69 1.993 . S
N86 N85 1.388 . S
N86 C87 1.346 . S
C87 N86 1.346 . S
C87 C88 1.396 . S
C87 C97 1.510 . S
C88 C84 1.401 . S
C88 C87 1.396 . S
C89 C84 1.499 1_455 S
C89 H90 0.959 . S
C89 H91 0.960 . S
C89 H92 0.961 . S
H90 C89 0.959 . S
H91 C89 0.960 . S
H92 C89 0.961 . S
O93 Co68 1.967 . S
O93 C101 1.258 . S
O94 Co69 1.941 . S
O94 C101 1.266 . S
H95 C97 0.959 . S
H96 C97 0.961 . S
C97 C87 1.510 . S
C97 H95 0.959 . S
C97 H96 0.961 . S
C97 H98 0.960 . S
H98 C97 0.960 . S
H99 N79 0.862 . S
O100 Co68 1.929 . S
O100 C73 1.280 1_655 S
C101 O93 1.258 . S
C101 O94 1.266 . S
Co102 O105 1.970 . S
Co102 N119 1.989 . S
Co102 O127 1.967 . S
Co102 O134 1.920 . S
Co103 O106 1.966 . S
Co103 N112 2.022 . S
Co103 N120 1.993 . S
Co103 O128 1.941 . S
C104 O105 1.258 . S
C104 O106 1.263 . S
O105 Co102 1.970 . S
O105 C104 1.258 . S
O106 Co103 1.966 . S
O106 C104 1.263 . S
C107 O108 1.235 . S
C107 O134 1.289 . S
O108 C107 1.235 . S
C109 C111 1.400 . S
C109 N112 1.351 . S
C109 C114 1.501 . S
C110 C111 1.387 . S
C110 N113 1.341 . S
C111 C109 1.400 . S
C111 C110 1.387 . S
N112 Co103 2.022 . S
N112 C109 1.351 . S
N112 N113 1.365 . S
N113 C110 1.341 . S
N113 N112 1.365 . S
N113 H133 0.862 . S
C114 C109 1.501 . S
C114 H115 0.961 . S
C114 H116 0.961 . S
C114 H117 0.960 . S
H115 C114 0.961 . S
H116 C114 0.961 . S
H117 C114 0.960 . S
C118 N119 1.342 . S
C118 C122 1.401 . S
C118 C123 1.499 . S
N119 Co102 1.989 . S
N119 C118 1.342 . S
N119 N120 1.388 . S
N120 Co103 1.993 . S
N120 N119 1.388 . S
N120 C121 1.346 . S
C121 N120 1.346 . S
C121 C122 1.396 . S
C121 C131 1.510 . S
C122 C118 1.401 . S
C122 C121 1.396 . S
C123 C118 1.499 . S
C123 H124 0.959 . S
C123 H125 0.960 . S
C123 H126 0.961 . S
H124 C123 0.959 . S
H125 C123 0.960 . S
H126 C123 0.961 . S
O127 Co102 1.967 . S
O127 C135 1.258 . S
O128 Co103 1.941 . S
O128 C135 1.266 . S
H129 C131 0.959 . S
H130 C131 0.961 . S
C131 C121 1.510 . S
C131 H129 0.959 . S
C131 H130 0.961 . S
C131 H132 0.960 . S
H132 C131 0.960 . S
H133 N113 0.862 . S
O134 Co102 1.920 . S
O134 C107 1.289 . S
C135 O127 1.258 . S
C135 O128 1.266 . S
Co136 O139 1.970 . S
Co136 N153 1.989 . S
Co136 O161 1.967 . S
Co136 O168 1.929 . S
Co137 O140 1.966 . S
Co137 N146 2.022 . S
Co137 N154 1.993 . S
Co137 O162 1.941 . S
C138 O139 1.258 . S
C138 O140 1.263 . S
O139 Co136 1.970 . S
O139 C138 1.258 . S
O140 Co137 1.966 . S
O140 C138 1.263 . S
C141 O142 1.235 . S
C141 O168 1.280 1_655 S
O142 C141 1.235 . S
C143 C145 1.400 . S
C143 N146 1.351 . S
C143 C148 1.501 . S
C144 C145 1.387 . S
C144 N147 1.341 . S
C145 C143 1.400 . S
C145 C144 1.387 . S
N146 Co137 2.022 . S
N146 C143 1.351 . S
N146 N147 1.365 . S
N147 C144 1.341 . S
N147 N146 1.365 . S
N147 H167 0.862 . S
C148 C143 1.501 . S
C148 H149 0.961 . S
C148 H150 0.961 . S
C148 H151 0.960 . S
H149 C148 0.961 . S
H150 C148 0.961 . S
H151 C148 0.960 . S
C152 N153 1.342 . S
C152 C156 1.401 . S
C152 C157 1.499 1_455 S
N153 Co136 1.989 . S
N153 C152 1.342 . S
N153 N154 1.388 . S
N154 Co137 1.993 . S
N154 N153 1.388 . S
N154 C155 1.346 . S
C155 N154 1.346 . S
C155 C156 1.396 . S
C155 C165 1.510 . S
C156 C152 1.401 . S
C156 C155 1.396 . S
C157 C152 1.499 1_655 S
C157 H158 0.959 . S
C157 H159 0.960 . S
C157 H160 0.961 . S
H158 C157 0.959 . S
H159 C157 0.960 . S
H160 C157 0.961 . S
O161 Co136 1.967 . S
O161 C169 1.258 . S
O162 Co137 1.941 . S
O162 C169 1.266 . S
H163 C165 0.959 . S
H164 C165 0.961 . S
C165 C155 1.510 . S
C165 H163 0.959 . S
C165 H164 0.961 . S
C165 H166 0.960 . S
H166 C165 0.960 . S
H167 N147 0.862 . S
O168 Co136 1.929 . S
O168 C141 1.280 1_455 S
C169 O161 1.258 . S
C169 O162 1.266 . S
Co170 O173 1.970 . S
Co170 N187 1.989 . S
Co170 O195 1.967 . S
Co170 O202 1.920 . S
Co171 O174 1.966 . S
Co171 N180 2.022 . S
Co171 N188 1.993 . S
Co171 O196 1.941 . S
C172 O173 1.258 . S
C172 O174 1.263 . S
O173 Co170 1.970 . S
O173 C172 1.258 . S
O174 Co171 1.966 . S
O174 C172 1.263 . S
C175 O176 1.235 . S
C175 O202 1.289 . S
O176 C175 1.235 . S
C177 C179 1.400 . S
C177 N180 1.351 . S
C177 C182 1.501 . S
C178 C179 1.387 . S
C178 N181 1.341 . S
C179 C177 1.400 . S
C179 C178 1.387 . S
N180 Co171 2.022 . S
N180 C177 1.351 . S
N180 N181 1.365 . S
N181 C178 1.341 . S
N181 N180 1.365 . S
N181 H201 0.862 . S
C182 C177 1.501 . S
C182 H183 0.961 . S
C182 H184 0.961 . S
C182 H185 0.960 . S
H183 C182 0.961 . S
H184 C182 0.961 . S
H185 C182 0.960 . S
C186 N187 1.342 . S
C186 C190 1.401 . S
C186 C191 1.499 . S
N187 Co170 1.989 . S
N187 C186 1.342 . S
N187 N188 1.388 . S
N188 Co171 1.993 . S
N188 N187 1.388 . S
N188 C189 1.346 . S
C189 N188 1.346 . S
C189 C190 1.396 . S
C189 C199 1.510 . S
C190 C186 1.401 . S
C190 C189 1.396 . S
C191 C186 1.499 . S
C191 H192 0.959 . S
C191 H193 0.960 . S
C191 H194 0.961 . S
H192 C191 0.959 . S
H193 C191 0.960 . S
H194 C191 0.961 . S
O195 Co170 1.967 . S
O195 C203 1.258 . S
O196 Co171 1.941 . S
O196 C203 1.266 . S
H197 C199 0.959 . S
H198 C199 0.961 . S
C199 C189 1.510 . S
C199 H197 0.959 . S
C199 H198 0.961 . S
C199 H200 0.960 . S
H200 C199 0.960 . S
H201 N181 0.862 . S
O202 Co170 1.920 . S
O202 C175 1.289 . S
C203 O195 1.258 . S
C203 O196 1.266 . S
Co204 O207 1.970 . S
Co204 N221 1.989 . S
Co204 O229 1.967 . S
Co204 O236 1.929 . S
Co205 O208 1.966 . S
Co205 N214 2.022 . S
Co205 N222 1.993 . S
Co205 O230 1.941 . S
C206 O207 1.258 . S
C206 O208 1.263 . S
O207 Co204 1.970 . S
O207 C206 1.258 . S
O208 Co205 1.966 . S
O208 C206 1.263 . S
C209 O210 1.235 . S
C209 O236 1.280 1_455 S
O210 C209 1.235 . S
C211 C213 1.400 . S
C211 N214 1.351 . S
C211 C216 1.501 . S
C212 C213 1.387 . S
C212 N215 1.341 . S
C213 C211 1.400 . S
C213 C212 1.387 . S
N214 Co205 2.022 . S
N214 C211 1.351 . S
N214 N215 1.365 . S
N215 C212 1.341 . S
N215 N214 1.365 . S
N215 H235 0.862 . S
C216 C211 1.501 . S
C216 H217 0.961 . S
C216 H218 0.961 . S
C216 H219 0.960 . S
H217 C216 0.961 . S
H218 C216 0.961 . S
H219 C216 0.960 . S
C220 N221 1.342 . S
C220 C224 1.401 . S
C220 C225 1.499 1_655 S
N221 Co204 1.989 . S
N221 C220 1.342 . S
N221 N222 1.388 . S
N222 Co205 1.993 . S
N222 N221 1.388 . S
N222 C223 1.346 . S
C223 N222 1.346 . S
C223 C224 1.396 . S
C223 C233 1.510 . S
C224 C220 1.401 . S
C224 C223 1.396 . S
C225 C220 1.499 1_455 S
C225 H226 0.959 . S
C225 H227 0.960 . S
C225 H228 0.961 . S
H226 C225 0.959 . S
H227 C225 0.960 . S
H228 C225 0.961 . S
O229 Co204 1.967 . S
O229 C237 1.258 . S
O230 Co205 1.941 . S
O230 C237 1.266 . S
H231 C233 0.959 . S
H232 C233 0.961 . S
C233 C223 1.510 . S
C233 H231 0.959 . S
C233 H232 0.961 . S
C233 H234 0.960 . S
H234 C233 0.960 . S
H235 N215 0.862 . S
O236 Co204 1.929 . S
O236 C209 1.280 1_655 S
C237 O229 1.258 . S
C237 O230 1.266 . S
Co238 O241 1.970 . S
Co238 N255 1.989 . S
Co238 O263 1.967 . S
Co238 O270 1.920 . S
Co239 O242 1.966 . S
Co239 N248 2.022 . S
Co239 N256 1.993 . S
Co239 O264 1.941 . S
C240 O241 1.258 . S
C240 O242 1.263 . S
O241 Co238 1.970 . S
O241 C240 1.258 . S
O242 Co239 1.966 . S
O242 C240 1.263 . S
C243 O244 1.235 . S
C243 O270 1.289 . S
O244 C243 1.235 . S
C245 C247 1.400 . S
C245 N248 1.351 . S
C245 C250 1.501 . S
C246 C247 1.387 . S
C246 N249 1.341 . S
C247 C245 1.400 . S
C247 C246 1.387 . S
N248 Co239 2.022 . S
N248 C245 1.351 . S
N248 N249 1.365 . S
N249 C246 1.341 . S
N249 N248 1.365 . S
N249 H269 0.862 . S
C250 C245 1.501 . S
C250 H251 0.961 . S
C250 H252 0.961 . S
C250 H253 0.960 . S
H251 C250 0.961 . S
H252 C250 0.961 . S
H253 C250 0.960 . S
C254 N255 1.342 . S
C254 C258 1.401 . S
C254 C259 1.499 . S
N255 Co238 1.989 . S
N255 C254 1.342 . S
N255 N256 1.388 . S
N256 Co239 1.993 . S
N256 N255 1.388 . S
N256 C257 1.346 . S
C257 N256 1.346 . S
C257 C258 1.396 . S
C257 C267 1.510 . S
C258 C254 1.401 . S
C258 C257 1.396 . S
C259 C254 1.499 . S
C259 H260 0.959 . S
C259 H261 0.960 . S
C259 H262 0.961 . S
H260 C259 0.959 . S
H261 C259 0.960 . S
H262 C259 0.961 . S
O263 Co238 1.967 . S
O263 C271 1.258 . S
O264 Co239 1.941 . S
O264 C271 1.266 . S
H265 C267 0.959 . S
H266 C267 0.961 . S
C267 C257 1.510 . S
C267 H265 0.959 . S
C267 H266 0.961 . S
C267 H268 0.960 . S
H268 C267 0.960 . S
H269 N249 0.862 . S
O270 Co238 1.920 . S
O270 C243 1.289 . S
C271 O263 1.258 . S
C271 O264 1.266 . S
Co272 O275 1.970 . S
Co272 N289 1.989 . S
Co272 O297 1.967 . S
Co272 O304 1.929 . S
Co273 O276 1.966 . S
Co273 N282 2.022 . S
Co273 N290 1.993 . S
Co273 O298 1.941 . S
C274 O275 1.258 . S
C274 O276 1.263 . S
O275 Co272 1.970 . S
O275 C274 1.258 . S
O276 Co273 1.966 . S
O276 C274 1.263 . S
C277 O278 1.235 . S
C277 O304 1.280 1_565 S
O278 C277 1.235 . S
C279 C281 1.400 . S
C279 N282 1.351 . S
C279 C284 1.501 . S
C280 C281 1.387 . S
C280 N283 1.341 . S
C281 C279 1.400 . S
C281 C280 1.387 . S
N282 Co273 2.022 . S
N282 C279 1.351 . S
N282 N283 1.365 . S
N283 C280 1.341 . S
N283 N282 1.365 . S
N283 H303 0.862 . S
C284 C279 1.501 . S
C284 H285 0.961 . S
C284 H286 0.961 . S
C284 H287 0.960 . S
H285 C284 0.961 . S
H286 C284 0.961 . S
H287 C284 0.960 . S
C288 N289 1.342 . S
C288 C292 1.401 . S
C288 C293 1.499 1_545 S
N289 Co272 1.989 . S
N289 C288 1.342 . S
N289 N290 1.388 . S
N290 Co273 1.993 . S
N290 N289 1.388 . S
N290 C291 1.346 . S
C291 N290 1.346 . S
C291 C292 1.396 . S
C291 C301 1.510 . S
C292 C288 1.401 . S
C292 C291 1.396 . S
C293 C288 1.499 1_565 S
C293 H294 0.959 . S
C293 H295 0.960 . S
C293 H296 0.961 . S
H294 C293 0.959 . S
H295 C293 0.960 . S
H296 C293 0.961 . S
O297 Co272 1.967 . S
O297 C305 1.258 . S
O298 Co273 1.941 . S
O298 C305 1.266 . S
H299 C301 0.959 . S
H300 C301 0.961 . S
C301 C291 1.510 . S
C301 H299 0.959 . S
C301 H300 0.961 . S
C301 H302 0.960 . S
H302 C301 0.960 . S
H303 N283 0.862 . S
O304 Co272 1.929 . S
O304 C277 1.280 1_545 S
C305 O297 1.258 . S
C305 O298 1.266 . S
Co306 O309 1.970 . S
Co306 N323 1.989 . S
Co306 O331 1.967 . S
Co306 O338 1.920 . S
Co307 O310 1.966 . S
Co307 N316 2.022 . S
Co307 N324 1.993 . S
Co307 O332 1.941 . S
C308 O309 1.258 . S
C308 O310 1.263 . S
O309 Co306 1.970 . S
O309 C308 1.258 . S
O310 Co307 1.966 . S
O310 C308 1.263 . S
C311 O312 1.235 . S
C311 O338 1.289 . S
O312 C311 1.235 . S
C313 C315 1.400 . S
C313 N316 1.351 . S
C313 C318 1.501 . S
C314 C315 1.387 . S
C314 N317 1.341 . S
C315 C313 1.400 . S
C315 C314 1.387 . S
N316 Co307 2.022 . S
N316 C313 1.351 . S
N316 N317 1.365 . S
N317 C314 1.341 . S
N317 N316 1.365 . S
N317 H337 0.862 . S
C318 C313 1.501 . S
C318 H319 0.961 . S
C318 H320 0.961 . S
C318 H321 0.960 . S
H319 C318 0.961 . S
H320 C318 0.961 . S
H321 C318 0.960 . S
C322 N323 1.342 . S
C322 C326 1.401 . S
C322 C327 1.499 . S
N323 Co306 1.989 . S
N323 C322 1.342 . S
N323 N324 1.388 . S
N324 Co307 1.993 . S
N324 N323 1.388 . S
N324 C325 1.346 . S
C325 N324 1.346 . S
C325 C326 1.396 . S
C325 C335 1.510 . S
C326 C322 1.401 . S
C326 C325 1.396 . S
C327 C322 1.499 . S
C327 H328 0.959 . S
C327 H329 0.960 . S
C327 H330 0.961 . S
H328 C327 0.959 . S
H329 C327 0.960 . S
H330 C327 0.961 . S
O331 Co306 1.967 . S
O331 C339 1.258 . S
O332 Co307 1.941 . S
O332 C339 1.266 . S
H333 C335 0.959 . S
H334 C335 0.961 . S
C335 C325 1.510 . S
C335 H333 0.959 . S
C335 H334 0.961 . S
C335 H336 0.960 . S
H336 C335 0.960 . S
H337 N317 0.862 . S
O338 Co306 1.920 . S
O338 C311 1.289 . S
C339 O331 1.258 . S
C339 O332 1.266 . S
Co340 O343 1.970 . S
Co340 N357 1.989 . S
Co340 O365 1.967 . S
Co340 O372 1.929 . S
Co341 O344 1.966 . S
Co341 N350 2.022 . S
Co341 N358 1.993 . S
Co341 O366 1.941 . S
C342 O343 1.258 . S
C342 O344 1.263 . S
O343 Co340 1.970 . S
O343 C342 1.258 . S
O344 Co341 1.966 . S
O344 C342 1.263 . S
C345 O346 1.235 . S
C345 O372 1.280 1_545 S
O346 C345 1.235 . S
C347 C349 1.400 . S
C347 N350 1.351 . S
C347 C352 1.501 . S
C348 C349 1.387 . S
C348 N351 1.341 . S
C349 C347 1.400 . S
C349 C348 1.387 . S
N350 Co341 2.022 . S
N350 C347 1.351 . S
N350 N351 1.365 . S
N351 C348 1.341 . S
N351 N350 1.365 . S
N351 H371 0.862 . S
C352 C347 1.501 . S
C352 H353 0.961 . S
C352 H354 0.961 . S
C352 H355 0.960 . S
H353 C352 0.961 . S
H354 C352 0.961 . S
H355 C352 0.960 . S
C356 N357 1.342 . S
C356 C360 1.401 . S
C356 C361 1.499 1_565 S
N357 Co340 1.989 . S
N357 C356 1.342 . S
N357 N358 1.388 . S
N358 Co341 1.993 . S
N358 N357 1.388 . S
N358 C359 1.346 . S
C359 N358 1.346 . S
C359 C360 1.396 . S
C359 C369 1.510 . S
C360 C356 1.401 . S
C360 C359 1.396 . S
C361 C356 1.499 1_545 S
C361 H362 0.959 . S
C361 H363 0.960 . S
C361 H364 0.961 . S
H362 C361 0.959 . S
H363 C361 0.960 . S
H364 C361 0.961 . S
O365 Co340 1.967 . S
O365 C373 1.258 . S
O366 Co341 1.941 . S
O366 C373 1.266 . S
H367 C369 0.959 . S
H368 C369 0.961 . S
C369 C359 1.510 . S
C369 H367 0.959 . S
C369 H368 0.961 . S
C369 H370 0.960 . S
H370 C369 0.960 . S
H371 N351 0.862 . S
O372 Co340 1.929 . S
O372 C345 1.280 1_565 S
C373 O365 1.258 . S
C373 O366 1.266 . S
Co374 O377 1.970 . S
Co374 N391 1.989 . S
Co374 O399 1.967 . S
Co374 O406 1.920 . S
Co375 O378 1.966 . S
Co375 N384 2.022 . S
Co375 N392 1.993 . S
Co375 O400 1.941 . S
C376 O377 1.258 . S
C376 O378 1.263 . S
O377 Co374 1.970 . S
O377 C376 1.258 . S
O378 Co375 1.966 . S
O378 C376 1.263 . S
C379 O380 1.235 . S
C379 O406 1.289 . S
O380 C379 1.235 . S
C381 C383 1.400 . S
C381 N384 1.351 . S
C381 C386 1.501 . S
C382 C383 1.387 . S
C382 N385 1.341 . S
C383 C381 1.400 . S
C383 C382 1.387 . S
N384 Co375 2.022 . S
N384 C381 1.351 . S
N384 N385 1.365 . S
N385 C382 1.341 . S
N385 N384 1.365 . S
N385 H405 0.862 . S
C386 C381 1.501 . S
C386 H387 0.961 . S
C386 H388 0.961 . S
C386 H389 0.960 . S
H387 C386 0.961 . S
H388 C386 0.961 . S
H389 C386 0.960 . S
C390 N391 1.342 . S
C390 C394 1.401 . S
C390 C395 1.499 . S
N391 Co374 1.989 . S
N391 C390 1.342 . S
N391 N392 1.388 . S
N392 Co375 1.993 . S
N392 N391 1.388 . S
N392 C393 1.346 . S
C393 N392 1.346 . S
C393 C394 1.396 . S
C393 C403 1.510 . S
C394 C390 1.401 . S
C394 C393 1.396 . S
C395 C390 1.499 . S
C395 H396 0.959 . S
C395 H397 0.960 . S
C395 H398 0.961 . S
H396 C395 0.959 . S
H397 C395 0.960 . S
H398 C395 0.961 . S
O399 Co374 1.967 . S
O399 C407 1.258 . S
O400 Co375 1.941 . S
O400 C407 1.266 . S
H401 C403 0.959 . S
H402 C403 0.961 . S
C403 C393 1.510 . S
C403 H401 0.959 . S
C403 H402 0.961 . S
C403 H404 0.960 . S
H404 C403 0.960 . S
H405 N385 0.862 . S
O406 Co374 1.920 . S
O406 C379 1.289 . S
C407 O399 1.258 . S
C407 O400 1.266 . S
Co408 O411 1.970 . S
Co408 N425 1.989 . S
Co408 O433 1.967 . S
Co408 O440 1.929 . S
Co409 O412 1.966 . S
Co409 N418 2.022 . S
Co409 N426 1.993 . S
Co409 O434 1.941 . S
C410 O411 1.258 . S
C410 O412 1.263 . S
O411 Co408 1.970 . S
O411 C410 1.258 . S
O412 Co409 1.966 . S
O412 C410 1.263 . S
C413 O414 1.235 . S
C413 O440 1.280 1_545 S
O414 C413 1.235 . S
C415 C417 1.400 . S
C415 N418 1.351 . S
C415 C420 1.501 . S
C416 C417 1.387 . S
C416 N419 1.341 . S
C417 C415 1.400 . S
C417 C416 1.387 . S
N418 Co409 2.022 . S
N418 C415 1.351 . S
N418 N419 1.365 . S
N419 C416 1.341 . S
N419 N418 1.365 . S
N419 H439 0.862 . S
C420 C415 1.501 . S
C420 H421 0.961 . S
C420 H422 0.961 . S
C420 H423 0.960 . S
H421 C420 0.961 . S
H422 C420 0.961 . S
H423 C420 0.960 . S
C424 N425 1.342 . S
C424 C428 1.401 . S
C424 C429 1.499 1_565 S
N425 Co408 1.989 . S
N425 C424 1.342 . S
N425 N426 1.388 . S
N426 Co409 1.993 . S
N426 N425 1.388 . S
N426 C427 1.346 . S
C427 N426 1.346 . S
C427 C428 1.396 . S
C427 C437 1.510 . S
C428 C424 1.401 . S
C428 C427 1.396 . S
C429 C424 1.499 1_545 S
C429 H430 0.959 . S
C429 H431 0.960 . S
C429 H432 0.961 . S
H430 C429 0.959 . S
H431 C429 0.960 . S
H432 C429 0.961 . S
O433 Co408 1.967 . S
O433 C441 1.258 . S
O434 Co409 1.941 . S
O434 C441 1.266 . S
H435 C437 0.959 . S
H436 C437 0.961 . S
C437 C427 1.510 . S
C437 H435 0.959 . S
C437 H436 0.961 . S
C437 H438 0.960 . S
H438 C437 0.960 . S
H439 N419 0.862 . S
O440 Co408 1.929 . S
O440 C413 1.280 1_565 S
C441 O433 1.258 . S
C441 O434 1.266 . S
Co442 O445 1.970 . S
Co442 N459 1.989 . S
Co442 O467 1.967 . S
Co442 O474 1.920 . S
Co443 O446 1.966 . S
Co443 N452 2.022 . S
Co443 N460 1.993 . S
Co443 O468 1.941 . S
C444 O445 1.258 . S
C444 O446 1.263 . S
O445 Co442 1.970 . S
O445 C444 1.258 . S
O446 Co443 1.966 . S
O446 C444 1.263 . S
C447 O448 1.235 . S
C447 O474 1.289 . S
O448 C447 1.235 . S
C449 C451 1.400 . S
C449 N452 1.351 . S
C449 C454 1.501 . S
C450 C451 1.387 . S
C450 N453 1.341 . S
C451 C449 1.400 . S
C451 C450 1.387 . S
N452 Co443 2.022 . S
N452 C449 1.351 . S
N452 N453 1.365 . S
N453 C450 1.341 . S
N453 N452 1.365 . S
N453 H473 0.862 . S
C454 C449 1.501 . S
C454 H455 0.961 . S
C454 H456 0.961 . S
C454 H457 0.960 . S
H455 C454 0.961 . S
H456 C454 0.961 . S
H457 C454 0.960 . S
C458 N459 1.342 . S
C458 C462 1.401 . S
C458 C463 1.499 . S
N459 Co442 1.989 . S
N459 C458 1.342 . S
N459 N460 1.388 . S
N460 Co443 1.993 . S
N460 N459 1.388 . S
N460 C461 1.346 . S
C461 N460 1.346 . S
C461 C462 1.396 . S
C461 C471 1.510 . S
C462 C458 1.401 . S
C462 C461 1.396 . S
C463 C458 1.499 . S
C463 H464 0.959 . S
C463 H465 0.960 . S
C463 H466 0.961 . S
H464 C463 0.959 . S
H465 C463 0.960 . S
H466 C463 0.961 . S
O467 Co442 1.967 . S
O467 C475 1.258 . S
O468 Co443 1.941 . S
O468 C475 1.266 . S
H469 C471 0.959 . S
H470 C471 0.961 . S
C471 C461 1.510 . S
C471 H469 0.959 . S
C471 H470 0.961 . S
C471 H472 0.960 . S
H472 C471 0.960 . S
H473 N453 0.862 . S
O474 Co442 1.920 . S
O474 C447 1.289 . S
C475 O467 1.258 . S
C475 O468 1.266 . S
Co476 O479 1.970 . S
Co476 N493 1.989 . S
Co476 O501 1.967 . S
Co476 O508 1.929 . S
Co477 O480 1.966 . S
Co477 N486 2.022 . S
Co477 N494 1.993 . S
Co477 O502 1.941 . S
C478 O479 1.258 . S
C478 O480 1.263 . S
O479 Co476 1.970 . S
O479 C478 1.258 . S
O480 Co477 1.966 . S
O480 C478 1.263 . S
C481 O482 1.235 . S
C481 O508 1.280 1_565 S
O482 C481 1.235 . S
C483 C485 1.400 . S
C483 N486 1.351 . S
C483 C488 1.501 . S
C484 C485 1.387 . S
C484 N487 1.341 . S
C485 C483 1.400 . S
C485 C484 1.387 . S
N486 Co477 2.022 . S
N486 C483 1.351 . S
N486 N487 1.365 . S
N487 C484 1.341 . S
N487 N486 1.365 . S
N487 H507 0.862 . S
C488 C483 1.501 . S
C488 H489 0.961 . S
C488 H490 0.961 . S
C488 H491 0.960 . S
H489 C488 0.961 . S
H490 C488 0.961 . S
H491 C488 0.960 . S
C492 N493 1.342 . S
C492 C496 1.401 . S
C492 C497 1.499 1_545 S
N493 Co476 1.989 . S
N493 C492 1.342 . S
N493 N494 1.388 . S
N494 Co477 1.993 . S
N494 N493 1.388 . S
N494 C495 1.346 . S
C495 N494 1.346 . S
C495 C496 1.396 . S
C495 C505 1.510 . S
C496 C492 1.401 . S
C496 C495 1.396 . S
C497 C492 1.499 1_565 S
C497 H498 0.959 . S
C497 H499 0.960 . S
C497 H500 0.961 . S
H498 C497 0.959 . S
H499 C497 0.960 . S
H500 C497 0.961 . S
O501 Co476 1.967 . S
O501 C509 1.258 . S
O502 Co477 1.941 . S
O502 C509 1.266 . S
H503 C505 0.959 . S
H504 C505 0.961 . S
C505 C495 1.510 . S
C505 H503 0.959 . S
C505 H504 0.961 . S
C505 H506 0.960 . S
H506 C505 0.960 . S
H507 N487 0.862 . S
O508 Co476 1.929 . S
O508 C481 1.280 1_545 S
C509 O501 1.258 . S
C509 O502 1.266 . S
Co510 O513 1.970 . S
Co510 N527 1.989 . S
Co510 O535 1.967 . S
Co510 O542 1.920 . S
Co511 O514 1.966 . S
Co511 N520 2.022 . S
Co511 N528 1.993 . S
Co511 O536 1.941 . S
C512 O513 1.258 . S
C512 O514 1.263 . S
O513 Co510 1.970 . S
O513 C512 1.258 . S
O514 Co511 1.966 . S
O514 C512 1.263 . S
C515 O516 1.235 . S
C515 O542 1.289 . S
O516 C515 1.235 . S
C517 C519 1.400 . S
C517 N520 1.351 . S
C517 C522 1.501 . S
C518 C519 1.387 . S
C518 N521 1.341 . S
C519 C517 1.400 . S
C519 C518 1.387 . S
N520 Co511 2.022 . S
N520 C517 1.351 . S
N520 N521 1.365 . S
N521 C518 1.341 . S
N521 N520 1.365 . S
N521 H541 0.862 . S
C522 C517 1.501 . S
C522 H523 0.961 . S
C522 H524 0.961 . S
C522 H525 0.960 . S
H523 C522 0.961 . S
H524 C522 0.961 . S
H525 C522 0.960 . S
C526 N527 1.342 . S
C526 C530 1.401 . S
C526 C531 1.499 . S
N527 Co510 1.989 . S
N527 C526 1.342 . S
N527 N528 1.388 . S
N528 Co511 1.993 . S
N528 N527 1.388 . S
N528 C529 1.346 . S
C529 N528 1.346 . S
C529 C530 1.396 . S
C529 C539 1.510 . S
C530 C526 1.401 . S
C530 C529 1.396 . S
C531 C526 1.499 . S
C531 H532 0.959 . S
C531 H533 0.960 . S
C531 H534 0.961 . S
H532 C531 0.959 . S
H533 C531 0.960 . S
H534 C531 0.961 . S
O535 Co510 1.967 . S
O535 C543 1.258 . S
O536 Co511 1.941 . S
O536 C543 1.266 . S
H537 C539 0.959 . S
H538 C539 0.961 . S
C539 C529 1.510 . S
C539 H537 0.959 . S
C539 H538 0.961 . S
C539 H540 0.960 . S
H540 C539 0.960 . S
H541 N521 0.862 . S
O542 Co510 1.920 . S
O542 C515 1.289 . S
C543 O535 1.258 . S
C543 O536 1.266 . S
Co544 O547 1.970 . S
Co544 N561 1.989 . S
Co544 O569 1.967 . S
Co544 O576 1.929 . S
Co545 O548 1.966 . S
Co545 N554 2.022 . S
Co545 N562 1.993 . S
Co545 O570 1.941 . S
C546 O547 1.258 . S
C546 O548 1.263 . S
O547 Co544 1.970 . S
O547 C546 1.258 . S
O548 Co545 1.966 . S
O548 C546 1.263 . S
C549 O550 1.235 . S
C549 O576 1.280 1_556 S
O550 C549 1.235 . S
C551 C553 1.400 . S
C551 N554 1.351 . S
C551 C556 1.501 . S
C552 C553 1.387 . S
C552 N555 1.341 . S
C553 C551 1.400 . S
C553 C552 1.387 . S
N554 Co545 2.022 . S
N554 C551 1.351 . S
N554 N555 1.365 . S
N555 C552 1.341 . S
N555 N554 1.365 . S
N555 H575 0.862 . S
C556 C551 1.501 . S
C556 H557 0.961 . S
C556 H558 0.961 . S
C556 H559 0.960 . S
H557 C556 0.961 . S
H558 C556 0.961 . S
H559 C556 0.960 . S
C560 N561 1.342 . S
C560 C564 1.401 . S
C560 C565 1.499 1_554 S
N561 Co544 1.989 . S
N561 C560 1.342 . S
N561 N562 1.388 . S
N562 Co545 1.993 . S
N562 N561 1.388 . S
N562 C563 1.346 . S
C563 N562 1.346 . S
C563 C564 1.396 . S
C563 C573 1.510 . S
C564 C560 1.401 . S
C564 C563 1.396 . S
C565 C560 1.499 1_556 S
C565 H566 0.959 . S
C565 H567 0.960 . S
C565 H568 0.961 . S
H566 C565 0.959 . S
H567 C565 0.960 . S
H568 C565 0.961 . S
O569 Co544 1.967 . S
O569 C577 1.258 . S
O570 Co545 1.941 . S
O570 C577 1.266 . S
H571 C573 0.959 . S
H572 C573 0.961 . S
C573 C563 1.510 . S
C573 H571 0.959 . S
C573 H572 0.961 . S
C573 H574 0.960 . S
H574 C573 0.960 . S
H575 N555 0.862 . S
O576 Co544 1.929 . S
O576 C549 1.280 1_554 S
C577 O569 1.258 . S
C577 O570 1.266 . S
Co578 O581 1.970 . S
Co578 N595 1.989 . S
Co578 O603 1.967 . S
Co578 O610 1.929 . S
Co579 O582 1.966 . S
Co579 N588 2.022 . S
Co579 N596 1.993 . S
Co579 O604 1.941 . S
C580 O581 1.258 . S
C580 O582 1.263 . S
O581 Co578 1.970 . S
O581 C580 1.258 . S
O582 Co579 1.966 . S
O582 C580 1.263 . S
C583 O584 1.235 . S
C583 O610 1.280 1_554 S
O584 C583 1.235 . S
C585 C587 1.400 . S
C585 N588 1.351 . S
C585 C590 1.501 . S
C586 C587 1.387 . S
C586 N589 1.341 . S
C587 C585 1.400 . S
C587 C586 1.387 . S
N588 Co579 2.022 . S
N588 C585 1.351 . S
N588 N589 1.365 . S
N589 C586 1.341 . S
N589 N588 1.365 . S
N589 H609 0.862 . S
C590 C585 1.501 . S
C590 H591 0.961 . S
C590 H592 0.961 . S
C590 H593 0.960 . S
H591 C590 0.961 . S
H592 C590 0.961 . S
H593 C590 0.960 . S
C594 N595 1.342 . S
C594 C598 1.401 . S
C594 C599 1.499 1_556 S
N595 Co578 1.989 . S
N595 C594 1.342 . S
N595 N596 1.388 . S
N596 Co579 1.993 . S
N596 N595 1.388 . S
N596 C597 1.346 . S
C597 N596 1.346 . S
C597 C598 1.396 . S
C597 C607 1.510 . S
C598 C594 1.401 . S
C598 C597 1.396 . S
C599 C594 1.499 1_554 S
C599 H600 0.959 . S
C599 H601 0.960 . S
C599 H602 0.961 . S
H600 C599 0.959 . S
H601 C599 0.960 . S
H602 C599 0.961 . S
O603 Co578 1.967 . S
O603 C611 1.258 . S
O604 Co579 1.941 . S
O604 C611 1.266 . S
H605 C607 0.959 . S
H606 C607 0.961 . S
C607 C597 1.510 . S
C607 H605 0.959 . S
C607 H606 0.961 . S
C607 H608 0.960 . S
H608 C607 0.960 . S
H609 N589 0.862 . S
O610 Co578 1.929 . S
O610 C583 1.280 1_556 S
C611 O603 1.258 . S
C611 O604 1.266 . S
Co612 O615 1.970 . S
Co612 N629 1.989 . S
Co612 O637 1.967 . S
Co612 O644 1.920 . S
Co613 O616 1.966 . S
Co613 N622 2.022 . S
Co613 N630 1.993 . S
Co613 O638 1.941 . S
C614 O615 1.258 . S
C614 O616 1.263 . S
O615 Co612 1.970 . S
O615 C614 1.258 . S
O616 Co613 1.966 . S
O616 C614 1.263 . S
C617 O618 1.235 . S
C617 O644 1.289 . S
O618 C617 1.235 . S
C619 C621 1.400 . S
C619 N622 1.351 . S
C619 C624 1.501 . S
C620 C621 1.387 . S
C620 N623 1.341 . S
C621 C619 1.400 . S
C621 C620 1.387 . S
N622 Co613 2.022 . S
N622 C619 1.351 . S
N622 N623 1.365 . S
N623 C620 1.341 . S
N623 N622 1.365 . S
N623 H643 0.862 . S
C624 C619 1.501 . S
C624 H625 0.961 . S
C624 H626 0.961 . S
C624 H627 0.960 . S
H625 C624 0.961 . S
H626 C624 0.961 . S
H627 C624 0.960 . S
C628 N629 1.342 . S
C628 C632 1.401 . S
C628 C633 1.499 . S
N629 Co612 1.989 . S
N629 C628 1.342 . S
N629 N630 1.388 . S
N630 Co613 1.993 . S
N630 N629 1.388 . S
N630 C631 1.346 . S
C631 N630 1.346 . S
C631 C632 1.396 . S
C631 C641 1.510 . S
C632 C628 1.401 . S
C632 C631 1.396 . S
C633 C628 1.499 . S
C633 H634 0.959 . S
C633 H635 0.960 . S
C633 H636 0.961 . S
H634 C633 0.959 . S
H635 C633 0.960 . S
H636 C633 0.961 . S
O637 Co612 1.967 . S
O637 C645 1.258 . S
O638 Co613 1.941 . S
O638 C645 1.266 . S
H639 C641 0.959 . S
H640 C641 0.961 . S
C641 C631 1.510 . S
C641 H639 0.959 . S
C641 H640 0.961 . S
C641 H642 0.960 . S
H642 C641 0.960 . S
H643 N623 0.862 . S
O644 Co612 1.920 . S
O644 C617 1.289 . S
C645 O637 1.258 . S
C645 O638 1.266 . S
Co646 O649 1.970 . S
Co646 N663 1.989 . S
Co646 O671 1.967 . S
Co646 O678 1.929 . S
Co647 O650 1.966 . S
Co647 N656 2.022 . S
Co647 N664 1.993 . S
Co647 O672 1.941 . S
C648 O649 1.258 . S
C648 O650 1.263 . S
O649 Co646 1.970 . S
O649 C648 1.258 . S
O650 Co647 1.966 . S
O650 C648 1.263 . S
C651 O652 1.235 . S
C651 O678 1.280 1_554 S
O652 C651 1.235 . S
C653 C655 1.400 . S
C653 N656 1.351 . S
C653 C658 1.501 . S
C654 C655 1.387 . S
C654 N657 1.341 . S
C655 C653 1.400 . S
C655 C654 1.387 . S
N656 Co647 2.022 . S
N656 C653 1.351 . S
N656 N657 1.365 . S
N657 C654 1.341 . S
N657 N656 1.365 . S
N657 H677 0.862 . S
C658 C653 1.501 . S
C658 H659 0.961 . S
C658 H660 0.961 . S
C658 H661 0.960 . S
H659 C658 0.961 . S
H660 C658 0.961 . S
H661 C658 0.960 . S
C662 N663 1.342 . S
C662 C666 1.401 . S
C662 C667 1.499 1_556 S
N663 Co646 1.989 . S
N663 C662 1.342 . S
N663 N664 1.388 . S
N664 Co647 1.993 . S
N664 N663 1.388 . S
N664 C665 1.346 . S
C665 N664 1.346 . S
C665 C666 1.396 . S
C665 C675 1.510 . S
C666 C662 1.401 . S
C666 C665 1.396 . S
C667 C662 1.499 1_554 S
C667 H668 0.959 . S
C667 H669 0.960 . S
C667 H670 0.961 . S
H668 C667 0.959 . S
H669 C667 0.960 . S
H670 C667 0.961 . S
O671 Co646 1.967 . S
O671 C679 1.258 . S
O672 Co647 1.941 . S
O672 C679 1.266 . S
H673 C675 0.959 . S
H674 C675 0.961 . S
C675 C665 1.510 . S
C675 H673 0.959 . S
C675 H674 0.961 . S
C675 H676 0.960 . S
H676 C675 0.960 . S
H677 N657 0.862 . S
O678 Co646 1.929 . S
O678 C651 1.280 1_556 S
C679 O671 1.258 . S
C679 O672 1.266 . S
Co680 O683 1.970 . S
Co680 N697 1.989 . S
Co680 O705 1.967 . S
Co680 O712 1.920 . S
Co681 O684 1.966 . S
Co681 N690 2.022 . S
Co681 N698 1.993 . S
Co681 O706 1.941 . S
C682 O683 1.258 . S
C682 O684 1.263 . S
O683 Co680 1.970 . S
O683 C682 1.258 . S
O684 Co681 1.966 . S
O684 C682 1.263 . S
C685 O686 1.235 . S
C685 O712 1.289 . S
O686 C685 1.235 . S
C687 C689 1.400 . S
C687 N690 1.351 . S
C687 C692 1.501 . S
C688 C689 1.387 . S
C688 N691 1.341 . S
C689 C687 1.400 . S
C689 C688 1.387 . S
N690 Co681 2.022 . S
N690 C687 1.351 . S
N690 N691 1.365 . S
N691 C688 1.341 . S
N691 N690 1.365 . S
N691 H711 0.862 . S
C692 C687 1.501 . S
C692 H693 0.961 . S
C692 H694 0.961 . S
C692 H695 0.960 . S
H693 C692 0.961 . S
H694 C692 0.961 . S
H695 C692 0.960 . S
C696 N697 1.342 . S
C696 C700 1.401 . S
C696 C701 1.499 . S
N697 Co680 1.989 . S
N697 C696 1.342 . S
N697 N698 1.388 . S
N698 Co681 1.993 . S
N698 N697 1.388 . S
N698 C699 1.346 . S
C699 N698 1.346 . S
C699 C700 1.396 . S
C699 C709 1.510 . S
C700 C696 1.401 . S
C700 C699 1.396 . S
C701 C696 1.499 . S
C701 H702 0.959 . S
C701 H703 0.960 . S
C701 H704 0.961 . S
H702 C701 0.959 . S
H703 C701 0.960 . S
H704 C701 0.961 . S
O705 Co680 1.967 . S
O705 C713 1.258 . S
O706 Co681 1.941 . S
O706 C713 1.266 . S
H707 C709 0.959 . S
H708 C709 0.961 . S
C709 C699 1.510 . S
C709 H707 0.959 . S
C709 H708 0.961 . S
C709 H710 0.960 . S
H710 C709 0.960 . S
H711 N691 0.862 . S
O712 Co680 1.920 . S
O712 C685 1.289 . S
C713 O705 1.258 . S
C713 O706 1.266 . S
Co714 O717 1.970 . S
Co714 N731 1.989 . S
Co714 O739 1.967 . S
Co714 O746 1.929 . S
Co715 O718 1.966 . S
Co715 N724 2.022 . S
Co715 N732 1.993 . S
Co715 O740 1.941 . S
C716 O717 1.258 . S
C716 O718 1.263 . S
O717 Co714 1.970 . S
O717 C716 1.258 . S
O718 Co715 1.966 . S
O718 C716 1.263 . S
C719 O720 1.235 . S
C719 O746 1.280 1_556 S
O720 C719 1.235 . S
C721 C723 1.400 . S
C721 N724 1.351 . S
C721 C726 1.501 . S
C722 C723 1.387 . S
C722 N725 1.341 . S
C723 C721 1.400 . S
C723 C722 1.387 . S
N724 Co715 2.022 . S
N724 C721 1.351 . S
N724 N725 1.365 . S
N725 C722 1.341 . S
N725 N724 1.365 . S
N725 H745 0.862 . S
C726 C721 1.501 . S
C726 H727 0.961 . S
C726 H728 0.961 . S
C726 H729 0.960 . S
H727 C726 0.961 . S
H728 C726 0.961 . S
H729 C726 0.960 . S
C730 N731 1.342 . S
C730 C734 1.401 . S
C730 C735 1.499 1_554 S
N731 Co714 1.989 . S
N731 C730 1.342 . S
N731 N732 1.388 . S
N732 Co715 1.993 . S
N732 N731 1.388 . S
N732 C733 1.346 . S
C733 N732 1.346 . S
C733 C734 1.396 . S
C733 C743 1.510 . S
C734 C730 1.401 . S
C734 C733 1.396 . S
C735 C730 1.499 1_556 S
C735 H736 0.959 . S
C735 H737 0.960 . S
C735 H738 0.961 . S
H736 C735 0.959 . S
H737 C735 0.960 . S
H738 C735 0.961 . S
O739 Co714 1.967 . S
O739 C747 1.258 . S
O740 Co715 1.941 . S
O740 C747 1.266 . S
H741 C743 0.959 . S
H742 C743 0.961 . S
C743 C733 1.510 . S
C743 H741 0.959 . S
C743 H742 0.961 . S
C743 H744 0.960 . S
H744 C743 0.960 . S
H745 N725 0.862 . S
O746 Co714 1.929 . S
O746 C719 1.280 1_554 S
C747 O739 1.258 . S
C747 O740 1.266 . S
Co748 O751 1.970 . S
Co748 N765 1.989 . S
Co748 O773 1.967 . S
Co748 O780 1.920 . S
Co749 O752 1.966 . S
Co749 N758 2.022 . S
Co749 N766 1.993 . S
Co749 O774 1.941 . S
C750 O751 1.258 . S
C750 O752 1.263 . S
O751 Co748 1.970 . S
O751 C750 1.258 . S
O752 Co749 1.966 . S
O752 C750 1.263 . S
C753 O754 1.235 . S
C753 O780 1.289 . S
O754 C753 1.235 . S
C755 C757 1.400 . S
C755 N758 1.351 . S
C755 C760 1.501 . S
C756 C757 1.387 . S
C756 N759 1.341 . S
C757 C755 1.400 . S
C757 C756 1.387 . S
N758 Co749 2.022 . S
N758 C755 1.351 . S
N758 N759 1.365 . S
N759 C756 1.341 . S
N759 N758 1.365 . S
N759 H779 0.862 . S
C760 C755 1.501 . S
C760 H761 0.961 . S
C760 H762 0.961 . S
C760 H763 0.960 . S
H761 C760 0.961 . S
H762 C760 0.961 . S
H763 C760 0.960 . S
C764 N765 1.342 . S
C764 C768 1.401 . S
C764 C769 1.499 . S
N765 Co748 1.989 . S
N765 C764 1.342 . S
N765 N766 1.388 . S
N766 Co749 1.993 . S
N766 N765 1.388 . S
N766 C767 1.346 . S
C767 N766 1.346 . S
C767 C768 1.396 . S
C767 C777 1.510 . S
C768 C764 1.401 . S
C768 C767 1.396 . S
C769 C764 1.499 . S
C769 H770 0.959 . S
C769 H771 0.960 . S
C769 H772 0.961 . S
H770 C769 0.959 . S
H771 C769 0.960 . S
H772 C769 0.961 . S
O773 Co748 1.967 . S
O773 C781 1.258 . S
O774 Co749 1.941 . S
O774 C781 1.266 . S
H775 C777 0.959 . S
H776 C777 0.961 . S
C777 C767 1.510 . S
C777 H775 0.959 . S
C777 H776 0.961 . S
C777 H778 0.960 . S
H778 C777 0.960 . S
H779 N759 0.862 . S
O780 Co748 1.920 . S
O780 C753 1.289 . S
C781 O773 1.258 . S
C781 O774 1.266 . S
Co782 O785 1.970 . S
Co782 N799 1.989 . S
Co782 O807 1.967 . S
Co782 O814 1.920 . S
Co783 O786 1.966 . S
Co783 N792 2.022 . S
Co783 N800 1.993 . S
Co783 O808 1.941 . S
C784 O785 1.258 . S
C784 O786 1.263 . S
O785 Co782 1.970 . S
O785 C784 1.258 . S
O786 Co783 1.966 . S
O786 C784 1.263 . S
C787 O788 1.235 . S
C787 O814 1.289 . S
O788 C787 1.235 . S
C789 C791 1.400 . S
C789 N792 1.351 . S
C789 C794 1.501 . S
C790 C791 1.387 . S
C790 N793 1.341 . S
C791 C789 1.400 . S
C791 C790 1.387 . S
N792 Co783 2.022 . S
N792 C789 1.351 . S
N792 N793 1.365 . S
N793 C790 1.341 . S
N793 N792 1.365 . S
N793 H813 0.862 . S
C794 C789 1.501 . S
C794 H795 0.961 . S
C794 H796 0.961 . S
C794 H797 0.960 . S
H795 C794 0.961 . S
H796 C794 0.961 . S
H797 C794 0.960 . S
C798 N799 1.342 . S
C798 C802 1.401 . S
C798 C803 1.499 . S
N799 Co782 1.989 . S
N799 C798 1.342 . S
N799 N800 1.388 . S
N800 Co783 1.993 . S
N800 N799 1.388 . S
N800 C801 1.346 . S
C801 N800 1.346 . S
C801 C802 1.396 . S
C801 C811 1.510 . S
C802 C798 1.401 . S
C802 C801 1.396 . S
C803 C798 1.499 . S
C803 H804 0.959 . S
C803 H805 0.960 . S
C803 H806 0.961 . S
H804 C803 0.959 . S
H805 C803 0.960 . S
H806 C803 0.961 . S
O807 Co782 1.967 . S
O807 C815 1.258 . S
O808 Co783 1.941 . S
O808 C815 1.266 . S
H809 C811 0.959 . S
H810 C811 0.961 . S
C811 C801 1.510 . S
C811 H809 0.959 . S
C811 H810 0.961 . S
C811 H812 0.960 . S
H812 C811 0.960 . S
H813 N793 0.862 . S
O814 Co782 1.920 . S
O814 C787 1.289 . S
C815 O807 1.258 . S
C815 O808 1.266 . S
C816 C817 1.387 . S
C816 H820 0.950 . S
C816 C825 1.390 . S
C817 C816 1.387 . S
C817 C819 1.387 . S
H818 C825 0.950 . S
C819 C817 1.387 . S
C819 C821 1.390 . S
C819 H823 0.950 . S
H820 C816 0.950 . S
C821 C819 1.390 . S
C821 C822 1.387 . S
C821 H824 0.950 . S
C822 C821 1.387 . S
C822 C825 1.387 . S
H823 C819 0.950 . S
H824 C821 0.950 . S
C825 C816 1.390 . S
C825 H818 0.950 . S
C825 C822 1.387 . S
C826 C827 1.387 . S
C826 H830 0.950 . S
C826 C835 1.390 . S
C827 C826 1.387 . S
C827 C829 1.387 . S
H828 C835 0.950 . S
C829 C827 1.387 . S
C829 C831 1.390 . S
C829 H833 0.950 . S
H830 C826 0.950 . S
C831 C829 1.390 . S
C831 C832 1.387 . S
C831 H834 0.950 . S
C832 C831 1.387 . S
C832 C835 1.387 . S
H833 C829 0.950 . S
H834 C831 0.950 . S
C835 C826 1.390 . S
C835 H828 0.950 . S
C835 C832 1.387 . S
C836 C837 1.387 . S
C836 H840 0.950 . S
C836 C845 1.390 . S
C837 C836 1.387 . S
C837 C839 1.387 . S
H838 C845 0.950 . S
C839 C837 1.387 . S
C839 C841 1.390 . S
C839 H843 0.950 . S
H840 C836 0.950 . S
C841 C839 1.390 . S
C841 C842 1.387 . S
C841 H844 0.950 . S
C842 C841 1.387 . S
C842 C845 1.387 . S
H843 C839 0.950 . S
H844 C841 0.950 . S
C845 C836 1.390 . S
C845 H838 0.950 . S
C845 C842 1.387 . S
C846 C847 1.387 . S
C846 H850 0.950 . S
C846 C855 1.390 . S
C847 C846 1.387 . S
C847 C849 1.387 . S
H848 C855 0.950 . S
C849 C847 1.387 . S
C849 C851 1.390 . S
C849 H853 0.950 . S
H850 C846 0.950 . S
C851 C849 1.390 . S
C851 C852 1.387 . S
C851 H854 0.950 . S
C852 C851 1.387 . S
C852 C855 1.387 . S
H853 C849 0.950 . S
H854 C851 0.950 . S
C855 C846 1.390 . S
C855 H848 0.950 . S
C855 C852 1.387 . S
C856 C857 1.387 . S
C856 H860 0.950 . S
C856 C865 1.390 . S
C857 C856 1.387 . S
C857 C859 1.387 . S
H858 C865 0.950 . S
C859 C857 1.387 . S
C859 C861 1.390 . S
C859 H863 0.950 . S
H860 C856 0.950 . S
C861 C859 1.390 . S
C861 C862 1.387 . S
C861 H864 0.950 . S
C862 C861 1.387 . S
C862 C865 1.387 . S
H863 C859 0.950 . S
H864 C861 0.950 . S
C865 C856 1.390 . S
C865 H858 0.950 . S
C865 C862 1.387 . S
C866 C867 1.387 . S
C866 H870 0.950 . S
C866 C875 1.390 . S
C867 C866 1.387 . S
C867 C869 1.387 . S
H868 C875 0.950 . S
C869 C867 1.387 . S
C869 C871 1.390 . S
C869 H873 0.950 . S
H870 C866 0.950 . S
C871 C869 1.390 . S
C871 C872 1.387 . S
C871 H874 0.950 . S
C872 C871 1.387 . S
C872 C875 1.387 . S
H873 C869 0.950 . S
H874 C871 0.950 . S
C875 C866 1.390 . S
C875 H868 0.950 . S
C875 C872 1.387 . S
C876 C877 1.387 . S
C876 H880 0.950 . S
C876 C885 1.390 . S
C877 C876 1.387 . S
C877 C879 1.387 . S
H878 C885 0.950 . S
C879 C877 1.387 . S
C879 C881 1.390 . S
C879 H883 0.950 . S
H880 C876 0.950 . S
C881 C879 1.390 . S
C881 C882 1.387 . S
C881 H884 0.950 . S
C882 C881 1.387 . S
C882 C885 1.387 . S
H883 C879 0.950 . S
H884 C881 0.950 . S
C885 C876 1.390 . S
C885 H878 0.950 . S
C885 C882 1.387 . S
C886 C887 1.387 . S
C886 H890 0.950 . S
C886 C895 1.390 . S
C887 C886 1.387 . S
C887 C889 1.387 . S
H888 C895 0.950 . S
C889 C887 1.387 . S
C889 C891 1.390 . S
C889 H893 0.950 . S
H890 C886 0.950 . S
C891 C889 1.390 . S
C891 C892 1.387 . S
C891 H894 0.950 . S
C892 C891 1.387 . S
C892 C895 1.387 . S
H893 C889 0.950 . S
H894 C891 0.950 . S
C895 C886 1.390 . S
C895 H888 0.950 . S
C895 C892 1.387 . S
C896 C897 1.387 . S
C896 H900 0.950 . S
C896 C905 1.390 . S
C897 C896 1.387 . S
C897 C899 1.387 . S
H898 C905 0.950 . S
C899 C897 1.387 . S
C899 C901 1.390 . S
C899 H903 0.950 . S
H900 C896 0.950 . S
C901 C899 1.390 . S
C901 C902 1.387 . S
C901 H904 0.950 . S
C902 C901 1.387 . S
C902 C905 1.387 . S
H903 C899 0.950 . S
H904 C901 0.950 . S
C905 C896 1.390 . S
C905 H898 0.950 . S
C905 C902 1.387 . S
C906 C907 1.387 . S
C906 H910 0.950 . S
C906 C915 1.390 . S
C907 C906 1.387 . S
C907 C909 1.387 . S
H908 C915 0.950 . S
C909 C907 1.387 . S
C909 C911 1.390 . S
C909 H913 0.950 . S
H910 C906 0.950 . S
C911 C909 1.390 . S
C911 C912 1.387 . S
C911 H914 0.950 . S
C912 C911 1.387 . S
C912 C915 1.387 . S
H913 C909 0.950 . S
H914 C911 0.950 . S
C915 C906 1.390 . S
C915 H908 0.950 . S
C915 C912 1.387 . S
C916 C917 1.387 . S
C916 H920 0.950 . S
C916 C925 1.390 . S
C917 C916 1.387 . S
C917 C919 1.387 . S
H918 C925 0.950 . S
C919 C917 1.387 . S
C919 C921 1.390 . S
C919 H923 0.950 . S
H920 C916 0.950 . S
C921 C919 1.390 . S
C921 C922 1.387 . S
C921 H924 0.950 . S
C922 C921 1.387 . S
C922 C925 1.387 . S
H923 C919 0.950 . S
H924 C921 0.950 . S
C925 C916 1.390 . S
C925 H918 0.950 . S
C925 C922 1.387 . S
C926 C927 1.387 . S
C926 H930 0.950 . S
C926 C935 1.390 . S
C927 C926 1.387 . S
C927 C929 1.387 . S
H928 C935 0.950 . S
C929 C927 1.387 . S
C929 C931 1.390 . S
C929 H933 0.950 . S
H930 C926 0.950 . S
C931 C929 1.390 . S
C931 C932 1.387 . S
C931 H934 0.950 . S
C932 C931 1.387 . S
C932 C935 1.387 . S
H933 C929 0.950 . S
H934 C931 0.950 . S
C935 C926 1.390 . S
C935 H928 0.950 . S
C935 C932 1.387 . S
C936 C937 1.387 . S
C936 H940 0.950 . S
C936 C945 1.390 . S
C937 C936 1.387 . S
C937 C939 1.387 . S
H938 C945 0.950 . S
C939 C937 1.387 . S
C939 C941 1.390 . S
C939 H943 0.950 . S
H940 C936 0.950 . S
C941 C939 1.390 . S
C941 C942 1.387 . S
C941 H944 0.950 . S
C942 C941 1.387 . S
C942 C945 1.387 . S
H943 C939 0.950 . S
H944 C941 0.950 . S
C945 C936 1.390 . S
C945 H938 0.950 . S
C945 C942 1.387 . S
C946 C947 1.387 . S
C946 H950 0.950 . S
C946 C955 1.390 . S
C947 C946 1.387 . S
C947 C949 1.387 . S
H948 C955 0.950 . S
C949 C947 1.387 . S
C949 C951 1.390 . S
C949 H953 0.950 . S
H950 C946 0.950 . S
C951 C949 1.390 . S
C951 C952 1.387 . S
C951 H954 0.950 . S
C952 C951 1.387 . S
C952 C955 1.387 . S
H953 C949 0.950 . S
H954 C951 0.950 . S
C955 C946 1.390 . S
C955 H948 0.950 . S
C955 C952 1.387 . S
C956 C957 1.387 . S
C956 H960 0.950 . S
C956 C965 1.390 . S
C957 C956 1.387 . S
C957 C959 1.387 . S
H958 C965 0.950 . S
C959 C957 1.387 . S
C959 C961 1.390 . S
C959 H963 0.950 . S
H960 C956 0.950 . S
C961 C959 1.390 . S
C961 C962 1.387 . S
C961 H964 0.950 . S
C962 C961 1.387 . S
C962 C965 1.387 . S
H963 C959 0.950 . S
H964 C961 0.950 . S
C965 C956 1.390 . S
C965 H958 0.950 . S
C965 C962 1.387 . S
C966 C967 1.387 . S
C966 H970 0.950 . S
C966 C975 1.390 . S
C967 C966 1.387 . S
C967 C969 1.387 . S
H968 C975 0.950 . S
C969 C967 1.387 . S
C969 C971 1.390 . S
C969 H973 0.950 . S
H970 C966 0.950 . S
C971 C969 1.390 . S
C971 C972 1.387 . S
C971 H974 0.950 . S
C972 C971 1.387 . S
C972 C975 1.387 . S
H973 C969 0.950 . S
H974 C971 0.950 . S
C975 C966 1.390 . S
C975 H968 0.950 . S
C975 C972 1.387 . S
C976 C977 1.387 . S
C976 H980 0.950 . S
C976 C985 1.390 . S
C977 C976 1.387 . S
C977 C979 1.387 . S
H978 C985 0.950 . S
C979 C977 1.387 . S
C979 C981 1.390 . S
C979 H983 0.950 . S
H980 C976 0.950 . S
C981 C979 1.390 . S
C981 C982 1.387 . S
C981 H984 0.950 . S
C982 C981 1.387 . S
C982 C985 1.387 . S
H983 C979 0.950 . S
H984 C981 0.950 . S
C985 C976 1.390 . S
C985 H978 0.950 . S
C985 C982 1.387 . S
C986 C987 1.387 . S
C986 H990 0.950 . S
C986 C995 1.390 . S
C987 C986 1.387 . S
C987 C989 1.387 . S
H988 C995 0.950 . S
C989 C987 1.387 . S
C989 C991 1.390 . S
C989 H993 0.950 . S
H990 C986 0.950 . S
C991 C989 1.390 . S
C991 C992 1.387 . S
C991 H994 0.950 . S
C992 C991 1.387 . S
C992 C995 1.387 . S
H993 C989 0.950 . S
H994 C991 0.950 . S
C995 C986 1.390 . S
C995 H988 0.950 . S
C995 C992 1.387 . S
C996 C997 1.387 . S
C996 H1000 0.950 . S
C996 C1005 1.390 . S
C997 C996 1.387 . S
C997 C999 1.387 . S
H998 C1005 0.950 . S
C999 C997 1.387 . S
C999 C1001 1.390 . S
C999 H1003 0.950 . S
H1000 C996 0.950 . S
C1001 C999 1.390 . S
C1001 C1002 1.387 . S
C1001 H1004 0.950 . S
C1002 C1001 1.387 . S
C1002 C1005 1.387 . S
H1003 C999 0.950 . S
H1004 C1001 0.950 . S
C1005 C996 1.390 . S
C1005 H998 0.950 . S
C1005 C1002 1.387 . S
C1006 C1007 1.387 . S
C1006 H1010 0.950 . S
C1006 C1015 1.390 . S
C1007 C1006 1.387 . S
C1007 C1009 1.387 . S
H1008 C1015 0.950 . S
C1009 C1007 1.387 . S
C1009 C1011 1.390 . S
C1009 H1013 0.950 . S
H1010 C1006 0.950 . S
C1011 C1009 1.390 . S
C1011 C1012 1.387 . S
C1011 H1014 0.950 . S
C1012 C1011 1.387 . S
C1012 C1015 1.387 . S
H1013 C1009 0.950 . S
H1014 C1011 0.950 . S
C1015 C1006 1.390 . S
C1015 H1008 0.950 . S
C1015 C1012 1.387 . S
C1016 C1017 1.387 . S
C1016 H1020 0.950 . S
C1016 C1025 1.390 . S
C1017 C1016 1.387 . S
C1017 C1019 1.387 . S
H1018 C1025 0.950 . S
C1019 C1017 1.387 . S
C1019 C1021 1.390 . S
C1019 H1023 0.950 . S
H1020 C1016 0.950 . S
C1021 C1019 1.390 . S
C1021 C1022 1.387 . S
C1021 H1024 0.950 . S
C1022 C1021 1.387 . S
C1022 C1025 1.387 . S
H1023 C1019 0.950 . S
H1024 C1021 0.950 . S
C1025 C1016 1.390 . S
C1025 H1018 0.950 . S
C1025 C1022 1.387 . S
C1026 C1027 1.387 . S
C1026 H1030 0.950 . S
C1026 C1035 1.390 . S
C1027 C1026 1.387 . S
C1027 C1029 1.387 . S
H1028 C1035 0.950 . S
C1029 C1027 1.387 . S
C1029 C1031 1.390 . S
C1029 H1033 0.950 . S
H1030 C1026 0.950 . S
C1031 C1029 1.390 . S
C1031 C1032 1.387 . S
C1031 H1034 0.950 . S
C1032 C1031 1.387 . S
C1032 C1035 1.387 . S
H1033 C1029 0.950 . S
H1034 C1031 0.950 . S
C1035 C1026 1.390 . S
C1035 H1028 0.950 . S
C1035 C1032 1.387 . S
C1036 C1037 1.387 . S
C1036 H1040 0.950 . S
C1036 C1045 1.390 . S
C1037 C1036 1.387 . S
C1037 C1039 1.387 . S
H1038 C1045 0.950 . S
C1039 C1037 1.387 . S
C1039 C1041 1.390 . S
C1039 H1043 0.950 . S
H1040 C1036 0.950 . S
C1041 C1039 1.390 . S
C1041 C1042 1.387 . S
C1041 H1044 0.950 . S
C1042 C1041 1.387 . S
C1042 C1045 1.387 . S
H1043 C1039 0.950 . S
H1044 C1041 0.950 . S
C1045 C1036 1.390 . S
C1045 H1038 0.950 . S
C1045 C1042 1.387 . S
C1046 C1047 1.387 . S
C1046 H1050 0.950 . S
C1046 C1055 1.390 . S
C1047 C1046 1.387 . S
C1047 C1049 1.387 . S
H1048 C1055 0.950 . S
C1049 C1047 1.387 . S
C1049 C1051 1.390 . S
C1049 H1053 0.950 . S
H1050 C1046 0.950 . S
C1051 C1049 1.390 . S
C1051 C1052 1.387 . S
C1051 H1054 0.950 . S
C1052 C1051 1.387 . S
C1052 C1055 1.387 . S
H1053 C1049 0.950 . S
H1054 C1051 0.950 . S
C1055 C1046 1.390 . S
C1055 H1048 0.950 . S
C1055 C1052 1.387 . S
C1056 C1057 1.387 . S
C1056 H1060 0.950 . S
C1056 C1065 1.390 1_656 S
C1057 C1056 1.387 . S
C1057 C1059 1.387 . S
H1058 C1065 0.950 . S
C1059 C1057 1.387 . S
C1059 C1061 1.390 1_656 S
C1059 H1063 0.950 . S
H1060 C1056 0.950 . S
C1061 C1059 1.390 1_454 S
C1061 C1062 1.387 . S
C1061 H1064 0.950 . S
C1062 C1061 1.387 . S
C1062 C1065 1.387 . S
H1063 C1059 0.950 . S
H1064 C1061 0.950 . S
C1065 C1056 1.390 1_454 S
C1065 H1058 0.950 . S
C1065 C1062 1.387 . S
C1066 C1067 1.387 . S
C1066 H1070 0.950 . S
C1066 C1075 1.390 . S
C1067 C1066 1.387 . S
C1067 C1069 1.387 . S
H1068 C1075 0.950 . S
C1069 C1067 1.387 . S
C1069 C1071 1.390 . S
C1069 H1073 0.950 . S
H1070 C1066 0.950 . S
C1071 C1069 1.390 . S
C1071 C1072 1.387 . S
C1071 H1074 0.950 . S
C1072 C1071 1.387 . S
C1072 C1075 1.387 . S
H1073 C1069 0.950 . S
H1074 C1071 0.950 . S
C1075 C1066 1.390 . S
C1075 H1068 0.950 . S
C1075 C1072 1.387 . S
C1076 C1077 1.387 . S
C1076 H1080 0.950 . S
C1076 C1085 1.390 1_456 S
C1077 C1076 1.387 . S
C1077 C1079 1.387 . S
H1078 C1085 0.950 . S
C1079 C1077 1.387 . S
C1079 C1081 1.390 1_456 S
C1079 H1083 0.950 . S
H1080 C1076 0.950 . S
C1081 C1079 1.390 1_654 S
C1081 C1082 1.387 . S
C1081 H1084 0.950 . S
C1082 C1081 1.387 . S
C1082 C1085 1.387 . S
H1083 C1079 0.950 . S
H1084 C1081 0.950 . S
C1085 C1076 1.390 1_654 S
C1085 H1078 0.950 . S
C1085 C1082 1.387 . S
C1086 C1087 1.387 . S
C1086 H1090 0.950 . S
C1086 C1095 1.390 . S
C1087 C1086 1.387 . S
C1087 C1089 1.387 . S
H1088 C1095 0.950 . S
C1089 C1087 1.387 . S
C1089 C1091 1.390 . S
C1089 H1093 0.950 . S
H1090 C1086 0.950 . S
C1091 C1089 1.390 . S
C1091 C1092 1.387 . S
C1091 H1094 0.950 . S
C1092 C1091 1.387 . S
C1092 C1095 1.387 . S
H1093 C1089 0.950 . S
H1094 C1091 0.950 . S
C1095 C1086 1.390 . S
C1095 H1088 0.950 . S
C1095 C1092 1.387 . S
C1096 C1097 1.387 . S
C1096 H1100 0.950 . S
C1096 C1105 1.390 1_665 S
C1097 C1096 1.387 . S
C1097 C1099 1.387 . S
H1098 C1105 0.950 . S
C1099 C1097 1.387 . S
C1099 C1101 1.390 1_665 S
C1099 H1103 0.950 . S
H1100 C1096 0.950 . S
C1101 C1099 1.390 1_445 S
C1101 C1102 1.387 . S
C1101 H1104 0.950 . S
C1102 C1101 1.387 . S
C1102 C1105 1.387 . S
H1103 C1099 0.950 . S
H1104 C1101 0.950 . S
C1105 C1096 1.390 1_445 S
C1105 H1098 0.950 . S
C1105 C1102 1.387 . S
C1106 C1107 1.387 . S
C1106 H1110 0.950 . S
C1106 C1115 1.390 . S
C1107 C1106 1.387 . S
C1107 C1109 1.387 . S
H1108 C1115 0.950 . S
C1109 C1107 1.387 . S
C1109 C1111 1.390 . S
C1109 H1113 0.950 . S
H1110 C1106 0.950 . S
C1111 C1109 1.390 . S
C1111 C1112 1.387 . S
C1111 H1114 0.950 . S
C1112 C1111 1.387 . S
C1112 C1115 1.387 . S
H1113 C1109 0.950 . S
H1114 C1111 0.950 . S
C1115 C1106 1.390 . S
C1115 H1108 0.950 . S
C1115 C1112 1.387 . S
C1116 C1117 1.387 . S
C1116 H1120 0.950 . S
C1116 C1125 1.390 1_465 S
C1117 C1116 1.387 . S
C1117 C1119 1.387 . S
H1118 C1125 0.950 . S
C1119 C1117 1.387 . S
C1119 C1121 1.390 1_465 S
C1119 H1123 0.950 . S
H1120 C1116 0.950 . S
C1121 C1119 1.390 1_645 S
C1121 C1122 1.387 . S
C1121 H1124 0.950 . S
C1122 C1121 1.387 . S
C1122 C1125 1.387 . S
H1123 C1119 0.950 . S
H1124 C1121 0.950 . S
C1125 C1116 1.390 1_645 S
C1125 H1118 0.950 . S
C1125 C1122 1.387 . S
C1126 C1127 1.387 . S
C1126 H1130 0.950 . S
C1126 C1135 1.390 . S
C1127 C1126 1.387 . S
C1127 C1129 1.387 . S
H1128 C1135 0.950 . S
C1129 C1127 1.387 . S
C1129 C1131 1.390 . S
C1129 H1133 0.950 . S
H1130 C1126 0.950 . S
C1131 C1129 1.390 . S
C1131 C1132 1.387 . S
C1131 H1134 0.950 . S
C1132 C1131 1.387 . S
C1132 C1135 1.387 . S
H1133 C1129 0.950 . S
H1134 C1131 0.950 . S
C1135 C1126 1.390 . S
C1135 H1128 0.950 . S
C1135 C1132 1.387 . S
C1136 C1137 1.387 . S
C1136 H1140 0.950 . S
C1136 C1145 1.390 1_544 S
C1137 C1136 1.387 . S
C1137 C1139 1.387 . S
H1138 C1145 0.950 . S
C1139 C1137 1.387 . S
C1139 C1141 1.390 1_544 S
C1139 H1143 0.950 . S
H1140 C1136 0.950 . S
C1141 C1139 1.390 1_566 S
C1141 C1142 1.387 . S
C1141 H1144 0.950 . S
C1142 C1141 1.387 . S
C1142 C1145 1.387 . S
H1143 C1139 0.950 . S
H1144 C1141 0.950 . S
C1145 C1136 1.390 1_566 S
C1145 H1138 0.950 . S
C1145 C1142 1.387 . S
C1146 C1147 1.387 . S
C1146 H1150 0.950 . S
C1146 C1155 1.390 . S
C1147 C1146 1.387 . S
C1147 C1149 1.387 . S
H1148 C1155 0.950 . S
C1149 C1147 1.387 . S
C1149 C1151 1.390 . S
C1149 H1153 0.950 . S
H1150 C1146 0.950 . S
C1151 C1149 1.390 . S
C1151 C1152 1.387 . S
C1151 H1154 0.950 . S
C1152 C1151 1.387 . S
C1152 C1155 1.387 . S
H1153 C1149 0.950 . S
H1154 C1151 0.950 . S
C1155 C1146 1.390 . S
C1155 H1148 0.950 . S
C1155 C1152 1.387 . S
C1156 C1157 1.387 . S
C1156 H1160 0.950 . S
C1156 C1165 1.390 1_546 S
C1157 C1156 1.387 . S
C1157 C1159 1.387 . S
H1158 C1165 0.950 . S
C1159 C1157 1.387 . S
C1159 C1161 1.390 1_546 S
C1159 H1163 0.950 . S
H1160 C1156 0.950 . S
C1161 C1159 1.390 1_564 S
C1161 C1162 1.387 . S
C1161 H1164 0.950 . S
C1162 C1161 1.387 . S
C1162 C1165 1.387 . S
H1163 C1159 0.950 . S
H1164 C1161 0.950 . S
C1165 C1156 1.390 1_564 S
C1165 H1158 0.950 . S
C1165 C1162 1.387 . S
C1166 C1167 1.387 . S
C1166 H1170 0.950 . S
C1166 C1175 1.390 . S
C1167 C1166 1.387 . S
C1167 C1169 1.387 . S
H1168 C1175 0.950 . S
C1169 C1167 1.387 . S
C1169 C1171 1.390 . S
C1169 H1173 0.950 . S
H1170 C1166 0.950 . S
C1171 C1169 1.390 . S
C1171 C1172 1.387 . S
C1171 H1174 0.950 . S
C1172 C1171 1.387 . S
C1172 C1175 1.387 . S
H1173 C1169 0.950 . S
H1174 C1171 0.950 . S
C1175 C1166 1.390 . S
C1175 H1168 0.950 . S
C1175 C1172 1.387 . S
C1176 C1177 1.387 . S
C1176 H1180 0.950 . S
C1176 C1185 1.390 . S
C1177 C1176 1.387 . S
C1177 C1179 1.387 . S
H1178 C1185 0.950 . S
C1179 C1177 1.387 . S
C1179 C1181 1.390 . S
C1179 H1183 0.950 . S
H1180 C1176 0.950 . S
C1181 C1179 1.390 . S
C1181 C1182 1.387 . S
C1181 H1184 0.950 . S
C1182 C1181 1.387 . S
C1182 C1185 1.387 . S
H1183 C1179 0.950 . S
H1184 C1181 0.950 . S
C1185 C1176 1.390 . S
C1185 H1178 0.950 . S
C1185 C1182 1.387 . S
C1186 C1187 1.387 . S
C1186 H1190 0.950 . S
C1186 C1195 1.390 . S
C1187 C1186 1.387 . S
C1187 C1189 1.387 . S
H1188 C1195 0.950 . S
C1189 C1187 1.387 . S
C1189 C1191 1.390 . S
C1189 H1193 0.950 . S
H1190 C1186 0.950 . S
C1191 C1189 1.390 . S
C1191 C1192 1.387 . S
C1191 H1194 0.950 . S
C1192 C1191 1.387 . S
C1192 C1195 1.387 . S
H1193 C1189 0.950 . S
H1194 C1191 0.950 . S
C1195 C1186 1.390 . S
C1195 H1188 0.950 . S
C1195 C1192 1.387 . S
C1196 C1197 1.387 . S
C1196 H1200 0.950 . S
C1196 C1205 1.390 . S
C1197 C1196 1.387 . S
C1197 C1199 1.387 . S
H1198 C1205 0.950 . S
C1199 C1197 1.387 . S
C1199 C1201 1.390 . S
C1199 H1203 0.950 . S
H1200 C1196 0.950 . S
C1201 C1199 1.390 . S
C1201 C1202 1.387 . S
C1201 H1204 0.950 . S
C1202 C1201 1.387 . S
C1202 C1205 1.387 . S
H1203 C1199 0.950 . S
H1204 C1201 0.950 . S
C1205 C1196 1.390 . S
C1205 H1198 0.950 . S
C1205 C1202 1.387 . S
C1206 C1207 1.387 . S
C1206 H1210 0.950 . S
C1206 C1215 1.390 . S
C1207 C1206 1.387 . S
C1207 C1209 1.387 . S
H1208 C1215 0.950 . S
C1209 C1207 1.387 . S
C1209 C1211 1.390 . S
C1209 H1213 0.950 . S
H1210 C1206 0.950 . S
C1211 C1209 1.390 . S
C1211 C1212 1.387 . S
C1211 H1214 0.950 . S
C1212 C1211 1.387 . S
C1212 C1215 1.387 . S
H1213 C1209 0.950 . S
H1214 C1211 0.950 . S
C1215 C1206 1.390 . S
C1215 H1208 0.950 . S
C1215 C1212 1.387 . S
C1216 C1217 1.387 . S
C1216 H1220 0.950 . S
C1216 C1225 1.390 . S
C1217 C1216 1.387 . S
C1217 C1219 1.387 . S
H1218 C1225 0.950 . S
C1219 C1217 1.387 . S
C1219 C1221 1.390 . S
C1219 H1223 0.950 . S
H1220 C1216 0.950 . S
C1221 C1219 1.390 . S
C1221 C1222 1.387 . S
C1221 H1224 0.950 . S
C1222 C1221 1.387 . S
C1222 C1225 1.387 . S
H1223 C1219 0.950 . S
H1224 C1221 0.950 . S
C1225 C1216 1.390 . S
C1225 H1218 0.950 . S
C1225 C1222 1.387 . S
C1226 C1227 1.387 . S
C1226 H1230 0.950 . S
C1226 C1235 1.390 . S
C1227 C1226 1.387 . S
C1227 C1229 1.387 . S
H1228 C1235 0.950 . S
C1229 C1227 1.387 . S
C1229 C1231 1.390 . S
C1229 H1233 0.950 . S
H1230 C1226 0.950 . S
C1231 C1229 1.390 . S
C1231 C1232 1.387 . S
C1231 H1234 0.950 . S
C1232 C1231 1.387 . S
C1232 C1235 1.387 . S
H1233 C1229 0.950 . S
H1234 C1231 0.950 . S
C1235 C1226 1.390 . S
C1235 H1228 0.950 . S
C1235 C1232 1.387 . S
C1236 C1237 1.387 . S
C1236 H1240 0.950 . S
C1236 C1245 1.390 . S
C1237 C1236 1.387 . S
C1237 C1239 1.387 . S
H1238 C1245 0.950 . S
C1239 C1237 1.387 . S
C1239 C1241 1.390 . S
C1239 H1243 0.950 . S
H1240 C1236 0.950 . S
C1241 C1239 1.390 . S
C1241 C1242 1.387 . S
C1241 H1244 0.950 . S
C1242 C1241 1.387 . S
C1242 C1245 1.387 . S
H1243 C1239 0.950 . S
H1244 C1241 0.950 . S
C1245 C1236 1.390 . S
C1245 H1238 0.950 . S
C1245 C1242 1.387 . S
C1246 C1247 1.387 . S
C1246 H1250 0.950 . S
C1246 C1255 1.390 . S
C1247 C1246 1.387 . S
C1247 C1249 1.387 . S
H1248 C1255 0.950 . S
C1249 C1247 1.387 . S
C1249 C1251 1.390 . S
C1249 H1253 0.950 . S
H1250 C1246 0.950 . S
C1251 C1249 1.390 . S
C1251 C1252 1.387 . S
C1251 H1254 0.950 . S
C1252 C1251 1.387 . S
C1252 C1255 1.387 . S
H1253 C1249 0.950 . S
H1254 C1251 0.950 . S
C1255 C1246 1.390 . S
C1255 H1248 0.950 . S
C1255 C1252 1.387 . S
C1256 C1257 1.387 . S
C1256 H1260 0.950 . S
C1256 C1265 1.390 . S
C1257 C1256 1.387 . S
C1257 C1259 1.387 . S
H1258 C1265 0.950 . S
C1259 C1257 1.387 . S
C1259 C1261 1.390 . S
C1259 H1263 0.950 . S
H1260 C1256 0.950 . S
C1261 C1259 1.390 . S
C1261 C1262 1.387 . S
C1261 H1264 0.950 . S
C1262 C1261 1.387 . S
C1262 C1265 1.387 . S
H1263 C1259 0.950 . S
H1264 C1261 0.950 . S
C1265 C1256 1.390 . S
C1265 H1258 0.950 . S
C1265 C1262 1.387 . S
C1266 C1267 1.387 . S
C1266 H1270 0.950 . S
C1266 C1275 1.390 . S
C1267 C1266 1.387 . S
C1267 C1269 1.387 . S
H1268 C1275 0.950 . S
C1269 C1267 1.387 . S
C1269 C1271 1.390 . S
C1269 H1273 0.950 . S
H1270 C1266 0.950 . S
C1271 C1269 1.390 . S
C1271 C1272 1.387 . S
C1271 H1274 0.950 . S
C1272 C1271 1.387 . S
C1272 C1275 1.387 . S
H1273 C1269 0.950 . S
H1274 C1271 0.950 . S
C1275 C1266 1.390 . S
C1275 H1268 0.950 . S
C1275 C1272 1.387 . S
C1276 C1277 1.387 . S
C1276 H1280 0.950 . S
C1276 C1285 1.390 . S
C1277 C1276 1.387 . S
C1277 C1279 1.387 . S
H1278 C1285 0.950 . S
C1279 C1277 1.387 . S
C1279 C1281 1.390 . S
C1279 H1283 0.950 . S
H1280 C1276 0.950 . S
C1281 C1279 1.390 . S
C1281 C1282 1.387 . S
C1281 H1284 0.950 . S
C1282 C1281 1.387 . S
C1282 C1285 1.387 . S
H1283 C1279 0.950 . S
H1284 C1281 0.950 . S
C1285 C1276 1.390 . S
C1285 H1278 0.950 . S
C1285 C1282 1.387 . S
C1286 C1287 1.387 . S
C1286 H1290 0.950 . S
C1286 C1295 1.390 . S
C1287 C1286 1.387 . S
C1287 C1289 1.387 . S
H1288 C1295 0.950 . S
C1289 C1287 1.387 . S
C1289 C1291 1.390 . S
C1289 H1293 0.950 . S
H1290 C1286 0.950 . S
C1291 C1289 1.390 . S
C1291 C1292 1.387 . S
C1291 H1294 0.950 . S
C1292 C1291 1.387 . S
C1292 C1295 1.387 . S
H1293 C1289 0.950 . S
H1294 C1291 0.950 . S
C1295 C1286 1.390 . S
C1295 H1288 0.950 . S
C1295 C1292 1.387 . S
C1296 C1297 1.387 . S
C1296 H1300 0.950 . S
C1296 C1305 1.390 . S
C1297 C1296 1.387 . S
C1297 C1299 1.387 . S
H1298 C1305 0.950 . S
C1299 C1297 1.387 . S
C1299 C1301 1.390 . S
C1299 H1303 0.950 . S
H1300 C1296 0.950 . S
C1301 C1299 1.390 . S
C1301 C1302 1.387 . S
C1301 H1304 0.950 . S
C1302 C1301 1.387 . S
C1302 C1305 1.387 . S
H1303 C1299 0.950 . S
H1304 C1301 0.950 . S
C1305 C1296 1.390 . S
C1305 H1298 0.950 . S
C1305 C1302 1.387 . S
C1306 C1307 1.387 . S
C1306 H1310 0.950 . S
C1306 C1315 1.390 . S
C1307 C1306 1.387 . S
C1307 C1309 1.387 . S
H1308 C1315 0.950 . S
C1309 C1307 1.387 . S
C1309 C1311 1.390 . S
C1309 H1313 0.950 . S
H1310 C1306 0.950 . S
C1311 C1309 1.390 . S
C1311 C1312 1.387 . S
C1311 H1314 0.950 . S
C1312 C1311 1.387 . S
C1312 C1315 1.387 . S
H1313 C1309 0.950 . S
H1314 C1311 0.950 . S
C1315 C1306 1.390 . S
C1315 H1308 0.950 . S
C1315 C1312 1.387 . S
C1316 C1317 1.387 . S
C1316 H1320 0.950 . S
C1316 C1325 1.390 . S
C1317 C1316 1.387 . S
C1317 C1319 1.387 . S
H1318 C1325 0.950 . S
C1319 C1317 1.387 . S
C1319 C1321 1.390 . S
C1319 H1323 0.950 . S
H1320 C1316 0.950 . S
C1321 C1319 1.390 . S
C1321 C1322 1.387 . S
C1321 H1324 0.950 . S
C1322 C1321 1.387 . S
C1322 C1325 1.387 . S
H1323 C1319 0.950 . S
H1324 C1321 0.950 . S
C1325 C1316 1.390 . S
C1325 H1318 0.950 . S
C1325 C1322 1.387 . S
C1326 C1327 1.387 . S
C1326 H1330 0.950 . S
C1326 C1335 1.390 . S
C1327 C1326 1.387 . S
C1327 C1329 1.387 . S
H1328 C1335 0.950 . S
C1329 C1327 1.387 . S
C1329 C1331 1.390 . S
C1329 H1333 0.950 . S
H1330 C1326 0.950 . S
C1331 C1329 1.390 . S
C1331 C1332 1.387 . S
C1331 H1334 0.950 . S
C1332 C1331 1.387 . S
C1332 C1335 1.387 . S
H1333 C1329 0.950 . S
H1334 C1331 0.950 . S
C1335 C1326 1.390 . S
C1335 H1328 0.950 . S
C1335 C1332 1.387 . S
C1336 C1337 1.387 . S
C1336 H1340 0.950 . S
C1336 C1345 1.390 . S
C1337 C1336 1.387 . S
C1337 C1339 1.387 . S
H1338 C1345 0.950 . S
C1339 C1337 1.387 . S
C1339 C1341 1.390 . S
C1339 H1343 0.950 . S
H1340 C1336 0.950 . S
C1341 C1339 1.390 . S
C1341 C1342 1.387 . S
C1341 H1344 0.950 . S
C1342 C1341 1.387 . S
C1342 C1345 1.387 . S
H1343 C1339 0.950 . S
H1344 C1341 0.950 . S
C1345 C1336 1.390 . S
C1345 H1338 0.950 . S
C1345 C1342 1.387 . S
C1346 C1347 1.387 . S
C1346 H1350 0.950 . S
C1346 C1355 1.390 . S
C1347 C1346 1.387 . S
C1347 C1349 1.387 . S
H1348 C1355 0.950 . S
C1349 C1347 1.387 . S
C1349 C1351 1.390 . S
C1349 H1353 0.950 . S
H1350 C1346 0.950 . S
C1351 C1349 1.390 . S
C1351 C1352 1.387 . S
C1351 H1354 0.950 . S
C1352 C1351 1.387 . S
C1352 C1355 1.387 . S
H1353 C1349 0.950 . S
H1354 C1351 0.950 . S
C1355 C1346 1.390 . S
C1355 H1348 0.950 . S
C1355 C1352 1.387 . S
C1356 C1357 1.387 . S
C1356 H1360 0.950 . S
C1356 C1365 1.390 . S
C1357 C1356 1.387 . S
C1357 C1359 1.387 . S
H1358 C1365 0.950 . S
C1359 C1357 1.387 . S
C1359 C1361 1.390 . S
C1359 H1363 0.950 . S
H1360 C1356 0.950 . S
C1361 C1359 1.390 . S
C1361 C1362 1.387 . S
C1361 H1364 0.950 . S
C1362 C1361 1.387 . S
C1362 C1365 1.387 . S
H1363 C1359 0.950 . S
H1364 C1361 0.950 . S
C1365 C1356 1.390 . S
C1365 H1358 0.950 . S
C1365 C1362 1.387 . S
C1366 C1367 1.387 . S
C1366 H1370 0.950 . S
C1366 C1375 1.390 . S
C1367 C1366 1.387 . S
C1367 C1369 1.387 . S
H1368 C1375 0.950 . S
C1369 C1367 1.387 . S
C1369 C1371 1.390 . S
C1369 H1373 0.950 . S
H1370 C1366 0.950 . S
C1371 C1369 1.390 . S
C1371 C1372 1.387 . S
C1371 H1374 0.950 . S
C1372 C1371 1.387 . S
C1372 C1375 1.387 . S
H1373 C1369 0.950 . S
H1374 C1371 0.950 . S
C1375 C1366 1.390 . S
C1375 H1368 0.950 . S
C1375 C1372 1.387 . S
C1376 C1377 1.387 . S
C1376 H1380 0.950 . S
C1376 C1385 1.390 . S
C1377 C1376 1.387 . S
C1377 C1379 1.387 . S
H1378 C1385 0.950 . S
C1379 C1377 1.387 . S
C1379 C1381 1.390 . S
C1379 H1383 0.950 . S
H1380 C1376 0.950 . S
C1381 C1379 1.390 . S
C1381 C1382 1.387 . S
C1381 H1384 0.950 . S
C1382 C1381 1.387 . S
C1382 C1385 1.387 . S
H1383 C1379 0.950 . S
H1384 C1381 0.950 . S
C1385 C1376 1.390 . S
C1385 H1378 0.950 . S
C1385 C1382 1.387 . S
C1386 C1387 1.387 . S
C1386 H1390 0.950 . S
C1386 C1395 1.390 . S
C1387 C1386 1.387 . S
C1387 C1389 1.387 . S
H1388 C1395 0.950 . S
C1389 C1387 1.387 . S
C1389 C1391 1.390 . S
C1389 H1393 0.950 . S
H1390 C1386 0.950 . S
C1391 C1389 1.390 . S
C1391 C1392 1.387 . S
C1391 H1394 0.950 . S
C1392 C1391 1.387 . S
C1392 C1395 1.387 . S
H1393 C1389 0.950 . S
H1394 C1391 0.950 . S
C1395 C1386 1.390 . S
C1395 H1388 0.950 . S
C1395 C1392 1.387 . S
C1396 C1397 1.387 . S
C1396 H1400 0.950 . S
C1396 C1405 1.390 . S
C1397 C1396 1.387 . S
C1397 C1399 1.387 . S
H1398 C1405 0.950 . S
C1399 C1397 1.387 . S
C1399 C1401 1.390 . S
C1399 H1403 0.950 . S
H1400 C1396 0.950 . S
C1401 C1399 1.390 . S
C1401 C1402 1.387 . S
C1401 H1404 0.950 . S
C1402 C1401 1.387 . S
C1402 C1405 1.387 . S
H1403 C1399 0.950 . S
H1404 C1401 0.950 . S
C1405 C1396 1.390 . S
C1405 H1398 0.950 . S
C1405 C1402 1.387 . S
C1406 C1407 1.387 . S
C1406 H1410 0.950 . S
C1406 C1415 1.390 . S
C1407 C1406 1.387 . S
C1407 C1409 1.387 . S
H1408 C1415 0.950 . S
C1409 C1407 1.387 . S
C1409 C1411 1.390 . S
C1409 H1413 0.950 . S
H1410 C1406 0.950 . S
C1411 C1409 1.390 . S
C1411 C1412 1.387 . S
C1411 H1414 0.950 . S
C1412 C1411 1.387 . S
C1412 C1415 1.387 . S
H1413 C1409 0.950 . S
H1414 C1411 0.950 . S
C1415 C1406 1.390 . S
C1415 H1408 0.950 . S
C1415 C1412 1.387 . S
C817 C107 1.383 . S
C822 C33 1.385 . S
C827 C5 1.381 . S
C832 C67 1.382 . S
C837 C39 1.381 . S
C842 C101 1.382 . S
C847 C135 1.382 . S
C852 C73 1.381 . S
C857 C175 1.382 . S
C862 C169 1.384 . S
C867 C209 1.383 . S
C872 C203 1.385 . S
C877 C237 1.383 . S
C882 C243 1.382 . S
C887 C141 1.381 . S
C892 C271 1.382 . S
C897 C305 1.382 . S
C902 C617 1.381 . S
C907 C339 1.383 . S
C912 C651 1.381 . S
C917 C685 1.381 . S
C922 C373 1.382 . S
C927 C583 1.381 . S
C932 C407 1.383 . S
C937 C753 1.381 . S
C942 C441 1.382 . S
C947 C475 1.383 . S
C952 C549 1.381 . S
C957 C509 1.385 . S
C962 C787 1.384 . S
C967 C719 1.381 . S
C972 C543 1.383 . S
C977 C311 1.384 . S
C982 C577 1.385 . S
C987 C611 1.385 . S
C992 C515 1.383 . S
C997 C413 1.384 . S
C1002 C645 1.385 . S
C1007 C447 1.384 . S
C1012 C679 1.385 . S
C1017 C481 1.384 . S
C1022 C713 1.385 . S
C1027 C379 1.381 . S
C1032 C747 1.383 . S
C1037 C277 1.381 . S
C1042 C781 1.382 . S
C1047 C345 1.384 . S
C1052 C815 1.385 . S
C1057 C224 1.922 . S
C1062 C20 1.922 . S
C1067 C54 1.922 . S
C1072 C258 1.922 . S
C1077 C156 1.922 . S
C1082 C88 1.922 . S
C1087 C190 1.922 . S
C1092 C122 1.922 . S
C1097 C360 1.922 . S
C1102 C292 1.922 . S
C1107 C326 1.922 . S
C1112 C394 1.922 . S
C1117 C428 1.922 . S
C1122 C496 1.922 . S
C1127 C530 1.922 . S
C1132 C462 1.922 . S
C1137 C564 1.922 . S
C1142 C598 1.922 . S
C1147 C632 1.922 . S
C1152 C802 1.922 . S
C1157 C666 1.922 . S
C1162 C734 1.922 . S
C1167 C768 1.922 . S
C1172 C700 1.922 . S
C1177 C2 1.374 . S
C1182 C281 1.306 . S
C1187 C36 1.374 . S
C1192 C315 1.306 . S
C1197 C349 1.305 . S
C1202 C70 1.374 . S
C1207 C383 1.305 . S
C1212 C104 1.374 . S
C1217 C138 1.375 . S
C1222 C417 1.308 . S
C1227 C451 1.304 . S
C1232 C172 1.373 . S
C1237 C206 1.374 . S
C1242 C485 1.305 . S
C1247 C519 1.304 . S
C1252 C240 1.373 . S
C1257 C274 1.375 . S
C1262 C553 1.308 . S
C1267 C791 1.304 . S
C1272 C308 1.373 . S
C1277 C342 1.374 . S
C1282 C723 1.306 . S
C1287 C376 1.374 . S
C1292 C757 1.305 . S
C1297 C587 1.304 . S
C1302 C410 1.373 . S
C1307 C444 1.375 . S
C1312 C621 1.308 . S
C1317 C478 1.375 . S
C1322 C655 1.308 . S
C1327 C512 1.373 . S
C1332 C689 1.304 . S
C1337 C546 1.375 . S
C1342 C9 1.308 . S
C1347 C580 1.375 . S
C1352 C145 1.307 . S
C1357 C614 1.374 . S
C1362 C179 1.304 . S
C1367 C213 1.305 . S
C1372 C648 1.374 . S
C1377 C682 1.375 . S
C1382 C247 1.307 . S
C1387 C77 1.307 . S
C1392 C716 1.375 . S
C1397 C111 1.304 . S
C1402 C750 1.373 . S
C1407 C784 1.375 . S
C1412 C43 1.308 . S
