# Generated by pormake.
# Topology uoz, (4)-cn, num edge types: 1
# Building blocks:
#     Node 0, Type 0, BuildingBlock: GALJAG_clean_sbu_0, # of connection points: 4
#     Node 1, Type 0, BuildingBlock: GALJAG_clean_sbu_0, # of connection points: 4
#     Node 2, Type 0, BuildingBlock: GALJAG_clean_sbu_0, # of connection points: 4
#     Node 3, Type 0, BuildingBlock: GALJAG_clean_sbu_0, # of connection points: 4
#     Node 4, Type 0, BuildingBlock: GALJAG_clean_sbu_0, # of connection points: 4
#     Node 5, Type 0, BuildingBlock: GALJAG_clean_sbu_0, # of connection points: 4
#     Node 6, Type 0, BuildingBlock: GALJAG_clean_sbu_0, # of connection points: 4
#     Node 7, Type 0, BuildingBlock: GALJAG_clean_sbu_0, # of connection points: 4
#     Node 8, Type 0, BuildingBlock: GALJAG_clean_sbu_0, # of connection points: 4
#     Node 9, Type 0, BuildingBlock: GALJAG_clean_sbu_0, # of connection points: 4
#     Node 10, Type 0, BuildingBlock: GALJAG_clean_sbu_0, # of connection points: 4
#     Node 11, Type 0, BuildingBlock: GALJAG_clean_sbu_0, # of connection points: 4
#     Node 12, Type 0, BuildingBlock: GALJAG_clean_sbu_0, # of connection points: 4
#     Node 13, Type 0, BuildingBlock: GALJAG_clean_sbu_0, # of connection points: 4
#     Node 14, Type 0, BuildingBlock: GALJAG_clean_sbu_0, # of connection points: 4
#     Node 15, Type 0, BuildingBlock: GALJAG_clean_sbu_0, # of connection points: 4
#     Edge 16, Type (0, 0), BuildingBlock: UVAHIK_clean_linker_0, # of connection points: 2
#     Edge 17, Type (0, 0), BuildingBlock: UVAHIK_clean_linker_0, # of connection points: 2
#     Edge 18, Type (0, 0), BuildingBlock: UVAHIK_clean_linker_0, # of connection points: 2
#     Edge 19, Type (0, 0), BuildingBlock: UVAHIK_clean_linker_0, # of connection points: 2
#     Edge 20, Type (0, 0), BuildingBlock: UVAHIK_clean_linker_0, # of connection points: 2
#     Edge 21, Type (0, 0), BuildingBlock: UVAHIK_clean_linker_0, # of connection points: 2
#     Edge 22, Type (0, 0), BuildingBlock: UVAHIK_clean_linker_0, # of connection points: 2
#     Edge 23, Type (0, 0), BuildingBlock: UVAHIK_clean_linker_0, # of connection points: 2
#     Edge 24, Type (0, 0), BuildingBlock: UVAHIK_clean_linker_0, # of connection points: 2
#     Edge 25, Type (0, 0), BuildingBlock: UVAHIK_clean_linker_0, # of connection points: 2
#     Edge 26, Type (0, 0), BuildingBlock: UVAHIK_clean_linker_0, # of connection points: 2
#     Edge 27, Type (0, 0), BuildingBlock: UVAHIK_clean_linker_0, # of connection points: 2
#     Edge 28, Type (0, 0), BuildingBlock: UVAHIK_clean_linker_0, # of connection points: 2
#     Edge 29, Type (0, 0), BuildingBlock: UVAHIK_clean_linker_0, # of connection points: 2
#     Edge 30, Type (0, 0), BuildingBlock: UVAHIK_clean_linker_0, # of connection points: 2
#     Edge 31, Type (0, 0), BuildingBlock: UVAHIK_clean_linker_0, # of connection points: 2
#     Edge 32, Type (0, 0), BuildingBlock: UVAHIK_clean_linker_0, # of connection points: 2
#     Edge 33, Type (0, 0), BuildingBlock: UVAHIK_clean_linker_0, # of connection points: 2
#     Edge 34, Type (0, 0), BuildingBlock: UVAHIK_clean_linker_0, # of connection points: 2
#     Edge 35, Type (0, 0), BuildingBlock: UVAHIK_clean_linker_0, # of connection points: 2
#     Edge 36, Type (0, 0), BuildingBlock: UVAHIK_clean_linker_0, # of connection points: 2
#     Edge 37, Type (0, 0), BuildingBlock: UVAHIK_clean_linker_0, # of connection points: 2
#     Edge 38, Type (0, 0), BuildingBlock: UVAHIK_clean_linker_0, # of connection points: 2
#     Edge 39, Type (0, 0), BuildingBlock: UVAHIK_clean_linker_0, # of connection points: 2
#     Edge 40, Type (0, 0), BuildingBlock: UVAHIK_clean_linker_0, # of connection points: 2
#     Edge 41, Type (0, 0), BuildingBlock: UVAHIK_clean_linker_0, # of connection points: 2
#     Edge 42, Type (0, 0), BuildingBlock: UVAHIK_clean_linker_0, # of connection points: 2
#     Edge 43, Type (0, 0), BuildingBlock: UVAHIK_clean_linker_0, # of connection points: 2
#     Edge 44, Type (0, 0), BuildingBlock: UVAHIK_clean_linker_0, # of connection points: 2
#     Edge 45, Type (0, 0), BuildingBlock: UVAHIK_clean_linker_0, # of connection points: 2
#     Edge 46, Type (0, 0), BuildingBlock: UVAHIK_clean_linker_0, # of connection points: 2
#     Edge 47, Type (0, 0), BuildingBlock: UVAHIK_clean_linker_0, # of connection points: 2
# Relax obj value: 0.135
# Max RMSD: 0.159
# Mean RMSD: 0.159
data_MOF--net-uoz--node1-GALJAG_clean_sbu_0--edge1-UVAHIK_clean_linker_0
_symmetry_space_group_name_H-M    P1
_symmetry_Int_Tables_number       1
_symmetry_cell_setting            triclinic
loop_
_symmetry_equiv_pos_as_xyz
'x, y, z'
_cell_length_a     82.653908
_cell_length_b     82.592923
_cell_length_c     24.457345
_cell_angle_alpha  89.991633
_cell_angle_beta   90.029257
_cell_angle_gamma 90.001043
loop_
_atom_site_label
_atom_site_type_symbol
_atom_site_fract_x
_atom_site_fract_y
_atom_site_fract_z
_atom_type_partial_charge
In0 In 0.99824 0.58849 0.29054 0.0
O1 O 0.99443 0.57643 0.20806 0.0
O2 O 0.00667 0.56303 0.26991 0.0
C3 C 0.97212 0.60723 0.27079 0.0
C4 C 0.99516 0.57125 0.38389 0.0
C5 C 0.02393 0.60775 0.26814 0.0
O6 O 0.9753 0.59459 0.24414 0.0
O7 O 0.9818 0.61019 0.30953 0.0
O8 O 0.01607 0.60905 0.31217 0.0
O9 O 0.01911 0.5966 0.2372 0.0
C10 C 0.00122 0.56336 0.22177 0.0
O11 O 0.00838 0.57758 0.36922 0.0
O12 O 0.98327 0.57469 0.35361 0.0
In13 In 0.65606 0.74388 0.55614 0.0
O14 O 0.67308 0.73151 0.49601 0.0
O15 O 0.6746 0.75706 0.50412 0.0
C16 C 0.63555 0.71863 0.55665 0.0
C17 C 0.67395 0.74637 0.64877 0.0
C18 C 0.63522 0.7658 0.51561 0.0
O19 O 0.64956 0.71794 0.53645 0.0
O20 O 0.63213 0.73187 0.57992 0.0
O21 O 0.63935 0.76587 0.56549 0.0
O22 O 0.64153 0.75475 0.48716 0.0
C23 C 0.67981 0.74446 0.48111 0.0
O24 O 0.66868 0.75855 0.62336 0.0
O25 O 0.6691 0.73303 0.63004 0.0
In26 In 0.50019 0.40856 0.79009 0.0
O27 O 0.51188 0.4292 0.74329 0.0
O28 O 0.48617 0.42768 0.74334 0.0
C29 C 0.52493 0.38878 0.76398 0.0
C30 C 0.50062 0.42533 0.885 0.0
C31 C 0.47592 0.38821 0.76415 0.0
O32 O 0.51933 0.39937 0.73217 0.0
O33 O 0.51831 0.3883 0.81058 0.0
O34 O 0.48152 0.38894 0.81228 0.0
O35 O 0.48243 0.39777 0.73061 0.0
C36 C 0.49861 0.43519 0.72768 0.0
O37 O 0.48771 0.42019 0.86361 0.0
O38 O 0.51334 0.42078 0.86108 0.0
In39 In 0.84194 0.25197 0.05237 0.0
O40 O 0.82768 0.26372 0.98341 0.0
O41 O 0.82103 0.23994 0.00775 0.0
C42 C 0.86294 0.27692 0.05228 0.0
C43 C 0.82379 0.25074 0.14463 0.0
C44 C 0.86149 0.22851 0.01403 0.0
O45 O 0.84857 0.27812 0.03553 0.0
O46 O 0.86654 0.26329 0.07239 0.0
O47 O 0.85894 0.23029 0.06471 0.0
O48 O 0.85426 0.23851 0.98367 0.0
C49 C 0.81842 0.25178 0.97645 0.0
O50 O 0.8298 0.23829 0.12289 0.0
O51 O 0.82801 0.26383 0.12241 0.0
In52 In 0.99845 0.4056 0.77602 0.0
O53 O 0.01041 0.41723 0.70163 0.0
O54 O 0.98477 0.41716 0.70473 0.0
C55 C 0.02505 0.38824 0.80171 0.0
C56 C -0.00112 0.42986 0.84928 0.0
C57 C 0.97317 0.38538 0.79103 0.0
O58 O 0.01802 0.38669 0.75607 0.0
O59 O 0.01895 0.39875 0.83272 0.0
O60 O 0.97247 0.40031 0.80148 0.0
O61 O 0.98632 0.38079 0.76995 0.0
C62 C 0.99733 0.42192 0.68022 0.0
O63 O 0.99418 0.41578 0.86146 0.0
O64 O 0.00334 0.43165 0.80042 0.0
In65 In 0.83941 0.75055 0.04385 0.0
O66 O 0.82048 0.73678 0.09257 0.0
O67 O 0.81876 0.76246 0.0896 0.0
C68 C 0.86039 0.72708 0.07271 0.0
C69 C 0.82267 0.7499 0.94887 0.0
C70 C 0.85861 0.77604 0.06631 0.0
O71 O 0.85181 0.73477 0.10636 0.0
O72 O 0.85837 0.73105 0.02321 0.0
O73 O 0.85982 0.76836 0.02173 0.0
O74 O 0.84757 0.77112 0.09763 0.0
C75 C 0.8129 0.74933 0.10687 0.0
O76 O 0.82781 0.76288 0.96981 0.0
O77 O 0.82721 0.73724 0.97329 0.0
In78 In 0.50024 0.5918 0.27789 0.0
O79 O 0.51128 0.57616 0.34453 0.0
O80 O 0.48681 0.57171 0.32245 0.0
C81 C 0.52569 0.61189 0.28838 0.0
C82 C 0.49982 0.5743 0.18398 0.0
C83 C 0.47699 0.61226 0.31181 0.0
O84 O 0.52605 0.59726 0.30306 0.0
O85 O 0.51275 0.61622 0.26507 0.0
O86 O 0.48038 0.61063 0.26162 0.0
O87 O 0.48522 0.60357 0.3438 0.0
C88 C 0.49865 0.56792 0.3523 0.0
O89 O 0.48712 0.57921 0.20711 0.0
O90 O 0.51268 0.57935 0.20562 0.0
In91 In 0.65855 0.24571 0.54052 0.0
O92 O 0.67136 0.23231 0.47123 0.0
O93 O 0.66968 0.25786 0.46548 0.0
C94 C 0.63844 0.2208 0.5614 0.0
C95 C 0.68506 0.24721 0.60353 0.0
C96 C 0.63849 0.26989 0.57035 0.0
O97 O 0.63763 0.22868 0.5171 0.0
O98 O 0.64953 0.22526 0.59335 0.0
O99 O 0.64767 0.26258 0.60318 0.0
O100 O 0.63945 0.26516 0.52127 0.0
C101 C 0.67535 0.24496 0.44568 0.0
O102 O 0.67891 0.2596 0.58164 0.0
O103 O 0.67775 0.23411 0.59392 0.0
In104 In 0.33737 0.25026 0.53958 0.0
O105 O 0.32508 0.26396 0.47002 0.0
O106 O 0.32812 0.23863 0.4607 0.0
C107 C 0.35772 0.27403 0.5704 0.0
C108 C 0.31 0.25038 0.59813 0.0
C109 C 0.35616 0.22494 0.56799 0.0
O110 O 0.35712 0.2691 0.52145 0.0
O111 O 0.34795 0.26719 0.60246 0.0
O112 O 0.34405 0.22951 0.5951 0.0
O113 O 0.35869 0.23288 0.5246 0.0
C114 C 0.32209 0.25152 0.44193 0.0
O115 O 0.31546 0.23776 0.57572 0.0
O116 O 0.3184 0.26297 0.59119 0.0
In117 In 0.15774 0.74918 0.03461 0.0
O118 O 0.17101 0.73519 0.9677 0.0
O119 O 0.16821 0.76045 0.95669 0.0
C120 C 0.13587 0.7269 0.06627 0.0
C121 C 0.18339 0.74726 0.10159 0.0
C122 C 0.13991 0.77588 0.05369 0.0
O123 O 0.13879 0.72951 0.01625 0.0
O124 O 0.14393 0.73543 0.09913 0.0
O125 O 0.15263 0.77243 0.07951 0.0
O126 O 0.13627 0.76606 0.01592 0.0
C127 C 0.1744 0.74748 0.93943 0.0
O128 O 0.17865 0.7604 0.08084 0.0
O129 O 0.1752 0.73498 0.08839 0.0
In130 In 0.1547 0.2457 0.0516 0.0
O131 O 0.16703 0.25884 0.12298 0.0
O132 O 0.16931 0.23335 0.11903 0.0
C133 C 0.13503 0.26949 0.0163 0.0
C134 C 0.17769 0.24652 0.97405 0.0
C135 C 0.1338 0.22065 0.05137 0.0
O136 O 0.13771 0.26722 0.06671 0.0
O137 O 0.1422 0.2598 0.98472 0.0
O138 O 0.14813 0.21955 0.03418 0.0
O139 O 0.1302 0.23422 0.07193 0.0
C140 C 0.17342 0.24626 0.14265 0.0
O141 O 0.16813 0.23475 0.97945 0.0
O142 O 0.17565 0.25788 0.00776 0.0
In143 In 0.3411 0.75146 0.54714 0.0
O144 O 0.3292 0.73879 0.62004 0.0
O145 O 0.3273 0.76432 0.61534 0.0
C146 C 0.36197 0.72798 0.51742 0.0
C147 C 0.31569 0.74936 0.4794 0.0
C148 C 0.36071 0.77702 0.52995 0.0
O149 O 0.36064 0.73244 0.56671 0.0
O150 O 0.35278 0.73523 0.48445 0.0
O151 O 0.34941 0.77303 0.49817 0.0
O152 O 0.36199 0.76833 0.57233 0.0
C153 C 0.32314 0.75153 0.63967 0.0
O154 O 0.32233 0.76266 0.49128 0.0
O155 O 0.32191 0.73707 0.50171 0.0
In156 In 0.49435 0.09035 0.79773 0.0
O157 O 0.50762 0.07845 0.86947 0.0
O158 O 0.48209 0.07681 0.86799 0.0
C159 C 0.51709 0.11127 0.7624 0.0
C160 C 0.49633 0.06579 0.72611 0.0
C161 C 0.46832 0.10976 0.7897 0.0
O162 O 0.51474 0.10872 0.81278 0.0
O163 O 0.50803 0.10335 0.73077 0.0
O164 O 0.46947 0.0963 0.76584 0.0
O165 O 0.48013 0.11329 0.8204 0.0
C166 C 0.49506 0.07261 0.89099 0.0
O167 O 0.48349 0.07368 0.73391 0.0
O168 O 0.50826 0.07034 0.75431 0.0
In169 In 0.00181 0.90954 0.2892 0.0
O170 O 0.99011 0.92069 0.36501 0.0
O171 O 0.01549 0.92328 0.35562 0.0
C172 C 0.97737 0.88972 0.25947 0.0
C173 C -0.00116 0.93408 0.2178 0.0
C174 C 0.02837 0.89085 0.27948 0.0
O175 O 0.98154 0.89129 0.30894 0.0
O176 O 0.98534 0.89818 0.22627 0.0
O177 O 0.02741 0.90498 0.26032 0.0
O178 O 0.01616 0.88633 0.30658 0.0
C179 C 0.00303 0.92694 0.3827 0.0
O180 O 0.00745 0.9218 0.20825 0.0
O181 O 0.99157 0.9339 0.26305 0.0
In182 In 0.5043 0.90647 0.28588 0.0
O183 O 0.5164 0.92018 0.2158 0.0
O184 O 0.49088 0.91811 0.21399 0.0
C185 C 0.52999 0.88657 0.29268 0.0
C186 C 0.50291 0.93159 0.35534 0.0
C187 C 0.48154 0.8859 0.32349 0.0
O188 O 0.51878 0.88413 0.25841 0.0
O189 O 0.52841 0.89922 0.32097 0.0
O190 O 0.49119 0.89347 0.35409 0.0
O191 O 0.48329 0.88864 0.27294 0.0
C192 C 0.50337 0.92416 0.19265 0.0
O193 O 0.49063 0.92643 0.33019 0.0
O194 O 0.51583 0.92403 0.34559 0.0
In195 In 0.99746 0.09253 0.77349 0.0
O196 O -0.00067 0.08278 0.86062 0.0
O197 O 0.99579 0.06594 0.796 0.0
C198 C 0.02284 0.11251 0.79123 0.0
C199 C 0.99811 0.0765 0.67712 0.0
C200 C 0.97045 0.10965 0.79562 0.0
O201 O 0.02331 0.09757 0.80151 0.0
O202 O 0.0099 0.11724 0.76912 0.0
O203 O 0.97832 0.11164 0.75183 0.0
O204 O 0.9759 0.09874 0.82653 0.0
C205 C 0.99761 0.06819 0.84654 0.0
O206 O 0.98512 0.08039 0.70084 0.0
O207 O 0.01073 0.08193 0.69968 0.0
C208 C 0.11957 0.71469 0.14124 0.0
C209 C 0.12414 0.71475 0.08594 0.0
C210 C 0.10892 0.70301 0.16122 0.0
C211 C 0.07852 0.67268 0.11738 0.0
H212 H 0.08573 0.65543 0.26299 0.0
C213 C 0.04373 0.61752 0.19895 0.0
C214 C 0.03683 0.61905 0.2512 0.0
C215 C 0.05482 0.62893 0.17996 0.0
C216 C 0.08351 0.66024 0.22246 0.0
H217 H 0.12112 0.70268 0.008 0.0
H218 H 0.10277 0.68191 0.04314 0.0
H219 H 0.1042 0.67571 0.22616 0.0
H220 H 0.03652 0.63344 0.32529 0.0
H221 H 0.05618 0.65339 0.29215 0.0
H222 H 0.05798 0.65693 0.11352 0.0
C223 C 0.10717 0.69111 0.07093 0.0
C224 C 0.09405 0.67189 0.20132 0.0
C225 C 0.11773 0.70295 0.05077 0.0
C226 C 0.04167 0.63195 0.28489 0.0
C227 C 0.05291 0.64333 0.26597 0.0
C228 C 0.06808 0.66091 0.13834 0.0
C229 C 0.1027 0.69096 0.12653 0.0
C230 C 0.09165 0.67831 0.14856 0.0
C231 C 0.05936 0.64207 0.21291 0.0
C232 C 0.07046 0.65459 0.1911 0.0
H233 H 0.1242 0.72373 0.16927 0.0
H234 H 0.10548 0.70353 0.20391 0.0
H235 H 0.07611 0.67754 0.07706 0.0
H236 H 0.0403 0.60769 0.17204 0.0
H237 H 0.05979 0.62751 0.13925 0.0
C238 C 0.55413 0.87808 0.34618 0.0
C239 C 0.54301 0.87481 0.30418 0.0
C240 C 0.56506 0.86628 0.36333 0.0
C241 C 0.57024 0.8219 0.3649 0.0
H242 H 0.61234 0.83306 0.42411 0.0
C243 C 0.61719 0.77481 0.43986 0.0
C244 C 0.6242 0.77784 0.49121 0.0
C245 C 0.6074 0.78641 0.41484 0.0
C246 C 0.60057 0.82981 0.408 0.0
H247 H 0.53515 0.85689 0.24517 0.0
H248 H 0.55466 0.83631 0.27406 0.0
H249 H 0.59615 0.85381 0.37898 0.0
H250 H 0.6264 0.79529 0.55694 0.0
H251 H 0.60943 0.8158 0.51254 0.0
H252 H 0.57492 0.7978 0.39331 0.0
C253 C 0.55464 0.84791 0.29469 0.0
C254 C 0.59127 0.84168 0.38215 0.0
C255 C 0.54357 0.85973 0.27773 0.0
C256 C 0.62111 0.79264 0.51741 0.0
C257 C 0.61151 0.80438 0.49191 0.0
C258 C 0.57966 0.80999 0.39009 0.0
C259 C 0.56527 0.85093 0.33858 0.0
C260 C 0.57586 0.83795 0.36104 0.0
C261 C 0.60463 0.80137 0.4403 0.0
C262 C 0.5948 0.8139 0.41254 0.0
H263 H 0.55399 0.88957 0.3675 0.0
H264 H 0.57285 0.86902 0.39771 0.0
H265 H 0.55834 0.81862 0.35003 0.0
H266 H 0.61935 0.76348 0.41878 0.0
H267 H 0.6023 0.78383 0.37497 0.0
C268 C 0.45481 0.36718 0.78483 0.0
C269 C 0.46307 0.3769 0.74691 0.0
C270 C 0.44279 0.35643 0.76716 0.0
C271 C 0.41607 0.34769 0.64806 0.0
H272 H 0.41314 0.30503 0.71338 0.0
C273 C 0.37901 0.29512 0.55347 0.0
C274 C 0.36925 0.28638 0.59002 0.0
C275 C 0.39009 0.30654 0.57315 0.0
C276 C 0.41375 0.31695 0.69504 0.0
H277 H 0.46535 0.3829 0.66087 0.0
H278 H 0.44485 0.364 0.63014 0.0
H279 H 0.43298 0.32434 0.74802 0.0
H280 H 0.3634 0.28271 0.67565 0.0
H281 H 0.38278 0.30248 0.70975 0.0
H282 H 0.39705 0.3401 0.5943 0.0
C283 C 0.44725 0.36488 0.67356 0.0
C284 C 0.42506 0.32805 0.71505 0.0
C285 C 0.45912 0.37566 0.6912 0.0
C286 C 0.37075 0.28926 0.64643 0.0
C287 C 0.38191 0.30051 0.66605 0.0
C288 C 0.40488 0.33654 0.62774 0.0
C289 C 0.4389 0.35514 0.71123 0.0
C290 C 0.42641 0.34354 0.69165 0.0
C291 C 0.39171 0.30924 0.62968 0.0
C292 C 0.40364 0.32106 0.65096 0.0
H293 H 0.45759 0.36793 0.82804 0.0
H294 H 0.43646 0.34923 0.79736 0.0
H295 H 0.41655 0.35962 0.62972 0.0
H296 H 0.3781 0.29312 0.50981 0.0
H297 H 0.39759 0.31305 0.54425 0.0
C298 C 0.8758 0.21594 0.93506 0.0
C299 C 0.87208 0.21581 0.99112 0.0
C300 C 0.88569 0.20401 0.9125 0.0
C301 C 0.90009 0.16254 0.93317 0.0
H302 H 0.9347 0.17533 0.83521 0.0
C303 C 0.95028 0.11853 0.86514 0.0
C304 C 0.95696 0.12023 0.81264 0.0
C305 C 0.93886 0.12957 0.88438 0.0
C306 C 0.92491 0.17149 0.86165 0.0
H307 H 0.87572 0.20304 0.06754 0.0
H308 H 0.89303 0.18199 0.02784 0.0
H309 H 0.91722 0.19592 0.87508 0.0
H310 H 0.9564 0.13442 0.73815 0.0
H311 H 0.93605 0.15354 0.77118 0.0
H312 H 0.90765 0.13811 0.91945 0.0
C313 C 0.88822 0.19137 0.00147 0.0
C314 C 0.91496 0.18332 0.88474 0.0
C315 C 0.87841 0.20344 0.02422 0.0
C316 C 0.9515 0.13285 0.77887 0.0
C317 C 0.93995 0.14386 0.79802 0.0
C318 C 0.90996 0.15069 0.9097 0.0
C319 C 0.89199 0.19159 0.94538 0.0
C320 C 0.90251 0.17897 0.92097 0.0
C321 C 0.93373 0.14254 0.85144 0.0
C322 C 0.92257 0.15502 0.87391 0.0
H323 H 0.87108 0.22531 0.90845 0.0
H324 H 0.88825 0.20439 0.86908 0.0
H325 H 0.89043 0.15883 0.96034 0.0
H326 H 0.9543 0.10896 0.89226 0.0
H327 H 0.93453 0.12827 0.92593 0.0
C328 C 0.04437 0.37929 0.87381 0.0
C329 C 0.03839 0.37769 0.82027 0.0
C330 C 0.05573 0.36838 0.89423 0.0
C331 C 0.08632 0.33828 0.85566 0.0
H332 H 0.07694 0.3199 0.99818 0.0
C333 C 0.12078 0.28297 0.93892 0.0
C334 C 0.12439 0.28239 0.99502 0.0
C335 C 0.11082 0.2951 0.91788 0.0
C336 C 0.0799 0.32509 0.95876 0.0
H337 H 0.04008 0.36377 0.74539 0.0
H338 H 0.06019 0.34468 0.78109 0.0
H339 H 0.059 0.34037 0.95983 0.0
H340 H 0.1205 0.29411 0.07314 0.0
H341 H 0.10329 0.31558 0.03626 0.0
H342 H 0.1073 0.32313 0.85467 0.0
C343 C 0.056 0.35441 0.80716 0.0
C344 C 0.06959 0.33678 0.93672 0.0
C345 C 0.04449 0.3653 0.78678 0.0
C346 C 0.11785 0.29423 0.02976 0.0
C347 C 0.10794 0.30647 0.00861 0.0
C348 C 0.09672 0.32667 0.87789 0.0
C349 C 0.06148 0.35567 0.86148 0.0
C350 C 0.07265 0.34345 0.88486 0.0
C351 C 0.1043 0.30704 0.95236 0.0
C352 C 0.09358 0.31985 0.92959 0.0
H353 H 0.03995 0.38875 0.90061 0.0
H354 H 0.05992 0.36979 0.93594 0.0
H355 H 0.08906 0.34336 0.81589 0.0
H356 H 0.12557 0.27396 0.91111 0.0
H357 H 0.10804 0.29495 0.87461 0.0
C358 C 0.95407 0.87097 0.27776 0.0
C359 C 0.96454 0.87859 0.24069 0.0
C360 C 0.94201 0.86046 0.25884 0.0
C361 C 0.91982 0.84875 0.13191 0.0
H362 H 0.90973 0.81005 0.21485 0.0
C363 C 0.88179 0.79496 0.04783 0.0
C364 C 0.86982 0.78902 0.08329 0.0
C365 C 0.89293 0.80654 0.06619 0.0
C366 C 0.91237 0.82088 0.19145 0.0
H367 H 0.9708 0.88105 0.15496 0.0
H368 H 0.95028 0.86243 0.12228 0.0
H369 H 0.92993 0.82894 0.24955 0.0
H370 H 0.85993 0.79073 0.16533 0.0
H371 H 0.8794 0.81071 0.19718 0.0
H372 H 0.90248 0.84034 0.07316 0.0
C373 C 0.95094 0.86485 0.16573 0.0
C374 C 0.92387 0.83175 0.21146 0.0
C375 C 0.96281 0.87546 0.18455 0.0
C376 C 0.86903 0.79505 0.13699 0.0
C377 C 0.88023 0.80642 0.15542 0.0
C378 C 0.90846 0.83775 0.11161 0.0
C379 C 0.94033 0.85724 0.20252 0.0
C380 C 0.92776 0.84584 0.18195 0.0
C381 C 0.89238 0.81217 0.12044 0.0
C382 C 0.9046 0.82374 0.14126 0.0
H383 H 0.9551 0.87323 0.32125 0.0
H384 H 0.93392 0.85498 0.28833 0.0
H385 H 0.92227 0.85961 0.10853 0.0
H386 H 0.88269 0.79051 0.00628 0.0
H387 H 0.90224 0.81076 0.03847 0.0
C388 C 0.37481 0.71221 0.44236 0.0
C389 C 0.37346 0.71548 0.49855 0.0
C390 C 0.38571 0.70064 0.42334 0.0
C391 C 0.4228 0.67858 0.46178 0.0
H392 H 0.41068 0.65093 0.34022 0.0
C393 C 0.46252 0.62547 0.38922 0.0
C394 C 0.46469 0.62368 0.33255 0.0
C395 C 0.45121 0.63642 0.40975 0.0
C396 C 0.41428 0.65868 0.37383 0.0
H397 H 0.3824 0.70914 0.57901 0.0
H398 H 0.40139 0.68862 0.5458 0.0
H399 H 0.39108 0.67008 0.37722 0.0
H400 H 0.45665 0.63187 0.25287 0.0
H401 H 0.43676 0.65109 0.28887 0.0
H402 H 0.44598 0.66706 0.4585 0.0
C403 C 0.39414 0.6952 0.5164 0.0
C404 C 0.40307 0.66965 0.39508 0.0
C405 C 0.38322 0.70688 0.53548 0.0
C406 C 0.45521 0.63298 0.29672 0.0
C407 C 0.4438 0.64392 0.31733 0.0
C408 C 0.43399 0.66755 0.44069 0.0
C409 C 0.3955 0.69197 0.46004 0.0
C410 C 0.40722 0.67981 0.4391 0.0
C411 C 0.44176 0.6458 0.3741 0.0
C412 C 0.42987 0.65753 0.39635 0.0
H413 H 0.36752 0.71871 0.41278 0.0
H414 H 0.38665 0.6987 0.37966 0.0
H415 H 0.42649 0.6864 0.49508 0.0
H416 H 0.46962 0.61844 0.41793 0.0
H417 H 0.44977 0.63744 0.45363 0.0
C418 C 0.61435 0.20317 0.5418 0.0
C419 C 0.62677 0.2081 0.57725 0.0
C420 C 0.60278 0.1919 0.55922 0.0
C421 C 0.59466 0.16138 0.66825 0.0
H422 H 0.54982 0.16864 0.62863 0.0
C423 C 0.54132 0.12912 0.77592 0.0
C424 C 0.52951 0.12249 0.74125 0.0
C425 C 0.55331 0.13931 0.75478 0.0
C426 C 0.56231 0.1664 0.6397 0.0
H427 H 0.63694 0.20501 0.65841 0.0
H428 H 0.6167 0.18581 0.68902 0.0
H429 H 0.57076 0.18638 0.59196 0.0
H430 H 0.52081 0.12147 0.65759 0.0
H431 H 0.54161 0.13936 0.62099 0.0
H432 H 0.58608 0.14162 0.71705 0.0
C433 C 0.61599 0.19026 0.64744 0.0
C434 C 0.57433 0.1765 0.61845 0.0
C435 C 0.62757 0.20138 0.62995 0.0
C436 C 0.52977 0.1264 0.68533 0.0
C437 C 0.54162 0.1367 0.66437 0.0
C438 C 0.58262 0.15139 0.6899 0.0
C439 C 0.60337 0.18545 0.61252 0.0
C440 C 0.59066 0.17417 0.63268 0.0
C441 C 0.55357 0.14319 0.69877 0.0
C442 C 0.56633 0.15384 0.67599 0.0
H443 H 0.61347 0.20814 0.50093 0.0
H444 H 0.59336 0.18829 0.53098 0.0
H445 H 0.60712 0.15902 0.67932 0.0
H446 H 0.5414 0.1263 0.81917 0.0
H447 H 0.56232 0.14427 0.78228 0.0
C448 C 0.94569 0.37969 0.82879 0.0
C449 C 0.96068 0.37395 0.81015 0.0
C450 C 0.93487 0.36929 0.85512 0.0
C451 C 0.92673 0.32568 0.88497 0.0
H452 H 0.90316 0.34356 0.00814 0.0
C453 C 0.89151 0.28526 0.03515 0.0
C454 C 0.8751 0.28944 0.03977 0.0
C455 C 0.90251 0.29606 0.01156 0.0
C456 C 0.90968 0.33843 0.97384 0.0
H457 H 0.97593 0.35272 0.80274 0.0
H458 H 0.95736 0.33467 0.84994 0.0
H459 H 0.92068 0.36108 0.95395 0.0
H460 H 0.85751 0.30854 0.02709 0.0
H461 H 0.87683 0.32759 0.98738 0.0
H462 H 0.91594 0.30294 0.90603 0.0
C463 C 0.95369 0.3471 0.84333 0.0
C464 C 0.9196 0.34848 0.94236 0.0
C465 C 0.96439 0.35746 0.81627 0.0
C466 C 0.87011 0.30502 0.02407 0.0
C467 C 0.88115 0.31592 0.00136 0.0
C468 C 0.917 0.3156 0.91698 0.0
C469 C 0.93893 0.35295 0.8642 0.0
C470 C 0.92819 0.34226 0.89726 0.0
C471 C 0.89732 0.31132 0.99315 0.0
C472 C 0.90834 0.3219 0.96155 0.0
H473 H 0.94249 0.39235 0.82438 0.0
H474 H 0.92345 0.37415 0.86924 0.0
H475 H 0.9329 0.32048 0.85012 0.0
H476 H 0.89567 0.27329 0.0466 0.0
H477 H 0.91496 0.29231 0.00613 0.0
C478 C 0.45587 0.13745 0.79288 0.0
C479 C 0.45515 0.12118 0.77636 0.0
C480 C 0.44469 0.14868 0.77258 0.0
C481 C 0.41842 0.15501 0.65315 0.0
H482 H 0.39846 0.18848 0.74133 0.0
C483 C 0.38141 0.20815 0.56102 0.0
C484 C 0.36705 0.21215 0.58857 0.0
C485 C 0.39221 0.19695 0.58372 0.0
C486 C 0.40391 0.17915 0.71623 0.0
H487 H 0.44166 0.10371 0.72824 0.0
H488 H 0.42212 0.1232 0.69355 0.0
H489 H 0.41673 0.16899 0.78426 0.0
H490 H 0.35253 0.20726 0.66063 0.0
H491 H 0.37125 0.18773 0.69976 0.0
H492 H 0.40548 0.16504 0.58526 0.0
C493 C 0.43148 0.12738 0.72119 0.0
C494 C 0.41446 0.16809 0.74074 0.0
C495 C 0.4426 0.11619 0.74146 0.0
C496 C 0.36353 0.20448 0.63847 0.0
C497 C 0.37431 0.19338 0.66117 0.0
C498 C 0.40795 0.16611 0.6286 0.0
C499 C 0.43265 0.1438 0.73537 0.0
C500 C 0.42171 0.15581 0.70954 0.0
C501 C 0.38886 0.18964 0.63445 0.0
C502 C 0.40047 0.17821 0.65996 0.0
H503 H 0.46547 0.14163 0.81955 0.0
H504 H 0.44589 0.16128 0.78417 0.0
H505 H 0.42403 0.14582 0.62788 0.0
H506 H 0.38445 0.21392 0.5226 0.0
H507 H 0.40338 0.19433 0.56231 0.0
C508 C 0.53437 0.63987 0.31315 0.0
C509 C 0.53821 0.62345 0.30627 0.0
C510 C 0.54496 0.65017 0.34099 0.0
C511 C 0.57876 0.64812 0.44117 0.0
H512 H 0.58227 0.69402 0.41034 0.0
C513 C 0.62831 0.69077 0.52642 0.0
C514 C 0.62335 0.70615 0.54423 0.0
C515 C 0.61718 0.68009 0.50306 0.0
C516 C 0.58123 0.68124 0.41975 0.0
H517 H 0.55658 0.60514 0.31929 0.0
H518 H 0.57546 0.62325 0.36516 0.0
H519 H 0.56547 0.67699 0.35196 0.0
H520 H 0.60278 0.72216 0.55421 0.0
H521 H 0.58333 0.70352 0.5125 0.0
H522 H 0.59508 0.65241 0.50781 0.0
C523 C 0.564 0.6281 0.3513 0.0
C524 C 0.57161 0.67147 0.38632 0.0
C525 C 0.55329 0.61775 0.32433 0.0
C526 C 0.6069 0.71032 0.54119 0.0
C527 C 0.59582 0.69975 0.51688 0.0
C528 C 0.58858 0.65787 0.47403 0.0
C529 C 0.55974 0.64431 0.36176 0.0
C530 C 0.57025 0.65475 0.39652 0.0
C531 C 0.60097 0.68473 0.49627 0.0
C532 C 0.58988 0.67451 0.46365 0.0
H533 H 0.52274 0.64454 0.30013 0.0
H534 H 0.54116 0.66251 0.34853 0.0
H535 H 0.57773 0.6354 0.45127 0.0
H536 H 0.64094 0.68729 0.52817 0.0
H537 H 0.62146 0.6686 0.48737 0.0
C538 C 0.114 0.7917 0.04834 0.0
C539 C 0.12948 0.78949 0.07078 0.0
C540 C 0.10359 0.80347 0.06979 0.0
C541 C 0.08086 0.82078 0.14848 0.0
H542 H 0.09705 0.86215 0.19973 0.0
C543 C 0.04132 0.86341 0.27881 0.0
C544 C 0.04175 0.87987 0.26445 0.0
C545 C 0.05273 0.85263 0.25731 0.0
C546 C 0.09229 0.8507 0.18539 0.0
H547 H 0.14641 0.7982 0.13191 0.0
H548 H 0.12832 0.81847 0.16944 0.0
H549 H 0.11517 0.8437 0.15214 0.0
H550 H 0.05482 0.89807 0.21821 0.0
H551 H 0.07452 0.87934 0.18046 0.0
H552 H 0.05787 0.82797 0.18047 0.0
C553 C 0.12419 0.81133 0.13501 0.0
C554 C 0.10272 0.84005 0.15849 0.0
C555 C 0.13456 0.79962 0.11362 0.0
C556 C 0.0542 0.88546 0.2302 0.0
C557 C 0.06554 0.87471 0.20865 0.0
C558 C 0.07041 0.83146 0.17522 0.0
C559 C 0.10849 0.81324 0.114 0.0
C560 C 0.09716 0.82493 0.1399 0.0
C561 C 0.06475 0.85811 0.221 0.0
C562 C 0.07601 0.84653 0.19412 0.0
H563 H 0.10977 0.78405 0.01532 0.0
H564 H 0.09164 0.80481 0.05215 0.0
H565 H 0.07622 0.80914 0.13537 0.0
H566 H 0.03187 0.85876 0.30513 0.0
H567 H 0.05196 0.83996 0.26845 0.0
C568 C 0.95154 0.61635 0.20296 0.0
C569 C 0.95913 0.61843 0.25388 0.0
C570 C 0.94047 0.62775 0.18368 0.0
C571 C 0.92817 0.67055 0.20414 0.0
H572 H 0.89192 0.65808 0.11253 0.0
C573 C 0.87633 0.71387 0.14654 0.0
C574 C 0.87198 0.71462 0.09105 0.0
C575 C 0.88711 0.70211 0.16513 0.0
C576 C 0.90209 0.66171 0.13765 0.0
H577 H 0.96061 0.63373 0.32561 0.0
H578 H 0.94073 0.65338 0.29307 0.0
H579 H 0.90954 0.63723 0.15074 0.0
H580 H 0.87541 0.70364 0.01145 0.0
H581 H 0.89415 0.68269 0.04445 0.0
H582 H 0.92031 0.69501 0.19222 0.0
C583 C 0.94372 0.64319 0.26712 0.0
C584 C 0.91222 0.6498 0.15954 0.0
C585 C 0.95499 0.63186 0.28609 0.0
C586 C 0.8786 0.70333 0.0544 0.0
C587 C 0.88923 0.69135 0.07327 0.0
C588 C 0.9179 0.68242 0.18291 0.0
C589 C 0.93653 0.64144 0.21518 0.0
C590 C 0.92542 0.65406 0.19304 0.0
C591 C 0.8936 0.6907 0.1288 0.0
C592 C 0.90479 0.67811 0.14946 0.0
H593 H 0.95458 0.60617 0.17699 0.0
H594 H 0.93543 0.62607 0.14321 0.0
H595 H 0.9384 0.67436 0.22863 0.0
H596 H 0.87145 0.72243 0.17575 0.0
H597 H 0.89018 0.70179 0.20819 0.0
C598 C 0.05025 0.11789 0.83032 0.0
C599 C 0.03538 0.12379 0.81113 0.0
C600 C 0.06115 0.1282 0.85672 0.0
C601 C 0.06976 0.17181 0.88532 0.0
H602 H 0.09338 0.15401 0.00857 0.0
C603 C 0.10522 0.21224 0.03487 0.0
C604 C 0.12165 0.2081 0.03897 0.0
C605 C 0.09419 0.20142 0.01152 0.0
C606 C 0.08685 0.15911 0.97424 0.0
H607 H 0.02038 0.14518 0.80307 0.0
H608 H 0.03907 0.16307 0.85046 0.0
H609 H 0.07564 0.1365 0.95505 0.0
H610 H 0.13927 0.18907 0.0256 0.0
H611 H 0.11988 0.16998 0.98637 0.0
H612 H 0.08074 0.19452 0.90575 0.0
C613 C 0.04261 0.15059 0.84416 0.0
C614 C 0.0768 0.14907 0.94315 0.0
C615 C 0.03184 0.14032 0.81701 0.0
C616 C 0.12665 0.19255 0.02298 0.0
C617 C 0.11558 0.18163 0.00055 0.0
C618 C 0.0796 0.18188 0.91697 0.0
C619 C 0.05729 0.14461 0.86534 0.0
C620 C 0.06817 0.15527 0.89804 0.0
C621 C 0.09937 0.18619 0.99288 0.0
C622 C 0.08827 0.17561 0.96157 0.0
H623 H 0.05332 0.10519 0.82612 0.0
H624 H 0.0725 0.12323 0.8711 0.0
H625 H 0.06359 0.177 0.85042 0.0
H626 H 0.10105 0.22419 0.04654 0.0
H627 H 0.08171 0.20514 0.00647 0.0
C628 C 0.61845 0.29206 0.55178 0.0
C629 C 0.62729 0.28266 0.58909 0.0
C630 C 0.60782 0.30403 0.57055 0.0
C631 C 0.59783 0.32836 0.69445 0.0
H632 H 0.557 0.33492 0.61964 0.0
C633 C 0.54475 0.36638 0.78269 0.0
C634 C 0.53756 0.37731 0.746 0.0
C635 C 0.55618 0.35514 0.7641 0.0
C636 C 0.56841 0.33327 0.64072 0.0
H637 H 0.63187 0.27828 0.67518 0.0
H638 H 0.61309 0.29869 0.70779 0.0
H639 H 0.576 0.31477 0.58524 0.0
H640 H 0.53679 0.38517 0.66133 0.0
H641 H 0.55654 0.36551 0.62908 0.0
H642 H 0.58997 0.34666 0.75065 0.0
C643 C 0.6146 0.29722 0.66409 0.0
C644 C 0.57935 0.3218 0.62087 0.0
C645 C 0.6253 0.28541 0.64536 0.0
C646 C 0.54212 0.37691 0.69065 0.0
C647 C 0.55335 0.36559 0.67204 0.0
C648 C 0.58681 0.3397 0.71464 0.0
C649 C 0.60573 0.30672 0.627 0.0
C650 C 0.59421 0.31919 0.64745 0.0
C651 C 0.56043 0.35454 0.70844 0.0
C652 C 0.57202 0.3423 0.68787 0.0
H653 H 0.6198 0.29024 0.50817 0.0
H654 H 0.60135 0.31127 0.54077 0.0
H655 H 0.60928 0.3269 0.71545 0.0
H656 H 0.54145 0.36643 0.82554 0.0
H657 H 0.56143 0.34669 0.79295 0.0
C658 C 0.37053 0.79806 0.46512 0.0
C659 C 0.37217 0.79007 0.51552 0.0
C660 C 0.38201 0.80934 0.44814 0.0
C661 C 0.42459 0.8211 0.47082 0.0
H662 H 0.41237 0.85806 0.38199 0.0
C663 C 0.46982 0.87035 0.40132 0.0
C664 C 0.46913 0.87492 0.346 0.0
C665 C 0.45797 0.86031 0.4237 0.0
C666 C 0.41595 0.84771 0.40642 0.0
H667 H 0.38684 0.78802 0.5886 0.0
H668 H 0.40682 0.80814 0.55955 0.0
H669 H 0.39141 0.84089 0.4215 0.0
H670 H 0.45554 0.87255 0.27065 0.0
H671 H 0.43462 0.85506 0.31011 0.0
H672 H 0.44915 0.82815 0.45614 0.0
C673 C 0.39679 0.8054 0.5326 0.0
C674 C 0.40396 0.83786 0.42908 0.0
C675 C 0.3853 0.79398 0.54949 0.0
C676 C 0.45637 0.8692 0.31338 0.0
C677 C 0.44437 0.85929 0.33601 0.0
C678 C 0.43657 0.83107 0.44863 0.0
C679 C 0.3954 0.81305 0.48131 0.0
C680 C 0.40812 0.82429 0.46098 0.0
C681 C 0.44508 0.85476 0.39141 0.0
C682 C 0.43236 0.84436 0.41571 0.0
H683 H 0.36058 0.79528 0.43785 0.0
H684 H 0.38064 0.81474 0.40806 0.0
H685 H 0.42827 0.81062 0.49437 0.0
H686 H 0.47952 0.87457 0.42748 0.0
H687 H 0.45875 0.85711 0.46659 0.0
C688 C 0.00562 0.53392 0.20576 0.0
C689 C 0.0024 0.54942 0.18479 0.0
C690 C 0.00608 0.52056 0.17092 0.0
C691 C 0.01337 0.50848 0.03079 0.0
H692 H 0.98482 0.4723 0.06101 0.0
C693 C 0.00152 0.45913 0.87106 0.0
C694 C -0.00048 0.44314 0.88912 0.0
C695 C 0.0024 0.47178 0.90861 0.0
C696 C 0.99309 0.48215 0.05244 0.0
H697 H 0.99754 0.56328 0.1113 0.0
H698 H -0.00126 0.53989 0.05009 0.0
H699 H 0.98605 0.49499 0.12474 0.0
H700 H 0.997 0.4277 0.96024 0.0
H701 H -0.00092 0.44975 0.0262 0.0
H702 H 0.02074 0.49565 0.95926 0.0
C703 C 0.00076 0.53811 0.09346 0.0
C704 C 0.99372 0.49514 0.08882 0.0
C705 C -0.0 0.55143 0.1284 0.0
C706 C 0.99843 0.43997 0.94534 0.0
C707 C -0.00045 0.45261 0.98302 0.0
C708 C 0.01295 0.4954 0.99485 0.0
C709 C 0.00364 0.52258 0.11457 0.0
C710 C 0.00371 0.50847 0.07784 0.0
C711 C 0.00155 0.46867 0.96506 0.0
C712 C 0.00263 0.48218 0.00483 0.0
H713 H 0.00746 0.53208 0.24918 0.0
H714 H 0.00839 0.50867 0.18791 0.0
H715 H 0.0213 0.5186 0.02196 0.0
H716 H 0.00228 0.4619 0.82783 0.0
H717 H 0.00357 0.48402 0.89324 0.0
C718 C 0.79228 0.73386 0.1599 0.0
C719 C 0.79844 0.74876 0.14177 0.0
C720 C 0.7788 0.73339 0.19417 0.0
C721 C 0.75694 0.75812 0.29365 0.0
H722 H 0.7223 0.72712 0.27162 0.0
C723 C 0.6988 0.75981 0.42152 0.0
C724 C 0.69276 0.7449 0.43998 0.0
C725 C 0.71122 0.7603 0.38305 0.0
C726 C 0.73197 0.73573 0.27857 0.0
H727 H 0.79525 0.77482 0.14415 0.0
H728 H 0.77166 0.77399 0.20392 0.0
H729 H 0.74495 0.72791 0.20759 0.0
H730 H 0.69481 0.71882 0.43275 0.0
H731 H 0.71677 0.71965 0.36617 0.0
H732 H 0.74415 0.76584 0.36488 0.0
C733 C 0.77735 0.7627 0.19214 0.0
C734 C 0.7449 0.73619 0.24192 0.0
C735 C 0.79079 0.76317 0.15779 0.0
C736 C 0.69925 0.73048 0.41906 0.0
C737 C 0.71173 0.73096 0.38074 0.0
C738 C 0.74407 0.75763 0.33034 0.0
C739 C 0.77131 0.74782 0.21095 0.0
C740 C 0.75749 0.7474 0.24917 0.0
C741 C 0.71789 0.74588 0.36257 0.0
C742 C 0.73145 0.74643 0.32318 0.0
H743 H 0.79796 0.72257 0.14809 0.0
H744 H 0.77447 0.72177 0.20852 0.0
H745 H 0.76663 0.76671 0.30068 0.0
H746 H 0.69392 0.77112 0.43672 0.0
H747 H 0.71554 0.77197 0.36916 0.0
C748 C 0.48304 0.54717 0.40422 0.0
C749 C 0.49777 0.55502 0.39355 0.0
C750 C 0.48224 0.53494 0.44344 0.0
C751 C 0.50413 0.51812 0.56231 0.0
H752 H 0.4798 0.47921 0.52875 0.0
C753 C 0.51184 0.45832 0.67997 0.0
C754 C 0.49773 0.44974 0.69321 0.0
C755 C 0.51105 0.47193 0.64635 0.0
C756 C 0.48646 0.4901 0.53895 0.0
H757 H 0.52318 0.55631 0.41516 0.0
H758 H 0.52187 0.53471 0.48281 0.0
H759 H 0.4799 0.50162 0.46392 0.0
H760 H 0.47169 0.44868 0.68248 0.0
H761 H 0.47032 0.47248 0.6234 0.0
H762 H 0.51098 0.50638 0.63683 0.0
C763 C 0.51088 0.5382 0.46175 0.0
C764 C 0.48651 0.50293 0.50192 0.0
C765 C 0.51166 0.55048 0.42275 0.0
C766 C 0.48277 0.45506 0.67275 0.0
C767 C 0.48198 0.46862 0.63884 0.0
C768 C 0.50415 0.50525 0.5992 0.0
C769 C 0.49616 0.53029 0.47248 0.0
C770 C 0.49546 0.51701 0.513 0.0
C771 C 0.49612 0.47712 0.62519 0.0
C772 C 0.49543 0.49108 0.5876 0.0
H773 H 0.47213 0.55052 0.38244 0.0
H774 H 0.47069 0.5292 0.4513 0.0
H775 H 0.51091 0.52894 0.57241 0.0
H776 H 0.52353 0.45446 0.69527 0.0
H777 H 0.52215 0.47817 0.63593 0.0
C778 C 0.79642 0.23754 0.9261 0.0
C779 C 0.80561 0.2516 0.93474 0.0
C780 C 0.78421 0.23737 0.88676 0.0
C781 C 0.75661 0.26404 0.81301 0.0
H782 H 0.75163 0.22729 0.71572 0.0
C783 C 0.7081 0.26259 0.64406 0.0
C784 C 0.69963 0.24797 0.63793 0.0
C785 C 0.72182 0.26331 0.67718 0.0
C786 C 0.75279 0.23757 0.74294 0.0
H787 H 0.8094 0.27645 0.90909 0.0
H788 H 0.78796 0.27615 0.84029 0.0
H789 H 0.77425 0.22802 0.77979 0.0
H790 H 0.69881 0.22265 0.66121 0.0
H791 H 0.72258 0.22397 0.71993 0.0
H792 H 0.73499 0.27346 0.77713 0.0
C793 C 0.79017 0.26532 0.86414 0.0
C794 C 0.76574 0.23799 0.77947 0.0
C795 C 0.80245 0.26546 0.90329 0.0
C796 C 0.70515 0.23407 0.66513 0.0
C797 C 0.71882 0.23481 0.69843 0.0
C798 C 0.74362 0.26359 0.77666 0.0
C799 C 0.78094 0.25127 0.85559 0.0
C800 C 0.76768 0.25117 0.81513 0.0
C801 C 0.72728 0.24944 0.70492 0.0
C802 C 0.7415 0.25028 0.74158 0.0
H803 H 0.79862 0.22668 0.94982 0.0
H804 H 0.77714 0.22644 0.88141 0.0
H805 H 0.75773 0.27425 0.84055 0.0
H806 H 0.70414 0.27347 0.62323 0.0
H807 H 0.72821 0.27471 0.68083 0.0
C808 C 0.19263 0.23368 0.89693 0.0
C809 C 0.19021 0.24703 0.93146 0.0
C810 C 0.20468 0.23408 0.85708 0.0
C811 C 0.23004 0.2618 0.777 0.0
H812 H 0.25891 0.22493 0.76593 0.0
C813 C 0.29047 0.26413 0.66036 0.0
C814 C 0.29513 0.25029 0.63105 0.0
C815 C 0.27675 0.26378 0.69351 0.0
C816 C 0.2508 0.23521 0.76787 0.0
H817 H 0.19827 0.27133 0.95123 0.0
H818 H 0.21939 0.27201 0.88159 0.0
H819 H 0.23648 0.22417 0.83041 0.0
H820 H 0.28893 0.22542 0.61183 0.0
H821 H 0.2648 0.22489 0.66903 0.0
H822 H 0.24439 0.27287 0.71458 0.0
C823 C 0.2119 0.2613 0.88509 0.0
C824 C 0.23798 0.23478 0.80484 0.0
C825 C 0.1999 0.26087 0.92512 0.0
C826 C 0.28566 0.23622 0.63438 0.0
C827 C 0.27191 0.2359 0.66729 0.0
C828 C 0.24282 0.2622 0.73981 0.0
C829 C 0.21445 0.24788 0.85094 0.0
C830 C 0.22757 0.24811 0.81003 0.0
C831 C 0.26742 0.24961 0.69769 0.0
C832 C 0.2534 0.24896 0.73519 0.0
H833 H 0.18529 0.22288 0.90089 0.0
H834 H 0.20632 0.22363 0.8309 0.0
H835 H 0.22204 0.27216 0.77978 0.0
H836 H 0.29759 0.27512 0.65854 0.0
H837 H 0.27372 0.27448 0.71697 0.0
C838 C 0.29565 0.76238 0.41748 0.0
C839 C 0.30181 0.74831 0.44202 0.0
C840 C 0.28252 0.76146 0.3819 0.0
C841 C 0.26054 0.73346 0.29227 0.0
H842 H 0.22699 0.7662 0.3009 0.0
C843 C 0.20185 0.73169 0.16305 0.0
C844 C 0.19712 0.74648 0.13968 0.0
C845 C 0.21452 0.73118 0.20077 0.0
C846 C 0.23634 0.75705 0.29778 0.0
H847 H 0.29913 0.72227 0.44891 0.0
H848 H 0.27601 0.72068 0.38688 0.0
H849 H 0.24921 0.7666 0.36633 0.0
H850 H 0.20205 0.77227 0.13637 0.0
H851 H 0.22422 0.77135 0.20186 0.0
H852 H 0.24764 0.72398 0.2234 0.0
C853 C 0.28146 0.73238 0.39476 0.0
C854 C 0.24904 0.75728 0.33517 0.0
C855 C 0.29462 0.7333 0.4304 0.0
C856 C 0.2054 0.7607 0.15397 0.0
C857 C 0.21801 0.7602 0.19168 0.0
C858 C 0.24779 0.73322 0.25483 0.0
C859 C 0.27528 0.74647 0.37027 0.0
C860 C 0.26137 0.74562 0.33237 0.0
C861 C 0.2226 0.74546 0.21579 0.0
C862 C 0.2357 0.74514 0.25687 0.0
H863 H 0.30102 0.7741 0.42555 0.0
H864 H 0.27817 0.77249 0.36293 0.0
H865 H 0.26997 0.72441 0.28886 0.0
H866 H 0.19564 0.72055 0.15269 0.0
H867 H 0.21777 0.71968 0.21902 0.0
C868 C 0.48779 0.95401 0.4005 0.0
C869 C 0.50226 0.94539 0.39318 0.0
C870 C 0.48722 0.96715 0.43627 0.0
C871 C 0.51322 0.99701 0.50513 0.0
H872 H 0.47631 0.00207 0.60149 0.0
C873 C 0.51168 0.04356 0.68064 0.0
C874 C 0.49722 0.05225 0.68728 0.0
C875 C 0.5124 0.03057 0.64428 0.0
C876 C 0.48661 0.0009 0.57442 0.0
H877 H 0.52744 0.9436 0.41746 0.0
H878 H 0.52638 0.96642 0.48055 0.0
H879 H 0.47732 0.97918 0.53872 0.0
H880 H 0.47224 0.05435 0.66102 0.0
H881 H 0.47354 0.03173 0.59718 0.0
H882 H 0.52252 0.01872 0.54103 0.0
C883 C 0.51556 0.9632 0.45807 0.0
C884 C 0.48719 0.98781 0.5385 0.0
C885 C 0.51613 0.95009 0.42223 0.0
C886 C 0.48353 0.0478 0.65682 0.0
C887 C 0.48424 0.03482 0.62053 0.0
C888 C 0.51265 0.01009 0.54112 0.0
C889 C 0.50109 0.97186 0.46541 0.0
C890 C 0.50049 0.98575 0.50347 0.0
C891 C 0.49867 0.02605 0.61404 0.0
C892 C 0.49933 0.01216 0.57604 0.0
H893 H 0.47693 0.95067 0.37839 0.0
H894 H 0.47596 0.97374 0.4406 0.0
H895 H 0.52351 0.99585 0.47803 0.0
H896 H 0.52241 0.04672 0.70377 0.0
H897 H 0.52363 0.0239 0.64047 0.0
C898 C -0.00105 0.03873 0.86693 0.0
C899 C 0.99762 0.05473 0.8858 0.0
C900 C -0.00101 0.02588 0.90381 0.0
C901 C 0.9851 0.01354 0.03752 0.0
H902 H 0.0195 0.98169 0.02971 0.0
C903 C 0.99211 0.96285 0.1978 0.0
C904 C 0.99773 0.94776 0.17967 0.0
C905 C 0.99184 0.97607 0.1623 0.0
C906 C 0.00965 0.99031 0.03192 0.0
H907 H 0.99512 0.06992 0.9576 0.0
H908 H 0.99489 0.04727 0.02233 0.0
H909 H 0.01951 0.00457 0.96688 0.0
H910 H 0.00696 0.93437 0.11021 0.0
H911 H 0.00588 0.95723 0.04746 0.0
H912 H 0.9749 -0.00089 0.10129 0.0
C913 C 0.99599 0.04478 0.97901 0.0
C914 C 0.00975 0.00345 0.99618 0.0
C915 C 0.9962 0.05768 0.94212 0.0
C916 C 0.00271 0.94595 0.12523 0.0
C917 C 0.0022 0.95908 0.08948 0.0
C918 C 0.98485 0.00026 0.07279 0.0
C919 C 0.99747 0.02881 0.96006 0.0
C920 C 0.99748 0.01514 0.99871 0.0
C921 C 0.99696 0.97436 0.10778 0.0
C922 C 0.99713 0.98848 0.07035 0.0
H923 H 6e-05 0.03614 0.82367 0.0
H924 H 2e-05 0.01363 0.88835 0.0
H925 H 0.97543 0.02238 0.03973 0.0
H926 H 0.9883 0.96456 0.23979 0.0
H927 H 0.98797 0.98769 0.17801 0.0
C928 C 0.01124 0.44264 0.6225 0.0
C929 C 0.99686 0.43491 0.63855 0.0
C930 C 0.01073 0.45721 0.59347 0.0
C931 C 0.98461 0.48441 0.51207 0.0
H932 H 0.01218 0.5181 0.57152 0.0
C933 C 0.9797 0.55018 0.43562 0.0
C934 C 0.99439 0.55814 0.42508 0.0
C935 C 0.97946 0.5357 0.46531 0.0
C936 C 0.00451 0.50882 0.55401 0.0
H937 H 0.97068 0.43582 0.63346 0.0
H938 H 0.96981 0.46116 0.58206 0.0
H939 H 0.01326 0.4909 0.60991 0.0
H940 H 0.02024 0.55766 0.44 0.0
H941 H 0.01988 0.53241 0.49119 0.0
H942 H 0.97601 0.50222 0.45562 0.0
C943 C 0.98147 0.45599 0.59218 0.0
C944 C 0.00516 0.49321 0.57596 0.0
C945 C 0.98198 0.44146 0.62155 0.0
C946 C 0.00871 0.55186 0.44766 0.0
C947 C 0.00849 0.53735 0.4771 0.0
C948 C 0.98403 0.50001 0.48983 0.0
C949 C 0.99583 0.46432 0.57951 0.0
C950 C 0.99527 0.4808 0.55512 0.0
C951 C 0.99392 0.52882 0.48492 0.0
C952 C 0.994 0.51242 0.51043 0.0
H953 H 0.0229 0.43792 0.63495 0.0
H954 H 0.02201 0.46318 0.58335 0.0
H955 H 0.97691 0.47509 0.49492 0.0
H956 H 0.96845 0.55473 0.41885 0.0
H957 H 0.96798 0.52967 0.47165 0.0
C958 C 0.80288 0.76421 0.88826 0.0
C959 C 0.80971 0.74966 0.90712 0.0
C960 C 0.78843 0.76409 0.85842 0.0
C961 C 0.75198 0.73901 0.84215 0.0
H962 H 0.74232 0.76779 0.72128 0.0
C963 C 0.69416 0.73328 0.71067 0.0
C964 C 0.68715 0.74746 0.68953 0.0
C965 C 0.7086 0.73399 0.74034 0.0
C966 C 0.74474 0.75985 0.75558 0.0
H967 H 0.80733 0.72351 0.90629 0.0
H968 H 0.78228 0.72329 0.85357 0.0
H969 H 0.76935 0.76785 0.76151 0.0
H970 H 0.68926 0.7736 0.68568 0.0
H971 H 0.71431 0.77488 0.7385 0.0
H972 H 0.7274 0.73105 0.83651 0.0
C973 C 0.78791 0.73482 0.86278 0.0
C974 C 0.76026 0.75983 0.77841 0.0
C975 C 0.80237 0.73494 0.89246 0.0
C976 C 0.69437 0.76246 0.70142 0.0
C977 C 0.70883 0.76317 0.73113 0.0
C978 C 0.73646 0.73906 0.81945 0.0
C979 C 0.78049 0.74941 0.84695 0.0
C980 C 0.7641 0.74934 0.82177 0.0
C981 C 0.71636 0.7489 0.74963 0.0
C982 C 0.73265 0.74943 0.77572 0.0
H983 H 0.80821 0.77576 0.89906 0.0
H984 H 0.78303 0.77555 0.84694 0.0
H985 H 0.75443 0.73103 0.87632 0.0
H986 H 0.68893 0.72154 0.702 0.0
H987 H 0.71408 0.72275 0.75362 0.0
C988 C 0.51432 0.55425 0.12512 0.0
C989 C 0.4997 0.56115 0.14289 0.0
C990 C 0.51432 0.53974 0.0956 0.0
C991 C 0.5108 0.51159 0.01602 0.0
H992 H 0.48136 0.47869 0.07001 0.0
C993 C 0.51534 0.44564 0.94222 0.0
C994 C 0.5007 0.43831 0.9267 0.0
C995 C 0.51533 0.4601 0.97199 0.0
C996 C 0.48957 0.48777 0.05416 0.0
H997 H 0.47358 0.55883 0.14061 0.0
H998 H 0.47357 0.53369 0.08819 0.0
H999 H 0.48077 0.50578 0.10953 0.0
H1000 H 0.47459 0.43985 0.93315 0.0
H1001 H 0.47455 0.46502 0.98512 0.0
H1002 H 0.5196 0.49358 0.96065 0.0
C1003 C 0.48505 0.53929 0.09809 0.0
C1004 C 0.48919 0.50333 0.07663 0.0
C1005 C 0.48505 0.5538 0.12758 0.0
C1006 C 0.48608 0.44516 0.94465 0.0
C1007 C 0.48606 0.45962 0.97445 0.0
C1008 C 0.51118 0.49603 0.99356 0.0
C1009 C 0.4997 0.53183 0.0832 0.0
C1010 C 0.49979 0.51545 0.05781 0.0
C1011 C 0.50067 0.46753 0.98695 0.0
C1012 C 0.50058 0.48391 0.01238 0.0
H1013 H 0.52581 0.55958 0.13646 0.0
H1014 H 0.52583 0.53432 0.085 0.0
H1015 H 0.51901 0.52067 0.00016 0.0
H1016 H 0.52682 0.44065 0.92907 0.0
H1017 H 0.52681 0.46569 0.98198 0.0
C1018 C 0.80407 0.23493 0.2011 0.0
C1019 C 0.81049 0.24995 0.18503 0.0
C1020 C 0.78953 0.23416 0.23029 0.0
C1021 C 0.75228 0.25784 0.25074 0.0
H1022 H 0.74374 0.227 0.36663 0.0
C1023 C 0.69461 0.25967 0.38449 0.0
C1024 C 0.68822 0.24496 0.40364 0.0
C1025 C 0.70893 0.25991 0.35405 0.0
C1026 C 0.74584 0.23551 0.3337 0.0
H1027 H 0.80724 0.27596 0.18989 0.0
H1028 H 0.78204 0.27462 0.2415 0.0
H1029 H 0.77066 0.22838 0.32611 0.0
H1030 H 0.69124 0.21889 0.40282 0.0
H1031 H 0.71601 0.21927 0.34859 0.0
H1032 H 0.72748 0.26496 0.25815 0.0
C1033 C 0.78805 0.26343 0.23061 0.0
C1034 C 0.76131 0.23635 0.31068 0.0
C1035 C 0.80259 0.2642 0.20155 0.0
C1036 C 0.69588 0.23043 0.38874 0.0
C1037 C 0.71018 0.23066 0.35822 0.0
C1038 C 0.73681 0.25698 0.27364 0.0
C1039 C 0.7811 0.2484 0.24391 0.0
C1040 C 0.76474 0.24758 0.26912 0.0
C1041 C 0.71716 0.24544 0.34196 0.0
C1042 C 0.73339 0.24584 0.31555 0.0
H1043 H 0.80983 0.22373 0.18877 0.0
H1044 H 0.78449 0.22238 0.23975 0.0
H1045 H 0.75442 0.2664 0.21798 0.0
H1046 H 0.68904 0.27109 0.39551 0.0
H1047 H 0.71397 0.27152 0.3425 0.0
C1048 C 0.30144 0.26587 0.38502 0.0
C1049 C 0.30958 0.25148 0.39861 0.0
C1050 C 0.28719 0.26542 0.35418 0.0
C1051 C 0.25335 0.23781 0.32665 0.0
H1052 H 0.24075 0.26998 0.2194 0.0
C1053 C 0.19514 0.23255 0.1966 0.0
C1054 C 0.18692 0.24683 0.18236 0.0
C1055 C 0.20976 0.23323 0.22527 0.0
C1056 C 0.24398 0.26104 0.24989 0.0
H1057 H 0.30982 0.22545 0.38715 0.0
H1058 H 0.28509 0.22469 0.33264 0.0
H1059 H 0.26785 0.27082 0.25886 0.0
H1060 H 0.18709 0.27299 0.18975 0.0
H1061 H 0.21244 0.27417 0.24093 0.0
H1062 H 0.22948 0.22809 0.31813 0.0
C1063 C 0.28954 0.2363 0.34675 0.0
C1064 C 0.25956 0.26147 0.27225 0.0
C1065 C 0.30382 0.23675 0.37744 0.0
C1066 C 0.19315 0.26176 0.20011 0.0
C1067 C 0.20778 0.26245 0.22885 0.0
C1068 C 0.23776 0.2374 0.30444 0.0
C1069 C 0.28077 0.25057 0.33639 0.0
C1070 C 0.26444 0.24984 0.31081 0.0
C1071 C 0.21649 0.24822 0.24046 0.0
C1072 C 0.23288 0.249 0.26573 0.0
H1073 H 0.30555 0.27741 0.40084 0.0
H1074 H 0.28073 0.27663 0.34705 0.0
H1075 H 0.25659 0.22887 0.35715 0.0
H1076 H 0.1907 0.22086 0.18329 0.0
H1077 H 0.21616 0.22203 0.23316 0.0
C1078 C 0.3016 0.7656 0.69346 0.0
C1079 C 0.30978 0.75123 0.67996 0.0
C1080 C 0.28701 0.76509 0.7223 0.0
C1081 C 0.2606 0.73887 0.80698 0.0
H1082 H 0.22633 0.76601 0.74903 0.0
C1083 C 0.19523 0.73267 0.88469 0.0
C1084 C 0.18724 0.74722 0.89727 0.0
C1085 C 0.20955 0.7328 0.85423 0.0
C1086 C 0.23578 0.75845 0.76601 0.0
H1087 H 0.30953 0.72512 0.68877 0.0
H1088 H 0.28411 0.72421 0.73934 0.0
H1089 H 0.25331 0.76734 0.70907 0.0
H1090 H 0.18746 0.77321 0.88496 0.0
H1091 H 0.21242 0.77347 0.83202 0.0
H1092 H 0.24312 0.73005 0.86414 0.0
C1093 C 0.28897 0.73589 0.72773 0.0
C1094 C 0.25128 0.75925 0.74324 0.0
C1095 C 0.30356 0.73641 0.69877 0.0
C1096 C 0.19329 0.76179 0.87576 0.0
C1097 C 0.20763 0.76193 0.84538 0.0
C1098 C 0.24511 0.73809 0.82983 0.0
C1099 C 0.28028 0.75019 0.73839 0.0
C1100 C 0.26389 0.74951 0.76354 0.0
C1101 C 0.21621 0.74749 0.83574 0.0
C1102 C 0.2325 0.74788 0.80968 0.0
H1103 H 0.30608 0.77722 0.67959 0.0
H1104 H 0.28079 0.77634 0.73085 0.0
H1105 H 0.27007 0.73132 0.82394 0.0
H1106 H 0.19085 0.72124 0.90056 0.0
H1107 H 0.21564 0.72143 0.84649 0.0
C1108 C 0.51683 0.94523 0.13504 0.0
C1109 C 0.50261 0.93729 0.15157 0.0
C1110 C 0.51602 0.95966 0.10528 0.0
C1111 C 0.48868 0.98607 0.02433 0.0
H1112 H 0.51722 0.02021 0.075 0.0
C1113 C 0.48139 0.05163 0.94846 0.0
C1114 C 0.49568 0.05949 0.93213 0.0
C1115 C 0.48208 0.03722 0.97839 0.0
C1116 C 0.50925 0.01079 0.06006 0.0
H1117 H 0.47642 0.93776 0.14716 0.0
H1118 H 0.475 0.96292 0.0952 0.0
H1119 H 0.51902 0.99332 0.11559 0.0
H1120 H 0.52186 0.05889 0.93702 0.0
H1121 H 0.52308 0.03378 0.98923 0.0
H1122 H 0.47892 0.00355 0.96876 0.0
C1123 C 0.48679 0.95799 0.10505 0.0
C1124 C 0.51033 0.99534 0.08315 0.0
C1125 C 0.4876 0.94355 0.13484 0.0
C1126 C 0.51063 0.05316 0.94918 0.0
C1127 C 0.51133 0.03875 0.97914 0.0
C1128 C 0.4876 0.00153 0.00122 0.0
C1129 C 0.50098 0.96648 0.09136 0.0
C1130 C 0.50007 0.98278 0.06551 0.0
C1131 C 0.49707 0.03035 0.9927 0.0
C1132 C 0.49788 0.01408 0.01879 0.0
H1133 H 0.52859 0.94069 0.14722 0.0
H1134 H 0.52719 0.9657 0.09436 0.0
H1135 H 0.48071 0.97665 0.00938 0.0
H1136 H 0.46967 0.05621 0.93602 0.0
H1137 H 0.47087 0.03124 0.98918 0.0
C1138 C 0.01357 0.05714 0.61827 0.0
C1139 C -0.00135 0.06359 0.63521 0.0
C1140 C 0.01417 0.04261 0.58894 0.0
C1141 C 0.99037 0.00536 0.57132 0.0
H1142 H 0.0208 0.9961 0.45496 0.0
C1143 C 0.98842 0.94653 0.44302 0.0
C1144 C 0.00309 0.94013 0.42366 0.0
C1145 C 0.98818 0.96111 0.47209 0.0
C1146 C 0.0124 0.9984 0.48803 0.0
H1147 H 0.97263 0.06047 0.63128 0.0
H1148 H 0.97367 0.03528 0.57937 0.0
H1149 H 0.01951 0.0233 0.49352 0.0
H1150 H 0.02911 0.9434 0.42284 0.0
H1151 H 0.02875 0.96861 0.47479 0.0
H1152 H 0.98331 0.98047 0.56616 0.0
C1153 C 0.98492 0.04126 0.58975 0.0
C1154 C 0.01161 0.01404 0.50989 0.0
C1155 C 0.98432 0.0558 0.61895 0.0
C1156 C 0.0176 0.94805 0.43707 0.0
C1157 C 0.01737 0.9626 0.46628 0.0
C1158 C 0.9912 0.98972 0.5496 0.0
C1159 C -0.00014 0.03421 0.57603 0.0
C1160 C 0.00053 0.01772 0.55163 0.0
C1161 C 0.00262 0.96958 0.48263 0.0
C1162 C 0.0022 0.98604 0.50757 0.0
H1163 H 0.02483 0.06281 0.63037 0.0
H1164 H 0.02588 0.0375 0.5791 0.0
H1165 H 0.98194 0.00769 0.60427 0.0
H1166 H 0.97702 0.94076 0.4331 0.0
H1167 H 0.97659 0.96614 0.48375 0.0
loop_
_geom_bond_atom_site_label_1
_geom_bond_atom_site_label_2
_geom_bond_distance
_geom_bond_site_symmetry_2
_ccdc_geom_bond_type
In0 O1 2.294 1_455 S
In0 O2 2.326 . S
In0 O6 2.266 1_455 S
In0 O7 2.326 1_455 S
In0 O8 2.266 . S
In0 O9 2.326 . S
In0 O11 2.294 . S
In0 O12 2.326 1_455 S
O1 In0 2.294 1_655 S
O1 C10 1.240 1_655 S
O2 In0 2.326 . S
O2 C10 1.252 . S
C3 O6 1.252 . S
C3 O7 1.260 . S
C4 O11 1.240 1_655 S
C4 O12 1.252 . S
C5 O8 1.252 . S
C5 O9 1.260 . S
O6 In0 2.266 1_655 S
O6 C3 1.252 . S
O7 In0 2.326 1_655 S
O7 C3 1.260 . S
O8 In0 2.266 . S
O8 C5 1.252 . S
O9 In0 2.326 . S
O9 C5 1.260 . S
C10 O1 1.240 1_455 S
C10 O2 1.252 . S
O11 In0 2.294 . S
O11 C4 1.240 1_455 S
O12 In0 2.326 1_655 S
O12 C4 1.252 . S
In13 O14 2.294 . S
In13 O15 2.326 . S
In13 O19 2.266 . S
In13 O20 2.326 . S
In13 O21 2.266 . S
In13 O22 2.326 . S
In13 O24 2.294 . S
In13 O25 2.326 . S
O14 In13 2.294 . S
O14 C23 1.240 . S
O15 In13 2.326 . S
O15 C23 1.252 . S
C16 O19 1.252 . S
C16 O20 1.260 . S
C17 O24 1.240 . S
C17 O25 1.252 . S
C18 O21 1.252 . S
C18 O22 1.260 . S
O19 In13 2.266 . S
O19 C16 1.252 . S
O20 In13 2.326 . S
O20 C16 1.260 . S
O21 In13 2.266 . S
O21 C18 1.252 . S
O22 In13 2.326 . S
O22 C18 1.260 . S
C23 O14 1.240 . S
C23 O15 1.252 . S
O24 In13 2.294 . S
O24 C17 1.240 . S
O25 In13 2.326 . S
O25 C17 1.252 . S
In26 O27 2.294 . S
In26 O28 2.326 . S
In26 O32 2.266 . S
In26 O33 2.326 . S
In26 O34 2.266 . S
In26 O35 2.326 . S
In26 O37 2.294 . S
In26 O38 2.326 . S
O27 In26 2.294 . S
O27 C36 1.240 . S
O28 In26 2.326 . S
O28 C36 1.252 . S
C29 O32 1.252 . S
C29 O33 1.260 . S
C30 O37 1.240 . S
C30 O38 1.252 . S
C31 O34 1.252 . S
C31 O35 1.260 . S
O32 In26 2.266 . S
O32 C29 1.252 . S
O33 In26 2.326 . S
O33 C29 1.260 . S
O34 In26 2.266 . S
O34 C31 1.252 . S
O35 In26 2.326 . S
O35 C31 1.260 . S
C36 O27 1.240 . S
C36 O28 1.252 . S
O37 In26 2.294 . S
O37 C30 1.240 . S
O38 In26 2.326 . S
O38 C30 1.252 . S
In39 O40 2.293 1_554 S
In39 O41 2.326 1_554 S
In39 O45 2.266 1_554 S
In39 O46 2.326 . S
In39 O47 2.266 . S
In39 O48 2.325 1_554 S
In39 O50 2.295 . S
In39 O51 2.327 . S
O40 In39 2.293 1_556 S
O40 C49 1.240 . S
O41 In39 2.326 1_556 S
O41 C49 1.252 . S
C42 O45 1.252 1_554 S
C42 O46 1.260 . S
C43 O50 1.240 . S
C43 O51 1.252 . S
C44 O47 1.252 1_556 S
C44 O48 1.260 . S
O45 In39 2.266 1_556 S
O45 C42 1.252 1_556 S
O46 In39 2.326 . S
O46 C42 1.260 . S
O47 In39 2.266 . S
O47 C44 1.252 1_554 S
O48 In39 2.325 1_556 S
O48 C44 1.260 . S
C49 O40 1.240 . S
C49 O41 1.252 . S
O50 In39 2.295 . S
O50 C43 1.240 . S
O51 In39 2.327 . S
O51 C43 1.252 . S
In52 O53 2.294 . S
In52 O54 2.326 1_455 S
In52 O58 2.266 . S
In52 O59 2.326 . S
In52 O60 2.266 1_455 S
In52 O61 2.326 1_455 S
In52 O63 2.294 1_455 S
In52 O64 2.326 . S
O53 In52 2.294 . S
O53 C62 1.240 1_455 S
O54 In52 2.326 1_655 S
O54 C62 1.252 . S
C55 O58 1.252 . S
C55 O59 1.260 . S
C56 O63 1.240 1_455 S
C56 O64 1.252 . S
C57 O60 1.252 . S
C57 O61 1.260 . S
O58 In52 2.266 . S
O58 C55 1.252 . S
O59 In52 2.326 . S
O59 C55 1.260 . S
O60 In52 2.266 1_655 S
O60 C57 1.252 . S
O61 In52 2.326 1_655 S
O61 C57 1.260 . S
C62 O53 1.240 1_655 S
C62 O54 1.252 . S
O63 In52 2.294 1_655 S
O63 C56 1.240 1_655 S
O64 In52 2.326 . S
O64 C56 1.252 . S
In65 O66 2.294 . S
In65 O67 2.326 . S
In65 O71 2.266 . S
In65 O72 2.326 . S
In65 O73 2.266 . S
In65 O74 2.326 . S
In65 O76 2.309 . S
In65 O77 2.326 . S
O66 In65 2.294 . S
O66 C75 1.240 . S
O67 In65 2.326 . S
O67 C75 1.252 . S
C68 O71 1.252 . S
C68 O72 1.260 . S
C69 O76 1.239 1_556 S
C69 O77 1.252 1_556 S
C70 O73 1.252 . S
C70 O74 1.260 . S
O71 In65 2.266 . S
O71 C68 1.252 . S
O72 In65 2.326 . S
O72 C68 1.260 . S
O73 In65 2.266 . S
O73 C70 1.252 . S
O74 In65 2.326 . S
O74 C70 1.260 . S
C75 O66 1.240 . S
C75 O67 1.252 . S
O76 In65 2.309 . S
O76 C69 1.239 1_554 S
O77 In65 2.326 . S
O77 C69 1.252 1_554 S
In78 O79 2.294 . S
In78 O80 2.326 . S
In78 O84 2.266 . S
In78 O85 2.326 . S
In78 O86 2.266 . S
In78 O87 2.326 . S
In78 O89 2.294 . S
In78 O90 2.326 . S
O79 In78 2.294 . S
O79 C88 1.240 . S
O80 In78 2.326 . S
O80 C88 1.252 . S
C81 O84 1.252 . S
C81 O85 1.260 . S
C82 O89 1.240 . S
C82 O90 1.252 . S
C83 O86 1.252 . S
C83 O87 1.260 . S
O84 In78 2.266 . S
O84 C81 1.252 . S
O85 In78 2.326 . S
O85 C81 1.260 . S
O86 In78 2.266 . S
O86 C83 1.252 . S
O87 In78 2.326 . S
O87 C83 1.260 . S
C88 O79 1.240 . S
C88 O80 1.252 . S
O89 In78 2.294 . S
O89 C82 1.240 . S
O90 In78 2.326 . S
O90 C82 1.252 . S
In91 O92 2.294 . S
In91 O93 2.326 . S
In91 O97 2.266 . S
In91 O98 2.326 . S
In91 O99 2.266 . S
In91 O100 2.326 . S
In91 O102 2.294 . S
In91 O103 2.326 . S
O92 In91 2.294 . S
O92 C101 1.240 . S
O93 In91 2.326 . S
O93 C101 1.252 . S
C94 O97 1.252 . S
C94 O98 1.260 . S
C95 O102 1.240 . S
C95 O103 1.252 . S
C96 O99 1.252 . S
C96 O100 1.260 . S
O97 In91 2.266 . S
O97 C94 1.252 . S
O98 In91 2.326 . S
O98 C94 1.260 . S
O99 In91 2.266 . S
O99 C96 1.252 . S
O100 In91 2.326 . S
O100 C96 1.260 . S
C101 O92 1.240 . S
C101 O93 1.252 . S
O102 In91 2.294 . S
O102 C95 1.240 . S
O103 In91 2.326 . S
O103 C95 1.252 . S
In104 O105 2.294 . S
In104 O106 2.326 . S
In104 O110 2.266 . S
In104 O111 2.326 . S
In104 O112 2.266 . S
In104 O113 2.326 . S
In104 O115 2.294 . S
In104 O116 2.326 . S
O105 In104 2.294 . S
O105 C114 1.240 . S
O106 In104 2.326 . S
O106 C114 1.252 . S
C107 O110 1.252 . S
C107 O111 1.260 . S
C108 O115 1.240 . S
C108 O116 1.252 . S
C109 O112 1.252 . S
C109 O113 1.260 . S
O110 In104 2.266 . S
O110 C107 1.252 . S
O111 In104 2.326 . S
O111 C107 1.260 . S
O112 In104 2.266 . S
O112 C109 1.252 . S
O113 In104 2.326 . S
O113 C109 1.260 . S
C114 O105 1.240 . S
C114 O106 1.252 . S
O115 In104 2.294 . S
O115 C108 1.240 . S
O116 In104 2.326 . S
O116 C108 1.252 . S
In117 O118 2.309 . S
In117 O119 2.326 . S
In117 O123 2.266 . S
In117 O124 2.326 . S
In117 O125 2.266 . S
In117 O126 2.326 . S
In117 O128 2.294 . S
In117 O129 2.326 . S
O118 In117 2.309 . S
O118 C127 1.239 1_554 S
O119 In117 2.326 . S
O119 C127 1.252 1_554 S
C120 O123 1.252 . S
C120 O124 1.260 . S
C121 O128 1.240 . S
C121 O129 1.252 . S
C122 O125 1.252 . S
C122 O126 1.260 . S
O123 In117 2.266 . S
O123 C120 1.252 . S
O124 In117 2.326 . S
O124 C120 1.260 . S
O125 In117 2.266 . S
O125 C122 1.252 . S
O126 In117 2.326 . S
O126 C122 1.260 . S
C127 O118 1.239 1_556 S
C127 O119 1.252 1_556 S
O128 In117 2.294 . S
O128 C121 1.240 . S
O129 In117 2.326 . S
O129 C121 1.252 . S
In130 O131 2.295 . S
In130 O132 2.327 . S
In130 O136 2.266 . S
In130 O137 2.325 1_554 S
In130 O138 2.266 1_554 S
In130 O139 2.326 . S
In130 O141 2.293 1_554 S
In130 O142 2.326 1_554 S
O131 In130 2.295 . S
O131 C140 1.240 . S
O132 In130 2.327 . S
O132 C140 1.252 . S
C133 O136 1.252 1_556 S
C133 O137 1.260 . S
C134 O141 1.240 . S
C134 O142 1.252 . S
C135 O138 1.252 1_554 S
C135 O139 1.260 . S
O136 In130 2.266 . S
O136 C133 1.252 1_554 S
O137 In130 2.325 1_556 S
O137 C133 1.260 . S
O138 In130 2.266 1_556 S
O138 C135 1.252 1_556 S
O139 In130 2.326 . S
O139 C135 1.260 . S
C140 O131 1.240 . S
C140 O132 1.252 . S
O141 In130 2.293 1_556 S
O141 C134 1.240 . S
O142 In130 2.326 1_556 S
O142 C134 1.252 . S
In143 O144 2.294 . S
In143 O145 2.326 . S
In143 O149 2.266 . S
In143 O150 2.326 . S
In143 O151 2.266 . S
In143 O152 2.326 . S
In143 O154 2.294 . S
In143 O155 2.326 . S
O144 In143 2.294 . S
O144 C153 1.240 . S
O145 In143 2.326 . S
O145 C153 1.252 . S
C146 O149 1.252 . S
C146 O150 1.260 . S
C147 O154 1.240 . S
C147 O155 1.252 . S
C148 O151 1.252 . S
C148 O152 1.260 . S
O149 In143 2.266 . S
O149 C146 1.252 . S
O150 In143 2.326 . S
O150 C146 1.260 . S
O151 In143 2.266 . S
O151 C148 1.252 . S
O152 In143 2.326 . S
O152 C148 1.260 . S
C153 O144 1.240 . S
C153 O145 1.252 . S
O154 In143 2.294 . S
O154 C147 1.240 . S
O155 In143 2.326 . S
O155 C147 1.252 . S
In156 O157 2.294 . S
In156 O158 2.326 . S
In156 O162 2.266 . S
In156 O163 2.326 . S
In156 O164 2.266 . S
In156 O165 2.326 . S
In156 O167 2.294 . S
In156 O168 2.326 . S
O157 In156 2.294 . S
O157 C166 1.240 . S
O158 In156 2.326 . S
O158 C166 1.252 . S
C159 O162 1.252 . S
C159 O163 1.260 . S
C160 O167 1.240 . S
C160 O168 1.252 . S
C161 O164 1.252 . S
C161 O165 1.260 . S
O162 In156 2.266 . S
O162 C159 1.252 . S
O163 In156 2.326 . S
O163 C159 1.260 . S
O164 In156 2.266 . S
O164 C161 1.252 . S
O165 In156 2.326 . S
O165 C161 1.260 . S
C166 O157 1.240 . S
C166 O158 1.252 . S
O167 In156 2.294 . S
O167 C160 1.240 . S
O168 In156 2.326 . S
O168 C160 1.252 . S
In169 O170 2.294 1_455 S
In169 O171 2.326 . S
In169 O175 2.266 1_455 S
In169 O176 2.326 1_455 S
In169 O177 2.266 . S
In169 O178 2.326 . S
In169 O180 2.294 . S
In169 O181 2.326 1_455 S
O170 In169 2.294 1_655 S
O170 C179 1.240 1_655 S
O171 In169 2.326 . S
O171 C179 1.252 . S
C172 O175 1.252 . S
C172 O176 1.260 . S
C173 O180 1.240 1_655 S
C173 O181 1.252 . S
C174 O177 1.252 . S
C174 O178 1.260 . S
O175 In169 2.266 1_655 S
O175 C172 1.252 . S
O176 In169 2.326 1_655 S
O176 C172 1.260 . S
O177 In169 2.266 . S
O177 C174 1.252 . S
O178 In169 2.326 . S
O178 C174 1.260 . S
C179 O170 1.240 1_455 S
C179 O171 1.252 . S
O180 In169 2.294 . S
O180 C173 1.240 1_455 S
O181 In169 2.326 1_655 S
O181 C173 1.252 . S
In182 O183 2.294 . S
In182 O184 2.326 . S
In182 O188 2.266 . S
In182 O189 2.326 . S
In182 O190 2.266 . S
In182 O191 2.326 . S
In182 O193 2.294 . S
In182 O194 2.326 . S
O183 In182 2.294 . S
O183 C192 1.240 . S
O184 In182 2.326 . S
O184 C192 1.252 . S
C185 O188 1.252 . S
C185 O189 1.260 . S
C186 O193 1.240 . S
C186 O194 1.252 . S
C187 O190 1.252 . S
C187 O191 1.260 . S
O188 In182 2.266 . S
O188 C185 1.252 . S
O189 In182 2.326 . S
O189 C185 1.260 . S
O190 In182 2.266 . S
O190 C187 1.252 . S
O191 In182 2.326 . S
O191 C187 1.260 . S
C192 O183 1.240 . S
C192 O184 1.252 . S
O193 In182 2.294 . S
O193 C186 1.240 . S
O194 In182 2.326 . S
O194 C186 1.252 . S
In195 O196 2.294 . S
In195 O197 2.326 1_455 S
In195 O201 2.266 . S
In195 O202 2.326 . S
In195 O203 2.266 1_455 S
In195 O204 2.326 1_455 S
In195 O206 2.294 1_455 S
In195 O207 2.326 . S
O196 In195 2.294 . S
O196 C205 1.240 1_455 S
O197 In195 2.326 1_655 S
O197 C205 1.252 . S
C198 O201 1.252 . S
C198 O202 1.260 . S
C199 O206 1.240 1_455 S
C199 O207 1.252 . S
C200 O203 1.252 . S
C200 O204 1.260 . S
O201 In195 2.266 . S
O201 C198 1.252 . S
O202 In195 2.326 . S
O202 C198 1.260 . S
O203 In195 2.266 1_655 S
O203 C200 1.252 . S
O204 In195 2.326 1_655 S
O204 C200 1.260 . S
C205 O196 1.240 1_655 S
C205 O197 1.252 . S
O206 In195 2.294 1_655 S
O206 C199 1.240 1_655 S
O207 In195 2.326 . S
O207 C199 1.252 . S
C208 C209 1.349 . S
C208 C210 1.327 . S
C208 H233 0.950 . S
C209 C208 1.349 . S
C209 C225 1.349 . S
C210 C208 1.327 . S
C210 C229 1.429 . S
C210 H234 0.950 . S
C211 C228 1.574 . S
C211 C230 1.368 . S
C211 H235 0.949 . S
H212 C216 0.949 . S
C213 C214 1.349 . S
C213 C215 1.327 . S
C213 H236 0.950 . S
C214 C213 1.349 . S
C214 C226 1.349 . S
C215 C213 1.327 . S
C215 C231 1.429 . S
C215 H237 0.950 . S
C216 H212 0.949 . S
C216 C224 1.574 . S
C216 C232 1.368 . S
H217 C225 0.950 . S
H218 C223 0.950 . S
H219 C224 0.949 . S
H220 C226 0.950 . S
H221 C227 0.950 . S
H222 C228 0.949 . S
C223 H218 0.950 . S
C223 C225 1.327 . S
C223 C229 1.429 . S
C224 C216 1.574 . S
C224 H219 0.949 . S
C224 C230 1.368 . S
C225 C209 1.349 . S
C225 H217 0.950 . S
C225 C223 1.327 . S
C226 C214 1.349 . S
C226 H220 0.950 . S
C226 C227 1.327 . S
C227 H221 0.950 . S
C227 C226 1.327 . S
C227 C231 1.429 . S
C228 C211 1.574 . S
C228 H222 0.949 . S
C228 C232 1.368 . S
C229 C210 1.429 . S
C229 C223 1.429 . S
C229 C230 1.523 . S
C230 C211 1.368 . S
C230 C224 1.368 . S
C230 C229 1.523 . S
C231 C215 1.429 . S
C231 C227 1.429 . S
C231 C232 1.523 . S
C232 C216 1.368 . S
C232 C228 1.368 . S
C232 C231 1.523 . S
H233 C208 0.950 . S
H234 C210 0.950 . S
H235 C211 0.949 . S
H236 C213 0.950 . S
H237 C215 0.950 . S
C238 C239 1.349 . S
C238 C240 1.327 . S
C238 H263 0.950 . S
C239 C238 1.349 . S
C239 C255 1.349 . S
C240 C238 1.327 . S
C240 C259 1.429 . S
C240 H264 0.950 . S
C241 C258 1.574 . S
C241 C260 1.368 . S
C241 H265 0.949 . S
H242 C246 0.949 . S
C243 C244 1.349 . S
C243 C245 1.327 . S
C243 H266 0.950 . S
C244 C243 1.349 . S
C244 C256 1.349 . S
C245 C243 1.327 . S
C245 C261 1.429 . S
C245 H267 0.950 . S
C246 H242 0.949 . S
C246 C254 1.574 . S
C246 C262 1.368 . S
H247 C255 0.950 . S
H248 C253 0.950 . S
H249 C254 0.949 . S
H250 C256 0.950 . S
H251 C257 0.950 . S
H252 C258 0.949 . S
C253 H248 0.950 . S
C253 C255 1.327 . S
C253 C259 1.429 . S
C254 C246 1.574 . S
C254 H249 0.949 . S
C254 C260 1.368 . S
C255 C239 1.349 . S
C255 H247 0.950 . S
C255 C253 1.327 . S
C256 C244 1.349 . S
C256 H250 0.950 . S
C256 C257 1.327 . S
C257 H251 0.950 . S
C257 C256 1.327 . S
C257 C261 1.429 . S
C258 C241 1.574 . S
C258 H252 0.949 . S
C258 C262 1.368 . S
C259 C240 1.429 . S
C259 C253 1.429 . S
C259 C260 1.523 . S
C260 C241 1.368 . S
C260 C254 1.368 . S
C260 C259 1.523 . S
C261 C245 1.429 . S
C261 C257 1.429 . S
C261 C262 1.523 . S
C262 C246 1.368 . S
C262 C258 1.368 . S
C262 C261 1.523 . S
H263 C238 0.950 . S
H264 C240 0.950 . S
H265 C241 0.949 . S
H266 C243 0.950 . S
H267 C245 0.950 . S
C268 C269 1.349 . S
C268 C270 1.327 . S
C268 H293 0.950 . S
C269 C268 1.349 . S
C269 C285 1.349 . S
C270 C268 1.327 . S
C270 C289 1.429 . S
C270 H294 0.950 . S
C271 C288 1.574 . S
C271 C290 1.368 . S
C271 H295 0.949 . S
H272 C276 0.949 . S
C273 C274 1.349 . S
C273 C275 1.327 . S
C273 H296 0.950 . S
C274 C273 1.349 . S
C274 C286 1.349 . S
C275 C273 1.327 . S
C275 C291 1.429 . S
C275 H297 0.950 . S
C276 H272 0.949 . S
C276 C284 1.574 . S
C276 C292 1.368 . S
H277 C285 0.950 . S
H278 C283 0.950 . S
H279 C284 0.949 . S
H280 C286 0.950 . S
H281 C287 0.950 . S
H282 C288 0.949 . S
C283 H278 0.950 . S
C283 C285 1.327 . S
C283 C289 1.429 . S
C284 C276 1.574 . S
C284 H279 0.949 . S
C284 C290 1.368 . S
C285 C269 1.349 . S
C285 H277 0.950 . S
C285 C283 1.327 . S
C286 C274 1.349 . S
C286 H280 0.950 . S
C286 C287 1.327 . S
C287 H281 0.950 . S
C287 C286 1.327 . S
C287 C291 1.429 . S
C288 C271 1.574 . S
C288 H282 0.949 . S
C288 C292 1.368 . S
C289 C270 1.429 . S
C289 C283 1.429 . S
C289 C290 1.523 . S
C290 C271 1.368 . S
C290 C284 1.368 . S
C290 C289 1.523 . S
C291 C275 1.429 . S
C291 C287 1.429 . S
C291 C292 1.523 . S
C292 C276 1.368 . S
C292 C288 1.368 . S
C292 C291 1.523 . S
H293 C268 0.950 . S
H294 C270 0.950 . S
H295 C271 0.949 . S
H296 C273 0.950 . S
H297 C275 0.950 . S
C298 C299 1.349 . S
C298 C300 1.327 . S
C298 H323 0.950 . S
C299 C298 1.349 . S
C299 C315 1.349 . S
C300 C298 1.327 . S
C300 C319 1.429 . S
C300 H324 0.950 . S
C301 C318 1.574 . S
C301 C320 1.368 . S
C301 H325 0.949 . S
H302 C306 0.949 . S
C303 C304 1.349 . S
C303 C305 1.327 . S
C303 H326 0.950 . S
C304 C303 1.349 . S
C304 C316 1.349 . S
C305 C303 1.327 . S
C305 C321 1.429 . S
C305 H327 0.950 . S
C306 H302 0.949 . S
C306 C314 1.574 . S
C306 C322 1.368 . S
H307 C315 0.950 1_554 S
H308 C313 0.950 1_554 S
H309 C314 0.949 . S
H310 C316 0.950 . S
H311 C317 0.950 . S
H312 C318 0.949 . S
C313 H308 0.950 1_556 S
C313 C315 1.327 . S
C313 C319 1.429 . S
C314 C306 1.574 . S
C314 H309 0.949 . S
C314 C320 1.368 . S
C315 C299 1.349 . S
C315 H307 0.950 1_556 S
C315 C313 1.327 . S
C316 C304 1.349 . S
C316 H310 0.950 . S
C316 C317 1.327 . S
C317 H311 0.950 . S
C317 C316 1.327 . S
C317 C321 1.429 . S
C318 C301 1.574 . S
C318 H312 0.949 . S
C318 C322 1.368 . S
C319 C300 1.429 . S
C319 C313 1.429 . S
C319 C320 1.523 . S
C320 C301 1.368 . S
C320 C314 1.368 . S
C320 C319 1.523 . S
C321 C305 1.429 . S
C321 C317 1.429 . S
C321 C322 1.523 . S
C322 C306 1.368 . S
C322 C318 1.368 . S
C322 C321 1.523 . S
H323 C298 0.950 . S
H324 C300 0.950 . S
H325 C301 0.949 . S
H326 C303 0.950 . S
H327 C305 0.950 . S
C328 C329 1.349 . S
C328 C330 1.327 . S
C328 H353 0.950 . S
C329 C328 1.349 . S
C329 C345 1.349 . S
C330 C328 1.327 . S
C330 C349 1.429 . S
C330 H354 0.950 . S
C331 C348 1.574 . S
C331 C350 1.368 . S
C331 H355 0.949 . S
H332 C336 0.949 . S
C333 C334 1.349 . S
C333 C335 1.327 . S
C333 H356 0.950 . S
C334 C333 1.349 . S
C334 C346 1.349 . S
C335 C333 1.327 . S
C335 C351 1.429 . S
C335 H357 0.950 . S
C336 H332 0.949 . S
C336 C344 1.574 . S
C336 C352 1.368 . S
H337 C345 0.950 . S
H338 C343 0.950 . S
H339 C344 0.949 . S
H340 C346 0.950 1_554 S
H341 C347 0.950 1_554 S
H342 C348 0.949 . S
C343 H338 0.950 . S
C343 C345 1.327 . S
C343 C349 1.429 . S
C344 C336 1.574 . S
C344 H339 0.949 . S
C344 C350 1.368 . S
C345 C329 1.349 . S
C345 H337 0.950 . S
C345 C343 1.327 . S
C346 C334 1.349 . S
C346 H340 0.950 1_556 S
C346 C347 1.327 . S
C347 H341 0.950 1_556 S
C347 C346 1.327 . S
C347 C351 1.429 . S
C348 C331 1.574 . S
C348 H342 0.949 . S
C348 C352 1.368 . S
C349 C330 1.429 . S
C349 C343 1.429 . S
C349 C350 1.523 . S
C350 C331 1.368 . S
C350 C344 1.368 . S
C350 C349 1.523 . S
C351 C335 1.429 . S
C351 C347 1.429 . S
C351 C352 1.523 . S
C352 C336 1.368 . S
C352 C348 1.368 . S
C352 C351 1.523 . S
H353 C328 0.950 . S
H354 C330 0.950 . S
H355 C331 0.949 . S
H356 C333 0.950 . S
H357 C335 0.950 . S
C358 C359 1.349 . S
C358 C360 1.327 . S
C358 H383 0.950 . S
C359 C358 1.349 . S
C359 C375 1.349 . S
C360 C358 1.327 . S
C360 C379 1.429 . S
C360 H384 0.950 . S
C361 C378 1.574 . S
C361 C380 1.368 . S
C361 H385 0.949 . S
H362 C366 0.949 . S
C363 C364 1.349 . S
C363 C365 1.327 . S
C363 H386 0.950 . S
C364 C363 1.349 . S
C364 C376 1.349 . S
C365 C363 1.327 . S
C365 C381 1.429 . S
C365 H387 0.950 . S
C366 H362 0.949 . S
C366 C374 1.574 . S
C366 C382 1.368 . S
H367 C375 0.950 . S
H368 C373 0.950 . S
H369 C374 0.949 . S
H370 C376 0.950 . S
H371 C377 0.950 . S
H372 C378 0.949 . S
C373 H368 0.950 . S
C373 C375 1.327 . S
C373 C379 1.429 . S
C374 C366 1.574 . S
C374 H369 0.949 . S
C374 C380 1.368 . S
C375 C359 1.349 . S
C375 H367 0.950 . S
C375 C373 1.327 . S
C376 C364 1.349 . S
C376 H370 0.950 . S
C376 C377 1.327 . S
C377 H371 0.950 . S
C377 C376 1.327 . S
C377 C381 1.429 . S
C378 C361 1.574 . S
C378 H372 0.949 . S
C378 C382 1.368 . S
C379 C360 1.429 . S
C379 C373 1.429 . S
C379 C380 1.523 . S
C380 C361 1.368 . S
C380 C374 1.368 . S
C380 C379 1.523 . S
C381 C365 1.429 . S
C381 C377 1.429 . S
C381 C382 1.523 . S
C382 C366 1.368 . S
C382 C378 1.368 . S
C382 C381 1.523 . S
H383 C358 0.950 . S
H384 C360 0.950 . S
H385 C361 0.949 . S
H386 C363 0.950 . S
H387 C365 0.950 . S
C388 C389 1.349 . S
C388 C390 1.327 . S
C388 H413 0.950 . S
C389 C388 1.349 . S
C389 C405 1.349 . S
C390 C388 1.327 . S
C390 C409 1.429 . S
C390 H414 0.950 . S
C391 C408 1.574 . S
C391 C410 1.368 . S
C391 H415 0.949 . S
H392 C396 0.949 . S
C393 C394 1.349 . S
C393 C395 1.327 . S
C393 H416 0.950 . S
C394 C393 1.349 . S
C394 C406 1.349 . S
C395 C393 1.327 . S
C395 C411 1.429 . S
C395 H417 0.950 . S
C396 H392 0.949 . S
C396 C404 1.574 . S
C396 C412 1.368 . S
H397 C405 0.950 . S
H398 C403 0.950 . S
H399 C404 0.949 . S
H400 C406 0.950 . S
H401 C407 0.950 . S
H402 C408 0.949 . S
C403 H398 0.950 . S
C403 C405 1.327 . S
C403 C409 1.429 . S
C404 C396 1.574 . S
C404 H399 0.949 . S
C404 C410 1.368 . S
C405 C389 1.349 . S
C405 H397 0.950 . S
C405 C403 1.327 . S
C406 C394 1.349 . S
C406 H400 0.950 . S
C406 C407 1.327 . S
C407 H401 0.950 . S
C407 C406 1.327 . S
C407 C411 1.429 . S
C408 C391 1.574 . S
C408 H402 0.949 . S
C408 C412 1.368 . S
C409 C390 1.429 . S
C409 C403 1.429 . S
C409 C410 1.523 . S
C410 C391 1.368 . S
C410 C404 1.368 . S
C410 C409 1.523 . S
C411 C395 1.429 . S
C411 C407 1.429 . S
C411 C412 1.523 . S
C412 C396 1.368 . S
C412 C408 1.368 . S
C412 C411 1.523 . S
H413 C388 0.950 . S
H414 C390 0.950 . S
H415 C391 0.949 . S
H416 C393 0.950 . S
H417 C395 0.950 . S
C418 C419 1.349 . S
C418 C420 1.327 . S
C418 H443 0.950 . S
C419 C418 1.349 . S
C419 C435 1.349 . S
C420 C418 1.327 . S
C420 C439 1.429 . S
C420 H444 0.950 . S
C421 C438 1.574 . S
C421 C440 1.368 . S
C421 H445 0.949 . S
H422 C426 0.949 . S
C423 C424 1.349 . S
C423 C425 1.327 . S
C423 H446 0.950 . S
C424 C423 1.349 . S
C424 C436 1.349 . S
C425 C423 1.327 . S
C425 C441 1.429 . S
C425 H447 0.950 . S
C426 H422 0.949 . S
C426 C434 1.574 . S
C426 C442 1.368 . S
H427 C435 0.950 . S
H428 C433 0.950 . S
H429 C434 0.949 . S
H430 C436 0.950 . S
H431 C437 0.950 . S
H432 C438 0.949 . S
C433 H428 0.950 . S
C433 C435 1.327 . S
C433 C439 1.429 . S
C434 C426 1.574 . S
C434 H429 0.949 . S
C434 C440 1.368 . S
C435 C419 1.349 . S
C435 H427 0.950 . S
C435 C433 1.327 . S
C436 C424 1.349 . S
C436 H430 0.950 . S
C436 C437 1.327 . S
C437 H431 0.950 . S
C437 C436 1.327 . S
C437 C441 1.429 . S
C438 C421 1.574 . S
C438 H432 0.949 . S
C438 C442 1.368 . S
C439 C420 1.429 . S
C439 C433 1.429 . S
C439 C440 1.523 . S
C440 C421 1.368 . S
C440 C434 1.368 . S
C440 C439 1.523 . S
C441 C425 1.429 . S
C441 C437 1.429 . S
C441 C442 1.523 . S
C442 C426 1.368 . S
C442 C438 1.368 . S
C442 C441 1.523 . S
H443 C418 0.950 . S
H444 C420 0.950 . S
H445 C421 0.949 . S
H446 C423 0.950 . S
H447 C425 0.950 . S
C448 C449 1.349 . S
C448 C450 1.327 . S
C448 H473 0.950 . S
C449 C448 1.349 . S
C449 C465 1.349 . S
C450 C448 1.327 . S
C450 C469 1.429 . S
C450 H474 0.950 . S
C451 C468 1.574 . S
C451 C470 1.368 . S
C451 H475 0.949 . S
H452 C456 0.949 . S
C453 C454 1.349 . S
C453 C455 1.327 . S
C453 H476 0.950 . S
C454 C453 1.349 . S
C454 C466 1.349 1_556 S
C455 C453 1.327 . S
C455 C471 1.429 . S
C455 H477 0.950 . S
C456 H452 0.949 . S
C456 C464 1.574 . S
C456 C472 1.368 . S
H457 C465 0.950 . S
H458 C463 0.950 . S
H459 C464 0.949 . S
H460 C466 0.950 . S
H461 C467 0.950 . S
H462 C468 0.949 . S
C463 H458 0.950 . S
C463 C465 1.327 . S
C463 C469 1.429 . S
C464 C456 1.574 . S
C464 H459 0.949 . S
C464 C470 1.368 . S
C465 C449 1.349 . S
C465 H457 0.950 . S
C465 C463 1.327 . S
C466 C454 1.349 1_554 S
C466 H460 0.950 . S
C466 C467 1.327 1_554 S
C467 H461 0.950 . S
C467 C466 1.327 1_556 S
C467 C471 1.429 . S
C468 C451 1.574 . S
C468 H462 0.949 . S
C468 C472 1.368 . S
C469 C450 1.429 . S
C469 C463 1.429 . S
C469 C470 1.523 . S
C470 C451 1.368 . S
C470 C464 1.368 . S
C470 C469 1.523 . S
C471 C455 1.429 . S
C471 C467 1.429 . S
C471 C472 1.523 . S
C472 C456 1.368 . S
C472 C468 1.368 . S
C472 C471 1.523 . S
H473 C448 0.950 . S
H474 C450 0.950 . S
H475 C451 0.949 . S
H476 C453 0.950 . S
H477 C455 0.950 . S
C478 C479 1.349 . S
C478 C480 1.327 . S
C478 H503 0.950 . S
C479 C478 1.349 . S
C479 C495 1.349 . S
C480 C478 1.327 . S
C480 C499 1.429 . S
C480 H504 0.950 . S
C481 C498 1.574 . S
C481 C500 1.368 . S
C481 H505 0.949 . S
H482 C486 0.949 . S
C483 C484 1.349 . S
C483 C485 1.327 . S
C483 H506 0.950 . S
C484 C483 1.349 . S
C484 C496 1.349 . S
C485 C483 1.327 . S
C485 C501 1.429 . S
C485 H507 0.950 . S
C486 H482 0.949 . S
C486 C494 1.574 . S
C486 C502 1.368 . S
H487 C495 0.950 . S
H488 C493 0.950 . S
H489 C494 0.949 . S
H490 C496 0.950 . S
H491 C497 0.950 . S
H492 C498 0.949 . S
C493 H488 0.950 . S
C493 C495 1.327 . S
C493 C499 1.429 . S
C494 C486 1.574 . S
C494 H489 0.949 . S
C494 C500 1.368 . S
C495 C479 1.349 . S
C495 H487 0.950 . S
C495 C493 1.327 . S
C496 C484 1.349 . S
C496 H490 0.950 . S
C496 C497 1.327 . S
C497 H491 0.950 . S
C497 C496 1.327 . S
C497 C501 1.429 . S
C498 C481 1.574 . S
C498 H492 0.949 . S
C498 C502 1.368 . S
C499 C480 1.429 . S
C499 C493 1.429 . S
C499 C500 1.523 . S
C500 C481 1.368 . S
C500 C494 1.368 . S
C500 C499 1.523 . S
C501 C485 1.429 . S
C501 C497 1.429 . S
C501 C502 1.523 . S
C502 C486 1.368 . S
C502 C498 1.368 . S
C502 C501 1.523 . S
H503 C478 0.950 . S
H504 C480 0.950 . S
H505 C481 0.949 . S
H506 C483 0.950 . S
H507 C485 0.950 . S
C508 C509 1.349 . S
C508 C510 1.327 . S
C508 H533 0.950 . S
C509 C508 1.349 . S
C509 C525 1.349 . S
C510 C508 1.327 . S
C510 C529 1.429 . S
C510 H534 0.950 . S
C511 C528 1.574 . S
C511 C530 1.368 . S
C511 H535 0.949 . S
H512 C516 0.949 . S
C513 C514 1.349 . S
C513 C515 1.327 . S
C513 H536 0.950 . S
C514 C513 1.349 . S
C514 C526 1.349 . S
C515 C513 1.327 . S
C515 C531 1.429 . S
C515 H537 0.950 . S
C516 H512 0.949 . S
C516 C524 1.574 . S
C516 C532 1.368 . S
H517 C525 0.950 . S
H518 C523 0.950 . S
H519 C524 0.949 . S
H520 C526 0.950 . S
H521 C527 0.950 . S
H522 C528 0.949 . S
C523 H518 0.950 . S
C523 C525 1.327 . S
C523 C529 1.429 . S
C524 C516 1.574 . S
C524 H519 0.949 . S
C524 C530 1.368 . S
C525 C509 1.349 . S
C525 H517 0.950 . S
C525 C523 1.327 . S
C526 C514 1.349 . S
C526 H520 0.950 . S
C526 C527 1.327 . S
C527 H521 0.950 . S
C527 C526 1.327 . S
C527 C531 1.429 . S
C528 C511 1.574 . S
C528 H522 0.949 . S
C528 C532 1.368 . S
C529 C510 1.429 . S
C529 C523 1.429 . S
C529 C530 1.523 . S
C530 C511 1.368 . S
C530 C524 1.368 . S
C530 C529 1.523 . S
C531 C515 1.429 . S
C531 C527 1.429 . S
C531 C532 1.523 . S
C532 C516 1.368 . S
C532 C528 1.368 . S
C532 C531 1.523 . S
H533 C508 0.950 . S
H534 C510 0.950 . S
H535 C511 0.949 . S
H536 C513 0.950 . S
H537 C515 0.950 . S
C538 C539 1.349 . S
C538 C540 1.327 . S
C538 H563 0.950 . S
C539 C538 1.349 . S
C539 C555 1.349 . S
C540 C538 1.327 . S
C540 C559 1.429 . S
C540 H564 0.950 . S
C541 C558 1.574 . S
C541 C560 1.368 . S
C541 H565 0.949 . S
H542 C546 0.949 . S
C543 C544 1.349 . S
C543 C545 1.327 . S
C543 H566 0.950 . S
C544 C543 1.349 . S
C544 C556 1.349 . S
C545 C543 1.327 . S
C545 C561 1.429 . S
C545 H567 0.950 . S
C546 H542 0.949 . S
C546 C554 1.574 . S
C546 C562 1.368 . S
H547 C555 0.950 . S
H548 C553 0.950 . S
H549 C554 0.949 . S
H550 C556 0.950 . S
H551 C557 0.950 . S
H552 C558 0.949 . S
C553 H548 0.950 . S
C553 C555 1.327 . S
C553 C559 1.429 . S
C554 C546 1.574 . S
C554 H549 0.949 . S
C554 C560 1.368 . S
C555 C539 1.349 . S
C555 H547 0.950 . S
C555 C553 1.327 . S
C556 C544 1.349 . S
C556 H550 0.950 . S
C556 C557 1.327 . S
C557 H551 0.950 . S
C557 C556 1.327 . S
C557 C561 1.429 . S
C558 C541 1.574 . S
C558 H552 0.949 . S
C558 C562 1.368 . S
C559 C540 1.429 . S
C559 C553 1.429 . S
C559 C560 1.523 . S
C560 C541 1.368 . S
C560 C554 1.368 . S
C560 C559 1.523 . S
C561 C545 1.429 . S
C561 C557 1.429 . S
C561 C562 1.523 . S
C562 C546 1.368 . S
C562 C558 1.368 . S
C562 C561 1.523 . S
H563 C538 0.950 . S
H564 C540 0.950 . S
H565 C541 0.949 . S
H566 C543 0.950 . S
H567 C545 0.950 . S
C568 C569 1.349 . S
C568 C570 1.327 . S
C568 H593 0.950 . S
C569 C568 1.349 . S
C569 C585 1.349 . S
C570 C568 1.327 . S
C570 C589 1.429 . S
C570 H594 0.950 . S
C571 C588 1.574 . S
C571 C590 1.368 . S
C571 H595 0.949 . S
H572 C576 0.949 . S
C573 C574 1.349 . S
C573 C575 1.327 . S
C573 H596 0.950 . S
C574 C573 1.349 . S
C574 C586 1.349 . S
C575 C573 1.327 . S
C575 C591 1.429 . S
C575 H597 0.950 . S
C576 H572 0.949 . S
C576 C584 1.574 . S
C576 C592 1.368 . S
H577 C585 0.950 . S
H578 C583 0.950 . S
H579 C584 0.949 . S
H580 C586 0.950 . S
H581 C587 0.950 . S
H582 C588 0.949 . S
C583 H578 0.950 . S
C583 C585 1.327 . S
C583 C589 1.429 . S
C584 C576 1.574 . S
C584 H579 0.949 . S
C584 C590 1.368 . S
C585 C569 1.349 . S
C585 H577 0.950 . S
C585 C583 1.327 . S
C586 C574 1.349 . S
C586 H580 0.950 . S
C586 C587 1.327 . S
C587 H581 0.950 . S
C587 C586 1.327 . S
C587 C591 1.429 . S
C588 C571 1.574 . S
C588 H582 0.949 . S
C588 C592 1.368 . S
C589 C570 1.429 . S
C589 C583 1.429 . S
C589 C590 1.523 . S
C590 C571 1.368 . S
C590 C584 1.368 . S
C590 C589 1.523 . S
C591 C575 1.429 . S
C591 C587 1.429 . S
C591 C592 1.523 . S
C592 C576 1.368 . S
C592 C588 1.368 . S
C592 C591 1.523 . S
H593 C568 0.950 . S
H594 C570 0.950 . S
H595 C571 0.949 . S
H596 C573 0.950 . S
H597 C575 0.950 . S
C598 C599 1.349 . S
C598 C600 1.327 . S
C598 H623 0.950 . S
C599 C598 1.349 . S
C599 C615 1.349 . S
C600 C598 1.327 . S
C600 C619 1.429 . S
C600 H624 0.950 . S
C601 C618 1.574 . S
C601 C620 1.368 . S
C601 H625 0.949 . S
H602 C606 0.949 . S
C603 C604 1.349 . S
C603 C605 1.327 . S
C603 H626 0.950 . S
C604 C603 1.349 . S
C604 C616 1.349 1_556 S
C605 C603 1.327 . S
C605 C621 1.429 . S
C605 H627 0.950 . S
C606 H602 0.949 . S
C606 C614 1.574 . S
C606 C622 1.368 . S
H607 C615 0.950 . S
H608 C613 0.950 . S
H609 C614 0.949 . S
H610 C616 0.950 . S
H611 C617 0.950 . S
H612 C618 0.949 . S
C613 H608 0.950 . S
C613 C615 1.327 . S
C613 C619 1.429 . S
C614 C606 1.574 . S
C614 H609 0.949 . S
C614 C620 1.368 . S
C615 C599 1.349 . S
C615 H607 0.950 . S
C615 C613 1.327 . S
C616 C604 1.349 1_554 S
C616 H610 0.950 . S
C616 C617 1.327 1_554 S
C617 H611 0.950 . S
C617 C616 1.327 1_556 S
C617 C621 1.429 . S
C618 C601 1.574 . S
C618 H612 0.949 . S
C618 C622 1.368 . S
C619 C600 1.429 . S
C619 C613 1.429 . S
C619 C620 1.523 . S
C620 C601 1.368 . S
C620 C614 1.368 . S
C620 C619 1.523 . S
C621 C605 1.429 . S
C621 C617 1.429 . S
C621 C622 1.523 . S
C622 C606 1.368 . S
C622 C618 1.368 . S
C622 C621 1.523 . S
H623 C598 0.950 . S
H624 C600 0.950 . S
H625 C601 0.949 . S
H626 C603 0.950 . S
H627 C605 0.950 . S
C628 C629 1.349 . S
C628 C630 1.327 . S
C628 H653 0.950 . S
C629 C628 1.349 . S
C629 C645 1.349 . S
C630 C628 1.327 . S
C630 C649 1.429 . S
C630 H654 0.950 . S
C631 C648 1.574 . S
C631 C650 1.368 . S
C631 H655 0.949 . S
H632 C636 0.949 . S
C633 C634 1.349 . S
C633 C635 1.327 . S
C633 H656 0.950 . S
C634 C633 1.349 . S
C634 C646 1.349 . S
C635 C633 1.327 . S
C635 C651 1.429 . S
C635 H657 0.950 . S
C636 H632 0.949 . S
C636 C644 1.574 . S
C636 C652 1.368 . S
H637 C645 0.950 . S
H638 C643 0.950 . S
H639 C644 0.949 . S
H640 C646 0.950 . S
H641 C647 0.950 . S
H642 C648 0.949 . S
C643 H638 0.950 . S
C643 C645 1.327 . S
C643 C649 1.429 . S
C644 C636 1.574 . S
C644 H639 0.949 . S
C644 C650 1.368 . S
C645 C629 1.349 . S
C645 H637 0.950 . S
C645 C643 1.327 . S
C646 C634 1.349 . S
C646 H640 0.950 . S
C646 C647 1.327 . S
C647 H641 0.950 . S
C647 C646 1.327 . S
C647 C651 1.429 . S
C648 C631 1.574 . S
C648 H642 0.949 . S
C648 C652 1.368 . S
C649 C630 1.429 . S
C649 C643 1.429 . S
C649 C650 1.523 . S
C650 C631 1.368 . S
C650 C644 1.368 . S
C650 C649 1.523 . S
C651 C635 1.429 . S
C651 C647 1.429 . S
C651 C652 1.523 . S
C652 C636 1.368 . S
C652 C648 1.368 . S
C652 C651 1.523 . S
H653 C628 0.950 . S
H654 C630 0.950 . S
H655 C631 0.949 . S
H656 C633 0.950 . S
H657 C635 0.950 . S
C658 C659 1.349 . S
C658 C660 1.327 . S
C658 H683 0.950 . S
C659 C658 1.349 . S
C659 C675 1.349 . S
C660 C658 1.327 . S
C660 C679 1.429 . S
C660 H684 0.950 . S
C661 C678 1.574 . S
C661 C680 1.368 . S
C661 H685 0.949 . S
H662 C666 0.949 . S
C663 C664 1.349 . S
C663 C665 1.327 . S
C663 H686 0.950 . S
C664 C663 1.349 . S
C664 C676 1.349 . S
C665 C663 1.327 . S
C665 C681 1.429 . S
C665 H687 0.950 . S
C666 H662 0.949 . S
C666 C674 1.574 . S
C666 C682 1.368 . S
H667 C675 0.950 . S
H668 C673 0.950 . S
H669 C674 0.949 . S
H670 C676 0.950 . S
H671 C677 0.950 . S
H672 C678 0.949 . S
C673 H668 0.950 . S
C673 C675 1.327 . S
C673 C679 1.429 . S
C674 C666 1.574 . S
C674 H669 0.949 . S
C674 C680 1.368 . S
C675 C659 1.349 . S
C675 H667 0.950 . S
C675 C673 1.327 . S
C676 C664 1.349 . S
C676 H670 0.950 . S
C676 C677 1.327 . S
C677 H671 0.950 . S
C677 C676 1.327 . S
C677 C681 1.429 . S
C678 C661 1.574 . S
C678 H672 0.949 . S
C678 C682 1.368 . S
C679 C660 1.429 . S
C679 C673 1.429 . S
C679 C680 1.523 . S
C680 C661 1.368 . S
C680 C674 1.368 . S
C680 C679 1.523 . S
C681 C665 1.429 . S
C681 C677 1.429 . S
C681 C682 1.523 . S
C682 C666 1.368 . S
C682 C678 1.368 . S
C682 C681 1.523 . S
H683 C658 0.950 . S
H684 C660 0.950 . S
H685 C661 0.949 . S
H686 C663 0.950 . S
H687 C665 0.950 . S
C688 C689 1.349 . S
C688 C690 1.327 . S
C688 H713 0.950 . S
C689 C688 1.349 . S
C689 C705 1.349 . S
C690 C688 1.327 . S
C690 C709 1.429 . S
C690 H714 0.950 . S
C691 C708 1.574 1_554 S
C691 C710 1.368 . S
C691 H715 0.949 . S
H692 C696 0.949 . S
C693 C694 1.349 . S
C693 C695 1.327 . S
C693 H716 0.950 . S
C694 C693 1.349 . S
C694 C706 1.349 . S
C695 C693 1.327 . S
C695 C711 1.429 . S
C695 H717 0.950 . S
C696 H692 0.949 . S
C696 C704 1.574 . S
C696 C712 1.368 . S
H697 C705 0.950 . S
H698 C703 0.950 . S
H699 C704 0.949 . S
H700 C706 0.950 . S
H701 C707 0.950 1_554 S
H702 C708 0.949 . S
C703 H698 0.950 . S
C703 C705 1.327 . S
C703 C709 1.429 . S
C704 C696 1.574 . S
C704 H699 0.949 . S
C704 C710 1.368 . S
C705 C689 1.349 . S
C705 H697 0.950 . S
C705 C703 1.327 . S
C706 C694 1.349 . S
C706 H700 0.950 . S
C706 C707 1.327 . S
C707 H701 0.950 1_556 S
C707 C706 1.327 . S
C707 C711 1.429 . S
C708 C691 1.574 1_556 S
C708 H702 0.949 . S
C708 C712 1.368 1_556 S
C709 C690 1.429 . S
C709 C703 1.429 . S
C709 C710 1.523 . S
C710 C691 1.368 . S
C710 C704 1.368 . S
C710 C709 1.523 . S
C711 C695 1.429 . S
C711 C707 1.429 . S
C711 C712 1.523 1_556 S
C712 C696 1.368 . S
C712 C708 1.368 1_554 S
C712 C711 1.523 1_554 S
H713 C688 0.950 . S
H714 C690 0.950 . S
H715 C691 0.949 . S
H716 C693 0.950 . S
H717 C695 0.950 . S
C718 C719 1.349 . S
C718 C720 1.327 . S
C718 H743 0.950 . S
C719 C718 1.349 . S
C719 C735 1.349 . S
C720 C718 1.327 . S
C720 C739 1.429 . S
C720 H744 0.950 . S
C721 C738 1.574 . S
C721 C740 1.368 . S
C721 H745 0.949 . S
H722 C726 0.949 . S
C723 C724 1.349 . S
C723 C725 1.327 . S
C723 H746 0.950 . S
C724 C723 1.349 . S
C724 C736 1.349 . S
C725 C723 1.327 . S
C725 C741 1.429 . S
C725 H747 0.950 . S
C726 H722 0.949 . S
C726 C734 1.574 . S
C726 C742 1.368 . S
H727 C735 0.950 . S
H728 C733 0.950 . S
H729 C734 0.949 . S
H730 C736 0.950 . S
H731 C737 0.950 . S
H732 C738 0.949 . S
C733 H728 0.950 . S
C733 C735 1.327 . S
C733 C739 1.429 . S
C734 C726 1.574 . S
C734 H729 0.949 . S
C734 C740 1.368 . S
C735 C719 1.349 . S
C735 H727 0.950 . S
C735 C733 1.327 . S
C736 C724 1.349 . S
C736 H730 0.950 . S
C736 C737 1.327 . S
C737 H731 0.950 . S
C737 C736 1.327 . S
C737 C741 1.429 . S
C738 C721 1.574 . S
C738 H732 0.949 . S
C738 C742 1.368 . S
C739 C720 1.429 . S
C739 C733 1.429 . S
C739 C740 1.523 . S
C740 C721 1.368 . S
C740 C734 1.368 . S
C740 C739 1.523 . S
C741 C725 1.429 . S
C741 C737 1.429 . S
C741 C742 1.523 . S
C742 C726 1.368 . S
C742 C738 1.368 . S
C742 C741 1.523 . S
H743 C718 0.950 . S
H744 C720 0.950 . S
H745 C721 0.949 . S
H746 C723 0.950 . S
H747 C725 0.950 . S
C748 C749 1.349 . S
C748 C750 1.327 . S
C748 H773 0.950 . S
C749 C748 1.349 . S
C749 C765 1.349 . S
C750 C748 1.327 . S
C750 C769 1.429 . S
C750 H774 0.950 . S
C751 C768 1.574 . S
C751 C770 1.368 . S
C751 H775 0.949 . S
H752 C756 0.949 . S
C753 C754 1.349 . S
C753 C755 1.327 . S
C753 H776 0.950 . S
C754 C753 1.349 . S
C754 C766 1.349 . S
C755 C753 1.327 . S
C755 C771 1.429 . S
C755 H777 0.950 . S
C756 H752 0.949 . S
C756 C764 1.574 . S
C756 C772 1.368 . S
H757 C765 0.950 . S
H758 C763 0.950 . S
H759 C764 0.949 . S
H760 C766 0.950 . S
H761 C767 0.950 . S
H762 C768 0.949 . S
C763 H758 0.950 . S
C763 C765 1.327 . S
C763 C769 1.429 . S
C764 C756 1.574 . S
C764 H759 0.949 . S
C764 C770 1.368 . S
C765 C749 1.349 . S
C765 H757 0.950 . S
C765 C763 1.327 . S
C766 C754 1.349 . S
C766 H760 0.950 . S
C766 C767 1.327 . S
C767 H761 0.950 . S
C767 C766 1.327 . S
C767 C771 1.429 . S
C768 C751 1.574 . S
C768 H762 0.949 . S
C768 C772 1.368 . S
C769 C750 1.429 . S
C769 C763 1.429 . S
C769 C770 1.523 . S
C770 C751 1.368 . S
C770 C764 1.368 . S
C770 C769 1.523 . S
C771 C755 1.429 . S
C771 C767 1.429 . S
C771 C772 1.523 . S
C772 C756 1.368 . S
C772 C768 1.368 . S
C772 C771 1.523 . S
H773 C748 0.950 . S
H774 C750 0.950 . S
H775 C751 0.949 . S
H776 C753 0.950 . S
H777 C755 0.950 . S
C778 C779 1.349 . S
C778 C780 1.327 . S
C778 H803 0.950 . S
C779 C778 1.349 . S
C779 C795 1.349 . S
C780 C778 1.327 . S
C780 C799 1.429 . S
C780 H804 0.950 . S
C781 C798 1.574 . S
C781 C800 1.368 . S
C781 H805 0.949 . S
H782 C786 0.949 . S
C783 C784 1.349 . S
C783 C785 1.327 . S
C783 H806 0.950 . S
C784 C783 1.349 . S
C784 C796 1.349 . S
C785 C783 1.327 . S
C785 C801 1.429 . S
C785 H807 0.950 . S
C786 H782 0.949 . S
C786 C794 1.574 . S
C786 C802 1.368 . S
H787 C795 0.950 . S
H788 C793 0.950 . S
H789 C794 0.949 . S
H790 C796 0.950 . S
H791 C797 0.950 . S
H792 C798 0.949 . S
C793 H788 0.950 . S
C793 C795 1.327 . S
C793 C799 1.429 . S
C794 C786 1.574 . S
C794 H789 0.949 . S
C794 C800 1.368 . S
C795 C779 1.349 . S
C795 H787 0.950 . S
C795 C793 1.327 . S
C796 C784 1.349 . S
C796 H790 0.950 . S
C796 C797 1.327 . S
C797 H791 0.950 . S
C797 C796 1.327 . S
C797 C801 1.429 . S
C798 C781 1.574 . S
C798 H792 0.949 . S
C798 C802 1.368 . S
C799 C780 1.429 . S
C799 C793 1.429 . S
C799 C800 1.523 . S
C800 C781 1.368 . S
C800 C794 1.368 . S
C800 C799 1.523 . S
C801 C785 1.429 . S
C801 C797 1.429 . S
C801 C802 1.523 . S
C802 C786 1.368 . S
C802 C798 1.368 . S
C802 C801 1.523 . S
H803 C778 0.950 . S
H804 C780 0.950 . S
H805 C781 0.949 . S
H806 C783 0.950 . S
H807 C785 0.950 . S
C808 C809 1.349 . S
C808 C810 1.327 . S
C808 H833 0.950 . S
C809 C808 1.349 . S
C809 C825 1.349 . S
C810 C808 1.327 . S
C810 C829 1.429 . S
C810 H834 0.950 . S
C811 C828 1.574 . S
C811 C830 1.368 . S
C811 H835 0.949 . S
H812 C816 0.949 . S
C813 C814 1.349 . S
C813 C815 1.327 . S
C813 H836 0.950 . S
C814 C813 1.349 . S
C814 C826 1.349 . S
C815 C813 1.327 . S
C815 C831 1.429 . S
C815 H837 0.950 . S
C816 H812 0.949 . S
C816 C824 1.574 . S
C816 C832 1.368 . S
H817 C825 0.950 . S
H818 C823 0.950 . S
H819 C824 0.949 . S
H820 C826 0.950 . S
H821 C827 0.950 . S
H822 C828 0.949 . S
C823 H818 0.950 . S
C823 C825 1.327 . S
C823 C829 1.429 . S
C824 C816 1.574 . S
C824 H819 0.949 . S
C824 C830 1.368 . S
C825 C809 1.349 . S
C825 H817 0.950 . S
C825 C823 1.327 . S
C826 C814 1.349 . S
C826 H820 0.950 . S
C826 C827 1.327 . S
C827 H821 0.950 . S
C827 C826 1.327 . S
C827 C831 1.429 . S
C828 C811 1.574 . S
C828 H822 0.949 . S
C828 C832 1.368 . S
C829 C810 1.429 . S
C829 C823 1.429 . S
C829 C830 1.523 . S
C830 C811 1.368 . S
C830 C824 1.368 . S
C830 C829 1.523 . S
C831 C815 1.429 . S
C831 C827 1.429 . S
C831 C832 1.523 . S
C832 C816 1.368 . S
C832 C828 1.368 . S
C832 C831 1.523 . S
H833 C808 0.950 . S
H834 C810 0.950 . S
H835 C811 0.949 . S
H836 C813 0.950 . S
H837 C815 0.950 . S
C838 C839 1.349 . S
C838 C840 1.327 . S
C838 H863 0.950 . S
C839 C838 1.349 . S
C839 C855 1.349 . S
C840 C838 1.327 . S
C840 C859 1.429 . S
C840 H864 0.950 . S
C841 C858 1.574 . S
C841 C860 1.368 . S
C841 H865 0.949 . S
H842 C846 0.949 . S
C843 C844 1.349 . S
C843 C845 1.327 . S
C843 H866 0.950 . S
C844 C843 1.349 . S
C844 C856 1.349 . S
C845 C843 1.327 . S
C845 C861 1.429 . S
C845 H867 0.950 . S
C846 H842 0.949 . S
C846 C854 1.574 . S
C846 C862 1.368 . S
H847 C855 0.950 . S
H848 C853 0.950 . S
H849 C854 0.949 . S
H850 C856 0.950 . S
H851 C857 0.950 . S
H852 C858 0.949 . S
C853 H848 0.950 . S
C853 C855 1.327 . S
C853 C859 1.429 . S
C854 C846 1.574 . S
C854 H849 0.949 . S
C854 C860 1.368 . S
C855 C839 1.349 . S
C855 H847 0.950 . S
C855 C853 1.327 . S
C856 C844 1.349 . S
C856 H850 0.950 . S
C856 C857 1.327 . S
C857 H851 0.950 . S
C857 C856 1.327 . S
C857 C861 1.429 . S
C858 C841 1.574 . S
C858 H852 0.949 . S
C858 C862 1.368 . S
C859 C840 1.429 . S
C859 C853 1.429 . S
C859 C860 1.523 . S
C860 C841 1.368 . S
C860 C854 1.368 . S
C860 C859 1.523 . S
C861 C845 1.429 . S
C861 C857 1.429 . S
C861 C862 1.523 . S
C862 C846 1.368 . S
C862 C858 1.368 . S
C862 C861 1.523 . S
H863 C838 0.950 . S
H864 C840 0.950 . S
H865 C841 0.949 . S
H866 C843 0.950 . S
H867 C845 0.950 . S
C868 C869 1.349 . S
C868 C870 1.327 . S
C868 H893 0.950 . S
C869 C868 1.349 . S
C869 C885 1.349 . S
C870 C868 1.327 . S
C870 C889 1.429 . S
C870 H894 0.950 . S
C871 C888 1.574 1_565 S
C871 C890 1.368 . S
C871 H895 0.949 . S
H872 C876 0.949 . S
C873 C874 1.349 . S
C873 C875 1.327 . S
C873 H896 0.950 . S
C874 C873 1.349 . S
C874 C886 1.349 . S
C875 C873 1.327 . S
C875 C891 1.429 . S
C875 H897 0.950 . S
C876 H872 0.949 . S
C876 C884 1.574 1_545 S
C876 C892 1.368 . S
H877 C885 0.950 . S
H878 C883 0.950 . S
H879 C884 0.949 . S
H880 C886 0.950 . S
H881 C887 0.950 . S
H882 C888 0.949 . S
C883 H878 0.950 . S
C883 C885 1.327 . S
C883 C889 1.429 . S
C884 C876 1.574 1_565 S
C884 H879 0.949 . S
C884 C890 1.368 . S
C885 C869 1.349 . S
C885 H877 0.950 . S
C885 C883 1.327 . S
C886 C874 1.349 . S
C886 H880 0.950 . S
C886 C887 1.327 . S
C887 H881 0.950 . S
C887 C886 1.327 . S
C887 C891 1.429 . S
C888 C871 1.574 1_545 S
C888 H882 0.949 . S
C888 C892 1.368 . S
C889 C870 1.429 . S
C889 C883 1.429 . S
C889 C890 1.523 . S
C890 C871 1.368 . S
C890 C884 1.368 . S
C890 C889 1.523 . S
C891 C875 1.429 . S
C891 C887 1.429 . S
C891 C892 1.523 . S
C892 C876 1.368 . S
C892 C888 1.368 . S
C892 C891 1.523 . S
H893 C868 0.950 . S
H894 C870 0.950 . S
H895 C871 0.949 . S
H896 C873 0.950 . S
H897 C875 0.950 . S
C898 C899 1.352 1_455 S
C898 C900 1.327 . S
C898 H923 0.947 . S
C899 C898 1.352 1_655 S
C899 C915 1.349 . S
C900 C898 1.327 . S
C900 C919 1.426 1_455 S
C900 H924 0.952 . S
C901 C918 1.592 . S
C901 C920 1.368 . S
C901 H925 0.949 . S
H902 C906 0.962 . S
C903 C904 1.349 . S
C903 C905 1.327 . S
C903 H926 0.950 . S
C904 C903 1.349 . S
C904 C916 1.352 1_655 S
C905 C903 1.327 . S
C905 C921 1.429 . S
C905 H927 0.950 . S
C906 H902 0.962 . S
C906 C914 1.592 1_554 S
C906 C922 1.355 1_455 S
H907 C915 0.950 . S
H908 C913 0.950 1_554 S
H909 C914 0.962 . S
H910 C916 0.947 . S
H911 C917 0.952 . S
H912 C918 0.949 . S
C913 H908 0.950 1_556 S
C913 C915 1.327 . S
C913 C919 1.429 . S
C914 C906 1.592 1_556 S
C914 H909 0.962 . S
C914 C920 1.336 1_466 S
C915 C899 1.349 . S
C915 H907 0.950 . S
C915 C913 1.327 . S
C916 C904 1.352 1_455 S
C916 H910 0.947 . S
C916 C917 1.327 . S
C917 H911 0.952 . S
C917 C916 1.327 . S
C917 C921 1.426 1_455 S
C918 C901 1.592 . S
C918 H912 0.949 . S
C918 C922 1.350 1_545 S
C919 C900 1.426 1_655 S
C919 C913 1.429 . S
C919 C920 1.523 1_556 S
C920 C901 1.368 . S
C920 C914 1.336 1_644 S
C920 C919 1.523 1_554 S
C921 C905 1.429 . S
C921 C917 1.426 1_655 S
C921 C922 1.523 . S
C922 C906 1.355 1_655 S
C922 C918 1.350 1_565 S
C922 C921 1.523 . S
H923 C898 0.947 . S
H924 C900 0.952 . S
H925 C901 0.949 . S
H926 C903 0.950 . S
H927 C905 0.950 . S
C928 C929 1.349 1_455 S
C928 C930 1.327 . S
C928 H953 0.950 . S
C929 C928 1.349 1_655 S
C929 C945 1.349 . S
C930 C928 1.327 . S
C930 C949 1.429 1_455 S
C930 H954 0.950 . S
C931 C948 1.574 . S
C931 C950 1.368 . S
C931 H955 0.949 . S
H932 C936 0.949 . S
C933 C934 1.349 . S
C933 C935 1.327 . S
C933 H956 0.950 . S
C934 C933 1.349 . S
C934 C946 1.349 1_655 S
C935 C933 1.327 . S
C935 C951 1.429 . S
C935 H957 0.950 . S
C936 H932 0.949 . S
C936 C944 1.574 . S
C936 C952 1.368 1_455 S
H937 C945 0.950 . S
H938 C943 0.950 . S
H939 C944 0.949 . S
H940 C946 0.950 . S
H941 C947 0.950 . S
H942 C948 0.949 . S
C943 H938 0.950 . S
C943 C945 1.327 . S
C943 C949 1.429 . S
C944 C936 1.574 . S
C944 H939 0.949 . S
C944 C950 1.368 1_455 S
C945 C929 1.349 . S
C945 H937 0.950 . S
C945 C943 1.327 . S
C946 C934 1.349 1_455 S
C946 H940 0.950 . S
C946 C947 1.327 . S
C947 H941 0.950 . S
C947 C946 1.327 . S
C947 C951 1.429 1_455 S
C948 C931 1.574 . S
C948 H942 0.949 . S
C948 C952 1.368 . S
C949 C930 1.429 1_655 S
C949 C943 1.429 . S
C949 C950 1.523 . S
C950 C931 1.368 . S
C950 C944 1.368 1_655 S
C950 C949 1.523 . S
C951 C935 1.429 . S
C951 C947 1.429 1_655 S
C951 C952 1.523 . S
C952 C936 1.368 1_655 S
C952 C948 1.368 . S
C952 C951 1.523 . S
H953 C928 0.950 . S
H954 C930 0.950 . S
H955 C931 0.949 . S
H956 C933 0.950 . S
H957 C935 0.950 . S
C958 C959 1.349 . S
C958 C960 1.327 . S
C958 H983 0.950 . S
C959 C958 1.349 . S
C959 C975 1.349 . S
C960 C958 1.327 . S
C960 C979 1.429 . S
C960 H984 0.950 . S
C961 C978 1.574 . S
C961 C980 1.368 . S
C961 H985 0.949 . S
H962 C966 0.949 . S
C963 C964 1.349 . S
C963 C965 1.327 . S
C963 H986 0.950 . S
C964 C963 1.349 . S
C964 C976 1.349 . S
C965 C963 1.327 . S
C965 C981 1.429 . S
C965 H987 0.950 . S
C966 H962 0.949 . S
C966 C974 1.574 . S
C966 C982 1.368 . S
H967 C975 0.950 . S
H968 C973 0.950 . S
H969 C974 0.949 . S
H970 C976 0.950 . S
H971 C977 0.950 . S
H972 C978 0.949 . S
C973 H968 0.950 . S
C973 C975 1.327 . S
C973 C979 1.429 . S
C974 C966 1.574 . S
C974 H969 0.949 . S
C974 C980 1.368 . S
C975 C959 1.349 . S
C975 H967 0.950 . S
C975 C973 1.327 . S
C976 C964 1.349 . S
C976 H970 0.950 . S
C976 C977 1.327 . S
C977 H971 0.950 . S
C977 C976 1.327 . S
C977 C981 1.429 . S
C978 C961 1.574 . S
C978 H972 0.949 . S
C978 C982 1.368 . S
C979 C960 1.429 . S
C979 C973 1.429 . S
C979 C980 1.523 . S
C980 C961 1.368 . S
C980 C974 1.368 . S
C980 C979 1.523 . S
C981 C965 1.429 . S
C981 C977 1.429 . S
C981 C982 1.523 . S
C982 C966 1.368 . S
C982 C978 1.368 . S
C982 C981 1.523 . S
H983 C958 0.950 . S
H984 C960 0.950 . S
H985 C961 0.949 . S
H986 C963 0.950 . S
H987 C965 0.950 . S
C988 C989 1.349 . S
C988 C990 1.327 . S
C988 H1013 0.950 . S
C989 C988 1.349 . S
C989 C1005 1.349 . S
C990 C988 1.327 . S
C990 C1009 1.429 . S
C990 H1014 0.950 . S
C991 C1008 1.574 1_554 S
C991 C1010 1.368 . S
C991 H1015 0.949 . S
H992 C996 0.949 . S
C993 C994 1.349 . S
C993 C995 1.327 . S
C993 H1016 0.950 . S
C994 C993 1.349 . S
C994 C1006 1.349 . S
C995 C993 1.327 . S
C995 C1011 1.429 . S
C995 H1017 0.950 . S
C996 H992 0.949 . S
C996 C1004 1.574 . S
C996 C1012 1.368 . S
H997 C1005 0.950 . S
H998 C1003 0.950 . S
H999 C1004 0.949 . S
H1000 C1006 0.950 . S
H1001 C1007 0.950 1_554 S
H1002 C1008 0.949 . S
C1003 H998 0.950 . S
C1003 C1005 1.327 . S
C1003 C1009 1.429 . S
C1004 C996 1.574 . S
C1004 H999 0.949 . S
C1004 C1010 1.368 . S
C1005 C989 1.349 . S
C1005 H997 0.950 . S
C1005 C1003 1.327 . S
C1006 C994 1.349 . S
C1006 H1000 0.950 . S
C1006 C1007 1.327 . S
C1007 H1001 0.950 1_556 S
C1007 C1006 1.327 . S
C1007 C1011 1.429 . S
C1008 C991 1.574 1_556 S
C1008 H1002 0.949 . S
C1008 C1012 1.368 1_556 S
C1009 C990 1.429 . S
C1009 C1003 1.429 . S
C1009 C1010 1.523 . S
C1010 C991 1.368 . S
C1010 C1004 1.368 . S
C1010 C1009 1.523 . S
C1011 C995 1.429 . S
C1011 C1007 1.429 . S
C1011 C1012 1.523 1_556 S
C1012 C996 1.368 . S
C1012 C1008 1.368 1_554 S
C1012 C1011 1.523 1_554 S
H1013 C988 0.950 . S
H1014 C990 0.950 . S
H1015 C991 0.949 . S
H1016 C993 0.950 . S
H1017 C995 0.950 . S
C1018 C1019 1.349 . S
C1018 C1020 1.327 . S
C1018 H1043 0.950 . S
C1019 C1018 1.349 . S
C1019 C1035 1.349 . S
C1020 C1018 1.327 . S
C1020 C1039 1.429 . S
C1020 H1044 0.950 . S
C1021 C1038 1.574 . S
C1021 C1040 1.368 . S
C1021 H1045 0.949 . S
H1022 C1026 0.949 . S
C1023 C1024 1.349 . S
C1023 C1025 1.327 . S
C1023 H1046 0.950 . S
C1024 C1023 1.349 . S
C1024 C1036 1.349 . S
C1025 C1023 1.327 . S
C1025 C1041 1.429 . S
C1025 H1047 0.950 . S
C1026 H1022 0.949 . S
C1026 C1034 1.574 . S
C1026 C1042 1.368 . S
H1027 C1035 0.950 . S
H1028 C1033 0.950 . S
H1029 C1034 0.949 . S
H1030 C1036 0.950 . S
H1031 C1037 0.950 . S
H1032 C1038 0.949 . S
C1033 H1028 0.950 . S
C1033 C1035 1.327 . S
C1033 C1039 1.429 . S
C1034 C1026 1.574 . S
C1034 H1029 0.949 . S
C1034 C1040 1.368 . S
C1035 C1019 1.349 . S
C1035 H1027 0.950 . S
C1035 C1033 1.327 . S
C1036 C1024 1.349 . S
C1036 H1030 0.950 . S
C1036 C1037 1.327 . S
C1037 H1031 0.950 . S
C1037 C1036 1.327 . S
C1037 C1041 1.429 . S
C1038 C1021 1.574 . S
C1038 H1032 0.949 . S
C1038 C1042 1.368 . S
C1039 C1020 1.429 . S
C1039 C1033 1.429 . S
C1039 C1040 1.523 . S
C1040 C1021 1.368 . S
C1040 C1034 1.368 . S
C1040 C1039 1.523 . S
C1041 C1025 1.429 . S
C1041 C1037 1.429 . S
C1041 C1042 1.523 . S
C1042 C1026 1.368 . S
C1042 C1038 1.368 . S
C1042 C1041 1.523 . S
H1043 C1018 0.950 . S
H1044 C1020 0.950 . S
H1045 C1021 0.949 . S
H1046 C1023 0.950 . S
H1047 C1025 0.950 . S
C1048 C1049 1.349 . S
C1048 C1050 1.327 . S
C1048 H1073 0.950 . S
C1049 C1048 1.349 . S
C1049 C1065 1.349 . S
C1050 C1048 1.327 . S
C1050 C1069 1.429 . S
C1050 H1074 0.950 . S
C1051 C1068 1.574 . S
C1051 C1070 1.368 . S
C1051 H1075 0.949 . S
H1052 C1056 0.949 . S
C1053 C1054 1.349 . S
C1053 C1055 1.327 . S
C1053 H1076 0.950 . S
C1054 C1053 1.349 . S
C1054 C1066 1.349 . S
C1055 C1053 1.327 . S
C1055 C1071 1.429 . S
C1055 H1077 0.950 . S
C1056 H1052 0.949 . S
C1056 C1064 1.574 . S
C1056 C1072 1.368 . S
H1057 C1065 0.950 . S
H1058 C1063 0.950 . S
H1059 C1064 0.949 . S
H1060 C1066 0.950 . S
H1061 C1067 0.950 . S
H1062 C1068 0.949 . S
C1063 H1058 0.950 . S
C1063 C1065 1.327 . S
C1063 C1069 1.429 . S
C1064 C1056 1.574 . S
C1064 H1059 0.949 . S
C1064 C1070 1.368 . S
C1065 C1049 1.349 . S
C1065 H1057 0.950 . S
C1065 C1063 1.327 . S
C1066 C1054 1.349 . S
C1066 H1060 0.950 . S
C1066 C1067 1.327 . S
C1067 H1061 0.950 . S
C1067 C1066 1.327 . S
C1067 C1071 1.429 . S
C1068 C1051 1.574 . S
C1068 H1062 0.949 . S
C1068 C1072 1.368 . S
C1069 C1050 1.429 . S
C1069 C1063 1.429 . S
C1069 C1070 1.523 . S
C1070 C1051 1.368 . S
C1070 C1064 1.368 . S
C1070 C1069 1.523 . S
C1071 C1055 1.429 . S
C1071 C1067 1.429 . S
C1071 C1072 1.523 . S
C1072 C1056 1.368 . S
C1072 C1068 1.368 . S
C1072 C1071 1.523 . S
H1073 C1048 0.950 . S
H1074 C1050 0.950 . S
H1075 C1051 0.949 . S
H1076 C1053 0.950 . S
H1077 C1055 0.950 . S
C1078 C1079 1.349 . S
C1078 C1080 1.327 . S
C1078 H1103 0.950 . S
C1079 C1078 1.349 . S
C1079 C1095 1.349 . S
C1080 C1078 1.327 . S
C1080 C1099 1.429 . S
C1080 H1104 0.950 . S
C1081 C1098 1.574 . S
C1081 C1100 1.368 . S
C1081 H1105 0.949 . S
H1082 C1086 0.949 . S
C1083 C1084 1.349 . S
C1083 C1085 1.327 . S
C1083 H1106 0.950 . S
C1084 C1083 1.349 . S
C1084 C1096 1.349 . S
C1085 C1083 1.327 . S
C1085 C1101 1.429 . S
C1085 H1107 0.950 . S
C1086 H1082 0.949 . S
C1086 C1094 1.574 . S
C1086 C1102 1.368 . S
H1087 C1095 0.950 . S
H1088 C1093 0.950 . S
H1089 C1094 0.949 . S
H1090 C1096 0.950 . S
H1091 C1097 0.950 . S
H1092 C1098 0.949 . S
C1093 H1088 0.950 . S
C1093 C1095 1.327 . S
C1093 C1099 1.429 . S
C1094 C1086 1.574 . S
C1094 H1089 0.949 . S
C1094 C1100 1.368 . S
C1095 C1079 1.349 . S
C1095 H1087 0.950 . S
C1095 C1093 1.327 . S
C1096 C1084 1.349 . S
C1096 H1090 0.950 . S
C1096 C1097 1.327 . S
C1097 H1091 0.950 . S
C1097 C1096 1.327 . S
C1097 C1101 1.429 . S
C1098 C1081 1.574 . S
C1098 H1092 0.949 . S
C1098 C1102 1.368 . S
C1099 C1080 1.429 . S
C1099 C1093 1.429 . S
C1099 C1100 1.523 . S
C1100 C1081 1.368 . S
C1100 C1094 1.368 . S
C1100 C1099 1.523 . S
C1101 C1085 1.429 . S
C1101 C1097 1.429 . S
C1101 C1102 1.523 . S
C1102 C1086 1.368 . S
C1102 C1098 1.368 . S
C1102 C1101 1.523 . S
H1103 C1078 0.950 . S
H1104 C1080 0.950 . S
H1105 C1081 0.949 . S
H1106 C1083 0.950 . S
H1107 C1085 0.950 . S
C1108 C1109 1.349 . S
C1108 C1110 1.327 . S
C1108 H1133 0.950 . S
C1109 C1108 1.349 . S
C1109 C1125 1.349 . S
C1110 C1108 1.327 . S
C1110 C1129 1.429 . S
C1110 H1134 0.950 . S
C1111 C1128 1.574 1_565 S
C1111 C1130 1.368 . S
C1111 H1135 0.949 . S
H1112 C1116 0.949 . S
C1113 C1114 1.349 . S
C1113 C1115 1.327 . S
C1113 H1136 0.950 . S
C1114 C1113 1.349 . S
C1114 C1126 1.349 . S
C1115 C1113 1.327 . S
C1115 C1131 1.429 . S
C1115 H1137 0.950 . S
C1116 H1112 0.949 . S
C1116 C1124 1.574 1_545 S
C1116 C1132 1.368 . S
H1117 C1125 0.950 . S
H1118 C1123 0.950 . S
H1119 C1124 0.949 . S
H1120 C1126 0.950 . S
H1121 C1127 0.950 . S
H1122 C1128 0.949 1_556 S
C1123 H1118 0.950 . S
C1123 C1125 1.327 . S
C1123 C1129 1.429 . S
C1124 C1116 1.574 1_565 S
C1124 H1119 0.949 . S
C1124 C1130 1.368 . S
C1125 C1109 1.349 . S
C1125 H1117 0.950 . S
C1125 C1123 1.327 . S
C1126 C1114 1.349 . S
C1126 H1120 0.950 . S
C1126 C1127 1.327 . S
C1127 H1121 0.950 . S
C1127 C1126 1.327 . S
C1127 C1131 1.429 . S
C1128 C1111 1.574 1_545 S
C1128 H1122 0.949 1_554 S
C1128 C1132 1.368 . S
C1129 C1110 1.429 . S
C1129 C1123 1.429 . S
C1129 C1130 1.523 . S
C1130 C1111 1.368 . S
C1130 C1124 1.368 . S
C1130 C1129 1.523 . S
C1131 C1115 1.429 . S
C1131 C1127 1.429 . S
C1131 C1132 1.523 1_556 S
C1132 C1116 1.368 . S
C1132 C1128 1.368 . S
C1132 C1131 1.523 1_554 S
H1133 C1108 0.950 . S
H1134 C1110 0.950 . S
H1135 C1111 0.949 . S
H1136 C1113 0.950 . S
H1137 C1115 0.950 . S
C1138 C1139 1.349 . S
C1138 C1140 1.327 . S
C1138 H1163 0.950 . S
C1139 C1138 1.349 . S
C1139 C1155 1.349 1_455 S
C1140 C1138 1.327 . S
C1140 C1159 1.429 . S
C1140 H1164 0.950 . S
C1141 C1158 1.587 . S
C1141 C1160 1.355 1_665 S
C1141 H1165 0.949 . S
H1142 C1146 0.949 . S
C1143 C1144 1.349 1_655 S
C1143 C1145 1.327 . S
C1143 H1166 0.950 . S
C1144 C1143 1.349 1_455 S
C1144 C1156 1.349 . S
C1145 C1143 1.327 . S
C1145 C1161 1.429 1_655 S
C1145 H1167 0.950 . S
C1146 H1142 0.949 . S
C1146 C1154 1.586 . S
C1146 C1162 1.356 1_545 S
H1147 C1155 0.950 . S
H1148 C1153 0.950 . S
H1149 C1154 0.949 . S
H1150 C1156 0.950 . S
H1151 C1157 0.950 . S
H1152 C1158 0.949 . S
C1153 H1148 0.950 . S
C1153 C1155 1.327 . S
C1153 C1159 1.429 1_655 S
C1154 C1146 1.586 . S
C1154 H1149 0.949 . S
C1154 C1160 1.368 . S
C1155 C1139 1.349 1_655 S
C1155 H1147 0.950 . S
C1155 C1153 1.327 . S
C1156 C1144 1.349 . S
C1156 H1150 0.950 . S
C1156 C1157 1.327 . S
C1157 H1151 0.950 . S
C1157 C1156 1.327 . S
C1157 C1161 1.429 . S
C1158 C1141 1.587 . S
C1158 H1152 0.949 . S
C1158 C1162 1.368 1_655 S
C1159 C1140 1.429 . S
C1159 C1153 1.429 1_455 S
C1159 C1160 1.523 . S
C1160 C1141 1.355 1_445 S
C1160 C1154 1.368 . S
C1160 C1159 1.523 . S
C1161 C1145 1.429 1_455 S
C1161 C1157 1.429 . S
C1161 C1162 1.523 . S
C1162 C1146 1.356 1_565 S
C1162 C1158 1.368 1_455 S
C1162 C1161 1.523 . S
H1163 C1138 0.950 . S
H1164 C1140 0.950 . S
H1165 C1141 0.949 . S
H1166 C1143 0.950 . S
H1167 C1145 0.950 . S
C209 C120 1.488 . S
C214 C5 1.485 . S
C239 C185 1.488 . S
C244 C18 1.488 . S
C269 C31 1.488 . S
C274 C107 1.488 . S
C299 C44 1.488 . S
C304 C200 1.491 . S
C329 C55 1.488 . S
C334 C133 1.486 . S
C359 C172 1.488 . S
C364 C70 1.490 . S
C389 C146 1.488 . S
C394 C83 1.488 . S
C419 C94 1.488 . S
C424 C159 1.488 . S
C449 C57 1.610 . S
C454 C42 1.614 1_556 S
C479 C161 1.610 . S
C484 C109 1.610 . S
C509 C81 1.610 . S
C514 C16 1.610 . S
C539 C122 1.610 . S
C544 C174 1.608 . S
C569 C3 1.610 . S
C574 C68 1.613 . S
C599 C198 1.610 . S
C604 C135 1.608 1_556 S
C629 C96 1.610 . S
C634 C29 1.610 . S
C659 C148 1.610 . S
C664 C187 1.610 . S
C689 C10 0.530 . S
C694 C56 0.530 . S
C719 C75 0.530 . S
C724 C23 0.530 . S
C749 C88 0.530 . S
C754 C36 0.530 . S
C779 C49 0.530 . S
C784 C95 0.531 . S
C809 C134 0.530 . S
C814 C108 0.531 . S
C839 C147 0.530 . S
C844 C121 0.530 . S
C869 C186 0.530 . S
C874 C160 0.530 . S
C899 C205 0.530 . S
C904 C173 0.530 . S
C929 C62 1.855 . S
C934 C4 1.855 . S
C959 C69 1.855 . S
C964 C17 1.855 . S
C989 C82 1.855 . S
C994 C30 1.855 . S
C1019 C43 1.855 . S
C1024 C101 1.853 . S
C1049 C114 1.855 . S
C1054 C140 1.853 . S
C1079 C153 1.855 . S
C1084 C127 1.855 . S
C1109 C192 1.855 . S
C1114 C166 1.855 . S
C1139 C199 1.855 . S
C1144 C179 1.855 . S
