# Generated by pormake.
# Topology tfs, (6)-cn, num edge types: 1
# Building blocks:
#     Node 0, Type 0, BuildingBlock: CUWYAW_clean_sbu_0, # of connection points: 6
#     Node 1, Type 0, BuildingBlock: CUWYAW_clean_sbu_0, # of connection points: 6
#     Node 2, Type 0, BuildingBlock: CUWYAW_clean_sbu_0, # of connection points: 6
#     Node 3, Type 0, BuildingBlock: CUWYAW_clean_sbu_0, # of connection points: 6
#     Node 4, Type 0, BuildingBlock: CUWYAW_clean_sbu_0, # of connection points: 6
#     Node 5, Type 0, BuildingBlock: CUWYAW_clean_sbu_0, # of connection points: 6
#     Edge 6, Type (0, 0), BuildingBlock: FUNLAD_clean_linker_0, # of connection points: 2
#     Edge 7, Type (0, 0), BuildingBlock: FUNLAD_clean_linker_0, # of connection points: 2
#     Edge 8, Type (0, 0), BuildingBlock: FUNLAD_clean_linker_0, # of connection points: 2
#     Edge 9, Type (0, 0), BuildingBlock: FUNLAD_clean_linker_0, # of connection points: 2
#     Edge 10, Type (0, 0), BuildingBlock: FUNLAD_clean_linker_0, # of connection points: 2
#     Edge 11, Type (0, 0), BuildingBlock: FUNLAD_clean_linker_0, # of connection points: 2
#     Edge 12, Type (0, 0), BuildingBlock: FUNLAD_clean_linker_0, # of connection points: 2
#     Edge 13, Type (0, 0), BuildingBlock: FUNLAD_clean_linker_0, # of connection points: 2
#     Edge 14, Type (0, 0), BuildingBlock: FUNLAD_clean_linker_0, # of connection points: 2
#     Edge 15, Type (0, 0), BuildingBlock: FUNLAD_clean_linker_0, # of connection points: 2
#     Edge 16, Type (0, 0), BuildingBlock: FUNLAD_clean_linker_0, # of connection points: 2
#     Edge 17, Type (0, 0), BuildingBlock: FUNLAD_clean_linker_0, # of connection points: 2
#     Edge 18, Type (0, 0), BuildingBlock: FUNLAD_clean_linker_0, # of connection points: 2
#     Edge 19, Type (0, 0), BuildingBlock: FUNLAD_clean_linker_0, # of connection points: 2
#     Edge 20, Type (0, 0), BuildingBlock: FUNLAD_clean_linker_0, # of connection points: 2
#     Edge 21, Type (0, 0), BuildingBlock: FUNLAD_clean_linker_0, # of connection points: 2
#     Edge 22, Type (0, 0), BuildingBlock: FUNLAD_clean_linker_0, # of connection points: 2
#     Edge 23, Type (0, 0), BuildingBlock: FUNLAD_clean_linker_0, # of connection points: 2
# Relax obj value: 0.522
# Max RMSD: 0.287
# Mean RMSD: 0.287
data_MOF--net-tfs--node1-CUWYAW_clean_sbu_0--edge1-FUNLAD_clean_linker_0
_symmetry_space_group_name_H-M    P1
_symmetry_Int_Tables_number       1
_symmetry_cell_setting            triclinic
loop_
_symmetry_equiv_pos_as_xyz
'x, y, z'
_cell_length_a     62.111823
_cell_length_b     61.899135
_cell_length_c     16.884638
_cell_angle_alpha  90.086245
_cell_angle_beta   89.8402
_cell_angle_gamma 119.97274
loop_
_atom_site_label
_atom_site_type_symbol
_atom_site_fract_x
_atom_site_fract_y
_atom_site_fract_z
_atom_type_partial_charge
C0 C 0.19429 0.37328 0.90604 0.0
Eu1 Eu 0.18662 0.40746 0.96798 0.0
C2 C 0.21368 0.36639 0.90661 0.0
C3 C 0.23513 0.37967 0.95267 0.0
C4 C 0.25312 0.37239 0.95427 0.0
C5 C 0.24988 0.35171 0.90985 0.0
C6 C 0.22842 0.3387 0.86311 0.0
C7 C 0.21048 0.346 0.86159 0.0
C8 C 0.18405 0.41469 0.12506 0.0
C9 C 0.12831 0.3903 0.97592 0.0
C10 C 0.16183 0.4779 0.07725 0.0
Eu11 Eu 0.17036 0.44494 0.01038 0.0
C12 C 0.17086 0.50474 0.07373 0.0
C13 C 0.18648 0.51948 0.01216 0.0
C14 C 0.19355 0.54473 1.00711 0.0
C15 C 0.18516 0.55558 0.06376 0.0
C16 C 0.16994 0.54075 0.12621 0.0
C17 C 0.16285 0.51554 0.13103 0.0
C18 C 0.17439 0.43918 0.85253 0.0
C19 C 0.22997 0.46286 1.00316 0.0
O20 O 0.18258 0.37049 0.97308 0.0
O21 O 0.19985 0.39415 0.87013 0.0
O22 O 0.2009 0.4108 0.09354 0.0
O23 O 0.1687 0.41313 0.07363 0.0
O24 O 0.14557 0.38846 0.93548 0.0
O25 O 0.13448 0.40905 0.02495 0.0
O26 O 0.17708 0.47116 0.10652 0.0
O27 O 0.15004 0.46505 0.01452 0.0
O28 O 0.15804 0.44396 0.88288 0.0
O29 O 0.18881 0.43975 0.9055 0.0
O30 O 0.21234 0.46773 0.02549 0.0
O31 O 0.22477 0.44117 0.97216 0.0
H32 H 0.23781 0.39548 0.9879 0.0
H33 H 0.26929 0.38263 0.99152 0.0
H34 H 0.22554 0.32293 0.82736 0.0
H35 H 0.19402 0.33562 0.82553 0.0
H36 H 0.19288 0.51137 0.96753 0.0
H37 H 0.20552 0.55574 0.95887 0.0
H38 H 0.16291 0.54844 0.17018 0.0
H39 H 0.1507 0.50434 0.17876 0.0
C40 C 0.82268 0.19329 0.92566 0.0
Eu41 Eu 0.78284 0.18421 1.00317 0.0
C42 C 0.84922 0.21189 0.92859 0.0
C43 C 0.8579 0.23291 0.97757 0.0
C44 C 0.88328 0.2504 0.98047 0.0
C45 C 0.90038 0.2471 0.93458 0.0
C46 C 0.8915 0.22595 0.88558 0.0
C47 C 0.86611 0.20851 0.88264 0.0
C48 C 0.77741 0.18823 0.16318 0.0
C49 C 0.74058 0.12797 0.043 0.0
C50 C 0.68409 0.15999 0.09998 0.0
Eu51 Eu 0.7281 0.17314 0.04495 0.0
C52 C 0.66541 0.16762 0.08904 0.0
C53 C 0.66784 0.18401 0.02795 0.0
C54 C 0.64978 0.19095 0.01767 0.0
C55 C 0.62904 0.18166 0.06853 0.0
C56 C 0.62687 0.16534 0.13001 0.0
C57 C 0.64491 0.15839 0.14007 0.0
C58 C 0.74135 0.17949 0.88913 0.0
C59 C 0.77143 0.22993 0.02699 0.0
O60 O 0.814 0.17792 0.98599 0.0
O61 O 0.80785 0.20156 0.90346 0.0
O62 O 0.79832 0.19304 0.1306 0.0
O63 O 0.76181 0.18238 0.10882 0.0
O64 O 0.7615 0.14218 1.004 0.0
O65 O 0.72682 0.13682 0.07306 0.0
O66 O 0.70468 0.17622 0.13533 0.0
O67 O 0.68798 0.14929 0.03889 0.0
O68 O 0.72709 0.18693 0.92079 0.0
O69 O 0.74678 0.16809 0.93991 0.0
O70 O 0.74985 0.21462 0.06097 0.0
O71 O 0.78545 0.22204 0.99224 0.0
H72 H 0.84506 0.23571 0.01376 0.0
H73 H 0.88955 0.2663 0.01958 0.0
H74 H 0.90414 0.22302 0.84888 0.0
H75 H 0.85966 0.19236 0.84447 0.0
H76 H 0.68362 0.19132 0.98802 0.0
H77 H 0.6519 0.20331 0.96923 0.0
H78 H 0.61137 0.15817 0.17101 0.0
H79 H 0.64286 0.14581 0.1878 0.0
C80 C 0.62877 0.82062 0.98127 0.0
Eu81 Eu 0.5938 0.77873 0.04017 0.0
C82 C 0.6388 0.84774 0.98943 0.0
C83 C 0.64681 0.85981 0.06296 0.0
C84 C 0.65773 0.88573 0.06829 0.0
C85 C 0.66075 0.90013 1.00035 0.0
C86 C 0.65223 0.88789 0.92716 0.0
C87 C 0.64146 0.86199 0.9218 0.0
C88 C 0.58466 0.7714 0.19803 0.0
C89 C 0.61191 0.73855 0.05838 0.0
C90 C 0.52359 0.68486 0.15135 0.0
Eu91 Eu 0.55743 0.72591 0.08481 0.0
C92 C 0.49679 0.66774 0.143 0.0
C93 C 0.48382 0.66921 0.07726 0.0
C94 C 0.45849 0.65207 0.06836 0.0
C95 C 0.44573 0.63332 0.12534 0.0
C96 C 0.4588 0.63229 0.19181 0.0
C97 C 0.48413 0.64934 0.20043 0.0
C98 C 0.56552 0.73312 0.92602 0.0
C99 C 0.53772 0.7658 0.06159 0.0
O100 O 0.63206 0.8091 0.04086 0.0
O101 O 0.60683 0.80761 0.94883 0.0
O102 O 0.58836 0.7913 0.16093 0.0
O103 O 0.58741 0.757 0.15159 0.0
O104 O 0.61321 0.75657 0.01321 0.0
O105 O 0.59326 0.72677 0.10808 0.0
O106 O 0.53026 0.70708 0.17903 0.0
O107 O 0.53738 0.68543 0.09183 0.0
O108 O 0.56118 0.71291 0.96235 0.0
O109 O 0.56351 0.74768 0.97364 0.0
O110 O 0.53317 0.7437 0.08691 0.0
O111 O 0.55976 0.7826 0.0343 0.0
H112 H 0.64502 0.84931 0.11625 0.0
H113 H 0.66432 0.8945 0.12544 0.0
H114 H 0.65383 0.89831 0.87386 0.0
H115 H 0.63542 0.8531 0.86449 0.0
H116 H 0.49334 0.68345 0.03257 0.0
H117 H 0.44887 0.65355 0.01707 0.0
H118 H 0.44956 0.61792 0.23628 0.0
H119 H 0.49392 0.64797 0.25148 0.0
C120 C 0.80624 0.63109 0.88843 0.0
Eu121 Eu 0.81668 0.60077 0.9628 0.0
C122 C 0.78898 0.64064 0.89763 0.0
C123 C 0.77762 0.63925 0.97082 0.0
C124 C 0.76204 0.64935 0.97967 0.0
C125 C 0.75744 0.66091 0.91533 0.0
C126 C 0.7686 0.66187 0.84175 0.0
C127 C 0.78426 0.65184 0.8331 0.0
C128 C 0.81405 0.59195 0.12311 0.0
C129 C 0.87382 0.61675 0.99515 0.0
C130 C 0.8447 0.52884 0.06005 0.0
Eu131 Eu 0.83036 0.55866 1.00394 0.0
C132 C 0.83714 0.5022 0.05524 0.0
C133 C 0.83244 0.48974 0.98218 0.0
C134 C 0.82517 0.46441 0.97954 0.0
C135 C 0.82221 0.45105 0.04986 0.0
C136 C 0.82688 0.46359 0.12278 0.0
C137 C 0.83435 0.48893 0.12535 0.0
C138 C 0.82254 0.56441 0.84842 0.0
C139 C 0.77304 0.54297 0.98834 0.0
O140 O 0.82368 0.63833 0.94232 0.0
O141 O 0.7963 0.60739 0.87003 0.0
O142 O 0.80808 0.60729 0.09109 0.0
O143 O 0.82039 0.58273 0.06811 0.0
O144 O 0.85854 0.62227 0.95743 0.0
O145 O 0.86624 0.59457 0.02706 0.0
O146 O 0.82944 0.53413 0.0979 0.0
O147 O 0.85421 0.54234 0.99601 0.0
O148 O 0.81632 0.543 0.88054 0.0
O149 O 0.83357 0.58157 0.89851 0.0
O150 O 0.78911 0.53781 0.02241 0.0
O151 O 0.77989 0.56449 0.95214 0.0
H152 H 0.78106 0.63064 0.02134 0.0
H153 H 0.75401 0.64853 0.03736 0.0
H154 H 0.76514 0.67025 0.79068 0.0
H155 H 0.79281 0.65297 0.77608 0.0
H156 H 0.83425 0.49949 0.92717 0.0
H157 H 0.82143 0.45516 0.92258 0.0
H158 H 0.82499 0.45384 0.17786 0.0
H159 H 0.83791 0.49819 0.18229 0.0
C160 C 0.18011 0.8095 0.96467 0.0
Eu161 Eu 0.22265 0.81872 0.02354 0.0
C162 C 0.15376 0.79054 0.9717 0.0
C163 C 0.14591 0.77018 0.02316 0.0
C164 C 0.12057 0.75286 0.03145 0.0
C165 C 0.10274 0.75574 0.98861 0.0
C166 C 0.11085 0.77607 0.93649 0.0
C167 C 0.13614 0.7933 0.92816 0.0
C168 C 0.23258 0.82143 0.18033 0.0
C169 C 0.26199 0.87752 0.032 0.0
C170 C 0.3193 0.84775 0.12519 0.0
Eu171 Eu 0.27666 0.83707 0.06402 0.0
C172 C 0.33857 0.84074 0.11531 0.0
C173 C 0.3635 0.85966 0.10985 0.0
C174 C 0.38225 0.85376 0.09892 0.0
C175 C 0.37644 0.82876 0.09373 0.0
C176 C 0.35143 0.80977 0.09964 0.0
C177 C 0.33261 0.8157 0.10994 0.0
C178 C 0.26668 0.83289 0.90639 0.0
C179 C 0.23708 0.77692 0.0581 0.0
O180 O 0.19014 0.82329 0.02743 0.0
O181 O 0.19462 0.80253 0.93073 0.0
O182 O 0.21212 0.80409 0.14907 0.0
O183 O 0.24596 0.83716 0.12895 0.0
O184 O 0.24368 0.85996 0.98985 0.0
O185 O 0.27441 0.87163 0.08213 0.0
O186 O 0.29789 0.83109 0.15527 0.0
O187 O 0.31696 0.86018 0.06652 0.0
O188 O 0.28746 0.84984 0.93652 0.0
O189 O 0.25326 0.81802 0.95935 0.0
O190 O 0.25909 0.79525 0.08079 0.0
O191 O 0.22004 0.78118 0.02699 0.0
H192 H 0.15934 0.76787 0.05746 0.0
H193 H 0.1149 0.73753 0.07254 0.0
H194 H 0.09763 0.7786 0.9018 0.0
H195 H 0.14194 0.80892 0.88811 0.0
H196 H 0.36847 0.87909 0.11389 0.0
H197 H 0.40136 0.86878 0.09556 0.0
H198 H 0.3464 0.79034 0.09516 0.0
H199 H 0.31348 0.80074 0.1133 0.0
C200 C 0.36805 0.1797 0.88052 0.0
Eu201 Eu 0.40425 0.22049 0.94062 0.0
C202 C 0.35564 0.15254 0.89329 0.0
C203 C 0.34761 0.14214 0.96894 0.0
C204 C 0.33524 0.1163 0.97932 0.0
C205 C 0.33085 0.10033 0.91446 0.0
C206 C 0.33903 0.11085 0.83886 0.0
C207 C 0.35124 0.1367 0.82843 0.0
C208 C 0.41086 0.22981 0.09821 0.0
C209 C 0.39116 0.26445 0.94404 0.0
C210 C 0.4783 0.31387 0.04943 0.0
Eu211 Eu 0.44382 0.2732 0.98341 0.0
C212 C 0.50522 0.33114 0.04253 0.0
C213 C 0.51703 0.33785 0.96831 0.0
C214 C 0.54233 0.35549 0.96297 0.0
C215 C 0.55628 0.36653 0.03174 0.0
C216 C 0.54448 0.35929 0.10598 0.0
C217 C 0.51915 0.34181 0.11123 0.0
C218 C 0.43855 0.26378 0.82517 0.0
C219 C 0.45787 0.22855 0.97967 0.0
O220 O 0.36497 0.19287 0.93537 0.0
O221 O 0.39078 0.19054 0.85287 0.0
O222 O 0.40531 0.2085 0.0669 0.0
O223 O 0.41089 0.2444 0.04637 0.0
O224 O 0.38903 0.24548 0.902 0.0
O225 O 0.40913 0.27546 0.9963 0.0
O226 O 0.4713 0.29157 0.07713 0.0
O227 O 0.46457 0.3136 0.99042 0.0
O228 O 0.44486 0.28536 0.85559 0.0
O229 O 0.43759 0.24917 0.87833 0.0
O230 O 0.46398 0.25144 1.00195 0.0
O231 O 0.43615 0.2132 0.94716 0.0
H232 H 0.35073 0.15392 0.0201 0.0
H233 H 0.32891 0.10886 0.03818 0.0
H234 H 0.33632 0.09915 0.78782 0.0
H235 H 0.3573 0.14436 0.76958 0.0
H236 H 0.50667 0.3297 0.91443 0.0
H237 H 0.55101 0.36046 0.90506 0.0
H238 H 0.5547 0.36762 0.15994 0.0
H239 H 0.51034 0.33688 0.16898 0.0
C240 C 0.37481 0.29276 0.98059 0.0
C241 C 0.3731 0.27318 0.93373 0.0
C242 C 0.35761 0.30086 0.97214 0.0
C243 C 0.33839 0.28968 0.91601 0.0
C244 C 0.33658 0.26999 0.86965 0.0
C245 C 0.3538 0.26187 0.87813 0.0
C246 C 0.31934 0.29733 0.9068 0.0
C247 C 0.32325 0.32008 0.92713 0.0
C248 C 0.30402 0.32758 0.92052 0.0
C249 C 0.31163 0.35307 0.91692 0.0
C250 C 0.29413 0.36094 0.91299 0.0
C251 C 0.26857 0.34345 0.91315 0.0
H252 H 0.27171 0.2903 0.92702 0.0
C253 C 0.26093 0.31793 0.91743 0.0
C254 C 0.27842 0.31006 0.92136 0.0
H255 H 0.24138 0.30401 0.9195 0.0
H256 H 0.38929 0.30171 0.02457 0.0
H257 H 0.3592 0.31548 0.01105 0.0
H258 H 0.32182 0.26087 0.82657 0.0
H259 H 0.3519 0.24666 0.8413 0.0
H260 H 0.30184 0.28394 0.87971 0.0
H261 H 0.34155 0.33425 0.94697 0.0
H262 H 0.33121 0.36698 0.91683 0.0
H263 H 0.30063 0.38072 0.90913 0.0
C264 C 0.08359 0.37245 0.01293 0.0
C265 C 0.10179 0.37118 0.96677 0.0
C266 C 0.0585 0.35466 1.0043 0.0
C267 C 0.05096 0.33527 0.94862 0.0
C268 C 0.06919 0.33376 0.90348 0.0
C269 C 0.09435 0.35158 0.91218 0.0
C270 C 0.0244 0.31593 0.93814 0.0
C271 C 0.00545 0.31988 0.95583 0.0
C272 C 0.97875 0.3007 0.94755 0.0
C273 C 0.96111 0.30858 0.94498 0.0
C274 C 0.93575 0.29125 0.94016 0.0
C275 C 0.92738 0.26556 0.93823 0.0
H276 H 0.98319 0.26799 0.95031 0.0
C277 C 0.94499 0.25762 0.9409 0.0
C278 C 0.97038 0.27496 0.94584 0.0
H279 H 0.93911 0.23793 0.94107 0.0
H280 H 0.08868 0.38712 0.05624 0.0
H281 H 0.0452 0.35601 0.04248 0.0
H282 H 0.06395 0.31887 0.86083 0.0
H283 H 0.10792 0.35 0.87591 0.0
H284 H 0.02056 0.29833 0.91198 0.0
H285 H 0.00952 0.3383 0.97487 0.0
H286 H 0.96698 0.32826 0.94666 0.0
H287 H 0.92269 0.29799 0.93741 0.0
C288 C 0.74559 0.09053 0.02149 0.0
C289 C 0.73155 0.10092 0.05091 0.0
C290 C 0.73639 0.0648 0.02574 0.0
C291 C 0.71281 0.04885 0.05888 0.0
C292 C 0.6992 0.0594 0.09033 0.0
C293 C 0.70839 0.08507 0.08631 0.0
C294 C 0.70161 0.02124 0.06219 0.0
C295 C 0.70873 0.00824 0.01536 0.0
C296 C 0.69634 0.98048 0.01446 0.0
C297 C 0.70073 0.96888 0.94982 0.0
C298 C 0.68926 0.94292 0.94531 0.0
C299 C 0.67306 0.92781 1.00551 0.0
H300 H 0.6771 0.97333 0.12788 0.0
C301 C 0.66894 0.93938 0.07092 0.0
C302 C 0.68054 0.96538 0.0757 0.0
H303 H 0.65652 0.92836 0.11829 0.0
H304 H 0.76363 0.10222 0.99474 0.0
H305 H 0.74797 0.05768 1.00333 0.0
H306 H 0.68112 0.04768 0.11697 0.0
H307 H 0.69709 0.09239 0.11004 0.0
H308 H 0.68577 0.01133 0.1013 0.0
H309 H 0.72334 0.01811 0.97199 0.0
H310 H 0.713 0.97995 0.90217 0.0
H311 H 0.69333 0.93471 0.89488 0.0
C312 C 0.71966 0.66027 0.97201 0.0
C313 C 0.74128 0.67215 0.92526 0.0
C314 C 0.70469 0.67099 0.98247 0.0
C315 C 0.71105 0.69394 0.94659 0.0
C316 C 0.73235 0.70555 0.89862 0.0
C317 C 0.7474 0.69489 0.88843 0.0
C318 C 0.69542 0.70577 0.95559 0.0
C319 C 0.68133 0.70252 0.02025 0.0
C320 C 0.66452 0.71304 0.02976 0.0
C321 C 0.6459 0.7027 0.08798 0.0
C322 C 0.62909 0.71123 0.09802 0.0
C323 C 0.6306 0.73051 0.05025 0.0
H324 H 0.68096 0.74195 0.93936 0.0
C325 C 0.64964 0.74142 0.99338 0.0
C326 C 0.66648 0.73285 0.98326 0.0
H327 H 0.65144 0.75647 0.95604 0.0
H328 H 0.71406 0.64245 0.99964 0.0
H329 H 0.68789 0.66094 0.01732 0.0
H330 H 0.73756 0.72312 0.86973 0.0
H331 H 0.76404 0.70468 0.85263 0.0
H332 H 0.69589 0.71755 0.90743 0.0
H333 H 0.68152 0.69101 0.06841 0.0
H334 H 0.64404 0.68759 0.12519 0.0
H335 H 0.61475 0.70249 0.1427 0.0
C336 C 0.05871 0.7464 1.0038 0.0
C337 C 0.07577 0.73781 0.99847 0.0
C338 C 0.03326 0.72961 0.01128 0.0
C339 C 0.02421 0.70373 0.01268 0.0
C340 C 0.04135 0.69521 0.00925 0.0
C341 C 0.06683 0.71202 1.00212 0.0
C342 C 0.99722 0.68505 0.01864 0.0
C343 C 0.979 0.68993 0.99939 0.0
C344 C 0.95203 0.671 1.00151 0.0
C345 C 0.93547 0.67557 0.95799 0.0
C346 C 0.91007 0.65816 0.95673 0.0
C347 C 0.90057 0.63572 0.99925 0.0
H348 H 0.95426 0.64488 0.08271 0.0
C349 C 0.91701 0.63137 0.04445 0.0
C350 C 0.94241 0.64884 0.04599 0.0
H351 H 0.91029 0.61443 0.0788 0.0
H352 H 0.06508 0.76619 1.00314 0.0
H353 H 0.02094 0.73714 0.01692 0.0
H354 H 0.03499 0.67542 0.01092 0.0
H355 H 0.07947 0.7048 0.99787 0.0
H356 H 0.99244 0.66624 0.03513 0.0
H357 H 0.98387 0.70818 0.97647 0.0
H358 H 0.94226 0.69257 0.92382 0.0
H359 H 0.89796 0.66219 0.92146 0.0
C360 C 0.25804 0.91174 0.96557 0.0
C361 C 0.26921 0.90406 0.02273 0.0
C362 C 0.26599 0.93711 0.95542 0.0
C363 C 0.28526 0.95524 1.00267 0.0
C364 C 0.29611 0.94737 0.06018 0.0
C365 C 0.28819 0.92217 0.07029 0.0
C366 C 0.29553 0.98252 0.9929 0.0
C367 C 0.28432 0.99312 0.95358 0.0
C368 C 0.29577 0.02064 0.94601 0.0
C369 C 0.29003 0.03058 0.88004 0.0
C370 C 0.30123 0.0564 0.86989 0.0
C371 C 0.31828 0.07285 0.92597 0.0
H372 H 0.3164 0.03028 0.05675 0.0
C373 C 0.32344 0.06286 0.99315 0.0
C374 C 0.3122 0.03711 1.00342 0.0
H375 H 0.33651 0.07492 0.03746 0.0
H376 H 0.24344 0.89821 0.92772 0.0
H377 H 0.25739 0.9423 0.90936 0.0
H378 H 0.31098 0.96084 0.09741 0.0
H379 H 0.29721 0.91697 0.11504 0.0
H380 H 0.31351 0.99446 0.01995 0.0
H381 H 0.2667 0.98161 0.92414 0.0
H382 H 0.27716 0.01834 0.83555 0.0
H383 H 0.29643 0.06346 0.81825 0.0
C384 C 0.21014 0.73094 0.03415 0.0
C385 C 0.2319 0.75093 0.06588 0.0
C386 C 0.20568 0.7065 0.04018 0.0
C387 C 0.22293 0.70157 0.07808 0.0
C388 C 0.24439 0.72149 0.11108 0.0
C389 C 0.24893 0.7459 0.10467 0.0
C390 C 0.21885 0.67591 0.08669 0.0
C391 C 0.20516 0.65728 0.03571 0.0
C392 C 0.20119 0.63164 0.04422 0.0
C393 C 0.19506 0.61638 0.97686 0.0
C394 C 0.1904 0.59189 0.98284 0.0
C395 C 0.19151 0.58203 0.05665 0.0
H396 H 0.20638 0.63265 0.17187 0.0
C397 C 0.19769 0.5973 0.12411 0.0
C398 C 0.20241 0.6218 0.11812 0.0
H399 H 0.19877 0.59027 0.18179 0.0
H400 H 0.19655 0.73413 1.00439 0.0
H401 H 0.18853 0.69156 0.01619 0.0
H402 H 0.25785 0.7182 0.14132 0.0
H403 H 0.26582 0.7608 0.1303 0.0
H404 H 0.22863 0.67276 0.13445 0.0
H405 H 0.19741 0.66111 0.98359 0.0
H406 H 0.19375 0.62339 0.91935 0.0
H407 H 0.1853 0.58048 0.92994 0.0
C408 C 0.49881 0.23552 0.02969 0.0
C409 C 0.4763 0.22023 0.99014 0.0
C410 C 0.51639 0.22793 0.03906 0.0
C411 C 0.51201 0.20493 1.00825 0.0
C412 C 0.48933 0.18949 0.96996 0.0
C413 C 0.47169 0.19704 0.9608 0.0
C414 C 0.53023 0.19612 0.01687 0.0
C415 C 0.55473 0.21156 0.02917 0.0
C416 C 0.57318 0.20304 0.03809 0.0
C417 C 0.59852 0.22056 0.02845 0.0
C418 C 0.6166 0.21364 0.0379 0.0
C419 C 0.60978 0.18898 0.05768 0.0
H420 H 0.54716 0.16437 0.06879 0.0
C421 C 0.58443 0.17144 0.06781 0.0
C422 C 0.56634 0.17837 0.05852 0.0
H423 H 0.57851 0.15224 0.08259 0.0
H424 H 0.50286 0.25336 0.054 0.0
H425 H 0.53314 0.24004 0.0716 0.0
H426 H 0.48531 0.17156 0.94642 0.0
H427 H 0.45451 0.18474 0.93032 0.0
H428 H 0.52318 0.1763 0.00916 0.0
H429 H 0.56201 0.23156 0.02974 0.0
H430 H 0.6044 0.23976 0.01362 0.0
H431 H 0.63596 0.22774 0.03097 0.0
C432 C 0.40998 0.6034 0.0407 0.0
C433 C 0.41903 0.61457 0.11488 0.0
C434 C 0.38501 0.58517 0.03138 0.0
C435 C 0.36854 0.57769 0.09624 0.0
C436 C 0.37749 0.58928 0.16985 0.0
C437 C 0.40248 0.60739 0.17928 0.0
C438 C 0.34186 0.55842 0.08894 0.0
C439 C 0.33322 0.54002 0.03454 0.0
C440 C 0.30658 0.52047 0.02817 0.0
C441 C 0.30044 0.49744 0.9937 0.0
C442 C 0.27561 0.47868 0.98594 0.0
C443 C 0.25632 0.48264 0.01176 0.0
H444 H 0.29115 0.54228 0.07788 0.0
C445 C 0.26245 0.50581 0.0454 0.0
C446 C 0.28727 0.52454 0.05336 0.0
H447 H 0.24808 0.50961 0.06534 0.0
H448 H 0.42229 0.60848 0.98999 0.0
H449 H 0.37869 0.57726 0.97311 0.0
H450 H 0.36516 0.58411 0.22056 0.0
H451 H 0.40882 0.61591 0.23691 0.0
H452 H 0.32922 0.5587 0.13295 0.0
H453 H 0.34624 0.53833 0.99559 0.0
H454 H 0.31492 0.49388 0.97312 0.0
H455 H 0.27159 0.4611 0.95945 0.0
C456 C 0.82462 0.41476 0.99328 0.0
C457 C 0.81404 0.42407 0.04749 0.0
C458 C 0.81708 0.38934 0.99204 0.0
C459 C 0.79871 0.37273 0.04496 0.0
C460 C 0.78785 0.38203 0.09794 0.0
C461 C 0.79554 0.40742 0.09967 0.0
C462 C 0.78979 0.34554 0.04535 0.0
C463 C 0.80388 0.33562 0.02295 0.0
C464 C 0.79519 0.3084 0.02557 0.0
C465 C 0.80826 0.29927 0.98192 0.0
C466 C 0.80074 0.27385 0.9826 0.0
C467 C 0.77994 0.25697 0.02718 0.0
H468 H 0.76458 0.29763 0.10878 0.0
C469 C 0.76713 0.26614 0.07196 0.0
C470 C 0.77472 0.29151 0.07167 0.0
H471 H 0.75124 0.25375 0.10795 0.0
H472 H 0.83893 0.42717 0.95236 0.0
H473 H 0.82539 0.3828 0.94875 0.0
H474 H 0.77347 0.36962 0.13872 0.0
H475 H 0.78678 0.414 0.14129 0.0
H476 H 0.77106 0.33357 0.06705 0.0
H477 H 0.82265 0.34784 1.00156 0.0
H478 H 0.82426 0.31181 0.94656 0.0
H479 H 0.81112 0.26745 0.94762 0.0
C480 C 0.3969 0.80391 0.12851 0.0
C481 C 0.3965 0.82263 0.08281 0.0
C482 C 0.41627 0.79873 0.1203 0.0
C483 C 0.43554 0.81196 0.06509 0.0
C484 C 0.43504 0.83066 0.01946 0.0
C485 C 0.41576 0.83594 0.02813 0.0
C486 C 0.45692 0.80758 0.05528 0.0
C487 C 0.45662 0.78669 0.07958 0.0
C488 C 0.47794 0.78213 0.07168 0.0
C489 C 0.47356 0.75791 0.08557 0.0
C490 C 0.49291 0.75263 0.08167 0.0
C491 C 0.51724 0.7715 0.06365 0.0
H492 H 0.50689 0.82017 0.04448 0.0
C493 C 0.52173 0.79576 0.0493 0.0
C494 C 0.50236 0.8011 0.05371 0.0
H495 H 0.54032 0.81077 0.03595 0.0
H496 H 0.38255 0.79368 0.17221 0.0
H497 H 0.41623 0.78479 0.15885 0.0
H498 H 0.44964 0.84126 0.97685 0.0
H499 H 0.41587 0.85038 0.99169 0.0
H500 H 0.47309 0.82193 0.02451 0.0
H501 H 0.43968 0.77162 0.1048 0.0
H502 H 0.45505 0.74292 0.09992 0.0
H503 H 0.48872 0.7337 0.09296 0.0
C504 C 0.73833 0.50238 0.03826 0.0
C505 C 0.74639 0.52361 0.99037 0.0
C506 C 0.71336 0.48379 0.03991 0.0
C507 C 0.69577 0.48577 0.99273 0.0
C508 C 0.70376 0.50723 0.94598 0.0
C509 C 0.72878 0.52595 0.9447 0.0
C510 C 0.66895 0.46629 0.99222 0.0
C511 C 0.66029 0.44263 0.01695 0.0
C512 C 0.63349 0.4234 0.01879 0.0
C513 C 0.62542 0.40377 0.07341 0.0
C514 C 0.6004 0.3853 0.07755 0.0
C515 C 0.58294 0.38586 0.0262 0.0
H516 H 0.62166 0.4382 0.92208 0.0
C517 C 0.59106 0.4052 0.97029 0.0
C518 C 0.61607 0.42381 0.96658 0.0
H519 H 0.57799 0.40614 0.93006 0.0
H520 H 0.75129 0.50012 0.07523 0.0
H521 H 0.70808 0.46819 0.07937 0.0
H522 H 0.69062 0.50944 0.90972 0.0
H523 H 0.73433 0.54211 0.90733 0.0
H524 H 0.65597 0.47181 0.97044 0.0
H525 H 0.67308 0.43693 0.0389 0.0
H526 H 0.63848 0.40284 0.11371 0.0
H527 H 0.59475 0.37044 0.12053 0.0
C528 C 0.15944 0.43431 0.71281 0.0
C529 C 0.17721 0.43591 0.76721 0.0
C530 C 0.16198 0.431 0.632 0.0
C531 C 0.18252 0.42938 0.6039 0.0
C532 C 0.20014 0.43079 0.65877 0.0
C533 C 0.19761 0.43415 0.73946 0.0
C534 C 0.18585 0.42538 0.51869 0.0
C535 C 0.17547 0.43134 0.45867 0.0
C536 C 0.17837 0.42703 0.37336 0.0
C537 C 0.16104 0.42652 0.31899 0.0
C538 C 0.16287 0.4225 0.23838 0.0
C539 C 0.18224 0.41908 0.21018 0.0
H540 H 0.21229 0.42503 0.3837 0.0
C541 C 0.19987 0.41998 0.26393 0.0
C542 C 0.19803 0.42398 0.34469 0.0
H543 H 0.21516 0.41768 0.24356 0.0
H544 H 0.1434 0.43538 0.73278 0.0
H545 H 0.14751 0.42919 0.59246 0.0
H546 H 0.21605 0.42944 0.63909 0.0
H547 H 0.21168 0.43545 0.78007 0.0
H548 H 0.19752 0.41738 0.50575 0.0
H549 H 0.1639 0.43945 0.47193 0.0
H550 H 0.14584 0.42904 0.33901 0.0
H551 H 0.14909 0.42204 0.19818 0.0
C552 C 0.74391 0.19685 0.75297 0.0
C553 C 0.74622 0.17996 0.80287 0.0
C554 C 0.74713 0.19639 0.67078 0.0
C555 C 0.75221 0.17864 0.63668 0.0
C556 C 0.75454 0.16181 0.68672 0.0
C557 C 0.75199 0.16271 0.76903 0.0
C558 C 0.75384 0.17643 0.54912 0.0
C559 C 0.76487 0.19634 0.50052 0.0
C560 C 0.76752 0.19395 0.41373 0.0
C561 C 0.7905 0.20942 0.377 0.0
C562 C 0.79362 0.20744 0.29563 0.0
C563 C 0.77354 0.19064 0.24861 0.0
H564 H 0.72935 0.16515 0.39342 0.0
C565 C 0.75029 0.17568 0.28467 0.0
C566 C 0.74738 0.17704 0.3668 0.0
H567 H 0.73454 0.16252 0.24973 0.0
H568 H 0.73942 0.21031 0.77746 0.0
H569 H 0.74484 0.20938 0.63381 0.0
H570 H 0.75836 0.14789 0.66204 0.0
H571 H 0.75378 0.14939 0.80594 0.0
H572 H 0.7471 0.15791 0.52454 0.0
H573 H 0.77398 0.21499 0.52574 0.0
H574 H 0.80624 0.22271 0.41168 0.0
H575 H 0.81173 0.21922 0.26928 0.0
C576 C 0.57035 0.7579 0.80282 0.0
C577 C 0.56877 0.73676 0.83924 0.0
C578 C 0.57317 0.761 0.72044 0.0
C579 C 0.5744 0.74291 0.6727 0.0
C580 C 0.57319 0.72202 0.7098 0.0
C581 C 0.57031 0.71892 0.7919 0.0
C582 C 0.57764 0.74525 0.58478 0.0
C583 C 0.57225 0.75987 0.53937 0.0
C584 C 0.57545 0.76207 0.45141 0.0
C585 C 0.57691 0.783 0.41384 0.0
C586 C 0.57983 0.78595 0.33167 0.0
C587 C 0.58119 0.76791 0.28481 0.0
H588 H 0.57454 0.72691 0.42976 0.0
C589 C 0.5793 0.74671 0.32171 0.0
C590 C 0.57641 0.74375 0.40408 0.0
H591 H 0.58001 0.73236 0.28691 0.0
H592 H 0.5694 0.77206 0.83799 0.0
H593 H 0.57477 0.77776 0.69507 0.0
H594 H 0.5743 0.70788 0.67501 0.0
H595 H 0.5693 0.7025 0.81833 0.0
H596 H 0.5845 0.73406 0.5568 0.0
H597 H 0.56545 0.77111 0.56728 0.0
H598 H 0.57598 0.7973 0.44831 0.0
H599 H 0.58108 0.80243 0.30486 0.0
C600 C 0.80573 0.54889 0.7121 0.0
C601 C 0.82193 0.56848 0.76204 0.0
C602 C 0.80616 0.55244 0.62984 0.0
C603 C 0.82322 0.57553 0.59579 0.0
C604 C 0.83936 0.59507 0.64589 0.0
C605 C 0.83846 0.59173 0.72818 0.0
C606 C 0.82547 0.57937 0.50827 0.0
C607 C 0.8057 0.56994 0.4594 0.0
C608 C 0.80813 0.57527 0.3728 0.0
C609 C 0.79208 0.58204 0.3364 0.0
C610 C 0.79414 0.58751 0.25533 0.0
C611 C 0.81166 0.58536 0.20824 0.0
H612 H 0.83813 0.56761 0.35213 0.0
C613 C 0.82725 0.5778 0.24391 0.0
C614 C 0.82575 0.57315 0.32578 0.0
H615 H 0.84096 0.57609 0.20891 0.0
H616 H 0.79283 0.53076 0.7366 0.0
H617 H 0.79372 0.53689 0.5928 0.0
H618 H 0.85274 0.61301 0.62127 0.0
H619 H 0.85125 0.60715 0.76508 0.0
H620 H 0.84385 0.59172 0.48401 0.0
H621 H 0.78709 0.55979 0.48433 0.0
H622 H 0.77824 0.58364 0.37115 0.0
H623 H 0.78186 0.59324 0.22928 0.0
C624 C 0.22131 0.80687 0.32023 0.0
C625 C 0.23815 0.82422 0.26575 0.0
C626 C 0.22637 0.81 0.40145 0.0
C627 C 0.24852 0.83051 0.42957 0.0
C628 C 0.26528 0.84778 0.37467 0.0
C629 C 0.26023 0.84463 0.29362 0.0
C630 C 0.25449 0.83519 0.51535 0.0
C631 C 0.24471 0.81732 0.57143 0.0
C632 C 0.2508 0.82211 0.65719 0.0
C633 C 0.23433 0.80479 0.7126 0.0
C634 C 0.2394 0.80834 0.79365 0.0
C635 C 0.26116 0.82926 0.82098 0.0
H636 H 0.28645 0.85637 0.6445 0.0
C637 C 0.2778 0.84651 0.76594 0.0
C638 C 0.27277 0.84296 0.68484 0.0
H639 H 0.29484 0.86269 0.78551 0.0
H640 H 0.20407 0.79105 0.3002 0.0
H641 H 0.21257 0.79662 0.44158 0.0
H642 H 0.2824 0.86381 0.39453 0.0
H643 H 0.27356 0.8583 0.25286 0.0
H644 H 0.26774 0.85422 0.53203 0.0
H645 H 0.23142 0.79829 0.5547 0.0
H646 H 0.2174 0.78845 0.69315 0.0
H647 H 0.22637 0.7946 0.83483 0.0
C648 C 0.43791 0.276 0.6846 0.0
C649 C 0.4359 0.25811 0.73961 0.0
C650 C 0.43549 0.27072 0.60345 0.0
C651 C 0.43079 0.24727 0.57563 0.0
C652 C 0.42906 0.22953 0.63101 0.0
C653 C 0.43152 0.23485 0.7121 0.0
C654 C 0.42831 0.24077 0.48976 0.0
C655 C 0.42265 0.25262 0.43363 0.0
C656 C 0.42014 0.24622 0.34773 0.0
C657 C 0.42197 0.2641 0.29282 0.0
C658 C 0.41917 0.25884 0.21174 0.0
C659 C 0.41426 0.23545 0.18375 0.0
H660 H 0.4129 0.20811 0.35946 0.0
C661 C 0.41237 0.21748 0.23824 0.0
C662 C 0.41519 0.22273 0.31946 0.0
H663 H 0.40845 0.19923 0.2182 0.0
H664 H 0.4415 0.29417 0.70423 0.0
H665 H 0.43781 0.28529 0.56321 0.0
H666 H 0.4257 0.21142 0.61152 0.0
H667 H 0.43011 0.22078 0.7532 0.0
H668 H 0.43107 0.2254 0.47301 0.0
H669 H 0.41985 0.26796 0.4504 0.0
H670 H 0.42562 0.28227 0.31268 0.0
H671 H 0.42072 0.27306 0.17103 0.0
loop_
_geom_bond_atom_site_label_1
_geom_bond_atom_site_label_2
_geom_bond_distance
_geom_bond_site_symmetry_2
_ccdc_geom_bond_type
C0 Eu1 2.835 1_556 S
C0 C2 1.500 . S
C0 O20 1.257 . S
C0 O21 1.260 1_556 S
Eu1 C0 2.835 1_554 S
Eu1 O20 2.473 1_554 S
Eu1 O21 2.480 . S
Eu1 O22 2.430 . S
Eu1 O23 2.670 . S
Eu1 O24 2.394 . S
Eu1 O29 2.355 1_554 S
Eu1 O31 2.374 . S
C2 C0 1.500 . S
C2 C3 1.377 1_556 S
C2 C7 1.377 . S
C3 C2 1.377 1_554 S
C3 C4 1.395 . S
C3 H32 0.931 . S
C4 C3 1.395 . S
C4 C5 1.383 1_554 S
C4 H33 0.931 . S
C5 C4 1.383 1_556 S
C5 C6 1.394 . S
C6 C5 1.394 . S
C6 C7 1.378 . S
C6 H34 0.931 . S
C7 C2 1.377 . S
C7 C6 1.378 . S
C7 H35 0.931 . S
C8 O22 1.259 . S
C8 O23 1.270 . S
C9 O24 1.251 . S
C9 O25 1.252 . S
C10 Eu11 2.835 1_554 S
C10 C12 1.500 . S
C10 O26 1.257 . S
C10 O27 1.260 1_554 S
Eu11 C10 2.835 1_556 S
Eu11 O23 2.355 1_556 S
Eu11 O25 2.374 1_556 S
Eu11 O26 2.473 1_556 S
Eu11 O27 2.480 . S
Eu11 O28 2.430 . S
Eu11 O29 2.670 . S
Eu11 O30 2.394 . S
C12 C10 1.500 . S
C12 C13 1.377 1_554 S
C12 C17 1.377 . S
C13 C12 1.377 1_556 S
C13 C14 1.395 . S
C13 H36 0.931 . S
C14 C13 1.395 . S
C14 C15 1.383 1_556 S
C14 H37 0.931 . S
C15 C14 1.383 1_554 S
C15 C16 1.394 . S
C16 C15 1.394 . S
C16 C17 1.378 . S
C16 H38 0.931 . S
C17 C12 1.377 . S
C17 C16 1.378 . S
C17 H39 0.931 . S
C18 O28 1.259 . S
C18 O29 1.270 . S
C19 O30 1.251 . S
C19 O31 1.252 1_556 S
O20 C0 1.257 . S
O20 Eu1 2.473 1_556 S
O21 C0 1.260 1_554 S
O21 Eu1 2.480 . S
O22 Eu1 2.430 . S
O22 C8 1.259 . S
O23 Eu1 2.670 . S
O23 C8 1.270 . S
O23 Eu11 2.355 1_554 S
O24 Eu1 2.394 . S
O24 C9 1.251 . S
O25 C9 1.252 . S
O25 Eu11 2.374 1_554 S
O26 C10 1.257 . S
O26 Eu11 2.473 1_554 S
O27 C10 1.260 1_556 S
O27 Eu11 2.480 . S
O28 Eu11 2.430 . S
O28 C18 1.259 . S
O29 Eu1 2.355 1_556 S
O29 Eu11 2.670 . S
O29 C18 1.270 . S
O30 Eu11 2.394 . S
O30 C19 1.251 . S
O31 Eu1 2.374 . S
O31 C19 1.252 1_554 S
H32 C3 0.931 . S
H33 C4 0.931 . S
H34 C6 0.931 . S
H35 C7 0.931 . S
H36 C13 0.931 . S
H37 C14 0.931 . S
H38 C16 0.931 . S
H39 C17 0.931 . S
C40 Eu41 2.835 1_556 S
C40 C42 1.500 . S
C40 O60 1.257 . S
C40 O61 1.260 1_556 S
Eu41 C40 2.835 1_554 S
Eu41 O60 2.473 1_554 S
Eu41 O61 2.480 . S
Eu41 O62 2.430 . S
Eu41 O63 2.670 . S
Eu41 O64 2.394 . S
Eu41 O69 2.355 1_554 S
Eu41 O71 2.374 . S
C42 C40 1.500 . S
C42 C43 1.377 1_556 S
C42 C47 1.377 . S
C43 C42 1.377 1_554 S
C43 C44 1.395 . S
C43 H72 0.931 . S
C44 C43 1.395 . S
C44 C45 1.383 1_554 S
C44 H73 0.931 . S
C45 C44 1.383 1_556 S
C45 C46 1.394 . S
C46 C45 1.394 . S
C46 C47 1.378 . S
C46 H74 0.931 . S
C47 C42 1.377 . S
C47 C46 1.378 . S
C47 H75 0.931 . S
C48 O62 1.259 . S
C48 O63 1.270 . S
C49 O64 1.251 . S
C49 O65 1.252 . S
C50 Eu51 2.835 1_554 S
C50 C52 1.500 . S
C50 O66 1.257 . S
C50 O67 1.260 1_554 S
Eu51 C50 2.835 1_556 S
Eu51 O63 2.355 1_556 S
Eu51 O65 2.374 1_556 S
Eu51 O66 2.473 1_556 S
Eu51 O67 2.480 . S
Eu51 O68 2.430 . S
Eu51 O69 2.670 . S
Eu51 O70 2.394 . S
C52 C50 1.500 . S
C52 C53 1.377 1_554 S
C52 C57 1.377 . S
C53 C52 1.377 1_556 S
C53 C54 1.395 . S
C53 H76 0.931 . S
C54 C53 1.395 . S
C54 C55 1.383 1_556 S
C54 H77 0.931 . S
C55 C54 1.383 1_554 S
C55 C56 1.394 . S
C56 C55 1.394 . S
C56 C57 1.378 . S
C56 H78 0.931 . S
C57 C52 1.377 . S
C57 C56 1.378 . S
C57 H79 0.931 . S
C58 O68 1.259 . S
C58 O69 1.270 . S
C59 O70 1.251 . S
C59 O71 1.252 1_556 S
O60 C40 1.257 . S
O60 Eu41 2.473 1_556 S
O61 C40 1.260 1_554 S
O61 Eu41 2.480 . S
O62 Eu41 2.430 . S
O62 C48 1.259 . S
O63 Eu41 2.670 . S
O63 C48 1.270 . S
O63 Eu51 2.355 1_554 S
O64 Eu41 2.394 . S
O64 C49 1.251 . S
O65 C49 1.252 . S
O65 Eu51 2.374 1_554 S
O66 C50 1.257 . S
O66 Eu51 2.473 1_554 S
O67 C50 1.260 1_556 S
O67 Eu51 2.480 . S
O68 Eu51 2.430 . S
O68 C58 1.259 . S
O69 Eu41 2.355 1_556 S
O69 Eu51 2.670 . S
O69 C58 1.270 . S
O70 Eu51 2.394 . S
O70 C59 1.251 . S
O71 Eu41 2.374 . S
O71 C59 1.252 1_554 S
H72 C43 0.931 . S
H73 C44 0.931 . S
H74 C46 0.931 . S
H75 C47 0.931 . S
H76 C53 0.931 . S
H77 C54 0.931 . S
H78 C56 0.931 . S
H79 C57 0.931 . S
C80 Eu81 2.835 1_556 S
C80 C82 1.500 . S
C80 O100 1.257 . S
C80 O101 1.260 1_556 S
Eu81 C80 2.835 1_554 S
Eu81 O100 2.473 1_554 S
Eu81 O101 2.480 . S
Eu81 O102 2.430 . S
Eu81 O103 2.670 . S
Eu81 O104 2.394 . S
Eu81 O109 2.355 1_554 S
Eu81 O111 2.374 . S
C82 C80 1.500 . S
C82 C83 1.377 1_556 S
C82 C87 1.377 . S
C83 C82 1.377 1_554 S
C83 C84 1.395 . S
C83 H112 0.931 . S
C84 C83 1.395 . S
C84 C85 1.383 1_554 S
C84 H113 0.931 . S
C85 C84 1.383 1_556 S
C85 C86 1.394 . S
C86 C85 1.394 . S
C86 C87 1.378 . S
C86 H114 0.931 . S
C87 C82 1.377 . S
C87 C86 1.378 . S
C87 H115 0.931 . S
C88 O102 1.259 . S
C88 O103 1.270 . S
C89 O104 1.251 . S
C89 O105 1.252 . S
C90 Eu91 2.835 1_554 S
C90 C92 1.500 . S
C90 O106 1.257 . S
C90 O107 1.260 1_554 S
Eu91 C90 2.835 1_556 S
Eu91 O103 2.355 1_556 S
Eu91 O105 2.374 1_556 S
Eu91 O106 2.473 1_556 S
Eu91 O107 2.480 . S
Eu91 O108 2.430 . S
Eu91 O109 2.670 . S
Eu91 O110 2.394 . S
C92 C90 1.500 . S
C92 C93 1.377 1_554 S
C92 C97 1.377 . S
C93 C92 1.377 1_556 S
C93 C94 1.395 . S
C93 H116 0.931 . S
C94 C93 1.395 . S
C94 C95 1.383 1_556 S
C94 H117 0.931 . S
C95 C94 1.383 1_554 S
C95 C96 1.394 . S
C96 C95 1.394 . S
C96 C97 1.378 . S
C96 H118 0.931 . S
C97 C92 1.377 . S
C97 C96 1.378 . S
C97 H119 0.931 . S
C98 O108 1.259 . S
C98 O109 1.270 . S
C99 O110 1.251 . S
C99 O111 1.252 1_556 S
O100 C80 1.257 . S
O100 Eu81 2.473 1_556 S
O101 C80 1.260 1_554 S
O101 Eu81 2.480 . S
O102 Eu81 2.430 . S
O102 C88 1.259 . S
O103 Eu81 2.670 . S
O103 C88 1.270 . S
O103 Eu91 2.355 1_554 S
O104 Eu81 2.394 . S
O104 C89 1.251 . S
O105 C89 1.252 . S
O105 Eu91 2.374 1_554 S
O106 C90 1.257 . S
O106 Eu91 2.473 1_554 S
O107 C90 1.260 1_556 S
O107 Eu91 2.480 . S
O108 Eu91 2.430 . S
O108 C98 1.259 . S
O109 Eu81 2.355 1_556 S
O109 Eu91 2.670 . S
O109 C98 1.270 . S
O110 Eu91 2.394 . S
O110 C99 1.251 . S
O111 Eu81 2.374 . S
O111 C99 1.252 1_554 S
H112 C83 0.931 . S
H113 C84 0.931 . S
H114 C86 0.931 . S
H115 C87 0.931 . S
H116 C93 0.931 . S
H117 C94 0.931 . S
H118 C96 0.931 . S
H119 C97 0.931 . S
C120 Eu121 2.835 1_556 S
C120 C122 1.500 . S
C120 O140 1.257 . S
C120 O141 1.260 1_556 S
Eu121 C120 2.835 1_554 S
Eu121 O140 2.473 1_554 S
Eu121 O141 2.480 . S
Eu121 O142 2.430 . S
Eu121 O143 2.670 . S
Eu121 O144 2.394 . S
Eu121 O149 2.355 1_554 S
Eu121 O151 2.374 . S
C122 C120 1.500 . S
C122 C123 1.377 1_556 S
C122 C127 1.377 . S
C123 C122 1.377 1_554 S
C123 C124 1.395 . S
C123 H152 0.931 . S
C124 C123 1.395 . S
C124 C125 1.383 1_554 S
C124 H153 0.931 . S
C125 C124 1.383 1_556 S
C125 C126 1.394 . S
C126 C125 1.394 . S
C126 C127 1.378 . S
C126 H154 0.931 . S
C127 C122 1.377 . S
C127 C126 1.378 . S
C127 H155 0.931 . S
C128 O142 1.259 . S
C128 O143 1.270 . S
C129 O144 1.251 . S
C129 O145 1.252 . S
C130 Eu131 2.835 1_554 S
C130 C132 1.500 . S
C130 O146 1.257 . S
C130 O147 1.260 1_554 S
Eu131 C130 2.835 1_556 S
Eu131 O143 2.355 1_556 S
Eu131 O145 2.374 1_556 S
Eu131 O146 2.473 1_556 S
Eu131 O147 2.480 . S
Eu131 O148 2.430 . S
Eu131 O149 2.670 . S
Eu131 O150 2.394 . S
C132 C130 1.500 . S
C132 C133 1.377 1_554 S
C132 C137 1.377 . S
C133 C132 1.377 1_556 S
C133 C134 1.395 . S
C133 H156 0.931 . S
C134 C133 1.395 . S
C134 C135 1.383 1_556 S
C134 H157 0.931 . S
C135 C134 1.383 1_554 S
C135 C136 1.394 . S
C136 C135 1.394 . S
C136 C137 1.378 . S
C136 H158 0.931 . S
C137 C132 1.377 . S
C137 C136 1.378 . S
C137 H159 0.931 . S
C138 O148 1.259 . S
C138 O149 1.270 . S
C139 O150 1.251 . S
C139 O151 1.252 1_556 S
O140 C120 1.257 . S
O140 Eu121 2.473 1_556 S
O141 C120 1.260 1_554 S
O141 Eu121 2.480 . S
O142 Eu121 2.430 . S
O142 C128 1.259 . S
O143 Eu121 2.670 . S
O143 C128 1.270 . S
O143 Eu131 2.355 1_554 S
O144 Eu121 2.394 . S
O144 C129 1.251 . S
O145 C129 1.252 . S
O145 Eu131 2.374 1_554 S
O146 C130 1.257 . S
O146 Eu131 2.473 1_554 S
O147 C130 1.260 1_556 S
O147 Eu131 2.480 . S
O148 Eu131 2.430 . S
O148 C138 1.259 . S
O149 Eu121 2.355 1_556 S
O149 Eu131 2.670 . S
O149 C138 1.270 . S
O150 Eu131 2.394 . S
O150 C139 1.251 . S
O151 Eu121 2.374 . S
O151 C139 1.252 1_554 S
H152 C123 0.931 . S
H153 C124 0.931 . S
H154 C126 0.931 . S
H155 C127 0.931 . S
H156 C133 0.931 . S
H157 C134 0.931 . S
H158 C136 0.931 . S
H159 C137 0.931 . S
C160 Eu161 2.835 1_556 S
C160 C162 1.500 . S
C160 O180 1.257 . S
C160 O181 1.260 1_556 S
Eu161 C160 2.835 1_554 S
Eu161 O180 2.473 1_554 S
Eu161 O181 2.480 . S
Eu161 O182 2.430 . S
Eu161 O183 2.670 . S
Eu161 O184 2.394 . S
Eu161 O189 2.355 1_554 S
Eu161 O191 2.374 . S
C162 C160 1.500 . S
C162 C163 1.377 1_556 S
C162 C167 1.377 . S
C163 C162 1.377 1_554 S
C163 C164 1.395 . S
C163 H192 0.931 . S
C164 C163 1.395 . S
C164 C165 1.383 1_554 S
C164 H193 0.931 . S
C165 C164 1.383 1_556 S
C165 C166 1.394 . S
C166 C165 1.394 . S
C166 C167 1.378 . S
C166 H194 0.931 . S
C167 C162 1.377 . S
C167 C166 1.378 . S
C167 H195 0.931 . S
C168 O182 1.259 . S
C168 O183 1.270 . S
C169 O184 1.251 . S
C169 O185 1.252 . S
C170 Eu171 2.835 1_554 S
C170 C172 1.500 . S
C170 O186 1.257 . S
C170 O187 1.260 1_554 S
Eu171 C170 2.835 1_556 S
Eu171 O183 2.355 1_556 S
Eu171 O185 2.374 1_556 S
Eu171 O186 2.473 1_556 S
Eu171 O187 2.480 . S
Eu171 O188 2.430 . S
Eu171 O189 2.670 . S
Eu171 O190 2.394 . S
C172 C170 1.500 . S
C172 C173 1.377 1_554 S
C172 C177 1.377 . S
C173 C172 1.377 1_556 S
C173 C174 1.395 . S
C173 H196 0.931 . S
C174 C173 1.395 . S
C174 C175 1.383 1_556 S
C174 H197 0.931 . S
C175 C174 1.383 1_554 S
C175 C176 1.394 . S
C176 C175 1.394 . S
C176 C177 1.378 . S
C176 H198 0.931 . S
C177 C172 1.377 . S
C177 C176 1.378 . S
C177 H199 0.931 . S
C178 O188 1.259 . S
C178 O189 1.270 . S
C179 O190 1.251 . S
C179 O191 1.252 1_556 S
O180 C160 1.257 . S
O180 Eu161 2.473 1_556 S
O181 C160 1.260 1_554 S
O181 Eu161 2.480 . S
O182 Eu161 2.430 . S
O182 C168 1.259 . S
O183 Eu161 2.670 . S
O183 C168 1.270 . S
O183 Eu171 2.355 1_554 S
O184 Eu161 2.394 . S
O184 C169 1.251 . S
O185 C169 1.252 . S
O185 Eu171 2.374 1_554 S
O186 C170 1.257 . S
O186 Eu171 2.473 1_554 S
O187 C170 1.260 1_556 S
O187 Eu171 2.480 . S
O188 Eu171 2.430 . S
O188 C178 1.259 . S
O189 Eu161 2.355 1_556 S
O189 Eu171 2.670 . S
O189 C178 1.270 . S
O190 Eu171 2.394 . S
O190 C179 1.251 . S
O191 Eu161 2.374 . S
O191 C179 1.252 1_554 S
H192 C163 0.931 . S
H193 C164 0.931 . S
H194 C166 0.931 . S
H195 C167 0.931 . S
H196 C173 0.931 . S
H197 C174 0.931 . S
H198 C176 0.931 . S
H199 C177 0.931 . S
C200 Eu201 2.835 1_556 S
C200 C202 1.500 . S
C200 O220 1.257 . S
C200 O221 1.260 1_556 S
Eu201 C200 2.835 1_554 S
Eu201 O220 2.473 1_554 S
Eu201 O221 2.480 . S
Eu201 O222 2.430 . S
Eu201 O223 2.670 . S
Eu201 O224 2.394 . S
Eu201 O229 2.355 1_554 S
Eu201 O231 2.374 . S
C202 C200 1.500 . S
C202 C203 1.377 1_556 S
C202 C207 1.377 . S
C203 C202 1.377 1_554 S
C203 C204 1.395 . S
C203 H232 0.931 . S
C204 C203 1.395 . S
C204 C205 1.383 1_554 S
C204 H233 0.931 . S
C205 C204 1.383 1_556 S
C205 C206 1.394 . S
C206 C205 1.394 . S
C206 C207 1.378 . S
C206 H234 0.931 . S
C207 C202 1.377 . S
C207 C206 1.378 . S
C207 H235 0.931 . S
C208 O222 1.259 . S
C208 O223 1.270 . S
C209 O224 1.251 . S
C209 O225 1.252 . S
C210 Eu211 2.835 1_554 S
C210 C212 1.500 . S
C210 O226 1.257 . S
C210 O227 1.260 1_554 S
Eu211 C210 2.835 1_556 S
Eu211 O223 2.355 1_556 S
Eu211 O225 2.374 1_556 S
Eu211 O226 2.473 1_556 S
Eu211 O227 2.480 . S
Eu211 O228 2.430 . S
Eu211 O229 2.670 . S
Eu211 O230 2.394 . S
C212 C210 1.500 . S
C212 C213 1.377 1_554 S
C212 C217 1.377 . S
C213 C212 1.377 1_556 S
C213 C214 1.395 . S
C213 H236 0.931 . S
C214 C213 1.395 . S
C214 C215 1.383 1_556 S
C214 H237 0.931 . S
C215 C214 1.383 1_554 S
C215 C216 1.394 . S
C216 C215 1.394 . S
C216 C217 1.378 . S
C216 H238 0.931 . S
C217 C212 1.377 . S
C217 C216 1.378 . S
C217 H239 0.931 . S
C218 O228 1.259 . S
C218 O229 1.270 . S
C219 O230 1.251 . S
C219 O231 1.252 1_556 S
O220 C200 1.257 . S
O220 Eu201 2.473 1_556 S
O221 C200 1.260 1_554 S
O221 Eu201 2.480 . S
O222 Eu201 2.430 . S
O222 C208 1.259 . S
O223 Eu201 2.670 . S
O223 C208 1.270 . S
O223 Eu211 2.355 1_554 S
O224 Eu201 2.394 . S
O224 C209 1.251 . S
O225 C209 1.252 . S
O225 Eu211 2.374 1_554 S
O226 C210 1.257 . S
O226 Eu211 2.473 1_554 S
O227 C210 1.260 1_556 S
O227 Eu211 2.480 . S
O228 Eu211 2.430 . S
O228 C218 1.259 . S
O229 Eu201 2.355 1_556 S
O229 Eu211 2.670 . S
O229 C218 1.270 . S
O230 Eu211 2.394 . S
O230 C219 1.251 . S
O231 Eu201 2.374 . S
O231 C219 1.252 1_554 S
H232 C203 0.931 . S
H233 C204 0.931 . S
H234 C206 0.931 . S
H235 C207 0.931 . S
H236 C213 0.931 . S
H237 C214 0.931 . S
H238 C216 0.931 . S
H239 C217 0.931 . S
C240 C241 1.386 1_554 S
C240 C242 1.383 . S
C240 H256 0.951 . S
C241 C240 1.386 1_556 S
C241 C245 1.383 . S
C242 C240 1.383 . S
C242 C243 1.402 1_554 S
C242 H257 0.951 . S
C243 C242 1.402 1_556 S
C243 C244 1.375 . S
C243 C246 1.481 . S
C244 C243 1.375 . S
C244 C245 1.367 . S
C244 H258 0.951 . S
C245 C241 1.383 . S
C245 C244 1.367 . S
C245 H259 0.950 . S
C246 C243 1.481 . S
C246 C247 1.297 . S
C246 H260 0.950 . S
C247 C246 1.297 . S
C247 C248 1.479 . S
C247 H261 0.950 . S
C248 C247 1.479 . S
C248 C249 1.375 . S
C248 C254 1.404 . S
C249 C248 1.375 . S
C249 C250 1.369 . S
C249 H262 0.950 1_556 S
C250 C249 1.369 . S
C250 C251 1.392 . S
C250 H263 0.951 1_556 S
C251 C250 1.392 . S
C251 C253 1.384 . S
H252 C254 0.949 . S
C253 C251 1.384 . S
C253 C254 1.385 . S
C253 H255 0.950 . S
C254 C248 1.404 . S
C254 H252 0.949 . S
C254 C253 1.385 . S
H255 C253 0.950 . S
H256 C240 0.951 . S
H257 C242 0.951 . S
H258 C244 0.951 . S
H259 C245 0.950 . S
H260 C246 0.950 . S
H261 C247 0.950 . S
H262 C249 0.950 1_554 S
H263 C250 0.951 1_554 S
C264 C265 1.386 1_554 S
C264 C266 1.383 1_554 S
C264 H280 0.951 . S
C265 C264 1.386 1_556 S
C265 C269 1.383 . S
C266 C264 1.383 1_556 S
C266 C267 1.402 . S
C266 H281 0.951 1_556 S
C267 C266 1.402 . S
C267 C268 1.375 . S
C267 C270 1.481 . S
C268 C267 1.375 . S
C268 C269 1.367 . S
C268 H282 0.951 . S
C269 C265 1.383 . S
C269 C268 1.367 . S
C269 H283 0.950 . S
C270 C267 1.481 . S
C270 C271 1.297 . S
C270 H284 0.950 . S
C271 C270 1.297 . S
C271 C272 1.479 . S
C271 H285 0.950 . S
C272 C271 1.479 . S
C272 C273 1.375 1_455 S
C272 C278 1.404 . S
C273 C272 1.375 1_655 S
C273 C274 1.369 . S
C273 H286 0.950 . S
C274 C273 1.369 . S
C274 C275 1.392 . S
C274 H287 0.951 . S
C275 C274 1.392 . S
C275 C277 1.384 . S
H276 C278 0.949 . S
C277 C275 1.384 . S
C277 C278 1.385 1_655 S
C277 H279 0.950 . S
C278 C272 1.404 . S
C278 H276 0.949 . S
C278 C277 1.385 1_455 S
H279 C277 0.950 . S
H280 C264 0.951 . S
H281 C266 0.951 1_554 S
H282 C268 0.951 . S
H283 C269 0.950 . S
H284 C270 0.950 . S
H285 C271 0.950 . S
H286 C273 0.950 . S
H287 C274 0.951 . S
C288 C289 1.386 1_556 S
C288 C290 1.383 . S
C288 H304 0.951 . S
C289 C288 1.386 1_554 S
C289 C293 1.383 . S
C290 C288 1.383 . S
C290 C291 1.402 1_556 S
C290 H305 0.951 . S
C291 C290 1.402 1_554 S
C291 C292 1.375 . S
C291 C294 1.481 . S
C292 C291 1.375 . S
C292 C293 1.367 . S
C292 H306 0.951 . S
C293 C289 1.383 . S
C293 C292 1.367 . S
C293 H307 0.950 . S
C294 C291 1.481 . S
C294 C295 1.297 . S
C294 H308 0.950 . S
C295 C294 1.297 . S
C295 C296 1.479 . S
C295 H309 0.950 . S
C296 C295 1.479 . S
C296 C297 1.375 1_554 S
C296 C302 1.404 1_545 S
C297 C296 1.375 1_556 S
C297 C298 1.369 1_545 S
C297 H310 0.950 . S
C298 C297 1.369 1_565 S
C298 C299 1.392 . S
C298 H311 0.951 . S
C299 C298 1.392 . S
C299 C301 1.384 1_556 S
H300 C302 0.958 . S
C301 C299 1.384 1_554 S
C301 C302 1.385 . S
C301 H303 0.950 . S
C302 C296 1.404 1_565 S
C302 H300 0.958 . S
C302 C301 1.385 . S
H303 C301 0.950 . S
H304 C288 0.951 . S
H305 C290 0.951 . S
H306 C292 0.951 . S
H307 C293 0.950 . S
H308 C294 0.950 . S
H309 C295 0.950 . S
H310 C297 0.950 . S
H311 C298 0.951 . S
C312 C313 1.386 1_554 S
C312 C314 1.383 . S
C312 H328 0.951 . S
C313 C312 1.386 1_556 S
C313 C317 1.383 . S
C314 C312 1.383 . S
C314 C315 1.402 1_554 S
C314 H329 0.951 . S
C315 C314 1.402 1_556 S
C315 C316 1.375 . S
C315 C318 1.481 . S
C316 C315 1.375 . S
C316 C317 1.367 . S
C316 H330 0.951 . S
C317 C313 1.383 . S
C317 C316 1.367 . S
C317 H331 0.950 . S
C318 C315 1.481 . S
C318 C319 1.297 1_556 S
C318 H332 0.950 . S
C319 C318 1.297 1_554 S
C319 C320 1.479 . S
C319 H333 0.950 . S
C320 C319 1.479 . S
C320 C321 1.375 . S
C320 C326 1.404 1_554 S
C321 C320 1.375 . S
C321 C322 1.369 . S
C321 H334 0.950 . S
C322 C321 1.369 . S
C322 C323 1.392 . S
C322 H335 0.951 . S
C323 C322 1.392 . S
C323 C325 1.384 1_554 S
H324 C326 0.949 . S
C325 C323 1.384 1_556 S
C325 C326 1.385 . S
C325 H327 0.950 . S
C326 C320 1.404 1_556 S
C326 H324 0.949 . S
C326 C325 1.385 . S
H327 C325 0.950 . S
H328 C312 0.951 . S
H329 C314 0.951 . S
H330 C316 0.951 . S
H331 C317 0.950 . S
H332 C318 0.950 . S
H333 C319 0.950 . S
H334 C321 0.950 . S
H335 C322 0.951 . S
C336 C337 1.386 . S
C336 C338 1.383 1_455 S
C336 H352 0.951 . S
C337 C336 1.386 . S
C337 C341 1.383 1_556 S
C338 C336 1.383 1_655 S
C338 C339 1.402 . S
C338 H353 0.951 . S
C339 C338 1.402 . S
C339 C340 1.375 1_656 S
C339 C342 1.481 . S
C340 C339 1.375 1_454 S
C340 C341 1.367 . S
C340 H354 0.951 . S
C341 C337 1.383 1_554 S
C341 C340 1.367 . S
C341 H355 0.950 . S
C342 C339 1.481 . S
C342 C343 1.297 . S
C342 H356 0.950 1_556 S
C343 C342 1.297 . S
C343 C344 1.479 . S
C343 H357 0.950 . S
C344 C343 1.479 . S
C344 C345 1.375 . S
C344 C350 1.404 1_556 S
C345 C344 1.375 . S
C345 C346 1.369 . S
C345 H358 0.950 . S
C346 C345 1.369 . S
C346 C347 1.392 . S
C346 H359 0.951 . S
C347 C346 1.392 . S
C347 C349 1.384 1_556 S
H348 C350 0.949 . S
C349 C347 1.384 1_554 S
C349 C350 1.385 . S
C349 H351 0.950 . S
C350 C344 1.404 1_554 S
C350 H348 0.949 . S
C350 C349 1.385 . S
H351 C349 0.950 . S
H352 C336 0.951 . S
H353 C338 0.951 . S
H354 C340 0.951 . S
H355 C341 0.950 . S
H356 C342 0.950 1_554 S
H357 C343 0.950 . S
H358 C345 0.950 . S
H359 C346 0.951 . S
C360 C361 1.386 1_556 S
C360 C362 1.383 . S
C360 H376 0.951 . S
C361 C360 1.386 1_554 S
C361 C365 1.383 . S
C362 C360 1.383 . S
C362 C363 1.402 1_556 S
C362 H377 0.951 . S
C363 C362 1.402 1_554 S
C363 C364 1.375 . S
C363 C366 1.481 . S
C364 C363 1.375 . S
C364 C365 1.367 . S
C364 H378 0.951 . S
C365 C361 1.383 . S
C365 C364 1.367 . S
C365 H379 0.950 . S
C366 C363 1.481 . S
C366 C367 1.297 . S
C366 H380 0.950 . S
C367 C366 1.297 . S
C367 C368 1.480 . S
C367 H381 0.950 1_554 S
C368 C367 1.480 . S
C368 C369 1.371 1_554 S
C368 C374 1.407 1_565 S
C369 C368 1.371 1_556 S
C369 C370 1.369 1_565 S
C369 H382 0.950 . S
C370 C369 1.369 1_545 S
C370 C371 1.392 . S
C370 H383 0.951 . S
C371 C370 1.392 . S
C371 C373 1.384 1_556 S
H372 C374 0.924 1_565 S
C373 C371 1.384 1_554 S
C373 C374 1.385 . S
C373 H375 0.950 . S
C374 C368 1.407 1_545 S
C374 H372 0.924 1_545 S
C374 C373 1.385 . S
H375 C373 0.950 . S
H376 C360 0.951 . S
H377 C362 0.951 . S
H378 C364 0.951 . S
H379 C365 0.950 . S
H380 C366 0.950 . S
H381 C367 0.950 1_556 S
H382 C369 0.950 . S
H383 C370 0.951 . S
C384 C385 1.386 . S
C384 C386 1.383 . S
C384 H400 0.951 . S
C385 C384 1.386 . S
C385 C389 1.383 1_556 S
C386 C384 1.383 . S
C386 C387 1.402 . S
C386 H401 0.951 . S
C387 C386 1.402 . S
C387 C388 1.375 1_556 S
C387 C390 1.481 . S
C388 C387 1.375 1_554 S
C388 C389 1.367 . S
C388 H402 0.951 . S
C389 C385 1.383 1_554 S
C389 C388 1.367 . S
C389 H403 0.950 . S
C390 C387 1.481 . S
C390 C391 1.297 . S
C390 H404 0.950 1_556 S
C391 C390 1.297 . S
C391 C392 1.479 . S
C391 H405 0.950 . S
C392 C391 1.479 . S
C392 C393 1.375 . S
C392 C398 1.404 . S
C393 C392 1.375 . S
C393 C394 1.369 1_556 S
C393 H406 0.950 . S
C394 C393 1.369 1_554 S
C394 C395 1.392 . S
C394 H407 0.951 . S
C395 C394 1.392 . S
C395 C397 1.384 . S
H396 C398 0.949 . S
C397 C395 1.384 . S
C397 C398 1.385 1_554 S
C397 H399 0.950 . S
C398 C392 1.404 . S
C398 H396 0.949 . S
C398 C397 1.385 1_556 S
H399 C397 0.950 . S
H400 C384 0.951 . S
H401 C386 0.951 . S
H402 C388 0.951 . S
H403 C389 0.950 . S
H404 C390 0.950 1_554 S
H405 C391 0.950 . S
H406 C393 0.950 . S
H407 C394 0.951 . S
C408 C409 1.386 1_556 S
C408 C410 1.383 1_556 S
C408 H424 0.951 . S
C409 C408 1.386 1_554 S
C409 C413 1.383 . S
C410 C408 1.383 1_554 S
C410 C411 1.402 . S
C410 H425 0.951 1_554 S
C411 C410 1.402 . S
C411 C412 1.375 . S
C411 C414 1.481 . S
C412 C411 1.375 . S
C412 C413 1.367 . S
C412 H426 0.951 . S
C413 C409 1.383 . S
C413 C412 1.367 . S
C413 H427 0.950 . S
C414 C411 1.481 . S
C414 C415 1.297 . S
C414 H428 0.950 . S
C415 C414 1.297 . S
C415 C416 1.479 . S
C415 H429 0.950 . S
C416 C415 1.479 . S
C416 C417 1.375 . S
C416 C422 1.404 . S
C417 C416 1.375 . S
C417 C418 1.369 . S
C417 H430 0.950 . S
C418 C417 1.369 . S
C418 C419 1.392 . S
C418 H431 0.951 1_554 S
C419 C418 1.392 . S
C419 C421 1.384 . S
H420 C422 0.949 . S
C421 C419 1.384 . S
C421 C422 1.385 . S
C421 H423 0.950 . S
C422 C416 1.404 . S
C422 H420 0.949 . S
C422 C421 1.385 . S
H423 C421 0.950 . S
H424 C408 0.951 . S
H425 C410 0.951 1_556 S
H426 C412 0.951 . S
H427 C413 0.950 . S
H428 C414 0.950 . S
H429 C415 0.950 . S
H430 C417 0.950 . S
H431 C418 0.951 1_556 S
C432 C433 1.386 . S
C432 C434 1.383 . S
C432 H448 0.951 . S
C433 C432 1.386 . S
C433 C437 1.383 . S
C434 C432 1.383 . S
C434 C435 1.402 . S
C434 H449 0.951 . S
C435 C434 1.402 . S
C435 C436 1.375 . S
C435 C438 1.481 . S
C436 C435 1.375 . S
C436 C437 1.367 . S
C436 H450 0.951 . S
C437 C433 1.383 . S
C437 C436 1.367 . S
C437 H451 0.950 . S
C438 C435 1.481 . S
C438 C439 1.297 . S
C438 H452 0.950 . S
C439 C438 1.297 . S
C439 C440 1.479 . S
C439 H453 0.950 . S
C440 C439 1.479 . S
C440 C441 1.375 . S
C440 C446 1.404 . S
C441 C440 1.375 . S
C441 C442 1.369 . S
C441 H454 0.950 . S
C442 C441 1.369 . S
C442 C443 1.392 . S
C442 H455 0.951 1_554 S
C443 C442 1.392 . S
C443 C445 1.384 . S
H444 C446 0.949 . S
C445 C443 1.384 . S
C445 C446 1.385 . S
C445 H447 0.950 . S
C446 C440 1.404 . S
C446 H444 0.949 . S
C446 C445 1.385 . S
H447 C445 0.950 . S
H448 C432 0.951 . S
H449 C434 0.951 . S
H450 C436 0.951 . S
H451 C437 0.950 . S
H452 C438 0.950 . S
H453 C439 0.950 . S
H454 C441 0.950 . S
H455 C442 0.951 1_556 S
C456 C457 1.386 . S
C456 C458 1.383 . S
C456 H472 0.951 . S
C457 C456 1.386 . S
C457 C461 1.383 . S
C458 C456 1.383 . S
C458 C459 1.402 . S
C458 H473 0.951 . S
C459 C458 1.402 . S
C459 C460 1.375 . S
C459 C462 1.481 . S
C460 C459 1.375 . S
C460 C461 1.367 . S
C460 H474 0.951 . S
C461 C457 1.383 . S
C461 C460 1.367 . S
C461 H475 0.950 . S
C462 C459 1.481 . S
C462 C463 1.297 . S
C462 H476 0.950 . S
C463 C462 1.297 . S
C463 C464 1.479 . S
C463 H477 0.950 . S
C464 C463 1.479 . S
C464 C465 1.375 . S
C464 C470 1.404 . S
C465 C464 1.375 . S
C465 C466 1.367 1_554 S
C465 H478 0.950 . S
C466 C465 1.367 1_556 S
C466 C467 1.391 1_556 S
C466 H479 0.953 . S
C467 C466 1.391 1_554 S
C467 C469 1.384 . S
H468 C470 0.949 . S
C469 C467 1.384 . S
C469 C470 1.385 . S
C469 H471 0.950 . S
C470 C464 1.404 . S
C470 H468 0.949 . S
C470 C469 1.385 . S
H471 C469 0.950 . S
H472 C456 0.951 . S
H473 C458 0.951 . S
H474 C460 0.951 . S
H475 C461 0.950 . S
H476 C462 0.950 . S
H477 C463 0.950 . S
H478 C465 0.950 . S
H479 C466 0.953 . S
C480 C481 1.386 . S
C480 C482 1.383 . S
C480 H496 0.951 . S
C481 C480 1.386 . S
C481 C485 1.383 1_554 S
C482 C480 1.383 . S
C482 C483 1.402 . S
C482 H497 0.951 . S
C483 C482 1.402 . S
C483 C484 1.375 1_554 S
C483 C486 1.481 1_554 S
C484 C483 1.375 1_556 S
C484 C485 1.367 . S
C484 H498 0.951 . S
C485 C481 1.383 1_556 S
C485 C484 1.367 . S
C485 H499 0.950 . S
C486 C483 1.481 1_556 S
C486 C487 1.297 1_556 S
C486 H500 0.950 . S
C487 C486 1.297 1_554 S
C487 C488 1.479 . S
C487 H501 0.950 . S
C488 C487 1.479 . S
C488 C489 1.375 . S
C488 C494 1.404 1_554 S
C489 C488 1.375 . S
C489 C490 1.369 . S
C489 H502 0.950 . S
C490 C489 1.369 . S
C490 C491 1.392 . S
C490 H503 0.951 . S
C491 C490 1.392 . S
C491 C493 1.384 1_554 S
H492 C494 0.949 . S
C493 C491 1.384 1_556 S
C493 C494 1.385 . S
C493 H495 0.950 . S
C494 C488 1.404 1_556 S
C494 H492 0.949 . S
C494 C493 1.385 . S
H495 C493 0.950 . S
H496 C480 0.951 . S
H497 C482 0.951 . S
H498 C484 0.951 . S
H499 C485 0.950 . S
H500 C486 0.950 . S
H501 C487 0.950 . S
H502 C489 0.950 . S
H503 C490 0.951 . S
C504 C505 1.386 . S
C504 C506 1.383 . S
C504 H520 0.951 . S
C505 C504 1.386 . S
C505 C509 1.383 1_554 S
C506 C504 1.383 . S
C506 C507 1.402 . S
C506 H521 0.951 . S
C507 C506 1.402 . S
C507 C508 1.375 1_554 S
C507 C510 1.481 . S
C508 C507 1.375 1_556 S
C508 C509 1.367 . S
C508 H522 0.951 . S
C509 C505 1.383 1_556 S
C509 C508 1.367 . S
C509 H523 0.950 . S
C510 C507 1.481 . S
C510 C511 1.297 . S
C510 H524 0.950 . S
C511 C510 1.297 . S
C511 C512 1.479 . S
C511 H525 0.950 . S
C512 C511 1.479 . S
C512 C513 1.375 . S
C512 C518 1.404 . S
C513 C512 1.375 . S
C513 C514 1.369 . S
C513 H526 0.950 . S
C514 C513 1.369 . S
C514 C515 1.392 . S
C514 H527 0.951 . S
C515 C514 1.392 . S
C515 C517 1.384 . S
H516 C518 0.949 . S
C517 C515 1.384 . S
C517 C518 1.385 . S
C517 H519 0.950 . S
C518 C512 1.404 . S
C518 H516 0.949 . S
C518 C517 1.385 . S
H519 C517 0.950 . S
H520 C504 0.951 . S
H521 C506 0.951 . S
H522 C508 0.951 . S
H523 C509 0.950 . S
H524 C510 0.950 . S
H525 C511 0.950 . S
H526 C513 0.950 . S
H527 C514 0.951 . S
C528 C529 1.386 . S
C528 C530 1.383 . S
C528 H544 0.951 . S
C529 C528 1.386 . S
C529 C533 1.383 . S
C530 C528 1.383 . S
C530 C531 1.402 . S
C530 H545 0.951 . S
C531 C530 1.402 . S
C531 C532 1.375 . S
C531 C534 1.481 . S
C532 C531 1.375 . S
C532 C533 1.367 . S
C532 H546 0.951 . S
C533 C529 1.383 . S
C533 C532 1.367 . S
C533 H547 0.950 . S
C534 C531 1.481 . S
C534 C535 1.297 . S
C534 H548 0.950 . S
C535 C534 1.297 . S
C535 C536 1.479 . S
C535 H549 0.950 . S
C536 C535 1.479 . S
C536 C537 1.375 . S
C536 C542 1.404 . S
C537 C536 1.375 . S
C537 C538 1.369 . S
C537 H550 0.950 . S
C538 C537 1.369 . S
C538 C539 1.392 . S
C538 H551 0.951 . S
C539 C538 1.392 . S
C539 C541 1.384 . S
H540 C542 0.949 . S
C541 C539 1.384 . S
C541 C542 1.385 . S
C541 H543 0.950 . S
C542 C536 1.404 . S
C542 H540 0.949 . S
C542 C541 1.385 . S
H543 C541 0.950 . S
H544 C528 0.951 . S
H545 C530 0.951 . S
H546 C532 0.951 . S
H547 C533 0.950 . S
H548 C534 0.950 . S
H549 C535 0.950 . S
H550 C537 0.950 . S
H551 C538 0.951 . S
C552 C553 1.386 . S
C552 C554 1.383 . S
C552 H568 0.951 . S
C553 C552 1.386 . S
C553 C557 1.383 . S
C554 C552 1.383 . S
C554 C555 1.402 . S
C554 H569 0.951 . S
C555 C554 1.402 . S
C555 C556 1.375 . S
C555 C558 1.481 . S
C556 C555 1.375 . S
C556 C557 1.367 . S
C556 H570 0.951 . S
C557 C553 1.383 . S
C557 C556 1.367 . S
C557 H571 0.950 . S
C558 C555 1.481 . S
C558 C559 1.297 . S
C558 H572 0.950 . S
C559 C558 1.297 . S
C559 C560 1.479 . S
C559 H573 0.950 . S
C560 C559 1.479 . S
C560 C561 1.375 . S
C560 C566 1.404 . S
C561 C560 1.375 . S
C561 C562 1.369 . S
C561 H574 0.950 . S
C562 C561 1.369 . S
C562 C563 1.392 . S
C562 H575 0.951 . S
C563 C562 1.392 . S
C563 C565 1.384 . S
H564 C566 0.949 . S
C565 C563 1.384 . S
C565 C566 1.385 . S
C565 H567 0.950 . S
C566 C560 1.404 . S
C566 H564 0.949 . S
C566 C565 1.385 . S
H567 C565 0.950 . S
H568 C552 0.951 . S
H569 C554 0.951 . S
H570 C556 0.951 . S
H571 C557 0.950 . S
H572 C558 0.950 . S
H573 C559 0.950 . S
H574 C561 0.950 . S
H575 C562 0.951 . S
C576 C577 1.386 . S
C576 C578 1.383 . S
C576 H592 0.951 . S
C577 C576 1.386 . S
C577 C581 1.383 . S
C578 C576 1.383 . S
C578 C579 1.402 . S
C578 H593 0.951 . S
C579 C578 1.402 . S
C579 C580 1.375 . S
C579 C582 1.481 . S
C580 C579 1.375 . S
C580 C581 1.367 . S
C580 H594 0.951 . S
C581 C577 1.383 . S
C581 C580 1.367 . S
C581 H595 0.950 . S
C582 C579 1.481 . S
C582 C583 1.297 . S
C582 H596 0.950 . S
C583 C582 1.297 . S
C583 C584 1.479 . S
C583 H597 0.950 . S
C584 C583 1.479 . S
C584 C585 1.375 . S
C584 C590 1.404 . S
C585 C584 1.375 . S
C585 C586 1.369 . S
C585 H598 0.950 . S
C586 C585 1.369 . S
C586 C587 1.392 . S
C586 H599 0.951 . S
C587 C586 1.392 . S
C587 C589 1.384 . S
H588 C590 0.949 . S
C589 C587 1.384 . S
C589 C590 1.385 . S
C589 H591 0.950 . S
C590 C584 1.404 . S
C590 H588 0.949 . S
C590 C589 1.385 . S
H591 C589 0.950 . S
H592 C576 0.951 . S
H593 C578 0.951 . S
H594 C580 0.951 . S
H595 C581 0.950 . S
H596 C582 0.950 . S
H597 C583 0.950 . S
H598 C585 0.950 . S
H599 C586 0.951 . S
C600 C601 1.386 . S
C600 C602 1.383 . S
C600 H616 0.951 . S
C601 C600 1.386 . S
C601 C605 1.383 . S
C602 C600 1.383 . S
C602 C603 1.402 . S
C602 H617 0.951 . S
C603 C602 1.402 . S
C603 C604 1.375 . S
C603 C606 1.481 . S
C604 C603 1.375 . S
C604 C605 1.367 . S
C604 H618 0.951 . S
C605 C601 1.383 . S
C605 C604 1.367 . S
C605 H619 0.950 . S
C606 C603 1.481 . S
C606 C607 1.297 . S
C606 H620 0.950 . S
C607 C606 1.297 . S
C607 C608 1.479 . S
C607 H621 0.950 . S
C608 C607 1.479 . S
C608 C609 1.375 . S
C608 C614 1.404 . S
C609 C608 1.375 . S
C609 C610 1.369 . S
C609 H622 0.950 . S
C610 C609 1.369 . S
C610 C611 1.392 . S
C610 H623 0.951 . S
C611 C610 1.392 . S
C611 C613 1.384 . S
H612 C614 0.949 . S
C613 C611 1.384 . S
C613 C614 1.385 . S
C613 H615 0.950 . S
C614 C608 1.404 . S
C614 H612 0.949 . S
C614 C613 1.385 . S
H615 C613 0.950 . S
H616 C600 0.951 . S
H617 C602 0.951 . S
H618 C604 0.951 . S
H619 C605 0.950 . S
H620 C606 0.950 . S
H621 C607 0.950 . S
H622 C609 0.950 . S
H623 C610 0.951 . S
C624 C625 1.386 . S
C624 C626 1.383 . S
C624 H640 0.951 . S
C625 C624 1.386 . S
C625 C629 1.383 . S
C626 C624 1.383 . S
C626 C627 1.402 . S
C626 H641 0.951 . S
C627 C626 1.402 . S
C627 C628 1.375 . S
C627 C630 1.481 . S
C628 C627 1.375 . S
C628 C629 1.367 . S
C628 H642 0.951 . S
C629 C625 1.383 . S
C629 C628 1.367 . S
C629 H643 0.950 . S
C630 C627 1.481 . S
C630 C631 1.297 . S
C630 H644 0.950 . S
C631 C630 1.297 . S
C631 C632 1.479 . S
C631 H645 0.950 . S
C632 C631 1.479 . S
C632 C633 1.375 . S
C632 C638 1.404 . S
C633 C632 1.375 . S
C633 C634 1.369 . S
C633 H646 0.950 . S
C634 C633 1.369 . S
C634 C635 1.392 . S
C634 H647 0.951 . S
C635 C634 1.392 . S
C635 C637 1.384 . S
H636 C638 0.949 . S
C637 C635 1.384 . S
C637 C638 1.385 . S
C637 H639 0.950 . S
C638 C632 1.404 . S
C638 H636 0.949 . S
C638 C637 1.385 . S
H639 C637 0.950 . S
H640 C624 0.951 . S
H641 C626 0.951 . S
H642 C628 0.951 . S
H643 C629 0.950 . S
H644 C630 0.950 . S
H645 C631 0.950 . S
H646 C633 0.950 . S
H647 C634 0.951 . S
C648 C649 1.386 . S
C648 C650 1.383 . S
C648 H664 0.951 . S
C649 C648 1.386 . S
C649 C653 1.383 . S
C650 C648 1.383 . S
C650 C651 1.402 . S
C650 H665 0.951 . S
C651 C650 1.402 . S
C651 C652 1.375 . S
C651 C654 1.481 . S
C652 C651 1.375 . S
C652 C653 1.367 . S
C652 H666 0.951 . S
C653 C649 1.383 . S
C653 C652 1.367 . S
C653 H667 0.950 . S
C654 C651 1.481 . S
C654 C655 1.297 . S
C654 H668 0.950 . S
C655 C654 1.297 . S
C655 C656 1.479 . S
C655 H669 0.950 . S
C656 C655 1.479 . S
C656 C657 1.375 . S
C656 C662 1.404 . S
C657 C656 1.375 . S
C657 C658 1.369 . S
C657 H670 0.950 . S
C658 C657 1.369 . S
C658 C659 1.392 . S
C658 H671 0.951 . S
C659 C658 1.392 . S
C659 C661 1.384 . S
H660 C662 0.949 . S
C661 C659 1.384 . S
C661 C662 1.385 . S
C661 H663 0.950 . S
C662 C656 1.404 . S
C662 H660 0.949 . S
C662 C661 1.385 . S
H663 C661 0.950 . S
H664 C648 0.951 . S
H665 C650 0.951 . S
H666 C652 0.951 . S
H667 C653 0.950 . S
H668 C654 0.950 . S
H669 C655 0.950 . S
H670 C657 0.950 . S
H671 C658 0.951 . S
C241 C209 1.724 1_556 S
C251 C5 1.553 . S
C265 C9 1.727 1_556 S
C275 C45 1.567 . S
C289 C49 1.696 . S
C299 C85 1.589 . S
C313 C125 1.624 . S
C323 C89 1.723 . S
C337 C165 1.546 . S
C347 C129 1.693 1_556 S
C361 C169 1.698 . S
C371 C205 1.602 . S
C385 C179 1.940 . S
C395 C15 1.914 . S
C409 C219 1.942 1_554 S
C419 C55 1.942 . S
C433 C95 1.945 . S
C443 C19 1.938 1_554 S
C457 C135 1.945 . S
C467 C59 1.937 1_554 S
C481 C175 1.934 . S
C491 C99 1.940 1_554 S
C505 C139 1.936 1_554 S
C515 C215 1.940 . S
C529 C18 1.426 . S
C539 C8 1.486 . S
C553 C58 1.424 . S
C563 C48 1.402 . S
C577 C98 1.465 . S
C587 C88 1.377 . S
C601 C138 1.424 . S
C611 C128 1.402 . S
C625 C168 1.452 . S
C635 C178 1.374 . S
C649 C218 1.408 . S
C659 C208 1.480 . S
